data_POSCAR
  _audit_creation_date              2014-09-24
  _audit_creation_method            'ToBaCCo'
  _symmetry_space_group_name_H-M    'P1'
  _symmetry_Int_Tables_number       1
  _symmetry_cell_setting            triclinic
  loop_
  _symmetry_equiv_pos_as_xyz
 x,y,z
_cell_length_a 59.0102
_cell_length_b 59.0101
_cell_length_c 58.9772
_cell_angle_alpha 89.995500
_cell_angle_beta 89.990300
_cell_angle_gamma 89.982500
loop_
  _atom_site_label
  _atom_site_type_symbol
  _atom_site_fract_x
  _atom_site_fract_y
  _atom_site_fract_z
C1 C 0.33904 1.36937 0.33925
 C2 C 0.34875 1.37886 0.31972
 C3 C 0.36809 1.36906 0.30997
 C4 C 0.37792 1.34978 0.31977
 C5 C 0.36842 1.34008 0.33930
 C6 C 0.34889 1.34989 0.34910
 C7 C 0.31950 1.37885 0.34895
 C8 C 0.30975 1.36904 0.36828
 C9 C 0.31954 1.34976 0.37812
 C10 C 0.33907 1.34007 0.36863
 C11 C 0.34881 1.32058 0.37815
 C12 C 0.36813 1.31084 0.36835
 C13 C 0.37794 1.32059 0.34904
 H14 H 0.34117 1.39374 0.31200
 H15 H 0.39283 1.34222 0.31210
 H16 H 0.31179 1.39373 0.34137
 H17 H 0.31186 1.34219 0.39303
 H18 H 0.34129 1.31285 0.39305
 H19 H 0.39284 1.31286 0.34153
 C20 C 0.33873 0.86904 0.83976
 C21 C 0.34847 0.87854 0.82025
 C22 C 0.36779 0.86873 0.81052
 C23 C 0.37759 0.84943 0.82028
 C24 C 0.36807 0.83971 0.83979
 C25 C 0.34854 0.84953 0.84959
 C26 C 0.31919 0.87853 0.84945
 C27 C 0.30940 0.86871 0.86876
 C28 C 0.31916 0.84939 0.87858
 C29 C 0.33870 0.83969 0.86910
 C30 C 0.34841 0.82017 0.87859
 C31 C 0.36772 0.81043 0.86879
 C32 C 0.37756 0.82019 0.84951
 H33 H 0.34096 0.89342 0.81251
 H34 H 0.39249 0.84191 0.81257
 H35 H 0.31151 0.89343 0.84188
 H36 H 0.31146 0.84181 0.89347
 H37 H 0.34087 0.81243 0.89347
 H38 H 0.39246 0.81247 0.84200
 C39 C 0.83951 1.36910 0.83881
 C40 C 0.84919 1.37858 0.81925
 C41 C 0.86851 1.36877 0.80947
 C42 C 0.87836 1.34949 0.81927
 C43 C 0.86889 1.33980 0.83882
 C44 C 0.84938 1.34962 0.84865
 C45 C 0.81999 1.37858 0.84854
 C46 C 0.81029 1.36878 0.86788
 C47 C 0.82008 1.34952 0.87772
 C48 C 0.83960 1.33982 0.86821
 C49 C 0.84935 1.32034 0.87773
 C50 C 0.86865 1.31059 0.86791
 C51 C 0.87842 1.32032 0.84857
 H52 H 0.84159 1.39345 0.81154
 H53 H 0.89326 1.34193 0.81158
 H54 H 0.81222 1.39344 0.84100
 H55 H 0.81239 1.34201 0.89263
 H56 H 0.84185 1.31262 0.89264
 H57 H 0.89331 1.31259 0.84104
 C58 C 0.83984 0.86915 0.33902
 C59 C 0.84954 0.87865 0.31950
 C60 C 0.86886 0.86885 0.30972
 C61 C 0.87868 0.84953 0.31949
 C62 C 0.86919 0.83982 0.33902
 C63 C 0.84967 0.84964 0.34885
 C64 C 0.82031 0.87863 0.34874
 C65 C 0.81057 0.86881 0.36804
 C66 C 0.82032 0.84951 0.37786
 C67 C 0.83984 0.83981 0.36836
 C68 C 0.84956 0.82030 0.37786
 C69 C 0.86886 0.81055 0.36804
 C70 C 0.87868 0.82030 0.34874
 H71 H 0.84197 0.89355 0.31181
 H72 H 0.89358 0.84197 0.31180
 H73 H 0.81257 0.89351 0.34122
 H74 H 0.81259 0.84198 0.39275
 H75 H 0.84203 0.81256 0.39275
 H76 H 0.89357 0.81257 0.34121
 C77 C 0.66032 0.63096 0.33896
 C78 C 0.65059 0.62146 0.31945
 C79 C 0.63126 0.63127 0.30971
 C80 C 0.62146 0.65058 0.31949
 C81 C 0.63097 0.66029 0.33900
 C82 C 0.65050 0.65047 0.34880
 C83 C 0.67986 0.62148 0.34866
 C84 C 0.68962 0.63129 0.36795
 C85 C 0.67987 0.65058 0.37778
 C86 C 0.66034 0.66029 0.36831
 C87 C 0.65064 0.67980 0.37782
 C88 C 0.63133 0.68955 0.36803
 C89 C 0.62149 0.67980 0.34874
 H90 H 0.65816 0.60657 0.31175
 H91 H 0.60655 0.65815 0.31182
 H92 H 0.68759 0.60659 0.34112
 H93 H 0.68762 0.65811 0.39266
 H94 H 0.65818 0.68753 0.39270
 H95 H 0.60660 0.68754 0.34124
 C96 C 0.66132 0.13110 0.83964
 C97 C 0.65159 0.12161 0.82012
 C98 C 0.63225 0.13139 0.81043
 C99 C 0.62240 0.15064 0.82023
 C100 C 0.63190 0.16035 0.83974
 C101 C 0.65146 0.15057 0.84952
 C102 C 0.68088 0.12165 0.84931
 C103 C 0.69065 0.13146 0.86863
 C104 C 0.68084 0.15073 0.87848
 C105 C 0.66128 0.16040 0.86903
 C106 C 0.65152 0.17988 0.87856
 C107 C 0.63218 0.18958 0.86879
 C108 C 0.62237 0.17983 0.84950
 H109 H 0.65914 0.10676 0.81235
 H110 H 0.60748 0.15814 0.81254
 H111 H 0.68860 0.10678 0.84171
 H112 H 0.68853 0.15830 0.89339
 H113 H 0.65904 0.18762 0.89345
 H114 H 0.60744 0.18752 0.84201
 C115 C 1.16110 0.63083 0.83984
 C116 C 1.15139 0.62133 0.82032
 C117 C 1.13208 0.63114 0.81057
 C118 C 1.12226 0.65043 0.82032
 C119 C 1.13175 0.66015 0.83984
 C120 C 1.15127 0.65034 0.84966
 C121 C 1.18063 0.62134 0.84955
 C122 C 1.19039 0.63116 0.86886
 C123 C 1.18062 0.65048 0.87867
 C124 C 1.16109 0.66017 0.86917
 C125 C 1.15136 0.67969 0.87866
 C126 C 1.13206 0.68942 0.86884
 C127 C 1.12225 0.67966 0.84955
 H128 H 1.15891 0.60645 0.81258
 H129 H 1.10737 0.65795 0.81260
 H130 H 1.18832 0.60644 0.84198
 H131 H 1.18830 0.65805 0.89357
 H132 H 1.15888 0.68744 0.89355
 H133 H 1.10736 0.68738 0.84202
 C134 C 1.16129 0.13096 0.33876
 C135 C 1.15158 0.12147 0.31923
 C136 C 1.13224 0.13127 0.30948
 C137 C 1.12242 0.15056 0.31928
 C138 C 1.13192 0.16026 0.33880
 C139 C 1.15145 0.15045 0.34861
 C140 C 1.18082 0.12148 0.34847
 C141 C 1.19057 0.13128 0.36780
 C142 C 1.18078 0.15058 0.37763
 C143 C 1.16125 0.16027 0.36813
 C144 C 1.15151 0.17976 0.37765
 C145 C 1.13220 0.18950 0.36785
 C146 C 1.12240 0.17976 0.34854
 H147 H 1.15916 0.10658 0.31153
 H148 H 1.10750 0.15812 0.31161
 H149 H 1.18853 0.10659 0.34089
 H150 H 1.18845 0.15814 0.39254
 H151 H 1.15903 0.18749 0.39255
 H152 H 1.10750 0.18748 0.34104
 C153 C 0.66130 1.36907 0.66038
 C154 C 0.65156 1.37857 0.67990
 C155 C 0.63222 1.36879 0.68960
 C156 C 0.62239 1.34953 0.67981
 C157 C 0.63190 1.33982 0.66030
 C158 C 0.65146 1.34960 0.65052
 C159 C 0.68086 1.37853 0.65071
 C160 C 0.69064 1.36871 0.63139
 C161 C 0.68085 1.34943 0.62154
 C162 C 0.66129 1.33976 0.63101
 C163 C 0.65155 1.32028 0.62148
 C164 C 0.63221 1.31058 0.63126
 C165 C 0.62239 1.32034 0.65055
 H166 H 0.65910 1.39343 0.68767
 H167 H 0.60747 1.34204 0.68751
 H168 H 0.68856 1.39340 0.65831
 H169 H 0.68854 1.34186 0.60665
 H170 H 0.65908 1.31254 0.60660
 H171 H 0.60747 1.31265 0.65805
 C172 C 0.66022 0.86910 1.16109
 C173 C 0.65051 0.87861 1.18061
 C174 C 0.63119 0.86881 1.19039
 C175 C 0.62138 0.84949 1.18062
 C176 C 0.63088 0.83978 1.16110
 C177 C 0.65040 0.84959 1.15128
 C178 C 0.67974 0.87857 1.15137
 C179 C 0.68949 0.86874 1.13207
 C180 C 0.67974 0.84945 1.12226
 C181 C 0.66023 0.83975 1.13176
 C182 C 0.65052 0.82024 1.12227
 C183 C 0.63122 0.81050 1.13209
 C184 C 0.62140 0.82026 1.15139
 H185 H 0.65808 0.89350 1.18830
 H186 H 0.60648 0.84194 1.18832
 H187 H 0.68747 0.89346 1.15888
 H188 H 0.68748 0.84192 1.10737
 H189 H 0.65804 0.81250 1.10738
 H190 H 0.60651 0.81254 1.15892
 C191 C 1.16063 1.36953 1.15965
 C192 C 1.15089 1.37902 1.17916
 C193 C 1.13157 1.36924 1.18888
 C194 C 1.12174 1.34997 1.17910
 C195 C 1.13125 1.34025 1.15959
 C196 C 1.15080 1.35004 1.14980
 C197 C 1.18019 1.37898 1.14998
 C198 C 1.18999 1.36914 1.13069
 C199 C 1.18021 1.34985 1.12085
 C200 C 1.16065 1.34019 1.13030
 C201 C 1.15093 1.32068 1.12081
 C202 C 1.13160 1.31097 1.13060
 C203 C 1.12176 1.32075 1.14987
 H204 H 1.15843 1.39388 1.18692
 H205 H 1.10684 1.34246 1.18681
 H206 H 1.18789 1.39385 1.15758
 H207 H 1.18793 1.34225 1.10598
 H208 H 1.15848 1.31291 1.10594
 H209 H 1.10685 1.31304 1.15738
 C210 C 1.16122 0.86903 0.66016
 C211 C 1.15147 0.87852 0.67967
 C212 C 1.13216 0.86872 0.68939
 C213 C 1.12236 0.84944 0.67963
 C214 C 1.13188 0.83972 0.66012
 C215 C 1.15141 0.84952 0.65032
 C216 C 1.18075 0.87851 0.65047
 C217 C 1.19055 0.86869 0.63117
 C218 C 1.18079 0.84938 0.62134
 C219 C 1.16126 0.83968 0.63082
 C220 C 1.15154 0.82017 0.62132
 C221 C 1.13223 0.81044 0.63112
 C222 C 1.12239 0.82021 0.65040
 H223 H 1.15898 0.89340 0.68741
 H224 H 1.10746 0.84192 0.68734
 H225 H 1.18843 0.89340 0.65805
 H226 H 1.18850 0.84180 0.60645
 H227 H 1.15908 0.81242 0.60644
 H228 H 1.10749 0.81250 0.65791
 C229 C 0.34051 0.63024 0.65947
 C230 C 0.35019 0.62075 0.67901
 C231 C 0.36945 0.63059 0.68880
 C232 C 0.37927 0.64989 0.67906
 C233 C 0.36980 0.65959 0.65952
 C234 C 0.35032 0.64976 0.64966
 C235 C 0.32101 0.62075 0.64974
 C236 C 0.31126 0.63058 0.63045
 C237 C 0.32100 0.64988 0.62064
 C238 C 0.34051 0.65959 0.63014
 C239 C 0.35019 0.67913 0.62069
 C240 C 0.36945 0.68890 0.63055
 C241 C 0.37927 0.67914 0.64984
 H242 H 0.34266 0.60587 0.68674
 H243 H 0.39412 0.65743 0.68684
 H244 H 0.31327 0.60587 0.65727
 H245 H 0.31326 0.65743 0.60576
 H246 H 0.34266 0.68688 0.60581
 H247 H 0.39412 0.68689 0.65740
 C248 C 0.33994 0.13050 1.16080
 C249 C 0.34961 0.12102 1.18036
 C250 C 0.36890 0.13084 1.19014
 C251 C 0.37874 0.15013 1.18036
 C252 C 0.36928 0.15982 1.16081
 C253 C 0.34978 0.14999 1.15096
 C254 C 0.32043 0.12101 1.15107
 C255 C 0.31071 0.13082 1.13175
 C256 C 0.32048 0.15010 1.12192
 C257 C 0.33999 0.15980 1.13142
 C258 C 0.34970 0.17930 1.12192
 C259 C 0.36898 0.18906 1.13176
 C260 C 0.37877 0.17932 1.15108
 H261 H 0.34202 0.10614 1.18806
 H262 H 0.39362 0.15771 1.18806
 H263 H 0.31267 0.10615 1.15861
 H264 H 0.31277 0.15762 1.10701
 H265 H 0.34219 0.18703 1.10702
 H266 H 0.39364 0.18707 1.15862
 C267 C 0.84037 0.63027 1.15951
 C268 C 0.85012 0.62076 1.17901
 C269 C 0.86942 0.63057 1.18873
 C270 C 0.87922 0.64987 1.17897
 C271 C 0.86970 0.65960 1.15948
 C272 C 0.85017 0.64979 1.14968
 C273 C 0.82082 0.62082 1.14985
 C274 C 0.81101 0.63068 1.13060
 C275 C 0.82074 0.64998 1.12077
 C276 C 0.84029 0.65966 1.13021
 C277 C 0.84996 0.67920 1.12073
 C278 C 0.86927 0.68893 1.13053
 C279 C 0.87915 0.67914 1.14978
 H280 H 0.84260 0.60589 1.18676
 H281 H 0.89411 0.65739 1.18669
 H282 H 0.81309 0.60594 1.15739
 H283 H 0.81295 0.65754 1.10592
 H284 H 0.84239 0.68697 1.10589
 H285 H 0.89404 0.68686 1.15729
 C286 C 0.83817 0.13148 0.66168
 C287 C 0.84789 0.12198 0.68121
 C288 C 0.86724 0.13176 0.69095
 C289 C 0.87707 0.15104 0.68114
 C290 C 0.86757 0.16074 0.66161
 C291 C 0.84803 0.15095 0.65182
 C292 C 0.81864 0.12200 0.65197
 C293 C 0.80890 0.13180 0.63262
 C294 C 0.81870 0.15108 0.62279
 C295 C 0.83823 0.16077 0.63228
 C296 C 0.84799 0.18024 0.62274
 C297 C 0.86732 0.18995 0.63252
 C298 C 0.87711 0.18021 0.65185
 H299 H 0.84031 0.10710 0.68893
 H300 H 0.89200 0.15858 0.68879
 H301 H 0.81093 0.10713 0.65955
 H302 H 0.81105 0.15864 0.60786
 H303 H 0.84050 0.18795 0.60783
 H304 H 0.89202 0.18791 0.65934
 C305 C 1.36872 0.33837 0.66174
 C306 C 1.37819 0.34806 0.68130
 C307 C 1.36839 0.36739 0.69106
 C308 C 1.34911 0.37723 0.68125
 C309 C 1.33943 0.36776 0.66170
 C310 C 1.34925 0.34824 0.65188
 C311 C 1.37822 0.31885 0.65202
 C312 C 1.36844 0.30913 0.63265
 C313 C 1.34917 0.31895 0.62281
 C314 C 1.33946 0.33846 0.63232
 C315 C 1.31999 0.34823 0.62278
 C316 C 1.31025 0.36753 0.63259
 C317 C 1.31996 0.37730 0.65193
 H318 H 1.39306 0.34047 0.68901
 H319 H 1.34155 0.39215 0.68892
 H320 H 1.39309 0.31113 0.65961
 H321 H 1.34163 0.31131 0.60787
 H322 H 1.31230 0.34074 0.60786
 H323 H 1.31224 0.39220 0.65944
 C324 C 1.36927 0.83906 1.15999
 C325 C 1.37879 0.84882 1.17948
 C326 C 1.36902 0.86818 1.18916
 C327 C 1.34975 0.87801 1.17938
 C328 C 1.34002 0.86848 1.15989
 C329 C 1.34979 0.84891 1.15013
 C330 C 1.37871 0.81948 1.15034
 C331 C 1.36886 0.80967 1.13106
 C332 C 1.34957 0.81946 1.12122
 C333 C 1.33992 0.83904 1.13066
 C334 C 1.32042 0.84878 1.12115
 C335 C 1.31073 0.86813 1.13092
 C336 C 1.32052 0.87798 1.15017
 H337 H 1.39365 0.84129 1.18724
 H338 H 1.34226 0.89294 1.18706
 H339 H 1.39359 0.81178 1.15794
 H340 H 1.34197 0.81174 1.10636
 H341 H 1.31264 0.84122 1.10630
 H342 H 1.31283 0.89291 1.15766
 C343 C 0.86915 0.33894 1.16009
 C344 C 0.87868 0.34868 1.17958
 C345 C 0.86890 0.36800 1.18933
 C346 C 0.84958 0.37781 1.17961
 C347 C 0.83982 0.36829 1.16013
 C348 C 0.84961 0.34876 1.15030
 C349 C 0.87861 0.31941 1.15039
 C350 C 0.86875 0.30961 1.13112
 C351 C 0.84941 0.31937 1.12133
 C352 C 0.83973 0.33891 1.13083
 C353 C 0.82019 0.34863 1.12138
 C354 C 0.81048 0.36795 1.13119
 C355 C 0.82029 0.37778 1.15045
 H356 H 0.89358 0.34117 1.18730
 H357 H 0.84208 0.39271 1.18734
 H358 H 0.89352 0.31173 1.15794
 H359 H 0.84180 0.31166 1.10646
 H360 H 0.81241 0.34109 1.10652
 H361 H 0.81259 0.39268 1.15798
 C362 C 0.86959 0.84026 0.65967
 C363 C 0.87906 0.84997 0.67919
 C364 C 0.86924 0.86926 0.68894
 C365 C 0.84995 0.87908 0.67917
 C366 C 0.84025 0.86959 0.65965
 C367 C 0.85008 0.85008 0.64983
 C368 C 0.87907 0.82072 0.64998
 C369 C 0.86925 0.81096 0.63069
 C370 C 0.84996 0.82071 0.62085
 C371 C 0.84026 0.84024 0.63032
 C372 C 0.82073 0.84994 0.62083
 C373 C 0.81098 0.86923 0.63065
 C374 C 0.82073 0.87907 0.64993
 H375 H 0.89394 0.84244 0.68695
 H376 H 0.84241 0.89396 0.68691
 H377 H 0.89394 0.81298 0.65752
 H378 H 0.84243 0.81295 0.60598
 H379 H 0.81299 0.84239 0.60596
 H380 H 0.81299 0.89395 0.65746
 C381 C 0.63063 0.65999 0.65997
 C382 C 0.62113 0.65029 0.67949
 C383 C 0.63094 0.63100 0.68925
 C384 C 0.65024 0.62117 0.67951
 C385 C 0.65996 0.63065 0.65998
 C386 C 0.65014 0.65016 0.65015
 C387 C 0.62115 0.67952 0.65025
 C388 C 0.63099 0.68927 0.63096
 C389 C 0.65028 0.67951 0.62114
 C390 C 0.65998 0.65998 0.63063
 C391 C 0.67951 0.65027 0.62116
 C392 C 0.68925 0.63098 0.63099
 C393 C 0.67948 0.62116 0.65028
 H394 H 0.60625 0.65783 0.68723
 H395 H 0.65776 0.60629 0.68726
 H396 H 0.60627 0.68726 0.65778
 H397 H 0.65783 0.68725 0.60626
 H398 H 0.68726 0.65780 0.60628
 H399 H 0.68722 0.60628 0.65782
 C400 C 0.63066 1.16099 1.15993
 C401 C 0.62114 1.15123 1.17942
 C402 C 0.63093 1.13191 1.18914
 C403 C 0.65024 1.12211 1.17939
 C404 C 0.65999 1.13164 1.15991
 C405 C 0.65019 1.15118 1.15011
 C406 C 0.62119 1.18054 1.15026
 C407 C 0.63105 1.19036 1.13099
 C408 C 0.65038 1.18061 1.12118
 C409 C 0.66006 1.16106 1.13064
 C410 C 0.67960 1.15136 1.12117
 C411 C 0.68932 1.13203 1.13096
 C412 C 0.67952 1.12217 1.15021
 H413 H 0.60625 1.15874 1.18716
 H414 H 0.65775 1.10720 1.18711
 H415 H 0.60629 1.18821 1.15784
 H416 H 0.65798 1.18834 1.10632
 H417 H 0.68737 1.15892 1.10631
 H418 H 0.68723 1.10726 1.15772
 C419 C 0.13099 0.66150 1.16138
 C420 C 0.12151 0.65178 1.18091
 C421 C 0.13129 0.63242 1.19063
 C422 C 0.15056 0.62258 1.18080
 C423 C 0.16025 0.63209 1.16127
 C424 C 0.15046 0.65164 1.15150
 C425 C 0.12152 0.68105 1.15170
 C426 C 0.13131 0.69081 1.13236
 C427 C 0.15059 0.68101 1.12250
 C428 C 0.16027 0.66146 1.13197
 C429 C 0.17974 0.65170 1.12242
 C430 C 0.18946 0.63236 1.13219
 C431 C 0.17972 0.62256 1.15150
 H432 H 0.10664 0.65936 1.18865
 H433 H 0.15811 0.60765 1.18844
 H434 H 0.10665 0.68877 1.15930
 H435 H 0.15814 0.68868 1.10758
 H436 H 0.18746 0.65921 1.10751
 H437 H 0.18742 0.60763 1.15899
 C438 C 0.13028 1.15971 0.66068
 C439 C 0.12083 1.15003 0.68024
 C440 C 0.13066 1.13073 0.69002
 C441 C 0.14994 1.12089 0.68021
 C442 C 0.15960 1.13035 0.66065
 C443 C 0.14976 1.14985 0.65082
 C444 C 0.12079 1.17923 0.65095
 C445 C 0.13058 1.18894 0.63162
 C446 C 0.14984 1.17916 0.62177
 C447 C 0.15955 1.15965 0.63126
 C448 C 0.17905 1.14993 0.62175
 C449 C 0.18882 1.13065 0.63157
 C450 C 0.17911 1.12085 0.65091
 H451 H 0.10596 1.15763 0.68797
 H452 H 0.15753 1.10601 0.68791
 H453 H 0.10593 1.18699 0.65851
 H454 H 0.15735 1.18687 0.60686
 H455 H 0.18676 1.15744 0.60684
 H456 H 0.18687 1.10599 0.65844
 C457 C 1.36898 0.66157 0.33886
 C458 C 1.37847 0.65183 0.31933
 C459 C 1.36870 0.63247 0.30963
 C460 C 1.34943 0.62264 0.31946
 C461 C 1.33973 0.63216 0.33897
 C462 C 1.34951 0.65172 0.34874
 C463 C 1.37843 0.68113 0.34853
 C464 C 1.36862 0.69090 0.36785
 C465 C 1.34935 0.68110 0.37771
 C466 C 1.33968 0.66155 0.36825
 C467 C 1.32021 0.65180 0.37780
 C468 C 1.31051 0.63245 0.36804
 C469 C 1.32026 0.62263 0.34874
 H470 H 1.39334 0.65941 0.31160
 H471 H 1.34190 0.60770 0.31182
 H472 H 1.39330 0.68883 0.34092
 H473 H 1.34178 0.68879 0.39262
 H474 H 1.31248 0.65932 0.39270
 H475 H 1.31257 0.60771 0.34126
 C476 C 1.36921 1.16108 0.83997
 C477 C 1.37870 1.15138 0.82043
 C478 C 1.36892 1.13206 0.81069
 C479 C 1.34965 1.12222 0.82046
 C480 C 1.33994 1.13169 0.83999
 C481 C 1.34972 1.15122 0.84981
 C482 C 1.37867 1.18061 0.84967
 C483 C 1.36884 1.19036 0.86900
 C484 C 1.34955 1.18056 0.87883
 C485 C 1.33989 1.16102 0.86933
 C486 C 1.32039 1.15127 0.87884
 C487 C 1.31068 1.13196 0.86902
 C488 C 1.32045 1.12217 0.84971
 H489 H 1.39356 1.15892 0.81268
 H490 H 1.34215 1.10732 0.81273
 H491 H 1.39354 1.18833 0.84209
 H492 H 1.34197 1.18823 0.89374
 H493 H 1.31264 1.15878 0.89373
 H494 H 1.31275 1.10727 0.84219
 C495 C 0.86906 0.66013 0.83997
 C496 C 0.87856 0.65041 0.82046
 C497 C 0.86876 0.63112 0.81071
 C498 C 0.84946 0.62131 0.82045
 C499 C 0.83973 0.63081 0.83997
 C500 C 0.84954 0.65032 0.84979
 C501 C 0.87853 0.67965 0.84967
 C502 C 0.86870 0.68942 0.86896
 C503 C 0.84940 0.67968 0.87878
 C504 C 0.83970 0.66016 0.86929
 C505 C 0.82017 0.65046 0.87877
 C506 C 0.81043 0.63117 0.86896
 C507 C 0.82020 0.62133 0.84967
 H508 H 0.89345 0.65793 0.81272
 H509 H 0.84194 0.60643 0.81271
 H510 H 0.89342 0.68738 0.84215
 H511 H 0.84185 0.68743 0.89365
 H512 H 0.81242 0.65800 0.89365
 H513 H 0.81247 0.60645 0.84214
 C514 C 0.86944 1.15993 0.33939
 C515 C 0.87893 1.15023 0.31985
 C516 C 0.86909 1.13095 0.31005
 C517 C 0.84977 1.12116 0.31981
 C518 C 0.84007 1.13064 0.33935
 C519 C 0.84991 1.15012 0.34920
 C520 C 0.87894 1.17942 0.34913
 C521 C 0.86912 1.18917 0.36843
 C522 C 0.84982 1.17944 0.37824
 C523 C 0.84009 1.15995 0.36872
 C524 C 0.82056 1.15026 0.37820
 C525 C 0.81078 1.13100 0.36836
 C526 C 0.82053 1.12118 0.34905
 H527 H 0.89383 1.15779 0.31217
 H528 H 0.84218 1.10629 0.31210
 H529 H 0.89383 1.18715 0.34161
 H530 H 0.84229 1.18717 0.39313
 H531 H 0.81282 1.15779 0.39309
 H532 H 0.81277 1.10633 0.34150
 C533 C 0.63069 0.34016 0.33944
 C534 C 0.62118 0.34987 0.31993
 C535 C 0.63101 0.36916 0.31014
 C536 C 0.65034 0.37896 0.31989
 C537 C 0.66005 0.36945 0.33941
 C538 C 0.65021 0.34995 0.34925
 C539 C 0.62119 0.32065 0.34917
 C540 C 0.63102 0.31088 0.36846
 C541 C 0.65033 0.32061 0.37826
 C542 C 0.66005 0.34011 0.36875
 C543 C 0.67959 0.34979 0.37822
 C544 C 0.68935 0.36907 0.36839
 C545 C 0.67959 0.37890 0.34910
 H546 H 0.60627 0.34232 0.31225
 H547 H 0.65792 0.39384 0.31218
 H548 H 0.60630 0.31293 0.34166
 H549 H 0.65787 0.31286 0.39313
 H550 H 0.68733 0.34225 0.39310
 H551 H 0.68734 0.39377 0.34156
 C552 C 0.63054 0.84011 0.84015
 C553 C 0.62107 0.84983 0.82062
 C554 C 0.63090 0.86911 0.81087
 C555 C 0.65019 0.87892 0.82063
 C556 C 0.65988 0.86943 0.84016
 C557 C 0.65005 0.84992 0.84998
 C558 C 0.62105 0.82060 0.84986
 C559 C 0.63086 0.81083 0.86915
 C560 C 0.65016 0.82057 0.87898
 C561 C 0.65987 0.84009 0.86950
 C562 C 0.67939 0.84978 0.87899
 C563 C 0.68915 0.86907 0.86917
 C564 C 0.67940 0.87890 0.84987
 H565 H 0.60619 0.84231 0.81287
 H566 H 0.65772 0.89379 0.81288
 H567 H 0.60618 0.81287 0.84232
 H568 H 0.65768 0.81282 0.89387
 H569 H 0.68713 0.84224 0.89387
 H570 H 0.68715 0.89377 0.84234
 C571 C 0.13075 0.33882 0.83992
 C572 C 0.12128 0.34855 0.82040
 C573 C 0.13107 0.36788 0.81069
 C574 C 0.15033 0.37771 0.82049
 C575 C 0.16002 0.36820 0.84001
 C576 C 0.15023 0.34866 0.84979
 C577 C 0.12128 0.31927 0.84959
 C578 C 0.13109 0.30948 0.86891
 C579 C 0.15037 0.31927 0.87877
 C580 C 0.16004 0.33882 0.86931
 C581 C 0.17953 0.34855 0.87884
 C582 C 0.18925 0.36787 0.86906
 C583 C 0.17951 0.37770 0.84976
 H584 H 0.10642 0.34102 0.81262
 H585 H 0.15784 0.39262 0.81279
 H586 H 0.10641 0.31157 0.84198
 H587 H 0.15793 0.31157 0.89366
 H588 H 0.18726 0.34101 0.89372
 H589 H 0.18722 0.39261 0.84226
 C590 C 0.13116 0.83855 0.33874
 C591 C 0.12164 0.84827 0.31922
 C592 C 0.13139 0.86763 0.30948
 C593 C 0.15067 0.87748 0.31928
 C594 C 0.16039 0.86797 0.33879
 C595 C 0.15063 0.84842 0.34858
 C596 C 0.12171 0.81900 0.34843
 C597 C 0.13154 0.80925 0.36776
 C598 C 0.15081 0.81906 0.37759
 C599 C 0.16047 0.83861 0.36810
 C600 C 0.17994 0.84838 0.37762
 C601 C 0.18963 0.86772 0.36784
 C602 C 0.17986 0.87752 0.34854
 H603 H 0.10677 0.84068 0.31151
 H604 H 0.15819 0.89241 0.31162
 H605 H 0.10684 0.81128 0.34086
 H606 H 0.15839 0.81139 0.39250
 H607 H 0.18768 0.84087 0.39252
 H608 H 0.18754 0.89244 0.34104
 O609 O 1.08182 1.02207 1.11329
 O610 O 1.10823 1.02210 1.13975
 C611 C 1.08979 1.02983 1.13173
 C612 C 1.07775 1.04840 1.14359
 C613 C 1.08530 1.05620 1.16480
 H614 H 1.09966 1.04821 1.17301
 O615 O 0.91819 0.97808 1.11312
 O616 O 0.89182 0.97808 1.13962
 C617 C 0.91025 0.97034 1.13158
 C618 C 0.92233 0.95181 1.14346
 C619 C 0.91484 0.94408 1.16472
 H620 H 0.90049 0.95208 1.17294
 O621 O 1.02217 1.11294 1.08210
 O622 O 1.02221 1.13949 1.10842
 C623 C 1.02990 1.13141 1.08998
 C624 C 1.04836 1.14328 1.07780
 C625 C 1.05604 1.16459 1.08515
 H626 H 1.04805 1.17286 1.09949
 O627 O 0.97801 0.88726 1.08209
 O628 O 0.97789 0.86072 1.10842
 C629 C 0.97024 0.86880 1.08997
 C630 C 0.95177 0.85695 1.07779
 C631 C 0.94413 0.83562 1.08510
 H632 H 0.95216 0.82731 1.09940
 O633 O 1.11281 1.08177 1.02222
 O634 O 1.13933 1.10810 1.02227
 C635 C 1.13127 1.08968 1.02998
 C636 C 1.14313 1.07756 1.04850
 C637 C 1.16442 1.08497 1.05619
 H638 H 1.17268 1.09929 1.04816
 O639 O 0.88712 0.91841 1.02228
 O640 O 0.86062 0.89207 1.02230
 C641 C 0.86867 0.91049 1.03002
 C642 C 0.85678 0.92258 1.04855
 C643 C 0.83554 0.91512 1.05629
 H644 H 0.82731 0.90077 1.04830
 O645 O 0.97800 1.08196 1.11321
 O646 O 0.97797 1.10833 1.13971
 C647 C 0.97026 1.08989 1.13168
 C648 C 0.95175 1.07780 1.14357
 C649 C 0.94405 1.08523 1.16485
 H650 H 0.95206 1.09956 1.17310
 O651 O 1.02218 0.91816 1.11328
 O652 O 1.02211 0.89179 1.13978
 C653 C 1.02987 0.91021 1.13176
 C654 C 1.04840 0.92226 1.14366
 C655 C 1.05620 0.91469 1.16486
 H656 H 1.04824 0.90030 1.17305
 O657 O 1.11278 0.97783 1.08220
 O658 O 1.13935 0.97781 1.10849
 C659 C 1.13127 0.97010 1.09007
 C660 C 1.14315 0.95162 1.07791
 C661 C 1.16444 0.94393 1.08530
 H662 H 1.17270 0.95191 1.09964
 O663 O 0.88722 1.02233 1.08205
 O664 O 0.86069 1.02240 1.10839
 C665 C 0.86876 1.03009 1.08995
 C666 C 0.85690 1.04860 1.07781
 C667 C 0.83562 1.05632 1.08522
 H668 H 0.82736 1.04834 1.09957
 O669 O 0.91830 1.11308 1.02217
 O670 O 0.89198 1.13961 1.02221
 C671 C 0.91039 1.13154 1.02993
 C672 C 0.92248 1.14338 1.04848
 C673 C 0.91501 1.16463 1.05622
 H674 H 0.90068 1.17288 1.04820
 O675 O 1.08187 0.88700 1.02233
 O676 O 1.10824 0.86050 1.02237
 C677 C 1.08981 0.86855 1.03010
 C678 C 1.07775 0.85671 1.04867
 C679 C 1.08527 0.83550 1.05650
 H680 H 1.09964 0.82727 1.04854
 O681 O 0.91819 1.02229 1.11317
 O682 O 0.89182 1.02234 1.13967
 C683 C 0.91027 1.03003 1.13164
 C684 C 0.92239 1.04850 1.14354
 C685 C 0.91495 1.05620 1.16482
 H686 H 0.90060 1.04821 1.17306
 O687 O 1.08185 0.97785 1.11336
 O688 O 1.10826 0.97782 1.13982
 C689 C 1.08982 0.97011 1.13181
 C690 C 1.07775 0.95157 1.14369
 C691 C 1.08529 0.94373 1.16489
 H692 H 1.09968 0.95166 1.17310
 O693 O 1.02221 0.88716 1.08221
 O694 O 1.02215 0.86063 1.10856
 C695 C 1.02991 0.86868 1.09014
 C696 C 1.04843 0.85678 1.07806
 C697 C 1.05622 0.83558 1.08561
 H698 H 1.04827 0.82740 1.10002
 O699 O 0.97797 1.11297 1.08214
 O700 O 0.97795 1.13950 1.10847
 C701 C 0.97024 1.13144 1.09004
 C702 C 0.95174 1.14333 1.07791
 C703 C 0.94400 1.16458 1.08537
 H704 H 0.95196 1.17280 1.09975
 O705 O 0.88727 1.08206 1.02215
 O706 O 0.86079 1.10844 1.02219
 C707 C 0.86882 1.08999 1.02990
 C708 C 0.85693 1.07790 1.04842
 C709 C 0.83565 1.08535 1.05610
 H710 H 0.82742 1.09968 1.04806
 O711 O 1.11280 0.91811 1.02228
 O712 O 1.13932 0.89178 1.02231
 C713 C 1.13126 0.91021 1.03002
 C714 C 1.14314 0.92232 1.04852
 C715 C 1.16443 0.91491 1.05618
 H716 H 1.17268 0.90059 1.04814
 O717 O 0.97797 0.91826 1.11318
 O718 O 0.97784 0.89188 1.13967
 C719 C 0.97018 0.91033 1.13162
 C720 C 0.95165 0.92245 1.14348
 C721 C 0.94389 0.91499 1.16474
 H722 H 0.95187 0.90063 1.17298
 O723 O 1.02220 1.08198 1.11323
 O724 O 1.02225 1.10836 1.13971
 C725 C 1.02996 1.08992 1.13168
 C726 C 1.04848 1.07782 1.14357
 C727 C 1.05630 1.08535 1.16478
 H728 H 1.04838 1.09976 1.17298
 O729 O 0.88714 0.97813 1.08210
 O730 O 0.86061 0.97813 1.10845
 C731 C 0.86866 0.97041 1.09001
 C732 C 0.85678 0.95191 1.07790
 C733 C 0.83554 0.94418 1.08538
 H734 H 0.82731 0.95217 1.09974
 O735 O 1.11278 1.02203 1.08217
 O736 O 1.13934 1.02206 1.10847
 C737 C 1.13125 1.02976 1.09004
 C738 C 1.14313 1.04825 1.07788
 C739 C 1.16441 1.05592 1.08529
 H740 H 1.17266 1.04792 1.09963
 O741 O 0.91822 0.88743 1.02224
 O742 O 0.89188 0.86093 1.02226
 C743 C 0.91031 0.86896 1.02996
 C744 C 0.92245 0.85703 1.04843
 C745 C 0.91508 0.83570 1.05601
 H746 H 0.90078 0.82745 1.04795
 O747 O 1.08183 1.11286 1.02216
 O748 O 1.10819 1.13935 1.02219
 C749 C 1.08975 1.13132 1.02989
 C750 C 1.07763 1.14324 1.04838
 C751 C 1.08504 1.16454 1.05600
 H752 H 1.09935 1.17278 1.04794
 Cu753 Cu 1.09466 0.99994 1.09513
 Cu754 Cu 1.12645 0.99995 1.12679
 Cu755 Cu 0.90533 1.00021 1.09497
 Cu756 Cu 0.87358 1.00024 1.12669
 Cu757 Cu 1.00009 1.09481 1.09504
 Cu758 Cu 1.00010 1.12658 1.12673
 Cu759 Cu 1.00010 0.90535 1.09505
 Cu760 Cu 0.99998 0.87360 1.12677
 C761 C 1.05919 1.05919 1.13323
 H762 H 1.05346 1.05348 1.11674
 C763 C 1.07459 1.07455 1.17536
 C764 C 0.94089 0.94102 1.13310
 H765 H 0.94657 0.94668 1.11657
 C766 C 0.92561 0.92579 1.17532
 C767 C 1.05914 1.13286 1.05925
 H768 H 1.05352 1.11630 1.05367
 C769 C 1.07426 1.17518 1.07426
 C770 C 0.94095 0.86741 1.05929
 H771 H 0.94653 0.88400 1.05375
 C772 C 0.92592 0.82502 1.07422
 C773 C 1.13273 1.05905 1.05933
 H774 H 1.11619 1.05343 1.05371
 C775 C 1.17502 1.07416 1.07445
 C776 C 0.86715 0.94114 1.05933
 H777 H 0.88367 0.94680 1.05366
 C778 C 0.82495 0.92590 1.07459
 C779 C 0.94095 1.05928 1.13316
 H780 H 0.94659 1.05364 1.11662
 C781 C 0.92577 1.07444 1.17544
 C782 C 1.05915 0.94085 1.13334
 H783 H 1.05344 0.94659 1.11685
 C784 C 1.07452 0.92541 1.17545
 C785 C 1.13274 0.94084 1.05937
 H786 H 1.11619 0.94646 1.05376
 C787 C 1.17505 0.92569 1.07444
 C788 C 0.86730 1.05937 1.05925
 H789 H 0.88384 1.05372 1.05363
 C790 C 0.82503 1.07458 1.07438
 C791 C 0.94100 1.13298 1.05931
 H792 H 0.94666 1.11646 1.05364
 C793 C 0.92576 1.17520 1.07454
 C794 C 1.05917 0.86709 1.05943
 H795 H 1.05347 0.88357 1.05370
 C796 C 1.07452 0.82497 1.07486
 O797 O 1.08198 0.97789 0.88713
 O798 O 1.10835 0.97784 0.86063
 C799 C 1.08991 0.97014 0.86867
 C800 C 1.07781 0.95165 0.85678
 C801 C 1.08528 0.94392 0.83552
 H802 H 1.09963 0.95191 0.82729
 O803 O 0.91813 1.02241 0.88698
 O804 O 0.89175 1.02238 0.86049
 C805 C 0.91018 1.03012 0.86851
 C806 C 0.92223 1.04865 0.85660
 C807 C 0.91462 1.05649 0.83543
 H808 H 0.90020 1.04857 0.82727
 O809 O 0.97796 1.11293 0.91801
 O810 O 0.97801 1.13946 0.89167
 C811 C 0.97027 1.13142 0.91011
 C812 C 0.95180 1.14334 0.92224
 C813 C 0.94408 1.16459 0.91476
 H814 H 0.95206 1.17279 0.90038
 O815 O 1.02218 0.88716 0.91820
 O816 O 1.02216 0.86066 0.89184
 C817 C 1.02988 0.86868 0.91028
 C818 C 1.04836 0.85677 0.92241
 C819 C 1.05610 0.83551 0.91494
 H820 H 1.04814 0.82730 0.90056
 O821 O 1.11286 0.91803 0.97805
 O822 O 1.13937 0.89168 0.97803
 C823 C 1.13132 0.91011 0.97031
 C824 C 1.14321 0.92220 0.95178
 C825 C 1.16445 0.91471 0.94403
 H826 H 1.17267 0.90035 0.95202
 O827 O 0.88721 1.08214 0.97791
 O828 O 0.86073 1.10853 0.97791
 C829 C 0.86876 1.09009 0.97018
 C830 C 0.85687 1.07802 0.95164
 C831 C 0.83563 1.08553 0.94389
 H832 H 0.82742 1.09989 0.95187
 O833 O 1.02212 1.08181 0.88697
 O834 O 1.02222 1.10817 0.86046
 C835 C 1.02989 1.08972 0.86852
 C836 C 1.04841 1.07759 0.85666
 C837 C 1.05611 1.08499 0.83537
 H838 H 1.04810 1.09930 0.82709
 O839 O 0.97803 0.91832 0.88719
 O840 O 0.97795 0.89197 0.86067
 C841 C 0.97027 0.91042 0.86872
 C842 C 0.95180 0.92258 0.85682
 C843 C 0.94416 0.91520 0.83551
 H844 H 0.95218 0.90088 0.82725
 O845 O 1.11301 1.02206 0.91819
 O846 O 1.13954 1.02207 0.89185
 C847 C 1.13148 1.02978 0.91029
 C848 C 1.14335 1.04827 0.92242
 C849 C 1.16462 1.05599 0.91499
 H850 H 1.17287 1.04801 0.90064
 O851 O 0.88717 0.97823 0.91815
 O852 O 0.86065 0.97815 0.89180
 C853 C 0.86871 0.97048 0.91025
 C854 C 0.85683 0.95200 0.92242
 C855 C 0.83553 0.94433 0.91503
 H856 H 0.82727 0.95233 0.90069
 O857 O 1.08186 1.11281 0.97792
 O858 O 1.10823 1.13929 0.97791
 C859 C 1.08980 1.13125 0.97017
 C860 C 1.07774 1.14314 0.95162
 C861 C 1.08522 1.16439 0.94390
 H862 H 1.09955 1.17261 0.95192
 O863 O 0.91816 0.88740 0.97802
 O864 O 0.89180 0.86091 0.97799
 C865 C 0.91024 0.86894 0.97028
 C866 C 0.92235 0.85704 0.95178
 C867 C 0.91491 0.83576 0.94410
 H868 H 0.90057 0.82754 0.95212
 O869 O 0.91825 0.97820 0.88714
 O870 O 0.89190 0.97812 0.86063
 C871 C 0.91034 0.97043 0.86868
 C872 C 0.92248 0.95194 0.85681
 C873 C 0.91511 0.94429 0.83549
 H874 H 0.90080 0.95232 0.82722
 O875 O 1.08197 1.02209 0.88714
 O876 O 1.10835 1.02209 0.86064
 C877 C 1.08990 1.02981 0.86867
 C878 C 1.07779 1.04829 0.85674
 C879 C 1.08523 1.05596 0.83544
 H880 H 1.09958 1.04796 0.82722
 O881 O 0.97798 0.88727 0.91822
 O882 O 0.97790 0.86076 0.89186
 C883 C 0.97021 0.86882 0.91030
 C884 C 0.95169 0.85698 0.92243
 C885 C 0.94399 0.83570 0.91502
 H886 H 0.95199 0.82743 0.90070
 O887 O 1.02216 1.11287 0.91799
 O888 O 1.02227 1.13939 0.89164
 C889 C 1.02994 1.13132 0.91008
 C890 C 1.04845 1.14316 0.92222
 C891 C 1.05620 1.16441 0.91478
 H892 H 1.04824 1.17266 0.90041
 O893 O 0.88718 0.91849 0.97804
 O894 O 0.86067 0.89216 0.97802
 C895 C 0.86872 0.91059 0.97031
 C896 C 0.85683 0.92271 0.95180
 C897 C 0.83553 0.91530 0.94415
 H898 H 0.82728 0.90099 0.95219
 O899 O 1.11292 1.08179 0.97799
 O900 O 1.13943 1.10812 0.97799
 C901 C 1.13139 1.08970 0.97027
 C902 C 1.14331 1.07759 0.95178
 C903 C 1.16457 1.08504 0.94409
 H904 H 1.17279 1.09938 0.95211
 O905 O 1.02223 0.91818 0.88714
 O906 O 1.02221 0.89184 0.86062
 C907 C 1.02995 0.91025 0.86866
 C908 C 1.04847 0.92233 0.85677
 C909 C 1.05620 0.91487 0.83551
 H910 H 1.04822 0.90052 0.82727
 O911 O 0.97790 1.08201 0.88685
 O912 O 0.97793 1.10839 0.86036
 C913 C 0.97017 1.08998 0.86839
 C914 C 0.95159 1.07795 0.85653
 C915 C 0.94371 1.08554 0.83536
 H916 H 0.95165 1.09993 0.82715
 O917 O 0.88718 1.02243 0.91811
 O918 O 0.86066 1.02241 0.89178
 C919 C 0.86871 1.03015 0.91020
 C920 C 0.85685 1.04869 0.92229
 C921 C 0.83562 1.05646 0.91481
 H922 H 0.82739 1.04848 0.90044
 O923 O 1.11294 0.97785 0.91823
 O924 O 1.13947 0.97780 0.89189
 C925 C 1.13140 0.97009 0.91032
 C926 C 1.14325 0.95156 0.92244
 C927 C 1.16449 0.94379 0.91496
 H928 H 1.17273 0.95177 0.90061
 O929 O 1.08180 0.88704 0.97809
 O930 O 1.10815 0.86053 0.97807
 C931 C 1.08972 0.86858 0.97035
 C932 C 1.07764 0.85672 0.95181
 C933 C 1.08510 0.83547 0.94408
 H934 H 1.09943 0.82722 0.95209
 O935 O 0.91831 1.11309 0.97792
 O936 O 0.89199 1.13963 0.97791
 C937 C 0.91041 1.13156 0.97018
 C938 C 0.92251 1.14342 0.95164
 C939 C 0.91506 1.16467 0.94389
 H940 H 0.90073 1.17293 0.95189
 Cu941 Cu 1.09483 0.99998 0.90531
 Cu942 Cu 1.12659 0.99995 0.87360
 Cu943 Cu 0.90533 1.00032 0.90523
 Cu944 Cu 0.87358 1.00025 0.87352
 Cu945 Cu 1.09471 1.09467 1.00007
 Cu946 Cu 1.12645 1.12637 1.00009
 Cu947 Cu 1.09468 0.90518 1.00019
 Cu948 Cu 1.12643 0.87347 1.00019
 Cu949 Cu 0.90541 1.09495 1.00003
 Cu950 Cu 0.87372 1.12671 1.00006
 Cu951 Cu 0.90531 0.90558 1.00015
 Cu952 Cu 0.87358 0.87386 1.00014
 Cu953 Cu 1.00002 1.09476 0.90509
 Cu954 Cu 1.00012 1.12651 0.87337
 Cu955 Cu 1.00011 0.90537 0.90533
 Cu956 Cu 1.00005 0.87365 0.87359
 C957 C 1.05925 0.94088 0.86716
 H958 H 1.05359 0.94654 0.88369
 C959 C 1.07449 0.92565 0.82492
 C960 C 0.94086 1.05936 0.86690
 H961 H 0.94663 1.05361 0.88336
 C962 C 0.92535 1.07482 0.82484
 C963 C 0.94103 1.13300 0.94083
 H964 H 0.94668 1.11648 0.94650
 C965 C 0.92583 1.17522 0.92557
 C966 C 1.05911 0.86712 0.94100
 H967 H 1.05345 0.88364 0.94666
 C968 C 1.07435 0.82490 0.92576
 C969 C 1.13286 0.94078 0.94100
 H970 H 1.11634 0.94646 0.94667
 C971 C 1.17506 0.92549 0.92575
 C972 C 0.86722 1.05944 0.94087
 H973 H 0.88372 1.05375 0.94654
 C974 C 0.82504 1.07476 0.92559
 C975 C 1.05922 1.05909 0.86710
 H976 H 1.05358 1.05348 0.88365
 C977 C 1.07440 1.07419 0.82479
 C978 C 0.94099 0.94110 0.86723
 H979 H 0.94658 0.94670 0.88380
 C980 C 0.92594 0.92605 0.82487
 C981 C 1.13295 1.05905 0.94097
 H982 H 1.11641 1.05340 0.94660
 C983 C 1.17520 1.07426 0.92582
 C984 C 0.86723 0.94122 0.94096
 H985 H 0.88378 0.94683 0.94656
 C986 C 0.82492 0.92610 0.92588
 C987 C 1.05920 1.13277 0.94080
 H988 H 1.05352 1.11625 0.94645
 C989 C 1.07446 1.17499 0.92560
 C990 C 0.94089 0.86740 0.94096
 H991 H 0.94653 0.88394 0.94658
 C992 C 0.92572 0.82513 0.92585
 O993 O 0.97822 0.41799 0.38706
 O994 O 0.97821 0.39165 0.36053
 C995 C 0.97049 0.41007 0.36858
 C996 C 0.95199 0.42218 0.35669
 C997 C 0.94429 0.41472 0.33542
 H998 H 0.95230 0.40037 0.32719
 O999 O 1.02253 0.58190 0.38697
 O1000 O 1.02249 0.60821 0.36042
 C1001 C 1.03025 0.58981 0.36849
 C1002 C 1.04878 0.57773 0.35661
 C1003 C 1.05656 0.58526 0.33539
 H1004 H 1.04859 0.59964 0.32719
 O1005 O 0.88740 0.47779 0.41806
 O1006 O 0.86093 0.47778 0.39166
 C1007 C 0.86894 0.47007 0.41012
 C1008 C 0.85703 0.45158 0.42222
 C1009 C 0.83575 0.44393 0.41477
 H1010 H 0.82753 0.45196 0.40043
 O1011 O 1.11329 0.52210 0.41800
 O1012 O 1.13979 0.52208 0.39163
 C1013 C 1.13174 0.52982 0.41006
 C1014 C 1.14360 0.54836 0.42214
 C1015 C 1.16483 0.55614 0.41464
 H1016 H 1.17306 0.54816 0.40028
 O1017 O 0.91832 0.38697 0.47789
 O1018 O 0.89197 0.36047 0.47778
 C1019 C 0.91042 0.36852 0.47011
 C1020 C 0.92259 0.35665 0.45162
 C1021 C 0.91519 0.33537 0.44391
 H1022 H 0.90085 0.32712 0.45189
 O1023 O 1.08215 0.61298 0.47767
 O1024 O 1.10852 0.63945 0.47772
 C1025 C 1.09010 0.63144 0.46996
 C1026 C 1.07804 0.64333 0.45141
 C1027 C 1.08558 0.66453 0.44360
 H1028 H 1.09996 0.67273 0.45155
 O1029 O 0.91852 0.52196 0.38706
 O1030 O 0.89223 0.52198 0.36049
 C1031 C 0.91065 0.52968 0.36857
 C1032 C 0.92280 0.54815 0.35667
 C1033 C 0.91545 0.55575 0.33532
 H1034 H 0.90115 0.54771 0.32706
 O1035 O 1.08216 0.47793 0.38704
 O1036 O 1.10850 0.47785 0.36050
 C1037 C 1.09006 0.47017 0.36857
 C1038 C 1.07792 0.45168 0.35670
 C1039 C 1.08529 0.44404 0.33538
 H1040 H 1.09959 0.45207 0.32710
 O1041 O 1.02244 0.38694 0.41808
 O1042 O 1.02248 0.36046 0.39169
 C1043 C 1.03019 0.36849 0.41013
 C1044 C 1.04871 0.35661 0.42222
 C1045 C 1.05647 0.33537 0.41471
 H1046 H 1.04848 0.32716 0.40035
 O1047 O 0.97826 0.61289 0.41800
 O1048 O 0.97817 0.63936 0.39159
 C1049 C 0.97048 0.63132 0.41005
 C1050 C 0.95195 0.64318 0.42214
 C1051 C 0.94422 0.66444 0.41468
 H1052 H 0.95223 0.67268 0.40034
 O1053 O 0.88731 0.58179 0.47768
 O1054 O 0.86081 0.60814 0.47766
 C1055 C 0.86885 0.58972 0.46994
 C1056 C 0.85698 0.57762 0.45142
 C1057 C 0.83574 0.58508 0.44367
 H1058 H 0.82750 0.59943 0.45164
 O1059 O 1.11320 0.41804 0.47781
 O1060 O 1.13970 0.39167 0.47780
 C1061 C 1.13166 0.41011 0.47007
 C1062 C 1.14354 0.42222 0.45155
 C1063 C 1.16479 0.41474 0.44379
 H1064 H 1.17301 0.40037 0.45177
 O1065 O 0.97833 0.58179 0.38701
 O1066 O 0.97824 0.60810 0.36045
 C1067 C 0.97058 0.58966 0.36853
 C1068 C 0.95212 0.57749 0.35665
 C1069 C 0.94449 0.58483 0.33530
 H1070 H 0.95252 0.59913 0.32702
 O1071 O 1.02241 0.41807 0.38712
 O1072 O 1.02246 0.39174 0.36058
 C1073 C 1.03015 0.41018 0.36864
 C1074 C 1.04862 0.42232 0.35673
 C1075 C 1.05626 0.41495 0.33541
 H1076 H 1.04825 0.40063 0.32715
 O1077 O 1.11324 0.47789 0.41804
 O1078 O 1.13974 0.47781 0.39166
 C1079 C 1.13169 0.47011 0.41011
 C1080 C 1.14355 0.45158 0.42221
 C1081 C 1.16479 0.44383 0.41473
 H1082 H 1.17302 0.45182 0.40037
 O1083 O 0.88735 0.52199 0.41798
 O1084 O 0.86090 0.52203 0.39156
 C1085 C 0.86891 0.52974 0.41001
 C1086 C 0.85701 0.54826 0.42209
 C1087 C 0.83577 0.55599 0.41461
 H1088 H 0.82755 0.54798 0.40025
 O1089 O 0.91836 0.61279 0.47768
 O1090 O 0.89201 0.63931 0.47767
 C1091 C 0.91045 0.63126 0.46995
 C1092 C 0.92257 0.64315 0.45145
 C1093 C 0.91510 0.66441 0.44372
 H1094 H 0.90074 0.67263 0.45170
 O1095 O 1.08224 0.38694 0.47779
 O1096 O 1.10858 0.36042 0.47778
 C1097 C 1.09016 0.36848 0.47006
 C1098 C 1.07807 0.35660 0.45154
 C1099 C 1.08556 0.33537 0.44377
 H1100 H 1.09993 0.32715 0.45174
 O1101 O 1.08228 0.52213 0.38694
 O1102 O 1.10863 0.52211 0.36041
 C1103 C 1.09021 0.52986 0.36846
 C1104 C 1.07813 0.54840 0.35659
 C1105 C 1.08565 0.55621 0.33536
 H1106 H 1.10003 0.54826 0.32714
 O1107 O 0.91842 0.47776 0.38701
 O1108 O 0.89212 0.47774 0.36045
 C1109 C 0.91053 0.47002 0.36853
 C1110 C 0.92265 0.45151 0.35666
 C1111 C 0.91522 0.44378 0.33539
 H1112 H 0.90087 0.45177 0.32713
 O1113 O 1.02247 0.61298 0.41796
 O1114 O 1.02244 0.63945 0.39156
 C1115 C 1.03018 0.63144 0.41000
 C1116 C 1.04871 0.64333 0.42207
 C1117 C 1.05650 0.66453 0.41452
 H1118 H 1.04854 0.67272 0.40013
 O1119 O 0.97823 0.38700 0.41816
 O1120 O 0.97822 0.36051 0.39178
 C1121 C 0.97050 0.36855 0.41022
 C1122 C 0.95199 0.35666 0.42233
 C1123 C 0.94432 0.33538 0.41488
 H1124 H 0.95236 0.32714 0.40056
 O1125 O 1.11314 0.58190 0.47767
 O1126 O 1.13967 0.60822 0.47773
 C1127 C 1.13163 0.58981 0.46997
 C1128 C 1.14354 0.57772 0.45146
 C1129 C 1.16476 0.58523 0.44370
 H1130 H 1.17295 0.59962 0.45166
 O1131 O 0.88726 0.41798 0.47785
 O1132 O 0.86075 0.39165 0.47775
 C1133 C 0.86881 0.41008 0.47007
 C1134 C 0.85696 0.42223 0.45156
 C1135 C 0.83568 0.41484 0.44384
 H1136 H 0.82741 0.40052 0.45183
 Cu1137 Cu 1.00032 0.40513 0.40525
 Cu1138 Cu 1.00034 0.37343 0.37349
 Cu1139 Cu 1.00040 0.59476 0.40513
 Cu1140 Cu 1.00033 0.62643 0.37334
 Cu1141 Cu 0.90556 0.49987 0.40518
 Cu1142 Cu 0.87389 0.49988 0.37338
 Cu1143 Cu 1.09511 0.50002 0.40515
 Cu1144 Cu 1.12682 0.49995 0.37339
 C1145 C 0.94119 0.44073 0.36706
 H1146 H 0.94683 0.44639 0.38359
 C1147 C 0.92603 0.42550 0.32480
 C1148 C 1.05955 0.55915 0.36696
 H1149 H 1.05385 0.55344 0.38346
 C1150 C 1.07488 0.57452 0.32480
 C1151 C 0.86739 0.44075 0.44077
 H1152 H 0.88393 0.44635 0.44642
 C1153 C 0.82511 0.42568 0.42557
 C1154 C 1.13321 0.55913 0.44071
 H1155 H 1.11672 0.55343 0.44639
 C1156 C 1.17537 0.57446 0.42541
 C1157 C 0.94114 0.36704 0.44085
 H1158 H 0.94675 0.38358 0.44650
 C1159 C 0.92605 0.32477 0.42566
 C1160 C 1.05945 0.63299 0.44067
 H1161 H 1.05374 0.61651 0.44639
 C1162 C 1.07482 0.67510 0.42527
 C1163 C 0.94129 0.55899 0.36708
 H1164 H 0.94687 0.55343 0.38367
 C1165 C 0.92628 0.57397 0.32468
 C1166 C 1.05942 0.44085 0.36713
 H1167 H 1.05383 0.44645 0.38371
 C1168 C 1.07447 0.42580 0.32477
 C1169 C 1.05949 0.36697 0.44078
 H1170 H 1.05381 0.38348 0.44647
 C1171 C 1.07477 0.32479 0.42548
 C1172 C 0.94114 0.63279 0.44068
 H1173 H 0.94680 0.61627 0.44634
 C1174 C 0.92592 0.67502 0.42545
 C1175 C 0.86737 0.55905 0.44065
 H1176 H 0.88389 0.55340 0.44633
 C1177 C 0.82516 0.57427 0.42538
 C1178 C 1.13317 0.44079 0.44078
 H1179 H 1.11666 0.44647 0.44645
 C1180 C 1.17538 0.42553 0.42550
 O1181 O 1.02211 0.41795 0.61283
 O1182 O 1.02219 0.39160 0.63935
 C1183 C 1.02988 0.41003 0.63129
 C1184 C 1.04838 0.42214 0.64317
 C1185 C 1.05609 0.41469 0.66444
 H1186 H 1.04808 0.40036 0.67269
 O1187 O 0.97811 0.58168 0.61275
 O1188 O 0.97805 0.60802 0.63928
 C1189 C 0.97035 0.58959 0.63122
 C1190 C 0.95184 0.57747 0.64310
 C1191 C 0.94415 0.58490 0.66439
 H1192 H 0.95216 0.59922 0.67264
 O1193 O 0.88725 0.52190 0.58171
 O1194 O 0.86074 0.52200 0.60807
 C1195 C 0.86880 0.52967 0.58962
 C1196 C 0.85694 0.54817 0.57748
 C1197 C 0.83564 0.55586 0.58487
 H1198 H 0.82738 0.54784 0.59920
 O1199 O 1.11311 0.47764 0.58185
 O1200 O 1.13959 0.47764 0.60824
 C1201 C 1.13157 0.46991 0.58980
 C1202 C 1.14347 0.45138 0.57773
 C1203 C 1.16467 0.44359 0.58529
 H1204 H 1.17285 0.45154 0.59969
 O1205 O 1.08210 0.38703 0.52201
 O1206 O 1.10842 0.36049 0.52206
 C1207 C 1.08998 0.36855 0.52975
 C1208 C 1.07781 0.35667 0.54823
 C1209 C 1.08519 0.33536 0.55591
 H1210 H 1.09953 0.32711 0.54792
 O1211 O 0.91836 0.61276 0.52191
 O1212 O 0.89202 0.63928 0.52195
 C1213 C 0.91046 0.63122 0.52965
 C1214 C 0.92258 0.64310 0.54815
 C1215 C 0.91520 0.66441 0.55579
 H1216 H 0.90089 0.67268 0.54776
 O1217 O 0.91820 0.47769 0.61284
 O1218 O 0.89185 0.47773 0.63936
 C1219 C 0.91027 0.46998 0.63132
 C1220 C 0.92234 0.45145 0.64322
 C1221 C 0.91484 0.44371 0.66446
 H1222 H 0.90048 0.45170 0.67268
 O1223 O 1.08203 0.52187 0.61284
 O1224 O 1.10837 0.52192 0.63936
 C1225 C 1.08994 0.52962 0.63131
 C1226 C 1.07784 0.54814 0.64319
 C1227 C 1.08530 0.55586 0.66445
 H1228 H 1.09964 0.54785 0.67269
 O1229 O 0.97790 0.38686 0.58186
 O1230 O 0.97792 0.36036 0.60823
 C1231 C 0.97017 0.36840 0.58980
 C1232 C 0.95163 0.35653 0.57774
 C1233 C 0.94379 0.33536 0.58531
 H1234 H 0.95173 0.32716 0.59972
 O1235 O 1.02234 0.61276 0.58178
 O1236 O 1.02233 0.63925 0.60815
 C1237 C 1.03006 0.63122 0.58971
 C1238 C 1.04856 0.64312 0.57761
 C1239 C 1.05628 0.66437 0.58508
 H1240 H 1.04830 0.67259 0.59945
 O1241 O 0.88717 0.41794 0.52208
 O1242 O 0.86066 0.39160 0.52204
 C1243 C 0.86870 0.41002 0.52979
 C1244 C 0.85681 0.42211 0.54832
 C1245 C 0.83558 0.41463 0.55609
 H1246 H 0.82736 0.40027 0.54812
 O1247 O 1.11301 0.58176 0.52188
 O1248 O 1.13955 0.60806 0.52200
 C1249 C 1.13147 0.58962 0.52966
 C1250 C 1.14333 0.57744 0.54814
 C1251 C 1.16466 0.58476 0.55576
 H1252 H 1.17294 0.59906 0.54773
 O1253 O 1.02232 0.58171 0.61281
 O1254 O 1.02231 0.60804 0.63934
 C1255 C 1.03003 0.58962 0.63129
 C1256 C 1.04853 0.57750 0.64318
 C1257 C 1.05626 0.58496 0.66445
 H1258 H 1.04828 0.59931 0.67268
 O1259 O 0.97791 0.41793 0.61287
 O1260 O 0.97793 0.39158 0.63939
 C1261 C 0.97019 0.41001 0.63135
 C1262 C 0.95167 0.42210 0.64323
 C1263 C 0.94390 0.41462 0.66448
 H1264 H 0.95187 0.40025 0.67271
 O1265 O 1.11297 0.52185 0.58170
 O1266 O 1.13947 0.52189 0.60806
 C1267 C 1.13143 0.52959 0.58961
 C1268 C 1.14332 0.54807 0.57746
 C1269 C 1.16465 0.55566 0.58482
 H1270 H 1.17292 0.54761 0.59912
 O1271 O 0.88717 0.47769 0.58180
 O1272 O 0.86066 0.47773 0.60816
 C1273 C 0.86870 0.46998 0.58974
 C1274 C 0.85681 0.45146 0.57766
 C1275 C 0.83558 0.44372 0.58516
 H1276 H 0.82736 0.45170 0.59953
 O1277 O 1.08205 0.61287 0.52190
 O1278 O 1.10843 0.63934 0.52202
 C1279 C 1.08998 0.63130 0.52970
 C1280 C 1.07787 0.64316 0.54823
 C1281 C 1.08533 0.66440 0.55597
 H1282 H 1.09966 0.67264 0.54797
 O1283 O 0.91818 0.38688 0.52211
 O1284 O 0.89183 0.36039 0.52208
 C1285 C 0.91024 0.36843 0.52984
 C1286 C 0.92229 0.35655 0.54839
 C1287 C 0.91472 0.33537 0.55623
 H1288 H 0.90033 0.32719 0.54829
 O1289 O 1.08196 0.47767 0.61279
 O1290 O 1.10829 0.47766 0.63933
 C1291 C 1.08986 0.46994 0.63127
 C1292 C 1.07774 0.45144 0.64316
 C1293 C 1.08518 0.44373 0.66444
 H1294 H 1.09952 0.45171 0.67268
 O1295 O 0.91828 0.52189 0.61276
 O1296 O 0.89193 0.52199 0.63928
 C1297 C 0.91037 0.52966 0.63122
 C1298 C 0.92250 0.54815 0.64310
 C1299 C 0.91508 0.55585 0.66439
 H1300 H 0.90074 0.54785 0.67264
 O1301 O 0.97814 0.61274 0.58172
 O1302 O 0.97807 0.63923 0.60809
 C1303 C 0.97039 0.63119 0.58964
 C1304 C 0.95191 0.64309 0.57750
 C1305 C 0.94426 0.66440 0.58488
 H1306 H 0.95229 0.67266 0.59920
 O1307 O 1.02212 0.38698 0.58173
 O1308 O 1.02219 0.36046 0.60809
 C1309 C 1.02988 0.36852 0.58964
 C1310 C 1.04839 0.35665 0.57751
 C1311 C 1.05604 0.33535 0.58492
 H1312 H 1.04799 0.32709 0.59922
 O1313 O 1.11324 0.41794 0.52205
 O1314 O 1.13973 0.39156 0.52210
 C1315 C 1.13168 0.40999 0.52982
 C1316 C 1.14353 0.42206 0.54837
 C1317 C 1.16473 0.41453 0.55620
 H1318 H 1.17295 0.40015 0.54825
 O1319 O 0.88734 0.58173 0.52190
 O1320 O 0.86083 0.60809 0.52194
 C1321 C 0.86887 0.58965 0.52964
 C1322 C 0.85697 0.57752 0.54814
 C1323 C 0.83568 0.58494 0.55580
 H1324 H 0.82744 0.59927 0.54778
 Cu1325 Cu 1.00000 0.40507 0.59468
 Cu1326 Cu 1.00007 0.37334 0.62642
 Cu1327 Cu 1.00023 0.59458 0.59462
 Cu1328 Cu 1.00018 0.62629 0.62638
 Cu1329 Cu 0.90537 0.40508 0.49999
 Cu1330 Cu 0.87365 0.37337 0.49990
 Cu1331 Cu 1.09506 0.40513 0.49991
 Cu1332 Cu 1.12677 0.37338 0.49994
 Cu1333 Cu 0.90548 0.59462 0.49979
 Cu1334 Cu 0.87376 0.62636 0.49981
 Cu1335 Cu 1.09494 0.59475 0.49977
 Cu1336 Cu 1.12670 0.62642 0.49988
 Cu1337 Cu 0.90536 0.49978 0.59464
 Cu1338 Cu 0.87364 0.49988 0.62638
 Cu1339 Cu 1.09488 0.49975 0.59465
 Cu1340 Cu 1.12659 0.49978 0.62640
 C1341 C 1.05919 0.44067 0.63277
 H1342 H 1.05355 0.44632 0.61623
 C1343 C 1.07436 0.42547 0.67505
 C1344 C 0.94104 0.55894 0.63270
 H1345 H 0.94667 0.55331 0.61615
 C1346 C 0.92589 0.57410 0.67500
 C1347 C 0.86736 0.55898 0.55895
 H1348 H 0.88391 0.55336 0.55334
 C1349 C 0.82505 0.57411 0.57405
 C1350 C 1.13316 0.44064 0.55912
 H1351 H 1.11668 0.44635 0.55338
 C1352 C 1.17526 0.42528 0.57454
 C1353 C 1.05925 0.36707 0.55901
 H1354 H 1.05366 0.38363 0.55340
 C1355 C 1.07431 0.32474 0.57413
 C1356 C 0.94109 0.63269 0.55897
 H1357 H 0.94669 0.61612 0.55337
 C1358 C 0.92603 0.67503 0.57404
 C1359 C 0.94091 0.44067 0.63286
 H1360 H 0.94660 0.44635 0.61634
 C1361 C 0.92560 0.42541 0.67506
 C1362 C 1.05930 0.55894 0.63280
 H1363 H 1.05365 0.55328 0.61627
 C1364 C 1.07452 0.57414 0.67505
 C1365 C 0.94090 0.36687 0.55913
 H1366 H 0.94664 0.38334 0.55339
 C1367 C 0.92546 0.32481 0.57457
 C1368 C 1.05934 0.63276 0.55902
 H1369 H 1.05369 0.61625 0.55335
 C1370 C 1.07455 0.67497 0.57427
 C1371 C 0.86717 0.44068 0.55908
 H1372 H 0.88368 0.44636 0.55339
 C1373 C 0.82500 0.42542 0.57439
 C1374 C 1.13290 0.55893 0.55896
 H1375 H 1.11632 0.55338 0.55338
 C1376 C 1.17528 0.57388 0.57398
 O1377 O 0.47772 0.91834 0.38701
 O1378 O 0.47770 0.89203 0.36045
 C1379 C 0.46999 0.91045 0.36853
 C1380 C 0.45148 0.92258 0.35666
 C1381 C 0.44380 0.91516 0.33537
 H1382 H 0.45183 0.90084 0.32712
 O1383 O 0.52183 1.08207 0.38708
 O1384 O 0.52185 1.10843 0.36056
 C1385 C 0.52955 1.08999 0.36860
 C1386 C 0.54803 1.07787 0.35667
 C1387 C 0.55570 1.08532 0.33538
 H1388 H 0.54768 1.09966 0.32716
 O1389 O 0.38676 0.97808 0.41806
 O1390 O 0.36029 0.97807 0.39167
 C1391 C 0.36831 0.97034 0.41011
 C1392 C 0.35644 0.95180 0.42218
 C1393 C 0.33524 0.94400 0.41466
 H1394 H 0.32702 0.95198 0.40028
 O1395 O 0.61271 1.02226 0.41793
 O1396 O 0.63918 1.02231 0.39153
 C1397 C 0.63116 1.03000 0.40999
 C1398 C 0.64308 1.04846 0.42212
 C1399 C 0.66436 1.05612 0.41468
 H1400 H 0.67258 1.04812 0.40032
 O1401 O 0.41788 0.88721 0.47764
 O1402 O 0.39155 0.86069 0.47767
 C1403 C 0.40996 0.86875 0.46991
 C1404 C 0.42204 0.85688 0.45136
 C1405 C 0.41452 0.83567 0.44355
 H1406 H 0.40014 0.82746 0.45150
 O1407 O 0.58186 1.11300 0.47785
 O1408 O 0.60818 1.13953 0.47774
 C1409 C 0.58974 1.13147 0.47007
 C1410 C 0.57758 1.14334 0.45159
 C1411 C 0.58498 1.16462 0.44388
 H1412 H 0.59933 1.17286 0.45185
 O1413 O 0.41786 1.02229 0.38709
 O1414 O 0.39154 1.02234 0.36054
 C1415 C 0.40996 1.03004 0.36862
 C1416 C 0.42209 1.04854 0.35675
 C1417 C 0.41468 1.05624 0.33546
 H1418 H 0.40036 1.04823 0.32720
 O1419 O 0.58167 0.97806 0.38689
 O1420 O 0.60798 0.97807 0.36033
 C1421 C 0.58957 0.97034 0.36841
 C1422 C 0.57748 0.95182 0.35653
 C1423 C 0.58496 0.94407 0.33528
 H1424 H 0.59931 0.95205 0.32705
 O1425 O 0.52192 0.88723 0.41798
 O1426 O 0.52195 0.86075 0.39159
 C1427 C 0.52966 0.86878 0.41004
 C1428 C 0.54818 0.85690 0.42213
 C1429 C 0.55591 0.83564 0.41466
 H1430 H 0.54790 0.82741 0.40032
 O1431 O 0.47766 1.11316 0.41815
 O1432 O 0.47764 1.13967 0.39179
 C1433 C 0.46993 1.13163 0.41023
 C1434 C 0.45143 1.14353 0.42235
 C1435 C 0.44372 1.16479 0.41489
 H1436 H 0.45171 1.17302 0.40053
 O1437 O 0.38684 1.08218 0.47784
 O1438 O 0.36032 1.10852 0.47783
 C1439 C 0.36838 1.09010 0.47010
 C1440 C 0.35652 1.07801 0.45156
 C1441 C 0.33530 1.08552 0.44375
 H1442 H 0.32709 1.09991 0.45169
 O1443 O 0.61280 0.91830 0.47761
 O1444 O 0.63931 0.89195 0.47759
 C1445 C 0.63126 0.91038 0.46987
 C1446 C 0.64313 0.92248 0.45135
 C1447 C 0.66439 0.91504 0.44361
 H1448 H 0.67264 0.90069 0.45160
 O1449 O 0.47763 1.08208 0.38715
 O1450 O 0.47760 1.10843 0.36062
 C1451 C 0.46989 1.09000 0.36868
 C1452 C 0.45140 1.07789 0.35678
 C1453 C 0.44372 1.08532 0.33549
 H1454 H 0.45172 1.09966 0.32725
 O1455 O 0.52193 0.91825 0.38693
 O1456 O 0.52195 0.89194 0.36038
 C1457 C 0.52967 0.91035 0.36844
 C1458 C 0.54817 0.92246 0.35656
 C1459 C 0.55592 0.91498 0.33530
 H1460 H 0.54796 0.90062 0.32708
 O1461 O 0.61274 0.97806 0.41788
 O1462 O 0.63921 0.97806 0.39148
 C1463 C 0.63120 0.97033 0.40992
 C1464 C 0.64310 0.95183 0.42201
 C1465 C 0.66436 0.94412 0.41454
 H1466 H 0.67258 0.95213 0.40018
 O1467 O 0.38682 1.02230 0.41813
 O1468 O 0.36034 1.02235 0.39173
 C1469 C 0.36838 1.03006 0.41018
 C1470 C 0.35652 1.04862 0.42225
 C1471 C 0.33531 1.05640 0.41472
 H1472 H 0.32709 1.04841 0.40036
 O1473 O 0.41789 1.11318 0.47791
 O1474 O 0.39153 1.13969 0.47791
 C1475 C 0.40997 1.13165 0.47019
 C1476 C 0.42209 1.14354 0.45169
 C1477 C 0.41464 1.16480 0.44396
 H1478 H 0.40029 1.17303 0.45195
 O1479 O 0.58177 0.88728 0.47765
 O1480 O 0.60812 0.86077 0.47763
 C1481 C 0.58969 0.86881 0.46992
 C1482 C 0.57757 0.85692 0.45143
 C1483 C 0.58502 0.83566 0.44369
 H1484 H 0.59939 0.82743 0.45167
 O1485 O 0.58163 1.02227 0.38693
 O1486 O 0.60794 1.02233 0.36037
 C1487 C 0.58951 1.03003 0.36846
 C1488 C 0.57737 1.04853 0.35660
 C1489 C 0.58477 1.05625 0.33531
 H1490 H 0.59909 1.04825 0.32704
 O1491 O 0.41786 0.97808 0.38707
 O1492 O 0.39155 0.97809 0.36052
 C1493 C 0.40997 0.97037 0.36858
 C1494 C 0.42211 0.95188 0.35668
 C1495 C 0.41469 0.94419 0.33539
 H1496 H 0.40034 0.95218 0.32715
 O1497 O 0.52188 1.11306 0.41817
 O1498 O 0.52190 1.13957 0.39181
 C1499 C 0.52963 1.13151 0.41024
 C1500 C 0.54816 1.14337 0.42233
 C1501 C 0.55583 1.16465 0.41489
 H1502 H 0.54778 1.17290 0.40057
 O1503 O 0.47770 0.88719 0.41794
 O1504 O 0.47768 0.86073 0.39153
 C1505 C 0.46996 0.86875 0.40998
 C1506 C 0.45141 0.85688 0.42204
 C1507 C 0.44363 0.83568 0.41450
 H1508 H 0.45161 0.82747 0.40012
 O1509 O 0.61288 1.08196 0.47784
 O1510 O 0.63937 1.10832 0.47773
 C1511 C 0.63132 1.08987 0.47005
 C1512 C 0.64317 1.07775 0.45152
 C1513 C 0.66445 1.08515 0.44380
 H1514 H 0.67273 1.09945 0.45182
 O1515 O 0.38685 0.91826 0.47772
 O1516 O 0.36037 0.89190 0.47775
 C1517 C 0.36838 0.91033 0.47001
 C1518 C 0.35648 0.92243 0.45150
 C1519 C 0.33528 0.91490 0.44371
 H1520 H 0.32709 0.90051 0.45166
 Cu1521 Cu 0.49982 0.90539 0.40511
 Cu1522 Cu 0.49982 0.87371 0.37333
 Cu1523 Cu 0.49975 1.09496 0.40528
 Cu1524 Cu 0.49975 1.12668 0.37354
 Cu1525 Cu 0.40496 1.00018 0.40524
 Cu1526 Cu 0.37327 1.00022 0.37346
 Cu1527 Cu 0.59455 1.00016 0.40505
 Cu1528 Cu 0.62623 1.00020 0.37326
 C1529 C 0.44066 0.94109 0.36707
 H1530 H 0.44629 0.94672 0.38362
 C1531 C 0.42553 0.92595 0.32477
 C1532 C 0.55884 1.05932 0.36704
 H1533 H 0.55324 1.05368 0.38359
 C1534 C 0.57394 1.07452 0.32474
 C1535 C 0.36681 0.94103 0.44076
 H1536 H 0.38330 0.94673 0.44646
 C1537 C 0.32469 0.92567 0.42541
 C1538 C 0.63273 1.05926 0.44070
 H1539 H 0.61619 1.05365 0.44635
 C1540 C 0.67501 1.07434 0.42551
 C1541 C 0.44064 0.86723 0.44063
 H1542 H 0.44634 0.88371 0.44635
 C1543 C 0.42530 0.82511 0.42524
 C1544 C 0.55901 1.13296 0.44084
 H1545 H 0.55339 1.11642 0.44648
 C1546 C 0.57412 1.17524 0.42565
 C1547 C 0.44060 1.05935 0.36716
 H1548 H 0.44622 1.05371 0.38371
 C1549 C 0.42548 1.07450 0.32486
 C1550 C 0.55893 0.94103 0.36692
 H1551 H 0.55325 0.94671 0.38344
 C1552 C 0.57420 0.92577 0.32470
 C1553 C 0.55899 0.86728 0.44066
 H1554 H 0.55334 0.88381 0.44632
 C1555 C 0.57420 0.82506 0.42543
 C1556 C 0.44064 1.13316 0.44090
 H1557 H 0.44629 1.11663 0.44656
 C1558 C 0.42544 1.17539 0.42568
 C1559 C 0.36687 1.05940 0.44083
 H1560 H 0.38336 1.05370 0.44654
 C1561 C 0.32473 1.07473 0.42545
 C1562 C 0.63274 0.94103 0.44057
 H1563 H 0.61621 0.94667 0.44624
 C1564 C 0.67497 0.92585 0.42533
 O1565 O 0.52199 0.91843 0.61271
 O1566 O 0.52205 0.89207 0.63923
 C1567 C 0.52974 0.91051 0.63117
 C1568 C 0.54823 0.92263 0.64306
 C1569 C 0.55588 0.91523 0.66437
 H1570 H 0.54786 0.90092 0.67263
 O1571 O 0.47782 1.08206 0.61275
 O1572 O 0.47780 1.10838 0.63930
 C1573 C 0.47009 1.08995 0.63124
 C1574 C 0.45159 1.07784 0.64312
 C1575 C 0.44389 1.08528 0.66440
 H1576 H 0.45190 1.09961 0.67264
 O1577 O 0.38696 1.02221 0.58179
 O1578 O 0.36047 1.02224 0.60817
 C1579 C 0.36850 1.02994 0.58972
 C1580 C 0.35658 1.04841 0.57760
 C1581 C 0.33527 1.05603 0.58501
 H1582 H 0.32703 1.04798 0.59933
 O1583 O 0.61285 0.97820 0.58161
 O1584 O 0.63934 0.97809 0.60800
 C1585 C 0.63130 0.97042 0.58953
 C1586 C 0.64317 0.95193 0.57739
 C1587 C 0.66448 0.94427 0.58476
 H1588 H 0.67275 0.95230 0.59908
 O1589 O 0.58177 0.88732 0.52187
 O1590 O 0.60812 0.86081 0.52191
 C1591 C 0.58969 0.86886 0.52962
 C1592 C 0.57757 0.85699 0.54813
 C1593 C 0.58498 0.83569 0.55580
 H1594 H 0.59930 0.82744 0.54777
 O1595 O 0.41783 1.11317 0.52214
 O1596 O 0.39146 1.13965 0.52221
 C1597 C 0.40989 1.13161 0.52992
 C1598 C 0.42199 1.14347 0.54846
 C1599 C 0.41444 1.16465 0.55633
 H1600 H 0.40002 1.17284 0.54843
 O1601 O 0.41803 0.97805 0.61286
 O1602 O 0.39169 0.97804 0.63940
 C1603 C 0.41012 0.97032 0.63134
 C1604 C 0.42223 0.95181 0.64323
 C1605 C 0.41476 0.94407 0.66448
 H1606 H 0.40040 0.95206 0.67272
 O1607 O 0.58184 1.02239 0.61270
 O1608 O 0.60816 1.02234 0.63925
 C1609 C 0.58974 1.03009 0.63119
 C1610 C 0.57764 1.04859 0.64309
 C1611 C 0.58512 1.05631 0.66434
 H1612 H 0.59948 1.04832 0.67256
 O1613 O 0.47781 0.88737 0.58168
 O1614 O 0.47782 0.86085 0.60803
 C1615 C 0.47011 0.86890 0.58959
 C1616 C 0.45165 0.85698 0.57745
 C1617 C 0.44406 0.83565 0.58482
 H1618 H 0.45211 0.82739 0.59913
 O1619 O 0.52199 1.11316 0.58173
 O1620 O 0.52202 1.13964 0.60811
 C1621 C 0.52974 1.13161 0.58966
 C1622 C 0.54827 1.14347 0.57757
 C1623 C 0.55602 1.16471 0.58503
 H1624 H 0.54803 1.17296 0.59938
 O1625 O 0.38694 0.91825 0.52195
 O1626 O 0.36046 0.89189 0.52204
 C1627 C 0.36851 0.91032 0.52974
 C1628 C 0.35666 0.92241 0.54830
 C1629 C 0.33543 0.91493 0.55608
 H1630 H 0.32720 0.90057 0.54810
 O1631 O 0.61304 1.08211 0.52208
 O1632 O 0.63951 1.10848 0.52204
 C1633 C 0.63149 1.09006 0.52980
 C1634 C 0.64336 1.07802 0.54837
 C1635 C 0.66452 1.08560 0.55625
 H1636 H 0.67271 1.10001 0.54833
 O1637 O 0.52203 1.08214 0.61279
 O1638 O 0.52206 1.10846 0.63933
 C1639 C 0.52978 1.09004 0.63126
 C1640 C 0.54831 1.07794 0.64313
 C1641 C 0.55606 1.08539 0.66438
 H1642 H 0.54809 1.09974 0.67263
 O1643 O 0.47779 0.91831 0.61283
 O1644 O 0.47779 0.89195 0.63933
 C1645 C 0.47006 0.91038 0.63130
 C1646 C 0.45155 0.92247 0.64321
 C1647 C 0.44382 0.91499 0.66446
 H1648 H 0.45180 0.90062 0.67268
 O1649 O 0.61300 1.02240 0.58178
 O1650 O 0.63946 1.02236 0.60818
 C1651 C 0.63145 1.03012 0.58975
 C1652 C 0.64334 1.04867 0.57771
 C1653 C 0.66449 1.05651 0.58532
 H1654 H 0.67266 1.04856 0.59973
 O1655 O 0.38701 0.97801 0.58181
 O1656 O 0.36052 0.97798 0.60820
 C1657 C 0.36856 0.97026 0.58976
 C1658 C 0.35668 0.95173 0.57767
 C1659 C 0.33546 0.94398 0.58518
 H1660 H 0.32724 0.95195 0.59956
 O1661 O 0.58188 1.11302 0.52206
 O1662 O 0.60819 1.13955 0.52202
 C1663 C 0.58978 1.13150 0.52976
 C1664 C 0.57766 1.14341 0.54826
 C1665 C 0.58513 1.16465 0.55599
 H1666 H 0.59951 1.17285 0.54801
 O1667 O 0.41802 0.88727 0.52187
 O1668 O 0.39170 0.86074 0.52196
 C1669 C 0.41014 0.86880 0.52963
 C1670 C 0.42231 0.85693 0.54811
 C1671 C 0.41499 0.83560 0.55574
 H1672 H 0.40071 0.82731 0.54771
 O1673 O 0.58185 0.97818 0.61270
 O1674 O 0.60817 0.97808 0.63924
 C1675 C 0.58973 0.97042 0.63117
 C1676 C 0.57758 0.95194 0.64305
 C1677 C 0.58497 0.94427 0.66437
 H1678 H 0.59929 0.95227 0.67263
 O1679 O 0.41803 1.02226 0.61280
 O1680 O 0.39170 1.02230 0.63934
 C1681 C 0.41013 1.03001 0.63127
 C1682 C 0.42224 1.04852 0.64314
 C1683 C 0.41481 1.05624 0.66442
 H1684 H 0.40047 1.04825 0.67268
 O1685 O 0.47776 1.11317 0.58179
 O1686 O 0.47774 1.13964 0.60818
 C1687 C 0.47000 1.13161 0.58975
 C1688 C 0.45142 1.14347 0.57772
 C1689 C 0.44360 1.16464 0.58531
 H1690 H 0.45159 1.17284 0.59969
 O1691 O 0.52201 0.88735 0.58172
 O1692 O 0.52207 0.86083 0.60807
 C1693 C 0.52976 0.86889 0.58963
 C1694 C 0.54825 0.85700 0.57749
 C1695 C 0.55592 0.83570 0.58489
 H1696 H 0.54790 0.82745 0.59923
 O1697 O 0.61279 0.91836 0.52183
 O1698 O 0.63930 0.89201 0.52187
 C1699 C 0.63125 0.91045 0.52957
 C1700 C 0.64315 0.92259 0.54805
 C1701 C 0.66446 0.91520 0.55569
 H1702 H 0.67271 0.90088 0.54766
 O1703 O 0.38687 1.08207 0.52207
 O1704 O 0.36033 1.10839 0.52213
 C1705 C 0.36839 1.08995 0.52981
 C1706 C 0.35652 1.07779 0.54829
 C1707 C 0.33521 1.08514 0.55597
 H1708 H 0.32693 1.09946 0.54797
 Cu1709 Cu 0.49989 0.90551 0.59460
 Cu1710 Cu 0.49994 0.87377 0.62632
 Cu1711 Cu 0.49991 1.09500 0.59462
 Cu1712 Cu 0.49990 1.12669 0.62639
 Cu1713 Cu 0.40506 0.90539 0.49978
 Cu1714 Cu 0.37336 0.87365 0.49987
 Cu1715 Cu 0.59464 0.90545 0.49974
 Cu1716 Cu 0.62637 0.87373 0.49976
 Cu1717 Cu 0.40500 1.09501 0.49999
 Cu1718 Cu 0.37325 1.12672 0.50002
 Cu1719 Cu 0.59479 1.09487 0.49997
 Cu1720 Cu 0.62647 1.12663 0.49987
 Cu1721 Cu 0.40515 1.00013 0.59467
 Cu1722 Cu 0.37344 1.00014 0.62644
 Cu1723 Cu 0.59475 1.00030 0.59455
 Cu1724 Cu 0.62643 1.00020 0.62633
 C1725 C 0.55906 0.94114 0.63265
 H1726 H 0.55346 0.94675 0.61608
 C1727 C 0.57413 0.92604 0.67499
 C1728 C 0.44079 1.05930 0.63274
 H1729 H 0.44643 1.05365 0.61620
 C1730 C 0.42563 1.07450 0.67502
 C1731 C 0.36696 1.05926 0.55908
 H1732 H 0.38352 1.05369 0.55346
 C1733 C 0.32462 1.07427 0.57420
 C1734 C 0.63276 0.94111 0.55887
 H1735 H 0.61619 0.94672 0.55328
 C1736 C 0.67509 0.92603 0.57392
 C1737 C 0.55905 0.86740 0.55895
 H1738 H 0.55344 0.88395 0.55334
 C1739 C 0.57416 0.82509 0.57406
 C1740 C 0.44063 1.13313 0.55914
 H1741 H 0.44636 1.11666 0.55339
 C1742 C 0.42523 1.17520 0.57464
 C1743 C 0.44078 0.94104 0.63284
 H1744 H 0.44644 0.94671 0.61632
 C1745 C 0.42554 0.92578 0.67507
 C1746 C 0.55908 1.05938 0.63273
 H1747 H 0.55340 1.05373 0.61620
 C1748 C 0.57435 1.07459 0.67495
 C1749 C 0.44080 0.86737 0.55894
 H1750 H 0.44635 0.88396 0.55335
 C1751 C 0.42586 0.82499 0.57397
 C1752 C 0.55907 1.13307 0.55902
 H1753 H 0.55340 1.11655 0.55336
 C1754 C 0.57433 1.17527 0.57425
 C1755 C 0.36703 0.94097 0.55907
 H1756 H 0.38354 0.94665 0.55338
 C1757 C 0.32486 0.92570 0.57440
 C1758 C 0.63303 1.05940 0.55908
 H1759 H 0.61658 1.05365 0.55331
 C1760 C 0.67506 1.07485 0.57461
 O1761 O 0.47764 0.41791 0.88722
 O1762 O 0.47766 0.39153 0.86073
 C1763 C 0.46991 0.40995 0.86877
 C1764 C 0.45134 0.42199 0.85690
 C1765 C 0.44352 0.41441 0.83571
 H1766 H 0.45150 0.40003 0.82751
 O1767 O 0.52175 0.58178 0.88737
 O1768 O 0.52175 0.60811 0.86083
 C1769 C 0.52948 0.58969 0.86889
 C1770 C 0.54797 0.57758 0.85699
 C1771 C 0.55565 0.58499 0.83569
 H1772 H 0.54764 0.59932 0.82744
 O1773 O 0.38686 0.47764 0.91837
 O1774 O 0.36033 0.47761 0.89204
 C1775 C 0.36839 0.46990 0.91048
 C1776 C 0.35653 0.45141 0.92262
 C1777 C 0.33527 0.44367 0.91520
 H1778 H 0.32701 0.45164 0.90085
 O1779 O 0.61253 0.52200 0.91838
 O1780 O 0.63904 0.52207 0.89201
 C1781 C 0.63098 0.52976 0.91045
 C1782 C 0.64284 0.54828 0.92257
 C1783 C 0.66412 0.55597 0.91515
 H1784 H 0.67238 0.54795 0.90082
 O1785 O 0.41803 0.38694 0.97820
 O1786 O 0.39170 0.36043 0.97823
 C1787 C 0.41011 0.36847 0.97048
 C1788 C 0.42220 0.35658 0.95195
 C1789 C 0.41472 0.33534 0.94422
 H1790 H 0.40038 0.32711 0.95222
 O1791 O 0.58142 0.61288 0.97818
 O1792 O 0.60776 0.63939 0.97813
 C1793 C 0.58933 0.63134 0.97044
 C1794 C 0.57720 0.64323 0.95194
 C1795 C 0.58460 0.66451 0.94425
 H1796 H 0.59892 0.67276 0.95226
 O1797 O 0.41791 0.52178 0.88730
 O1798 O 0.39156 0.52182 0.86078
 C1799 C 0.41000 0.52952 0.86883
 C1800 C 0.42213 0.54800 0.85694
 C1801 C 0.41480 0.55561 0.83559
 H1802 H 0.40053 0.54755 0.82729
 O1803 O 0.58157 0.47778 0.88731
 O1804 O 0.60792 0.47779 0.86079
 C1805 C 0.58950 0.47006 0.86884
 C1806 C 0.57743 0.45154 0.85694
 C1807 C 0.58493 0.44383 0.83568
 H1808 H 0.59928 0.45183 0.82747
 O1809 O 0.52191 0.38698 0.91830
 O1810 O 0.52199 0.36045 0.89197
 C1811 C 0.52968 0.36852 0.91041
 C1812 C 0.54820 0.35668 0.92254
 C1813 C 0.55598 0.33544 0.91509
 H1814 H 0.54803 0.32719 0.90072
 O1815 O 0.47749 0.61278 0.91837
 O1816 O 0.47742 0.63927 0.89198
 C1817 C 0.46972 0.63123 0.91043
 C1818 C 0.45120 0.64309 0.92254
 C1819 C 0.44345 0.66434 0.91508
 H1820 H 0.45143 0.67258 0.90072
 O1821 O 0.38677 0.58163 0.97817
 O1822 O 0.36024 0.60797 0.97812
 C1823 C 0.36831 0.58954 0.97041
 C1824 C 0.35646 0.57744 0.95187
 C1825 C 0.33523 0.58493 0.94410
 H1826 H 0.32699 0.59928 0.95208
 O1827 O 0.61270 0.41809 0.97816
 O1828 O 0.63922 0.39174 0.97814
 C1829 C 0.63117 0.41016 0.97041
 C1830 C 0.64303 0.42226 0.95188
 C1831 C 0.66428 0.41479 0.94411
 H1832 H 0.67252 0.40044 0.95209
 O1833 O 0.47756 0.58169 0.88739
 O1834 O 0.47750 0.60801 0.86084
 C1835 C 0.46983 0.58957 0.86890
 C1836 C 0.45140 0.57739 0.85698
 C1837 C 0.44381 0.58472 0.83563
 H1838 H 0.45183 0.59903 0.82737
 O1839 O 0.52186 0.41798 0.88722
 O1840 O 0.52194 0.39161 0.86073
 C1841 C 0.52962 0.41006 0.86876
 C1842 C 0.54813 0.42218 0.85689
 C1843 C 0.55591 0.41472 0.83564
 H1844 H 0.54795 0.40037 0.82739
 O1845 O 0.61261 0.47780 0.91835
 O1846 O 0.63911 0.47781 0.89198
 C1847 C 0.63108 0.47009 0.91042
 C1848 C 0.64298 0.45159 0.92252
 C1849 C 0.66423 0.44386 0.91503
 H1850 H 0.67243 0.45185 0.90065
 O1851 O 0.38683 0.52184 0.91831
 O1852 O 0.36033 0.52188 0.89196
 C1853 C 0.36838 0.52959 0.91039
 C1854 C 0.35650 0.54812 0.92250
 C1855 C 0.33526 0.55588 0.91500
 H1856 H 0.32705 0.54791 0.90062
 O1857 O 0.41772 0.61273 0.97817
 O1858 O 0.39135 0.63922 0.97813
 C1859 C 0.40979 0.63119 0.97042
 C1860 C 0.42188 0.64308 0.95190
 C1861 C 0.41440 0.66432 0.94418
 H1862 H 0.40004 0.67255 0.95218
 O1863 O 0.58165 0.38708 0.97817
 O1864 O 0.60801 0.36058 0.97817
 C1865 C 0.58958 0.36862 0.97044
 C1866 C 0.57750 0.35673 0.95192
 C1867 C 0.58501 0.33549 0.94421
 H1868 H 0.59936 0.32728 0.95221
 O1869 O 0.58152 0.52198 0.88732
 O1870 O 0.60787 0.52205 0.86080
 C1871 C 0.58943 0.52973 0.86886
 C1872 C 0.57730 0.54823 0.85697
 C1873 C 0.58471 0.55591 0.83567
 H1874 H 0.59903 0.54789 0.82741
 O1875 O 0.41780 0.47757 0.88723
 O1876 O 0.39144 0.47755 0.86074
 C1877 C 0.40987 0.46982 0.86878
 C1878 C 0.42195 0.45128 0.85690
 C1879 C 0.41440 0.44343 0.83571
 H1880 H 0.39999 0.45135 0.82751
 O1881 O 0.52169 0.61283 0.91840
 O1882 O 0.52168 0.63932 0.89202
 C1883 C 0.52940 0.63129 0.91047
 C1884 C 0.54787 0.64320 0.92259
 C1885 C 0.55554 0.66449 0.91516
 H1886 H 0.54753 0.67273 0.90082
 O1887 O 0.47771 0.38693 0.91832
 O1888 O 0.47772 0.36039 0.89199
 C1889 C 0.47000 0.36845 0.91042
 C1890 C 0.45150 0.35658 0.92256
 C1891 C 0.44376 0.33533 0.91510
 H1892 H 0.45173 0.32710 0.90073
 O1893 O 0.61246 0.58185 0.97815
 O1894 O 0.63896 0.60819 0.97809
 C1895 C 0.63091 0.58976 0.97039
 C1896 C 0.64280 0.57764 0.95189
 C1897 C 0.66408 0.58506 0.94420
 H1898 H 0.67232 0.59940 0.95220
 O1899 O 0.38697 0.41796 0.97822
 O1900 O 0.36049 0.39160 0.97826
 C1901 C 0.36851 0.41002 0.97051
 C1902 C 0.35659 0.42211 0.95200
 C1903 C 0.33533 0.41464 0.94432
 H1904 H 0.32712 0.40029 0.95234
 Cu1905 Cu 0.49978 0.40510 0.90540
 Cu1906 Cu 0.49984 0.37334 0.87370
 Cu1907 Cu 0.49962 0.59464 0.90553
 Cu1908 Cu 0.49958 0.62633 0.87376
 Cu1909 Cu 0.40499 0.49970 0.90544
 Cu1910 Cu 0.37326 0.49972 0.87372
 Cu1911 Cu 0.59441 0.49989 0.90548
 Cu1912 Cu 0.62614 0.49993 0.87374
 C1913 C 0.44057 0.44057 0.86724
 H1914 H 0.44630 0.44631 0.88372
 C1915 C 0.42517 0.42511 0.82515
 C1916 C 0.55878 0.55904 0.86738
 H1917 H 0.55316 0.55342 0.88394
 C1918 C 0.57389 0.57417 0.82507
 C1919 C 0.36694 0.44065 0.94118
 H1920 H 0.38347 0.44631 0.94680
 C1921 C 0.32471 0.42540 0.92604
 C1922 C 0.63243 0.55909 0.94110
 H1923 H 0.61589 0.55346 0.94673
 C1924 C 0.67471 0.57423 0.92595
 C1925 C 0.44074 0.36695 0.94114
 H1926 H 0.44641 0.38347 0.94679
 C1927 C 0.42549 0.32474 0.92591
 C1928 C 0.55868 0.63282 0.94113
 H1929 H 0.55307 0.61627 0.94676
 C1930 C 0.57378 0.67511 0.92598
 C1931 C 0.44059 0.55887 0.86739
 H1932 H 0.44615 0.55331 0.88399
 C1933 C 0.42563 0.57384 0.82497
 C1934 C 0.55887 0.44074 0.86729
 H1935 H 0.55319 0.44639 0.88381
 C1936 C 0.57419 0.42554 0.82507
 C1937 C 0.55894 0.36708 0.94111
 H1938 H 0.55325 0.38359 0.94677
 C1939 C 0.57426 0.32487 0.92591
 C1940 C 0.44043 0.63271 0.94111
 H1941 H 0.44610 0.61619 0.94676
 C1942 C 0.42517 0.67493 0.92589
 C1943 C 0.36685 0.55888 0.94108
 H1944 H 0.38336 0.55321 0.94677
 C1945 C 0.32467 0.57416 0.92579
 C1946 C 0.63264 0.44081 0.94110
 H1947 H 0.61612 0.44647 0.94678
 C1948 C 0.67484 0.42559 0.92581
 O1949 O 0.52191 0.41817 1.11344
 O1950 O 0.52196 0.39182 1.13995
 C1951 C 0.52966 0.41025 1.13191
 C1952 C 0.54815 0.42237 1.14379
 C1953 C 0.55588 0.41494 1.16506
 H1954 H 0.54790 0.40060 1.17332
 O1955 O 0.47756 0.58184 1.11335
 O1956 O 0.47752 0.60823 1.13983
 C1957 C 0.46981 0.58979 1.13180
 C1958 C 0.45129 0.57771 1.14370
 C1959 C 0.44351 0.58526 1.16491
 H1960 H 0.45147 0.59964 1.17311
 O1961 O 0.38681 0.52206 1.08235
 O1962 O 0.36028 0.52206 1.10869
 C1963 C 0.36833 0.52978 1.09025
 C1964 C 0.35643 0.54827 1.07813
 C1965 C 0.33520 0.55604 1.08563
 H1966 H 0.32700 0.54810 1.10003
 O1967 O 0.61263 0.47786 1.08226
 O1968 O 0.63917 0.47786 1.10859
 C1969 C 0.63111 0.47013 1.09017
 C1970 C 0.64299 0.45163 1.07804
 C1971 C 0.66425 0.44390 1.08548
 H1972 H 0.67249 0.45188 1.09984
 O1973 O 0.58165 0.38711 1.02241
 O1974 O 0.60801 0.36061 1.02246
 C1975 C 0.58958 0.36866 1.03017
 C1976 C 0.57749 0.35680 1.04872
 C1977 C 0.58494 0.33553 1.05642
 H1978 H 0.59926 0.32728 1.04839
 O1979 O 0.41775 0.61271 1.02240
 O1980 O 0.39138 0.63920 1.02241
 C1981 C 0.40982 0.63117 1.03013
 C1982 C 0.42192 0.64307 1.04864
 C1983 C 0.41447 0.66434 1.05633
 H1984 H 0.40012 0.67257 1.04832
 O1985 O 0.41790 0.47790 1.11341
 O1986 O 0.39153 0.47783 1.13990
 C1987 C 0.40997 0.47014 1.13187
 C1988 C 0.42208 0.45163 1.14376
 C1989 C 0.41459 0.44388 1.16500
 H1990 H 0.40023 0.45186 1.17322
 O1991 O 0.58161 0.52210 1.11328
 O1992 O 0.60799 0.52218 1.13976
 C1993 C 0.58954 0.52987 1.13173
 C1994 C 0.57744 0.54840 1.14360
 C1995 C 0.58493 0.55616 1.16484
 H1996 H 0.59931 0.54820 1.17306
 O1997 O 0.47777 0.38713 1.08235
 O1998 O 0.47777 0.36061 1.10870
 C1999 C 0.47006 0.36865 1.09026
 C2000 C 0.45161 0.35674 1.07811
 C2001 C 0.44397 0.33544 1.08552
 H2002 H 0.45197 0.32721 1.09987
 O2003 O 0.52174 0.61287 1.08225
 O2004 O 0.52175 0.63940 1.10859
 C2005 C 0.52947 0.63134 1.09016
 C2006 C 0.54797 0.64322 1.07804
 C2007 C 0.55570 0.66447 1.08551
 H2008 H 0.54772 0.67270 1.09987
 O2009 O 0.38705 0.41803 1.02245
 O2010 O 0.36057 0.39167 1.02253
 C2011 C 0.36860 0.41011 1.03022
 C2012 C 0.35670 0.42224 1.04872
 C2013 C 0.33541 0.41483 1.05637
 H2014 H 0.32718 0.40050 1.04835
 O2015 O 0.61249 0.58183 1.02236
 O2016 O 0.63900 0.60817 1.02236
 C2017 C 0.63096 0.58973 1.03007
 C2018 C 0.64288 0.57759 1.04854
 C2019 C 0.66422 0.58495 1.05612
 H2020 H 0.67247 0.59925 1.04806
 O2021 O 0.52178 0.58183 1.11329
 O2022 O 0.52179 0.60821 1.13979
 C2023 C 0.52952 0.58978 1.13175
 C2024 C 0.54806 0.57770 1.14362
 C2025 C 0.55583 0.58520 1.16486
 H2026 H 0.54784 0.59956 1.17309
 O2027 O 0.47771 0.41814 1.11343
 O2028 O 0.47769 0.39178 1.13994
 C2029 C 0.46996 0.41020 1.13189
 C2030 C 0.45143 0.42229 1.14377
 C2031 C 0.44367 0.41481 1.16502
 H2032 H 0.45164 0.40045 1.17325
 O2033 O 0.61260 0.52206 1.08219
 O2034 O 0.63914 0.52212 1.10851
 C2035 C 0.63107 0.52980 1.09007
 C2036 C 0.64294 0.54826 1.07789
 C2037 C 0.66428 0.55589 1.08521
 H2038 H 0.67257 0.54785 1.09951
 O2039 O 0.38694 0.47786 1.08230
 O2040 O 0.36040 0.47779 1.10864
 C2041 C 0.36848 0.47010 1.09020
 C2042 C 0.35664 0.45158 1.07806
 C2043 C 0.33535 0.44390 1.08545
 H2044 H 0.32707 0.45191 1.09977
 O2045 O 0.58147 0.61289 1.02241
 O2046 O 0.60782 0.63938 1.02242
 C2047 C 0.58939 0.63134 1.03015
 C2048 C 0.57730 0.64322 1.04868
 C2049 C 0.58477 0.66447 1.05642
 H2050 H 0.59912 0.67269 1.04842
 O2051 O 0.41809 0.38699 1.02244
 O2052 O 0.39176 0.36047 1.02252
 C2053 C 0.41019 0.36853 1.03021
 C2054 C 0.42232 0.35667 1.04872
 C2055 C 0.41494 0.33538 1.05641
 H2056 H 0.40064 0.32710 1.04838
 O2057 O 0.58163 0.47790 1.11335
 O2058 O 0.60801 0.47791 1.13984
 C2059 C 0.58957 0.47019 1.13182
 C2060 C 0.57748 0.45170 1.14374
 C2061 C 0.58494 0.44401 1.16502
 H2062 H 0.59929 0.45201 1.17324
 O2063 O 0.41783 0.52211 1.11341
 O2064 O 0.39146 0.52211 1.13991
 C2065 C 0.40988 0.52985 1.13187
 C2066 C 0.42195 0.54839 1.14374
 C2067 C 0.41443 0.55621 1.16496
 H2068 H 0.40005 0.54826 1.17318
 O2069 O 0.47753 0.61280 1.08222
 O2070 O 0.47748 0.63933 1.10854
 C2071 C 0.46978 0.63126 1.09012
 C2072 C 0.45126 0.64311 1.07799
 C2073 C 0.44354 0.66439 1.08541
 H2074 H 0.45153 0.67265 1.09974
 O2075 O 0.52196 0.38717 1.08237
 O2076 O 0.52202 0.36065 1.10872
 C2077 C 0.52972 0.36870 1.09028
 C2078 C 0.54821 0.35682 1.07814
 C2079 C 0.55594 0.33555 1.08557
 H2080 H 0.54797 0.32732 1.09994
 O2081 O 0.61266 0.41815 1.02239
 O2082 O 0.63917 0.39180 1.02243
 C2083 C 0.63112 0.41023 1.03014
 C2084 C 0.64299 0.42233 1.04866
 C2085 C 0.66426 0.41487 1.05636
 H2086 H 0.67250 0.40054 1.04834
 O2087 O 0.38672 0.58169 1.02241
 O2088 O 0.36019 0.60803 1.02242
 C2089 C 0.36825 0.58961 1.03016
 C2090 C 0.35639 0.57753 1.04871
 C2091 C 0.33517 0.58504 1.05647
 H2092 H 0.32694 0.59939 1.04847
 Cu2093 Cu 0.49984 0.40530 1.09526
 Cu2094 Cu 0.49986 0.37356 1.12699
 Cu2095 Cu 0.49966 0.59469 1.09514
 Cu2096 Cu 0.49963 0.62645 1.12684
 Cu2097 Cu 0.40518 0.40512 1.00032
 Cu2098 Cu 0.37348 0.37338 1.00040
 Cu2099 Cu 0.59452 0.40525 1.00028
 Cu2100 Cu 0.62626 0.37352 1.00030
 Cu2101 Cu 0.40488 0.59455 1.00029
 Cu2102 Cu 0.37313 0.62625 1.00027
 Cu2103 Cu 0.59431 0.59472 1.00028
 Cu2104 Cu 0.62604 0.62644 1.00025
 Cu2105 Cu 0.40502 0.49999 1.09523
 Cu2106 Cu 0.37326 0.49994 1.12694
 Cu2107 Cu 0.59447 0.49998 1.09513
 Cu2108 Cu 0.62623 0.50002 1.12683
 C2109 C 0.55893 0.44091 1.13338
 H2110 H 0.55327 0.44654 1.11684
 C2111 C 0.57415 0.42575 1.17564
 C2112 C 0.44054 0.55912 1.13337
 H2113 H 0.44624 0.55341 1.11687
 C2114 C 0.42520 0.57452 1.17551
 C2115 C 0.36678 0.55899 1.05951
 H2116 H 0.38328 0.55331 1.05382
 C2117 C 0.32461 0.57431 1.07481
 C2118 C 0.63261 0.44086 1.05947
 H2119 H 0.61608 0.44651 1.05383
 C2120 C 0.67485 0.42564 1.07465
 C2121 C 0.55897 0.36720 1.05955
 H2122 H 0.55332 0.38373 1.05391
 C2123 C 0.57418 0.32494 1.07473
 C2124 C 0.44047 0.63270 1.05945
 H2125 H 0.44612 0.61617 1.05382
 C2126 C 0.42526 0.67497 1.07459
 C2127 C 0.44065 0.44086 1.13339
 H2128 H 0.44633 0.44653 1.11687
 C2129 C 0.42537 0.42559 1.17560
 C2130 C 0.55885 0.55914 1.13324
 H2131 H 0.55317 0.55346 1.11673
 C2132 C 0.57414 0.57445 1.17543
 C2133 C 0.44081 0.36711 1.05955
 H2134 H 0.44640 0.38366 1.05393
 C2135 C 0.42576 0.32479 1.07468
 C2136 C 0.55875 0.63285 1.05947
 H2137 H 0.55308 0.61633 1.05381
 C2138 C 0.57398 0.67506 1.07471
 C2139 C 0.36707 0.44078 1.05954
 H2140 H 0.38363 0.44640 1.05393
 C2141 C 0.32477 0.42564 1.07462
 C2142 C 0.63249 0.55909 1.05940
 H2143 H 0.61591 0.55352 1.05385
 C2144 C 0.67488 0.57410 1.07433
 C2145 C 1.12325 1.12232 1.29018
 C2146 C 1.11540 1.11458 1.27296
 C2147 C 1.10637 1.10574 1.25264
 C2148 C 1.09881 1.09837 1.23515
 C2149 C 1.09015 1.08991 1.21451
 C2150 C 1.08294 1.08283 1.19674
 C2151 C 1.12262 0.62169 0.79016
 C2152 C 1.11483 0.61398 0.77292
 C2153 C 1.10589 0.60516 0.75255
 C2154 C 1.09842 0.59780 0.73502
 C2155 C 1.08988 0.58938 0.71432
 C2156 C 1.08277 0.58235 0.69650
 C2157 C 0.62276 1.12196 0.79002
 C2158 C 0.61493 1.11428 0.77278
 C2159 C 0.60593 1.10550 0.75242
 C2160 C 0.59840 1.09818 0.73490
 C2161 C 0.58979 1.08981 0.71420
 C2162 C 0.58263 1.08280 0.69639
 C2163 C 0.62229 0.62233 1.29039
 C2164 C 0.61449 0.61458 1.27317
 C2165 C 0.60555 0.60570 1.25283
 C2166 C 0.59808 0.59829 1.23532
 C2167 C 0.58953 0.58980 1.21465
 C2168 C 0.58241 0.58271 1.19685
 C2169 C 0.87780 0.87780 1.29040
 C2170 C 0.88554 0.88558 1.27315
 C2171 C 0.89441 0.89450 1.25280
 C2172 C 0.90181 0.90194 1.23527
 C2173 C 0.91029 0.91046 1.21457
 C2174 C 0.91736 0.91755 1.19676
 C2175 C 0.87744 0.37770 0.79013
 C2176 C 0.88522 0.38543 0.77288
 C2177 C 0.89416 0.39428 0.75251
 C2178 C 0.90163 0.40166 0.73499
 C2179 C 0.91019 0.41011 0.71430
 C2180 C 0.91732 0.41717 0.69649
 C2181 C 0.37728 0.87817 0.79012
 C2182 C 0.38510 0.88589 0.77288
 C2183 C 0.39407 0.89471 0.75253
 C2184 C 0.40157 0.90207 0.73501
 C2185 C 0.41015 0.91050 0.71432
 C2186 C 0.41728 0.91754 0.69651
 C2187 C 0.37705 0.37799 1.29064
 C2188 C 0.38487 0.38571 1.27340
 C2189 C 0.39385 0.39453 1.25305
 C2190 C 0.40135 0.40189 1.23552
 C2191 C 0.40994 0.41031 1.21484
 C2192 C 0.41709 0.41735 1.19703
 C2193 C 0.87626 1.12278 0.71024
 C2194 C 0.88416 1.11503 0.72743
 C2195 C 0.89326 1.10617 0.74771
 C2196 C 0.90090 1.09877 0.76517
 C2197 C 0.90965 1.09028 0.78577
 C2198 C 0.91692 1.08316 0.80350
 C2199 C 0.87886 0.62116 0.20916
 C2200 C 0.88659 0.61347 0.22644
 C2201 C 0.89542 0.60469 0.24687
 C2202 C 0.90278 0.59737 0.26446
 C2203 C 0.91118 0.58902 0.28525
 C2204 C 0.91817 0.58206 0.30314
 C2205 C 0.37781 1.12194 0.20951
 C2206 C 0.38554 1.11424 0.22679
 C2207 C 0.39440 1.10544 0.24720
 C2208 C 0.40180 1.09809 0.26477
 C2209 C 0.41026 1.08969 0.28551
 C2210 C 0.41730 1.08268 0.30337
 C2211 C 0.37880 0.62119 0.70928
 C2212 C 0.38643 0.61348 0.72659
 C2213 C 0.39513 0.60466 0.74705
 C2214 C 0.40238 0.59731 0.76468
 C2215 C 0.41066 0.58891 0.78549
 C2216 C 0.41757 0.58193 0.80341
 C2217 C 1.12267 0.87816 0.70980
 C2218 C 1.11486 0.88586 0.72704
 C2219 C 1.10590 0.89467 0.74741
 C2220 C 1.09841 0.90201 0.76494
 C2221 C 1.08985 0.91042 0.78564
 C2222 C 1.08274 0.91744 0.80346
 C2223 C 1.12212 0.37864 0.20931
 C2224 C 1.11437 0.38632 0.22659
 C2225 C 1.10550 0.39508 0.24701
 C2226 C 1.09810 0.40237 0.26460
 C2227 C 1.08964 0.41071 0.28537
 C2228 C 1.08262 0.41767 0.30325
 C2229 C 0.62223 0.87777 0.20970
 C2230 C 0.61445 0.88555 0.22693
 C2231 C 0.60554 0.89446 0.24728
 C2232 C 0.59809 0.90190 0.26479
 C2233 C 0.58957 0.91041 0.28547
 C2234 C 0.58246 0.91751 0.30327
 C2235 C 0.62272 0.37822 0.71001
 C2236 C 0.61488 0.38591 0.72725
 C2237 C 0.60585 0.39467 0.74760
 C2238 C 0.59830 0.40198 0.76513
 C2239 C 0.58967 0.41034 0.78582
 C2240 C 0.58249 0.41734 0.80363
 C2241 C 1.29029 1.12142 1.12229
 C2242 C 1.27303 1.11374 1.11453
 C2243 C 1.25264 1.10497 1.10562
 C2244 C 1.23508 1.09766 1.09819
 C2245 C 1.21435 1.08930 1.08970
 C2246 C 1.19651 1.08232 1.08264
 C2247 C 1.29082 0.62118 0.62105
 C2248 C 1.27353 0.61348 0.61338
 C2249 C 1.25310 0.60467 0.60463
 C2250 C 1.23550 0.59732 0.59734
 C2251 C 1.21471 0.58894 0.58902
 C2252 C 1.19682 0.58197 0.58208
 C2253 C 0.78961 1.12284 0.62361
 C2254 C 0.77242 1.11509 0.61572
 C2255 C 0.75214 1.10622 0.60664
 C2256 C 0.73470 1.09881 0.59902
 C2257 C 0.71411 1.09031 0.59030
 C2258 C 0.69639 1.08319 0.58303
 C2259 C 0.79053 0.62131 1.12125
 C2260 C 0.77321 0.61363 1.11361
 C2261 C 0.75276 0.60485 1.10489
 C2262 C 0.73514 0.59753 1.09762
 C2263 C 0.71433 0.58917 1.08931
 C2264 C 0.69643 0.58220 1.08239
 C2265 C 1.29007 0.87765 0.87771
 C2266 C 1.27284 0.88540 0.88548
 C2267 C 1.25248 0.89427 0.89440
 C2268 C 1.23497 0.90167 0.90186
 C2269 C 1.21429 0.91015 0.91039
 C2270 C 1.19648 0.91723 0.91749
 C2271 C 1.29041 0.37796 0.37724
 C2272 C 1.27317 0.38568 0.38505
 C2273 C 1.25282 0.39449 0.39402
 C2274 C 1.23530 0.40184 0.40151
 C2275 C 1.21461 0.41026 0.41009
 C2276 C 1.19681 0.41730 0.41723
 C2277 C 0.79014 0.87824 0.37749
 C2278 C 0.77289 0.88596 0.38524
 C2279 C 0.75251 0.89480 0.39412
 C2280 C 0.73497 0.90217 0.40154
 C2281 C 0.71425 0.91061 0.41002
 C2282 C 0.69643 0.91765 0.41710
 C2283 C 0.78988 0.37820 0.87738
 C2284 C 0.77264 0.38589 0.88521
 C2285 C 0.75229 0.39466 0.89421
 C2286 C 0.73476 0.40198 0.90174
 C2287 C 0.71408 0.41036 0.91036
 C2288 C 0.69627 0.41738 0.91752
 C2289 C 0.70990 0.87818 1.12260
 C2290 C 0.72714 0.88591 1.11482
 C2291 C 0.74750 0.89476 1.10591
 C2292 C 0.76502 0.90215 1.09846
 C2293 C 0.78571 0.91061 1.08994
 C2294 C 0.80351 0.91767 1.08284
 C2295 C 0.70998 0.37763 0.62246
 C2296 C 0.72723 0.38536 0.61469
 C2297 C 0.74758 0.39422 0.60578
 C2298 C 0.76510 0.40162 0.59833
 C2299 C 0.78578 0.41010 0.58979
 C2300 C 0.80358 0.41717 0.58267
 C2301 C 0.20988 0.87763 0.62224
 C2302 C 0.22711 0.88541 0.61450
 C2303 C 0.24746 0.89434 0.60563
 C2304 C 0.26498 0.90179 0.59823
 C2305 C 0.28565 0.91033 0.58975
 C2306 C 0.30345 0.91743 0.58267
 C2307 C 0.20936 0.37803 1.12182
 C2308 C 0.22665 0.38575 1.11415
 C2309 C 0.24707 0.39459 1.10538
 C2310 C 0.26465 0.40198 1.09808
 C2311 C 0.28541 0.41043 1.08972
 C2312 C 0.30327 0.41747 1.08275
 C2313 C 0.71000 1.12254 0.87756
 C2314 C 0.72725 1.11481 0.88532
 C2315 C 0.74761 1.10596 0.89424
 C2316 C 0.76514 1.09857 0.90169
 C2317 C 0.78582 1.09010 0.91022
 C2318 C 0.80362 1.08302 0.91733
 C2319 C 0.71004 0.62185 0.37739
 C2320 C 0.72730 0.61414 0.38515
 C2321 C 0.74767 0.60531 0.39405
 C2322 C 0.76520 0.59795 0.40150
 C2323 C 0.78590 0.58952 0.41002
 C2324 C 0.80372 0.58248 0.41713
 C2325 C 0.20989 1.12235 0.37679
 C2326 C 0.22710 1.11463 0.38464
 C2327 C 0.24743 1.10582 0.39368
 C2328 C 0.26492 1.09847 0.40125
 C2329 C 0.28557 1.09005 0.40991
 C2330 C 0.30334 1.08299 0.41711
 C2331 C 0.20971 0.62221 0.87782
 C2332 C 0.22694 0.61443 0.88558
 C2333 C 0.24728 0.60552 0.89448
 C2334 C 0.26479 0.59806 0.90191
 C2335 C 0.28546 0.58954 0.91042
 C2336 C 0.30325 0.58243 0.91751
 C2337 C 1.12216 1.29054 1.12120
 C2338 C 1.11440 1.27327 1.11355
 C2339 C 1.10548 1.25287 1.10483
 C2340 C 1.09803 1.23530 1.09758
 C2341 C 1.08952 1.21455 1.08928
 C2342 C 1.08245 1.19668 1.08236
 C2343 C 1.12276 0.79004 0.62168
 C2344 C 1.11496 0.77280 0.61399
 C2345 C 1.10599 0.75244 0.60522
 C2346 C 1.09849 0.73491 0.59789
 C2347 C 1.08991 0.71422 0.58951
 C2348 C 1.08279 0.69641 0.58249
 C2349 C 0.62271 1.29021 0.62180
 C2350 C 0.61488 1.27299 0.61408
 C2351 C 0.60588 1.25266 0.60527
 C2352 C 0.59836 1.23515 0.59792
 C2353 C 0.58976 1.21448 0.58951
 C2354 C 0.58261 1.19669 0.58248
 C2355 C 0.62176 0.79010 1.12263
 C2356 C 0.61402 0.77286 1.11488
 C2357 C 0.60516 0.75250 1.10598
 C2358 C 0.59775 0.73498 1.09855
 C2359 C 0.58928 0.71430 1.09004
 C2360 C 0.58221 0.69649 1.08296
 C2361 C 0.87812 1.29021 0.87740
 C2362 C 0.88587 1.27299 0.88520
 C2363 C 0.89473 1.25265 0.89415
 C2364 C 0.90212 1.23514 0.90163
 C2365 C 0.91057 1.21446 0.91018
 C2366 C 0.91761 1.19666 0.91730
 C2367 C 0.87830 0.79014 0.37750
 C2368 C 0.88602 0.77289 0.38526
 C2369 C 0.89485 0.75252 0.39417
 C2370 C 0.90223 0.73499 0.40161
 C2371 C 0.91066 0.71428 0.41013
 C2372 C 0.91770 0.69646 0.41722
 C2373 C 0.37760 1.29045 0.37782
 C2374 C 0.38536 1.27322 0.38558
 C2375 C 0.39425 1.25287 0.39447
 C2376 C 0.40166 1.23534 0.40189
 C2377 C 0.41015 1.21465 0.41038
 C2378 C 0.41722 1.19684 0.41745
 C2379 C 0.37718 0.79002 0.87824
 C2380 C 0.38494 0.77277 0.88597
 C2381 C 0.39385 0.75241 0.89481
 C2382 C 0.40130 0.73488 0.90219
 C2383 C 0.40982 0.71418 0.91063
 C2384 C 0.41692 0.69637 0.91767
 C2385 C 1.12257 0.70983 0.87827
 C2386 C 1.11477 0.72707 0.88597
 C2387 C 1.10580 0.74743 0.89477
 C2388 C 1.09830 0.76496 0.90211
 C2389 C 1.08973 0.78565 0.91052
 C2390 C 1.08260 0.80346 0.91754
 C2391 C 1.12272 0.20988 0.37734
 C2392 C 1.11495 0.22709 0.38513
 C2393 C 1.10605 0.24742 0.39407
 C2394 C 1.09862 0.26492 0.40153
 C2395 C 1.09012 0.28559 0.41008
 C2396 C 1.08303 0.30337 0.41720
 C2397 C 0.62189 0.70996 0.37750
 C2398 C 0.61416 0.72720 0.38527
 C2399 C 0.60531 0.74756 0.39417
 C2400 C 0.59793 0.76510 0.40161
 C2401 C 0.58947 0.78580 0.41011
 C2402 C 0.58242 0.80361 0.41720
 C2403 C 0.62267 0.20995 0.87827
 C2404 C 0.61484 0.22716 0.88601
 C2405 C 0.60584 0.24749 0.89485
 C2406 C 0.59832 0.26499 0.90222
 C2407 C 0.58972 0.28566 0.91065
 C2408 C 0.58256 0.30345 0.91769
 C2409 C 0.87864 0.70940 1.12115
 C2410 C 0.88632 0.72671 1.11350
 C2411 C 0.89511 0.74716 1.10476
 C2412 C 0.90244 0.76478 1.09749
 C2413 C 0.91082 0.78558 1.08919
 C2414 C 0.91780 0.80348 1.08227
 C2415 C 0.87686 0.21028 0.62299
 C2416 C 0.88471 0.22745 0.61517
 C2417 C 0.89372 0.24771 0.60620
 C2418 C 0.90126 0.26515 0.59870
 C2419 C 0.90989 0.28574 0.59011
 C2420 C 0.91709 0.30347 0.58294
 C2421 C 0.37883 0.70937 0.62117
 C2422 C 0.38649 0.72668 0.61350
 C2423 C 0.39524 0.74713 0.60473
 C2424 C 0.40253 0.76475 0.59742
 C2425 C 0.41086 0.78555 0.58906
 C2426 C 0.41780 0.80345 0.58209
 C2427 C 0.37840 0.20948 1.12232
 C2428 C 0.38610 0.22675 1.11459
 C2429 C 0.39491 0.24714 1.10574
 C2430 C 0.40225 0.26471 1.09835
 C2431 C 0.41063 0.28545 1.08990
 C2432 C 0.41762 0.30330 1.08286
 C2433 C 1.12178 1.12183 0.70940
 C2434 C 1.11410 1.11410 0.72669
 C2435 C 1.10531 1.10524 0.74711
 C2436 C 1.09798 1.09784 0.76468
 C2437 C 1.08959 1.08939 0.78544
 C2438 C 1.08258 1.08235 0.80330
 C2439 C 1.12236 0.62341 0.20994
 C2440 C 1.11467 0.61552 0.22716
 C2441 C 1.10589 0.60643 0.24748
 C2442 C 1.09857 0.59882 0.26498
 C2443 C 1.09017 0.59011 0.28563
 C2444 C 1.08314 0.58287 0.30340
 C2445 C 0.62148 1.12242 0.20954
 C2446 C 0.61374 1.11465 0.22678
 C2447 C 0.60491 1.10575 0.24715
 C2448 C 0.59754 1.09831 0.26470
 C2449 C 0.58912 1.08982 0.28542
 C2450 C 0.58211 1.08274 0.30326
 C2451 C 0.62150 0.62158 0.70969
 C2452 C 0.61377 0.61389 0.72697
 C2453 C 0.60492 0.60508 0.74738
 C2454 C 0.59753 0.59774 0.76496
 C2455 C 0.58909 0.58934 0.78571
 C2456 C 0.58206 0.58233 0.80357
 C2457 C 0.87863 0.87868 0.70939
 C2458 C 0.88632 0.88638 0.72668
 C2459 C 0.89512 0.89519 0.74710
 C2460 C 0.90245 0.90253 0.76470
 C2461 C 0.91083 0.91092 0.78547
 C2462 C 0.91781 0.91791 0.80335
 C2463 C 0.87838 0.37747 0.20972
 C2464 C 0.88612 0.38525 0.22695
 C2465 C 0.89497 0.39418 0.24730
 C2466 C 0.90235 0.40163 0.26483
 C2467 C 0.91079 0.41016 0.28553
 C2468 C 0.91783 0.41726 0.30335
 C2469 C 0.37844 0.87768 0.20957
 C2470 C 0.38610 0.88550 0.22681
 C2471 C 0.39483 0.89450 0.24718
 C2472 C 0.40210 0.90202 0.26473
 C2473 C 0.41041 0.91061 0.28545
 C2474 C 0.41737 0.91773 0.30329
 C2475 C 0.37733 0.37638 0.71037
 C2476 C 0.38506 0.38422 0.72759
 C2477 C 0.39391 0.39326 0.74791
 C2478 C 0.40130 0.40084 0.76539
 C2479 C 0.40977 0.40951 0.78602
 C2480 C 0.41686 0.41674 0.80377
 C2481 C 1.12242 0.87663 1.29019
 C2482 C 1.11466 0.88449 1.27298
 C2483 C 1.10579 0.89355 1.25268
 C2484 C 1.09839 0.90113 1.23521
 C2485 C 1.08991 0.90981 1.21458
 C2486 C 1.08282 0.91703 1.19682
 C2487 C 1.12166 0.37736 0.79027
 C2488 C 1.11399 0.38515 0.77301
 C2489 C 1.10522 0.39411 0.75262
 C2490 C 1.09790 0.40158 0.73507
 C2491 C 1.08953 0.41013 0.71435
 C2492 C 1.08254 0.41724 0.69652
 C2493 C 0.62149 0.87854 0.79042
 C2494 C 0.61380 0.88625 0.77313
 C2495 C 0.60499 0.89508 0.75272
 C2496 C 0.59765 0.90245 0.73513
 C2497 C 0.58926 0.91087 0.71437
 C2498 C 0.58227 0.91788 0.69650
 C2499 C 0.62206 0.37810 1.29081
 C2500 C 0.61430 0.38584 1.27356
 C2501 C 0.60540 0.39469 1.25319
 C2502 C 0.59797 0.40207 1.23565
 C2503 C 0.58947 0.41052 1.21494
 C2504 C 0.58238 0.41755 1.19711
 C2505 C 0.87802 1.12204 1.29070
 C2506 C 0.88577 1.11431 1.27344
 C2507 C 0.89464 1.10547 1.25305
 C2508 C 0.90205 1.09810 1.23549
 C2509 C 0.91051 1.08967 1.21477
 C2510 C 0.91757 1.08263 1.19692
 C2511 C 0.87820 0.62168 0.79028
 C2512 C 0.88594 0.61395 0.77302
 C2513 C 0.89481 0.60512 0.75262
 C2514 C 0.90220 0.59774 0.73506
 C2515 C 0.91066 0.58931 0.71433
 C2516 C 0.91770 0.58228 0.69648
 C2517 C 0.37835 1.12261 0.79026
 C2518 C 0.38603 1.11483 0.77299
 C2519 C 0.39479 1.10588 0.75261
 C2520 C 0.40210 1.09840 0.73505
 C2521 C 0.41046 1.08984 0.71433
 C2522 C 0.41745 1.08273 0.69649
 C2523 C 0.37764 0.62345 1.29033
 C2524 C 0.38535 0.61555 1.27312
 C2525 C 0.39415 0.60646 1.25280
 C2526 C 0.40148 0.59884 1.23531
 C2527 C 0.40988 0.59012 1.21467
 C2528 C 0.41693 0.58289 1.19690
 C2529 C 1.12217 1.29013 0.87782
 C2530 C 1.11445 1.27287 0.88556
 C2531 C 1.10560 1.25250 0.89443
 C2532 C 1.09821 1.23496 0.90185
 C2533 C 1.08976 1.21426 0.91033
 C2534 C 1.08270 1.19644 0.91739
 C2535 C 1.12262 0.78993 0.37674
 C2536 C 1.11490 0.77270 0.38457
 C2537 C 1.10606 0.75238 0.39358
 C2538 C 1.09867 0.73489 0.40111
 C2539 C 1.09019 0.71424 0.40974
 C2540 C 1.08311 0.69648 0.41693
 C2541 C 0.62159 1.29047 0.37791
 C2542 C 0.61388 1.27321 0.38565
 C2543 C 0.60506 1.25283 0.39452
 C2544 C 0.59770 1.23528 0.40192
 C2545 C 0.58929 1.21455 0.41039
 C2546 C 0.58228 1.19671 0.41744
 C2547 C 0.62143 0.79040 0.87857
 C2548 C 0.61369 0.77314 0.88626
 C2549 C 0.60483 0.75274 0.89506
 C2550 C 0.59743 0.73518 0.90240
 C2551 C 0.58898 0.71444 0.91080
 C2552 C 0.58194 0.69659 0.91781
 C2553 C 0.87768 1.29028 1.12218
 C2554 C 0.88546 1.27303 1.11445
 C2555 C 0.89438 1.25267 1.10562
 C2556 C 0.90185 1.23514 1.09825
 C2557 C 0.91039 1.21445 1.08981
 C2558 C 0.91750 1.19664 1.08277
 C2559 C 0.87866 0.79050 0.62130
 C2560 C 0.88636 0.77321 0.61362
 C2561 C 0.89517 0.75278 0.60484
 C2562 C 0.90252 0.73519 0.59752
 C2563 C 0.91091 0.71442 0.58914
 C2564 C 0.91790 0.69654 0.58216
 C2565 C 0.37740 1.28985 0.62363
 C2566 C 0.38514 1.27265 0.61574
 C2567 C 0.39399 1.25236 0.60665
 C2568 C 0.40137 1.23490 0.59903
 C2569 C 0.40984 1.21429 0.59030
 C2570 C 0.41692 1.19655 0.58304
 C2571 C 0.37774 0.79029 1.12218
 C2572 C 0.38544 0.77300 1.11447
 C2573 C 0.39425 0.75259 1.10563
 C2574 C 0.40160 0.73503 1.09825
 C2575 C 0.41003 0.71429 1.08980
 C2576 C 0.41706 0.69644 1.08277
 C2577 C 0.87811 0.70985 0.87838
 C2578 C 0.88583 0.72712 0.88609
 C2579 C 0.89467 0.74751 0.89491
 C2580 C 0.90205 0.76507 0.90227
 C2581 C 0.91049 0.78581 0.91068
 C2582 C 0.91753 0.80365 0.91769
 C2583 C 0.87856 0.20957 0.37789
 C2584 C 0.88628 0.22682 0.38563
 C2585 C 0.89511 0.24720 0.39451
 C2586 C 0.90247 0.26474 0.40192
 C2587 C 0.91088 0.28546 0.41039
 C2588 C 0.91789 0.30330 0.41745
 C2589 C 0.37755 0.71023 0.37680
 C2590 C 0.38527 0.72746 0.38461
 C2591 C 0.39411 0.74780 0.39359
 C2592 C 0.40149 0.76529 0.40111
 C2593 C 0.40995 0.78595 0.40973
 C2594 C 0.41703 0.80372 0.41690
 C2595 C 0.37775 0.20969 0.87795
 C2596 C 0.38548 0.22694 0.88573
 C2597 C 0.39433 0.24729 0.89464
 C2598 C 0.40172 0.26481 0.90208
 C2599 C 0.41019 0.28550 0.91059
 C2600 C 0.41725 0.30331 0.91768
 C2601 C 1.12237 0.71014 1.12339
 C2602 C 1.11463 0.72736 1.11557
 C2603 C 1.10577 0.74769 1.10657
 C2604 C 1.09837 0.76518 1.09904
 C2605 C 1.08990 0.78582 1.09040
 C2606 C 1.08281 0.80359 1.08321
 C2607 C 1.12119 0.20937 0.62217
 C2608 C 1.11355 0.22665 0.61438
 C2609 C 1.10486 0.24705 0.60543
 C2610 C 1.09762 0.26463 0.59795
 C2611 C 1.08934 0.28538 0.58941
 C2612 C 1.08242 0.30324 0.58232
 C2613 C 0.62158 0.70971 0.62154
 C2614 C 0.61389 0.72699 0.61383
 C2615 C 0.60507 0.74740 0.60500
 C2616 C 0.59772 0.76497 0.59764
 C2617 C 0.58932 0.78573 0.58923
 C2618 C 0.58231 0.80359 0.58222
 C2619 C 0.62213 0.20971 1.12210
 C2620 C 0.61436 0.22698 1.11441
 C2621 C 0.60545 0.24737 1.10563
 C2622 C 0.59801 0.26492 1.09830
 C2623 C 0.58949 0.28564 1.08991
 C2624 C 0.58240 0.30348 1.08291
 C2625 C 1.29029 1.12247 0.87845
 C2626 C 1.27305 1.11466 0.88615
 C2627 C 1.25270 1.10568 0.89493
 C2628 C 1.23517 1.09819 0.90226
 C2629 C 1.21447 1.08962 0.91064
 C2630 C 1.19665 1.08250 0.91764
 C2631 C 1.29016 0.62294 0.37755
 C2632 C 1.27296 0.61510 0.38531
 C2633 C 1.25266 0.60609 0.39418
 C2634 C 1.23518 0.59856 0.40159
 C2635 C 1.21453 0.58994 0.41006
 C2636 C 1.19676 0.58277 0.41714
 C2637 C 0.79034 1.12161 0.37778
 C2638 C 0.77306 1.11393 0.38551
 C2639 C 0.75266 1.10515 0.39438
 C2640 C 0.73509 1.09783 0.40178
 C2641 C 0.71435 1.08946 0.41025
 C2642 C 0.69650 1.08248 0.41730
 C2643 C 0.79000 0.62175 0.87838
 C2644 C 0.77273 0.61405 0.88610
 C2645 C 0.75233 0.60522 0.89493
 C2646 C 0.73477 0.59786 0.90231
 C2647 C 0.71403 0.58943 0.91074
 C2648 C 0.69619 0.58241 0.91777
 C2649 C 1.29031 0.87760 1.12150
 C2650 C 1.27305 0.88539 1.11384
 C2651 C 1.25267 0.89435 1.10511
 C2652 C 1.23511 0.90183 1.09784
 C2653 C 1.21438 0.91038 1.08952
 C2654 C 1.19653 0.91748 1.08257
 C2655 C 1.28991 0.37706 0.62305
 C2656 C 1.27273 0.38486 0.61522
 C2657 C 1.25245 0.39381 0.60622
 C2658 C 1.23499 0.40128 0.59870
 C2659 C 1.21437 0.40983 0.59008
 C2660 C 1.19663 0.41697 0.58290
 C2661 C 0.79053 0.87863 0.62123
 C2662 C 0.77325 0.88633 0.61354
 C2663 C 0.75283 0.89514 0.60474
 C2664 C 0.73524 0.90249 0.59741
 C2665 C 0.71448 0.91089 0.58903
 C2666 C 0.69660 0.91789 0.58205
 C2667 C 0.79005 0.37742 1.12181
 C2668 C 0.77279 0.38522 1.11416
 C2669 C 0.75240 0.39419 1.10543
 C2670 C 0.73486 0.40170 1.09815
 C2671 C 0.71414 0.41027 1.08980
 C2672 C 0.69631 0.41740 1.08283
 C2673 C 0.70976 1.12259 1.12155
 C2674 C 0.72703 1.11482 1.11389
 C2675 C 0.74742 1.10590 1.10514
 C2676 C 0.76498 1.09844 1.09785
 C2677 C 0.78572 1.08990 1.08950
 C2678 C 0.80356 1.08280 1.08253
 C2679 C 0.70969 0.62156 0.62157
 C2680 C 0.72697 0.61386 0.61385
 C2681 C 0.74737 0.60504 0.60502
 C2682 C 0.76495 0.59769 0.59765
 C2683 C 0.78569 0.58929 0.58922
 C2684 C 0.80355 0.58228 0.58220
 C2685 C 0.20924 1.12125 0.62211
 C2686 C 0.22651 1.11359 0.61434
 C2687 C 0.24691 1.10486 0.60542
 C2688 C 0.26449 1.09759 0.59797
 C2689 C 0.28524 1.08929 0.58946
 C2690 C 0.30311 1.08236 0.58239
 C2691 C 0.20981 0.62283 1.12268
 C2692 C 0.22700 0.61499 1.11492
 C2693 C 0.24731 0.60597 1.10604
 C2694 C 0.26479 0.59843 1.09864
 C2695 C 0.28543 0.58980 1.09017
 C2696 C 0.30321 0.58262 1.08309
 C2697 C 0.70958 0.87848 0.87858
 C2698 C 0.72686 0.88621 0.88627
 C2699 C 0.74726 0.89506 0.89506
 C2700 C 0.76483 0.90245 0.90239
 C2701 C 0.78557 0.91090 0.91076
 C2702 C 0.80343 0.91793 0.91774
 C2703 C 0.70979 0.37846 0.37781
 C2704 C 0.72707 0.38613 0.38554
 C2705 C 0.74747 0.39490 0.39441
 C2706 C 0.76504 0.40221 0.40182
 C2707 C 0.78578 0.41058 0.41030
 C2708 C 0.80363 0.41755 0.41736
 C2709 C 0.20998 0.87725 0.37733
 C2710 C 0.22716 0.88508 0.38511
 C2711 C 0.24746 0.89408 0.39402
 C2712 C 0.26493 0.90159 0.40147
 C2713 C 0.28555 0.91019 0.40999
 C2714 C 0.30331 0.91736 0.41711
 C2715 C 0.20964 0.37734 0.87852
 C2716 C 0.22687 0.38512 0.88625
 C2717 C 0.24722 0.39405 0.89508
 C2718 C 0.26475 0.40151 0.90244
 C2719 C 0.28544 0.41005 0.91085
 C2720 C 0.30326 0.41715 0.91786
   
