data_POSCAR
  _audit_creation_date              2014-09-24
  _audit_creation_method            'ToBaCCo'
  _symmetry_space_group_name_H-M    'P1'
  _symmetry_Int_Tables_number       1
  _symmetry_cell_setting            triclinic
  loop_
  _symmetry_equiv_pos_as_xyz
 x,y,z
_cell_length_a 64.8987
_cell_length_b 65.8508
_cell_length_c 67.6057
_cell_angle_alpha 89.970800
_cell_angle_beta 90.077200
_cell_angle_gamma 90.048300
loop_
  _atom_site_label
  _atom_site_type_symbol
  _atom_site_fract_x
  _atom_site_fract_y
  _atom_site_fract_z
O1 O 0.35325 0.32505 -0.01916
 O2 O 0.32311 0.35348 0.01756
 O3 O 0.35111 0.32550 0.01905
 O4 O 0.32523 0.35353 -0.02098
 O5 O 0.30047 0.33064 -0.02159
 O6 O 0.32733 0.30161 0.01730
 O7 O 0.29899 0.32987 0.01672
 O8 O 0.32843 0.30221 -0.02124
 Cu9 Cu 0.34057 0.34177 -0.00083
 Cu10 Cu 0.31137 0.31371 -0.00232
 C11 C 0.34603 0.30874 -0.02643
 C12 C 0.30595 0.34650 0.02351
 C13 C 0.34380 0.30864 0.02487
 C14 C 0.30824 0.34710 -0.02798
 O15 O 0.67749 0.64956 0.01906
 O16 O 0.64959 0.67720 -0.01995
 O17 O 0.67733 0.64881 -0.01947
 O18 O 0.64974 0.67807 0.01858
 O19 O 0.67413 0.70141 0.01793
 O20 O 0.70194 0.67188 -0.01984
 O21 O 0.67407 0.70046 -0.02046
 O22 O 0.70203 0.67276 0.01854
 Cu23 Cu 0.66109 0.66109 -0.00037
 Cu24 Cu 0.69050 0.68896 -0.00100
 C25 C 0.69460 0.65635 0.02539
 C26 C 0.65702 0.69359 -0.02685
 C27 C 0.69443 0.65525 -0.02615
 C28 C 0.65713 0.69481 0.02467
 O29 O 0.67924 0.34795 0.97716
 O30 O 0.65048 0.32111 1.01609
 O31 O 0.67865 0.34954 1.01532
 O32 O 0.65106 0.32007 0.97754
 O33 O 0.67542 0.29674 0.97830
 O34 O 0.70221 0.32556 1.01753
 O35 O 0.67420 0.29714 1.01666
 O36 O 0.70393 0.32500 0.97903
 Cu37 Cu 0.66240 0.33698 0.99647
 Cu38 Cu 0.69137 0.30875 0.99798
 C39 C 0.69665 0.34124 0.97165
 C40 C 0.65726 0.30438 1.02284
 C41 C 0.69521 0.34274 1.02288
 C42 C 0.65852 0.30343 0.97136
 O43 O 0.35438 0.67495 1.01993
 O44 O 0.32464 0.64763 0.98213
 O45 O 0.35264 0.67570 0.98174
 O46 O 0.32594 0.64683 1.02073
 O47 O 0.30143 0.66995 1.02146
 O48 O 0.32898 0.69966 0.98366
 O49 O 0.30065 0.67133 0.98308
 O50 O 0.32980 0.69800 1.02211
 Cu51 Cu 0.34177 0.65887 1.00106
 Cu52 Cu 0.31278 0.68709 1.00270
 C53 C 0.34728 0.69118 1.02740
 C54 C 0.30765 0.65484 0.97600
 C55 C 0.34553 0.69275 0.97622
 C56 C 0.30896 0.65331 1.02766
 O57 O 0.01930 0.32625 0.35364
 O58 O -0.02045 0.35395 0.32567
 O59 O -0.02098 0.32668 0.35371
 O60 O 0.01904 0.35391 0.32593
 O61 O 0.01913 0.32968 0.30336
 O62 O -0.02088 0.30222 0.33148
 O63 O -0.02103 0.32947 0.30337
 O64 O 0.01908 0.30205 0.33109
 Cu65 Cu -0.00075 0.34253 0.34209
 Cu66 Cu -0.00094 0.31341 0.31508
 C67 C 0.02597 0.30937 0.34717
 C68 C -0.02730 0.34658 0.30960
 C69 C -0.02778 0.30974 0.34749
 C70 C 0.02565 0.34668 0.30973
 O71 O 0.01984 0.67578 0.64636
 O72 O -0.01984 0.64860 0.67488
 O73 O -0.02029 0.67547 0.64669
 O74 O 0.02027 0.64875 0.67446
 O75 O 0.02025 0.67310 0.69686
 O76 O -0.02001 0.70008 0.66876
 O77 O -0.01970 0.67307 0.69715
 O78 O 0.01995 0.70028 0.66861
 Cu79 Cu -0.00001 0.65970 0.65837
 Cu80 Cu 0.00014 0.68909 0.68508
 C81 C 0.02659 0.69275 0.65254
 C82 C -0.02647 0.65612 0.69096
 C83 C -0.02703 0.69245 0.65284
 C84 C 0.02708 0.65625 0.69050
 O85 O 0.97885 0.67141 0.35349
 O86 O 1.01988 0.64533 0.32572
 O87 O 1.01900 0.67277 0.35319
 O88 O 0.98005 0.64338 0.32604
 O89 O 0.97802 0.66759 0.30354
 O90 O 1.01795 0.69662 0.33033
 O91 O 1.01813 0.66889 0.30257
 O92 O 0.97806 0.69554 0.33086
 Cu93 Cu 0.99950 0.65586 0.34193
 Cu94 Cu 0.99792 0.68454 0.31452
 C95 C 0.97165 0.68811 0.34706
 C96 C 1.02588 0.65256 0.30927
 C97 C 1.02522 0.68973 0.34648
 C98 C 0.97249 0.65034 0.31009
 O99 O 0.98057 0.32823 0.64737
 O100 O 1.02336 0.35397 0.67308
 O101 O 1.02037 0.32648 0.64536
 O102 O 0.98356 0.35595 0.67485
 O103 O 0.98224 0.33127 0.69692
 O104 O 1.02184 0.30326 0.66880
 O105 O 1.02230 0.33074 0.69658
 O106 O 0.98173 0.30348 0.66935
 Cu107 Cu 1.00196 0.34356 0.65788
 Cu108 Cu 1.00202 0.31477 0.68519
 C109 C 0.97415 0.31120 0.65374
 C110 C 1.02983 0.34699 0.68948
 C111 C 1.02755 0.30986 0.65199
 C112 C 0.97655 0.34867 0.69088
 O113 O 0.35143 0.02117 0.32192
 O114 O 0.32443 -0.01922 0.34923
 O115 O 0.35187 -0.01837 0.32121
 O116 O 0.32410 0.02031 0.35001
 O117 O 0.29919 0.02040 0.32777
 O118 O 0.32718 -0.01807 0.29874
 O119 O 0.29959 -0.01898 0.32693
 O120 O 0.32667 0.02130 0.29953
 Cu121 Cu 0.34044 0.00095 0.33783
 Cu122 Cu 0.31067 0.00117 0.31100
 C123 C 0.34374 0.02805 0.30598
 C124 C 0.30731 -0.02591 0.34283
 C125 C 0.34438 -0.02473 0.30498
 C126 C 0.30683 0.02688 0.34389
 O127 O 0.67461 -0.02011 0.64719
 O128 O 0.64709 0.01938 0.67511
 O129 O 0.67462 0.01947 0.64719
 O130 O 0.64713 -0.02015 0.67517
 O131 O 0.67180 -0.02006 0.69765
 O132 O 0.69940 0.01942 0.66956
 O133 O 0.67173 0.01931 0.69762
 O134 O 0.69943 -0.01999 0.66953
 Cu135 Cu 0.65840 -0.00036 0.65891
 Cu136 Cu 0.68808 -0.00033 0.68583
 C137 C 0.69179 -0.02673 0.65351
 C138 C 0.65462 0.02600 0.69122
 C139 C 0.69177 0.02615 0.65354
 C140 C 0.65468 -0.02678 0.69127
 O141 O 0.32068 1.01847 0.64991
 O142 O 0.35032 0.98009 0.67715
 O143 O 0.32259 0.97898 0.64905
 O144 O 0.34812 1.01926 0.67781
 O145 O 0.32396 1.01693 0.70063
 O146 O 0.29756 0.97773 0.67107
 O147 O 0.32527 0.97746 0.69908
 O148 O 0.29613 1.01704 0.67242
 Cu149 Cu 0.33786 0.99932 0.66121
 Cu150 Cu 0.30826 0.99713 0.68806
 C151 C 0.30337 1.02436 0.65648
 C152 C 0.34297 0.97232 0.69282
 C153 C 0.30555 0.97168 0.65498
 C154 C 0.34058 1.02478 0.69428
 O155 O 0.64473 0.98312 0.32772
 O156 O 0.67222 1.02271 0.35555
 O157 O 0.64444 1.02210 0.32757
 O158 O 0.67253 0.98299 0.35561
 O159 O 0.69724 0.98327 0.33324
 O160 O 0.66925 1.02266 0.30527
 O161 O 0.69701 1.02265 0.33332
 O162 O 0.66946 0.98301 0.30532
 Cu163 Cu 0.65610 1.00273 0.34395
 Cu164 Cu 0.68571 1.00293 0.31704
 C165 C 0.65224 0.97650 0.31164
 C166 C 0.68939 1.02944 0.34932
 C167 C 0.65188 1.02885 0.31149
 C168 C 0.68970 0.97643 0.34924
 O169 O 0.82087 0.84877 0.51850
 O170 O 0.84847 0.82011 0.48009
 O171 O 0.82075 0.84868 0.48002
 O172 O 0.84870 0.82050 0.51860
 O173 O 0.82438 0.79706 0.51870
 O174 O 0.79613 0.82556 0.48031
 O175 O 0.82405 0.79678 0.48034
 O176 O 0.79634 0.82555 0.51869
 Cu177 Cu 0.83715 0.83683 0.49925
 Cu178 Cu 0.80776 0.80890 0.49950
 C179 C 0.80384 0.84212 0.52511
 C180 C 0.84109 0.80345 0.47377
 C181 C 0.80356 0.84209 0.47370
 C182 C 0.84140 0.80392 0.52519
 O183 O 0.14763 0.17543 0.47958
 O184 O 0.17350 0.14672 0.51921
 O185 O 0.14549 0.17523 0.51775
 O186 O 0.17524 0.14699 0.48062
 O187 O 0.19953 0.17042 0.48155
 O188 O 0.17049 0.19788 0.52004
 O189 O 0.19838 0.16956 0.51992
 O190 O 0.17159 0.19914 0.48156
 Cu191 Cu 0.15806 0.15871 0.49920
 Cu192 Cu 0.18746 0.18658 0.50087
 C193 C 0.15502 0.19236 0.47401
 C194 C 0.19049 0.15313 0.52621
 C195 C 0.15286 0.19138 0.52519
 C196 C 0.19241 0.15390 0.47463
 O197 O 0.14929 0.82199 0.51595
 O198 O 0.17743 0.85002 0.47743
 O199 O 0.14932 0.82190 0.47742
 O200 O 0.17740 0.85012 0.51595
 O201 O 0.20173 0.82674 0.51599
 O202 O 0.17344 0.79830 0.47767
 O203 O 0.20174 0.82662 0.47760
 O204 O 0.17344 0.79842 0.51605
 Cu205 Cu 0.16094 0.83836 0.49668
 Cu206 Cu 0.19002 0.81016 0.49684
 C207 C 0.15647 0.80536 0.52253
 C208 C 0.19444 0.84319 0.47099
 C209 C 0.15650 0.80520 0.47105
 C210 C 0.19441 0.84333 0.52249
 O211 O 0.84906 0.18105 0.52017
 O212 O 0.82058 0.15298 0.48182
 O213 O 0.84871 0.18104 0.48163
 O214 O 0.82111 0.15272 0.52031
 O215 O 0.79672 0.17603 0.52055
 O216 O 0.82459 0.20463 0.48203
 O217 O 0.79623 0.17634 0.48220
 O218 O 0.82485 0.20455 0.52042
 Cu219 Cu 0.83730 0.16461 0.50096
 Cu220 Cu 0.80817 0.19275 0.50133
 C221 C 0.84190 0.19767 0.52677
 C222 C 0.80347 0.15979 0.47554
 C223 C 0.84145 0.19772 0.47528
 C224 C 0.80412 0.15941 0.52694
 O225 O 0.48084 0.85311 0.82539
 O226 O 0.52059 0.82416 0.85186
 O227 O 0.52066 0.85170 0.82443
 O228 O 0.48046 0.82520 0.85297
 O229 O 0.47949 0.80099 0.83044
 O230 O 0.51860 0.82822 0.80124
 O231 O 0.51939 0.80037 0.82892
 O232 O 0.47855 0.82882 0.80300
 Cu233 Cu 0.50073 0.84091 0.84098
 Cu234 Cu 0.49887 0.81221 0.81360
 C235 C 0.47300 0.84602 0.80962
 C236 C 0.52683 0.80734 0.84493
 C237 C 0.52632 0.84463 0.80783
 C238 C 0.47331 0.80841 0.84672
 O239 O 0.47848 0.14987 0.17471
 O240 O 0.51943 0.17569 0.14666
 O241 O 0.51828 0.14803 0.17453
 O242 O 0.47930 0.17703 0.14696
 O243 O 0.48016 0.20102 0.16972
 O244 O 0.52042 0.17261 0.19664
 O245 O 0.52009 0.20022 0.16887
 O246 O 0.48034 0.17355 0.19773
 Cu247 Cu 0.49883 0.16027 0.15842
 Cu248 Cu 0.50039 0.18927 0.18551
 C249 C 0.47259 0.15716 0.19115
 C250 C 0.52651 0.19256 0.15279
 C251 C 0.52589 0.15524 0.19036
 C252 C 0.47297 0.19393 0.15364
 O253 O 0.51852 0.14517 0.82379
 O254 O 0.48031 0.17267 0.85359
 O255 O 0.47836 0.14522 0.82559
 O256 O 0.52011 0.17230 0.85153
 O257 O 0.51847 0.19689 0.82940
 O258 O 0.47776 0.16914 0.80274
 O259 O 0.47838 0.19646 0.83064
 O260 O 0.51767 0.16953 0.80138
 Cu261 Cu 0.49936 0.15637 0.84085
 Cu262 Cu 0.49796 0.18545 0.81379
 C263 C 0.52471 0.15267 0.80753
 C264 C 0.47292 0.18931 0.84729
 C265 C 0.47112 0.15239 0.80957
 C266 C 0.52628 0.18936 0.84502
 O267 O 0.48318 0.82714 0.14534
 O268 O 0.52087 0.85640 0.17413
 O269 O 0.52302 0.82856 0.14665
 O270 O 0.48102 0.85478 0.17296
 O271 O 0.48225 0.83159 0.19649
 O272 O 0.52215 0.80396 0.16880
 O273 O 0.52231 0.83183 0.19632
 O274 O 0.48209 0.80390 0.16887
 Cu275 Cu 0.50202 0.84412 0.15748
 Cu276 Cu 0.50223 0.81542 0.18492
 C277 C 0.47615 0.81056 0.15216
 C278 C 0.52805 0.84916 0.19012
 C279 C 0.52943 0.81151 0.15299
 C280 C 0.47475 0.84788 0.18946
 O281 O 0.82767 0.48135 0.85273
 O282 O 0.85341 0.52220 0.82480
 O283 O 0.82585 0.52094 0.85257
 O284 O 0.85577 0.48299 0.82507
 O285 O 0.83096 0.48078 0.80279
 O286 O 0.80142 0.51973 0.82987
 O287 O 0.82930 0.52025 0.80183
 O288 O 0.80296 0.48039 0.83031
 Cu289 Cu 0.84309 0.50197 0.84110
 Cu290 Cu 0.81371 0.50017 0.81392
 C291 C 0.81078 0.47403 0.84639
 C292 C 0.84589 0.52801 0.80838
 C293 C 0.80855 0.52687 0.84595
 C294 C 0.84858 0.47548 0.80920
 O295 O 0.17432 0.48046 0.14789
 O296 O 0.14850 0.52074 0.17630
 O297 O 0.17628 0.51995 0.14873
 O298 O 0.14627 0.48149 0.17562
 O299 O 0.17105 0.47894 0.19788
 O300 O 0.20061 0.51843 0.17152
 O301 O 0.17247 0.51847 0.19937
 O302 O 0.19904 0.47919 0.17029
 Cu303 Cu 0.15892 0.50079 0.15984
 Cu304 Cu 0.18822 0.49861 0.18707
 C305 C 0.19127 0.47315 0.15408
 C306 C 0.15593 0.52632 0.19282
 C307 C 0.19358 0.52575 0.15548
 C308 C 0.15346 0.47369 0.19136
 O309 O 0.85495 0.47855 0.17047
 O310 O 0.82699 0.51951 0.14501
 O311 O 0.85484 0.51750 0.17272
 O312 O 0.82707 0.48018 0.14233
 O313 O 0.80303 0.47760 0.16529
 O314 O 0.82981 0.51674 0.19480
 O315 O 0.80188 0.51714 0.16685
 O316 O 0.83059 0.47719 0.19320
 Cu317 Cu 0.84337 0.49905 0.15532
 Cu318 Cu 0.81383 0.49704 0.18228
 C319 C 0.84777 0.47118 0.18640
 C320 C 0.80954 0.52519 0.15143
 C321 C 0.84715 0.52343 0.18897
 C322 C 0.81037 0.47247 0.14862
 O323 O 0.17825 0.52172 0.84898
 O324 O 0.15172 0.48197 0.82044
 O325 O 0.17907 0.48220 0.84858
 O326 O 0.15093 0.52150 0.82081
 O327 O 0.17565 0.52210 0.79844
 O328 O 0.20403 0.48309 0.82647
 O329 O 0.17648 0.48273 0.79812
 O330 O 0.20312 0.52245 0.82677
 Cu331 Cu 0.16250 0.50177 0.83692
 Cu332 Cu 0.19231 0.50266 0.81022
 C333 C 0.19530 0.52880 0.84284
 C334 C 0.15946 0.47564 0.80433
 C335 C 0.19645 0.47605 0.84238
 C336 C 0.15839 0.52842 0.80480
 C337 C 0.27082 0.38074 0.06587
 C338 C 0.26150 0.36502 0.05499
 C339 C 0.27298 0.35366 0.04146
 C340 C 0.29394 0.35797 0.03833
 C341 C 0.30326 0.37362 0.04926
 C342 C 0.29186 0.38479 0.06297
 C343 C 0.25864 0.39313 0.07988
 N344 N 0.26819 0.40507 0.09346
 N345 N 0.25731 0.41665 0.10573
 C346 C 0.23640 0.41687 0.10489
 N347 N 0.22682 0.40488 0.09136
 N348 N 0.23771 0.39320 0.07914
 C349 C 0.22442 0.43037 0.11807
 C350 C 0.20367 0.43484 0.11397
 C351 C 0.19277 0.44854 0.12580
 C352 C 0.20233 0.45784 0.14212
 C353 C 0.22290 0.45294 0.14652
 C354 C 0.23385 0.43945 0.13457
 H355 H 0.24533 0.36148 0.05694
 H356 H 0.26537 0.34171 0.03321
 H357 H 0.31940 0.37725 0.04722
 H358 H 0.29949 0.39684 0.07106
 H359 H 0.19596 0.42813 0.10135
 H360 H 0.17692 0.45197 0.12207
 H361 H 0.23072 0.45987 0.15897
 H362 H 0.24977 0.43624 0.13821
 C363 C 0.72862 0.62159 0.06833
 C364 C 0.70775 0.61733 0.06462
 C365 C 0.69664 0.62876 0.05083
 C366 C 0.70609 0.64485 0.04063
 C367 C 0.72681 0.64944 0.04470
 C368 C 0.73799 0.63787 0.05832
 C369 C 0.74071 0.60871 0.08205
 N370 N 0.76163 0.60953 0.08218
 N371 N 0.77254 0.59733 0.09390
 C372 C 0.76301 0.58386 0.10606
 N373 N 0.74209 0.58318 0.10608
 N374 N 0.73118 0.59532 0.09429
 C375 C 0.77516 0.56967 0.11845
 C376 C 0.76563 0.55836 0.13353
 C377 C 0.77691 0.54426 0.14457
 C378 C 0.79790 0.54101 0.14063
 C379 C 0.80750 0.55253 0.12576
 C380 C 0.79629 0.56679 0.11487
 H381 H 0.70007 0.60488 0.07205
 H382 H 0.68067 0.62490 0.04808
 H383 H 0.73454 0.66174 0.03705
 H384 H 0.75402 0.64161 0.06090
 H385 H 0.74941 0.56028 0.13672
 H386 H 0.76908 0.53559 0.15592
 H387 H 0.82368 0.55043 0.12242
 H388 H 0.80409 0.57523 0.10335
 C389 C 0.73186 0.37640 0.93001
 C390 C 0.74140 0.36112 0.94129
 C391 C 0.72988 0.34930 0.95446
 C392 C 0.70865 0.35273 0.95680
 C393 C 0.69908 0.36782 0.94534
 C394 C 0.71053 0.37943 0.93200
 C395 C 0.74408 0.38954 0.91665
 N396 N 0.73457 0.40132 0.90291
 N397 N 0.74541 0.41369 0.89134
 C398 C 0.76623 0.41492 0.89307
 N399 N 0.77577 0.40308 0.90676
 N400 N 0.76492 0.39061 0.91828
 C401 C 0.77808 0.42931 0.88065
 C402 C 0.79854 0.43442 0.88543
 C403 C 0.80927 0.44882 0.87423
 C404 C 0.79985 0.45824 0.85790
 C405 C 0.77956 0.45278 0.85289
 C406 C 0.76878 0.43857 0.86418
 H407 H 0.75779 0.35835 0.94003
 H408 H 0.73767 0.33781 0.96314
 H409 H 0.68274 0.37076 0.94677
 H410 H 0.70271 0.39110 0.92357
 H411 H 0.80613 0.42759 0.89805
 H412 H 0.82491 0.45267 0.87842
 H413 H 0.77185 0.45976 0.84040
 H414 H 0.75309 0.43491 0.86003
 C415 C 0.27345 0.62163 0.93204
 C416 C 0.29442 0.61753 0.93535
 C417 C 0.30550 0.62840 0.94956
 C418 C 0.29594 0.64379 0.96061
 C419 C 0.27509 0.64820 0.95705
 C420 C 0.26391 0.63713 0.94300
 C421 C 0.26156 0.60940 0.91761
 N422 N 0.24063 0.60941 0.91782
 N423 N 0.22998 0.59775 0.90536
 C424 C 0.23982 0.58569 0.89209
 N425 N 0.26074 0.58585 0.89175
 N426 N 0.27138 0.59742 0.90428
 C427 C 0.22807 0.57206 0.87878
 C428 C 0.23782 0.56255 0.86271
 C429 C 0.22703 0.54889 0.85074
 C430 C 0.20631 0.54425 0.85472
 C431 C 0.19645 0.55399 0.87058
 C432 C 0.20718 0.56784 0.88241
 H433 H 0.30223 0.60565 0.92722
 H434 H 0.32158 0.62471 0.95191
 H435 H 0.26731 0.65996 0.96536
 H436 H 0.24780 0.64070 0.94074
 H437 H 0.25387 0.56555 0.85944
 H438 H 0.23506 0.54161 0.83864
 H439 H 0.18047 0.55079 0.87397
 H440 H 0.19921 0.57487 0.89469
 C441 C 0.06990 0.27526 0.38145
 C442 C 0.05994 0.26641 0.36511
 C443 C 0.04602 0.27764 0.35376
 C444 C 0.04157 0.29791 0.35860
 C445 C 0.05172 0.30687 0.37477
 C446 C 0.06583 0.29569 0.38601
 C447 C 0.08391 0.26301 0.39399
 N448 N 0.09645 0.27202 0.40750
 N449 N 0.10853 0.26089 0.41920
 C450 C 0.10848 0.24030 0.41795
 N451 N 0.09601 0.23132 0.40438
 N452 N 0.08402 0.24244 0.39262
 C453 C 0.12117 0.22786 0.43156
 C454 C 0.11708 0.20703 0.43391
 C455 C 0.12825 0.19547 0.44752
 C456 C 0.14395 0.20440 0.45889
 C457 C 0.14843 0.22510 0.45618
 C458 C 0.13706 0.23674 0.44275
 H459 H 0.06279 0.25074 0.36114
 H460 H 0.03844 0.27029 0.34141
 H461 H 0.04866 0.32249 0.37882
 H462 H 0.07321 0.30295 0.39852
 H463 H 0.10491 0.19972 0.42555
 H464 H 0.12449 0.17954 0.44923
 H465 H 0.16042 0.23241 0.46478
 H466 H 0.14066 0.25272 0.44121
 C467 C 0.07007 0.72608 0.61707
 C468 C 0.06634 0.70539 0.61340
 C469 C 0.05237 0.69451 0.62503
 C470 C 0.04203 0.70401 0.64075
 C471 C 0.04612 0.72456 0.64472
 C472 C 0.05990 0.73551 0.63294
 C473 C 0.08402 0.73791 0.60410
 N474 N 0.08371 0.75853 0.60432
 N475 N 0.09570 0.76920 0.59217
 C476 C 0.10859 0.75970 0.57936
 N477 N 0.10904 0.73908 0.57926
 N478 N 0.09696 0.72840 0.59133
 C479 C 0.12141 0.77157 0.56540
 C480 C 0.13779 0.76235 0.55520
 C481 C 0.14945 0.77343 0.54156
 C482 C 0.14481 0.79388 0.53764
 C483 C 0.12856 0.80314 0.54795
 C484 C 0.11708 0.79215 0.56177
 H485 H 0.07390 0.69769 0.60126
 H486 H 0.04959 0.67867 0.62164
 H487 H 0.03837 0.73232 0.65671
 H488 H 0.06250 0.75140 0.63623
 H489 H 0.14158 0.74655 0.55772
 H490 H 0.16186 0.76587 0.53382
 H491 H 0.12466 0.81890 0.54531
 H492 H 0.10454 0.79969 0.56933
 C493 C 0.92777 0.72160 0.38183
 C494 C 0.93213 0.70119 0.38633
 C495 C 0.94622 0.69019 0.37493
 C496 C 0.95603 0.69930 0.35866
 C497 C 0.95127 0.71953 0.35389
 C498 C 0.93740 0.73058 0.36541
 C499 C 0.91378 0.73368 0.39449
 N500 N 0.91370 0.75427 0.39337
 N501 N 0.90165 0.76526 0.40515
 C502 C 0.88905 0.75611 0.41848
 N503 N 0.88898 0.73550 0.41950
 N504 N 0.90114 0.72451 0.40779
 C505 C 0.87615 0.76839 0.43200
 C506 C 0.85981 0.75946 0.44250
 C507 C 0.84809 0.77097 0.45572
 C508 C 0.85266 0.79157 0.45893
 C509 C 0.86887 0.80054 0.44830
 C510 C 0.88039 0.78912 0.43487
 H511 H 0.92500 0.69384 0.39891
 H512 H 0.94954 0.67461 0.37894
 H513 H 0.95858 0.72700 0.34147
 H514 H 0.93430 0.74623 0.36147
 H515 H 0.85610 0.74355 0.44054
 H516 H 0.83573 0.76362 0.46376
 H517 H 0.87272 0.81640 0.45041
 H518 H 0.89291 0.79645 0.42706
 C519 C 0.92932 0.27782 0.61984
 C520 C 0.93284 0.29852 0.61601
 C521 C 0.94717 0.30947 0.62720
 C522 C 0.95810 0.30001 0.64261
 C523 C 0.95415 0.27947 0.64680
 C524 C 0.94001 0.26847 0.63547
 C525 C 0.91515 0.26586 0.60719
 N526 N 0.91563 0.24524 0.60748
 N527 N 0.90349 0.23444 0.59556
 C528 C 0.89028 0.24380 0.58291
 N529 N 0.88965 0.26442 0.58274
 N530 N 0.90187 0.27523 0.59459
 C531 C 0.87732 0.23178 0.56917
 C532 C 0.86071 0.24084 0.55915
 C533 C 0.84894 0.22964 0.54567
 C534 C 0.85369 0.20923 0.54175
 C535 C 0.87017 0.20011 0.55190
 C536 C 0.88178 0.21123 0.56555
 H537 H 0.92488 0.30617 0.60406
 H538 H 0.94984 0.32530 0.62366
 H539 H 0.96235 0.27174 0.65856
 H540 H 0.93757 0.25258 0.63888
 H541 H 0.85683 0.25662 0.56166
 H542 H 0.83636 0.23710 0.53805
 H543 H 0.87417 0.18438 0.54924
 H544 H 0.89450 0.20380 0.57298
 C545 C 0.37763 0.07234 0.27232
 C546 C 0.38290 0.06830 0.29211
 C547 C 0.37175 0.05409 0.30312
 C548 C 0.35494 0.04379 0.29466
 C549 C 0.34933 0.04822 0.27504
 C550 C 0.36063 0.06225 0.26396
 C551 C 0.39023 0.08642 0.26026
 N552 N 0.38865 0.08647 0.24022
 N553 N 0.40062 0.09847 0.22929
 C554 C 0.41460 0.11101 0.23794
 N555 N 0.41603 0.11112 0.25799
 N556 N 0.40414 0.09905 0.26891
 C557 C 0.42856 0.12364 0.22574
 C558 C 0.44005 0.13946 0.23433
 C559 C 0.45397 0.15072 0.22298
 C560 C 0.45688 0.14621 0.20286
 C561 C 0.44518 0.13060 0.19421
 C562 C 0.43108 0.11953 0.20549
 H563 H 0.39593 0.07578 0.29898
 H564 H 0.37639 0.05106 0.31823
 H565 H 0.33647 0.04051 0.26810
 H566 H 0.35611 0.06508 0.24878
 H567 H 0.43839 0.14307 0.24987
 H568 H 0.46280 0.16264 0.23006
 H569 H 0.44703 0.12683 0.17872
 H570 H 0.42251 0.10742 0.19842
 C571 C 0.61992 0.06906 0.72549
 C572 C 0.63685 0.05887 0.73384
 C573 C 0.64842 0.04525 0.72257
 C574 C 0.64316 0.04133 0.70277
 C575 C 0.62641 0.05172 0.69433
 C576 C 0.61500 0.06554 0.70553
 C577 C 0.60705 0.08274 0.73769
 N578 N 0.59333 0.09561 0.72912
 N579 N 0.58123 0.10736 0.74015
 C580 C 0.58227 0.10666 0.76021
 N581 N 0.59606 0.09386 0.76877
 N582 N 0.60823 0.08219 0.75774
 C583 C 0.56819 0.11904 0.77249
 C584 C 0.56527 0.11437 0.79258
 C585 C 0.55125 0.12539 0.80397
 C586 C 0.54004 0.14150 0.79560
 C587 C 0.54328 0.14648 0.77563
 C588 C 0.55711 0.13528 0.76416
 H589 H 0.64110 0.06133 0.74915
 H590 H 0.66122 0.03745 0.72950
 H591 H 0.62203 0.04908 0.67908
 H592 H 0.60203 0.07311 0.69865
 H593 H 0.57351 0.10193 0.79943
 H594 H 0.54915 0.12125 0.81934
 H595 H 0.53484 0.15879 0.76877
 H596 H 0.55908 0.13930 0.74874
 C597 C 0.37991 0.93135 0.72724
 C598 C 0.38915 0.94539 0.71438
 C599 C 0.37706 0.95825 0.70278
 C600 C 0.35548 0.95766 0.70415
 C601 C 0.34619 0.94355 0.71694
 C602 C 0.35832 0.93030 0.72821
 C603 C 0.39289 0.91838 0.73997
 N604 N 0.38643 0.89969 0.74581
 N605 N 0.39836 0.88807 0.75721
 C606 C 0.41707 0.89483 0.76342
 N607 N 0.42343 0.91356 0.75767
 N608 N 0.41163 0.92506 0.74610
 C609 C 0.43046 0.88212 0.77600
 C610 C 0.44446 0.89130 0.78908
 C611 C 0.45781 0.87947 0.80044
 C612 C 0.45777 0.85823 0.79861
 C613 C 0.44366 0.84900 0.78564
 C614 C 0.42993 0.86084 0.77460
 H615 H 0.40577 0.94642 0.71327
 H616 H 0.38462 0.96905 0.69313
 H617 H 0.32957 0.94278 0.71822
 H618 H 0.35084 0.91965 0.73808
 H619 H 0.44510 0.90767 0.79051
 H620 H 0.46860 0.88699 0.81025
 H621 H 0.44330 0.83264 0.78401
 H622 H 0.41932 0.85341 0.76456
 C623 C 0.61717 0.93486 0.27617
 C624 C 0.63879 0.93493 0.27506
 C625 C 0.65032 0.94841 0.28667
 C626 C 0.64042 0.96160 0.29992
 C627 C 0.61885 0.96104 0.30143
 C628 C 0.60734 0.94798 0.28951
 C629 C 0.60475 0.92176 0.26306
 N630 N 0.58584 0.92794 0.25695
 N631 N 0.57455 0.91636 0.24499
 C632 C 0.58161 0.89804 0.23881
 N633 N 0.60050 0.89177 0.24500
 N634 N 0.61192 0.90348 0.25680
 C635 C 0.56883 0.88531 0.22568
 C636 C 0.56971 0.86402 0.22672
 C637 C 0.55653 0.85214 0.21508
 C638 C 0.54268 0.86138 0.20187
 C639 C 0.54229 0.88265 0.20044
 C640 C 0.55506 0.89449 0.21239
 H641 H 0.64671 0.92501 0.26482
 H642 H 0.66694 0.94854 0.28527
 H643 H 0.61083 0.97113 0.31145
 H644 H 0.59070 0.94814 0.29072
 H645 H 0.58015 0.85660 0.23692
 H646 H 0.55713 0.83576 0.21642
 H647 H 0.53169 0.89017 0.19045
 H648 H 0.55417 0.91087 0.21124
 C649 C 0.38259 0.27346 0.93339
 C650 C 0.39201 0.28644 0.94718
 C651 C 0.38006 0.29830 0.95986
 C652 C 0.35847 0.29705 0.95932
 C653 C 0.34902 0.28409 0.94552
 C654 C 0.36098 0.27259 0.93247
 C655 C 0.39533 0.26059 0.92039
 N656 N 0.38854 0.25494 0.90219
 N657 N 0.40019 0.24337 0.89052
 C658 C 0.41895 0.23679 0.89673
 N659 N 0.42566 0.24235 0.91497
 N660 N 0.41413 0.25409 0.92653
 C661 C 0.43198 0.22399 0.88392
 C662 C 0.44598 0.21024 0.89237
 C663 C 0.45884 0.19854 0.88039
 C664 C 0.45829 0.20072 0.85973
 C665 C 0.44423 0.21441 0.85124
 C666 C 0.43099 0.22576 0.86323
 H667 H 0.40864 0.28747 0.94811
 H668 H 0.38773 0.30809 0.97043
 H669 H 0.33239 0.28290 0.94480
 H670 H 0.35335 0.26264 0.92202
 H671 H 0.44698 0.20851 0.90828
 H672 H 0.46961 0.18818 0.88731
 H673 H 0.44349 0.21632 0.83534
 H674 H 0.42037 0.23632 0.85637
 C675 C 0.62259 0.72697 0.92951
 C676 C 0.61762 0.70666 0.93378
 C677 C 0.62891 0.69577 0.94784
 C678 C 0.64557 0.70487 0.95775
 C679 C 0.65085 0.72502 0.95315
 C680 C 0.63941 0.73599 0.93926
 C681 C 0.60988 0.73888 0.91548
 N682 N 0.61117 0.75946 0.91502
 N683 N 0.59910 0.77026 0.90305
 C684 C 0.58531 0.76094 0.89096
 N685 N 0.58418 0.74035 0.89125
 N686 N 0.59618 0.72954 0.90330
 C687 C 0.57121 0.77301 0.87836
 C688 C 0.55991 0.76374 0.86307
 C689 C 0.54587 0.77500 0.85184
 C690 C 0.54264 0.79569 0.85586
 C691 C 0.55416 0.80501 0.87094
 C692 C 0.56838 0.79383 0.88198
 H693 H 0.60473 0.69928 0.92657
 H694 H 0.62452 0.68024 0.95101
 H695 H 0.66360 0.73245 0.96055
 H696 H 0.64370 0.75158 0.93624
 H697 H 0.56181 0.74775 0.85985
 H698 H 0.53718 0.76740 0.84033
 H699 H 0.55208 0.82095 0.87432
 H700 H 0.57681 0.80143 0.89367
 C701 C 0.38427 0.72548 0.06814
 C702 C 0.39347 0.71221 0.05452
 C703 C 0.38135 0.70066 0.04170
 C704 C 0.35980 0.70248 0.04193
 C705 C 0.35055 0.71566 0.05562
 C706 C 0.36269 0.72688 0.06881
 C707 C 0.39730 0.73824 0.08103
 N708 N 0.39069 0.74422 0.09918
 N709 N 0.40260 0.75578 0.11067
 C710 C 0.42143 0.76200 0.10433
 N711 N 0.42796 0.75608 0.08616
 N712 N 0.41617 0.74435 0.07479
 C713 C 0.43469 0.77496 0.11680
 C714 C 0.44850 0.78861 0.10792
 C715 C 0.46155 0.80053 0.11951
 C716 C 0.46140 0.79871 0.14021
 C717 C 0.44756 0.78510 0.14914
 C718 C 0.43410 0.77351 0.13752
 H719 H 0.41008 0.71078 0.05377
 H720 H 0.38888 0.69069 0.03123
 H721 H 0.33395 0.71729 0.05611
 H722 H 0.35524 0.73707 0.07914
 H723 H 0.44917 0.79009 0.09198
 H724 H 0.47214 0.81083 0.11225
 H725 H 0.44714 0.78347 0.16507
 H726 H 0.42363 0.76303 0.14470
 C727 C 0.62130 0.27090 0.06523
 C728 C 0.63781 0.26161 0.05532
 C729 C 0.64972 0.27261 0.04184
 C730 C 0.64521 0.29306 0.03778
 C731 C 0.62879 0.30240 0.04777
 C732 C 0.61704 0.29148 0.06145
 C733 C 0.60833 0.25910 0.07911
 N734 N 0.59543 0.26864 0.09188
 N735 N 0.58344 0.25800 0.10405
 C736 C 0.58374 0.23738 0.10389
 N737 N 0.59666 0.22783 0.09113
 N738 N 0.60874 0.23847 0.07904
 C739 C 0.56988 0.22559 0.11696
 C740 C 0.56596 0.20494 0.11327
 C741 C 0.55206 0.19411 0.12504
 C742 C 0.54199 0.20364 0.14090
 C743 C 0.54630 0.22416 0.14488
 C744 C 0.55999 0.23504 0.13298
 H745 H 0.64154 0.24582 0.05797
 H746 H 0.66224 0.26497 0.03434
 H747 H 0.62498 0.31815 0.04499
 H748 H 0.60439 0.29906 0.06880
 H749 H 0.57330 0.19722 0.10103
 H750 H 0.54909 0.17831 0.12163
 H751 H 0.53875 0.23195 0.15697
 H752 H 0.56275 0.25090 0.13628
 C753 C 0.26857 0.06721 0.62195
 C754 C 0.25891 0.05582 0.63690
 C755 C 0.27030 0.04226 0.64850
 C756 C 0.29149 0.03962 0.64518
 C757 C 0.30118 0.05119 0.63041
 C758 C 0.28988 0.06492 0.61902
 C759 C 0.25651 0.08097 0.60905
 N760 N 0.26618 0.09486 0.59746
 N761 N 0.25548 0.10675 0.58529
 C762 C 0.23466 0.10520 0.58409
 N763 N 0.22495 0.09137 0.59575
 N764 N 0.23565 0.07953 0.60801
 C765 C 0.22295 0.11794 0.56995
 C766 C 0.20242 0.11324 0.56506
 C767 C 0.19179 0.12473 0.55095
 C768 C 0.20139 0.14128 0.54159
 C769 C 0.22176 0.14621 0.54679
 C770 C 0.23244 0.13462 0.56072
 H771 H 0.24254 0.05731 0.63958
 H772 H 0.26242 0.03350 0.65976
 H773 H 0.31751 0.04954 0.62757
 H774 H 0.29779 0.07342 0.60761
 H775 H 0.19468 0.10046 0.57186
 H776 H 0.17608 0.12060 0.54730
 H777 H 0.22960 0.15886 0.53984
 H778 H 0.24819 0.13872 0.56421
 C779 C 0.72240 0.07267 0.38328
 C780 C 0.70245 0.06671 0.38884
 C781 C 0.69149 0.05255 0.37758
 C782 C 0.70011 0.04420 0.36028
 C783 C 0.71991 0.05064 0.35448
 C784 C 0.73096 0.06457 0.36593
 C785 C 0.73441 0.08681 0.39582
 N786 N 0.75523 0.08798 0.39411
 N787 N 0.76614 0.10012 0.40590
 C788 C 0.75668 0.11170 0.41980
 N789 N 0.73584 0.11068 0.42138
 N790 N 0.72494 0.09844 0.40968
 C791 C 0.76885 0.12465 0.43338
 C792 C 0.75930 0.14023 0.44421
 C793 C 0.77066 0.15196 0.45758
 C794 C 0.79172 0.14815 0.46060
 C795 C 0.80132 0.13271 0.44964
 C796 C 0.79004 0.12119 0.43606
 H797 H 0.69544 0.07264 0.40217
 H798 H 0.67628 0.04810 0.38255
 H799 H 0.72712 0.04466 0.34127
 H800 H 0.74626 0.06897 0.36119
 H801 H 0.74302 0.14333 0.44241
 H802 H 0.76283 0.16372 0.46585
 H803 H 0.81755 0.12948 0.45161
 H804 H 0.79783 0.10927 0.42798
 C805 C 0.72518 0.92961 0.61873
 C806 C 0.73491 0.93994 0.63436
 C807 C 0.72396 0.95381 0.64592
 C808 C 0.70310 0.95783 0.64194
 C809 C 0.69330 0.94736 0.62646
 C810 C 0.70419 0.93331 0.61506
 C811 C 0.73697 0.91551 0.60599
 N812 N 0.72711 0.90257 0.59352
 N813 N 0.73773 0.89034 0.58161
 C814 C 0.75866 0.89062 0.58160
 N815 N 0.76852 0.90351 0.59412
 N816 N 0.75790 0.91566 0.60610
 C817 C 0.77044 0.87763 0.56779
 C818 C 0.79137 0.88157 0.56403
 C819 C 0.80225 0.86994 0.55029
 C820 C 0.79252 0.85393 0.54019
 C821 C 0.77174 0.84968 0.54426
 C822 C 0.76078 0.86148 0.55782
 H823 H 0.75104 0.93737 0.63763
 H824 H 0.73193 0.96167 0.65773
 H825 H 0.67722 0.95008 0.62308
 H826 H 0.69624 0.92564 0.60310
 H827 H 0.79926 0.89392 0.57142
 H828 H 0.81828 0.87353 0.54752
 H829 H 0.76381 0.83747 0.53667
 H830 H 0.74470 0.85799 0.56044
 C831 C 0.27401 0.92994 0.37722
 C832 C 0.29495 0.93378 0.38105
 C833 C 0.30584 0.94795 0.36974
 C834 C 0.29609 0.95839 0.35420
 C835 C 0.27530 0.95417 0.35005
 C836 C 0.26435 0.94019 0.36151
 C837 C 0.26215 0.91584 0.38994
 N838 N 0.24122 0.91588 0.38962
 N839 N 0.23051 0.90379 0.40160
 C840 C 0.24027 0.89107 0.41436
 N841 N 0.26120 0.89088 0.41456
 N842 N 0.27191 0.90305 0.40264
 C843 C 0.22834 0.87820 0.42821
 C844 C 0.23789 0.86217 0.43845
 C845 C 0.22677 0.85052 0.45205
 C846 C 0.20595 0.85481 0.45588
 C847 C 0.19635 0.87069 0.44549
 C848 C 0.20739 0.88217 0.43172
 H849 H 0.30284 0.92617 0.39307
 H850 H 0.32186 0.95082 0.37325
 H851 H 0.26735 0.96200 0.33820
 H852 H 0.24827 0.93750 0.35811
 H853 H 0.25398 0.85867 0.43602
 H854 H 0.23460 0.83840 0.45985
 H855 H 0.18030 0.87431 0.44806
 H856 H 0.19958 0.89444 0.42411
 C857 C 0.07456 0.38093 0.72298
 C858 C 0.06408 0.36445 0.73154
 C859 C 0.04998 0.35310 0.72049
 C860 C 0.04587 0.35812 0.70067
 C861 C 0.05661 0.37436 0.69197
 C862 C 0.07090 0.38557 0.70298
 C863 C 0.08859 0.39364 0.73506
 N864 N 0.10162 0.40712 0.72640
 N865 N 0.11364 0.41908 0.73736
 C866 C 0.11304 0.41814 0.75743
 N867 N 0.10008 0.40459 0.76607
 N868 N 0.08815 0.39257 0.75512
 C869 C 0.12565 0.43210 0.76964
 C870 C 0.12096 0.43508 0.78973
 C871 C 0.13210 0.44906 0.80103
 C872 C 0.14835 0.46017 0.79259
 C873 C 0.15339 0.45683 0.77265
 C874 C 0.14207 0.44304 0.76125
 H875 H 0.06663 0.36039 0.74688
 H876 H 0.04195 0.34069 0.72763
 H877 H 0.05381 0.37855 0.67671
 H878 H 0.07869 0.39819 0.69594
 H879 H 0.10838 0.42694 0.79664
 H880 H 0.12789 0.45125 0.81638
 H881 H 0.16581 0.46520 0.76572
 H882 H 0.14612 0.44102 0.74585
 C883 C 0.07043 0.61947 0.27491
 C884 C 0.06714 0.61466 0.29492
 C885 C 0.05286 0.62556 0.30614
 C886 C 0.04171 0.64165 0.29767
 C887 C 0.04537 0.64681 0.27781
 C888 C 0.05949 0.63577 0.26653
 C889 C 0.08462 0.60714 0.26268
 N890 N 0.08422 0.60849 0.24263
 N891 N 0.09632 0.59677 0.23158
 C892 C 0.10941 0.58326 0.24010
 N893 N 0.10998 0.58205 0.26015
 N894 N 0.09781 0.59371 0.27121
 C895 C 0.12217 0.56957 0.22777
 C896 C 0.13832 0.55828 0.23622
 C897 C 0.14967 0.54462 0.22475
 C898 C 0.14492 0.54177 0.20465
 C899 C 0.12900 0.55329 0.19614
 C900 C 0.11783 0.56712 0.20754
 H901 H 0.07528 0.60218 0.30182
 H902 H 0.05043 0.62126 0.32143
 H903 H 0.03701 0.65912 0.27085
 H904 H 0.06172 0.63994 0.25118
 H905 H 0.14212 0.55988 0.25174
 H906 H 0.16183 0.53594 0.23174
 H907 H 0.12503 0.55150 0.18067
 H908 H 0.10548 0.57555 0.20057
 C909 C 0.93191 0.38157 0.27302
 C910 C 0.93131 0.36026 0.27235
 C911 C 0.94442 0.34877 0.28440
 C912 C 0.95791 0.35842 0.29768
 C913 C 0.95797 0.37971 0.29880
 C914 C 0.94528 0.39117 0.28642
 C915 C 0.91922 0.39387 0.25942
 N916 N 0.92611 0.41219 0.25303
 N917 N 0.91485 0.42336 0.24068
 C918 C 0.89616 0.41675 0.23436
 N919 N 0.88919 0.39844 0.24081
 N920 N 0.90058 0.38714 0.25300
 C921 C 0.88360 0.42952 0.22107
 C922 C 0.86198 0.42905 0.22203
 C923 C 0.85023 0.44240 0.21053
 C924 C 0.85990 0.45605 0.19752
 C925 C 0.88147 0.45594 0.19603
 C926 C 0.89322 0.44297 0.20787
 H927 H 0.92117 0.35252 0.26209
 H928 H 0.94409 0.33237 0.28329
 H929 H 0.96833 0.38752 0.30882
 H930 H 0.94595 0.40758 0.28730
 H931 H 0.85421 0.41886 0.23215
 H932 H 0.83361 0.44218 0.21192
 H933 H 0.88931 0.46639 0.18621
 H934 H 0.90985 0.44355 0.20678
 C935 C 0.93008 0.62211 0.72584
 C936 C 0.93356 0.61707 0.70592
 C937 C 0.94751 0.62824 0.69453
 C938 C 0.95809 0.64485 0.70274
 C939 C 0.95424 0.65021 0.72251
 C940 C 0.94048 0.63889 0.73397
 C941 C 0.91620 0.60956 0.73821
 N942 N 0.91677 0.61093 0.75826
 N943 N 0.90491 0.59905 0.76942
 C944 C 0.89188 0.58539 0.76102
 N945 N 0.89116 0.58417 0.74097
 N946 N 0.90311 0.59596 0.72981
 C947 C 0.87932 0.57158 0.77342
 C948 C 0.86301 0.56041 0.76510
 C949 C 0.85180 0.54665 0.77659
 C950 C 0.85682 0.54358 0.79659
 C951 C 0.87290 0.55498 0.80501
 C952 C 0.88395 0.56892 0.79358
 H953 H 0.92584 0.60422 0.69921
 H954 H 0.95010 0.62379 0.67932
 H955 H 0.96218 0.66291 0.72926
 H956 H 0.93807 0.64322 0.74924
 H957 H 0.85899 0.56218 0.74964
 H958 H 0.83951 0.53806 0.76967
 H959 H 0.87709 0.55300 0.82040
 H960 H 0.89644 0.57727 0.80044
 C961 C 0.72726 0.62030 0.93173
 C962 C 0.73576 0.63827 0.93940
 C963 C 0.72480 0.64999 0.95304
 C964 C 0.70515 0.64387 0.95958
 C965 C 0.69662 0.62591 0.95173
 C966 C 0.70748 0.61436 0.93789
 C967 C 0.73916 0.60754 0.91779
 N968 N 0.72970 0.59298 0.90681
 N969 N 0.74053 0.58112 0.89471
 C970 C 0.76129 0.58325 0.89318
 N971 N 0.77073 0.59785 0.90411
 N972 N 0.75989 0.60979 0.91611
 C973 C 0.77347 0.56950 0.88041
 C974 C 0.79481 0.56745 0.88331
 C975 C 0.80620 0.55373 0.87199
 C976 C 0.79656 0.54198 0.85730
 C977 C 0.77532 0.54438 0.85403
 C978 C 0.76385 0.55789 0.86558
 H979 H 0.75092 0.64331 0.93488
 H980 H 0.73195 0.66371 0.95865
 H981 H 0.68153 0.62066 0.95628
 H982 H 0.70053 0.60056 0.93230
 H983 H 0.80267 0.57612 0.89464
 H984 H 0.82256 0.55227 0.87479
 H985 H 0.76748 0.53548 0.84285
 H986 H 0.74745 0.55919 0.86293
 C987 C 0.27619 0.38199 0.92920
 C988 C 0.26751 0.36408 0.93682
 C989 C 0.27826 0.35233 0.95061
 C990 C 0.29787 0.35837 0.95739
 C991 C 0.30662 0.37623 0.94953
 C992 C 0.29596 0.38779 0.93552
 C993 C 0.26444 0.39485 0.91517
 N994 N 0.27408 0.40926 0.90417
 N995 N 0.26341 0.42121 0.89200
 C996 C 0.24262 0.41933 0.89041
 N997 N 0.23299 0.40488 0.90137
 N998 N 0.24368 0.39285 0.91345
 C999 C 0.23066 0.43316 0.87749
 C1000 C 0.20933 0.43555 0.88024
 C1001 C 0.19819 0.44935 0.86872
 C1002 C 0.20807 0.46083 0.85399
 C1003 C 0.22929 0.45808 0.85090
 C1004 C 0.24050 0.44450 0.86262
 H1005 H 0.25235 0.35913 0.93215
 H1006 H 0.27097 0.33869 0.95621
 H1007 H 0.32169 0.38140 0.95426
 H1008 H 0.30305 0.40155 0.92996
 H1009 H 0.20130 0.42709 0.89160
 H1010 H 0.18184 0.45109 0.87140
 H1011 H 0.23734 0.46675 0.83969
 H1012 H 0.25689 0.44293 0.86008
 C1013 C 0.27617 0.61851 0.06999
 C1014 C 0.29581 0.61238 0.06365
 C1015 C 0.30671 0.62389 0.04976
 C1016 C 0.29833 0.64198 0.04205
 C1017 C 0.27884 0.64830 0.04882
 C1018 C 0.26787 0.63664 0.06250
 C1019 C 0.26413 0.60582 0.08391
 N1020 N 0.24346 0.60842 0.08571
 N1021 N 0.23245 0.59660 0.09770
 C1022 C 0.24167 0.58176 0.10851
 N1023 N 0.26238 0.57928 0.10686
 N1024 N 0.27337 0.59103 0.09476
 C1025 C 0.22928 0.56816 0.12126
 C1026 C 0.23871 0.55635 0.13604
 C1027 C 0.22703 0.54295 0.14755
 C1028 C 0.20575 0.54087 0.14428
 C1029 C 0.19629 0.55283 0.12966
 C1030 C 0.20789 0.56644 0.11839
 H1031 H 0.30261 0.59845 0.06911
 H1032 H 0.32167 0.61849 0.04502
 H1033 H 0.27182 0.66212 0.04335
 H1034 H 0.25282 0.64185 0.06718
 H1035 H 0.25514 0.55740 0.13867
 H1036 H 0.23475 0.53387 0.15867
 H1037 H 0.17990 0.55161 0.12686
 H1038 H 0.20016 0.57528 0.10709
 C1039 C 0.72873 0.37911 0.06328
 C1040 C 0.71141 0.38691 0.05348
 C1041 C 0.69996 0.37468 0.04067
 C1042 C 0.70596 0.35449 0.03685
 C1043 C 0.72330 0.34668 0.04687
 C1044 C 0.73438 0.35880 0.06017
 C1045 C 0.74116 0.39241 0.07617
 N1046 N 0.75037 0.38507 0.09275
 N1047 N 0.76154 0.39725 0.10433
 C1048 C 0.76416 0.41713 0.09958
 N1049 N 0.75506 0.42441 0.08293
 N1050 N 0.74368 0.41232 0.07152
 C1051 C 0.77658 0.43070 0.11220
 C1052 C 0.78831 0.44631 0.10363
 C1053 C 0.79975 0.45952 0.11551
 C1054 C 0.79917 0.45774 0.13619
 C1055 C 0.78739 0.44217 0.14480
 C1056 C 0.77643 0.42855 0.13287
 H1057 H 0.70668 0.40250 0.05577
 H1058 H 0.68674 0.38132 0.03332
 H1059 H 0.72837 0.33122 0.04445
 H1060 H 0.74774 0.35249 0.06755
 H1061 H 0.78872 0.44821 0.08772
 H1062 H 0.80863 0.47148 0.10854
 H1063 H 0.78677 0.44049 0.16072
 H1064 H 0.76741 0.41668 0.13980
 C1065 C 0.92901 0.72469 0.61869
 C1066 C 0.93495 0.70494 0.61333
 C1067 C 0.94934 0.69425 0.62466
 C1068 C 0.95795 0.70293 0.64184
 C1069 C 0.95152 0.72252 0.64746
 C1070 C 0.93736 0.73332 0.63593
 C1071 C 0.91468 0.73642 0.60603
 N1072 N 0.91364 0.75697 0.60748
 N1073 N 0.90139 0.76762 0.59554
 C1074 C 0.88956 0.75816 0.58174
 N1075 N 0.89044 0.73760 0.58043
 N1076 N 0.90279 0.72696 0.59228
 C1077 C 0.87655 0.77006 0.56795
 C1078 C 0.86064 0.76064 0.55719
 C1079 C 0.84889 0.77175 0.54363
 C1080 C 0.85302 0.79242 0.54032
 C1081 C 0.86879 0.80187 0.55120
 C1082 C 0.88032 0.79085 0.56498
 H1083 H 0.92884 0.69789 0.60010
 H1084 H 0.95377 0.67919 0.61983
 H1085 H 0.95769 0.72977 0.66057
 H1086 H 0.93299 0.74846 0.64052
 H1087 H 0.85730 0.74466 0.55922
 H1088 H 0.83687 0.76404 0.53542
 H1089 H 0.87228 0.81780 0.54902
 H1090 H 0.89251 0.79854 0.57298
 C1091 C 0.92845 0.27730 0.38164
 C1092 C 0.93448 0.29701 0.38708
 C1093 C 0.94880 0.30776 0.37575
 C1094 C 0.95727 0.29918 0.35849
 C1095 C 0.95076 0.27962 0.35279
 C1096 C 0.93666 0.26877 0.36432
 C1097 C 0.91418 0.26551 0.39429
 N1098 N 0.91304 0.24498 0.39274
 N1099 N 0.90085 0.23428 0.40468
 C1100 C 0.88918 0.24368 0.41860
 N1101 N 0.89015 0.26424 0.42002
 N1102 N 0.90244 0.27492 0.40816
 C1103 C 0.87625 0.23174 0.43241
 C1104 C 0.86053 0.24114 0.44336
 C1105 C 0.84889 0.22999 0.45696
 C1106 C 0.85294 0.20928 0.46010
 C1107 C 0.86850 0.19984 0.44901
 C1108 C 0.87993 0.21090 0.43520
 H1109 H 0.92848 0.30399 0.40038
 H1110 H 0.95329 0.32279 0.38065
 H1111 H 0.95683 0.27246 0.33961
 H1112 H 0.93222 0.25365 0.35967
 H1113 H 0.85726 0.25715 0.44148
 H1114 H 0.83701 0.23769 0.46533
 H1115 H 0.87192 0.18387 0.45105
 H1116 H 0.89196 0.20322 0.42704
 C1117 C 0.06796 0.27516 0.61643
 C1118 C 0.06460 0.26974 0.63624
 C1119 C 0.05128 0.28118 0.64807
 C1120 C 0.04151 0.29865 0.64047
 C1121 C 0.04559 0.30437 0.62077
 C1122 C 0.05840 0.29258 0.60883
 C1123 C 0.08082 0.26242 0.60345
 N1124 N 0.07577 0.26010 0.58409
 N1125 N 0.08714 0.24847 0.57228
 C1126 C 0.10416 0.23890 0.57930
 N1127 N 0.10932 0.24131 0.59864
 N1128 N 0.09777 0.25274 0.61054
 C1129 C 0.11671 0.22615 0.56605
 C1130 C 0.13825 0.22551 0.56799
 C1131 C 0.15011 0.21423 0.55466
 C1132 C 0.14054 0.20293 0.53961
 C1133 C 0.11897 0.20316 0.53805
 C1134 C 0.10718 0.21489 0.55097
 H1135 H 0.07178 0.25630 0.64239
 H1136 H 0.04865 0.27631 0.66317
 H1137 H 0.03844 0.31767 0.61430
 H1138 H 0.06088 0.29713 0.59362
 H1139 H 0.14592 0.23416 0.57946
 H1140 H 0.16673 0.21424 0.55616
 H1141 H 0.11125 0.19466 0.52649
 H1142 H 0.09059 0.21509 0.54924
 C1143 C 0.06869 0.72386 0.37947
 C1144 C 0.06323 0.70412 0.38533
 C1145 C 0.04897 0.69286 0.37441
 C1146 C 0.04000 0.70092 0.35712
 C1147 C 0.04589 0.72055 0.35101
 C1148 C 0.05993 0.73194 0.36216
 C1149 C 0.08303 0.73607 0.39169
 N1150 N 0.08361 0.75662 0.39005
 N1151 N 0.09590 0.76763 0.40166
 C1152 C 0.10821 0.75853 0.41530
 N1153 N 0.10778 0.73797 0.41679
 N1154 N 0.09541 0.72698 0.40527
 C1155 C 0.12128 0.77075 0.42877
 C1156 C 0.13746 0.76162 0.43936
 C1157 C 0.14922 0.77293 0.45275
 C1158 C 0.14485 0.79355 0.45604
 C1159 C 0.12884 0.80275 0.44528
 C1160 C 0.11728 0.79151 0.43168
 H1161 H 0.06965 0.69749 0.39864
 H1162 H 0.04497 0.67781 0.37963
 H1163 H 0.03940 0.72733 0.33779
 H1164 H 0.06392 0.74708 0.35721
 H1165 H 0.14099 0.74568 0.43738
 H1166 H 0.16143 0.76541 0.46085
 H1167 H 0.12517 0.81864 0.44744
 H1168 H 0.10488 0.79898 0.42379
 C1169 C 0.62026 0.92984 0.72564
 C1170 C 0.61509 0.93357 0.70577
 C1171 C 0.62639 0.94751 0.69454
 C1172 C 0.64326 0.95783 0.70287
 C1173 C 0.64873 0.95374 0.72259
 C1174 C 0.63729 0.93999 0.73388
 C1175 C 0.60760 0.91592 0.73786
 N1176 N 0.60920 0.91606 0.75790
 N1177 N 0.59728 0.90412 0.76894
 C1178 C 0.58333 0.89146 0.76043
 N1179 N 0.58186 0.89117 0.74038
 N1180 N 0.59371 0.90319 0.72933
 C1181 C 0.56952 0.87876 0.77275
 C1182 C 0.55811 0.86282 0.76428
 C1183 C 0.54444 0.85140 0.77578
 C1184 C 0.54171 0.85584 0.79593
 C1185 C 0.55331 0.87160 0.80446
 C1186 C 0.56716 0.88284 0.79303
 H1187 H 0.60204 0.92605 0.69898
 H1188 H 0.62183 0.95028 0.67937
 H1189 H 0.66163 0.96147 0.72944
 H1190 H 0.64174 0.93739 0.74912
 H1191 H 0.55964 0.85922 0.74873
 H1192 H 0.53569 0.83938 0.76877
 H1193 H 0.55160 0.87534 0.81996
 H1194 H 0.57568 0.89504 0.80001
 C1195 C 0.37932 0.93284 0.27010
 C1196 C 0.38400 0.93591 0.29018
 C1197 C 0.37255 0.94956 0.30154
 C1198 C 0.35597 0.96024 0.29314
 C1199 C 0.35098 0.95684 0.27318
 C1200 C 0.36262 0.94339 0.26174
 C1201 C 0.39213 0.91910 0.25787
 N1202 N 0.39133 0.91992 0.23780
 N1203 N 0.40340 0.90807 0.22682
 C1204 C 0.41670 0.89482 0.23546
 N1205 N 0.41736 0.89389 0.25552
 N1206 N 0.40537 0.90581 0.26649
 C1207 C 0.43067 0.88213 0.22333
 C1208 C 0.44132 0.86575 0.23190
 C1209 C 0.45523 0.85433 0.22074
 C1210 C 0.45899 0.85916 0.20082
 C1211 C 0.44813 0.87534 0.19215
 C1212 C 0.43402 0.88663 0.20326
 H1213 H 0.39680 0.92807 0.29707
 H1214 H 0.37673 0.95180 0.31689
 H1215 H 0.33832 0.96489 0.26628
 H1216 H 0.35855 0.94130 0.24634
 H1217 H 0.43902 0.86181 0.24729
 H1218 H 0.46338 0.84198 0.22787
 H1219 H 0.45065 0.87940 0.17682
 H1220 H 0.42610 0.89916 0.19622
 C1221 C 0.61621 0.06978 0.27569
 C1222 C 0.60655 0.05647 0.28901
 C1223 C 0.61824 0.04365 0.30104
 C1224 C 0.63983 0.04351 0.29967
 C1225 C 0.64955 0.05686 0.28641
 C1226 C 0.63784 0.07010 0.27470
 C1227 C 0.60363 0.08274 0.26256
 N1228 N 0.61061 0.10110 0.25627
 N1229 N 0.59905 0.11272 0.24452
 C1230 C 0.58019 0.10630 0.23839
 N1231 N 0.57330 0.08789 0.24458
 N1232 N 0.58474 0.07640 0.25650
 C1233 C 0.56721 0.11901 0.22538
 C1234 C 0.55320 0.10984 0.21230
 C1235 C 0.54027 0.12169 0.20049
 C1236 C 0.54073 0.14297 0.20186
 C1237 C 0.55483 0.15219 0.21485
 C1238 C 0.56816 0.14031 0.22632
 H1239 H 0.58991 0.05599 0.29014
 H1240 H 0.61035 0.03342 0.31104
 H1241 H 0.66618 0.05705 0.28510
 H1242 H 0.64564 0.08017 0.26449
 H1243 H 0.55222 0.09346 0.21120
 H1244 H 0.52947 0.11418 0.19069
 H1245 H 0.55550 0.16857 0.21614
 H1246 H 0.57878 0.14774 0.23635
 C1247 C 0.37446 0.06776 0.72960
 C1248 C 0.35874 0.05594 0.73811
 C1249 C 0.34731 0.04237 0.72654
 C1250 C 0.35157 0.04014 0.70628
 C1251 C 0.36708 0.05216 0.69773
 C1252 C 0.37829 0.06591 0.70923
 C1253 C 0.38725 0.08146 0.74193
 N1254 N 0.39940 0.09579 0.73339
 N1255 N 0.41152 0.10760 0.74436
 C1256 C 0.41212 0.10554 0.76434
 N1257 N 0.39991 0.09127 0.77291
 N1258 N 0.38768 0.07951 0.76194
 C1259 C 0.42633 0.11813 0.77637
 C1260 C 0.43103 0.11278 0.79601
 C1261 C 0.44539 0.12403 0.80691
 C1262 C 0.45517 0.14101 0.79848
 C1263 C 0.45007 0.14665 0.77904
 C1264 C 0.43590 0.13528 0.76808
 H1265 H 0.35534 0.05707 0.75375
 H1266 H 0.33549 0.03327 0.73355
 H1267 H 0.37067 0.05084 0.68214
 H1268 H 0.39031 0.07475 0.70220
 H1269 H 0.42396 0.09963 0.80283
 H1270 H 0.44895 0.11934 0.82188
 H1271 H 0.45734 0.15963 0.77210
 H1272 H 0.43256 0.13989 0.75304
 C1273 C 0.62285 0.73011 0.06693
 C1274 C 0.63927 0.73886 0.05639
 C1275 C 0.65066 0.72730 0.04294
 C1276 C 0.64569 0.70682 0.03954
 C1277 C 0.62936 0.69804 0.05016
 C1278 C 0.61816 0.70951 0.06380
 C1279 C 0.61037 0.74246 0.08078
 N1280 N 0.59747 0.73340 0.09391
 N1281 N 0.58581 0.74448 0.10598
 C1282 C 0.58647 0.76509 0.10538
 N1283 N 0.59942 0.77415 0.09229
 N1284 N 0.61117 0.76307 0.08028
 C1285 C 0.57284 0.77735 0.11827
 C1286 C 0.56942 0.79803 0.11431
 C1287 C 0.55557 0.80925 0.12577
 C1288 C 0.54505 0.80008 0.14159
 C1289 C 0.54893 0.77956 0.14590
 C1290 C 0.56258 0.76829 0.13431
 H1291 H 0.64333 0.75466 0.05852
 H1292 H 0.66313 0.73451 0.03494
 H1293 H 0.62521 0.68227 0.04792
 H1294 H 0.60557 0.70231 0.07163
 H1295 H 0.57705 0.80547 0.10205
 H1296 H 0.55294 0.82505 0.12211
 H1297 H 0.54104 0.77203 0.15796
 H1298 H 0.56495 0.75242 0.13783
 C1299 C 0.37748 0.27440 0.06850
 C1300 C 0.36154 0.26522 0.05758
 C1301 C 0.35024 0.27645 0.04374
 C1302 C 0.35482 0.29702 0.04036
 C1303 C 0.37055 0.30626 0.05148
 C1304 C 0.38166 0.29511 0.06547
 C1305 C 0.39016 0.26232 0.08246
 N1306 N 0.40305 0.27163 0.09547
 N1307 N 0.41507 0.26078 0.10746
 C1308 C 0.41478 0.24016 0.10689
 N1309 N 0.40180 0.23086 0.09397
 N1310 N 0.38971 0.24171 0.08204
 C1311 C 0.42889 0.22811 0.11955
 C1312 C 0.43231 0.20743 0.11559
 C1313 C 0.44646 0.19631 0.12680
 C1314 C 0.45735 0.20554 0.14237
 C1315 C 0.45357 0.22608 0.14667
 C1316 C 0.43958 0.23728 0.13530
 H1317 H 0.35786 0.24932 0.05961
 H1318 H 0.33823 0.26890 0.03538
 H1319 H 0.37438 0.32211 0.04928
 H1320 H 0.39385 0.30265 0.07360
 H1321 H 0.42438 0.19991 0.10355
 H1322 H 0.44897 0.18049 0.12318
 H1323 H 0.46174 0.23362 0.15856
 H1324 H 0.43724 0.25315 0.13879
 C1325 C 0.62401 0.26899 0.92850
 C1326 C 0.61981 0.28968 0.93162
 C1327 C 0.63118 0.30086 0.94538
 C1328 C 0.64719 0.29171 0.95616
 C1329 C 0.65178 0.27117 0.95270
 C1330 C 0.64022 0.25989 0.93910
 C1331 C 0.61109 0.25693 0.91474
 N1332 N 0.61143 0.23631 0.91519
 N1333 N 0.59910 0.22550 0.90344
 C1334 C 0.58598 0.23485 0.89069
 N1335 N 0.58581 0.25546 0.89009
 N1336 N 0.59807 0.26627 0.90190
 C1337 C 0.57158 0.22290 0.87825
 C1338 C 0.56065 0.23221 0.86274
 C1339 C 0.54630 0.22119 0.85164
 C1340 C 0.54239 0.20068 0.85595
 C1341 C 0.55354 0.19127 0.87124
 C1342 C 0.56806 0.20222 0.88220
 H1343 H 0.60741 0.29716 0.92375
 H1344 H 0.62733 0.31669 0.94766
 H1345 H 0.66402 0.26369 0.96081
 H1346 H 0.64390 0.24400 0.93697
 H1347 H 0.56307 0.24808 0.85924
 H1348 H 0.53795 0.22888 0.83996
 H1349 H 0.55093 0.17545 0.87487
 H1350 H 0.57618 0.19459 0.89406
 C1351 C 0.37973 0.72801 0.93382
 C1352 C 0.38364 0.70716 0.93622
 C1353 C 0.37241 0.69570 0.94986
 C1354 C 0.35682 0.70476 0.96123
 C1355 C 0.35258 0.72550 0.95854
 C1356 C 0.36401 0.73704 0.94507
 C1357 C 0.39233 0.74029 0.92000
 N1358 N 0.39249 0.76090 0.92112
 N1359 N 0.40438 0.77187 0.90912
 C1360 C 0.41652 0.76270 0.89542
 N1361 N 0.41622 0.74212 0.89420
 N1362 N 0.40442 0.73115 0.90626
 C1363 C 0.43025 0.77478 0.88245
 C1364 C 0.43957 0.76579 0.86587
 C1365 C 0.45319 0.77686 0.85406
 C1366 C 0.45798 0.79713 0.85865
 C1367 C 0.44848 0.80624 0.87508
 C1368 C 0.43466 0.79521 0.88678
 H1369 H 0.39567 0.69974 0.92783
 H1370 H 0.37599 0.67974 0.95156
 H1371 H 0.34069 0.73292 0.96713
 H1372 H 0.36056 0.75305 0.94351
 H1373 H 0.43643 0.75012 0.86206
 H1374 H 0.46027 0.76940 0.84152
 H1375 H 0.45182 0.82185 0.87897
 H1376 H 0.42778 0.80258 0.89947
 C1377 C 0.72339 0.93214 0.38324
 C1378 C 0.73286 0.94249 0.36749
 C1379 C 0.72182 0.95661 0.35626
 C1380 C 0.70112 0.96089 0.36067
 C1381 C 0.69159 0.95045 0.37632
 C1382 C 0.70256 0.93614 0.38741
 C1383 C 0.73530 0.91764 0.39552
 N1384 N 0.72561 0.90473 0.40815
 N1385 N 0.73639 0.89209 0.41955
 C1386 C 0.75731 0.89188 0.41888
 N1387 N 0.76698 0.90473 0.40620
 N1388 N 0.75621 0.91730 0.39473
 C1389 C 0.76934 0.87842 0.43214
 C1390 C 0.79048 0.88189 0.43522
 C1391 C 0.80163 0.86991 0.44852
 C1392 C 0.79197 0.85403 0.45885
 C1393 C 0.77097 0.85020 0.45540
 C1394 C 0.75974 0.86235 0.44228
 H1395 H 0.74885 0.93970 0.36383
 H1396 H 0.72961 0.96442 0.34432
 H1397 H 0.67563 0.95336 0.38004
 H1398 H 0.69482 0.92848 0.39947
 H1399 H 0.79834 0.89415 0.42768
 H1400 H 0.81781 0.87319 0.45081
 H1401 H 0.76309 0.83810 0.46318
 H1402 H 0.74350 0.85922 0.44017
 C1403 C 0.27305 0.92871 0.61845
 C1404 C 0.29393 0.93306 0.61489
 C1405 C 0.30458 0.94684 0.62688
 C1406 C 0.29465 0.95635 0.64284
 C1407 C 0.27393 0.95160 0.64670
 C1408 C 0.26322 0.93803 0.63457
 C1409 C 0.26140 0.91502 0.60510
 N1410 N 0.24047 0.91483 0.60530
 N1411 N 0.22993 0.90305 0.59288
 C1412 C 0.23986 0.89088 0.57980
 N1413 N 0.26080 0.89093 0.57970
 N1414 N 0.27135 0.90280 0.59205
 C1415 C 0.22810 0.87823 0.56561
 C1416 C 0.23777 0.86240 0.55522
 C1417 C 0.22674 0.85082 0.54147
 C1418 C 0.20588 0.85500 0.53763
 C1419 C 0.19619 0.87074 0.54809
 C1420 C 0.20713 0.88213 0.56202
 H1421 H 0.30195 0.92617 0.60257
 H1422 H 0.32056 0.95014 0.62357
 H1423 H 0.26583 0.95871 0.65885
 H1424 H 0.24718 0.93493 0.63778
 H1425 H 0.25388 0.85895 0.55770
 H1426 H 0.23464 0.83881 0.53361
 H1427 H 0.18011 0.87428 0.54550
 H1428 H 0.19924 0.89425 0.56972
 C1429 C 0.27303 0.06937 0.37976
 C1430 C 0.26344 0.05947 0.36378
 C1431 C 0.27453 0.04600 0.35188
 C1432 C 0.29539 0.04195 0.35583
 C1433 C 0.30504 0.05201 0.37166
 C1434 C 0.29402 0.06566 0.38342
 C1435 C 0.26107 0.08301 0.39286
 N1436 N 0.27074 0.09550 0.40589
 N1437 N 0.25994 0.10730 0.41807
 C1438 C 0.23901 0.10703 0.41779
 N1439 N 0.22935 0.09459 0.40471
 N1440 N 0.24014 0.08287 0.39247
 C1441 C 0.22697 0.11956 0.43184
 C1442 C 0.20597 0.11551 0.43504
 C1443 C 0.19476 0.12674 0.44885
 C1444 C 0.20421 0.14245 0.45961
 C1445 C 0.22511 0.14679 0.45615
 C1446 C 0.23640 0.13537 0.44250
 H1447 H 0.24732 0.06205 0.36050
 H1448 H 0.26664 0.03846 0.33982
 H1449 H 0.32112 0.04927 0.37504
 H1450 H 0.30186 0.07300 0.39563
 H1451 H 0.19824 0.10341 0.42712
 H1452 H 0.17866 0.12308 0.45113
 H1453 H 0.23282 0.15878 0.46424
 H1454 H 0.25253 0.13893 0.44033
 C1455 C 0.72511 0.07031 0.61912
 C1456 C 0.70420 0.06638 0.61523
 C1457 C 0.69334 0.05214 0.62648
 C1458 C 0.70307 0.04171 0.64203
 C1459 C 0.72385 0.04594 0.64620
 C1460 C 0.73478 0.06000 0.63480
 C1461 C 0.73690 0.08467 0.60660
 N1462 N 0.75783 0.08483 0.60700
 N1463 N 0.76847 0.09724 0.59526
 C1464 C 0.75863 0.11011 0.58270
 N1465 N 0.73770 0.11009 0.58243
 N1466 N 0.72706 0.09760 0.59409
 C1467 C 0.77049 0.12339 0.56915
 C1468 C 0.76082 0.13953 0.55918
 C1469 C 0.77187 0.15155 0.54582
 C1470 C 0.79273 0.14751 0.54195
 C1471 C 0.80245 0.13153 0.55208
 C1472 C 0.79149 0.11969 0.56562
 H1473 H 0.69630 0.07402 0.60323
 H1474 H 0.67732 0.04925 0.62295
 H1475 H 0.73179 0.03813 0.65807
 H1476 H 0.75084 0.06274 0.63824
 H1477 H 0.74469 0.14284 0.56163
 H1478 H 0.76394 0.16373 0.53820
 H1479 H 0.81854 0.12809 0.54947
 H1480 H 0.79939 0.10735 0.57302
 C1481 C 0.93087 0.61362 0.27591
 C1482 C 0.94483 0.60465 0.28917
 C1483 C 0.95788 0.61668 0.30068
 C1484 C 0.95759 0.63791 0.29883
 C1485 C 0.94354 0.64694 0.28567
 C1486 C 0.93009 0.63489 0.27448
 C1487 C 0.91786 0.60069 0.26314
 N1488 N 0.89907 0.60706 0.25679
 N1489 N 0.88754 0.59529 0.24514
 C1490 C 0.89450 0.57682 0.23920
 N1491 N 0.91331 0.57052 0.24549
 N1492 N 0.92470 0.58217 0.25731
 C1493 C 0.88211 0.56380 0.22596
 C1494 C 0.89201 0.55069 0.21266
 C1495 C 0.88054 0.53798 0.20035
 C1496 C 0.85894 0.53775 0.20140
 C1497 C 0.84897 0.55083 0.21472
 C1498 C 0.86048 0.56398 0.22672
 H1499 H 0.94567 0.58829 0.29063
 H1500 H 0.96862 0.60931 0.31064
 H1501 H 0.94300 0.66329 0.28401
 H1502 H 0.91953 0.64216 0.26429
 H1503 H 0.90867 0.55033 0.21172
 H1504 H 0.88861 0.52796 0.19030
 H1505 H 0.83232 0.55094 0.21577
 H1506 H 0.85250 0.57391 0.23692
 C1507 C 0.93577 0.38475 0.72643
 C1508 C 0.93492 0.36345 0.72743
 C1509 C 0.94818 0.35161 0.71589
 C1510 C 0.96210 0.36089 0.70279
 C1511 C 0.96255 0.38216 0.70147
 C1512 C 0.94970 0.39397 0.71333
 C1513 C 0.92260 0.39744 0.73922
 N1514 N 0.92920 0.41603 0.74518
 N1515 N 0.91747 0.42761 0.75670
 C1516 C 0.89856 0.42118 0.76256
 N1517 N 0.89188 0.40262 0.75654
 N1518 N 0.90374 0.39091 0.74518
 C1519 C 0.88558 0.43431 0.77511
 C1520 C 0.86398 0.43348 0.77386
 C1521 C 0.85185 0.44683 0.78497
 C1522 C 0.86113 0.46085 0.79788
 C1523 C 0.88269 0.46125 0.79951
 C1524 C 0.89480 0.44828 0.78807
 H1525 H 0.92436 0.35599 0.73748
 H1526 H 0.94752 0.33522 0.71715
 H1527 H 0.97321 0.38971 0.69157
 H1528 H 0.95059 0.41035 0.71219
 H1529 H 0.85650 0.42290 0.76391
 H1530 H 0.83525 0.44619 0.78350
 H1531 H 0.89025 0.47197 0.80928
 H1532 H 0.91141 0.44917 0.78938
 C1533 C 0.07125 0.62224 0.72457
 C1534 C 0.06058 0.63860 0.73310
 C1535 C 0.04660 0.64997 0.72190
 C1536 C 0.04279 0.64504 0.70201
 C1537 C 0.05364 0.62885 0.69341
 C1538 C 0.06782 0.61766 0.70453
 C1539 C 0.08539 0.60963 0.73663
 N1540 N 0.09890 0.59672 0.72788
 N1541 N 0.11111 0.58486 0.73873
 C1542 C 0.11023 0.58533 0.75880
 N1543 N 0.09678 0.59829 0.76756
 N1544 N 0.08465 0.61023 0.75670
 C1545 C 0.12318 0.57150 0.77084
 C1546 C 0.11841 0.56781 0.79079
 C1547 C 0.12996 0.55396 0.80187
 C1548 C 0.14670 0.54370 0.79332
 C1549 C 0.15179 0.54775 0.77351
 C1550 C 0.14007 0.56140 0.76235
 H1551 H 0.06295 0.64258 0.74848
 H1552 H 0.03844 0.66234 0.72895
 H1553 H 0.05109 0.62473 0.67810
 H1554 H 0.07575 0.60513 0.69752
 H1555 H 0.10547 0.57529 0.79776
 H1556 H 0.12571 0.55121 0.81713
 H1557 H 0.16458 0.54006 0.76649
 H1558 H 0.14420 0.56398 0.74704
 C1559 C 0.06685 0.38229 0.27411
 C1560 C 0.06708 0.36100 0.27273
 C1561 C 0.05376 0.34928 0.28436
 C1562 C 0.04043 0.35866 0.29793
 C1563 C 0.04068 0.37990 0.29967
 C1564 C 0.05357 0.39160 0.28773
 C1565 C 0.07989 0.39494 0.26113
 N1566 N 0.07338 0.41364 0.25545
 N1567 N 0.08500 0.42523 0.24381
 C1568 C 0.10371 0.41868 0.23754
 N1569 N 0.11030 0.40000 0.24328
 N1570 N 0.09854 0.38828 0.25475
 C1571 C 0.11663 0.43189 0.22497
 C1572 C 0.13823 0.43103 0.22606
 C1573 C 0.15030 0.44457 0.21507
 C1574 C 0.14096 0.45880 0.20243
 C1575 C 0.11939 0.45920 0.20091
 C1576 C 0.10734 0.44604 0.21224
 H1577 H 0.07714 0.35348 0.26228
 H1578 H 0.05385 0.33291 0.28277
 H1579 H 0.03047 0.38754 0.30991
 H1580 H 0.05317 0.40798 0.28917
 H1581 H 0.14575 0.42031 0.23584
 H1582 H 0.16691 0.44393 0.21646
 H1583 H 0.11179 0.47008 0.19135
 H1584 H 0.09072 0.44694 0.21106
   
