data_POSCAR
  _audit_creation_date              2014-09-24
  _audit_creation_method            'ToBaCCo'
  _symmetry_space_group_name_H-M    'P1'
  _symmetry_Int_Tables_number       1
  _symmetry_cell_setting            triclinic
  loop_
  _symmetry_equiv_pos_as_xyz
 x,y,z
_cell_length_a 39.1666
_cell_length_b 39.1682
_cell_length_c 39.1646
_cell_angle_alpha 90.006300
_cell_angle_beta 89.980500
_cell_angle_gamma 89.996100
loop_
  _atom_site_label
  _atom_site_type_symbol
  _atom_site_fract_x
  _atom_site_fract_y
  _atom_site_fract_z
N1 N 0.35140 0.35270 0.35273
 N2 N 0.35049 0.85157 -0.14744
 N3 N 0.85074 0.35014 -0.14837
 N4 N 0.85006 0.85232 0.35442
 N5 N 0.64920 0.64708 0.35117
 N6 N 0.64905 0.14557 -0.14869
 N7 N 0.14980 0.64490 -0.14876
 N8 N 0.14925 0.14689 0.34874
 N9 N 0.64529 0.34898 0.64884
 N10 N 0.64922 0.85145 1.14738
 N11 N 0.14739 0.35563 1.15000
 N12 N 0.14685 0.85086 0.65076
 N13 N 0.35257 0.64991 0.64826
 N14 N 0.35203 0.15110 1.14758
 N15 N 0.85377 0.65101 1.14776
 N16 N 0.85251 0.14987 0.64552
 N17 N 0.35238 0.34814 0.64709
 N18 N 0.35334 0.85003 0.14616
 N19 N 0.85231 0.35130 0.14671
 N20 N 0.85328 0.84924 0.64855
 N21 N 0.64639 0.64698 0.64934
 N22 N 0.64737 0.14827 0.14938
 N23 N 0.14738 0.65007 0.15083
 N24 N 0.14753 0.14755 0.64758
 N25 N 0.35275 0.65082 0.35376
 N26 N 0.34892 0.14829 0.85517
 N27 N 0.85048 0.64462 0.85154
 N28 N 0.85119 0.14918 0.35103
 N29 N 0.64887 0.35499 0.35045
 N30 N 0.65008 0.85343 0.85025
 N31 N 0.14837 0.35324 0.85056
 N32 N 0.14948 0.85421 0.35202
 O33 O 0.24925 1.03198 0.28979
 O34 O 0.29394 0.96579 0.24066
 O35 O 0.29381 1.03268 0.24071
 O36 O 0.24704 0.96571 0.28788
 O37 O 0.20629 0.96732 0.24898
 O38 O 0.25298 1.03337 0.20188
 O39 O 0.25309 0.96681 0.20185
 O40 O 0.20847 1.03357 0.25090
 Cu41 Cu 0.27519 0.99886 0.26858
 Cu42 Cu 0.22617 1.00034 0.22197
 C43 C 0.22132 1.04415 0.27876
 C44 C 0.28110 0.95480 0.21303
 C45 C 0.28108 1.04466 0.21334
 C46 C 0.21851 0.95525 0.27645
 O47 O 0.29526 0.46519 0.74130
 O48 O 0.25153 0.53171 0.79123
 O49 O 0.25134 0.46559 0.79111
 O50 O 0.29573 0.53208 0.74182
 O51 O 0.25384 0.53226 0.70412
 O52 O 0.20947 0.46573 0.75336
 O53 O 0.20962 0.53212 0.75353
 O54 O 0.25339 0.46565 0.70357
 Cu55 Cu 0.27781 0.49858 0.77002
 Cu56 Cu 0.22740 0.49896 0.72482
 C57 C 0.28170 0.45387 0.71409
 C58 C 0.22303 0.54320 0.78090
 C59 C 0.22274 0.45443 0.78071
 C60 C 0.28222 0.54377 0.71476
 O61 O 0.74507 -0.03384 0.20858
 O62 O 0.79129 0.03372 0.25551
 O63 O 0.79354 -0.03270 0.25390
 O64 O 0.74669 0.03256 0.20651
 O65 O 0.70662 0.03335 0.24616
 O66 O 0.75345 -0.03347 0.29352
 O67 O 0.75126 0.03301 0.29519
 O68 O 0.70496 -0.03316 0.24818
 Cu69 Cu 0.77316 -0.00008 0.22718
 Cu70 Cu 0.72505 -0.00009 0.27472
 C71 C 0.71699 -0.04499 0.22055
 C72 C 0.77897 0.04490 0.28343
 C73 C 0.78162 -0.04443 0.28160
 C74 C 0.71890 0.04435 0.21816
 O75 O 0.73979 0.46411 0.71033
 O76 O 0.78723 0.53048 0.75708
 O77 O 0.78692 0.46397 0.75720
 O78 O 0.74011 0.53082 0.71036
 O79 O 0.70045 0.53076 0.75042
 O80 O 0.74718 0.46425 0.79720
 O81 O 0.74745 0.53048 0.79704
 O82 O 0.70020 0.46437 0.75046
 Cu83 Cu 0.76750 0.49730 0.72967
 Cu84 Cu 0.71981 0.49747 0.77776
 C85 C 0.71194 0.45282 0.72254
 C86 C 0.77534 0.54184 0.78504
 C87 C 0.77502 0.45273 0.78522
 C88 C 0.71234 0.54232 0.72255
 O89 O 0.20299 0.53573 0.25339
 O90 O 0.25010 0.46911 0.29958
 O91 O 0.25015 0.53556 0.30000
 O92 O 0.20296 0.46947 0.25304
 O93 O 0.24258 0.46942 0.21293
 O94 O 0.28984 0.53582 0.25997
 O95 O 0.28982 0.46908 0.25958
 O96 O 0.24256 0.53597 0.21323
 Cu97 Cu 0.22261 0.50246 0.28055
 Cu98 Cu 0.27022 0.50261 0.23241
 C99 C 0.21469 0.54725 0.22543
 C100 C 0.27785 0.45754 0.28744
 C101 C 0.27795 0.54711 0.28797
 C102 C 0.21470 0.45810 0.22503
 O103 O 0.79828 0.96772 0.74732
 O104 O 0.74833 1.03444 0.79098
 O105 O 0.75103 0.96829 0.79367
 O106 O 0.79762 1.03425 0.74650
 O107 O 0.75886 1.03291 0.70563
 O108 O 0.71222 0.96600 0.75286
 O109 O 0.70953 1.03222 0.75015
 O110 O 0.75958 0.96607 0.70637
 Cu111 Cu 0.77773 1.00143 0.77367
 Cu112 Cu 0.73123 0.99911 0.72455
 C113 C 0.78720 0.95530 0.71947
 C114 C 0.72032 1.04457 0.77808
 C115 C 0.72378 0.95578 0.78141
 C116 C 0.78620 1.04507 0.71820
 O117 O 0.75033 0.53254 0.29270
 O118 O 0.79426 0.46625 0.24274
 O119 O 0.79709 0.53280 0.24562
 O120 O 0.74728 0.46639 0.28955
 O121 O 0.70746 0.46983 0.24979
 O122 O 0.75737 0.53613 0.20577
 O123 O 0.75445 0.46961 0.20298
 O124 O 0.71060 0.53599 0.25286
 Cu125 Cu 0.77631 0.49914 0.27159
 Cu126 Cu 0.72852 0.50326 0.22379
 C127 C 0.72292 0.54555 0.28129
 C128 C 0.78172 0.45640 0.21451
 C129 C 0.78559 0.54598 0.21832
 C130 C 0.71887 0.45679 0.27719
 O131 O 0.24484 -0.03273 0.70854
 O132 O 0.29159 0.03298 0.75542
 O133 O 0.28958 -0.03342 0.75736
 O134 O 0.24294 0.03364 0.71028
 O135 O 0.20286 0.03308 0.74992
 O136 O 0.24965 -0.03273 0.79715
 O137 O 0.25162 0.03384 0.79516
 O138 O 0.20481 -0.03355 0.74822
 Cu139 Cu 0.27122 0.00014 0.72896
 Cu140 Cu 0.22323 0.00020 0.77658
 C141 C 0.21711 -0.04463 0.72024
 C142 C 0.27975 0.04483 0.78311
 C143 C 0.27739 -0.04455 0.78534
 C144 C 0.21483 0.04476 0.72220
 O145 O 0.24352 0.29525 0.96606
 O146 O 0.29325 0.25172 1.03279
 O147 O 0.29015 0.24812 0.96658
 O148 O 0.24677 0.29916 1.03257
 O149 O 0.20679 0.25959 1.03633
 O150 O 0.25001 0.20872 0.97043
 O151 O 0.25324 0.21217 1.03655
 O152 O 0.20343 0.25579 0.96991
 Cu153 Cu 0.27241 0.27759 0.99910
 Cu154 Cu 0.22429 0.23016 1.00376
 C155 C 0.21517 0.28282 0.95638
 C156 C 0.28173 0.22445 1.04602
 C157 C 0.27747 0.21978 0.95721
 C158 C 0.21944 0.28788 1.04587
 O159 O 0.20705 0.75494 0.53309
 O160 O 0.25738 0.71183 0.46698
 O161 O 0.25672 0.71095 0.53346
 O162 O 0.21009 0.75835 0.46665
 O163 O 0.24872 0.79931 0.46917
 O164 O 0.29513 0.75216 0.53518
 O165 O 0.29603 0.75284 0.46891
 O166 O 0.24548 0.79609 0.53567
 Cu167 Cu 0.22892 0.72991 0.49981
 Cu168 Cu 0.27514 0.77928 0.50247
 C169 C 0.21771 0.78270 0.54589
 C170 C 0.28516 0.72485 0.45659
 C171 C 0.28401 0.72361 0.54566
 C172 C 0.22170 0.78689 0.45638
 O173 O 0.29426 0.74863 -0.03388
 O174 O 0.24731 0.70225 0.03269
 O175 O 0.24559 0.70367 -0.03394
 O176 O 0.29508 0.74819 0.03229
 O177 O 0.25642 0.78921 0.03344
 O178 O 0.20664 0.74440 -0.03225
 O179 O 0.20864 0.74322 0.03438
 O180 O 0.25541 0.78947 -0.03301
 Cu181 Cu 0.27438 0.72150 -0.00085
 Cu182 Cu 0.22784 0.77067 0.00076
 C183 C 0.28292 0.77694 -0.04483
 C184 C 0.22020 0.71489 0.04517
 C185 C 0.21775 0.71654 -0.04451
 C186 C 0.28419 0.77636 0.04413
 O187 O 0.20692 0.24488 0.46619
 O188 O 0.25625 0.28862 0.53293
 O189 O 0.25607 0.28956 0.46644
 O190 O 0.20918 0.24192 0.53270
 O191 O 0.24798 0.20108 0.53052
 O192 O 0.29491 0.24873 0.46505
 O193 O 0.29503 0.24773 0.53132
 O194 O 0.24582 0.20414 0.46401
 Cu195 Cu 0.22817 0.27033 0.49973
 Cu196 Cu 0.27478 0.22128 0.49751
 C197 C 0.21800 0.21718 0.45355
 C198 C 0.28396 0.27565 0.54362
 C199 C 0.28361 0.27719 0.45451
 C200 C 0.22079 0.21344 0.54306
 O201 O 0.70907 0.75565 1.03231
 O202 O 0.75537 0.70805 0.96537
 O203 O 0.75372 0.70667 1.03178
 O204 O 0.70649 0.75306 0.96585
 O205 O 0.74651 0.79271 0.96457
 O206 O 0.79363 0.74646 1.03205
 O207 O 0.79544 0.74768 0.96550
 O208 O 0.74895 0.79546 1.03104
 Cu209 Cu 0.72717 0.72691 0.99886
 Cu210 Cu 0.77512 0.77455 0.99818
 C211 C 0.72133 0.78372 1.04315
 C212 C 0.78346 0.71986 0.95410
 C213 C 0.78149 0.71855 1.04342
 C214 C 0.71834 0.78064 0.95377
 O215 O 0.70659 0.25655 0.53141
 O216 O 0.75422 0.21095 0.46407
 O217 O 0.75186 0.20804 0.53044
 O218 O 0.70772 0.25846 0.46468
 O219 O 0.74852 0.29730 0.46670
 O220 O 0.79236 0.24718 0.53295
 O221 O 0.79488 0.24990 0.46666
 O222 O 0.74716 0.29563 0.53310
 Cu223 Cu 0.72596 0.22962 0.49738
 Cu224 Cu 0.77479 0.27641 0.50009
 C225 C 0.71891 0.28389 0.54382
 C226 C 0.78273 0.22269 0.45392
 C227 C 0.77961 0.21910 0.54301
 C228 C 0.72065 0.28632 0.45429
 O229 O 0.70914 0.24233 -0.03422
 O230 O 0.75605 0.28999 0.03231
 O231 O 0.75629 0.28905 -0.03427
 O232 O 0.70644 0.24580 0.03226
 O233 O 0.74512 0.20486 0.03459
 O234 O 0.79516 0.24824 -0.03250
 O235 O 0.79466 0.24896 0.03380
 O236 O 0.74803 0.20161 -0.03187
 Cu237 Cu 0.72809 0.27090 -0.00119
 Cu238 Cu 0.77456 0.22178 0.00123
 C239 C 0.72085 0.21384 -0.04451
 C240 C 0.78348 0.27746 0.04435
 C241 C 0.78408 0.27615 -0.04484
 C242 C 0.71730 0.21805 0.04494
 O243 O 0.79063 0.75472 0.46746
 O244 O 0.74665 0.70446 0.53342
 O245 O 0.74401 0.70749 0.46686
 O246 O 0.79097 0.75407 0.53404
 O247 O 0.75005 0.79282 0.53539
 O248 O 0.70306 0.74615 0.46919
 O249 O 0.70587 0.74332 0.53563
 O250 O 0.74957 0.79333 0.46916
 Cu251 Cu 0.77217 0.72628 0.50027
 Cu252 Cu 0.72299 0.77271 0.50257
 C253 C 0.77762 0.78249 0.45696
 C254 C 0.71883 0.71540 0.54591
 C255 C 0.71553 0.71910 0.45645
 C256 C 0.77848 0.78154 0.54606
 O257 O 0.96611 0.25448 0.20588
 O258 O 1.03297 0.20503 0.24961
 O259 O 0.96659 0.20522 0.25016
 O260 O 1.03244 0.25308 0.20393
 O261 O 1.03406 0.29145 0.24520
 O262 O 0.96734 0.24368 0.29137
 O263 O 1.03410 0.24331 0.29098
 O264 O 0.96768 0.29304 0.24698
 Cu265 Cu 0.99941 0.22561 0.22326
 Cu266 Cu 1.00093 0.27169 0.27284
 C267 C 0.95549 0.28221 0.21897
 C268 C 1.04502 0.21581 0.27773
 C269 C 0.95552 0.21632 0.27852
 C270 C 1.04461 0.28031 0.21660
 O271 O 0.53138 0.20412 0.75754
 O272 O 0.46437 0.25088 0.71055
 O273 O 0.53068 0.24798 0.70772
 O274 O 0.46449 0.20475 0.75850
 O275 O 0.46628 0.24618 0.79668
 O276 O 0.53292 0.28910 0.74625
 O277 O 0.46677 0.29211 0.74892
 O278 O 0.53269 0.24535 0.79595
 Cu279 Cu 0.49748 0.22269 0.72980
 Cu280 Cu 0.49987 0.27229 0.77580
 C281 C 0.54357 0.21698 0.78475
 C282 C 0.45425 0.27961 0.72179
 C283 C 0.54313 0.27592 0.71839
 C284 C 0.45389 0.21815 0.78605
 O285 O 0.03336 0.25800 0.78900
 O286 O -0.03314 0.21122 0.74135
 O287 O 0.03346 0.21091 0.74205
 O288 O -0.03336 0.25750 0.78901
 O289 O -0.03314 0.29758 0.74938
 O290 O 0.03339 0.25092 0.70235
 O291 O -0.03285 0.25145 0.70187
 O292 O 0.03327 0.29787 0.74917
 Cu293 Cu 0.00008 0.23038 0.76937
 Cu294 Cu 0.00020 0.27849 0.72176
 C295 C 0.04474 0.28593 0.77703
 C296 C -0.04438 0.22348 0.71349
 C297 C 0.04480 0.22296 0.71416
 C298 C -0.04477 0.28541 0.77710
 O299 O 0.53392 0.24606 0.20831
 O300 O 0.46769 0.29607 0.25235
 O301 O 0.53423 0.29353 0.25484
 O302 O 0.46722 0.24635 0.20825
 O303 O 0.46626 0.20770 0.24927
 O304 O 0.53218 0.25495 0.29587
 O305 O 0.46579 0.25726 0.29320
 O306 O 0.53249 0.20759 0.24948
 Cu307 Cu 0.50093 0.27438 0.22679
 Cu308 Cu 0.49903 0.22807 0.27610
 C309 C 0.54458 0.21838 0.22137
 C310 C 0.45529 0.28508 0.28020
 C311 C 0.54467 0.28210 0.28337
 C312 C 0.45536 0.21889 0.22091
 O313 O 1.03190 0.78889 0.74874
 O314 O 0.96577 0.73864 0.79199
 O315 O 1.03251 0.73906 0.79249
 O316 O 0.96566 0.78617 0.74560
 O317 O 0.96789 0.74766 0.70450
 O318 O 1.03387 0.70071 0.75121
 O319 O 0.96738 0.70015 0.75081
 O320 O 1.03422 0.75055 0.70747
 Cu321 Cu 0.99873 0.76698 0.77390
 Cu322 Cu 1.00104 0.72092 0.72438
 C323 C 1.04443 0.77836 0.72079
 C324 C 0.95509 0.71104 0.77883
 C325 C 1.04470 0.71185 0.77962
 C326 C 0.95541 0.77482 0.71695
 O327 O 0.53560 0.79010 0.24390
 O328 O 0.46857 0.74400 0.29137
 O329 O 0.53521 0.74327 0.29103
 O330 O 0.46918 0.79282 0.24640
 O331 O 0.46703 0.75352 0.20603
 O332 O 0.53367 0.70424 0.25038
 O333 O 0.46732 0.70477 0.25091
 O334 O 0.53338 0.75099 0.20336
 Cu335 Cu 0.50234 0.77147 0.27227
 Cu336 Cu 0.50017 0.72448 0.22360
 C337 C 0.54592 0.77829 0.21547
 C338 C 0.45650 0.71647 0.27911
 C339 C 0.54585 0.71542 0.27831
 C340 C 0.45670 0.78157 0.21870
 O341 O 0.03295 0.75416 0.29568
 O342 O -0.03332 0.71014 0.24570
 O343 O 0.03318 0.71014 0.24614
 O344 O -0.03349 0.75348 0.29596
 O345 O -0.03376 0.79566 0.25856
 O346 O 0.03298 0.75213 0.20851
 O347 O -0.03326 0.75232 0.20828
 O348 O 0.03300 0.79617 0.25808
 Cu349 Cu -0.00017 0.72773 0.27462
 Cu350 Cu -0.00029 0.77840 0.22969
 C351 C 0.04444 0.78262 0.28522
 C352 C -0.04456 0.72370 0.21845
 C353 C 0.04447 0.72363 0.21889
 C354 C -0.04513 0.78193 0.28569
 O355 O 0.46634 0.79674 0.75159
 O356 O 0.53208 0.74930 0.70489
 O357 O 0.46582 0.74722 0.70756
 O358 O 0.53281 0.79686 0.75107
 O359 O 0.53418 0.75837 0.79223
 O360 O 0.46772 0.70854 0.74854
 O361 O 0.53399 0.71071 0.74593
 O362 O 0.46735 0.75813 0.79264
 Cu363 Cu 0.49911 0.77640 0.72467
 Cu364 Cu 0.50099 0.73014 0.77405
 C365 C 0.45537 0.78548 0.77990
 C366 C 0.54434 0.72202 0.71731
 C367 C 0.45539 0.71939 0.72061
 C368 C 0.54504 0.78592 0.77906
 C369 C 0.37870 0.33628 0.33109
 C370 C 0.36866 0.30083 0.31712
 C371 C 0.39419 0.28426 0.30053
 C372 C 0.42752 0.30460 0.29812
 C373 C 0.41709 0.33866 0.28164
 C374 C 0.39182 0.35545 0.29879
 C375 C 0.41177 0.33113 0.35175
 C376 C 0.43683 0.31408 0.33489
 H377 H 0.34320 0.29013 0.31904
 H378 H 0.39046 0.25947 0.28868
 H379 H 0.42842 0.34882 0.25847
 H380 H 0.38249 0.37941 0.28893
 H381 H 0.41523 0.34074 0.37752
 H382 H 0.46163 0.30914 0.34625
 C383 C 0.37811 0.83528 0.83122
 C384 C 0.36859 0.79962 0.81739
 C385 C 0.39437 0.78337 0.80081
 C386 C 0.42739 0.80422 0.79832
 C387 C 0.41645 0.83809 0.78182
 C388 C 0.39101 0.85451 0.79889
 C389 C 0.41123 0.83058 0.85194
 C390 C 0.43659 0.81387 0.83509
 H391 H 0.34332 0.78851 0.81948
 H392 H 0.39106 0.75844 0.78913
 H393 H 0.42762 0.84846 0.75867
 H394 H 0.38147 0.87831 0.78885
 H395 H 0.41450 0.84021 0.87773
 H396 H 0.46143 0.80922 0.84647
 C397 C -0.12179 0.33415 0.82987
 C398 C -0.08837 0.32953 0.85011
 C399 C -0.06310 0.31321 0.83274
 C400 C -0.07271 0.30379 0.79600
 C401 C -0.10553 0.28264 0.79884
 C402 C -0.13119 0.29850 0.81599
 C403 C -0.10948 0.35373 0.79750
 C404 C -0.08416 0.33766 0.77993
 H405 H -0.08483 0.33894 0.87594
 H406 H -0.03807 0.30865 0.84374
 H407 H -0.10876 0.25770 0.78720
 H408 H -0.15627 0.28706 0.81855
 H409 H -0.11937 0.37750 0.78776
 H410 H -0.07344 0.34828 0.75668
 C411 C -0.12233 0.83142 0.33750
 C412 C -0.13200 0.81840 0.30158
 C413 C -0.10627 0.80235 0.28475
 C414 C -0.07310 0.79951 0.30529
 C415 C -0.06401 0.83607 0.31581
 C416 C -0.08931 0.85238 0.33312
 C417 C -0.10915 0.79869 0.35587
 C418 C -0.08373 0.78211 0.33882
 H419 H -0.15736 0.82057 0.29069
 H420 H -0.10973 0.79123 0.25959
 H421 H -0.03924 0.84767 0.31133
 H422 H -0.08606 0.87790 0.34342
 H423 H -0.11840 0.78820 0.37960
 H424 H -0.07230 0.75882 0.34855
 C425 C 0.62200 0.66400 0.32972
 C426 C 0.63188 0.69994 0.31697
 C427 C 0.60653 0.71664 0.30021
 C428 C 0.57347 0.69600 0.29657
 C429 C 0.58457 0.66251 0.27949
 C430 C 0.60960 0.64558 0.29667
 C431 C 0.58850 0.66833 0.34990
 C432 C 0.56354 0.68554 0.33296
 H433 H 0.65710 0.71098 0.31992
 H434 H 0.61016 0.74185 0.28929
 H435 H 0.57380 0.65277 0.25589
 H436 H 0.61916 0.62194 0.28629
 H437 H 0.58466 0.65810 0.37538
 H438 H 0.53849 0.69000 0.34397
 C439 C 0.62124 0.16644 0.83475
 C440 C 0.60765 0.19845 0.85403
 C441 C 0.58210 0.21517 0.83751
 C442 C 0.57169 0.19871 0.80347
 C443 C 0.60491 0.19684 0.78285
 C444 C 0.63083 0.18056 0.79921
 C445 C 0.58853 0.14518 0.82961
 C446 C 0.56301 0.16173 0.81283
 H447 H 0.61684 0.20858 0.87792
 H448 H 0.57050 0.23808 0.84795
 H449 H 0.60822 0.20864 0.75798
 H450 H 0.65620 0.17886 0.78825
 H451 H 0.58562 0.11927 0.83900
 H452 H 0.53841 0.14996 0.80788
 C453 C 1.12208 0.66158 0.83033
 C454 C 1.13147 0.69754 0.81722
 C455 C 1.10566 0.71398 0.80085
 C456 C 1.07273 0.69304 0.79794
 C457 C 1.08382 0.65950 0.78089
 C458 C 1.10925 0.64288 0.79769
 C459 C 1.08893 0.66583 0.85114
 C460 C 1.06351 0.68274 0.83455
 H461 H 1.15666 0.70877 0.81965
 H462 H 1.10887 0.73915 0.78969
 H463 H 1.07265 0.64939 0.75763
 H464 H 1.11870 0.61918 0.78734
 H465 H 1.08566 0.65575 0.87675
 H466 H 1.03864 0.68713 0.84599
 C467 C 1.12180 0.16400 0.32781
 C468 C 1.10874 0.14566 0.29500
 C469 C 1.08350 0.16273 0.27828
 C470 C 1.07287 0.19628 0.29557
 C471 C 1.06354 0.18586 0.33212
 C472 C 1.08872 0.16855 0.34862
 C473 C 1.13168 0.19988 0.31491
 C474 C 1.10611 0.21674 0.29863
 H475 H 1.11802 0.12198 0.28444
 H476 H 1.07225 0.15304 0.25488
 H477 H 1.03873 0.19048 0.34359
 H478 H 1.08531 0.15838 0.37418
 H479 H 1.15701 0.21076 0.31743
 H480 H 1.10966 0.24195 0.28768
 C481 C 0.61848 0.32714 0.66576
 C482 C 0.62907 0.31379 0.70129
 C483 C 0.60397 0.29704 0.71833
 C484 C 0.57050 0.29387 0.69835
 C485 C 0.56053 0.33037 0.68849
 C486 C 0.58515 0.34736 0.67095
 C487 C 0.60568 0.29442 0.64712
 C488 C 0.58084 0.27710 0.66439
 H489 H 0.65461 0.31621 0.71170
 H490 H 0.60813 0.28555 0.74322
 H491 H 0.53559 0.34142 0.69351
 H492 H 0.58119 0.37293 0.66102
 H493 H 0.61487 0.28447 0.62313
 H494 H 0.56973 0.25367 0.65463
 C495 C 0.62202 0.82998 0.16425
 C496 C 0.58881 0.85045 0.16944
 C497 C 0.56390 0.83346 0.18667
 C498 C 0.57355 0.79679 0.19626
 C499 C 0.58404 0.78027 0.16226
 C500 C 0.60905 0.79748 0.14535
 C501 C 0.63225 0.81639 0.19980
 C502 C 0.60690 0.79962 0.21653
 H503 H 0.58514 0.87616 0.15976
 H504 H 0.53905 0.84466 0.19173
 H505 H 0.57294 0.75697 0.15218
 H506 H 0.61824 0.78742 0.12142
 H507 H 0.65766 0.81881 0.21052
 H508 H 0.61072 0.78816 0.24147
 C509 C 1.12031 0.33369 0.16651
 C510 C 1.08688 0.35375 0.17194
 C511 C 1.06208 0.33623 0.18882
 C512 C 1.07207 0.29949 0.19784
 C513 C 1.08282 0.28363 0.16363
 C514 C 1.10767 0.30135 0.14707
 C515 C 1.13054 0.31965 0.20190
 C516 C 1.10532 0.30234 0.21826
 H517 H 1.08299 0.37957 0.16267
 H518 H 1.03710 0.34709 0.19398
 H519 H 1.07198 0.26039 0.15313
 H520 H 1.11697 0.29170 0.12303
 H521 H 1.15586 0.32220 0.21278
 H522 H 1.10916 0.29057 0.24305
 C523 C 1.11991 0.83279 0.67151
 C524 C 1.08706 0.82742 0.65054
 C525 C 1.06238 0.80917 0.66676
 C526 C 1.07185 0.79874 0.70325
 C527 C 1.10570 0.77932 0.70022
 C528 C 1.13083 0.79711 0.68422
 C529 C 1.10620 0.85047 0.70438
 C530 C 1.08140 0.83250 0.72085
 H531 H 1.08345 0.83773 0.62507
 H532 H 1.03777 0.80390 0.65515
 H533 H 1.10999 0.75420 0.71113
 H534 H 1.15654 0.78710 0.68185
 H535 H 1.11481 0.87431 0.71515
 H536 H 1.06980 0.84165 0.74430
 C537 C 0.37963 0.66691 0.66976
 C538 C 0.36902 0.70229 0.68353
 C539 C 0.39426 0.71935 0.70008
 C540 C 0.42789 0.69952 0.70265
 C541 C 0.41795 0.66538 0.71927
 C542 C 0.39301 0.64812 0.70217
 C543 C 0.41265 0.67246 0.64911
 C544 C 0.43742 0.68999 0.66592
 H545 H 0.34341 0.71260 0.68148
 H546 H 0.39015 0.74416 0.71176
 H547 H 0.42945 0.65545 0.74245
 H548 H 0.38419 0.62399 0.71210
 H549 H 0.41631 0.66277 0.62340
 H550 H 0.46216 0.69526 0.65457
 C551 C 0.37924 0.16789 0.16905
 C552 C 0.36887 0.20316 0.18326
 C553 C 0.39425 0.21986 0.20002
 C554 C 0.42776 0.19978 0.20226
 C555 C 0.41765 0.16546 0.21837
 C556 C 0.39264 0.14860 0.20112
 C557 C 0.41221 0.17365 0.14834
 C558 C 0.43717 0.19077 0.16537
 H559 H 0.34334 0.21370 0.18129
 H560 H 0.39035 0.24458 0.21195
 H561 H 0.42915 0.15503 0.24132
 H562 H 0.38381 0.12437 0.21076
 H563 H 0.41571 0.16441 0.12244
 H564 H 0.46188 0.19615 0.15401
 C565 C -0.11952 0.67251 0.16526
 C566 C -0.08617 0.65230 0.17034
 C567 C -0.06162 0.66919 0.18812
 C568 C -0.07177 0.70554 0.19841
 C569 C -0.08208 0.72268 0.16467
 C570 C -0.10672 0.70552 0.14713
 C571 C -0.13027 0.68529 0.20097
 C572 C -0.10528 0.70195 0.21830
 H573 H -0.08212 0.62683 0.16016
 H574 H -0.03669 0.65815 0.19313
 H575 H -0.07100 0.74624 0.15516
 H576 H -0.11572 0.71581 0.12322
 H577 H -0.15579 0.68251 0.21133
 H578 H -0.10951 0.71300 0.24338
 C579 C -0.12034 0.17141 0.66242
 C580 C -0.08683 0.15127 0.66700
 C581 C -0.06194 0.16835 0.68419
 C582 C -0.07193 0.20478 0.69436
 C583 C -0.08297 0.22159 0.66069
 C584 C -0.10791 0.20430 0.64381
 C585 C -0.13036 0.18442 0.69826
 C586 C -0.10504 0.20127 0.71494
 H587 H -0.08297 0.12572 0.65697
 H588 H -0.03691 0.15738 0.68885
 H589 H -0.07220 0.24511 0.65075
 H590 H -0.11737 0.21453 0.62007
 H591 H -0.15561 0.18154 0.70923
 H592 H -0.10872 0.21232 0.74009
 C593 C 0.33000 0.38029 0.33647
 C594 C 0.35047 0.41359 0.33194
 C595 C 0.33335 0.43895 0.31548
 C596 C 0.29662 0.42952 0.30583
 C597 C 0.29944 0.39667 0.28471
 C598 C 0.31636 0.37094 0.30072
 C599 C 0.29757 0.39280 0.35581
 C600 C 0.28027 0.41817 0.33962
 H601 H 0.37626 0.41700 0.34150
 H602 H 0.34452 0.46391 0.31095
 H603 H 0.28801 0.39350 0.25967
 H604 H 0.31893 0.34585 0.28929
 H605 H 0.28761 0.38304 0.37955
 H606 H 0.25702 0.42903 0.35011
 C607 C 0.32902 -0.12112 0.83592
 C608 C 0.31579 -0.13091 0.80011
 C609 C 0.29903 -0.10541 0.78360
 C610 C 0.29588 -0.07236 0.80432
 C611 C 0.27912 -0.08343 0.83804
 C612 C 0.29632 -0.10860 0.85474
 C613 C 0.34937 -0.08774 0.83138
 C614 C 0.33242 -0.06267 0.81437
 H615 H 0.31840 -0.15617 0.78907
 H616 H 0.28772 -0.10894 0.75854
 H617 H 0.25570 -0.07256 0.84811
 H618 H 0.28617 -0.11820 0.87847
 H619 H 0.37498 -0.08409 0.84133
 H620 H 0.34353 -0.03770 0.80977
 C621 C 0.82859 0.37711 0.83525
 C622 C 0.81510 0.36709 0.79960
 C623 C 0.79768 0.39226 0.78330
 C624 C 0.79415 0.42526 0.80405
 C625 C 0.77800 0.41394 0.83795
 C626 C 0.79587 0.38912 0.85447
 C627 C 0.84827 0.41085 0.83046
 C628 C 0.83065 0.43560 0.81366
 H629 H 0.81806 0.34190 0.78850
 H630 H 0.78623 0.38853 0.75835
 H631 H 0.75456 0.42447 0.84832
 H632 H 0.78624 0.37951 0.87841
 H633 H 0.87392 0.41497 0.84011
 H634 H 0.84126 0.46077 0.80893
 C635 C 0.83302 -0.12042 0.33319
 C636 C 0.82737 -0.08745 0.35394
 C637 C 0.81003 -0.06254 0.33705
 C638 C 0.80079 -0.07197 0.30023
 C639 C 0.83502 -0.08202 0.28387
 C640 C 0.85204 -0.10697 0.30097
 C641 C 0.79764 -0.13085 0.31928
 C642 C 0.78079 -0.10552 0.30262
 H643 H 0.83684 -0.08393 0.37975
 H644 H 0.80465 -0.03784 0.34843
 H645 H 0.84527 -0.07053 0.26082
 H646 H 0.87621 -0.11569 0.29109
 H647 H 0.78714 -0.15637 0.32141
 H648 H 0.75597 -0.10945 0.29091
 C649 C 0.33181 0.62195 0.66466
 C650 C 0.29949 0.60865 0.64566
 C651 C 0.28293 0.58289 0.66214
 C652 C 0.29990 0.57207 0.69579
 C653 C 0.33674 0.56347 0.68577
 C654 C 0.35308 0.58915 0.66907
 C655 C 0.31821 0.63113 0.70048
 C656 C 0.30211 0.60507 0.71675
 H657 H 0.28915 0.61815 0.62198
 H658 H 0.25986 0.57139 0.65196
 H659 H 0.34853 0.53878 0.69021
 H660 H 0.37884 0.58631 0.65923
 H661 H 0.32009 0.65638 0.71169
 H662 H 0.29062 0.60812 0.74181
 C663 C 0.33124 1.12305 0.16392
 C664 C 0.35231 1.09004 0.16792
 C665 C 0.33590 1.06431 0.18453
 C666 C 0.29918 1.07305 0.19480
 C667 C 0.30170 1.10583 0.21606
 C668 C 0.31788 1.13196 0.19992
 C669 C 0.29874 1.11012 0.14502
 C670 C 0.28214 1.08433 0.16132
 H671 H 0.37800 1.08712 0.15791
 H672 H 0.34757 1.03951 0.18872
 H673 H 0.29040 1.10871 0.24122
 H674 H 0.31999 1.15708 0.21138
 H675 H 0.28819 1.11991 0.12156
 H676 H 0.25891 1.07317 0.15114
 C677 C 0.83698 0.62329 0.16862
 C678 C 0.85549 0.61013 0.20129
 C679 C 0.83859 0.58467 0.21792
 C680 C 0.80505 0.57399 0.20066
 C681 C 0.78442 0.60714 0.19789
 C682 C 0.80108 0.63289 0.18171
 C683 C 0.83262 0.59027 0.14766
 C684 C 0.81541 0.56494 0.16404
 H685 H 0.87917 0.61945 0.21178
 H686 H 0.84839 0.57332 0.24122
 H687 H 0.75923 0.61053 0.20897
 H688 H 0.79006 0.65818 0.17940
 H689 H 0.84283 0.58703 0.12210
 H690 H 0.81093 0.54015 0.15246
 C691 C 0.83602 1.12226 0.66672
 C692 C 0.85525 1.10925 0.69898
 C693 C 0.83878 1.08388 0.71605
 C694 C 0.80486 1.07303 0.69962
 C695 C 0.78408 1.10611 0.69716
 C696 C 0.80036 1.13185 0.68053
 C697 C 0.83116 1.08919 0.64593
 C698 C 0.81442 1.06384 0.66280
 H699 H 0.87913 1.11862 0.70895
 H700 H 0.84922 1.07264 0.73913
 H701 H 0.75913 1.10945 0.70880
 H702 H 0.78925 1.15711 0.67837
 H703 H 0.84071 1.08593 0.62011
 H704 H 0.80966 1.03903 0.65139
 C705 C 0.67104 0.62039 0.33401
 C706 C 0.68462 0.63132 0.29866
 C707 C 0.70157 0.60639 0.28153
 C708 C 0.70461 0.57273 0.30124
 C709 C 0.72108 0.58274 0.33540
 C710 C 0.70364 0.60737 0.35274
 C711 C 0.65084 0.58713 0.32831
 C712 C 0.66801 0.56266 0.31069
 H713 H 0.68212 0.65690 0.28839
 H714 H 0.71310 0.61074 0.25670
 H715 H 0.74449 0.57162 0.34522
 H716 H 0.71358 0.61634 0.37680
 H717 H 0.62517 0.58310 0.33795
 H718 H 0.65701 0.53779 0.30530
 C719 C 0.66661 1.11902 0.82960
 C720 C 0.64831 1.10595 0.79680
 C721 C 0.66600 1.08148 0.77948
 C722 C 0.70007 1.07163 0.79629
 C723 C 0.71953 1.10539 0.79961
 C724 C 0.70205 1.13019 0.81641
 C725 C 0.67229 1.08574 0.84978
 C726 C 0.69026 1.06142 0.83276
 H727 H 0.62415 1.11461 0.78682
 H728 H 0.65641 1.07024 0.75604
 H729 H 0.74442 1.10994 0.78827
 H730 H 0.71210 1.15585 0.81901
 H731 H 0.66236 1.08158 0.87533
 H732 H 0.69567 1.03656 0.84377
 C733 C 0.17148 0.61818 0.83387
 C734 C 0.18432 0.62886 0.79816
 C735 C 0.20112 0.60389 0.78093
 C736 C 0.20479 0.57044 0.80089
 C737 C 0.22182 0.58090 0.83463
 C738 C 0.20452 0.60554 0.85208
 C739 C 0.15142 0.58473 0.82884
 C740 C 0.16844 0.56020 0.81114
 H741 H 0.18147 0.65435 0.78773
 H742 H 0.21222 0.60809 0.75586
 H743 H 0.24542 0.56995 0.84418
 H744 H 0.21477 0.61465 0.87596
 H745 H 0.12595 0.58061 0.83899
 H746 H 0.15751 0.53521 0.80618
 C747 C 0.17051 1.11984 0.33140
 C748 C 0.20318 1.10659 0.34982
 C749 C 0.22015 1.08171 0.33245
 C750 C 0.20322 1.07162 0.29854
 C751 C 0.16663 1.06198 0.30846
 C752 C 0.14989 1.08676 0.32610
 C753 C 0.18376 1.13040 0.29581
 C754 C 0.20029 1.10519 0.27864
 H755 H 0.21347 1.11549 0.37375
 H756 H 0.24351 1.07039 0.34216
 H757 H 0.15531 1.03720 0.30332
 H758 H 0.12428 1.08306 0.33603
 H759 H 0.18136 1.15595 0.28542
 H760 H 0.21161 1.10926 0.25365
 C761 C 0.66179 0.37635 0.67039
 C762 C 0.64295 0.38863 0.70323
 C763 C 0.65951 0.41376 0.72057
 C764 C 0.69310 0.42510 0.70384
 C765 C 0.71403 0.39222 0.70041
 C766 C 0.69768 0.36673 0.68350
 C767 C 0.66608 0.40989 0.65024
 C768 C 0.68295 0.43497 0.66736
 H769 H 0.61925 0.37899 0.71340
 H770 H 0.64938 0.42447 0.74404
 H771 H 0.73917 0.38879 0.71155
 H772 H 0.70892 0.34159 0.68065
 H773 H 0.65607 0.41364 0.62468
 H774 H 0.68737 0.46005 0.65641
 C775 C 0.66613 -0.12133 0.16877
 C776 C 0.67102 -0.08804 0.14835
 C777 C 0.68818 -0.06305 0.16532
 C778 C 0.69803 -0.07273 0.20192
 C779 C 0.66417 -0.08351 0.21858
 C780 C 0.64734 -0.10856 0.20140
 C781 C 0.70184 -0.13136 0.18211
 C782 C 0.71851 -0.10595 0.19888
 H783 H 0.66121 -0.08438 0.12270
 H784 H 0.69304 -0.03815 0.15415
 H785 H 0.65411 -0.07256 0.24197
 H786 H 0.62354 -0.11794 0.21159
 H787 H 0.71271 -0.15669 0.17955
 H788 H 0.74352 -0.10963 0.21025
 C789 C 0.16415 0.38253 0.17189
 C790 C 0.14511 0.39481 0.20459
 C791 C 0.16181 0.41962 0.22227
 C792 C 0.19572 0.43066 0.20598
 C793 C 0.21627 0.39753 0.20254
 C794 C 0.19978 0.37235 0.18527
 C795 C 0.16916 0.41609 0.15197
 C796 C 0.18611 0.44087 0.16945
 H797 H 0.12124 0.38527 0.21444
 H798 H 0.15160 0.43026 0.24574
 H799 H 0.24127 0.39373 0.21388
 H800 H 0.21077 0.34711 0.18233
 H801 H 0.15957 0.42010 0.12628
 H802 H 0.19101 0.46593 0.15868
 C803 C 0.16730 -0.12154 0.66823
 C804 C 0.14584 -0.08901 0.67383
 C805 C 0.16209 -0.06380 0.69139
 C806 C 0.19900 -0.07253 0.70097
 C807 C 0.19703 -0.10619 0.72085
 C808 C 0.18101 -0.13181 0.70374
 C809 C 0.19945 -0.10741 0.64963
 C810 C 0.21587 -0.08218 0.66688
 H811 H 0.12004 -0.08599 0.66418
 H812 H 0.15016 -0.03936 0.69677
 H813 H 0.20851 -0.10996 0.74580
 H814 H 0.17919 -0.15739 0.71416
 H815 H 0.20989 -0.11594 0.62563
 H816 H 0.23883 -0.07030 0.65689
 C817 C 0.33458 0.33067 0.37952
 C818 C 0.32964 0.35033 0.41326
 C819 C 0.31249 0.33278 0.43784
 C820 C 0.30270 0.29639 0.42732
 C821 C 0.28226 0.30011 0.39418
 C822 C 0.29892 0.31744 0.36917
 C823 C 0.35344 0.29780 0.39164
 C824 C 0.33658 0.28002 0.41626
 H825 H 0.33945 0.37590 0.41751
 H826 H 0.30763 0.34337 0.46300
 H827 H 0.25729 0.28874 0.39020
 H828 H 0.28809 0.32047 0.34387
 H829 H 0.37742 0.28800 0.38231
 H830 H 0.34674 0.25652 0.42687
 C831 C 0.33373 0.82974 -0.12047
 C832 C 0.29821 0.81611 -0.13077
 C833 C 0.28161 0.79896 -0.10558
 C834 C 0.30197 0.79584 -0.07231
 C835 C 0.33602 0.77961 -0.08306
 C836 C 0.35281 0.79720 -0.10788
 C837 C 0.32848 0.84983 -0.08704
 C838 C 0.31143 0.83246 -0.06227
 H839 H 0.28745 0.81874 -0.15614
 H840 H 0.25673 0.78735 -0.10948
 H841 H 0.34630 0.75631 -0.07212
 H842 H 0.37688 0.78749 -0.11709
 H843 H 0.33802 0.87555 -0.08311
 H844 H 0.30638 0.84336 -0.03728
 C845 C 0.83457 0.32815 -0.12118
 C846 C 0.79909 0.31424 -0.13111
 C847 C 0.78279 0.29723 -0.10568
 C848 C 0.80341 0.29440 -0.07255
 C849 C 0.83741 0.27817 -0.08345
 C850 C 0.85394 0.29572 -0.10861
 C851 C 0.82960 0.34837 -0.08782
 C852 C 0.81284 0.33110 -0.06283
 H853 H 0.78812 0.31656 -0.15642
 H854 H 0.75796 0.28547 -0.10935
 H855 H 0.84772 0.25490 -0.07249
 H856 H 0.87788 0.28605 -0.11821
 H857 H 0.83911 0.37413 -0.08410
 H858 H 0.80805 0.34213 -0.03784
 C859 C 0.82869 0.83500 0.38138
 C860 C 0.79582 0.85335 0.39431
 C861 C 0.77874 0.83605 0.41917
 C862 C 0.79575 0.80229 0.42953
 C863 C 0.79906 0.78223 0.39608
 C864 C 0.81570 0.79932 0.37090
 C865 C 0.84910 0.82993 0.41461
 C866 C 0.83224 0.81240 0.43938
 H867 H 0.78541 0.87712 0.38512
 H868 H 0.75521 0.84566 0.43024
 H869 H 0.78802 0.75713 0.39209
 H870 H 0.81842 0.78875 0.34545
 H871 H 0.87468 0.83992 0.41841
 H872 H 0.84341 0.80740 0.46425
 C873 C 0.66668 0.33275 0.62120
 C874 C 0.64598 0.32767 0.58813
 C875 C 0.66311 0.31127 0.56272
 C876 C 0.70005 0.30217 0.57189
 C877 C 0.71602 0.33625 0.58286
 C878 C 0.69873 0.35241 0.60827
 C879 C 0.68090 0.29724 0.63070
 C880 C 0.69780 0.28125 0.60491
 H881 H 0.62002 0.33683 0.58490
 H882 H 0.65177 0.30641 0.53790
 H883 H 0.73901 0.34699 0.57170
 H884 H 0.70846 0.37634 0.61777
 H885 H 0.67878 0.28602 0.65592
 H886 H 0.70973 0.25644 0.60817
 C887 C 0.67044 0.83470 1.11994
 C888 C 0.64970 0.82985 1.08685
 C889 C 0.66641 0.81270 1.06169
 C890 C 0.70310 0.80286 1.07100
 C891 C 0.71986 0.83673 1.08161
 C892 C 0.70291 0.85355 1.10688
 C893 C 0.68396 0.79903 1.12983
 C894 C 0.70045 0.78238 1.10423
 H895 H 0.62402 0.83968 1.08345
 H896 H 0.65500 0.80788 1.03689
 H897 H 0.74311 0.84679 1.07037
 H898 H 0.71311 0.87737 1.11620
 H899 H 0.68177 0.78818 1.15521
 H900 H 0.71193 0.75740 1.10782
 C901 C 0.16891 0.33921 1.12258
 C902 C 0.20147 0.35812 1.10969
 C903 C 0.21853 0.34133 1.08436
 C904 C 0.20171 0.30754 1.07365
 C905 C 0.19894 0.28699 1.10683
 C906 C 0.18242 0.30354 1.13240
 C907 C 0.14832 0.33458 1.08939
 C908 C 0.16507 0.31748 1.06427
 H909 H 0.21154 0.38194 1.11918
 H910 H 0.24184 0.35130 1.07315
 H911 H 0.21043 0.26202 1.11043
 H912 H 0.18025 0.29262 1.15774
 H913 H 0.12270 0.34454 1.08589
 H914 H 0.15376 0.31286 1.03939
 C915 C 0.16442 0.83060 0.62307
 C916 C 0.20042 0.81805 0.63302
 C917 C 0.21779 0.80254 0.60730
 C918 C 0.19768 0.79979 0.57385
 C919 C 0.16429 0.78176 0.58390
 C920 C 0.14672 0.79775 0.60931
 C921 C 0.16883 0.85201 0.59033
 C922 C 0.18672 0.83628 0.56506
 H923 H 0.21098 0.82014 0.65852
 H924 H 0.24309 0.79178 0.61092
 H925 H 0.15507 0.75842 0.57217
 H926 H 0.12312 0.78669 0.61820
 H927 H 0.15816 0.87740 0.58724
 H928 H 0.19134 0.84823 0.54048
 C929 C 0.33539 0.67136 0.62126
 C930 C 0.29951 0.68412 0.63145
 C931 C 0.28265 0.70102 0.60625
 C932 C 0.30313 0.70476 0.57310
 C933 C 0.33675 0.72168 0.58410
 C934 C 0.35379 0.70438 0.60889
 C935 C 0.33077 0.65130 0.58771
 C936 C 0.31345 0.66841 0.56292
 H937 H 0.28864 0.68105 0.65673
 H938 H 0.25748 0.71200 0.61005
 H939 H 0.34662 0.74524 0.57335
 H940 H 0.37755 0.71466 0.61822
 H941 H 0.34089 0.62581 0.58372
 H942 H 0.30875 0.65751 0.53787
 C943 C 0.33467 0.17279 1.12090
 C944 C 0.32968 0.15283 1.08738
 C945 C 0.31194 0.16990 1.06292
 C946 C 0.30170 0.20621 1.07326
 C947 C 0.28175 0.20244 1.10673
 C948 C 0.29896 0.18554 1.13163
 C949 C 0.35288 0.20588 1.10836
 C950 C 0.33544 0.22322 1.08375
 H951 H 0.33988 0.12740 1.08316
 H952 H 0.30699 0.15904 1.03790
 H953 H 0.25664 0.21340 1.11096
 H954 H 0.28849 0.18249 1.15708
 H955 H 0.37673 0.21612 1.11755
 H956 H 0.34494 0.24690 1.07293
 C957 C 0.83265 0.66785 1.12028
 C958 C 0.81852 0.70325 1.13036
 C959 C 0.80201 0.71988 1.10475
 C960 C 0.79996 0.69964 1.07131
 C961 C 0.83690 0.69046 1.06226
 C962 C 0.85366 0.67338 1.08745
 C963 C 0.80059 0.64867 1.10672
 C964 C 0.78365 0.66544 1.08148
 H965 H 0.82040 0.71392 1.15584
 H966 H 0.79018 0.74469 1.10842
 H967 H 0.84849 0.69572 1.03763
 H968 H 0.87956 0.66405 1.08423
 H969 H 0.79054 0.62468 1.11575
 H970 H 0.76064 0.65511 1.07000
 C971 C 0.83087 0.16681 0.61856
 C972 C 0.85131 0.17223 0.58539
 C973 C 0.83435 0.18969 0.56067
 C974 C 0.79769 0.19926 0.57042
 C975 C 0.78111 0.16518 0.58056
 C976 C 0.79835 0.14800 0.60545
 C977 C 0.81723 0.20224 0.62914
 C978 C 0.80049 0.21920 0.60396
 H979 H 0.87699 0.16252 0.58159
 H980 H 0.84554 0.19487 0.53583
 H981 H 0.75781 0.15527 0.56929
 H982 H 0.78842 0.12395 0.61448
 H983 H 0.81948 0.21265 0.65469
 H984 H 0.78885 0.24403 0.60808
 C985 C 0.66561 0.66817 0.37892
 C986 C 0.67071 0.64713 0.41179
 C987 C 0.68749 0.66385 0.43721
 C988 C 0.69677 0.70080 0.42834
 C989 C 0.71740 0.69877 0.39513
 C990 C 0.70113 0.68229 0.36931
 C991 C 0.64623 0.70021 0.39230
 C992 C 0.66270 0.71713 0.41780
 H993 H 0.66131 0.62124 0.41487
 H994 H 0.69243 0.65224 0.46189
 H995 H 0.74229 0.71049 0.39179
 H996 H 0.71217 0.68039 0.34400
 H997 H 0.62230 0.71016 0.38302
 H998 H 0.65224 0.74011 0.42923
 C999 C 0.67006 0.16259 -0.12123
 C1000 C 0.68282 0.19858 -0.13097
 C1001 C 0.69925 0.21534 -0.10542
 C1002 C 0.70256 0.19470 -0.07234
 C1003 C 0.66611 0.18418 -0.06278
 C1004 C 0.64950 0.16687 -0.08792
 C1005 C 0.70298 0.14426 -0.10851
 C1006 C 0.71981 0.16122 -0.08331
 H1007 H 0.68006 0.20962 -0.15621
 H1008 H 0.71005 0.24061 -0.10889
 H1009 H 0.65482 0.18867 -0.03786
 H1010 H 0.62402 0.15656 -0.08436
 H1011 H 0.71360 0.12070 -0.11799
 H1012 H 0.74334 0.15149 -0.07238
 C1013 C 0.16649 0.66607 -0.12129
 C1014 C 0.17200 0.64500 -0.08853
 C1015 C 0.18911 0.66166 -0.06335
 C1016 C 0.19833 0.69860 -0.07232
 C1017 C 0.21850 0.69663 -0.10581
 C1018 C 0.20184 0.68021 -0.13141
 C1019 C 0.14730 0.69814 -0.10762
 C1020 C 0.16416 0.71503 -0.08232
 H1021 H 0.16260 0.61912 -0.08535
 H1022 H 0.19432 0.65002 -0.03874
 H1023 H 0.24327 0.70853 -0.10954
 H1024 H 0.21243 0.67848 -0.15694
 H1025 H 0.12326 0.70810 -0.11660
 H1026 H 0.15394 0.73801 -0.07066
 C1027 C 0.16619 0.16772 0.37636
 C1028 C 0.17122 0.14650 0.40910
 C1029 C 0.18855 0.16281 0.43437
 C1030 C 0.19844 0.19961 0.42555
 C1031 C 0.21868 0.19738 0.39211
 C1032 C 0.20182 0.18130 0.36641
 C1033 C 0.14751 0.20006 0.39003
 C1034 C 0.16456 0.21662 0.41544
 H1035 H 0.16135 0.12079 0.41221
 H1036 H 0.19348 0.15103 0.45898
 H1037 H 0.24365 0.20886 0.38850
 H1038 H 0.21248 0.17944 0.34092
 H1039 H 0.12361 0.21038 0.38105
 H1040 H 0.15465 0.23972 0.42713
 C1041 C 0.33138 0.37601 0.66346
 C1042 C 0.29902 0.38929 0.64450
 C1043 C 0.28235 0.41495 0.66111
 C1044 C 0.29931 0.42568 0.69482
 C1045 C 0.30161 0.39262 0.71562
 C1046 C 0.31774 0.36667 0.69923
 C1047 C 0.35250 0.40890 0.66793
 C1048 C 0.33610 0.43444 0.68479
 H1049 H 0.28883 0.37991 0.62069
 H1050 H 0.25929 0.42648 0.65097
 H1051 H 0.29006 0.38940 0.74063
 H1052 H 0.31955 0.34136 0.71031
 H1053 H 0.37821 0.41191 0.65800
 H1054 H 0.34781 0.45916 0.68927
 C1055 C 0.33212 0.87764 0.16268
 C1056 C 0.35281 0.91078 0.16726
 C1057 C 0.33597 0.93611 0.18405
 C1058 C 0.29926 0.92684 0.19395
 C1059 C 0.28255 0.91590 0.16024
 C1060 C 0.29960 0.89052 0.14368
 C1061 C 0.31864 0.86810 0.19845
 C1062 C 0.30202 0.89381 0.21478
 H1063 H 0.37853 0.91412 0.15748
 H1064 H 0.34733 0.96098 0.18862
 H1065 H 0.25932 0.92706 0.15006
 H1066 H 0.28947 0.88103 0.11991
 H1067 H 0.32103 0.84289 0.20964
 H1068 H 0.29065 0.89047 0.23983
 C1069 C 0.83141 0.37899 0.16338
 C1070 C 0.85253 0.41184 0.16811
 C1071 C 0.83612 0.43722 0.18519
 C1072 C 0.79934 0.42836 0.19512
 C1073 C 0.78237 0.41789 0.16135
 C1074 C 0.79902 0.39237 0.14455
 C1075 C 0.81787 0.36933 0.19908
 C1076 C 0.80168 0.39512 0.21567
 H1077 H 0.87824 0.41493 0.15823
 H1078 H 0.84781 0.46191 0.18991
 H1079 H 0.75919 0.42936 0.15139
 H1080 H 0.78866 0.38303 0.12081
 H1081 H 0.81989 0.34398 0.21003
 H1082 H 0.79031 0.39173 0.24072
 C1083 C 0.83713 0.87717 0.66961
 C1084 C 0.85619 0.89018 0.70205
 C1085 C 0.83982 0.91596 0.71876
 C1086 C 0.80624 0.92702 0.70182
 C1087 C 0.81632 0.93578 0.66505
 C1088 C 0.83293 0.91014 0.64857
 C1089 C 0.80130 0.86808 0.68320
 C1090 C 0.78515 0.89413 0.69942
 H1091 H 0.87970 0.88035 0.71247
 H1092 H 0.84994 0.92719 0.74199
 H1093 H 0.81202 0.96057 0.65340
 H1094 H 0.84283 0.91311 0.62285
 H1095 H 0.78996 0.84290 0.68122
 H1096 H 0.76007 0.89112 0.71082
 C1097 C 0.66281 0.61946 0.67070
 C1098 C 0.64363 0.60684 0.70318
 C1099 C 0.65998 0.58149 0.72039
 C1100 C 0.69375 0.57031 0.70392
 C1101 C 0.68404 0.56089 0.66720
 C1102 C 0.66743 0.58621 0.65017
 C1103 C 0.69856 0.62894 0.68427
 C1104 C 0.71473 0.60324 0.70108
 H1105 H 0.61995 0.61657 0.71330
 H1106 H 0.64964 0.57061 0.74369
 H1107 H 0.68865 0.53597 0.65597
 H1108 H 0.65783 0.58281 0.62439
 H1109 H 0.70987 0.65409 0.68176
 H1110 H 0.73977 0.60651 0.71247
 C1111 C 0.66829 0.12084 0.16652
 C1112 C 0.64727 0.08798 0.17185
 C1113 C 0.66383 0.06290 0.18927
 C1114 C 0.70061 0.07206 0.19890
 C1115 C 0.71737 0.08211 0.16487
 C1116 C 0.70061 0.10724 0.14778
 C1117 C 0.68193 0.13106 0.20206
 C1118 C 0.69825 0.10556 0.21899
 H1119 H 0.62153 0.08466 0.16214
 H1120 H 0.65224 0.03826 0.19446
 H1121 H 0.74048 0.07055 0.15484
 H1122 H 0.71088 0.11605 0.12381
 H1123 H 0.67989 0.15658 0.21262
 H1124 H 0.70976 0.10934 0.24393
 C1125 C 0.16405 0.62301 0.17264
 C1126 C 0.16858 0.58932 0.15280
 C1127 C 0.18560 0.56451 0.17015
 C1128 C 0.19567 0.57476 0.20655
 C1129 C 0.21638 0.60776 0.20284
 C1130 C 0.19987 0.63298 0.18568
 C1131 C 0.14524 0.61091 0.20555
 C1132 C 0.16197 0.58605 0.22315
 H1133 H 0.15860 0.58526 0.12726
 H1134 H 0.19018 0.53936 0.15942
 H1135 H 0.24149 0.61144 0.21396
 H1136 H 0.21095 0.65816 0.18260
 H1137 H 0.12136 0.62039 0.21544
 H1138 H 0.15185 0.57541 0.24666
 C1139 C 0.16420 0.12056 0.66944
 C1140 C 0.19991 0.13062 0.68274
 C1141 C 0.21643 0.10539 0.69989
 C1142 C 0.19583 0.07230 0.70332
 C1143 C 0.16198 0.08343 0.71977
 C1144 C 0.14525 0.10832 0.70218
 C1145 C 0.16898 0.08696 0.64950
 C1146 C 0.18602 0.06216 0.66683
 H1147 H 0.21088 0.15588 0.67992
 H1148 H 0.24142 0.10916 0.71129
 H1149 H 0.15181 0.07275 0.74324
 H1150 H 0.12138 0.11788 0.71203
 H1151 H 0.15916 0.08297 0.62390
 H1152 H 0.19077 0.03708 0.65602
 C1153 C 0.33090 0.62352 0.33752
 C1154 C 0.35095 0.58997 0.33284
 C1155 C 0.33355 0.56492 0.31621
 C1156 C 0.29692 0.57482 0.30663
 C1157 C 0.28073 0.58616 0.34050
 C1158 C 0.29835 0.61126 0.35684
 C1159 C 0.31725 0.63320 0.30184
 C1160 C 0.30007 0.60775 0.28571
 H1161 H 0.37667 0.58618 0.34243
 H1162 H 0.34442 0.53985 0.31158
 H1163 H 0.25740 0.57546 0.35096
 H1164 H 0.28860 0.62093 0.38071
 H1165 H 0.31996 0.65835 0.29059
 H1166 H 0.28855 0.61122 0.26075
 C1167 C 0.33163 0.12100 0.83416
 C1168 C 0.29624 0.13150 0.82030
 C1169 C 0.27921 0.10613 0.80384
 C1170 C 0.29904 0.07247 0.80158
 C1171 C 0.33328 0.08227 0.78509
 C1172 C 0.35047 0.10725 0.80199
 C1173 C 0.32585 0.08819 0.85514
 C1174 C 0.30834 0.06324 0.83845
 H1175 H 0.28585 0.15708 0.82231
 H1176 H 0.25437 0.11010 0.79219
 H1177 H 0.34343 0.07060 0.76208
 H1178 H 0.37465 0.11582 0.79199
 H1179 H 0.33534 0.08480 0.88095
 H1180 H 0.30286 0.03865 0.85001
 C1181 C 0.82859 0.61760 0.83501
 C1182 C 0.81516 0.62758 0.79935
 C1183 C 0.79786 0.60233 0.78303
 C1184 C 0.79444 0.56933 0.80378
 C1185 C 0.83098 0.55914 0.81340
 C1186 C 0.84848 0.58399 0.83019
 C1187 C 0.79591 0.60545 0.85417
 C1188 C 0.77820 0.58057 0.83765
 H1189 H 0.81811 0.65276 0.78822
 H1190 H 0.78650 0.60598 0.75802
 H1191 H 0.84172 0.53403 0.80863
 H1192 H 0.87418 0.58002 0.83979
 H1193 H 0.78605 0.61512 0.87799
 H1194 H 0.75474 0.57001 0.84796
 C1195 C 0.82995 0.12177 0.33424
 C1196 C 0.85055 0.08854 0.32969
 C1197 C 0.83383 0.06338 0.31258
 C1198 C 0.79726 0.07282 0.30245
 C1199 C 0.78032 0.08373 0.33614
 C1200 C 0.79727 0.10899 0.35293
 C1201 C 0.81674 0.13153 0.29841
 C1202 C 0.80023 0.10593 0.28179
 H1203 H 0.87616 0.08506 0.33969
 H1204 H 0.84515 0.03850 0.30795
 H1205 H 0.75690 0.07274 0.34608
 H1206 H 0.78688 0.11855 0.37657
 H1207 H 0.81917 0.15683 0.28744
 H1208 H 0.78896 0.10942 0.25671
 C1209 C 0.66613 0.38173 0.32878
 C1210 C 0.67163 0.41499 0.34905
 C1211 C 0.68926 0.43954 0.33199
 C1212 C 0.69894 0.42953 0.29543
 C1213 C 0.71875 0.39592 0.29858
 C1214 C 0.70161 0.37093 0.31543
 C1215 C 0.64757 0.39471 0.29607
 C1216 C 0.66492 0.41941 0.27876
 H1217 H 0.66185 0.41897 0.37468
 H1218 H 0.69452 0.46441 0.34305
 H1219 H 0.74368 0.39167 0.28724
 H1220 H 0.71197 0.34540 0.31803
 H1221 H 0.62362 0.38565 0.28596
 H1222 H 0.65521 0.43049 0.25529
 C1223 C 0.67162 0.88035 0.83309
 C1224 C 0.70437 0.89306 0.85171
 C1225 C 0.72170 0.91782 0.83461
 C1226 C 0.70506 0.92837 0.80070
 C1227 C 0.70176 0.89499 0.78054
 C1228 C 0.68483 0.86987 0.79746
 C1229 C 0.65143 0.91373 0.82793
 C1230 C 0.66855 0.93842 0.81051
 H1231 H 0.71454 0.88384 0.87557
 H1232 H 0.74520 0.92869 0.84449
 H1233 H 0.71292 0.89101 0.75549
 H1234 H 0.68200 0.84448 0.78680
 H1235 H 0.62581 0.91767 0.83777
 H1236 H 0.65756 0.96336 0.80544
 C1237 C 0.17036 0.37984 0.83336
 C1238 C 0.20319 0.39252 0.85194
 C1239 C 0.22077 0.41702 0.83459
 C1240 C 0.20419 0.42734 0.80059
 C1241 C 0.20071 0.39381 0.78074
 C1242 C 0.18366 0.36895 0.79788
 C1243 C 0.15044 0.41331 0.82793
 C1244 C 0.16774 0.43771 0.81034
 H1245 H 0.21311 0.38356 0.87602
 H1246 H 0.24424 0.42799 0.84441
 H1247 H 0.21215 0.38946 0.75585
 H1248 H 0.18096 0.34341 0.78754
 H1249 H 0.12486 0.41754 0.83775
 H1250 H 0.15693 0.46270 0.80514
 C1251 C 0.16667 0.88079 0.33002
 C1252 C 0.14776 0.89342 0.29739
 C1253 C 0.16493 0.91781 0.27957
 C1254 C 0.19916 0.92817 0.29567
 C1255 C 0.18988 0.93867 0.33221
 C1256 C 0.17241 0.91433 0.34980
 C1257 C 0.20204 0.86985 0.31647
 C1258 C 0.21901 0.89463 0.29907
 H1259 H 0.12351 0.88459 0.28783
 H1260 H 0.15477 0.92870 0.25620
 H1261 H 0.19531 0.96367 0.34289
 H1262 H 0.16290 0.91864 0.37548
 H1263 H 0.21249 0.84439 0.31940
 H1264 H 0.24386 0.89027 0.28759
 C1265 C 0.37921 0.33112 0.66887
 C1266 C 0.39227 0.35025 0.70119
 C1267 C 0.41687 0.33321 0.71879
 C1268 C 0.42698 0.29884 0.70279
 C1269 C 0.39337 0.27901 0.70000
 C1270 C 0.36839 0.29588 0.68282
 C1271 C 0.41247 0.32518 0.64867
 C1272 C 0.43702 0.30781 0.66605
 H1273 H 0.38348 0.37451 0.71080
 H1274 H 0.42802 0.34349 0.74199
 H1275 H 0.38913 0.25425 0.71170
 H1276 H 0.34286 0.28546 0.68030
 H1277 H 0.41645 0.33447 0.62286
 H1278 H 0.46187 0.30225 0.65508
 C1279 C 0.38054 0.83326 0.16766
 C1280 C 0.37021 0.79786 0.18157
 C1281 C 0.39558 0.78108 0.19820
 C1282 C 0.42908 0.80115 0.20062
 C1283 C 0.43849 0.81053 0.16383
 C1284 C 0.41356 0.82779 0.14697
 C1285 C 0.39384 0.85229 0.19995
 C1286 C 0.41892 0.83530 0.21709
 H1287 H 0.34469 0.78732 0.17955
 H1288 H 0.39166 0.75629 0.20998
 H1289 H 0.46324 0.80535 0.15246
 H1290 H 0.41709 0.83734 0.12119
 H1291 H 0.38478 0.87634 0.20985
 H1292 H 0.43033 0.84540 0.24024
 C1293 C 0.87947 0.33432 0.16815
 C1294 C 0.86907 0.29884 0.18179
 C1295 C 0.89441 0.28190 0.19833
 C1296 C 0.92791 0.30193 0.20099
 C1297 C 0.93740 0.31159 0.16428
 C1298 C 0.91252 0.32900 0.14749
 C1299 C 0.89275 0.35308 0.20064
 C1300 C 0.91777 0.33594 0.21769
 H1301 H 0.84354 0.28836 0.17968
 H1302 H 0.89044 0.25703 0.20994
 H1303 H 0.96218 0.30648 0.15292
 H1304 H 0.91612 0.33874 0.12179
 H1305 H 0.88372 0.37705 0.21077
 H1306 H 0.92913 0.34584 0.24095
 C1307 C 0.88012 0.82751 0.66560
 C1308 C 0.86973 0.81449 0.70132
 C1309 C 0.89478 0.79736 0.71812
 C1310 C 0.92803 0.79372 0.69778
 C1311 C 0.91714 0.77711 0.66395
 C1312 C 0.89244 0.79464 0.64695
 C1313 C 0.91371 0.84742 0.67053
 C1314 C 0.93834 0.83012 0.68786
 H1315 H 0.84443 0.81759 0.71213
 H1316 H 0.89084 0.78627 0.74322
 H1317 H 0.92778 0.75352 0.65402
 H1318 H 0.88304 0.78460 0.62310
 H1319 H 0.91783 0.87297 0.66061
 H1320 H 0.96340 0.84090 0.69276
 C1321 C 0.62139 0.33374 0.33377
 C1322 C 0.58841 0.35454 0.32835
 C1323 C 0.56327 0.33761 0.31138
 C1324 C 0.57249 0.30071 0.30223
 C1325 C 0.60585 0.30294 0.28187
 C1326 C 0.63140 0.31965 0.29834
 C1327 C 0.60804 0.30164 0.35307
 C1328 C 0.58285 0.28451 0.33641
 H1329 H 0.58507 0.38042 0.33770
 H1330 H 0.53855 0.34903 0.30620
 H1331 H 0.60948 0.29121 0.25702
 H1332 H 0.65678 0.32174 0.28750
 H1333 H 0.61709 0.29177 0.37712
 H1334 H 0.57147 0.26149 0.34683
 C1335 C 0.62244 0.83678 0.82919
 C1336 C 0.63195 0.80092 0.81594
 C1337 C 0.60617 0.78443 0.79963
 C1338 C 0.57310 0.80520 0.79685
 C1339 C 0.56399 0.81544 0.83350
 C1340 C 0.58936 0.83239 0.85005
 C1341 C 0.60946 0.85549 0.79655
 C1342 C 0.58397 0.83878 0.77977
 H1343 H 0.65720 0.78981 0.81822
 H1344 H 0.60948 0.75929 0.78843
 H1345 H 0.53917 0.81097 0.84502
 H1346 H 0.58612 0.84241 0.87569
 H1347 H 0.61902 0.87910 0.78611
 H1348 H 0.57277 0.84870 0.75645
 C1349 C 0.12107 0.33638 0.82923
 C1350 C 0.08756 0.33198 0.84942
 C1351 C 0.06252 0.31498 0.83233
 C1352 C 0.07243 0.30475 0.79587
 C1353 C 0.08370 0.33834 0.77907
 C1354 C 0.10873 0.35505 0.79636
 C1355 C 0.13082 0.30045 0.81632
 C1356 C 0.10540 0.28395 0.79941
 H1357 H 0.08378 0.34202 0.87498
 H1358 H 0.03747 0.31045 0.84331
 H1359 H 0.07295 0.34842 0.75560
 H1360 H 0.11822 0.37881 0.78621
 H1361 H 0.15595 0.28924 0.81938
 H1362 H 0.10888 0.25873 0.78845
 C1363 C 0.12181 0.83296 0.33570
 C1364 C 0.08888 0.85393 0.33088
 C1365 C 0.06349 0.83730 0.31408
 C1366 C 0.07244 0.80045 0.30444
 C1367 C 0.10558 0.80267 0.28375
 C1368 C 0.13140 0.81902 0.30011
 C1369 C 0.10854 0.80070 0.35489
 C1370 C 0.08303 0.78381 0.33832
 H1371 H 0.08575 0.87973 0.34052
 H1372 H 0.03875 0.84888 0.30939
 H1373 H 0.10897 0.79089 0.25887
 H1374 H 0.15676 0.82079 0.28914
 H1375 H 0.11791 0.79060 0.37873
 H1376 H 0.07158 0.76075 0.34856
 C1377 C 0.61951 0.66887 0.66623
 C1378 C 0.62993 0.68223 0.70181
 C1379 C 0.60489 0.69949 0.71852
 C1380 C 0.57163 0.70294 0.69821
 C1381 C 0.58244 0.71927 0.66424
 C1382 C 0.60710 0.70161 0.64734
 C1383 C 0.58591 0.64901 0.67136
 C1384 C 0.56131 0.66645 0.68860
 H1385 H 0.65525 0.67929 0.71260
 H1386 H 0.60888 0.71082 0.74349
 H1387 H 0.57175 0.74275 0.65413
 H1388 H 0.61638 0.71150 0.62338
 H1389 H 0.58177 0.62339 0.66163
 H1390 H 0.53624 0.65573 0.69362
 C1391 C 0.62033 0.16573 0.17056
 C1392 C 0.58724 0.17097 0.14994
 C1393 C 0.56242 0.18857 0.16669
 C1394 C 0.57208 0.19858 0.20327
 C1395 C 0.58222 0.16476 0.22027
 C1396 C 0.60711 0.14740 0.20331
 C1397 C 0.63084 0.20137 0.18364
 C1398 C 0.60562 0.21853 0.20018
 H1399 H 0.58357 0.16104 0.12432
 H1400 H 0.53764 0.19367 0.15537
 H1401 H 0.57095 0.15512 0.24369
 H1402 H 0.61608 0.12354 0.21370
 H1403 H 0.65634 0.21186 0.18106
 H1404 H 0.60962 0.24361 0.21127
 C1405 C 0.12038 0.67195 0.16743
 C1406 C 0.10763 0.70451 0.14842
 C1407 C 0.08262 0.72192 0.16531
 C1408 C 0.07203 0.70545 0.19930
 C1409 C 0.06223 0.66882 0.18968
 C1410 C 0.08708 0.65169 0.17258
 C1411 C 0.13064 0.68565 0.20292
 C1412 C 0.10534 0.70251 0.21961
 H1413 H 0.11700 0.71437 0.12446
 H1414 H 0.07156 0.74525 0.15525
 H1415 H 0.03730 0.65774 0.19462
 H1416 H 0.08329 0.62598 0.16292
 H1417 H 0.15608 0.68335 0.21358
 H1418 H 0.10924 0.71420 0.24444
 C1419 C 0.12053 0.16959 0.66406
 C1420 C 0.13071 0.18352 0.69949
 C1421 C 0.10548 0.20086 0.71583
 C1422 C 0.07229 0.20388 0.69531
 C1423 C 0.08319 0.21979 0.66118
 C1424 C 0.10805 0.20201 0.64465
 C1425 C 0.08705 0.14961 0.66936
 C1426 C 0.06223 0.16719 0.68615
 H1427 H 0.15601 0.18091 0.71041
 H1428 H 0.10929 0.21261 0.74064
 H1429 H 0.07240 0.24308 0.65072
 H1430 H 0.11747 0.21163 0.62063
 H1431 H 0.08313 0.12380 0.66005
 H1432 H 0.03721 0.15638 0.69120
 C1433 C 0.38002 0.66706 0.33195
 C1434 C 0.39253 0.64755 0.29965
 C1435 C 0.41767 0.66387 0.28207
 C1436 C 0.42875 0.69792 0.29809
 C1437 C 0.39573 0.71873 0.30085
 C1438 C 0.37023 0.70259 0.31798
 C1439 C 0.41338 0.67207 0.35220
 C1440 C 0.43847 0.68865 0.33483
 H1441 H 0.38293 0.62362 0.28999
 H1442 H 0.42854 0.65329 0.25887
 H1443 H 0.39221 0.74356 0.28902
 H1444 H 0.34499 0.71371 0.32038
 H1445 H 0.41702 0.66273 0.37804
 H1446 H 0.46345 0.69349 0.34584
 C1447 C 0.37661 0.16898 0.83809
 C1448 C 0.36692 0.18191 0.80215
 C1449 C 0.39267 0.19786 0.78526
 C1450 C 0.42590 0.20067 0.80573
 C1451 C 0.41541 0.21817 0.83922
 C1452 C 0.38997 0.20174 0.85633
 C1453 C 0.40954 0.14789 0.83368
 C1454 C 0.43488 0.16408 0.81629
 H1455 H 0.34157 0.17968 0.79127
 H1456 H 0.38922 0.20881 0.76004
 H1457 H 0.42688 0.24150 0.84883
 H1458 H 0.38077 0.21247 0.87996
 H1459 H 0.41271 0.12236 0.84398
 H1460 H 0.45960 0.15238 0.81176
 C1461 C 0.87799 0.66077 0.82993
 C1462 C 0.89069 0.64156 0.79744
 C1463 C 0.91612 0.65801 0.78022
 C1464 C 0.92715 0.69178 0.79679
 C1465 C 0.89415 0.71265 0.79953
 C1466 C 0.86846 0.69645 0.81624
 C1467 C 0.91122 0.66533 0.85046
 C1468 C 0.93649 0.68201 0.83351
 H1469 H 0.88100 0.61778 0.78749
 H1470 H 0.92719 0.64778 0.75696
 H1471 H 0.89077 0.73760 0.78796
 H1472 H 0.84323 0.70762 0.81847
 H1473 H 0.91464 0.65561 0.87619
 H1474 H 0.96142 0.68651 0.84476
 C1475 C 0.87868 0.16579 0.32976
 C1476 C 0.91178 0.17067 0.35047
 C1477 C 0.93699 0.18762 0.33364
 C1478 C 0.92768 0.19733 0.29690
 C1479 C 0.91699 0.16344 0.28030
 C1480 C 0.89171 0.14676 0.29734
 C1481 C 0.86888 0.20143 0.31610
 C1482 C 0.89451 0.21793 0.29952
 H1483 H 0.91515 0.16097 0.37621
 H1484 H 0.96181 0.19241 0.34501
 H1485 H 0.92826 0.15320 0.25714
 H1486 H 0.88244 0.12287 0.28729
 H1487 H 0.84354 0.21236 0.31828
 H1488 H 0.89100 0.24288 0.28795
 C1489 C 0.33542 0.32674 0.61993
 C1490 C 0.35382 0.29371 0.60747
 C1491 C 0.33688 0.27661 0.58237
 C1492 C 0.30340 0.29374 0.57135
 C1493 C 0.28277 0.29730 0.60444
 C1494 C 0.29949 0.31398 0.62985
 C1495 C 0.33103 0.34703 0.58653
 C1496 C 0.31385 0.33015 0.56153
 H1497 H 0.37733 0.28319 0.61718
 H1498 H 0.34653 0.25296 0.57161
 H1499 H 0.25754 0.28641 0.60805
 H1500 H 0.28849 0.31689 0.65509
 H1501 H 0.34121 0.37254 0.58279
 H1502 H 0.30935 0.34124 0.53653
 C1503 C 0.33629 0.82831 0.11931
 C1504 C 0.35479 0.79536 0.10678
 C1505 C 0.33763 0.77796 0.08205
 C1506 C 0.30388 0.79479 0.07138
 C1507 C 0.28366 0.79839 0.10470
 C1508 C 0.30059 0.81532 0.12976
 C1509 C 0.33138 0.84834 0.08581
 C1510 C 0.31396 0.83119 0.06117
 H1511 H 0.37865 0.78521 0.11604
 H1512 H 0.34740 0.75441 0.07119
 H1513 H 0.25858 0.78731 0.10871
 H1514 H 0.28990 0.81822 0.15514
 H1515 H 0.34139 0.87386 0.08175
 H1516 H 0.30909 0.84206 0.03614
 C1517 C 0.83507 0.32983 0.11975
 C1518 C 0.83013 0.34994 0.08628
 C1519 C 0.81274 0.33281 0.06156
 C1520 C 0.80268 0.29638 0.07171
 C1521 C 0.83647 0.27962 0.08246
 C1522 C 0.85357 0.29696 0.10718
 C1523 C 0.79930 0.31686 0.13012
 C1524 C 0.78239 0.29994 0.10498
 H1525 H 0.84010 0.37549 0.08230
 H1526 H 0.80783 0.34373 0.03656
 H1527 H 0.84643 0.25616 0.07155
 H1528 H 0.87750 0.28686 0.11629
 H1529 H 0.78856 0.31980 0.15547
 H1530 H 0.75729 0.28882 0.10891
 C1531 C 0.83142 0.83248 0.62157
 C1532 C 0.79911 0.85175 0.60867
 C1533 C 0.78150 0.83491 0.58390
 C1534 C 0.79749 0.80063 0.57346
 C1535 C 0.83423 0.80973 0.56353
 C1536 C 0.85161 0.82684 0.58825
 C1537 C 0.81741 0.79715 0.63205
 C1538 C 0.80028 0.78049 0.60689
 H1539 H 0.78963 0.87601 0.61758
 H1540 H 0.75839 0.84535 0.57272
 H1541 H 0.84521 0.80443 0.53862
 H1542 H 0.87743 0.83616 0.58437
 H1543 H 0.81976 0.78655 0.65751
 H1544 H 0.78844 0.75575 0.61092
 C1545 C 0.33632 0.67282 0.38078
 C1546 C 0.33148 0.65279 0.41427
 C1547 C 0.31449 0.67007 0.43910
 C1548 C 0.30474 0.70661 0.42909
 C1549 C 0.33860 0.72309 0.41818
 C1550 C 0.35535 0.70552 0.39319
 C1551 C 0.30073 0.68631 0.37067
 C1552 C 0.28422 0.70336 0.39593
 H1553 H 0.34125 0.62715 0.41819
 H1554 H 0.30976 0.65918 0.46415
 H1555 H 0.34867 0.74651 0.42904
 H1556 H 0.37926 0.71533 0.38366
 H1557 H 0.28984 0.68370 0.34536
 H1558 H 0.25929 0.71485 0.39212
 C1559 C 0.32774 0.16598 0.88203
 C1560 C 0.34831 0.17125 0.91514
 C1561 C 0.33172 0.18925 0.93974
 C1562 C 0.29527 0.19950 0.92993
 C1563 C 0.29854 0.21914 0.89623
 C1564 C 0.31493 0.20163 0.87119
 C1565 C 0.29482 0.14801 0.89528
 C1566 C 0.27797 0.16573 0.92003
 H1567 H 0.37379 0.16104 0.91898
 H1568 H 0.34301 0.19442 0.96452
 H1569 H 0.28763 0.24425 0.89198
 H1570 H 0.31755 0.21186 0.84560
 H1571 H 0.28425 0.12419 0.88639
 H1572 H 0.25442 0.15642 0.93130
 C1573 C 0.83396 0.66664 0.87853
 C1574 C 0.79853 0.68054 0.86824
 C1575 C 0.78204 0.69779 0.89342
 C1576 C 0.80242 0.70078 0.92667
 C1577 C 0.81164 0.66413 0.93675
 C1578 C 0.82864 0.64665 0.91201
 C1579 C 0.85327 0.69905 0.89107
 C1580 C 0.83659 0.71678 0.91589
 H1581 H 0.78774 0.67803 0.84287
 H1582 H 0.75726 0.70959 0.88951
 H1583 H 0.80655 0.65330 0.96176
 H1584 H 0.83809 0.62090 0.91599
 H1585 H 0.87740 0.70858 0.88183
 H1586 H 0.84703 0.74002 0.92679
 C1587 C 0.83422 0.17074 0.37809
 C1588 C 0.79870 0.18428 0.36771
 C1589 C 0.78189 0.20117 0.39294
 C1590 C 0.80204 0.20413 0.42636
 C1591 C 0.81160 0.16749 0.43616
 C1592 C 0.82891 0.15040 0.41136
 C1593 C 0.85308 0.20327 0.39101
 C1594 C 0.83608 0.22060 0.41591
 H1595 H 0.78805 0.18172 0.34228
 H1596 H 0.75695 0.21260 0.38900
 H1597 H 0.80647 0.15638 0.46103
 H1598 H 0.83857 0.12470 0.41516
 H1599 H 0.87709 0.21321 0.38189
 H1600 H 0.84614 0.24392 0.42699
 C1601 C 0.67012 0.33808 0.37781
 C1602 C 0.70303 0.35647 0.39057
 C1603 C 0.71995 0.33945 0.41575
 C1604 C 0.70273 0.30593 0.42658
 C1605 C 0.66627 0.31640 0.43617
 C1606 C 0.64961 0.33370 0.41111
 C1607 C 0.68300 0.30217 0.36795
 C1608 C 0.69944 0.28539 0.39343
 H1609 H 0.71348 0.38013 0.38114
 H1610 H 0.74344 0.34914 0.42681
 H1611 H 0.65501 0.31189 0.46111
 H1612 H 0.62412 0.34398 0.41472
 H1613 H 0.68041 0.29123 0.34265
 H1614 H 0.71044 0.26021 0.38983
 C1615 C 0.66696 0.83204 0.87752
 C1616 C 0.70241 0.81819 0.86722
 C1617 C 0.71921 0.80156 0.89262
 C1618 C 0.69909 0.79908 0.92609
 C1619 C 0.68967 0.83585 0.93552
 C1620 C 0.67237 0.85272 0.91057
 C1621 C 0.64796 0.79976 0.89081
 C1622 C 0.66494 0.78264 0.91586
 H1623 H 0.71299 0.82028 0.84172
 H1624 H 0.74405 0.78986 0.88874
 H1625 H 0.69487 0.84721 0.96027
 H1626 H 0.66278 0.87848 0.91412
 H1627 H 0.62386 0.78989 0.88189
 H1628 H 0.65474 0.75953 0.92726
 C1629 C 0.16466 0.33229 0.87843
 C1630 C 0.14536 0.30031 0.89212
 C1631 C 0.16191 0.28370 0.91785
 C1632 C 0.19593 0.30031 0.92814
 C1633 C 0.21650 0.30199 0.89486
 C1634 C 0.20014 0.31809 0.86890
 C1635 C 0.16970 0.35368 0.91106
 C1636 C 0.18653 0.33731 0.93661
 H1637 H 0.12155 0.29014 0.88274
 H1638 H 0.15168 0.26074 0.92951
 H1639 H 0.24136 0.29019 0.89157
 H1640 H 0.21108 0.31961 0.84350
 H1641 H 0.16020 0.37956 0.91389
 H1642 H 0.19141 0.34920 0.96117
 C1643 C 0.17068 0.83748 0.37945
 C1644 C 0.20343 0.85613 0.39207
 C1645 C 0.22039 0.83942 0.41737
 C1646 C 0.20340 0.80583 0.42845
 C1647 C 0.16686 0.81607 0.43794
 C1648 C 0.15013 0.83312 0.41275
 C1649 C 0.18375 0.80157 0.36981
 C1650 C 0.20030 0.78504 0.39543
 H1651 H 0.21391 0.87964 0.38230
 H1652 H 0.24391 0.84931 0.42820
 H1653 H 0.15559 0.81156 0.46286
 H1654 H 0.12454 0.84319 0.41624
 H1655 H 0.18111 0.79044 0.34460
 H1656 H 0.21135 0.75986 0.39204
 C1657 C 0.66798 0.66362 0.62213
 C1658 C 0.64738 0.66881 0.58903
 C1659 C 0.66421 0.68607 0.56409
 C1660 C 0.70092 0.69568 0.57354
 C1661 C 0.69833 0.71586 0.60695
 C1662 C 0.68175 0.69910 0.63236
 C1663 C 0.70039 0.64466 0.60899
 C1664 C 0.71753 0.66164 0.58385
 H1665 H 0.62168 0.65907 0.58545
 H1666 H 0.65289 0.69107 0.53928
 H1667 H 0.71005 0.74069 0.61083
 H1668 H 0.67973 0.70969 0.65786
 H1669 H 0.71027 0.62063 0.61814
 H1670 H 0.74073 0.65161 0.57248
 C1671 C 0.66463 0.16903 0.12188
 C1672 C 0.66923 0.14796 0.08895
 C1673 C 0.68688 0.16409 0.06379
 C1674 C 0.69744 0.20064 0.07286
 C1675 C 0.66385 0.21819 0.08313
 C1676 C 0.64651 0.20177 0.10845
 C1677 C 0.70050 0.18193 0.13186
 C1678 C 0.71764 0.19785 0.10625
 H1679 H 0.65885 0.12247 0.08566
 H1680 H 0.69157 0.15240 0.03909
 H1681 H 0.65434 0.24153 0.07160
 H1682 H 0.62277 0.21240 0.11752
 H1683 H 0.71113 0.17978 0.15733
 H1684 H 0.74280 0.20888 0.10991
 C1685 C 0.16866 0.66611 0.12302
 C1686 C 0.18276 0.70171 0.13228
 C1687 C 0.19948 0.71762 0.10636
 C1688 C 0.20170 0.69655 0.07342
 C1689 C 0.21790 0.66260 0.08451
 C1690 C 0.20078 0.64652 0.11012
 C1691 C 0.14785 0.67085 0.08997
 C1692 C 0.16478 0.68723 0.06444
 H1693 H 0.18063 0.71308 0.15743
 H1694 H 0.21119 0.74254 0.10944
 H1695 H 0.24099 0.65201 0.07343
 H1696 H 0.21073 0.62277 0.11986
 H1697 H 0.12194 0.66151 0.08686
 H1698 H 0.15334 0.69190 0.03963
 C1699 C 0.16907 0.16371 0.62005
 C1700 C 0.18293 0.19933 0.62963
 C1701 C 0.19970 0.21550 0.60396
 C1702 C 0.20230 0.19466 0.57094
 C1703 C 0.21867 0.16075 0.58195
 C1704 C 0.20142 0.14437 0.60732
 C1705 C 0.14855 0.16842 0.58680
 C1706 C 0.16555 0.18513 0.56156
 H1707 H 0.18069 0.21050 0.65486
 H1708 H 0.21132 0.24043 0.60733
 H1709 H 0.24190 0.15037 0.57095
 H1710 H 0.21138 0.12059 0.61697
 H1711 H 0.12278 0.15881 0.58337
 H1712 H 0.15433 0.18981 0.53665
   
