data_POSCAR
  _audit_creation_date              2014-09-24
  _audit_creation_method            'ToBaCCo'
  _symmetry_space_group_name_H-M    'P1'
  _symmetry_Int_Tables_number       1
  _symmetry_cell_setting            triclinic
  loop_
  _symmetry_equiv_pos_as_xyz
 x,y,z
_cell_length_a 85.2039
_cell_length_b 85.2374
_cell_length_c 86.0375
_cell_angle_alpha 90.200400
_cell_angle_beta 90.097600
_cell_angle_gamma 89.735400
loop_
  _atom_site_label
  _atom_site_type_symbol
  _atom_site_fract_x
  _atom_site_fract_y
  _atom_site_fract_z
C1 C 0.33849 0.34767 0.32183
 C2 C 0.35134 0.33963 0.31529
 C3 C 0.35766 0.32621 0.32257
 C4 C 0.35089 0.32088 0.33649
 C5 C 0.33799 0.32864 0.34307
 C6 C 0.33189 0.34218 0.33584
 C7 C 0.33181 0.36083 0.31442
 C8 C 0.31870 0.36853 0.32092
 C9 C 0.31271 0.36329 0.33519
 C10 C 0.31901 0.35009 0.34251
 C11 C 0.31223 0.34440 0.35617
 C12 C 0.31772 0.33050 0.36307
 C13 C 0.33083 0.32282 0.35656
 H14 H 0.35622 0.34366 0.30440
 H15 H 0.35573 0.31069 0.34231
 H16 H 0.33650 0.36476 0.30341
 H17 H 0.30285 0.36936 0.34047
 H18 H 0.30241 0.35069 0.36127
 H19 H 0.33514 0.31201 0.36163
 C20 C 0.35428 0.85040 -0.17185
 C21 C 0.36789 0.84368 -0.17842
 C22 C 0.37559 0.83085 -0.17122
 C23 C 0.36983 0.82573 -0.15671
 C24 C 0.35611 0.83200 -0.15032
 C25 C 0.34820 0.84425 -0.15794
 C26 C 0.34629 0.86273 -0.17932
 C27 C 0.33216 0.86900 -0.17319
 C28 C 0.32628 0.86247 -0.15928
 C29 C 0.33405 0.85015 -0.15177
 C30 C 0.32762 0.84334 -0.13837
 C31 C 0.33530 0.83079 -0.13093
 C32 C 0.34987 0.82565 -0.13669
 H33 H 0.37174 0.84794 -0.18960
 H34 H 0.37596 0.81676 -0.15019
 H35 H 0.35084 0.86683 -0.19031
 H36 H 0.31587 0.86723 -0.15379
 H37 H 0.31633 0.84739 -0.13416
 H38 H 0.35616 0.81628 -0.13085
 C39 C 0.84519 0.33528 -0.16549
 C40 C 0.85899 0.32938 -0.17230
 C41 C 0.86681 0.31606 -0.16618
 C42 C 0.86032 0.30895 -0.15282
 C43 C 0.84639 0.31456 -0.14610
 C44 C 0.83879 0.32776 -0.15246
 C45 C 0.83755 0.34845 -0.17178
 C46 C 0.82355 0.35450 -0.16519
 C47 C 0.81729 0.34664 -0.15212
 C48 C 0.82473 0.33338 -0.14582
 C49 C 0.81826 0.32560 -0.13298
 C50 C 0.82572 0.31233 -0.12658
 C51 C 0.83992 0.30705 -0.13313
 H52 H 0.86311 0.33491 -0.18282
 H53 H 0.86622 0.29924 -0.14720
 H54 H 0.84237 0.35349 -0.18225
 H55 H 0.80694 0.35108 -0.14630
 H56 H 0.80721 0.32969 -0.12821
 H57 H 0.84596 0.29704 -0.12815
 C58 C 0.84415 0.83887 0.33137
 C59 C 0.85719 0.83243 0.32360
 C60 C 0.86493 0.81909 0.32947
 C61 C 0.85961 0.81244 0.34344
 C62 C 0.84635 0.81846 0.35103
 C63 C 0.83855 0.83170 0.34497
 C64 C 0.83645 0.85214 0.32549
 C65 C 0.82313 0.85863 0.33299
 C66 C 0.81749 0.85099 0.34646
 C67 C 0.82503 0.83761 0.35240
 C68 C 0.81911 0.82990 0.36556
 C69 C 0.82667 0.81646 0.37150
 C70 C 0.84056 0.81114 0.36436
 H71 H 0.86103 0.83760 0.31278
 H72 H 0.86566 0.80238 0.34832
 H73 H 0.84063 0.85693 0.31463
 H74 H 0.80759 0.85569 0.35284
 H75 H 0.80834 0.83410 0.37085
 H76 H 0.84677 0.80107 0.36903
 C77 C 0.65391 0.64783 0.33218
 C78 C 0.64096 0.65519 0.32510
 C79 C 0.63324 0.66779 0.33250
 C80 C 0.63829 0.67257 0.34734
 C81 C 0.65142 0.66562 0.35433
 C82 C 0.65932 0.65326 0.34673
 C83 C 0.66186 0.63549 0.32470
 C84 C 0.67516 0.62849 0.33156
 C85 C 0.68054 0.63415 0.34601
 C86 C 0.67284 0.64658 0.35354
 C87 C 0.67874 0.65278 0.36752
 C88 C 0.67114 0.66545 0.37495
 C89 C 0.65712 0.67135 0.36851
 H90 H 0.63726 0.65146 0.31362
 H91 H 0.63224 0.68205 0.35330
 H92 H 0.65786 0.63156 0.31338
 H93 H 0.69072 0.62883 0.35146
 H94 H 0.68961 0.64815 0.37222
 H95 H 0.65084 0.68077 0.37430
 C96 C 0.63937 0.15272 -0.16909
 C97 C 0.62601 0.15934 -0.17611
 C98 C 0.61818 0.17217 -0.16922
 C99 C 0.62385 0.17822 -0.15506
 C100 C 0.63740 0.17198 -0.14814
 C101 C 0.64519 0.15918 -0.15516
 C102 C 0.64714 0.13994 -0.17599
 C103 C 0.66074 0.13323 -0.16918
 C104 C 0.66646 0.14006 -0.15526
 C105 C 0.65889 0.15296 -0.14833
 C106 C 0.66492 0.15984 -0.13472
 C107 C 0.65735 0.17280 -0.12777
 C108 C 0.64340 0.17856 -0.13444
 H109 H 0.62189 0.15468 -0.18711
 H110 H 0.61778 0.18787 -0.14943
 H111 H 0.64277 0.13572 -0.18704
 H112 H 0.67648 0.13508 -0.14927
 H113 H 0.67577 0.15537 -0.12981
 H114 H 0.63725 0.18831 -0.12903
 C115 C 0.15074 0.65872 -0.17963
 C116 C 0.13766 0.66542 -0.18693
 C117 C 0.13095 0.67940 -0.18131
 C118 C 0.13717 0.68633 -0.16777
 C119 C 0.15005 0.67949 -0.16009
 C120 C 0.15694 0.66568 -0.16614
 C121 C 0.15784 0.64530 -0.18589
 C122 C 0.17160 0.63880 -0.17928
 C123 C 0.17734 0.64560 -0.16536
 C124 C 0.17011 0.65892 -0.15880
 C125 C 0.17609 0.66580 -0.14521
 C126 C 0.16932 0.67957 -0.13901
 C127 C 0.15634 0.68637 -0.14663
 H128 H 0.13278 0.65978 -0.19716
 H129 H 0.13220 0.69720 -0.16338
 H130 H 0.15234 0.63989 -0.19589
 H131 H 0.18798 0.64127 -0.15997
 H132 H 0.18597 0.66031 -0.13939
 H133 H 0.15123 0.69717 -0.14222
 C134 C 0.15426 0.14412 0.32194
 C135 C 0.14108 0.15069 0.31452
 C136 C 0.13402 0.16473 0.32004
 C137 C 0.14085 0.17213 0.33316
 C138 C 0.15396 0.16568 0.34070
 C139 C 0.16057 0.15156 0.33515
 C140 C 0.16134 0.13032 0.31618
 C141 C 0.17476 0.12374 0.32346
 C142 C 0.18039 0.13110 0.33710
 C143 C 0.17362 0.14496 0.34275
 C144 C 0.18001 0.15244 0.35580
 C145 C 0.17394 0.16685 0.36109
 C146 C 0.16076 0.17333 0.35355
 H147 H 0.13606 0.14437 0.30480
 H148 H 0.13646 0.18333 0.33728
 H149 H 0.15676 0.12536 0.30552
 H150 H 0.18995 0.12600 0.34369
 H151 H 0.18990 0.14711 0.36172
 H152 H 0.15601 0.18448 0.35744
 C153 C 0.64717 0.34503 0.67490
 C154 C 0.63356 0.33831 0.68112
 C155 C 0.62588 0.32598 0.67333
 C156 C 0.63190 0.32061 0.65905
 C157 C 0.64552 0.32716 0.65275
 C158 C 0.65322 0.33941 0.66068
 C159 C 0.65498 0.35711 0.68282
 C160 C 0.66900 0.36346 0.67695
 C161 C 0.67489 0.35779 0.66269
 C162 C 0.66706 0.34589 0.65449
 C163 C 0.67299 0.34017 0.64032
 C164 C 0.66542 0.32785 0.63236
 C165 C 0.65168 0.32144 0.63875
 H166 H 0.62920 0.34239 0.69226
 H167 H 0.62595 0.31132 0.65279
 H168 H 0.65008 0.36155 0.69359
 H169 H 0.68580 0.36233 0.65813
 H170 H 0.68346 0.34538 0.63548
 H171 H 0.64594 0.31168 0.63303
 C172 C 0.66453 0.84168 1.17025
 C173 C 0.65188 0.83473 1.17794
 C174 C 0.64501 0.82067 1.17242
 C175 C 0.65128 0.81383 1.15872
 C176 C 0.66391 0.82075 1.15083
 C177 C 0.67045 0.83479 1.15657
 C178 C 0.67154 0.85532 1.17624
 C179 C 0.68435 0.86227 1.16865
 C180 C 0.68978 0.85560 1.15467
 C181 C 0.68310 0.84182 1.14876
 C182 C 0.68923 0.83475 1.13537
 C183 C 0.68325 0.82043 1.12986
 C184 C 0.67041 0.81360 1.13754
 H185 H 0.64713 0.84078 1.18796
 H186 H 0.64693 0.80273 1.15442
 H187 H 0.66733 0.86019 1.18712
 H188 H 0.69941 0.86099 1.14849
 H189 H 0.69888 0.84031 1.12936
 H190 H 0.66577 0.80251 1.13345
 C191 C 0.13933 0.35617 1.17406
 C192 C 0.12581 0.34925 1.18033
 C193 C 0.11889 0.33591 1.17332
 C194 C 0.12593 0.32987 1.15966
 C195 C 0.13929 0.33678 1.15321
 C196 C 0.14608 0.34993 1.16044
 C197 C 0.14627 0.36917 1.18132
 C198 C 0.16013 0.37582 1.17541
 C199 C 0.16669 0.36956 1.16168
 C200 C 0.15971 0.35675 1.15412
 C201 C 0.16625 0.35050 1.14043
 C202 C 0.15949 0.33736 1.13310
 C203 C 0.14610 0.33051 1.13973
 H204 H 0.12055 0.35469 1.19045
 H205 H 0.12156 0.31927 1.15425
 H206 H 0.14087 0.37407 1.19166
 H207 H 0.17746 0.37437 1.15708
 H208 H 0.17650 0.35600 1.13543
 H209 H 0.14103 0.32012 1.13450
 C210 C 0.15916 0.84958 0.67304
 C211 C 0.14550 0.84340 0.67945
 C212 C 0.13885 0.82934 0.67382
 C213 C 0.14594 0.82210 0.66071
 C214 C 0.15964 0.82834 0.65400
 C215 C 0.16634 0.84207 0.66032
 C216 C 0.16595 0.86301 0.67952
 C217 C 0.18023 0.86883 0.67388
 C218 C 0.18720 0.86155 0.66091
 C219 C 0.18031 0.84823 0.65408
 C220 C 0.18740 0.84074 0.64139
 C221 C 0.18100 0.82694 0.63499
 C222 C 0.16706 0.82085 0.64137
 H223 H 0.13994 0.84991 0.68878
 H224 H 0.14141 0.81117 0.65614
 H225 H 0.16025 0.86877 0.68926
 H226 H 0.19826 0.86588 0.65647
 H227 H 0.19796 0.84572 0.63647
 H228 H 0.16216 0.81009 0.63674
 C229 C 0.35371 0.65659 0.66968
 C230 C 0.36668 0.66290 0.67748
 C231 C 0.37410 0.67650 0.67198
 C232 C 0.36858 0.68352 0.65822
 C233 C 0.35568 0.67723 0.65019
 C234 C 0.34817 0.66376 0.65598
 C235 C 0.34599 0.64341 0.67559
 C236 C 0.33281 0.63714 0.66793
 C237 C 0.32749 0.64427 0.65415
 C238 C 0.33498 0.65759 0.64823
 C239 C 0.32925 0.66503 0.63485
 C240 C 0.33660 0.67852 0.62895
 C241 C 0.34996 0.68441 0.63664
 H242 H 0.37099 0.65718 0.68789
 H243 H 0.37400 0.69415 0.65398
 H244 H 0.35001 0.63833 0.68641
 H245 H 0.31750 0.63946 0.64799
 H246 H 0.31874 0.66055 0.62933
 H247 H 0.35592 0.69462 0.63213
 C248 C 0.33882 0.15518 1.17451
 C249 C 0.35152 0.16290 1.18168
 C250 C 0.35754 0.17711 1.17561
 C251 C 0.35055 0.18317 1.16195
 C252 C 0.33790 0.17568 1.15474
 C253 C 0.33208 0.16162 1.16097
 C254 C 0.33239 0.14141 1.18094
 C255 C 0.31921 0.13402 1.17402
 C256 C 0.31330 0.14036 1.16002
 C257 C 0.31939 0.15409 1.15369
 C258 C 0.31260 0.16059 1.14033
 C259 C 0.31791 0.17494 1.13438
 C260 C 0.33079 0.18229 1.14153
 H261 H 0.35612 0.15810 1.19240
 H262 H 0.35520 0.19352 1.15639
 H263 H 0.33720 0.13709 1.19176
 H264 H 0.30399 0.13452 1.15371
 H265 H 0.30290 0.15461 1.13474
 H266 H 0.33493 0.19344 1.13718
 C267 C 0.84640 0.64575 1.17256
 C268 C 0.86013 0.65239 1.17860
 C269 C 0.86616 0.66640 1.17250
 C270 C 0.85875 0.67317 1.15952
 C271 C 0.84519 0.66639 1.15310
 C272 C 0.83883 0.65276 1.15981
 C273 C 0.83995 0.63246 1.17946
 C274 C 0.82554 0.62611 1.17431
 C275 C 0.81828 0.63302 1.16116
 C276 C 0.82481 0.64628 1.15392
 C277 C 0.81728 0.65349 1.14122
 C278 C 0.82362 0.66707 1.13438
 C279 C 0.83767 0.67330 1.14037
 H280 H 0.86595 0.64680 1.18835
 H281 H 0.86314 0.68405 1.15475
 H282 H 0.84647 0.62698 1.18880
 H283 H 0.80710 0.62878 1.15695
 H284 H 0.80633 0.64876 1.13690
 H285 H 0.84282 0.68359 1.13509
 C286 C 0.85014 0.16124 0.67890
 C287 C 0.86423 0.16716 0.68481
 C288 C 0.87103 0.18073 0.67853
 C289 C 0.86402 0.18770 0.66540
 C290 C 0.85009 0.18158 0.65906
 C291 C 0.84294 0.16848 0.66604
 C292 C 0.84292 0.14845 0.68603
 C293 C 0.82823 0.14303 0.68091
 C294 C 0.82118 0.15011 0.66786
 C295 C 0.82850 0.16277 0.66034
 C296 C 0.82146 0.17005 0.64745
 C297 C 0.82868 0.18292 0.64012
 C298 C 0.84301 0.18857 0.64607
 H299 H 0.86974 0.16134 0.69460
 H300 H 0.86904 0.19820 0.66043
 H301 H 0.84866 0.14286 0.69582
 H302 H 0.80984 0.14608 0.66382
 H303 H 0.81024 0.16584 0.64328
 H304 H 0.84878 0.19836 0.64052
 C305 C 0.33745 0.34728 0.66851
 C306 C 0.33112 0.36084 0.67539
 C307 C 0.31849 0.36885 0.66839
 C308 C 0.31233 0.36313 0.65432
 C309 C 0.31828 0.34939 0.64754
 C310 C 0.33092 0.34142 0.65460
 C311 C 0.35008 0.33937 0.67543
 C312 C 0.35652 0.32579 0.66855
 C313 C 0.34975 0.31989 0.65477
 C314 C 0.33691 0.32754 0.64784
 C315 C 0.32980 0.32142 0.63438
 C316 C 0.31689 0.32913 0.62750
 C317 C 0.31154 0.34334 0.63397
 H318 H 0.33586 0.36499 0.68635
 H319 H 0.30279 0.36933 0.64864
 H320 H 0.35482 0.34376 0.68630
 H321 H 0.35459 0.30947 0.64932
 H322 H 0.33402 0.31042 0.62957
 H323 H 0.30191 0.34965 0.62854
 C324 C 0.35682 0.84338 0.16450
 C325 C 0.35008 0.85608 0.17248
 C326 C 0.33649 0.86354 0.16678
 C327 C 0.32981 0.85823 0.15273
 C328 C 0.33653 0.84563 0.14452
 C329 C 0.35006 0.83816 0.15045
 C330 C 0.37007 0.83566 0.17051
 C331 C 0.37676 0.82278 0.16262
 C332 C 0.37009 0.81784 0.14847
 C333 C 0.35675 0.82534 0.14242
 C334 C 0.34986 0.82003 0.12860
 C335 C 0.33634 0.82735 0.12256
 C336 C 0.32979 0.84022 0.13059
 H337 H 0.35549 0.86020 0.18314
 H338 H 0.31918 0.86366 0.14834
 H339 H 0.37491 0.83943 0.18156
 H340 H 0.37528 0.80812 0.14212
 H341 H 0.35483 0.80989 0.12274
 H342 H 0.31949 0.84610 0.12598
 C343 C 0.84789 0.34425 0.16951
 C344 C 0.84262 0.35891 0.17497
 C345 C 0.82876 0.36571 0.16907
 C346 C 0.82043 0.35781 0.15731
 C347 C 0.82563 0.34328 0.15165
 C348 C 0.83932 0.33636 0.15784
 C349 C 0.86147 0.33726 0.17567
 C350 C 0.86648 0.32234 0.17055
 C351 C 0.85782 0.31458 0.15890
 C352 C 0.84433 0.32151 0.15247
 C353 C 0.83563 0.31374 0.14090
 C354 C 0.82201 0.32066 0.13459
 C355 C 0.81717 0.33547 0.14004
 H356 H 0.84927 0.36497 0.18388
 H357 H 0.80958 0.36275 0.15285
 H358 H 0.86815 0.34347 0.18446
 H359 H 0.86140 0.30300 0.15502
 H360 H 0.83935 0.30222 0.13696
 H361 H 0.80684 0.34104 0.13511
 C362 C 0.84210 0.85501 0.67015
 C363 C 0.83539 0.86831 0.67723
 C364 C 0.82239 0.87596 0.67045
 C365 C 0.81637 0.87027 0.65627
 C366 C 0.82273 0.85685 0.64922
 C367 C 0.83564 0.84919 0.65617
 C368 C 0.85491 0.84720 0.67700
 C369 C 0.86132 0.83363 0.67005
 C370 C 0.85474 0.82796 0.65614
 C371 C 0.84192 0.83553 0.64926
 C372 C 0.83506 0.82941 0.63576
 C373 C 0.82202 0.83680 0.62886
 C374 C 0.81612 0.85072 0.63554
 H375 H 0.84002 0.87242 0.68824
 H376 H 0.80656 0.87621 0.65076
 H377 H 0.85971 0.85152 0.68787
 H378 H 0.85969 0.81764 0.65058
 H379 H 0.83956 0.81851 0.63096
 H380 H 0.80623 0.85668 0.63022
 C381 C 0.65779 0.64631 0.67915
 C382 C 0.66413 0.63334 0.68697
 C383 C 0.67697 0.62494 0.68078
 C384 C 0.68328 0.62964 0.66639
 C385 C 0.67686 0.64240 0.65826
 C386 C 0.66411 0.65078 0.66469
 C387 C 0.64535 0.65500 0.68564
 C388 C 0.63914 0.66814 0.67784
 C389 C 0.64530 0.67225 0.66328
 C390 C 0.65774 0.66375 0.65673
 C391 C 0.66403 0.66820 0.64242
 C392 C 0.67667 0.65991 0.63582
 C393 C 0.68308 0.64702 0.64385
 H394 H 0.65895 0.62974 0.69788
 H395 H 0.69337 0.62356 0.66160
 H396 H 0.64080 0.65179 0.69693
 H397 H 0.64037 0.68211 0.65698
 H398 H 0.65926 0.67841 0.63655
 H399 H 0.69278 0.64050 0.63884
 C400 C 0.65045 0.14781 0.18243
 C401 C 0.65665 0.13411 0.18904
 C402 C 0.67058 0.12735 0.18329
 C403 C 0.67787 0.13415 0.17030
 C404 C 0.67159 0.14768 0.16338
 C405 C 0.65795 0.15469 0.16958
 C406 C 0.63705 0.15490 0.18874
 C407 C 0.63116 0.16906 0.18269
 C408 C 0.63857 0.17579 0.16970
 C409 C 0.65191 0.16866 0.16306
 C410 C 0.65952 0.17540 0.15024
 C411 C 0.67306 0.16834 0.14384
 C412 C 0.67894 0.15445 0.15052
 H413 H 0.65070 0.12882 0.19881
 H414 H 0.68872 0.12923 0.16585
 H415 H 0.63126 0.14943 0.19852
 H416 H 0.63420 0.18675 0.16499
 H417 H 0.65505 0.18626 0.14540
 H418 H 0.68921 0.14878 0.14560
 C419 C 0.14914 0.65550 0.16160
 C420 C 0.15673 0.64308 0.16929
 C421 C 0.16906 0.63478 0.16207
 C422 C 0.17347 0.63884 0.14685
 C423 C 0.16621 0.65136 0.13914
 C424 C 0.15401 0.65974 0.14652
 C425 C 0.13704 0.66401 0.16887
 C426 C 0.12977 0.67673 0.16126
 C427 C 0.13477 0.68085 0.14627
 C428 C 0.14689 0.67255 0.13893
 C429 C 0.15227 0.67718 0.12427
 C430 C 0.16468 0.66913 0.11697
 C431 C 0.17132 0.65596 0.12435
 H432 H 0.15334 0.64020 0.18107
 H433 H 0.18275 0.63236 0.14105
 H434 H 0.13347 0.66093 0.18055
 H435 H 0.12915 0.69052 0.14024
 H436 H 0.14720 0.68749 0.11886
 H437 H 0.18070 0.64946 0.11874
 C438 C 0.16034 0.15823 0.67603
 C439 C 0.16756 0.14472 0.68216
 C440 C 0.18039 0.13769 0.67450
 C441 C 0.18544 0.14392 0.66028
 C442 C 0.17855 0.15750 0.65421
 C443 C 0.16606 0.16482 0.66214
 C444 C 0.14775 0.16546 0.68375
 C445 C 0.14100 0.17943 0.67803
 C446 C 0.14706 0.18607 0.66432
 C447 C 0.15947 0.17883 0.65629
 C448 C 0.16565 0.18554 0.64270
 C449 C 0.17826 0.17830 0.63484
 C450 C 0.18435 0.16410 0.64054
 H451 H 0.16356 0.14005 0.69316
 H452 H 0.19503 0.13835 0.65405
 H453 H 0.14314 0.16011 0.69418
 H454 H 0.14231 0.19704 0.66000
 H455 H 0.16092 0.19655 0.63847
 H456 H 0.19382 0.15823 0.63442
 C457 C 0.34673 0.66072 0.31955
 C458 C 0.33904 0.64780 0.31306
 C459 C 0.32477 0.64244 0.31921
 C460 C 0.31860 0.64982 0.33256
 C461 C 0.32638 0.66266 0.33940
 C462 C 0.34041 0.66823 0.33274
 C463 C 0.36045 0.66645 0.31274
 C464 C 0.36781 0.67997 0.31858
 C465 C 0.36166 0.68726 0.33198
 C466 C 0.34806 0.68142 0.33914
 C467 C 0.34182 0.68872 0.35241
 C468 C 0.32789 0.68322 0.35928
 C469 C 0.32021 0.67022 0.35259
 H470 H 0.34411 0.64200 0.30301
 H471 H 0.30758 0.64584 0.33738
 H472 H 0.36528 0.66044 0.30270
 H473 H 0.36715 0.69773 0.33658
 H474 H 0.34793 0.69861 0.35749
 H475 H 0.30927 0.66611 0.35750
 C476 C 0.33942 0.15821 0.83291
 C477 C 0.33259 0.14426 0.82759
 C478 C 0.31944 0.13787 0.83512
 C479 C 0.31317 0.14572 0.84815
 C480 C 0.31977 0.15982 0.85348
 C481 C 0.33297 0.16606 0.84586
 C482 C 0.35246 0.16455 0.82529
 C483 C 0.35906 0.17882 0.83027
 C484 C 0.35255 0.18656 0.84323
 C485 C 0.33961 0.18025 0.85107
 C486 C 0.33307 0.18808 0.86388
 C487 C 0.31974 0.18211 0.87144
 C488 C 0.31321 0.16790 0.86617
 H489 H 0.33732 0.13861 0.81731
 H490 H 0.30317 0.14086 0.85419
 H491 H 0.35750 0.15830 0.81550
 H492 H 0.35727 0.19771 0.84702
 H493 H 0.33842 0.19883 0.86797
 H494 H 0.30279 0.16329 0.87168
 C495 C 0.85453 0.64850 0.82166
 C496 C 0.84879 0.63407 0.81627
 C497 C 0.83650 0.62640 0.82404
 C498 C 0.82999 0.63346 0.83741
 C499 C 0.83549 0.64798 0.84285
 C500 C 0.84785 0.65549 0.83498
 C501 C 0.86671 0.65613 0.81380
 C502 C 0.87220 0.67084 0.81891
 C503 C 0.86549 0.67767 0.83226
 C504 C 0.85343 0.67008 0.84033
 C505 C 0.84673 0.67702 0.85354
 C506 C 0.83418 0.66983 0.86136
 C507 C 0.82868 0.65523 0.85591
 H508 H 0.85370 0.62901 0.80577
 H509 H 0.82069 0.62761 0.84368
 H510 H 0.87194 0.65057 0.80371
 H511 H 0.86933 0.68912 0.83618
 H512 H 0.85138 0.68806 0.85775
 H513 H 0.81885 0.64963 0.86159
 C514 C 0.84926 0.14644 0.33578
 C515 C 0.84158 0.13368 0.32882
 C516 C 0.82721 0.12819 0.33474
 C517 C 0.82064 0.13568 0.34784
 C518 C 0.82802 0.14861 0.35475
 C519 C 0.84242 0.15396 0.34876
 C520 C 0.86354 0.15197 0.32982
 C521 C 0.87103 0.16503 0.33658
 C522 C 0.86406 0.17241 0.34951
 C523 C 0.84988 0.16697 0.35563
 C524 C 0.84290 0.17457 0.36835
 C525 C 0.82836 0.16956 0.37420
 C526 C 0.82107 0.15644 0.36739
 H527 H 0.84665 0.12827 0.31857
 H528 H 0.80975 0.13144 0.35273
 H529 H 0.86885 0.14606 0.31997
 H530 H 0.86947 0.18271 0.35461
 H531 H 0.84883 0.18445 0.37368
 H532 H 0.80976 0.15257 0.37160
 C533 C 0.64778 0.34294 0.33047
 C534 C 0.65370 0.35644 0.32336
 C535 C 0.66806 0.36296 0.32818
 C536 C 0.67606 0.35619 0.34084
 C537 C 0.67009 0.34284 0.34827
 C538 C 0.65604 0.33602 0.34290
 C539 C 0.63387 0.33610 0.32509
 C540 C 0.62825 0.32207 0.33156
 C541 C 0.63654 0.31525 0.34405
 C542 C 0.65031 0.32221 0.34984
 C543 C 0.65860 0.31546 0.36230
 C544 C 0.67248 0.32237 0.36798
 C545 C 0.67812 0.33607 0.36083
 H546 H 0.64720 0.36175 0.31389
 H547 H 0.68719 0.36098 0.34462
 H548 H 0.62744 0.34173 0.31575
 H549 H 0.63247 0.30437 0.34908
 H550 H 0.65432 0.30471 0.36743
 H551 H 0.68869 0.34161 0.36515
 C552 C 0.66243 0.84958 0.82700
 C553 C 0.66995 0.86291 0.82132
 C554 C 0.68474 0.86741 0.82700
 C555 C 0.69161 0.85884 0.83925
 C556 C 0.68404 0.84552 0.84530
 C557 C 0.66948 0.84079 0.83897
 C558 C 0.64823 0.84463 0.82044
 C559 C 0.64113 0.83061 0.82527
 C560 C 0.64802 0.82206 0.83749
 C561 C 0.66208 0.82711 0.84438
 C562 C 0.66906 0.81840 0.85631
 C563 C 0.68354 0.82293 0.86278
 C564 C 0.69096 0.83655 0.85720
 H565 H 0.66440 0.86964 0.81214
 H566 H 0.70302 0.86220 0.84369
 H567 H 0.64288 0.85154 0.81129
 H568 H 0.64281 0.81114 0.84124
 H569 H 0.66314 0.80807 0.86062
 H570 H 0.70225 0.83999 0.86189
 C571 C 0.15575 0.36154 0.83165
 C572 C 0.16432 0.37405 0.82544
 C573 C 0.17710 0.38047 0.83363
 C574 C 0.18105 0.37433 0.84827
 C575 C 0.17265 0.36179 0.85456
 C576 C 0.15997 0.35531 0.84624
 C577 C 0.14319 0.35500 0.82338
 C578 C 0.13494 0.34202 0.82925
 C579 C 0.13926 0.33590 0.84385
 C580 C 0.15164 0.34251 0.85242
 C581 C 0.15598 0.33638 0.86695
 C582 C 0.16869 0.34277 0.87531
 C583 C 0.17694 0.35547 0.86895
 H584 H 0.16130 0.37850 0.81403
 H585 H 0.19068 0.37936 0.85482
 H586 H 0.13983 0.36008 0.81233
 H587 H 0.13326 0.32574 0.84844
 H588 H 0.14943 0.32668 0.87176
 H589 H 0.18700 0.36024 0.87502
 C590 C 0.15601 0.83925 0.32115
 C591 C 0.16428 0.85142 0.31394
 C592 C 0.17772 0.85793 0.32098
 C593 C 0.18294 0.85185 0.33532
 C594 C 0.17497 0.83950 0.34254
 C595 C 0.16134 0.83334 0.33553
 C596 C 0.14270 0.83265 0.31405
 C597 C 0.13454 0.82033 0.32125
 C598 C 0.13971 0.81487 0.33579
 C599 C 0.15313 0.82110 0.34281
 C600 C 0.15868 0.81492 0.35684
 C601 C 0.17267 0.82042 0.36356
 C602 C 0.18059 0.83297 0.35648
 H603 H 0.16036 0.85564 0.30272
 H604 H 0.19317 0.85680 0.34096
 H605 H 0.13891 0.83687 0.30278
 H606 H 0.13336 0.80560 0.34160
 H607 H 0.15222 0.80556 0.36239
 H608 H 0.19143 0.83729 0.36148
 O609 O 0.23121 0.97682 0.24163
 O610 O 0.25334 1.00989 0.22496
 O611 O 0.25381 0.97946 0.22125
 O612 O 0.22974 1.00713 0.24372
 O613 O 0.24698 1.00637 0.26287
 O614 O 0.27060 0.97756 0.24072
 O615 O 0.27069 1.00808 0.24394
 O616 O 0.24821 0.97572 0.26099
 Cu617 Cu 0.24037 0.99341 0.23093
 Cu618 Cu 0.26081 0.99179 0.25406
 C619 C 0.23596 0.97066 0.25425
 C620 C 0.26576 1.01469 0.23166
 C621 C 0.26618 0.97362 0.22714
 C622 C 0.23428 1.01166 0.25703
 O623 O 0.26150 0.52241 0.73230
 O624 O 0.23786 0.49370 0.75338
 O625 O 0.24035 0.52391 0.75375
 O626 O 0.25977 0.49182 0.73256
 O627 O 0.27831 0.49090 0.75048
 O628 O 0.25825 0.52236 0.77225
 O629 O 0.25625 0.49184 0.77137
 O630 O 0.27970 0.52138 0.75056
 Cu631 Cu 0.24809 0.50808 0.74113
 Cu632 Cu 0.26997 0.50650 0.76301
 C633 C 0.27452 0.52696 0.73786
 C634 C 0.24297 0.48781 0.76594
 C635 C 0.24590 0.52857 0.76667
 C636 C 0.27236 0.48586 0.73789
 O637 O 0.73670 0.01037 0.25074
 O638 O 0.75765 -0.02071 0.27203
 O639 O 0.75825 0.01005 0.27193
 O640 O 0.73583 -0.02009 0.25080
 O641 O 0.75433 -0.02113 0.23290
 O642 O 0.77643 0.00949 0.25369
 O643 O 0.77608 -0.02096 0.25405
 O644 O 0.75463 0.00942 0.23228
 Cu645 Cu 0.74531 -0.00506 0.26324
 Cu646 Cu 0.76719 -0.00584 0.24140
 C647 C 0.74205 0.01517 0.23785
 C648 C 0.77045 -0.02617 0.26667
 C649 C 0.77107 0.01503 0.26634
 C650 C 0.74129 -0.02582 0.23827
 O651 O 0.75773 0.47503 0.77347
 O652 O 0.73642 0.50555 0.75148
 O653 O 0.73716 0.47488 0.75119
 O654 O 0.75651 0.50583 0.77399
 O655 O 0.77577 0.50659 0.75691
 O656 O 0.75626 0.47560 0.73392
 O657 O 0.75553 0.50595 0.73418
 O658 O 0.77696 0.47588 0.75638
 Cu659 Cu 0.74506 0.49022 0.76428
 Cu660 Cu 0.76811 0.49104 0.74369
 C661 C 0.77096 0.47014 0.76859
 C662 C 0.74237 0.51095 0.73906
 C663 C 0.74333 0.46999 0.73864
 C664 C 0.76929 0.51171 0.76923
 O665 O 0.22514 0.52098 0.24777
 O666 O 0.24891 0.49013 0.26662
 O667 O 0.24698 0.52075 0.26915
 O668 O 0.22657 0.49047 0.24632
 O669 O 0.24429 0.49245 0.22777
 O670 O 0.26461 0.52301 0.25055
 O671 O 0.26689 0.49241 0.24834
 O672 O 0.24307 0.52290 0.22941
 Cu673 Cu 0.23515 0.50542 0.25935
 Cu674 Cu 0.25654 0.50787 0.23721
 C675 C 0.23010 0.52722 0.23531
 C676 C 0.26185 0.48586 0.26058
 C677 C 0.25916 0.52723 0.26367
 C678 C 0.23194 0.48621 0.23321
 O679 O 0.75380 1.02296 0.73844
 O680 O 0.73701 0.99138 0.76213
 O681 O 0.73438 1.02203 0.76187
 O682 O 0.75629 0.99256 0.73916
 O683 O 0.77623 0.99451 0.75544
 O684 O 0.75417 1.02383 0.77832
 O685 O 0.75671 0.99319 0.77872
 O686 O 0.77343 1.02506 0.75507
 Cu687 Cu 0.74335 1.00710 0.74880
 Cu688 Cu 0.76711 1.00934 0.76855
 C689 C 0.76647 1.02946 0.74274
 C690 C 0.74409 0.98665 0.77426
 C691 C 0.74057 1.02809 0.77391
 C692 C 0.76995 0.98839 0.74348
 O693 O 0.74574 0.51127 0.26944
 O694 O 0.76902 0.47990 0.25141
 O695 O 0.76677 0.51028 0.24788
 O696 O 0.74697 0.48088 0.27225
 O697 O 0.72925 0.47762 0.25381
 O698 O 0.74835 0.50772 0.23002
 O699 O 0.75129 0.47747 0.23283
 O700 O 0.72718 0.50819 0.25179
 Cu701 Cu 0.75896 0.49584 0.26204
 Cu702 Cu 0.73718 0.49243 0.24032
 C703 C 0.73255 0.51517 0.26375
 C704 C 0.76423 0.47335 0.23902
 C705 C 0.76082 0.51420 0.23488
 C706 C 0.73477 0.47409 0.26706
 O707 O 0.26103 -0.01367 0.76699
 O708 O 0.23698 0.01662 0.74809
 O709 O 0.23974 -0.01367 0.74563
 O710 O 0.25881 0.01686 0.76922
 O711 O 0.27745 0.01887 0.75157
 O712 O 0.25750 -0.01058 0.72726
 O713 O 0.25549 0.01985 0.73050
 O714 O 0.27904 -0.01146 0.74873
 Cu715 Cu 0.24733 0.00129 0.75931
 Cu716 Cu 0.26918 0.00447 0.73768
 C717 C 0.27399 -0.01796 0.76100
 C718 C 0.24219 0.02354 0.73614
 C719 C 0.24536 -0.01739 0.73244
 C720 C 0.27146 0.02302 0.76446
 O721 O 0.23919 0.27756 0.98906
 O722 O 0.26378 0.25698 1.01796
 O723 O 0.26077 0.25596 0.98782
 O724 O 0.24269 0.27901 1.01924
 O725 O 0.22361 0.26167 1.02089
 O726 O 0.24320 0.23732 0.99107
 O727 O 0.24487 0.23971 1.02116
 O728 O 0.22154 0.25877 0.99069
 Cu729 Cu 0.25343 0.26921 1.00326
 Cu730 Cu 0.23144 0.24758 1.00623
 C731 C 0.22635 0.27142 0.98466
 C732 C 0.25834 0.24493 1.02470
 C733 C 0.25519 0.24266 0.98415
 C734 C 0.23004 0.27433 1.02541
 O735 O 0.24895 0.77007 0.48440
 O736 O 0.27122 0.74709 0.51299
 O737 O 0.27024 0.74814 0.48252
 O738 O 0.24901 0.76784 0.51467
 O739 O 0.23057 0.74980 0.51328
 O740 O 0.25251 0.72935 0.48247
 O741 O 0.25300 0.72877 0.51262
 O742 O 0.23127 0.75128 0.48293
 Cu743 Cu 0.26167 0.76012 0.49871
 Cu744 Cu 0.24000 0.73799 0.49778
 C745 C 0.23644 0.76453 0.47857
 C746 C 0.26587 0.73414 0.51786
 C747 C 0.26498 0.73530 0.47706
 C748 C 0.23611 0.76215 0.51943
 O749 O 0.23102 0.74894 -0.02152
 O750 O 0.24881 0.77077 0.01100
 O751 O 0.25006 0.77273 -0.01928
 O752 O 0.23019 0.74673 0.00865
 O753 O 0.25089 0.73107 0.00861
 O754 O 0.27007 0.75621 -0.01998
 O755 O 0.26951 0.75514 0.01010
 O756 O 0.25127 0.73270 -0.02174
 Cu757 Cu 0.23796 0.76141 -0.00523
 Cu758 Cu 0.26245 0.74214 -0.00574
 C759 C 0.23814 0.73713 -0.02724
 C760 C 0.26226 0.76675 0.01603
 C761 C 0.26342 0.76872 -0.02457
 C762 C 0.23727 0.73454 0.01352
 O763 O 0.26304 0.25063 0.47932
 O764 O 0.24044 0.23099 0.50991
 O765 O 0.24039 0.23031 0.47932
 O766 O 0.26326 0.25090 0.50924
 O767 O 0.24572 0.27005 0.50933
 O768 O 0.22280 0.24939 0.47926
 O769 O 0.22284 0.25007 0.50951
 O770 O 0.24549 0.26975 0.47894
 Cu771 Cu 0.25343 0.23867 0.49443
 Cu772 Cu 0.23247 0.26176 0.49421
 C773 C 0.25814 0.26361 0.47395
 C774 C 0.22795 0.23727 0.51513
 C775 C 0.22783 0.23636 0.47404
 C776 C 0.25838 0.26399 0.51443
 O777 O 0.75293 0.75910 0.98195
 O778 O 0.77047 0.73440 1.01224
 O779 O 0.77255 0.73565 0.98178
 O780 O 0.75029 0.75693 1.01191
 O781 O 0.73059 0.74047 1.00896
 O782 O 0.75355 0.71821 0.98004
 O783 O 0.75093 0.71761 1.01023
 O784 O 0.73398 0.74183 0.97870
 Cu785 Cu 0.76355 0.74816 0.99717
 Cu786 Cu 0.74031 0.72785 0.99419
 C787 C 0.74054 0.75468 0.97504
 C788 C 0.76356 0.72207 1.01675
 C789 C 0.76684 0.72327 0.97579
 C790 C 0.73665 0.75231 1.01564
 O791 O 0.74421 0.26580 0.48748
 O792 O 0.76641 0.24526 0.51832
 O793 O 0.76516 0.24369 0.48795
 O794 O 0.74635 0.26803 0.51785
 O795 O 0.72721 0.25079 0.51989
 O796 O 0.74623 0.22622 0.48980
 O797 O 0.74747 0.22778 0.52001
 O798 O 0.72514 0.24854 0.48972
 Cu799 Cu 0.75742 0.25743 0.50268
 Cu800 Cu 0.73459 0.23661 0.50504
 C801 C 0.73088 0.26060 0.48330
 C802 C 0.76065 0.23304 0.52449
 C803 C 0.75895 0.23087 0.48367
 C804 C 0.73371 0.26351 0.52415
 O805 O 0.76131 0.24142 -0.01113
 O806 O 0.74040 0.22152 0.02088
 O807 O 0.73942 0.22012 -0.00949
 O808 O 0.76340 0.24130 0.01904
 O809 O 0.74527 0.25980 0.02067
 O810 O 0.72248 0.23977 -0.01006
 O811 O 0.72217 0.23999 0.02026
 O812 O 0.74438 0.26102 -0.00957
 Cu813 Cu 0.75285 0.22915 0.00473
 Cu814 Cu 0.73181 0.25205 0.00535
 C815 C 0.75650 0.25483 -0.01560
 C816 C 0.72763 0.22739 0.02596
 C817 C 0.72702 0.22638 -0.01488
 C818 C 0.75835 0.25399 0.02497
 O819 O 0.73492 0.73401 0.49156
 O820 O 0.75515 0.75753 0.52110
 O821 O 0.75358 0.75793 0.49102
 O822 O 0.73671 0.73327 0.52178
 O823 O 0.75769 0.71801 0.52117
 O824 O 0.77338 0.74128 0.48885
 O825 O 0.77605 0.74230 0.51898
 O826 O 0.75477 0.71731 0.49092
 Cu827 Cu 0.74301 0.74725 0.50654
 Cu828 Cu 0.76752 0.72810 0.50487
 C829 C 0.74131 0.72166 0.48618
 C830 C 0.76915 0.75414 0.52491
 C831 C 0.76628 0.75366 0.48451
 C832 C 0.74442 0.72157 0.52689
 O833 O 0.98199 0.24308 0.27515
 O834 O 1.01097 0.26954 0.25747
 O835 O 0.98037 0.26717 0.25677
 O836 O 1.01234 0.24557 0.27603
 O837 O 1.01424 0.22972 0.25580
 O838 O 0.98222 0.25155 0.23636
 O839 O 1.01263 0.25376 0.23716
 O840 O 0.98353 0.22745 0.25469
 Cu841 Cu 0.99625 0.25793 0.26837
 Cu842 Cu 0.99837 0.23901 0.24399
 C843 C 0.97770 0.23082 0.26787
 C844 C 1.01678 0.26614 0.24428
 C845 C 0.97575 0.26305 0.24333
 C846 C 1.01880 0.23397 0.26924
 O847 O 0.50503 0.28160 0.75357
 O848 O 0.47543 0.26058 0.77643
 O849 O 0.50603 0.26106 0.77569
 O850 O 0.47460 0.28085 0.75369
 O851 O 0.47491 0.26165 0.73641
 O852 O 0.50570 0.24146 0.75887
 O853 O 0.47512 0.24158 0.75894
 O854 O 0.50564 0.26208 0.73667
 Cu855 Cu 0.49021 0.27294 0.76659
 Cu856 Cu 0.49036 0.24977 0.74598
 C857 C 0.51057 0.27535 0.74133
 C858 C 0.47010 0.24758 0.77153
 C859 C 0.51126 0.24788 0.77102
 C860 C 0.46941 0.27464 0.74126
 O861 O -0.00996 0.28030 0.75139
 O862 O 0.02163 0.26046 0.72948
 O863 O -0.00885 0.26001 0.72870
 O864 O 0.02083 0.28083 0.75213
 O865 O 0.02013 0.26197 0.76962
 O866 O -0.00857 0.24067 0.74569
 O867 O 0.02216 0.24162 0.74700
 O868 O -0.01025 0.26073 0.76810
 Cu869 Cu 0.00594 0.27237 0.73874
 Cu870 Cu 0.00594 0.24929 0.75928
 C871 C -0.01571 0.27375 0.76334
 C872 C 0.02737 0.24769 0.73458
 C873 C -0.01386 0.24680 0.73329
 C874 C 0.02547 0.27500 0.76491
 O875 O 0.47962 0.27158 0.24974
 O876 O 0.50841 0.24777 0.22835
 O877 O 0.47786 0.24777 0.23081
 O878 O 0.51024 0.27009 0.24886
 O879 O 0.51004 0.25386 0.26876
 O880 O 0.47957 0.23026 0.24957
 O881 O 0.51022 0.23149 0.24816
 O882 O 0.47927 0.25406 0.26857
 Cu883 Cu 0.49394 0.26099 0.23752
 Cu884 Cu 0.49485 0.24074 0.26070
 C885 C 0.47423 0.26677 0.26260
 C886 C 0.51455 0.23580 0.23469
 C887 C 0.47325 0.23511 0.23710
 C888 C 0.51566 0.26576 0.26196
 O889 O 0.98260 0.76261 0.72520
 O890 O 1.01300 0.74034 0.74660
 O891 O 0.98239 0.74118 0.74643
 O892 O 1.01321 0.76005 0.72357
 O893 O 1.01533 0.77861 0.74137
 O894 O 0.98337 0.76023 0.76383
 O895 O 1.01363 0.75907 0.76437
 O896 O 0.98473 0.78182 0.74233
 Cu897 Cu 0.99767 0.74918 0.73367
 Cu898 Cu 0.99937 0.77190 0.75464
 C899 C 0.97845 0.77606 0.73023
 C900 C 1.01835 0.74591 0.75928
 C901 C 0.97754 0.74740 0.75895
 C902 C 1.01980 0.77236 0.72865
 O903 O 0.49319 0.74816 0.26499
 O904 O 0.52534 0.76490 0.24202
 O905 O 0.49489 0.76848 0.24246
 O906 O 0.52346 0.74430 0.26394
 O907 O 0.52065 0.72527 0.24673
 O908 O 0.49231 0.74949 0.22515
 O909 O 0.52278 0.74603 0.22459
 O910 O 0.49031 0.72941 0.24747
 Cu911 Cu 0.50947 0.75837 0.25507
 Cu912 Cu 0.50628 0.73566 0.23423
 C913 C 0.48617 0.73598 0.26012
 C914 C 0.52968 0.75830 0.22948
 C915 C 0.48860 0.76303 0.23018
 C916 C 0.52697 0.73066 0.25900
 O917 O 0.01304 0.75620 0.26012
 O918 O -0.01796 0.73486 0.23916
 O919 O 0.01239 0.73371 0.23978
 O920 O -0.01766 0.75628 0.26042
 O921 O -0.01777 0.77418 0.24195
 O922 O 0.01344 0.75188 0.22161
 O923 O -0.01718 0.75244 0.22042
 O924 O 0.01284 0.77448 0.24202
 Cu925 Cu -0.00257 0.74352 0.25176
 Cu926 Cu -0.00215 0.76506 0.22964
 C927 C 0.01828 0.76897 0.25462
 C928 C -0.02281 0.73997 0.22615
 C929 C 0.01816 0.73890 0.22724
 C930 C -0.02310 0.76888 0.25469
 O931 O 0.49345 0.77452 0.74934
 O932 O 0.52426 0.74950 0.73191
 O933 O 0.49395 0.75215 0.72854
 O934 O 0.52384 0.77190 0.75234
 O935 O 0.52067 0.75436 0.77086
 O936 O 0.49031 0.73492 0.74726
 O937 O 0.52058 0.73186 0.75024
 O938 O 0.49043 0.75701 0.76789
 Cu939 Cu 0.50920 0.76378 0.73867
 Cu940 Cu 0.50519 0.74278 0.76092
 C941 C 0.48664 0.76996 0.76165
 C942 C 0.52767 0.73640 0.73811
 C943 C 0.48691 0.74023 0.73389
 C944 C 0.52747 0.76648 0.76561
 C945 C 0.38487 0.29286 0.31075
 C946 C 0.39773 0.30077 0.30401
 C947 C 0.39665 0.31731 0.30259
 C948 C 0.38363 0.32554 0.30857
 C949 C 0.37122 0.31754 0.31569
 C950 C 0.37190 0.30112 0.31642
 C951 C 0.40861 0.32558 0.29527
 C952 C 0.42149 0.31779 0.28898
 C953 C 0.42317 0.30134 0.29016
 C954 C 0.41143 0.29280 0.29841
 C955 C 0.41395 0.27664 0.30108
 C956 C 0.42714 0.26894 0.29537
 C957 C 0.43817 0.27688 0.28646
 C958 C 0.43629 0.29316 0.28354
 C959 C 0.44744 0.30045 0.27378
 C960 C 0.45981 0.29191 0.26725
 C961 C 0.46170 0.27590 0.27038
 C962 C 0.45094 0.26851 0.28018
 H963 H 0.38429 0.28027 0.31152
 H964 H 0.38330 0.33823 0.30789
 H965 H 0.36227 0.29453 0.32129
 H966 H 0.40793 0.33824 0.29422
 H967 H 0.43020 0.32510 0.28360
 H968 H 0.40608 0.26963 0.30793
 H969 H 0.42857 0.25653 0.29776
 H970 H 0.44665 0.31262 0.27052
 H971 H 0.46791 0.29786 0.25960
 H972 H 0.45216 0.25605 0.28244
 C973 C 0.40377 0.79874 0.81847
 C974 C 0.41415 0.80607 0.80806
 C975 C 0.41091 0.82180 0.80383
 C976 C 0.39826 0.83004 0.81064
 C977 C 0.38836 0.82279 0.82160
 C978 C 0.39125 0.80688 0.82502
 C979 C 0.42031 0.82922 0.79283
 C980 C 0.43269 0.82128 0.78572
 C981 C 0.43649 0.80564 0.78969
 C982 C 0.42740 0.79816 0.80149
 C983 C 0.43204 0.78311 0.80661
 C984 C 0.44462 0.77529 0.79996
 C985 C 0.45305 0.78203 0.78788
 C986 C 0.44917 0.79726 0.78248
 C987 C 0.45806 0.80328 0.76994
 C988 C 0.47024 0.79452 0.76321
 C989 C 0.47401 0.77954 0.76878
 C990 C 0.46537 0.77346 0.78118
 H991 H 0.40464 0.78651 0.82146
 H992 H 0.39663 0.84226 0.80768
 H993 H 0.38342 0.80019 0.83229
 H994 H 0.41796 0.84126 0.78952
 H995 H 0.43931 0.82787 0.77734
 H996 H 0.42641 0.77713 0.81607
 H997 H 0.44771 0.76374 0.80428
 H998 H 0.45573 0.81459 0.76485
 H999 H 0.47667 0.79948 0.75358
 H1000 H 0.46807 0.76183 0.78555
 C1001 C -0.10175 0.28766 0.82153
 C1002 C -0.09171 0.29703 0.81242
 C1003 C -0.09601 0.31293 0.81024
 C1004 C -0.10949 0.31919 0.81742
 C1005 C -0.11938 0.30983 0.82668
 C1006 C -0.11520 0.29391 0.82843
 C1007 C -0.08684 0.32256 0.80087
 C1008 C -0.07368 0.31668 0.79328
 C1009 C -0.06890 0.30090 0.79503
 C1010 C -0.07775 0.29108 0.80522
 C1011 C -0.07222 0.27571 0.80805
 C1012 C -0.05887 0.26991 0.80079
 C1013 C -0.05058 0.27904 0.79025
 C1014 C -0.05547 0.29463 0.78708
 C1015 C -0.04682 0.30315 0.77588
 C1016 C -0.03391 0.29644 0.76830
 C1017 C -0.02908 0.28110 0.77167
 C1018 C -0.03746 0.27253 0.78274
 H1019 H -0.09986 0.27528 0.82320
 H1020 H -0.11183 0.33160 0.81607
 H1021 H -0.12266 0.28580 0.83457
 H1022 H -0.08999 0.33478 0.79921
 H1023 H -0.06730 0.32495 0.78631
 H1024 H -0.07778 0.26787 0.81611
 H1025 H -0.05510 0.25803 0.80336
 H1026 H -0.04990 0.31490 0.77244
 H1027 H -0.02772 0.30331 0.75972
 H1028 H -0.03396 0.26057 0.78533
 C1029 C -0.10795 0.78803 0.31269
 C1030 C -0.09655 0.79695 0.30477
 C1031 C -0.09854 0.81347 0.30443
 C1032 C -0.11091 0.82067 0.31262
 C1033 C -0.12186 0.81164 0.32082
 C1034 C -0.12035 0.79526 0.32048
 C1035 C -0.08819 0.82269 0.29590
 C1036 C -0.07604 0.81588 0.28744
 C1037 C -0.07340 0.79951 0.28762
 C1038 C -0.08343 0.79000 0.29698
 C1039 C -0.07980 0.77392 0.29860
 C1040 C -0.06714 0.76720 0.29096
 C1041 C -0.05778 0.77610 0.28113
 C1042 C -0.06087 0.79232 0.27906
 C1043 C -0.05137 0.80055 0.26832
 C1044 C -0.03919 0.79298 0.26032
 C1045 C -0.03597 0.77708 0.26290
 C1046 C -0.04534 0.76876 0.27333
 H1047 H -0.10792 0.77539 0.31273
 H1048 H -0.11192 0.83335 0.31269
 H1049 H -0.12897 0.78789 0.32607
 H1050 H -0.08961 0.83533 0.29561
 H1051 H -0.06857 0.82384 0.28121
 H1052 H -0.08625 0.76623 0.30614
 H1053 H -0.06473 0.75483 0.29268
 H1054 H -0.05326 0.81274 0.26558
 H1055 H -0.03220 0.79962 0.25218
 H1056 H -0.04313 0.75636 0.27518
 C1057 C 0.60801 0.70164 0.31861
 C1058 C 0.59635 0.69414 0.30957
 C1059 C 0.59744 0.67763 0.30771
 C1060 C 0.60932 0.66904 0.31528
 C1061 C 0.62054 0.67667 0.32451
 C1062 C 0.61985 0.69304 0.32587
 C1063 C 0.58672 0.66979 0.29825
 C1064 C 0.57511 0.67798 0.29028
 C1065 C 0.57349 0.69442 0.29179
 C1066 C 0.58389 0.70252 0.30210
 C1067 C 0.58133 0.71867 0.30483
 C1068 C 0.56944 0.72680 0.29731
 C1069 C 0.55977 0.71929 0.28657
 C1070 C 0.56168 0.70303 0.28351
 C1071 C 0.55186 0.69619 0.27207
 C1072 C 0.54060 0.70513 0.26421
 C1073 C 0.53866 0.72111 0.26752
 C1074 C 0.54825 0.72808 0.27879
 H1075 H 0.60862 0.71419 0.31999
 H1076 H 0.60974 0.65639 0.31407
 H1077 H 0.62870 0.69935 0.33239
 H1078 H 0.58742 0.65716 0.29682
 H1079 H 0.56732 0.67099 0.28326
 H1080 H 0.58810 0.72537 0.31306
 H1081 H 0.56791 0.73919 0.29981
 H1082 H 0.55278 0.68405 0.26866
 H1083 H 0.53340 0.69947 0.25547
 H1084 H 0.54699 0.74049 0.28132
 C1085 C 0.58049 0.17732 0.80759
 C1086 C 0.57817 0.19379 0.80791
 C1087 C 0.58910 0.20291 0.81642
 C1088 C 0.60210 0.19584 0.82362
 C1089 C 0.60435 0.17953 0.82304
 C1090 C 0.59333 0.17038 0.81505
 C1091 C 0.58707 0.21909 0.81772
 C1092 C 0.57425 0.22650 0.81096
 C1093 C 0.56306 0.21802 0.80224
 C1094 C 0.56536 0.20148 0.80022
 C1095 C 0.55504 0.19328 0.79027
 C1096 C 0.54278 0.20089 0.78271
 C1097 C 0.54003 0.21686 0.78504
 C1098 C 0.54988 0.22560 0.79512
 C1099 C 0.54602 0.24158 0.79771
 C1100 C 0.53336 0.24863 0.79011
 C1101 C 0.52414 0.24009 0.77963
 C1102 C 0.52748 0.22415 0.77725
 H1103 H 0.57244 0.16941 0.80197
 H1104 H 0.61060 0.20314 0.82957
 H1105 H 0.59448 0.15772 0.81473
 H1106 H 0.59544 0.22614 0.82415
 H1107 H 0.57370 0.23904 0.81242
 H1108 H 0.55638 0.18098 0.78769
 H1109 H 0.53531 0.19415 0.77500
 H1110 H 0.55239 0.24893 0.80572
 H1111 H 0.53093 0.26093 0.79230
 H1112 H 0.52023 0.21736 0.76936
 C1113 C 1.10494 0.69287 0.78550
 C1114 C 1.09201 0.69977 0.79326
 C1115 C 1.09258 0.70063 0.80972
 C1116 C 1.10522 0.69400 0.81796
 C1117 C 1.11771 0.68679 0.81008
 C1118 C 1.11753 0.68658 0.79378
 C1119 C 1.08055 0.70810 0.81788
 C1120 C 1.06813 0.71516 0.81006
 C1121 C 1.06702 0.71462 0.79368
 C1122 C 1.07873 0.70611 0.78522
 C1123 C 1.07663 0.70397 0.76907
 C1124 C 1.06392 0.71052 0.76130
 C1125 C 1.05302 0.71980 0.76919
 C1126 C 1.05448 0.72215 0.78548
 C1127 C 1.04357 0.73234 0.79278
 C1128 C 1.03180 0.73980 0.78424
 C1129 C 1.03031 0.73722 0.76824
 C1130 C 1.04081 0.72701 0.76081
 H1131 H 1.10590 0.69250 0.77302
 H1132 H 1.10520 0.69429 0.83056
 H1133 H 1.12728 0.68164 0.78733
 H1134 H 1.08084 0.70870 0.83046
 H1135 H 1.05932 0.72061 0.81726
 H1136 H 1.08445 0.69691 0.76210
 H1137 H 1.06279 0.70854 0.74889
 H1138 H 1.04412 0.73525 0.80496
 H1139 H 1.02386 0.74772 0.79022
 H1140 H 1.03987 0.72517 0.74836
 C1141 C 1.10423 0.17511 0.28945
 C1142 C 1.09361 0.18490 0.29764
 C1143 C 1.09679 0.18773 0.31356
 C1144 C 1.10991 0.18093 0.32085
 C1145 C 1.12053 0.17128 0.31261
 C1146 C 1.11732 0.16847 0.29677
 C1147 C 1.08684 0.19736 0.32226
 C1148 C 1.07398 0.20462 0.31545
 C1149 C 1.07038 0.20246 0.29956
 C1150 C 1.08011 0.19209 0.29060
 C1151 C 1.07596 0.18922 0.27494
 C1152 C 1.06303 0.19647 0.26815
 C1153 C 1.05378 0.20703 0.27656
 C1154 C 1.05734 0.21025 0.29236
 C1155 C 1.04779 0.22137 0.30021
 C1156 C 1.03533 0.22885 0.29270
 C1157 C 1.03182 0.22555 0.27712
 C1158 C 1.04106 0.21451 0.26915
 H1159 H 1.10300 0.17257 0.27724
 H1160 H 1.11140 0.18286 0.33320
 H1161 H 1.12527 0.16170 0.28959
 H1162 H 1.08912 0.19945 0.33449
 H1163 H 1.06697 0.21178 0.32310
 H1164 H 1.08239 0.18127 0.26756
 H1165 H 1.06033 0.19389 0.25609
 H1166 H 1.04975 0.22483 0.31210
 H1167 H 1.02845 0.23734 0.29917
 H1168 H 1.03854 0.21194 0.25705
 C1169 C 0.59673 0.29486 0.68550
 C1170 C 0.58506 0.30366 0.69340
 C1171 C 0.58734 0.32007 0.69485
 C1172 C 0.60047 0.32730 0.68813
 C1173 C 0.61182 0.31841 0.68022
 C1174 C 0.60983 0.30213 0.67910
 C1175 C 0.57656 0.32921 0.70307
 C1176 C 0.56376 0.32240 0.71033
 C1177 C 0.56101 0.30610 0.70936
 C1178 C 0.57145 0.29670 0.70017
 C1179 C 0.56782 0.28070 0.69791
 C1180 C 0.55485 0.27394 0.70489
 C1181 C 0.54514 0.28270 0.71466
 C1182 C 0.54810 0.29888 0.71715
 C1183 C 0.53821 0.30704 0.72768
 C1184 C 0.52599 0.29943 0.73531
 C1185 C 0.52306 0.28349 0.73264
 C1186 C 0.53259 0.27525 0.72215
 H1187 H 0.59633 0.28228 0.68441
 H1188 H 0.60180 0.33991 0.68903
 H1189 H 0.61862 0.29487 0.67348
 H1190 H 0.57816 0.34179 0.70410
 H1191 H 0.55602 0.33034 0.71638
 H1192 H 0.57463 0.27308 0.69050
 H1193 H 0.55256 0.26160 0.70282
 H1194 H 0.53986 0.31921 0.73065
 H1195 H 0.51885 0.30606 0.74343
 H1196 H 0.53054 0.26286 0.72015
 C1197 C 0.61724 0.81016 0.20447
 C1198 C 0.60597 0.80081 0.19680
 C1199 C 0.60849 0.79738 0.18088
 C1200 C 0.62133 0.80385 0.17290
 C1201 C 0.63222 0.81369 0.18051
 C1202 C 0.63000 0.81640 0.19652
 C1203 C 0.59811 0.78759 0.17293
 C1204 C 0.58536 0.78094 0.18046
 C1205 C 0.58221 0.78413 0.19628
 C1206 C 0.59242 0.79464 0.20443
 C1207 C 0.58856 0.79892 0.21983
 C1208 C 0.57547 0.79287 0.22718
 C1209 C 0.56578 0.78214 0.21965
 C1210 C 0.56905 0.77743 0.20416
 C1211 C 0.55905 0.76607 0.19733
 C1212 C 0.54633 0.75990 0.20551
 C1213 C 0.54304 0.76489 0.22069
 C1214 C 0.55284 0.77605 0.22764
 H1215 H 0.61682 0.81259 0.21675
 H1216 H 0.62228 0.80163 0.16055
 H1217 H 0.63844 0.82289 0.20335
 H1218 H 0.59991 0.78494 0.16073
 H1219 H 0.57794 0.77359 0.17341
 H1220 H 0.59523 0.80730 0.22647
 H1221 H 0.57295 0.79660 0.23899
 H1222 H 0.56088 0.76146 0.18580
 H1223 H 0.53901 0.75120 0.19989
 H1224 H 0.55055 0.77985 0.23947
 C1225 C 1.08270 0.31136 0.17697
 C1226 C 1.07974 0.31168 0.19312
 C1227 C 1.08937 0.32142 0.20243
 C1228 C 1.10205 0.32959 0.19588
 C1229 C 1.10547 0.32851 0.17987
 C1230 C 1.09523 0.31955 0.17056
 C1231 C 1.08649 0.32279 0.21834
 C1232 C 1.07427 0.31466 0.22526
 C1233 C 1.06460 0.30445 0.21658
 C1234 C 1.06760 0.30269 0.20029
 C1235 C 1.05873 0.29162 0.19180
 C1236 C 1.04729 0.28263 0.19890
 C1237 C 1.04399 0.28443 0.21465
 C1238 C 1.05232 0.29558 0.22370
 C1239 C 1.04798 0.29730 0.23951
 C1240 C 1.03631 0.28796 0.24607
 C1241 C 1.02860 0.27656 0.23717
 C1242 C 1.03243 0.27499 0.22142
 H1243 H 1.07539 0.30510 0.16885
 H1244 H 1.10966 0.33609 0.20363
 H1245 H 1.09645 0.31912 0.15805
 H1246 H 1.09378 0.33024 0.22556
 H1247 H 1.07303 0.31629 0.23761
 H1248 H 1.06066 0.28921 0.17966
 H1249 H 1.04097 0.27411 0.19193
 H1250 H 1.05325 0.30584 0.24713
 H1251 H 1.03347 0.28953 0.25825
 H1252 H 1.02636 0.26637 0.21434
 C1253 C 1.10965 0.82040 0.70496
 C1254 C 1.09813 0.81166 0.69700
 C1255 C 1.10108 0.80771 0.68126
 C1256 C 1.11460 0.81326 0.67364
 C1257 C 1.12557 0.82281 0.68146
 C1258 C 1.12297 0.82580 0.69738
 C1259 C 1.09044 0.79835 0.67315
 C1260 C 1.07703 0.79264 0.68036
 C1261 C 1.07348 0.79642 0.69598
 C1262 C 1.08396 0.80653 0.70425
 C1263 C 1.07976 0.81148 0.71938
 C1264 C 1.06619 0.80623 0.72648
 C1265 C 1.05628 0.79572 0.71894
 C1266 C 1.05974 0.79059 0.70360
 C1267 C 1.04941 0.77961 0.69668
 C1268 C 1.03638 0.77398 0.70473
 C1269 C 1.03306 0.77914 0.71986
 C1270 C 1.04299 0.79017 0.72680
 H1271 H 1.10897 0.82298 0.71720
 H1272 H 1.11605 0.81065 0.66140
 H1273 H 1.13154 0.83192 0.70441
 H1274 H 1.09254 0.79527 0.66109
 H1275 H 1.06947 0.78554 0.67322
 H1276 H 1.08658 0.81976 0.72599
 H1277 H 1.06351 0.81035 0.73812
 H1278 H 1.05125 0.77482 0.68523
 H1279 H 1.02894 0.76540 0.69908
 H1280 H 1.04063 0.79414 0.73856
 C1281 C 0.39950 0.68978 0.70576
 C1282 C 0.41262 0.69649 0.69829
 C1283 C 0.41249 0.69709 0.68183
 C1284 C 0.40008 0.69044 0.67331
 C1285 C 0.38732 0.68352 0.68092
 C1286 C 0.38711 0.68349 0.69721
 C1287 C 0.42472 0.70436 0.67392
 C1288 C 0.43695 0.71141 0.68199
 C1289 C 0.43768 0.71107 0.69839
 C1290 C 0.42568 0.70287 0.70662
 C1291 C 0.42728 0.70104 0.72285
 C1292 C 0.43984 0.70746 0.73087
 C1293 C 0.45113 0.71626 0.72317
 C1294 C 0.45015 0.71841 0.70685
 C1295 C 0.46155 0.72809 0.69977
 C1296 C 0.47344 0.73510 0.70853
 C1297 C 0.47450 0.73259 0.72457
 C1298 C 0.46334 0.72307 0.73178
 H1299 H 0.39820 0.68957 0.71821
 H1300 H 0.40044 0.69056 0.66072
 H1301 H 0.37717 0.67878 0.70345
 H1302 H 0.42475 0.70480 0.66133
 H1303 H 0.44593 0.71671 0.67498
 H1304 H 0.41919 0.69429 0.72969
 H1305 H 0.44061 0.70567 0.74332
 H1306 H 0.46139 0.73082 0.68756
 H1307 H 0.48186 0.74251 0.70270
 H1308 H 0.46391 0.72127 0.74425
 C1309 C 0.38476 0.20961 0.18699
 C1310 C 0.39658 0.20174 0.19547
 C1311 C 0.39445 0.18555 0.19840
 C1312 C 0.38151 0.17747 0.19209
 C1313 C 0.37021 0.18525 0.18286
 C1314 C 0.37195 0.20157 0.18089
 C1315 C 0.40536 0.17745 0.20749
 C1316 C 0.41823 0.18509 0.21391
 C1317 C 0.42100 0.20117 0.21112
 C1318 C 0.41028 0.20948 0.20130
 C1319 C 0.41379 0.22512 0.19727
 C1320 C 0.42699 0.23261 0.20306
 C1321 C 0.43713 0.22497 0.21327
 C1322 C 0.43426 0.20919 0.21761
 C1323 C 0.44468 0.20223 0.22846
 C1324 C 0.45733 0.21060 0.23461
 C1325 C 0.46019 0.22610 0.23008
 C1326 C 0.45009 0.23315 0.21929
 H1327 H 0.38482 0.22210 0.18516
 H1328 H 0.38081 0.16493 0.19388
 H1329 H 0.36310 0.20853 0.17504
 H1330 H 0.40387 0.16505 0.20978
 H1331 H 0.42607 0.17791 0.22071
 H1332 H 0.40675 0.23185 0.18928
 H1333 H 0.42921 0.24461 0.19958
 H1334 H 0.44318 0.19048 0.23275
 H1335 H 0.46490 0.20489 0.24301
 H1336 H 0.45205 0.24521 0.21586
 C1337 C -0.10676 0.68141 0.20417
 C1338 C -0.09503 0.68941 0.19577
 C1339 C -0.09662 0.69016 0.17938
 C1340 C -0.10904 0.68243 0.17180
 C1341 C -0.12040 0.67429 0.18032
 C1342 C -0.11919 0.67410 0.19657
 C1343 C -0.08588 0.69870 0.17065
 C1344 C -0.07380 0.70689 0.17784
 C1345 C -0.07167 0.70646 0.19412
 C1346 C -0.08203 0.69697 0.20312
 C1347 C -0.07888 0.69509 0.21912
 C1348 C -0.06644 0.70270 0.22625
 C1349 C -0.05683 0.71274 0.21784
 C1350 C -0.05938 0.71497 0.20170
 C1351 C -0.04968 0.72588 0.19393
 C1352 C -0.03787 0.73397 0.20186
 C1353 C -0.03522 0.73136 0.21771
 C1354 C -0.04473 0.72068 0.22560
 H1355 H -0.10699 0.68100 0.21668
 H1356 H -0.10980 0.68275 0.15923
 H1357 H -0.12811 0.66850 0.20357
 H1358 H -0.08696 0.69927 0.15810
 H1359 H -0.06602 0.71316 0.17023
 H1360 H -0.08560 0.68742 0.22645
 H1361 H -0.06445 0.70083 0.23856
 H1362 H -0.05114 0.72872 0.18182
 H1363 H -0.03076 0.74226 0.19552
 H1364 H -0.04293 0.71877 0.23793
 C1365 C -0.10082 0.19377 0.71018
 C1366 C -0.08860 0.20099 0.70179
 C1367 C -0.09030 0.20225 0.68545
 C1368 C -0.10328 0.19549 0.67784
 C1369 C -0.11508 0.18792 0.68633
 C1370 C -0.11380 0.18748 0.70258
 C1371 C -0.07909 0.21031 0.67682
 C1372 C -0.06643 0.21753 0.68410
 C1373 C -0.06415 0.21646 0.70033
 C1374 C -0.07498 0.20734 0.70916
 C1375 C -0.07168 0.20457 0.72500
 C1376 C -0.05867 0.21108 0.73219
 C1377 C -0.04864 0.22094 0.72404
 C1378 C -0.05128 0.22396 0.70804
 C1379 C -0.04115 0.23471 0.70058
 C1380 C -0.02897 0.24202 0.70872
 C1381 C -0.02629 0.23867 0.72443
 C1382 C -0.03609 0.22797 0.73194
 H1383 H -0.10099 0.19324 0.72269
 H1384 H -0.10410 0.19607 0.66528
 H1385 H -0.12303 0.18246 0.70959
 H1386 H -0.08026 0.21128 0.66431
 H1387 H -0.05832 0.22352 0.67660
 H1388 H -0.07873 0.19697 0.73210
 H1389 H -0.05659 0.20858 0.74437
 H1390 H -0.04264 0.23810 0.68862
 H1391 H -0.02162 0.25036 0.70270
 H1392 H -0.03428 0.22553 0.74418
 C1393 C 0.28622 0.39516 0.30657
 C1394 C 0.29446 0.40788 0.30004
 C1395 C 0.31103 0.40664 0.29901
 C1396 C 0.31898 0.39368 0.30550
 C1397 C 0.31061 0.38165 0.31281
 C1398 C 0.29417 0.38234 0.31280
 C1399 C 0.31956 0.41841 0.29168
 C1400 C 0.31201 0.43136 0.28523
 C1401 C 0.29557 0.43333 0.28633
 C1402 C 0.28676 0.42167 0.29439
 C1403 C 0.27062 0.42439 0.29701
 C1404 C 0.26317 0.43774 0.29147
 C1405 C 0.27137 0.44878 0.28284
 C1406 C 0.28764 0.44670 0.27992
 C1407 C 0.29516 0.45798 0.27048
 C1408 C 0.28684 0.47073 0.26435
 C1409 C 0.27087 0.47281 0.26759
 C1410 C 0.26326 0.46183 0.27696
 H1411 H 0.27359 0.39459 0.30683
 H1412 H 0.33169 0.39317 0.30523
 H1413 H 0.28736 0.37288 0.31771
 H1414 H 0.33223 0.41757 0.29084
 H1415 H 0.31949 0.43993 0.27986
 H1416 H 0.26343 0.41661 0.30376
 H1417 H 0.25077 0.43934 0.29385
 H1418 H 0.30735 0.45708 0.26726
 H1419 H 0.29296 0.47898 0.25700
 H1420 H 0.25082 0.46318 0.27929
 C1421 C 0.29957 -0.10410 0.81459
 C1422 C 0.30741 -0.09278 0.80557
 C1423 C 0.32363 -0.09509 0.80280
 C1424 C 0.33173 -0.10771 0.80967
 C1425 C 0.32395 -0.11856 0.81928
 C1426 C 0.30764 -0.11663 0.82125
 C1427 C 0.33175 -0.08469 0.79329
 C1428 C 0.32409 -0.07214 0.78628
 C1429 C 0.30797 -0.06921 0.78884
 C1430 C 0.29964 -0.07941 0.79907
 C1431 C 0.28392 -0.07569 0.80281
 C1432 C 0.27641 -0.06279 0.79640
 C1433 C 0.28411 -0.05318 0.78585
 C1434 C 0.29994 -0.05628 0.78174
 C1435 C 0.30694 -0.04638 0.77053
 C1436 C 0.29857 -0.03395 0.76389
 C1437 C 0.28304 -0.03085 0.76826
 C1438 C 0.27593 -0.04051 0.77930
 H1439 H 0.28707 -0.10389 0.81644
 H1440 H 0.34430 -0.10851 0.80797
 H1441 H 0.30073 -0.12513 0.82750
 H1442 H 0.34419 -0.08633 0.79114
 H1443 H 0.33129 -0.06468 0.77919
 H1444 H 0.27714 -0.08232 0.81102
 H1445 H 0.26435 -0.06039 0.79968
 H1446 H 0.31874 -0.04811 0.76638
 H1447 H 0.30431 -0.02673 0.75528
 H1448 H 0.26383 -0.03837 0.78262
 C1449 C 0.79227 0.38380 0.82419
 C1450 C 0.80066 0.39510 0.81558
 C1451 C 0.81691 0.39243 0.81335
 C1452 C 0.82438 0.37924 0.81984
 C1453 C 0.81596 0.36801 0.82846
 C1454 C 0.79974 0.37063 0.83044
 C1455 C 0.82573 0.40295 0.80463
 C1456 C 0.81872 0.41585 0.79764
 C1457 C 0.80252 0.41897 0.79932
 C1458 C 0.79346 0.40876 0.80893
 C1459 C 0.77757 0.41263 0.81168
 C1460 C 0.77061 0.42568 0.80489
 C1461 C 0.77905 0.43528 0.79486
 C1462 C 0.79510 0.43204 0.79182
 C1463 C 0.80293 0.44185 0.78110
 C1464 C 0.79513 0.45425 0.77380
 C1465 C 0.77932 0.45745 0.77697
 C1466 C 0.77140 0.44798 0.78767
 H1467 H 0.77978 0.38452 0.82596
 H1468 H 0.83696 0.37819 0.81850
 H1469 H 0.79239 0.36217 0.83623
 H1470 H 0.83822 0.40108 0.80300
 H1471 H 0.82645 0.42335 0.79117
 H1472 H 0.77018 0.40593 0.81929
 H1473 H 0.75837 0.42816 0.80736
 H1474 H 0.81498 0.44005 0.77775
 H1475 H 0.80152 0.46131 0.76553
 H1476 H 0.75911 0.45023 0.79008
 C1477 C 0.79218 -0.11129 0.32376
 C1478 C 0.80044 -0.10039 0.31455
 C1479 C 0.81651 -0.10348 0.31167
 C1480 C 0.82392 -0.11674 0.31800
 C1481 C 0.81561 -0.12767 0.32706
 C1482 C 0.79960 -0.12458 0.32985
 C1483 C 0.82521 -0.09334 0.30241
 C1484 C 0.81819 -0.08046 0.29542
 C1485 C 0.80213 -0.07700 0.29763
 C1486 C 0.79327 -0.08674 0.30788
 C1487 C 0.77760 -0.08242 0.31121
 C1488 C 0.77064 -0.06942 0.30433
 C1489 C 0.77883 -0.06036 0.29364
 C1490 C 0.79466 -0.06406 0.29001
 C1491 C 0.80221 -0.05485 0.27860
 C1492 C 0.79438 -0.04254 0.27123
 C1493 C 0.77882 -0.03885 0.27501
 C1494 C 0.77116 -0.04773 0.28635
 H1495 H 0.77981 -0.11020 0.32612
 H1496 H 0.83641 -0.11813 0.31613
 H1497 H 0.79234 -0.13276 0.33613
 H1498 H 0.83758 -0.09552 0.30033
 H1499 H 0.82582 -0.07325 0.28853
 H1500 H 0.77041 -0.08873 0.31932
 H1501 H 0.75858 -0.06658 0.30725
 H1502 H 0.81403 -0.05708 0.27475
 H1503 H 0.80055 -0.03592 0.26245
 H1504 H 0.75905 -0.04510 0.28923
 C1505 C 0.29978 0.61030 0.68048
 C1506 C 0.30782 0.59819 0.68847
 C1507 C 0.32438 0.59923 0.68961
 C1508 C 0.33246 0.61158 0.68247
 C1509 C 0.32431 0.62354 0.67465
 C1510 C 0.30790 0.62274 0.67381
 C1511 C 0.33280 0.58806 0.69803
 C1512 C 0.32512 0.57613 0.70587
 C1513 C 0.30864 0.57462 0.70518
 C1514 C 0.29995 0.58535 0.69568
 C1515 C 0.28374 0.58275 0.69353
 C1516 C 0.27613 0.57052 0.70089
 C1517 C 0.28423 0.56061 0.71098
 C1518 C 0.30055 0.56259 0.71348
 C1519 C 0.30799 0.55266 0.72446
 C1520 C 0.29956 0.54116 0.73237
 C1521 C 0.28354 0.53903 0.72948
 C1522 C 0.27598 0.54877 0.71871
 H1523 H 0.28718 0.61085 0.67967
 H1524 H 0.34515 0.61190 0.68312
 H1525 H 0.30120 0.63201 0.66830
 H1526 H 0.34548 0.58871 0.69884
 H1527 H 0.33251 0.56800 0.71209
 H1528 H 0.27662 0.58978 0.68585
 H1529 H 0.26368 0.56894 0.69883
 H1530 H 0.32020 0.55375 0.72753
 H1531 H 0.30563 0.53386 0.74075
 H1532 H 0.26351 0.54740 0.71660
 C1533 C 0.28824 1.10464 0.18358
 C1534 C 0.29645 1.09338 0.19244
 C1535 C 0.31227 1.09663 0.19634
 C1536 C 0.31977 1.11012 0.19054
 C1537 C 0.31172 1.12078 0.18082
 C1538 C 0.29568 1.11793 0.17796
 C1539 C 0.32055 1.08630 0.20592
 C1540 C 0.31343 1.07293 0.21184
 C1541 C 0.29777 1.06905 0.20804
 C1542 C 0.28935 1.07919 0.19772
 C1543 C 0.27426 1.07463 0.19268
 C1544 C 0.26732 1.06099 0.19799
 C1545 C 0.27499 1.05140 0.20867
 C1546 C 0.29028 1.05528 0.21397
 C1547 C 0.29727 1.04529 0.22517
 C1548 C 0.28938 1.03211 0.23075
 C1549 C 0.27436 1.02831 0.22530
 C1550 C 0.26731 1.03798 0.21415
 H1551 H 0.27588 1.10377 0.18109
 H1552 H 0.33209 1.11178 0.19311
 H1553 H 0.28844 1.12629 0.17177
 H1554 H 0.33266 1.08864 0.20898
 H1555 H 0.32070 1.06561 0.21909
 H1556 H 0.26758 1.08116 0.18424
 H1557 H 0.25572 1.05799 0.19375
 H1558 H 0.30866 1.04751 0.23014
 H1559 H 0.29508 1.02489 0.23944
 H1560 H 0.25562 1.03528 0.20997
 C1561 C 0.81565 0.59859 0.20661
 C1562 C 0.80581 0.58751 0.19932
 C1563 C 0.80181 0.59008 0.18354
 C1564 C 0.80821 0.60280 0.17529
 C1565 C 0.81860 0.61341 0.18251
 C1566 C 0.82183 0.61116 0.19843
 C1567 C 0.79148 0.57990 0.17603
 C1568 C 0.78480 0.56738 0.18390
 C1569 C 0.78850 0.56426 0.19961
 C1570 C 0.79961 0.57419 0.20726
 C1571 C 0.80441 0.57031 0.22249
 C1572 C 0.79811 0.55762 0.23028
 C1573 C 0.78667 0.54832 0.22333
 C1574 C 0.78162 0.55148 0.20792
 C1575 C 0.76968 0.54182 0.20162
 C1576 C 0.76313 0.52968 0.21030
 C1577 C 0.76826 0.52663 0.22548
 C1578 C 0.78015 0.53594 0.23184
 H1579 H 0.81848 0.59818 0.21881
 H1580 H 0.80547 0.60390 0.16305
 H1581 H 0.82870 0.61951 0.20503
 H1582 H 0.78838 0.58172 0.16394
 H1583 H 0.77697 0.56013 0.17719
 H1584 H 0.81334 0.57669 0.22870
 H1585 H 0.80215 0.55514 0.24198
 H1586 H 0.76487 0.54353 0.19017
 H1587 H 0.75390 0.52270 0.20510
 H1588 H 0.78414 0.53380 0.24362
 C1589 C 0.81490 1.11782 0.71452
 C1590 C 0.80721 1.10520 0.70705
 C1591 C 0.80530 1.10598 0.69069
 C1592 C 0.81195 1.11837 0.68216
 C1593 C 0.82027 1.13035 0.68973
 C1594 C 0.82124 1.13011 0.70600
 C1595 C 0.79690 1.09433 0.68293
 C1596 C 0.79020 1.08197 0.69104
 C1597 C 0.79209 1.08046 0.70729
 C1598 C 0.80125 1.09197 0.71531
 C1599 C 0.80458 1.08963 0.73122
 C1600 C 0.79882 1.07676 0.73916
 C1601 C 0.78922 1.06588 0.73173
 C1602 C 0.78546 1.06766 0.71576
 C1603 C 0.77505 1.05662 0.70905
 C1604 C 0.76891 1.04430 0.71780
 C1605 C 0.77308 1.04241 0.73344
 C1606 C 0.78329 1.05324 0.74030
 H1607 H 0.81596 1.11873 0.72696
 H1608 H 0.81094 1.11847 0.66960
 H1609 H 0.82694 1.13955 0.71225
 H1610 H 0.79538 1.09482 0.67042
 H1611 H 0.78400 1.07345 0.68412
 H1612 H 0.81209 1.09731 0.73782
 H1613 H 0.80183 1.07540 0.75134
 H1614 H 0.77111 1.05738 0.69717
 H1615 H 0.76092 1.03616 0.71226
 H1616 H 0.78637 1.05203 0.75247
 C1617 C 0.70812 0.60225 0.31707
 C1618 C 0.70001 0.59018 0.30910
 C1619 C 0.68346 0.59146 0.30799
 C1620 C 0.67543 0.60386 0.31534
 C1621 C 0.68363 0.61547 0.32357
 C1622 C 0.70004 0.61462 0.32412
 C1623 C 0.67498 0.58033 0.29957
 C1624 C 0.68256 0.56802 0.29203
 C1625 C 0.69900 0.56608 0.29295
 C1626 C 0.70779 0.57704 0.30209
 C1627 C 0.72400 0.57431 0.30425
 C1628 C 0.73148 0.56157 0.29744
 C1629 C 0.72324 0.55119 0.28796
 C1630 C 0.70695 0.55335 0.28534
 C1631 C 0.69938 0.54275 0.27506
 C1632 C 0.70766 0.53043 0.26801
 C1633 C 0.72365 0.52816 0.27107
 C1634 C 0.73133 0.53862 0.28106
 H1635 H 0.72072 0.60271 0.31780
 H1636 H 0.66272 0.60434 0.31481
 H1637 H 0.70676 0.62370 0.32988
 H1638 H 0.66231 0.58122 0.29870
 H1639 H 0.67510 0.55993 0.28587
 H1640 H 0.73124 0.58159 0.31155
 H1641 H 0.74392 0.55989 0.29955
 H1642 H 0.68717 0.54381 0.27197
 H1643 H 0.70148 0.52259 0.26020
 H1644 H 0.74378 0.53715 0.28330
 C1645 C 0.66766 1.09694 0.80687
 C1646 C 0.68383 1.09394 0.80916
 C1647 C 0.69206 1.10405 0.81937
 C1648 C 0.68448 1.11693 0.82639
 C1649 C 0.66841 1.12008 0.82380
 C1650 C 0.66019 1.10966 0.81401
 C1651 C 0.70791 1.10138 0.82247
 C1652 C 0.71581 1.08878 0.81579
 C1653 C 0.70822 1.07842 0.80541
 C1654 C 0.69206 1.08127 0.80174
 C1655 C 0.68477 1.07159 0.79052
 C1656 C 0.69289 1.05951 0.78320
 C1657 C 0.70852 1.05635 0.78690
 C1658 C 0.71636 1.06554 0.79826
 C1659 C 0.73205 1.06139 0.80196
 C1660 C 0.73969 1.04910 0.79428
 C1661 C 0.73205 1.04047 0.78265
 C1662 C 0.71638 1.04409 0.77916
 H1663 H 0.66028 1.08948 0.79990
 H1664 H 0.69151 1.12481 0.83337
 H1665 H 0.64767 1.11078 0.81221
 H1666 H 0.71432 1.10909 0.83024
 H1667 H 0.72805 1.08773 0.81876
 H1668 H 0.67282 1.07327 0.78678
 H1669 H 0.68684 1.05254 0.77451
 H1670 H 0.73875 1.06731 0.81081
 H1671 H 0.75176 1.04650 0.79734
 H1672 H 0.71026 1.03738 0.77032
 C1673 C 0.18553 0.61145 0.78948
 C1674 C 0.19509 0.60074 0.79766
 C1675 C 0.19730 0.60335 0.81378
 C1676 C 0.18946 0.61574 0.82141
 C1677 C 0.17953 0.62612 0.81322
 C1678 C 0.17800 0.62380 0.79706
 C1679 C 0.20734 0.59359 0.82222
 C1680 C 0.21552 0.58149 0.81496
 C1681 C 0.21363 0.57835 0.79894
 C1682 C 0.20276 0.58775 0.79031
 C1683 C 0.19963 0.58368 0.77469
 C1684 C 0.20727 0.57125 0.76753
 C1685 C 0.21850 0.56250 0.77551
 C1686 C 0.22201 0.56595 0.79127
 C1687 C 0.23392 0.55694 0.79858
 C1688 C 0.24171 0.54490 0.79060
 C1689 C 0.23786 0.54138 0.77515
 C1690 C 0.22623 0.55026 0.76771
 H1691 H 0.18400 0.61099 0.77705
 H1692 H 0.19083 0.61679 0.83387
 H1693 H 0.17155 0.63194 0.78983
 H1694 H 0.20905 0.59545 0.83458
 H1695 H 0.22299 0.57452 0.82235
 H1696 H 0.19096 0.58963 0.76771
 H1697 H 0.20443 0.56853 0.75553
 H1698 H 0.23771 0.55906 0.81035
 H1699 H 0.25074 0.53828 0.79659
 H1700 H 0.22328 0.54778 0.75569
 C1701 C 0.20676 1.09483 0.31432
 C1702 C 0.19909 1.08367 0.30488
 C1703 C 0.18308 1.08638 0.30128
 C1704 C 0.17504 1.09942 0.30751
 C1705 C 0.18270 1.11037 0.31719
 C1706 C 0.19878 1.10782 0.32025
 C1707 C 0.17516 1.07608 0.29141
 C1708 C 0.18290 1.06345 0.28458
 C1709 C 0.19891 1.06035 0.28767
 C1710 C 0.20690 1.07018 0.29858
 C1711 C 0.22238 1.06612 0.30296
 C1712 C 0.23011 1.05342 0.29630
 C1713 C 0.22288 1.04440 0.28483
 C1714 C 0.20719 1.04771 0.28030
 C1715 C 0.20063 1.03849 0.26823
 C1716 C 0.20936 1.02668 0.26097
 C1717 C 0.22483 1.02348 0.26553
 C1718 C 0.23143 1.03224 0.27767
 H1719 H 0.21912 1.09421 0.31691
 H1720 H 0.16263 1.10059 0.30507
 H1721 H 0.20571 1.11625 0.32667
 H1722 H 0.16286 1.07795 0.28871
 H1723 H 0.17589 1.05612 0.27712
 H1724 H 0.22881 1.07238 0.31179
 H1725 H 0.24201 1.05082 0.29998
 H1726 H 0.18898 1.04041 0.26375
 H1727 H 0.20398 1.02011 0.25158
 H1728 H 0.24345 1.02997 0.28118
 C1729 C 0.68556 0.38691 0.71081
 C1730 C 0.69358 0.39929 0.70337
 C1731 C 0.69396 0.39923 0.68690
 C1732 C 0.68580 0.38775 0.67837
 C1733 C 0.67760 0.37574 0.68594
 C1734 C 0.67783 0.37537 0.70223
 C1735 C 0.70250 0.41061 0.67900
 C1736 C 0.71096 0.42192 0.68708
 C1737 C 0.71078 0.42263 0.70348
 C1738 C 0.70139 0.41154 0.71171
 C1739 C 0.69977 0.41332 0.72795
 C1740 C 0.70734 0.42526 0.73595
 C1741 C 0.71718 0.43565 0.72822
 C1742 C 0.71935 0.43431 0.71193
 C1743 C 0.73019 0.44462 0.70485
 C1744 C 0.73809 0.45600 0.71356
 C1745 C 0.73534 0.45764 0.72951
 C1746 C 0.72488 0.44739 0.73677
 H1747 H 0.68541 0.38554 0.72325
 H1748 H 0.68577 0.38829 0.66579
 H1749 H 0.67219 0.36594 0.70848
 H1750 H 0.70282 0.41068 0.66641
 H1751 H 0.71715 0.43032 0.68008
 H1752 H 0.69227 0.40594 0.73481
 H1753 H 0.70557 0.42627 0.74840
 H1754 H 0.73308 0.44398 0.69268
 H1755 H 0.74625 0.46370 0.70772
 H1756 H 0.72291 0.44838 0.74918
 C1757 C 0.71692 -0.11023 0.18126
 C1758 C 0.70876 -0.09829 0.18941
 C1759 C 0.69226 -0.09976 0.19085
 C1760 C 0.68432 -0.11233 0.18378
 C1761 C 0.69259 -0.12401 0.17563
 C1762 C 0.70897 -0.12284 0.17460
 C1763 C 0.68376 -0.08876 0.19947
 C1764 C 0.69131 -0.07657 0.20714
 C1765 C 0.70773 -0.07461 0.20612
 C1766 C 0.71647 -0.08521 0.19649
 C1767 C 0.73256 -0.08223 0.19405
 C1768 C 0.74004 -0.06975 0.20127
 C1769 C 0.73193 -0.05993 0.21147
 C1770 C 0.71570 -0.06229 0.21423
 C1771 C 0.70824 -0.05240 0.22526
 C1772 C 0.71655 -0.04062 0.23300
 C1773 C 0.73248 -0.03817 0.22992
 C1774 C 0.74006 -0.04783 0.21906
 H1775 H 0.72951 -0.11049 0.18025
 H1776 H 0.67165 -0.11301 0.18466
 H1777 H 0.71580 -0.13192 0.16890
 H1778 H 0.67112 -0.08973 0.20053
 H1779 H 0.68386 -0.06859 0.21352
 H1780 H 0.73969 -0.08915 0.18627
 H1781 H 0.75241 -0.06791 0.19899
 H1782 H 0.69611 -0.05370 0.22850
 H1783 H 0.71044 -0.03338 0.24144
 H1784 H 0.75245 -0.04618 0.21676
 C1785 C 0.17529 0.40151 0.20828
 C1786 C 0.18302 0.41377 0.20035
 C1787 C 0.18349 0.41301 0.18390
 C1788 C 0.17580 0.40088 0.17583
 C1789 C 0.16798 0.38894 0.18387
 C1790 C 0.16801 0.38934 0.20017
 C1791 C 0.19170 0.42432 0.17556
 C1792 C 0.19979 0.43620 0.18319
 C1793 C 0.19960 0.43755 0.19955
 C1794 C 0.19052 0.42653 0.20821
 C1795 C 0.18895 0.42882 0.22440
 C1796 C 0.19637 0.44113 0.23196
 C1797 C 0.20594 0.45145 0.22383
 C1798 C 0.20794 0.44972 0.20756
 C1799 C 0.21840 0.46012 0.20006
 C1800 C 0.22622 0.47186 0.20838
 C1801 C 0.22378 0.47376 0.22436
 C1802 C 0.21359 0.46349 0.23199
 H1803 H 0.17504 0.40068 0.22076
 H1804 H 0.17588 0.40082 0.16324
 H1805 H 0.16263 0.38002 0.20678
 H1806 H 0.19206 0.42387 0.16297
 H1807 H 0.20578 0.44445 0.17586
 H1808 H 0.18165 0.42153 0.23155
 H1809 H 0.19472 0.44247 0.24439
 H1810 H 0.22107 0.45930 0.18785
 H1811 H 0.23414 0.47955 0.20223
 H1812 H 0.21183 0.46468 0.24442
 C1813 C 0.19424 -0.10492 0.70657
 C1814 C 0.20158 -0.09244 0.69866
 C1815 C 0.20279 -0.09351 0.68225
 C1816 C 0.19589 -0.10610 0.67415
 C1817 C 0.18804 -0.11801 0.68219
 C1818 C 0.18766 -0.11742 0.69846
 C1819 C 0.21082 -0.08199 0.67403
 C1820 C 0.21791 -0.06952 0.68175
 C1821 C 0.21681 -0.06780 0.69805
 C1822 C 0.20794 -0.07911 0.70653
 C1823 C 0.20537 -0.07655 0.72255
 C1824 C 0.21172 -0.06372 0.73018
 C1825 C 0.22113 -0.05309 0.72229
 C1826 C 0.22400 -0.05500 0.70616
 C1827 C 0.23420 -0.04414 0.69895
 C1828 C 0.24105 -0.03193 0.70743
 C1829 C 0.23785 -0.03000 0.72328
 C1830 C 0.22779 -0.04059 0.73058
 H1831 H 0.19370 -0.10560 0.71906
 H1832 H 0.19643 -0.10649 0.66157
 H1833 H 0.18233 -0.12679 0.70505
 H1834 H 0.21178 -0.08269 0.66149
 H1835 H 0.22383 -0.06113 0.67451
 H1836 H 0.19806 -0.08403 0.72950
 H1837 H 0.20935 -0.06222 0.74248
 H1838 H 0.23743 -0.04498 0.68687
 H1839 H 0.24889 -0.02395 0.70153
 H1840 H 0.22543 -0.03936 0.74291
 C1841 C 0.28453 0.31838 0.38970
 C1842 C 0.29242 0.31053 0.40189
 C1843 C 0.30896 0.30893 0.40081
 C1844 C 0.31720 0.31571 0.38840
 C1845 C 0.30919 0.32367 0.37652
 C1846 C 0.29277 0.32471 0.37726
 C1847 C 0.31718 0.30046 0.41204
 C1848 C 0.30932 0.29309 0.42409
 C1849 C 0.29286 0.29434 0.42568
 C1850 C 0.28441 0.30389 0.41486
 C1851 C 0.26830 0.30673 0.41752
 C1852 C 0.26052 0.29992 0.42991
 C1853 C 0.26834 0.28971 0.43992
 C1854 C 0.28457 0.28657 0.43786
 C1855 C 0.29172 0.27548 0.44788
 C1856 C 0.28312 0.26808 0.45951
 C1857 C 0.26721 0.27158 0.46171
 C1858 C 0.25992 0.28249 0.45192
 H1859 H 0.27193 0.31936 0.38913
 H1860 H 0.32988 0.31478 0.38803
 H1861 H 0.28614 0.33018 0.36798
 H1862 H 0.32984 0.29927 0.41136
 H1863 H 0.31655 0.28680 0.43227
 H1864 H 0.26140 0.31456 0.41044
 H1865 H 0.24815 0.30249 0.43153
 H1866 H 0.30382 0.27193 0.44676
 H1867 H 0.28899 0.25959 0.46688
 H1868 H 0.24753 0.28508 0.45338
 C1869 C 0.32232 0.79746 -0.10505
 C1870 C 0.31315 0.80511 -0.09361
 C1871 C 0.31085 0.82153 -0.09502
 C1872 C 0.31833 0.82995 -0.10690
 C1873 C 0.32770 0.82219 -0.11795
 C1874 C 0.32933 0.80585 -0.11698
 C1875 C 0.30097 0.82940 -0.08464
 C1876 C 0.29299 0.82127 -0.07313
 C1877 C 0.29505 0.80495 -0.07117
 C1878 C 0.30591 0.79692 -0.08110
 C1879 C 0.30946 0.78105 -0.07803
 C1880 C 0.30214 0.77304 -0.06611
 C1881 C 0.29078 0.78039 -0.05699
 C1882 C 0.28687 0.79637 -0.05944
 C1883 C 0.27471 0.80295 -0.05022
 C1884 C 0.26703 0.79402 -0.03895
 C1885 C 0.27135 0.77837 -0.03639
 C1886 C 0.28327 0.77169 -0.04545
 H1887 H 0.32384 0.78492 -0.10546
 H1888 H 0.31684 0.84257 -0.10752
 H1889 H 0.33582 0.79936 -0.12572
 H1890 H 0.29917 0.84196 -0.08560
 H1891 H 0.28559 0.82821 -0.06562
 H1892 H 0.31825 0.77454 -0.08435
 H1893 H 0.30530 0.76087 -0.06414
 H1894 H 0.27060 0.81483 -0.05169
 H1895 H 0.25774 0.79940 -0.03218
 H1896 H 0.28652 0.75950 -0.04374
 C1897 C 0.81257 0.27918 -0.10026
 C1898 C 0.80472 0.28719 -0.08809
 C1899 C 0.80370 0.30378 -0.08903
 C1900 C 0.81074 0.31188 -0.10138
 C1901 C 0.81857 0.30376 -0.11329
 C1902 C 0.81929 0.28734 -0.11261
 C1903 C 0.79559 0.31224 -0.07769
 C1904 C 0.78805 0.30461 -0.06560
 C1905 C 0.78859 0.28812 -0.06416
 C1906 C 0.79762 0.27933 -0.07521
 C1907 C 0.79943 0.26302 -0.07288
 C1908 C 0.79228 0.25546 -0.06051
 C1909 C 0.78275 0.26371 -0.05014
 C1910 C 0.78058 0.28013 -0.05191
 C1911 C 0.77019 0.28780 -0.04151
 C1912 C 0.76252 0.27954 -0.02982
 C1913 C 0.76498 0.26340 -0.02792
 C1914 C 0.77521 0.25557 -0.03809
 H1915 H 0.81339 0.26658 -0.10085
 H1916 H 0.81017 0.32458 -0.10165
 H1917 H 0.82483 0.28067 -0.12184
 H1918 H 0.79488 0.32493 -0.07826
 H1919 H 0.78216 0.31208 -0.05733
 H1920 H 0.80663 0.25575 -0.08027
 H1921 H 0.79408 0.24294 -0.05917
 H1922 H 0.76739 0.30010 -0.04231
 H1923 H 0.75461 0.28588 -0.02219
 H1924 H 0.77702 0.24304 -0.03686
 C1925 C 0.81489 0.78245 0.39720
 C1926 C 0.80749 0.78996 0.40992
 C1927 C 0.80576 0.80650 0.40937
 C1928 C 0.81215 0.81513 0.39701
 C1929 C 0.81986 0.80751 0.38469
 C1930 C 0.82085 0.79108 0.38484
 C1931 C 0.79764 0.81434 0.42115
 C1932 C 0.79089 0.80611 0.43333
 C1933 C 0.79248 0.78965 0.43451
 C1934 C 0.80153 0.78157 0.42299
 C1935 C 0.80469 0.76544 0.42509
 C1936 C 0.79879 0.75734 0.43773
 C1937 C 0.78919 0.76483 0.44857
 C1938 C 0.78562 0.78102 0.44701
 C1939 C 0.77513 0.78780 0.45793
 C1940 C 0.76880 0.77890 0.46998
 C1941 C 0.77284 0.76306 0.47170
 C1942 C 0.78307 0.75613 0.46095
 H1943 H 0.81585 0.76989 0.39619
 H1944 H 0.81120 0.82781 0.39708
 H1945 H 0.82608 0.78475 0.37521
 H1946 H 0.79630 0.82699 0.42085
 H1947 H 0.78488 0.81307 0.44195
 H1948 H 0.81216 0.75878 0.41740
 H1949 H 0.80165 0.74499 0.43893
 H1950 H 0.77128 0.79983 0.45726
 H1951 H 0.76080 0.78448 0.47808
 H1952 H 0.78603 0.74379 0.46203
 C1953 C 0.66801 0.30825 0.59273
 C1954 C 0.68437 0.30620 0.59072
 C1955 C 0.69445 0.31280 0.60209
 C1956 C 0.68826 0.31996 0.61549
 C1957 C 0.67199 0.32124 0.61768
 C1958 C 0.66200 0.31568 0.60593
 C1959 C 0.71067 0.31204 0.60016
 C1960 C 0.71718 0.30493 0.58712
 C1961 C 0.70767 0.29776 0.57569
 C1962 C 0.69103 0.29788 0.57783
 C1963 C 0.68166 0.28916 0.56738
 C1964 C 0.68829 0.28071 0.55520
 C1965 C 0.70442 0.28102 0.55258
 C1966 C 0.71430 0.28997 0.56247
 C1967 C 0.73043 0.29079 0.55865
 C1968 C 0.73651 0.28247 0.54603
 C1969 C 0.72684 0.27296 0.53686
 C1970 C 0.71076 0.27237 0.54013
 H1971 H 0.65955 0.30448 0.58419
 H1972 H 0.69621 0.32418 0.62441
 H1973 H 0.64940 0.31707 0.60691
 H1974 H 0.71846 0.31705 0.60881
 H1975 H 0.72981 0.30467 0.58668
 H1976 H 0.66914 0.28810 0.56870
 H1977 H 0.68066 0.27391 0.54769
 H1978 H 0.73862 0.29796 0.56502
 H1979 H 0.74896 0.28326 0.54362
 H1980 H 0.70315 0.26527 0.53287
 C1981 C 0.71497 0.80584 1.10255
 C1982 C 0.70637 0.79842 1.09055
 C1983 C 0.68984 0.79750 1.09224
 C1984 C 0.68230 0.80462 1.10502
 C1985 C 0.69102 0.81245 1.11649
 C1986 C 0.70741 0.81267 1.11523
 C1987 C 0.68094 0.78952 1.08116
 C1988 C 0.68807 0.78217 1.06854
 C1989 C 0.70446 0.78290 1.06624
 C1990 C 0.71366 0.79169 1.07711
 C1991 C 0.72979 0.79377 1.07404
 C1992 C 0.73686 0.78700 1.06115
 C1993 C 0.72828 0.77768 1.05093
 C1994 C 0.71199 0.77534 1.05332
 C1995 C 0.70403 0.76529 1.04280
 C1996 C 0.71197 0.75797 1.03053
 C1997 C 0.72802 0.76054 1.02818
 C1998 C 0.73603 0.77053 1.03838
 H1999 H 0.72760 0.80628 1.10271
 H2000 H 0.66962 0.80425 1.10589
 H2001 H 0.71452 0.81804 1.12422
 H2002 H 0.66829 0.78879 1.08234
 H2003 H 0.68031 0.77631 1.06054
 H2004 H 0.73728 0.80093 1.08120
 H2005 H 0.74928 0.78895 1.05928
 H2006 H 0.69177 0.76250 1.04395
 H2007 H 0.70552 0.75021 1.02287
 H2008 H 0.74851 0.77244 1.03682
 C2009 C 0.16295 0.31675 1.09406
 C2010 C 0.17937 0.31548 1.09198
 C2011 C 0.18917 0.32280 1.10316
 C2012 C 0.18270 0.32999 1.11642
 C2013 C 0.16640 0.33053 1.11866
 C2014 C 0.15665 0.32418 1.10711
 C2015 C 0.20540 0.32279 1.10113
 C2016 C 0.21218 0.31574 1.08819
 C2017 C 0.20297 0.30791 1.07694
 C2018 C 0.18636 0.30727 1.07918
 C2019 C 0.17734 0.29799 1.06891
 C2020 C 0.18426 0.28975 1.05676
 C2021 C 0.20034 0.29078 1.05403
 C2022 C 0.20988 0.30023 1.06379
 C2023 C 0.22595 0.30163 1.05989
 C2024 C 0.23231 0.29347 1.04728
 C2025 C 0.22296 0.28354 1.03820
 C2026 C 0.20695 0.28233 1.04158
 H2027 H 0.15463 0.31239 1.08566
 H2028 H 0.19045 0.33486 1.12519
 H2029 H 0.14400 0.32498 1.10812
 H2030 H 0.21298 0.32836 1.10963
 H2031 H 0.22480 0.31612 1.08765
 H2032 H 0.16490 0.29635 1.07031
 H2033 H 0.17691 0.28254 1.04936
 H2034 H 0.23389 0.30914 1.06619
 H2035 H 0.24470 0.29473 1.04479
 H2036 H 0.19957 0.27490 1.03441
 C2037 C 0.21344 0.81190 0.60857
 C2038 C 0.20509 0.80528 0.59594
 C2039 C 0.18849 0.80490 0.59696
 C2040 C 0.18068 0.81186 0.60967
 C2041 C 0.18914 0.81893 0.62180
 C2042 C 0.20559 0.81852 0.62122
 C2043 C 0.17975 0.79767 0.58526
 C2044 C 0.18711 0.79058 0.57263
 C2045 C 0.20360 0.79085 0.57094
 C2046 C 0.21267 0.79887 0.58248
 C2047 C 0.22895 0.80060 0.57998
 C2048 C 0.23623 0.79433 0.56693
 C2049 C 0.22771 0.78576 0.55600
 C2050 C 0.21132 0.78364 0.55793
 C2051 C 0.20344 0.77415 0.54688
 C2052 C 0.21149 0.76729 0.53444
 C2053 C 0.22758 0.76979 0.53241
 C2054 C 0.23560 0.77914 0.54320
 H2055 H 0.22607 0.81186 0.60921
 H2056 H 0.16796 0.81200 0.60994
 H2057 H 0.21252 0.82327 0.63067
 H2058 H 0.16705 0.79737 0.58592
 H2059 H 0.17947 0.78536 0.56410
 H2060 H 0.23639 0.80717 0.58773
 H2061 H 0.24873 0.79607 0.56547
 H2062 H 0.19113 0.77144 0.54774
 H2063 H 0.20505 0.75999 0.52633
 H2064 H 0.24812 0.78091 0.54188
 C2065 C 0.32347 0.71102 0.60171
 C2066 C 0.31600 0.70270 0.58952
 C2067 C 0.31547 0.68612 0.59061
 C2068 C 0.32270 0.67832 0.60309
 C2069 C 0.32995 0.68675 0.61515
 C2070 C 0.33019 0.70317 0.61429
 C2071 C 0.30754 0.67740 0.57935
 C2072 C 0.29957 0.68478 0.56731
 C2073 C 0.29963 0.70126 0.56577
 C2074 C 0.30868 0.71028 0.57657
 C2075 C 0.31031 0.72653 0.57395
 C2076 C 0.30282 0.73385 0.56160
 C2077 C 0.29308 0.72541 0.55162
 C2078 C 0.29113 0.70903 0.55364
 C2079 C 0.28042 0.70123 0.54368
 C2080 C 0.27225 0.70937 0.53212
 C2081 C 0.27461 0.72544 0.52994
 C2082 C 0.28513 0.73336 0.53970
 H2083 H 0.32378 0.72364 0.60220
 H2084 H 0.32252 0.66562 0.60344
 H2085 H 0.33523 0.71009 0.62360
 H2086 H 0.30721 0.66470 0.58003
 H2087 H 0.29375 0.67718 0.55912
 H2088 H 0.31766 0.73390 0.58105
 H2089 H 0.30447 0.74635 0.56001
 H2090 H 0.27775 0.68895 0.54479
 H2091 H 0.26407 0.70302 0.52481
 H2092 H 0.28682 0.74588 0.53828
 C2093 C 0.28478 0.18869 1.10830
 C2094 C 0.29268 0.19690 1.09642
 C2095 C 0.30922 0.19825 1.09759
 C2096 C 0.31744 0.19092 1.10978
 C2097 C 0.30942 0.18253 1.12127
 C2098 C 0.29301 0.18171 1.12046
 C2099 C 0.31746 0.20698 1.08664
 C2100 C 0.30963 0.21472 1.07471
 C2101 C 0.29318 0.21365 1.07298
 C2102 C 0.28468 0.20404 1.08363
 C2103 C 0.26851 0.20162 1.08100
 C2104 C 0.26075 0.20879 1.06876
 C2105 C 0.26865 0.21888 1.05881
 C2106 C 0.28493 0.22165 1.06081
 C2107 C 0.29216 0.23252 1.05068
 C2108 C 0.28357 0.24006 1.03900
 C2109 C 0.26758 0.23695 1.03694
 C2110 C 0.26024 0.22629 1.04688
 H2111 H 0.27219 0.18780 1.10884
 H2112 H 0.33013 0.19171 1.11025
 H2113 H 0.28640 0.17588 1.12948
 H2114 H 0.33011 0.20802 1.08742
 H2115 H 0.31689 0.22117 1.06676
 H2116 H 0.26153 0.19387 1.08798
 H2117 H 0.24834 0.20652 1.06716
 H2118 H 0.30433 0.23572 1.05167
 H2119 H 0.28949 0.24835 1.03154
 H2120 H 0.24781 0.22395 1.04554
 C2121 C 0.80922 0.69927 1.10758
 C2122 C 0.80261 0.69084 1.09500
 C2123 C 0.80168 0.67430 1.09632
 C2124 C 0.80832 0.66656 1.10921
 C2125 C 0.81561 0.67509 1.12118
 C2126 C 0.81553 0.69151 1.12038
 C2127 C 0.79426 0.66558 1.08470
 C2128 C 0.78763 0.67292 1.07182
 C2129 C 0.78867 0.68932 1.06975
 C2130 C 0.79682 0.69832 1.08127
 C2131 C 0.79940 0.71440 1.07845
 C2132 C 0.79386 0.72159 1.06509
 C2133 C 0.78521 0.71319 1.05415
 C2134 C 0.78219 0.69701 1.05639
 C2135 C 0.77263 0.68933 1.04523
 C2136 C 0.76659 0.69740 1.03237
 C2137 C 0.77009 0.71325 1.03007
 C2138 C 0.77946 0.72102 1.04100
 H2139 H 0.80943 0.71190 1.10805
 H2140 H 0.80811 0.65386 1.10972
 H2141 H 0.82039 0.69848 1.12975
 H2142 H 0.79347 0.65293 1.08562
 H2143 H 0.78221 0.66531 1.06337
 H2144 H 0.80618 0.72172 1.08615
 H2145 H 0.79628 0.73394 1.06338
 H2146 H 0.76928 0.67721 1.04629
 H2147 H 0.75921 0.69119 1.02416
 H2148 H 0.78194 0.73340 1.03950
 C2149 C 0.81559 0.21409 0.61131
 C2150 C 0.80777 0.20525 0.59972
 C2151 C 0.80639 0.18886 0.60207
 C2152 C 0.81328 0.18166 0.61511
 C2153 C 0.82127 0.19056 0.62635
 C2154 C 0.82214 0.20686 0.62435
 C2155 C 0.79812 0.17969 0.59142
 C2156 C 0.79082 0.18646 0.57863
 C2157 C 0.79185 0.20272 0.57572
 C2158 C 0.80105 0.21214 0.58605
 C2159 C 0.80348 0.22804 0.58223
 C2160 C 0.79672 0.23468 0.56910
 C2161 C 0.78695 0.22591 0.55943
 C2162 C 0.78418 0.20985 0.56268
 C2163 C 0.77352 0.20172 0.55293
 C2164 C 0.76608 0.20924 0.54053
 C2165 C 0.76913 0.22500 0.53722
 C2166 C 0.77972 0.23322 0.54664
 H2167 H 0.81652 0.22668 0.61086
 H2168 H 0.81254 0.16904 0.61640
 H2169 H 0.82773 0.21417 0.63304
 H2170 H 0.79711 0.16714 0.59309
 H2171 H 0.78476 0.17850 0.57097
 H2172 H 0.81092 0.23564 0.58900
 H2173 H 0.79899 0.24692 0.56662
 H2174 H 0.77028 0.18968 0.55485
 H2175 H 0.75783 0.20266 0.53349
 H2176 H 0.78194 0.24551 0.54433
 C2177 C 0.68361 0.69736 0.40311
 C2178 C 0.69207 0.68903 0.41458
 C2179 C 0.69403 0.67263 0.41250
 C2180 C 0.68688 0.66489 0.39988
 C2181 C 0.67827 0.67333 0.38874
 C2182 C 0.67698 0.68966 0.39043
 C2183 C 0.70326 0.66410 0.42291
 C2184 C 0.71102 0.67157 0.43509
 C2185 C 0.70934 0.68786 0.43768
 C2186 C 0.69901 0.69653 0.42775
 C2187 C 0.69569 0.71233 0.43147
 C2188 C 0.70283 0.71969 0.44398
 C2189 C 0.71382 0.71176 0.45306
 C2190 C 0.71743 0.69579 0.44999
 C2191 C 0.72927 0.68859 0.45915
 C2192 C 0.73701 0.69694 0.47088
 C2193 C 0.73305 0.71259 0.47403
 C2194 C 0.72136 0.71986 0.46512
 H2195 H 0.68241 0.70995 0.40324
 H2196 H 0.68809 0.65228 0.39876
 H2197 H 0.67110 0.69668 0.38170
 H2198 H 0.70477 0.65155 0.42146
 H2199 H 0.71795 0.66415 0.44258
 H2200 H 0.68723 0.71926 0.42517
 H2201 H 0.69989 0.73185 0.44642
 H2202 H 0.73314 0.67669 0.45723
 H2203 H 0.74612 0.69111 0.47753
 H2204 H 0.71840 0.73206 0.46729
 C2205 C 0.67021 0.20477 -0.09977
 C2206 C 0.67779 0.19627 -0.08780
 C2207 C 0.67873 0.17972 -0.08942
 C2208 C 0.67182 0.17212 -0.10223
 C2209 C 0.66426 0.18074 -0.11393
 C2210 C 0.66365 0.19713 -0.11257
 C2211 C 0.68668 0.17083 -0.07833
 C2212 C 0.69420 0.17800 -0.06588
 C2213 C 0.69376 0.19444 -0.06380
 C2214 C 0.68479 0.20363 -0.07453
 C2215 C 0.68296 0.21984 -0.07153
 C2216 C 0.69019 0.22697 -0.05890
 C2217 C 0.69981 0.21837 -0.04893
 C2218 C 0.70187 0.20200 -0.05128
 C2219 C 0.71231 0.19398 -0.04121
 C2220 C 0.72027 0.20190 -0.02939
 C2221 C 0.71801 0.21802 -0.02703
 C2222 C 0.70761 0.22614 -0.03675
 H2223 H 0.66954 0.21740 -0.09986
 H2224 H 0.67234 0.15944 -0.10305
 H2225 H 0.65836 0.20419 -0.12163
 H2226 H 0.68732 0.15816 -0.07941
 H2227 H 0.70002 0.17023 -0.05785
 H2228 H 0.67569 0.22735 -0.07859
 H2229 H 0.68844 0.23945 -0.05709
 H2230 H 0.71499 0.18168 -0.04243
 H2231 H 0.72831 0.19535 -0.02209
 H2232 H 0.70594 0.23867 -0.03515
 C2233 C 0.17208 0.70101 -0.10030
 C2234 C 0.18844 0.70121 -0.09739
 C2235 C 0.19836 0.69360 -0.10830
 C2236 C 0.19211 0.68681 -0.12184
 C2237 C 0.17589 0.68691 -0.12467
 C2238 C 0.16598 0.69394 -0.11366
 C2239 C 0.21449 0.69279 -0.10569
 C2240 C 0.22106 0.69917 -0.09233
 C2241 C 0.21177 0.70703 -0.08116
 C2242 C 0.19527 0.70856 -0.08401
 C2243 C 0.18623 0.71772 -0.07361
 C2244 C 0.19299 0.72499 -0.06080
 C2245 C 0.20892 0.72312 -0.05755
 C2246 C 0.21849 0.71381 -0.06745
 C2247 C 0.23440 0.71163 -0.06312
 C2248 C 0.24059 0.71893 -0.04993
 C2249 C 0.23124 0.72870 -0.04064
 C2250 C 0.21535 0.73062 -0.04446
 H2251 H 0.16361 0.70587 -0.09232
 H2252 H 0.19999 0.68156 -0.13028
 H2253 H 0.15337 0.69381 -0.11524
 H2254 H 0.22214 0.68704 -0.11402
 H2255 H 0.23363 0.69814 -0.09135
 H2256 H 0.17389 0.71993 -0.07531
 H2257 H 0.18562 0.73211 -0.05329
 H2258 H 0.24234 0.70418 -0.06953
 H2259 H 0.25287 0.71711 -0.04716
 H2260 H 0.20793 0.73795 -0.03718
 C2261 C 0.20583 0.18179 0.38799
 C2262 C 0.19728 0.18958 0.39981
 C2263 C 0.18077 0.19078 0.39802
 C2264 C 0.17317 0.18343 0.38545
 C2265 C 0.18181 0.17517 0.37418
 C2266 C 0.19821 0.17479 0.37545
 C2267 C 0.17195 0.19928 0.40883
 C2268 C 0.17916 0.20685 0.42125
 C2269 C 0.19554 0.20578 0.42367
 C2270 C 0.20461 0.19641 0.41315
 C2271 C 0.22063 0.19380 0.41652
 C2272 C 0.22773 0.20058 0.42938
 C2273 C 0.21929 0.21052 0.43921
 C2274 C 0.20313 0.21348 0.43643
 C2275 C 0.19538 0.22429 0.44638
 C2276 C 0.20337 0.23163 0.45859
 C2277 C 0.21921 0.22830 0.46144
 C2278 C 0.22705 0.21764 0.45175
 H2279 H 0.21846 0.18121 0.38787
 H2280 H 0.16048 0.18394 0.38458
 H2281 H 0.20529 0.16915 0.36659
 H2282 H 0.15932 0.20023 0.40758
 H2283 H 0.17148 0.21310 0.42907
 H2284 H 0.22797 0.18614 0.40966
 H2285 H 0.24004 0.19817 0.43154
 H2286 H 0.18329 0.22766 0.44479
 H2287 H 0.19709 0.23996 0.46584
 H2288 H 0.23941 0.21521 0.45369
 C2289 C 0.28840 0.39868 0.68216
 C2290 C 0.29771 0.41002 0.68983
 C2291 C 0.31409 0.40719 0.69084
 C2292 C 0.32082 0.39394 0.68370
 C2293 C 0.31144 0.38296 0.67588
 C2294 C 0.29517 0.38541 0.67539
 C2295 C 0.32367 0.41756 0.69903
 C2296 C 0.31732 0.43049 0.70664
 C2297 C 0.30109 0.43385 0.70597
 C2298 C 0.29127 0.42387 0.69679
 C2299 C 0.27541 0.42821 0.69463
 C2300 C 0.26916 0.44148 0.70170
 C2301 C 0.27831 0.45074 0.71149
 C2302 C 0.29436 0.44700 0.71396
 C2303 C 0.30288 0.45638 0.72462
 C2304 C 0.29574 0.46898 0.73230
 C2305 C 0.28000 0.47278 0.72950
 C2306 C 0.27139 0.46366 0.71898
 H2307 H 0.27579 0.39944 0.68157
 H2308 H 0.33343 0.39224 0.68416
 H2309 H 0.28753 0.37687 0.66995
 H2310 H 0.33622 0.41552 0.69975
 H2311 H 0.32556 0.43791 0.71264
 H2312 H 0.26755 0.42180 0.68715
 H2313 H 0.25693 0.44438 0.69964
 H2314 H 0.31494 0.45405 0.72764
 H2315 H 0.30261 0.47579 0.74048
 H2316 H 0.25911 0.46636 0.71694
 C2317 C 0.32200 0.88865 0.20040
 C2318 C 0.31520 0.90174 0.19282
 C2319 C 0.31519 0.90177 0.17634
 C2320 C 0.32233 0.88949 0.16796
 C2321 C 0.32916 0.87669 0.17566
 C2322 C 0.32878 0.87638 0.19195
 C2323 C 0.30799 0.91400 0.16828
 C2324 C 0.30032 0.92601 0.17617
 C2325 C 0.29989 0.92649 0.19257
 C2326 C 0.30811 0.91457 0.20102
 C2327 C 0.30917 0.91601 0.21735
 C2328 C 0.30189 0.92827 0.22523
 C2329 C 0.29297 0.93938 0.21726
 C2330 C 0.29167 0.93859 0.20083
 C2331 C 0.28183 0.94972 0.19341
 C2332 C 0.27375 0.96110 0.20196
 C2333 C 0.27532 0.96196 0.21814
 C2334 C 0.28510 0.95116 0.22570
 H2335 H 0.32189 0.88729 0.21284
 H2336 H 0.32260 0.88998 0.15538
 H2337 H 0.33349 0.86644 0.19825
 H2338 H 0.30807 0.91417 0.15568
 H2339 H 0.29512 0.93500 0.16903
 H2340 H 0.31587 0.90799 0.22440
 H2341 H 0.30306 0.92890 0.23777
 H2342 H 0.27971 0.94967 0.18106
 H2343 H 0.26617 0.96926 0.19586
 H2344 H 0.28619 0.95158 0.23825
 C2345 C 0.80731 0.40468 0.17214
 C2346 C 0.80704 0.40743 0.18837
 C2347 C 0.81563 0.39696 0.19797
 C2348 C 0.82304 0.38367 0.19160
 C2349 C 0.82240 0.38063 0.17558
 C2350 C 0.81486 0.39153 0.16592
 C2351 C 0.81652 0.39961 0.21394
 C2352 C 0.80900 0.41240 0.22068
 C2353 C 0.79985 0.42288 0.21174
 C2354 C 0.79849 0.42009 0.19538
 C2355 C 0.78815 0.42964 0.18668
 C2356 C 0.77947 0.44154 0.19366
 C2357 C 0.78104 0.44473 0.20948
 C2358 C 0.79157 0.43576 0.21869
 C2359 C 0.79338 0.44011 0.23448
 C2360 C 0.78465 0.45240 0.24091
 C2361 C 0.77375 0.46071 0.23191
 C2362 C 0.77206 0.45687 0.21617
 H2363 H 0.80192 0.41253 0.16390
 H2364 H 0.82884 0.37538 0.19925
 H2365 H 0.81468 0.38983 0.15344
 H2366 H 0.82308 0.39167 0.22134
 H2367 H 0.81012 0.41339 0.23312
 H2368 H 0.78603 0.42785 0.17446
 H2369 H 0.77145 0.44836 0.18656
 H2370 H 0.80162 0.43444 0.24216
 H2371 H 0.78631 0.45526 0.25308
 H2372 H 0.76387 0.46346 0.20904
 C2373 C 0.79079 0.90362 0.68534
 C2374 C 0.79946 0.91527 0.69332
 C2375 C 0.81599 0.91339 0.69408
 C2376 C 0.82343 0.90076 0.68649
 C2377 C 0.81465 0.88949 0.67838
 C2378 C 0.79827 0.89101 0.67809
 C2379 C 0.82501 0.92410 0.70247
 C2380 C 0.81799 0.93647 0.71046
 C2381 C 0.80158 0.93889 0.71003
 C2382 C 0.79226 0.92848 0.70079
 C2383 C 0.77609 0.93177 0.69909
 C2384 C 0.76912 0.94439 0.70662
 C2385 C 0.77784 0.95411 0.71636
 C2386 C 0.79417 0.95148 0.71837
 C2387 C 0.80228 0.96141 0.72888
 C2388 C 0.79446 0.97340 0.73691
 C2389 C 0.77839 0.97604 0.73465
 C2390 C 0.77020 0.96639 0.72425
 H2391 H 0.77816 0.90364 0.68483
 H2392 H 0.83612 0.89977 0.68684
 H2393 H 0.79109 0.88222 0.67243
 H2394 H 0.83766 0.92280 0.70305
 H2395 H 0.82583 0.94419 0.71661
 H2396 H 0.76849 0.92498 0.69169
 H2397 H 0.75666 0.94645 0.70493
 H2398 H 0.81457 0.95999 0.73148
 H2399 H 0.80105 0.98062 0.74497
 H2400 H 0.75771 0.96817 0.72256
 C2401 C 0.69074 0.59887 0.71394
 C2402 C 0.69690 0.58558 0.70612
 C2403 C 0.69685 0.58576 0.68964
 C2404 C 0.69010 0.59838 0.68150
 C2405 C 0.68387 0.61141 0.68943
 C2406 C 0.68447 0.61153 0.70573
 C2407 C 0.70362 0.57339 0.68134
 C2408 C 0.71091 0.56103 0.68902
 C2409 C 0.71127 0.56029 0.70541
 C2410 C 0.70341 0.57234 0.71406
 C2411 C 0.70205 0.57058 0.73031
 C2412 C 0.70865 0.55781 0.73794
 C2413 C 0.71728 0.54655 0.72980
 C2414 C 0.71898 0.54775 0.71344
 C2415 C 0.72869 0.53658 0.70588
 C2416 C 0.73618 0.52467 0.71423
 C2417 C 0.73405 0.52331 0.73029
 C2418 C 0.72446 0.53420 0.73799
 H2419 H 0.69107 0.60008 0.72641
 H2420 H 0.68967 0.59796 0.66892
 H2421 H 0.68032 0.62161 0.71225
 H2422 H 0.70352 0.57338 0.66874
 H2423 H 0.71579 0.55194 0.68173
 H2424 H 0.69552 0.57869 0.73746
 H2425 H 0.70721 0.55690 0.75042
 H2426 H 0.73117 0.53700 0.69362
 H2427 H 0.74368 0.51646 0.70806
 H2428 H 0.72302 0.53339 0.75048
 C2429 C 0.68427 0.09992 0.21525
 C2430 C 0.69222 0.08794 0.20696
 C2431 C 0.69316 0.08936 0.19058
 C2432 C 0.68577 0.10191 0.18290
 C2433 C 0.67783 0.11364 0.19130
 C2434 C 0.67731 0.11253 0.20754
 C2435 C 0.70159 0.07833 0.18194
 C2436 C 0.70958 0.06615 0.18922
 C2437 C 0.70904 0.06424 0.20551
 C2438 C 0.69959 0.07486 0.21442
 C2439 C 0.69758 0.07191 0.23042
 C2440 C 0.70504 0.05940 0.23763
 C2441 C 0.71508 0.04954 0.22932
 C2442 C 0.71744 0.05190 0.21318
 C2443 C 0.72837 0.04199 0.20551
 C2444 C 0.73635 0.03016 0.21352
 C2445 C 0.73360 0.02767 0.22935
 C2446 C 0.72289 0.03739 0.23715
 H2447 H 0.68366 0.10023 0.22776
 H2448 H 0.68624 0.10253 0.17033
 H2449 H 0.67179 0.12165 0.21444
 H2450 H 0.70226 0.07927 0.16939
 H2451 H 0.71578 0.05815 0.18168
 H2452 H 0.68994 0.07885 0.23769
 H2453 H 0.70308 0.05756 0.24994
 H2454 H 0.73134 0.04333 0.19342
 H2455 H 0.74467 0.02287 0.20725
 H2456 H 0.72088 0.03571 0.24948
 C2457 C 0.20259 0.60926 0.17635
 C2458 C 0.19500 0.59823 0.18598
 C2459 C 0.17860 0.59996 0.18821
 C2460 C 0.17016 0.61178 0.18039
 C2461 C 0.17784 0.62231 0.17052
 C2462 C 0.19415 0.62104 0.16882
 C2463 C 0.17069 0.58989 0.19822
 C2464 C 0.17870 0.57820 0.20625
 C2465 C 0.19500 0.57584 0.20428
 C2466 C 0.20317 0.58570 0.19359
 C2467 C 0.21915 0.58251 0.19056
 C2468 C 0.22702 0.57040 0.19797
 C2469 C 0.21943 0.56111 0.20888
 C2470 C 0.20338 0.56376 0.21240
 C2471 C 0.19650 0.55425 0.22402
 C2472 C 0.20515 0.54250 0.23150
 C2473 C 0.22088 0.53973 0.22760
 C2474 C 0.22791 0.54913 0.21629
 H2475 H 0.21510 0.60938 0.17462
 H2476 H 0.15755 0.61264 0.18187
 H2477 H 0.20052 0.62935 0.16177
 H2478 H 0.15814 0.59112 0.19996
 H2479 H 0.17166 0.57092 0.21366
 H2480 H 0.22589 0.58892 0.18215
 H2481 H 0.23926 0.56834 0.19517
 H2482 H 0.18454 0.55574 0.22779
 H2483 H 0.19947 0.53548 0.24030
 H2484 H 0.24015 0.54726 0.21333
 C2485 C 0.21404 0.11121 0.68648
 C2486 C 0.20640 0.09862 0.69392
 C2487 C 0.18987 0.09959 0.69569
 C2488 C 0.18139 0.11225 0.68936
 C2489 C 0.18915 0.12435 0.68153
 C2490 C 0.20555 0.12380 0.68047
 C2491 C 0.18191 0.08791 0.70374
 C2492 C 0.19000 0.07541 0.71037
 C2493 C 0.20644 0.07383 0.70881
 C2494 C 0.21465 0.08529 0.69988
 C2495 C 0.23078 0.08287 0.69690
 C2496 C 0.23878 0.07007 0.70293
 C2497 C 0.23118 0.05931 0.71241
 C2498 C 0.21494 0.06106 0.71565
 C2499 C 0.20800 0.05010 0.72586
 C2500 C 0.21683 0.03795 0.73239
 C2501 C 0.23278 0.03617 0.72888
 C2502 C 0.23984 0.04685 0.71878
 H2503 H 0.22661 0.11193 0.68545
 H2504 H 0.16871 0.11258 0.69038
 H2505 H 0.21195 0.13328 0.67508
 H2506 H 0.16927 0.08852 0.70509
 H2507 H 0.18293 0.06690 0.71633
 H2508 H 0.23753 0.09049 0.68955
 H2509 H 0.25115 0.06870 0.70028
 H2510 H 0.19589 0.05081 0.72936
 H2511 H 0.21111 0.02989 0.74025
 H2512 H 0.25224 0.04571 0.71616
 C2513 C 0.30929 0.61622 0.28710
 C2514 C 0.30239 0.60368 0.29532
 C2515 C 0.30175 0.60484 0.31175
 C2516 C 0.30882 0.61755 0.31956
 C2517 C 0.31633 0.62945 0.31121
 C2518 C 0.31608 0.62881 0.29493
 C2519 C 0.29419 0.59324 0.32030
 C2520 C 0.28710 0.58057 0.31291
 C2521 C 0.28771 0.57872 0.29660
 C2522 C 0.29600 0.59017 0.28774
 C2523 C 0.29805 0.58754 0.27165
 C2524 C 0.29178 0.57446 0.26434
 C2525 C 0.28296 0.56363 0.27263
 C2526 C 0.28057 0.56565 0.28883
 C2527 C 0.27092 0.55460 0.29648
 C2528 C 0.26410 0.54213 0.28835
 C2529 C 0.26681 0.54008 0.27242
 C2530 C 0.27636 0.55084 0.26468
 H2531 H 0.30940 0.61683 0.27460
 H2532 H 0.30877 0.61796 0.33215
 H2533 H 0.32116 0.63817 0.28813
 H2534 H 0.29365 0.59402 0.33287
 H2535 H 0.28160 0.57213 0.32040
 H2536 H 0.30488 0.59517 0.26439
 H2537 H 0.29375 0.57291 0.25198
 H2538 H 0.26806 0.55548 0.30864
 H2539 H 0.25664 0.53405 0.29458
 H2540 H 0.27832 0.54952 0.25229
 C2541 C 0.28864 0.10827 0.82263
 C2542 C 0.29775 0.09626 0.81563
 C2543 C 0.31427 0.09816 0.81544
 C2544 C 0.32124 0.11133 0.82239
 C2545 C 0.31203 0.12329 0.82901
 C2546 C 0.29568 0.12155 0.82909
 C2547 C 0.32377 0.08706 0.80807
 C2548 C 0.31723 0.07445 0.80019
 C2549 C 0.30083 0.07219 0.79974
 C2550 C 0.29102 0.08273 0.80837
 C2551 C 0.27487 0.07932 0.80954
 C2552 C 0.26838 0.06649 0.80193
 C2553 C 0.27759 0.05684 0.79249
 C2554 C 0.29392 0.05964 0.79108
 C2555 C 0.30254 0.05006 0.78063
 C2556 C 0.29524 0.03819 0.77211
 C2557 C 0.27919 0.03528 0.77386
 C2558 C 0.27046 0.04454 0.78421
 H2559 H 0.27599 0.10809 0.82275
 H2560 H 0.33391 0.11234 0.82242
 H2561 H 0.28819 0.13072 0.83374
 H2562 H 0.33643 0.08834 0.80807
 H2563 H 0.32540 0.06643 0.79481
 H2564 H 0.26694 0.08618 0.81657
 H2565 H 0.25592 0.06432 0.80319
 H2566 H 0.31485 0.05178 0.77836
 H2567 H 0.30220 0.03126 0.76409
 H2568 H 0.25796 0.04253 0.78542
 C2569 C 0.83456 0.58637 0.80446
 C2570 C 0.81831 0.58297 0.80471
 C2571 C 0.80828 0.59375 0.81247
 C2572 C 0.81424 0.60776 0.81874
 C2573 C 0.83030 0.61123 0.81793
 C2574 C 0.84038 0.60020 0.81099
 C2575 C 0.79231 0.59059 0.81381
 C2576 C 0.78600 0.57690 0.80771
 C2577 C 0.79539 0.56593 0.79958
 C2578 C 0.81171 0.56927 0.79760
 C2579 C 0.82075 0.55911 0.78815
 C2580 C 0.81414 0.54612 0.78093
 C2581 C 0.79838 0.54242 0.78315
 C2582 C 0.78888 0.55199 0.79288
 C2583 C 0.77323 0.54716 0.79549
 C2584 C 0.76714 0.53390 0.78813
 C2585 C 0.77633 0.52500 0.77787
 C2586 C 0.79203 0.52923 0.77558
 H2587 H 0.84314 0.57847 0.79956
 H2588 H 0.80622 0.61614 0.82399
 H2589 H 0.85292 0.60220 0.81066
 H2590 H 0.78457 0.59879 0.81970
 H2591 H 0.77352 0.57554 0.80910
 H2592 H 0.83294 0.56119 0.78563
 H2593 H 0.82148 0.53886 0.77352
 H2594 H 0.76541 0.55326 0.80329
 H2595 H 0.75501 0.53080 0.79026
 H2596 H 0.79934 0.52225 0.76787
 C2597 C 0.79445 0.10220 0.31954
 C2598 C 0.80267 0.08934 0.31298
 C2599 C 0.81930 0.08986 0.31313
 C2600 C 0.82721 0.10233 0.32041
 C2601 C 0.81886 0.11486 0.32713
 C2602 C 0.80242 0.11471 0.32638
 C2603 C 0.82797 0.07795 0.30597
 C2604 C 0.82051 0.06571 0.29828
 C2605 C 0.80399 0.06459 0.29789
 C2606 C 0.79497 0.07619 0.30602
 C2607 C 0.77859 0.07407 0.30724
 C2608 C 0.77119 0.06137 0.30031
 C2609 C 0.77968 0.05053 0.29152
 C2610 C 0.79617 0.05210 0.28991
 C2611 C 0.80405 0.04127 0.28009
 C2612 C 0.79590 0.02931 0.27247
 C2613 C 0.77972 0.02757 0.27455
 C2614 C 0.77170 0.03818 0.28417
 H2615 H 0.78184 0.10320 0.31916
 H2616 H 0.83992 0.10218 0.32090
 H2617 H 0.79560 0.12446 0.33088
 H2618 H 0.84069 0.07821 0.30611
 H2619 H 0.82808 0.05698 0.29312
 H2620 H 0.77117 0.08182 0.31392
 H2621 H 0.75860 0.06017 0.30167
 H2622 H 0.81643 0.04199 0.27769
 H2623 H 0.80232 0.02133 0.26496
 H2624 H 0.75911 0.03709 0.28558
 C2625 C 0.67990 0.38946 0.29490
 C2626 C 0.68825 0.40162 0.30244
 C2627 C 0.69019 0.40058 0.31878
 C2628 C 0.68338 0.38821 0.32715
 C2629 C 0.67495 0.37636 0.31949
 C2630 C 0.67347 0.37710 0.30328
 C2631 C 0.69900 0.41182 0.32668
 C2632 C 0.70631 0.42390 0.31869
 C2633 C 0.70473 0.42549 0.30243
 C2634 C 0.69499 0.41454 0.29429
 C2635 C 0.69209 0.41702 0.27832
 C2636 C 0.69892 0.42937 0.27041
 C2637 C 0.70913 0.43960 0.27796
 C2638 C 0.71235 0.43778 0.29403
 C2639 C 0.72330 0.44818 0.30090
 C2640 C 0.73052 0.45992 0.29218
 C2641 C 0.72700 0.46181 0.27640
 C2642 C 0.71622 0.45162 0.26940
 H2643 H 0.67852 0.38886 0.28247
 H2644 H 0.68463 0.38785 0.33969
 H2645 H 0.66755 0.36786 0.29691
 H2646 H 0.70047 0.41116 0.33918
 H2647 H 0.71287 0.43207 0.32570
 H2648 H 0.68424 0.40980 0.27161
 H2649 H 0.69629 0.43081 0.25816
 H2650 H 0.72684 0.44735 0.31290
 H2651 H 0.73890 0.46756 0.29786
 H2652 H 0.71356 0.45283 0.25713
 C2653 C 0.69872 0.89497 0.79568
 C2654 C 0.70586 0.90722 0.80420
 C2655 C 0.70756 0.90526 0.82048
 C2656 C 0.70104 0.89212 0.82796
 C2657 C 0.69303 0.88063 0.81937
 C2658 C 0.69245 0.88199 0.80316
 C2659 C 0.71557 0.91653 0.82918
 C2660 C 0.72196 0.92970 0.82209
 C2661 C 0.72010 0.93243 0.80600
 C2662 C 0.71142 0.92125 0.79705
 C2663 C 0.70805 0.92469 0.78135
 C2664 C 0.71336 0.93833 0.77446
 C2665 C 0.72250 0.94895 0.78276
 C2666 C 0.72627 0.94612 0.79857
 C2667 C 0.73622 0.95704 0.80615
 C2668 C 0.74196 0.97020 0.79833
 C2669 C 0.73779 0.97306 0.78284
 C2670 C 0.72799 0.96239 0.77519
 H2671 H 0.69797 0.89491 0.78318
 H2672 H 0.70182 0.89107 0.84049
 H2673 H 0.68700 0.87294 0.79615
 H2674 H 0.71697 0.91514 0.84163
 H2675 H 0.72787 0.93786 0.82967
 H2676 H 0.70083 0.91730 0.77414
 H2677 H 0.71035 0.94052 0.76240
 H2678 H 0.74010 0.95554 0.81798
 H2679 H 0.74967 0.97819 0.80445
 H2680 H 0.72494 0.96432 0.76310
 C2681 C 0.21189 0.40549 0.82220
 C2682 C 0.20481 0.41780 0.81366
 C2683 C 0.18830 0.41735 0.81157
 C2684 C 0.17934 0.40536 0.81827
 C2685 C 0.18655 0.39333 0.82680
 C2686 C 0.20290 0.39350 0.82858
 C2687 C 0.18078 0.42882 0.80273
 C2688 C 0.18930 0.44052 0.79548
 C2689 C 0.20578 0.44143 0.79706
 C2690 C 0.21356 0.43032 0.80687
 C2691 C 0.22976 0.43223 0.80974
 C2692 C 0.23822 0.44419 0.80281
 C2693 C 0.23100 0.45451 0.79248
 C2694 C 0.21472 0.45320 0.78929
 C2695 C 0.20815 0.46353 0.77817
 C2696 C 0.21734 0.47471 0.77073
 C2697 C 0.23334 0.47613 0.77417
 C2698 C 0.24007 0.46605 0.78516
 H2699 H 0.22439 0.40450 0.82381
 H2700 H 0.16670 0.40545 0.81687
 H2701 H 0.20886 0.38413 0.83472
 H2702 H 0.16814 0.42862 0.80122
 H2703 H 0.18253 0.44893 0.78896
 H2704 H 0.23625 0.42483 0.81761
 H2705 H 0.25063 0.44520 0.80540
 H2706 H 0.19604 0.46303 0.77460
 H2707 H 0.21185 0.48230 0.76221
 H2708 H 0.25251 0.46691 0.78773
 C2709 C 0.21102 0.88402 0.30740
 C2710 C 0.20309 0.89604 0.29917
 C2711 C 0.18657 0.89485 0.29768
 C2712 C 0.17839 0.88259 0.30491
 C2713 C 0.18640 0.87094 0.31331
 C2714 C 0.20281 0.87172 0.31425
 C2715 C 0.17826 0.90589 0.28898
 C2716 C 0.18599 0.91801 0.28147
 C2717 C 0.20240 0.91985 0.28274
 C2718 C 0.21099 0.90904 0.29224
 C2719 C 0.22711 0.91182 0.29484
 C2720 C 0.23467 0.92450 0.28817
 C2721 C 0.22664 0.93471 0.27832
 C2722 C 0.21047 0.93239 0.27516
 C2723 C 0.20315 0.94265 0.26440
 C2724 C 0.21146 0.95490 0.25751
 C2725 C 0.22725 0.95746 0.26120
 C2726 C 0.23476 0.94726 0.27159
 H2727 H 0.22361 0.88352 0.30842
 H2728 H 0.16570 0.88225 0.30410
 H2729 H 0.20944 0.86264 0.32015
 H2730 H 0.16561 0.90509 0.28784
 H2731 H 0.17865 0.92606 0.27510
 H2732 H 0.23417 0.90464 0.30242
 H2733 H 0.24701 0.92626 0.29067
 H2734 H 0.19110 0.94136 0.26082
 H2735 H 0.20543 0.96252 0.24938
 H2736 H 0.24707 0.94897 0.27429
 C2737 C 0.38423 0.29394 0.68305
 C2738 C 0.39618 0.30266 0.69057
 C2739 C 0.39468 0.31923 0.69070
 C2740 C 0.38205 0.32661 0.68316
 C2741 C 0.37026 0.31781 0.67585
 C2742 C 0.37151 0.30141 0.67591
 C2743 C 0.40571 0.32840 0.69848
 C2744 C 0.41797 0.32150 0.70664
 C2745 C 0.41994 0.30505 0.70701
 C2746 C 0.40933 0.29553 0.69821
 C2747 C 0.41235 0.27926 0.69716
 C2748 C 0.42499 0.27244 0.70484
 C2749 C 0.43485 0.28142 0.71422
 C2750 C 0.43234 0.29782 0.71568
 C2751 C 0.44216 0.30622 0.72605
 C2752 C 0.45409 0.29867 0.73431
 C2753 C 0.45680 0.28257 0.73243
 C2754 C 0.44715 0.27402 0.72230
 H2755 H 0.38409 0.28130 0.68292
 H2756 H 0.38141 0.33931 0.68303
 H2757 H 0.36243 0.29425 0.67072
 H2758 H 0.40471 0.34108 0.69848
 H2759 H 0.42598 0.32945 0.71225
 H2760 H 0.40536 0.27148 0.69013
 H2761 H 0.42691 0.25991 0.70360
 H2762 H 0.44067 0.31856 0.72838
 H2763 H 0.46129 0.30550 0.74218
 H2764 H 0.44898 0.26149 0.72099
 C2765 C 0.40397 0.78956 0.17450
 C2766 C 0.41614 0.79744 0.18252
 C2767 C 0.41490 0.81396 0.18412
 C2768 C 0.40230 0.82217 0.17736
 C2769 C 0.39040 0.81418 0.16935
 C2770 C 0.39135 0.79780 0.16812
 C2771 C 0.42617 0.82220 0.19256
 C2772 C 0.43844 0.81439 0.19990
 C2773 C 0.44018 0.79795 0.19873
 C2774 C 0.42926 0.78944 0.18929
 C2775 C 0.43194 0.77328 0.18675
 C2776 C 0.44442 0.76552 0.19371
 C2777 C 0.45456 0.77342 0.20373
 C2778 C 0.45256 0.78971 0.20653
 C2779 C 0.46285 0.79695 0.21731
 C2780 C 0.47458 0.78834 0.22486
 C2781 C 0.47658 0.77232 0.22182
 C2782 C 0.46659 0.76498 0.21112
 H2783 H 0.40355 0.77698 0.17336
 H2784 H 0.40179 0.83484 0.17836
 H2785 H 0.38211 0.79122 0.16246
 H2786 H 0.42536 0.83485 0.19373
 H2787 H 0.44661 0.82166 0.20616
 H2788 H 0.42476 0.76630 0.17911
 H2789 H 0.44600 0.75310 0.19141
 H2790 H 0.46189 0.80914 0.22052
 H2791 H 0.48208 0.79427 0.23317
 H2792 H 0.46789 0.75252 0.20884
 C2793 C 0.90402 0.29850 0.17502
 C2794 C 0.90718 0.29964 0.19116
 C2795 C 0.89684 0.30893 0.20028
 C2796 C 0.88367 0.31619 0.19353
 C2797 C 0.88058 0.31474 0.17758
 C2798 C 0.89098 0.30593 0.16841
 C2799 C 0.89961 0.31090 0.21613
 C2800 C 0.91253 0.30399 0.22321
 C2801 C 0.92316 0.29452 0.21474
 C2802 C 0.92022 0.29197 0.19853
 C2803 C 0.93022 0.28161 0.19032
 C2804 C 0.94271 0.27410 0.19759
 C2805 C 0.94598 0.27677 0.21325
 C2806 C 0.93646 0.28723 0.22202
 C2807 C 0.94072 0.28997 0.23771
 C2808 C 0.95353 0.28229 0.24444
 C2809 C 0.96256 0.27158 0.23586
 C2810 C 0.95875 0.26897 0.22021
 H2811 H 0.91151 0.29217 0.16708
 H2812 H 0.87566 0.32283 0.20083
 H2813 H 0.88915 0.30490 0.15599
 H2814 H 0.89171 0.31794 0.22316
 H2815 H 0.91363 0.30604 0.23552
 H2816 H 0.92851 0.27873 0.17824
 H2817 H 0.94993 0.26611 0.19083
 H2818 H 0.93454 0.29811 0.24512
 H2819 H 0.95626 0.28466 0.25652
 H2820 H 0.96578 0.26087 0.21337
 C2821 C 0.88828 0.80065 0.68290
 C2822 C 0.90133 0.80876 0.68910
 C2823 C 0.90043 0.82536 0.68989
 C2824 C 0.88736 0.83341 0.68384
 C2825 C 0.87480 0.82519 0.67720
 C2826 C 0.87530 0.80875 0.67709
 C2827 C 0.91262 0.83387 0.69663
 C2828 C 0.92560 0.82628 0.70291
 C2829 C 0.92712 0.80977 0.70234
 C2830 C 0.91509 0.80094 0.69473
 C2831 C 0.91736 0.78464 0.69272
 C2832 C 0.93059 0.77708 0.69848
 C2833 C 0.94194 0.78536 0.70676
 C2834 C 0.94036 0.80180 0.70894
 C2835 C 0.95191 0.80948 0.71800
 C2836 C 0.96437 0.80114 0.72461
 C2837 C 0.96589 0.78495 0.72227
 C2838 C 0.95476 0.77717 0.71313
 H2839 H 0.88756 0.78804 0.68261
 H2840 H 0.88712 0.84613 0.68403
 H2841 H 0.86553 0.80206 0.67255
 H2842 H 0.91205 0.84657 0.69720
 H2843 H 0.93448 0.83377 0.70782
 H2844 H 0.90925 0.77736 0.68637
 H2845 H 0.93181 0.76455 0.69664
 H2846 H 0.95143 0.82183 0.72066
 H2847 H 0.97279 0.80741 0.73171
 H2848 H 0.95571 0.76458 0.71146
 C2849 C 0.58969 0.29984 0.32840
 C2850 C 0.58644 0.30034 0.31224
 C2851 C 0.59722 0.30839 0.30265
 C2852 C 0.61087 0.31505 0.30896
 C2853 C 0.61394 0.31447 0.32499
 C2854 C 0.60316 0.30683 0.33461
 C2855 C 0.59437 0.30981 0.28676
 C2856 C 0.58088 0.30366 0.28011
 C2857 C 0.56978 0.29545 0.28907
 C2858 C 0.57287 0.29329 0.30531
 C2859 C 0.56249 0.28386 0.31395
 C2860 C 0.54952 0.27686 0.30706
 C2861 C 0.54609 0.27927 0.29139
 C2862 C 0.55591 0.28892 0.28224
 C2863 C 0.55137 0.29165 0.26663
 C2864 C 0.53812 0.28448 0.26026
 C2865 C 0.52894 0.27432 0.26914
 C2866 C 0.53290 0.27194 0.28479
 H2867 H 0.58189 0.29449 0.33664
 H2868 H 0.61918 0.32067 0.30128
 H2869 H 0.60496 0.30647 0.34706
 H2870 H 0.60263 0.31589 0.27936
 H2871 H 0.57973 0.30518 0.26774
 H2872 H 0.56433 0.28124 0.32606
 H2873 H 0.54206 0.26949 0.31412
 H2874 H 0.55770 0.29939 0.25904
 H2875 H 0.53524 0.28667 0.24819
 H2876 H 0.52572 0.26431 0.29187
 C2877 C 0.61316 0.82022 0.79255
 C2878 C 0.60098 0.81218 0.80028
 C2879 C 0.60240 0.81011 0.81657
 C2880 C 0.61521 0.81646 0.82473
 C2881 C 0.62713 0.82450 0.81688
 C2882 C 0.62597 0.82616 0.80071
 C2883 C 0.59112 0.80155 0.82460
 C2884 C 0.57870 0.79455 0.81678
 C2885 C 0.57680 0.79620 0.80056
 C2886 C 0.58770 0.80579 0.79232
 C2887 C 0.58488 0.80886 0.77644
 C2888 C 0.57227 0.80223 0.76867
 C2889 C 0.56213 0.79205 0.77628
 C2890 C 0.56426 0.78875 0.79229
 C2891 C 0.55393 0.77784 0.79923
 C2892 C 0.54201 0.77069 0.79060
 C2893 C 0.53986 0.77424 0.77486
 C2894 C 0.54993 0.78503 0.76783
 H2895 H 0.61347 0.82166 0.78013
 H2896 H 0.61590 0.81507 0.83723
 H2897 H 0.63523 0.83178 0.79420
 H2898 H 0.59206 0.80002 0.83708
 H2899 H 0.57054 0.78815 0.82388
 H2900 H 0.59203 0.81668 0.76970
 H2901 H 0.57058 0.80494 0.75648
 H2902 H 0.55497 0.77426 0.81118
 H2903 H 0.53444 0.76231 0.79630
 H2904 H 0.54851 0.78773 0.75559
 C2905 C 0.11100 0.32753 0.79481
 C2906 C 0.09751 0.32118 0.80192
 C2907 C 0.09687 0.32126 0.81838
 C2908 C 0.10887 0.32826 0.82719
 C2909 C 0.12208 0.33475 0.81994
 C2910 C 0.12305 0.33407 0.80368
 C2911 C 0.08428 0.31427 0.82600
 C2912 C 0.07251 0.30677 0.81766
 C2913 C 0.07257 0.30643 0.80125
 C2914 C 0.08483 0.31447 0.79327
 C2915 C 0.08384 0.31585 0.77695
 C2916 C 0.07162 0.30909 0.76863
 C2917 C 0.06018 0.30029 0.77614
 C2918 C 0.06062 0.29857 0.79254
 C2919 C 0.04929 0.28871 0.79946
 C2920 C 0.03794 0.28113 0.79047
 C2921 C 0.03731 0.28331 0.77436
 C2922 C 0.04839 0.29301 0.76729
 H2923 H 0.11287 0.32717 0.78242
 H2924 H 0.10784 0.32871 0.83973
 H2925 H 0.13333 0.33838 0.79769
 H2926 H 0.08365 0.31437 0.83859
 H2927 H 0.06320 0.30173 0.82445
 H2928 H 0.09213 0.32251 0.77025
 H2929 H 0.07128 0.31055 0.75612
 H2930 H 0.04917 0.28621 0.81173
 H2931 H 0.02957 0.27356 0.79617
 H2932 H 0.04815 0.29449 0.75477
 C2933 C 0.10592 0.78911 0.30806
 C2934 C 0.09423 0.79787 0.30022
 C2935 C 0.09661 0.81423 0.29855
 C2936 C 0.10972 0.82153 0.30535
 C2937 C 0.12090 0.81272 0.31357
 C2938 C 0.11898 0.79643 0.31455
 C2939 C 0.08588 0.82324 0.29014
 C2940 C 0.07295 0.81634 0.28306
 C2941 C 0.06998 0.80012 0.28449
 C2942 C 0.08043 0.79088 0.29378
 C2943 C 0.07659 0.77505 0.29662
 C2944 C 0.06335 0.76827 0.29010
 C2945 C 0.05358 0.77682 0.28024
 C2946 C 0.05679 0.79283 0.27714
 C2947 C 0.04683 0.80073 0.26651
 C2948 C 0.03428 0.79303 0.25939
 C2949 C 0.03109 0.77730 0.26273
 C2950 C 0.04071 0.76933 0.27330
 H2951 H 0.10555 0.77653 0.30909
 H2952 H 0.11109 0.83413 0.30442
 H2953 H 0.12772 0.78921 0.32029
 H2954 H 0.08757 0.83577 0.28887
 H2955 H 0.06524 0.82417 0.27685
 H2956 H 0.08338 0.76763 0.30420
 H2957 H 0.06087 0.75608 0.29264
 H2958 H 0.04866 0.81273 0.26309
 H2959 H 0.02707 0.79943 0.25116
 H2960 H 0.03849 0.75707 0.27577
 C2961 C 0.61452 0.70344 0.68930
 C2962 C 0.60164 0.69662 0.69709
 C2963 C 0.60185 0.68013 0.69924
 C2964 C 0.61405 0.67090 0.69302
 C2965 C 0.62644 0.67783 0.68487
 C2966 C 0.62664 0.69419 0.68336
 C2967 C 0.58986 0.67291 0.70754
 C2968 C 0.57774 0.68170 0.71400
 C2969 C 0.57689 0.69814 0.71206
 C2970 C 0.58872 0.70562 0.70295
 C2971 C 0.58705 0.72177 0.69970
 C2972 C 0.57455 0.73045 0.70552
 C2973 C 0.56339 0.72352 0.71507
 C2974 C 0.56446 0.70732 0.71868
 C2975 C 0.55316 0.70109 0.72899
 C2976 C 0.54128 0.71053 0.73520
 C2977 C 0.54012 0.72642 0.73128
 C2978 C 0.55119 0.73281 0.72114
 H2979 H 0.61578 0.71592 0.68787
 H2980 H 0.61374 0.65826 0.69432
 H2981 H 0.63635 0.69995 0.67764
 H2982 H 0.58991 0.66031 0.70918
 H2983 H 0.56893 0.67516 0.72013
 H2984 H 0.59502 0.72803 0.69229
 H2985 H 0.57373 0.74280 0.70263
 H2986 H 0.55336 0.68907 0.73279
 H2987 H 0.53293 0.70532 0.74312
 H2988 H 0.55053 0.74517 0.71822
 C2989 C 0.60342 0.18348 0.21409
 C2990 C 0.59099 0.19033 0.20552
 C2991 C 0.59253 0.19091 0.18912
 C2992 C 0.60562 0.18409 0.18170
 C2993 C 0.61755 0.17686 0.19038
 C2994 C 0.61640 0.17691 0.20663
 C2995 C 0.58097 0.19823 0.18019
 C2996 C 0.56803 0.20528 0.18717
 C2997 C 0.56589 0.20495 0.20345
 C2998 C 0.57725 0.19682 0.21270
 C2999 C 0.57437 0.19516 0.22877
 C3000 C 0.56120 0.20175 0.23571
 C3001 C 0.55049 0.21049 0.22703
 C3002 C 0.55269 0.21234 0.21080
 C3003 C 0.54174 0.22184 0.20269
 C3004 C 0.52929 0.22916 0.21042
 C3005 C 0.52715 0.22716 0.22643
 C3006 C 0.53770 0.21762 0.23462
 H3007 H 0.60366 0.18326 0.22661
 H3008 H 0.60637 0.18420 0.16912
 H3009 H 0.62569 0.17194 0.21370
 H3010 H 0.58202 0.19866 0.16765
 H3011 H 0.55967 0.21060 0.17938
 H3012 H 0.58194 0.18850 0.23634
 H3013 H 0.55950 0.20015 0.24809
 H3014 H 0.54269 0.22426 0.19045
 H3015 H 0.52135 0.23655 0.20382
 H3016 H 0.53628 0.21617 0.24706
 C3017 C 0.10395 0.71082 0.17376
 C3018 C 0.09181 0.70334 0.18211
 C3019 C 0.09298 0.68688 0.18421
 C3020 C 0.10537 0.67830 0.17752
 C3021 C 0.11702 0.68585 0.16888
 C3022 C 0.11628 0.70220 0.16731
 C3023 C 0.08172 0.67901 0.19289
 C3024 C 0.06942 0.68711 0.19982
 C3025 C 0.06766 0.70350 0.19806
 C3026 C 0.07871 0.71165 0.18858
 C3027 C 0.07612 0.72775 0.18561
 C3028 C 0.06348 0.73575 0.19207
 C3029 C 0.05308 0.72817 0.20198
 C3030 C 0.05510 0.71199 0.20529
 C3031 C 0.04460 0.70506 0.21596
 C3032 C 0.03262 0.71381 0.22287
 C3033 C 0.03055 0.72971 0.21935
 C3034 C 0.04076 0.73679 0.20877
 H3035 H 0.10445 0.72334 0.17222
 H3036 H 0.10578 0.66566 0.17881
 H3037 H 0.12539 0.70841 0.16111
 H3038 H 0.08249 0.66641 0.19446
 H3039 H 0.06121 0.68006 0.20621
 H3040 H 0.08349 0.73449 0.17801
 H3041 H 0.06195 0.74808 0.18940
 H3042 H 0.04552 0.69300 0.21956
 H3043 H 0.02494 0.70806 0.23108
 H3044 H 0.03938 0.74916 0.20615
 C3045 C 0.11464 0.19378 0.71078
 C3046 C 0.10221 0.20129 0.70275
 C3047 C 0.10319 0.20206 0.68633
 C3048 C 0.11567 0.19480 0.67837
 C3049 C 0.12775 0.18712 0.68648
 C3050 C 0.12716 0.18691 0.70277
 C3051 C 0.09171 0.21008 0.67790
 C3052 C 0.07942 0.21770 0.68541
 C3053 C 0.07784 0.21720 0.70173
 C3054 C 0.08903 0.20827 0.71047
 C3055 C 0.08647 0.20629 0.72655
 C3056 C 0.07368 0.21314 0.73395
 C3057 C 0.06317 0.22260 0.72576
 C3058 C 0.06523 0.22504 0.70960
 C3059 C 0.05473 0.23548 0.70206
 C3060 C 0.04256 0.24282 0.71020
 C3061 C 0.04029 0.23990 0.72603
 C3062 C 0.05063 0.22973 0.73373
 H3063 H 0.11529 0.19336 0.72328
 H3064 H 0.11585 0.19503 0.66578
 H3065 H 0.13655 0.18161 0.70945
 H3066 H 0.09233 0.21064 0.66533
 H3067 H 0.07104 0.22352 0.67800
 H3068 H 0.09392 0.19908 0.73373
 H3069 H 0.07212 0.21116 0.74629
 H3070 H 0.05582 0.23853 0.68997
 H3071 H 0.03481 0.25076 0.70402
 H3072 H 0.04914 0.22764 0.74607
 C3073 C 0.39488 0.69177 0.28575
 C3074 C 0.40799 0.69809 0.29363
 C3075 C 0.40718 0.69932 0.31005
 C3076 C 0.39416 0.69342 0.31818
 C3077 C 0.38152 0.68664 0.31017
 C3078 C 0.38193 0.68624 0.29388
 C3079 C 0.41938 0.70641 0.31827
 C3080 C 0.43227 0.71257 0.31054
 C3081 C 0.43374 0.71140 0.29423
 C3082 C 0.42171 0.70343 0.28573
 C3083 C 0.42397 0.70067 0.26970
 C3084 C 0.43724 0.70598 0.26208
 C3085 C 0.44863 0.71457 0.26998
 C3086 C 0.44698 0.71765 0.28612
 C3087 C 0.45853 0.72710 0.29335
 C3088 C 0.47120 0.73300 0.28492
 C3089 C 0.47292 0.72952 0.26910
 C3090 C 0.46162 0.72022 0.26174
 H3091 H 0.39406 0.69129 0.27326
 H3092 H 0.39400 0.69394 0.33077
 H3093 H 0.37207 0.68174 0.28730
 H3094 H 0.41888 0.70738 0.33083
 H3095 H 0.44117 0.71778 0.31778
 H3096 H 0.41588 0.69398 0.26274
 H3097 H 0.43851 0.70348 0.24978
 H3098 H 0.45791 0.73051 0.30541
 H3099 H 0.47972 0.74029 0.29085
 H3100 H 0.46271 0.71770 0.24942
 C3101 C 0.38584 0.19116 0.79730
 C3102 C 0.39791 0.19940 0.80511
 C3103 C 0.39672 0.20101 0.82147
 C3104 C 0.38432 0.19402 0.82960
 C3105 C 0.37250 0.18579 0.82170
 C3106 C 0.37337 0.18457 0.80547
 C3107 C 0.40785 0.20970 0.82965
 C3108 C 0.41992 0.21728 0.82192
 C3109 C 0.42161 0.21607 0.80563
 C3110 C 0.41088 0.20636 0.79721
 C3111 C 0.41362 0.20371 0.78123
 C3112 C 0.42605 0.21075 0.77360
 C3113 C 0.43601 0.22103 0.78143
 C3114 C 0.43384 0.22405 0.79751
 C3115 C 0.44380 0.23522 0.80467
 C3116 C 0.45550 0.24280 0.79623
 C3117 C 0.45782 0.23941 0.78047
 C3118 C 0.44807 0.22844 0.77317
 H3119 H 0.38538 0.19001 0.78484
 H3120 H 0.38390 0.19499 0.84216
 H3121 H 0.36420 0.17877 0.79894
 H3122 H 0.40708 0.21089 0.84218
 H3123 H 0.42802 0.22369 0.82913
 H3124 H 0.40658 0.19586 0.77433
 H3125 H 0.42774 0.20830 0.76134
 H3126 H 0.44260 0.23868 0.81666
 H3127 H 0.46281 0.25134 0.80211
 H3128 H 0.44961 0.22594 0.76090
 C3129 C 0.89654 0.68642 0.78544
 C3130 C 0.90802 0.69564 0.79305
 C3131 C 0.90723 0.69680 0.80947
 C3132 C 0.89585 0.68845 0.81781
 C3133 C 0.88463 0.67924 0.81009
 C3134 C 0.88507 0.67846 0.79382
 C3135 C 0.91775 0.70636 0.81750
 C3136 C 0.92889 0.71509 0.80959
 C3137 C 0.93028 0.71425 0.79326
 C3138 C 0.92007 0.70389 0.78493
 C3139 C 0.92247 0.70184 0.76881
 C3140 C 0.93419 0.70983 0.76103
 C3141 C 0.94378 0.72046 0.76885
 C3142 C 0.94180 0.72312 0.78500
 C3143 C 0.95138 0.73465 0.79214
 C3144 C 0.96275 0.74271 0.78364
 C3145 C 0.96504 0.73949 0.76785
 C3146 C 0.95542 0.72842 0.76052
 H3147 H 0.89577 0.68546 0.77297
 H3148 H 0.89579 0.68912 0.83039
 H3149 H 0.87629 0.67192 0.78745
 H3150 H 0.91724 0.70726 0.83006
 H3151 H 0.93658 0.72209 0.81671
 H3152 H 0.91575 0.69373 0.76189
 H3153 H 0.93571 0.70772 0.74869
 H3154 H 0.95025 0.73790 0.80419
 H3155 H 0.96994 0.75134 0.78954
 H3156 H 0.95690 0.72605 0.74822
 C3157 C 0.91066 0.18491 0.33366
 C3158 C 0.91282 0.18628 0.31741
 C3159 C 0.90160 0.17904 0.30757
 C3160 C 0.88821 0.17188 0.31384
 C3161 C 0.88583 0.17139 0.32996
 C3162 C 0.89743 0.17759 0.33975
 C3163 C 0.90365 0.17922 0.29150
 C3164 C 0.91655 0.18651 0.28490
 C3165 C 0.92776 0.19440 0.29413
 C3166 C 0.92562 0.19464 0.31064
 C3167 C 0.93596 0.20374 0.31976
 C3168 C 0.94794 0.21235 0.31305
 C3169 C 0.95042 0.21193 0.29705
 C3170 C 0.94070 0.20258 0.28738
 C3171 C 0.94436 0.20189 0.27134
 C3172 C 0.95660 0.21073 0.26515
 C3173 C 0.96555 0.22061 0.27467
 C3174 C 0.96251 0.22099 0.29065
 H3175 H 0.91906 0.18920 0.34200
 H3176 H 0.87939 0.16712 0.30607
 H3177 H 0.89627 0.17684 0.35226
 H3178 H 0.89514 0.17366 0.28390
 H3179 H 0.91707 0.18627 0.27239
 H3180 H 0.93474 0.20498 0.33216
 H3181 H 0.95535 0.21946 0.32050
 H3182 H 0.93810 0.19453 0.26326
 H3183 H 0.95884 0.21008 0.25277
 H3184 H 0.96959 0.22837 0.29816
 C3185 C 0.28402 0.31729 0.60021
 C3186 C 0.29204 0.30958 0.58800
 C3187 C 0.30854 0.30776 0.58940
 C3188 C 0.31663 0.31424 0.60213
 C3189 C 0.30850 0.32220 0.61395
 C3190 C 0.29211 0.32339 0.61293
 C3191 C 0.31687 0.29942 0.57812
 C3192 C 0.30915 0.29243 0.56567
 C3193 C 0.29275 0.29394 0.56374
 C3194 C 0.28420 0.30332 0.57466
 C3195 C 0.26817 0.30640 0.57175
 C3196 C 0.26053 0.29994 0.55901
 C3197 C 0.26843 0.28987 0.54887
 C3198 C 0.28460 0.28656 0.55114
 C3199 C 0.29183 0.27566 0.54093
 C3200 C 0.28332 0.26850 0.52900
 C3201 C 0.26744 0.27207 0.52669
 C3202 C 0.26011 0.28291 0.53658
 H3203 H 0.27142 0.31840 0.60055
 H3204 H 0.32929 0.31318 0.60275
 H3205 H 0.28540 0.32888 0.62216
 H3206 H 0.32950 0.29806 0.57905
 H3207 H 0.31648 0.28624 0.55748
 H3208 H 0.26122 0.31413 0.57892
 H3209 H 0.24822 0.30265 0.55724
 H3210 H 0.30390 0.27203 0.54212
 H3211 H 0.28923 0.26007 0.52156
 H3212 H 0.24774 0.28555 0.53502
 C3213 C 0.33147 0.80843 0.08287
 C3214 C 0.31498 0.80697 0.08149
 C3215 C 0.30559 0.81367 0.09338
 C3216 C 0.31255 0.82049 0.10658
 C3217 C 0.32893 0.82116 0.10811
 C3218 C 0.33825 0.81541 0.09593
 C3219 C 0.28927 0.81335 0.09217
 C3220 C 0.28200 0.80653 0.07939
 C3221 C 0.29079 0.79929 0.06743
 C3222 C 0.30755 0.79910 0.06874
 C3223 C 0.31629 0.79059 0.05759
 C3224 C 0.30898 0.78265 0.04550
 C3225 C 0.29273 0.78316 0.04376
 C3226 C 0.28339 0.79179 0.05444
 C3227 C 0.26702 0.79257 0.05160
 C3228 C 0.26026 0.78464 0.03904
 C3229 C 0.26951 0.77559 0.02897
 C3230 C 0.28576 0.77499 0.03136
 H3231 H 0.33948 0.80451 0.07398
 H3232 H 0.30516 0.82489 0.11588
 H3233 H 0.35091 0.81629 0.09647
 H3234 H 0.28202 0.81847 0.10122
 H3235 H 0.26936 0.80665 0.07951
 H3236 H 0.32886 0.78935 0.05817
 H3237 H 0.31617 0.77605 0.03738
 H3238 H 0.25911 0.79938 0.05871
 H3239 H 0.24768 0.78543 0.03734
 H3240 H 0.29306 0.76825 0.02344
 C3241 C 0.78753 0.30678 0.11033
 C3242 C 0.79490 0.29891 0.09779
 C3243 C 0.81148 0.29739 0.09821
 C3244 C 0.82024 0.30433 0.11025
 C3245 C 0.81276 0.31259 0.12227
 C3246 C 0.79633 0.31345 0.12231
 C3247 C 0.81927 0.28907 0.08656
 C3248 C 0.81098 0.28198 0.07455
 C3249 C 0.79448 0.28326 0.07349
 C3250 C 0.78638 0.29238 0.08497
 C3251 C 0.77011 0.29499 0.08306
 C3252 C 0.76192 0.28854 0.07065
 C3253 C 0.76948 0.27896 0.05983
 C3254 C 0.78582 0.27597 0.06118
 C3255 C 0.79274 0.26555 0.05029
 C3256 C 0.78381 0.25859 0.03856
 C3257 C 0.76776 0.26187 0.03712
 C3258 C 0.76069 0.27217 0.04773
 H3259 H 0.77497 0.30776 0.11142
 H3260 H 0.83294 0.30355 0.11006
 H3261 H 0.79018 0.31927 0.13172
 H3262 H 0.83195 0.28793 0.08676
 H3263 H 0.81796 0.27591 0.06600
 H3264 H 0.76337 0.30235 0.09078
 H3265 H 0.74946 0.29096 0.06962
 H3266 H 0.80492 0.26217 0.05073
 H3267 H 0.78953 0.25057 0.03056
 H3268 H 0.74820 0.27457 0.04686
 C3269 C 0.79003 0.82134 0.60229
 C3270 C 0.79860 0.81273 0.59102
 C3271 C 0.81520 0.81276 0.59216
 C3272 C 0.82274 0.82128 0.60397
 C3273 C 0.81407 0.82939 0.61531
 C3274 C 0.79766 0.82941 0.61423
 C3275 C 0.82421 0.80400 0.58174
 C3276 C 0.81712 0.79461 0.57057
 C3277 C 0.80063 0.79388 0.56914
 C3278 C 0.79126 0.80371 0.57899
 C3279 C 0.77490 0.80426 0.57645
 C3280 C 0.76783 0.79505 0.56515
 C3281 C 0.77668 0.78468 0.55614
 C3282 C 0.79318 0.78379 0.55806
 C3283 C 0.80147 0.77254 0.54904
 C3284 C 0.79367 0.76289 0.53842
 C3285 C 0.77742 0.76416 0.53633
 C3286 C 0.76902 0.77511 0.54524
 H3287 H 0.77740 0.82157 0.60265
 H3288 H 0.83546 0.82132 0.60450
 H3289 H 0.79058 0.83522 0.62299
 H3290 H 0.83691 0.80413 0.58244
 H3291 H 0.82495 0.78822 0.56301
 H3292 H 0.76719 0.81197 0.58283
 H3293 H 0.75522 0.79589 0.56360
 H3294 H 0.81393 0.77065 0.55015
 H3295 H 0.80043 0.75445 0.53175
 H3296 H 0.75639 0.77606 0.54387
 C3297 C 0.31620 0.71502 0.38821
 C3298 C 0.30914 0.70641 0.40035
 C3299 C 0.30799 0.68992 0.39844
 C3300 C 0.31422 0.68247 0.38519
 C3301 C 0.32134 0.69116 0.37334
 C3302 C 0.32212 0.70752 0.37498
 C3303 C 0.30060 0.68091 0.40973
 C3304 C 0.29391 0.68790 0.42275
 C3305 C 0.29462 0.70427 0.42519
 C3306 C 0.30295 0.71359 0.41415
 C3307 C 0.30500 0.72971 0.41739
 C3308 C 0.29869 0.73662 0.43065
 C3309 C 0.28977 0.72790 0.44105
 C3310 C 0.28744 0.71163 0.43841
 C3311 C 0.27768 0.70349 0.44893
 C3312 C 0.27064 0.71119 0.46147
 C3313 C 0.27318 0.72719 0.46415
 C3314 C 0.28294 0.73544 0.45397
 H3315 H 0.31701 0.72763 0.38835
 H3316 H 0.31361 0.66981 0.38420
 H3317 H 0.32713 0.71464 0.36587
 H3318 H 0.29980 0.66828 0.40841
 H3319 H 0.28853 0.68002 0.43090
 H3320 H 0.31174 0.73732 0.41002
 H3321 H 0.30061 0.74903 0.43264
 H3322 H 0.27482 0.69127 0.44757
 H3323 H 0.26308 0.70455 0.46910
 H3324 H 0.28478 0.74789 0.45581
 C3325 C 0.30554 0.21582 0.89678
 C3326 C 0.29903 0.20808 0.90977
 C3327 C 0.29888 0.19145 0.90957
 C3328 C 0.30581 0.18307 0.89725
 C3329 C 0.31251 0.19094 0.88460
 C3330 C 0.31207 0.20738 0.88446
 C3331 C 0.29178 0.18325 0.92165
 C3332 C 0.28449 0.19119 0.93381
 C3333 C 0.28444 0.20773 0.93462
 C3334 C 0.29244 0.21627 0.92276
 C3335 C 0.29392 0.23268 0.92446
 C3336 C 0.28739 0.24057 0.93702
 C3337 C 0.27880 0.23254 0.94820
 C3338 C 0.27693 0.21605 0.94707
 C3339 C 0.26739 0.20865 0.95834
 C3340 C 0.26033 0.21728 0.97029
 C3341 C 0.26266 0.23347 0.97155
 C3342 C 0.27196 0.24100 0.96047
 H3343 H 0.30538 0.22839 0.89555
 H3344 H 0.30606 0.17036 0.89759
 H3345 H 0.31658 0.21383 0.87462
 H3346 H 0.29168 0.17054 0.92162
 H3347 H 0.27936 0.18395 0.94267
 H3348 H 0.30049 0.23978 0.91646
 H3349 H 0.28894 0.25316 0.93789
 H3350 H 0.26484 0.19629 0.95804
 H3351 H 0.25306 0.21121 0.97864
 H3352 H 0.27360 0.25360 0.96118
 C3353 C 0.81893 0.70185 0.88829
 C3354 C 0.81315 0.69333 0.90111
 C3355 C 0.81368 0.67672 0.90025
 C3356 C 0.82071 0.66913 0.88748
 C3357 C 0.82673 0.67778 0.87498
 C3358 C 0.82546 0.69420 0.87547
 C3359 C 0.80714 0.66777 0.91212
 C3360 C 0.79965 0.67492 0.92463
 C3361 C 0.79891 0.69142 0.92606
 C3362 C 0.80653 0.70072 0.91455
 C3363 C 0.80761 0.71707 0.91701
 C3364 C 0.80090 0.72419 0.92994
 C3365 C 0.79242 0.71543 0.94066
 C3366 C 0.79104 0.69895 0.93876
 C3367 C 0.78146 0.69077 0.94943
 C3368 C 0.77373 0.69868 0.96146
 C3369 C 0.77555 0.71486 0.96348
 C3370 C 0.78506 0.72314 0.95314
 H3371 H 0.81811 0.71445 0.88756
 H3372 H 0.82156 0.65645 0.88737
 H3373 H 0.82933 0.70125 0.86578
 H3374 H 0.80758 0.65507 0.91160
 H3375 H 0.79494 0.66717 0.93329
 H3376 H 0.81403 0.72467 0.90934
 H3377 H 0.80211 0.73676 0.93139
 H3378 H 0.77924 0.67837 0.94847
 H3379 H 0.76628 0.69208 0.96924
 H3380 H 0.78623 0.73574 0.95445
 C3381 C 0.81470 0.20322 0.39984
 C3382 C 0.80623 0.19556 0.41171
 C3383 C 0.80461 0.17905 0.41061
 C3384 C 0.81197 0.17061 0.39857
 C3385 C 0.82064 0.17838 0.38709
 C3386 C 0.82169 0.19477 0.38778
 C3387 C 0.79561 0.17104 0.42152
 C3388 C 0.78790 0.17907 0.43336
 C3389 C 0.78927 0.19549 0.43506
 C3390 C 0.79912 0.20376 0.42443
 C3391 C 0.80184 0.21987 0.42706
 C3392 C 0.79482 0.22779 0.43933
 C3393 C 0.78455 0.22010 0.44929
 C3394 C 0.78140 0.20391 0.44723
 C3395 C 0.77031 0.19694 0.45732
 C3396 C 0.76298 0.20567 0.46906
 C3397 C 0.76656 0.22153 0.47126
 C3398 C 0.77738 0.22864 0.46131
 H3399 H 0.81580 0.21579 0.39926
 H3400 H 0.81102 0.15794 0.39822
 H3401 H 0.82775 0.20120 0.37879
 H3402 H 0.79435 0.15840 0.42078
 H3403 H 0.78125 0.17197 0.44129
 H3404 H 0.80974 0.22668 0.42007
 H3405 H 0.79736 0.24014 0.44095
 H3406 H 0.76677 0.18486 0.45624
 H3407 H 0.75454 0.19994 0.47651
 H3408 H 0.78003 0.24100 0.46274
 C3409 C 0.70584 0.30938 0.39444
 C3410 C 0.69787 0.30291 0.40733
 C3411 C 0.68126 0.30232 0.40663
 C3412 C 0.67308 0.30866 0.39388
 C3413 C 0.68115 0.31535 0.38136
 C3414 C 0.69761 0.31542 0.38174
 C3415 C 0.67284 0.29542 0.41868
 C3416 C 0.68053 0.28878 0.43131
 C3417 C 0.69706 0.28909 0.43261
 C3418 C 0.70582 0.29684 0.42073
 C3419 C 0.72217 0.29852 0.42280
 C3420 C 0.72981 0.29243 0.43573
 C3421 C 0.72158 0.28410 0.44697
 C3422 C 0.70511 0.28211 0.44551
 C3423 C 0.69748 0.27292 0.45689
 C3424 C 0.70585 0.26614 0.46913
 C3425 C 0.72204 0.26840 0.47064
 C3426 C 0.72981 0.27754 0.45957
 H3427 H 0.71845 0.30964 0.39362
 H3428 H 0.66036 0.30856 0.39384
 H3429 H 0.70423 0.32002 0.37205
 H3430 H 0.66013 0.29501 0.41827
 H3431 H 0.67310 0.28380 0.44010
 H3432 H 0.72943 0.30486 0.41476
 H3433 H 0.74237 0.29409 0.43682
 H3434 H 0.68512 0.27035 0.45644
 H3435 H 0.69958 0.25904 0.47746
 H3436 H 0.74240 0.27914 0.46049
 C3437 C 0.69542 0.78751 0.88672
 C3438 C 0.70242 0.79433 0.90002
 C3439 C 0.70425 0.81087 0.90023
 C3440 C 0.69832 0.82013 0.88802
 C3441 C 0.69078 0.81319 0.87525
 C3442 C 0.68975 0.79679 0.87461
 C3443 C 0.71184 0.81810 0.91268
 C3444 C 0.71786 0.80931 0.92490
 C3445 C 0.71614 0.79283 0.92538
 C3446 C 0.70778 0.78531 0.91302
 C3447 C 0.70469 0.76909 0.91424
 C3448 C 0.70994 0.76041 0.92686
 C3449 C 0.71878 0.76740 0.93861
 C3450 C 0.72224 0.78365 0.93796
 C3451 C 0.73190 0.78996 0.94982
 C3452 C 0.73768 0.78054 0.96179
 C3453 C 0.73391 0.76459 0.96254
 C3454 C 0.72435 0.75812 0.95095
 H3455 H 0.69435 0.77502 0.88516
 H3456 H 0.69928 0.83279 0.88866
 H3457 H 0.68454 0.79103 0.86463
 H3458 H 0.71324 0.83074 0.91295
 H3459 H 0.72342 0.81588 0.93407
 H3460 H 0.69781 0.76278 0.90580
 H3461 H 0.70717 0.74802 0.92733
 H3462 H 0.73559 0.80203 0.94998
 H3463 H 0.74515 0.78582 0.97055
 H3464 H 0.72159 0.74571 0.95129
 C3465 C 0.18620 0.33934 0.91572
 C3466 C 0.18695 0.32292 0.91796
 C3467 C 0.17988 0.31320 0.90654
 C3468 C 0.17364 0.31970 0.89286
 C3469 C 0.17386 0.33596 0.89040
 C3470 C 0.17974 0.34568 0.90221
 C3471 C 0.17935 0.29701 0.90867
 C3472 C 0.18575 0.29017 0.92188
 C3473 C 0.19347 0.29926 0.93330
 C3474 C 0.19452 0.31584 0.93105
 C3475 C 0.20367 0.32471 0.94156
 C3476 C 0.21154 0.31765 0.95384
 C3477 C 0.21024 0.30159 0.95647
 C3478 C 0.20077 0.29223 0.94657
 C3479 C 0.19902 0.27619 0.95038
 C3480 C 0.20703 0.26965 0.96297
 C3481 C 0.21710 0.27878 0.97210
 C3482 C 0.21852 0.29480 0.96890
 H3483 H 0.19033 0.34762 0.92427
 H3484 H 0.16909 0.31199 0.88390
 H3485 H 0.17945 0.35832 0.90099
 H3486 H 0.17392 0.28951 0.90001
 H3487 H 0.18503 0.27758 0.92245
 H3488 H 0.20554 0.33712 0.94023
 H3489 H 0.21874 0.32488 0.96137
 H3490 H 0.19142 0.26841 0.94401
 H3491 H 0.20558 0.25727 0.96534
 H3492 H 0.22604 0.30201 0.97614
 C3493 C 0.18403 0.78830 0.39182
 C3494 C 0.19136 0.79662 0.40406
 C3495 C 0.19301 0.81308 0.40241
 C3496 C 0.18679 0.82085 0.38935
 C3497 C 0.17924 0.81242 0.37750
 C3498 C 0.17817 0.79607 0.37882
 C3499 C 0.20092 0.82170 0.41375
 C3500 C 0.20767 0.81430 0.42651
 C3501 C 0.20638 0.79793 0.42866
 C3502 C 0.19744 0.78909 0.41764
 C3503 C 0.19464 0.77308 0.42068
 C3504 C 0.20102 0.76572 0.43359
 C3505 C 0.21068 0.77390 0.44385
 C3506 C 0.21361 0.79010 0.44153
 C3507 C 0.22403 0.79763 0.45197
 C3508 C 0.23120 0.78937 0.46407
 C3509 C 0.22811 0.77342 0.46634
 C3510 C 0.21765 0.76582 0.45629
 H3511 H 0.18303 0.77570 0.39169
 H3512 H 0.18777 0.83349 0.38849
 H3513 H 0.17298 0.78913 0.36960
 H3514 H 0.20214 0.83430 0.41264
 H3515 H 0.21356 0.82184 0.43470
 H3516 H 0.18724 0.76591 0.41343
 H3517 H 0.19858 0.75339 0.43541
 H3518 H 0.22731 0.80976 0.45084
 H3519 H 0.23931 0.79551 0.47163
 H3520 H 0.21535 0.75342 0.45782
 C3521 C 0.67927 0.67735 0.59551
 C3522 C 0.69564 0.67894 0.59332
 C3523 C 0.70572 0.67235 0.60471
 C3524 C 0.69953 0.66568 0.61831
 C3525 C 0.68327 0.66520 0.62074
 C3526 C 0.67326 0.67063 0.60898
 C3527 C 0.72194 0.67275 0.60266
 C3528 C 0.72845 0.67972 0.58961
 C3529 C 0.71896 0.68703 0.57824
 C3530 C 0.70229 0.68695 0.58033
 C3531 C 0.69286 0.69543 0.56975
 C3532 C 0.69943 0.70372 0.55755
 C3533 C 0.71558 0.70359 0.55513
 C3534 C 0.72558 0.69491 0.56514
 C3535 C 0.74182 0.69455 0.56159
 C3536 C 0.74781 0.70297 0.54905
 C3537 C 0.73793 0.71211 0.53971
 C3538 C 0.72179 0.71225 0.54274
 H3539 H 0.67075 0.68109 0.58701
 H3540 H 0.70742 0.66142 0.62726
 H3541 H 0.66065 0.66982 0.61025
 H3542 H 0.72972 0.66768 0.61129
 H3543 H 0.74107 0.67970 0.58910
 H3544 H 0.68032 0.69643 0.57089
 H3545 H 0.69173 0.71032 0.54992
 H3546 H 0.75018 0.68774 0.56814
 H3547 H 0.76032 0.70253 0.54683
 H3548 H 0.71401 0.71905 0.53537
 C3549 C 0.70541 0.18068 0.11623
 C3550 C 0.69699 0.18705 0.10352
 C3551 C 0.68043 0.18810 0.10484
 C3552 C 0.67270 0.18212 0.11798
 C3553 C 0.68121 0.17535 0.13023
 C3554 C 0.69763 0.17500 0.12930
 C3555 C 0.67163 0.19503 0.09302
 C3556 C 0.67891 0.20125 0.07999
 C3557 C 0.69535 0.20040 0.07805
 C3558 C 0.70445 0.19259 0.08970
 C3559 C 0.72064 0.19026 0.08699
 C3560 C 0.72783 0.19585 0.07366
 C3561 C 0.71932 0.20432 0.06264
 C3562 C 0.70299 0.20690 0.06474
 C3563 C 0.69508 0.21623 0.05358
 C3564 C 0.70308 0.22262 0.04096
 C3565 C 0.71914 0.21979 0.03886
 C3566 C 0.72715 0.21045 0.04965
 H3567 H 0.71804 0.18021 0.11661
 H3568 H 0.65999 0.18250 0.11850
 H3569 H 0.70459 0.17039 0.13880
 H3570 H 0.65896 0.19580 0.09390
 H3571 H 0.67121 0.20630 0.07140
 H3572 H 0.72808 0.18376 0.09482
 H3573 H 0.74028 0.19373 0.07208
 H3574 H 0.68283 0.21924 0.05449
 H3575 H 0.69665 0.22990 0.03283
 H3576 H 0.73964 0.20844 0.04826
 C3577 C 0.16828 0.68943 0.07796
 C3578 C 0.18475 0.69017 0.07588
 C3579 C 0.19435 0.68228 0.08686
 C3580 C 0.18771 0.67511 0.09993
 C3581 C 0.17144 0.67525 0.10227
 C3582 C 0.16180 0.68211 0.09093
 C3583 C 0.21057 0.68189 0.08498
 C3584 C 0.21761 0.68929 0.07250
 C3585 C 0.20868 0.69781 0.06154
 C3586 C 0.19200 0.69855 0.06345
 C3587 C 0.18322 0.70818 0.05328
 C3588 C 0.19045 0.71688 0.04174
 C3589 C 0.20663 0.71605 0.03955
 C3590 C 0.21594 0.70613 0.04908
 C3591 C 0.23218 0.70504 0.04575
 C3592 C 0.23892 0.71403 0.03404
 C3593 C 0.22979 0.72443 0.02526
 C3594 C 0.21360 0.72523 0.02794
 H3595 H 0.16006 0.69433 0.06976
 H3596 H 0.19537 0.66993 0.10860
 H3597 H 0.14915 0.68193 0.09213
 H3598 H 0.21797 0.67584 0.09333
 H3599 H 0.23023 0.68861 0.07215
 H3600 H 0.17071 0.70973 0.05430
 H3601 H 0.18326 0.72440 0.03446
 H3602 H 0.24001 0.69725 0.05186
 H3603 H 0.25143 0.71301 0.03206
 H3604 H 0.20638 0.73302 0.02097
 C3605 C 0.20899 0.19064 0.60572
 C3606 C 0.19997 0.19732 0.59362
 C3607 C 0.18357 0.19893 0.59597
 C3608 C 0.17648 0.19291 0.60945
 C3609 C 0.18557 0.18559 0.62097
 C3610 C 0.20190 0.18495 0.61910
 C3611 C 0.17433 0.20643 0.58482
 C3612 C 0.18105 0.21263 0.57147
 C3613 C 0.19728 0.21108 0.56848
 C3614 C 0.20673 0.20266 0.57941
 C3615 C 0.22254 0.19946 0.57562
 C3616 C 0.22913 0.20489 0.56196
 C3617 C 0.22038 0.21401 0.55168
 C3618 C 0.20438 0.21742 0.55481
 C3619 C 0.19631 0.22735 0.54429
 C3620 C 0.20388 0.23358 0.53132
 C3621 C 0.21961 0.22993 0.52825
 C3622 C 0.22772 0.21997 0.53838
 H3623 H 0.22162 0.18995 0.60538
 H3624 H 0.16385 0.19364 0.61081
 H3625 H 0.20931 0.18002 0.62811
 H3626 H 0.16178 0.20768 0.58650
 H3627 H 0.17308 0.21819 0.56345
 H3628 H 0.23008 0.19235 0.58281
 H3629 H 0.24131 0.20210 0.55953
 H3630 H 0.18430 0.23096 0.54602
 H3631 H 0.19741 0.24138 0.52371
 H3632 H 0.23999 0.21731 0.53625
   
