data_POSCAR
  _audit_creation_date              2014-09-24
  _audit_creation_method            'ToBaCCo'
  _symmetry_space_group_name_H-M    'P1'
  _symmetry_Int_Tables_number       1
  _symmetry_cell_setting            triclinic
  loop_
  _symmetry_equiv_pos_as_xyz
 x,y,z
_cell_length_a 35.5393
_cell_length_b 34.4075
_cell_length_c 44.0335
_cell_angle_alpha 89.999400
_cell_angle_beta 89.733700
_cell_angle_gamma 90.063400
loop_
  _atom_site_label
  _atom_site_type_symbol
  _atom_site_fract_x
  _atom_site_fract_y
  _atom_site_fract_z
B1 B 0.26302 0.24446 0.27921
 B2 B 0.22142 0.22558 0.26850
 B3 B 0.22467 0.27313 0.27764
 B4 B 0.26666 0.29003 0.26499
 B5 B 0.28882 0.25185 0.24740
 B6 B 0.26082 0.21211 0.25028
 B7 B 0.22386 0.26657 0.21624
 B8 B 0.26585 0.28566 0.22677
 B9 B 0.26203 0.23786 0.21765
 B10 B 0.22043 0.22111 0.23059
 B11 B 0.19864 0.25877 0.24783
 B12 B 0.22638 0.29915 0.24517
 B13 B 0.73861 0.78107 0.21651
 B14 B 0.73069 0.73396 0.22640
 B15 B 0.77460 0.74938 0.21732
 B16 B 0.78069 0.79481 0.23110
 B17 B 0.73976 0.80778 0.24852
 B18 B 0.70843 0.77034 0.24511
 B19 B 0.76811 0.74466 0.27850
 B20 B 0.77615 0.79120 0.26932
 B21 B 0.73198 0.77693 0.27760
 B22 B 0.72613 0.73114 0.26429
 B23 B 0.76742 0.71806 0.24669
 B24 B 0.79808 0.75580 0.24994
 B25 B 0.73265 0.21830 -0.27808
 B26 B 0.77756 0.20506 -0.27174
 B27 B 0.76816 0.25086 -0.28220
 B28 B 0.72700 0.26457 -0.26610
 B29 B 0.71150 0.22616 -0.24467
 B30 B 0.74310 0.18918 -0.24845
 B31 B 0.77916 0.25018 -0.22151
 B32 B 0.73438 0.26394 -0.22849
 B33 B 0.74383 0.21783 -0.21742
 B34 B 0.78502 0.20396 -0.23372
 B35 B 0.80036 0.24205 -0.25497
 B36 B 0.76907 0.27943 -0.25145
 B37 B 0.26578 0.75646 -0.27944
 B38 B 0.22223 0.76908 -0.26726
 B39 B 0.23267 0.72202 -0.27412
 B40 B 0.27761 0.71361 -0.26304
 B41 B 0.29447 0.75631 -0.24912
 B42 B 0.26031 0.79070 -0.25233
 B43 B 0.23478 0.73438 -0.21360
 B44 B 0.27862 0.72244 -0.22503
 B45 B 0.26776 0.76936 -0.21886
 B46 B 0.22321 0.77733 -0.22976
 B47 B 0.20624 0.73456 -0.24357
 B48 B 0.24085 0.70009 -0.24062
 B49 B 1.22766 1.27719 0.72460
 B50 B 1.21682 1.23019 0.73155
 B51 B 1.26057 1.24256 0.71951
 B52 B 1.27257 1.28541 0.73584
 B53 B 1.23581 1.29924 0.75806
 B54 B 1.20090 1.26496 0.75506
 B55 B 1.26204 1.22999 0.78015
 B56 B 1.27331 1.27678 0.77384
 B57 B 1.22926 1.26525 0.78519
 B58 B 1.21747 1.22221 0.76914
 B59 B 1.25463 1.20850 0.74673
 B60 B 1.28902 1.24270 0.74993
 B61 B 0.77497 0.74995 0.78078
 B62 B 0.73053 0.73484 0.77375
 B63 B 0.73899 0.78141 0.78458
 B64 B 0.77992 0.79607 0.76821
 B65 B 0.79606 0.75816 0.74723
 B66 B 0.76570 0.72009 0.75097
 B67 B 0.72798 0.78022 0.72388
 B68 B 0.77262 0.79446 0.73024
 B69 B 0.76417 0.74838 0.71999
 B70 B 0.72327 0.73381 0.73606
 B71 B 0.70687 0.77197 0.75733
 B72 B 0.73776 0.80970 0.75343
 B73 B 1.23148 0.73312 0.21474
 B74 B 1.27475 0.71906 0.22540
 B75 B 1.26664 0.76609 0.21793
 B76 B 1.22296 0.77764 0.22968
 B77 B 1.20408 0.73684 0.24527
 B78 B 1.23643 0.70008 0.24276
 B79 B 1.26583 0.75671 0.27890
 B80 B 1.22284 0.77146 0.26743
 B81 B 1.23063 0.72417 0.27557
 B82 B 1.27468 0.71244 0.26364
 B83 B 1.29353 0.75338 0.24783
 B84 B 1.26162 0.79000 0.25072
 B85 B 0.77906 1.25247 0.22011
 B86 B 0.73487 1.26712 0.22891
 B87 B 0.74316 1.22048 0.21821
 B88 B 0.78505 1.20659 0.23292
 B89 B 0.80193 1.24503 0.25284
 B90 B 0.77108 1.28273 0.24996
 B91 B 0.73552 1.22268 0.27927
 B92 B 0.77979 1.20886 0.27115
 B93 B 0.77141 1.25505 0.28123
 B94 B 0.72963 1.26877 0.26677
 B95 B 0.71251 1.23001 0.24671
 B96 B 0.74390 1.19275 0.24970
 N97 N 0.45364 0.96370 0.05243
 N98 N 0.42724 0.95591 0.07269
 N99 N 0.53370 0.93525 0.03522
 N100 N 0.56047 0.90991 0.04123
 N101 N 0.53289 0.96277 0.05585
 N102 N 0.55935 0.95720 0.07629
 N103 N 0.45498 0.93640 0.03163
 N104 N 0.42980 0.90916 0.03739
 C105 C 0.41196 0.92235 0.06253
 C106 C 0.57641 0.92420 0.06679
 N107 N 0.54141 0.96290 -0.05028
 N108 N 0.56957 0.95656 -0.06918
 N109 N 0.45967 0.93657 -0.03356
 N110 N 0.43344 0.91102 -0.04102
 N111 N 0.46253 0.96374 -0.05434
 N112 N 0.43862 0.95746 -0.07651
 N113 N 0.53886 0.93498 -0.03011
 N114 N 0.56509 0.90847 -0.03500
 Mn115 Mn 0.49676 0.93530 0.00081
 C116 C 0.58434 0.92271 -0.05926
 C117 C 0.42025 0.92489 -0.06776
 N118 N 0.53394 1.04612 0.05583
 N119 N 0.56058 1.05092 0.07623
 N120 N 0.45677 1.07461 0.03189
 N121 N 0.43158 1.10190 0.03751
 N122 N 0.45483 1.04704 0.05245
 N123 N 0.42794 1.05447 0.07229
 N124 N 0.53541 1.07372 0.03527
 N125 N 0.56284 1.09836 0.04132
 Mn126 Mn 0.49381 1.00491 0.05449
 C127 C 0.57845 1.08353 0.06682
 C128 C 0.41341 1.08853 0.06252
 N129 N 0.46356 1.04666 -0.05423
 N130 N 0.43942 1.05284 -0.07619
 N131 N 0.54049 1.07389 -0.03012
 N132 N 0.56770 1.09947 -0.03490
 N133 N 0.54230 1.04583 -0.05023
 N134 N 0.57082 1.05113 -0.06894
 N135 N 0.46128 1.07408 -0.03359
 N136 N 0.43518 1.09978 -0.04101
 Mn137 Mn 0.50252 1.00480 -0.05250
 Mn138 Mn 0.49844 1.07464 0.00086
 Cl139 Cl 0.49787 1.00492 0.00095
 C140 C 0.42159 1.08568 -0.06757
 C141 C 0.58665 1.08447 -0.05902
 N142 N 1.05401 0.54410 0.53482
 N143 N 1.08232 0.56641 0.54367
 N144 N 1.02711 0.46261 0.55584
 N145 N 1.03611 0.44005 0.57888
 N146 N 1.05404 0.46232 0.53523
 N147 N 1.08185 0.43932 0.54385
 N148 N 1.02709 0.54408 0.55545
 N149 N 1.03661 0.56616 0.57867
 C150 C 1.07075 0.58057 0.57086
 C151 C 1.06995 0.42509 0.57094
 N152 N 0.91919 0.46239 0.53407
 N153 N 0.89224 0.43732 0.54075
 N154 N 0.94541 0.54424 0.55444
 N155 N 0.93682 0.56985 0.57570
 N156 N 0.91911 0.54342 0.53357
 N157 N 0.89168 0.56784 0.54038
 N158 N 0.94551 0.46203 0.55491
 N159 N 0.93741 0.43610 0.57608
 Mn160 Mn 0.98623 0.50324 0.55534
 C161 C 0.90427 0.42072 0.56677
 C162 C 0.90344 0.58461 0.56644
 N163 N 1.05545 0.46169 0.46929
 N164 N 1.08309 0.43772 0.46167
 N165 N 1.02877 0.54286 0.44791
 N166 N 1.03810 0.56561 0.42502
 N167 N 1.05517 0.54337 0.46873
 N168 N 1.08317 0.56650 0.46026
 N169 N 1.02891 0.46113 0.44861
 N170 N 1.03768 0.43664 0.42669
 Mn171 Mn 1.05492 0.50290 0.50203
 C172 C 1.07126 0.42173 0.43522
 C173 C 1.07175 0.58075 0.43310
 N174 N 0.92033 0.54268 0.46799
 N175 N 0.89338 0.56724 0.46048
 N176 N 0.94748 0.46074 0.44827
 N177 N 0.94021 0.43444 0.42728
 N178 N 0.92040 0.46152 0.46865
 N179 N 0.89373 0.43626 0.46181
 N180 N 0.94735 0.54286 0.44753
 N181 N 0.93973 0.56808 0.42583
 Mn182 Mn 0.91959 0.50253 0.50106
 Mn183 Mn 0.98811 0.50189 0.44790
 Cl184 Cl 0.98731 0.50269 0.50160
 C185 C 0.90618 0.58336 0.43438
 C186 C 0.90678 0.41914 0.43620
 N187 N 1.06035 0.54477 0.03109
 N188 N 1.08618 0.57134 0.03652
 N189 N 1.03479 0.46368 0.05386
 N190 N 1.04133 0.43708 0.07476
 N191 N 1.06129 0.46316 0.03307
 N192 N 1.08675 0.43641 0.03930
 N193 N 1.03375 0.54589 0.05179
 N194 N 1.04072 0.57353 0.07185
 C195 C 1.07310 0.58977 0.06154
 C196 C 1.07371 0.42006 0.06527
 N197 N 0.92724 0.46138 0.03291
 N198 N 0.90280 0.43360 0.03992
 N199 N 0.95314 0.54434 0.05155
 N200 N 0.94721 0.57205 0.07153
 N201 N 0.92617 0.54346 0.03126
 N202 N 0.90086 0.57076 0.03727
 N203 N 0.95400 0.46300 0.05339
 N204 N 0.94872 0.43659 0.07453
 Mn205 Mn 0.99386 0.50425 0.05291
 C206 C 0.91694 0.41817 0.06593
 C207 C 0.91477 0.58863 0.06241
 N208 N 1.06190 0.46083 -0.03196
 N209 N 1.08810 0.43455 -0.03715
 N210 N 1.03529 0.54199 -0.05457
 N211 N 1.04265 0.56869 -0.07538
 N212 N 1.06120 0.54228 -0.03348
 N213 N 1.08694 0.56880 -0.03933
 N214 N 1.03591 0.45953 -0.05298
 N215 N 1.04350 0.43183 -0.07288
 Mn216 Mn 1.06146 0.50270 -0.00034
 C217 C 1.07582 0.41606 -0.06234
 C218 C 1.07461 0.58564 -0.06512
 N219 N 0.92712 0.54126 -0.03503
 N220 N 0.90186 0.56791 -0.04245
 N221 N 0.95533 0.45937 -0.05366
 N222 N 0.94883 0.43420 -0.07542
 N223 N 0.92783 0.45921 -0.03359
 N224 N 0.90167 0.43363 -0.04157
 N225 N 0.95449 0.54062 -0.05520
 N226 N 0.94872 0.56653 -0.07661
 Mn227 Mn 0.92639 0.50127 -0.00109
 Mn228 Mn 0.99525 0.50040 -0.05435
 Cl229 Cl 0.99406 0.50208 -0.00072
 C230 C 0.91606 0.58366 -0.06842
 C231 C 0.91563 0.41792 -0.06765
 N232 N 0.41937 1.04364 0.53095
 N233 N 0.39194 1.05382 0.54976
 N234 N 0.44674 1.07010 0.46708
 N235 N 0.43884 1.09848 0.44797
 N236 N 0.41960 1.04401 0.46733
 N237 N 0.39222 1.05471 0.44878
 N238 N 0.44625 1.06999 0.53109
 N239 N 0.43801 1.09822 0.55029
 C240 C 0.40430 1.08763 0.56206
 C241 C 0.40499 1.08843 0.43644
 N242 N 0.55386 1.04247 0.46736
 N243 N 0.58076 1.05036 0.44757
 N244 N 0.52786 1.07009 0.53117
 N245 N 0.53647 1.09738 0.55118
 N246 N 0.55325 1.04239 0.53135
 N247 N 0.57941 1.04979 0.55170
 N248 N 0.52839 1.07011 0.46741
 N249 N 0.53766 1.09777 0.44785
 Mn250 Mn 0.48724 1.07029 0.49918
 C251 C 0.57020 1.08473 0.43530
 C252 C 0.56851 1.08400 0.56413
 N253 N 0.41947 0.95848 0.46729
 N254 N 0.39219 0.94818 0.44853
 N255 N 0.44598 0.93207 0.53099
 N256 N 0.43798 0.90396 0.55032
 N257 N 0.41910 0.95835 0.53088
 N258 N 0.39182 0.94816 0.54988
 N259 N 0.44636 0.93219 0.46712
 N260 N 0.43839 0.90401 0.44789
 Mn261 Mn 0.41905 1.00112 0.49910
 C262 C 0.40479 0.91445 0.43620
 C263 C 0.40438 0.91445 0.56222
 N264 N 0.55305 0.95858 0.53138
 N265 N 0.57916 0.95081 0.55171
 N266 N 0.52787 0.93121 0.46731
 N267 N 0.53695 0.90330 0.44791
 N268 N 0.55365 0.95856 0.46730
 N269 N 0.58065 0.95021 0.44769
 N270 N 0.52739 0.93111 0.53111
 N271 N 0.53573 0.90362 0.55103
 Mn272 Mn 0.55362 1.00052 0.49934
 Mn273 Mn 0.48680 0.93146 0.49912
 Cl274 Cl 0.48662 1.00086 0.49915
 C275 C 0.56793 0.91660 0.56403
 C276 C 0.56977 0.91586 0.43548
 N277 N 1.07546 0.95459 0.53531
 N278 N 1.09730 0.94921 0.55909
 N279 N 1.05398 0.92610 0.47108
 N280 N 1.05886 0.90229 0.44805
 N281 N 1.08038 0.95282 0.47152
 N282 N 1.10399 0.94788 0.44860
 N283 N 1.04911 0.92786 0.53433
 N284 N 1.05236 0.90347 0.55720
 C285 C 1.08239 0.91725 0.57254
 C286 C 1.09016 0.91610 0.43427
 N287 N 0.94820 0.95411 0.46504
 N288 N 0.92666 0.94917 0.44111
 N289 N 0.96869 0.92873 0.53097
 N290 N 0.96239 0.90662 0.55499
 N291 N 0.94276 0.95564 0.52867
 N292 N 0.91787 0.95247 0.55076
 N293 N 0.97355 0.92657 0.46679
 N294 N 0.96983 0.90186 0.44402
 Mn295 Mn 1.01132 0.92677 0.50082
 C296 C 0.94088 0.91691 0.42796
 C297 C 0.93075 0.92215 0.56714
 N298 N 1.08118 1.03662 0.47012
 N299 N 1.10512 1.04038 0.44724
 N300 N 1.05019 1.06526 0.53200
 N301 N 1.05355 1.09079 0.55407
 N302 N 1.07615 1.03832 0.53398
 N303 N 1.09786 1.04468 0.55773
 N304 N 1.05498 1.06340 0.46872
 N305 N 1.06015 1.08594 0.44496
 Mn306 Mn 1.07895 0.99557 0.50276
 C307 C 1.09150 1.07138 0.43177
 C308 C 1.08326 1.07755 0.57002
 N309 N 0.94347 1.03852 0.52734
 N310 N 0.91898 1.04291 0.54959
 N311 N 0.97475 1.06378 0.46461
 N312 N 0.97103 1.08784 0.44145
 N313 N 0.94885 1.03666 0.46375
 N314 N 0.92684 1.04133 0.44008
 N315 N 0.96984 1.06515 0.52873
 N316 N 0.96426 1.08827 0.55228
 Mn317 Mn 0.94540 0.99623 0.49616
 Mn318 Mn 1.01243 1.06492 0.49853
 Cl319 Cl 1.01214 0.99586 0.49959
 C320 C 0.93256 1.07370 0.56508
 C321 C 0.94150 1.07283 0.42608
 N322 N 0.58165 0.53385 0.03483
 N323 N 0.60848 0.55765 0.04417
 N324 N 0.55275 0.45125 0.05195
 N325 N 0.55994 0.42680 0.07414
 N326 N 0.58113 0.45284 0.03276
 N327 N 0.60875 0.42999 0.04196
 N328 N 0.55384 0.53304 0.05457
 N329 N 0.56045 0.55689 0.07729
 C330 C 0.59430 0.57241 0.07040
 C331 C 0.59457 0.41325 0.06743
 N332 N 0.44465 0.45527 0.03128
 N333 N 0.41446 0.43632 0.04115
 N334 N 0.47370 0.53385 0.05387
 N335 N 0.46455 0.55411 0.07810
 N336 N 0.44740 0.53638 0.03304
 N337 N 0.41952 0.55859 0.04296
 N338 N 0.47192 0.45260 0.05129
 N339 N 0.46121 0.43120 0.07458
 Mn340 Mn 0.51314 0.49257 0.05288
 C341 C 0.42566 0.42060 0.06788
 C342 C 0.43116 0.56991 0.07094
 N343 N 0.58287 0.45542 -0.03302
 N344 N 0.60980 0.43115 -0.04143
 N345 N 0.55669 0.53754 -0.05166
 N346 N 0.56419 0.56300 -0.07307
 N347 N 0.58371 0.53659 -0.03146
 N348 N 0.61106 0.56088 -0.03931
 N349 N 0.55576 0.45575 -0.05316
 N350 N 0.56301 0.43128 -0.07536
 Mn351 Mn 0.58279 0.49477 0.00078
 C352 C 0.59643 0.41574 -0.06760
 C353 C 0.59781 0.57776 -0.06503
 N354 N 0.44929 0.53894 -0.03366
 N355 N 0.42157 0.56116 -0.04371
 N356 N 0.47540 0.45755 -0.05505
 N357 N 0.46696 0.43677 -0.07915
 N358 N 0.44755 0.45730 -0.03528
 N359 N 0.41945 0.43583 -0.04563
 N360 N 0.47691 0.53836 -0.05362
 N361 N 0.46877 0.55982 -0.07741
 Mn362 Mn 0.44685 0.49707 -0.00119
 Mn363 Mn 0.51631 0.49720 -0.05332
 Cl364 Cl 0.51460 0.49539 -0.00017
 C365 C 0.43464 0.57447 -0.07082
 C366 C 0.43242 0.42280 -0.07284
 C367 C 0.31779 1.17443 0.14275
 C368 C 0.32022 1.21507 0.14333
 C369 C 0.30146 1.23561 0.16632
 C370 C 0.28035 1.21604 0.18882
 C371 C 0.27716 1.17512 0.18683
 C372 C 0.29613 1.15425 0.16425
 C373 C 0.33949 1.15248 0.11995
 C374 C 0.33868 1.11168 0.12059
 C375 C 0.36171 1.09089 0.10055
 C376 C 0.38525 1.11061 0.07993
 C377 C 0.38443 1.15145 0.07846
 C378 C 0.36196 1.17263 0.09884
 C379 C 0.29487 1.11346 0.16343
 C380 C 0.31596 1.09250 0.14203
 C381 C 0.34225 1.23435 0.12140
 C382 C 0.36269 1.21347 0.09946
 H383 H 0.27816 1.09758 0.17993
 H384 H 0.31499 1.06103 0.14263
 H385 H 0.34425 1.26579 0.12155
 H386 H 0.37989 1.22938 0.08331
 H387 H 0.30390 1.26661 0.16628
 H388 H 0.26087 1.15902 0.20347
 H389 H 0.36221 1.05941 0.10160
 H390 H 0.40279 1.16670 0.06274
 C391 C 0.81943 0.68749 0.64389
 C392 C 0.83902 0.71567 0.66039
 C393 C 0.82006 0.73688 0.68260
 C394 C 0.78161 0.73002 0.68932
 C395 C 0.76188 0.70257 0.67165
 C396 C 0.78078 0.68115 0.64885
 C397 C 0.84035 0.66278 0.62222
 C398 C 0.82118 0.63379 0.60607
 C399 C 0.84170 0.60922 0.58652
 C400 C 0.88117 0.61275 0.58423
 C401 C 0.89978 0.64214 0.60039
 C402 C 0.87950 0.66753 0.61913
 C403 C 0.76240 0.65232 0.63177
 C404 C 0.78219 0.62923 0.61063
 C405 C 0.87782 0.72080 0.65561
 C406 C 0.89778 0.69695 0.63546
 H407 H 0.73261 0.64707 0.63514
 H408 H 0.76699 0.60699 0.59831
 H409 H 0.89311 0.74271 0.66824
 H410 H 0.92787 0.70113 0.63305
 H411 H 0.83633 0.75739 0.69576
 H412 H 0.73254 0.69654 0.67654
 H413 H 0.82735 0.58631 0.57425
 H414 H 0.93010 0.64498 0.59851
 C415 C 0.68076 0.84346 0.14269
 C416 C 0.67989 0.80282 0.14309
 C417 C 0.70012 0.78294 0.16529
 C418 C 0.72191 0.80281 0.18700
 C419 C 0.72422 0.84383 0.18485
 C420 C 0.70298 0.86427 0.16331
 C421 C 0.65639 0.86458 0.12135
 C422 C 0.65487 0.90532 0.12260
 C423 C 0.62924 0.92504 0.10400
 C424 C 0.60595 0.90416 0.08400
 C425 C 0.60907 0.86354 0.08204
 C426 C 0.63371 0.84349 0.10113
 C427 C 0.70203 0.90512 0.16293
 C428 C 0.67814 0.92531 0.14308
 C429 C 0.65745 0.78268 0.12210
 C430 C 0.63494 0.80272 0.10129
 H431 H 0.71904 0.92160 0.17873
 H432 H 0.67745 0.95677 0.14411
 H433 H 0.65672 0.75118 0.12217
 H434 H 0.61755 0.78616 0.08582
 H435 H 0.69756 0.75206 0.16555
 H436 H 0.74077 0.86020 0.20103
 H437 H 0.62695 0.95641 0.10541
 H438 H 0.59092 0.84741 0.06684
 C439 C 1.16301 0.34293 0.65627
 C440 C 1.19313 0.31980 0.64618
 C441 C 1.21514 0.29971 0.66769
 C442 C 1.20709 0.30287 0.69904
 C443 C 1.17755 0.32777 0.70836
 C444 C 1.15519 0.34708 0.68728
 C445 C 1.13905 0.36318 0.63402
 C446 C 1.10848 0.38541 0.64441
 C447 C 1.08563 0.40445 0.62339
 C448 C 1.09356 0.40241 0.59211
 C449 C 1.12451 0.38022 0.58189
 C450 C 1.14716 0.36007 0.60287
 C451 C 1.12461 0.36992 0.69679
 C452 C 1.10149 0.38859 0.67569
 C453 C 1.20018 0.31701 0.61478
 C454 C 1.17778 0.33697 0.59354
 H455 H 1.11827 0.37313 0.72076
 H456 H 1.07806 0.40579 0.68395
 H457 H 1.22325 0.29930 0.60654
 H458 H 1.18438 0.33412 0.56960
 H459 H 1.23796 0.28156 0.65989
 H460 H 1.17079 0.33133 0.73221
 H461 H 1.06219 0.42177 0.63152
 H462 H 1.13075 0.37853 0.55781
 C463 C 0.69087 1.16055 -0.13836
 C464 C 0.71103 1.13830 -0.15959
 C465 C 0.73062 1.15715 -0.18308
 C466 C 0.72914 1.19802 -0.18626
 C467 C 0.71025 1.21956 -0.16352
 C468 C 0.69100 1.20117 -0.13978
 C469 C 0.66765 1.14093 -0.11517
 C470 C 0.64632 1.16330 -0.09464
 C471 C 0.62168 1.14450 -0.07440
 C472 C 0.61762 1.10385 -0.07543
 C473 C 0.64044 1.08182 -0.09517
 C474 C 0.66550 1.10022 -0.11513
 C475 C 0.67060 1.22267 -0.11812
 C476 C 0.64865 1.20403 -0.09589
 C477 C 0.70965 1.09756 -0.15783
 C478 C 0.68710 1.07881 -0.13604
 H479 H 0.67075 1.25417 -0.11889
 H480 H 0.63252 1.22165 -0.08014
 H481 H 0.72517 1.08001 -0.17401
 H482 H 0.68586 1.04734 -0.13606
 H483 H 0.74535 1.13961 -0.19975
 H484 H 0.71048 1.25066 -0.16365
 H485 H 0.60400 1.16154 -0.05935
 H486 H 0.63755 1.05046 -0.09585
 C487 C 1.16414 0.66272 0.34616
 C488 C 1.19846 0.67974 0.35471
 C489 C 1.22067 0.69887 0.33250
 C490 C 1.20853 0.70077 0.30201
 C491 C 1.17471 0.68151 0.29415
 C492 C 1.15222 0.66353 0.31595
 C493 C 1.14030 0.64313 0.36910
 C494 C 1.10589 0.62673 0.36017
 C495 C 1.08343 0.60786 0.38169
 C496 C 1.09531 0.60410 0.41197
 C497 C 1.12993 0.62080 0.42079
 C498 C 1.15250 0.64071 0.39932
 C499 C 1.11771 0.64662 0.30790
 C500 C 1.09479 0.62878 0.32970
 C501 C 1.20957 0.67720 0.38530
 C502 C 1.18713 0.65789 0.40714
 H503 H 1.10825 0.64733 0.28455
 H504 H 1.06832 0.61612 0.32258
 H505 H 1.23593 0.69008 0.39241
 H506 H 1.19700 0.65639 0.43035
 H507 H 1.24712 0.71189 0.33898
 H508 H 1.16490 0.68103 0.27092
 H509 H 1.05704 0.59506 0.37452
 H510 H 1.13933 0.61807 0.44407
 C511 C 0.32841 0.84137 -0.15224
 C512 C 0.34070 0.83937 -0.18244
 C513 C 0.32061 0.81702 -0.20302
 C514 C 0.28772 0.79678 -0.19419
 C515 C 0.27394 0.80174 -0.16429
 C516 C 0.29519 0.82271 -0.14281
 C517 C 0.35117 0.86309 -0.13012
 C518 C 0.34039 0.86358 -0.09938
 C519 C 0.36326 0.88333 -0.07831
 C520 C 0.39559 0.90334 -0.08845
 C521 C 0.40527 0.90310 -0.11935
 C522 C 0.38366 0.88255 -0.14017
 C523 C 0.28467 0.82463 -0.11200
 C524 C 0.30709 0.84434 -0.09060
 C525 C 0.37336 0.85919 -0.19159
 C526 C 0.39433 0.88076 -0.17081
 H527 H 0.25927 0.81018 -0.10425
 H528 H 0.29824 0.84459 -0.06703
 H529 H 0.38287 0.85789 -0.21498
 H530 H 0.41942 0.89566 -0.17870
 H531 H 0.33118 0.81552 -0.22609
 H532 H 0.24806 0.78762 -0.15733
 H533 H 0.35572 0.88378 -0.05444
 H534 H 0.43036 0.91817 -0.12711
 C535 C 0.82665 0.31589 0.35705
 C536 C 0.78744 0.31940 0.35392
 C537 C 0.76897 0.29835 0.33085
 C538 C 0.78970 0.27415 0.31106
 C539 C 0.82887 0.27002 0.31579
 C540 C 0.84738 0.29090 0.33833
 C541 C 0.84676 0.34023 0.37931
 C542 C 0.88623 0.33831 0.38084
 C543 C 0.90552 0.36362 0.40018
 C544 C 0.88569 0.39027 0.41830
 C545 C 0.84601 0.39077 0.41761
 C546 C 0.82637 0.36617 0.39764
 C547 C 0.88661 0.28844 0.34151
 C548 C 0.90576 0.31193 0.36231
 C549 C 0.76788 0.34501 0.37322
 C550 C 0.78698 0.36785 0.39478
 H551 H 0.90279 0.26897 0.32719
 H552 H 0.93614 0.30994 0.36349
 H553 H 0.73764 0.34796 0.37129
 H554 H 0.77085 0.38766 0.40884
 H555 H 0.73899 0.30198 0.32761
 H556 H 0.84567 0.25144 0.30126
 H557 H 0.93602 0.36302 0.40084
 H558 H 0.83067 0.41151 0.43143
 C559 C 1.15537 0.31504 0.14194
 C560 C 1.19360 0.30762 0.13633
 C561 C 1.21497 0.28814 0.15852
 C562 C 1.19890 0.27832 0.18688
 C563 C 1.15948 0.28304 0.19047
 C564 C 1.13792 0.30180 0.16854
 C565 C 1.13360 0.33895 0.12047
 C566 C 1.09583 0.34770 0.12710
 C567 C 1.07609 0.37299 0.10811
 C568 C 1.09384 0.38992 0.08277
 C569 C 1.13131 0.37966 0.07562
 C570 C 1.15147 0.35429 0.09463
 C571 C 1.09962 0.30961 0.17367
 C572 C 1.07892 0.33221 0.15329
 C573 C 1.21009 0.32194 0.10946
 C574 C 1.18944 0.34500 0.08904
 H575 H 1.08584 0.29925 0.19414
 H576 H 1.04973 0.33853 0.15851
 H577 H 1.23954 0.31640 0.10468
 H578 H 1.20359 0.35640 0.06909
 H579 H 1.24449 0.28359 0.15443
 H580 H 1.14518 0.27431 0.21110
 H581 H 1.04723 0.38046 0.11364
 H582 H 1.14516 0.39253 0.05608
 C583 C 0.65719 0.83719 0.65403
 C584 C 0.65505 0.79658 0.65725
 C585 C 0.67791 0.77780 0.67903
 C586 C 0.70220 0.79968 0.69778
 C587 C 0.70292 0.84060 0.69424
 C588 C 0.68126 0.85924 0.67227
 C589 C 0.63370 0.85720 0.63120
 C590 C 0.63680 0.89768 0.62773
 C591 C 0.61502 0.91659 0.60579
 C592 C 0.58961 0.89562 0.58766
 C593 C 0.58627 0.85501 0.59171
 C594 C 0.60871 0.83556 0.61329
 C595 C 0.68337 0.89969 0.66827
 C596 C 0.66168 0.91856 0.64626
 C597 C 0.62991 0.77584 0.63868
 C598 C 0.60705 0.79496 0.61725
 H599 H 0.70209 0.91693 0.68222
 H600 H 0.66431 0.94978 0.64383
 H601 H 0.62774 0.74455 0.64081
 H602 H 0.58803 0.77777 0.60356
 H603 H 0.67648 0.74652 0.68156
 H604 H 0.72112 0.85838 0.70818
 H605 H 0.61768 0.94778 0.60296
 H606 H 0.56698 0.83859 0.57767
 C607 C 1.17152 0.67871 -0.13962
 C608 C 1.20477 0.66175 -0.15033
 C609 C 1.22551 0.68077 -0.17264
 C610 C 1.21539 0.71814 -0.18310
 C611 C 1.18286 0.73582 -0.17074
 C612 C 1.16019 0.71563 -0.14963
 C613 C 1.14685 0.65601 -0.11932
 C614 C 1.11151 0.67096 -0.11095
 C615 C 1.08710 0.64781 -0.09331
 C616 C 1.09878 0.61080 -0.08358
 C617 C 1.13456 0.59688 -0.09142
 C618 C 1.15841 0.61893 -0.10981
 C619 C 1.12540 0.73046 -0.13962
 C620 C 1.10132 0.70836 -0.12086
 C621 C 1.21568 0.62488 -0.13995
 C622 C 1.19307 0.60402 -0.11964
 H623 H 1.11617 0.75886 -0.14712
 H624 H 1.07434 0.72047 -0.11436
 H625 H 1.24164 0.61183 -0.14794
 H626 H 1.20222 0.57547 -0.11237
 H627 H 1.24818 0.66475 -0.18317
 H628 H 1.17363 0.76378 -0.17920
 H629 H 1.05947 0.65847 -0.08697
 H630 H 1.14325 0.56820 -0.08401
 C631 C 0.66494 1.16564 0.34937
 C632 C 0.69160 1.14420 0.33297
 C633 C 0.71411 1.16305 0.31153
 C634 C 0.71134 1.20358 0.30654
 C635 C 0.68466 1.22490 0.32361
 C636 C 0.66115 1.20590 0.34494
 C637 C 0.64011 1.14524 0.37118
 C638 C 0.61251 1.16620 0.38714
 C639 C 0.58878 1.14635 0.40773
 C640 C 0.59321 1.10604 0.41259
 C641 C 0.62107 1.08572 0.39631
 C642 C 0.64435 1.10503 0.37549
 C643 C 0.63343 1.22601 0.36159
 C644 C 0.60950 1.20652 0.38221
 C645 C 0.69495 1.10402 0.33788
 C646 C 0.67184 1.08479 0.35889
 H647 H 0.63000 1.25703 0.35849
 H648 H 0.58845 1.22318 0.39440
 H649 H 0.71560 1.08726 0.32531
 H650 H 0.67534 1.05376 0.36201
 H651 H 0.73375 1.14562 0.29852
 H652 H 0.68148 1.25582 0.31977
 H653 H 0.56753 1.16226 0.42032
 H654 H 0.62455 1.05473 0.39976
 C655 C 0.83973 0.69559 0.14253
 C656 C 0.85800 0.70651 0.16937
 C657 C 0.83776 0.72610 0.19202
 C658 C 0.79913 0.73481 0.18835
 C659 C 0.78261 0.72671 0.15994
 C660 C 0.80221 0.70594 0.13742
 C661 C 0.85969 0.67115 0.12013
 C662 C 0.84062 0.65773 0.09424
 C663 C 0.85899 0.63183 0.07427
 C664 C 0.89603 0.61955 0.08035
 C665 C 0.91505 0.63486 0.10571
 C666 C 0.89695 0.66013 0.12584
 C667 C 0.78444 0.69341 0.11065
 C668 C 0.80321 0.66950 0.08954
 C669 C 0.89574 0.69591 0.17374
 C670 C 0.91495 0.67327 0.15225
 H671 H 0.75534 0.70107 0.10647
 H672 H 0.78808 0.65958 0.06969
 H673 H 0.91027 0.70441 0.19428
 H674 H 0.94380 0.66502 0.15679
 H675 H 0.85209 0.73281 0.21300
 H676 H 0.75371 0.73340 0.15597
 H677 H 0.84416 0.62028 0.05480
 H678 H 0.94364 0.62590 0.11055
 C679 C 0.32033 1.18623 0.64370
 C680 C 0.33977 1.21203 0.66264
 C681 C 0.31970 1.23327 0.68457
 C682 C 0.28035 1.22848 0.68818
 C683 C 0.26117 1.20550 0.66662
 C684 C 0.28103 1.18324 0.64514
 C685 C 0.34165 1.16114 0.62251
 C686 C 0.32233 1.13403 0.60451
 C687 C 0.34294 1.10927 0.58519
 C688 C 0.38246 1.11224 0.58338
 C689 C 0.40122 1.14003 0.60129
 C690 C 0.38102 1.16425 0.62114
 C691 C 0.26252 1.15668 0.62604
 C692 C 0.28283 1.13230 0.60625
 C693 C 0.37915 1.21465 0.66033
 C694 C 0.39940 1.19130 0.63984
 H695 H 0.23215 1.15398 0.62697
 H696 H 0.26749 1.11175 0.59236
 H697 H 0.39452 1.23449 0.67482
 H698 H 0.42976 1.19402 0.63898
 H699 H 0.33526 1.25173 0.70000
 H700 H 0.23102 1.20381 0.66671
 H701 H 0.32827 1.08829 0.57120
 H702 H 0.43161 1.14246 0.60004
 C703 C 0.84300 0.31468 -0.15204
 C704 C 0.81422 0.28963 -0.14244
 C705 C 0.79632 0.26576 -0.16395
 C706 C 0.80507 0.26883 -0.19519
 C707 C 0.83536 0.29318 -0.20387
 C708 C 0.85434 0.31588 -0.18256
 C709 C 0.86125 0.34068 -0.12990
 C710 C 0.89033 0.36522 -0.13977
 C711 C 0.90759 0.38991 -0.11893
 C712 C 0.89580 0.39098 -0.08835
 C713 C 0.86622 0.36654 -0.07867
 C714 C 0.84904 0.34088 -0.09947
 C715 C 0.88365 0.34081 -0.19148
 C716 C 0.90151 0.36492 -0.17038
 C717 C 0.80312 0.28999 -0.11171
 C718 C 0.82002 0.31536 -0.09066
 H719 H 0.89268 0.34191 -0.21500
 H720 H 0.92396 0.38384 -0.17818
 H721 H 0.78070 0.27100 -0.10397
 H722 H 0.81026 0.31500 -0.06732
 H723 H 0.77503 0.24611 -0.15619
 H724 H 0.84342 0.29602 -0.22752
 H725 H 0.93004 0.40881 -0.12678
 H726 H 0.85710 0.36711 -0.05516
 C727 C 0.32480 0.81368 0.35428
 C728 C 0.34533 0.79153 0.33326
 C729 C 0.32602 0.77001 0.31126
 C730 C 0.28627 0.77066 0.30979
 C731 C 0.26637 0.78924 0.33353
 C732 C 0.28537 0.81227 0.35495
 C733 C 0.34501 0.83953 0.37547
 C734 C 0.32447 0.86334 0.39546
 C735 C 0.34397 0.88896 0.41478
 C736 C 0.38364 0.88978 0.41468
 C737 C 0.40364 0.86517 0.39485
 C738 C 0.38450 0.84040 0.37491
 C739 C 0.26577 0.83540 0.37608
 C740 C 0.28495 0.86082 0.39573
 C741 C 0.38484 0.79285 0.33366
 C742 C 0.40410 0.81667 0.35427
 H743 H 0.23529 0.83469 0.37684
 H744 H 0.26868 0.87873 0.41117
 H745 H 0.40103 0.77575 0.31760
 H746 H 0.43458 0.81703 0.35368
 H747 H 0.34231 0.75448 0.29432
 H748 H 0.23615 0.78716 0.33488
 H749 H 0.32846 0.90744 0.43034
 H750 H 0.43415 0.86567 0.39470
 C751 C 1.16033 1.14812 0.33038
 C752 C 1.19698 1.13812 0.32139
 C753 C 1.21544 1.16107 0.29963
 C754 C 1.19819 1.19504 0.28832
 C755 C 1.16039 1.20259 0.29588
 C756 C 1.14156 1.17973 0.31724
 C757 C 1.14180 1.12615 0.35489
 C758 C 1.10559 1.13712 0.36440
 C759 C 1.08900 1.11791 0.38893
 C760 C 1.10843 1.08825 0.40423
 C761 C 1.14422 1.07660 0.39390
 C762 C 1.16119 1.09571 0.36921
 C763 C 1.10487 1.18897 0.32665
 C764 C 1.08713 1.16795 0.34986
 C765 C 1.21507 1.10665 0.33548
 C766 C 1.19752 1.08588 0.35909
 H767 H 1.09012 1.21325 0.31652
 H768 H 1.05909 1.17647 0.35697
 H769 H 1.24343 1.09876 0.32882
 H770 H 1.21277 1.06243 0.36987
 H771 H 1.24414 1.15406 0.29330
 H772 H 1.14573 1.22693 0.28601
 H773 H 1.06128 1.12682 0.39660
 H774 H 1.15922 1.05367 0.40560
 C775 C 0.67261 0.66171 -0.15961
 C776 C 0.71107 0.65568 -0.16501
 C777 C 0.72858 0.67538 -0.18909
 C778 C 0.70868 0.70345 -0.20594
 C779 C 0.66930 0.70610 -0.20215
 C780 C 0.65128 0.68584 -0.17863
 C781 C 0.65437 0.64263 -0.13346
 C782 C 0.61574 0.64823 -0.12848
 C783 C 0.59815 0.62880 -0.10444
 C784 C 0.61878 0.60388 -0.08543
 C785 C 0.65779 0.59969 -0.08982
 C786 C 0.67572 0.61874 -0.11418
 C787 C 0.61272 0.69080 -0.17281
 C788 C 0.59520 0.67218 -0.14820
 C789 C 0.73154 0.63139 -0.14544
 C790 C 0.71421 0.61339 -0.12037
 H791 H 0.59600 0.70942 -0.18727
 H792 H 0.56533 0.67658 -0.14457
 H793 H 0.76135 0.62677 -0.14924
 H794 H 0.73102 0.59499 -0.10579
 H795 H 0.75814 0.67036 -0.19346
 H796 H 0.65307 0.72620 -0.21574
 H797 H 0.56803 0.63189 -0.10114
 H798 H 0.67356 0.57993 -0.07556
 C799 C 0.84363 1.14176 0.65940
 C800 C 0.81034 1.16057 0.65125
 C801 C 0.78931 1.17911 0.67352
 C802 C 0.79982 1.17813 0.70440
 C803 C 0.83300 1.15811 0.71242
 C804 C 0.85536 1.14034 0.68981
 C805 C 0.86722 1.12459 0.63537
 C806 C 0.90165 1.10725 0.64302
 C807 C 0.92415 1.09141 0.61976
 C808 C 0.91158 1.09247 0.58952
 C809 C 0.87714 1.10970 0.58232
 C810 C 0.85502 1.12629 0.60507
 C811 C 0.88974 1.12220 0.69670
 C812 C 0.91255 1.10607 0.67369
 C813 C 0.79916 1.16188 0.62074
 C814 C 0.82100 1.14465 0.59801
 H815 H 0.89933 1.12090 0.71999
 H816 H 0.93897 1.09266 0.67996
 H817 H 0.77332 1.17641 0.61438
 H818 H 0.81144 1.14615 0.57471
 H819 H 0.76608 1.19658 0.66589
 H820 H 0.84231 1.15792 0.73581
 H821 H 0.95070 1.07760 0.62510
 H822 H 0.86772 1.11027 0.55892
 C823 C 0.34405 0.65396 0.15907
 C824 C 0.34901 0.64663 0.19024
 C825 C 0.32709 0.66713 0.21168
 C826 C 0.30088 0.69513 0.20194
 C827 C 0.29768 0.70246 0.17039
 C828 C 0.31837 0.68174 0.14906
 C829 C 0.36614 0.63223 0.13637
 C830 C 0.36024 0.63907 0.10521
 C831 C 0.38104 0.61805 0.08368
 C832 C 0.40826 0.59132 0.09323
 C833 C 0.41412 0.58504 0.12453
 C834 C 0.39277 0.60512 0.14624
 C835 C 0.31344 0.68823 0.11782
 C836 C 0.33386 0.66701 0.09623
 C837 C 0.37576 0.61891 0.19918
 C838 C 0.39744 0.59868 0.17756
 H839 H 0.29343 0.70972 0.11001
 H840 H 0.32912 0.67268 0.07234
 H841 H 0.38009 0.61290 0.22306
 H842 H 0.41790 0.57769 0.18542
 H843 H 0.33047 0.66133 0.23570
 H844 H 0.27829 0.72396 0.16190
 H845 H 0.37669 0.62302 0.05964
 H846 H 0.43494 0.56414 0.13197
 C847 C 1.15172 0.83767 0.67172
 C848 C 1.18096 0.85592 0.68754
 C849 C 1.20121 0.83465 0.70891
 C850 C 1.19375 0.79471 0.71344
 C851 C 1.16258 0.77770 0.69894
 C852 C 1.14180 0.79890 0.67770
 C853 C 1.13218 0.85909 0.64761
 C854 C 1.10347 0.84057 0.63129
 C855 C 1.08627 0.86043 0.60737
 C856 C 1.09827 0.89809 0.59938
 C857 C 1.12652 0.91656 0.61631
 C858 C 1.14357 0.89718 0.64054
 C859 C 1.11229 0.78164 0.66142
 C860 C 1.09333 0.80220 0.63863
 C861 C 1.19071 0.89448 0.68059
 C862 C 1.17241 0.91475 0.65736
 H863 H 1.10432 0.75176 0.66588
 H864 H 1.07114 0.78767 0.62622
 H865 H 1.21334 0.90877 0.69266
 H866 H 1.18129 0.94417 0.65221
 H867 H 1.22439 0.84878 0.72036
 H868 H 1.15512 0.74778 0.70330
 H869 H 1.06449 0.84607 0.59434
 H870 H 1.13564 0.94566 0.61033
 C871 C 0.67295 0.33731 0.16368
 C872 C 0.71133 0.34484 0.16809
 C873 C 0.73008 0.32616 0.19186
 C874 C 0.71147 0.29769 0.20939
 C875 C 0.67210 0.29358 0.20665
 C876 C 0.65286 0.31276 0.18341
 C877 C 0.65357 0.35487 0.13760
 C878 C 0.61508 0.34756 0.13344
 C879 C 0.59648 0.36527 0.10922
 C880 C 0.61611 0.38983 0.08914
 C881 C 0.65498 0.39583 0.09284
 C882 C 0.67382 0.37874 0.11740
 C883 C 0.61440 0.30611 0.17846
 C884 C 0.59576 0.32337 0.15394
 C885 C 0.73059 0.36932 0.14772
 C886 C 0.71219 0.38583 0.12269
 H887 H 0.59866 0.28707 0.19346
 H888 H 0.56604 0.31758 0.15092
 H889 H 0.76030 0.37514 0.15081
 H890 H 0.72812 0.40430 0.10740
 H891 H 0.75967 0.33198 0.19529
 H892 H 0.65689 0.27303 0.22074
 H893 H 0.56649 0.36078 0.10641
 H894 H 0.66998 0.41531 0.07768
 C895 C 0.84810 0.84935 0.33673
 C896 C 0.81742 0.82690 0.34616
 C897 C 0.79362 0.81124 0.32449
 C898 C 0.80014 0.81658 0.29308
 C899 C 0.83079 0.84001 0.28389
 C900 C 0.85485 0.85663 0.30577
 C901 C 0.87382 0.86502 0.35981
 C902 C 0.90439 0.88820 0.35073
 C903 C 0.92795 0.90414 0.37312
 C904 C 0.92093 0.89626 0.40399
 C905 C 0.89087 0.87234 0.41259
 C906 C 0.86702 0.85681 0.39065
 C907 C 0.88598 0.87967 0.29749
 C908 C 0.91017 0.89540 0.31959
 C909 C 0.81151 0.81933 0.37715
 C910 C 0.83600 0.83401 0.39907
 H911 H 0.89166 0.88565 0.27375
 H912 H 0.93364 0.91323 0.31223
 H913 H 0.78786 0.80172 0.38450
 H914 H 0.83051 0.82762 0.42277
 H915 H 0.77122 0.79272 0.33260
 H916 H 0.83662 0.84428 0.25994
 H917 H 0.95093 0.92326 0.36674
 H918 H 0.88531 0.86706 0.43649
 C919 C 0.34726 0.33731 -0.16088
 C920 C 0.32140 0.30961 -0.15076
 C921 C 0.30000 0.28970 -0.17197
 C922 C 0.30233 0.29780 -0.20334
 C923 C 0.32918 0.32530 -0.21331
 C924 C 0.35191 0.34505 -0.19205
 C925 C 0.36916 0.35917 -0.13826
 C926 C 0.39565 0.38656 -0.14821
 C927 C 0.41656 0.40706 -0.12652
 C928 C 0.41017 0.40104 -0.09521
 C929 C 0.38307 0.37404 -0.08562
 C930 C 0.36285 0.35253 -0.10708
 C931 C 0.37871 0.37285 -0.20110
 C932 C 0.40042 0.39303 -0.17956
 C933 C 0.31628 0.30312 -0.11950
 C934 C 0.33651 0.32445 -0.09799
 H935 H 0.38288 0.37914 -0.22498
 H936 H 0.42079 0.41420 -0.18751
 H937 H 0.29608 0.28173 -0.11160
 H938 H 0.33149 0.31892 -0.07408
 H939 H 0.27907 0.27029 -0.16327
 H940 H 0.33194 0.33183 -0.23728
 H941 H 0.43730 0.42818 -0.13397
 H942 H 0.37836 0.36925 -0.06156
 C943 C 1.16850 0.32171 -0.13936
 C944 C 1.15592 0.28532 -0.14966
 C945 C 1.17743 0.26503 -0.17154
 C946 C 1.20997 0.28221 -0.18440
 C947 C 1.22081 0.31948 -0.17408
 C948 C 1.20154 0.33833 -0.15085
 C949 C 1.14537 0.34430 -0.11782
 C950 C 1.15832 0.38072 -0.10783
 C951 C 1.13580 0.40282 -0.08838
 C952 C 1.09975 0.38984 -0.08021
 C953 C 1.08675 0.35343 -0.09039
 C954 C 1.10996 0.33006 -0.10889
 C955 C 1.21382 0.37457 -0.14008
 C956 C 1.19285 0.39515 -0.11850
 C957 C 1.12114 0.27111 -0.13901
 C958 C 1.09836 0.29329 -0.11928
 H959 H 1.23967 0.38731 -0.14866
 H960 H 1.20307 0.42319 -0.11094
 H961 H 1.11087 0.24317 -0.14674
 H962 H 1.07127 0.28173 -0.11239
 H963 H 1.16745 0.23732 -0.17999
 H964 H 1.24332 0.33533 -0.18506
 H965 H 1.14548 0.43111 -0.08080
 H966 H 1.05887 0.34354 -0.08397
 C967 C 0.66284 0.83388 0.34886
 C968 C 0.65783 0.79388 0.34370
 C969 C 0.68083 0.77475 0.32203
 C970 C 0.70819 0.79575 0.30533
 C971 C 0.71201 0.83608 0.31103
 C972 C 0.69012 0.85495 0.33282
 C973 C 0.63859 0.85446 0.37100
 C974 C 0.64408 0.89440 0.37598
 C975 C 0.62127 0.91392 0.39700
 C976 C 0.59260 0.89416 0.41282
 C977 C 0.58701 0.85408 0.40735
 C978 C 0.61027 0.83398 0.38654
 C979 C 0.69474 0.89486 0.33843
 C980 C 0.67223 0.91421 0.35976
 C981 C 0.62941 0.77423 0.35998
 C982 C 0.60602 0.79391 0.38090
 H983 H 0.71590 0.91132 0.32615
 H984 H 0.67671 0.94502 0.36340
 H985 H 0.62499 0.74343 0.35634
 H986 H 0.58439 0.77760 0.39274
 H987 H 0.67675 0.74406 0.31763
 H988 H 0.73200 0.85340 0.29826
 H989 H 0.62571 0.94470 0.40090
 H990 H 0.56513 0.83856 0.41956
 C991 C 0.84221 0.69070 -0.14898
 C992 C 0.85733 0.69620 -0.17812
 C993 C 0.83684 0.71729 -0.19960
 C994 C 0.80127 0.73332 -0.19230
 C995 C 0.78839 0.73022 -0.16202
 C996 C 0.80797 0.70782 -0.14060
 C997 C 0.86182 0.66513 -0.12731
 C998 C 0.84547 0.65730 -0.09882
 C999 C 0.86333 0.63101 -0.07903
 C1000 C 0.89743 0.61318 -0.08766
 C1001 C 0.91379 0.62246 -0.11598
 C1002 C 0.89594 0.64790 -0.13600
 C1003 C 0.79303 0.70048 -0.11151
 C1004 C 0.81127 0.67539 -0.09109
 C1005 C 0.89195 0.67904 -0.18572
 C1006 C 0.91108 0.65552 -0.16491
 H1007 H 0.76643 0.71333 -0.10480
 H1008 H 0.79828 0.66979 -0.06922
 H1009 H 0.90406 0.68329 -0.20810
 H1010 H 0.93750 0.64242 -0.17179
 H1011 H 0.84817 0.71943 -0.22240
 H1012 H 0.76194 0.74243 -0.15544
 H1013 H 0.85057 0.62409 -0.05729
 H1014 H 0.94000 0.60898 -0.12293
 C1015 C 0.32478 1.18902 0.35408
 C1016 C 0.34485 1.20810 0.33101
 C1017 C 0.32510 1.22902 0.30887
 C1018 C 0.28532 1.23110 0.30947
 C1019 C 0.26627 1.21574 0.33505
 C1020 C 0.28561 1.19304 0.35658
 C1021 C 0.34512 1.16342 0.37546
 C1022 C 0.32483 1.14222 0.39734
 C1023 C 0.34427 1.11662 0.41676
 C1024 C 0.38379 1.11333 0.41496
 C1025 C 0.40363 1.13553 0.39329
 C1026 C 0.38441 1.16006 0.37314
 C1027 C 0.26641 1.17255 0.37957
 C1028 C 0.28558 1.14723 0.39932
 C1029 C 0.38421 1.20431 0.32963
 C1030 C 0.40367 1.18101 0.35050
 H1031 H 0.23613 1.17513 0.38172
 H1032 H 0.26950 1.13135 0.41620
 H1033 H 0.40008 1.21910 0.31202
 H1034 H 0.43399 1.17876 0.34849
 H1035 H 0.34091 1.24191 0.29035
 H1036 H 0.23612 1.21906 0.33718
 H1037 H 0.32889 1.10007 0.43371
 H1038 H 0.43400 1.13316 0.39181
 C1039 C 1.16798 0.67778 0.14062
 C1040 C 1.19793 0.65831 0.15431
 C1041 C 1.21795 0.67678 0.17709
 C1042 C 1.21088 0.71590 0.18516
 C1043 C 1.18135 0.73571 0.17037
 C1044 C 1.15915 0.71630 0.14854
 C1045 C 1.14417 0.65646 0.11896
 C1046 C 1.11185 0.67431 0.10720
 C1047 C 1.08797 0.65265 0.08811
 C1048 C 1.09738 0.61411 0.08042
 C1049 C 1.13035 0.59727 0.09164
 C1050 C 1.15343 0.61793 0.11140
 C1051 C 1.12739 0.73380 0.13536
 C1052 C 1.10396 0.71306 0.11528
 C1053 C 1.20653 0.61995 0.14598
 C1054 C 1.18491 0.60023 0.12452
 H1055 H 1.12003 0.76342 0.14119
 H1056 H 1.07930 0.72737 0.10623
 H1057 H 1.22999 0.60493 0.15635
 H1058 H 1.19222 0.57053 0.11882
 H1059 H 1.23842 0.65960 0.18922
 H1060 H 1.17433 0.76515 0.17701
 H1061 H 1.06244 0.66551 0.07927
 H1062 H 1.13720 0.56745 0.08584
 C1063 C 0.66040 1.16204 0.65296
 C1064 C 0.68479 1.13972 0.67072
 C1065 C 0.70728 1.15811 0.69230
 C1066 C 0.70680 1.19897 0.69596
 C1067 C 0.68224 1.22109 0.67769
 C1068 C 0.65873 1.20263 0.65627
 C1069 C 0.63606 1.14235 0.63056
 C1070 C 0.61089 1.16432 0.61309
 C1071 C 0.58777 1.14520 0.59181
 C1072 C 0.59057 1.10460 0.58767
 C1073 C 0.61603 1.08327 0.60545
 C1074 C 0.63856 1.10186 0.62704
 C1075 C 0.63335 1.22370 0.63820
 C1076 C 0.60977 1.20490 0.61712
 C1077 C 0.68627 1.09925 0.66669
 C1078 C 0.66368 1.08066 0.64511
 H1079 H 0.63157 1.25500 0.64044
 H1080 H 0.59061 1.22232 0.60376
 H1081 H 0.70516 1.08179 0.68027
 H1082 H 0.66581 1.04940 0.64262
 H1083 H 0.72571 1.14025 0.70595
 H1084 H 0.68101 1.25235 0.68035
 H1085 H 0.56843 1.16187 0.57803
 H1086 H 0.61824 1.05206 0.60253
 C1087 C 0.84451 0.31096 0.14763
 C1088 C 0.80948 0.29487 0.14043
 C1089 C 0.79024 0.27284 0.16246
 C1090 C 0.80431 0.26908 0.19225
 C1091 C 0.84061 0.28416 0.19827
 C1092 C 0.86070 0.30487 0.17619
 C1093 C 0.86394 0.33607 0.12537
 C1094 C 0.89880 0.35241 0.13298
 C1095 C 0.91635 0.37773 0.11258
 C1096 C 0.89899 0.38786 0.08498
 C1097 C 0.86432 0.37063 0.07725
 C1098 C 0.84667 0.34450 0.09747
 C1099 C 0.89604 0.32106 0.18266
 C1100 C 0.91491 0.34422 0.16132
 C1101 C 0.79358 0.30273 0.11187
 C1102 C 0.81171 0.32735 0.09086
 H1103 H 0.90893 0.31636 0.20461
 H1104 H 0.94189 0.35666 0.16736
 H1105 H 0.76636 0.29068 0.10606
 H1106 H 0.79801 0.33341 0.06945
 H1107 H 0.76339 0.26118 0.15669
 H1108 H 0.85302 0.28151 0.22056
 H1109 H 0.94309 0.39060 0.11879
 H1110 H 0.85083 0.37816 0.05603
 C1111 C 0.32357 0.81377 0.64436
 C1112 C 0.28417 0.81497 0.64558
 C1113 C 0.26510 0.79206 0.66712
 C1114 C 0.28509 0.77047 0.68905
 C1115 C 0.32458 0.76732 0.68562
 C1116 C 0.34389 0.78907 0.66356
 C1117 C 0.34400 0.83958 0.62313
 C1118 C 0.38345 0.83814 0.62193
 C1119 C 0.40281 0.86296 0.60201
 C1120 C 0.38315 0.88973 0.58384
 C1121 C 0.34355 0.89111 0.58548
 C1122 C 0.32377 0.86566 0.60488
 C1123 C 0.38334 0.78811 0.66140
 C1124 C 0.40277 0.81207 0.64082
 C1125 C 0.26476 0.84046 0.62622
 C1126 C 0.28422 0.86560 0.60641
 H1127 H 0.39938 0.76910 0.67606
 H1128 H 0.43321 0.81063 0.64005
 H1129 H 0.23430 0.84177 0.62697
 H1130 H 0.26817 0.88529 0.59232
 H1131 H 0.23487 0.79216 0.66703
 H1132 H 0.34077 0.74981 0.70127
 H1133 H 0.43327 0.86173 0.60086
 H1134 H 0.32823 0.91127 0.57124
 C1135 C 0.32494 1.16160 -0.15265
 C1136 C 0.33581 1.16154 -0.18323
 C1137 C 0.31448 1.18202 -0.20412
 C1138 C 0.28200 1.20275 -0.19511
 C1139 C 0.26926 1.19919 -0.16480
 C1140 C 0.29172 1.18010 -0.14310
 C1141 C 0.34929 1.14244 -0.13026
 C1142 C 0.33986 1.14396 -0.09925
 C1143 C 0.36405 1.12636 -0.07802
 C1144 C 0.39640 1.10655 -0.08820
 C1145 C 0.40493 1.10507 -0.11931
 C1146 C 0.38189 1.12330 -0.14036
 C1147 C 0.28259 1.18024 -0.11197
 C1148 C 0.30642 1.16281 -0.09039
 C1149 C 0.36852 1.14196 -0.19244
 C1150 C 0.39108 1.12284 -0.17133
 H1151 H 0.25722 1.19460 -0.10415
 H1152 H 0.29859 1.16408 -0.06661
 H1153 H 0.37693 1.14169 -0.21613
 H1154 H 0.41620 1.10809 -0.17926
 H1155 H 0.32408 1.18216 -0.22748
 H1156 H 0.24351 1.21340 -0.15771
 H1157 H 0.35736 1.12713 -0.05399
 H1158 H 0.43001 1.09007 -0.12713
 C1159 C 0.82491 0.68344 0.35351
 C1160 C 0.78560 0.68014 0.35102
 C1161 C 0.76672 0.70098 0.32805
 C1162 C 0.78717 0.72475 0.30772
 C1163 C 0.82652 0.72847 0.31168
 C1164 C 0.84540 0.70788 0.33415
 C1165 C 0.84534 0.65970 0.37595
 C1166 C 0.88484 0.66165 0.37703
 C1167 C 0.90438 0.63711 0.39677
 C1168 C 0.88479 0.61121 0.41575
 C1169 C 0.84510 0.61059 0.41538
 C1170 C 0.82519 0.63444 0.39505
 C1171 C 0.88471 0.71029 0.33678
 C1172 C 0.90413 0.68738 0.35776
 C1173 C 0.76631 0.65509 0.37099
 C1174 C 0.78573 0.63277 0.39268
 H1175 H 0.90069 0.72936 0.32196
 H1176 H 0.93454 0.68938 0.35857
 H1177 H 0.73601 0.65227 0.36954
 H1178 H 0.76977 0.61344 0.40729
 H1179 H 0.73658 0.69774 0.32544
 H1180 H 0.84315 0.74680 0.29680
 H1181 H 0.93489 0.63781 0.39716
 H1182 H 0.82992 0.59042 0.42985
 C1183 C 0.68464 1.16062 0.14343
 C1184 C 0.68488 1.20127 0.14410
 C1185 C 0.70554 1.22032 0.16649
 C1186 C 0.72655 1.19961 0.18823
 C1187 C 0.72781 1.15858 0.18576
 C1188 C 0.70619 1.13898 0.16396
 C1189 C 0.65987 1.14043 0.12183
 C1190 C 0.65728 1.09972 0.12277
 C1191 C 0.63123 1.08091 0.10396
 C1192 C 0.60856 1.10263 0.08407
 C1193 C 0.61278 1.14317 0.08239
 C1194 C 0.63786 1.16234 0.10168
 C1195 C 0.70419 1.09818 0.16326
 C1196 C 0.67991 1.07887 0.14316
 C1197 C 0.66316 1.22225 0.12315
 C1198 C 0.64021 1.20307 0.10214
 H1199 H 0.72067 1.08106 0.17899
 H1200 H 0.67838 1.04743 0.14395
 H1201 H 0.66330 1.25375 0.12343
 H1202 H 0.62336 1.22027 0.08672
 H1203 H 0.70439 1.25133 0.16663
 H1204 H 0.74380 1.14157 0.20187
 H1205 H 0.62810 1.04960 0.10514
 H1206 H 0.59510 1.15995 0.06727
 C1207 C 1.16642 0.65837 0.65715
 C1208 C 1.15791 0.65478 0.68810
 C1209 C 1.18090 0.67307 0.70938
 C1210 C 1.21161 0.69663 0.70028
 C1211 C 1.22045 0.69893 0.66901
 C1212 C 1.19786 0.67980 0.64733
 C1213 C 1.14178 0.63932 0.63466
 C1214 C 1.15058 0.64180 0.60361
 C1215 C 1.12725 0.62279 0.58241
 C1216 C 1.09498 0.60233 0.59230
 C1217 C 1.08642 0.60095 0.62351
 C1218 C 1.10989 0.61884 0.64476
 C1219 C 1.20563 0.68195 0.61600
 C1220 C 1.18257 0.66311 0.59457
 C1221 C 1.12601 0.63366 0.69731
 C1222 C 1.10226 0.61621 0.67599
 H1223 H 1.22976 0.69833 0.60797
 H1224 H 1.18976 0.66542 0.57070
 H1225 H 1.11912 0.63091 0.72121
 H1226 H 1.07780 0.60037 0.68404
 H1227 H 1.17364 0.66997 0.73318
 H1228 H 1.24438 0.71567 0.66139
 H1229 H 1.13405 0.62398 0.55841
 H1230 H 1.06195 0.58499 0.63143
 C1231 C 0.68608 0.84131 -0.13755
 C1232 C 0.70869 0.86238 -0.15791
 C1233 C 0.72828 0.84247 -0.18087
 C1234 C 0.72425 0.80180 -0.18449
 C1235 C 0.70257 0.78144 -0.16275
 C1236 C 0.68353 0.80080 -0.13941
 C1237 C 0.66310 0.86216 -0.11488
 C1238 C 0.63959 0.84097 -0.09513
 C1239 C 0.61565 0.86105 -0.07518
 C1240 C 0.61424 0.90187 -0.07580
 C1241 C 0.63886 0.92269 -0.09498
 C1242 C 0.66349 0.90294 -0.11453
 C1243 C 0.66067 0.78044 -0.11866
 C1244 C 0.63915 0.80021 -0.09681
 C1245 C 0.70973 0.90313 -0.15587
 C1246 C 0.68732 0.92309 -0.13466
 H1247 H 0.65865 0.74904 -0.11983
 H1248 H 0.62119 0.78352 -0.08172
 H1249 H 0.72710 0.91979 -0.17142
 H1250 H 0.68806 0.95458 -0.13447
 H1251 H 0.74493 0.85913 -0.19692
 H1252 H 0.70000 0.75053 -0.16351
 H1253 H 0.59649 0.84497 -0.06063
 H1254 H 0.63793 0.95419 -0.09539
 C1255 C 1.15857 0.33035 0.35077
 C1256 C 1.14138 0.31899 0.32369
 C1257 C 1.16285 0.30103 0.30124
 C1258 C 1.20148 0.29259 0.30545
 C1259 C 1.21842 0.30407 0.33304
 C1260 C 1.19699 0.32320 0.35577
 C1261 C 1.13604 0.35148 0.37375
 C1262 C 1.15326 0.36474 0.40044
 C1263 C 1.13187 0.38670 0.42145
 C1264 C 1.09370 0.39533 0.41553
 C1265 C 1.07694 0.38061 0.38904
 C1266 C 1.09790 0.35909 0.36805
 C1267 C 1.21307 0.33609 0.38315
 C1268 C 1.19166 0.35654 0.40501
 C1269 C 1.10299 0.32650 0.31909
 C1270 C 1.08157 0.34607 0.34096
 H1271 H 1.24259 0.33081 0.38755
 H1272 H 1.20543 0.36639 0.42552
 H1273 H 1.08946 0.31752 0.29822
 H1274 H 1.05214 0.35170 0.33636
 H1275 H 1.14885 0.29439 0.28012
 H1276 H 1.24816 0.29903 0.33653
 H1277 H 1.14509 0.39793 0.44177
 H1278 H 1.04766 0.38685 0.38425
 C1279 C 0.32654 0.83019 0.14593
 C1280 C 0.28782 0.83675 0.14996
 C1281 C 0.26807 0.81540 0.17219
 C1282 C 0.28729 0.78875 0.19087
 C1283 C 0.32638 0.78355 0.18667
 C1284 C 0.34581 0.80327 0.16391
 C1285 C 0.34765 0.85270 0.12308
 C1286 C 0.38633 0.84570 0.11914
 C1287 C 0.40656 0.86780 0.09810
 C1288 C 0.38871 0.89742 0.08181
 C1289 C 0.35002 0.90435 0.08573
 C1290 C 0.32910 0.88155 0.10626
 C1291 C 0.38439 0.79684 0.15914
 C1292 C 0.40428 0.81751 0.13692
 C1293 C 0.26995 0.86506 0.13208
 C1294 C 0.29031 0.88731 0.11079
 H1295 H 0.39936 0.77579 0.17282
 H1296 H 0.43409 0.81194 0.13404
 H1297 H 0.24013 0.87054 0.13494
 H1298 H 0.27560 0.90932 0.09788
 H1299 H 0.23819 0.82020 0.17535
 H1300 H 0.34201 0.76370 0.20092
 H1301 H 0.43653 0.86302 0.09513
 H1302 H 0.33652 0.92746 0.07311
 C1303 C 0.82220 0.31377 0.64228
 C1304 C 0.78341 0.31905 0.64718
 C1305 C 0.76488 0.29678 0.66968
 C1306 C 0.78512 0.26950 0.68709
 C1307 C 0.82366 0.26350 0.68028
 C1308 C 0.84229 0.28568 0.65843
 C1309 C 0.84272 0.33958 0.62114
 C1310 C 0.88199 0.33599 0.61821
 C1311 C 0.90182 0.36244 0.60001
 C1312 C 0.88263 0.39170 0.58422
 C1313 C 0.84308 0.39408 0.58632
 C1314 C 0.82300 0.36847 0.60534
 C1315 C 0.88123 0.28169 0.65378
 C1316 C 0.90081 0.30662 0.63415
 C1317 C 0.76449 0.34778 0.63044
 C1318 C 0.78388 0.37186 0.60975
 H1319 H 0.89692 0.25988 0.66615
 H1320 H 0.93101 0.30331 0.63184
 H1321 H 0.73457 0.35217 0.63376
 H1322 H 0.76827 0.39399 0.59768
 H1323 H 0.73546 0.30213 0.67464
 H1324 H 0.84026 0.24309 0.69323
 H1325 H 0.93221 0.36046 0.59823
 H1326 H 0.82829 0.41687 0.57429
 C1327 C 1.14860 1.16041 0.66957
 C1328 C 1.13924 1.19965 0.67406
 C1329 C 1.15890 1.22132 0.69575
 C1330 C 1.18853 1.20429 0.71215
 C1331 C 1.19517 1.16396 0.70911
 C1332 C 1.17604 1.14220 0.68732
 C1333 C 1.13040 1.13838 0.64507
 C1334 C 1.14124 1.09971 0.63960
 C1335 C 1.12536 1.07957 0.61518
 C1336 C 1.09868 1.09783 0.59657
 C1337 C 1.08733 1.13621 0.60286
 C1338 C 1.10343 1.15681 0.62692
 C1339 C 1.18528 1.10312 0.68187
 C1340 C 1.16827 1.08225 0.65829
 C1341 C 1.11153 1.21686 0.65584
 C1342 C 1.09381 1.19573 0.63270
 H1343 H 1.20653 1.08884 0.69545
 H1344 H 1.17671 1.05240 0.65441
 H1345 H 1.10404 1.24710 0.65909
 H1346 H 1.07298 1.21019 0.61883
 H1347 H 1.15191 1.25159 0.69892
 H1348 H 1.21702 1.14977 0.72206
 H1349 H 1.13394 1.04993 0.61050
 H1350 H 1.06681 1.15043 0.58853
 C1351 C 0.67004 0.65847 0.16319
 C1352 C 0.64949 0.68467 0.18123
 C1353 C 0.66829 0.70640 0.20343
 C1354 C 0.70763 0.70291 0.20684
 C1355 C 0.72663 0.67305 0.19112
 C1356 C 0.70843 0.65201 0.16829
 C1357 C 0.65113 0.63783 0.13824
 C1358 C 0.67198 0.61256 0.11956
 C1359 C 0.65373 0.59288 0.09589
 C1360 C 0.61480 0.59749 0.09169
 C1361 C 0.59440 0.62307 0.11046
 C1362 C 0.61251 0.64368 0.13359
 C1363 C 0.72825 0.62597 0.14956
 C1364 C 0.71041 0.60684 0.12542
 C1365 C 0.61094 0.68993 0.17574
 C1366 C 0.59269 0.66956 0.15244
 H1367 H 0.75801 0.62102 0.15315
 H1368 H 0.72679 0.58733 0.11130
 H1369 H 0.59480 0.71016 0.18941
 H1370 H 0.56288 0.67434 0.14901
 H1371 H 0.65278 0.72802 0.21624
 H1372 H 0.75625 0.66788 0.19510
 H1373 H 0.66930 0.57264 0.08177
 H1374 H 0.56435 0.62648 0.10726
 C1375 C 1.15745 0.84128 0.33138
 C1376 C 1.14348 0.80501 0.32212
 C1377 C 1.16279 0.78421 0.29974
 C1378 C 1.19652 0.79879 0.28736
 C1379 C 1.20830 0.83675 0.29503
 C1380 C 1.18942 0.85767 0.31765
 C1381 C 1.13922 0.86165 0.35681
 C1382 C 1.15432 0.89699 0.36717
 C1383 C 1.13792 0.91524 0.39240
 C1384 C 1.10673 0.89824 0.40703
 C1385 C 1.09148 0.86330 0.39593
 C1386 C 1.10779 0.84470 0.37097
 C1387 C 1.20311 0.89360 0.32799
 C1388 C 1.18591 0.91290 0.35244
 C1389 C 1.11147 0.78940 0.33639
 C1390 C 1.09381 0.80901 0.36039
 H1391 H 1.22791 0.90640 0.31765
 H1392 H 1.19777 0.94017 0.36016
 H1393 H 1.10047 0.76142 0.32938
 H1394 H 1.06951 0.79576 0.37117
 H1395 H 1.15226 0.75605 0.29300
 H1396 H 1.23380 0.84885 0.28532
 H1397 H 1.14961 0.94226 0.40082
 H1398 H 1.06741 0.85009 0.40709
 C1399 C 0.67405 0.33427 -0.16176
 C1400 C 0.65359 0.30967 -0.18104
 C1401 C 0.67242 0.29012 -0.20442
 C1402 C 0.71169 0.29434 -0.20814
 C1403 C 0.73082 0.32234 -0.19064
 C1404 C 0.71250 0.34121 -0.16661
 C1405 C 0.65488 0.35286 -0.13590
 C1406 C 0.67544 0.37699 -0.11624
 C1407 C 0.65671 0.39545 -0.09212
 C1408 C 0.61766 0.39066 -0.08842
 C1409 C 0.59770 0.36576 -0.10787
 C1410 C 0.61620 0.34659 -0.13157
 C1411 C 0.73217 0.36565 -0.14662
 C1412 C 0.71398 0.38310 -0.12175
 C1413 C 0.61503 0.30374 -0.17574
 C1414 C 0.59657 0.32208 -0.15150
 H1415 H 0.76198 0.37090 -0.14997
 H1416 H 0.73015 0.40171 -0.10683
 H1417 H 0.59901 0.28465 -0.19040
 H1418 H 0.56672 0.31702 -0.14830
 H1419 H 0.65682 0.26974 -0.21825
 H1420 H 0.76031 0.32817 -0.19456
 H1421 H 0.67193 0.41520 -0.07742
 H1422 H 0.56756 0.36223 -0.10501
 C1423 C 0.84983 1.14591 0.33689
 C1424 C 0.81953 1.16844 0.34695
 C1425 C 0.79651 1.18613 0.32572
 C1426 C 0.80328 1.18235 0.29424
 C1427 C 0.83352 1.15889 0.28439
 C1428 C 0.85696 1.14053 0.30576
 C1429 C 0.87484 1.12821 0.35951
 C1430 C 0.90532 1.10536 0.34976
 C1431 C 0.92851 1.08793 0.37166
 C1432 C 0.92103 1.09381 0.40270
 C1433 C 0.89094 1.11714 0.41202
 C1434 C 0.86763 1.13437 0.39056
 C1435 C 0.88781 1.11759 0.29681
 C1436 C 0.91149 1.10017 0.31844
 C1437 C 0.81321 1.17396 0.37813
 C1438 C 0.83693 1.15716 0.39964
 H1439 H 0.89375 1.11312 0.27291
 H1440 H 0.93486 1.08260 0.31058
 H1441 H 0.78984 1.19157 0.38597
 H1442 H 0.83118 1.16201 0.42353
 H1443 H 0.77442 1.20468 0.33427
 H1444 H 0.83953 1.15588 0.26036
 H1445 H 0.95163 1.06935 0.36474
 H1446 H 0.88522 1.12102 0.43606
 C1447 C 0.35116 0.66096 -0.15932
 C1448 C 0.32651 0.68988 -0.14944
 C1449 C 0.30560 0.71012 -0.17079
 C1450 C 0.30735 0.70124 -0.20209
 C1451 C 0.33302 0.67249 -0.21181
 C1452 C 0.35517 0.65235 -0.19041
 C1453 C 0.37246 0.63874 -0.13654
 C1454 C 0.39774 0.61010 -0.14629
 C1455 C 0.41816 0.58935 -0.12448
 C1456 C 0.41252 0.59637 -0.09320
 C1457 C 0.38654 0.62456 -0.08377
 C1458 C 0.36683 0.64632 -0.10540
 C1459 C 0.38073 0.62328 -0.19924
 C1460 C 0.40187 0.60273 -0.17758
 C1461 C 0.32204 0.69725 -0.11823
 C1462 C 0.34170 0.67564 -0.09655
 H1463 H 0.38438 0.61627 -0.22306
 H1464 H 0.42129 0.58058 -0.18536
 H1465 H 0.30279 0.71961 -0.11048
 H1466 H 0.33722 0.68194 -0.07269
 H1467 H 0.28545 0.73050 -0.16226
 H1468 H 0.33524 0.66527 -0.23569
 H1469 H 0.43800 0.56730 -0.13181
 H1470 H 0.38238 0.63009 -0.05975
 C1471 C 0.83926 0.85735 0.66145
 C1472 C 0.80594 0.83861 0.65319
 C1473 C 0.78457 0.82034 0.67543
 C1474 C 0.79476 0.82159 0.70638
 C1475 C 0.82788 0.84172 0.71450
 C1476 C 0.85063 0.85911 0.69194
 C1477 C 0.86337 0.87392 0.63747
 C1478 C 0.89795 0.89093 0.64524
 C1479 C 0.92107 0.90594 0.62201
 C1480 C 0.90895 0.90446 0.59166
 C1481 C 0.87429 0.88767 0.58434
 C1482 C 0.85158 0.87183 0.60707
 C1483 C 0.88509 0.87706 0.69895
 C1484 C 0.90843 0.89254 0.67600
 C1485 C 0.79513 0.83699 0.62259
 C1486 C 0.81744 0.85371 0.59990
 H1487 H 0.89438 0.87864 0.72232
 H1488 H 0.93494 0.90574 0.68236
 H1489 H 0.76925 0.82254 0.61613
 H1490 H 0.80818 0.85193 0.57652
 H1491 H 0.76145 0.80271 0.66773
 H1492 H 0.83698 0.84213 0.73794
 H1493 H 0.94781 0.91938 0.62744
 H1494 H 0.86523 0.88674 0.56085
 C1495 C 0.33479 0.35352 0.16296
 C1496 C 0.29589 0.36043 0.16410
 C1497 C 0.27418 0.34268 0.18710
 C1498 C 0.29077 0.31584 0.20723
 C1499 C 0.33046 0.31267 0.20751
 C1500 C 0.35240 0.33073 0.18513
 C1501 C 0.35747 0.36975 0.13778
 C1502 C 0.39635 0.36270 0.13689
 C1503 C 0.41792 0.37835 0.11319
 C1504 C 0.40104 0.40077 0.09026
 C1505 C 0.36182 0.40702 0.09105
 C1506 C 0.33989 0.39180 0.11505
 C1507 C 0.39143 0.32464 0.18356
 C1508 C 0.41305 0.34045 0.15990
 C1509 C 0.27937 0.38339 0.14134
 C1510 C 0.30092 0.39860 0.11717
 H1511 H 0.40531 0.30703 0.20055
 H1512 H 0.44306 0.33493 0.15948
 H1513 H 0.24937 0.38898 0.14186
 H1514 H 0.28692 0.41573 0.09996
 H1515 H 0.24416 0.34784 0.18803
 H1516 H 0.34437 0.29377 0.22357
 H1517 H 0.44807 0.37352 0.11280
 H1518 H 0.34873 0.42477 0.07374
   
