data_POSCAR
  _audit_creation_date              2014-09-24
  _audit_creation_method            'ToBaCCo'
  _symmetry_space_group_name_H-M    'P1'
  _symmetry_Int_Tables_number       1
  _symmetry_cell_setting            triclinic
  loop_
  _symmetry_equiv_pos_as_xyz
 x,y,z
_cell_length_a 66.4140
_cell_length_b 66.9576
_cell_length_c 69.6882
_cell_angle_alpha 90.258700
_cell_angle_beta 89.942800
_cell_angle_gamma 90.108200
loop_
  _atom_site_label
  _atom_site_type_symbol
  _atom_site_fract_x
  _atom_site_fract_y
  _atom_site_fract_z
N1 N 0.36765 0.31588 0.33390
 N2 N 0.36808 0.33055 0.32146
 C3 C 0.38138 0.32615 0.30750
 C4 C 0.38927 0.30733 0.31094
 C5 C 0.38036 0.30143 0.32802
 H6 H 0.38541 0.33616 0.29599
 H7 H 0.38311 0.28773 0.33574
 Cu8 Cu 0.35082 0.35370 0.32472
 Cu9 Cu 0.35159 0.31733 0.35739
 Cu10 Cu 0.31988 0.35841 0.36245
 N11 N 0.33055 0.37452 0.32563
 N12 N 0.31973 0.37736 0.34119
 C13 C 0.30747 0.39307 0.33846
 C14 C 0.30996 0.39987 0.31981
 C15 C 0.32504 0.38787 0.31225
 H16 H 0.29729 0.39888 0.34922
 H17 H 0.33127 0.38859 0.29793
 N18 N 0.32208 0.33712 0.38190
 N19 N 0.33424 0.32164 0.38008
 C20 C 0.33150 0.30941 0.39516
 C21 C 0.31686 0.31746 0.40704
 C22 C 0.31104 0.33488 0.39798
 H23 H 0.33907 0.29529 0.39709
 H24 H 0.29886 0.34464 0.40224
 H25 H 0.32888 0.33457 0.34573
 H26 H 0.34896 0.34799 0.35928
 N27 N 0.37666 0.81878 -0.16163
 N28 N 0.37670 0.83220 -0.17531
 C29 C 0.39310 0.82944 -0.18638
 C30 C 0.40414 0.81346 -0.17916
 C31 C 0.39286 0.80696 -0.16358
 H32 H 0.39664 0.83834 -0.19885
 H33 H 0.39529 0.79372 -0.15507
 Cu34 Cu 0.35422 0.85062 -0.17818
 Cu35 Cu 0.35470 0.81650 -0.14332
 Cu36 Cu 0.32535 0.85919 -0.13954
 N37 N 0.33266 0.87032 -0.17868
 N38 N 0.32175 0.87388 -0.16333
 C39 C 0.30859 0.88857 -0.16711
 C40 C 0.31071 0.89420 -0.18619
 C41 C 0.32656 0.88246 -0.19289
 H42 H 0.29891 0.89516 -0.15635
 H43 H 0.33296 0.88243 -0.20715
 N44 N 0.32519 0.83773 -0.12025
 N45 N 0.33653 0.82165 -0.12160
 C46 C 0.33258 0.80961 -0.10667
 C47 C 0.31784 0.81837 -0.09538
 C48 C 0.31329 0.83607 -0.10468
 H49 H 0.33953 0.79521 -0.10445
 H50 H 0.30145 0.84648 -0.10101
 H51 H 0.33187 0.83438 -0.15518
 H52 H 0.35397 0.84654 -0.14339
 N53 N 0.87404 0.32513 -0.16054
 N54 N 0.87726 0.34174 -0.17001
 C55 C 0.89248 0.33891 -0.18248
 C56 C 0.89852 0.31910 -0.18149
 C57 C 0.88668 0.31096 -0.16708
 H58 H 0.89840 0.35040 -0.19177
 H59 H 0.88695 0.29573 -0.16200
 Cu60 Cu 0.85924 0.36440 -0.16748
 Cu61 Cu 0.85349 0.32321 -0.14066
 Cu62 Cu 0.82473 0.36548 -0.13241
 N63 N 0.83543 0.38124 -0.16917
 N64 N 0.82201 0.38179 -0.15534
 C65 C 0.80728 0.39460 -0.16010
 C66 C 0.81124 0.40213 -0.17831
 C67 C 0.82959 0.39352 -0.18333
 H68 H 0.79510 0.39863 -0.15055
 H69 H 0.83786 0.39550 -0.19656
 N70 N 0.82462 0.34233 -0.11514
 N71 N 0.83591 0.32641 -0.11798
 C72 C 0.83272 0.31345 -0.10357
 C73 C 0.81857 0.32150 -0.09110
 C74 C 0.81351 0.33969 -0.09921
 H75 H 0.83993 0.29905 -0.10238
 H76 H 0.80201 0.34995 -0.09434
 H77 H 0.83372 0.34453 -0.15129
 H78 H 0.85393 0.35318 -0.13453
 N79 N 0.87554 0.82537 0.33761
 N80 N 0.87147 0.83475 0.32156
 C81 C 0.88524 0.82975 0.30824
 C82 C 0.89895 0.81684 0.31650
 C83 C 0.89218 0.81420 0.33511
 H84 H 0.88526 0.83503 0.29359
 H85 H 0.89882 0.80482 0.34599
 Cu86 Cu 0.84913 0.85328 0.31976
 Cu87 Cu 0.85881 0.82845 0.36040
 Cu88 Cu 0.81312 0.85237 0.35330
 N89 N 0.82997 0.87501 0.32246
 N90 N 0.81566 0.87462 0.33545
 C91 C 0.80397 0.89088 0.33341
 C92 C 0.81164 0.90246 0.31853
 C93 C 0.82800 0.89155 0.31178
 H94 H 0.79096 0.89404 0.34226
 H95 H 0.83704 0.89462 0.29923
 N96 N 0.81826 0.83475 0.37524
 N97 N 0.83593 0.82637 0.37836
 C98 C 0.83459 0.81469 0.39397
 C99 C 0.81502 0.81543 0.40075
 C100 C 0.80518 0.82858 0.38876
 H101 H 0.84672 0.80565 0.39952
 H102 H 0.78947 0.83275 0.38941
 H103 H 0.83398 0.83092 0.34329
 H104 H 0.84316 0.85471 0.35432
 N105 N 0.63081 0.68384 0.33478
 N106 N 0.62817 0.66835 0.32342
 C107 C 0.61158 0.67128 0.31272
 C108 C 0.60335 0.68958 0.31777
 C109 C 0.61625 0.69731 0.33152
 H110 H 0.60597 0.66097 0.30198
 H111 H 0.61523 0.71170 0.33857
 Cu112 Cu 0.64739 0.64647 0.32327
 Cu113 Cu 0.65259 0.68496 0.35336
 Cu114 Cu 0.67053 0.63790 0.36509
 N115 N 0.66656 0.62480 0.32604
 N116 N 0.67456 0.62065 0.34279
 C117 C 0.68633 0.60441 0.34099
 C118 C 0.68651 0.59863 0.32185
 C119 C 0.67349 0.61177 0.31288
 H120 H 0.69428 0.59752 0.35276
 H121 H 0.66949 0.61192 0.29784
 N122 N 0.67347 0.66143 0.38202
 N123 N 0.66723 0.67941 0.37714
 C124 C 0.67234 0.69251 0.39096
 C125 C 0.68223 0.68230 0.40528
 C126 C 0.68297 0.66267 0.39906
 H127 H 0.66943 0.70839 0.39047
 H128 H 0.69029 0.65034 0.40618
 H129 H 0.67129 0.66066 0.34616
 H130 H 0.64612 0.65582 0.35716
 N131 N 0.62725 0.17704 -0.16394
 N132 N 0.62792 0.16387 -0.17794
 C133 C 0.61142 0.16578 -0.18891
 C134 C 0.59951 0.18075 -0.18121
 C135 C 0.61020 0.18774 -0.16546
 H136 H 0.60878 0.15757 -0.20207
 H137 H 0.60625 0.20019 -0.15627
 Cu138 Cu 0.65078 0.14632 -0.18137
 Cu139 Cu 0.64981 0.18078 -0.14652
 Cu140 Cu 0.68321 0.14105 -0.14461
 N141 N 0.66839 0.12346 -0.17949
 N142 N 0.68111 0.12136 -0.16524
 C143 C 0.69190 0.10461 -0.16811
 C144 C 0.68519 0.09537 -0.18484
 C145 C 0.67040 0.10805 -0.19175
 H146 H 0.70368 0.09948 -0.15864
 H147 H 0.66251 0.10688 -0.20527
 N148 N 0.68281 0.16283 -0.12541
 N149 N 0.67050 0.17824 -0.12653
 C150 C 0.67492 0.19129 -0.11241
 C151 C 0.69096 0.18392 -0.10205
 C152 C 0.69531 0.16564 -0.11042
 H153 H 0.66736 0.20539 -0.11007
 H154 H 0.70696 0.15534 -0.10610
 H155 H 0.67316 0.16508 -0.15981
 H156 H 0.65355 0.15042 -0.14682
 N157 N 0.12597 0.67911 -0.16264
 N158 N 0.12683 0.66568 -0.17642
 C159 C 0.11082 0.66786 -0.18800
 C160 C 0.09907 0.68331 -0.18096
 C161 C 0.10934 0.69029 -0.16497
 H162 H 0.10837 0.65945 -0.20108
 H163 H 0.10534 0.70294 -0.15605
 Cu164 Cu 0.14959 0.64765 -0.17880
 Cu165 Cu 0.14767 0.68215 -0.14407
 Cu166 Cu 0.17468 0.63835 -0.13805
 N167 N 0.17026 0.62725 -0.17762
 N168 N 0.17953 0.62311 -0.16148
 C169 C 0.19222 0.60775 -0.16445
 C170 C 0.19132 0.60240 -0.18366
 C171 C 0.17697 0.61491 -0.19150
 H172 H 0.20135 0.60097 -0.15341
 H173 H 0.17180 0.61494 -0.20620
 N174 N 0.17519 0.66064 -0.11939
 N175 N 0.16548 0.67758 -0.12207
 C176 C 0.17086 0.69070 -0.10831
 C177 C 0.18491 0.68171 -0.09661
 C178 C 0.18704 0.66253 -0.10382
 H179 H 0.16567 0.70597 -0.10739
 H180 H 0.19722 0.65116 -0.09868
 H181 H 0.17070 0.66327 -0.15441
 H182 H 0.14723 0.65226 -0.14407
 N183 N 0.12796 0.18241 0.33518
 N184 N 0.13124 0.17139 0.31987
 C185 C 0.11574 0.17348 0.30765
 C186 C 0.10172 0.18617 0.31594
 C187 C 0.11017 0.19176 0.33333
 H188 H 0.11508 0.16677 0.29351
 H189 H 0.10409 0.20226 0.34364
 Cu190 Cu 0.15548 0.15553 0.31722
 Cu191 Cu 0.14810 0.18531 0.35517
 Cu192 Cu 0.18268 0.14667 0.35715
 N193 N 0.17373 0.13311 0.31891
 N194 N 0.18401 0.12931 0.33459
 C195 C 0.19473 0.11246 0.33188
 C196 C 0.19059 0.10519 0.31367
 C197 C 0.17745 0.11884 0.30576
 H198 H 0.20463 0.10585 0.34239
 H199 H 0.17096 0.11832 0.29153
 N200 N 0.17896 0.16626 0.37818
 N201 N 0.16608 0.18120 0.37710
 C202 C 0.16796 0.19281 0.39278
 C203 C 0.18252 0.18469 0.40454
 C204 C 0.18936 0.16799 0.39471
 H205 H 0.15994 0.20665 0.39511
 H206 H 0.20148 0.15825 0.39902
 H207 H 0.17390 0.17206 0.34336
 H208 H 0.15332 0.15534 0.35200
 N209 N 0.62882 0.31852 0.66671
 N210 N 0.62683 0.33416 0.67801
 C211 C 0.61128 0.33108 0.69005
 C212 C 0.60296 0.31259 0.68591
 C213 C 0.61474 0.30488 0.67126
 H214 H 0.60639 0.34144 0.70105
 H215 H 0.61332 0.29035 0.66453
 Cu216 Cu 0.64534 0.35657 0.67627
 Cu217 Cu 0.64986 0.31693 0.64730
 Cu218 Cu 0.67230 0.36232 0.63605
 N219 N 0.66693 0.37612 0.67472
 N220 N 0.67696 0.37896 0.65869
 C221 C 0.69016 0.39403 0.66124
 C222 C 0.68875 0.40056 0.68011
 C223 C 0.67364 0.38902 0.68811
 H224 H 0.69993 0.39983 0.65015
 H225 H 0.66794 0.38997 0.70264
 N226 N 0.67329 0.33882 0.61895
 N227 N 0.66529 0.32142 0.62356
 C228 C 0.66923 0.30814 0.60953
 C229 C 0.68014 0.31764 0.59533
 C230 C 0.68270 0.33701 0.60190
 H231 H 0.66485 0.29258 0.60977
 H232 H 0.69114 0.34878 0.59496
 H233 H 0.66948 0.34007 0.65514
 H234 H 0.64566 0.34649 0.64246
 N235 N 0.62532 0.81963 1.16335
 N236 N 0.62587 0.83357 1.17668
 C237 C 0.60998 0.83133 1.18844
 C238 C 0.59862 0.81529 1.18201
 C239 C 0.60902 0.80802 1.16620
 H240 H 0.60728 0.84022 1.20118
 H241 H 0.60525 0.79501 1.15766
 Cu242 Cu 0.64799 0.85254 1.17819
 Cu243 Cu 0.64688 0.81693 1.14445
 Cu244 Cu 0.67181 0.86177 1.13677
 N245 N 0.66801 0.87360 1.17616
 N246 N 0.67680 0.87767 1.15974
 C247 C 0.68925 0.89336 1.16213
 C248 C 0.68872 0.89900 1.18127
 C249 C 0.67481 0.88633 1.18966
 H250 H 0.69804 0.90008 1.15078
 H251 H 0.67007 0.88640 1.20451
 N252 N 0.67293 0.83906 1.11868
 N253 N 0.66418 0.82169 1.12199
 C254 C 0.67021 0.80844 1.10860
 C255 C 0.68370 0.81784 1.09650
 C256 C 0.68476 0.83734 1.10306
 H257 H 0.66595 0.79285 1.10824
 H258 H 0.69433 0.84908 1.09755
 H259 H 0.66926 0.83712 1.15384
 H260 H 0.64514 0.84670 1.14366
 N261 N 0.12867 0.31608 1.16341
 N262 N 0.12897 0.32985 1.17690
 C263 C 0.11289 0.32746 1.18837
 C264 C 0.10149 0.31166 1.18144
 C265 C 0.11222 0.30455 1.16573
 H266 H 0.11002 0.33626 1.20113
 H267 H 0.10848 0.29182 1.15680
 Cu268 Cu 0.15046 0.34946 1.17851
 Cu269 Cu 0.15058 0.31386 1.14482
 Cu270 Cu 0.17216 0.36015 1.13633
 N271 N 0.16913 0.37158 1.17591
 N272 N 0.17731 0.37607 1.15929
 C273 C 0.18927 0.39217 1.16152
 C274 C 0.18890 0.39770 1.18068
 C275 C 0.17572 0.38452 1.18932
 H276 H 0.19772 0.39918 1.15009
 H277 H 0.17142 0.38428 1.20429
 N278 N 0.17403 0.33750 1.11819
 N279 N 0.16726 0.31946 1.12221
 C280 C 0.17416 0.30650 1.10898
 C281 C 0.18603 0.31684 1.09602
 C282 C 0.18506 0.33658 1.10200
 H283 H 0.17137 0.29059 1.10916
 H284 H 0.19248 0.34927 1.09554
 H285 H 0.17195 0.33553 1.15355
 H286 H 0.14693 0.34345 1.14404
 N287 N 0.12892 0.82205 0.66718
 N288 N 0.12504 0.83865 0.67660
 C289 C 0.11004 0.83536 0.68918
 C290 C 0.10449 0.81546 0.68786
 C291 C 0.11662 0.80752 0.67358
 H292 H 0.10375 0.84655 0.69867
 H293 H 0.11664 0.79227 0.66839
 Cu294 Cu 0.14080 0.86260 0.67240
 Cu295 Cu 0.15015 0.82062 0.64780
 Cu296 Cu 0.16808 0.86653 0.63230
 N297 N 0.16211 0.88236 0.67012
 N298 N 0.17244 0.88439 0.65415
 C299 C 0.18633 0.89886 0.65658
 C300 C 0.18495 0.90584 0.67529
 C301 C 0.16918 0.89526 0.68333
 H302 H 0.19695 0.90356 0.64571
 H303 H 0.16363 0.89648 0.69789
 N304 N 0.17074 0.84192 0.61707
 N305 N 0.16521 0.82426 0.62358
 C306 C 0.17083 0.81018 0.61084
 C307 C 0.17991 0.81944 0.59532
 C308 C 0.17978 0.83958 0.59992
 H309 H 0.16887 0.79430 0.61292
 H310 H 0.18634 0.85161 0.59167
 H311 H 0.16684 0.84613 0.65340
 H312 H 0.14278 0.84875 0.63991
 N313 N 0.37389 0.68172 0.66314
 N314 N 0.37479 0.66721 0.67576
 C315 C 0.38933 0.67146 0.68861
 C316 C 0.39791 0.68966 0.68388
 C317 C 0.38803 0.69547 0.66733
 H318 H 0.39308 0.66232 0.70085
 H319 H 0.39065 0.70891 0.65915
 Cu320 Cu 0.35623 0.64463 0.67466
 Cu321 Cu 0.35257 0.68300 0.64403
 Cu322 Cu 0.32027 0.64267 0.64061
 N323 N 0.33735 0.62237 0.67300
 N324 N 0.32288 0.62224 0.66016
 C325 C 0.31078 0.60648 0.66326
 C326 C 0.31836 0.59561 0.67848
 C327 C 0.33515 0.60634 0.68444
 H328 H 0.29693 0.60371 0.65556
 H329 H 0.34465 0.60302 0.69660
 N330 N 0.32009 0.66488 0.62223
 N331 N 0.33220 0.68047 0.62361
 C332 C 0.32741 0.69362 0.60977
 C333 C 0.31136 0.68604 0.59939
 C334 C 0.30742 0.66761 0.60742
 H335 H 0.33461 0.70795 0.60769
 H336 H 0.29589 0.65716 0.60298
 H337 H 0.33151 0.66493 0.65776
 H338 H 0.34981 0.65248 0.64121
 N339 N 0.37838 0.17374 1.15897
 N340 N 0.37751 0.16003 1.17237
 C341 C 0.39345 0.16206 1.18410
 C342 C 0.40533 0.17763 1.17755
 C343 C 0.39510 0.18485 1.16165
 H344 H 0.39565 0.15351 1.19705
 H345 H 0.39909 0.19774 1.15314
 Cu346 Cu 0.35502 0.14163 1.17430
 Cu347 Cu 0.35622 0.17748 1.14089
 Cu348 Cu 0.32217 0.13823 1.13775
 N349 N 0.33691 0.11904 1.17167
 N350 N 0.32361 0.11808 1.15777
 C351 C 0.31159 0.10216 1.16062
 C352 C 0.31806 0.09220 1.17690
 C353 C 0.33411 0.10352 1.18357
 H354 H 0.29844 0.09875 1.15207
 H355 H 0.34265 0.10103 1.19654
 N356 N 0.32310 0.16021 1.11904
 N357 N 0.33548 0.17559 1.12060
 C358 C 0.33087 0.18902 1.10692
 C359 C 0.31468 0.18184 1.09642
 C360 C 0.31055 0.16332 1.10420
 H361 H 0.33830 0.20327 1.10507
 H362 H 0.29886 0.15308 1.09967
 H363 H 0.33294 0.16167 1.15373
 H364 H 0.35211 0.14720 1.13998
 N365 N 0.87813 0.67441 1.16371
 N366 N 0.87357 0.66535 1.17984
 C367 C 0.88770 0.66963 1.19305
 C368 C 0.90217 0.68167 1.18466
 C369 C 0.89546 0.68462 1.16607
 H370 H 0.88735 0.66463 1.20778
 H371 H 0.90252 0.69368 1.15515
 Cu372 Cu 0.84998 0.64834 1.18214
 Cu373 Cu 0.86095 0.67256 1.14110
 Cu374 Cu 0.81445 0.65031 1.14828
 N375 N 0.82840 0.62869 1.18090
 N376 N 0.81492 0.62909 1.16713
 C377 C 0.80156 0.61425 1.16980
 C378 C 0.80659 0.60431 1.18649
 C379 C 0.82394 0.61367 1.19296
 H380 H 0.78900 0.61113 1.16037
 H381 H 0.83239 0.61006 1.20574
 N382 N 0.82034 0.66730 1.12620
 N383 N 0.83817 0.67539 1.12309
 C384 C 0.83710 0.68685 1.10727
 C385 C 0.81756 0.68611 1.10038
 C386 C 0.80747 0.67332 1.11254
 H387 H 0.84943 0.69558 1.10156
 H388 H 0.79172 0.66926 1.11182
 H389 H 0.83616 0.67094 1.15825
 H390 H 0.84457 0.64669 1.14753
 N391 N 0.87860 0.17497 0.66030
 N392 N 0.87476 0.16479 0.67596
 C393 C 0.88685 0.17130 0.69016
 C394 C 0.89904 0.18639 0.68304
 C395 C 0.89375 0.18784 0.66382
 H396 H 0.88665 0.16562 0.70466
 H397 H 0.90018 0.19768 0.65318
 Cu398 Cu 0.85478 0.14356 0.67596
 Cu399 Cu 0.86180 0.17229 0.63740
 Cu400 Cu 0.81523 0.15099 0.64744
 N401 N 0.83291 0.12430 0.67467
 N402 N 0.81707 0.12758 0.66387
 C403 C 0.80354 0.11289 0.66663
 C404 C 0.81158 0.09932 0.67946
 C405 C 0.83017 0.10721 0.68443
 H406 H 0.78875 0.11243 0.66015
 H407 H 0.84069 0.10118 0.69472
 N408 N 0.81994 0.16884 0.62552
 N409 N 0.83783 0.17615 0.62113
 C410 C 0.83608 0.18773 0.60546
 C411 C 0.81606 0.18788 0.59992
 C412 C 0.80635 0.17549 0.61276
 H413 H 0.84836 0.19583 0.59887
 H414 H 0.79047 0.17187 0.61297
 H415 H 0.83903 0.16930 0.65648
 H416 H 0.84468 0.14630 0.64230
 N417 N 0.32241 0.37166 0.66334
 N418 N 0.33326 0.36948 0.67893
 C419 C 0.32768 0.38326 0.69197
 C420 C 0.31243 0.39471 0.68420
 C421 C 0.30984 0.38721 0.66578
 H422 H 0.33412 0.38475 0.70615
 H423 H 0.29950 0.39251 0.65498
 Cu424 Cu 0.35401 0.34933 0.68077
 Cu425 Cu 0.32339 0.35244 0.64230
 Cu426 Cu 0.36069 0.31647 0.64496
 N427 N 0.37880 0.33428 0.67812
 N428 N 0.38114 0.32105 0.66435
 C429 C 0.39829 0.31091 0.66732
 C430 C 0.40753 0.31852 0.68361
 C431 C 0.39460 0.33328 0.69014
 H432 H 0.40297 0.29808 0.65898
 H433 H 0.39605 0.34192 0.70322
 N434 N 0.34137 0.31779 0.62369
 N435 N 0.32678 0.33111 0.62294
 C436 C 0.31443 0.32638 0.60829
 C437 C 0.32158 0.30925 0.59944
 C438 C 0.33905 0.30463 0.60922
 H439 H 0.30068 0.33420 0.60485
 H440 H 0.34900 0.29220 0.60639
 H441 H 0.33508 0.32919 0.65751
 H442 H 0.35372 0.34631 0.64601
 N443 N 0.31868 0.87185 0.16390
 N444 N 0.32643 0.86643 0.18040
 C445 C 0.31952 0.87864 0.19431
 C446 C 0.30670 0.89249 0.18609
 C447 C 0.30692 0.88794 0.16666
 H448 H 0.32377 0.87775 0.20926
 H449 H 0.29939 0.89592 0.15528
 Cu450 Cu 0.34616 0.84510 0.18197
 Cu451 Cu 0.32411 0.85742 0.14019
 Cu452 Cu 0.35397 0.81533 0.14386
 N453 N 0.37006 0.82848 0.17985
 N454 N 0.37321 0.81696 0.16483
 C455 C 0.39027 0.80652 0.16748
 C456 C 0.39843 0.81202 0.18499
 C457 C 0.38504 0.82579 0.19257
 H458 H 0.39610 0.79546 0.15757
 H459 H 0.38579 0.83282 0.20655
 N460 N 0.33761 0.82106 0.12110
 N461 N 0.32592 0.83690 0.11986
 C462 C 0.31470 0.83536 0.10385
 C463 C 0.31999 0.81799 0.09419
 C464 C 0.33454 0.80930 0.10568
 H465 H 0.30259 0.84543 0.10024
 H466 H 0.34164 0.79496 0.10346
 H467 H 0.32867 0.83104 0.15431
 H468 H 0.35198 0.84507 0.14745
 N469 N 0.81953 0.37530 0.16396
 N470 N 0.83202 0.37365 0.17848
 C471 C 0.82940 0.38920 0.19049
 C472 C 0.81466 0.40145 0.18299
 C473 C 0.80850 0.39200 0.16628
 H474 H 0.83732 0.39125 0.20391
 H475 H 0.79674 0.39685 0.15665
 Cu476 Cu 0.85055 0.35144 0.18078
 Cu477 Cu 0.81821 0.35531 0.14356
 Cu478 Cu 0.85565 0.31956 0.14402
 N479 N 0.87415 0.33458 0.17812
 N480 N 0.87657 0.32267 0.16328
 C481 C 0.89359 0.31208 0.16561
 C482 C 0.90239 0.31777 0.18280
 C483 C 0.88947 0.33193 0.19044
 H484 H 0.89869 0.30040 0.15601
 H485 H 0.89059 0.33901 0.20438
 N486 N 0.83484 0.32054 0.12402
 N487 N 0.81997 0.33359 0.12435
 C488 C 0.80674 0.32885 0.11040
 C489 C 0.81353 0.31190 0.10100
 C490 C 0.83166 0.30739 0.10969
 H491 H 0.79282 0.33669 0.10768
 H492 H 0.84149 0.29506 0.10617
 H493 H 0.83069 0.33184 0.15798
 H494 H 0.84855 0.34953 0.14608
 N495 N 0.82636 0.87655 0.65698
 N496 N 0.83439 0.87298 0.67384
 C497 C 0.82656 0.88562 0.68686
 C498 C 0.81289 0.89794 0.67772
 C499 C 0.81359 0.89206 0.65859
 H500 H 0.83047 0.88582 0.70193
 H501 H 0.80544 0.89848 0.64670
 Cu502 Cu 0.85495 0.85273 0.67702
 Cu503 Cu 0.83204 0.85948 0.63477
 Cu504 Cu 0.85203 0.81356 0.64758
 N505 N 0.87566 0.83229 0.67698
 N506 N 0.87408 0.81652 0.66579
 C507 C 0.88969 0.80424 0.66908
 C508 C 0.90202 0.81305 0.68271
 C509 C 0.89247 0.83072 0.68763
 H510 H 0.89175 0.78987 0.66220
 H511 H 0.89730 0.84149 0.69829
 N512 N 0.83709 0.81784 0.62370
 N513 N 0.83075 0.83554 0.61808
 C514 C 0.82206 0.83359 0.60071
 C515 C 0.82319 0.81372 0.59508
 C516 C 0.83248 0.80417 0.61024
 H517 H 0.81494 0.84562 0.59296
 H518 H 0.83538 0.78835 0.61158
 H519 H 0.83206 0.83705 0.65407
 H520 H 0.85710 0.84288 0.64329
 N521 N 0.67931 0.62355 0.66063
 N522 N 0.66959 0.62750 0.67664
 C523 C 0.67571 0.61474 0.69031
 C524 C 0.69015 0.60222 0.68249
 C525 C 0.69173 0.60799 0.66348
 H526 H 0.67019 0.61456 0.70491
 H527 H 0.70117 0.60137 0.65252
 Cu528 Cu 0.64949 0.64859 0.67792
 Cu529 Cu 0.67543 0.63915 0.63737
 Cu530 Cu 0.64869 0.68310 0.64353
 N531 N 0.62798 0.66831 0.67660
 N532 N 0.62741 0.68132 0.66256
 C533 C 0.61182 0.69378 0.66528
 C534 C 0.60240 0.68872 0.68229
 C535 C 0.61282 0.67221 0.68891
 H536 H 0.60803 0.70600 0.65586
 H537 H 0.61001 0.66419 0.70208
 N538 N 0.66608 0.67808 0.62134
 N539 N 0.67596 0.66122 0.61865
 C540 C 0.68710 0.66279 0.60254
 C541 C 0.68376 0.68143 0.59463
 C542 C 0.67055 0.69076 0.60707
 H543 H 0.69737 0.65150 0.59729
 H544 H 0.66516 0.70596 0.60613
 H545 H 0.67123 0.66388 0.65392
 H546 H 0.64783 0.65306 0.64319
 N547 N 0.67506 0.11953 0.15578
 N548 N 0.66401 0.12185 0.17127
 C549 C 0.67067 0.10945 0.18499
 C550 C 0.68683 0.09872 0.17776
 C551 C 0.68884 0.10519 0.15896
 H552 H 0.66430 0.10840 0.19924
 H553 H 0.69948 0.09992 0.14834
 Cu554 Cu 0.64169 0.14054 0.17200
 Cu555 Cu 0.67112 0.13618 0.13322
 Cu556 Cu 0.64521 0.18022 0.14296
 N557 N 0.62604 0.16445 0.17655
 N558 N 0.62859 0.18049 0.16606
 C559 C 0.61674 0.19517 0.17295
 C560 C 0.60621 0.18795 0.18867
 C561 C 0.61224 0.16820 0.19022
 H562 H 0.61552 0.20988 0.16672
 H563 H 0.60673 0.15721 0.20027
 N564 N 0.66240 0.17646 0.12011
 N565 N 0.67173 0.15954 0.11612
 C566 C 0.68200 0.16164 0.09957
 C567 C 0.67865 0.18066 0.09264
 C568 C 0.66637 0.18970 0.10612
 H569 H 0.69151 0.15031 0.09319
 H570 H 0.66108 0.20496 0.10588
 H571 H 0.66546 0.15876 0.15221
 H572 H 0.64331 0.15018 0.13798
 N573 N 0.17654 0.62226 0.16231
 N574 N 0.16594 0.62655 0.17772
 C575 C 0.16833 0.61192 0.19071
 C576 C 0.18101 0.59763 0.18298
 C577 C 0.18614 0.60480 0.16503
 H578 H 0.16197 0.61202 0.20500
 H579 H 0.19652 0.59806 0.15495
 Cu580 Cu 0.15090 0.65130 0.18013
 Cu581 Cu 0.17844 0.64049 0.14066
 Cu582 Cu 0.14567 0.68042 0.14117
 N583 N 0.13016 0.67166 0.17854
 N584 N 0.12732 0.68208 0.16286
 C585 C 0.11170 0.69455 0.16556
 C586 C 0.10478 0.69234 0.18420
 C587 C 0.11668 0.67740 0.19188
 H588 H 0.10587 0.70453 0.15475
 H589 H 0.11567 0.67127 0.20618
 N590 N 0.16567 0.67628 0.12073
 N591 N 0.17798 0.66084 0.12031
 C592 C 0.19094 0.66306 0.10559
 C593 C 0.18700 0.68110 0.09673
 C594 C 0.17065 0.68887 0.10649
 H595 H 0.20289 0.65274 0.10205
 H596 H 0.16365 0.70319 0.10399
 H597 H 0.17008 0.66668 0.15438
 H598 H 0.14932 0.64996 0.14545
 N599 N 0.18200 0.12807 0.66983
 N600 N 0.16651 0.12701 0.68153
 C601 C 0.16876 0.11109 0.69305
 C602 C 0.18641 0.10135 0.68802
 C603 C 0.19457 0.11279 0.67342
 H604 H 0.15864 0.10721 0.70462
 H605 H 0.20871 0.11032 0.66608
 Cu606 Cu 0.14542 0.14714 0.68103
 Cu607 Cu 0.18521 0.15000 0.65175
 Cu608 Cu 0.14059 0.17438 0.64111
 N609 N 0.12369 0.16633 0.67819
 N610 N 0.12254 0.17777 0.66298
 C611 C 0.10706 0.19053 0.66514
 C612 C 0.09751 0.18650 0.68244
 C613 C 0.10871 0.17113 0.69037
 H614 H 0.10348 0.20223 0.65507
 H615 H 0.10628 0.16417 0.70415
 N616 N 0.16422 0.17467 0.62399
 N617 N 0.18158 0.16651 0.62869
 C618 C 0.19515 0.17041 0.61485
 C619 C 0.18575 0.18101 0.60036
 C620 C 0.16619 0.18368 0.60686
 H621 H 0.21080 0.16607 0.61547
 H622 H 0.15435 0.19186 0.59975
 H623 H 0.16309 0.17069 0.66016
 H624 H 0.15520 0.14745 0.64734
 N625 N 0.31661 0.62708 0.33510
 N626 N 0.32971 0.62888 0.32109
 C627 C 0.32602 0.61484 0.30771
 C628 C 0.30903 0.60421 0.31310
 C629 C 0.30372 0.61218 0.33079
 H630 H 0.33503 0.61262 0.29495
 H631 H 0.29115 0.60770 0.33968
 Cu632 Cu 0.34912 0.65051 0.32048
 Cu633 Cu 0.31713 0.64454 0.35752
 Cu634 Cu 0.35481 0.68046 0.35867
 N635 N 0.37288 0.66701 0.32369
 N636 N 0.37580 0.67794 0.33913
 C637 C 0.39335 0.68791 0.33728
 C638 C 0.40191 0.68291 0.31968
 C639 C 0.38816 0.66991 0.31138
 H640 H 0.39905 0.69861 0.34761
 H641 H 0.38868 0.66374 0.29703
 N642 N 0.33414 0.67800 0.37894
 N643 N 0.32028 0.66383 0.37878
 C644 C 0.30765 0.66672 0.39364
 C645 C 0.31331 0.68396 0.40320
 C646 C 0.33043 0.69048 0.39376
 H647 H 0.29468 0.65750 0.39675
 H648 H 0.33887 0.70393 0.39688
 H649 H 0.32973 0.66905 0.34457
 H650 H 0.34765 0.65083 0.35529
 N651 N 0.32714 0.11486 0.84480
 N652 N 0.34110 0.11441 0.83144
 C653 C 0.33699 0.09948 0.81905
 C654 C 0.31953 0.08994 0.82500
 C655 C 0.31357 0.10034 0.84130
 H656 H 0.34576 0.09614 0.80635
 H657 H 0.29998 0.09808 0.84958
 Cu658 Cu 0.36248 0.13435 0.83060
 Cu659 Cu 0.32773 0.13458 0.86542
 Cu660 Cu 0.35016 0.17853 0.85074
 N661 N 0.37765 0.15854 0.82528
 N662 N 0.37203 0.17593 0.83224
 C663 C 0.38383 0.19031 0.82481
 C664 C 0.39764 0.18150 0.81249
 C665 C 0.39352 0.16120 0.81354
 H666 H 0.38245 0.20604 0.82813
 H667 H 0.40142 0.14922 0.80632
 N668 N 0.33303 0.17662 0.87387
 N669 N 0.32480 0.15973 0.87965
 C670 C 0.31491 0.16296 0.89624
 C671 C 0.31737 0.18278 0.90134
 C672 C 0.32870 0.19107 0.88672
 H673 H 0.30672 0.15169 0.90414
 H674 H 0.33355 0.20645 0.88561
 H675 H 0.33402 0.15302 0.84344
 H676 H 0.35503 0.15050 0.86116
 N677 N 0.82176 0.62420 0.84120
 N678 N 0.82925 0.62803 0.82414
 C679 C 0.82202 0.61467 0.81144
 C680 C 0.80919 0.60179 0.82100
 C681 C 0.80970 0.60804 0.83998
 H682 H 0.82580 0.61427 0.79635
 H683 H 0.80199 0.60133 0.85203
 Cu684 Cu 0.84840 0.64953 0.82015
 Cu685 Cu 0.82820 0.64076 0.86351
 Cu686 Cu 0.85044 0.68621 0.85259
 N687 N 0.87025 0.66888 0.82005
 N688 N 0.87112 0.68325 0.83292
 C689 C 0.88743 0.69464 0.82951
 C690 C 0.89753 0.68681 0.81379
 C691 C 0.88594 0.67066 0.80795
 H692 H 0.89159 0.70771 0.83779
 H693 H 0.88847 0.66119 0.79557
 N694 N 0.83584 0.68141 0.87659
 N695 N 0.82856 0.66379 0.88139
 C696 C 0.81990 0.66529 0.89883
 C697 C 0.82192 0.68481 0.90535
 C698 C 0.83180 0.69463 0.89062
 H699 H 0.81204 0.65326 0.90595
 H700 H 0.83522 0.71040 0.88983
 H701 H 0.82827 0.66465 0.84566
 H702 H 0.85354 0.65643 0.85424
 N703 N 0.81550 0.12920 0.33654
 N704 N 0.82828 0.13047 0.32220
 C705 C 0.82564 0.11476 0.31040
 C706 C 0.81067 0.10269 0.31794
 C707 C 0.80432 0.11254 0.33440
 H708 H 0.83370 0.11256 0.29706
 H709 H 0.79232 0.10805 0.34398
 Cu710 Cu 0.84696 0.15267 0.31995
 Cu711 Cu 0.81394 0.15014 0.35597
 Cu712 Cu 0.85970 0.17442 0.36187
 N713 N 0.87025 0.16995 0.32217
 N714 N 0.87569 0.17793 0.33864
 C715 C 0.89305 0.18804 0.33616
 C716 C 0.89882 0.18611 0.31713
 C717 C 0.88376 0.17486 0.30863
 H718 H 0.90094 0.19610 0.34736
 H719 H 0.88277 0.17048 0.29370
 N720 N 0.83778 0.17544 0.38108
 N721 N 0.82015 0.16669 0.37847
 C722 C 0.80763 0.17204 0.39274
 C723 C 0.81772 0.18504 0.40480
 C724 C 0.83693 0.18660 0.39720
 H725 H 0.79202 0.16754 0.39383
 H726 H 0.84907 0.19586 0.40253
 H727 H 0.83376 0.17289 0.34623
 H728 H 0.84418 0.14851 0.35459
 N729 N 0.67802 0.37351 0.33675
 N730 N 0.66324 0.37408 0.32425
 C731 C 0.66738 0.38805 0.31098
 C732 C 0.68607 0.39624 0.31502
 C733 C 0.69220 0.38689 0.33169
 H734 H 0.65760 0.39191 0.29917
 H735 H 0.70618 0.38931 0.33931
 Cu736 Cu 0.64096 0.35535 0.32561
 Cu737 Cu 0.67825 0.35477 0.35805
 Cu738 Cu 0.64033 0.31895 0.35839
 N739 N 0.61857 0.33675 0.32736
 N740 N 0.61781 0.32301 0.34073
 C741 C 0.60109 0.31187 0.33812
 C742 C 0.59082 0.31897 0.32217
 C743 C 0.60271 0.33451 0.31556
 H744 H 0.59719 0.29898 0.34666
 H745 H 0.60063 0.34278 0.30243
 N746 N 0.66222 0.31980 0.37765
 N747 N 0.67591 0.33413 0.37799
 C748 C 0.68894 0.33060 0.39234
 C749 C 0.68379 0.31278 0.40101
 C750 C 0.66648 0.30658 0.39162
 H751 H 0.70169 0.33996 0.39586
 H752 H 0.65807 0.29305 0.39439
 H753 H 0.66333 0.33284 0.34302
 H754 H 0.64761 0.34864 0.35924
 N755 N 0.68128 0.87461 0.83599
 N756 N 0.66937 0.87058 0.82142
 C757 C 0.67132 0.88504 0.80820
 C758 C 0.68503 0.89900 0.81495
 C759 C 0.69120 0.89176 0.83255
 H760 H 0.66406 0.88493 0.79432
 H761 H 0.70264 0.89809 0.84179
 Cu762 Cu 0.65372 0.84599 0.82021
 Cu763 Cu 0.68495 0.85588 0.85690
 Cu764 Cu 0.64585 0.82233 0.86226
 N765 N 0.63342 0.82524 0.82301
 N766 N 0.62956 0.81698 0.83967
 C767 C 0.61374 0.80454 0.83782
 C768 C 0.60776 0.80440 0.81876
 C769 C 0.62048 0.81797 0.80987
 H770 H 0.60692 0.79651 0.84959
 H771 H 0.62010 0.82246 0.79499
 N772 N 0.66807 0.82487 0.88086
 N773 N 0.68251 0.83830 0.87924
 C774 C 0.69608 0.83548 0.89327
 C775 C 0.69050 0.81877 0.90366
 C776 C 0.67240 0.81274 0.89563
 H777 H 0.70946 0.84446 0.89528
 H778 H 0.66362 0.79977 0.89958
 H779 H 0.67094 0.82972 0.84651
 H780 H 0.65496 0.85127 0.85470
 N781 N 0.17834 0.37620 0.83608
 N782 N 0.16138 0.37950 0.82698
 C783 C 0.16401 0.39459 0.81454
 C784 C 0.18394 0.40069 0.81545
 C785 C 0.19247 0.38888 0.82953
 H786 H 0.15228 0.40058 0.80549
 H787 H 0.20783 0.38954 0.83465
 Cu788 Cu 0.13815 0.36253 0.83087
 Cu789 Cu 0.18029 0.35688 0.85682
 Cu790 Cu 0.13777 0.32794 0.86541
 N791 N 0.12041 0.33948 0.82951
 N792 N 0.11985 0.32615 0.84327
 C793 C 0.10620 0.31200 0.83873
 C794 C 0.09830 0.31635 0.82079
 C795 C 0.10746 0.33410 0.81557
 H796 H 0.10243 0.29945 0.84777
 H797 H 0.10511 0.34235 0.80245
 N798 N 0.16228 0.32657 0.88133
 N799 N 0.17871 0.33695 0.87749
 C800 C 0.19292 0.33251 0.89053
 C801 C 0.18498 0.31895 0.90340
 C802 C 0.16563 0.31523 0.89693
 H803 H 0.20796 0.33869 0.89075
 H804 H 0.15481 0.30505 0.90316
 H805 H 0.15878 0.33731 0.84616
 H806 H 0.15032 0.35666 0.86370
 N807 N 0.17303 0.88303 0.34201
 N808 N 0.16353 0.87918 0.32587
 C809 C 0.16793 0.89346 0.31303
 C810 C 0.18068 0.90714 0.32166
 C811 C 0.18378 0.89996 0.34001
 H812 H 0.16268 0.89363 0.29834
 H813 H 0.19343 0.90634 0.35094
 Cu814 Cu 0.14640 0.85590 0.32298
 Cu815 Cu 0.17106 0.86533 0.36404
 Cu816 Cu 0.15110 0.81854 0.35421
 N817 N 0.12618 0.83503 0.32486
 N818 N 0.12762 0.82059 0.33747
 C819 C 0.11161 0.80835 0.33559
 C820 C 0.09934 0.81568 0.32112
 C821 C 0.10941 0.83239 0.31440
 H822 H 0.10926 0.79497 0.34395
 H823 H 0.10523 0.84164 0.30237
 N824 N 0.16911 0.82380 0.37600
 N825 N 0.17539 0.84191 0.38058
 C826 C 0.18704 0.84081 0.39633
 C827 C 0.18883 0.82093 0.40148
 C828 C 0.17692 0.81064 0.38845
 H829 H 0.19399 0.85354 0.40325
 H830 H 0.17439 0.79469 0.38787
 H831 H 0.17060 0.84173 0.34535
 H832 H 0.14608 0.84780 0.35713
 C833 C 0.23512 0.93890 0.25771
 C834 C 0.24835 0.93707 0.24270
 C835 C 0.25681 0.95579 0.23993
 N836 N 0.24950 0.96886 0.25301
 C837 C 0.23609 0.95862 0.26377
 C838 C 0.27181 0.96028 0.22618
 C839 C 0.27905 0.97984 0.22284
 C840 C 0.29646 0.98443 0.21278
 C841 C 0.29741 1.00491 0.21161
 C842 C 0.28037 1.01230 0.22069
 N843 N 0.26928 0.99691 0.22750
 C844 C 0.27460 1.03265 0.22102
 C845 C 0.25949 1.04021 0.23336
 C846 C 0.25164 1.05937 0.23263
 C847 C 0.23857 1.06113 0.24781
 C848 C 0.23884 1.04297 0.25726
 N849 N 0.25171 1.03026 0.24847
 C850 C 0.22813 1.03871 0.27426
 C851 C 0.22682 1.01938 0.28221
 C852 C 0.21945 1.01517 0.30038
 C853 C 0.21861 0.99470 0.30185
 C854 C 0.22554 0.98702 0.28457
 N855 N 0.23048 1.00215 0.27268
 C856 C 0.22537 0.96658 0.27954
 H857 H 0.22598 0.92701 0.26361
 H858 H 0.25142 0.92345 0.23483
 H859 H 0.23341 1.00080 0.25810
 H860 H 0.30729 0.97414 0.20668
 H861 H 0.30908 1.01338 0.20443
 H862 H 0.25507 1.07092 0.22230
 H863 H 0.22994 1.07429 0.25152
 H864 H 0.21310 0.98642 0.31409
 H865 H 0.25467 0.99786 0.23276
 H866 H 0.21469 1.02573 0.31127
 C867 C 0.25895 0.43623 0.74483
 C868 C 0.24561 0.43700 0.75978
 C869 C 0.24128 0.45701 0.76290
 N870 N 0.25177 0.46844 0.75047
 C871 C 0.26245 0.45580 0.73928
 C872 C 0.22698 0.46408 0.77641
 C873 C 0.22339 0.48452 0.78060
 C874 C 0.20878 0.49130 0.79327
 C875 C 0.20982 0.51179 0.79334
 C876 C 0.22475 0.51712 0.78038
 N877 N 0.23326 0.50038 0.77305
 C878 C 0.22954 0.53709 0.77539
 C879 C 0.24182 0.54267 0.75965
 C880 C 0.24388 0.56208 0.75304
 C881 C 0.25653 0.56128 0.73752
 C882 C 0.26206 0.54145 0.73525
 N883 N 0.25293 0.53013 0.74872
 C884 C 0.27606 0.53441 0.72146
 C885 C 0.28130 0.51402 0.71903
 C886 C 0.29720 0.50737 0.70778
 C887 C 0.29671 0.48690 0.70809
 C888 C 0.28081 0.48145 0.71989
 N889 N 0.27130 0.49810 0.72627
 C890 C 0.27551 0.46145 0.72418
 H891 H 0.26541 0.42275 0.73884
 H892 H 0.23970 0.42422 0.76740
 H893 H 0.25763 0.49853 0.73343
 H894 H 0.19831 0.48245 0.80158
 H895 H 0.20024 0.52159 0.80167
 H896 H 0.23679 0.57543 0.75863
 H897 H 0.26117 0.57393 0.72897
 H898 H 0.30709 0.47722 0.70054
 H899 H 0.24578 0.49984 0.76424
 H900 H 0.30801 0.51631 0.69996
 C901 C 0.75698 0.06389 0.25551
 C902 C 0.74391 0.06357 0.24032
 C903 C 0.73952 0.04366 0.23658
 N904 N 0.74914 0.03192 0.24934
 C905 C 0.75979 0.04421 0.26096
 C906 C 0.72736 0.03683 0.22116
 C907 C 0.72393 0.01643 0.21658
 C908 C 0.71451 0.00991 0.19993
 C909 C 0.71451 -0.01058 0.20034
 C910 C 0.72396 -0.01617 0.21722
 N911 N 0.72940 0.00040 0.22717
 C912 C 0.72747 -0.03628 0.22256
 C913 C 0.73973 -0.04235 0.23810
 C914 C 0.74433 -0.06206 0.24234
 C915 C 0.75743 -0.06163 0.25751
 C916 C 0.76011 -0.04172 0.26236
 N917 N 0.74929 -0.03001 0.25047
 C918 C 0.77192 -0.03482 0.27790
 C919 C 0.77353 -0.01451 0.28343
 C920 C 0.78141 -0.00808 0.30081
 C921 C 0.78121 0.01241 0.30054
 C922 C 0.77328 0.01802 0.28297
 N923 N 0.76869 0.00150 0.27257
 C924 C 0.77152 0.03808 0.27682
 H925 H 0.76348 0.07718 0.26186
 H926 H 0.73853 0.07659 0.23277
 H927 H 0.76482 0.00119 0.25816
 H928 H 0.70857 0.01897 0.18843
 H929 H 0.70856 -0.02026 0.18922
 H930 H 0.73906 -0.07541 0.23510
 H931 H 0.76404 -0.07457 0.26426
 H932 H 0.78646 0.02209 0.31197
 H933 H 0.73527 0.00074 0.24091
 H934 H 0.78680 -0.01722 0.31249
 C935 C 0.75414 0.56304 0.76153
 C936 C 0.74151 0.56326 0.74603
 C937 C 0.73843 0.54352 0.74069
 N938 N 0.74858 0.53129 0.75263
 C939 C 0.75819 0.54315 0.76542
 C940 C 0.72718 0.53738 0.72444
 C941 C 0.72451 0.51724 0.71859
 C942 C 0.71631 0.51152 0.70111
 C943 C 0.71651 0.49102 0.70057
 C944 C 0.72485 0.48467 0.71773
 N945 N 0.72941 0.50076 0.72876
 C946 C 0.72786 0.46435 0.72254
 C947 C 0.73944 0.45768 0.73834
 C948 C 0.74277 0.43778 0.74273
 C949 C 0.75553 0.43754 0.75814
 C950 C 0.75933 0.45729 0.76299
 N951 N 0.74953 0.46954 0.75080
 C952 C 0.77120 0.46347 0.77885
 C953 C 0.77425 0.48362 0.78450
 C954 C 0.78341 0.48937 0.80154
 C955 C 0.78315 0.50988 0.80210
 C956 C 0.77381 0.51620 0.78541
 N957 N 0.76870 0.50009 0.77464
 C958 C 0.77029 0.53650 0.78085
 H959 H 0.75962 0.57611 0.76910
 H960 H 0.73552 0.57653 0.73932
 H961 H 0.76310 0.50038 0.76079
 H962 H 0.71097 0.52113 0.68976
 H963 H 0.71137 0.48184 0.68872
 H964 H 0.73683 0.42471 0.73550
 H965 H 0.76117 0.42425 0.76508
 H966 H 0.78889 0.51908 0.81369
 H967 H 0.73404 0.50045 0.74295
 H968 H 0.78941 0.47979 0.81261
 C969 C 0.23974 0.43705 0.24521
 C970 C 0.25247 0.43753 0.26065
 C971 C 0.25814 0.45732 0.26326
 N972 N 0.24952 0.46885 0.24967
 C973 C 0.23809 0.45651 0.23875
 C974 C 0.27197 0.46415 0.27733
 C975 C 0.27739 0.48449 0.27960
 C976 C 0.29428 0.49137 0.28928
 C977 C 0.29386 0.51190 0.28844
 C978 C 0.27643 0.51707 0.27872
 N979 N 0.26645 0.50026 0.27349
 C980 C 0.26959 0.53688 0.27596
 C981 C 0.25264 0.54170 0.26464
 C982 C 0.24312 0.56012 0.26460
 C983 C 0.22916 0.55949 0.25011
 C984 C 0.23062 0.54071 0.24182
 N985 N 0.24499 0.52989 0.25070
 C986 C 0.22009 0.53445 0.22530
 C987 C 0.22056 0.51463 0.21830
 C988 C 0.21392 0.50869 0.20031
 C989 C 0.21596 0.48826 0.19948
 C990 C 0.22376 0.48233 0.21701
 N991 N 0.22637 0.49846 0.22843
 C992 C 0.22701 0.46229 0.22239
 H993 H 0.23268 0.42381 0.23929
 H994 H 0.25721 0.42466 0.26878
 H995 H 0.22964 0.49821 0.24300
 H996 H 0.30583 0.48261 0.29620
 H997 H 0.30497 0.52186 0.29461
 H998 H 0.24621 0.57283 0.27379
 H999 H 0.21934 0.57159 0.24592
 H1000 H 0.21198 0.47883 0.18740
 H1001 H 0.25197 0.49956 0.26793
 H1002 H 0.20806 0.51807 0.18901
 C1003 C 0.73434 1.05935 0.74856
 C1004 C 0.74739 1.05964 0.73328
 C1005 C 0.75531 1.04056 0.73168
 N1006 N 0.74765 1.02869 0.74552
 C1007 C 0.73473 1.04010 0.75575
 C1008 C 0.77025 1.03474 0.71835
 C1009 C 0.77646 1.01471 0.71559
 C1010 C 0.79327 1.00899 0.70513
 C1011 C 0.79331 0.98846 0.70463
 C1012 C 0.77665 0.98213 0.71499
 N1013 N 0.76634 0.99825 0.72143
 C1014 C 0.77079 0.96192 0.71728
 C1015 C 0.75614 0.95547 0.73069
 C1016 C 0.74925 0.93598 0.73242
 C1017 C 0.73594 0.93582 0.74747
 C1018 C 0.73533 0.95513 0.75464
 N1019 N 0.74779 0.96707 0.74446
 C1020 C 0.72421 0.96114 0.77096
 C1021 C 0.72322 0.98109 0.77758
 C1022 C 0.71597 0.98682 0.79544
 C1023 C 0.71595 1.00734 0.79579
 C1024 C 0.72321 1.01356 0.77813
 N1025 N 0.72753 0.99748 0.76710
 C1026 C 0.72407 1.03365 0.77212
 H1027 H 0.72567 1.07190 0.75383
 H1028 H 0.75074 1.07246 0.72442
 H1029 H 0.73062 0.99768 0.75251
 H1030 H 0.80422 1.01860 0.69827
 H1031 H 0.80432 0.97932 0.69727
 H1032 H 0.75344 0.92311 0.72389
 H1033 H 0.72787 0.92288 0.75269
 H1034 H 0.71083 1.01661 0.80757
 H1035 H 0.75207 0.99807 0.72748
 H1036 H 0.71089 0.97721 0.80693
 C1037 C 0.75322 0.43833 0.26440
 C1038 C 0.76686 0.43924 0.24963
 C1039 C 0.76535 0.45824 0.24195
 N1040 N 0.75130 0.46894 0.25151
 C1041 C 0.74391 0.45683 0.26527
 C1042 C 0.77550 0.46486 0.22536
 C1043 C 0.77490 0.48486 0.21905
 C1044 C 0.78058 0.49127 0.20095
 C1045 C 0.77904 0.51177 0.20104
 C1046 C 0.77256 0.51728 0.21923
 N1047 N 0.77016 0.50080 0.23013
 C1048 C 0.77032 0.53717 0.22572
 C1049 C 0.76056 0.54231 0.24309
 C1050 C 0.76045 0.56127 0.25113
 C1051 C 0.74785 0.56049 0.26668
 C1052 C 0.74085 0.54100 0.26781
 N1053 N 0.74852 0.52997 0.25325
 C1054 C 0.72634 0.53413 0.28113
 C1055 C 0.72043 0.51389 0.28251
 C1056 C 0.70328 0.50708 0.29180
 C1057 C 0.70342 0.48657 0.29039
 C1058 C 0.72085 0.48139 0.28059
 N1059 N 0.73117 0.49813 0.27596
 C1060 C 0.72741 0.46159 0.27724
 H1061 H 0.75022 0.42543 0.27326
 H1062 H 0.77650 0.42719 0.24486
 H1063 H 0.74574 0.49871 0.27054
 H1064 H 0.78551 0.48213 0.18899
 H1065 H 0.78256 0.52152 0.18915
 H1066 H 0.76830 0.57443 0.24611
 H1067 H 0.74405 0.57302 0.27583
 H1068 H 0.69211 0.47662 0.29619
 H1069 H 0.76782 0.50058 0.24487
 H1070 H 0.69183 0.51589 0.29890
 C1071 C 0.23892 -0.06268 0.74115
 C1072 C 0.25176 -0.06420 0.75648
 C1073 C 0.25967 -0.04528 0.75959
 N1074 N 0.25235 -0.03237 0.74651
 C1075 C 0.23955 -0.04293 0.73531
 C1076 C 0.27436 -0.04048 0.77353
 C1077 C 0.28096 -0.02075 0.77715
 C1078 C 0.29824 -0.01567 0.78720
 C1079 C 0.29848 0.00482 0.78870
 C1080 C 0.28115 0.01170 0.77982
 N1081 N 0.27059 -0.00400 0.77280
 C1082 C 0.27462 0.03184 0.77992
 C1083 C 0.25895 0.03891 0.76805
 C1084 C 0.25012 0.05759 0.76953
 C1085 C 0.23655 0.05895 0.75473
 C1086 C 0.23764 0.04109 0.74465
 N1087 N 0.25138 0.02891 0.75279
 C1088 C 0.22707 0.03672 0.72754
 C1089 C 0.22741 0.01764 0.71875
 C1090 C 0.22141 0.01366 0.70005
 C1091 C 0.22198 -0.00675 0.69771
 C1092 C 0.22836 -0.01464 0.71502
 N1093 N 0.23164 0.00031 0.72775
 C1094 C 0.22942 -0.03524 0.71914
 H1095 H 0.23031 -0.07480 0.73489
 H1096 H 0.25502 -0.07775 0.76427
 H1097 H 0.23395 -0.00135 0.74240
 H1098 H 0.30943 -0.02567 0.79304
 H1099 H 0.30987 0.01361 0.79596
 H1100 H 0.25319 0.06906 0.78013
 H1101 H 0.22711 0.07170 0.75164
 H1102 H 0.21783 -0.01488 0.68485
 H1103 H 0.25594 -0.00353 0.76760
 H1104 H 0.21669 0.02432 0.68934
 C1105 C 0.25085 0.26351 1.05780
 C1106 C 0.26476 0.24844 1.05778
 C1107 C 0.26545 0.24095 1.03922
 N1108 N 0.25246 0.25100 1.02790
 C1109 C 0.24363 0.26495 1.03918
 C1110 C 0.27663 0.22397 1.03350
 C1111 C 0.27897 0.21799 1.01412
 C1112 C 0.28707 0.19991 1.00820
 C1113 C 0.28757 0.20022 0.98845
 C1114 C 0.27965 0.21843 0.98285
 N1115 N 0.27464 0.22924 0.99857
 C1116 C 0.27833 0.22503 0.96364
 C1117 C 0.26655 0.24145 0.95779
 C1118 C 0.26641 0.24929 0.93940
 C1119 C 0.25216 0.26410 0.93932
 C1120 C 0.24409 0.26482 0.95765
 N1121 N 0.25281 0.25089 0.96888
 C1122 C 0.22821 0.27750 0.96344
 C1123 C 0.22181 0.27959 0.98271
 C1124 C 0.20438 0.28933 0.98843
 C1125 C 0.20446 0.28971 1.00815
 C1126 C 0.22183 0.27999 1.01398
 N1127 N 0.23240 0.27405 0.99837
 C1128 C 0.22812 0.27802 1.03326
 H1129 H 0.24638 0.27215 1.07023
 H1130 H 0.27311 0.24332 1.07014
 H1131 H 0.24708 0.26879 0.99840
 H1132 H 0.29222 0.18780 1.01717
 H1133 H 0.29321 0.18841 0.97926
 H1134 H 0.27550 0.24470 0.92727
 H1135 H 0.24814 0.27323 0.92713
 H1136 H 0.19310 0.29662 1.01710
 H1137 H 0.27061 0.24421 0.99868
 H1138 H 0.19298 0.29586 0.97933
 C1139 C 0.24840 0.76748 0.55949
 C1140 C 0.26228 0.75236 0.55975
 C1141 C 0.26308 0.74459 0.54129
 N1142 N 0.25034 0.75462 0.52973
 C1143 C 0.24144 0.76869 0.54080
 C1144 C 0.27378 0.72719 0.53592
 C1145 C 0.27588 0.72074 0.51668
 C1146 C 0.28246 0.70197 0.51105
 C1147 C 0.28294 0.70189 0.49129
 C1148 C 0.27674 0.72066 0.48541
 N1149 N 0.27264 0.73209 0.50098
 C1150 C 0.27587 0.72706 0.46612
 C1151 C 0.26646 0.74501 0.46041
 C1152 C 0.26766 0.75305 0.44215
 C1153 C 0.25445 0.76873 0.44169
 C1154 C 0.24583 0.76999 0.45978
 N1155 N 0.25311 0.75539 0.47116
 C1156 C 0.23020 0.78328 0.46497
 C1157 C 0.22301 0.78552 0.48395
 C1158 C 0.20549 0.79547 0.48906
 C1159 C 0.20423 0.79486 0.50874
 C1160 C 0.22107 0.78464 0.51514
 N1161 N 0.23258 0.77929 0.49996
 C1162 C 0.22586 0.78143 0.53465
 H1163 H 0.24380 0.77638 0.57172
 H1164 H 0.27044 0.74732 0.57225
 H1165 H 0.24709 0.77358 0.50058
 H1166 H 0.28647 0.68960 0.52022
 H1167 H 0.28745 0.68946 0.48230
 H1168 H 0.27670 0.74783 0.43023
 H1169 H 0.25135 0.77786 0.42929
 H1170 H 0.19232 0.80135 0.51733
 H1171 H 0.26979 0.74734 0.50098
 H1172 H 0.19473 0.80255 0.47965
 C1173 C 0.23393 0.75036 -0.05833
 C1174 C 0.24769 0.76571 -0.05843
 C1175 C 0.25690 0.76565 -0.04059
 N1176 N 0.24919 0.75091 -0.02962
 C1177 C 0.23512 0.74159 -0.04039
 C1178 C 0.27343 0.77769 -0.03519
 C1179 C 0.28084 0.77807 -0.01620
 C1180 C 0.29968 0.78505 -0.01078
 C1181 C 0.30009 0.78493 0.00897
 C1182 C 0.28149 0.77788 0.01499
 N1183 N 0.26990 0.77364 -0.00043
 C1184 C 0.27484 0.77733 0.03423
 C1185 C 0.25850 0.76525 0.04002
 C1186 C 0.24983 0.76531 0.05811
 C1187 C 0.23605 0.74999 0.05828
 C1188 C 0.23673 0.74119 0.04024
 N1189 N 0.25048 0.75051 0.02915
 C1190 C 0.22634 0.72362 0.03484
 C1191 C 0.22474 0.71715 0.01557
 C1192 C 0.21802 0.69845 0.00976
 C1193 C 0.21756 0.69860 -0.01000
 C1194 C 0.22404 0.71736 -0.01567
 N1195 N 0.22825 0.72860 -0.00001
 C1196 C 0.22486 0.72406 -0.03485
 H1197 H 0.22439 0.74594 -0.07021
 H1198 H 0.25084 0.77550 -0.07038
 H1199 H 0.23124 0.74385 0.00008
 H1200 H 0.31170 0.79013 -0.02006
 H1201 H 0.31247 0.78991 0.01788
 H1202 H 0.25333 0.77511 0.07005
 H1203 H 0.22684 0.74559 0.07037
 H1204 H 0.21286 0.68633 -0.01913
 H1205 H 0.25453 0.77055 -0.00015
 H1206 H 0.21375 0.68605 0.01882
 C1207 C 0.23269 0.25198 0.44466
 C1208 C 0.24764 0.26617 0.44477
 C1209 C 0.25716 0.26476 0.46240
 N1210 N 0.24849 0.25028 0.47307
 C1211 C 0.23348 0.24251 0.46229
 C1212 C 0.27454 0.27558 0.46786
 C1213 C 0.28257 0.27479 0.48663
 C1214 C 0.30183 0.28084 0.49171
 C1215 C 0.30310 0.27932 0.51136
 C1216 C 0.28458 0.27240 0.51771
 N1217 N 0.27216 0.26970 0.50256
 C1218 C 0.27911 0.27008 0.53716
 C1219 C 0.26182 0.25937 0.54305
 C1220 C 0.25448 0.25878 0.56167
 C1221 C 0.23922 0.24497 0.56179
 C1222 C 0.23750 0.23783 0.54316
 N1223 N 0.25142 0.24655 0.53178
 C1224 C 0.22448 0.22228 0.53727
 C1225 C 0.22140 0.21707 0.51779
 C1226 C 0.21174 0.19989 0.51145
 C1227 C 0.21124 0.20078 0.49174
 C1228 C 0.22032 0.21864 0.48657
 N1229 N 0.22633 0.22853 0.50253
 C1230 C 0.22148 0.22599 0.46759
 H1231 H 0.22247 0.24889 0.43292
 H1232 H 0.25126 0.27616 0.43310
 H1233 H 0.23144 0.24319 0.50308
 H1234 H 0.31365 0.28607 0.48226
 H1235 H 0.31609 0.28313 0.52001
 H1236 H 0.25988 0.26706 0.57401
 H1237 H 0.23062 0.24054 0.57426
 H1238 H 0.20457 0.18971 0.48233
 H1239 H 0.25676 0.26698 0.50327
 H1240 H 0.20553 0.18797 0.52007
 C1241 C 0.73767 0.75225 1.06022
 C1242 C 0.75208 0.73762 1.06065
 C1243 C 0.76045 0.73680 1.04243
 N1244 N 0.75176 0.75049 1.03095
 C1245 C 0.73780 0.75993 1.04178
 C1246 C 0.77710 0.72485 1.03722
 C1247 C 0.78354 0.72198 1.01808
 C1248 C 0.80132 0.71265 1.01279
 C1249 C 0.80161 0.71201 0.99307
 C1250 C 0.78411 0.72121 0.98682
 N1251 N 0.77302 0.72691 1.00218
 C1252 C 0.77847 0.72341 0.96736
 C1253 C 0.76246 0.73572 0.96129
 C1254 C 0.75501 0.73645 0.94273
 C1255 C 0.74090 0.75136 0.94247
 C1256 C 0.74042 0.75951 0.96079
 N1257 N 0.75359 0.74990 0.97226
 C1258 C 0.72959 0.77687 0.96609
 C1259 C 0.72730 0.78325 0.98533
 C1260 C 0.71998 0.80178 0.99095
 C1261 C 0.71900 0.80168 1.01067
 C1262 C 0.72584 0.78314 1.01654
 N1263 N 0.73071 0.77195 1.00102
 C1264 C 0.72666 0.77673 1.03580
 H1265 H 0.72850 0.75702 1.07223
 H1266 H 0.75619 0.72883 1.07303
 H1267 H 0.73406 0.75680 1.00106
 H1268 H 0.81283 0.70674 1.02215
 H1269 H 0.81341 0.70546 0.98439
 H1270 H 0.75947 0.72743 0.93053
 H1271 H 0.73238 0.75604 0.93005
 H1272 H 0.71384 0.81386 1.01967
 H1273 H 0.75830 0.73207 1.00184
 H1274 H 0.71569 0.81406 0.98179
 C1275 C 0.73470 0.25365 0.55964
 C1276 C 0.74983 0.23976 0.56047
 C1277 C 0.75803 0.23855 0.54221
 N1278 N 0.74853 0.25132 0.53030
 C1279 C 0.73419 0.26050 0.54090
 C1280 C 0.77500 0.22695 0.53719
 C1281 C 0.78168 0.22430 0.51810
 C1282 C 0.80027 0.21660 0.51287
 C1283 C 0.80058 0.21572 0.49313
 C1284 C 0.78212 0.22282 0.48688
 N1285 N 0.77064 0.22784 0.50219
 C1286 C 0.77594 0.22358 0.46752
 C1287 C 0.75858 0.23382 0.46134
 C1288 C 0.75050 0.23257 0.44304
 C1289 C 0.73531 0.24640 0.44225
 C1290 C 0.73474 0.25571 0.46005
 N1291 N 0.74896 0.24799 0.47168
 C1292 C 0.72297 0.27265 0.46456
 C1293 C 0.72065 0.27991 0.48352
 C1294 C 0.71214 0.29814 0.48842
 C1295 C 0.71172 0.29905 0.50815
 C1296 C 0.72015 0.28144 0.51474
 N1297 N 0.72537 0.26979 0.49966
 C1298 C 0.72163 0.27599 0.53425
 H1299 H 0.72533 0.25837 0.57153
 H1300 H 0.75445 0.23167 0.57314
 H1301 H 0.72979 0.25494 0.50041
 H1302 H 0.81235 0.21206 0.52231
 H1303 H 0.81292 0.21033 0.48439
 H1304 H 0.75535 0.22301 0.43136
 H1305 H 0.72614 0.24964 0.42982
 H1306 H 0.70581 0.31126 0.51669
 H1307 H 0.75545 0.23147 0.50188
 H1308 H 0.70664 0.30952 0.47879
 C1309 C 0.74616 0.26129 0.05928
 C1310 C 0.73137 0.24700 0.05801
 C1311 C 0.73233 0.23929 0.03954
 N1312 N 0.74719 0.24829 0.02955
 C1313 C 0.75564 0.26178 0.04155
 C1314 C 0.72082 0.22304 0.03268
 C1315 C 0.72081 0.21702 0.01324
 C1316 C 0.71378 0.19881 0.00646
 C1317 C 0.71539 0.19933 -0.01324
 C1318 C 0.72318 0.21793 -0.01790
 N1319 N 0.72634 0.22863 -0.00169
 C1320 C 0.72592 0.22510 -0.03677
 C1321 C 0.73652 0.24286 -0.04092
 C1322 C 0.73637 0.25253 -0.05846
 C1323 C 0.75009 0.26783 -0.05710
 C1324 C 0.75831 0.26682 -0.03886
 N1325 N 0.74997 0.25157 -0.02900
 C1326 C 0.77462 0.27847 -0.03214
 C1327 C 0.78102 0.27793 -0.01280
 C1328 C 0.79955 0.28456 -0.00617
 C1329 C 0.79909 0.28304 0.01353
 C1330 C 0.78028 0.27553 0.01834
 N1331 N 0.76937 0.27249 0.00222
 C1332 C 0.77309 0.27299 0.03726
 H1333 H 0.74980 0.27004 0.07192
 H1334 H 0.72131 0.24255 0.06945
 H1335 H 0.75406 0.26924 0.00164
 H1336 H 0.70798 0.18649 0.01483
 H1337 H 0.71103 0.18749 -0.02301
 H1338 H 0.72750 0.24876 -0.07099
 H1339 H 0.75390 0.27821 -0.06841
 H1340 H 0.81112 0.28724 0.02321
 H1341 H 0.72987 0.24375 -0.00093
 H1342 H 0.81200 0.29017 -0.01462
 C1343 C 0.74300 0.74525 0.55943
 C1344 C 0.75760 0.75978 0.55908
 C1345 C 0.76433 0.76099 0.54027
 N1346 N 0.75462 0.74740 0.52925
 C1347 C 0.74148 0.73786 0.54090
 C1348 C 0.78003 0.77362 0.53386
 C1349 C 0.78516 0.77630 0.51428
 C1350 C 0.80235 0.78600 0.50782
 C1351 C 0.80152 0.78599 0.48811
 C1352 C 0.78376 0.77647 0.48301
 N1353 N 0.77377 0.77082 0.49905
 C1354 C 0.77688 0.77405 0.46393
 C1355 C 0.76046 0.76174 0.45874
 C1356 C 0.75181 0.76104 0.44064
 C1357 C 0.73755 0.74621 0.44110
 C1358 C 0.73801 0.73833 0.45945
 N1359 N 0.75210 0.74776 0.47015
 C1360 C 0.72641 0.72192 0.46567
 C1361 C 0.72590 0.71528 0.48485
 C1362 C 0.71758 0.69732 0.49077
 C1363 C 0.71831 0.69730 0.51048
 C1364 C 0.72706 0.71524 0.51602
 N1365 N 0.73160 0.72611 0.50032
 C1366 C 0.72884 0.72190 0.53521
 H1367 H 0.73466 0.74051 0.57197
 H1368 H 0.76271 0.76838 0.57133
 H1369 H 0.73563 0.74109 0.50029
 H1370 H 0.81429 0.79250 0.51638
 H1371 H 0.81268 0.79241 0.47862
 H1372 H 0.75554 0.77014 0.42833
 H1373 H 0.72810 0.74160 0.42923
 H1374 H 0.71264 0.68560 0.51969
 H1375 H 0.75914 0.76540 0.49962
 H1376 H 0.71123 0.68565 0.48183
 C1377 C 1.06349 0.25719 0.24366
 C1378 C 1.06335 0.24317 0.25791
 C1379 C 1.04333 0.23843 0.26137
 N1380 N 1.03136 0.24878 0.24936
 C1381 C 1.04360 0.26021 0.23847
 C1382 C 1.03661 0.22493 0.27562
 C1383 C 1.01614 0.22175 0.28066
 C1384 C 1.00993 0.21062 0.29634
 C1385 C 0.98927 0.21114 0.29661
 C1386 C 0.98330 0.22264 0.28112
 N1387 N 0.99978 0.22889 0.27138
 C1388 C 0.96292 0.22686 0.27662
 C1389 C 0.95662 0.24104 0.26288
 C1390 C 0.93683 0.24683 0.25995
 C1391 C 0.93715 0.26101 0.24582
 C1392 C 0.95707 0.26312 0.24024
 N1393 N 0.96890 0.25098 0.25075
 C1394 C 0.96381 0.27518 0.22491
 C1395 C 0.98404 0.27603 0.21858
 C1396 C 0.98999 0.28372 0.20102
 C1397 C 1.01061 0.28287 0.20050
 C1398 C 1.01678 0.27474 0.21779
 N1399 N 1.00048 0.27063 0.22878
 C1400 C 1.03718 0.27258 0.22327
 H1401 H 1.07681 0.26413 0.23769
 H1402 H 1.07656 0.23733 0.26499
 H1403 H 1.00066 0.26677 0.24320
 H1404 H 1.01929 0.20303 0.30669
 H1405 H 0.97976 0.20405 0.30720
 H1406 H 0.92349 0.24152 0.26727
 H1407 H 0.92411 0.26859 0.24009
 H1408 H 1.02002 0.28787 0.18877
 H1409 H 0.99981 0.23635 0.25843
 H1410 H 0.98044 0.28946 0.18974
 C1411 C 0.56261 0.23201 0.75433
 C1412 C 0.56374 0.24663 0.74061
 C1413 C 0.54523 0.25612 0.74056
 N1414 N 0.53288 0.24786 0.75377
 C1415 C 0.54340 0.23304 0.76210
 C1416 C 0.54023 0.27281 0.72928
 C1417 C 0.52061 0.28083 0.72877
 C1418 C 0.51576 0.29960 0.72187
 C1419 C 0.49509 0.30068 0.72160
 C1420 C 0.48794 0.28249 0.72824
 N1421 N 0.50359 0.27055 0.73270
 C1422 C 0.46758 0.27643 0.72779
 C1423 C 0.46018 0.26009 0.73848
 C1424 C 0.44071 0.25267 0.73752
 C1425 C 0.43938 0.23783 0.75098
 C1426 C 0.45819 0.23644 0.75950
 N1427 N 0.47077 0.25024 0.75200
 C1428 C 0.46318 0.22340 0.77467
 C1429 C 0.48302 0.22119 0.78172
 C1430 C 0.48809 0.21195 0.79882
 C1431 C 0.50877 0.21167 0.79973
 C1432 C 0.51580 0.22046 0.78303
 N1433 N 0.50002 0.22619 0.77214
 C1434 C 0.53629 0.22126 0.77745
 H1435 H 0.57456 0.22183 0.75818
 H1436 H 0.57674 0.25000 0.73181
 H1437 H 0.50079 0.23085 0.75796
 H1438 H 0.52605 0.31107 0.71701
 H1439 H 0.48631 0.31315 0.71644
 H1440 H 0.42864 0.25756 0.72825
 H1441 H 0.42603 0.22916 0.75414
 H1442 H 0.51761 0.20519 0.81115
 H1443 H 0.50271 0.25530 0.73534
 H1444 H 0.47801 0.20575 0.80944
 C1445 C -0.06445 0.26051 0.75768
 C1446 C -0.06447 0.24658 0.74325
 C1447 C -0.04457 0.24128 0.74012
 N1448 N -0.03244 0.25129 0.75247
 C1449 C -0.04453 0.26336 0.76299
 C1450 C -0.03814 0.22693 0.72643
 C1451 C -0.01773 0.22167 0.72347
 C1452 C -0.01128 0.20477 0.71367
 C1453 C 0.00938 0.20554 0.71318
 C1454 C 0.01505 0.22313 0.72228
 N1455 N -0.00158 0.23285 0.72853
 C1456 C 0.03508 0.23044 0.72327
 C1457 C 0.04096 0.24610 0.73575
 C1458 C 0.05986 0.25492 0.73603
 C1459 C 0.05997 0.26801 0.75123
 C1460 C 0.04109 0.26689 0.75964
 N1461 N 0.02953 0.25344 0.75020
 C1462 C 0.03537 0.27706 0.77661
 C1463 C 0.01517 0.27878 0.78296
 C1464 C 0.00935 0.28739 0.80022
 C1465 C -0.01134 0.28772 0.80036
 C1466 C -0.01770 0.27883 0.78339
 N1467 N -0.00143 0.27369 0.77277
 C1468 C -0.03807 0.27653 0.77777
 H1469 H -0.07770 0.26755 0.76368
 H1470 H -0.07773 0.24089 0.73604
 H1471 H -0.00169 0.26907 0.75856
 H1472 H -0.02041 0.19307 0.70738
 H1473 H 0.01907 0.19457 0.70646
 H1474 H 0.07237 0.25202 0.72645
 H1475 H 0.07257 0.27720 0.75569
 H1476 H -0.02053 0.29385 0.81176
 H1477 H -0.00202 0.24741 0.73370
 H1478 H 0.01899 0.29322 0.81144
 C1479 C 0.55975 0.26321 0.25869
 C1480 C 0.56206 0.24859 0.24507
 C1481 C 0.54295 0.24146 0.24084
 N1482 N 0.52909 0.25133 0.25144
 C1483 C 0.53929 0.26453 0.26253
 C1484 C 0.53881 0.22635 0.22708
 C1485 C 0.51917 0.22072 0.22108
 C1486 C 0.51505 0.20932 0.20487
 C1487 C 0.49451 0.20760 0.20361
 C1488 C 0.48647 0.21754 0.21934
 N1489 N 0.50164 0.22534 0.23002
 C1490 C 0.46558 0.21836 0.22365
 C1491 C 0.45715 0.23038 0.23836
 C1492 C 0.43698 0.23028 0.24351
 C1493 C 0.43463 0.24483 0.25721
 C1494 C 0.45344 0.25336 0.26010
 N1495 N 0.46716 0.24439 0.24862
 C1496 C 0.45735 0.26933 0.27302
 C1497 C 0.47694 0.27602 0.27827
 C1498 C 0.48090 0.28931 0.29314
 C1499 C 0.50144 0.29105 0.29450
 C1500 C 0.50967 0.27926 0.28008
 N1501 N 0.49458 0.27032 0.27015
 C1502 C 0.53068 0.27745 0.27648
 H1503 H 0.57184 0.27188 0.26499
 H1504 H 0.57623 0.24395 0.23882
 H1505 H 0.49617 0.26181 0.25786
 H1506 H 0.52564 0.20298 0.19476
 H1507 H 0.48644 0.19972 0.19241
 H1508 H 0.42513 0.22079 0.23792
 H1509 H 0.42063 0.24861 0.26429
 H1510 H 0.50937 0.30009 0.30496
 H1511 H 0.50026 0.23173 0.24352
 H1512 H 0.47021 0.29682 0.30238
 C1513 C 1.06300 0.73442 0.75325
 C1514 C 1.06390 0.74869 0.73919
 C1515 C 1.04496 0.75728 0.73829
 N1516 N 1.03261 0.74890 0.75140
 C1517 C 1.04357 0.73489 0.76053
 C1518 C 1.03979 0.77375 0.72674
 C1519 C 1.01972 0.78014 0.72405
 C1520 C 1.01415 0.79810 0.71580
 C1521 C 0.99345 0.79803 0.71469
 C1522 C 0.98698 0.78003 0.72232
 N1523 N 1.00308 0.76918 0.72788
 C1524 C 0.96676 0.77340 0.72268
 C1525 C 0.96013 0.75726 0.73402
 C1526 C 0.94112 0.74871 0.73310
 C1527 C 0.94025 0.73474 0.74743
 C1528 C 0.95874 0.73528 0.75662
 N1529 N 0.97083 0.74908 0.74844
 C1530 C 0.96374 0.72426 0.77315
 C1531 C 0.98351 0.72361 0.78061
 C1532 C 0.98857 0.71680 0.79873
 C1533 C 1.00927 0.71661 0.79962
 C1534 C 1.01623 0.72334 0.78203
 N1535 N 1.00044 0.72758 0.77054
 C1536 C 1.03663 0.72368 0.77632
 H1537 H 1.07532 0.72500 0.75780
 H1538 H 1.07704 0.75249 0.73076
 H1539 H 1.00122 0.73036 0.75589
 H1540 H 1.02399 0.80993 0.71088
 H1541 H 0.98423 0.80977 0.70872
 H1542 H 0.92908 0.75231 0.72325
 H1543 H 0.92741 0.72543 0.75084
 H1544 H 1.01819 0.71166 0.81169
 H1545 H 1.00283 0.75426 0.73195
 H1546 H 0.97842 0.71203 0.80998
 C1547 C 0.43800 0.74611 0.26380
 C1548 C 0.43751 0.75972 0.24916
 C1549 C 0.45697 0.76109 0.24208
 N1550 N 0.46931 0.74886 0.25198
 C1551 C 0.45783 0.73986 0.26545
 C1552 C 0.46276 0.77256 0.22601
 C1553 C 0.48283 0.77397 0.21941
 C1554 C 0.48843 0.78084 0.20144
 C1555 C 0.50913 0.78163 0.20123
 C1556 C 0.51557 0.77534 0.21914
 N1557 N 0.49944 0.77068 0.23012
 C1558 C 0.53578 0.77577 0.22547
 C1559 C 0.54239 0.76578 0.24211
 C1560 C 0.56150 0.76740 0.24994
 C1561 C 0.56214 0.75441 0.26510
 C1562 C 0.54338 0.74534 0.26603
 N1563 N 0.53138 0.75224 0.25192
 C1564 C 0.53809 0.73004 0.27897
 C1565 C 0.51820 0.72280 0.28134
 C1566 C 0.51316 0.70583 0.29163
 C1567 C 0.49252 0.70468 0.29182
 C1568 C 0.48541 0.72077 0.28133
 N1569 N 0.50120 0.73191 0.27527
 C1570 C 0.46475 0.72520 0.27842
 H1571 H 0.42515 0.74133 0.27216
 H1572 H 0.42426 0.76745 0.24410
 H1573 H 0.50040 0.74598 0.26917
 H1574 H 0.47861 0.78516 0.18980
 H1575 H 0.51836 0.78672 0.18941
 H1576 H 0.57374 0.77684 0.24515
 H1577 H 0.57498 0.75184 0.27431
 H1578 H 0.48383 0.69329 0.29905
 H1579 H 0.49959 0.76814 0.24480
 H1580 H 0.52328 0.69550 0.29860
 C1581 C -0.06266 0.74200 0.24316
 C1582 C -0.06333 0.75639 0.25721
 C1583 C -0.04358 0.76014 0.26253
 N1584 N -0.03092 0.74877 0.25196
 C1585 C -0.04249 0.73776 0.23998
 C1586 C -0.03769 0.77320 0.27751
 C1587 C -0.01761 0.77542 0.28395
 C1588 C -0.01232 0.78390 0.30142
 C1589 C 0.00833 0.78411 0.30214
 C1590 C 0.01516 0.77594 0.28501
 N1591 N -0.00078 0.77068 0.27396
 C1592 C 0.03573 0.77481 0.27969
 C1593 C 0.04296 0.76313 0.26417
 C1594 C 0.06304 0.76147 0.25895
 C1595 C 0.06383 0.74797 0.24416
 C1596 C 0.04415 0.74215 0.24040
 N1597 N 0.03150 0.75135 0.25277
 C1598 C 0.03836 0.72898 0.22538
 C1599 C 0.01817 0.72385 0.22080
 C1600 C 0.01264 0.71267 0.20484
 C1601 C -0.00798 0.71126 0.20503
 C1602 C -0.01464 0.72172 0.22104
 N1603 N 0.00142 0.72910 0.23072
 C1604 C -0.03525 0.72424 0.22590
 H1605 H -0.07561 0.73562 0.23599
 H1606 H -0.07686 0.76305 0.26303
 H1607 H 0.00103 0.73619 0.24393
 H1608 H -0.02232 0.78940 0.31251
 H1609 H 0.01730 0.78989 0.31389
 H1610 H 0.07588 0.76904 0.26518
 H1611 H 0.07742 0.74321 0.23691
 H1612 H -0.01705 0.70372 0.19432
 H1613 H -0.00029 0.76649 0.25961
 H1614 H 0.02242 0.70639 0.19395
 C1615 C 0.56373 0.74422 0.76464
 C1616 C 0.56278 0.73206 0.74882
 C1617 C 0.54328 0.73332 0.74188
 N1618 N 0.53227 0.74576 0.75300
 C1619 C 0.54469 0.75234 0.76703
 C1620 C 0.53661 0.72468 0.72446
 C1621 C 0.51622 0.72430 0.71870
 C1622 C 0.50956 0.71935 0.70043
 C1623 C 0.48884 0.71992 0.70095
 C1624 C 0.48345 0.72520 0.71952
 N1625 N 0.50022 0.72770 0.73026
 C1626 C 0.46344 0.72655 0.72635
 C1627 C 0.45836 0.73586 0.74396
 C1628 C 0.43945 0.73539 0.75241
 C1629 C 0.44024 0.74799 0.76797
 C1630 C 0.45965 0.75559 0.76861
 N1631 N 0.47067 0.74822 0.75389
 C1632 C 0.46642 0.77027 0.78170
 C1633 C 0.48694 0.77550 0.78390
 C1634 C 0.49387 0.79189 0.79421
 C1635 C 0.51455 0.79078 0.79427
 C1636 C 0.51970 0.77389 0.78378
 N1637 N 0.50277 0.76455 0.77772
 C1638 C 0.53957 0.76690 0.78096
 H1639 H 0.57709 0.74702 0.77311
 H1640 H 0.57521 0.72364 0.74283
 H1641 H 0.50199 0.75036 0.77165
 H1642 H 0.51868 0.71565 0.68804
 H1643 H 0.47889 0.71674 0.68903
 H1644 H 0.42634 0.72715 0.74762
 H1645 H 0.42790 0.75134 0.77761
 H1646 H 0.52456 0.80118 0.80140
 H1647 H 0.50065 0.72949 0.74508
 H1648 H 0.48497 0.80327 0.80127
 C1649 C 0.43559 0.27609 0.30152
 C1650 C 0.41912 0.28503 0.31046
 C1651 C 0.40544 0.29673 0.30006
 C1652 C 0.40823 0.29869 0.27991
 C1653 C 0.42585 0.29084 0.27113
 C1654 C 0.43956 0.27933 0.28204
 C1655 C 0.42901 0.29444 0.25147
 N1656 N 0.41475 0.30395 0.24107
 N1657 N 0.39758 0.31006 0.24899
 C1658 C 0.39376 0.30760 0.26795
 H1659 H 0.44563 0.26691 0.30996
 H1660 H 0.41734 0.28301 0.32577
 H1661 H 0.44258 0.28962 0.24424
 H1662 H 0.37918 0.31206 0.27324
 C1663 C 0.43887 0.79506 0.78304
 C1664 C 0.42427 0.80616 0.79261
 C1665 C 0.42127 0.80423 0.81254
 C1666 C 0.43490 0.79192 0.82304
 C1667 C 0.44917 0.77996 0.81305
 C1668 C 0.45107 0.78160 0.79291
 C1669 C 0.46143 0.76692 0.82364
 N1670 N 0.46060 0.76706 0.84306
 N1671 N 0.44845 0.77943 0.85254
 C1672 C 0.43583 0.79200 0.84326
 H1673 H 0.44043 0.79672 0.76765
 H1674 H 0.41460 0.81548 0.78398
 H1675 H 0.47185 0.75683 0.81667
 H1676 H 0.42732 0.80245 0.85183
 C1677 C -0.05945 0.28317 0.80652
 C1678 C -0.07477 0.29333 0.81609
 C1679 C -0.08570 0.30859 0.80706
 C1680 C -0.08105 0.31332 0.78764
 C1681 C -0.06433 0.30408 0.77852
 C1682 C -0.05377 0.28857 0.78791
 C1683 C -0.05907 0.31019 0.75988
 N1684 N -0.07071 0.32354 0.75049
 N1685 N -0.08728 0.33108 0.75845
 C1686 C -0.09296 0.32626 0.77654
 H1687 H -0.05181 0.27107 0.81376
 H1688 H -0.07807 0.28917 0.83075
 H1689 H -0.04598 0.30426 0.75259
 H1690 H -0.10712 0.33205 0.78164
 C1691 C -0.06634 0.77558 0.30046
 C1692 C -0.08132 0.78623 0.31004
 C1693 C -0.08379 0.80679 0.30706
 C1694 C -0.07026 0.81694 0.29465
 C1695 C -0.05537 0.80597 0.28452
 C1696 C -0.05351 0.78513 0.28745
 C1697 C -0.04267 0.81629 0.27176
 N1698 N -0.04430 0.83636 0.26994
 N1699 N -0.05772 0.84679 0.28001
 C1700 C -0.07065 0.83781 0.29235
 H1701 H -0.06488 0.75970 0.30300
 H1702 H -0.09137 0.77823 0.31956
 H1703 H -0.03140 0.80862 0.26329
 H1704 H -0.08076 0.84719 0.30049
 C1705 C 0.56817 0.70823 0.27961
 C1706 C 0.58357 0.69819 0.28900
 C1707 C 0.58573 0.69952 0.30898
 C1708 C 0.57156 0.71088 0.31974
 C1709 C 0.55631 0.72169 0.31005
 C1710 C 0.55456 0.72015 0.28985
 C1711 C 0.54313 0.73362 0.32096
 N1712 N 0.54454 0.73386 0.34036
 N1713 N 0.55819 0.72296 0.34954
 C1714 C 0.57163 0.71141 0.33994
 H1715 H 0.56689 0.70680 0.26417
 H1716 H 0.59413 0.68958 0.28049
 H1717 H 0.53167 0.74268 0.31426
 H1718 H 0.58187 0.70246 0.34827
 C1719 C 0.56528 0.22062 0.79970
 C1720 C 0.58025 0.21087 0.80994
 C1721 C 0.58156 0.18997 0.80983
 C1722 C 0.56671 0.17869 0.79987
 C1723 C 0.55192 0.18868 0.78881
 C1724 C 0.55131 0.20983 0.78876
 C1725 C 0.53826 0.17711 0.77806
 N1726 N 0.53870 0.15692 0.77923
 N1727 N 0.55190 0.14755 0.79037
 C1728 C 0.56582 0.15772 0.80079
 H1729 H 0.56488 0.23680 0.79990
 H1730 H 0.59133 0.21985 0.81745
 H1731 H 0.52717 0.18391 0.76882
 H1732 H 0.57574 0.14929 0.80995
 C1733 C 1.06589 0.72328 0.79840
 C1734 C 1.08067 0.71356 0.80893
 C1735 C 1.08148 0.69264 0.80955
 C1736 C 1.06633 0.68135 0.80001
 C1737 C 1.05168 0.69127 0.78873
 C1738 C 1.05158 0.71242 0.78792
 C1739 C 1.03763 0.67963 0.77851
 N1740 N 1.03763 0.65948 0.78035
 N1741 N 1.05075 0.65023 0.79166
 C1742 C 1.06500 0.66044 0.80160
 H1743 H 1.06585 0.73945 0.79805
 H1744 H 1.09198 0.72252 0.81614
 H1745 H 1.02659 0.68631 0.76914
 H1746 H 1.07484 0.65211 0.81093
 C1747 C 1.06365 0.22425 0.30017
 C1748 C 1.07917 0.21484 0.30997
 C1749 C 1.08338 0.19454 0.30690
 C1750 C 1.07078 0.18330 0.29439
 C1751 C 1.05557 0.19314 0.28374
 C1752 C 1.05219 0.21382 0.28659
 C1753 C 1.04413 0.18189 0.27058
 N1754 N 1.04705 0.16192 0.26902
 N1755 N 1.06061 0.15249 0.27971
 C1756 C 1.07246 0.16244 0.29240
 H1757 H 1.06099 0.24001 0.30268
 H1758 H 1.08840 0.22375 0.31955
 H1759 H 1.03279 0.18873 0.26165
 H1760 H 1.08267 0.15384 0.30110
 C1761 C 0.57130 0.29333 0.72672
 C1762 C 0.58611 0.30320 0.71622
 C1763 C 0.58615 0.30261 0.69610
 C1764 C 0.57052 0.29218 0.68637
 C1765 C 0.55573 0.28174 0.69710
 C1766 C 0.55612 0.28248 0.71743
 C1767 C 0.54088 0.27091 0.68708
 N1768 N 0.54043 0.27128 0.66765
 N1769 N 0.55379 0.28174 0.65758
 C1770 C 0.56872 0.29226 0.66624
 H1771 H 0.57166 0.29415 0.74225
 H1772 H 0.59783 0.31114 0.72391
 H1773 H 0.52960 0.26218 0.69449
 H1774 H 0.57874 0.30084 0.65727
 C1775 C 0.56566 0.77570 0.20403
 C1776 C 0.58053 0.78519 0.19330
 C1777 C 0.58103 0.80607 0.19174
 C1778 C 0.56553 0.81749 0.20056
 C1779 C 0.55080 0.80784 0.21203
 C1780 C 0.55094 0.78676 0.21375
 C1781 C 0.53637 0.81968 0.22151
 N1782 N 0.53612 0.83971 0.21879
 N1783 N 0.54932 0.84867 0.20729
 C1784 C 0.56392 0.83827 0.19803
 H1785 H 0.56585 0.75956 0.20508
 H1786 H 0.59211 0.77613 0.18664
 H1787 H 0.52523 0.81323 0.23097
 H1788 H 0.57381 0.84635 0.18850
 C1789 C 1.06613 0.27240 0.20054
 C1790 C 1.08137 0.28184 0.19024
 C1791 C 1.08330 0.30272 0.19044
 C1792 C 1.06869 0.31428 0.20042
 C1793 C 1.05395 0.30460 0.21184
 C1794 C 1.05274 0.28346 0.21189
 C1795 C 1.04078 0.31648 0.22285
 N1796 N 1.04147 0.33665 0.22140
 N1797 N 1.05443 0.34570 0.20972
 C1798 C 1.06793 0.33524 0.19911
 H1799 H 1.06514 0.25625 0.20013
 H1800 H 1.09211 0.27265 0.18257
 H1801 H 1.02987 0.30997 0.23250
 H1802 H 1.07752 0.34343 0.18941
 C1803 C 1.05898 0.78345 0.69766
 C1804 C 1.07480 0.79316 0.68843
 C1805 C 1.08849 0.80500 0.69876
 C1806 C 1.08631 0.80675 0.71899
 C1807 C 1.06993 0.79718 0.72830
 C1808 C 1.05635 0.78527 0.71751
 C1809 C 1.06773 0.79973 0.74824
 N1810 N 1.08153 0.81047 0.75823
 N1811 N 1.09735 0.81879 0.74965
 C1812 C 1.10028 0.81722 0.73044
 H1813 H 1.04874 0.77433 0.68926
 H1814 H 1.07624 0.79160 0.67301
 H1815 H 1.05522 0.79326 0.75598
 H1816 H 1.11369 0.82387 0.72447
 C1817 C 0.44592 0.69746 0.71173
 C1818 C 0.43000 0.68866 0.70181
 C1819 C 0.41422 0.70023 0.69444
 C1820 C 0.41461 0.72128 0.69732
 C1821 C 0.43142 0.73029 0.70654
 C1822 C 0.44686 0.71818 0.71430
 C1823 C 0.43208 0.75125 0.70802
 N1824 N 0.41631 0.76230 0.70186
 N1825 N 0.39996 0.75381 0.69436
 C1826 C 0.39849 0.73374 0.69204
 H1827 H 0.45758 0.68799 0.71762
 H1828 H 0.43003 0.67260 0.69989
 H1829 H 0.44492 0.75893 0.71410
 H1830 H 0.38451 0.72784 0.68657
 C1831 C 0.43855 0.21758 0.19904
 C1832 C 0.42433 0.20781 0.18770
 C1833 C 0.42277 0.18691 0.18767
 C1834 C 0.43678 0.17569 0.19865
 C1835 C 0.45055 0.18571 0.21098
 C1836 C 0.45138 0.20686 0.21114
 C1837 C 0.46311 0.17417 0.22278
 N1838 N 0.46279 0.15398 0.22136
 N1839 N 0.45076 0.14459 0.20899
 C1840 C 0.43787 0.15473 0.19753
 H1841 H 0.43915 0.23375 0.19883
 H1842 H 0.41399 0.21679 0.17941
 H1843 H 0.47329 0.18100 0.23298
 H1844 H 0.42900 0.14628 0.18735
 C1845 C -0.06164 0.72179 0.20065
 C1846 C -0.07646 0.71142 0.19056
 C1847 C -0.08026 0.69117 0.19420
 C1848 C -0.06799 0.68095 0.20765
 C1849 C -0.05335 0.69170 0.21835
 C1850 C -0.05035 0.71232 0.21491
 C1851 C -0.04207 0.68139 0.23221
 N1852 N -0.04471 0.66147 0.23452
 N1853 N -0.05783 0.65120 0.22392
 C1854 C -0.06945 0.66020 0.21052
 H1855 H -0.05927 0.73749 0.19769
 H1856 H -0.08548 0.71949 0.18024
 H1857 H -0.03109 0.68893 0.24112
 H1858 H -0.07934 0.65093 0.20200
 C1859 C -0.05936 0.19730 0.71850
 C1860 C -0.07454 0.18777 0.70813
 C1861 C -0.08534 0.19785 0.69382
 C1862 C -0.08076 0.21828 0.69024
 C1863 C -0.06432 0.22748 0.69988
 C1864 C -0.05383 0.21699 0.71437
 C1865 C -0.05923 0.24726 0.69511
 N1866 N -0.07070 0.25753 0.68250
 N1867 N -0.08693 0.24939 0.67443
 C1868 C -0.09246 0.23026 0.67801
 H1869 H -0.05170 0.18919 0.72975
 H1870 H -0.07779 0.17228 0.71133
 H1871 H -0.04639 0.25472 0.70147
 H1872 H -0.10632 0.22500 0.67174
 C1873 C 0.30143 0.44319 0.28620
 C1874 C 0.31027 0.42756 0.29625
 C1875 C 0.29931 0.41643 0.30978
 C1876 C 0.27875 0.42146 0.31311
 C1877 C 0.27031 0.43840 0.30392
 C1878 C 0.28156 0.44891 0.28993
 C1879 C 0.25039 0.44384 0.30840
 N1880 N 0.23925 0.43230 0.32030
 N1881 N 0.24664 0.41563 0.32785
 C1882 C 0.26584 0.40970 0.32448
 H1883 H 0.31012 0.45083 0.27529
 H1884 H 0.32587 0.42405 0.29324
 H1885 H 0.24351 0.45701 0.30235
 H1886 H 0.27038 0.39549 0.33017
 C1887 C 0.30174 -0.06500 0.77885
 C1888 C 0.31016 -0.08130 0.78820
 C1889 C 0.30030 -0.09062 0.80371
 C1890 C 0.28062 -0.08371 0.80881
 C1891 C 0.27272 -0.06629 0.79999
 C1892 C 0.28331 -0.05709 0.78479
 C1893 C 0.25392 -0.05902 0.80613
 N1894 N 0.24299 -0.06941 0.81913
 N1895 N 0.24952 -0.08666 0.82617
 C1896 C 0.26771 -0.09430 0.82124
 H1897 H 0.30978 -0.05831 0.76696
 H1898 H 0.32494 -0.08606 0.78353
 H1899 H 0.24766 -0.04536 0.80047
 H1900 H 0.27128 -0.10902 0.82637
 C1901 C 0.80110 0.44369 0.78796
 C1902 C 0.81063 0.42841 0.79788
 C1903 C 0.80007 0.41624 0.81094
 C1904 C 0.77884 0.41925 0.81296
 C1905 C 0.76946 0.43558 0.80353
 C1906 C 0.78068 0.44760 0.79074
 C1907 C 0.74882 0.43897 0.80663
 N1908 N 0.73792 0.42596 0.81725
 N1909 N 0.74625 0.40972 0.82476
 C1910 C 0.76616 0.40577 0.82274
 H1911 H 0.80980 0.45268 0.77806
 H1912 H 0.82668 0.42673 0.79569
 H1913 H 0.74120 0.45166 0.80044
 H1914 H 0.77149 0.39164 0.82800
 C1915 C 0.77255 -0.06201 0.30211
 C1916 C 0.78233 -0.07684 0.31248
 C1917 C 0.80320 -0.08003 0.31052
 C1918 C 0.81454 -0.06614 0.29935
 C1919 C 0.80439 -0.05165 0.28814
 C1920 C 0.78320 -0.04984 0.28938
 C1921 C 0.81586 -0.03912 0.27618
 N1922 N 0.83623 -0.03996 0.27664
 N1923 N 0.84584 -0.05239 0.28830
 C1924 C 0.83576 -0.06527 0.29980
 H1925 H 0.75639 -0.06041 0.30354
 H1926 H 0.77309 -0.08661 0.32114
 H1927 H 0.80886 -0.02845 0.26669
 H1928 H 0.84446 -0.07407 0.30971
 C1929 C 0.30013 0.56269 0.71868
 C1930 C 0.31054 0.57712 0.70833
 C1931 C 0.30872 0.57835 0.68830
 C1932 C 0.29663 0.56397 0.67855
 C1933 C 0.28491 0.55020 0.68927
 C1934 C 0.28688 0.54947 0.70951
 C1935 C 0.27172 0.53738 0.67932
 N1936 N 0.27148 0.53733 0.65987
 N1937 N 0.28351 0.54923 0.64976
 C1938 C 0.29617 0.56239 0.65840
 H1939 H 0.30204 0.56213 0.73411
 H1940 H 0.31971 0.58772 0.71621
 H1941 H 0.26174 0.52727 0.68679
 H1942 H 0.30611 0.57101 0.64940
 C1943 C 0.29726 1.06190 0.21784
 C1944 C 0.30784 1.07600 0.20726
 C1945 C 0.30789 1.07550 0.18712
 C1946 C 0.29741 1.05980 0.17757
 C1947 C 0.28567 1.04610 0.18839
 C1948 C 0.28582 1.04709 0.20872
 C1949 C 0.27417 1.03175 0.17845
 N1950 N 0.27547 1.03037 0.15908
 N1951 N 0.28746 1.04236 0.14902
 C1952 C 0.29856 1.05690 0.15758
 H1953 H 0.29768 1.06278 0.23336
 H1954 H 0.31567 1.08771 0.21502
 H1955 H 0.26425 1.02156 0.18587
 H1956 H 0.30850 1.06563 0.14869
 C1957 C 0.79952 0.55555 0.21235
 C1958 C 0.80814 0.57195 0.20328
 C1959 C 0.79614 0.58718 0.19561
 C1960 C 0.77482 0.58562 0.19705
 C1961 C 0.76609 0.56838 0.20546
 C1962 C 0.77860 0.55364 0.21375
 C1963 C 0.74499 0.56664 0.20578
 N1964 N 0.73341 0.58174 0.19914
 N1965 N 0.74153 0.59844 0.19229
 C1966 C 0.76176 0.60098 0.19119
 H1967 H 0.80927 0.54442 0.21867
 H1968 H 0.82440 0.57281 0.20238
 H1969 H 0.73760 0.55347 0.21134
 H1970 H 0.76726 0.61519 0.18621
 C1971 C 0.79367 1.06356 0.71737
 C1972 C 0.80378 1.07887 0.70796
 C1973 C 0.80149 1.08174 0.68815
 C1974 C 0.78913 1.06829 0.67755
 C1975 C 0.77832 1.05308 0.68731
 C1976 C 0.78074 1.05072 0.70736
 C1977 C 0.76542 1.04063 0.67661
 N1978 N 0.76423 1.04270 0.65731
 N1979 N 0.77506 1.05634 0.64802
 C1980 C 0.78753 1.06909 0.65743
 H1981 H 0.79575 1.06184 0.73269
 H1982 H 0.81315 1.08886 0.71637
 H1983 H 0.75636 1.02922 0.68338
 H1984 H 0.79634 1.07939 0.64900
 C1985 C 0.69690 0.55567 0.28816
 C1986 C 0.68760 0.57138 0.29781
 C1987 C 0.69747 0.58175 0.31263
 C1988 C 0.71731 0.57584 0.31784
 C1989 C 0.72621 0.55898 0.30876
 C1990 C 0.71612 0.54928 0.29345
 C1991 C 0.74542 0.55281 0.31476
 N1992 N 0.75550 0.56350 0.32823
 N1993 N 0.74772 0.57998 0.33594
 C1994 C 0.72914 0.58663 0.33109
 H1995 H 0.68912 0.54854 0.27630
 H1996 H 0.67254 0.57557 0.29347
 H1997 H 0.75257 0.53971 0.30870
 H1998 H 0.72426 0.60060 0.33721
 C1999 C 0.72363 1.05989 0.79729
 C2000 C 0.71396 1.07432 0.80837
 C2001 C 0.69332 1.07836 0.80594
 C2002 C 0.68196 1.06588 0.79327
 C2003 C 0.69200 1.05148 0.78173
 C2004 C 0.71299 1.04876 0.78365
 C2005 C 0.68060 1.03991 0.76879
 N2006 N 0.66031 1.04180 0.76831
 N2007 N 0.65069 1.05434 0.77999
 C2008 C 0.66074 1.06622 0.79256
 H2009 H 0.73966 1.05759 0.79912
 H2010 H 0.72313 1.08318 0.81803
 H2011 H 0.68760 1.02919 0.75924
 H2012 H 0.65192 1.07517 0.80235
 C2013 C 0.20014 0.55840 0.78356
 C2014 C 0.19115 0.57426 0.79327
 C2015 C 0.20213 0.58602 0.80631
 C2016 C 0.22286 0.58179 0.80929
 C2017 C 0.23178 0.56515 0.79989
 C2018 C 0.22030 0.55352 0.78686
 C2019 C 0.25214 0.56088 0.80355
 N2020 N 0.26302 0.57300 0.81524
 N2021 N 0.25493 0.58910 0.82341
 C2022 C 0.23533 0.59399 0.82074
 H2023 H 0.19129 0.54980 0.77340
 H2024 H 0.17538 0.57728 0.79064
 H2025 H 0.25954 0.54811 0.79714
 H2026 H 0.22996 0.60762 0.82724
 C2027 C 0.22920 1.06896 0.29494
 C2028 C 0.22008 1.08468 0.30478
 C2029 C 0.19914 1.08726 0.30426
 C2030 C 0.18710 1.07320 0.29413
 C2031 C 0.19645 1.05737 0.28389
 C2032 C 0.21765 1.05534 0.28434
 C2033 C 0.18420 1.04402 0.27349
 N2034 N 0.16390 1.04603 0.27394
 N2035 N 0.15506 1.06047 0.28407
 C2036 C 0.16592 1.07403 0.29423
 H2037 H 0.24543 1.06744 0.29550
 H2038 H 0.22950 1.09521 0.31250
 H2039 H 0.19055 1.03196 0.26508
 H2040 H 0.15783 1.08507 0.30251
 C2041 C 0.69789 0.44538 0.71174
 C2042 C 0.68864 0.42987 0.70173
 C2043 C 0.69978 0.41712 0.68972
 C2044 C 0.72085 0.42039 0.68768
 C2045 C 0.73009 0.43669 0.69739
 C2046 C 0.71856 0.44886 0.70991
 C2047 C 0.75079 0.44004 0.69466
 N2048 N 0.76168 0.42735 0.68358
 N2049 N 0.75325 0.41152 0.67517
 C2050 C 0.73331 0.40752 0.67695
 H2051 H 0.68891 0.45459 0.72127
 H2052 H 0.67258 0.42773 0.70351
 H2053 H 0.75843 0.45256 0.70132
 H2054 H 0.72764 0.39409 0.67029
 C2055 C 0.69787 -0.05671 0.21352
 C2056 C 0.68870 -0.07244 0.20377
 C2057 C 0.69961 -0.08438 0.19085
 C2058 C 0.72038 -0.08023 0.18776
 C2059 C 0.72950 -0.06375 0.19727
 C2060 C 0.71819 -0.05226 0.21055
 C2061 C 0.74987 -0.05953 0.19356
 N2062 N 0.76060 -0.07157 0.18169
 N2063 N 0.75233 -0.08754 0.17340
 C2064 C 0.73269 -0.09237 0.17612
 H2065 H 0.68909 -0.04804 0.22367
 H2066 H 0.67288 -0.07533 0.20637
 H2067 H 0.75739 -0.04687 0.20008
 H2068 H 0.72717 -0.10588 0.16948
 C2069 C 0.19734 0.44267 0.21208
 C2070 C 0.18828 0.42697 0.20219
 C2071 C 0.19958 0.41444 0.19017
 C2072 C 0.22059 0.41788 0.18808
 C2073 C 0.22972 0.43411 0.19797
 C2074 C 0.21799 0.44631 0.21026
 C2075 C 0.25046 0.43744 0.19546
 N2076 N 0.26140 0.42493 0.18423
 N2077 N 0.25300 0.40932 0.17544
 C2078 C 0.23305 0.40529 0.17706
 H2079 H 0.18824 0.45189 0.22150
 H2080 H 0.17226 0.42455 0.20400
 H2081 H 0.25807 0.44983 0.20236
 H2082 H 0.22731 0.39212 0.16995
 C2083 C 0.19793 -0.04995 0.70635
 C2084 C 0.18733 -0.06432 0.69600
 C2085 C 0.19741 -0.07883 0.68508
 C2086 C 0.21881 -0.07865 0.68450
 C2087 C 0.22957 -0.06363 0.69469
 C2088 C 0.21899 -0.04955 0.70606
 C2089 C 0.25070 -0.06342 0.69348
 N2090 N 0.26041 -0.07781 0.68337
 N2091 N 0.25042 -0.09239 0.67446
 C2092 C 0.23002 -0.09339 0.67478
 H2093 H 0.18966 -0.03930 0.71504
 H2094 H 0.17103 -0.06424 0.69669
 H2095 H 0.25957 -0.05199 0.70053
 H2096 H 0.22294 -0.10591 0.66771
 C2097 C 0.29424 0.27680 0.43757
 C2098 C 0.30461 0.28683 0.42317
 C2099 C 0.30716 0.30765 0.42382
 C2100 C 0.29952 0.31839 0.43989
 C2101 C 0.28811 0.30824 0.45411
 C2102 C 0.28559 0.28723 0.45295
 C2103 C 0.27959 0.31953 0.46912
 N2104 N 0.28331 0.33939 0.47041
 N2105 N 0.29495 0.34872 0.45772
 C2106 C 0.30327 0.33891 0.44261
 H2107 H 0.29265 0.26072 0.43656
 H2108 H 0.31030 0.27820 0.41116
 H2109 H 0.27008 0.31276 0.47989
 H2110 H 0.31308 0.34721 0.43321
 C2111 C 0.29349 0.77847 -0.06522
 C2112 C 0.30434 0.78822 -0.07944
 C2113 C 0.30712 0.80901 -0.07894
 C2114 C 0.29894 0.82006 -0.06329
 C2115 C 0.28687 0.81020 -0.04938
 C2116 C 0.28442 0.78916 -0.05025
 C2117 C 0.27772 0.82177 -0.03492
 N2118 N 0.28156 0.84162 -0.03372
 N2119 N 0.29391 0.85065 -0.04600
 C2120 C 0.30282 0.84056 -0.06062
 H2121 H 0.29198 0.76236 -0.06600
 H2122 H 0.31037 0.77934 -0.09112
 H2123 H 0.26761 0.81524 -0.02451
 H2124 H 0.31321 0.84863 -0.06963
 C2125 C 0.79591 0.28024 -0.06139
 C2126 C 0.80659 0.29053 -0.07539
 C2127 C 0.80888 0.31136 -0.07447
 C2128 C 0.80083 0.32179 -0.05837
 C2129 C 0.78880 0.31142 -0.04477
 C2130 C 0.78646 0.29041 -0.04628
 C2131 C 0.77948 0.32250 -0.03005
 N2132 N 0.78328 0.34231 -0.02821
 N2133 N 0.79571 0.35176 -0.04012
 C2134 C 0.80471 0.34218 -0.05500
 H2135 H 0.79455 0.26415 -0.06263
 H2136 H 0.81265 0.28207 -0.08734
 H2137 H 0.76931 0.31562 -0.01991
 H2138 H 0.81520 0.35053 -0.06367
 C2139 C 0.78538 0.80465 0.44562
 C2140 C 0.79426 0.81444 0.43017
 C2141 C 0.80607 0.80400 0.41680
 C2142 C 0.80881 0.78308 0.41902
 C2143 C 0.80020 0.77327 0.43507
 C2144 C 0.78811 0.78413 0.44821
 C2145 C 0.80369 0.75269 0.43731
 N2146 N 0.81437 0.74252 0.42389
 N2147 N 0.82171 0.75152 0.40840
 C2148 C 0.81919 0.77136 0.40543
 H2149 H 0.77607 0.81308 0.45552
 H2150 H 0.79190 0.83036 0.42863
 H2151 H 0.79798 0.74459 0.44956
 H2152 H 0.82501 0.77755 0.39228
 C2153 C 0.71997 0.30137 0.56024
 C2154 C 0.70987 0.31162 0.57476
 C2155 C 0.68934 0.30826 0.57816
 C2156 C 0.67855 0.29505 0.56591
 C2157 C 0.68891 0.28447 0.55126
 C2158 C 0.70982 0.28752 0.54865
 C2159 C 0.67797 0.27098 0.53976
 N2160 N 0.65786 0.26880 0.54242
 N2161 N 0.64800 0.27917 0.55578
 C2162 C 0.65761 0.29224 0.56756
 H2163 H 0.73596 0.30389 0.55829
 H2164 H 0.71836 0.32170 0.58390
 H2165 H 0.68517 0.26222 0.52864
 H2166 H 0.64871 0.30052 0.57784
 C2167 C 0.69539 0.78722 1.05247
 C2168 C 0.68518 0.79684 1.06733
 C2169 C 0.69557 0.80838 1.08094
 C2170 C 0.71686 0.81015 1.07953
 C2171 C 0.72716 0.80071 1.06413
 C2172 C 0.71632 0.78887 1.05078
 C2173 C 0.74815 0.80313 1.06274
 N2174 N 0.75821 0.81366 1.07635
 N2175 N 0.74870 0.82185 1.09124
 C2176 C 0.72846 0.82035 1.09338
 H2177 H 0.68696 0.77811 1.04240
 H2178 H 0.66897 0.79520 1.06825
 H2179 H 0.75667 0.79670 1.05101
 H2180 H 0.72182 0.82685 1.10607
 C2181 C 0.19849 0.28298 1.05440
 C2182 C 0.18859 0.29225 1.06960
 C2183 C 0.19757 0.30808 1.07976
 C2184 C 0.21716 0.31462 1.07426
 C2185 C 0.22660 0.30598 1.05793
 C2186 C 0.21740 0.28968 1.04835
 C2187 C 0.24543 0.31343 1.05209
 N2188 N 0.25475 0.32776 1.06262
 N2189 N 0.24655 0.33500 1.07863
 C2190 C 0.22825 0.32879 1.08492
 H2191 H 0.19138 0.27038 1.04731
 H2192 H 0.17378 0.28686 1.07355
 H2193 H 0.25293 0.30780 1.03938
 H2194 H 0.22305 0.33456 1.09848
 C2195 C 0.21966 0.80877 0.55803
 C2196 C 0.20847 0.81794 0.57248
 C2197 C 0.19007 0.80983 0.57867
 C2198 C 0.18251 0.79240 0.56940
 C2199 C 0.19436 0.78263 0.55526
 C2200 C 0.21302 0.79099 0.54957
 C2201 C 0.18703 0.76482 0.54704
 N2202 N 0.16861 0.75782 0.55206
 N2203 N 0.15704 0.76748 0.56463
 C2204 C 0.16326 0.78457 0.57334
 H2205 H 0.23387 0.81534 0.55370
 H2206 H 0.21457 0.83123 0.57923
 H2207 H 0.19569 0.75650 0.53658
 H2208 H 0.15286 0.79204 0.58283
 C2209 C 0.30352 0.71423 0.55337
 C2210 C 0.31247 0.70479 0.56895
 C2211 C 0.30074 0.69577 0.58325
 C2212 C 0.27940 0.69628 0.58170
 C2213 C 0.27036 0.70516 0.56539
 C2214 C 0.28256 0.71474 0.55148
 C2215 C 0.24926 0.70460 0.56374
 N2216 N 0.23795 0.69670 0.57802
 N2217 N 0.24634 0.68934 0.59381
 C2218 C 0.26660 0.68898 0.59621
 H2219 H 0.31302 0.72154 0.54287
 H2220 H 0.32875 0.70460 0.56989
 H2221 H 0.24165 0.71049 0.55128
 H2222 H 0.27234 0.68342 0.60962
 C2223 C 0.30662 0.21170 1.05126
 C2224 C 0.31562 0.20203 1.06671
 C2225 C 0.30398 0.19204 1.08050
 C2226 C 0.28265 0.19195 1.07857
 C2227 C 0.27362 0.20098 1.06232
 C2228 C 0.28569 0.21142 1.04890
 C2229 C 0.25258 0.19970 1.06021
 N2230 N 0.24128 0.19100 1.07406
 N2231 N 0.24959 0.18359 1.08986
 C2232 C 0.26979 0.18392 1.09267
 H2233 H 0.31602 0.21974 1.04119
 H2234 H 0.33188 0.20240 1.06792
 H2235 H 0.24502 0.20562 1.04774
 H2236 H 0.27539 0.17838 1.10614
 C2237 C 0.78705 0.69500 1.05583
 C2238 C 0.79674 0.68582 1.07112
 C2239 C 0.80862 0.69689 1.08397
 C2240 C 0.81074 0.71781 1.08128
 C2241 C 0.80120 0.72706 1.06543
 C2242 C 0.78898 0.71555 1.05289
 C2243 C 0.80393 0.74770 1.06277
 N2244 N 0.81485 0.75844 1.07560
 N2245 N 0.82317 0.74994 1.09089
 C2246 C 0.82140 0.73007 1.09423
 H2247 H 0.77770 0.68607 1.04637
 H2248 H 0.79482 0.66987 1.07303
 H2249 H 0.79743 0.75542 1.05067
 H2250 H 0.82806 0.72427 1.10715
 C2251 C 0.78418 0.19720 0.55628
 C2252 C 0.79390 0.18793 0.57152
 C2253 C 0.80664 0.19876 0.58380
 C2254 C 0.80946 0.21953 0.58066
 C2255 C 0.79971 0.22888 0.56497
 C2256 C 0.78681 0.21761 0.55290
 C2257 C 0.80298 0.24939 0.56198
 N2258 N 0.81477 0.25990 0.57427
 N2259 N 0.82343 0.25131 0.58934
 C2260 C 0.82111 0.23156 0.59302
 H2261 H 0.77427 0.18844 0.54719
 H2262 H 0.79145 0.17211 0.57375
 H2263 H 0.79622 0.25716 0.55004
 H2264 H 0.82814 0.22566 0.60572
 C2265 C 0.72343 0.69699 0.43943
 C2266 C 0.71262 0.68711 0.42513
 C2267 C 0.69216 0.69120 0.42223
 C2268 C 0.68216 0.70478 0.43466
 C2269 C 0.69320 0.71487 0.44915
 C2270 C 0.71402 0.71108 0.45128
 C2271 C 0.68301 0.72859 0.46101
 N2272 N 0.66298 0.73156 0.45871
 N2273 N 0.65249 0.72175 0.44538
 C2274 C 0.66135 0.70845 0.43333
 H2275 H 0.73935 0.69392 0.44105
 H2276 H 0.72048 0.67676 0.41579
 H2277 H 0.69076 0.73690 0.47212
 H2278 H 0.65198 0.70068 0.42305
 C2279 C 0.69695 0.21235 -0.05567
 C2280 C 0.68867 0.20268 -0.07154
 C2281 C 0.70098 0.19376 -0.08551
 C2282 C 0.72225 0.19475 -0.08337
 C2283 C 0.73062 0.20397 -0.06682
 C2284 C 0.71782 0.21322 -0.05315
 C2285 C 0.75167 0.20391 -0.06459
 N2286 N 0.76354 0.19606 -0.07853
 N2287 N 0.75577 0.18834 -0.09453
 C2288 C 0.73561 0.18754 -0.09749
 H2289 H 0.68701 0.21942 -0.04536
 H2290 H 0.67243 0.20219 -0.07293
 H2291 H 0.75882 0.21005 -0.05194
 H2292 H 0.73039 0.18167 -0.11104
 C2293 C 0.19441 0.71176 -0.05177
 C2294 C 0.18491 0.70177 -0.06683
 C2295 C 0.19609 0.69137 -0.08070
 C2296 C 0.21744 0.69111 -0.07934
 C2297 C 0.22705 0.70094 -0.06375
 C2298 C 0.21539 0.71164 -0.05014
 C2299 C 0.24816 0.70000 -0.06242
 N2300 N 0.25892 0.69052 -0.07623
 N2301 N 0.25001 0.68198 -0.09127
 C2302 C 0.22971 0.68204 -0.09337
 H2303 H 0.18535 0.71997 -0.04149
 H2304 H 0.16863 0.70226 -0.06772
 H2305 H 0.25620 0.70676 -0.05056
 H2306 H 0.22353 0.67531 -0.10616
 C2307 C 0.22174 0.20439 0.43866
 C2308 C 0.21236 0.19407 0.42378
 C2309 C 0.19133 0.19395 0.42200
 C2310 C 0.17952 0.20387 0.43614
 C2311 C 0.18915 0.21493 0.45095
 C2312 C 0.21043 0.21511 0.45216
 C2313 C 0.17709 0.22550 0.46411
 N2314 N 0.15675 0.22422 0.46302
 N2315 N 0.14770 0.21311 0.44968
 C2316 C 0.15835 0.20283 0.43630
 H2317 H 0.23803 0.20428 0.43952
 H2318 H 0.22170 0.18661 0.41322
 H2319 H 0.18363 0.23469 0.47529
 H2320 H 0.15014 0.19365 0.42620
 C2321 C 0.30471 0.43999 0.71564
 C2322 C 0.31335 0.42384 0.70613
 C2323 C 0.30195 0.41167 0.69374
 C2324 C 0.28118 0.41604 0.69108
 C2325 C 0.27279 0.43332 0.69981
 C2326 C 0.28459 0.44509 0.71248
 C2327 C 0.25251 0.43797 0.69610
 N2328 N 0.24111 0.42545 0.68531
 N2329 N 0.24859 0.40859 0.67810
 C2330 C 0.26810 0.40336 0.68077
 H2331 H 0.31380 0.44863 0.72558
 H2332 H 0.32915 0.42080 0.70857
 H2333 H 0.24558 0.45133 0.70184
 H2334 H 0.27285 0.38904 0.67531
 C2335 C 0.29908 0.93569 0.22024
 C2336 C 0.30719 0.91921 0.21077
 C2337 C 0.29667 0.90957 0.19590
 C2338 C 0.27727 0.91674 0.19073
 C2339 C 0.26953 0.93418 0.19973
 C2340 C 0.28042 0.94346 0.21480
 C2341 C 0.25076 0.94154 0.19371
 N2342 N 0.24000 0.93147 0.18028
 N2343 N 0.24671 0.91452 0.17257
 C2344 C 0.26483 0.90673 0.17744
 H2345 H 0.30744 0.94252 0.23190
 H2346 H 0.32195 0.91405 0.21508
 H2347 H 0.24447 0.95510 0.19970
 H2348 H 0.26892 0.89252 0.17125
 C2349 C 0.77515 0.43570 0.20331
 C2350 C 0.78460 0.42062 0.19287
 C2351 C 0.80565 0.41929 0.19224
 C2352 C 0.81739 0.43420 0.20155
 C2353 C 0.80773 0.44930 0.21253
 C2354 C 0.78645 0.44986 0.21351
 C2355 C 0.81977 0.46330 0.22235
 N2356 N 0.84009 0.46268 0.22054
 N2357 N 0.84913 0.44900 0.20964
 C2358 C 0.83851 0.43482 0.20004
 H2359 H 0.75885 0.43606 0.20385
 H2360 H 0.77534 0.40947 0.18580
 H2361 H 0.81325 0.47479 0.23135
 H2362 H 0.84670 0.42445 0.19106
 C2363 C 0.80063 0.94066 0.71111
 C2364 C 0.81054 0.92522 0.70164
 C2365 C 0.80118 0.91442 0.68679
 C2366 C 0.78118 0.91957 0.68143
 C2367 C 0.77159 0.93615 0.69036
 C2368 C 0.78125 0.94637 0.70562
 C2369 C 0.75224 0.94160 0.68416
 N2370 N 0.74267 0.93049 0.67065
 N2371 N 0.75113 0.91427 0.66306
 C2372 C 0.76990 0.90832 0.66810
 H2373 H 0.80813 0.94824 0.72287
 H2374 H 0.82573 0.92165 0.70610
 H2375 H 0.74455 0.95446 0.69008
 H2376 H 0.77539 0.89455 0.66204
 C2377 C 0.69781 0.55741 0.71413
 C2378 C 0.68907 0.57324 0.70431
 C2379 C 0.70061 0.58559 0.69234
 C2380 C 0.72157 0.58179 0.69033
 C2381 C 0.73030 0.56527 0.69993
 C2382 C 0.71834 0.55332 0.71221
 C2383 C 0.75093 0.56146 0.69729
 N2384 N 0.76221 0.57389 0.68635
 N2385 N 0.75426 0.58986 0.67799
 C2386 C 0.73442 0.59432 0.67970
 H2387 H 0.68853 0.54842 0.72355
 H2388 H 0.67308 0.57587 0.70610
 H2389 H 0.75820 0.54880 0.70390
 H2390 H 0.72913 0.60785 0.67307
 C2391 C 0.69713 0.05537 0.21062
 C2392 C 0.68753 0.07035 0.20034
 C2393 C 0.69834 0.08298 0.18800
 C2394 C 0.71950 0.08021 0.18607
 C2395 C 0.72905 0.06424 0.19586
 C2396 C 0.71782 0.05217 0.20865
 C2397 C 0.74977 0.06117 0.19295
 N2398 N 0.76042 0.07394 0.18182
 N2399 N 0.75175 0.08956 0.17350
 C2400 C 0.73176 0.09324 0.17536
 H2401 H 0.68834 0.04624 0.22033
 H2402 H 0.67143 0.07210 0.20211
 H2403 H 0.75761 0.04885 0.19958
 H2404 H 0.72593 0.10660 0.16887
 C2405 C 0.22026 0.56290 0.20270
 C2406 C 0.21080 0.57788 0.19228
 C2407 C 0.18984 0.58024 0.19298
 C2408 C 0.17812 0.56661 0.20386
 C2409 C 0.18782 0.55143 0.21458
 C2410 C 0.20905 0.54975 0.21406
 C2411 C 0.17589 0.53843 0.22559
 N2412 N 0.15556 0.54021 0.22538
 N2413 N 0.14641 0.55409 0.21493
 C2414 C 0.15695 0.56728 0.20413
 H2415 H 0.23651 0.56168 0.20211
 H2416 H 0.22002 0.58809 0.18405
 H2417 H 0.18252 0.52682 0.23427
 H2418 H 0.14864 0.57791 0.19565
 C2419 C 0.22654 0.06907 0.71020
 C2420 C 0.21678 0.08433 0.70042
 C2421 C 0.19586 0.08391 0.69760
 C2422 C 0.18467 0.06730 0.70452
 C2423 C 0.19453 0.05223 0.71526
 C2424 C 0.21569 0.05303 0.71786
 C2425 C 0.18284 0.03666 0.72297
 N2426 N 0.16286 0.03564 0.71916
 N2427 N 0.15381 0.04912 0.70818
 C2428 C 0.16402 0.06479 0.70063
 H2429 H 0.24274 0.06981 0.71190
 H2430 H 0.22570 0.09674 0.69523
 H2431 H 0.18939 0.02524 0.73193
 H2432 H 0.15591 0.07478 0.69133
 C2433 C 0.28140 0.55563 0.30477
 C2434 C 0.29050 0.57204 0.31356
 C2435 C 0.29890 0.58756 0.30266
 C2436 C 0.29780 0.58642 0.28229
 C2437 C 0.28997 0.56896 0.27341
 C2438 C 0.28107 0.55378 0.28476
 C2439 C 0.29085 0.56742 0.25327
 N2440 N 0.29750 0.58305 0.24272
 N2441 N 0.30329 0.60008 0.25096
 C2442 C 0.30347 0.60238 0.27030
 H2443 H 0.27451 0.54427 0.31364
 H2444 H 0.29097 0.57256 0.32909
 H2445 H 0.28617 0.55401 0.24580
 H2446 H 0.30741 0.61687 0.27595
 C2447 C 0.29688 0.06141 0.78355
 C2448 C 0.30792 0.07507 0.79437
 C2449 C 0.30827 0.07409 0.81448
 C2450 C 0.29738 0.05858 0.82377
 C2451 C 0.28540 0.04520 0.81272
 C2452 C 0.28546 0.04648 0.79242
 C2453 C 0.27382 0.03080 0.82239
 N2454 N 0.27510 0.02917 0.84173
 N2455 N 0.28717 0.04096 0.85201
 C2456 C 0.29842 0.05548 0.84371
 H2457 H 0.29718 0.06252 0.76804
 H2458 H 0.31606 0.08670 0.78689
 H2459 H 0.26383 0.02077 0.81477
 H2460 H 0.30838 0.06405 0.85279
 C2461 C 0.80007 0.55663 0.78990
 C2462 C 0.80926 0.57251 0.79940
 C2463 C 0.79849 0.58445 0.81243
 C2464 C 0.77792 0.57992 0.81615
 C2465 C 0.76875 0.56335 0.80680
 C2466 C 0.77983 0.55204 0.79322
 C2467 C 0.74852 0.55892 0.81092
 N2468 N 0.73798 0.57074 0.82314
 N2469 N 0.74630 0.58671 0.83139
 C2470 C 0.76580 0.59179 0.82822
 H2471 H 0.80868 0.54810 0.77951
 H2472 H 0.82494 0.57567 0.79633
 H2473 H 0.74098 0.54623 0.80446
 H2474 H 0.77138 0.60524 0.83491
 C2475 C 0.77126 0.06701 0.29939
 C2476 C 0.78074 0.08235 0.30950
 C2477 C 0.80175 0.08457 0.30899
 C2478 C 0.81345 0.07023 0.29886
 C2479 C 0.80371 0.05519 0.28785
 C2480 C 0.78242 0.05371 0.28807
 C2481 C 0.81568 0.04203 0.27695
 N2482 N 0.83603 0.04318 0.27797
 N2483 N 0.84519 0.05659 0.28910
 C2484 C 0.83463 0.07005 0.29964
 H2485 H 0.75499 0.06585 0.29991
 H2486 H 0.77149 0.09295 0.31728
 H2487 H 0.80910 0.03075 0.26773
 H2488 H 0.84294 0.08011 0.30884
 C2489 C 0.71666 0.44274 0.30614
 C2490 C 0.70706 0.42680 0.31509
 C2491 C 0.69694 0.41211 0.30437
 C2492 C 0.69697 0.41341 0.28401
 C2493 C 0.70578 0.43026 0.27499
 C2494 C 0.71606 0.44478 0.28617
 C2495 C 0.70420 0.43192 0.25492
 N2496 N 0.69568 0.41698 0.24454
 N2497 N 0.68863 0.40055 0.25286
 C2498 C 0.68912 0.39817 0.27217
 H2499 H 0.72461 0.45363 0.31486
 H2500 H 0.70736 0.42607 0.33061
 H2501 H 0.70972 0.44489 0.24737
 H2502 H 0.68388 0.38416 0.27790
 C2503 C 0.72448 0.93268 0.79361
 C2504 C 0.71497 0.91802 0.80445
 C2505 C 0.69395 0.91590 0.80421
 C2506 C 0.68226 0.92936 0.79318
 C2507 C 0.69202 0.94404 0.78184
 C2508 C 0.71329 0.94562 0.78212
 C2509 C 0.68010 0.95675 0.77056
 N2510 N 0.65976 0.95528 0.77121
 N2511 N 0.65056 0.94199 0.78236
 C2512 C 0.66107 0.92907 0.79341
 H2513 H 0.74075 0.93386 0.79406
 H2514 H 0.72420 0.90794 0.81277
 H2515 H 0.68675 0.96788 0.76130
 H2516 H 0.65271 0.91900 0.80249
 C2517 C 0.21799 0.44452 0.80541
 C2518 C 0.20788 0.42902 0.81456
 C2519 C 0.19404 0.41694 0.80461
 C2520 C 0.19036 0.42077 0.78486
 C2521 C 0.19986 0.43728 0.77589
 C2522 C 0.21422 0.44881 0.78613
 C2523 C 0.19513 0.44143 0.75664
 N2524 N 0.18264 0.42914 0.74675
 N2525 N 0.17466 0.41296 0.75479
 C2526 C 0.17822 0.40826 0.77338
 H2527 H 0.22902 0.45315 0.81336
 H2528 H 0.21099 0.42641 0.82959
 H2529 H 0.20138 0.45425 0.74933
 H2530 H 0.17195 0.39449 0.77870
 C2531 C 0.22274 0.93994 0.30405
 C2532 C 0.21187 0.92583 0.31442
 C2533 C 0.19094 0.92413 0.31231
 C2534 C 0.18065 0.93774 0.30026
 C2535 C 0.19176 0.95191 0.28949
 C2536 C 0.21298 0.95275 0.29129
 C2537 C 0.18122 0.96470 0.27710
 N2538 N 0.16085 0.96376 0.27616
 N2539 N 0.15035 0.95091 0.28673
 C2540 C 0.15952 0.93794 0.29877
 H2541 H 0.23896 0.94055 0.30560
 H2542 H 0.21999 0.91562 0.32361
 H2543 H 0.18894 0.97548 0.26822
 H2544 H 0.15015 0.92818 0.30728
 C2545 C 0.43786 0.29855 0.72484
 C2546 C 0.42367 0.30899 0.71423
 C2547 C 0.42476 0.30968 0.69413
 C2548 C 0.44127 0.30040 0.68470
 C2549 C 0.45509 0.28883 0.69544
 C2550 C 0.45330 0.28797 0.71570
 C2551 C 0.47028 0.27843 0.68547
 N2552 N 0.47225 0.28065 0.66623
 N2553 N 0.46004 0.29248 0.65631
 C2554 C 0.44472 0.30249 0.66487
 H2555 H 0.43647 0.29824 0.74033
 H2556 H 0.41133 0.31599 0.72187
 H2557 H 0.48065 0.26863 0.69274
 H2558 H 0.43572 0.31231 0.65614
 C2559 C 0.43342 0.77260 0.20395
 C2560 C 0.41817 0.78219 0.19386
 C2561 C 0.41607 0.80302 0.19466
 C2562 C 0.43024 0.81446 0.20530
 C2563 C 0.44547 0.80464 0.21593
 C2564 C 0.44695 0.78354 0.21525
 C2565 C 0.45879 0.81632 0.22698
 N2566 N 0.45740 0.83651 0.22669
 N2567 N 0.44362 0.84578 0.21613
 C2568 C 0.43008 0.83549 0.20538
 H2569 H 0.43452 0.75648 0.20317
 H2570 H 0.40760 0.77316 0.18576
 H2571 H 0.47033 0.80963 0.23578
 H2572 H 0.41963 0.84390 0.19676
 C2573 C 0.93529 0.27675 0.20195
 C2574 C 0.92085 0.28708 0.19152
 C2575 C 0.91948 0.30797 0.19264
 C2576 C 0.93365 0.31867 0.20398
 C2577 C 0.94796 0.30807 0.21506
 C2578 C 0.94865 0.28694 0.21405
 C2579 C 0.96125 0.31902 0.22680
 N2580 N 0.96074 0.33925 0.22674
 N2581 N 0.94787 0.34924 0.21576
 C2582 C 0.93439 0.33967 0.20434
 H2583 H 0.93588 0.26062 0.20083
 H2584 H 0.91028 0.27858 0.18291
 H2585 H 0.97210 0.31171 0.23594
 H2586 H 0.92474 0.34863 0.19539
 C2587 C 0.93719 0.79584 0.72146
 C2588 C 0.92174 0.80553 0.71181
 C2589 C 0.92014 0.80433 0.69178
 C2590 C 0.93516 0.79393 0.68122
 C2591 C 0.95061 0.78362 0.69112
 C2592 C 0.95146 0.78451 0.71141
 C2593 C 0.96467 0.77259 0.68034
 N2594 N 0.96381 0.77271 0.66091
 N2595 N 0.94984 0.78307 0.65157
 C2596 C 0.93557 0.79373 0.66103
 H2597 H 0.93776 0.79674 0.73698
 H2598 H 0.91054 0.81348 0.72016
 H2599 H 0.97640 0.76397 0.68714
 H2600 H 0.92499 0.80223 0.65263
 C2601 C 0.55680 0.27885 0.30198
 C2602 C 0.57102 0.28883 0.31316
 C2603 C 0.57331 0.30964 0.31211
 C2604 C 0.55996 0.32061 0.30017
 C2605 C 0.54645 0.31029 0.28782
 C2606 C 0.54483 0.28922 0.28883
 C2607 C 0.53484 0.32146 0.27487
 N2608 N 0.53564 0.34169 0.27531
 N2609 N 0.54723 0.35143 0.28781
 C2610 C 0.55925 0.34163 0.30033
 H2611 H 0.55561 0.26275 0.30308
 H2612 H 0.58078 0.28001 0.32219
 H2613 H 0.52498 0.31433 0.26458
 H2614 H 0.56769 0.35039 0.31059
 C2615 C 0.56308 0.79509 0.78661
 C2616 C 0.57963 0.80385 0.79552
 C2617 C 0.59039 0.79378 0.80985
 C2618 C 0.58411 0.77424 0.81520
 C2619 C 0.56647 0.76587 0.80688
 C2620 C 0.55622 0.77623 0.79217
 C2621 C 0.55995 0.74698 0.81310
 N2622 N 0.57103 0.73669 0.82602
 N2623 N 0.58819 0.74397 0.83300
 C2624 C 0.59520 0.76224 0.82791
 H2625 H 0.55552 0.80308 0.77522
 H2626 H 0.58403 0.81872 0.79109
 H2627 H 0.54629 0.74023 0.80763
 H2628 H 0.60965 0.76679 0.83344
 C2629 C 0.05285 0.30708 0.78959
 C2630 C 0.06806 0.31639 0.80009
 C2631 C 0.08281 0.30522 0.80964
 C2632 C 0.08225 0.28402 0.80821
 C2633 C 0.06621 0.27455 0.79820
 C2634 C 0.05162 0.28624 0.78856
 C2635 C 0.06539 0.25355 0.79796
 N2636 N 0.08029 0.24282 0.80624
 N2637 N 0.09592 0.25166 0.81470
 C2638 C 0.09749 0.27182 0.81584
 H2639 H 0.04187 0.31621 0.78223
 H2640 H 0.06820 0.33255 0.80084
 H2641 H 0.05312 0.24556 0.79122
 H2642 H 0.11090 0.27798 0.82229
 C2643 C 0.06472 0.77543 0.30234
 C2644 C 0.07987 0.78526 0.31248
 C2645 C 0.08103 0.80619 0.31275
 C2646 C 0.06560 0.81733 0.30357
 C2647 C 0.05105 0.80731 0.29213
 C2648 C 0.05071 0.78614 0.29148
 C2649 C 0.03723 0.81890 0.28169
 N2650 N 0.03705 0.83902 0.28384
 N2651 N 0.04975 0.84831 0.29565
 C2652 C 0.06389 0.83818 0.30567
 H2653 H 0.06441 0.75925 0.30230
 H2654 H 0.09118 0.77633 0.31957
 H2655 H 0.02647 0.81218 0.27199
 H2656 H 0.07323 0.84649 0.31555
 C2657 C 0.55392 0.69564 0.70963
 C2658 C 0.57015 0.68709 0.69998
 C2659 C 0.58535 0.69900 0.69193
 C2660 C 0.58391 0.72015 0.69351
 C2661 C 0.56686 0.72880 0.70258
 C2662 C 0.55221 0.71639 0.71129
 C2663 C 0.56529 0.74974 0.70323
 N2664 N 0.58036 0.76123 0.69617
 N2665 N 0.59690 0.75318 0.68864
 C2666 C 0.59928 0.73311 0.68724
 H2667 H 0.54288 0.68600 0.71634
 H2668 H 0.57098 0.67096 0.69900
 H2669 H 0.55228 0.75706 0.70938
 H2670 H 0.61340 0.72768 0.68170
 C2671 C 0.56155 0.22110 0.19904
 C2672 C 0.57789 0.21206 0.19000
 C2673 C 0.59019 0.19843 0.19978
 C2674 C 0.58619 0.19458 0.21948
 C2675 C 0.56876 0.20280 0.22827
 C2676 C 0.55641 0.21621 0.21793
 C2677 C 0.56442 0.19761 0.24738
 N2678 N 0.57740 0.18603 0.25735
 N2679 N 0.59440 0.17935 0.24952
 C2680 C 0.59932 0.18336 0.23104
 H2681 H 0.55253 0.23169 0.19110
 H2682 H 0.58066 0.21551 0.17506
 H2683 H 0.55095 0.20282 0.25454
 H2684 H 0.61373 0.17823 0.22586
 C2685 C 0.05955 0.70013 0.21601
 C2686 C 0.07567 0.69150 0.20631
 C2687 C 0.08783 0.70278 0.19392
 C2688 C 0.08341 0.72339 0.19131
 C2689 C 0.06624 0.73183 0.20039
 C2690 C 0.05469 0.72022 0.21331
 C2691 C 0.06148 0.75190 0.19672
 N2692 N 0.07382 0.76311 0.18562
 N2693 N 0.09060 0.75560 0.17805
 C2694 C 0.09591 0.73625 0.18066
 H2695 H 0.05083 0.69108 0.22586
 H2696 H 0.07867 0.67579 0.20858
 H2697 H 0.04818 0.75882 0.20275
 H2698 H 0.11013 0.73144 0.17482
 C2699 C 0.06624 0.21005 0.72167
 C2700 C 0.08096 0.19934 0.71187
 C2701 C 0.08061 0.19750 0.69179
 C2702 C 0.06461 0.20667 0.68150
 C2703 C 0.05043 0.21880 0.69145
 C2704 C 0.05099 0.22004 0.71177
 C2705 C 0.03586 0.22907 0.68072
 N2706 N 0.03460 0.22615 0.66151
 N2707 N 0.04690 0.21365 0.65236
 C2708 C 0.06169 0.20369 0.66169
 H2709 H 0.06682 0.21066 0.73720
 H2710 H 0.09286 0.19255 0.72020
 H2711 H 0.02536 0.23926 0.68744
 H2712 H 0.07051 0.19313 0.65356
 C2713 C 0.43935 0.72235 0.30452
 C2714 C 0.42452 0.71207 0.31466
 C2715 C 0.41983 0.69211 0.31026
 C2716 C 0.43124 0.68214 0.29582
 C2717 C 0.44520 0.69309 0.28455
 C2718 C 0.44942 0.71329 0.28913
 C2719 C 0.45479 0.68330 0.26916
 N2720 N 0.45178 0.66349 0.26627
 N2721 N 0.43985 0.65287 0.27771
 C2722 C 0.42966 0.66145 0.29246
 H2723 H 0.44256 0.73774 0.30830
 H2724 H 0.41628 0.72009 0.32565
 H2725 H 0.46488 0.69113 0.25959
 H2726 H 0.42092 0.65186 0.30169
 C2727 C 0.43915 0.21828 0.80154
 C2728 C 0.42332 0.20829 0.81043
 C2729 C 0.41397 0.19177 0.80166
 C2730 C 0.42070 0.18557 0.78317
 C2731 C 0.43763 0.19506 0.77468
 C2732 C 0.44666 0.21174 0.78385
 C2733 C 0.44473 0.18787 0.75694
 N2734 N 0.43478 0.17294 0.74779
 N2735 N 0.41819 0.16483 0.75515
 C2736 C 0.41072 0.17073 0.77238
 H2737 H 0.44578 0.23115 0.80861
 H2738 H 0.41846 0.21347 0.82443
 H2739 H 0.45796 0.19413 0.75017
 H2740 H 0.39674 0.16416 0.77706
 C2741 C 0.93239 0.72519 0.79249
 C2742 C 0.91668 0.71617 0.80244
 C2743 C 0.91552 0.69534 0.80414
 C2744 C 0.93109 0.68341 0.79606
 C2745 C 0.94670 0.69260 0.78529
 C2746 C 0.94736 0.71368 0.78364
 C2747 C 0.96124 0.68033 0.77652
 N2748 N 0.96076 0.66031 0.77926
 N2749 N 0.94674 0.65177 0.79016
 C2750 C 0.93199 0.66260 0.79873
 H2751 H 0.93278 0.74133 0.79148
 H2752 H 0.90507 0.72561 0.80855
 H2753 H 0.97303 0.68643 0.76757
 H2754 H 0.92147 0.65484 0.80784
 C2755 C 0.93640 0.22512 0.30185
 C2756 C 0.92125 0.21513 0.31181
 C2757 C 0.91654 0.19517 0.30755
 C2758 C 0.92811 0.18481 0.29355
 C2759 C 0.94304 0.19520 0.28297
 C2760 C 0.94708 0.21553 0.28714
 C2761 C 0.95359 0.18481 0.26854
 N2762 N 0.95004 0.16510 0.26560
 N2763 N 0.93668 0.15510 0.27610
 C2764 C 0.92570 0.16422 0.29001
 H2765 H 0.93957 0.24059 0.30535
 H2766 H 0.91274 0.22326 0.32256
 H2767 H 0.96471 0.19212 0.25965
 H2768 H 0.91558 0.15513 0.29840
 C2769 C 0.29310 0.29998 0.55355
 C2770 C 0.30297 0.30928 0.56876
 C2771 C 0.31181 0.29809 0.58348
 C2772 C 0.31080 0.27685 0.58258
 C2773 C 0.30182 0.26745 0.56641
 C2774 C 0.29216 0.27915 0.55227
 C2775 C 0.30224 0.24648 0.56517
 N2776 N 0.30988 0.23563 0.57981
 N2777 N 0.31703 0.24436 0.59559
 C2778 C 0.31756 0.26451 0.59757
 H2779 H 0.28575 0.30912 0.54285
 H2780 H 0.30348 0.32545 0.56914
 H2781 H 0.29642 0.23862 0.55276
 H2782 H 0.32272 0.27047 0.61108
 C2783 C 0.29593 0.77799 0.06359
 C2784 C 0.30703 0.78772 0.07773
 C2785 C 0.30951 0.80855 0.07757
 C2786 C 0.30094 0.81964 0.06227
 C2787 C 0.28865 0.80980 0.04846
 C2788 C 0.28635 0.78874 0.04906
 C2789 C 0.27906 0.82144 0.03442
 N2790 N 0.28272 0.84133 0.03348
 N2791 N 0.29524 0.85035 0.04566
 C2792 C 0.30456 0.84020 0.05990
 H2793 H 0.29455 0.76187 0.06414
 H2794 H 0.31337 0.77879 0.08913
 H2795 H 0.26877 0.81493 0.02412
 H2796 H 0.31504 0.84827 0.06887
 C2797 C 0.78507 0.30293 0.05503
 C2798 C 0.79443 0.31220 0.07057
 C2799 C 0.80332 0.30094 0.08521
 C2800 C 0.80246 0.27973 0.08416
 C2801 C 0.79381 0.27035 0.06782
 C2802 C 0.78459 0.28209 0.05344
 C2803 C 0.79440 0.24938 0.06653
 N2804 N 0.80195 0.23854 0.08122
 N2805 N 0.80890 0.24725 0.09709
 C2806 C 0.80927 0.26740 0.09913
 H2807 H 0.77801 0.31209 0.04417
 H2808 H 0.79480 0.32837 0.07112
 H2809 H 0.78886 0.24150 0.05402
 H2810 H 0.81441 0.27341 0.11264
 C2811 C 0.78469 0.80140 0.55713
 C2812 C 0.79523 0.81120 0.57166
 C2813 C 0.81402 0.80420 0.57787
 C2814 C 0.82276 0.78747 0.56839
 C2815 C 0.81156 0.77696 0.55425
 C2816 C 0.79240 0.78405 0.54864
 C2817 C 0.82004 0.75971 0.54598
 N2818 N 0.83894 0.75406 0.55084
 N2819 N 0.84989 0.76450 0.56335
 C2820 C 0.84253 0.78105 0.57217
 H2821 H 0.77009 0.80703 0.55285
 H2822 H 0.78828 0.82399 0.57854
 H2823 H 0.81192 0.75080 0.53557
 H2824 H 0.85243 0.78924 0.58164
 C2825 C 0.30542 0.71180 0.44975
 C2826 C 0.31435 0.70188 0.43432
 C2827 C 0.30269 0.69420 0.41921
 C2828 C 0.28140 0.69658 0.41981
 C2829 C 0.27230 0.70568 0.43606
 C2830 C 0.28449 0.71400 0.45077
 C2831 C 0.25115 0.70670 0.43686
 N2832 N 0.23998 0.70029 0.42178
 N2833 N 0.24854 0.69296 0.40598
 C2834 C 0.26880 0.69105 0.40441
 H2835 H 0.31493 0.71816 0.46083
 H2836 H 0.33058 0.70033 0.43411
 H2837 H 0.24340 0.71268 0.44926
 H2838 H 0.27472 0.68574 0.39092
 C2839 C 0.27864 0.20044 0.93694
 C2840 C 0.28812 0.19021 0.92204
 C2841 C 0.30866 0.19306 0.91826
 C2842 C 0.32006 0.20590 0.93037
 C2843 C 0.31033 0.21643 0.94546
 C2844 C 0.28945 0.21373 0.94859
 C2845 C 0.32186 0.22943 0.95694
 N2846 N 0.34193 0.23124 0.95382
 N2847 N 0.35119 0.22094 0.94003
 C2848 C 0.34100 0.20829 0.92827
 H2849 H 0.26265 0.19823 0.93926
 H2850 H 0.27919 0.18038 0.91303
 H2851 H 0.31514 0.23807 0.96842
 H2852 H 0.34946 0.20004 0.91765
 C2853 C 0.78330 0.69608 0.94359
 C2854 C 0.79389 0.68668 0.92885
 C2855 C 0.81270 0.69391 0.92277
 C2856 C 0.82134 0.71050 0.93259
 C2857 C 0.80999 0.72075 0.94680
 C2858 C 0.79087 0.71336 0.95235
 C2859 C 0.81829 0.73805 0.95519
 N2860 N 0.83722 0.74387 0.95054
 N2861 N 0.84837 0.73357 0.93810
 C2862 C 0.84117 0.71704 0.92910
 H2863 H 0.76874 0.69022 0.94779
 H2864 H 0.78695 0.67401 0.92176
 H2865 H 0.81000 0.74686 0.96557
 H2866 H 0.85124 0.70894 0.91974
 C2867 C 0.78800 0.19358 0.45003
 C2868 C 0.79788 0.18445 0.43471
 C2869 C 0.80891 0.19575 0.42143
 C2870 C 0.81016 0.21681 0.42384
 C2871 C 0.80044 0.22599 0.43971
 C2872 C 0.78890 0.21428 0.45255
 C2873 C 0.80216 0.24681 0.44202
 N2874 N 0.81235 0.25774 0.42888
 N2875 N 0.82084 0.24926 0.41358
 C2876 C 0.81999 0.22926 0.41053
 H2877 H 0.77909 0.18450 0.45968
 H2878 H 0.79664 0.16840 0.43301
 H2879 H 0.79544 0.25450 0.45411
 H2880 H 0.82672 0.22349 0.39757
 C2881 C 0.69267 0.28417 0.44678
 C2882 C 0.68334 0.29341 0.43126
 C2883 C 0.69472 0.30232 0.41663
 C2884 C 0.71611 0.30149 0.41762
 C2885 C 0.72553 0.29315 0.43400
 C2886 C 0.71368 0.28393 0.44840
 C2887 C 0.74667 0.29403 0.43530
 N2888 N 0.75763 0.30137 0.42052
 N2889 N 0.74890 0.30787 0.40456
 C2890 C 0.72860 0.30802 0.40253
 H2891 H 0.68342 0.27711 0.45763
 H2892 H 0.66705 0.29372 0.43076
 H2893 H 0.75459 0.28884 0.44787
 H2894 H 0.72258 0.31274 0.38892
 C2895 C 0.69958 0.79061 0.94954
 C2896 C 0.69030 0.80042 0.93437
 C2897 C 0.70164 0.80863 0.91933
 C2898 C 0.72301 0.80682 0.91978
 C2899 C 0.73245 0.79811 0.93597
 C2900 C 0.72057 0.78921 0.95053
 C2901 C 0.75361 0.79809 0.93685
 N2902 N 0.76455 0.80486 0.92180
 N2903 N 0.75573 0.81156 0.90595
 C2904 C 0.73542 0.81257 0.90434
 H2905 H 0.69029 0.78386 0.96054
 H2906 H 0.67403 0.80148 0.93435
 H2907 H 0.76156 0.79261 0.94929
 H2908 H 0.72935 0.81724 0.89076
 C2909 C 0.20450 0.27864 0.93593
 C2910 C 0.19378 0.28869 0.92179
 C2911 C 0.19548 0.30945 0.91975
 C2912 C 0.20778 0.32036 0.93279
 C2913 C 0.21910 0.31002 0.94686
 C2914 C 0.21734 0.28901 0.94842
 C2915 C 0.23183 0.32112 0.95902
 N2916 N 0.23244 0.34130 0.95770
 N2917 N 0.22119 0.35109 0.94507
 C2918 C 0.20883 0.34136 0.93267
 H2919 H 0.20290 0.26258 0.93708
 H2920 H 0.18441 0.28010 0.91206
 H2921 H 0.24124 0.31396 0.96961
 H2922 H 0.19969 0.35022 0.92317
 C2923 C 0.20143 0.78702 0.44271
 C2924 C 0.19170 0.79597 0.42734
 C2925 C 0.20039 0.81218 0.41764
 C2926 C 0.21959 0.81934 0.42370
 C2927 C 0.22887 0.81090 0.44011
 C2928 C 0.21988 0.79435 0.44934
 C2929 C 0.24730 0.81890 0.44647
 N2930 N 0.25638 0.83363 0.43638
 N2931 N 0.24832 0.84077 0.42034
 C2932 C 0.23040 0.83401 0.41356
 H2933 H 0.19449 0.77422 0.44954
 H2934 H 0.17717 0.79013 0.42300
 H2935 H 0.25465 0.81339 0.45923
 H2936 H 0.22526 0.83980 0.40003
 C2937 C 0.72617 0.69877 0.56290
 C2938 C 0.71520 0.68856 0.57681
 C2939 C 0.69424 0.69072 0.57815
 C2940 C 0.68408 0.70288 0.56463
 C2941 C 0.69532 0.71366 0.55081
 C2942 C 0.71653 0.71155 0.55001
 C2943 C 0.68491 0.72628 0.53814
 N2944 N 0.66454 0.72729 0.53882
 N2945 N 0.65391 0.71655 0.55129
 C2946 C 0.66294 0.70435 0.56413
 H2947 H 0.74236 0.69687 0.56229
 H2948 H 0.72323 0.67932 0.58696
 H2949 H 0.69273 0.73532 0.52769
 H2950 H 0.65345 0.69567 0.57354
 C2951 C 0.71928 0.19856 0.05923
 C2952 C 0.70906 0.18816 0.07350
 C2953 C 0.68819 0.19021 0.07579
 C2954 C 0.67729 0.20223 0.06269
 C2955 C 0.68776 0.21297 0.04827
 C2956 C 0.70894 0.21125 0.04676
 C2957 C 0.67664 0.22527 0.03589
 N2958 N 0.65632 0.22618 0.03751
 N2959 N 0.64641 0.21565 0.05066
 C2960 C 0.65616 0.20367 0.06324
 H2961 H 0.73549 0.19707 0.05814
 H2962 H 0.71765 0.17900 0.08330
 H2963 H 0.68389 0.23409 0.02490
 H2964 H 0.64725 0.19519 0.07330
 C2965 C 0.19621 0.71005 0.05137
 C2966 C 0.18687 0.70001 0.06641
 C2967 C 0.19820 0.69094 0.08094
 C2968 C 0.21958 0.69206 0.08016
 C2969 C 0.22905 0.70162 0.06439
 C2970 C 0.21721 0.71116 0.05024
 C2971 C 0.25022 0.70163 0.06344
 N2972 N 0.26112 0.69359 0.07789
 N2973 N 0.25230 0.68562 0.09320
 C2974 C 0.23197 0.68472 0.09492
 H2975 H 0.18698 0.71730 0.04066
 H2976 H 0.17057 0.69944 0.06676
 H2977 H 0.25819 0.70800 0.05139
 H2978 H 0.22589 0.67869 0.10801
 C2979 C 0.19756 0.21852 0.56170
 C2980 C 0.18827 0.20856 0.57681
 C2981 C 0.19502 0.18973 0.58281
 C2982 C 0.21102 0.18044 0.57253
 C2983 C 0.22122 0.19115 0.55789
 C2984 C 0.21431 0.21029 0.55243
 C2985 C 0.23799 0.18222 0.54900
 N2986 N 0.24330 0.16331 0.55360
 N2987 N 0.23298 0.15277 0.56645
 C2988 C 0.21697 0.16060 0.57593
 H2989 H 0.19208 0.23313 0.55761
 H2990 H 0.17604 0.21599 0.58422
 H2991 H 0.24674 0.18999 0.53827
 H2992 H 0.20878 0.15099 0.58557
   
