data_POSCAR
  _audit_creation_date              2014-09-24
  _audit_creation_method            'ToBaCCo'
  _symmetry_space_group_name_H-M    'P1'
  _symmetry_Int_Tables_number       1
  _symmetry_cell_setting            triclinic
  loop_
  _symmetry_equiv_pos_as_xyz
 x,y,z
_cell_length_a 31.2960
_cell_length_b 31.8296
_cell_length_c 40.6058
_cell_angle_alpha 89.992100
_cell_angle_beta 89.911500
_cell_angle_gamma 90.091700
loop_
  _atom_site_label
  _atom_site_type_symbol
  _atom_site_fract_x
  _atom_site_fract_y
  _atom_site_fract_z
B1 B 0.25706 0.22754 0.21705
 B2 B 0.27479 0.27594 0.22750
 B3 B 0.22261 0.26800 0.21859
 B4 B 0.20781 0.22035 0.23355
 B5 B 0.25173 0.19941 0.25180
 B6 B 0.29332 0.23350 0.24756
 B7 B 0.23131 0.27171 0.28470
 B8 B 0.21463 0.22328 0.27504
 B9 B 0.26650 0.23105 0.28308
 B10 B 0.28096 0.27863 0.26860
 B11 B 0.23706 0.29983 0.25030
 B12 B 0.19550 0.26509 0.25405
 B13 B 0.72719 0.76964 0.21412
 B14 B 0.71247 0.72029 0.22499
 B15 B 0.76338 0.73060 0.21375
 B16 B 0.77714 0.77874 0.22827
 B17 B 0.73375 0.79759 0.24892
 B18 B 0.69337 0.76163 0.24621
 B19 B 0.76012 0.72602 0.28012
 B20 B 0.77388 0.77509 0.26990
 B21 B 0.72300 0.76495 0.28053
 B22 B 0.70957 0.71694 0.26640
 B23 B 0.75293 0.69812 0.24604
 B24 B 0.79294 0.73449 0.24765
 B25 B 0.73404 0.22989 -0.28207
 B26 B 0.78562 0.21920 -0.27521
 B27 B 0.77177 0.26844 -0.28525
 B28 B 0.72327 0.27863 -0.26813
 B29 B 0.70893 0.23483 -0.24603
 B30 B 0.74808 0.19825 -0.25059
 B31 B 0.78281 0.26577 -0.21930
 B32 B 0.73090 0.27656 -0.22712
 B33 B 0.74590 0.22748 -0.21625
 B34 B 0.79398 0.21691 -0.23377
 B35 B 0.80824 0.26031 -0.25533
 B36 B 0.76914 0.29758 -0.25116
 B37 B 0.27787 0.76418 -0.27989
 B38 B 0.22646 0.77429 -0.27127
 B39 B 0.24115 0.72484 -0.27903
 B40 B 0.29088 0.71734 -0.26344
 B41 B 0.30556 0.76345 -0.24457
 B42 B 0.26518 0.79868 -0.24996
 B43 B 0.23402 0.73348 -0.21319
 B44 B 0.28560 0.72318 -0.22240
 B45 B 0.26991 0.77292 -0.21393
 B46 B 0.22082 0.78053 -0.23000
 B47 B 0.20651 0.73501 -0.24815
 B48 B 0.24666 0.69915 -0.24374
 B49 B 1.22539 1.27695 0.71991
 B50 B 1.20596 1.22835 0.72648
 B51 B 1.25680 1.23422 0.71409
 B52 B 1.27732 1.27814 0.73178
 B53 B 1.23819 1.29860 0.75603
 B54 B 1.19366 1.26760 0.75281
 B55 B 1.25748 1.21989 0.77953
 B56 B 1.27700 1.26839 0.77289
 B57 B 1.22604 1.26283 0.78535
 B58 B 1.20549 1.21880 0.76764
 B59 B 1.24470 1.19842 0.74337
 B60 B 1.28912 1.22961 0.74647
 B61 B 0.76418 0.73157 0.77977
 B62 B 0.71233 0.72275 0.77219
 B63 B 0.72805 0.77126 0.78273
 B64 B 0.77702 0.78005 0.76610
 B65 B 0.79002 0.73603 0.74388
 B66 B 0.74952 0.70074 0.74789
 B67 B 0.71758 0.77004 0.71668
 B68 B 0.76989 0.77886 0.72500
 B69 B 0.75317 0.73037 0.71362
 B70 B 0.70456 0.72132 0.73072
 B71 B 0.69173 0.76472 0.75263
 B72 B 0.73215 0.80084 0.74887
 B73 B 1.23615 0.73084 0.21928
 B74 B 1.28782 0.71999 0.22598
 B75 B 1.27408 0.76919 0.21581
 B76 B 1.22583 0.77982 0.23314
 B77 B 1.21142 0.73632 0.25555
 B78 B 1.25030 0.69943 0.25090
 B79 B 1.28594 0.76714 0.28173
 B80 B 1.23398 0.77815 0.27418
 B81 B 1.24872 0.72897 0.28521
 B82 B 1.29654 0.71799 0.26741
 B83 B 1.31076 0.76104 0.24550
 B84 B 1.27204 0.79865 0.24977
 B85 B 0.77165 1.27515 0.28545
 B86 B 0.78780 1.22608 0.27666
 B87 B 0.73727 1.23435 0.28880
 B88 B 0.72023 1.28070 0.27288
 B89 B 0.76145 1.30044 0.25032
 B90 B 0.80368 1.26650 0.25265
 B91 B 0.73742 1.22517 0.22295
 B92 B 0.72129 1.27410 0.23142
 B93 B 0.77203 1.26637 0.21955
 B94 B 0.78884 1.21987 0.23522
 B95 B 0.74763 1.20005 0.25800
 B96 B 0.70563 1.23408 0.25593
 O97 O 0.45300 1.08771 0.02625
 O98 O 0.54776 0.92871 0.02175
 O99 O 0.41732 0.95928 0.02082
 O100 O 0.58323 1.05707 0.01961
 O101 O 0.47603 0.93696 0.03925
 O102 O 0.52630 1.08015 0.04070
 O103 O 0.57448 0.98558 0.04010
 O104 O 0.42800 1.02880 0.04233
 C105 C 0.43145 1.06713 0.04667
 C106 C 0.56953 0.94707 0.04305
 C107 C 0.43689 0.93976 0.04250
 C108 C 0.56544 1.07542 0.04271
 O109 O 0.54781 1.08842 -0.02469
 O110 O 0.45106 0.93088 -0.02499
 O111 O 0.41713 1.05927 -0.01861
 O112 O 0.58191 0.95956 -0.02274
 O113 O 0.52338 0.93816 -0.04245
 O114 O 0.47441 1.08161 -0.03966
 O115 O 0.57344 1.03040 -0.04213
 O116 O 0.42566 0.98922 -0.04118
 Co117 Co 0.50031 1.07718 0.00052
 Co118 Co 0.49956 0.94101 -0.00151
 Co119 Co 0.43015 1.00906 0.00063
 Co120 Co 0.57019 1.00818 -0.00110
 O121 O 0.50008 1.00888 -0.00039
 C122 C 0.56976 1.06890 -0.04544
 C123 C 0.42950 0.95090 -0.04542
 C124 C 0.43514 1.07802 -0.04149
 C125 C 0.56266 0.94125 -0.04520
 O126 O 0.95540 0.58779 0.52831
 O127 O 1.04852 0.43444 0.52791
 O128 O 0.91765 0.45928 0.52022
 O129 O 1.08496 0.56277 0.51516
 O130 O 0.97554 0.43930 0.54076
 O131 O 1.02906 0.58205 0.53907
 O132 O 1.07815 0.49355 0.54013
 O133 O 0.92951 0.52894 0.54426
 C134 C 0.93355 0.56726 0.54872
 C135 C 1.07201 0.45592 0.54663
 C136 C 0.93624 0.44021 0.54248
 C137 C 1.06840 0.57982 0.53923
 O138 O 1.04524 0.58815 0.47151
 O139 O 0.95523 0.43307 0.47410
 O140 O 0.91603 0.56094 0.48438
 O141 O 1.08527 0.46047 0.48132
 O142 O 1.02816 0.43844 0.46084
 O143 O 0.97243 0.58049 0.46118
 O144 O 1.07295 0.52983 0.45595
 O145 O 0.92536 0.49144 0.46064
 Co146 Co 1.00060 0.57792 0.50010
 Co147 Co 1.00182 0.44305 0.50084
 Co148 Co 0.93078 0.51028 0.50226
 Co149 Co 1.07192 0.51159 0.49825
 O150 O 1.00129 0.51064 0.50037
 C151 C 1.06765 0.56803 0.45121
 C152 C 0.93174 0.45371 0.45490
 C153 C 0.93314 0.57866 0.46070
 C154 C 1.06740 0.44087 0.45905
 O155 O 1.03154 0.45807 0.06057
 O156 O 1.03773 0.54695 -0.05878
 O157 O 1.02171 0.41945 -0.03965
 O158 O 1.01962 0.58603 0.04067
 O159 O 1.05243 0.47488 -0.05423
 O160 O 1.04692 0.52951 0.05656
 O161 O 1.05465 0.57593 -0.01291
 O162 O 1.05229 0.42908 0.01555
 C163 C 1.05812 0.43572 0.04539
 C164 C 1.06321 0.56897 -0.04228
 C165 C 1.05225 0.43614 -0.05379
 C166 C 1.04805 0.56817 0.05651
 O167 O 0.96004 0.54732 0.05843
 O168 O 0.96526 0.45844 -0.06087
 O169 O 0.97430 0.41956 0.03937
 O170 O 0.97861 0.58614 -0.04115
 O171 O 0.95067 0.52982 -0.05694
 O172 O 0.94463 0.47544 0.05395
 O173 O 0.94362 0.57644 0.01247
 O174 O 0.94380 0.42957 -0.01594
 Co175 Co 0.99599 0.50261 0.05225
 Co176 Co 1.00133 0.50255 -0.05257
 Co177 Co 0.99808 0.43298 -0.00016
 Co178 Co 0.99908 0.57259 -0.00023
 O179 O 0.99861 0.50270 -0.00017
 C180 C 0.93485 0.56945 0.04180
 C181 C 0.93820 0.43650 -0.04578
 C182 C 0.94429 0.43672 0.05378
 C183 C 0.94983 0.56847 -0.05682
 O184 O 0.52274 0.96903 0.56356
 O185 O 0.56762 1.03250 0.45838
 O186 O 0.52188 0.90126 0.47488
 O187 O 0.54039 1.08504 0.53041
 O188 O 0.55477 0.95837 0.46007
 O189 O 0.51076 1.04539 0.56872
 O190 O 0.53496 1.08928 0.46878
 O191 O 0.55454 0.94528 0.51977
 C192 C 0.55424 0.95035 0.55042
 C193 C 0.56735 1.07138 0.45836
 C194 C 0.54893 0.91931 0.45517
 C195 C 0.53732 1.07371 0.55987
 O196 O 0.42853 1.03281 0.54559
 O197 O 0.47430 0.97032 0.43712
 O198 O 0.48264 0.91215 0.53223
 O199 O 0.45349 1.08276 0.47290
 O200 O 0.48595 1.04622 0.43437
 O201 O 0.43985 0.96103 0.54061
 O202 O 0.45980 1.08992 0.53421
 O203 O 0.45028 0.93924 0.47981
 Co204 Co 0.47728 1.00241 0.55068
 Co205 Co 0.51862 1.00250 0.45199
 Co206 Co 0.50270 0.94548 0.49868
 Co207 Co 0.49713 1.07897 0.50150
 O208 O 0.49738 1.00960 0.50204
 C209 C 0.42855 1.07159 0.54597
 C210 C 0.44704 0.94656 0.44989
 C211 C 0.44929 0.92378 0.54580
 C212 C 0.45765 1.07260 0.44333
 O213 O 1.07492 1.04529 0.48231
 O214 O 0.92507 1.03848 0.51729
 O215 O 0.99064 1.04278 0.44137
 O216 O 1.01017 1.04379 0.55806
 O217 O 0.92807 1.02601 0.45992
 O218 O 1.07358 1.03249 0.53902
 O219 O 0.94196 1.00631 0.55961
 O220 O 1.06209 1.01167 0.43995
 C221 C 1.07439 1.04478 0.45198
 C222 C 0.92619 1.03797 0.54766
 C223 C 0.95171 1.04973 0.44281
 C224 C 1.04823 1.05429 0.55619
 O225 O 1.07475 0.94430 0.52600
 O226 O 0.93360 0.93847 0.47237
 O227 O 1.02918 0.93658 0.44557
 O228 O 0.98077 0.93446 0.55409
 O229 O 0.92255 0.94990 0.52803
 O230 O 1.08601 0.95687 0.47107
 O231 O 1.04810 0.97319 0.56667
 O232 O 0.95954 0.96922 0.43204
 Co233 Co 1.07089 0.99451 0.50421
 Co234 Co 0.93389 0.98857 0.49484
 Co235 Co 1.00962 0.98993 0.44589
 Co236 Co 0.99612 0.98935 0.55353
 O237 O 1.00261 0.99086 0.49962
 C238 C 1.06826 0.94349 0.55579
 C239 C 0.94072 0.93837 0.44259
 C240 C 1.06765 0.93125 0.45191
 C241 C 0.94269 0.92625 0.54769
 O242 O 0.57533 0.54089 -0.02177
 O243 O 0.42706 0.53822 0.01891
 O244 O 0.48690 0.54187 -0.05847
 O245 O 0.51608 0.54551 0.05575
 O246 O 0.42609 0.52440 -0.03723
 O247 O 0.57718 0.52955 0.03442
 O248 O 0.44666 0.50825 0.06139
 O249 O 0.55768 0.50798 -0.06339
 C250 C 0.57233 0.54045 -0.05199
 C251 C 0.43007 0.53922 0.04916
 C252 C 0.44820 0.54923 -0.05448
 C253 C 0.55466 0.55384 0.05178
 O254 O 0.57525 0.44096 0.02427
 O255 O 0.43184 0.43654 -0.02476
 O256 O 0.52369 0.43422 -0.05614
 O257 O 0.48372 0.43610 0.05635
 O258 O 0.42450 0.45037 0.03147
 O259 O 0.58224 0.45262 -0.03207
 O260 O 0.55242 0.47341 0.06465
 O261 O 0.45356 0.46806 -0.06604
 Co262 Co 0.57108 0.49080 0.00104
 Co263 Co 0.43386 0.48747 -0.00274
 Co264 Co 0.50517 0.48812 -0.05488
 Co265 Co 0.50000 0.49067 0.05343
 O266 O 0.50252 0.48927 -0.00079
 C267 C 0.56962 0.44163 0.05431
 C268 C 0.43702 0.43626 -0.05488
 C269 C 0.56225 0.42767 -0.05065
 C270 C 0.44555 0.42748 0.05094
 C271 C 0.31929 1.15390 0.13826
 C272 C 0.31704 1.19816 0.13558
 C273 C 0.29254 1.22142 0.15816
 C274 C 0.27238 1.20170 0.18498
 C275 C 0.27160 1.15744 0.18552
 C276 C 0.29451 1.13392 0.16256
 C277 C 0.34856 1.13039 0.11548
 C278 C 0.35415 1.08643 0.11690
 C279 C 0.38190 1.06606 0.09517
 C280 C 0.40516 1.08894 0.07170
 C281 C 0.40044 1.13282 0.07051
 C282 C 0.37228 1.15358 0.09199
 C283 C 0.34060 1.21911 0.11123
 C284 C 0.36766 1.19731 0.08994
 H285 H 0.33883 1.25301 0.10905
 H286 H 0.38563 1.21505 0.07181
 H287 H 0.29061 1.25502 0.15522
 H288 H 0.25480 1.14047 0.20468
 H289 H 0.38481 1.03219 0.09652
 H290 H 0.41799 1.15086 0.05230
 H291 H 0.29350 1.10021 0.16507
 H292 H 0.33728 1.06711 0.13445
 C293 C 0.81770 0.65656 0.63617
 C294 C 0.81823 0.70094 0.63452
 C295 C 0.79281 0.72473 0.65613
 C296 C 0.76849 0.70535 0.68100
 C297 C 0.76471 0.66121 0.68000
 C298 C 0.78883 0.63720 0.65801
 C299 C 0.84832 0.63231 0.61490
 C300 C 0.85187 0.58812 0.61586
 C301 C 0.88071 0.56708 0.59532
 C302 C 0.90707 0.58948 0.57353
 C303 C 0.90464 0.63357 0.57314
 C304 C 0.87551 0.65501 0.59342
 C305 C 0.84541 0.72143 0.61225
 C306 C 0.87335 0.69896 0.59211
 H307 H 0.84568 0.75544 0.61078
 H308 H 0.89401 0.71636 0.57554
 H309 H 0.79348 0.75836 0.65395
 H310 H 0.74481 0.64463 0.69755
 H311 H 0.88176 0.53307 0.59605
 H312 H 0.92466 0.65133 0.55632
 H313 H 0.78550 0.60352 0.65939
 H314 H 0.83249 0.56919 0.63208
 C315 C 0.66705 0.84333 0.13379
 C316 C 0.68864 0.86382 0.15967
 C317 C 0.70978 0.84014 0.18375
 C318 C 0.71008 0.79577 0.18278
 C319 C 0.69257 0.77602 0.15501
 C320 C 0.67095 0.79930 0.13101
 C321 C 0.64127 0.86962 0.11046
 C322 C 0.61442 0.85186 0.08652
 C323 C 0.59071 0.87739 0.06554
 C324 C 0.59315 0.92146 0.06752
 C325 C 0.61915 0.93962 0.09178
 C326 C 0.64263 0.91401 0.11355
 C327 C 0.68856 0.90783 0.16168
 C328 C 0.66671 0.93239 0.13876
 H329 H 0.70567 0.92357 0.18132
 H330 H 0.66779 0.96627 0.14135
 H331 H 0.72509 0.85680 0.20378
 H332 H 0.69513 0.74247 0.15175
 H333 H 0.57067 0.86228 0.04731
 H334 H 0.62094 0.97355 0.09383
 H335 H 0.65745 0.78225 0.11054
 H336 H 0.61089 0.81832 0.08383
 C337 C 1.16518 0.36121 0.64542
 C338 C 1.14044 0.33450 0.66564
 C339 C 1.16010 0.30961 0.68950
 C340 C 1.20493 0.30764 0.69254
 C341 C 1.22975 0.33324 0.67179
 C342 C 1.21017 0.36002 0.64871
 C343 C 1.14203 0.38830 0.62083
 C344 C 1.16231 0.41974 0.60192
 C345 C 1.13911 0.44322 0.57881
 C346 C 1.09553 0.43517 0.57356
 C347 C 1.07495 0.40486 0.59278
 C348 C 1.09741 0.38232 0.61683
 C349 C 1.09611 0.33160 0.66146
 C350 C 1.07524 0.35417 0.63703
 H351 H 1.07734 0.31064 0.67680
 H352 H 1.04104 0.34999 0.63424
 H353 H 1.13984 0.29030 0.70499
 H354 H 1.26427 0.33270 0.67346
 H355 H 1.15557 0.46666 0.56415
 H356 H 1.04118 0.39908 0.58912
 H357 H 1.23062 0.37898 0.63325
 H358 H 1.19591 0.42656 0.60474
 C359 C 0.68095 1.16135 -0.13450
 C360 C 0.70214 1.13826 -0.15928
 C361 C 0.72637 1.15931 -0.18330
 C362 C 0.72978 1.20354 -0.18342
 C363 C 0.71305 1.22544 -0.15628
 C364 C 0.68870 1.20486 -0.13232
 C365 C 0.65124 1.13834 -0.11174
 C366 C 0.62448 1.15915 -0.08917
 C367 C 0.59716 1.13645 -0.06859
 C368 C 0.59582 1.09236 -0.06980
 C369 C 0.62153 1.07133 -0.09284
 C370 C 0.64866 1.09399 -0.11408
 C371 C 0.69814 1.09441 -0.16047
 C372 C 0.67261 1.07269 -0.13797
 H373 H 0.71488 1.07658 -0.17920
 H374 H 0.67066 1.03877 -0.13989
 H375 H 0.74083 1.14097 -0.20280
 H376 H 0.71782 1.25879 -0.15360
 H377 H 0.57754 1.15358 -0.05120
 H378 H 0.62049 1.03731 -0.09424
 H379 H 0.67577 1.22363 -0.11257
 H380 H 0.62394 1.19295 -0.08719
 C381 C 1.18116 0.66163 0.36483
 C382 C 1.20511 0.63889 0.34140
 C383 C 1.23058 0.66045 0.31838
 C384 C 1.23257 0.70481 0.31804
 C385 C 1.21345 0.72633 0.34441
 C386 C 1.18776 0.70527 0.36727
 C387 C 1.15008 0.63812 0.38612
 C388 C 1.12032 0.65855 0.40654
 C389 C 1.09228 0.63546 0.42623
 C390 C 1.09318 0.59131 0.42634
 C391 C 1.12152 0.57056 0.40498
 C392 C 1.14938 0.59367 0.38451
 C393 C 1.20260 0.59490 0.34057
 C394 C 1.17608 0.57273 0.36218
 H395 H 1.22145 0.57730 0.32293
 H396 H 1.17556 0.53873 0.36072
 H397 H 1.24700 0.64240 0.29963
 H398 H 1.21717 0.75974 0.34728
 H399 H 1.07056 0.65244 0.44217
 H400 H 1.12224 0.53651 0.40453
 H401 H 1.17289 0.72377 0.38637
 H402 H 1.11811 0.69236 0.40755
 C403 C 0.32655 0.85409 -0.13704
 C404 C 0.32810 0.80981 -0.13368
 C405 C 0.30629 0.78391 -0.15606
 C406 C 0.28491 0.80112 -0.18320
 C407 C 0.28083 0.84518 -0.18482
 C408 C 0.30117 0.87123 -0.16215
 C409 C 0.35268 0.88063 -0.11410
 C410 C 0.35407 0.92500 -0.11568
 C411 C 0.37945 0.94811 -0.09382
 C412 C 0.40432 0.92752 -0.07018
 C413 C 0.40340 0.88341 -0.06873
 C414 C 0.37774 0.85999 -0.09014
 C415 C 0.35264 0.79154 -0.10875
 C416 C 0.37707 0.81609 -0.08753
 H417 H 0.35378 0.75767 -0.10608
 H418 H 0.39609 0.80041 -0.06895
 H419 H 0.30694 0.75038 -0.15244
 H420 H 0.26303 0.86010 -0.20442
 H421 H 0.37946 0.98210 -0.09530
 H422 H 0.42226 0.86701 -0.05041
 H423 H 0.29763 0.90466 -0.16540
 H424 H 0.33573 0.94247 -0.13346
 C425 C 0.83505 0.35551 0.36054
 C426 C 0.85801 0.32450 0.34313
 C427 C 0.83738 0.29973 0.31967
 C428 C 0.79297 0.30244 0.31443
 C429 C 0.76971 0.33195 0.33284
 C430 C 0.79047 0.35840 0.35548
 C431 C 0.85948 0.38323 0.38385
 C432 C 0.84148 0.41868 0.39933
 C433 C 0.86567 0.44291 0.42128
 C434 C 0.90795 0.43180 0.42872
 C435 C 0.92646 0.39740 0.41279
 C436 C 0.90305 0.37382 0.38990
 C437 C 0.90150 0.31789 0.34930
 C438 C 0.92326 0.34129 0.37282
 H439 H 0.91883 0.29362 0.33617
 H440 H 0.95668 0.33439 0.37720
 H441 H 0.85653 0.27796 0.30549
 H442 H 0.73562 0.33531 0.32926
 H443 H 0.85081 0.46949 0.43338
 H444 H 0.95932 0.38911 0.41814
 H445 H 0.77121 0.38071 0.36889
 H446 H 0.80893 0.42812 0.39471
 C447 C 1.15923 0.33694 0.13626
 C448 C 1.16090 0.35328 0.16859
 C449 C 1.17857 0.32969 0.19410
 C450 C 1.19797 0.29045 0.18840
 C451 C 1.19571 0.27370 0.15642
 C452 C 1.17658 0.29657 0.13064
 C453 C 1.13814 0.36337 0.11004
 C454 C 1.13146 0.34972 0.07731
 C455 C 1.10792 0.37439 0.05502
 C456 C 1.09105 0.41331 0.06484
 C457 C 1.10029 0.42821 0.09648
 C458 C 1.12259 0.40353 0.11913
 C459 C 1.14542 0.39349 0.17560
 C460 C 1.12718 0.41826 0.15134
 H461 H 1.14737 0.40609 0.20036
 H462 H 1.11532 0.44904 0.15817
 H463 H 1.17839 0.34322 0.21857
 H464 H 1.20850 0.24294 0.15117
 H465 H 1.10102 0.36205 0.03075
 H466 H 1.08763 0.45833 0.10429
 H467 H 1.17590 0.28238 0.10651
 H468 H 1.14268 0.31947 0.06900
 C469 C 0.65044 0.85013 0.64297
 C470 C 0.67647 0.81694 0.63140
 C471 C 0.69678 0.78953 0.65417
 C472 C 0.69061 0.79456 0.68841
 C473 C 0.66169 0.82592 0.69882
 C474 C 0.64220 0.85300 0.67677
 C475 C 0.63069 0.87983 0.61873
 C476 C 0.60832 0.91603 0.62862
 C477 C 0.58626 0.94027 0.60579
 C478 C 0.58624 0.92983 0.57224
 C479 C 0.61185 0.89591 0.56161
 C480 C 0.63436 0.87102 0.58475
 C481 C 0.68125 0.81131 0.59727
 C482 C 0.65982 0.83706 0.57451
 H483 H 0.70089 0.78592 0.58800
 H484 H 0.66344 0.83040 0.54849
 H485 H 0.71743 0.76495 0.64517
 H486 H 0.65463 0.83104 0.72460
 H487 H 0.56738 0.96631 0.61480
 H488 H 0.61255 0.88762 0.53573
 H489 H 0.62057 0.87596 0.68689
 H490 H 0.60669 0.92582 0.65401
 C491 C 1.16955 0.66637 -0.13016
 C492 C 1.16970 0.65077 -0.16269
 C493 C 1.18663 0.67467 -0.18823
 C494 C 1.20864 0.71262 -0.18247
 C495 C 1.20897 0.72834 -0.15011
 C496 C 1.18923 0.70574 -0.12426
 C497 C 1.14788 0.64002 -0.10411
 C498 C 1.13955 0.65414 -0.07173
 C499 C 1.11453 0.62983 -0.05001
 C500 C 1.09827 0.59066 -0.06001
 C501 C 1.10975 0.57508 -0.09097
 C502 C 1.13258 0.59974 -0.11330
 C503 C 1.15401 0.61067 -0.16990
 C504 C 1.13697 0.58525 -0.14556
 H505 H 1.15523 0.59851 -0.19483
 H506 H 1.12514 0.55446 -0.15249
 H507 H 1.18429 0.66182 -0.21285
 H508 H 1.22430 0.75792 -0.14464
 H509 H 1.10587 0.64268 -0.02623
 H510 H 1.09760 0.54475 -0.09887
 H511 H 1.19033 0.71896 -0.09978
 H512 H 1.15012 0.68472 -0.06355
 C513 C 0.67717 1.17174 0.37507
 C514 C 0.70459 1.14950 0.35371
 C515 C 0.72476 1.17032 0.32771
 C516 C 0.71820 1.21352 0.32178
 C517 C 0.69220 1.23597 0.34369
 C518 C 0.67198 1.21544 0.37007
 C519 C 0.65300 1.14703 0.40057
 C520 C 0.62390 1.16568 0.42253
 C521 C 0.59823 1.14085 0.44284
 C522 C 0.60088 1.09675 0.44194
 C523 C 0.63217 1.07797 0.42217
 C524 C 0.65802 1.10271 0.40144
 C525 C 0.71042 1.10610 0.35733
 C526 C 0.68742 1.08316 0.38054
 H527 H 0.73198 1.08928 0.34112
 H528 H 0.69185 1.04941 0.38149
 H529 H 0.74498 1.15204 0.31150
 H530 H 0.68648 1.26916 0.33995
 H531 H 0.57483 1.15630 0.45832
 H532 H 0.63475 1.04401 0.42147
 H533 H 0.65151 1.23409 0.38565
 H534 H 0.61947 1.19925 0.42365
 C535 C 0.82645 0.66411 0.12973
 C536 C 0.82220 0.64573 0.16120
 C537 C 0.80464 0.66846 0.18714
 C538 C 0.78671 0.70860 0.18263
 C539 C 0.79063 0.72714 0.15133
 C540 C 0.81047 0.70530 0.12519
 C541 C 0.84886 0.63883 0.10344
 C542 C 0.85990 0.65488 0.07210
 C543 C 0.88533 0.63121 0.05032
 C544 C 0.89959 0.59096 0.05926
 C545 C 0.88570 0.57369 0.08905
 C546 C 0.86184 0.59737 0.11138
 C547 C 0.83518 0.60438 0.16704
 C548 C 0.85377 0.58044 0.14248
 H549 H 0.83096 0.59022 0.19112
 H550 H 0.86367 0.54870 0.14840
 H551 H 0.80421 0.65349 0.21106
 H552 H 0.77888 0.75857 0.14704
 H553 H 0.89593 0.64533 0.02744
 H554 H 0.89642 0.54254 0.09609
 H555 H 0.81283 0.72086 0.10163
 H556 H 0.85097 0.68627 0.06481
 C557 C 0.31453 1.16782 0.62907
 C558 C 0.32631 1.21006 0.63561
 C559 C 0.30587 1.23279 0.66103
 C560 C 0.27412 1.21363 0.68039
 C561 C 0.26164 1.17222 0.67239
 C562 C 0.28082 1.15008 0.64702
 C563 C 0.34006 1.14286 0.60472
 C564 C 0.33315 1.09956 0.59891
 C565 C 0.36078 1.07660 0.57874
 C566 C 0.39555 1.09628 0.56349
 C567 C 0.40120 1.13989 0.56763
 C568 C 0.37432 1.16304 0.58849
 C569 C 0.35956 1.22860 0.61762
 C570 C 0.38286 1.20568 0.59442
 H571 H 0.36843 1.26102 0.62213
 H572 H 0.40900 1.22120 0.58176
 H573 H 0.31620 1.26447 0.66675
 H574 H 0.23753 1.15570 0.68646
 H575 H 0.35566 1.04313 0.57591
 H576 H 0.42803 1.15557 0.55596
 H577 H 0.26960 1.11853 0.64276
 H578 H 0.30756 1.08236 0.61052
 C579 C 0.84581 0.33977 -0.14070
 C580 C 0.82852 0.30016 -0.13235
 C581 C 0.80982 0.27480 -0.15715
 C582 C 0.80959 0.28830 -0.19026
 C583 C 0.83255 0.32513 -0.19820
 C584 C 0.84969 0.35065 -0.17396
 C585 C 0.86253 0.36751 -0.11409
 C586 C 0.87324 0.40972 -0.11989
 C587 C 0.89432 0.43298 -0.09601
 C588 C 0.90501 0.41506 -0.06557
 C589 C 0.88975 0.37447 -0.05798
 C590 C 0.86788 0.35072 -0.08217
 C591 C 0.83131 0.28621 -0.09958
 C592 C 0.85198 0.31031 -0.07529
 H593 H 0.81875 0.25564 -0.09287
 H594 H 0.85508 0.29736 -0.05074
 H595 H 0.79598 0.24484 -0.15063
 H596 H 0.83604 0.33575 -0.22338
 H597 H 0.90462 0.46452 -0.10217
 H598 H 0.89703 0.36058 -0.03428
 H599 H 0.86625 0.37870 -0.18180
 H600 H 0.86652 0.42496 -0.14307
 C601 C 0.35376 0.84509 0.35633
 C602 C 0.33049 0.80963 0.36729
 C603 C 0.31035 0.78276 0.34407
 C604 C 0.31387 0.79067 0.30996
 C605 C 0.34110 0.82373 0.29993
 C606 C 0.36033 0.85042 0.32247
 C607 C 0.37266 0.87453 0.38117
 C608 C 0.39132 0.91308 0.37216
 C609 C 0.41255 0.93758 0.39532
 C610 C 0.41549 0.92491 0.42833
 C611 C 0.39351 0.88825 0.43826
 C612 C 0.37168 0.86320 0.41480
 C613 C 0.32831 0.80124 0.40123
 C614 C 0.34941 0.82677 0.42436
 H615 H 0.31096 0.77395 0.41000
 H616 H 0.34788 0.81808 0.45013
 H617 H 0.29227 0.75605 0.35266
 H618 H 0.34673 0.83049 0.27417
 H619 H 0.42860 0.96573 0.38685
 H620 H 0.39503 0.87822 0.46374
 H621 H 0.38040 0.87507 0.31275
 H622 H 0.39055 0.92461 0.34719
 C623 C 1.14154 1.15418 0.35191
 C624 C 1.17599 1.18035 0.36043
 C625 C 1.19763 1.20235 0.33596
 C626 C 1.18739 1.19794 0.30223
 C627 C 1.15342 1.17148 0.29372
 C628 C 1.13060 1.14992 0.31822
 C629 C 1.11983 1.13068 0.37909
 C630 C 1.08384 1.10567 0.37347
 C631 C 1.06790 1.08034 0.39835
 C632 C 1.08675 1.07934 0.42971
 C633 C 1.12009 1.10718 0.43675
 C634 C 1.13678 1.13291 0.41152
 C635 C 1.18969 1.18366 0.39323
 C636 C 1.17100 1.15982 0.41816
 H637 H 1.21631 1.20394 0.39955
 H638 H 1.18376 1.16223 0.44289
 H639 H 1.22297 1.22305 0.34380
 H640 H 1.14453 1.16730 0.26817
 H641 H 1.04157 1.06003 0.39234
 H642 H 1.13457 1.10699 0.46099
 H643 H 1.10515 1.12949 0.31020
 H644 H 1.06822 1.10427 0.34983
 C645 C 0.64081 0.64980 -0.15208
 C646 C 0.67481 0.67635 -0.14318
 C647 C 0.69593 0.69951 -0.16728
 C648 C 0.68583 0.69577 -0.20106
 C649 C 0.65248 0.66873 -0.20999
 C650 C 0.63004 0.64610 -0.18583
 C651 C 0.61921 0.62557 -0.12519
 C652 C 0.58311 0.60067 -0.13098
 C653 C 0.56671 0.57542 -0.10612
 C654 C 0.58558 0.57418 -0.07474
 C655 C 0.61924 0.60163 -0.06767
 C656 C 0.63608 0.62746 -0.09273
 C657 C 0.68855 0.67902 -0.11036
 C658 C 0.67014 0.65444 -0.08577
 H659 H 0.71490 0.69949 -0.10376
 H660 H 0.68283 0.65652 -0.06100
 H661 H 0.72079 0.72059 -0.15911
 H662 H 0.64368 0.66503 -0.23561
 H663 H 0.53961 0.55583 -0.11198
 H664 H 0.63357 0.60137 -0.04338
 H665 H 0.60500 0.62536 -0.19412
 H666 H 0.56751 0.59967 -0.15464
 C667 C 0.85033 1.14779 0.64463
 C668 C 0.86394 1.14256 0.67776
 C669 C 0.84334 1.16442 0.70360
 C670 C 0.80949 1.19184 0.69672
 C671 C 0.79736 1.19701 0.66342
 C672 C 0.81700 1.17552 0.63809
 C673 C 0.87161 1.12331 0.61779
 C674 C 0.85909 1.12521 0.58425
 C675 C 0.87804 1.09909 0.56063
 C676 C 0.90977 1.07079 0.57001
 C677 C 0.92394 1.07068 0.60291
 C678 C 0.90496 1.09606 0.62679
 C679 C 0.89802 1.11562 0.68469
 C680 C 0.91825 1.09302 0.65972
 H681 H 0.90901 1.11168 0.70980
 H682 H 0.94418 1.07216 0.66639
 H683 H 0.85386 1.16033 0.72881
 H684 H 0.77300 1.21895 0.65602
 H685 H 0.86672 1.09981 0.53544
 H686 H 0.94895 1.04955 0.61048
 H687 H 0.80566 1.18161 0.61351
 H688 H 0.83400 1.14565 0.57579
 C689 C 0.35323 0.64889 0.14578
 C690 C 0.36718 0.64414 0.17885
 C691 C 0.34622 0.66569 0.20473
 C692 C 0.31194 0.69265 0.19789
 C693 C 0.29994 0.69781 0.16454
 C694 C 0.31971 0.67638 0.13922
 C695 C 0.37471 0.62452 0.11894
 C696 C 0.36107 0.62502 0.08563
 C697 C 0.38037 0.59910 0.06205
 C698 C 0.41367 0.57244 0.07119
 C699 C 0.42893 0.57380 0.10379
 C700 C 0.40933 0.59871 0.12773
 C701 C 0.40215 0.61827 0.18566
 C702 C 0.42307 0.59641 0.16059
 H703 H 0.41347 0.61478 0.21071
 H704 H 0.44982 0.57652 0.16716
 H705 H 0.35693 0.66187 0.22992
 H706 H 0.27546 0.71961 0.15711
 H707 H 0.36804 0.59853 0.03714
 H708 H 0.45520 0.55397 0.11112
 H709 H 0.30848 0.68250 0.11461
 H710 H 0.33466 0.64397 0.07742
 C711 C 1.15075 0.83771 0.65123
 C712 C 1.14153 0.84562 0.68489
 C713 C 1.16518 0.82547 0.70980
 C714 C 1.19815 0.79769 0.70145
 C715 C 1.20601 0.78980 0.66780
 C716 C 1.18288 0.80912 0.64328
 C717 C 1.12708 0.86119 0.62529
 C718 C 1.13564 0.85672 0.59122
 C719 C 1.11544 0.88233 0.56818
 C720 C 1.08612 0.91247 0.57862
 C721 C 1.07551 0.91532 0.61222
 C722 C 1.09606 0.89044 0.63558
 C723 C 1.10926 0.87402 0.69332
 C724 C 1.08691 0.89593 0.66914
 H725 H 1.10170 0.87995 0.71895
 H726 H 1.06279 0.91827 0.67686
 H727 H 1.15820 0.83179 0.73547
 H728 H 1.23060 0.76853 0.65962
 H729 H 1.12373 0.87946 0.54236
 H730 H 1.05240 0.93832 0.62053
 H731 H 1.19128 0.80132 0.61829
 H732 H 1.15857 0.83459 0.58175
 C733 C 0.64002 0.33689 0.15630
 C734 C 0.67185 0.30814 0.14710
 C735 C 0.69503 0.28739 0.17121
 C736 C 0.68949 0.29570 0.20515
 C737 C 0.65770 0.32427 0.21438
 C738 C 0.63301 0.34453 0.19028
 C739 C 0.61745 0.35980 0.12930
 C740 C 0.58340 0.38703 0.13556
 C741 C 0.56665 0.41131 0.11035
 C742 C 0.58328 0.40937 0.07815
 C743 C 0.61457 0.37954 0.07086
 C744 C 0.63158 0.35454 0.09625
 C745 C 0.68228 0.30167 0.11386
 C746 C 0.66320 0.32506 0.08899
 H747 H 0.70694 0.27940 0.10704
 H748 H 0.67361 0.32026 0.06380
 H749 H 0.71955 0.26627 0.16271
 H750 H 0.65245 0.33160 0.24011
 H751 H 0.54131 0.43278 0.11661
 H752 H 0.62693 0.37712 0.04598
 H753 H 0.60968 0.36702 0.19869
 H754 H 0.56979 0.39062 0.15982
 C755 C 0.85634 0.84076 0.34274
 C756 C 0.82190 0.81548 0.35295
 C757 C 0.79682 0.79529 0.32963
 C758 C 0.80359 0.80041 0.29549
 C759 C 0.83743 0.82616 0.28525
 C760 C 0.86363 0.84610 0.30856
 C761 C 0.88224 0.86180 0.36895
 C762 C 0.91881 0.88559 0.36176
 C763 C 0.93929 0.90799 0.38653
 C764 C 0.92388 0.90736 0.41908
 C765 C 0.88981 0.88093 0.42715
 C766 C 0.86899 0.85805 0.40233
 C767 C 0.81182 0.81086 0.38641
 C768 C 0.83441 0.83232 0.41056
 H769 H 0.78519 0.79127 0.39399
 H770 H 0.82454 0.82888 0.43602
 H771 H 0.77184 0.77502 0.33878
 H772 H 0.84387 0.83071 0.25929
 H773 H 0.96645 0.92727 0.37982
 H774 H 0.87819 0.87980 0.45231
 H775 H 0.88899 0.86587 0.29936
 H776 H 0.93154 0.88802 0.33713
 C777 C 0.36435 0.32773 -0.15416
 C778 C 0.33249 0.29927 -0.14412
 C779 C 0.30782 0.27865 -0.16769
 C780 C 0.31182 0.28708 -0.20165
 C781 C 0.34410 0.31487 -0.21168
 C782 C 0.37027 0.33479 -0.18831
 C783 C 0.38775 0.35146 -0.12784
 C784 C 0.42142 0.37898 -0.13504
 C785 C 0.43864 0.40423 -0.11049
 C786 C 0.42294 0.40302 -0.07799
 C787 C 0.39203 0.37296 -0.06978
 C788 C 0.37451 0.34701 -0.09452
 C789 C 0.32315 0.29352 -0.11060
 C790 C 0.34311 0.31750 -0.08637
 H791 H 0.29857 0.27147 -0.10306
 H792 H 0.33339 0.31326 -0.06095
 H793 H 0.28242 0.25911 -0.15875
 H794 H 0.34832 0.32233 -0.23750
 H795 H 0.46360 0.42593 -0.11749
 H796 H 0.38030 0.37109 -0.04469
 H797 H 0.39367 0.35686 -0.19740
 H798 H 0.43432 0.38210 -0.15957
 C799 C 1.16541 0.33330 -0.13318
 C800 C 1.15194 0.29161 -0.13988
 C801 C 1.17343 0.26726 -0.16381
 C802 C 1.20824 0.28410 -0.18132
 C803 C 1.22253 0.32476 -0.17277
 C804 C 1.20214 0.34853 -0.14888
 C805 C 1.13883 0.36030 -0.11093
 C806 C 1.14696 0.40356 -0.10594
 C807 C 1.11935 0.42814 -0.08697
 C808 C 1.08331 0.41017 -0.07218
 C809 C 1.07564 0.36688 -0.07623
 C810 C 1.10254 0.34210 -0.09591
 C811 C 1.11616 0.27526 -0.12355
 C812 C 1.09231 0.29980 -0.10172
 H813 H 1.10596 0.24325 -0.12814
 H814 H 1.06452 0.28584 -0.09010
 H815 H 1.16155 0.23626 -0.17002
 H816 H 1.24867 0.33976 -0.18566
 H817 H 1.12590 0.46139 -0.08422
 H818 H 1.04763 0.35265 -0.06508
 H819 H 1.21487 0.37940 -0.14407
 H820 H 1.17374 0.41940 -0.11715
 C821 C 0.65588 0.83038 0.36196
 C822 C 0.64836 0.78700 0.35678
 C823 C 0.67108 0.76523 0.33201
 C824 C 0.70026 0.78667 0.31163
 C825 C 0.70675 0.82991 0.31700
 C826 C 0.68556 0.85118 0.34181
 C827 C 0.63037 0.85310 0.38751
 C828 C 0.63681 0.89593 0.39467
 C829 C 0.61055 0.91668 0.41691
 C830 C 0.57736 0.89542 0.43302
 C831 C 0.57162 0.85223 0.42723
 C832 C 0.59804 0.83090 0.40460
 C833 C 0.61715 0.76626 0.37557
 C834 C 0.59221 0.78782 0.39869
 H835 H 0.61115 0.73307 0.37177
 H836 H 0.56781 0.77056 0.41199
 H837 H 0.66493 0.73213 0.32793
 H838 H 0.72842 0.84806 0.30183
 H839 H 0.61618 0.94980 0.42130
 H840 H 0.54629 0.83544 0.43988
 H841 H 0.69220 0.88427 0.34397
 H842 H 0.66176 0.91430 0.38337
 C843 C 0.83640 0.66070 -0.14387
 C844 C 0.84252 0.70466 -0.14695
 C845 C 0.81864 0.72789 -0.17025
 C846 C 0.78937 0.70755 -0.19115
 C847 C 0.78398 0.66377 -0.18768
 C848 C 0.80654 0.64094 -0.16441
 C849 C 0.86325 0.63657 -0.11983
 C850 C 0.85896 0.59285 -0.11500
 C851 C 0.88646 0.57125 -0.09402
 C852 C 0.91888 0.59245 -0.07704
 C853 C 0.92230 0.63635 -0.08051
 C854 C 0.89479 0.65848 -0.10178
 C855 C 0.87327 0.72474 -0.12739
 C856 C 0.89901 0.70214 -0.10551
 H857 H 0.87815 0.75835 -0.12952
 H858 H 0.92290 0.71910 -0.09149
 H859 H 0.82367 0.76145 -0.17265
 H860 H 0.76192 0.64642 -0.20303
 H861 H 0.88259 0.53761 -0.09138
 H862 H 0.94699 0.65319 -0.06723
 H863 H 0.80057 0.60762 -0.16354
 H864 H 0.83490 0.57449 -0.12736
 C865 C 0.34414 1.16097 0.35547
 C866 C 0.34531 1.20546 0.35561
 C867 C 0.31943 1.22843 0.33361
 C868 C 0.29121 1.20740 0.31234
 C869 C 0.28755 1.16333 0.31508
 C870 C 0.31355 1.14055 0.33610
 C871 C 0.37477 1.13725 0.37661
 C872 C 0.38081 1.09341 0.37391
 C873 C 0.40904 1.07247 0.39482
 C874 C 0.43121 1.09466 0.41904
 C875 C 0.42673 1.13850 0.42110
 C876 C 0.39960 1.16007 0.39944
 C877 C 0.37214 1.22638 0.37783
 C878 C 0.39775 1.20413 0.39999
 H879 H 0.37278 1.26041 0.37853
 H880 H 0.41724 1.22169 0.41722
 H881 H 0.32185 1.26238 0.33267
 H882 H 0.26501 1.14568 0.30036
 H883 H 0.41254 1.03877 0.39278
 H884 H 0.44485 1.15584 0.43937
 H885 H 0.30920 1.10693 0.33682
 H886 H 0.36434 1.07486 0.35566
 C887 C 1.16099 0.65995 0.14433
 C888 C 1.15621 0.70415 0.14662
 C889 C 1.18063 0.72742 0.16968
 C890 C 1.20923 0.70686 0.19096
 C891 C 1.21308 0.66280 0.18826
 C892 C 1.18990 0.63998 0.16541
 C893 C 1.13406 0.63584 0.12033
 C894 C 1.13721 0.59189 0.11633
 C895 C 1.10988 0.57039 0.09513
 C896 C 1.07879 0.59194 0.07708
 C897 C 1.07639 0.63600 0.07986
 C898 C 1.10374 0.65803 0.10137
 C899 C 1.12646 0.72444 0.12633
 C900 C 1.10064 0.70188 0.10439
 H901 H 1.12255 0.75820 0.12782
 H902 H 1.07764 0.71904 0.08971
 H903 H 1.17680 0.76118 0.17142
 H904 H 1.23465 0.64511 0.20373
 H905 H 1.11279 0.53657 0.09320
 H906 H 1.05265 0.65307 0.06581
 H907 H 1.19488 0.60651 0.16518
 H908 H 1.16023 0.57322 0.12948
 C909 C 0.65132 1.16097 0.64799
 C910 C 0.65266 1.20543 0.64663
 C911 C 0.67970 1.22800 0.66813
 C912 C 0.70671 1.20642 0.68994
 C913 C 0.70766 1.16210 0.68847
 C914 C 0.68045 1.13985 0.66808
 C915 C 0.62010 1.13784 0.62701
 C916 C 0.61175 1.09448 0.63080
 C917 C 0.58361 1.07381 0.60968
 C918 C 0.56377 1.09577 0.58420
 C919 C 0.57023 1.13934 0.58121
 C920 C 0.59736 1.16070 0.60302
 C921 C 0.62747 1.22661 0.62347
 C922 C 0.60140 1.20460 0.60142
 H923 H 0.62870 1.26058 0.62184
 H924 H 0.58341 1.22226 0.58333
 H925 H 0.67947 1.26205 0.66803
 H926 H 0.72924 1.14379 0.70348
 H927 H 0.57833 1.04043 0.61262
 H928 H 0.55371 1.15664 0.56207
 H929 H 0.68299 1.10604 0.66823
 H930 H 0.62637 1.07611 0.65005
 C931 C 0.83361 0.33765 0.13821
 C932 C 0.84466 0.29492 0.14326
 C933 C 0.82341 0.27086 0.16762
 C934 C 0.79156 0.28917 0.18735
 C935 C 0.78036 0.33140 0.18109
 C936 C 0.80028 0.35483 0.15680
 C937 C 0.85922 0.36358 0.11449
 C938 C 0.85231 0.40704 0.10968
 C939 C 0.87924 0.43060 0.08936
 C940 C 0.91340 0.41146 0.07303
 C941 C 0.91951 0.36786 0.07658
 C942 C 0.89312 0.34398 0.09745
 C943 C 0.87780 0.27713 0.12473
 C944 C 0.90137 0.30107 0.10223
 H945 H 0.88624 0.24441 0.12815
 H946 H 0.92723 0.28598 0.08900
 H947 H 0.83296 0.23865 0.17211
 H948 H 0.75643 0.34746 0.19560
 H949 H 0.87372 0.46404 0.08688
 H950 H 0.94590 0.35266 0.06404
 H951 H 0.78976 0.38681 0.15384
 H952 H 0.82700 0.42386 0.12189
 C953 C 0.34888 0.82339 0.63716
 C954 C 0.31726 0.84563 0.65484
 C955 C 0.29514 0.82620 0.68052
 C956 C 0.30199 0.78376 0.68864
 C957 C 0.33218 0.76105 0.67026
 C958 C 0.35550 0.78060 0.64491
 C959 C 0.37419 0.84701 0.61159
 C960 C 0.40922 0.82958 0.59446
 C961 C 0.43321 0.85407 0.57242
 C962 C 0.42251 0.89625 0.56672
 C963 C 0.38702 0.91336 0.58285
 C964 C 0.36341 0.88954 0.60544
 C965 C 0.30791 0.88748 0.64719
 C966 C 0.33012 0.90879 0.62273
 H967 H 0.28314 0.90417 0.66049
 H968 H 0.32189 0.94129 0.61794
 H969 H 0.27224 0.84473 0.69428
 H970 H 0.33852 0.72841 0.67590
 H971 H 0.46061 0.84022 0.56027
 H972 H 0.37859 0.94599 0.57876
 H973 H 0.37868 0.76188 0.63181
 H974 H 0.41915 0.79753 0.59840
 C975 C 0.33006 1.14769 -0.14570
 C976 C 0.28894 1.16296 -0.13736
 C977 C 0.26344 1.18297 -0.16152
 C978 C 0.27913 1.18858 -0.19376
 C979 C 0.31761 1.16798 -0.20222
 C980 C 0.34264 1.14825 -0.17873
 C981 C 0.35842 1.13076 -0.11916
 C982 C 0.40194 1.12103 -0.12445
 C983 C 0.42713 1.10497 -0.09901
 C984 C 0.40950 1.09778 -0.06785
 C985 C 0.36647 1.10858 -0.06208
 C986 C 0.34120 1.12597 -0.08726
 C987 C 0.27416 1.15850 -0.10493
 C988 C 0.29931 1.13944 -0.08064
 H989 H 0.24259 1.16960 -0.09829
 H990 H 0.28617 1.13622 -0.05606
 H991 H 0.23295 1.19647 -0.15470
 H992 H 0.32996 1.16795 -0.22709
 H993 H 0.46026 1.09731 -0.10390
 H994 H 0.35284 1.10406 -0.03777
 H995 H 0.37203 1.13398 -0.18694
 H996 H 0.41727 1.12611 -0.14792
 C997 C 0.83476 0.66266 0.35936
 C998 C 0.78957 0.65943 0.35989
 C999 C 0.76477 0.67956 0.33520
 C1000 C 0.78493 0.70313 0.31023
 C1001 C 0.83001 0.70640 0.31115
 C1002 C 0.85413 0.68715 0.33507
 C1003 C 0.86063 0.64042 0.38488
 C1004 C 0.90574 0.64038 0.38456
 C1005 C 0.92875 0.62014 0.40909
 C1006 C 0.90771 0.59905 0.43457
 C1007 C 0.86264 0.59784 0.43478
 C1008 C 0.83897 0.61826 0.40996
 C1009 C 0.76994 0.63633 0.38518
 C1010 C 0.79407 0.61655 0.40983
 H1011 H 0.73543 0.63374 0.38609
 H1012 H 0.77730 0.59939 0.42895
 H1013 H 0.73026 0.67678 0.33538
 H1014 H 0.84794 0.72476 0.29350
 H1015 H 0.96335 0.62114 0.40809
 H1016 H 0.84603 0.58109 0.45422
 H1017 H 0.88809 0.69236 0.33392
 H1018 H 0.92426 0.65550 0.36560
 C1019 C 0.66929 1.15510 0.14370
 C1020 C 0.64689 1.17538 0.16926
 C1021 C 0.66916 1.19599 0.19412
 C1022 C 0.71424 1.19844 0.19430
 C1023 C 0.73669 1.17854 0.16881
 C1024 C 0.71455 1.15699 0.14381
 C1025 C 0.64339 1.13330 0.11761
 C1026 C 0.66202 1.11075 0.09155
 C1027 C 0.63645 1.09162 0.06770
 C1028 C 0.59162 1.09456 0.06905
 C1029 C 0.57269 1.11632 0.09513
 C1030 C 0.59809 1.13542 0.11938
 C1031 C 0.60212 1.17582 0.16987
 C1032 C 0.57826 1.15655 0.14534
 H1033 H 0.58516 1.19172 0.18954
 H1034 H 0.54371 1.15811 0.14681
 H1035 H 0.65035 1.21155 0.21284
 H1036 H 0.77124 1.17996 0.16801
 H1037 H 0.65201 1.07475 0.04788
 H1038 H 0.53815 1.11851 0.09653
 H1039 H 0.73332 1.14248 0.12465
 H1040 H 0.69620 1.10753 0.08915
 C1041 C 1.17362 0.65753 0.63990
 C1042 C 1.15134 0.68056 0.66399
 C1043 C 1.17351 0.70086 0.68885
 C1044 C 1.21857 0.69972 0.69111
 C1045 C 1.24103 0.67690 0.66718
 C1046 C 1.21886 0.65598 0.64179
 C1047 C 1.14755 0.63636 0.61363
 C1048 C 1.16579 0.61236 0.58820
 C1049 C 1.13990 0.59382 0.56424
 C1050 C 1.09525 0.59869 0.56508
 C1051 C 1.07675 0.62202 0.59040
 C1052 C 1.10236 0.64086 0.61446
 C1053 C 1.10672 0.68379 0.66342
 C1054 C 1.08275 0.66435 0.63918
 H1055 H 1.08994 0.70174 0.68208
 H1056 H 1.04830 0.66783 0.63980
 H1057 H 1.15452 0.71874 0.70611
 H1058 H 1.27556 0.67529 0.66804
 H1059 H 1.15498 0.57569 0.54489
 H1060 H 1.04233 0.62586 0.59122
 H1061 H 1.23754 0.63890 0.62393
 H1062 H 1.19985 0.60769 0.58636
 C1063 C 0.66416 0.84486 -0.13816
 C1064 C 0.64225 0.81336 -0.15573
 C1065 C 0.66380 0.78921 -0.17894
 C1066 C 0.70781 0.79460 -0.18554
 C1067 C 0.73009 0.82491 -0.16727
 C1068 C 0.70861 0.84972 -0.14377
 C1069 C 0.63847 0.87171 -0.11495
 C1070 C 0.65632 0.90505 -0.09686
 C1071 C 0.63109 0.92844 -0.07518
 C1072 C 0.58739 0.91941 -0.07105
 C1073 C 0.56898 0.88726 -0.08967
 C1074 C 0.59408 0.86335 -0.11135
 C1075 C 0.59844 0.80654 -0.15093
 C1076 C 0.57491 0.83088 -0.12913
 H1077 H 0.58193 0.78204 -0.16444
 H1078 H 0.54109 0.82434 -0.12635
 H1079 H 0.64500 0.76688 -0.19284
 H1080 H 0.76371 0.83045 -0.17189
 H1081 H 0.64606 0.95337 -0.06115
 H1082 H 0.53534 0.87998 -0.08656
 H1083 H 0.72710 0.87302 -0.13075
 H1084 H 0.68968 0.91326 -0.09889
 C1085 C 1.16830 0.34510 0.36478
 C1086 C 1.14543 0.31604 0.34543
 C1087 C 1.16649 0.29244 0.32159
 C1088 C 1.21091 0.29606 0.31596
 C1089 C 1.23401 0.32424 0.33567
 C1090 C 1.21305 0.34845 0.35988
 C1091 C 1.14326 0.37109 0.38906
 C1092 C 1.16211 0.40174 0.40939
 C1093 C 1.13721 0.42478 0.43161
 C1094 C 1.09288 0.41806 0.43407
 C1095 C 1.07373 0.38818 0.41365
 C1096 C 1.09840 0.36469 0.39143
 C1097 C 1.10122 0.31096 0.34922
 C1098 C 1.07824 0.33471 0.37172
 H1099 H 1.08396 0.28836 0.33431
 H1100 H 1.04405 0.32968 0.37358
 H1101 H 1.14717 0.27147 0.30684
 H1102 H 1.26802 0.32833 0.33188
 H1103 H 1.15283 0.44783 0.44710
 H1104 H 1.03962 0.38262 0.41544
 H1105 H 1.23219 0.37000 0.37412
 H1106 H 1.19595 0.40817 0.40857
 C1107 C 0.34311 0.83944 0.13734
 C1108 C 0.29892 0.84717 0.14199
 C1109 C 0.27536 0.82356 0.16554
 C1110 C 0.29558 0.79190 0.18407
 C1111 C 0.33923 0.78388 0.17749
 C1112 C 0.36212 0.80640 0.15444
 C1113 C 0.36828 0.86649 0.11427
 C1114 C 0.41313 0.86359 0.11123
 C1115 C 0.43526 0.88823 0.08859
 C1116 C 0.41345 0.91658 0.06843
 C1117 C 0.36890 0.92123 0.07232
 C1118 C 0.34627 0.89668 0.09539
 C1119 C 0.27910 0.87853 0.12317
 C1120 C 0.30209 0.90218 0.09995
 H1121 H 0.24526 0.88461 0.12619
 H1122 H 0.28513 0.92561 0.08570
 H1123 H 0.24200 0.83062 0.17004
 H1124 H 0.35722 0.76060 0.19093
 H1125 H 0.46956 0.88448 0.08646
 H1126 H 0.35182 0.94376 0.05728
 H1127 H 0.39503 0.79758 0.15091
 H1128 H 0.43200 0.84263 0.12611
 C1129 C 0.84121 0.33844 0.63609
 C1130 C 0.79713 0.34661 0.64093
 C1131 C 0.77345 0.32315 0.66454
 C1132 C 0.79345 0.29132 0.68307
 C1133 C 0.83705 0.28312 0.67651
 C1134 C 0.86003 0.30540 0.65334
 C1135 C 0.86650 0.36528 0.61287
 C1136 C 0.91121 0.36155 0.60930
 C1137 C 0.93351 0.38648 0.58697
 C1138 C 0.91217 0.41598 0.56756
 C1139 C 0.86767 0.42100 0.57158
 C1140 C 0.84480 0.39615 0.59441
 C1141 C 0.77757 0.37834 0.62231
 C1142 C 0.80072 0.40209 0.59922
 H1143 H 0.74383 0.38478 0.62550
 H1144 H 0.78396 0.42594 0.58527
 H1145 H 0.74016 0.33047 0.66911
 H1146 H 0.85492 0.25980 0.69002
 H1147 H 0.96762 0.38200 0.58447
 H1148 H 0.85088 0.44424 0.55702
 H1149 H 0.89291 0.29642 0.64991
 H1150 H 0.92990 0.33976 0.62355
 C1151 C 1.12513 1.16649 0.65078
 C1152 C 1.11707 1.15824 0.68450
 C1153 C 1.14123 1.17895 0.70909
 C1154 C 1.17253 1.20870 0.70026
 C1155 C 1.17674 1.21900 0.66657
 C1156 C 1.15355 1.19860 0.64243
 C1157 C 1.10359 1.14036 0.62514
 C1158 C 1.11621 1.14077 0.59171
 C1159 C 1.09732 1.11365 0.56899
 C1160 C 1.06468 1.08647 0.57885
 C1161 C 1.05129 1.08630 0.61195
 C1162 C 1.07158 1.11193 0.63536
 C1163 C 1.08523 1.12920 0.69311
 C1164 C 1.06209 1.10745 0.66901
 H1165 H 1.07804 1.12324 0.71880
 H1166 H 1.03772 1.08540 0.67691
 H1167 H 1.13645 1.17109 0.73480
 H1168 H 1.19998 1.24147 0.65793
 H1169 H 1.10863 1.11343 0.54375
 H1170 H 1.02716 1.06404 0.61993
 H1171 H 1.15902 1.20802 0.61725
 H1172 H 1.14190 1.16039 0.58286
 C1173 C 0.64002 0.64818 0.15192
 C1174 C 0.61913 0.68136 0.16830
 C1175 C 0.64100 0.70372 0.19308
 C1176 C 0.68259 0.69148 0.20248
 C1177 C 0.69900 0.65373 0.18993
 C1178 C 0.67867 0.63292 0.16443
 C1179 C 0.61915 0.62866 0.12296
 C1180 C 0.64204 0.60355 0.10079
 C1181 C 0.62095 0.58254 0.07574
 C1182 C 0.57637 0.58536 0.07256
 C1183 C 0.55376 0.61385 0.09262
 C1184 C 0.57549 0.63676 0.11719
 C1185 C 0.57673 0.69106 0.15988
 C1186 C 0.55466 0.66774 0.13591
 H1187 H 0.55997 0.71588 0.17277
 H1188 H 0.52138 0.67494 0.13125
 H1189 H 0.62638 0.73122 0.20404
 H1190 H 0.72840 0.64053 0.19899
 H1191 H 0.63952 0.56186 0.06013
 H1192 H 0.51955 0.61742 0.08963
 H1193 H 0.69338 0.60473 0.15489
 H1194 H 0.67623 0.59952 0.10275
 C1195 C 1.16283 0.84688 0.35061
 C1196 C 1.14133 0.81711 0.33082
 C1197 C 1.16301 0.79747 0.30473
 C1198 C 1.20600 0.80740 0.29787
 C1199 C 1.22497 0.84096 0.31489
 C1200 C 1.20400 0.86006 0.34122
 C1201 C 1.14014 0.86433 0.37999
 C1202 C 1.16080 0.88933 0.40372
 C1203 C 1.13754 0.90799 0.42910
 C1204 C 1.09315 0.90233 0.43133
 C1205 C 1.07298 0.87433 0.40955
 C1206 C 1.09632 0.85484 0.38423
 C1207 C 1.09853 0.80704 0.33735
 C1208 C 1.07612 0.82646 0.36292
 H1209 H 1.08183 0.78450 0.32204
 H1210 H 1.04268 0.81867 0.36636
 H1211 H 1.14689 0.77300 0.29096
 H1212 H 1.25670 0.85176 0.30872
 H1213 H 1.15404 0.92899 0.44580
 H1214 H 1.03881 0.86910 0.41142
 H1215 H 1.22054 0.88498 0.35397
 H1216 H 1.19472 0.89542 0.40271
 C1217 C 0.65738 0.34313 -0.15118
 C1218 C 0.63638 0.31385 -0.17163
 C1219 C 0.65897 0.29445 -0.19734
 C1220 C 0.70204 0.30497 -0.20354
 C1221 C 0.72020 0.33857 -0.18613
 C1222 C 0.69856 0.35693 -0.15987
 C1223 C 0.63410 0.35985 -0.12199
 C1224 C 0.65486 0.38259 -0.09706
 C1225 C 0.63138 0.40115 -0.07190
 C1226 C 0.58663 0.39792 -0.07122
 C1227 C 0.56609 0.37166 -0.09412
 C1228 C 0.58982 0.35181 -0.11909
 C1229 C 0.59310 0.30449 -0.16626
 C1230 C 0.56986 0.32434 -0.14127
 H1231 H 0.57666 0.28247 -0.18220
 H1232 H 0.53608 0.31744 -0.13886
 H1233 H 0.64332 0.27014 -0.21158
 H1234 H 0.75175 0.35003 -0.19195
 H1235 H 0.64825 0.42037 -0.05414
 H1236 H 0.53165 0.36799 -0.09329
 H1237 H 0.71442 0.38196 -0.14671
 H1238 H 0.68910 0.38688 -0.09696
 C1239 C 0.86932 1.15459 0.34610
 C1240 C 0.83890 1.18361 0.35773
 C1241 C 0.81558 1.20758 0.33545
 C1242 C 0.81948 1.20181 0.30117
 C1243 C 0.84961 1.17283 0.28959
 C1244 C 0.87452 1.14969 0.31172
 C1245 C 0.89311 1.12919 0.37104
 C1246 C 0.92622 1.10160 0.36232
 C1247 C 0.94587 1.07702 0.38619
 C1248 C 0.93308 1.07925 0.41924
 C1249 C 0.90094 1.10720 0.42851
 C1250 C 0.88151 1.13284 0.40474
 C1251 C 0.83042 1.18751 0.39149
 C1252 C 0.85065 1.16201 0.41446
 H1253 H 0.80674 1.20972 0.40021
 H1254 H 0.84212 1.16529 0.44022
 H1255 H 0.79297 1.22983 0.34538
 H1256 H 0.85355 1.16746 0.26344
 H1257 H 0.96998 1.05481 0.37846
 H1258 H 0.89123 1.10897 0.45413
 H1259 H 0.89667 1.12733 0.30144
 H1260 H 0.93716 1.09828 0.33726
 C1261 C 0.36256 0.65384 -0.14950
 C1262 C 0.31988 0.64222 -0.15637
 C1263 C 0.29760 0.66191 -0.18167
 C1264 C 0.31515 0.69614 -0.19860
 C1265 C 0.35786 0.70731 -0.19238
 C1266 C 0.38140 0.68633 -0.16818
 C1267 C 0.38548 0.63079 -0.12269
 C1268 C 0.42933 0.63642 -0.11590
 C1269 C 0.44973 0.61147 -0.09234
 C1270 C 0.42661 0.58120 -0.07462
 C1271 C 0.38260 0.57724 -0.07986
 C1272 C 0.36227 0.60062 -0.10428
 C1273 C 0.29894 0.61180 -0.13742
 C1274 C 0.31946 0.59204 -0.11146
 H1275 H 0.26595 0.60355 -0.14246
 H1276 H 0.30188 0.56875 -0.09741
 H1277 H 0.26591 0.65089 -0.18743
 H1278 H 0.37269 0.73328 -0.20530
 H1279 H 0.48382 0.61498 -0.08867
 H1280 H 0.36450 0.55356 -0.06659
 H1281 H 0.41369 0.69680 -0.16383
 H1282 H 0.44868 0.65863 -0.12937
 C1283 C 0.85073 0.84144 0.65097
 C1284 C 0.80768 0.85383 0.65538
 C1285 C 0.78383 0.83809 0.68188
 C1286 C 0.80063 0.80677 0.70236
 C1287 C 0.84419 0.79654 0.69924
 C1288 C 0.86896 0.81372 0.67400
 C1289 C 0.87481 0.85829 0.62187
 C1290 C 0.91848 0.84993 0.61617
 C1291 C 0.94025 0.86951 0.59028
 C1292 C 0.91875 0.89692 0.56899
 C1293 C 0.87462 0.90283 0.57300
 C1294 C 0.85287 0.88483 0.59966
 C1295 C 0.78799 0.88043 0.63257
 C1296 C 0.80995 0.89517 0.60508
 H1297 H 0.75484 0.88946 0.63573
 H1298 H 0.79327 0.91565 0.58810
 H1299 H 0.75141 0.84880 0.68528
 H1300 H 0.85887 0.77344 0.71515
 H1301 H 0.97438 0.86473 0.58783
 H1302 H 0.85773 0.92440 0.55698
 H1303 H 0.90170 0.80352 0.67222
 H1304 H 0.93685 0.82989 0.63218
 C1305 C 0.35581 0.33812 0.15321
 C1306 C 0.31372 0.35223 0.15943
 C1307 C 0.29044 0.33590 0.18587
 C1308 C 0.30622 0.30221 0.20434
 C1309 C 0.34858 0.28910 0.19893
 C1310 C 0.37318 0.30697 0.17383
 C1311 C 0.37958 0.35673 0.12466
 C1312 C 0.42316 0.34862 0.11827
 C1313 C 0.44453 0.36959 0.09281
 C1314 C 0.42257 0.39798 0.07262
 C1315 C 0.37869 0.40415 0.07758
 C1316 C 0.35756 0.38513 0.10398
 C1317 C 0.29415 0.38115 0.13840
 C1318 C 0.31529 0.39652 0.11081
 H1319 H 0.26162 0.39135 0.14291
 H1320 H 0.29866 0.41860 0.09507
 H1321 H 0.25911 0.34833 0.19088
 H1322 H 0.36226 0.26358 0.21300
 H1323 H 0.47856 0.36480 0.08968
 H1324 H 0.36155 0.42670 0.06257
 H1325 H 0.40494 0.29473 0.17010
 H1326 H 0.44170 0.32778 0.13354
   
