data_POSCAR
  _audit_creation_date              2014-09-24
  _audit_creation_method            'ToBaCCo'
  _symmetry_space_group_name_H-M    'P1'
  _symmetry_Int_Tables_number       1
  _symmetry_cell_setting            triclinic
  loop_
  _symmetry_equiv_pos_as_xyz
 x,y,z
_cell_length_a 57.1561
_cell_length_b 57.2119
_cell_length_c 61.9094
_cell_angle_alpha 90.635800
_cell_angle_beta 90.655500
_cell_angle_gamma 90.342300
loop_
  _atom_site_label
  _atom_site_type_symbol
  _atom_site_fract_x
  _atom_site_fract_y
  _atom_site_fract_z
C1 C 0.27728 0.44581 0.90899
 C2 C 0.27813 0.43599 0.92951
 C3 C 0.29119 0.44661 0.94573
 C4 C 0.30334 0.46731 0.94173
 C5 C 0.30258 0.47732 0.92146
 C6 C 0.28943 0.46628 0.90474
 C7 C 0.26761 0.43771 0.89000
 N8 N 0.27344 0.45259 0.87409
 C9 C 0.28680 0.47018 0.88281
 C10 C 0.31782 0.49625 0.92229
 N11 N 0.32777 0.49745 0.94240
 C12 C 0.31887 0.47982 0.95430
 C13 C 0.29131 0.43188 0.96307
 N14 N 0.27858 0.41259 0.95768
 C15 C 0.27030 0.41495 0.93722
 H16 H 0.25756 0.42174 0.88779
 H17 H 0.29451 0.48434 0.87383
 H18 H 0.32219 0.50752 0.90897
 H19 H 0.32380 0.47582 0.97077
 H20 H 0.30093 0.43441 0.97810
 H21 H 0.26059 0.40174 0.92817
 C22 C 0.44838 0.84883 0.44816
 C23 C 0.42980 0.83263 0.44896
 C24 C 0.43263 0.81051 0.44013
 C25 C 0.45358 0.80419 0.43041
 C26 C 0.47159 0.82021 0.42876
 C27 C 0.46900 0.84271 0.43787
 C28 C 0.45068 0.87187 0.45486
 N29 N 0.47211 0.87979 0.44892
 C30 C 0.48323 0.86217 0.43831
 C31 C 0.48842 0.80986 0.41590
 N32 N 0.48088 0.78799 0.41023
 C33 C 0.45965 0.78446 0.41911
 C34 C 0.41129 0.79963 0.43983
 N35 N 0.39538 0.81442 0.44825
 C36 C 0.40640 0.83465 0.45417
 H37 H 0.43765 0.88208 0.46323
 H38 H 0.50057 0.86332 0.43153
 H39 H 0.50444 0.81792 0.41041
 H40 H 0.44876 0.76912 0.41644
 H41 H 0.40720 0.78284 0.43240
 H42 H 0.39769 0.85031 0.45975
 C43 C 0.93962 0.91965 0.79112
 C44 C 0.92577 0.93803 0.79841
 C45 C 0.93159 0.94989 0.81729
 C46 C 0.95170 0.94356 0.82896
 C47 C 0.96539 0.92517 0.82181
 C48 C 0.95924 0.91304 0.80275
 C49 C 0.93542 0.90292 0.77558
 N50 N 0.95183 0.88607 0.77753
 C51 C 0.96671 0.89216 0.79396
 C52 C 0.98162 0.92074 0.83781
 N53 N 0.97817 0.93603 0.85438
 C54 C 0.95995 0.95009 0.84908
 C55 C 0.91285 0.96390 0.82234
 N56 N 0.89596 0.96058 0.80699
 C57 C 0.90379 0.94492 0.79224
 H58 H 0.92042 0.90217 0.76472
 H59 H 0.98076 0.88144 0.80015
 H60 H 0.99431 0.90676 0.83778
 H61 H 0.95239 0.96330 0.85948
 H62 H 0.91096 0.97446 0.83683
 H63 H 0.89361 0.93774 0.77885
 C64 C 0.45536 -0.06646 0.32482
 C65 C 0.44136 -0.04803 0.31685
 C66 C 0.44388 -0.02590 0.32601
 C67 C 0.45958 -0.02177 0.34313
 C68 C 0.47262 -0.03983 0.35131
 C69 C 0.47058 -0.06215 0.34208
 C70 C 0.45864 -0.08964 0.31876
 N71 N 0.47535 -0.09899 0.33198
 C72 C 0.48237 -0.08230 0.34637
 C73 C 0.48578 -0.03102 0.36835
 N74 N 0.48099 -0.00793 0.37055
 C75 C 0.46507 -0.00208 0.35514
 C76 C 0.42878 -0.01129 0.31563
 N77 N 0.41663 -0.02366 0.30042
 C78 C 0.42410 -0.04624 0.30089
 H79 H 0.45002 -0.09873 0.30544
 H80 H 0.49587 -0.08437 0.35861
 H81 H 0.49766 -0.04072 0.37857
 H82 H 0.45750 0.01509 0.35325
 H83 H 0.42651 0.00714 0.31915
 H84 H 0.41756 -0.06020 0.29049
 C85 C 0.79709 0.29718 0.34650
 C86 C 0.79074 0.31509 0.33236
 C87 C 0.79936 0.31543 0.31153
 C88 C 0.81433 0.29752 0.30452
 C89 C 0.82072 0.27995 0.31857
 C90 C 0.81204 0.27979 0.33963
 C91 C 0.79143 0.29251 0.36762
 N92 N 0.80266 0.27272 0.37359
 C93 C 0.81527 0.26484 0.35659
 C94 C 0.83559 0.26521 0.30773
 N95 N 0.83821 0.27326 0.28738
 C96 C 0.82526 0.29296 0.28521
 C97 C 0.79030 0.33499 0.30165
 N98 N 0.77633 0.34621 0.31599
 C99 C 0.77648 0.33414 0.33472
 H100 H 0.78007 0.30275 0.37784
 H101 H 0.82604 0.24932 0.35660
 H102 H 0.84391 0.24980 0.31418
 H103 H 0.82419 0.30340 0.27075
 H104 H 0.79334 0.34044 0.28523
 H105 H 0.76688 0.33892 0.34907
 C106 C -0.19342 0.80847 0.79511
 C107 C -0.17802 0.78996 0.79876
 C108 C -0.18165 0.77508 0.81583
 C109 C -0.20089 0.77838 0.82931
 C110 C -0.21617 0.79669 0.82562
 C111 C -0.21222 0.81217 0.80856
 C112 C -0.19282 0.82649 0.78081
 N113 N -0.21044 0.84151 0.78539
 C114 C -0.22256 0.83293 0.80237
 C115 C -0.23249 0.79618 0.84171
 N116 N -0.22737 0.77824 0.85515
 C117 C -0.20800 0.76728 0.84775
 C118 C -0.16297 0.76006 0.81659
 N119 N -0.14812 0.76557 0.80044
 C120 C -0.15719 0.78382 0.78939
 H121 H -0.17967 0.82907 0.76857
 H122 H -0.23728 0.84137 0.80997
 H123 H -0.24667 0.80844 0.84384
 H124 H -0.19948 0.75259 0.85533
 H125 H -0.15998 0.74662 0.82847
 H126 H -0.14883 0.79256 0.77609
 C127 C 0.95744 0.31439 0.41806
 C128 C 0.95167 0.29461 0.40586
 C129 C 0.93762 0.27759 0.41447
 C130 C 0.92953 0.28000 0.43553
 C131 C 0.93460 0.29996 0.44767
 C132 C 0.94874 0.31759 0.43869
 C133 C 0.97064 0.33341 0.41310
 N134 N 0.97033 0.34851 0.43003
 C135 C 0.95677 0.33927 0.44581
 C136 C 0.92330 0.29739 0.46720
 N137 N 0.91225 0.27626 0.46690
 C138 C 0.91585 0.26569 0.44762
 C139 C 0.93248 0.26180 0.39827
 N140 N 0.94308 0.26908 0.38005
 C141 C 0.95521 0.28895 0.38455
 H142 H 0.97971 0.33616 0.39805
 H143 H 0.95340 0.34741 0.46132
 H144 H 0.92324 0.30973 0.48058
 H145 H 0.90871 0.24885 0.44269
 H146 H 0.92077 0.24691 0.39928
 H147 H 0.96434 0.29941 0.37282
 C148 C 0.44899 0.46171 0.85319
 C149 C 0.45445 0.43997 0.84391
 C150 C 0.44231 0.43217 0.82580
 C151 C 0.42455 0.44576 0.81690
 C152 C 0.41885 0.46709 0.82610
 C153 C 0.43145 0.47529 0.84424
 C154 C 0.45738 0.47341 0.87119
 N155 N 0.44549 0.49381 0.87327
 C156 C 0.42974 0.49519 0.85675
 C157 C 0.40018 0.47578 0.81442
 N158 N 0.39495 0.46022 0.79835
 C159 C 0.40978 0.44195 0.79971
 C160 C 0.45080 0.41056 0.82028
 N161 N 0.46789 0.40501 0.83463
 C162 C 0.47029 0.42284 0.84918
 H163 H 0.47090 0.46730 0.88210
 H164 H 0.41736 0.50923 0.85444
 H165 H 0.39125 0.49215 0.81723
 H166 H 0.40959 0.42678 0.78908
 H167 H 0.44490 0.39968 0.80685
 H168 H 0.48262 0.42328 0.86258
 C169 C 0.79772 0.90496 0.93459
 C170 C 0.79190 0.92027 0.91781
 C171 C 0.80673 0.93868 0.91297
 C172 C 0.82754 0.94208 0.92481
 C173 C 0.83313 0.92727 0.94154
 C174 C 0.81809 0.90868 0.94646
 C175 C 0.78769 0.88450 0.94187
 N176 N 0.80154 0.87596 0.95791
 C177 C 0.82003 0.89074 0.96085
 C178 C 0.85492 0.93380 0.94932
 N179 N 0.86272 0.95210 0.93753
 C180 C 0.84604 0.95732 0.92256
 C181 C 0.79742 0.94983 0.89532
 N182 N 0.77729 0.93870 0.88940
 C183 C 0.77377 0.92060 0.90301
 H184 H 0.77189 0.87625 0.93562
 H185 H 0.83439 0.88818 0.97212
 H186 H 0.86463 0.92529 0.96209
 H187 H 0.84750 0.97082 0.91051
 H188 H 0.80502 0.96462 0.88712
 H189 H 0.75939 0.90823 0.90186
 C190 C 0.30431 0.83918 0.31146
 C191 C 0.29836 0.82921 0.33136
 C192 C 0.31231 0.81179 0.34008
 C193 C 0.33250 0.80433 0.32923
 C194 C 0.33805 0.81415 0.30967
 C195 C 0.32383 0.83126 0.30070
 C196 C 0.29539 0.85746 0.29952
 N197 N 0.30911 0.86038 0.28189
 C198 C 0.32635 0.84426 0.28249
 C199 C 0.35921 0.80543 0.30338
 N200 N 0.36685 0.79040 0.31861
 C201 C 0.35058 0.78937 0.33446
 C202 C 0.30278 0.80582 0.35956
 N203 N 0.28345 0.81905 0.36294
 C204 C 0.28067 0.83351 0.34585
 H205 H 0.28052 0.86817 0.30369
 H206 H 0.34044 0.84280 0.27100
 H207 H 0.36866 0.81020 0.28902
 H208 H 0.35225 0.77927 0.34908
 H209 H 0.30963 0.79293 0.37058
 H210 H 0.26683 0.84622 0.34413
 C211 C 0.80952 0.40754 0.41937
 C212 C 0.80044 0.42390 0.40474
 C213 C 0.81534 0.44019 0.39559
 C214 C 0.83924 0.44033 0.40067
 C215 C 0.84803 0.42455 0.41529
 C216 C 0.83315 0.40816 0.42466
 C217 C 0.79926 0.39115 0.43258
 N218 N 0.81617 0.38232 0.44570
 C219 C 0.83683 0.39263 0.44098
 C220 C 0.87103 0.43046 0.41927
 N221 N 0.87641 0.44944 0.40727
 C222 C 0.85711 0.45550 0.39569
 C223 C 0.80184 0.45559 0.38426
 N224 N 0.77918 0.44910 0.38614
 C225 C 0.77794 0.42968 0.39846
 H226 H 0.78081 0.38695 0.43345
 H227 H 0.85324 0.38962 0.44939
 H228 H 0.88265 0.42204 0.43067
 H229 H 0.85578 0.47059 0.38534
 H230 H 0.80793 0.47091 0.37582
 H231 H 0.76190 0.42116 0.40328
 C232 C 0.93787 0.80405 -0.05798
 C233 C 0.92334 0.78506 -0.06318
 C234 C 0.92660 0.77249 -0.08213
 C235 C 0.94473 0.77889 -0.09618
 C236 C 0.95910 0.79777 -0.09089
 C237 C 0.95561 0.81050 -0.07169
 C238 C 0.93711 0.82034 -0.04161
 N239 N 0.95390 0.83666 -0.04502
 C240 C 0.96545 0.83081 -0.06335
 C241 C 0.97418 0.80092 -0.10773
 N242 N 0.96948 0.78449 -0.12322
 C243 C 0.95146 0.77089 -0.11634
 C244 C 0.90872 0.75618 -0.08342
 N245 N 0.89488 0.75880 -0.06582
 C246 C 0.90374 0.77640 -0.05337
 H247 H 0.92457 0.82086 -0.02863
 H248 H 0.97920 0.84108 -0.07058
 H249 H 0.98735 0.81453 -0.10881
 H250 H 0.94349 0.75660 -0.12542
 H251 H 0.90554 0.74387 -0.09655
 H252 H 0.89613 0.78291 -0.03857
 C253 C 0.29922 0.33398 0.81543
 C254 C 0.29395 0.32163 0.83430
 C255 C 0.31116 0.30900 0.84469
 C256 C 0.33380 0.30834 0.83625
 C257 C 0.33914 0.32053 0.81769
 C258 C 0.32172 0.33369 0.80726
 C259 C 0.28564 0.34677 0.80141
 N260 N 0.29933 0.35453 0.78519
 C261 C 0.32143 0.34669 0.78854
 C262 C 0.36205 0.31533 0.81270
 N263 N 0.37045 0.30030 0.82772
 C264 C 0.35335 0.29609 0.84220
 C265 C 0.30115 0.29869 0.86244
 N266 N 0.27827 0.30486 0.86307
 C267 C 0.27370 0.31878 0.84588
 H268 H 0.26704 0.34989 0.80269
 H269 H 0.33593 0.34947 0.77775
 H270 H 0.37155 0.32135 0.79878
 H271 H 0.35480 0.28429 0.85571
 H272 H 0.30991 0.28769 0.87408
 H273 H 0.25691 0.32653 0.84221
 C274 C 0.17997 0.57107 0.53958
 C275 C 0.19722 0.58837 0.53672
 C276 C 0.21641 0.58925 0.55062
 C277 C 0.21847 0.57352 0.56760
 C278 C 0.20142 0.55683 0.57066
 C279 C 0.18224 0.55553 0.55652
 C280 C 0.16021 0.56439 0.52792
 N281 N 0.15088 0.54527 0.53750
 C282 C 0.16415 0.53993 0.55499
 C283 C 0.20797 0.54392 0.58836
 N284 N 0.22863 0.55258 0.59598
 C285 C 0.23524 0.57059 0.58333
 C286 C 0.23098 0.60661 0.54380
 N287 N 0.22113 0.61662 0.52627
 C288 C 0.20042 0.60579 0.52169
 H289 H 0.15363 0.57227 0.51326
 H290 H 0.16124 0.52520 0.56549
 H291 H 0.19839 0.52946 0.59521
 H292 H 0.25095 0.58104 0.58564
 H293 H 0.24765 0.61162 0.55101
 H294 H 0.18897 0.60988 0.50823
 C295 C 0.58780 0.68046 0.08596
 C296 C 0.56802 0.66715 0.09114
 C297 C 0.55377 0.67439 0.10775
 C298 C 0.55883 0.69510 0.11911
 C299 C 0.57823 0.70839 0.11388
 C300 C 0.59307 0.70087 0.09734
 C301 C 0.60238 0.67955 0.06857
 N302 N 0.61651 0.69866 0.06920
 C303 C 0.61113 0.71182 0.08676
 C304 C 0.57698 0.72894 0.12560
 N305 N 0.55742 0.72821 0.13779
 C306 C 0.54625 0.70759 0.13398
 C307 C 0.53442 0.66007 0.10751
 N308 N 0.53646 0.64442 0.09104
 C309 C 0.55699 0.64851 0.08092
 H310 H 0.60160 0.66685 0.05548
 H311 H 0.61819 0.72907 0.09031
 H312 H 0.58909 0.74353 0.12497
 H313 H 0.52974 0.70241 0.14092
 H314 H 0.51928 0.66179 0.11776
 H315 H 0.56286 0.63946 0.06654
 C316 C 0.67726 0.20052 0.66789
 C317 C 0.66143 0.20045 0.68471
 C318 C 0.66115 0.18237 0.69933
 C319 C 0.67668 0.16371 0.69679
 C320 C 0.69316 0.16420 0.68040
 C321 C 0.69354 0.18293 0.66577
 C322 C 0.68382 0.21860 0.65509
 N323 N 0.70374 0.21279 0.64499
 C324 C 0.70998 0.19090 0.65117
 C325 C 0.70925 0.14711 0.68508
 N326 N 0.70261 0.13609 0.70337
 C327 C 0.68283 0.14611 0.71070
 C328 C 0.64943 0.19047 0.71729
 N329 N 0.64335 0.21298 0.71371
 C330 C 0.65015 0.21900 0.69376
 H331 H 0.67548 0.23552 0.65427
 H332 H 0.72608 0.18230 0.64676
 H333 H 0.72551 0.14406 0.67673
 H334 H 0.67487 0.14242 0.72609
 H335 H 0.64815 0.18180 0.73269
 H336 H 0.64940 0.23652 0.68736
 C337 C 1.09186 0.05133 0.18493
 C338 C 1.07155 0.06149 0.19388
 C339 C 1.05055 0.05981 0.18250
 C340 C 1.04933 0.04886 0.16235
 C341 C 1.06895 0.03897 0.15352
 C342 C 1.09030 0.04022 0.16486
 C343 C 1.11501 0.04943 0.19177
 N344 N 1.12710 0.03761 0.17629
 C345 C 1.11209 0.03211 0.15987
 C346 C 1.06247 0.03014 0.13345
 N347 N 1.03945 0.03502 0.13002
 C348 C 1.03132 0.04636 0.14770
 C349 C 1.03364 0.07061 0.19425
 N350 N 1.04350 0.07925 0.21257
 C351 C 1.06674 0.07405 0.21266
 H352 H 1.12240 0.05599 0.20684
 H353 H 1.11668 0.02262 0.14530
 H354 H 1.07387 0.02166 0.12198
 H355 H 1.01366 0.05276 0.14961
 H356 H 1.01540 0.07243 0.18967
 H357 H 1.07907 0.07892 0.22536
 C358 C 0.05948 0.16899 1.04119
 C359 C 0.06683 0.19206 1.04524
 C360 C 0.06134 0.20312 1.06456
 C361 C 0.04853 0.19113 1.08017
 C362 C 0.04112 0.16846 1.07598
 C363 C 0.04644 0.15743 1.05641
 C364 C 0.06376 0.15324 1.02468
 N365 N 0.05330 0.13263 1.02958
 C366 C 0.04266 0.13506 1.04893
 C367 C 0.03065 0.16041 1.09424
 N368 N 0.03152 0.17756 1.10955
 C369 C 0.04238 0.19653 1.10112
 C370 C 0.07235 0.22457 1.06475
 N371 N 0.08443 0.22666 1.04613
 C372 C 0.08109 0.20692 1.03409
 H373 H 0.07401 0.15638 1.01039
 H374 H 0.03352 0.12131 1.05732
 H375 H 0.02340 0.14305 1.09640
 H376 H 0.04608 0.21275 1.10970
 H377 H 0.07260 0.23717 1.07794
 H378 H 0.08930 0.20315 1.01879
 C379 C 0.17582 0.70546 0.66551
 C380 C 0.19684 0.70402 0.65408
 C381 C 0.21302 0.68688 0.65905
 C382 C 0.20836 0.67088 0.67558
 C383 C 0.18776 0.67270 0.68704
 C384 C 0.17136 0.68997 0.68194
 C385 C 0.15662 0.71976 0.66368
 N386 N 0.14066 0.71331 0.67861
 C387 C 0.14953 0.69512 0.68991
 C388 C 0.18777 0.65528 0.70208
 N389 N 0.20766 0.64268 0.70000
 C390 C 0.22044 0.65196 0.68379
 C391 C 0.23150 0.68964 0.64517
 N392 N 0.22688 0.70793 0.63199
 C393 C 0.20570 0.71680 0.63729
 H394 H 0.15429 0.73368 0.65216
 H395 H 0.14064 0.68604 0.70271
 H396 H 0.17409 0.65183 0.71360
 H397 H 0.23722 0.64555 0.67848
 H398 H 0.24706 0.67896 0.64454
 H399 H 0.19728 0.73138 0.62946
 C400 C 1.18463 0.16712 0.18885
 C401 C 1.16404 0.17864 0.19444
 C402 C 1.15546 0.19638 0.18161
 C403 C 1.16767 0.20290 0.16299
 C404 C 1.18800 0.19137 0.15746
 C405 C 1.19659 0.17356 0.17056
 C406 C 1.19693 0.14934 0.19836
 N407 N 1.21615 0.14517 0.18634
 C408 C 1.21616 0.15988 0.16935
 C409 C 1.19618 0.20101 0.13874
 N410 N 1.18150 0.21842 0.13288
 C411 C 1.16402 0.21973 0.14760
 C412 C 1.13497 0.20396 0.19090
 N413 N 1.13124 0.19129 0.20900
 C414 C 1.14896 0.17587 0.21131
 H415 H 1.19245 0.14033 0.21305
 H416 H 1.22939 0.16047 0.15698
 H417 H 1.21188 0.19598 0.13030
 H418 H 1.14969 0.23203 0.14716
 H419 H 1.12357 0.21750 0.18486
 H420 H 1.15051 0.16324 0.22414
 C421 C 0.68027 1.04382 0.58087
 C422 C 0.70248 1.03755 0.58864
 C423 C 0.72203 1.04847 0.58061
 C424 C 0.71966 1.06631 0.56563
 C425 C 0.69779 1.07371 0.55878
 C426 C 0.67779 1.06167 0.56596
 C427 C 0.65826 1.03664 0.58644
 N428 N 0.64239 1.04898 0.57489
 C429 C 0.65405 1.06464 0.56256
 C430 C 0.70099 1.09571 0.54988
 N431 N 0.72412 1.10143 0.55176
 C432 C 0.73548 1.08315 0.56060
 C433 C 0.74049 1.04367 0.59417
 N434 N 0.73266 1.03048 0.61057
 C435 C 0.70948 1.02614 0.60716
 H436 H 0.65406 1.02294 0.59772
 H437 H 0.64590 1.07706 0.55182
 H438 H 0.68729 1.10765 0.54515
 H439 H 0.75368 1.08328 0.56572
 H440 H 0.75765 1.05178 0.59368
 H441 H 0.69798 1.01806 0.61871
 C442 C 0.53165 0.54563 0.17885
 C443 C 0.55191 0.54328 0.19149
 C444 C 0.56214 0.56259 0.20156
 C445 C 0.55176 0.58473 0.19921
 C446 C 0.53202 0.58698 0.18610
 C447 C 0.52196 0.56737 0.17578
 C448 C 0.51916 0.52991 0.16633
 N449 N 0.50224 0.54160 0.15549
 C450 C 0.50380 0.56460 0.16102
 C451 C 0.52649 0.61023 0.18555
 N452 N 0.54192 0.62224 0.19828
 C453 C 0.55755 0.60694 0.20672
 C454 C 0.58302 0.55507 0.21062
 N455 N 0.58545 0.53189 0.20600
 C456 C 0.56641 0.52462 0.19451
 H457 H 0.52278 0.51144 0.16447
 H458 H 0.49294 0.57828 0.15443
 H459 H 0.51215 0.61791 0.17657
 H460 H 0.57223 0.61167 0.21712
 H461 H 0.59602 0.56590 0.21881
 H462 H 0.56391 0.50721 0.18779
 C463 C 0.65829 0.67765 0.18520
 C464 C 0.66866 0.65542 0.18399
 C465 C 0.68193 0.64955 0.16615
 C466 C 0.68559 0.66563 0.14974
 C467 C 0.67640 0.68786 0.15138
 C468 C 0.66232 0.69379 0.16907
 C469 C 0.64565 0.68888 0.20107
 N470 N 0.64182 0.71126 0.19486
 C471 C 0.65221 0.71448 0.17550
 C472 C 0.68731 0.70116 0.13593
 N473 N 0.70245 0.68732 0.12497
 C474 C 0.70146 0.66559 0.13321
 C475 C 0.69423 0.62987 0.17105
 N476 N 0.68918 0.62357 0.19145
 C477 C 0.67328 0.63879 0.19954
 H478 H 0.63993 0.68141 0.21611
 H479 H 0.65239 0.73074 0.16670
 H480 H 0.68579 0.71988 0.13398
 H481 H 0.71320 0.65150 0.12900
 H482 H 0.70810 0.62237 0.16147
 H483 H 0.66805 0.63960 0.21629
 C484 C 0.16947 0.06108 1.05349
 C485 C 0.17757 0.08411 1.05238
 C486 C 0.19752 0.09111 1.06368
 C487 C 0.20959 0.07474 1.07654
 C488 C 0.20141 0.05184 1.07747
 C489 C 0.18118 0.04503 1.06599
 C490 C 0.15041 0.04992 1.04433
 N491 N 0.15012 0.02747 1.05115
 C492 C 0.16886 0.02425 1.06444
 C493 C 0.21645 0.03961 1.09050
 N494 N 0.23346 0.05437 1.09776
 C495 C 0.22954 0.07592 1.08945
 C496 C 0.20107 0.11449 1.05891
 N497 N 0.18370 0.12145 1.04519
 C498 C 0.16930 0.10298 1.04126
 H499 H 0.13734 0.05778 1.03397
 H500 H 0.17301 0.00812 1.07258
 H501 H 0.21525 0.02123 1.09438
 H502 H 0.24054 0.09113 1.09232
 H503 H 0.21525 0.12550 1.06486
 H504 H 0.15402 0.10317 1.03077
 C505 C 0.59517 0.21770 0.59894
 C506 C 0.57995 0.22066 0.61639
 C507 C 0.56207 0.20481 0.61955
 C508 C 0.55866 0.18631 0.60497
 C509 C 0.57347 0.18328 0.58758
 C510 C 0.59224 0.19901 0.58465
 C511 C 0.61283 0.23150 0.59118
 N512 N 0.62104 0.22168 0.57274
 C513 C 0.60862 0.20178 0.56850
 C514 C 0.56407 0.16525 0.57513
 N515 N 0.54403 0.15780 0.58459
 C516 C 0.54073 0.17050 0.60284
 C517 C 0.54927 0.21248 0.63692
 N518 N 0.55885 0.23281 0.64422
 C519 C 0.57753 0.23806 0.63175
 H520 H 0.61873 0.24805 0.59801
 H521 H 0.61040 0.19099 0.55415
 H522 H 0.57064 0.15888 0.55984
 H523 H 0.52578 0.16897 0.61333
 H524 H 0.53367 0.20437 0.64328
 H525 H 0.58835 0.25358 0.63355
 C526 C 0.09392 0.56575 0.65893
 C527 C 0.07794 0.58375 0.66215
 C528 C 0.05821 0.58503 0.64920
 C529 C 0.05463 0.56877 0.63245
 C530 C 0.07042 0.55084 0.62906
 C531 C 0.09017 0.54899 0.64284
 C532 C 0.11106 0.55779 0.67245
 N533 N 0.11787 0.53652 0.66541
 C534 C 0.10536 0.53081 0.64727
 C535 C 0.06111 0.53692 0.61258
 N536 N 0.04031 0.54621 0.60616
 C537 C 0.03613 0.56539 0.61848
 C538 C 0.04311 0.60024 0.65910
 N539 N 0.05333 0.60817 0.67765
 C540 C 0.07469 0.59838 0.67964
 H541 H 0.11636 0.56569 0.68774
 H542 H 0.10538 0.51379 0.63946
 H543 H 0.06880 0.52124 0.60586
 H544 H 0.02077 0.57629 0.61722
 H545 H 0.02511 0.60341 0.65438
 H546 H 0.08569 0.59957 0.69398
 C547 C 0.64428 0.54634 0.09191
 C548 C 0.66563 0.54291 0.10252
 C549 C 0.68526 0.55548 0.09674
 C550 C 0.68348 0.57188 0.07995
 C551 C 0.66212 0.57554 0.06951
 C552 C 0.64232 0.56238 0.07545
 C553 C 0.62350 0.53443 0.09313
 N554 N 0.60874 0.54255 0.07775
 C555 C 0.61995 0.55975 0.06680
 C556 C 0.66618 0.59092 0.05282
 N557 N 0.68935 0.59633 0.05275
 C558 C 0.70002 0.58470 0.06912
 C559 C 0.70383 0.54662 0.10873
 N560 N 0.69558 0.52907 0.12126
 C561 C 0.67234 0.52667 0.11744
 H562 H 0.61973 0.52009 0.10385
 H563 H 0.61280 0.56890 0.05304
 H564 H 0.65358 0.59647 0.04078
 H565 H 0.71868 0.58476 0.07231
 H566 H 0.72204 0.55173 0.10763
 H567 H 0.66127 0.51344 0.12451
 C568 C 0.05842 0.69481 0.57667
 C569 C 0.07949 0.69881 0.56574
 C570 C 0.08439 0.68655 0.54684
 C571 C 0.06817 0.66999 0.53864
 C572 C 0.04733 0.66647 0.54937
 C573 C 0.04251 0.67877 0.56838
 C574 C 0.04895 0.70377 0.59547
 N575 N 0.02783 0.69330 0.59858
 C576 C 0.02377 0.67810 0.58202
 C577 C 0.03434 0.65055 0.53769
 N578 N 0.04674 0.64396 0.52021
 C579 C 0.06754 0.65558 0.52051
 C580 C 0.10565 0.69475 0.53952
 N581 N 0.11357 0.71158 0.55349
 C582 C 0.09777 0.71404 0.56956
 H583 H 0.05705 0.71653 0.60626
 H584 H 0.00842 0.66702 0.58024
 H585 H 0.01692 0.64437 0.54145
 H586 H 0.08077 0.65418 0.50820
 H587 H 0.11444 0.68918 0.52497
 H588 H 0.09927 0.72639 0.58288
 C589 C 0.55112 1.05351 0.67548
 C590 C 0.57237 1.05030 0.68617
 C591 C 0.58176 1.06786 0.69879
 C592 C 0.56961 1.08887 0.70119
 C593 C 0.54842 1.09273 0.69051
 C594 C 0.53933 1.07469 0.67651
 C595 C 0.53887 1.03847 0.66242
 N596 N 0.52025 1.04972 0.65397
 C597 C 0.52026 1.07207 0.66221
 C598 C 0.54051 1.11446 0.69825
 N599 N 0.55641 1.12302 0.71313
 C600 C 0.57424 1.10753 0.71436
 C601 C 0.60291 1.05992 0.70680
 N602 N 0.60651 1.03803 0.69879
 C603 C 0.58781 1.03198 0.68627
 H604 H 0.54394 1.02074 0.65843
 H605 H 0.50730 1.08517 0.65845
 H606 H 0.52404 1.12265 0.69419
 H607 H 0.58931 1.10906 0.72506
 H608 H 0.61504 1.06961 0.71710
 H609 H 0.58582 1.01561 0.67748
 C610 C 0.43357 0.34902 0.94304
 C611 C 0.44441 0.32956 0.93320
 C612 C 0.43270 0.30820 0.93197
 C613 C 0.41059 0.30566 0.94113
 C614 C 0.40007 0.32464 0.95077
 C615 C 0.41133 0.34635 0.95128
 C616 C 0.43971 0.37241 0.94607
 N617 N 0.42131 0.38360 0.95535
 C618 C 0.40404 0.36768 0.95848
 C619 C 0.37889 0.31732 0.95851
 N620 N 0.37633 0.29424 0.95384
 C621 C 0.39553 0.28693 0.94303
 C622 C 0.44636 0.29290 0.92051
 N623 N 0.46620 0.30423 0.91496
 C624 C 0.46535 0.32656 0.92270
 H625 H 0.45587 0.38070 0.94125
 H626 H 0.38721 0.37134 0.96560
 H627 H 0.36631 0.32801 0.96695
 H628 H 0.39840 0.26927 0.93723
 H629 H 0.44215 0.27492 0.91634
 H630 H 0.47863 0.33980 0.92020
 C631 C 0.94961 0.41406 0.31782
 C632 C 0.94050 0.39757 0.30281
 C633 C 0.91787 0.40003 0.29493
 C634 C 0.90389 0.41851 0.30216
 C635 C 0.91267 0.43447 0.31714
 C636 C 0.93573 0.43233 0.32493
 C637 C 0.97107 0.41659 0.32811
 N638 N 0.97049 0.43583 0.34125
 C639 C 0.94889 0.44552 0.33938
 C640 C 0.89513 0.45026 0.32132
 N641 N 0.87603 0.44430 0.30914
 C642 C 0.88122 0.42490 0.29737
 C643 C 0.91360 0.38196 0.28059
 N644 N 0.93289 0.36831 0.27966
 C645 C 0.94948 0.37763 0.29320
 H646 H 0.98597 0.40517 0.32625
 H647 H 0.94304 0.46099 0.34793
 H648 H 0.89619 0.46506 0.33235
 H649 H 0.86940 0.41603 0.28618
 H650 H 0.89747 0.37877 0.27167
 H651 H 0.96677 0.37050 0.29580
 C652 C 0.30182 0.94784 0.40353
 C653 C 0.30209 0.93567 0.42299
 C654 C 0.32030 0.93877 0.43771
 C655 C 0.33839 0.95476 0.43312
 C656 C 0.33789 0.96695 0.41383
 C657 C 0.31961 0.96329 0.39880
 C658 C 0.28625 0.94785 0.38651
 N659 N 0.29418 0.96275 0.37129
 C660 C 0.31460 0.97244 0.37867
 C661 C 0.35665 0.98207 0.41414
 N662 N 0.36861 0.97953 0.43305
 C663 C 0.35770 0.96273 0.44474
 C664 C 0.31519 0.92498 0.45536
 N665 N 0.29432 0.91411 0.45148
 C666 C 0.28624 0.92059 0.43182
 H667 H 0.27040 0.93742 0.38518
 H668 H 0.32509 0.98502 0.37007
 H669 H 0.36099 0.99441 0.40164
 H670 H 0.36292 0.95721 0.46074
 H671 H 0.32533 0.92369 0.47016
 H672 H 0.26973 0.91502 0.42465
 O673 O 0.18977 0.51609 0.72454
 O674 O 0.19207 0.50504 0.76198
 O675 O 0.25115 0.55872 0.71604
 O676 O 0.29008 0.55437 0.72474
 O677 O 0.23606 0.50380 0.67093
 O678 O 0.24253 0.46207 0.67258
 O679 O 0.30913 0.48782 0.76978
 O680 O 0.30023 0.52746 0.77143
 O681 O 0.24615 0.45207 0.78229
 O682 O 0.20444 0.45578 0.76482
 O683 O 0.28759 0.43300 0.73170
 O684 O 0.29060 0.44778 0.69272
 O685 O 0.31547 0.46623 0.73936
 O686 O 0.31415 0.47278 0.70084
 O687 O 0.25347 0.42627 0.74911
 O688 O 0.21510 0.43066 0.74119
 O689 O 0.27267 0.48022 0.79184
 O690 O 0.26429 0.52219 0.79076
 O691 O 0.19808 0.49594 0.69365
 O692 O 0.20878 0.45554 0.69089
 O693 O 0.26207 0.53194 0.68176
 O694 O 0.30004 0.53135 0.69739
 O695 O 0.21867 0.55102 0.73574
 O696 O 0.21824 0.53570 0.77192
 Zr697 Zr 0.22103 0.51547 0.74304
 O698 O 0.23928 0.49248 0.76329
 Zr699 Zr 0.26860 0.52601 0.71448
 O700 O 0.28856 0.50256 0.73302
 Zr701 Zr 0.23210 0.48337 0.69897
 O702 O 0.24961 0.45832 0.71787
 Zr703 Zr 0.27510 0.50105 0.76432
 O704 O 0.25635 0.52618 0.74627
 Zr705 Zr 0.23740 0.45891 0.74974
 O706 O 0.21759 0.48151 0.73008
 Zr707 Zr 0.28485 0.46809 0.72095
 O708 O 0.26777 0.49224 0.70050
 O709 O 0.23355 0.51710 0.71165
 O710 O 0.27289 0.46687 0.75247
 C711 C 0.18419 0.50748 0.70585
 C712 C 0.23203 0.56496 0.72536
 C713 C 0.24922 0.52170 0.66740
 C714 C 0.32188 0.47460 0.75777
 C715 C 0.26006 0.46224 0.79599
 C716 C 0.27344 0.41975 0.74216
 H717 H 0.23242 0.49322 0.77788
 H718 H 0.24755 0.44260 0.71131
 H719 H 0.22470 0.52813 0.70252
 H720 H 0.30508 0.50782 0.73324
 H721 H 0.29252 0.54260 0.76862
 H722 H 0.30282 0.54794 0.73379
 H723 H 0.20782 0.43482 0.72718
 H724 H 0.20122 0.45885 0.67673
 H725 H 0.27597 0.52057 0.80262
 H726 H 0.20447 0.54611 0.77082
 H727 H 0.27936 0.43456 0.69256
 H728 H 0.25867 0.46677 0.66886
 H729 H 0.17980 0.51720 0.76125
 H730 H 0.20543 0.46397 0.77896
 H731 H 0.30219 0.51740 0.68804
 H732 H 0.32188 0.48760 0.70533
 O733 O 0.32872 0.00890 0.26969
 O734 O 0.31582 0.04736 0.26967
 O735 O 0.26220 -0.02692 0.28337
 O736 O 0.22750 -0.03249 0.26671
 O737 O 0.30824 -0.05517 0.23342
 O738 O 0.32055 -0.04563 0.20136
 O739 O 0.21334 0.03019 0.21456
 O740 O 0.21118 0.02565 0.25133
 O741 O 0.27796 0.06706 0.20447
 O742 O 0.31616 0.06260 0.21582
 O743 O 0.26082 0.00790 0.16730
 O744 O 0.26558 -0.03213 0.17161
 O745 O 0.22329 0.00425 0.18815
 O746 O 0.23425 -0.03829 0.19102
 O747 O 0.28519 0.03841 0.17525
 O748 O 0.32625 0.03576 0.19318
 O749 O 0.24234 0.06327 0.22005
 O750 O 0.23922 0.05568 0.25968
 O751 O 0.33804 -0.01936 0.24516
 O752 O 0.33867 -0.01335 0.20486
 O753 O 0.27535 -0.05858 0.25342
 O754 O 0.23462 -0.05236 0.23920
 O755 O 0.28994 0.00042 0.29182
 O756 O 0.27837 0.04249 0.28359
 Zr757 Zr 0.29408 0.01806 0.26218
 O758 O 0.27842 0.03978 0.23891
 Zr759 Zr 0.25861 -0.02613 0.24960
 O760 O 0.24031 -0.00562 0.22709
 Zr761 Zr 0.30877 -0.02024 0.22371
 O762 O 0.29228 -0.00087 0.19910
 Zr763 Zr 0.24315 0.03013 0.23489
 O764 O 0.25835 0.00923 0.25945
 Zr765 Zr 0.29326 0.03446 0.20840
 O766 O 0.31131 0.01530 0.23227
 Zr767 Zr 0.25642 -0.00898 0.19695
 O768 O 0.27373 -0.03125 0.21907
 O769 O 0.29364 -0.01728 0.25391
 O770 O 0.25790 0.02642 0.20450
 C771 C 0.34302 -0.00580 0.26134
 C772 C 0.27578 -0.01618 0.29691
 C773 C 0.29423 -0.06681 0.24533
 C774 C 0.20910 0.01893 0.19682
 C775 C 0.25765 0.07472 0.20921
 C776 C 0.27215 0.02643 0.16214
 H777 H 0.28005 0.05631 0.24364
 H778 H 0.29995 -0.00369 0.18508
 H779 H 0.30180 -0.02704 0.26470
 H780 H 0.22372 -0.01060 0.22669
 H781 H 0.21528 0.02082 0.26620
 H782 H 0.21733 -0.01887 0.26414
 H783 H 0.32555 0.02544 0.18026
 H784 H 0.34643 0.00070 0.21117
 H785 H 0.22577 0.06568 0.25569
 H786 H 0.28487 0.04046 0.29835
 H787 H 0.27371 -0.04545 0.17840
 H788 H 0.31144 -0.04337 0.18788
 H789 H 0.32134 0.04617 0.28487
 H790 H 0.32280 0.05937 0.23030
 H791 H 0.24215 -0.06105 0.22726
 H792 H 0.22017 -0.03658 0.20001
 O793 O 0.48584 0.81785 0.29354
 O794 O 0.48301 0.82212 0.25588
 O795 O 0.45910 0.74855 0.30467
 O796 O 0.46713 0.71169 0.29400
 O797 O 0.52289 0.77292 0.33443
 O798 O 0.56161 0.77219 0.32337
 O799 O 0.51319 0.71256 0.22605
 O800 O 0.47391 0.71550 0.23629
 O801 O 0.53832 0.77988 0.21488
 O802 O 0.53696 0.81525 0.23248
 O803 O 0.57547 0.73389 0.25196
 O804 O 0.57658 0.72308 0.28846
 O805 O 0.54409 0.70331 0.24774
 O806 O 0.54790 0.70004 0.28976
 O807 O 0.57238 0.77002 0.23732
 O808 O 0.56387 0.81027 0.25711
 O809 O 0.51270 0.74978 0.20954
 O810 O 0.47041 0.75392 0.22144
 O811 O 0.51857 0.81164 0.31396
 O812 O 0.56028 0.80513 0.30284
 O813 O 0.49689 0.74295 0.32978
 O814 O 0.49956 0.70466 0.30857
 O815 O 0.45439 0.78404 0.28896
 O816 O 0.45754 0.79014 0.24899
 Zr817 Zr 0.48569 0.78946 0.27171
 O818 O 0.50394 0.77852 0.24409
 Zr819 Zr 0.49294 0.73822 0.29590
 O820 O 0.50944 0.72433 0.26830
 Zr821 Zr 0.53297 0.77984 0.30267
 O822 O 0.55246 0.76665 0.27650
 Zr823 Zr 0.49919 0.74242 0.24037
 O824 O 0.47957 0.75342 0.26739
 Zr825 Zr 0.54017 0.78301 0.24849
 O826 O 0.52178 0.79735 0.27482
 Zr827 Zr 0.54551 0.73079 0.27120
 O828 O 0.52917 0.74318 0.29978
 O829 O 0.49718 0.77393 0.30000
 O830 O 0.53503 0.74742 0.24322
 C831 C 0.50048 0.82371 0.30857
 C832 C 0.44710 0.76694 0.30056
 C833 C 0.50848 0.75770 0.34171
 C834 C 0.53079 0.69983 0.23102
 C835 C 0.52796 0.76459 0.20283
 C836 C 0.58271 0.75025 0.23958
 H837 H 0.49829 0.78707 0.23125
 H838 H 0.56937 0.76956 0.27893
 H839 H 0.48848 0.78015 0.31250
 H840 H 0.50576 0.70746 0.26689
 H841 H 0.45984 0.72062 0.24419
 H842 H 0.46551 0.70745 0.27854
 H843 H 0.57883 0.80307 0.26160
 H844 H 0.56006 0.81371 0.31685
 H845 H 0.47050 0.74495 0.20765
 H846 H 0.44456 0.79946 0.25506
 H847 H 0.58059 0.73712 0.29721
 H848 H 0.56144 0.75507 0.32557
 H849 H 0.46872 0.83024 0.26086
 H850 H 0.52390 0.82351 0.23954
 H851 H 0.51417 0.70591 0.31727
 H852 H 0.53595 0.68890 0.28413
 O853 O -0.00130 0.67458 0.71523
 O854 O -0.04011 0.67605 0.72625
 O855 O 0.00595 0.73440 0.67429
 O856 O -0.00199 0.77308 0.67747
 O857 O 0.05883 0.72097 0.72074
 O858 O 0.06257 0.72743 0.75754
 O859 O -0.04710 0.79278 0.74171
 O860 O -0.05431 0.78094 0.70714
 O861 O -0.05432 0.73146 0.78022
 O862 O -0.03910 0.69465 0.77952
 O863 O 0.00344 0.77652 0.78940
 O864 O 0.03992 0.78300 0.77168
 O865 O -0.01297 0.80239 0.75898
 O866 O 0.02924 0.80105 0.74595
 O867 O -0.01732 0.74442 0.79908
 O868 O -0.00439 0.70108 0.79200
 O869 O -0.06834 0.75680 0.75526
 O870 O -0.07294 0.74524 0.71655
 O871 O 0.03421 0.68341 0.73039
 O872 O 0.03965 0.69714 0.76888
 O873 O 0.04502 0.74579 0.69517
 O874 O 0.02677 0.78519 0.69733
 O875 O -0.01437 0.70166 0.68332
 O876 O -0.05368 0.70397 0.70172
 Zr877 Zr -0.02012 0.70561 0.71684
 O878 O -0.03886 0.72348 0.74075
 Zr879 Zr 0.01010 0.75287 0.70365
 O880 O -0.00880 0.77323 0.72588
 Zr881 Zr 0.03054 0.71818 0.74211
 O882 O 0.01369 0.73805 0.76627
 Zr883 Zr -0.04192 0.75840 0.73159
 O884 O -0.02444 0.74016 0.70658
 Zr885 Zr -0.02022 0.72464 0.77015
 O886 O -0.00285 0.70366 0.74710
 Zr887 Zr 0.00842 0.77252 0.75598
 O888 O 0.02852 0.75362 0.73321
 O889 O 0.01363 0.71828 0.71235
 O890 O -0.02494 0.75939 0.76154
 C891 C 0.01960 0.66931 0.72092
 C892 C -0.00375 0.71462 0.66960
 C893 C 0.06121 0.73305 0.70346
 C894 C -0.03373 0.80714 0.75209
 C895 C -0.07029 0.74485 0.77268
 C896 C -0.00744 0.76421 0.80336
 H897 H -0.05436 0.71593 0.74238
 H898 H 0.02286 0.73759 0.77988
 H899 H 0.02252 0.70905 0.70165
 H900 H -0.01021 0.78925 0.72021
 H901 H -0.05227 0.77257 0.69321
 H902 H -0.01539 0.78221 0.68285
 H903 H 0.00721 0.70989 0.80090
 H904 H 0.05299 0.68708 0.76473
 H905 H -0.08584 0.75619 0.71985
 H906 H -0.05352 0.69213 0.68991
 H907 H 0.04599 0.76934 0.77957
 H908 H 0.06485 0.74438 0.75523
 H909 H -0.04143 0.66494 0.71386
 H910 H -0.03817 0.68348 0.76725
 H911 H 0.04025 0.78655 0.70746
 H912 H 0.02013 0.80983 0.73508
 O913 O 0.01866 0.04836 0.01143
 O914 O -0.02085 0.04807 -0.00109
 O915 O 0.02449 -0.00827 0.05413
 O916 O 0.01660 -0.04685 0.05364
 O917 O 0.07437 0.00163 0.00527
 O918 O 0.07549 -0.00848 -0.03233
 O919 O -0.03419 -0.07026 -0.00705
 O920 O -0.03793 -0.05557 0.02727
 O921 O -0.04289 -0.01265 -0.04898
 O922 O -0.02729 0.02440 -0.05094
 O923 O 0.01428 -0.05824 -0.05803
 O924 O 0.05092 -0.06434 -0.04083
 O925 O -0.00224 -0.08142 -0.02608
 O926 O 0.04072 -0.08072 -0.01378
 O927 O -0.00656 -0.02658 -0.06856
 O928 O 0.00526 0.01636 -0.06583
 O929 O -0.05550 -0.03537 -0.02153
 O930 O -0.05633 -0.02013 0.01640
 O931 O 0.05034 0.03824 -0.00848
 O932 O 0.05659 0.02017 -0.04355
 O933 O 0.06250 -0.02127 0.03288
 O934 O 0.04358 -0.06059 0.03324
 O935 O 0.00345 0.02348 0.04386
 O936 O -0.03544 0.02338 0.02589
 Zr937 Zr -0.00271 0.01836 0.01056
 O938 O -0.02402 -0.00120 -0.01089
 Zr939 Zr 0.02700 -0.02864 0.02580
 O940 O 0.00587 -0.05032 0.00585
 Zr941 Zr 0.04524 0.00241 -0.01575
 O942 O 0.02589 -0.01864 -0.03769
 Zr943 Zr -0.02718 -0.03530 0.00072
 O944 O -0.00723 -0.01529 0.02333
 Zr945 Zr -0.00792 -0.00497 -0.04093
 O946 O 0.01212 0.01747 -0.02051
 Zr947 Zr 0.02068 -0.05220 -0.02497
 O948 O 0.04318 -0.03213 -0.00440
 O949 O 0.03083 0.00518 0.01473
 O950 O -0.01274 -0.03887 -0.02988
 C951 C 0.03833 0.05303 0.00253
 C952 C 0.01434 0.01129 0.05805
 C953 C 0.07791 -0.00879 0.02329
 C954 C -0.02250 -0.08533 -0.01789
 C955 C -0.05855 -0.02506 -0.03971
 C956 C 0.00302 -0.04647 -0.07223
 H957 H -0.03943 0.00646 -0.01237
 H958 H 0.03415 -0.01929 -0.05162
 H959 H 0.04042 0.01507 0.02466
 H960 H 0.00438 -0.06586 0.01253
 H961 H -0.03464 -0.04607 0.04044
 H962 H 0.00266 -0.05622 0.04944
 H963 H 0.01849 0.00811 -0.07260
 H964 H 0.04381 0.03086 -0.04773
 H965 H -0.06983 -0.03098 0.01464
 H966 H -0.03431 0.03692 0.03599
 H967 H 0.05764 -0.05092 -0.04860
 H968 H 0.07917 -0.02436 -0.02714
 H969 H -0.02059 0.06050 0.01022
 H970 H -0.02368 0.03701 -0.04034
 H971 H 0.05617 -0.06280 0.02258
 H972 H 0.03176 -0.08858 -0.00234
 O973 O 0.00699 0.56063 0.49085
 O974 O -0.03110 0.55156 0.47963
 O975 O 0.02581 0.50092 0.52996
 O976 O 0.02406 0.46164 0.52472
 O977 O 0.07457 0.52700 0.48566
 O978 O 0.07925 0.52298 0.44862
 O979 O -0.01550 0.43625 0.45777
 O980 O -0.02356 0.44406 0.49367
 O981 O -0.03589 0.49794 0.42371
 O982 O -0.02670 0.53721 0.42615
 O983 O 0.02829 0.46409 0.41306
 O984 O 0.06769 0.46745 0.43113
 O985 O 0.01984 0.43578 0.44118
 O986 O 0.06089 0.44441 0.45488
 O987 O 0.00044 0.49093 0.40532
 O988 O 0.00858 0.53644 0.41280
 O989 O -0.04331 0.46800 0.44656
 O990 O -0.04969 0.47544 0.48575
 O991 O 0.04325 0.55979 0.47596
 O992 O 0.05113 0.54905 0.43774
 O993 O 0.06542 0.49823 0.50929
 O994 O 0.05567 0.45683 0.50546
 O995 O -0.00041 0.52939 0.52187
 O996 O -0.03876 0.52032 0.50257
 Zr997 Zr -0.00569 0.52622 0.48815
 O998 O -0.02098 0.50582 0.46333
 Zr999 Zr 0.03270 0.48509 0.49984
 O1000 O 0.01850 0.46245 0.47610
 Zr1001 Zr 0.04614 0.52536 0.46345
 O1002 O 0.03286 0.50415 0.43780
 Zr1003 Zr -0.01693 0.47033 0.47067
 O1004 O -0.00344 0.49083 0.49673
 Zr1005 Zr -0.00312 0.51033 0.43425
 O1006 O 0.01050 0.53308 0.45844
 Zr1007 Zr 0.03479 0.46887 0.44645
 O1008 O 0.05080 0.48982 0.47082
 O1009 O 0.02980 0.52030 0.49280
 O1010 O -0.00053 0.47508 0.44132
 C1011 C 0.02622 0.57043 0.48519
 C1012 C 0.01253 0.51807 0.53527
 C1013 C 0.07899 0.51430 0.50229
 C1014 C 0.00034 0.42629 0.44639
 C1015 C -0.04831 0.48062 0.43006
 C1016 C 0.01297 0.47313 0.40032
 H1017 H -0.03768 0.51010 0.46187
 H1018 H 0.04125 0.50723 0.42425
 H1019 H 0.03683 0.53070 0.50401
 H1020 H 0.02041 0.44609 0.48077
 H1021 H -0.02330 0.45189 0.50802
 H1022 H 0.01510 0.44862 0.51793
 H1023 H 0.01825 0.52883 0.40162
 H1024 H 0.06291 0.56095 0.44236
 H1025 H -0.05996 0.46200 0.48175
 H1026 H -0.04070 0.53129 0.51491
 H1027 H 0.06845 0.48036 0.42067
 H1028 H 0.08412 0.50646 0.44968
 H1029 H -0.03424 0.56161 0.49243
 H1030 H -0.02621 0.54843 0.43843
 H1031 H 0.06851 0.45821 0.49495
 H1032 H 0.05414 0.43373 0.46565
 O1033 O 0.55644 0.05054 0.53689
 O1034 O 0.55981 0.05423 0.49794
 O1035 O 0.48875 0.07899 0.54998
 O1036 O 0.45122 0.07299 0.53730
 O1037 O 0.50745 0.01185 0.57446
 O1038 O 0.50678 -0.02669 0.55778
 O1039 O 0.44879 0.03065 0.46815
 O1040 O 0.45076 0.06820 0.48382
 O1041 O 0.51285 0.00779 0.45275
 O1042 O 0.55330 0.01063 0.47415
 O1043 O 0.47307 -0.03543 0.48913
 O1044 O 0.46144 -0.03459 0.52920
 O1045 O 0.44124 -0.00312 0.48594
 O1046 O 0.43475 -0.01178 0.52229
 O1047 O 0.50839 -0.02911 0.47370
 O1048 O 0.54521 -0.02326 0.48680
 O1049 O 0.48690 0.03770 0.45143
 O1050 O 0.48909 0.07621 0.46968
 O1051 O 0.54795 0.01747 0.55547
 O1052 O 0.54173 -0.02240 0.54205
 O1053 O 0.48153 0.04183 0.57269
 O1054 O 0.44385 0.03887 0.55377
 O1055 O 0.52494 0.08308 0.53537
 O1056 O 0.53090 0.08451 0.49668
 Zr1057 Zr 0.52788 0.05359 0.51518
 O1058 O 0.51504 0.03933 0.48588
 Zr1059 Zr 0.47636 0.04604 0.53910
 O1060 O 0.46169 0.03073 0.51077
 Zr1061 Zr 0.51637 0.00456 0.54198
 O1062 O 0.50414 -0.01201 0.51340
 Zr1063 Zr 0.47878 0.04416 0.48379
 O1064 O 0.49186 0.06112 0.51192
 Zr1065 Zr 0.51954 0.00311 0.48616
 O1066 O 0.53426 0.01740 0.51494
 Zr1067 Zr 0.46824 -0.00548 0.50938
 O1068 O 0.48002 0.00938 0.53933
 O1069 O 0.51193 0.04041 0.54249
 O1070 O 0.48382 0.00812 0.48210
 C1071 C 0.56109 0.03516 0.55131
 C1072 C 0.50817 0.09013 0.54741
 C1073 C 0.49418 0.02732 0.58330
 C1074 C 0.43680 0.01189 0.47112
 C1075 C 0.49978 0.02225 0.44241
 C1076 C 0.48994 -0.04148 0.47658
 H1077 H 0.52309 0.04672 0.47363
 H1078 H 0.50767 -0.02888 0.51424
 H1079 H 0.51852 0.04780 0.55575
 H1080 H 0.44471 0.03381 0.50994
 H1081 H 0.45552 0.08118 0.49368
 H1082 H 0.43986 0.06876 0.52573
 H1083 H 0.55095 -0.02385 0.50192
 H1084 H 0.54845 -0.02374 0.55684
 H1085 H 0.47921 0.07866 0.45662
 H1086 H 0.54325 0.09468 0.50321
 H1087 H 0.47488 -0.04532 0.52796
 H1088 H 0.49002 -0.02544 0.56146
 H1089 H 0.57029 0.06636 0.50441
 H1090 H 0.55162 0.02232 0.46259
 H1091 H 0.44471 0.02275 0.55938
 H1092 H 0.42941 0.00318 0.52859
 O1093 O 0.41085 0.54396 -0.02405
 O1094 O 0.42455 0.58033 -0.00807
 O1095 O 0.46902 0.50878 -0.04637
 O1096 O 0.50654 0.49821 -0.03233
 O1097 O 0.42191 0.47372 -0.00510
 O1098 O 0.41578 0.47283 0.03162
 O1099 O 0.52670 0.54065 0.03423
 O1100 O 0.52875 0.54571 -0.00232
 O1101 O 0.46817 0.57663 0.05686
 O1102 O 0.42988 0.58035 0.04678
 O1103 O 0.47691 0.50676 0.07430
 O1104 O 0.47181 0.46950 0.05734
 O1105 O 0.51475 0.50861 0.05262
 O1106 O 0.49939 0.46905 0.03758
 O1107 O 0.45730 0.54111 0.07656
 O1108 O 0.41558 0.54787 0.05926
 O1109 O 0.50232 0.57557 0.03842
 O1110 O 0.50353 0.57943 -0.00223
 O1111 O 0.39841 0.51231 -0.00531
 O1112 O 0.39781 0.50801 0.03533
 O1113 O 0.45580 0.47050 -0.02387
 O1114 O 0.49760 0.47071 -0.01333
 O1115 O 0.44816 0.54254 -0.04507
 O1116 O 0.46154 0.57905 -0.02590
 Zr1117 Zr 0.44494 0.54969 -0.01182
 O1118 O 0.46335 0.56195 0.01577
 Zr1119 Zr 0.47576 0.50041 -0.01384
 O1120 O 0.49655 0.51166 0.01267
 Zr1121 Zr 0.42692 0.50292 0.01489
 O1122 O 0.44585 0.51226 0.04303
 Zr1123 Zr 0.49730 0.54837 0.01525
 O1124 O 0.47951 0.53723 -0.01341
 Zr1125 Zr 0.44862 0.54877 0.04410
 O1126 O 0.42791 0.53952 0.01670
 Zr1127 Zr 0.48060 0.50063 0.04112
 O1128 O 0.46057 0.48788 0.01456
 O1129 O 0.44217 0.51346 -0.01357
 O1130 O 0.48286 0.53673 0.04391
 C1131 C 0.39554 0.52821 -0.01971
 C1132 C 0.45781 0.52559 -0.05539
 C1133 C 0.43519 0.46326 -0.01866
 C1134 C 0.52991 0.52457 0.04822
 C1135 C 0.48897 0.58393 0.05324
 C1136 C 0.46819 0.52382 0.08506
 H1137 H 0.46353 0.57926 0.01599
 H1138 H 0.43781 0.50599 0.05580
 H1139 H 0.43324 0.50771 -0.02634
 H1140 H 0.51257 0.50544 0.01112
 H1141 H 0.52432 0.54587 -0.01781
 H1142 H 0.51075 0.51437 -0.03632
 H1143 H 0.41567 0.53492 0.06972
 H1144 H 0.38394 0.50023 0.02860
 H1145 H 0.51799 0.58678 0.00378
 H1146 H 0.45303 0.58315 -0.03936
 H1147 H 0.45517 0.47066 0.06140
 H1148 H 0.42965 0.46268 0.03316
 H1149 H 0.41822 0.58482 -0.02240
 H1150 H 0.42191 0.58248 0.03268
 H1151 H 0.49099 0.45995 -0.00255
 H1152 H 0.51440 0.47268 0.03051
 O1153 O 0.77272 0.26870 0.45612
 O1154 O 0.73162 0.27074 0.46219
 O1155 O 0.80289 0.30809 0.50835
 O1156 O 0.80319 0.30833 0.54430
 O1157 O 0.82890 0.23858 0.49371
 O1158 O 0.81538 0.20103 0.50097
 O1159 O 0.73543 0.26406 0.57206
 O1160 O 0.74504 0.30132 0.56020
 O1161 O 0.70235 0.22690 0.52433
 O1162 O 0.70725 0.22387 0.48670
 O1163 O 0.75913 0.19565 0.55268
 O1164 O 0.80033 0.20101 0.55501
 O1165 O 0.75770 0.23166 0.57679
 O1166 O 0.80255 0.23107 0.57177
 O1167 O 0.73179 0.19190 0.52592
 O1168 O 0.73300 0.19627 0.48608
 O1169 O 0.70526 0.26161 0.54242
 O1170 O 0.71839 0.30012 0.53002
 O1171 O 0.79689 0.23793 0.46200
 O1172 O 0.78654 0.19930 0.47577
 O1173 O 0.83205 0.27210 0.51372
 O1174 O 0.82176 0.27701 0.55247
 O1175 O 0.77646 0.30594 0.48062
 O1176 O 0.73332 0.30270 0.48681
 Zr1177 Zr 0.75767 0.27477 0.48671
 O1178 O 0.73277 0.26036 0.50783
 Zr1179 Zr 0.79817 0.27735 0.52584
 O1180 O 0.77463 0.26417 0.54861
 Zr1181 Zr 0.79318 0.22980 0.49480
 O1182 O 0.77011 0.21421 0.51646
 Zr1183 Zr 0.74024 0.27201 0.53940
 O1184 O 0.76397 0.28813 0.51817
 Zr1185 Zr 0.73537 0.22379 0.50916
 O1186 O 0.75850 0.23784 0.48581
 Zr1187 Zr 0.77599 0.22759 0.54777
 O1188 O 0.80133 0.24082 0.52652
 O1189 O 0.79200 0.26598 0.49439
 O1190 O 0.74138 0.23561 0.54059
 C1191 C 0.78755 0.25332 0.44972
 C1192 C 0.79326 0.31615 0.49116
 C1193 C 0.84074 0.25565 0.50209
 C1194 C 0.74297 0.24692 0.58340
 C1195 C 0.69374 0.24343 0.53610
 C1196 C 0.74354 0.18396 0.54207
 H1197 H 0.71684 0.26502 0.50322
 H1198 H 0.77277 0.19719 0.51537
 H1199 H 0.80342 0.27277 0.48430
 H1200 H 0.77832 0.27059 0.56315
 H1201 H 0.75214 0.31379 0.55141
 H1202 H 0.79115 0.30837 0.55563
 H1203 H 0.74653 0.18592 0.48855
 H1204 H 0.79948 0.19712 0.46539
 H1205 H 0.70746 0.30348 0.54198
 H1206 H 0.73648 0.31305 0.47443
 H1207 H 0.80025 0.18994 0.54263
 H1208 H 0.82267 0.20376 0.51537
 H1209 H 0.73426 0.28263 0.45092
 H1210 H 0.71241 0.23362 0.47452
 H1211 H 0.82937 0.26151 0.55241
 H1212 H 0.79820 0.24391 0.58175
 O1213 O 0.74185 0.76531 -0.05914
 O1214 O 0.70548 0.76871 -0.04298
 O1215 O 0.79004 0.78395 -0.00721
 O1216 O 0.80135 0.77071 0.02463
 O1217 O 0.80202 0.72142 -0.04745
 O1218 O 0.78614 0.68466 -0.04936
 O1219 O 0.73467 0.72704 0.05497
 O1220 O 0.74387 0.76511 0.05068
 O1221 O 0.68570 0.71006 0.00419
 O1222 O 0.68462 0.71207 -0.03243
 O1223 O 0.74470 0.66494 0.01597
 O1224 O 0.78370 0.66552 0.00975
 O1225 O 0.75468 0.69373 0.04741
 O1226 O 0.79661 0.69152 0.02943
 O1227 O 0.70989 0.67312 -0.00016
 O1228 O 0.70708 0.68467 -0.04112
 O1229 O 0.69755 0.73152 0.03345
 O1230 O 0.71084 0.77326 0.02849
 O1231 O 0.76293 0.73331 -0.06875
 O1232 O 0.75304 0.69080 -0.06263
 O1233 O 0.81489 0.74605 -0.02080
 O1234 O 0.81472 0.73775 0.01988
 O1235 O 0.75832 0.79285 -0.02797
 O1236 O 0.71806 0.79001 -0.01200
 Zr1237 Zr 0.73728 0.76213 -0.02602
 O1238 O 0.71625 0.74221 -0.00542
 Zr1239 Zr 0.78612 0.74879 0.00060
 O1240 O 0.76658 0.73102 0.02402
 Zr1241 Zr 0.76729 0.71449 -0.03946
 O1242 O 0.74934 0.69324 -0.01736
 Zr1243 Zr 0.73180 0.74297 0.02524
 O1244 O 0.75269 0.76374 0.00485
 Zr1245 Zr 0.71554 0.70653 -0.01427
 O1246 O 0.73312 0.72721 -0.03726
 Zr1247 Zr 0.76367 0.69610 0.01412
 O1248 O 0.78445 0.71355 -0.00902
 O1249 O 0.77094 0.74922 -0.02993
 O1250 O 0.72943 0.70765 0.01692
 C1251 C 0.75210 0.75247 -0.07314
 C1252 C 0.77801 0.79813 -0.01868
 C1253 C 0.81785 0.73422 -0.03843
 C1254 C 0.74379 0.70762 0.06040
 C1255 C 0.68216 0.71945 0.02268
 C1256 C 0.72369 0.65953 0.01047
 H1257 H 0.70034 0.74896 -0.00524
 H1258 H 0.74928 0.67684 -0.02258
 H1259 H 0.78011 0.75859 -0.04023
 H1260 H 0.77448 0.73277 0.03826
 H1261 H 0.75069 0.77911 0.04384
 H1262 H 0.78924 0.77294 0.03573
 H1263 H 0.71491 0.66947 -0.03906
 H1264 H 0.73833 0.69774 -0.06810
 H1265 H 0.70270 0.77237 0.04252
 H1266 H 0.71967 0.80411 -0.02104
 H1267 H 0.78320 0.66185 -0.00589
 H1268 H 0.79539 0.67973 -0.03661
 H1269 H 0.70664 0.78403 -0.05027
 H1270 H 0.68668 0.72741 -0.03940
 H1271 H 0.82168 0.72410 0.01245
 H1272 H 0.79656 0.70041 0.04323
 O1273 O 1.04148 0.19433 0.25356
 O1274 O 1.02722 0.20406 0.28960
 O1275 O 0.98631 0.15290 0.22697
 O1276 O 0.94274 0.16010 0.22171
 O1277 O 1.01408 0.21010 0.19019
 O1278 O 1.00692 0.25168 0.19237
 O1279 O 0.91395 0.22299 0.26538
 O1280 O 0.92043 0.18219 0.26383
 O1281 O 0.96790 0.25519 0.29669
 O1282 O 1.00975 0.25434 0.29397
 O1283 O 0.94514 0.27752 0.23538
 O1284 O 0.95384 0.26310 0.19709
 O1285 O 0.91574 0.24462 0.23484
 O1286 O 0.92852 0.23834 0.19785
 O1287 O 0.96907 0.28319 0.26455
 O1288 O 1.00969 0.27976 0.26520
 O1289 O 0.94069 0.22600 0.29548
 O1290 O 0.94915 0.18419 0.29359
 O1291 O 1.04297 0.21690 0.22354
 O1292 O 1.03251 0.25763 0.22014
 O1293 O 0.98785 0.18009 0.19216
 O1294 O 0.94746 0.17877 0.19412
 O1295 O 1.01307 0.16004 0.25378
 O1296 O 0.99899 0.17312 0.28930
 Zr1297 Zr 1.00600 0.19479 0.26243
 O1298 O 0.98151 0.21664 0.27740
 Zr1299 Zr 0.96987 0.18542 0.22089
 O1300 O 0.94425 0.20771 0.23364
 Zr1301 Zr 1.00854 0.22914 0.21929
 O1302 O 0.98497 0.25296 0.23342
 Zr1303 Zr 0.94737 0.20757 0.26725
 O1304 O 0.97163 0.18334 0.25457
 Zr1305 Zr 0.98637 0.25107 0.26735
 O1306 O 1.01240 0.22959 0.25330
 Zr1307 Zr 0.95075 0.24261 0.22520
 O1308 O 0.97432 0.21978 0.20960
 O1309 O 1.00385 0.19486 0.22894
 O1310 O 0.95221 0.24232 0.25871
 C1311 C 1.05250 0.20376 0.23785
 C1312 C 1.00289 0.14653 0.23991
 C1313 C 1.00410 0.19138 0.18262
 C1314 C 0.90500 0.23711 0.25153
 C1315 C 0.95064 0.24358 0.30466
 C1316 C 0.95342 0.29015 0.25107
 H1317 H 0.98354 0.21521 0.29323
 H1318 H 0.98859 0.26900 0.22862
 H1319 H 1.01543 0.18435 0.22220
 H1320 H 0.92849 0.20240 0.22891
 H1321 H 0.92818 0.16682 0.26285
 H1322 H 0.94560 0.15024 0.23448
 H1323 H 1.02353 0.27389 0.25743
 H1324 H 1.04457 0.25500 0.20896
 H1325 H 0.93406 0.18498 0.30133
 H1326 H 1.01248 0.16265 0.29181
 H1327 H 0.96526 0.27577 0.20025
 H1328 H 0.99308 0.24694 0.18359
 H1329 H 1.03926 0.19186 0.29166
 H1330 H 1.02499 0.24812 0.28919
 H1331 H 0.94593 0.19381 0.18649
 H1332 H 0.92057 0.22302 0.19912
 O1333 O 0.75351 1.05773 0.73135
 O1334 O 0.79108 1.05225 0.74539
 O1335 O 0.73875 0.99873 0.69118
 O1336 O 0.73852 0.96015 0.69340
 O1337 O 0.68799 1.01898 0.73896
 O1338 O 0.68472 1.01945 0.77458
 O1339 O 0.78539 0.93542 0.75670
 O1340 O 0.79298 0.94593 0.72291
 O1341 O 0.80032 0.99485 0.79713
 O1342 O 0.78918 1.03294 0.79796
 O1343 O 0.73757 0.95594 0.80457
 O1344 O 0.70191 0.95503 0.78893
 O1345 O 0.75067 0.92848 0.77310
 O1346 O 0.70856 0.93600 0.75943
 O1347 O 0.76218 0.98527 0.81523
 O1348 O 0.75481 1.02978 0.81044
 O1349 O 0.81109 0.96917 0.77086
 O1350 O 0.81521 0.97963 0.73192
 O1351 O 0.71837 1.05437 0.74792
 O1352 O 0.71179 1.04017 0.78712
 O1353 O 0.69778 0.99356 0.71219
 O1354 O 0.71143 0.95166 0.71364
 O1355 O 0.76413 1.02803 0.70047
 O1356 O 0.80204 1.02324 0.72000
 Zr1357 Zr 0.76843 1.02496 0.73425
 O1358 O 0.78516 1.00484 0.75783
 Zr1359 Zr 0.73175 0.98199 0.72029
 O1360 O 0.74907 0.95920 0.74140
 Zr1361 Zr 0.71756 1.01919 0.75933
 O1362 O 0.73178 0.99624 0.78262
 Zr1363 Zr 0.78376 0.97005 0.74754
 O1364 O 0.76774 0.99021 0.72321
 Zr1365 Zr 0.76705 1.00542 0.78719
 O1366 O 0.75251 1.02909 0.76468
 Zr1367 Zr 0.73283 0.96125 0.77146
 O1368 O 0.71429 0.98350 0.74996
 O1369 O 0.73315 1.01693 0.72934
 O1370 O 0.76759 0.97044 0.77750
 C1371 C 0.73406 1.06612 0.73768
 C1372 C 0.75205 1.01605 0.68654
 C1373 C 0.68348 1.00769 0.72137
 C1374 C 0.77077 0.92189 0.76590
 C1375 C 0.81479 0.98051 0.78868
 C1376 C 0.75007 0.96671 0.81886
 H1377 H 0.80146 1.01054 0.75966
 H1378 H 0.72282 0.99736 0.79616
 H1379 H 0.72537 1.02697 0.71854
 H1380 H 0.74855 0.94327 0.73506
 H1381 H 0.79077 0.95405 0.70900
 H1382 H 0.75355 0.95239 0.69657
 H1383 H 0.74201 1.02231 0.81853
 H1384 H 0.72409 1.05244 0.78747
 H1385 H 0.82721 0.96770 0.73527
 H1386 H 0.80352 1.03567 0.70907
 H1387 H 0.69007 0.96590 0.78314
 H1388 H 0.68290 1.00393 0.78121
 H1389 H 0.79414 1.06323 0.73344
 H1390 H 0.79033 1.04385 0.78573
 H1391 H 0.69731 0.95266 0.72270
 H1392 H 0.71687 0.92543 0.74940
 O1393 O 0.73795 0.54390 0.22363
 O1394 O 0.77726 0.53444 0.23239
 O1395 O 0.71221 0.47882 0.19676
 O1396 O 0.71070 0.43880 0.21067
 O1397 O 0.67037 0.51636 0.24206
 O1398 O 0.67129 0.51936 0.27977
 O1399 O 0.75937 0.42729 0.27409
 O1400 O 0.76137 0.42581 0.23729
 O1401 O 0.78590 0.49133 0.29580
 O1402 O 0.78119 0.53019 0.28492
 O1403 O 0.72269 0.46694 0.31727
 O1404 O 0.68174 0.46817 0.30321
 O1405 O 0.72626 0.43199 0.29366
 O1406 O 0.68440 0.43999 0.28318
 O1407 O 0.74943 0.49652 0.31818
 O1408 O 0.74793 0.53532 0.30508
 O1409 O 0.79033 0.45876 0.27489
 O1410 O 0.78952 0.45742 0.23458
 O1411 O 0.70405 0.54816 0.24217
 O1412 O 0.70031 0.54639 0.28185
 O1413 O 0.67397 0.48300 0.22201
 O1414 O 0.68203 0.44266 0.22923
 O1415 O 0.73885 0.50855 0.19751
 O1416 O 0.77890 0.49900 0.21262
 Zr1417 Zr 0.74922 0.50996 0.23035
 O1418 O 0.76690 0.49368 0.25605
 Zr1419 Zr 0.70742 0.46967 0.22947
 O1420 O 0.72376 0.45128 0.25476
 Zr1421 Zr 0.70155 0.51723 0.26042
 O1422 O 0.71736 0.50075 0.28704
 Zr1423 Zr 0.76000 0.45761 0.25504
 O1424 O 0.74398 0.47353 0.22774
 Zr1425 Zr 0.75372 0.50529 0.28566
 O1426 O 0.73784 0.52387 0.26013
 Zr1427 Zr 0.71237 0.46440 0.28459
 O1428 O 0.69407 0.48110 0.25926
 O1429 O 0.71310 0.50539 0.23064
 O1430 O 0.74842 0.46931 0.28498
 C1431 C 0.71990 0.55561 0.22931
 C1432 C 0.72445 0.49475 0.18749
 C1433 C 0.66253 0.50111 0.22835
 C1434 C 0.74466 0.42057 0.28838
 C1435 C 0.79739 0.47323 0.28969
 C1436 C 0.73731 0.48048 0.32722
 H1437 H 0.78386 0.49701 0.25498
 H1438 H 0.71112 0.50737 0.30061
 H1439 H 0.70490 0.51374 0.21891
 H1440 H 0.72040 0.43438 0.25296
 H1441 H 0.75901 0.42982 0.22192
 H1442 H 0.72621 0.43947 0.20377
 H1443 H 0.74206 0.54759 0.29530
 H1444 H 0.68839 0.55750 0.27642
 H1445 H 0.79988 0.44452 0.23921
 H1446 H 0.77992 0.50815 0.19916
 H1447 H 0.68270 0.48343 0.31085
 H1448 H 0.66456 0.50340 0.28041
 H1449 H 0.77882 0.54220 0.21822
 H1450 H 0.77724 0.54108 0.27314
 H1451 H 0.67228 0.44526 0.24213
 H1452 H 0.68900 0.42705 0.27341
 O1453 O 0.58180 0.23602 0.77394
 O1454 O 0.57820 0.23271 0.81215
 O1455 O 0.52045 0.20566 0.74676
 O1456 O 0.48123 0.21050 0.75175
 O1457 O 0.54358 0.27420 0.72653
 O1458 O 0.54002 0.31115 0.73955
 O1459 O 0.46200 0.25586 0.81760
 O1460 O 0.47017 0.21753 0.80857
 O1461 O 0.52576 0.28316 0.84506
 O1462 O 0.56334 0.28500 0.83571
 O1463 O 0.48833 0.32117 0.79942
 O1464 O 0.48572 0.31889 0.75818
 O1465 O 0.45772 0.28802 0.79670
 O1466 O 0.46077 0.29394 0.75815
 O1467 O 0.51980 0.31825 0.82199
 O1468 O 0.56358 0.31102 0.81117
 O1469 O 0.49502 0.25785 0.84304
 O1470 O 0.50425 0.21571 0.83091
 O1471 O 0.57861 0.26933 0.75432
 O1472 O 0.56820 0.30978 0.76540
 O1473 O 0.51726 0.24430 0.72314
 O1474 O 0.47520 0.24345 0.73564
 O1475 O 0.55097 0.20360 0.77053
 O1476 O 0.54723 0.20493 0.81082
 Zr1477 Zr 0.54973 0.23396 0.78984
 O1478 O 0.53171 0.25046 0.81508
 Zr1479 Zr 0.50531 0.23849 0.75521
 O1480 O 0.48464 0.25416 0.77966
 Zr1481 Zr 0.54451 0.28164 0.75950
 O1482 O 0.52512 0.29954 0.78290
 Zr1483 Zr 0.49581 0.24431 0.81081
 O1484 O 0.51401 0.22574 0.78621
 Zr1485 Zr 0.53553 0.28676 0.81305
 O1486 O 0.55634 0.27024 0.78978
 Zr1487 Zr 0.48949 0.29066 0.77975
 O1488 O 0.50856 0.27518 0.75413
 O1489 O 0.54052 0.24551 0.75922
 O1490 O 0.49967 0.28040 0.81046
 C1491 C 0.58978 0.25123 0.76080
 C1492 C 0.53861 0.19534 0.75466
 C1493 C 0.53206 0.25905 0.71528
 C1494 C 0.45029 0.27345 0.81080
 C1495 C 0.50832 0.27261 0.85339
 C1496 C 0.50158 0.32880 0.81499
 H1497 H 0.53746 0.24469 0.82918
 H1498 H 0.52789 0.31654 0.78163
 H1499 H 0.54979 0.23796 0.74772
 H1500 H 0.46805 0.24977 0.77725
 H1501 H 0.47755 0.20422 0.80094
 H1502 H 0.47147 0.21080 0.76482
 H1503 H 0.55730 0.32580 0.80541
 H1504 H 0.57935 0.31064 0.75326
 H1505 H 0.49271 0.21544 0.84274
 H1506 H 0.55891 0.19306 0.80655
 H1507 H 0.49794 0.33064 0.76186
 H1508 H 0.52317 0.31185 0.73578
 H1509 H 0.58845 0.21943 0.80821
 H1510 H 0.57317 0.27177 0.83099
 H1511 H 0.47663 0.25923 0.72937
 H1512 H 0.45324 0.27839 0.75673
 O1513 O 0.19335 0.73714 0.51251
 O1514 O 0.18948 0.74908 0.47490
 O1515 O 0.26199 0.70540 0.51328
 O1516 O 0.29937 0.71511 0.51151
 O1517 O 0.24028 0.75976 0.56081
 O1518 O 0.24390 0.80159 0.55804
 O1519 O 0.30201 0.77747 0.45619
 O1520 O 0.29729 0.73657 0.45793
 O1521 O 0.23829 0.80777 0.44752
 O1522 O 0.19783 0.79924 0.46611
 O1523 O 0.28087 0.83268 0.49483
 O1524 O 0.29129 0.82215 0.53116
 O1525 O 0.31091 0.80203 0.48430
 O1526 O 0.31388 0.79543 0.52501
 O1527 O 0.24438 0.83482 0.48000
 O1528 O 0.20690 0.82588 0.48932
 O1529 O 0.26498 0.78053 0.43767
 O1530 O 0.25919 0.73758 0.44096
 O1531 O 0.20104 0.76341 0.53957
 O1532 O 0.20948 0.80553 0.54041
 O1533 O 0.26773 0.73354 0.55020
 O1534 O 0.30644 0.74203 0.53245
 O1535 O 0.22485 0.70688 0.49965
 O1536 O 0.21762 0.72061 0.46339
 Zr1537 Zr 0.22160 0.74237 0.49125
 O1538 O 0.23494 0.76613 0.46855
 Zr1539 Zr 0.27314 0.74024 0.51718
 O1540 O 0.28851 0.76348 0.49538
 Zr1541 Zr 0.23356 0.77879 0.53240
 O1542 O 0.24717 0.80404 0.51129
 Zr1543 Zr 0.27101 0.76115 0.46552
 O1544 O 0.25754 0.73586 0.48648
 Zr1545 Zr 0.23166 0.80036 0.48047
 O1546 O 0.21598 0.77685 0.50236
 Zr1547 Zr 0.28297 0.79801 0.50606
 O1548 O 0.26989 0.77442 0.52936
 O1549 O 0.23757 0.74458 0.52156
 O1550 O 0.26724 0.79568 0.47572
 C1551 C 0.18821 0.74758 0.53037
 C1552 C 0.24274 0.69571 0.50684
 C1553 C 0.25421 0.74260 0.56446
 C1554 C 0.31505 0.79290 0.46565
 C1555 C 0.25220 0.79833 0.43372
 C1556 C 0.26424 0.84388 0.48543
 H1557 H 0.22686 0.76399 0.45445
 H1558 H 0.24430 0.81981 0.51738
 H1559 H 0.23089 0.73265 0.53120
 H1560 H 0.30530 0.75976 0.49391
 H1561 H 0.29129 0.72110 0.46236
 H1562 H 0.30515 0.71791 0.49677
 H1563 H 0.20062 0.82093 0.50337
 H1564 H 0.20217 0.80172 0.55442
 H1565 H 0.26916 0.73985 0.42813
 H1566 H 0.20508 0.70895 0.46599
 H1567 H 0.27637 0.82810 0.53690
 H1568 H 0.26077 0.79898 0.56082
 H1569 H 0.17880 0.73553 0.47669
 H1570 H 0.19907 0.79147 0.45181
 H1571 H 0.30550 0.75412 0.54397
 H1572 H 0.32380 0.78330 0.51832
 O1573 O 0.26943 0.32178 0.99867
 O1574 O 0.26949 0.31263 1.03528
 O1575 O 0.28499 0.25375 0.96941
 O1576 O 0.26783 0.21852 0.96650
 O1577 O 0.22909 0.29781 0.94254
 O1578 O 0.19172 0.30441 0.95158
 O1579 O 0.21513 0.20757 1.02776
 O1580 O 0.25463 0.20671 1.02316
 O1581 O 0.19974 0.27333 1.05713
 O1582 O 0.21251 0.31102 1.05188
 O1583 O 0.16105 0.25121 1.00598
 O1584 O 0.16426 0.25016 0.96726
 O1585 O 0.18538 0.21373 1.00383
 O1586 O 0.18602 0.22301 0.96322
 O1587 O 0.16871 0.28015 1.03052
 O1588 O 0.18880 0.32058 1.02545
 O1589 O 0.21893 0.23866 1.05600
 O1590 O 0.26273 0.23740 1.04842
 O1591 O 0.24053 0.32865 0.97398
 O1592 O 0.19725 0.32842 0.98040
 O1593 O 0.25113 0.26490 0.94025
 O1594 O 0.23716 0.22359 0.94900
 O1595 O 0.29355 0.28343 0.99299
 O1596 O 0.28683 0.27546 1.03261
 Zr1597 Zr 0.26202 0.28830 1.00991
 O1598 O 0.23820 0.27383 1.03180
 Zr1599 Zr 0.24864 0.24952 0.97140
 O1600 O 0.22594 0.23195 0.99251
 Zr1601 Zr 0.21855 0.29876 0.97475
 O1602 O 0.19337 0.28288 0.99441
 Zr1603 Zr 0.23517 0.23801 1.02519
 O1604 O 0.26031 0.25214 1.00388
 Zr1605 Zr 0.20452 0.28715 1.02655
 O1606 O 0.22896 0.30434 1.00701
 Zr1607 Zr 0.19249 0.24643 0.98934
 O1608 O 0.21487 0.26293 0.96699
 O1609 O 0.25195 0.28501 0.97759
 O1610 O 0.20158 0.25117 1.02159
 C1611 C 0.25894 0.33474 0.98491
 C1612 C 0.29922 0.26851 0.97826
 C1613 C 0.24182 0.28335 0.93201
 C1614 C 0.19608 0.20136 1.01814
 C1615 C 0.20568 0.25380 1.06539
 C1616 C 0.15511 0.26489 1.02156
 H1617 H 0.24351 0.27685 1.04686
 H1618 H 0.17792 0.29003 0.99177
 H1619 H 0.26309 0.29281 0.96786
 H1620 H 0.22613 0.21506 0.98894
 H1621 H 0.27018 0.21101 1.01749
 H1622 H 0.26782 0.21033 0.98047
 H1623 H 0.17423 0.31922 1.01674
 H1624 H 0.20125 0.34064 0.96977
 H1625 H 0.25885 0.22525 1.05912
 H1626 H 0.30221 0.28302 1.03016
 H1627 H 0.15945 0.26673 0.96770
 H1628 H 0.18561 0.28878 0.94734
 H1629 H 0.28569 0.31865 1.03366
 H1630 H 0.22735 0.31875 1.04789
 H1631 H 0.22425 0.23050 0.94044
 H1632 H 0.19582 0.20903 0.96550
 N1633 N 0.26534 0.37842 0.74364
 N1634 N 0.27156 0.36032 0.75549
 C1635 C 0.29089 0.36687 0.76666
 C1636 C 0.29626 0.38973 0.76145
 N1637 N 0.27999 0.39620 0.74675
 H1638 H 0.30862 0.40132 0.76959
 N1639 N 0.31792 -0.10125 0.24035
 N1640 N 0.32253 -0.12120 0.25002
 C1641 C 0.30772 -0.12269 0.26676
 C1642 C 0.29362 -0.10317 0.26702
 N1643 N 0.30076 -0.09020 0.25028
 H1644 H 0.28086 -0.09804 0.27892
 N1645 N 0.79390 0.88990 0.75338
 N1646 N 0.79959 0.86825 0.75804
 C1647 C 0.78649 0.86209 0.77499
 C1648 C 0.77215 0.88077 0.78059
 N1649 N 0.77767 0.89787 0.76661
 H1650 H 0.76030 0.88232 0.79403
 N1651 N 0.50872 0.85134 0.33769
 N1652 N 0.50220 0.87228 0.34450
 C1653 C 0.48513 0.87940 0.33089
 C1654 C 0.48120 0.86210 0.31548
 N1655 N 0.49643 0.84495 0.32034
 H1656 H 0.46930 0.86226 0.30175
 N1657 N -0.06159 0.83803 0.74579
 N1658 N -0.06582 0.85974 0.75206
 C1659 C -0.04876 0.86556 0.76638
 C1660 C -0.03382 0.84689 0.76875
 N1661 N -0.04260 0.83007 0.75562
 H1662 H -0.01856 0.84538 0.77915
 N1663 N -0.05097 -0.11531 -0.00948
 N1664 N -0.05768 -0.13637 -0.01615
 C1665 C -0.04325 -0.14243 -0.03231
 C1666 C -0.02738 -0.12452 -0.03542
 N1667 N -0.03289 -0.10793 -0.02079
 H1668 H -0.01384 -0.12327 -0.04744
 N1669 N 0.00625 0.39551 0.42033
 N1670 N -0.00178 0.37449 0.41516
 C1671 C -0.01759 0.36895 0.43029
 C1672 C -0.01924 0.38720 0.44496
 N1673 N -0.00402 0.40342 0.43798
 H1674 H -0.03048 0.38883 0.45884
 N1675 N 0.50655 -0.07068 0.45297
 N1676 N 0.50252 -0.09198 0.44527
 C1677 C 0.48156 -0.09864 0.45283
 C1678 C 0.47267 -0.08061 0.46552
 N1679 N 0.48904 -0.06349 0.46517
 H1680 H 0.45656 -0.08022 0.47454
 N1681 N 0.40299 0.43742 -0.02661
 N1682 N 0.39855 0.41580 -0.03307
 C1683 C 0.41908 0.40659 -0.03922
 C1684 C 0.43652 0.42348 -0.03656
 N1685 N 0.42552 0.44245 -0.02838
 H1686 H 0.45521 0.42159 -0.03845
 N1687 N 0.82116 0.34802 0.49212
 N1688 N 0.82797 0.36588 0.48034
 C1689 C 0.81318 0.36664 0.46328
 C1690 C 0.79705 0.34869 0.46478
 N1691 N 0.80278 0.33745 0.48310
 H1692 H 0.78348 0.34359 0.45330
 N1693 N 0.80666 0.82779 -0.00965
 N1694 N 0.81367 0.84878 -0.01554
 C1695 C 0.79878 0.85565 -0.03120
 C1696 C 0.78213 0.83819 -0.03475
 N1697 N 0.78790 0.82104 -0.02090
 H1698 H 0.76806 0.83752 -0.04660
 N1699 N 0.80912 0.23750 0.41948
 N1700 N 0.81368 0.24211 0.39905
 C1701 C 0.80183 0.26168 0.39424
 C1702 C 0.78978 0.26905 0.41229
 N1703 N 0.79485 0.25337 0.42768
 H1704 H 0.77885 0.28431 0.41420
 N1705 N 0.73634 0.77709 -0.10100
 N1706 N 0.74155 0.78490 -0.12037
 C1707 C 0.76076 0.77324 -0.12659
 C1708 C 0.76713 0.75771 -0.11054
 N1709 N 0.75137 0.76087 -0.09480
 H1710 H 0.78245 0.74672 -0.10960
 N1711 N 0.25028 0.43407 0.82369
 N1712 N 0.25343 0.43103 0.84469
 C1713 C 0.26676 0.44911 0.85188
 C1714 C 0.27183 0.46332 0.83474
 N1715 N 0.26119 0.45326 0.81743
 H1716 H 0.28168 0.47954 0.83485
 N1717 N 0.25870 -0.03832 0.32588
 N1718 N 0.26320 -0.04455 0.34599
 C1719 C 0.28332 -0.03375 0.35192
 C1720 C 0.29107 -0.02044 0.33480
 N1721 N 0.27509 -0.02391 0.31884
 H1722 H 0.30703 -0.01027 0.33364
 N1723 N 0.01275 -0.07443 -0.10074
 N1724 N 0.00643 -0.07956 -0.12092
 C1725 C -0.01010 -0.06390 -0.12643
 C1726 C -0.01370 -0.04897 -0.10920
 N1727 N 0.00088 -0.05617 -0.09352
 H1728 H -0.02594 -0.03467 -0.10789
 N1729 N 0.02058 0.44377 0.37243
 N1730 N 0.00907 0.43275 0.35656
 C1731 C -0.01173 0.44354 0.35445
 C1732 C -0.01250 0.46178 0.36927
 N1733 N 0.00804 0.46131 0.38018
 H1734 H -0.02714 0.47297 0.37305
 N1735 N 0.49140 0.03823 0.40717
 N1736 N 0.48586 0.03068 0.38748
 C1737 C 0.48946 0.00744 0.38734
 C1738 C 0.49751 0.00089 0.40749
 N1739 N 0.49847 0.02070 0.41938
 H1740 H 0.49973 -0.01663 0.41359
 N1741 N 0.43970 0.53807 -0.08902
 N1742 N 0.43546 0.52947 -0.10866
 C1743 C 0.44766 0.50943 -0.11015
 C1744 C 0.45972 0.50609 -0.09106
 N1745 N 0.45413 0.52427 -0.07824
 H1746 H 0.46967 0.49096 -0.08617
 N1747 N 0.49229 0.74163 0.37450
 N1748 N 0.48468 0.74933 0.39339
 C1749 C 0.49123 0.77197 0.39517
 C1750 C 0.50315 0.77796 0.37678
 N1751 N 0.50341 0.75850 0.36428
 H1752 H 0.50831 0.79531 0.37178
 N1753 N 0.00370 0.79184 0.83172
 N1754 N -0.00222 0.79791 0.85161
 C1755 C -0.01926 0.78297 0.85754
 C1756 C -0.02356 0.76733 0.84069
 N1757 N -0.00879 0.77358 0.82489
 H1758 H -0.03650 0.75345 0.83966
 N1759 N 0.41650 0.75477 0.32535
 N1760 N 0.39493 0.76065 0.33083
 C1761 C 0.38903 0.77880 0.31825
 C1762 C 0.40754 0.78400 0.30497
 N1763 N 0.42434 0.76858 0.30992
 H1764 H 0.40875 0.79754 0.29296
 N1765 N -0.09580 0.73349 0.80188
 N1766 N -0.11665 0.73841 0.80976
 C1767 C -0.12587 0.75487 0.79688
 C1768 C -0.11013 0.76000 0.78082
 N1769 N -0.09156 0.74622 0.78459
 H1770 H -0.11181 0.77250 0.76790
 N1771 N 0.87824 0.23759 0.49597
 N1772 N 0.89850 0.24290 0.48712
 C1773 C 0.89827 0.26607 0.48330
 C1774 C 0.87707 0.27482 0.48994
 N1775 N 0.86515 0.25647 0.49773
 H1776 H 0.86977 0.29182 0.48652
 N1777 N 0.84476 0.72273 -0.06662
 N1778 N 0.86532 0.72877 -0.07457
 C1779 C 0.87363 0.74618 -0.06180
 C1780 C 0.85760 0.75070 -0.04569
 N1781 N 0.83981 0.73561 -0.04935
 H1782 H 0.85829 0.76407 -0.03320
 N1783 N -0.08711 -0.01458 -0.06728
 N1784 N -0.10859 -0.02021 -0.07380
 C1785 C -0.11607 -0.03713 -0.06052
 C1786 C -0.09859 -0.04175 -0.04555
 N1787 N -0.08082 -0.02724 -0.05041
 H1788 H -0.09859 -0.05434 -0.03264
 N1789 N -0.07775 0.48841 0.40236
 N1790 N -0.09846 0.48038 0.39578
 C1791 C -0.10310 0.46155 0.40798
 C1792 C -0.08469 0.45817 0.42217
 N1793 N -0.06934 0.47541 0.41820
 H1794 H -0.08301 0.44527 0.43475
 N1795 N 0.41438 0.01892 0.43832
 N1796 N 0.39618 0.01032 0.42737
 C1797 C 0.38766 -0.00747 0.43910
 C1798 C 0.40120 -0.00961 0.45765
 N1799 N 0.41768 0.00728 0.45646
 H1800 H 0.39949 -0.02214 0.47051
 N1801 N 0.37215 0.53832 -0.05145
 N1802 N 0.35399 0.52983 -0.06264
 C1803 C 0.34505 0.51235 -0.05079
 C1804 C 0.35807 0.51051 -0.03197
 N1805 N 0.37488 0.52694 -0.03304
 H1806 H 0.35680 0.49735 -0.01960
 N1807 N 0.35807 0.45405 0.75316
 N1808 N 0.37797 0.44983 0.76335
 C1809 C 0.37731 0.46207 0.78200
 C1810 C 0.35635 0.47393 0.78319
 N1811 N 0.34485 0.46828 0.76474
 H1812 H 0.34979 0.48464 0.79628
 N1813 N 0.37718 0.01430 0.27504
 N1814 N 0.39712 0.01027 0.28525
 C1815 C 0.39910 -0.01310 0.28689
 C1816 C 0.37953 -0.02350 0.27721
 N1817 N 0.36633 -0.00556 0.27005
 H1818 H 0.37453 -0.04178 0.27698
 N1819 N 0.14227 0.51040 0.71057
 N1820 N 0.12350 0.51667 0.69943
 C1821 C 0.13048 0.52101 0.67909
 C1822 C 0.15432 0.51767 0.67822
 N1823 N 0.16090 0.51101 0.69815
 H1824 H 0.16602 0.52219 0.66527
 N1825 N 0.18291 0.01436 0.16603
 N1826 N 0.16121 0.01909 0.15996
 C1827 C 0.15133 0.03087 0.17644
 C1828 C 0.16776 0.03333 0.19298
 N1829 N 0.18726 0.02267 0.18573
 H1830 H 0.16560 0.04129 0.20877
 N1831 N 0.61197 0.76131 0.21323
 N1832 N 0.62783 0.75137 0.20073
 C1833 C 0.62872 0.72869 0.20635
 C1834 C 0.61293 0.72496 0.22270
 N1835 N 0.60285 0.74583 0.22655
 H1836 H 0.60807 0.70853 0.22997
 N1837 N 0.08818 0.74528 0.67557
 N1838 N 0.10942 0.74053 0.66845
 C1839 C 0.11804 0.72370 0.68129
 C1840 C 0.10149 0.71819 0.69656
 N1841 N 0.08310 0.73213 0.69239
 H1842 H 0.10254 0.70532 0.70921
 N1843 N 0.65768 0.26152 0.54674
 N1844 N 0.63795 0.25647 0.55664
 C1845 C 0.63737 0.23311 0.55887
 C1846 C 0.65758 0.22381 0.55007
 N1847 N 0.66976 0.24233 0.54262
 H1848 H 0.66383 0.20603 0.55103
 N1849 N 0.64190 0.70778 0.01889
 N1850 N 0.62390 0.70162 0.03075
 C1851 C 0.63026 0.70595 0.05139
 C1852 C 0.65275 0.71502 0.05203
 N1853 N 0.65934 0.71579 0.03122
 H1854 H 0.66377 0.71866 0.06602
 N1855 N 0.10821 -0.01795 0.05002
 N1856 N 0.12794 -0.00871 0.05787
 C1857 C 0.13211 0.01063 0.04623
 C1858 C 0.11457 0.01298 0.03101
 N1859 N 0.10003 -0.00522 0.03389
 H1860 H 0.11193 0.02707 0.01973
 N1861 N 0.10641 0.50346 0.53003
 N1862 N 0.12548 0.51117 0.54003
 C1863 C 0.13137 0.53132 0.53043
 C1864 C 0.11541 0.53586 0.51406
 N1865 N 0.10007 0.51789 0.51448
 H1866 H 0.11454 0.55081 0.50352
 N1867 N 0.58591 0.02615 0.58203
 N1868 N 0.60757 0.02975 0.58909
 C1869 C 0.61772 0.04431 0.57498
 C1870 C 0.60165 0.04959 0.55893
 N1871 N 0.58204 0.03778 0.56398
 H1872 H 0.60440 0.05943 0.54433
 N1873 N 0.55639 0.50968 0.07569
 N1874 N 0.57733 0.51418 0.08415
 C1875 C 0.58601 0.53263 0.07343
 C1876 C 0.56984 0.53939 0.05804
 N1877 N 0.55159 0.52453 0.06003
 H1878 H 0.57108 0.55358 0.04668
 N1879 N -0.00128 0.03289 0.08854
 N1880 N 0.00498 0.03940 0.10837
 C1881 C 0.02662 0.03080 0.11180
 C1882 C 0.03348 0.01861 0.09362
 N1883 N 0.01549 0.02037 0.07956
 H1884 H 0.04988 0.00986 0.09062
 N1885 N -0.00295 0.53995 0.56565
 N1886 N 0.00397 0.54779 0.58490
 C1887 C 0.02523 0.53852 0.58876
 C1888 C 0.03122 0.52467 0.57130
 N1889 N 0.01309 0.52607 0.55725
 H1890 H 0.04780 0.51626 0.56825
 N1891 N 0.49626 0.00991 0.61849
 N1892 N 0.50321 0.01564 0.63827
 C1893 C 0.50579 0.03913 0.63912
 C1894 C 0.50001 0.04770 0.61883
 N1895 N 0.49436 0.02874 0.60645
 H1896 H 0.50350 0.06505 0.61278
 N1897 N 0.47368 0.50379 0.11886
 N1898 N 0.48305 0.50793 0.13817
 C1899 C 0.48709 0.53112 0.13948
 C1900 C 0.47984 0.54120 0.12038
 N1901 N 0.47156 0.52346 0.10795
 H1902 H 0.48308 0.55888 0.11503
 N1903 N 0.26687 0.54561 0.64009
 N1904 N 0.26206 0.55429 0.62086
 C1905 C 0.24123 0.54517 0.61475
 C1906 C 0.23329 0.53051 0.63072
 N1907 N 0.24991 0.53138 0.64627
 H1908 H 0.21665 0.52145 0.63164
 N1909 N 0.27785 0.02308 0.12349
 N1910 N 0.26781 0.03061 0.10548
 C1911 C 0.25261 0.04743 0.11129
 C1912 C 0.25319 0.04953 0.13352
 N1913 N 0.26951 0.03439 0.14047
 H1914 H 0.24108 0.05895 0.14369
 N1915 N 0.72248 0.26081 0.61498
 N1916 N 0.71178 0.25208 0.63192
 C1917 C 0.71630 0.22896 0.63195
 C1918 C 0.73016 0.22365 0.61458
 N1919 N 0.73354 0.24407 0.60440
 H1920 H 0.73515 0.20653 0.60867
 N1921 N 0.74739 0.71667 0.09813
 N1922 N 0.73513 0.71300 0.11580
 C1923 C 0.72044 0.69523 0.11096
 C1924 C 0.72416 0.68785 0.09003
 N1925 N 0.74135 0.70166 0.08254
 H1926 H 0.71356 0.67576 0.08047
 N1927 N 0.55128 0.77675 0.17239
 N1928 N 0.56028 0.76711 0.15480
 C1929 C 0.54985 0.74605 0.15244
 C1930 C 0.53411 0.74309 0.16884
 N1931 N 0.53554 0.76264 0.18099
 H1932 H 0.52466 0.72733 0.17295
 N1933 N -0.01430 0.68872 0.63950
 N1934 N -0.00621 0.68255 0.62030
 C1935 C 0.01267 0.69618 0.61674
 C1936 C 0.01591 0.71102 0.63423
 N1937 N -0.00135 0.70581 0.64803
 H1938 H 0.03001 0.72340 0.63719
 N1939 N 0.52948 0.68192 0.19564
 N1940 N 0.53254 0.66143 0.18608
 C1941 C 0.54136 0.64710 0.20119
 C1942 C 0.54358 0.65943 0.22053
 N1943 N 0.53585 0.68115 0.21625
 H1944 H 0.54798 0.65275 0.23635
 N1945 N 0.01198 0.62854 0.71420
 N1946 N 0.02023 0.61158 0.70184
 C1947 C 0.04110 0.61915 0.69484
 C1948 C 0.04559 0.64112 0.70320
 N1949 N 0.02691 0.64633 0.71530
 H1950 H 0.05932 0.65317 0.69865
 N1951 N 0.06521 0.08520 -0.00538
 N1952 N 0.06957 0.10692 0.00135
 C1953 C 0.05408 0.11144 0.01709
 C1954 C 0.04013 0.09209 0.01987
 N1955 N 0.04760 0.07611 0.00554
 H1956 H 0.02610 0.08971 0.03125
 N1957 N 0.01024 0.60924 0.48779
 N1958 N 0.01545 0.62979 0.49661
 C1959 C 0.03773 0.62851 0.50383
 C1960 C 0.04602 0.60633 0.49943
 N1961 N 0.02827 0.59495 0.48933
 H1962 H 0.06198 0.59844 0.50539
 N1963 N 0.49681 0.11949 0.57388
 N1964 N 0.50606 0.13762 0.58443
 C1965 C 0.52770 0.14072 0.57645
 C1966 C 0.53155 0.12411 0.56069
 N1967 N 0.51180 0.11120 0.55960
 H1968 H 0.54737 0.12102 0.55167
 N1969 N 0.48540 0.61066 0.08352
 N1970 N 0.49765 0.62668 0.09434
 C1971 C 0.51847 0.62824 0.08449
 C1972 C 0.51872 0.61276 0.06718
 N1973 N 0.49762 0.60218 0.06719
 H1974 H 0.53263 0.60949 0.05584
 N1975 N 0.76066 0.14910 0.55538
 N1976 N 0.75661 0.12658 0.55729
 C1977 C 0.73462 0.12267 0.55002
 C1978 C 0.72511 0.14373 0.54336
 N1979 N 0.74216 0.15977 0.54723
 H1980 H 0.70788 0.14712 0.53673
 N1981 N 0.73040 0.61862 0.01649
 N1982 N 0.72210 0.60132 0.02821
 C1983 C 0.70157 0.60862 0.03616
 C1984 C 0.69745 0.63115 0.02896
 N1985 N 0.71595 0.63665 0.01654
 H1986 H 0.68397 0.64309 0.03417
 N1987 N 0.20916 0.59754 0.73794
 N1988 N 0.20211 0.61838 0.73171
 C1989 C 0.21333 0.62301 0.71324
 C1990 C 0.22770 0.60430 0.70823
 N1991 N 0.22444 0.58874 0.72418
 H1992 H 0.23787 0.60148 0.69380
 N1993 N 0.26568 0.10935 0.18842
 N1994 N 0.25506 0.12845 0.18167
 C1995 C 0.23374 0.12822 0.19066
 C1996 C 0.23139 0.10854 0.20309
 N1997 N 0.25180 0.09724 0.20121
 H1998 H 0.21620 0.10253 0.21176
 N1999 N 0.74780 1.10404 0.72724
 N2000 N 0.74030 1.12283 0.71714
 C2001 C 0.71696 1.12045 0.71542
 C2002 C 0.71014 1.09973 0.72490
 N2003 N 0.73014 1.08997 0.73207
 H2004 H 0.69297 1.09162 0.72468
 N2005 N 0.73503 0.58923 0.21086
 N2006 N 0.72743 0.60786 0.20059
 C2007 C 0.70416 0.60868 0.20366
 C2008 C 0.69751 0.58993 0.21605
 N2009 N 0.71744 0.57824 0.22015
 H2010 H 0.67997 0.58419 0.21988
 N2011 N 0.56716 0.16514 0.75237
 N2012 N 0.57278 0.14614 0.74150
 C2013 C 0.55582 0.14219 0.72661
 C2014 C 0.53914 0.15992 0.72874
 N2015 N 0.54718 0.17387 0.74525
 H2016 H 0.52322 0.16243 0.71944
 N2017 N 0.99738 0.10448 0.24014
 N2018 N 1.00869 0.08549 0.23391
 C2019 C 1.03039 0.09225 0.22808
 C2020 C 1.03187 0.11623 0.23064
 N2021 N 1.01101 0.12307 0.23827
 H2022 H 1.04540 0.12777 0.22476
 N2023 N 0.26071 0.65768 0.50718
 N2024 N 0.25537 0.63577 0.51165
 C2025 C 0.23208 0.63500 0.51466
 C2026 C 0.22320 0.65722 0.51216
 N2027 N 0.24174 0.67081 0.50752
 H2028 H 0.20579 0.66334 0.51588
 N2029 N 0.16614 0.17091 1.01571
 N2030 N 0.16225 0.14948 1.02277
 C2031 C 0.18066 0.14397 1.03553
 C2032 C 0.19604 0.16263 1.03613
 N2033 N 0.18629 0.17908 1.02350
 H2034 H 0.21286 0.16390 1.04430
 N2035 N 0.26918 0.71611 0.59176
 N2036 N 0.26229 0.70617 0.60987
 C2037 C 0.24154 0.71581 0.61481
 C2038 C 0.23593 0.73208 0.59929
 N2039 N 0.25369 0.73172 0.58520
 H2040 H 0.21993 0.74194 0.59755
 N2041 N 0.17774 0.26056 1.09375
 N2042 N 0.17025 0.25122 1.11187
 C2043 C 0.18391 0.23257 1.11557
 C2044 C 0.20009 0.23063 1.09912
 N2045 N 0.19554 0.24856 1.08584
 H2046 H 0.21335 0.21745 1.09673
 N2047 N 0.71339 0.48116 0.15154
 N2048 N 0.70596 0.48997 0.13302
 C2049 C 0.70874 0.51336 0.13449
 C2050 C 0.71783 0.51868 0.15477
 N2051 N 0.72061 0.49805 0.16482
 H2052 H 0.71923 0.53576 0.16240
 N2053 N 0.76988 1.03558 0.65605
 N2054 N 0.76553 1.03912 0.63529
 C2055 C 0.74531 1.02777 0.63050
 C2056 C 0.73728 1.01726 0.64887
 N2057 N 0.75312 1.02258 0.66441
 H2058 H 0.72112 1.00765 0.65104
 N2059 N 0.54729 0.27632 0.68294
 N2060 N 0.55538 0.26991 0.66386
 C2061 C 0.55026 0.24704 0.66153
 C2062 C 0.53861 0.23952 0.67968
 N2063 N 0.53716 0.25847 0.69269
 H2064 H 0.53383 0.22181 0.68388
 N2065 N 1.00581 0.15992 0.15658
 N2066 N 1.01274 0.15551 0.13669
 C2067 C 1.02311 0.17522 0.12980
 C2068 C 1.02261 0.19195 0.14615
 N2069 N 1.01151 0.18153 0.16256
 H2070 H 1.02866 0.20990 0.14590
 N2071 N 0.62385 0.26274 0.74085
 N2072 N 0.63863 0.25273 0.72742
 C2073 C 0.63533 0.22949 0.72925
 C2074 C 0.61839 0.22540 0.74422
 N2075 N 0.61161 0.24664 0.75103
 H2076 H 0.60951 0.20902 0.74735
 N2077 N 1.08862 0.18500 0.24916
 N2078 N 1.10998 0.18123 0.24188
 C2079 C 1.11158 0.19281 0.22310
 C2080 C 1.09065 0.20381 0.21898
 N2081 N 1.07679 0.19845 0.23567
 H2082 H 1.08559 0.21364 0.20485
 N2083 N 0.16052 0.75137 0.55950
 N2084 N 0.14068 0.74216 0.56629
 C2085 C 0.13451 0.72544 0.55180
 C2086 C 0.15118 0.72462 0.53575
 N2087 N 0.16714 0.74119 0.54125
 H2088 H 0.15175 0.71328 0.52165
 N2089 N 0.12416 0.27374 1.04711
 N2090 N 0.10482 0.26372 1.05432
 C2091 C 0.10074 0.24493 1.04145
 C2092 C 0.11796 0.24371 1.02618
 N2093 N 0.13226 0.26194 1.03027
 H2094 H 0.12114 0.22974 1.01466
 N2095 N 0.62848 0.48812 0.20770
 N2096 N 0.60759 0.49565 0.20166
 C2097 C 0.60545 0.51743 0.20991
 C2098 C 0.62568 0.52317 0.22123
 N2099 N 0.63958 0.50429 0.21941
 H2100 H 0.62998 0.53932 0.22968
 N2101 N 0.65225 0.99709 0.69600
 N2102 N 0.63137 1.00455 0.68972
 C2103 C 0.62702 1.02398 0.70150
 C2104 C 0.64573 1.02824 0.71528
 N2105 N 0.66112 1.01104 0.71126
 H2106 H 0.64813 1.04247 0.72676
 N2107 N 0.82843 0.48259 0.31571
 N2108 N 0.84961 0.47540 0.32138
 C2109 C 0.85428 0.45674 0.30871
 C2110 C 0.83535 0.45261 0.29508
 N2111 N 0.81960 0.46920 0.29999
 H2112 H 0.83340 0.43936 0.28256
 N2113 N 0.84249 0.98815 0.81811
 N2114 N 0.86449 0.98356 0.82345
 C2115 C 0.87277 0.96980 0.80752
 C2116 C 0.85533 0.96589 0.79234
 N2117 N 0.83672 0.97765 0.79960
 H2118 H 0.85611 0.95596 0.77737
 N2119 N 0.41983 0.26502 0.83657
 N2120 N 0.39855 0.27191 0.84178
 C2121 C 0.39276 0.28893 0.82786
 C2122 C 0.41111 0.29235 0.81387
 N2123 N 0.42765 0.27698 0.81992
 H2124 H 0.41229 0.30449 0.80063
 N2125 N 0.87076 0.25941 0.24115
 N2126 N 0.85276 0.26991 0.25033
 C2127 C 0.85290 0.26327 0.27113
 C2128 C 0.87143 0.24828 0.27448
 N2129 N 0.88214 0.24635 0.25529
 H2130 H 0.87773 0.24130 0.28963
 N2131 N 0.33947 0.79420 0.43409
 N2132 N 0.36093 0.80024 0.42863
 C2133 C 0.37078 0.81055 0.44619
 C2134 C 0.35489 0.81047 0.46278
 N2135 N 0.33555 0.80004 0.45447
 H2136 H 0.35779 0.81538 0.47954
 N2137 N 0.33181 0.25193 0.95845
 N2138 N 0.35269 0.25829 0.95142
 C2139 C 0.35656 0.28007 0.95920
 C2140 C 0.33767 0.28690 0.97131
 N2141 N 0.32263 0.26880 0.97044
 H2142 H 0.33457 0.30363 0.97907
 N2143 N 0.74665 0.49354 0.36358
 N2144 N 0.75795 0.48513 0.38054
 C2145 C 0.76016 0.46192 0.37717
 C2146 C 0.74997 0.45641 0.35749
 N2147 N 0.74165 0.47655 0.34958
 H2148 H 0.75220 0.44041 0.34824
 N2149 N 0.73662 0.94001 0.84637
 N2150 N 0.74343 0.93190 0.86537
 C2151 C 0.76287 0.94402 0.87103
 C2152 C 0.76779 0.95991 0.85506
 N2153 N 0.75094 0.95679 0.83996
 H2154 H 0.78279 0.97142 0.85381
 N2155 N 0.24327 0.82699 0.40547
 N2156 N 0.25146 0.83312 0.38631
 C2157 C 0.26880 0.81801 0.38164
 C2158 C 0.27094 0.80248 0.39829
 N2159 N 0.25471 0.80858 0.41283
 H2160 H 0.28351 0.78854 0.40006
 N2161 N 0.23018 0.29994 0.89779
 N2162 N 0.23932 0.30621 0.87917
 C2163 C 0.26165 0.29883 0.87940
 C2164 C 0.26596 0.28760 0.89879
 N2165 N 0.24572 0.28868 0.90975
 H2166 H 0.28239 0.28096 0.90495
 N2167 N 0.51787 0.29170 0.88732
 N2168 N 0.50704 0.30133 0.90394
 C2169 C 0.48454 0.29456 0.90220
 C2170 C 0.48177 0.28042 0.88408
 N2171 N 0.50312 0.27910 0.87520
 H2172 H 0.46557 0.27412 0.87681
 N2173 N 0.92359 0.23880 0.33379
 N2174 N 0.92126 0.24454 0.35437
 C2175 C 0.93902 0.25930 0.35909
 C2176 C 0.95227 0.26279 0.34091
 N2177 N 0.94197 0.24952 0.32547
 H2178 H 0.96828 0.27279 0.33934
 N2179 N 0.50745 0.35894 0.84248
 N2180 N 0.49890 0.37948 0.84836
 C2181 C 0.48133 0.38399 0.83436
 C2182 C 0.47925 0.36570 0.81972
 N2183 N 0.49594 0.35045 0.82539
 H2184 H 0.46720 0.36376 0.80619
 N2185 N 0.92595 0.32123 0.24281
 N2186 N 0.91984 0.34215 0.25012
 C2187 C 0.93474 0.34757 0.26647
 C2188 C 0.95020 0.32932 0.26910
 N2189 N 0.94406 0.31319 0.25396
 H2190 H 0.96385 0.32753 0.28122
 N2191 N 0.25031 0.88265 0.47718
 N2192 N 0.25793 0.90216 0.46832
 C2193 C 0.28121 0.89988 0.46594
 C2194 C 0.28769 0.87812 0.47338
 N2195 N 0.26781 0.86798 0.48033
 H2196 H 0.30438 0.86953 0.47150
 N2197 N 0.28445 0.36715 0.99494
 N2198 N 0.28992 0.38840 0.98839
 C2199 C 0.27682 0.39213 0.97055
 C2200 C 0.26317 0.37268 0.96622
 N2201 N 0.26853 0.35751 0.98187
 H2202 H 0.25089 0.36969 0.95303
 N2203 N 0.73721 0.39344 0.31726
 N2204 N 0.74528 0.37369 0.32529
 C2205 C 0.76279 0.36685 0.31234
 C2206 C 0.76539 0.38302 0.29608
 N2207 N 0.74898 0.39937 0.29982
 H2208 H 0.77800 0.38313 0.28317
   
