data_POSCAR
  _audit_creation_date              2014-09-24
  _audit_creation_method            'ToBaCCo'
  _symmetry_space_group_name_H-M    'P1'
  _symmetry_Int_Tables_number       1
  _symmetry_cell_setting            triclinic
  loop_
  _symmetry_equiv_pos_as_xyz
 x,y,z
_cell_length_a 37.6778
_cell_length_b 37.7980
_cell_length_c 37.7967
_cell_angle_alpha 89.686000
_cell_angle_beta 89.860300
_cell_angle_gamma 90.268400
loop_
  _atom_site_label
  _atom_site_type_symbol
  _atom_site_fract_x
  _atom_site_fract_y
  _atom_site_fract_z
O1 O 0.85193 0.19056 0.83311
 O2 O 0.88832 0.14911 0.80523
 O3 O 0.76325 0.12360 0.86714
 O4 O 0.75295 0.07977 0.90389
 O5 O 0.80825 0.20460 0.93215
 O6 O 0.85784 0.20169 0.97390
 O7 O 0.86666 0.01521 0.92433
 O8 O 0.82015 0.01741 0.88190
 O9 O 0.95156 0.07124 0.88866
 O10 O 0.95783 0.13232 0.86101
 O11 O 0.91430 0.08789 0.98809
 O12 O 0.86826 0.12020 1.01598
 O13 O 0.87011 0.04195 0.97798
 O14 O 0.82551 0.08662 1.00499
 O15 O 0.95436 0.10423 0.94582
 O16 O 0.96025 0.15833 0.90816
 O17 O 0.90801 0.03125 0.87691
 O18 O 0.85544 0.03192 0.83767
 O19 O 0.85772 0.21822 0.88617
 O20 O 0.89725 0.21410 0.93568
 O21 O 0.76711 0.16072 0.92684
 O22 O 0.76404 0.10060 0.95527
 O23 O 0.80122 0.13825 0.82232
 O24 O 0.85221 0.10870 0.79759
 Zr25 Zr 0.85213 0.13621 0.84615
 O26 O 0.88846 0.09723 0.86262
 Zr27 Zr 0.79550 0.11569 0.91112
 O28 O 0.82845 0.07473 0.92945
 Zr29 Zr 0.85665 0.17731 0.92369
 O30 O 0.89267 0.13945 0.94374
 Zr31 Zr 0.86010 0.05639 0.88785
 O32 O 0.82351 0.09348 0.86831
 Zr33 Zr 0.92230 0.11736 0.90200
 O34 O 0.88878 0.15796 0.88231
 Zr35 Zr 0.86452 0.09633 0.96566
 O36 O 0.82876 0.13675 0.95023
 O37 O 0.82151 0.15765 0.88622
 O38 O 0.89544 0.07518 0.92548
 C39 C 0.85549 0.21833 0.85234
 C40 C 0.77002 0.13159 0.83484
 C41 C 0.77606 0.19298 0.93267
 C42 C 0.87117 0.01459 0.95795
 C43 C 0.94076 0.04012 0.87982
 C44 C 0.94603 0.09202 0.97652
 H45 H 0.90203 0.08862 0.84203
 H46 H 0.90819 0.15070 0.96153
 H47 H 0.80523 0.17555 0.87617
 H48 H 0.81414 0.05533 0.93995
 H49 H 0.79992 0.02908 0.86999
 H50 H 0.76256 0.05567 0.90709
 H51 H 0.95757 0.16793 0.93231
 H52 H 0.91544 0.21175 0.91692
 H53 H 0.87464 0.04101 0.82216
 H54 H 0.83683 0.08765 0.80099
 H55 H 0.87647 0.14477 1.01207
 H56 H 0.83957 0.18972 0.98862
 H57 H 0.90980 0.15851 0.81700
 H58 H 0.95395 0.11626 0.84080
 H59 H 0.77046 0.11647 0.97502
 H60 H 0.81261 0.06473 0.99857
 O61 O 0.81453 0.69396 0.37857
 O62 O 0.86636 0.70056 0.41756
 O63 O 0.86434 0.63873 0.29053
 O64 O 0.87428 0.58675 0.27288
 O65 O 0.75912 0.60567 0.34538
 O66 O 0.74985 0.56949 0.39592
 O67 O 0.94094 0.53880 0.38603
 O68 O 0.95184 0.57928 0.33699
 O69 O 0.91034 0.59335 0.47115
 O70 O 0.86775 0.63948 0.48490
 O71 O 0.85363 0.50875 0.43638
 O72 O 0.80483 0.50007 0.39229
 O73 O 0.89291 0.50210 0.38745
 O74 O 0.83816 0.49561 0.34981
 O75 O 0.86320 0.55170 0.47727
 O76 O 0.82291 0.60690 0.48738
 O77 O 0.94998 0.58752 0.42603
 O78 O 0.95955 0.62637 0.37150
 O79 O 0.76999 0.65501 0.39127
 O80 O 0.75835 0.60904 0.43318
 O81 O 0.79619 0.60254 0.29787
 O82 O 0.84010 0.54910 0.29076
 O83 O 0.87040 0.68480 0.32857
 O84 O 0.90337 0.69701 0.37842
 Zr85 Zr 0.86044 0.66085 0.37878
 O86 O 0.89285 0.62836 0.41123
 Zr87 Zr 0.84738 0.59545 0.32116
 O88 O 0.88054 0.56098 0.35019
 Zr89 Zr 0.79262 0.60529 0.38898
 O90 O 0.82144 0.57024 0.42091
 Zr91 Zr 0.91787 0.58946 0.38029
 O92 O 0.88802 0.62362 0.34761
 Zr93 Zr 0.86106 0.59907 0.44697
 O94 O 0.82951 0.63504 0.41789
 Zr95 Zr 0.84869 0.53508 0.38797
 O96 O 0.81529 0.56672 0.35653
 O97 O 0.82167 0.63364 0.35079
 O98 O 0.88718 0.56185 0.41658
 C99 C 0.78165 0.68617 0.38491
 C100 C 0.87349 0.67064 0.29776
 C101 C 0.76507 0.60538 0.31207
 C102 C 0.92634 0.50810 0.38930
 C103 C 0.94156 0.58796 0.45899
 C104 C 0.86125 0.51913 0.46770
 H105 H 0.91044 0.64316 0.42375
 H106 H 0.80554 0.55782 0.43774
 H107 H 0.80837 0.65012 0.33536
 H108 H 0.89261 0.54425 0.33418
 H109 H 0.94304 0.59395 0.31712
 H110 H 0.89883 0.57999 0.27916
 H111 H 0.80915 0.58470 0.49028
 H112 H 0.76993 0.62527 0.45011
 H113 H 0.96174 0.64129 0.39283
 H114 H 0.92369 0.68433 0.36789
 H115 H 0.79157 0.50610 0.41403
 H116 H 0.75509 0.54872 0.38099
 H117 H 0.84863 0.69543 0.43630
 H118 H 0.88368 0.65754 0.47437
 H119 H 0.81605 0.53987 0.29620
 H120 H 0.85806 0.49563 0.33269
 O121 O 0.38447 0.21800 0.28603
 O122 O 0.43065 0.18283 0.25969
 O123 O 0.31120 0.14181 0.32420
 O124 O 0.31189 0.09256 0.35746
 O125 O 0.34223 0.22578 0.38912
 O126 O 0.39328 0.23547 0.42629
 O127 O 0.42926 0.04993 0.38302
 O128 O 0.38906 0.04358 0.33651
 O129 O 0.50628 0.12247 0.34281
 O130 O 0.50148 0.18220 0.31471
 O131 O 0.46896 0.13130 0.44270
 O132 O 0.42199 0.15685 0.47115
 O133 O 0.42535 0.07875 0.43560
 O134 O 0.38019 0.12202 0.46213
 O135 O 0.50357 0.15401 0.39861
 O136 O 0.49833 0.20930 0.36081
 O137 O 0.47376 0.07176 0.34043
 O138 O 0.42401 0.06481 0.29421
 O139 O 0.38467 0.24729 0.33860
 O140 O 0.42810 0.25266 0.38580
 O141 O 0.31059 0.17453 0.38540
 O142 O 0.31645 0.11427 0.40950
 O143 O 0.34533 0.16013 0.27768
 O144 O 0.39952 0.13623 0.25307
 Zr145 Zr 0.39642 0.16526 0.30060
 O146 O 0.43977 0.13410 0.31758
 Zr147 Zr 0.34584 0.13622 0.36677
 O148 O 0.38593 0.10316 0.38582
 Zr149 Zr 0.39436 0.20868 0.37734
 O150 O 0.43686 0.17889 0.39785
 Zr151 Zr 0.42070 0.08917 0.34462
 O152 O 0.37719 0.11827 0.32435
 Zr153 Zr 0.46900 0.16168 0.35583
 O154 O 0.42857 0.19475 0.33549
 Zr155 Zr 0.41751 0.13207 0.42135
 O156 O 0.37465 0.16432 0.40517
 O157 O 0.36319 0.18173 0.34117
 O158 O 0.45155 0.11584 0.38133
 C159 C 0.38129 0.24612 0.30483
 C160 C 0.31540 0.15158 0.29194
 C161 C 0.31335 0.20769 0.39185
 C162 C 0.42869 0.05061 0.41700
 C163 C 0.50344 0.08868 0.34046
 C164 C 0.49904 0.14075 0.42963
 H165 H 0.45480 0.12762 0.29721
 H166 H 0.45040 0.19314 0.41508
 H167 H 0.34347 0.19651 0.33234
 H168 H 0.37419 0.08237 0.39679
 H169 H 0.36787 0.05129 0.32311
 H170 H 0.32626 0.07095 0.36059
 H171 H 0.49543 0.21782 0.38534
 H172 H 0.44477 0.25358 0.36552
 H173 H 0.44665 0.07184 0.28281
 H174 H 0.38941 0.11255 0.25830
 H175 H 0.42039 0.18259 0.46683
 H176 H 0.37928 0.22047 0.44280
 H177 H 0.44758 0.19957 0.27068
 H178 H 0.49861 0.16679 0.29384
 H179 H 0.32018 0.12981 0.43017
 H180 H 0.36830 0.09930 0.45669
 O181 O 0.10685 0.30206 0.31167
 O182 O 0.06050 0.34488 0.30858
 O183 O 0.19573 0.37134 0.34334
 O184 O 0.21430 0.39826 0.38938
 O185 O 0.17226 0.26683 0.39924
 O186 O 0.13022 0.24896 0.44034
 O187 O 0.10725 0.44191 0.45446
 O188 O 0.13844 0.45713 0.40312
 O189 O 0.01680 0.38594 0.41745
 O190 O 0.00529 0.33688 0.38134
 O191 O 0.07640 0.34581 0.50155
 O192 O 0.13313 0.31199 0.50412
 O193 O 0.11891 0.39874 0.49483
 O194 O 0.16473 0.35419 0.50022
 O195 O 0.02985 0.33690 0.46448
 O196 O 0.01841 0.29702 0.41268
 O197 O 0.05142 0.43485 0.41088
 O198 O 0.09458 0.45242 0.36666
 O199 O 0.11476 0.26048 0.35454
 O200 O 0.08747 0.24456 0.40889
 O201 O 0.20996 0.31330 0.39186
 O202 O 0.21564 0.36443 0.43277
 O203 O 0.14791 0.36374 0.30756
 O204 O 0.09194 0.38820 0.30284
 Zr205 Zr 0.10590 0.34966 0.34104
 O206 O 0.07312 0.37778 0.37605
 Zr207 Zr 0.17563 0.35779 0.39405
 O208 O 0.14535 0.38678 0.43111
 Zr209 Zr 0.12170 0.28852 0.40157
 O210 O 0.08993 0.31358 0.43947
 Zr211 Zr 0.10317 0.41355 0.40642
 O212 O 0.13582 0.38791 0.36868
 Zr213 Zr 0.05087 0.34290 0.41340
 O214 O 0.08002 0.31423 0.37557
 Zr215 Zr 0.11998 0.35156 0.46655
 O216 O 0.15313 0.32299 0.43169
 O217 O 0.14695 0.32118 0.36445
 O218 O 0.07869 0.38006 0.44336
 C219 C 0.10829 0.26981 0.32257
 C220 C 0.17983 0.37392 0.31336
 C221 C 0.20345 0.28016 0.39701
 C222 C 0.11437 0.43113 0.48600
 C223 C 0.02106 0.41942 0.41420
 C224 C 0.04358 0.33894 0.49539
 H225 H 0.05463 0.38987 0.36204
 H226 H 0.07974 0.29545 0.45551
 H227 H 0.16195 0.30869 0.34698
 H228 H 0.16120 0.40365 0.44332
 H229 H 0.15612 0.45136 0.38463
 H230 H 0.20353 0.42001 0.39896
 H231 H 0.02605 0.28136 0.43226
 H232 H 0.06543 0.24977 0.39569
 H233 H 0.07470 0.44447 0.35158
 H234 H 0.10320 0.41064 0.31033
 H235 H 0.11471 0.29329 0.50312
 H236 H 0.14465 0.26004 0.45915
 H237 H 0.04575 0.32565 0.31887
 H238 H 0.00856 0.35210 0.36021
 H239 H 0.21408 0.34386 0.44905
 H240 H 0.17953 0.37446 0.49238
 O241 O 0.66055 0.85615 0.25816
 O242 O 0.64321 0.91663 0.24857
 O243 O 0.74894 0.87251 0.33046
 O244 O 0.75702 0.89800 0.38256
 O245 O 0.67219 0.79153 0.35346
 O246 O 0.61235 0.79007 0.37241
 O247 O 0.66065 0.97430 0.41840
 O248 O 0.71252 0.97660 0.38156
 O249 O 0.57551 0.96405 0.34427
 O250 O 0.56206 0.92879 0.29743
 O251 O 0.57902 0.89345 0.43193
 O252 O 0.61154 0.84608 0.44928
 O253 O 0.63902 0.92820 0.45096
 O254 O 0.65969 0.86441 0.45899
 O255 O 0.55090 0.90809 0.38082
 O256 O 0.54887 0.88178 0.31861
 O257 O 0.62594 0.99297 0.35998
 O258 O 0.68019 0.99711 0.33673
 O259 O 0.64027 0.80988 0.29132
 O260 O 0.58758 0.80659 0.32721
 O261 O 0.72323 0.81947 0.36918
 O262 O 0.73143 0.86068 0.41827
 O263 O 0.72136 0.88491 0.27841
 O264 O 0.69052 0.94004 0.26477
 Zr265 Zr 0.66891 0.89746 0.29443
 O266 O 0.63745 0.93459 0.32171
 Zr267 Zr 0.70866 0.87319 0.36858
 O268 O 0.67965 0.90978 0.39871
 Zr269 Zr 0.63545 0.83163 0.34242
 O270 O 0.60351 0.86576 0.37218
 Zr271 Zr 0.66380 0.95272 0.36705
 O272 O 0.69729 0.91839 0.33758
 Zr273 Zr 0.59103 0.91062 0.34176
 O274 O 0.62020 0.87456 0.31018
 Zr275 Zr 0.63187 0.88610 0.41544
 O276 O 0.66251 0.84807 0.38819
 O277 O 0.68269 0.85341 0.32435
 O278 O 0.61648 0.93076 0.38655
 C279 C 0.64946 0.82411 0.26172
 C280 C 0.74882 0.87641 0.29675
 C281 C 0.70456 0.79152 0.36405
 C282 C 0.65173 0.95967 0.44788
 C283 C 0.59310 0.99247 0.35079
 C284 C 0.55097 0.89986 0.41389
 H285 H 0.63185 0.95445 0.30556
 H286 H 0.58232 0.85209 0.37962
 H287 H 0.69683 0.83584 0.31113
 H288 H 0.69474 0.91747 0.41861
 H289 H 0.73073 0.96832 0.36461
 H290 H 0.75097 0.92006 0.39509
 H291 H 0.54154 0.86315 0.33565
 H292 H 0.57795 0.82042 0.30713
 H293 H 0.68344 0.98874 0.31226
 H294 H 0.71170 0.94853 0.27774
 H295 H 0.59749 0.82975 0.43444
 H296 H 0.62304 0.79123 0.39628
 H297 H 0.61910 0.90610 0.24870
 H298 H 0.57937 0.93928 0.28065
 H299 H 0.71667 0.84174 0.42906
 H300 H 0.67984 0.88037 0.46436
 O301 O 0.62187 0.70081 0.19091
 O302 O 0.56543 0.67341 0.20064
 O303 O 0.69292 0.61178 0.18709
 O304 O 0.69898 0.56301 0.15615
 O305 O 0.69820 0.69581 0.11031
 O306 O 0.66567 0.70644 0.05609
 O307 O 0.58761 0.53311 0.09081
 O308 O 0.61647 0.52401 0.14760
 O309 O 0.51710 0.61177 0.10052
 O310 O 0.51913 0.67416 0.12342
 O311 O 0.58989 0.61297 0.01831
 O312 O 0.65317 0.63035 0.01234
 O313 O 0.61288 0.55684 0.04134
 O314 O 0.67326 0.58469 0.03278
 O315 O 0.54236 0.63770 0.04576
 O316 O 0.54056 0.69551 0.07861
 O317 O 0.53925 0.56011 0.12212
 O318 O 0.57168 0.54911 0.17703
 O319 O 0.64347 0.72589 0.14040
 O320 O 0.62203 0.73141 0.08082
 O321 O 0.71977 0.64326 0.13047
 O322 O 0.71557 0.58356 0.10421
 O323 O 0.64650 0.63792 0.21511
 O324 O 0.58371 0.62529 0.21992
 Zr325 Zr 0.60871 0.64861 0.17537
 O326 O 0.57102 0.62019 0.14555
 Zr327 Zr 0.67595 0.60920 0.13441
 O328 O 0.64140 0.57856 0.10327
 Zr329 Zr 0.64373 0.68489 0.10306
 O330 O 0.60792 0.65778 0.06985
 Zr331 Zr 0.59302 0.57168 0.13002
 O332 O 0.62918 0.59826 0.16329
 Zr333 Zr 0.56072 0.64685 0.09775
 O334 O 0.59506 0.67773 0.12970
 Zr335 Zr 0.62861 0.60774 0.05760
 O336 O 0.66643 0.63679 0.08698
 O337 O 0.65634 0.65820 0.14955
 O338 O 0.58068 0.59796 0.08326
 C339 C 0.63466 0.72722 0.17325
 C340 C 0.67736 0.62338 0.21490
 C341 C 0.72344 0.67578 0.12122
 C342 C 0.59611 0.53214 0.05790
 C343 C 0.51404 0.57909 0.10979
 C344 C 0.55767 0.62375 0.01882
 H345 H 0.54916 0.61686 0.15967
 H346 H 0.60341 0.67197 0.04832
 H347 H 0.67298 0.67136 0.16491
 H348 H 0.65220 0.55550 0.09756
 H349 H 0.63216 0.53021 0.16764
 H350 H 0.68640 0.54244 0.14597
 H351 H 0.55344 0.70163 0.05657
 H352 H 0.59817 0.73411 0.09145
 H353 H 0.55283 0.56487 0.18594
 H354 H 0.59190 0.60046 0.22096
 H355 H 0.64228 0.65374 0.00812
 H356 H 0.68133 0.68806 0.04607
 H357 H 0.55540 0.69019 0.18317
 H358 H 0.51263 0.66060 0.14494
 H359 H 0.72001 0.59833 0.08293
 H360 H 0.67836 0.56207 0.04498
 O361 O 0.37864 0.83330 0.67805
 O362 O 0.42095 0.87507 0.68702
 O363 O 0.29580 0.91199 0.63852
 O364 O 0.28172 0.93916 0.59135
 O365 O 0.30774 0.80427 0.59193
 O366 O 0.34881 0.78265 0.54906
 O367 O 0.40625 0.96701 0.53250
 O368 O 0.36818 0.99002 0.57782
 O369 O 0.48012 0.90406 0.57995
 O370 O 0.47970 0.84929 0.61428
 O371 O 0.41760 0.86848 0.49015
 O372 O 0.35789 0.84415 0.48407
 O373 O 0.38964 0.92538 0.49259
 O374 O 0.33124 0.89100 0.48803
 O375 O 0.46414 0.87028 0.52795
 O376 O 0.46517 0.81634 0.57361
 O377 O 0.45084 0.95657 0.58068
 O378 O 0.40611 0.98019 0.62194
 O379 O 0.36661 0.79226 0.63594
 O380 O 0.38852 0.77185 0.58349
 O381 O 0.27784 0.85640 0.59126
 O382 O 0.28255 0.90858 0.54786
 O383 O 0.33583 0.89486 0.67998
 O384 O 0.39507 0.92206 0.68384
 Zr385 Zr 0.38076 0.88114 0.64859
 O386 O 0.41993 0.90346 0.61488
 Zr387 Zr 0.31725 0.89611 0.59009
 O388 O 0.35303 0.92093 0.55471
 Zr389 Zr 0.36125 0.82030 0.58838
 O390 O 0.39840 0.84060 0.55159
 Zr391 Zr 0.39666 0.94213 0.58203
 O392 O 0.35807 0.92208 0.61798
 Zr393 Zr 0.43973 0.86592 0.57878
 O394 O 0.40436 0.84257 0.61582
 Zr395 Zr 0.37447 0.88127 0.52242
 O396 O 0.33609 0.85732 0.55545
 O397 O 0.33849 0.85684 0.62280
 O398 O 0.41728 0.90493 0.54781
 C399 C 0.37560 0.80120 0.66737
 C400 C 0.30618 0.90900 0.67065
 C401 C 0.27904 0.82244 0.59079
 C402 C 0.40272 0.95559 0.50061
 C403 C 0.47930 0.93793 0.58033
 C404 C 0.45091 0.87082 0.49647
 H405 H 0.43897 0.91323 0.62995
 H406 H 0.40729 0.82154 0.53616
 H407 H 0.32149 0.84607 0.63981
 H408 H 0.34108 0.93965 0.54084
 H409 H 0.34808 0.98809 0.59463
 H410 H 0.29630 0.96076 0.58807
 H411 H 0.46474 0.80964 0.54834
 H412 H 0.41344 0.77678 0.59011
 H413 H 0.42365 0.97014 0.63859
 H414 H 0.38075 0.94300 0.67735
 H415 H 0.37036 0.82171 0.48905
 H416 H 0.33316 0.79463 0.53178
 H417 H 0.43926 0.85987 0.67620
 H418 H 0.48099 0.86710 0.63332
 H419 H 0.27957 0.88682 0.53368
 H420 H 0.32571 0.91655 0.48880
 O421 O 0.86845 0.34915 0.76716
 O422 O 0.91144 0.39720 0.76810
 O423 O 0.78280 0.40049 0.71092
 O424 O 0.77617 0.42807 0.65873
 O425 O 0.81326 0.29484 0.68145
 O426 O 0.86314 0.27080 0.65077
 O427 O 0.88547 0.45706 0.59934
 O428 O 0.84748 0.48088 0.64490
 O429 O 0.97137 0.41477 0.66155
 O430 O 0.97437 0.37214 0.71138
 O431 O 0.92448 0.35122 0.58166
 O432 O 0.86806 0.31918 0.57635
 O433 O 0.88513 0.40543 0.56891
 O434 O 0.83830 0.36043 0.56600
 O435 O 0.96685 0.35759 0.62378
 O436 O 0.97170 0.32891 0.68164
 O437 O 0.93584 0.46152 0.64859
 O438 O 0.89425 0.48636 0.68164
 O439 O 0.86095 0.29923 0.73469
 O440 O 0.89982 0.27455 0.69179
 O441 O 0.77751 0.34247 0.67249
 O442 O 0.77647 0.38360 0.62264
 O443 O 0.82232 0.39828 0.75629
 O444 O 0.87406 0.43764 0.75940
 Zr445 Zr 0.87128 0.39043 0.72973
 O446 O 0.90922 0.41218 0.69446
 Zr447 Zr 0.81184 0.38563 0.66606
 O448 O 0.84692 0.40677 0.62816
 Zr449 Zr 0.86476 0.31699 0.68205
 O450 O 0.90245 0.33536 0.64524
 Zr451 Zr 0.88440 0.43958 0.65276
 O452 O 0.84632 0.42180 0.69078
 Zr453 Zr 0.93732 0.37136 0.66936
 O454 O 0.90212 0.34958 0.70771
 Zr455 Zr 0.87689 0.36553 0.60633
 O456 O 0.83850 0.34383 0.64093
 O457 O 0.83530 0.35626 0.70613
 O458 O 0.91411 0.40006 0.62820
 C459 C 0.86391 0.31558 0.76425
 C460 C 0.79078 0.40200 0.74388
 C461 C 0.78276 0.30928 0.67709
 C462 C 0.88578 0.43927 0.57037
 C463 C 0.96635 0.44751 0.65404
 C464 C 0.95666 0.34952 0.59238
 H465 H 0.92508 0.42817 0.70779
 H466 H 0.91493 0.31476 0.63522
 H467 H 0.81796 0.34573 0.72289
 H468 H 0.83306 0.41983 0.61022
 H469 H 0.83159 0.48107 0.66583
 H470 H 0.78799 0.44540 0.64288
 H471 H 0.96350 0.30800 0.66829
 H472 H 0.91932 0.28415 0.70645
 H473 H 0.88890 0.48065 0.70661
 H474 H 0.85567 0.45369 0.74986
 H475 H 0.88386 0.30054 0.58572
 H476 H 0.84824 0.27636 0.62995
 H477 H 0.92804 0.37720 0.76520
 H478 H 0.97187 0.39497 0.72378
 H479 H 0.78171 0.36154 0.60968
 H480 H 0.82348 0.38197 0.56615
 O481 O 0.82895 0.84000 0.18129
 O482 O 0.81072 0.87292 0.13314
 O483 O 0.86302 0.74257 0.12601
 O484 O 0.90417 0.72598 0.08896
 O485 O 0.91892 0.78615 0.21317
 O486 O 0.96675 0.82989 0.21392
 O487 O 0.94542 0.82887 0.02113
 O488 O 0.89667 0.79053 0.02011
 O489 O 0.90802 0.92309 0.06666
 O490 O 0.88123 0.93937 0.11973
 O491 O 1.00605 0.87713 0.10510
 O492 O 1.02178 0.82821 0.13777
 O493 O 0.99499 0.83615 0.05436
 O494 O 1.00961 0.78752 0.10274
 O495 O 0.96625 0.92196 0.10945
 O496 O 0.91857 0.93398 0.15631
 O497 O 0.90069 0.87856 0.02721
 O498 O 0.85694 0.83129 0.02512
 O499 O 0.87816 0.84237 0.21580
 O500 O 0.93367 0.87390 0.21756
 O501 O 0.91643 0.74334 0.17136
 O502 O 0.95308 0.73371 0.11661
 O503 O 0.82077 0.78489 0.13241
 O504 O 0.80661 0.83548 0.09440
 Zr505 Zr 0.84988 0.83322 0.12987
 O506 O 0.87613 0.86501 0.09211
 Zr507 Zr 0.91078 0.76990 0.12279
 O508 O 0.93818 0.79787 0.08292
 Zr509 Zr 0.92102 0.83298 0.18174
 O510 O 0.95056 0.86373 0.14516
 Zr511 Zr 0.90332 0.83202 0.05686
 O512 O 0.87468 0.80007 0.09275
 Zr513 Zr 0.91628 0.89606 0.11538
 O514 O 0.88674 0.86759 0.15430
 Zr515 Zr 0.97514 0.83144 0.10703
 O516 O 0.95008 0.80048 0.14721
 O517 O 0.88288 0.80057 0.15899
 O518 O 0.94229 0.86506 0.07813
 C519 C 0.84452 0.84459 0.21118
 C520 C 0.83078 0.75240 0.12956
 C521 C 0.91755 0.75347 0.20371
 C522 C 0.97899 0.83336 0.02439
 C523 C 0.90193 0.91140 0.03526
 C524 C 0.99812 0.90991 0.10686
 H525 H 0.85839 0.87996 0.08004
 H526 H 0.96810 0.87763 0.15873
 H527 H 0.86839 0.78701 0.17628
 H528 H 0.94951 0.78129 0.06625
 H529 H 0.88149 0.77240 0.03171
 H530 H 0.91141 0.73365 0.06496
 H531 H 0.94182 0.93153 0.16818
 H532 H 0.91767 0.89385 0.21202
 H533 H 0.84155 0.85111 0.03236
 H534 H 0.81075 0.81708 0.07633
 H535 H 1.01567 0.83763 0.16136
 H536 H 0.98074 0.80952 0.20537
 H537 H 0.82254 0.89388 0.14350
 H538 H 0.85782 0.93135 0.11106
 H539 H 0.97094 0.73925 0.13496
 H540 H 1.00777 0.77810 0.07844
 O541 O 0.34681 0.37576 0.22519
 O542 O 0.37931 0.42895 0.22690
 O543 O 0.24645 0.41649 0.18400
 O544 O 0.22844 0.44503 0.13582
 O545 O 0.28727 0.31873 0.14292
 O546 O 0.33586 0.30514 0.10407
 O547 O 0.33236 0.49669 0.06803
 O548 O 0.28989 0.50947 0.11439
 O549 O 0.42338 0.46399 0.11269
 O550 O 0.43908 0.41905 0.15987
 O551 O 0.37535 0.39919 0.03558
 O552 O 0.32516 0.36016 0.03282
 O553 O 0.32852 0.44818 0.03294
 O554 O 0.28697 0.39579 0.03220
 O555 O 0.42236 0.40461 0.07277
 O556 O 0.43944 0.37772 0.12772
 O557 O 0.37862 0.50405 0.11163
 O558 O 0.33831 0.51756 0.15373
 O559 O 0.34290 0.32710 0.19037
 O560 O 0.37652 0.31090 0.14004
 O561 O 0.24438 0.36092 0.14104
 O562 O 0.23176 0.40496 0.09547
 O563 O 0.29113 0.41683 0.22425
 O564 O 0.33792 0.46450 0.22366
 Zr565 Zr 0.33710 0.41876 0.19162
 O566 O 0.36715 0.44826 0.15447
 Zr567 Zr 0.27123 0.40903 0.13507
 O568 O 0.29766 0.43846 0.09562
 Zr569 Zr 0.33517 0.34852 0.13916
 O570 O 0.36466 0.37540 0.09995
 Zr571 Zr 0.33299 0.47406 0.11910
 O572 O 0.30266 0.44825 0.15907
 Zr573 Zr 0.39763 0.41451 0.12241
 O574 O 0.37065 0.38498 0.16249
 Zr575 Zr 0.33019 0.40408 0.06696
 O576 O 0.30043 0.37382 0.10365
 O577 O 0.30358 0.38097 0.16975
 O578 O 0.36479 0.44178 0.08760
 C579 C 0.34817 0.34225 0.22032
 C580 C 0.25800 0.41678 0.21591
 C581 C 0.25457 0.32866 0.14249
 C582 C 0.33033 0.48176 0.03770
 C583 C 0.41140 0.49584 0.10971
 C584 C 0.40862 0.39847 0.04221
 H585 H 0.38201 0.46563 0.16722
 H586 H 0.37836 0.35749 0.08682
 H587 H 0.29048 0.36662 0.18751
 H588 H 0.28045 0.45101 0.08042
 H589 H 0.27534 0.50663 0.13608
 H590 H 0.23522 0.46524 0.12049
 H591 H 0.43178 0.35567 0.11595
 H592 H 0.39650 0.32196 0.15293
 H593 H 0.32337 0.51231 0.17462
 H594 H 0.31449 0.47601 0.22132
 H595 H 0.34290 0.34242 0.04025
 H596 H 0.31765 0.30996 0.08584
 H597 H 0.39992 0.41556 0.21789
 H598 H 0.43602 0.44168 0.17253
 H599 H 0.23828 0.38470 0.08033
 H600 H 0.27121 0.41659 0.03360
 O601 O 0.38505 0.68053 0.75675
 O602 O 0.40241 0.62257 0.74531
 O603 O 0.28713 0.66678 0.81265
 O604 O 0.26842 0.63686 0.86129
 O605 O 0.36076 0.74138 0.84866
 O606 O 0.41529 0.73766 0.88164
 O607 O 0.35242 0.55340 0.90359
 O608 O 0.31111 0.55204 0.86126
 O609 O 0.45152 0.56428 0.85094
 O610 O 0.47136 0.60591 0.80260
 O611 O 0.43592 0.62588 0.93766
 O612 O 0.40402 0.67315 0.95426
 O613 O 0.37066 0.59274 0.94508
 O614 O 0.35217 0.65837 0.95400
 O615 O 0.47104 0.61357 0.89043
 O616 O 0.48685 0.64481 0.83570
 O617 O 0.39768 0.53755 0.85694
 O618 O 0.34372 0.54299 0.81550
 O619 O 0.40016 0.72467 0.79464
 O620 O 0.44853 0.72177 0.83916
 O621 O 0.30722 0.71413 0.85567
 O622 O 0.29017 0.67170 0.90317
 O623 O 0.32156 0.65188 0.76537
 O624 O 0.35396 0.59634 0.75478
 Zr625 Zr 0.37041 0.63765 0.78860
 O626 O 0.39582 0.59730 0.81721
 Zr627 Zr 0.31952 0.65998 0.85687
 O628 O 0.34114 0.61930 0.88790
 Zr629 Zr 0.39731 0.69940 0.84516
 O630 O 0.42209 0.66112 0.87755
 Zr631 Zr 0.36032 0.57860 0.85551
 O632 O 0.33343 0.61668 0.82481
 Zr633 Zr 0.43830 0.61832 0.84618
 O634 O 0.41628 0.65801 0.81320
 Zr635 Zr 0.38631 0.63831 0.91442
 O636 O 0.36273 0.68079 0.88537
 O637 O 0.35355 0.68022 0.81858
 O638 O 0.40426 0.59619 0.88411
 C639 C 0.39483 0.71235 0.76328
 C640 C 0.29268 0.66327 0.77938
 C641 C 0.32676 0.74175 0.85175
 C642 C 0.35672 0.56284 0.93570
 C643 C 0.43171 0.53686 0.85529
 C644 C 0.46599 0.61774 0.92366
 H645 H 0.40363 0.57836 0.80112
 H646 H 0.44227 0.67267 0.88963
 H647 H 0.34251 0.69878 0.80380
 H648 H 0.32247 0.61091 0.90435
 H649 H 0.29323 0.56673 0.84897
 H650 H 0.27075 0.61489 0.87538
 H651 H 0.48885 0.66462 0.85258
 H652 H 0.45970 0.70980 0.81876
 H653 H 0.36482 0.53456 0.80247
 H654 H 0.33145 0.58684 0.76461
 H655 H 0.41625 0.69291 0.94197
 H656 H 0.39904 0.73628 0.90223
 H657 H 0.42721 0.62755 0.75236
 H658 H 0.46060 0.58577 0.78983
 H659 H 0.30365 0.69002 0.91616
 H660 H 0.33083 0.64302 0.95483
 O661 O 0.11396 0.71215 0.68960
 O662 O 0.07945 0.66279 0.71457
 O663 O 0.21004 0.66440 0.65820
 O664 O 0.22977 0.62496 0.61950
 O665 O 0.14954 0.73380 0.58660
 O666 O 0.09795 0.72197 0.54907
 O667 O 0.13349 0.53868 0.59658
 O668 O 0.17881 0.55140 0.63956
 O669 O 0.03893 0.57370 0.63499
 O670 O 0.02047 0.63433 0.66215
 O671 O 0.06906 0.60377 0.53194
 O672 O 0.11169 0.64479 0.50672
 O673 O 0.12156 0.56469 0.54362
 O674 O 0.15694 0.61683 0.51670
 O675 O 0.02947 0.60430 0.57741
 O676 O 0.00866 0.65200 0.61147
 O677 O 0.08984 0.54316 0.64435
 O678 O 0.14017 0.55441 0.68327
 O679 O 0.10478 0.73965 0.63667
 O680 O 0.06045 0.72747 0.59097
 O681 O 0.19980 0.70269 0.59807
 O682 O 0.21551 0.64613 0.56808
 O683 O 0.16733 0.67268 0.70006
 O684 O 0.12539 0.63155 0.72476
 Zr685 Zr 0.11986 0.65845 0.67592
 O686 O 0.09401 0.61204 0.65950
 Zr687 Zr 0.18110 0.65169 0.61209
 O688 O 0.15724 0.60523 0.59239
 Zr689 Zr 0.10774 0.69868 0.59906
 O690 O 0.08055 0.65428 0.57894
 Zr691 Zr 0.13059 0.57925 0.63375
 O692 O 0.15754 0.62337 0.65438
 Zr693 Zr 0.05692 0.62516 0.62051
 O694 O 0.07982 0.67263 0.64000
 Zr695 Zr 0.11706 0.61899 0.55622
 O696 O 0.14391 0.66559 0.57278
 O697 O 0.14614 0.68609 0.63617
 O698 O 0.09184 0.59046 0.59633
 C699 C 0.10952 0.73995 0.67037
 C700 C 0.19968 0.67247 0.68963
 C701 C 0.18347 0.73124 0.58925
 C702 C 0.12777 0.53743 0.56317
 C703 C 0.05596 0.54520 0.64272
 C704 C 0.03810 0.59821 0.54520
 H705 H 0.08265 0.60027 0.68002
 H706 H 0.06268 0.66236 0.56161
 H707 H 0.15927 0.70662 0.64565
 H708 H 0.17527 0.58967 0.58165
 H709 H 0.19521 0.56713 0.65265
 H710 H 0.22586 0.59987 0.61329
 H711 H 0.01421 0.67236 0.59587
 H712 H 0.04548 0.72350 0.61221
 H713 H 0.12053 0.56044 0.69952
 H714 H 0.14468 0.61417 0.72148
 H715 H 0.09204 0.66190 0.50896
 H716 H 0.11703 0.71374 0.53308
 H717 H 0.05947 0.67540 0.70324
 H718 H 0.02597 0.61762 0.68159
 H719 H 0.20459 0.65905 0.54806
 H720 H 0.17422 0.59846 0.52363
 O721 O 0.11809 0.15197 0.22977
 O722 O 0.10499 0.09219 0.23932
 O723 O 0.22109 0.14371 0.17719
 O724 O 0.24075 0.11797 0.12698
 O725 O 0.14387 0.21758 0.14003
 O726 O 0.09078 0.21296 0.10579
 O727 O 0.15565 0.03245 0.07911
 O728 O 0.20118 0.03340 0.12037
 O729 O 0.06007 0.03755 0.13266
 O730 O 0.03758 0.07725 0.18116
 O731 O 0.07463 0.10414 0.04698
 O732 O 0.10933 0.15780 0.03531
 O733 O 0.13141 0.07140 0.04015
 O734 O 0.15857 0.13443 0.03124
 O735 O 0.04097 0.08352 0.09269
 O736 O 0.02081 0.11563 0.14678
 O737 O 0.11463 0.01343 0.12498
 O738 O 0.16835 0.01886 0.16668
 O739 O 0.10258 0.19698 0.19282
 O740 O 0.05712 0.19498 0.14685
 O741 O 0.19895 0.19405 0.13381
 O742 O 0.21860 0.15404 0.08608
 O743 O 0.18339 0.12774 0.22171
 O744 O 0.15437 0.07027 0.23047
 Zr745 Zr 0.13651 0.11156 0.19709
 O746 O 0.11366 0.07120 0.16680
 Zr747 Zr 0.18900 0.13899 0.13147
 O748 O 0.16889 0.09896 0.09787
 Zr749 Zr 0.10890 0.17423 0.14194
 O750 O 0.08556 0.13656 0.10814
 Zr751 Zr 0.15061 0.05604 0.12840
 O752 O 0.17524 0.09367 0.16139
 Zr753 Zr 0.07086 0.09187 0.13822
 O754 O 0.09060 0.13109 0.17247
 Zr755 Zr 0.12321 0.11741 0.07161
 O756 O 0.14543 0.15891 0.10261
 O757 O 0.15290 0.15624 0.16922
 O758 O 0.10658 0.07368 0.10064
 C759 C 0.10660 0.18334 0.22388
 C760 C 0.21334 0.13930 0.21016
 C761 C 0.17777 0.22042 0.13727
 C762 C 0.14415 0.04078 0.04831
 C763 C 0.08058 0.01130 0.12637
 C764 C 0.04630 0.08984 0.05980
 H765 H 0.10632 0.05124 0.18216
 H766 H 0.06503 0.14740 0.09607
 H767 H 0.16273 0.17473 0.18486
 H768 H 0.18734 0.09124 0.08099
 H769 H 0.21797 0.04675 0.13542
 H770 H 0.23928 0.09715 0.11131
 H771 H 0.01722 0.13363 0.12806
 H772 H 0.04457 0.17991 0.16441
 H773 H 0.14758 0.01006 0.18021
 H774 H 0.17676 0.06143 0.22009
 H775 H 0.08778 0.16938 0.04460
 H776 H 0.10706 0.21224 0.08521
 H777 H 0.08005 0.09676 0.23263
 H778 H 0.04860 0.05697 0.19353
 H779 H 0.20322 0.16973 0.07180
 H780 H 0.17722 0.11629 0.02859
 O781 O 0.69594 0.36864 0.85596
 O782 O 0.69784 0.39983 0.90831
 O783 O 0.64795 0.26965 0.90665
 O784 O 0.59831 0.24901 0.92216
 O785 O 0.61060 0.30884 0.79901
 O786 O 0.57474 0.35821 0.78373
 O787 O 0.53379 0.36241 0.97287
 O788 O 0.57616 0.31707 0.98927
 O789 O 0.58556 0.44867 0.93947
 O790 O 0.63202 0.46212 0.89424
 O791 O 0.50555 0.40133 0.87473
 O792 O 0.50340 0.34994 0.83560
 O793 O 0.50004 0.35745 0.92351
 O794 O 0.49882 0.31362 0.87402
 O795 O 0.54414 0.44691 0.88258
 O796 O 0.60103 0.46094 0.85199
 O797 O 0.58082 0.40490 0.98064
 O798 O 0.62018 0.35696 0.99702
 O799 O 0.66025 0.36555 0.80776
 O800 O 0.61219 0.39601 0.78788
 O801 O 0.60593 0.26716 0.84233
 O802 O 0.55862 0.25822 0.88829
 O803 O 0.69082 0.31197 0.90586
 O804 O 0.69195 0.36118 0.94522
 Zr805 Zr 0.66075 0.35886 0.89885
 O806 O 0.62383 0.39062 0.92653
 Zr807 Zr 0.60140 0.29477 0.88990
 O808 O 0.56213 0.32302 0.91749
 Zr809 Zr 0.60916 0.35677 0.82784
 O810 O 0.57044 0.38841 0.85242
 Zr811 Zr 0.58604 0.35835 0.95249
 O812 O 0.62532 0.32672 0.92845
 Zr813 Zr 0.59357 0.42123 0.89107
 O814 O 0.63304 0.39222 0.86362
 Zr815 Zr 0.53557 0.35555 0.88109
 O816 O 0.57179 0.32396 0.85312
 O817 O 0.63884 0.32455 0.86155
 O818 O 0.55688 0.39015 0.91817
 C819 C 0.68988 0.37283 0.82271
 C820 C 0.68000 0.28008 0.91159
 C821 C 0.60607 0.27681 0.80980
 C822 C 0.50367 0.36198 0.95689
 C823 C 0.58123 0.43745 0.97150
 C824 C 0.51292 0.43438 0.87618
 H825 H 0.63696 0.40575 0.94329
 H826 H 0.55800 0.40225 0.83403
 H827 H 0.65687 0.31025 0.84905
 H828 H 0.54587 0.30683 0.93036
 H829 H 0.59505 0.29933 0.98575
 H830 H 0.59116 0.25704 0.94599
 H831 H 0.58464 0.45583 0.83225
 H832 H 0.62057 0.41786 0.79958
 H833 H 0.63802 0.37604 0.99419
 H834 H 0.68129 0.34423 0.96231
 H835 H 0.50977 0.36922 0.81891
 H836 H 0.55530 0.34117 0.78870
 H837 H 0.68914 0.42083 0.89527
 H838 H 0.64551 0.45867 0.91641
 H839 H 0.54526 0.26309 0.86629
 H840 H 0.49867 0.29894 0.89577
 O841 O 0.13918 0.87066 0.74990
 O842 O 0.09876 0.91854 0.75009
 O843 O 0.23084 0.92237 0.80052
 O844 O 0.23226 0.95788 0.85042
 O845 O 0.20730 0.82056 0.83243
 O846 O 0.16114 0.79252 0.86617
 O847 O 0.12713 0.97626 0.91807
 O848 O 0.16061 1.00291 0.87113
 O849 O 0.04178 0.92644 0.85935
 O850 O 0.04011 0.88520 0.80846
 O851 O 0.09334 0.86888 0.93828
 O852 O 0.15113 0.83857 0.94067
 O853 O 0.13388 0.92477 0.94846
 O854 O 0.18117 0.88060 0.94897
 O855 O 0.05214 0.86934 0.89468
 O856 O 0.04656 0.84235 0.83675
 O857 O 0.07318 0.97640 0.87083
 O858 O 0.11199 1.00488 0.83629
 O859 O 0.15039 0.82060 0.78145
 O860 O 0.12380 0.79124 0.82800
 O861 O 0.23987 0.87002 0.84343
 O862 O 0.24021 0.91260 0.88904
 O863 O 0.18712 0.92433 0.75932
 O864 O 0.13398 0.95869 0.75720
 Zr865 Zr 0.14014 0.91169 0.78717
 O866 O 0.10227 0.93020 0.82368
 Zr867 Zr 0.20249 0.91038 0.84764
 O868 O 0.16711 0.92809 0.88726
 Zr869 Zr 0.15389 0.83810 0.83436
 O870 O 0.11610 0.85315 0.87240
 Zr871 Zr 0.12643 0.95883 0.86475
 O872 O 0.16434 0.94434 0.82515
 Zr873 Zr 0.07857 0.88674 0.84922
 O874 O 0.11359 0.86819 0.81026
 Zr875 Zr 0.14025 0.88488 0.91091
 O876 O 0.17913 0.86697 0.87453
 O877 O 0.17939 0.87941 0.80841
 O878 O 0.10032 0.91679 0.89009
 C879 C 0.14194 0.83691 0.75269
 C880 C 0.21985 0.92678 0.76858
 C881 C 0.23695 0.83669 0.83825
 C882 C 0.13127 0.95857 0.94698
 C883 C 0.04374 0.95944 0.86662
 C884 C 0.06161 0.86365 0.92671
 H885 H 0.08471 0.94494 0.81106
 H886 H 0.10506 0.83166 0.88267
 H887 H 0.19587 0.86949 0.79064
 H888 H 0.18103 0.94185 0.90458
 H889 H 0.17532 1.00477 0.84942
 H890 H 0.22235 0.97190 0.87011
 H891 H 0.05503 0.82204 0.85097
 H892 H 0.10053 0.79859 0.81843
 H893 H 0.11659 0.99982 0.81111
 H894 H 0.15037 0.97653 0.76728
 H895 H 0.13587 0.81933 0.93156
 H896 H 0.17558 0.79996 0.88670
 H897 H 0.08130 0.89941 0.75469
 H898 H 0.03846 0.90914 0.79788
 H899 H 0.23584 0.89169 0.90434
 H900 H 0.19490 0.90298 0.94854
 O901 O 0.70732 0.12960 0.70492
 O902 O 0.73918 0.09768 0.65973
 O903 O 0.66420 0.21647 0.64526
 O904 O 0.62664 0.22388 0.59830
 O905 O 0.59853 0.15745 0.71783
 O906 O 0.56899 0.10245 0.71618
 O907 O 0.61822 0.12304 0.52769
 O908 O 0.66434 0.16549 0.53545
 O909 O 0.66704 0.03286 0.58241
 O910 O 0.68833 0.02166 0.63888
 O911 O 0.55920 0.05594 0.59742
 O912 O 0.52607 0.09585 0.63008
 O913 O 0.56518 0.11057 0.55377
 O914 O 0.53315 0.14257 0.60438
 O915 O 0.60688 0.02160 0.61023
 O916 O 0.64358 0.01822 0.66814
 O917 O 0.66091 0.07445 0.53954
 O918 O 0.70421 0.12031 0.54323
 O919 O 0.65416 0.11838 0.73151
 O920 O 0.61180 0.06888 0.72342
 O921 O 0.60722 0.20441 0.68098
 O922 O 0.57774 0.20860 0.62105
 O923 O 0.71210 0.18322 0.66004
 O924 O 0.74363 0.13990 0.62395
 Zr925 Zr 0.69495 0.13064 0.65048
 O926 O 0.68251 0.09531 0.60922
 Zr927 Zr 0.62442 0.18021 0.63334
 O928 O 0.61010 0.14833 0.59021
 Zr929 Zr 0.61744 0.11369 0.69007
 O930 O 0.60091 0.07921 0.65000
 Zr931 Zr 0.65448 0.12173 0.56929
 O932 O 0.67015 0.15851 0.60894
 Zr933 Zr 0.64638 0.05685 0.62743
 O934 O 0.66298 0.08881 0.66997
 Zr935 Zr 0.57666 0.10760 0.60858
 O936 O 0.58836 0.14153 0.65156
 O937 O 0.65106 0.15408 0.67346
 O938 O 0.61988 0.08217 0.58610
 C939 C 0.68771 0.12465 0.73243
 C940 C 0.69607 0.21304 0.65631
 C941 C 0.59828 0.19073 0.71103
 C942 C 0.58460 0.11796 0.52659
 C943 C 0.66630 0.04233 0.54987
 C944 C 0.57479 0.02586 0.59976
 H945 H 0.70442 0.08449 0.59981
 H946 H 0.58480 0.06108 0.66014
 H947 H 0.65823 0.17002 0.69285
 H948 H 0.59864 0.16398 0.57263
 H949 H 0.68067 0.18163 0.54813
 H950 H 0.63813 0.21524 0.57649
 H951 H 0.61824 0.01378 0.67356
 H952 H 0.63492 0.05655 0.72338
 H953 H 0.72136 0.13210 0.55900
 H954 H 0.73987 0.16011 0.60762
 H955 H 0.53000 0.08463 0.65342
 H956 H 0.55025 0.11460 0.70247
 H957 H 0.73031 0.07706 0.67346
 H958 H 0.71072 0.03460 0.63416
 H959 H 0.55880 0.19958 0.63696
 H960 H 0.53926 0.16052 0.58618
 N961 N 0.40874 0.72071 0.70211
 N962 N 0.40194 0.74275 0.67588
 C963 C 0.38709 0.77172 0.69010
 C964 C 0.38566 0.76701 0.72659
 N965 N 0.39943 0.73454 0.73281
 H966 H 0.37327 0.78391 0.74602
 N967 N 0.35937 0.33472 0.28275
 N968 N 0.36870 0.31009 0.30579
 C969 C 0.37196 0.27968 0.28766
 C970 C 0.36401 0.28634 0.25251
 N971 N 0.35629 0.32110 0.25072
 H972 H 0.36410 0.26803 0.23059
 N973 N 0.65245 0.78896 0.17449
 N974 N 0.65695 0.81517 0.19713
 C975 C 0.64774 0.80265 0.22934
 C976 C 0.63722 0.76765 0.22569
 N977 N 0.64058 0.76023 0.19097
 H978 H 0.62852 0.74941 0.24616
 N979 N 0.08650 0.18749 0.28386
 N980 N 0.08759 0.20944 0.31083
 C981 C 0.10033 0.24049 0.29849
 C982 C 0.10665 0.23706 0.26246
 N983 N 0.09768 0.20334 0.25460
 H984 H 0.11933 0.25585 0.24474
 N985 N 0.12308 0.83057 0.69160
 N986 N 0.11222 0.80568 0.66954
 C987 C 0.11429 0.77463 0.68711
 C988 C 0.12757 0.78122 0.72054
 N989 N 0.13284 0.81643 0.72218
 H990 H 0.13310 0.76232 0.74142
 N991 N 0.86283 0.30909 0.82822
 N992 N 0.86039 0.28380 0.85249
 C993 C 0.85728 0.25297 0.83495
 C994 C 0.85790 0.26000 0.79917
 N995 N 0.86146 0.29531 0.79615
 H996 H 0.85650 0.24137 0.77755
 N997 N 0.70610 0.41714 0.77986
 N998 N 0.73285 0.42693 0.75934
 C999 C 0.76071 0.40653 0.76808
 C1000 C 0.74991 0.38332 0.79479
 N1001 N 0.71554 0.39093 0.80112
 H1002 H 0.76417 0.36090 0.80547
 N1003 N 0.21699 0.70307 0.74214
 N1004 N 0.24074 0.70021 0.76755
 C1005 C 0.26451 0.67613 0.75659
 C1006 C 0.25518 0.66468 0.72333
 N1007 N 0.22517 0.68211 0.71545
 H1008 H 0.26673 0.64338 0.70818
 N1009 N 0.22620 0.16314 0.26713
 N1010 N 0.25270 0.16687 0.28947
 C1011 C 0.28227 0.15632 0.27257
 C1012 C 0.27316 0.14608 0.23859
 N1013 N 0.23770 0.15062 0.23663
 H1014 H 0.28973 0.13373 0.21880
 N1015 N 0.68460 0.12640 0.79620
 N1016 N 0.70563 0.12903 0.82397
 C1017 C 0.73906 0.13224 0.81152
 C1018 C 0.73799 0.13139 0.77499
 N1019 N 0.70343 0.12752 0.76665
 H1020 H 0.75999 0.13212 0.75653
 N1021 N 0.83758 0.85527 0.27375
 N1022 N 0.81314 0.86454 0.29699
 C1023 C 0.78263 0.86890 0.27899
 C1024 C 0.78903 0.86159 0.24368
 N1025 N 0.82372 0.85307 0.24170
 H1026 H 0.77044 0.86192 0.22189
 N1027 N 0.69928 0.73025 0.37966
 N1028 N 0.71900 0.70238 0.38639
 C1029 C 0.75322 0.71249 0.38295
 C1030 C 0.75396 0.74803 0.37381
 N1031 N 0.71954 0.75783 0.37195
 H1032 H 0.77676 0.76463 0.36804
 N1033 N 0.69591 0.27469 0.67153
 N1034 N 0.71813 0.30096 0.67786
 C1035 C 0.75101 0.28719 0.67687
 C1036 C 0.74843 0.25143 0.66982
 N1037 N 0.71349 0.24493 0.66642
 H1038 H 0.76962 0.23275 0.66524
 N1039 N 0.81470 0.69122 0.13640
 N1040 N 0.78708 0.66989 0.13352
 C1041 C 0.75912 0.69035 0.12527
 C1042 C 0.77029 0.72527 0.12362
 N1043 N 0.80525 0.72445 0.13081
 H1044 H 0.75488 0.74860 0.11744
 N1045 N 0.17183 0.28348 0.14412
 N1046 N 0.19136 0.31244 0.14639
 C1047 C 0.22557 0.30254 0.14361
 C1048 C 0.22646 0.26615 0.13932
 N1049 N 0.19219 0.25544 0.13969
 H1050 H 0.24938 0.24937 0.13579
 N1051 N 0.30105 0.83153 0.84078
 N1052 N 0.32582 0.80723 0.84548
 C1053 C 0.30881 0.77591 0.84823
 C1054 C 0.27277 0.78165 0.84446
 N1055 N 0.26913 0.81674 0.83980
 H1056 H 0.25142 0.76239 0.84536
 N1057 N 0.22603 0.22545 0.41959
 N1058 N 0.25489 0.20592 0.41983
 C1059 C 0.28031 0.22457 0.40292
 C1060 C 0.26598 0.25666 0.39202
 N1061 N 0.23181 0.25577 0.40286
 H1062 H 0.27809 0.27694 0.37559
 N1063 N 0.52693 0.60118 0.93316
 N1064 N 0.55213 0.60329 0.95727
 C1065 C 0.53752 0.61819 0.98610
 C1066 C 0.50204 0.62481 0.97905
 N1067 N 0.49666 0.61372 0.94560
 H1068 H 0.48250 0.63697 0.99608
 N1069 N 0.58603 0.13102 0.46390
 N1070 N 0.56411 0.13834 0.43763
 C1071 C 0.53098 0.13501 0.45074
 C1072 C 0.53314 0.12498 0.48585
 N1073 N 0.56803 0.12286 0.49296
 H1074 H 0.51167 0.12081 0.50454
 N1075 N 0.46038 0.88340 0.43449
 N1076 N 0.48572 0.89337 0.41228
 C1077 C 0.51616 0.89437 0.43084
 C1078 C 0.50866 0.88410 0.46543
 N1079 N 0.47345 0.87736 0.46644
 H1080 H 0.52682 0.88180 0.48746
 N1081 N 0.97456 0.30621 0.54986
 N1082 N 0.99728 0.30256 0.52350
 C1083 C 1.01974 0.33033 0.52485
 C1084 C 1.01001 0.35142 0.55312
 N1085 N 0.98170 0.33517 0.56803
 H1086 H 1.01985 0.37753 0.55965
 N1087 N 0.00388 0.83863 0.93610
 N1088 N -0.01879 0.83023 0.96139
 C1089 C -0.00242 0.83604 0.99247
 C1090 C 0.03188 0.84825 0.98527
 N1091 N 0.03431 0.84976 0.94951
 H1092 H 0.05181 0.85729 1.00376
 N1093 N -0.00405 0.05372 0.04534
 N1094 N -0.03147 0.05364 0.02373
 C1095 C -0.02612 0.08023 0.00046
 C1096 C 0.00577 0.09666 0.00820
 N1097 N 0.01848 0.07927 0.03663
 H1098 H 0.01660 0.12078 -0.00312
 N1099 N 0.14960 0.95905 1.00740
 N1100 N 0.15470 0.98038 1.03432
 C1101 C 0.14462 1.01300 1.02406
 C1102 C 0.13296 1.01092 0.98909
 N1103 N 0.13647 0.97644 0.97999
 H1104 H 0.12276 1.03184 0.97236
 N1105 N 0.13245 0.47411 0.56711
 N1106 N 0.12807 0.44550 0.54777
 C1107 C 0.11930 0.45639 0.51494
 C1108 C 0.11866 0.49306 0.51462
 N1109 N 0.12715 0.50291 0.54786
 H1110 H 0.11258 0.51062 0.49277
 N1111 N 0.31914 0.51396 0.95082
 N1112 N 0.31095 0.49226 0.97699
 C1113 C 0.32898 0.50340 1.00547
 C1114 C 0.34891 0.53317 0.99584
 N1115 N 0.34199 0.53852 0.96115
 H1116 H 0.36812 0.54756 1.01149
 N1117 N 0.88987 0.43925 0.50719
 N1118 N 0.88190 0.45904 0.47958
 C1119 C 0.87161 0.49069 0.49201
 C1120 C 0.87416 0.48997 0.52865
 N1121 N 0.88551 0.45706 0.53689
 H1122 H 0.86677 0.51032 0.54726
 N1123 N 0.89129 0.92443 -0.02612
 N1124 N 0.88205 0.95075 -0.04718
 C1125 C 0.87944 0.97979 -0.02689
 C1126 C 0.88789 0.97049 0.00766
 N1127 N 0.89511 0.93555 0.00679
 H1128 H 0.88831 0.98712 0.03088
 N1129 N 0.67656 -0.01843 0.53539
 N1130 N 0.67119 -0.04122 0.50964
 C1131 C 0.66027 -0.02258 0.48131
 C1132 C 0.65958 0.01302 0.49044
 N1133 N 0.66984 0.01426 0.52471
 H1134 H 0.65042 0.03517 0.47470
 N1135 N 0.59209 1.05679 0.34708
 N1136 N 0.56916 1.08300 0.34322
 C1137 C 0.53666 1.06820 0.34023
 C1138 C 0.54044 1.03183 0.34265
 N1139 N 0.57543 1.02588 0.34698
 H1140 H 0.51975 1.01184 0.34263
 N1141 N 0.08352 -0.05016 0.10917
 N1142 N 0.06224 -0.07718 0.10247
 C1143 C 0.02870 -0.06591 0.10755
 C1144 C 0.03005 -0.03094 0.11796
 N1145 N 0.06483 -0.02230 0.11882
 H1146 H 0.00820 -0.01385 0.12503
 N1147 N 0.42430 0.55621 0.09278
 N1148 N 0.45059 0.57948 0.09306
 C1149 C 0.47930 0.56226 0.10521
 C1150 C 0.46996 0.52735 0.11195
 N1151 N 0.43531 0.52482 0.10384
 H1152 H 0.48627 0.50638 0.12268
 N1153 N 0.05351 0.48321 0.65765
 N1154 N 0.03080 0.45661 0.66012
 C1155 C -0.00154 0.46969 0.65277
 C1156 C 0.00200 0.50565 0.64584
 N1157 N 0.03695 0.51288 0.64926
 H1158 H -0.01846 0.52439 0.63875
 N1159 N 0.45089 0.44572 0.86635
 N1160 N 0.42867 0.47193 0.86024
 C1161 C 0.44806 0.50192 0.85961
 C1162 C 0.48330 0.49327 0.86586
 N1163 N 0.48371 0.45777 0.86997
 H1164 H 0.50601 0.51081 0.86759
 N1165 N 0.56103 0.45213 1.02982
 N1166 N 0.56574 0.47641 1.05434
 C1167 C 0.58533 0.50239 1.03941
 C1168 C 0.59202 0.49360 1.00444
 N1169 N 0.57637 0.46187 0.99974
 H1170 H 0.60828 0.50760 0.98525
 N1171 N 0.42262 0.96227 0.44036
 N1172 N 0.43066 0.98720 0.41704
 C1173 C 0.42881 1.01823 0.43429
 C1174 C 0.41981 1.01156 0.46927
 N1175 N 0.41566 0.97630 0.47162
 H1176 H 0.41368 1.03041 0.48986
 N1177 N -0.01345 0.56189 0.53627
 N1178 N -0.03992 0.55864 0.51372
 C1179 C -0.03191 0.57920 0.48557
 C1180 C 0.00058 0.59519 0.49135
 N1181 N 0.01103 0.58362 0.52343
 H1182 H 0.01318 0.61599 0.47596
 N1183 N 0.44045 0.36731 0.95998
 N1184 N 0.41508 0.37832 0.98118
 C1185 C 0.43044 0.38748 1.01196
 C1186 C 0.46666 0.38122 1.00909
 N1187 N 0.47156 0.36855 0.97603
 H1188 H 0.48716 0.38581 1.02857
 N1189 N 0.56985 -0.03677 0.58694
 N1190 N 0.54503 -0.06098 0.58148
 C1191 C 0.51365 -0.04396 0.58163
 C1192 C 0.51992 -0.00847 0.58719
 N1193 N 0.55530 -0.00519 0.59048
 H1194 H 0.50069 0.01247 0.59043
 N1195 N -0.04226 0.42440 0.41696
 N1196 N -0.06791 0.44655 0.40885
 C1197 C -0.05237 0.47704 0.39844
 C1198 C -0.01588 0.47309 0.40096
 N1199 N -0.01087 0.43962 0.41260
 H1200 H 0.00472 0.49197 0.39406
 N1201 N -0.01950 0.95945 0.86240
 N1202 N -0.04732 0.98016 0.86503
 C1203 C -0.03539 1.01266 0.87351
 C1204 C 0.00157 1.01114 0.87605
 N1205 N 0.01014 0.97709 0.86895
 H1206 H 0.01998 1.03213 0.88265
 N1207 N 0.67910 0.62426 0.27878
 N1208 N 0.70162 0.61902 0.30498
 C1209 C 0.73327 0.61095 0.29036
 C1210 C 0.72948 0.61140 0.25401
 N1211 N 0.69520 0.61984 0.24804
 H1212 H 0.74949 0.60657 0.23403
 N1213 N 0.23836 0.95654 0.71511
 N1214 N 0.26051 0.95193 0.68839
 C1215 C 0.28215 0.92494 0.69708
 C1216 C 0.27255 0.91321 0.73070
 N1217 N 0.24509 0.93383 0.74093
 H1218 H 0.28188 0.88988 0.74450
 N1219 N 0.19848 0.42495 0.23663
 N1220 N 0.17678 0.41237 0.26111
 C1221 C 0.19650 0.39327 0.28384
 C1222 C 0.23162 0.39510 0.27282
 N1223 N 0.23149 0.41511 0.24301
 H1224 H 0.25412 0.38085 0.28337
 N1225 N 0.92533 0.69331 0.22236
 N1226 N 0.91248 0.67059 0.24575
 C1227 C 0.89292 0.68905 0.26906
 C1228 C 0.89480 0.72460 0.25940
 N1229 N 0.91531 0.72591 0.22987
 H1230 H 0.88036 0.74653 0.27068
 N1231 N 0.57154 0.20067 0.76761
 N1232 N 0.57489 0.22193 0.79495
 C1233 C 0.59622 0.24883 0.78480
 C1234 C 0.60537 0.24378 0.74961
 N1235 N 0.58941 0.21314 0.74006
 H1236 H 0.62399 0.25896 0.73374
 N1237 N 0.69176 0.22976 0.94894
 N1238 N 0.71700 0.20677 0.95635
 C1239 C 0.74639 0.21735 0.93886
 C1240 C 0.73810 0.24796 0.91995
 N1241 N 0.70358 0.25456 0.92700
 H1242 H 0.75418 0.26159 0.90035
 N1243 N 0.18939 0.79455 0.57975
 N1244 N 0.21389 0.81970 0.58133
 C1245 C 0.24500 0.80356 0.58805
 C1246 C 0.23889 0.76754 0.59016
 N1247 N 0.20383 0.76306 0.58478
 H1248 H 0.25780 0.74683 0.59594
   
