data_POSCAR
  _audit_creation_date              2014-09-24
  _audit_creation_method            'ToBaCCo'
  _symmetry_space_group_name_H-M    'P1'
  _symmetry_Int_Tables_number       1
  _symmetry_cell_setting            triclinic
  loop_
  _symmetry_equiv_pos_as_xyz
 x,y,z
_cell_length_a 88.1144
_cell_length_b 87.8795
_cell_length_c 86.4682
_cell_angle_alpha 90.009900
_cell_angle_beta 90.077600
_cell_angle_gamma 90.028700
loop_
  _atom_site_label
  _atom_site_type_symbol
  _atom_site_fract_x
  _atom_site_fract_y
  _atom_site_fract_z
C1 C 0.32297 0.44726 0.92962
 C2 C 0.31649 0.45362 0.91628
 C3 C 0.30345 0.44716 0.90953
 C4 C 0.29678 0.43433 0.91646
 C5 C 0.30313 0.42784 0.92980
 C6 C 0.31632 0.43429 0.93637
 C7 C 0.33623 0.45347 0.93605
 C8 C 0.34322 0.44687 0.94918
 C9 C 0.33623 0.43395 0.95587
 C10 C 0.32298 0.42764 0.94955
 C11 C 0.31639 0.41461 0.95611
 C12 C 0.30334 0.40800 0.94956
 C13 C 0.29672 0.41477 0.93644
 H14 H 0.32160 0.46362 0.91111
 H15 H 0.28687 0.42913 0.91122
 H16 H 0.34144 0.46298 0.93015
 H17 H 0.34077 0.42890 0.96631
 H18 H 0.32148 0.40955 0.96631
 H19 H 0.28681 0.40963 0.93115
 C20 C 0.44723 0.82295 0.42835
 C21 C 0.45373 0.83622 0.43448
 C22 C 0.44766 0.84335 0.44778
 C23 C 0.43496 0.83648 0.45496
 C24 C 0.42834 0.82322 0.44893
 C25 C 0.43447 0.81644 0.43557
 C26 C 0.45317 0.81625 0.41493
 C27 C 0.44642 0.80319 0.40851
 C28 C 0.43373 0.79671 0.41583
 C29 C 0.42770 0.80325 0.42928
 C30 C 0.41482 0.79700 0.43635
 C31 C 0.40850 0.80379 0.44958
 C32 C 0.41541 0.81685 0.45585
 H33 H 0.46384 0.84064 0.42899
 H34 H 0.42954 0.84180 0.46480
 H35 H 0.46280 0.82147 0.40922
 H36 H 0.42854 0.78656 0.41105
 H37 H 0.40943 0.78709 0.43127
 H38 H 0.41070 0.82206 0.46614
 C39 C 0.94864 0.92860 0.81850
 C40 C 0.95496 0.91563 0.81157
 C41 C 0.94840 0.90901 0.79822
 C42 C 0.93544 0.91612 0.79179
 C43 C 0.92904 0.92909 0.79861
 C44 C 0.93565 0.93536 0.81201
 C45 C 0.95498 0.93468 0.83206
 C46 C 0.94852 0.94748 0.83947
 C47 C 0.93558 0.95423 0.83260
 C48 C 0.92914 0.94825 0.81905
 C49 C 0.91598 0.95473 0.81270
 C50 C 0.90922 0.94848 0.79940
 C51 C 0.91594 0.93575 0.79233
 H52 H 0.96452 0.91029 0.81726
 H53 H 0.93040 0.91188 0.78121
 H54 H 0.96526 0.92955 0.83649
 H55 H 0.92987 0.96366 0.83813
 H56 H 0.91074 0.96439 0.81837
 H57 H 0.91089 0.93096 0.78198
 C58 C 0.44576 -0.07318 0.32073
 C59 C 0.45205 -0.08640 0.31430
 C60 C 0.44550 -0.09320 0.30115
 C61 C 0.43265 -0.08646 0.29433
 C62 C 0.42621 -0.07328 0.30066
 C63 C 0.43276 -0.06660 0.31392
 C64 C 0.45201 -0.06665 0.33411
 C65 C 0.44542 -0.05366 0.34083
 C66 C 0.43257 -0.04709 0.33386
 C67 C 0.42618 -0.05349 0.32050
 C68 C 0.41310 -0.04718 0.31383
 C69 C 0.40642 -0.05386 0.30070
 C70 C 0.41314 -0.06683 0.29411
 H71 H 0.46181 -0.09165 0.31977
 H72 H 0.42763 -0.09153 0.28410
 H73 H 0.46178 -0.07193 0.33954
 H74 H 0.42752 -0.03698 0.33886
 H75 H 0.40786 -0.03733 0.31914
 H76 H 0.40816 -0.07196 0.28389
 C77 C 0.82299 0.30371 0.32119
 C78 C 0.81628 0.29731 0.33438
 C79 C 0.80314 0.30377 0.34087
 C80 C 0.79660 0.31662 0.33382
 C81 C 0.80318 0.32316 0.32065
 C82 C 0.81645 0.31672 0.31432
 C83 C 0.83636 0.29755 0.31498
 C84 C 0.84333 0.30425 0.30203
 C85 C 0.83663 0.31712 0.29517
 C86 C 0.82331 0.32343 0.30126
 C87 C 0.81689 0.33651 0.29466
 C88 C 0.80374 0.34309 0.30101
 C89 C 0.79690 0.33624 0.31394
 H90 H 0.82154 0.28755 0.33987
 H91 H 0.78637 0.32157 0.33863
 H92 H 0.84156 0.28778 0.32049
 H93 H 0.84183 0.32225 0.28508
 H94 H 0.82216 0.34163 0.28460
 H95 H 0.78691 0.34137 0.31907
 C96 C -0.19817 0.82197 0.81924
 C97 C -0.20450 0.83521 0.81285
 C98 C -0.19809 0.84221 0.79963
 C99 C -0.18528 0.83522 0.79280
 C100 C -0.17883 0.82202 0.79910
 C101 C -0.18526 0.81538 0.81238
 C102 C -0.20430 0.81550 0.83269
 C103 C -0.19768 0.80252 0.83941
 C104 C -0.18491 0.79590 0.83237
 C105 C -0.17864 0.80226 0.81894
 C106 C -0.16563 0.79591 0.81220
 C107 C -0.15906 0.80255 0.79901
 C108 C -0.16585 0.81551 0.79245
 H109 H -0.21394 0.84042 0.81883
 H110 H -0.18039 0.83974 0.78228
 H111 H -0.21400 0.82081 0.83819
 H112 H -0.17983 0.78581 0.83736
 H113 H -0.16035 0.78607 0.81750
 H114 H -0.16094 0.82061 0.78219
 C115 C 0.92720 0.32247 0.44903
 C116 C 0.93334 0.33577 0.45549
 C117 C 0.94614 0.34300 0.44889
 C118 C 0.95278 0.33626 0.43565
 C119 C 0.94674 0.32297 0.42908
 C120 C 0.93390 0.31606 0.43577
 C121 C 0.91426 0.31564 0.45549
 C122 C 0.90784 0.30256 0.44875
 C123 C 0.91472 0.29616 0.43562
 C124 C 0.92762 0.30285 0.42905
 C125 C 0.93414 0.29670 0.41566
 C126 C 0.94679 0.30366 0.40874
 C127 C 0.95311 0.31672 0.41561
 H128 H 0.92826 0.34012 0.46599
 H129 H 0.96219 0.34168 0.42981
 H130 H 0.90890 0.32079 0.46548
 H131 H 0.90996 0.28597 0.43045
 H132 H 0.92931 0.28652 0.41057
 H133 H 0.96275 0.32227 0.41024
 C134 C 0.42731 0.44688 0.81970
 C135 C 0.43356 0.45329 0.83313
 C136 C 0.44623 0.44662 0.84035
 C137 C 0.45277 0.43351 0.83383
 C138 C 0.44665 0.42697 0.82040
 C139 C 0.43385 0.43365 0.81332
 C140 C 0.41440 0.45328 0.81278
 C141 C 0.40785 0.44659 0.79959
 C142 C 0.41454 0.43350 0.79319
 C143 C 0.42743 0.42695 0.80000
 C144 C 0.43382 0.41364 0.79389
 C145 C 0.44646 0.40680 0.80098
 C146 C 0.45288 0.41362 0.81417
 H147 H 0.42854 0.46348 0.83799
 H148 H 0.46238 0.42815 0.83946
 H149 H 0.40918 0.46322 0.81794
 H150 H 0.40966 0.42835 0.78293
 H151 H 0.42889 0.40855 0.78362
 H152 H 0.46248 0.40830 0.81986
 C153 C 0.82224 0.92860 0.95118
 C154 C 0.81570 0.91554 0.95777
 C155 C 0.80240 0.90892 0.95148
 C156 C 0.79560 0.91616 0.93862
 C157 C 0.80203 0.92917 0.93194
 C158 C 0.81540 0.93542 0.93823
 C159 C 0.83574 0.93470 0.95720
 C160 C 0.84272 0.94760 0.95045
 C161 C 0.83551 0.95437 0.93753
 C162 C 0.82203 0.94837 0.93140
 C163 C 0.81534 0.95487 0.91822
 C164 C 0.80209 0.94858 0.91177
 C165 C 0.79540 0.93585 0.91886
 H166 H 0.82162 0.91014 0.96727
 H167 H 0.78502 0.91198 0.93386
 H168 H 0.84048 0.92952 0.96748
 H169 H 0.84070 0.96385 0.93157
 H170 H 0.82070 0.96455 0.91271
 H171 H 0.78508 0.93105 0.91408
 C172 C 0.32307 0.82317 0.30087
 C173 C 0.31661 0.83634 0.29448
 C174 C 0.30360 0.84318 0.30107
 C175 C 0.29706 0.83613 0.31419
 C176 C 0.30339 0.82294 0.32067
 C177 C 0.31645 0.81645 0.31402
 C178 C 0.33618 0.81674 0.29440
 C179 C 0.34290 0.80376 0.30100
 C180 C 0.33617 0.79707 0.31408
 C181 C 0.32304 0.80334 0.32064
 C182 C 0.31658 0.79690 0.33393
 C183 C 0.30366 0.80341 0.34078
 C184 C 0.29707 0.81637 0.33399
 H185 H 0.32163 0.84091 0.28405
 H186 H 0.28747 0.84124 0.32001
 H187 H 0.34121 0.82188 0.28423
 H188 H 0.34140 0.78721 0.31941
 H189 H 0.32164 0.78680 0.33897
 H190 H 0.28725 0.82160 0.33933
 C191 C 0.82264 0.42807 0.44985
 C192 C 0.81609 0.41516 0.45665
 C193 C 0.80314 0.40832 0.45014
 C194 C 0.79655 0.41479 0.43686
 C195 C 0.80294 0.42774 0.42997
 C196 C 0.81605 0.43441 0.43648
 C197 C 0.83583 0.43455 0.45611
 C198 C 0.84286 0.44730 0.44915
 C199 C 0.83593 0.45362 0.43584
 C200 C 0.82270 0.44726 0.42949
 C201 C 0.81626 0.45330 0.41597
 C202 C 0.80328 0.44665 0.40931
 C203 C 0.79663 0.43393 0.41647
 H204 H 0.82114 0.41033 0.46698
 H205 H 0.78671 0.40947 0.43160
 H206 H 0.84029 0.42975 0.46670
 H207 H 0.84116 0.46301 0.42976
 H208 H 0.82159 0.46296 0.41038
 H209 H 0.78654 0.42882 0.41152
 C210 C 0.94774 0.82169 -0.06954
 C211 C 0.95388 0.83509 -0.06326
 C212 C 0.94733 0.84192 -0.05017
 C213 C 0.93466 0.83504 -0.04320
 C214 C 0.92836 0.82170 -0.04937
 C215 C 0.93490 0.81501 -0.06261
 C216 C 0.95399 0.81516 -0.08291
 C217 C 0.94756 0.80199 -0.08971
 C218 C 0.93479 0.79538 -0.08242
 C219 C 0.92843 0.80180 -0.06907
 C220 C 0.91549 0.79535 -0.06226
 C221 C 0.90880 0.80205 -0.04916
 C222 C 0.91543 0.81514 -0.04270
 H223 H 0.96351 0.84044 -0.06884
 H224 H 0.92963 0.84012 -0.03299
 H225 H 0.96338 0.82098 -0.08837
 H226 H 0.92988 0.78493 -0.08678
 H227 H 0.91031 0.78540 -0.06747
 H228 H 0.91045 0.82030 -0.03250
 C229 C 0.32273 0.32087 0.79949
 C230 C 0.31635 0.33381 0.79256
 C231 C 0.30317 0.34052 0.79869
 C232 C 0.29624 0.33394 0.81172
 C233 C 0.30249 0.32099 0.81876
 C234 C 0.31580 0.31443 0.81265
 C235 C 0.33612 0.31446 0.79364
 C236 C 0.34280 0.30176 0.80084
 C237 C 0.33574 0.29533 0.81388
 C238 C 0.32232 0.30159 0.81984
 C239 C 0.31554 0.29546 0.83313
 C240 C 0.30234 0.30203 0.83939
 C241 C 0.29583 0.31473 0.83203
 H242 H 0.32168 0.33871 0.78243
 H243 H 0.28623 0.33918 0.81668
 H244 H 0.34139 0.31939 0.78349
 H245 H 0.34093 0.28569 0.81966
 H246 H 0.32077 0.28583 0.83886
 H247 H 0.28558 0.31977 0.83668
 C248 C 0.17735 0.55300 0.56964
 C249 C 0.16450 0.54659 0.56259
 C250 C 0.15806 0.55328 0.54935
 C251 C 0.16481 0.56638 0.54303
 C252 C 0.17765 0.57293 0.54996
 C253 C 0.18395 0.56623 0.56333
 C254 C 0.18348 0.54657 0.58311
 C255 C 0.19609 0.55323 0.59046
 C256 C 0.20270 0.56635 0.58401
 C257 C 0.19669 0.57291 0.57053
 C258 C 0.20300 0.58625 0.56436
 C259 C 0.19671 0.59308 0.55111
 C260 C 0.18410 0.58624 0.54391
 H261 H 0.15923 0.53664 0.56770
 H262 H 0.16002 0.57153 0.53273
 H263 H 0.17841 0.53637 0.58791
 H264 H 0.21227 0.57171 0.58972
 H265 H 0.21257 0.59157 0.57013
 H266 H 0.17928 0.59133 0.53359
 C267 C 0.57184 0.69841 0.06920
 C268 C 0.58517 0.70474 0.06312
 C269 C 0.59227 0.69824 0.05015
 C270 C 0.58571 0.68537 0.04311
 C271 C 0.57239 0.67890 0.04907
 C272 C 0.56542 0.68542 0.06217
 C273 C 0.56503 0.70465 0.08241
 C274 C 0.55192 0.69801 0.08880
 C275 C 0.54551 0.68516 0.08162
 C276 C 0.55219 0.67881 0.06839
 C277 C 0.54604 0.66572 0.06153
 C278 C 0.55300 0.65904 0.04857
 C279 C 0.56612 0.66579 0.04234
 H280 H 0.59006 0.71475 0.06852
 H281 H 0.59123 0.68013 0.03327
 H282 H 0.57020 0.71440 0.08801
 H283 H 0.53532 0.68007 0.08636
 H284 H 0.53608 0.66045 0.06658
 H285 H 0.57147 0.66081 0.03227
 C286 C 0.69809 0.17870 0.68065
 C287 C 0.70418 0.18501 0.66709
 C288 C 0.69758 0.19796 0.66029
 C289 C 0.68493 0.20474 0.66737
 C290 C 0.67868 0.19853 0.68086
 C291 C 0.68525 0.18543 0.68751
 C292 C 0.70438 0.16550 0.68713
 C293 C 0.69799 0.15865 0.70044
 C294 C 0.68521 0.16572 0.70724
 C295 C 0.67881 0.17893 0.70087
 C296 C 0.66586 0.18555 0.70749
 C297 C 0.65915 0.19851 0.70082
 C298 C 0.66576 0.20502 0.68760
 H299 H 0.71381 0.17959 0.66158
 H300 H 0.67988 0.21482 0.66231
 H301 H 0.71377 0.16020 0.68115
 H302 H 0.68032 0.16129 0.71780
 H303 H 0.66070 0.18032 0.71754
 H304 H 0.66077 0.21510 0.68247
 C305 C 1.07122 0.05165 0.18037
 C306 C 1.08423 0.04535 0.18722
 C307 C 1.09076 0.05203 0.20043
 C308 C 1.08391 0.06497 0.20695
 C309 C 1.07091 0.07138 0.20024
 C310 C 1.06453 0.06470 0.18689
 C311 C 1.06502 0.04523 0.16692
 C312 C 1.05218 0.05170 0.15959
 C313 C 1.04553 0.06471 0.16646
 C314 C 1.05162 0.07122 0.17993
 C315 C 1.04525 0.08447 0.18628
 C316 C 1.05165 0.09131 0.19948
 C317 C 1.06439 0.08456 0.20648
 H318 H 1.08958 0.03552 0.18196
 H319 H 1.08877 0.07011 0.21723
 H320 H 1.07010 0.03490 0.16251
 H321 H 1.03606 0.07041 0.16098
 H322 H 1.03557 0.08972 0.18067
 H323 H 1.06929 0.08963 0.21677
 C324 C 0.05134 0.17898 1.06878
 C325 C 0.04494 0.16595 1.06208
 C326 C 0.05173 0.15875 1.04919
 C327 C 0.06499 0.16542 1.04290
 C328 C 0.07147 0.17851 1.04948
 C329 C 0.06467 0.18528 1.06251
 C330 C 0.04473 0.18562 1.08189
 C331 C 0.05139 0.19837 1.08900
 C332 C 0.06462 0.20470 1.08258
 C333 C 0.07132 0.19822 1.06942
 C334 C 0.08476 0.20425 1.06330
 C335 C 0.09174 0.19749 1.05040
 C336 C 0.08495 0.18467 1.04349
 H337 H 0.03439 0.16173 1.06683
 H338 H 0.07091 0.16006 1.03339
 H339 H 0.03443 0.18078 1.08666
 H340 H 0.06997 0.21439 1.08811
 H341 H 0.08981 0.21422 1.06859
 H342 H 0.09039 0.17924 1.03370
 C343 C 0.17545 0.67596 0.69812
 C344 C 0.16230 0.68245 0.70445
 C345 C 0.15578 0.69551 0.69780
 C346 C 0.16272 0.70220 0.68484
 C347 C 0.17585 0.69583 0.67838
 C348 C 0.18225 0.68265 0.68501
 C349 C 0.18172 0.66269 0.70448
 C350 C 0.19467 0.65595 0.69790
 C351 C 0.20144 0.66278 0.68491
 C352 C 0.19531 0.67605 0.67841
 C353 C 0.20182 0.68261 0.66519
 C354 C 0.19541 0.69567 0.65842
 C355 C 0.18250 0.70228 0.66520
 H356 H 0.15690 0.67708 0.71430
 H357 H 0.15787 0.71237 0.67975
 H358 H 0.17651 0.65760 0.71459
 H359 H 0.21127 0.65753 0.67960
 H360 H 0.21163 0.67730 0.65991
 H361 H 0.17759 0.71245 0.66017
 C362 C 1.19724 0.17805 0.17971
 C363 C 1.20379 0.16498 0.18624
 C364 C 1.19765 0.15818 0.19969
 C365 C 1.18488 0.16517 0.20660
 C366 C 1.17821 0.17820 0.20016
 C367 C 1.18438 0.18465 0.18665
 C368 C 1.20311 0.18434 0.16604
 C369 C 1.19626 0.19714 0.15920
 C370 C 1.18354 0.20376 0.16632
 C371 C 1.17753 0.19759 0.17995
 C372 C 1.16458 0.20394 0.18679
 C373 C 1.15828 0.19750 0.20021
 C374 C 1.16528 0.18471 0.20690
 H375 H 1.21318 0.15976 0.18020
 H376 H 1.18021 0.16081 0.21729
 H377 H 1.21277 0.17903 0.16050
 H378 H 1.17829 0.21372 0.16123
 H379 H 1.15912 0.21364 0.18139
 H380 H 1.16058 0.17976 0.21733
 C381 C 0.67773 1.07277 0.55132
 C382 C 0.66476 1.06611 0.54471
 C383 C 0.65808 1.05314 0.55140
 C384 C 0.66474 1.04667 0.56463
 C385 C 0.67768 1.05319 0.57135
 C386 C 0.68422 1.06629 0.56468
 C387 C 0.68411 1.08596 0.54491
 C388 C 0.69696 1.09303 0.55167
 C389 C 0.70337 1.08621 0.56499
 C390 C 0.69709 1.07302 0.57150
 C391 C 0.70325 1.06672 0.58505
 C392 C 0.69669 1.05377 0.59187
 C393 C 0.68399 1.04698 0.58483
 H394 H 0.65957 1.07131 0.53465
 H395 H 0.65978 1.03657 0.56976
 H396 H 0.67919 1.09038 0.53436
 H397 H 0.71280 1.09151 0.57094
 H398 H 0.71292 1.07214 0.59052
 H399 H 0.67897 1.03689 0.58990
 C400 C 0.55069 0.56989 0.18071
 C401 C 0.54478 0.56302 0.16736
 C402 C 0.55173 0.55006 0.16097
 C403 C 0.56457 0.54384 0.16829
 C404 C 0.57060 0.55058 0.18166
 C405 C 0.56367 0.56369 0.18789
 C406 C 0.54406 0.58311 0.18675
 C407 C 0.55027 0.59033 0.19984
 C408 C 0.56311 0.58396 0.20704
 C409 C 0.56988 0.57074 0.20112
 C410 C 0.58299 0.56469 0.20799
 C411 C 0.59005 0.55170 0.20177
 C412 C 0.58369 0.54465 0.18867
 H413 H 0.53504 0.56805 0.16165
 H414 H 0.56991 0.53377 0.16354
 H415 H 0.53407 0.58784 0.18123
 H416 H 0.56813 0.58958 0.21697
 H417 H 0.58774 0.57012 0.21816
 H418 H 0.58920 0.53481 0.18363
 C419 C 0.67779 0.69831 0.18014
 C420 C 0.66475 0.70463 0.18685
 C421 C 0.65832 0.69816 0.20020
 C422 C 0.66531 0.68542 0.20700
 C423 C 0.67833 0.67896 0.20040
 C424 C 0.68460 0.68540 0.18691
 C425 C 0.68390 0.70446 0.16654
 C426 C 0.69669 0.69784 0.15952
 C427 C 0.70349 0.68504 0.16643
 C428 C 0.69751 0.67876 0.18003
 C429 C 0.70398 0.66569 0.18663
 C430 C 0.69767 0.65910 0.19999
 C431 C 0.68495 0.66594 0.20689
 H432 H 0.65931 0.71430 0.18138
 H433 H 0.66054 0.68046 0.21739
 H434 H 0.67868 0.71441 0.16138
 H435 H 0.71319 0.67971 0.16096
 H436 H 0.71365 0.66037 0.18109
 H437 H 0.68012 0.66104 0.21729
 C438 C 0.17896 0.05092 1.06794
 C439 C 0.16606 0.04456 1.06090
 C440 C 0.15922 0.05142 1.04783
 C441 C 0.16607 0.06470 1.04175
 C442 C 0.17895 0.07114 1.04867
 C443 C 0.18542 0.06425 1.06182
 C444 C 0.18523 0.04429 1.08125
 C445 C 0.19793 0.05080 1.08880
 C446 C 0.20439 0.06408 1.08228
 C447 C 0.19822 0.07081 1.06898
 C448 C 0.20440 0.08431 1.06299
 C449 C 0.19793 0.09134 1.04994
 C450 C 0.18531 0.08456 1.04276
 H451 H 0.16093 0.03473 1.06633
 H452 H 0.16168 0.06997 1.03136
 H453 H 0.18032 0.03376 1.08538
 H454 H 0.21375 0.06981 1.08793
 H455 H 0.21400 0.08958 1.06874
 H456 H 0.18036 0.08980 1.03259
 C457 C 0.57268 0.17829 0.55091
 C458 C 0.58597 0.18462 0.54475
 C459 C 0.59293 0.19724 0.55183
 C460 C 0.58623 0.20371 0.56505
 C461 C 0.57289 0.19753 0.57132
 C462 C 0.56611 0.18474 0.56425
 C463 C 0.56605 0.16541 0.54411
 C464 C 0.55300 0.15874 0.55056
 C465 C 0.54641 0.16534 0.56376
 C466 C 0.55290 0.17824 0.57066
 C467 C 0.54660 0.18452 0.58411
 C468 C 0.55337 0.19717 0.59134
 C469 C 0.56646 0.20367 0.58478
 H470 H 0.59096 0.17967 0.53446
 H471 H 0.59163 0.21329 0.57071
 H472 H 0.57112 0.16050 0.53384
 H473 H 0.53649 0.16014 0.56895
 H474 H 0.53642 0.17954 0.58899
 H475 H 0.57190 0.21326 0.59040
 C476 C 0.07240 0.55292 0.67980
 C477 C 0.08565 0.54667 0.68619
 C478 C 0.09253 0.55333 0.69924
 C479 C 0.08585 0.56624 0.70600
 C480 C 0.07264 0.57264 0.69973
 C481 C 0.06588 0.56598 0.68657
 C482 C 0.06580 0.54656 0.66652
 C483 C 0.05278 0.55310 0.65983
 C484 C 0.04626 0.56602 0.66676
 C485 C 0.05274 0.57252 0.68003
 C486 C 0.04648 0.58567 0.68665
 C487 C 0.05324 0.59247 0.69968
 C488 C 0.06625 0.58578 0.70623
 H489 H 0.09085 0.53686 0.68075
 H490 H 0.09098 0.57135 0.71616
 H491 H 0.07105 0.53675 0.66112
 H492 H 0.03614 0.57104 0.66179
 H493 H 0.03660 0.59088 0.68138
 H494 H 0.07144 0.59085 0.71637
 C495 C 0.67872 0.57194 0.04918
 C496 C 0.66571 0.56550 0.04248
 C497 C 0.65896 0.55246 0.04892
 C498 C 0.66556 0.54570 0.06205
 C499 C 0.67859 0.55199 0.06887
 C500 C 0.68518 0.56518 0.06243
 C501 C 0.68512 0.58526 0.04306
 C502 C 0.69786 0.59201 0.05009
 C503 C 0.70435 0.58508 0.06318
 C504 C 0.69806 0.57179 0.06943
 C505 C 0.70424 0.56521 0.08279
 C506 C 0.69763 0.55219 0.08942
 C507 C 0.68488 0.54556 0.08228
 H508 H 0.66078 0.57070 0.03228
 H509 H 0.66030 0.53579 0.06725
 H510 H 0.67990 0.59064 0.03311
 H511 H 0.71427 0.59012 0.06857
 H512 H 0.71417 0.57029 0.08811
 H513 H 0.67957 0.53566 0.08744
 C514 C 0.05426 0.67713 0.57117
 C515 C 0.04800 0.68338 0.58464
 C516 C 0.05477 0.69604 0.59185
 C517 C 0.06784 0.70255 0.58527
 C518 C 0.07424 0.69643 0.57178
 C519 C 0.06745 0.68365 0.56472
 C520 C 0.04774 0.66425 0.56424
 C521 C 0.05427 0.65770 0.55098
 C522 C 0.06731 0.66438 0.54452
 C523 C 0.07397 0.67724 0.55133
 C524 C 0.08722 0.68360 0.54513
 C525 C 0.09418 0.69623 0.55219
 C526 C 0.08753 0.70265 0.56546
 H527 H 0.03783 0.67839 0.58953
 H528 H 0.07327 0.71216 0.59087
 H529 H 0.03783 0.65905 0.56945
 H530 H 0.07233 0.65951 0.53421
 H531 H 0.09216 0.67869 0.53480
 H532 H 0.09293 0.71224 0.57112
 C533 C 0.55238 1.07088 0.68018
 C534 C 0.54585 1.06432 0.66697
 C535 C 0.55248 1.05153 0.65968
 C536 C 0.56571 1.04524 0.66642
 C537 C 0.57233 1.05169 0.67966
 C538 C 0.56568 1.06459 0.68655
 C539 C 0.54591 1.08385 0.68694
 C540 C 0.55269 1.09079 0.69988
 C541 C 0.56590 1.08436 0.70626
 C542 C 0.57244 1.07133 0.69968
 C543 C 0.58587 1.06517 0.70576
 C544 C 0.59268 1.05239 0.69887
 C545 C 0.58576 1.04567 0.68588
 H546 H 0.53534 1.06910 0.66270
 H547 H 0.57151 1.03580 0.66098
 H548 H 0.53563 1.08863 0.68206
 H549 H 0.57134 1.08975 0.71609
 H550 H 0.59124 1.07058 0.71562
 H551 H 0.59086 1.03572 0.68060
 C552 C 0.42765 0.32210 0.95101
 C553 C 0.43406 0.33535 0.95726
 C554 C 0.44680 0.34240 0.95035
 C555 C 0.45318 0.33544 0.93711
 C556 C 0.44689 0.32215 0.93077
 C557 C 0.43406 0.31547 0.93771
 C558 C 0.41474 0.31552 0.95774
 C559 C 0.40801 0.30249 0.95123
 C560 C 0.41455 0.29588 0.93802
 C561 C 0.42748 0.30230 0.93120
 C562 C 0.43372 0.29596 0.91776
 C563 C 0.44641 0.30265 0.91064
 C564 C 0.45299 0.31568 0.91730
 H565 H 0.42920 0.33986 0.96780
 H566 H 0.46256 0.34069 0.93107
 H567 H 0.40986 0.32060 0.96802
 H568 H 0.40929 0.28599 0.93276
 H569 H 0.42867 0.28582 0.91281
 H570 H 0.46264 0.32104 0.91175
 C571 C 0.92605 0.44637 0.32139
 C572 C 0.93260 0.45263 0.33475
 C573 C 0.94564 0.44607 0.34163
 C574 C 0.95207 0.43313 0.33444
 C575 C 0.94561 0.42676 0.32109
 C576 C 0.93254 0.43337 0.31455
 C577 C 0.91281 0.45269 0.31500
 C578 C 0.90598 0.44616 0.30187
 C579 C 0.91266 0.43331 0.29500
 C580 C 0.92584 0.42684 0.30129
 C581 C 0.93226 0.41378 0.29467
 C582 C 0.94525 0.40704 0.30118
 C583 C 0.95193 0.41370 0.31432
 H584 H 0.92693 0.46217 0.34013
 H585 H 0.96241 0.42811 0.33885
 H586 H 0.90761 0.46246 0.32050
 H587 H 0.90758 0.42831 0.28477
 H588 H 0.92711 0.40882 0.28444
 H589 H 0.96179 0.40844 0.31957
 C590 C 0.32337 0.94736 0.42860
 C591 C 0.31688 0.95328 0.41504
 C592 C 0.30385 0.94660 0.40852
 C593 C 0.29721 0.93396 0.41586
 C594 C 0.30358 0.92791 0.42939
 C595 C 0.31673 0.93460 0.43576
 C596 C 0.33664 0.95377 0.43482
 C597 C 0.34361 0.94760 0.44818
 C598 C 0.33659 0.93493 0.45531
 C599 C 0.32336 0.92840 0.44917
 C600 C 0.31680 0.91559 0.45616
 C601 C 0.30380 0.90872 0.44979
 C602 C 0.29718 0.91505 0.43646
 H603 H 0.32221 0.96287 0.40932
 H604 H 0.28707 0.92883 0.41101
 H605 H 0.34186 0.96309 0.42862
 H606 H 0.34108 0.93024 0.46594
 H607 H 0.32189 0.91087 0.46653
 H608 H 0.28730 0.90971 0.43132
 O609 O 0.29041 0.49813 0.76889
 O610 O 0.28531 0.52409 0.76738
 O611 O 0.25097 0.47906 0.79030
 O612 O 0.22593 0.47840 0.78597
 O613 O 0.26944 0.45859 0.74906
 O614 O 0.26793 0.46473 0.72225
 O615 O 0.20990 0.51875 0.74959
 O616 O 0.21458 0.51534 0.77576
 O617 O 0.24795 0.53918 0.73018
 O618 O 0.27536 0.53414 0.73080
 O619 O 0.22957 0.50075 0.70922
 O620 O 0.23055 0.47345 0.71406
 O621 O 0.20971 0.50082 0.73053
 O622 O 0.21542 0.47263 0.73147
 O623 O 0.24780 0.51911 0.70918
 O624 O 0.27580 0.51757 0.71471
 O625 O 0.22971 0.53864 0.74880
 O626 O 0.23524 0.53324 0.77662
 O627 O 0.29040 0.48040 0.74959
 O628 O 0.28430 0.48209 0.72224
 O629 O 0.25144 0.45799 0.76793
 O630 O 0.22393 0.46405 0.76593
 O631 O 0.26946 0.49720 0.79035
 O632 O 0.26581 0.52470 0.78477
 Zr633 Zr 0.26829 0.50708 0.76817
 O634 O 0.25479 0.52183 0.75476
 Zr635 Zr 0.24188 0.47998 0.76780
 O636 O 0.22709 0.49385 0.75486
 Zr637 Zr 0.26823 0.48091 0.74034
 O638 O 0.25439 0.49440 0.72594
 Zr639 Zr 0.23184 0.51694 0.75884
 O640 O 0.24528 0.50307 0.77347
 Zr641 Zr 0.25800 0.51747 0.73113
 O642 O 0.27300 0.50400 0.74447
 Zr643 Zr 0.23139 0.49064 0.73119
 O644 O 0.24523 0.47554 0.74412
 O645 O 0.26473 0.48407 0.76384
 O646 O 0.23504 0.51369 0.73519
 C647 C 0.29684 0.48786 0.76059
 C648 C 0.26171 0.48660 0.79682
 C649 C 0.26195 0.45184 0.75977
 C650 C 0.20351 0.51152 0.73845
 C651 C 0.23701 0.54518 0.73782
 C652 C 0.23688 0.51171 0.70286
 H653 H 0.25716 0.53251 0.75747
 H654 H 0.25668 0.49206 0.71501
 H655 H 0.27133 0.47750 0.77025
 H656 H 0.21646 0.49146 0.75759
 H657 H 0.21957 0.51193 0.78543
 H658 H 0.21808 0.48617 0.78395
 H659 H 0.27404 0.50905 0.70744
 H660 H 0.28944 0.49206 0.72324
 H661 H 0.22653 0.54039 0.77644
 H662 H 0.27398 0.52370 0.79261
 H663 H 0.24002 0.47409 0.70799
 H664 H 0.25779 0.45989 0.72251
 H665 H 0.28938 0.52411 0.75672
 H666 H 0.27457 0.54013 0.74045
 H667 H 0.22565 0.45824 0.75628
 H668 H 0.20845 0.47435 0.74024
 O669 O 0.20911 0.01961 0.24931
 O670 O 0.21444 0.01751 0.27560
 O671 O 0.24874 0.04050 0.23007
 O672 O 0.27368 0.03589 0.22913
 O673 O 0.22941 0.00068 0.20848
 O674 O 0.23045 -0.02583 0.21413
 O675 O 0.28948 -0.00105 0.26914
 O676 O 0.28521 0.02483 0.26633
 O677 O 0.25124 -0.01998 0.28981
 O678 O 0.22381 -0.01889 0.28485
 O679 O 0.26899 -0.04003 0.25015
 O680 O 0.26779 -0.03469 0.22253
 O681 O 0.28917 -0.01936 0.25046
 O682 O 0.28315 -0.01776 0.22189
 O683 O 0.25095 -0.04022 0.26896
 O684 O 0.22301 -0.03438 0.26770
 O685 O 0.26982 -0.00197 0.28953
 O686 O 0.26473 0.02559 0.28470
 O687 O 0.20861 0.00105 0.23085
 O688 O 0.21425 -0.02596 0.23189
 O689 O 0.24773 0.01897 0.20817
 O690 O 0.27523 0.01648 0.21410
 O691 O 0.23042 0.04044 0.24865
 O692 O 0.23425 0.03427 0.27644
 Zr693 Zr 0.23131 0.01838 0.25819
 O694 O 0.24470 0.00465 0.27276
 Zr695 Zr 0.25745 0.01822 0.23044
 O696 O 0.27214 0.00495 0.24412
 Zr697 Zr 0.23063 -0.00839 0.23097
 O698 O 0.24434 -0.02309 0.24424
 Zr699 Zr 0.26767 0.00841 0.26771
 O700 O 0.25437 0.02333 0.25406
 Zr701 Zr 0.24105 -0.01845 0.26783
 O702 O 0.22616 -0.00479 0.25456
 Zr703 Zr 0.26739 -0.01818 0.24035
 O704 O 0.25364 -0.00491 0.22542
 O705 O 0.23457 0.01460 0.23468
 O706 O 0.26404 -0.01473 0.26389
 C707 C 0.20243 0.01178 0.23876
 C708 C 0.23819 0.04692 0.23795
 C709 C 0.23706 0.01123 0.20180
 C710 C 0.29561 -0.01191 0.26145
 C711 C 0.26236 -0.01277 0.29600
 C712 C 0.26171 -0.04642 0.26123
 H713 H 0.24247 0.00711 0.28369
 H714 H 0.24185 -0.03375 0.24164
 H715 H 0.22802 0.02115 0.22819
 H716 H 0.28279 0.00752 0.24166
 H717 H 0.28036 0.03449 0.26314
 H718 H 0.28157 0.03361 0.23693
 H719 H 0.22459 -0.04136 0.25888
 H720 H 0.20927 -0.02516 0.24211
 H721 H 0.27351 0.02512 0.29188
 H722 H 0.22622 0.04215 0.27565
 H723 H 0.25822 -0.04055 0.22314
 H724 H 0.24057 -0.02567 0.20917
 H725 H 0.21019 0.00708 0.27543
 H726 H 0.22482 -0.00955 0.29117
 H727 H 0.27331 0.00715 0.20797
 H728 H 0.29031 -0.00928 0.22377
 O729 O 0.53997 0.73005 0.24907
 O730 O 0.53476 0.73217 0.27538
 O731 O 0.50026 0.70905 0.22998
 O732 O 0.47531 0.71365 0.22902
 O733 O 0.51947 0.74887 0.20829
 O734 O 0.51833 0.77541 0.21391
 O735 O 0.45968 0.75062 0.26915
 O736 O 0.46392 0.72474 0.26626
 O737 O 0.49801 0.76956 0.28967
 O738 O 0.52541 0.76851 0.28462
 O739 O 0.48003 0.78958 0.25003
 O740 O 0.48106 0.78420 0.22241
 O741 O 0.45986 0.76891 0.25044
 O742 O 0.46570 0.76726 0.22185
 O743 O 0.49815 0.78979 0.26881
 O744 O 0.52608 0.78401 0.26748
 O745 O 0.47947 0.75150 0.28945
 O746 O 0.48452 0.72395 0.28457
 O747 O 0.54034 0.74862 0.23061
 O748 O 0.53463 0.77561 0.23162
 O749 O 0.50117 0.73056 0.20804
 O750 O 0.47367 0.73304 0.21401
 O751 O 0.51870 0.70917 0.24848
 O752 O 0.51501 0.71535 0.27627
 Zr753 Zr 0.51782 0.73124 0.25800
 O754 O 0.50447 0.74495 0.27261
 Zr755 Zr 0.49153 0.73133 0.23033
 O756 O 0.47688 0.74459 0.24403
 Zr757 Zr 0.51830 0.75799 0.23077
 O758 O 0.50464 0.77267 0.24407
 Zr759 Zr 0.48148 0.74115 0.26761
 O760 O 0.49474 0.72625 0.25393
 Zr761 Zr 0.50807 0.76805 0.26766
 O762 O 0.52290 0.75441 0.25435
 Zr763 Zr 0.48157 0.76773 0.24025
 O764 O 0.49527 0.75446 0.22528
 O765 O 0.51442 0.73500 0.23451
 O766 O 0.48506 0.76429 0.26379
 C767 C 0.54659 0.73791 0.23851
 C768 C 0.51087 0.70266 0.23784
 C769 C 0.51181 0.73829 0.20165
 C770 C 0.45349 0.76149 0.26148
 C771 C 0.48695 0.76231 0.29590
 C772 C 0.48735 0.79598 0.26110
 H773 H 0.50677 0.74249 0.28352
 H774 H 0.50710 0.78333 0.24147
 H775 H 0.52096 0.72845 0.22801
 H776 H 0.46622 0.74200 0.24161
 H777 H 0.46876 0.71507 0.26305
 H778 H 0.46746 0.71591 0.23685
 H779 H 0.52444 0.79098 0.25866
 H780 H 0.53967 0.77484 0.24183
 H781 H 0.47579 0.72441 0.29178
 H782 H 0.52306 0.70750 0.27547
 H783 H 0.49063 0.79007 0.22298
 H784 H 0.50820 0.77518 0.20895
 H785 H 0.53902 0.74259 0.27516
 H786 H 0.52444 0.75918 0.29095
 H787 H 0.47556 0.74237 0.20788
 H788 H 0.45857 0.75877 0.22377
 O789 O -0.00202 0.77044 0.79097
 O790 O 0.02392 0.76832 0.78655
 O791 O -0.01950 0.79070 0.74952
 O792 O -0.01968 0.78566 0.72417
 O793 O -0.04134 0.75119 0.76910
 O794 O -0.03581 0.72467 0.76856
 O795 O 0.02026 0.74864 0.71017
 O796 O 0.01733 0.77457 0.71406
 O797 O 0.03915 0.73023 0.75016
 O798 O 0.03336 0.73178 0.77788
 O799 O 0.00092 0.70990 0.73089
 O800 O -0.02614 0.71517 0.73090
 O801 O 0.00197 0.73028 0.71003
 O802 O -0.02633 0.73199 0.71509
 O803 O 0.01870 0.71003 0.75000
 O804 O 0.01647 0.71632 0.77832
 O805 O 0.03952 0.74798 0.73098
 O806 O 0.03462 0.77563 0.73559
 O807 O -0.02010 0.75183 0.79106
 O808 O -0.01892 0.72473 0.78568
 O809 O -0.04103 0.76918 0.75015
 O810 O -0.03427 0.76621 0.72235
 O811 O -0.00197 0.79096 0.76892
 O812 O 0.02543 0.78477 0.76616
 Zr813 Zr 0.00744 0.76890 0.76871
 O814 O 0.02221 0.75498 0.75583
 Zr815 Zr -0.01886 0.76828 0.74104
 O816 O -0.00491 0.75483 0.72679
 Zr817 Zr -0.01926 0.74209 0.76876
 O818 O -0.00576 0.72722 0.75550
 Zr819 Zr 0.01806 0.75840 0.73220
 O820 O 0.00418 0.77349 0.74500
 Zr821 Zr 0.01725 0.73194 0.75970
 O822 O 0.00371 0.74581 0.77415
 Zr823 Zr -0.00875 0.73176 0.73180
 O824 O -0.02390 0.74520 0.74507
 O825 O -0.01550 0.76502 0.76455
 O826 O 0.01421 0.73531 0.73608
 C827 C -0.01257 0.76266 0.79750
 C828 C -0.01216 0.79730 0.76047
 C829 C -0.04763 0.76163 0.76093
 C830 C 0.01297 0.73766 0.70379
 C831 C 0.04559 0.73727 0.73895
 C832 C 0.01151 0.70365 0.73883
 H833 H 0.03285 0.75749 0.75848
 H834 H -0.00839 0.71659 0.75810
 H835 H -0.02208 0.77167 0.77090
 H836 H -0.00695 0.75725 0.71582
 H837 H 0.01402 0.78429 0.71874
 H838 H -0.01165 0.78337 0.71656
 H839 H 0.00792 0.70926 0.77645
 H840 H -0.00909 0.72563 0.79117
 H841 H 0.04199 0.77502 0.72695
 H842 H 0.02437 0.79277 0.77418
 H843 H -0.02604 0.70962 0.74085
 H844 H -0.04033 0.72470 0.75807
 H845 H 0.02365 0.75795 0.79099
 H846 H 0.03959 0.74110 0.77695
 H847 H -0.04039 0.75695 0.72427
 H848 H -0.02416 0.74028 0.70768
 O849 O 0.00205 0.04108 0.01814
 O850 O -0.02391 0.03620 0.01654
 O851 O 0.02052 0.00146 0.03995
 O852 O 0.02097 -0.02366 0.03580
 O853 O 0.04131 0.01951 -0.00137
 O854 O 0.03520 0.01795 -0.02819
 O855 O -0.01929 -0.03959 -0.00066
 O856 O -0.01592 -0.03478 0.02548
 O857 O -0.03928 -0.00132 -0.02038
 O858 O -0.03395 0.02608 -0.01999
 O859 O -0.00101 -0.02021 -0.04110
 O860 O 0.02621 -0.01946 -0.03610
 O861 O -0.00135 -0.04003 -0.01963
 O862 O 0.02678 -0.03456 -0.01864
 O863 O -0.01914 -0.00178 -0.04135
 O864 O -0.01740 0.02629 -0.03600
 O865 O -0.03897 -0.01950 -0.00162
 O866 O -0.03356 -0.01389 0.02615
 O867 O 0.01980 0.04079 -0.00107
 O868 O 0.01810 0.03455 -0.02834
 O869 O 0.04164 0.00158 0.01765
 O870 O 0.03531 -0.02592 0.01586
 O871 O 0.00264 0.02018 0.03979
 O872 O -0.02479 0.01678 0.03408
 Zr873 Zr -0.00713 0.01898 0.01755
 O874 O -0.02194 0.00550 0.00418
 Zr875 Zr 0.01961 -0.00776 0.01750
 O876 O 0.00568 -0.02253 0.00459
 Zr877 Zr 0.01905 0.01851 -0.01015
 O878 O 0.00549 0.00469 -0.02451
 Zr879 Zr -0.01731 -0.01754 0.00844
 O880 O -0.00339 -0.00410 0.02304
 Zr881 Zr -0.01751 0.00854 -0.01945
 O882 O -0.00394 0.02352 -0.00617
 Zr883 Zr 0.00899 -0.01838 -0.01908
 O884 O 0.02415 -0.00458 -0.00617
 O885 O 0.01580 0.01517 0.01337
 O886 O -0.01398 -0.01450 -0.01523
 C887 C 0.01238 0.04738 0.00984
 C888 C 0.01309 0.01232 0.04637
 C889 C 0.04793 0.01197 0.00941
 C890 C -0.01208 -0.04612 -0.01171
 C891 C -0.04541 -0.01216 -0.01264
 C892 C -0.01182 -0.01280 -0.04758
 H893 H -0.03256 0.00799 0.00684
 H894 H 0.00788 0.00691 -0.03544
 H895 H 0.02241 0.02175 0.01977
 H896 H 0.00795 -0.03319 0.00741
 H897 H -0.01251 -0.02976 0.03513
 H898 H 0.01316 -0.03148 0.03379
 H899 H -0.00887 0.02445 -0.04318
 H900 H 0.00819 0.03978 -0.02744
 H901 H -0.04077 -0.02256 0.02602
 H902 H -0.02373 0.02502 0.04186
 H903 H 0.02565 -0.01001 -0.04227
 H904 H 0.03994 0.00775 -0.02783
 H905 H -0.02382 0.04024 0.00586
 H906 H -0.03992 0.02545 -0.01033
 H907 H 0.04113 -0.02435 0.00621
 H908 H 0.02501 -0.04145 -0.00979
 O909 O 0.00147 0.54079 0.51943
 O910 O -0.02451 0.53604 0.51786
 O911 O 0.01988 0.50089 0.54073
 O912 O 0.02019 0.47580 0.53632
 O913 O 0.04056 0.51931 0.49958
 O914 O 0.03444 0.51800 0.47278
 O915 O -0.02033 0.46044 0.49984
 O916 O -0.01687 0.46497 0.52602
 O917 O -0.04012 0.49904 0.48054
 O918 O -0.03465 0.52638 0.48119
 O919 O -0.00207 0.48006 0.45958
 O920 O 0.02514 0.48061 0.46442
 O921 O -0.00242 0.46006 0.48084
 O922 O 0.02580 0.46544 0.48184
 O923 O -0.02010 0.49858 0.45955
 O924 O -0.01809 0.52664 0.46514
 O925 O -0.03988 0.48065 0.49909
 O926 O -0.03438 0.48595 0.52694
 O927 O 0.01914 0.54062 0.50016
 O928 O 0.01734 0.53462 0.47277
 O929 O 0.04090 0.50118 0.51841
 O930 O 0.03444 0.47367 0.51629
 O931 O 0.00207 0.51968 0.54082
 O932 O -0.02541 0.51643 0.53518
 Zr933 Zr -0.00780 0.51874 0.51862
 O934 O -0.02271 0.50548 0.50514
 Zr935 Zr 0.01883 0.49189 0.51820
 O936 O 0.00477 0.47730 0.50520
 Zr937 Zr 0.01829 0.51843 0.49083
 O938 O 0.00465 0.50480 0.47636
 Zr939 Zr -0.01818 0.48238 0.50915
 O940 O -0.00415 0.49559 0.52385
 Zr941 Zr -0.01830 0.50874 0.48152
 O942 O -0.00465 0.52352 0.49494
 Zr943 Zr 0.00804 0.48167 0.48156
 O944 O 0.02331 0.49528 0.49455
 O945 O 0.01509 0.51486 0.51431
 O946 O -0.01489 0.48564 0.48552
 C947 C 0.01180 0.54713 0.51117
 C948 C 0.01253 0.51173 0.54728
 C949 C 0.04718 0.51167 0.51029
 C950 C -0.01319 0.45396 0.48872
 C951 C -0.04629 0.48814 0.48815
 C952 C -0.01290 0.48755 0.45322
 H953 H -0.03331 0.50801 0.50784
 H954 H 0.00702 0.50710 0.46544
 H955 H 0.02174 0.52136 0.52076
 H956 H 0.00699 0.46661 0.50791
 H957 H -0.01338 0.46987 0.53570
 H958 H 0.01228 0.46807 0.53429
 H959 H -0.00966 0.52473 0.45785
 H960 H 0.00749 0.53993 0.47379
 H961 H -0.04165 0.47734 0.52671
 H962 H -0.02428 0.52457 0.54306
 H963 H 0.02470 0.49018 0.45843
 H964 H 0.03910 0.50775 0.47299
 H965 H -0.02443 0.54021 0.50723
 H966 H -0.04057 0.52571 0.49087
 H967 H 0.04030 0.47538 0.50668
 H968 H 0.02395 0.45840 0.49057
 O969 O 0.54090 0.02044 0.49945
 O970 O 0.53567 0.01831 0.47314
 O971 O 0.50126 0.04123 0.51862
 O972 O 0.47631 0.03662 0.51953
 O973 O 0.52052 0.00136 0.54017
 O974 O 0.51950 -0.02511 0.53447
 O975 O 0.46059 -0.00021 0.47931
 O976 O 0.46489 0.02564 0.48218
 O977 O 0.49887 -0.01920 0.45878
 O978 O 0.52624 -0.01812 0.46376
 O979 O 0.48099 -0.03926 0.49836
 O980 O 0.48203 -0.03396 0.52593
 O981 O 0.46081 -0.01857 0.49794
 O982 O 0.46676 -0.01695 0.52659
 O983 O 0.49910 -0.03944 0.47963
 O984 O 0.52706 -0.03354 0.48097
 O985 O 0.48032 -0.00117 0.45901
 O986 O 0.48543 0.02640 0.46389
 O987 O 0.54134 0.00185 0.51788
 O988 O 0.53568 -0.02523 0.51670
 O989 O 0.50221 0.01964 0.54048
 O990 O 0.47469 0.01718 0.53445
 O991 O 0.51961 0.04121 0.50007
 O992 O 0.51587 0.03507 0.47225
 Zr993 Zr 0.51874 0.01916 0.49049
 O994 O 0.50539 0.00544 0.47586
 Zr995 Zr 0.49253 0.01895 0.51818
 O996 O 0.47786 0.00572 0.50441
 Zr997 Zr 0.51933 -0.00766 0.51766
 O998 O 0.50562 -0.02232 0.50435
 Zr999 Zr 0.48241 0.00921 0.48085
 O1000 O 0.49568 0.02410 0.49458
 Zr1001 Zr 0.50900 -0.01766 0.48078
 O1002 O 0.52387 -0.00401 0.49409
 Zr1003 Zr 0.48255 -0.01742 0.50816
 O1004 O 0.49630 -0.00419 0.52316
 O1005 O 0.51541 0.01534 0.51398
 O1006 O 0.48600 -0.01394 0.48463
 C1007 C 0.54754 0.01262 0.51003
 C1008 C 0.51184 0.04766 0.51077
 C1009 C 0.51287 0.01189 0.54685
 C1010 C 0.45441 -0.01109 0.48694
 C1011 C 0.48778 -0.01199 0.45257
 C1012 C 0.48832 -0.04565 0.48733
 H1013 H 0.50766 0.00791 0.46494
 H1014 H 0.50809 -0.03299 0.50694
 H1015 H 0.52194 0.02188 0.52051
 H1016 H 0.46721 0.00831 0.50684
 H1017 H 0.46974 0.03530 0.48541
 H1018 H 0.46851 0.03442 0.51162
 H1019 H 0.52543 -0.04056 0.48976
 H1020 H 0.54078 -0.02431 0.50654
 H1021 H 0.47670 0.02593 0.45666
 H1022 H 0.52390 0.04295 0.47307
 H1023 H 0.49165 -0.03973 0.52545
 H1024 H 0.50936 -0.02499 0.53938
 H1025 H 0.53992 0.00789 0.47333
 H1026 H 0.52534 -0.00873 0.45753
 H1027 H 0.47661 0.00787 0.54059
 H1028 H 0.45956 -0.00854 0.52463
 O1029 O 0.50187 0.54078 0.01894
 O1030 O 0.47592 0.53597 0.01735
 O1031 O 0.52028 0.50085 0.04032
 O1032 O 0.52086 0.47581 0.03586
 O1033 O 0.54103 0.51939 -0.00084
 O1034 O 0.53491 0.51800 -0.02767
 O1035 O 0.48039 0.46030 -0.00049
 O1036 O 0.48378 0.46492 0.02566
 O1037 O 0.46039 0.49877 -0.01990
 O1038 O 0.46576 0.52616 -0.01928
 O1039 O 0.49854 0.47994 -0.04084
 O1040 O 0.52570 0.48059 -0.03602
 O1041 O 0.49829 0.45997 -0.01951
 O1042 O 0.52649 0.46550 -0.01854
 O1043 O 0.48045 0.49841 -0.04089
 O1044 O 0.48230 0.52647 -0.03532
 O1045 O 0.46073 0.48040 -0.00133
 O1046 O 0.46616 0.48582 0.02650
 O1047 O 0.51952 0.54063 -0.00035
 O1048 O 0.51779 0.53460 -0.02769
 O1049 O 0.54139 0.50130 0.01802
 O1050 O 0.53504 0.47376 0.01587
 O1051 O 0.50246 0.51963 0.04039
 O1052 O 0.47501 0.51638 0.03468
 Zr1053 Zr 0.49266 0.51869 0.01815
 O1054 O 0.47779 0.50535 0.00470
 Zr1055 Zr 0.51937 0.49192 0.01777
 O1056 O 0.50537 0.47728 0.00479
 Zr1057 Zr 0.51876 0.51843 -0.00962
 O1058 O 0.50516 0.50474 -0.02407
 Zr1059 Zr 0.48240 0.48228 0.00874
 O1060 O 0.49638 0.49556 0.02341
 Zr1061 Zr 0.48218 0.50858 -0.01892
 O1062 O 0.49579 0.52343 -0.00553
 Zr1063 Zr 0.50864 0.48162 -0.01885
 O1064 O 0.52386 0.49530 -0.00588
 O1065 O 0.51556 0.51488 0.01388
 O1066 O 0.48568 0.48550 -0.01490
 C1067 C 0.51216 0.54714 0.01064
 C1068 C 0.51288 0.51164 0.04688
 C1069 C 0.54765 0.51179 0.00989
 C1070 C 0.48758 0.45383 -0.01159
 C1071 C 0.45427 0.48784 -0.01228
 C1072 C 0.48770 0.48739 -0.04721
 H1073 H 0.46717 0.50784 0.00739
 H1074 H 0.50751 0.50704 -0.03499
 H1075 H 0.52218 0.52141 0.02033
 H1076 H 0.50764 0.46659 0.00752
 H1077 H 0.48722 0.46987 0.03534
 H1078 H 0.51289 0.46813 0.03393
 H1079 H 0.49076 0.52461 -0.04259
 H1080 H 0.50789 0.53983 -0.02673
 H1081 H 0.45894 0.47716 0.02629
 H1082 H 0.47611 0.52453 0.04255
 H1083 H 0.52528 0.49020 -0.04197
 H1084 H 0.53963 0.50779 -0.02740
 H1085 H 0.47596 0.54008 0.00669
 H1086 H 0.45982 0.52546 -0.00961
 H1087 H 0.54094 0.47552 0.00630
 H1088 H 0.52468 0.45847 -0.00981
 O1089 O 0.77006 0.29048 0.50021
 O1090 O 0.76785 0.28526 0.52655
 O1091 O 0.79095 0.25070 0.48127
 O1092 O 0.78636 0.22563 0.48045
 O1093 O 0.75137 0.26991 0.45942
 O1094 O 0.72486 0.26878 0.46492
 O1095 O 0.74934 0.21000 0.52035
 O1096 O 0.77516 0.21423 0.51755
 O1097 O 0.73054 0.24850 0.54076
 O1098 O 0.73163 0.27598 0.53563
 O1099 O 0.71055 0.23046 0.50111
 O1100 O 0.71598 0.23150 0.47346
 O1101 O 0.73114 0.21020 0.50158
 O1102 O 0.73279 0.21603 0.47302
 O1103 O 0.71036 0.24865 0.51985
 O1104 O 0.71617 0.27661 0.51850
 O1105 O 0.74851 0.22989 0.54064
 O1106 O 0.77598 0.23488 0.53582
 O1107 O 0.75159 0.29086 0.48168
 O1108 O 0.72467 0.28517 0.48258
 O1109 O 0.76960 0.25155 0.45928
 O1110 O 0.76704 0.22402 0.46525
 O1111 O 0.79082 0.26919 0.49974
 O1112 O 0.78464 0.26546 0.52750
 Zr1113 Zr 0.76881 0.26828 0.50919
 O1114 O 0.75509 0.25492 0.52377
 Zr1115 Zr 0.76873 0.24190 0.48157
 O1116 O 0.75543 0.22724 0.49524
 Zr1117 Zr 0.74219 0.26877 0.48185
 O1118 O 0.72750 0.25511 0.49514
 Zr1119 Zr 0.75884 0.23185 0.51882
 O1120 O 0.77376 0.24514 0.50519
 Zr1121 Zr 0.73207 0.25856 0.51873
 O1122 O 0.74572 0.27340 0.50544
 Zr1123 Zr 0.73237 0.23198 0.49138
 O1124 O 0.74568 0.24567 0.47643
 O1125 O 0.76510 0.26486 0.48569
 O1126 O 0.73577 0.23547 0.51492
 C1127 C 0.76227 0.29711 0.48960
 C1128 C 0.79731 0.26135 0.48911
 C1129 C 0.76194 0.26224 0.45284
 C1130 C 0.73851 0.20381 0.51264
 C1131 C 0.73776 0.23743 0.54705
 C1132 C 0.70417 0.23783 0.51213
 H1133 H 0.75753 0.25722 0.53469
 H1134 H 0.71687 0.25759 0.49249
 H1135 H 0.77165 0.27141 0.47921
 H1136 H 0.75799 0.21655 0.49284
 H1137 H 0.78482 0.21906 0.51434
 H1138 H 0.78395 0.21767 0.48814
 H1139 H 0.70927 0.27501 0.50961
 H1140 H 0.72539 0.29021 0.49280
 H1141 H 0.77551 0.22612 0.54303
 H1142 H 0.79246 0.27355 0.52674
 H1143 H 0.71013 0.24108 0.47403
 H1144 H 0.72511 0.25863 0.45997
 H1145 H 0.75749 0.28960 0.52623
 H1146 H 0.74091 0.27500 0.54201
 H1147 H 0.75773 0.22589 0.45912
 H1148 H 0.74130 0.20893 0.47491
 O1149 O 0.79084 0.75116 -0.01952
 O1150 O 0.78557 0.72523 -0.01826
 O1151 O 0.75145 0.77063 -0.04075
 O1152 O 0.72645 0.77147 -0.03641
 O1153 O 0.77018 0.79063 0.00073
 O1154 O 0.76872 0.78425 0.02743
 O1155 O 0.71024 0.73076 -0.00042
 O1156 O 0.71485 0.73442 -0.02653
 O1157 O 0.74828 0.70999 0.01874
 O1158 O 0.77564 0.71491 0.01830
 O1159 O 0.73013 0.74838 0.04012
 O1160 O 0.73119 0.77565 0.03553
 O1161 O 0.71021 0.74855 0.01878
 O1162 O 0.71612 0.77675 0.01807
 O1163 O 0.74821 0.72990 0.04000
 O1164 O 0.77622 0.73134 0.03450
 O1165 O 0.73001 0.71074 0.00011
 O1166 O 0.73544 0.71646 -0.02763
 O1167 O 0.79099 0.76870 -0.00004
 O1168 O 0.78493 0.76677 0.02730
 O1169 O 0.75213 0.79150 -0.01813
 O1170 O 0.72457 0.78555 -0.01623
 O1171 O 0.76982 0.75239 -0.04098
 O1172 O 0.76603 0.72487 -0.03564
 Zr1173 Zr 0.76866 0.74233 -0.01888
 O1174 O 0.75511 0.72754 -0.00561
 Zr1175 Zr 0.74243 0.76957 -0.01825
 O1176 O 0.72757 0.75565 -0.00546
 Zr1177 Zr 0.76884 0.76823 0.00920
 O1178 O 0.75494 0.75471 0.02346
 Zr1179 Zr 0.73217 0.73257 -0.00965
 O1180 O 0.74566 0.74651 -0.02415
 Zr1181 Zr 0.75839 0.73167 0.01807
 O1182 O 0.77344 0.74516 0.00485
 Zr1183 Zr 0.73195 0.75863 0.01823
 O1184 O 0.74587 0.77377 0.00546
 O1185 O 0.76526 0.76532 -0.01434
 O1186 O 0.73544 0.73559 0.01404
 C1187 C 0.79736 0.76130 -0.01110
 C1188 C 0.76210 0.76308 -0.04735
 C1189 C 0.76269 0.79752 -0.00990
 C1190 C 0.70392 0.73795 0.01077
 C1191 C 0.73733 0.70407 0.01099
 C1192 C 0.73738 0.73733 0.04639
 H1193 H 0.75742 0.71688 -0.00842
 H1194 H 0.75726 0.75694 0.03442
 H1195 H 0.77188 0.77192 -0.02069
 H1196 H 0.71696 0.75812 -0.00818
 H1197 H 0.71981 0.73790 -0.03618
 H1198 H 0.71861 0.76364 -0.03454
 H1199 H 0.77451 0.73979 0.04185
 H1200 H 0.79002 0.75680 0.02618
 H1201 H 0.72669 0.70935 -0.02754
 H1202 H 0.77418 0.72590 -0.04348
 H1203 H 0.74073 0.77500 0.04153
 H1204 H 0.75860 0.78914 0.02724
 H1205 H 0.78969 0.72510 -0.00760
 H1206 H 0.77489 0.70909 0.00854
 H1207 H 0.72636 0.79130 -0.00655
 H1208 H 0.70906 0.77509 0.00933
 O1209 O 1.00079 0.20962 0.22982
 O1210 O 0.97493 0.21457 0.23173
 O1211 O 1.01929 0.24946 0.20843
 O1212 O 1.01999 0.27449 0.21292
 O1213 O 1.04041 0.23071 0.24929
 O1214 O 1.03468 0.23190 0.27614
 O1215 O 0.98010 0.29008 0.24990
 O1216 O 0.98310 0.28558 0.22368
 O1217 O 0.96023 0.25167 0.26942
 O1218 O 0.96538 0.22430 0.26866
 O1219 O 0.99882 0.27026 0.28989
 O1220 O 1.02588 0.26948 0.28472
 O1221 O 0.99829 0.29027 0.26869
 O1222 O 1.02649 0.28461 0.26723
 O1223 O 0.98060 0.25190 0.29012
 O1224 O 0.98224 0.22379 0.28442
 O1225 O 0.96038 0.27008 0.25091
 O1226 O 0.96537 0.26476 0.22297
 O1227 O 1.01875 0.20956 0.24886
 O1228 O 1.01740 0.21549 0.27631
 O1229 O 1.04065 0.24889 0.23052
 O1230 O 1.03445 0.27646 0.23278
 O1231 O 1.00130 0.23082 0.20849
 O1232 O 0.97392 0.23427 0.21453
 Zr1233 Zr 0.99177 0.23175 0.23083
 O1234 O 0.97720 0.24509 0.24456
 Zr1235 Zr 1.01867 0.25836 0.23100
 O1236 O 1.00494 0.27303 0.24419
 Zr1237 Zr 1.01827 0.23173 0.25829
 O1238 O 1.00501 0.24546 0.27297
 Zr1239 Zr 0.98189 0.26815 0.24053
 O1240 O 0.99558 0.25487 0.22562
 Zr1241 Zr 0.98193 0.24175 0.26811
 O1242 O 0.99521 0.22687 0.25446
 Zr1243 Zr 1.00855 0.26858 0.26777
 O1244 O 1.02348 0.25484 0.25458
 O1245 O 1.01476 0.23540 0.23485
 O1246 O 0.98552 0.26482 0.26411
 C1247 C 1.01118 0.20315 0.23793
 C1248 C 1.01173 0.23872 0.20193
 C1249 C 1.04696 0.23835 0.23855
 C1250 C 0.98746 0.29646 0.26096
 C1251 C 0.95406 0.26265 0.26193
 C1252 C 0.98802 0.26286 0.29638
 H1253 H 0.96652 0.24266 0.24200
 H1254 H 1.00752 0.24312 0.28385
 H1255 H 1.02127 0.22887 0.22831
 H1256 H 1.00723 0.28372 0.24148
 H1257 H 0.98638 0.28067 0.21393
 H1258 H 1.01207 0.28220 0.21496
 H1259 H 0.99077 0.22564 0.29163
 H1260 H 1.00749 0.21026 0.27537
 H1261 H 0.95818 0.27343 0.22332
 H1262 H 0.97486 0.22617 0.20659
 H1263 H 1.02551 0.25986 0.29063
 H1264 H 1.03941 0.24212 0.27595
 H1265 H 0.97506 0.21043 0.24238
 H1266 H 0.95936 0.22500 0.25903
 H1267 H 1.04048 0.27465 0.24226
 H1268 H 1.02449 0.29178 0.25865
 O1269 O 0.77002 0.96076 0.75173
 O1270 O 0.76777 0.96587 0.72540
 O1271 O 0.79113 1.00059 0.77054
 O1272 O 0.78662 1.02563 0.77128
 O1273 O 0.75146 0.98159 0.79246
 O1274 O 0.72498 0.98268 0.78692
 O1275 O 0.74962 1.04125 0.73134
 O1276 O 0.77542 1.03690 0.73410
 O1277 O 0.73052 1.00276 0.71104
 O1278 O 0.73152 0.97531 0.71623
 O1279 O 0.71075 1.02101 0.75063
 O1280 O 0.71623 1.02003 0.77825
 O1281 O 0.73146 1.04118 0.75010
 O1282 O 0.73315 1.03540 0.77869
 O1283 O 0.71042 1.00274 0.73198
 O1284 O 0.71614 0.97474 0.73341
 O1285 O 0.74856 1.02133 0.71110
 O1286 O 0.77603 1.01620 0.71589
 O1287 O 0.75161 0.96050 0.77027
 O1288 O 0.72470 0.96626 0.76931
 O1289 O 0.76978 0.99988 0.79254
 O1290 O 0.76736 1.02739 0.78643
 O1291 O 0.79087 0.98205 0.75211
 O1292 O 0.78459 0.98563 0.72433
 Zr1293 Zr 0.76883 0.98294 0.74267
 O1294 O 0.75512 0.99629 0.72805
 Zr1295 Zr 0.76893 1.00941 0.77020
 O1296 O 0.75566 1.02407 0.75647
 Zr1297 Zr 0.74228 0.98262 0.77001
 O1298 O 0.72760 0.99630 0.75668
 Zr1299 Zr 0.75898 1.01936 0.73291
 O1300 O 0.77388 1.00608 0.74659
 Zr1301 Zr 0.73210 0.99276 0.73310
 O1302 O 0.74573 0.97790 0.74644
 Zr1303 Zr 0.73259 1.01943 0.76036
 O1304 O 0.74587 1.00573 0.77535
 O1305 O 0.76520 0.98645 0.76616
 O1306 O 0.73591 1.01584 0.73683
 C1307 C 0.76224 0.95419 0.76237
 C1308 C 0.79743 0.98991 0.76270
 C1309 C 0.76206 0.98927 0.79902
 C1310 C 0.73886 1.04752 0.73904
 C1311 C 0.73775 1.01381 0.70473
 C1312 C 0.70430 1.01361 0.73964
 H1313 H 0.75751 0.99394 0.71713
 H1314 H 0.71697 0.99386 0.75933
 H1315 H 0.77175 0.97991 0.77268
 H1316 H 0.75828 1.03475 0.75884
 H1317 H 0.78506 1.03203 0.73730
 H1318 H 0.78428 1.03353 0.76350
 H1319 H 0.70925 0.97641 0.74227
 H1320 H 0.72540 0.96118 0.75912
 H1321 H 0.77557 1.02494 0.70864
 H1322 H 0.79241 0.97754 0.72514
 H1323 H 0.71034 1.01046 0.77773
 H1324 H 0.72522 0.99287 0.79179
 H1325 H 0.75738 0.96162 0.72569
 H1326 H 0.74080 0.97622 0.70988
 H1327 H 0.75807 1.02557 0.79258
 H1328 H 0.74165 1.04250 0.77675
 O1329 O 0.70891 0.52026 0.25039
 O1330 O 0.71436 0.51816 0.27663
 O1331 O 0.74851 0.54099 0.23090
 O1332 O 0.77341 0.53630 0.22973
 O1333 O 0.72890 0.50118 0.20948
 O1334 O 0.72990 0.47470 0.21514
 O1335 O 0.78930 0.49939 0.26989
 O1336 O 0.78511 0.52527 0.26701
 O1337 O 0.75113 0.48057 0.29069
 O1338 O 0.72372 0.48167 0.28590
 O1339 O 0.76863 0.46045 0.25090
 O1340 O 0.76743 0.46576 0.22337
 O1341 O 0.78887 0.48106 0.25123
 O1342 O 0.78271 0.48278 0.22259
 O1343 O 0.75072 0.46031 0.26983
 O1344 O 0.72276 0.46623 0.26871
 O1345 O 0.76971 0.49858 0.29033
 O1346 O 0.76469 0.52615 0.28545
 O1347 O 0.70825 0.50167 0.23196
 O1348 O 0.71386 0.47460 0.23305
 O1349 O 0.74729 0.51941 0.20903
 O1350 O 0.77486 0.51685 0.21484
 O1351 O 0.73029 0.54101 0.24958
 O1352 O 0.73422 0.53485 0.27737
 Zr1353 Zr 0.73115 0.51896 0.25914
 O1354 O 0.74457 0.50520 0.27366
 Zr1355 Zr 0.75714 0.51868 0.23125
 O1356 O 0.77188 0.50542 0.24489
 Zr1357 Zr 0.73025 0.49215 0.23197
 O1358 O 0.74402 0.47745 0.24515
 Zr1359 Zr 0.76752 0.50892 0.26849
 O1360 O 0.75420 0.52384 0.25487
 Zr1361 Zr 0.74085 0.48210 0.26876
 O1362 O 0.72592 0.49580 0.25558
 Zr1363 Zr 0.76707 0.48231 0.24115
 O1364 O 0.75324 0.49556 0.22628
 O1365 O 0.73427 0.51513 0.23562
 O1366 O 0.76383 0.48578 0.26471
 C1367 C 0.70214 0.51243 0.23989
 C1368 C 0.73802 0.54745 0.23884
 C1369 C 0.73655 0.51169 0.20274
 C1370 C 0.79536 0.48848 0.26221
 C1371 C 0.76227 0.48779 0.29684
 C1372 C 0.76141 0.45408 0.26201
 H1373 H 0.74239 0.50767 0.28459
 H1374 H 0.74150 0.46679 0.24257
 H1375 H 0.72771 0.52169 0.22916
 H1376 H 0.78252 0.50798 0.24238
 H1377 H 0.78028 0.53495 0.26382
 H1378 H 0.78124 0.53413 0.23761
 H1379 H 0.72431 0.45921 0.25991
 H1380 H 0.70888 0.47549 0.24326
 H1381 H 0.77349 0.52567 0.29260
 H1382 H 0.72622 0.54277 0.27660
 H1383 H 0.75776 0.46006 0.22388
 H1384 H 0.73999 0.47482 0.21012
 H1385 H 0.71009 0.50774 0.27652
 H1386 H 0.72471 0.49105 0.29214
 H1387 H 0.77284 0.50757 0.20868
 H1388 H 0.79002 0.49111 0.22456
 O1389 O 0.54137 0.22945 0.75216
 O1390 O 0.53598 0.23177 0.77843
 O1391 O 0.50200 0.20803 0.73296
 O1392 O 0.47699 0.21238 0.73187
 O1393 O 0.52096 0.24783 0.71110
 O1394 O 0.51962 0.27437 0.71648
 O1395 O 0.46080 0.24954 0.77158
 O1396 O 0.46529 0.22368 0.76896
 O1397 O 0.49887 0.26900 0.79215
 O1398 O 0.52627 0.26815 0.78730
 O1399 O 0.48096 0.28854 0.75222
 O1400 O 0.48214 0.28293 0.72469
 O1401 O 0.46094 0.26768 0.75274
 O1402 O 0.46696 0.26583 0.72417
 O1403 O 0.49898 0.28906 0.77109
 O1404 O 0.52697 0.28345 0.76998
 O1405 O 0.48049 0.25078 0.79199
 O1406 O 0.48579 0.22323 0.78738
 O1407 O 0.54170 0.24787 0.73355
 O1408 O 0.53577 0.27485 0.73432
 O1409 O 0.50281 0.22937 0.71088
 O1410 O 0.47526 0.23164 0.71668
 O1411 O 0.52031 0.20843 0.75159
 O1412 O 0.51634 0.21478 0.77931
 Zr1413 Zr 0.51916 0.23056 0.76095
 O1414 O 0.50563 0.24429 0.77535
 Zr1415 Zr 0.49304 0.23022 0.73311
 O1416 O 0.47820 0.24346 0.74662
 Zr1417 Zr 0.51959 0.25710 0.73350
 O1418 O 0.50572 0.27177 0.74657
 Zr1419 Zr 0.48269 0.24026 0.77025
 O1420 O 0.49615 0.22535 0.75678
 Zr1421 Zr 0.50906 0.26738 0.77022
 O1422 O 0.52409 0.25374 0.75713
 Zr1423 Zr 0.48272 0.26660 0.74267
 O1424 O 0.49662 0.25334 0.72789
 O1425 O 0.51587 0.23411 0.73740
 O1426 O 0.48610 0.26340 0.76625
 C1427 C 0.54797 0.23726 0.74156
 C1428 C 0.51263 0.20179 0.74092
 C1429 C 0.51343 0.23714 0.70449
 C1430 C 0.45457 0.26028 0.76379
 C1431 C 0.48785 0.26171 0.79839
 C1432 C 0.48818 0.29510 0.76325
 H1433 H 0.50788 0.24195 0.78630
 H1434 H 0.50811 0.28243 0.74389
 H1435 H 0.52250 0.22757 0.73099
 H1436 H 0.46758 0.24076 0.74416
 H1437 H 0.47022 0.21403 0.76585
 H1438 H 0.46908 0.21463 0.73963
 H1439 H 0.52531 0.29035 0.76111
 H1440 H 0.54080 0.27416 0.74454
 H1441 H 0.47702 0.22368 0.79454
 H1442 H 0.52447 0.20700 0.77864
 H1443 H 0.49169 0.28883 0.72520
 H1444 H 0.50952 0.27405 0.71148
 H1445 H 0.54018 0.24221 0.77813
 H1446 H 0.52540 0.25884 0.79365
 H1447 H 0.47709 0.24093 0.71048
 H1448 H 0.45987 0.25733 0.72614
 O1449 O 0.29143 0.75201 0.48106
 O1450 O 0.28658 0.72597 0.48265
 O1451 O 0.25164 0.77060 0.45983
 O1452 O 0.22662 0.77095 0.46429
 O1453 O 0.27023 0.79135 0.50089
 O1454 O 0.26898 0.78526 0.52774
 O1455 O 0.21127 0.73056 0.50089
 O1456 O 0.21569 0.73396 0.47466
 O1457 O 0.24972 0.71056 0.52006
 O1458 O 0.27707 0.71594 0.51928
 O1459 O 0.23108 0.74881 0.54105
 O1460 O 0.23183 0.77616 0.53617
 O1461 O 0.21107 0.74856 0.51988
 O1462 O 0.21652 0.77678 0.51888
 O1463 O 0.24947 0.73064 0.54102
 O1464 O 0.27743 0.73252 0.53538
 O1465 O 0.23130 0.71087 0.50158
 O1466 O 0.23651 0.71627 0.47371
 O1467 O 0.29140 0.76977 0.50032
 O1468 O 0.28554 0.76809 0.52769
 O1469 O 0.25207 0.79170 0.48212
 O1470 O 0.22465 0.78536 0.48431
 O1471 O 0.27031 0.75267 0.45971
 O1472 O 0.26696 0.72514 0.46536
 Zr1473 Zr 0.26940 0.74281 0.48192
 O1474 O 0.25615 0.72794 0.49543
 Zr1475 Zr 0.24273 0.76961 0.48237
 O1476 O 0.22818 0.75563 0.49544
 Zr1477 Zr 0.26931 0.76904 0.50969
 O1478 O 0.25573 0.75543 0.52420
 Zr1479 Zr 0.23312 0.73258 0.49149
 O1480 O 0.24630 0.74655 0.47674
 Zr1481 Zr 0.25952 0.73238 0.51903
 O1482 O 0.27427 0.74600 0.50558
 Zr1483 Zr 0.23266 0.75894 0.51907
 O1484 O 0.24623 0.77416 0.50602
 O1485 O 0.26564 0.76578 0.48621
 O1486 O 0.23649 0.73592 0.51510
 C1487 C 0.29783 0.76236 0.48931
 C1488 C 0.26241 0.76318 0.45327
 C1489 C 0.26259 0.79798 0.49019
 C1490 C 0.20490 0.73778 0.51204
 C1491 C 0.23877 0.70442 0.51250
 C1492 C 0.23851 0.73791 0.54737
 H1493 H 0.25861 0.71729 0.49273
 H1494 H 0.25809 0.75780 0.53512
 H1495 H 0.27213 0.77241 0.47975
 H1496 H 0.21751 0.75790 0.49277
 H1497 H 0.22056 0.73740 0.46496
 H1498 H 0.21882 0.76315 0.46642
 H1499 H 0.27562 0.74101 0.54266
 H1500 H 0.29073 0.75815 0.52672
 H1501 H 0.22788 0.70904 0.47397
 H1502 H 0.27506 0.72621 0.45747
 H1503 H 0.24132 0.77556 0.54225
 H1504 H 0.25878 0.78998 0.52752
 H1505 H 0.29077 0.72605 0.49327
 H1506 H 0.27626 0.70991 0.50966
 H1507 H 0.22638 0.79122 0.49393
 H1508 H 0.20952 0.77501 0.51011
 O1509 O 0.26899 0.29045 0.99935
 O1510 O 0.26645 0.28543 1.02568
 O1511 O 0.29038 0.25071 0.98094
 O1512 O 0.28597 0.22566 0.98004
 O1513 O 0.25078 0.26952 0.95851
 O1514 O 0.22427 0.26825 0.96377
 O1515 O 0.24883 0.20991 1.01975
 O1516 O 0.27460 0.21443 1.01726
 O1517 O 0.22931 0.24829 1.03974
 O1518 O 0.23016 0.27573 1.03452
 O1519 O 0.20997 0.22983 0.99994
 O1520 O 0.21560 0.23071 0.97248
 O1521 O 0.23081 0.20980 1.00080
 O1522 O 0.23276 0.21560 0.97214
 O1523 O 0.20938 0.24813 1.01856
 O1524 O 0.21495 0.27618 1.01713
 O1525 O 0.24746 0.22986 1.03992
 O1526 O 0.27495 0.23519 1.03541
 O1527 O 0.25071 0.29059 0.98062
 O1528 O 0.22376 0.28468 0.98141
 O1529 O 0.26921 0.25135 0.95866
 O1530 O 0.26682 0.22378 0.96479
 O1531 O 0.28989 0.26927 0.99934
 O1532 O 0.28336 0.26577 1.02704
 Zr1533 Zr 0.26776 0.26831 1.00849
 O1534 O 0.25400 0.25490 1.02299
 Zr1535 Zr 0.26821 0.24179 0.98100
 O1536 O 0.25494 0.22708 0.99463
 Zr1537 Zr 0.24143 0.26842 0.98087
 O1538 O 0.22674 0.25466 0.99405
 Zr1539 Zr 0.25805 0.23186 1.01822
 O1540 O 0.27297 0.24520 1.00465
 Zr1541 Zr 0.23100 0.25827 1.01767
 O1542 O 0.24466 0.27320 1.00447
 Zr1543 Zr 0.23188 0.23154 0.99048
 O1544 O 0.24518 0.24532 0.97560
 O1545 O 0.26434 0.26474 0.98497
 O1546 O 0.23498 0.23520 1.01404
 C1547 C 0.26130 0.29696 0.98859
 C1548 C 0.29657 0.26142 0.98884
 C1549 C 0.26149 0.26192 0.95208
 C1550 C 0.23817 0.20354 1.01196
 C1551 C 0.23655 0.23731 1.04616
 C1552 C 0.20339 0.23719 1.01084
 H1553 H 0.25629 0.25729 1.03393
 H1554 H 0.21611 0.25701 0.99127
 H1555 H 0.27092 0.27128 0.97852
 H1556 H 0.25765 0.21640 0.99231
 H1557 H 0.28423 0.21935 1.01414
 H1558 H 0.28372 0.21786 0.98794
 H1559 H 0.20815 0.27444 1.00819
 H1560 H 0.22444 0.28984 0.99156
 H1561 H 0.27447 0.22648 1.04269
 H1562 H 0.29114 0.27391 1.02630
 H1563 H 0.20981 0.24034 0.97276
 H1564 H 0.22460 0.25807 0.95890
 H1565 H 0.25605 0.28964 1.02523
 H1566 H 0.23944 0.27496 1.04091
 H1567 H 0.25763 0.22560 0.95847
 H1568 H 0.24118 0.20847 0.97427
 C1569 C 0.27551 0.37068 0.78462
 C1570 C 0.28543 0.38238 0.78034
 C1571 C 0.30112 0.38024 0.78164
 C1572 C 0.30688 0.36654 0.78736
 C1573 C 0.29701 0.35477 0.79190
 C1574 C 0.28125 0.35695 0.79036
 C1575 C 0.27960 0.39682 0.77519
 C1576 C 0.27503 0.40912 0.77117
 C1577 C 0.27005 0.42377 0.76681
 C1578 C 0.26614 0.43648 0.76341
 H1579 H 0.26335 0.37221 0.78368
 H1580 H 0.30890 0.38926 0.77845
 H1581 H 0.31904 0.36532 0.78863
 H1582 H 0.27338 0.34804 0.79360
 C1583 C 0.30090 -0.11894 0.28117
 C1584 C 0.28567 -0.11526 0.28354
 C1585 C 0.27624 -0.12543 0.29139
 C1586 C 0.28204 -0.13917 0.29702
 C1587 C 0.29750 -0.14307 0.29493
 C1588 C 0.30677 -0.13265 0.28675
 C1589 C 0.27988 -0.10083 0.27830
 C1590 C 0.27530 -0.08859 0.27408
 C1591 C 0.27023 -0.07408 0.26936
 C1592 C 0.26618 -0.06153 0.26552
 H1593 H 0.30835 -0.11106 0.27524
 H1594 H 0.26438 -0.12274 0.29319
 H1595 H 0.27416 -0.14685 0.30256
 H1596 H 0.31879 -0.13456 0.28523
 C1597 C 0.79948 0.88025 0.78004
 C1598 C 0.78437 0.88419 0.78274
 C1599 C 0.77490 0.87412 0.79067
 C1600 C 0.78056 0.86022 0.79605
 C1601 C 0.79591 0.85607 0.79365
 C1602 C 0.80520 0.86639 0.78537
 C1603 C 0.77881 0.89883 0.77786
 C1604 C 0.77449 0.91126 0.77396
 C1605 C 0.76982 0.92602 0.76963
 C1606 C 0.76616 0.93879 0.76617
 H1607 H 0.80697 0.88806 0.77405
 H1608 H 0.76313 0.87702 0.79274
 H1609 H 0.77264 0.85264 0.80169
 H1610 H 0.81716 0.86429 0.78362
 C1611 C 0.47328 0.87630 0.28824
 C1612 C 0.46338 0.86469 0.28363
 C1613 C 0.44769 0.86691 0.28454
 C1614 C 0.44189 0.88065 0.29011
 C1615 C 0.45173 0.89238 0.29486
 C1616 C 0.46750 0.89007 0.29383
 C1617 C 0.46923 0.85032 0.27832
 C1618 C 0.47383 0.83811 0.27405
 C1619 C 0.47887 0.82362 0.26926
 C1620 C 0.48290 0.81109 0.26540
 H1621 H 0.48545 0.87469 0.28759
 H1622 H 0.43993 0.85797 0.28108
 H1623 H 0.42971 0.88198 0.29099
 H1624 H 0.47535 0.89894 0.29726
 C1625 C -0.02464 0.87741 0.78821
 C1626 C -0.03421 0.86743 0.78027
 C1627 C -0.04935 0.87141 0.77776
 C1628 C -0.05502 0.88518 0.78337
 C1629 C -0.04563 0.89535 0.79177
 C1630 C -0.03024 0.89121 0.79388
 C1631 C -0.02873 0.85281 0.77529
 C1632 C -0.02443 0.84036 0.77142
 C1633 C -0.01977 0.82556 0.76724
 C1634 C -0.01610 0.81275 0.76397
 H1635 H -0.01284 0.87449 0.79013
 H1636 H -0.05691 0.86367 0.77174
 H1637 H -0.06700 0.88729 0.78179
 H1638 H -0.02226 0.89872 0.79956
 C1639 C -0.05110 -0.11796 -0.03404
 C1640 C -0.03544 -0.11541 -0.03324
 C1641 C -0.02536 -0.12688 -0.03777
 C1642 C -0.03093 -0.14083 -0.04317
 C1643 C -0.04666 -0.14346 -0.04409
 C1644 C -0.05668 -0.13187 -0.03942
 C1645 C -0.02982 -0.10088 -0.02812
 C1646 C -0.02540 -0.08854 -0.02401
 C1647 C -0.02050 -0.07393 -0.01943
 C1648 C -0.01655 -0.06130 -0.01576
 H1649 H -0.05900 -0.10913 -0.03065
 H1650 H -0.01322 -0.12502 -0.03721
 H1651 H -0.02294 -0.14958 -0.04654
 H1652 H -0.06884 -0.13345 -0.04022
 C1653 C -0.02717 0.37496 0.45867
 C1654 C -0.03677 0.38486 0.46665
 C1655 C -0.05189 0.38078 0.46911
 C1656 C -0.05748 0.36696 0.46348
 C1657 C -0.04804 0.35684 0.45514
 C1658 C -0.03269 0.36113 0.45298
 C1659 C -0.03126 0.39939 0.47191
 C1660 C -0.02682 0.41170 0.47611
 C1661 C -0.02184 0.42627 0.48078
 C1662 C -0.01777 0.43884 0.48454
 H1663 H -0.01538 0.37795 0.45680
 H1664 H -0.05948 0.38844 0.47515
 H1665 H -0.06944 0.36475 0.46507
 H1666 H -0.02466 0.35368 0.44733
 C1667 C 0.45807 -0.12476 0.47474
 C1668 C 0.46552 -0.11481 0.46471
 C1669 C 0.46738 -0.11880 0.44920
 C1670 C 0.46170 -0.13261 0.44366
 C1671 C 0.45392 -0.14282 0.45355
 C1672 C 0.45233 -0.13860 0.46927
 C1673 C 0.47087 -0.10029 0.47016
 C1674 C 0.47518 -0.08797 0.47447
 C1675 C 0.48001 -0.07339 0.47924
 C1676 C 0.48393 -0.06080 0.48307
 H1677 H 0.45666 -0.12182 0.48683
 H1678 H 0.47301 -0.11109 0.44128
 H1679 H 0.46283 -0.13476 0.43141
 H1680 H 0.44710 -0.14610 0.47762
 C1681 C 0.44917 0.38045 -0.03005
 C1682 C 0.46427 0.38442 -0.03277
 C1683 C 0.47374 0.37439 -0.04074
 C1684 C 0.46810 0.36049 -0.04614
 C1685 C 0.45277 0.35629 -0.04370
 C1686 C 0.44346 0.36657 -0.03539
 C1687 C 0.46986 0.39901 -0.02779
 C1688 C 0.47428 0.41138 -0.02378
 C1689 C 0.47918 0.42602 -0.01930
 C1690 C 0.48313 0.43865 -0.01566
 H1691 H 0.44168 0.38822 -0.02402
 H1692 H 0.48551 0.37732 -0.04282
 H1693 H 0.47602 0.35294 -0.05181
 H1694 H 0.43151 0.36444 -0.03362
 C1695 C 0.80094 0.36874 0.46745
 C1696 C 0.78525 0.36650 0.46836
 C1697 C 0.77535 0.37807 0.46366
 C1698 C 0.78113 0.39178 0.45792
 C1699 C 0.79690 0.39407 0.45681
 C1700 C 0.80674 0.38242 0.46172
 C1701 C 0.77942 0.35210 0.47360
 C1702 C 0.77491 0.33981 0.47773
 C1703 C 0.77007 0.32517 0.48224
 C1704 C 0.76630 0.31246 0.48578
 H1705 H 0.80870 0.35983 0.47096
 H1706 H 0.76317 0.37644 0.46430
 H1707 H 0.77328 0.40059 0.45436
 H1708 H 0.81892 0.38373 0.46079
 C1709 C 0.78212 0.87145 -0.04604
 C1710 C 0.78492 0.86729 -0.03073
 C1711 C 0.79323 0.87700 -0.02113
 C1712 C 0.79886 0.89078 -0.02686
 C1713 C 0.79629 0.89517 -0.04241
 C1714 C 0.78769 0.88518 -0.05184
 C1715 C 0.77971 0.85277 -0.02517
 C1716 C 0.77548 0.84039 -0.02100
 C1717 C 0.77073 0.82567 -0.01664
 C1718 C 0.76690 0.81291 -0.01334
 H1719 H 0.77584 0.86391 -0.05365
 H1720 H 0.79541 0.87392 -0.00920
 H1721 H 0.80481 0.89810 -0.01884
 H1722 H 0.78581 0.88742 -0.06398
 C1723 C 0.78555 0.30143 0.38081
 C1724 C 0.78470 0.28569 0.38306
 C1725 C 0.78966 0.27580 0.37143
 C1726 C 0.79555 0.28164 0.35763
 C1727 C 0.79654 0.29746 0.35531
 C1728 C 0.79143 0.30728 0.36705
 C1729 C 0.77915 0.27981 0.39753
 C1730 C 0.77473 0.27524 0.40987
 C1731 C 0.76987 0.27030 0.42458
 C1732 C 0.76604 0.26643 0.43737
 H1733 H 0.78184 0.30919 0.38978
 H1734 H 0.78907 0.26359 0.37306
 H1735 H 0.79926 0.27380 0.34874
 H1736 H 0.79226 0.31951 0.36573
 C1737 C 0.77485 0.78971 -0.12933
 C1738 C 0.78486 0.78513 -0.11765
 C1739 C 0.80053 0.78595 -0.12011
 C1740 C 0.80619 0.79145 -0.13412
 C1741 C 0.79624 0.79621 -0.14591
 C1742 C 0.78049 0.79522 -0.14338
 C1743 C 0.77916 0.77994 -0.10297
 C1744 C 0.77471 0.77578 -0.09049
 C1745 C 0.76989 0.77111 -0.07567
 C1746 C 0.76613 0.76732 -0.06283
 H1747 H 0.76269 0.78912 -0.12756
 H1748 H 0.80839 0.78251 -0.11112
 H1749 H 0.81836 0.79229 -0.13561
 H1750 H 0.77254 0.79865 -0.15229
 C1751 C 0.30099 0.46358 0.86903
 C1752 C 0.28529 0.46464 0.86690
 C1753 C 0.27547 0.46026 0.87881
 C1754 C 0.28135 0.45472 0.89276
 C1755 C 0.29713 0.45350 0.89496
 C1756 C 0.30689 0.45806 0.88294
 C1757 C 0.27934 0.46984 0.85231
 C1758 C 0.27471 0.47401 0.83989
 C1759 C 0.26971 0.47866 0.82511
 C1760 C 0.26583 0.48241 0.81230
 H1761 H 0.30869 0.46686 0.85985
 H1762 H 0.26329 0.46103 0.87729
 H1763 H 0.27356 0.45145 0.90185
 H1764 H 0.31907 0.45704 0.88418
 C1765 C 0.29079 -0.02623 0.37703
 C1766 C 0.28599 -0.03640 0.36556
 C1767 C 0.28682 -0.05208 0.36821
 C1768 C 0.29250 -0.05760 0.38222
 C1769 C 0.29745 -0.04749 0.39380
 C1770 C 0.29648 -0.03173 0.39107
 C1771 C 0.28053 -0.03081 0.35093
 C1772 C 0.27610 -0.02635 0.33853
 C1773 C 0.27110 -0.02137 0.32387
 C1774 C 0.26700 -0.01732 0.31122
 H1775 H 0.29019 -0.01406 0.37511
 H1776 H 0.28322 -0.06005 0.35937
 H1777 H 0.29331 -0.06978 0.38387
 H1778 H 0.30005 -0.02366 0.39982
 C1779 C -0.03180 -0.05097 -0.12203
 C1780 C -0.03415 -0.03582 -0.11779
 C1781 C -0.04189 -0.02607 -0.12780
 C1782 C -0.04745 -0.03146 -0.14193
 C1783 C -0.04539 -0.04683 -0.14640
 C1784 C -0.03730 -0.05643 -0.13614
 C1785 C -0.02896 -0.03044 -0.10298
 C1786 C -0.02477 -0.02613 -0.09045
 C1787 C -0.02006 -0.02128 -0.07564
 C1788 C -0.01621 -0.01732 -0.06288
 H1789 H -0.02593 -0.05867 -0.11428
 H1790 H -0.04367 -0.01426 -0.12468
 H1791 H -0.05293 -0.02332 -0.14947
 H1792 H -0.03580 -0.06842 -0.13847
 C1793 C -0.04437 0.47328 0.37359
 C1794 C -0.03642 0.46377 0.38369
 C1795 C -0.03412 0.44854 0.37978
 C1796 C -0.03985 0.44274 0.36590
 C1797 C -0.04811 0.45209 0.35555
 C1798 C -0.05016 0.46755 0.35969
 C1799 C -0.03096 0.46949 0.39827
 C1800 C -0.02655 0.47401 0.41065
 C1801 C -0.02156 0.47902 0.42531
 C1802 C -0.01749 0.48305 0.43797
 H1803 H -0.04613 0.48515 0.37646
 H1804 H -0.02810 0.44102 0.38760
 H1805 H -0.03835 0.43071 0.36383
 H1806 H -0.05579 0.47550 0.35207
 C1807 C 0.44763 -0.03669 0.38111
 C1808 C 0.46332 -0.03568 0.38336
 C1809 C 0.47322 -0.04035 0.37163
 C1810 C 0.46743 -0.04610 0.35773
 C1811 C 0.45166 -0.04723 0.35540
 C1812 C 0.44182 -0.04242 0.36724
 C1813 C 0.46919 -0.03017 0.39785
 C1814 C 0.47384 -0.02570 0.41016
 C1815 C 0.47898 -0.02068 0.42475
 C1816 C 0.48313 -0.01658 0.43737
 H1817 H 0.43987 -0.03319 0.39015
 H1818 H 0.48539 -0.03962 0.37325
 H1819 H 0.47527 -0.04957 0.34877
 H1820 H 0.42964 -0.04337 0.36590
 C1821 C 0.44804 0.46364 -0.11936
 C1822 C 0.46371 0.46439 -0.11685
 C1823 C 0.47371 0.45959 -0.12842
 C1824 C 0.46806 0.45395 -0.14242
 C1825 C 0.45231 0.45304 -0.14501
 C1826 C 0.44237 0.45802 -0.13333
 C1827 C 0.46944 0.46974 -0.10223
 C1828 C 0.47400 0.47406 -0.08983
 C1829 C 0.47906 0.47892 -0.07515
 C1830 C 0.48314 0.48289 -0.06247
 H1831 H 0.44019 0.46725 -0.11045
 H1832 H 0.48587 0.46013 -0.12660
 H1833 H 0.47600 0.45036 -0.15125
 H1834 H 0.43019 0.45725 -0.13488
 C1835 C 0.47351 0.78990 0.37717
 C1836 C 0.46337 0.78523 0.36563
 C1837 C 0.44772 0.78612 0.36823
 C1838 C 0.44222 0.79178 0.38224
 C1839 C 0.45231 0.79665 0.39386
 C1840 C 0.46803 0.79557 0.39120
 C1841 C 0.46894 0.77989 0.35097
 C1842 C 0.47340 0.77560 0.33854
 C1843 C 0.47838 0.77077 0.32384
 C1844 C 0.48242 0.76681 0.31115
 H1845 H 0.48564 0.78925 0.37527
 H1846 H 0.43977 0.78261 0.35935
 H1847 H 0.43007 0.79268 0.38385
 H1848 H 0.47607 0.79908 0.39999
 C1849 C -0.05015 0.78187 0.87206
 C1850 C -0.03505 0.78446 0.86797
 C1851 C -0.02555 0.79250 0.87800
 C1852 C -0.03117 0.79812 0.89200
 C1853 C -0.04650 0.79583 0.89631
 C1854 C -0.05583 0.78743 0.88604
 C1855 C -0.02951 0.77928 0.85323
 C1856 C -0.02517 0.77513 0.84070
 C1857 C -0.02044 0.77050 0.82584
 C1858 C -0.01668 0.76678 0.81299
 H1859 H -0.05766 0.77578 0.86429
 H1860 H -0.01379 0.79449 0.87498
 H1861 H -0.02323 0.80386 0.89956
 H1862 H -0.06778 0.78574 0.88823
 C1863 C 0.37323 0.77587 0.28793
 C1864 C 0.38488 0.78578 0.28350
 C1865 C 0.38270 0.80152 0.28447
 C1866 C 0.36899 0.80736 0.28997
 C1867 C 0.35724 0.79751 0.29460
 C1868 C 0.35949 0.78170 0.29345
 C1869 C 0.39925 0.77986 0.27834
 C1870 C 0.41144 0.77518 0.27420
 C1871 C 0.42591 0.77003 0.26956
 C1872 C 0.43842 0.76595 0.26577
 H1873 H 0.37479 0.76367 0.28722
 H1874 H 0.39168 0.80928 0.28115
 H1875 H 0.36770 0.81957 0.29094
 H1876 H 0.35060 0.77384 0.29677
 C1877 C -0.11937 0.80044 0.78219
 C1878 C -0.11708 0.78471 0.78133
 C1879 C -0.12865 0.77476 0.78589
 C1880 C -0.14240 0.78052 0.79143
 C1881 C -0.14475 0.79633 0.79250
 C1882 C -0.13310 0.80622 0.78772
 C1883 C -0.10263 0.77890 0.77630
 C1884 C -0.09033 0.77437 0.77234
 C1885 C -0.07568 0.76949 0.76801
 C1886 C -0.06297 0.76568 0.76460
 H1887 H -0.11046 0.80825 0.77879
 H1888 H -0.12699 0.76256 0.78528
 H1889 H -0.15121 0.77263 0.79487
 H1890 H -0.13445 0.81844 0.78863
 C1891 C 0.87765 0.28879 0.47682
 C1892 C 0.86625 0.28399 0.46662
 C1893 C 0.86854 0.28507 0.45066
 C1894 C 0.88210 0.29099 0.44488
 C1895 C 0.89361 0.29593 0.45500
 C1896 C 0.89125 0.29473 0.47105
 C1897 C 0.85199 0.27841 0.47241
 C1898 C 0.83980 0.27397 0.47683
 C1899 C 0.82526 0.26912 0.48154
 C1900 C 0.81262 0.26534 0.48519
 H1901 H 0.87598 0.28803 0.48921
 H1902 H 0.85975 0.28149 0.44266
 H1903 H 0.88345 0.29200 0.43248
 H1904 H 0.89995 0.29831 0.47913
 C1905 C 0.86906 0.79980 -0.03255
 C1906 C 0.86687 0.78406 -0.03153
 C1907 C 0.87853 0.77415 -0.03590
 C1908 C 0.89228 0.77996 -0.04143
 C1909 C 0.89451 0.79578 -0.04266
 C1910 C 0.88276 0.80563 -0.03807
 C1911 C 0.85245 0.77821 -0.02651
 C1912 C 0.84013 0.77370 -0.02255
 C1913 C 0.82546 0.76889 -0.01823
 C1914 C 0.81273 0.76519 -0.01481
 H1915 H 0.86007 0.80757 -0.02930
 H1916 H 0.87696 0.76194 -0.03516
 H1917 H 0.90117 0.77210 -0.04473
 H1918 H 0.88403 0.81784 -0.03912
 C1919 C -0.11885 -0.05061 -0.03082
 C1920 C -0.11489 -0.03543 -0.03332
 C1921 C -0.12506 -0.02572 -0.04081
 C1922 C -0.13907 -0.03121 -0.04598
 C1923 C -0.14326 -0.04662 -0.04379
 C1924 C -0.13285 -0.05617 -0.03594
 C1925 C -0.10021 -0.02993 -0.02855
 C1926 C -0.08781 -0.02552 -0.02471
 C1927 C -0.07316 -0.02059 -0.02037
 C1928 C -0.06055 -0.01660 -0.01679
 H1929 H -0.11098 -0.05828 -0.02514
 H1930 H -0.12216 -0.01388 -0.04269
 H1931 H -0.14672 -0.02310 -0.05126
 H1932 H -0.13500 -0.06818 -0.03436
 C1933 C -0.11930 0.44982 0.46896
 C1934 C -0.11535 0.46496 0.46619
 C1935 C -0.12532 0.47440 0.45809
 C1936 C -0.13914 0.46870 0.45261
 C1937 C -0.14332 0.45333 0.45512
 C1938 C -0.13309 0.44406 0.46354
 C1939 C -0.10086 0.47061 0.47130
 C1940 C -0.08856 0.47504 0.47544
 C1941 C -0.07399 0.47990 0.48010
 C1942 C -0.06141 0.48380 0.48389
 H1943 H -0.11158 0.44236 0.47509
 H1944 H -0.12241 0.48620 0.45597
 H1945 H -0.14665 0.47660 0.44684
 H1946 H -0.13520 0.43207 0.46536
 C1947 C 0.38147 -0.04964 0.46793
 C1948 C 0.38541 -0.03453 0.46499
 C1949 C 0.37544 -0.02519 0.45677
 C1950 C 0.36163 -0.03097 0.45135
 C1951 C 0.35745 -0.04630 0.45405
 C1952 C 0.36769 -0.05548 0.46257
 C1953 C 0.39989 -0.02880 0.47007
 C1954 C 0.41217 -0.02431 0.47420
 C1955 C 0.42673 -0.01939 0.47887
 C1956 C 0.43929 -0.01545 0.48267
 H1957 H 0.38920 -0.05703 0.47416
 H1958 H 0.37834 -0.01342 0.45452
 H1959 H 0.35411 -0.02314 0.44549
 H1960 H 0.36558 -0.06744 0.46454
 C1961 C 0.37505 0.47388 -0.04159
 C1962 C 0.38513 0.46431 -0.03379
 C1963 C 0.38123 0.44912 -0.03125
 C1964 C 0.36738 0.44342 -0.03663
 C1965 C 0.35706 0.45282 -0.04479
 C1966 C 0.36119 0.46824 -0.04702
 C1967 C 0.39969 0.46993 -0.02878
 C1968 C 0.41201 0.47441 -0.02475
 C1969 C 0.42659 0.47939 -0.02022
 C1970 C 0.43916 0.48340 -0.01651
 H1971 H 0.37791 0.48572 -0.04351
 H1972 H 0.38903 0.44156 -0.02534
 H1973 H 0.36529 0.43141 -0.03499
 H1974 H 0.35360 0.47624 -0.05254
 C1975 C 0.36827 0.44893 0.78247
 C1976 C 0.36613 0.46467 0.78146
 C1977 C 0.37779 0.47455 0.78599
 C1978 C 0.39146 0.46870 0.79167
 C1979 C 0.39364 0.45288 0.79290
 C1980 C 0.38191 0.44306 0.78814
 C1981 C 0.35176 0.47058 0.77631
 C1982 C 0.33949 0.47516 0.77227
 C1983 C 0.32487 0.48008 0.76785
 C1984 C 0.31218 0.48387 0.76436
 H1985 H 0.35929 0.44118 0.77909
 H1986 H 0.37625 0.48676 0.78527
 H1987 H 0.40034 0.47654 0.79510
 H1988 H 0.38314 0.43085 0.78917
 C1989 C 0.36662 -0.05168 0.28408
 C1990 C 0.36442 -0.03594 0.28313
 C1991 C 0.37606 -0.02602 0.28757
 C1992 C 0.38982 -0.03182 0.29310
 C1993 C 0.39208 -0.04763 0.29425
 C1994 C 0.38035 -0.05749 0.28960
 C1995 C 0.35002 -0.03007 0.27801
 C1996 C 0.33779 -0.02544 0.27392
 C1997 C 0.32328 -0.02036 0.26936
 C1998 C 0.31072 -0.01632 0.26564
 H1999 H 0.35765 -0.05946 0.28076
 H2000 H 0.37447 -0.01382 0.28687
 H2001 H 0.39870 -0.02394 0.29644
 H2002 H 0.38166 -0.06971 0.29057
 C2003 C 0.12310 0.52555 0.71205
 C2004 C 0.13473 0.53550 0.71650
 C2005 C 0.13247 0.55123 0.71554
 C2006 C 0.11871 0.55701 0.71007
 C2007 C 0.10698 0.54712 0.70546
 C2008 C 0.10931 0.53131 0.70656
 C2009 C 0.14912 0.52966 0.72169
 C2010 C 0.16134 0.52506 0.72586
 C2011 C 0.17585 0.52000 0.73051
 C2012 C 0.18839 0.51597 0.73427
 H2013 H 0.12473 0.51335 0.71275
 H2014 H 0.14142 0.55904 0.71887
 H2015 H 0.11736 0.56922 0.70914
 H2016 H 0.10044 0.52342 0.70326
 C2017 C 0.12134 0.02445 0.21366
 C2018 C 0.13285 0.03448 0.21821
 C2019 C 0.13047 0.05020 0.21732
 C2020 C 0.11670 0.05588 0.21176
 C2021 C 0.10511 0.04591 0.20698
 C2022 C 0.10754 0.03012 0.20808
 C2023 C 0.14734 0.02877 0.22326
 C2024 C 0.15968 0.02432 0.22724
 C2025 C 0.17436 0.01953 0.23159
 C2026 C 0.18708 0.01579 0.23503
 H2027 H 0.12307 0.01226 0.21428
 H2028 H 0.13934 0.05806 0.22072
 H2029 H 0.11528 0.06809 0.21083
 H2030 H 0.09877 0.02217 0.20464
 C2031 C 0.62755 0.72568 0.21300
 C2032 C 0.61618 0.71561 0.21781
 C2033 C 0.61871 0.69991 0.21718
 C2034 C 0.63248 0.69426 0.21165
 C2035 C 0.64394 0.70426 0.20664
 C2036 C 0.64136 0.72005 0.20745
 C2037 C 0.60169 0.72126 0.22288
 C2038 C 0.58935 0.72562 0.22689
 C2039 C 0.57466 0.73031 0.23129
 C2040 C 0.56193 0.73397 0.23476
 H2041 H 0.62570 0.73786 0.21343
 H2042 H 0.60994 0.69202 0.22077
 H2043 H 0.63402 0.68206 0.21093
 H2044 H 0.65002 0.72802 0.20383
 C2045 C 0.11625 0.71247 0.69969
 C2046 C 0.11388 0.71334 0.71565
 C2047 C 0.12527 0.70856 0.72585
 C2048 C 0.13897 0.70285 0.72008
 C2049 C 0.14142 0.70187 0.70403
 C2050 C 0.12990 0.70678 0.69390
 C2051 C 0.09961 0.71885 0.72147
 C2052 C 0.08748 0.72334 0.72599
 C2053 C 0.07308 0.72842 0.73089
 C2054 C 0.06061 0.73258 0.73475
 H2055 H 0.10747 0.71606 0.69169
 H2056 H 0.12356 0.70919 0.73824
 H2057 H 0.14767 0.69930 0.72816
 H2058 H 0.13134 0.70594 0.68150
 C2059 C 0.62398 0.22466 0.53943
 C2060 C 0.63533 0.21457 0.53464
 C2061 C 0.63277 0.19887 0.53532
 C2062 C 0.61896 0.19326 0.54081
 C2063 C 0.60748 0.20329 0.54571
 C2064 C 0.61013 0.21907 0.54494
 C2065 C 0.64976 0.22021 0.52934
 C2066 C 0.66200 0.22464 0.52506
 C2067 C 0.67652 0.22951 0.52026
 C2068 C 0.68906 0.23343 0.51640
 H2069 H 0.62585 0.23684 0.53895
 H2070 H 0.64151 0.19096 0.53174
 H2071 H 0.61736 0.18107 0.54150
 H2072 H 0.60147 0.22707 0.54848
 C2073 C 0.62345 0.71122 0.02284
 C2074 C 0.63478 0.71562 0.03329
 C2075 C 0.63211 0.71461 0.04921
 C2076 C 0.61824 0.70911 0.05468
 C2077 C 0.60681 0.70454 0.04428
 C2078 C 0.60955 0.70571 0.02829
 C2079 C 0.64929 0.72084 0.02778
 C2080 C 0.66159 0.72503 0.02343
 C2081 C 0.67617 0.72975 0.01867
 C2082 C 0.68876 0.73360 0.01490
 H2083 H 0.62539 0.71197 0.01050
 H2084 H 0.64083 0.71790 0.05740
 H2085 H 0.61658 0.70813 0.06704
 H2086 H 0.60092 0.70243 0.02001
 C2087 C 0.12157 0.04929 0.02763
 C2088 C 0.11781 0.03399 0.02966
 C2089 C 0.12793 0.02429 0.03723
 C2090 C 0.14168 0.02991 0.04298
 C2091 C 0.14561 0.04545 0.04132
 C2092 C 0.13528 0.05497 0.03333
 C2093 C 0.10325 0.02848 0.02460
 C2094 C 0.09084 0.02419 0.02064
 C2095 C 0.07610 0.01955 0.01635
 C2096 C 0.06332 0.01591 0.01299
 H2097 H 0.11371 0.05695 0.02192
 H2098 H 0.12517 0.01237 0.03878
 H2099 H 0.14930 0.02184 0.04834
 H2100 H 0.13721 0.06706 0.03213
 C2101 C 0.11860 0.55085 0.53194
 C2102 C 0.11648 0.53511 0.53096
 C2103 C 0.12811 0.52525 0.53555
 C2104 C 0.14176 0.53113 0.54130
 C2105 C 0.14392 0.54696 0.54253
 C2106 C 0.13221 0.55675 0.53768
 C2107 C 0.10211 0.52916 0.52581
 C2108 C 0.08985 0.52453 0.52179
 C2109 C 0.07523 0.51955 0.51742
 C2110 C 0.06253 0.51570 0.51399
 H2111 H 0.10963 0.55858 0.52851
 H2112 H 0.12659 0.51304 0.53485
 H2113 H 0.15062 0.52332 0.54479
 H2114 H 0.13342 0.56898 0.53870
 C2115 C 0.61856 0.03622 0.54897
 C2116 C 0.61644 0.03513 0.53298
 C2117 C 0.62801 0.03974 0.52293
 C2118 C 0.64163 0.04550 0.52888
 C2119 C 0.64383 0.04670 0.54496
 C2120 C 0.63214 0.04196 0.55493
 C2121 C 0.60218 0.02969 0.52701
 C2122 C 0.58999 0.02534 0.52246
 C2123 C 0.57546 0.02053 0.51763
 C2124 C 0.56282 0.01672 0.51393
 H2125 H 0.60964 0.03278 0.55685
 H2126 H 0.62647 0.03896 0.51052
 H2127 H 0.65047 0.04892 0.52092
 H2128 H 0.63337 0.04298 0.56735
 C2129 C 0.61929 0.55045 0.03194
 C2130 C 0.61704 0.53472 0.03085
 C2131 C 0.62862 0.52475 0.03534
 C2132 C 0.64235 0.53048 0.04104
 C2133 C 0.64465 0.54628 0.04232
 C2134 C 0.63299 0.55620 0.03763
 C2135 C 0.60263 0.52894 0.02564
 C2136 C 0.59034 0.52445 0.02155
 C2137 C 0.57570 0.51960 0.01709
 C2138 C 0.56300 0.51583 0.01360
 H2139 H 0.61037 0.55827 0.02860
 H2140 H 0.62698 0.51255 0.03456
 H2141 H 0.65117 0.52257 0.04442
 H2142 H 0.63431 0.56840 0.03870
 C2143 C 0.02555 0.04198 0.12706
 C2144 C 0.03520 0.03412 0.11705
 C2145 C 0.05033 0.03176 0.12122
 C2146 C 0.05587 0.03735 0.13526
 C2147 C 0.04638 0.04554 0.14552
 C2148 C 0.03104 0.04762 0.14112
 C2149 C 0.02978 0.02890 0.10225
 C2150 C 0.02553 0.02472 0.08969
 C2151 C 0.02088 0.02008 0.07479
 C2152 C 0.01717 0.01638 0.06190
 H2153 H 0.01377 0.04378 0.12398
 H2154 H 0.05795 0.02583 0.11347
 H2155 H 0.06784 0.03584 0.13752
 H2156 H 0.02298 0.05319 0.14866
 C2157 C 0.03580 0.55072 0.61956
 C2158 C 0.03494 0.53498 0.61733
 C2159 C 0.03964 0.52511 0.62909
 C2160 C 0.04530 0.53096 0.64300
 C2161 C 0.04633 0.54679 0.64530
 C2162 C 0.04145 0.55660 0.63344
 C2163 C 0.02963 0.52907 0.60277
 C2164 C 0.02537 0.52449 0.59036
 C2165 C 0.02061 0.51956 0.57558
 C2166 C 0.01678 0.51575 0.56277
 H2167 H 0.03228 0.55847 0.61050
 H2168 H 0.03903 0.51289 0.62748
 H2169 H 0.04882 0.52313 0.65198
 H2170 H 0.04231 0.56882 0.63475
 C2171 C 0.54298 0.02441 0.62747
 C2172 C 0.53480 0.03385 0.61749
 C2173 C 0.53213 0.04897 0.62160
 C2174 C 0.53774 0.05473 0.63554
 C2175 C 0.54626 0.04547 0.64576
 C2176 C 0.54864 0.03011 0.64144
 C2177 C 0.52959 0.02827 0.60276
 C2178 C 0.52540 0.02397 0.59022
 C2179 C 0.52073 0.01935 0.57532
 C2180 C 0.51699 0.01576 0.56242
 H2181 H 0.54503 0.01263 0.62444
 H2182 H 0.52595 0.05644 0.61387
 H2183 H 0.53599 0.06671 0.63773
 H2184 H 0.55449 0.02222 0.64896
 C2185 C 0.55076 0.53326 0.12057
 C2186 C 0.53514 0.53223 0.11784
 C2187 C 0.52490 0.53660 0.12938
 C2188 C 0.53027 0.54217 0.14352
 C2189 C 0.54596 0.54344 0.14629
 C2190 C 0.55615 0.53882 0.13469
 C2191 C 0.52970 0.52720 0.10299
 C2192 C 0.52541 0.52325 0.09038
 C2193 C 0.52070 0.51891 0.07541
 C2194 C 0.51696 0.51546 0.06246
 H2195 H 0.55879 0.52999 0.11169
 H2196 H 0.51278 0.53585 0.12738
 H2197 H 0.52215 0.54549 0.15229
 H2198 H 0.56828 0.53988 0.13637
 C2199 C 0.19756 0.53601 0.63066
 C2200 C 0.21321 0.53520 0.63329
 C2201 C 0.22331 0.54007 0.62183
 C2202 C 0.21778 0.54583 0.60783
 C2203 C 0.20205 0.54677 0.60512
 C2204 C 0.19200 0.54174 0.61669
 C2205 C 0.21882 0.52970 0.64789
 C2206 C 0.22328 0.52527 0.66028
 C2207 C 0.22826 0.52029 0.67495
 C2208 C 0.23231 0.51624 0.68762
 H2209 H 0.18963 0.53234 0.63948
 H2210 H 0.23545 0.53950 0.62374
 H2211 H 0.22579 0.54946 0.59909
 H2212 H 0.17985 0.54253 0.61505
 C2213 C 0.22454 0.04091 0.12127
 C2214 C 0.21496 0.03273 0.13108
 C2215 C 0.19990 0.03016 0.12675
 C2216 C 0.19435 0.03588 0.11278
 C2217 C 0.20376 0.04443 0.10274
 C2218 C 0.21905 0.04669 0.10727
 C2219 C 0.22035 0.02748 0.14586
 C2220 C 0.22459 0.02331 0.15842
 C2221 C 0.22924 0.01874 0.17334
 C2222 C 0.23295 0.01513 0.18624
 H2223 H 0.23627 0.04289 0.12446
 H2224 H 0.19233 0.02397 0.13436
 H2225 H 0.18242 0.03420 0.11041
 H2226 H 0.22705 0.05253 0.09989
 C2227 C 0.72474 0.21042 0.62865
 C2228 C 0.71461 0.21491 0.61704
 C2229 C 0.69897 0.21408 0.61964
 C2230 C 0.69345 0.20869 0.63375
 C2231 C 0.70353 0.20405 0.64547
 C2232 C 0.71925 0.20501 0.64279
 C2233 C 0.72016 0.22010 0.60232
 C2234 C 0.72454 0.22431 0.58983
 C2235 C 0.72938 0.22907 0.57507
 C2236 C 0.73331 0.23298 0.56233
 H2237 H 0.73688 0.21103 0.62674
 H2238 H 0.69102 0.21745 0.61070
 H2239 H 0.68130 0.20786 0.63537
 H2240 H 0.72727 0.20166 0.65165
 C2241 C 0.69813 0.71378 0.11877
 C2242 C 0.71378 0.71478 0.11627
 C2243 C 0.72389 0.71049 0.12798
 C2244 C 0.71836 0.70510 0.14212
 C2245 C 0.70264 0.70396 0.14471
 C2246 C 0.69258 0.70841 0.13289
 C2247 C 0.71940 0.71994 0.10155
 C2248 C 0.72387 0.72412 0.08908
 C2249 C 0.72884 0.72888 0.07435
 C2250 C 0.73287 0.73281 0.06165
 H2251 H 0.69021 0.71700 0.10976
 H2252 H 0.73603 0.71123 0.12616
 H2253 H 0.72637 0.70191 0.15105
 H2254 H 0.68043 0.70744 0.13444
 C2255 C 0.53856 0.72561 0.11975
 C2256 C 0.53380 0.71558 0.13135
 C2257 C 0.53462 0.69987 0.12890
 C2258 C 0.54033 0.69417 0.11499
 C2259 C 0.54530 0.70413 0.10331
 C2260 C 0.54428 0.71993 0.10581
 C2261 C 0.52851 0.72131 0.14598
 C2262 C 0.52431 0.72576 0.15844
 C2263 C 0.51966 0.73057 0.17327
 C2264 C 0.51593 0.73431 0.18613
 H2265 H 0.53798 0.73780 0.12153
 H2266 H 0.53105 0.69200 0.13784
 H2267 H 0.54118 0.68196 0.11352
 H2268 H 0.54788 0.72788 0.09698
 C2269 C 0.04186 0.72362 0.62302
 C2270 C 0.03695 0.71360 0.63456
 C2271 C 0.03770 0.69788 0.63208
 C2272 C 0.04339 0.69219 0.61816
 C2273 C 0.04843 0.70215 0.60650
 C2274 C 0.04757 0.71795 0.60908
 C2275 C 0.03142 0.71935 0.64909
 C2276 C 0.02692 0.72392 0.66141
 C2277 C 0.02182 0.72898 0.67600
 C2278 C 0.01766 0.73308 0.68861
 H2279 H 0.04133 0.73581 0.62482
 H2280 H 0.03401 0.69002 0.64096
 H2281 H 0.04412 0.67998 0.61663
 H2282 H 0.05121 0.72590 0.60026
 C2283 C 0.53346 0.63005 0.20044
 C2284 C 0.53225 0.63279 0.21633
 C2285 C 0.53663 0.62153 0.22688
 C2286 C 0.54233 0.60763 0.22155
 C2287 C 0.54371 0.60483 0.20559
 C2288 C 0.53914 0.61618 0.19510
 C2289 C 0.52699 0.64737 0.22171
 C2290 C 0.52283 0.65977 0.22589
 C2291 C 0.51829 0.67450 0.23042
 C2292 C 0.51471 0.68727 0.23398
 H2293 H 0.53020 0.63872 0.19218
 H2294 H 0.53575 0.62354 0.23921
 H2295 H 0.54561 0.59906 0.22990
 H2296 H 0.54029 0.61448 0.18275
 C2297 C 0.02553 0.62293 0.71285
 C2298 C 0.03544 0.63463 0.71720
 C2299 C 0.05113 0.63243 0.71614
 C2300 C 0.05691 0.61866 0.71063
 C2301 C 0.04705 0.60687 0.70609
 C2302 C 0.03129 0.60913 0.70733
 C2303 C 0.02960 0.64906 0.72233
 C2304 C 0.02499 0.66133 0.72643
 C2305 C 0.01993 0.67588 0.73100
 C2306 C 0.01591 0.68847 0.73470
 H2307 H 0.01336 0.62451 0.71363
 H2308 H 0.05891 0.64144 0.71939
 H2309 H 0.06908 0.61736 0.70959
 H2310 H 0.02342 0.60021 0.70408
 C2311 C 0.04255 0.12687 0.02173
 C2312 C 0.03429 0.11711 0.03130
 C2313 C 0.03152 0.12123 0.04662
 C2314 C 0.03708 0.13497 0.05245
 C2315 C 0.04564 0.14499 0.04306
 C2316 C 0.04817 0.14064 0.02750
 C2317 C 0.02909 0.10260 0.02568
 C2318 C 0.02489 0.09023 0.02143
 C2319 C 0.02020 0.07552 0.01694
 C2320 C 0.01645 0.06277 0.01349
 H2321 H 0.04470 0.12381 0.00979
 H2322 H 0.02528 0.11367 0.05420
 H2323 H 0.03523 0.13718 0.06460
 H2324 H 0.05409 0.14800 0.01949
 C2325 C 0.05150 0.61818 0.53357
 C2326 C 0.03578 0.61616 0.53261
 C2327 C 0.02605 0.62786 0.53731
 C2328 C 0.03203 0.64148 0.54310
 C2329 C 0.04783 0.64354 0.54426
 C2330 C 0.05750 0.63176 0.53934
 C2331 C 0.02974 0.60186 0.52733
 C2332 C 0.02504 0.58964 0.52316
 C2333 C 0.01996 0.57508 0.51861
 C2334 C 0.01601 0.56243 0.51503
 H2335 H 0.05914 0.60916 0.53005
 H2336 H 0.01385 0.62641 0.53664
 H2337 H 0.02430 0.65040 0.54664
 H2338 H 0.06970 0.63290 0.54031
 C2339 C 0.55053 0.11909 0.53339
 C2340 C 0.53482 0.11698 0.53238
 C2341 C 0.52500 0.12865 0.53697
 C2342 C 0.53088 0.14233 0.54270
 C2343 C 0.54666 0.14450 0.54391
 C2344 C 0.55642 0.13274 0.53911
 C2345 C 0.52890 0.10261 0.52712
 C2346 C 0.52435 0.09034 0.52296
 C2347 C 0.51949 0.07572 0.51837
 C2348 C 0.51575 0.06302 0.51473
 H2349 H 0.55823 0.11010 0.52997
 H2350 H 0.51282 0.12712 0.53625
 H2351 H 0.52309 0.15123 0.54616
 H2352 H 0.56861 0.13395 0.54012
 C2353 C 0.55111 0.61907 0.03208
 C2354 C 0.53543 0.61682 0.03086
 C2355 C 0.52547 0.62853 0.03498
 C2356 C 0.53116 0.64238 0.04050
 C2357 C 0.54691 0.64467 0.04197
 C2358 C 0.55682 0.63289 0.03759
 C2359 C 0.52965 0.60229 0.02591
 C2360 C 0.52510 0.58993 0.02203
 C2361 C 0.52015 0.57523 0.01777
 C2362 C 0.51628 0.56250 0.01438
 H2363 H 0.55893 0.61005 0.02901
 H2364 H 0.51331 0.62691 0.03409
 H2365 H 0.52325 0.65129 0.04362
 H2366 H 0.56898 0.63421 0.03880
 C2367 C 0.69958 0.13083 0.53161
 C2368 C 0.71473 0.13471 0.53430
 C2369 C 0.72414 0.12466 0.54233
 C2370 C 0.71840 0.11086 0.54787
 C2371 C 0.70302 0.10678 0.54551
 C2372 C 0.69378 0.11705 0.53709
 C2373 C 0.72044 0.14922 0.52923
 C2374 C 0.72499 0.16152 0.52517
 C2375 C 0.73004 0.17609 0.52061
 C2376 C 0.73408 0.18867 0.51688
 H2377 H 0.69214 0.13861 0.52552
 H2378 H 0.73594 0.12750 0.54437
 H2379 H 0.72628 0.10330 0.55358
 H2380 H 0.68180 0.11498 0.53534
 C2381 C 0.71366 0.63214 0.04906
 C2382 C 0.71477 0.63475 0.03315
 C2383 C 0.71060 0.62330 0.02271
 C2384 C 0.70523 0.60932 0.02818
 C2385 C 0.70398 0.60663 0.04418
 C2386 C 0.70831 0.61819 0.05455
 C2387 C 0.71991 0.64931 0.02763
 C2388 C 0.72408 0.66167 0.02334
 C2389 C 0.72884 0.67630 0.01869
 C2390 C 0.73278 0.68892 0.01501
 H2391 H 0.71678 0.64095 0.05724
 H2392 H 0.71143 0.62521 0.01036
 H2393 H 0.70213 0.60059 0.01993
 H2394 H 0.70725 0.61657 0.06692
 C2395 C 0.22234 0.62547 0.71115
 C2396 C 0.21242 0.61380 0.71551
 C2397 C 0.19673 0.61599 0.71438
 C2398 C 0.19097 0.62975 0.70882
 C2399 C 0.20083 0.64153 0.70428
 C2400 C 0.21659 0.63926 0.70557
 C2401 C 0.21828 0.59941 0.72077
 C2402 C 0.22295 0.58720 0.72499
 C2403 C 0.22815 0.57274 0.72971
 C2404 C 0.23235 0.56024 0.73354
 H2405 H 0.23451 0.62389 0.71198
 H2406 H 0.18895 0.60700 0.71765
 H2407 H 0.17879 0.63106 0.70775
 H2408 H 0.22446 0.64816 0.70232
 C2409 C 0.20068 0.12051 0.21993
 C2410 C 0.21578 0.11664 0.21705
 C2411 C 0.22504 0.12665 0.20879
 C2412 C 0.21920 0.14040 0.20325
 C2413 C 0.20386 0.14448 0.20583
 C2414 C 0.19477 0.13424 0.21445
 C2415 C 0.22150 0.10212 0.22207
 C2416 C 0.22592 0.08975 0.22608
 C2417 C 0.23066 0.07504 0.23052
 C2418 C 0.23432 0.06230 0.23407
 H2419 H 0.19335 0.11276 0.22618
 H2420 H 0.23680 0.12379 0.20658
 H2421 H 0.22696 0.14794 0.19735
 H2422 H 0.18283 0.13627 0.21636
 C2423 C 0.72504 1.12687 0.70959
 C2424 C 0.71560 1.11683 0.71758
 C2425 C 0.70049 1.12076 0.72029
 C2426 C 0.69474 1.13459 0.71489
 C2427 C 0.70401 1.14485 0.70652
 C2428 C 0.71936 1.14072 0.70413
 C2429 C 0.72123 1.10227 0.72257
 C2430 C 0.72570 1.08992 0.72658
 C2431 C 0.73062 1.07530 0.73109
 C2432 C 0.73455 1.06268 0.73480
 H2433 H 0.73682 1.12398 0.70753
 H2434 H 0.69303 1.11298 0.72635
 H2435 H 0.68278 1.13669 0.71666
 H2436 H 0.72726 1.14828 0.69844
 C2437 C 0.69992 0.61937 0.21692
 C2438 C 0.71560 0.61700 0.21752
 C2439 C 0.72550 0.62851 0.21266
 C2440 C 0.71972 0.64229 0.20710
 C2441 C 0.70395 0.64472 0.20634
 C2442 C 0.69412 0.63311 0.21138
 C2443 C 0.72140 0.60256 0.22269
 C2444 C 0.72583 0.59024 0.22680
 C2445 C 0.73055 0.57556 0.23133
 C2446 C 0.73418 0.56283 0.23493
 H2447 H 0.69215 0.61050 0.22056
 H2448 H 0.73767 0.62678 0.21306
 H2449 H 0.72756 0.65107 0.20344
 H2450 H 0.68193 0.63452 0.21070
 C2451 C 0.53546 0.13026 0.70221
 C2452 C 0.53488 0.13262 0.71820
 C2453 C 0.53991 0.12121 0.72828
 C2454 C 0.54559 0.10753 0.72237
 C2455 C 0.54630 0.10510 0.70629
 C2456 C 0.54112 0.11662 0.69629
 C2457 C 0.52952 0.14695 0.72412
 C2458 C 0.52523 0.15919 0.72863
 C2459 C 0.52048 0.17378 0.73341
 C2460 C 0.51671 0.18646 0.73707
 H2461 H 0.53169 0.13905 0.69431
 H2462 H 0.53953 0.12292 0.74068
 H2463 H 0.54936 0.09882 0.73035
 H2464 H 0.54175 0.11522 0.68387
 C2465 C 1.04951 0.13128 0.21590
 C2466 C 1.03382 0.13364 0.21657
 C2467 C 1.02390 0.12208 0.21186
 C2468 C 1.02965 0.10824 0.20641
 C2469 C 1.04542 0.10580 0.20562
 C2470 C 1.05527 0.11748 0.21047
 C2471 C 1.02805 0.14810 0.22170
 C2472 C 1.02360 0.16043 0.22581
 C2473 C 1.01883 0.17509 0.23037
 C2474 C 1.01513 0.18780 0.23399
 H2475 H 1.05730 0.14018 0.21943
 H2476 H 1.01173 0.12380 0.21231
 H2477 H 1.02178 0.09942 0.20290
 H2478 H 1.06746 0.11606 0.20977
 C2479 C 0.22454 0.62396 0.53920
 C2480 C 0.21467 0.63551 0.53441
 C2481 C 0.19897 0.63312 0.53487
 C2482 C 0.19315 0.61928 0.54016
 C2483 C 0.20297 0.60761 0.54509
 C2484 C 0.21874 0.61009 0.54451
 C2485 C 0.22053 0.64997 0.52935
 C2486 C 0.22516 0.66223 0.52525
 C2487 C 0.23025 0.67676 0.52061
 C2488 C 0.23431 0.68931 0.51681
 H2489 H 0.23671 0.62569 0.53889
 H2490 H 0.19122 0.64201 0.53127
 H2491 H 0.18096 0.61782 0.54069
 H2492 H 0.22658 0.60127 0.54807
 C2493 C 0.19961 0.13166 1.03439
 C2494 C 0.21527 0.13419 1.03371
 C2495 C 0.22532 0.12267 1.03818
 C2496 C 0.21973 0.10867 1.04338
 C2497 C 0.20399 0.10604 1.04415
 C2498 C 0.19400 0.11769 1.03956
 C2499 C 0.22091 0.14875 1.02870
 C2500 C 0.22531 0.16110 1.02462
 C2501 C 0.23011 0.17573 1.02000
 C2502 C 0.23393 0.18836 1.01622
 H2503 H 0.19173 0.14052 1.03104
 H2504 H 0.23747 0.12452 1.03770
 H2505 H 0.22769 0.09987 1.04668
 H2506 H 0.18183 0.11611 1.04026
 C2507 C 0.22365 0.70900 0.62813
 C2508 C 0.21392 0.71382 0.61629
 C2509 C 0.19820 0.71286 0.61829
 C2510 C 0.19220 0.70706 0.63202
 C2511 C 0.20186 0.70212 0.64398
 C2512 C 0.21767 0.70319 0.64190
 C2513 C 0.21997 0.71943 0.60193
 C2514 C 0.22470 0.72398 0.58970
 C2515 C 0.22987 0.72910 0.57517
 C2516 C 0.23398 0.73326 0.56258
 H2517 H 0.23584 0.70969 0.62670
 H2518 H 0.19057 0.71647 0.60917
 H2519 H 0.18000 0.70617 0.63317
 H2520 H 0.22538 0.69962 0.65096
 C2521 C 0.19740 0.21331 1.11854
 C2522 C 0.21303 0.21439 1.11594
 C2523 C 0.22322 0.21002 1.12754
 C2524 C 0.21780 0.20451 1.14167
 C2525 C 0.20210 0.20331 1.14436
 C2526 C 0.19196 0.20782 1.13264
 C2527 C 0.21854 0.21970 1.10123
 C2528 C 0.22294 0.22401 1.08879
 C2529 C 0.22788 0.22886 1.07407
 C2530 C 0.23192 0.23283 1.06139
 H2531 H 0.18941 0.21659 1.10960
 H2532 H 0.23535 0.21082 1.12565
 H2533 H 0.22588 0.20127 1.15053
 H2534 H 0.17982 0.20682 1.13426
 C2535 C 0.71346 0.54998 0.13015
 C2536 C 0.71454 0.53425 0.13237
 C2537 C 0.71026 0.52432 0.12047
 C2538 C 0.70486 0.53011 0.10643
 C2539 C 0.70368 0.54592 0.10413
 C2540 C 0.70807 0.55578 0.11616
 C2541 C 0.71970 0.52844 0.14702
 C2542 C 0.72387 0.52399 0.15950
 C2543 C 0.72855 0.51925 0.17435
 C2544 C 0.73234 0.51559 0.18722
 H2545 H 0.71665 0.55777 0.13932
 H2546 H 0.71104 0.51212 0.12207
 H2547 H 0.70169 0.52224 0.09734
 H2548 H 0.70706 0.56800 0.11485
 C2549 C 0.72411 1.04119 0.62331
 C2550 C 0.71407 1.03663 0.63496
 C2551 C 0.69840 1.03748 0.63245
 C2552 C 0.69277 1.04294 0.61840
 C2553 C 0.70275 1.04763 0.60664
 C2554 C 0.71849 1.04667 0.60923
 C2555 C 0.71974 1.03136 0.64962
 C2556 C 0.72422 1.02709 0.66205
 C2557 C 0.72919 1.02225 0.67677
 C2558 C 0.73321 1.01829 0.68947
 H2559 H 0.73626 1.04058 0.62514
 H2560 H 0.69053 1.03406 0.64142
 H2561 H 0.68061 1.04377 0.61685
 H2562 H 0.72645 1.05006 0.60034
 C2563 C 0.53648 0.19884 0.63164
 C2564 C 0.53583 0.21454 0.63425
 C2565 C 0.54069 0.22462 0.62273
 C2566 C 0.54628 0.21901 0.60871
 C2567 C 0.54707 0.20323 0.60603
 C2568 C 0.54206 0.19322 0.61765
 C2569 C 0.53052 0.22020 0.64890
 C2570 C 0.52626 0.22460 0.66137
 C2571 C 0.52150 0.22937 0.67618
 C2572 C 0.51766 0.23311 0.68900
 H2573 H 0.53284 0.19094 0.64051
 H2574 H 0.54024 0.23680 0.62463
 H2575 H 0.54991 0.22700 0.59993
 H2576 H 0.54274 0.18102 0.61605
 C2577 C 1.03848 0.22618 0.11997
 C2578 C 1.03350 0.21622 0.13153
 C2579 C 1.03410 0.20050 0.12908
 C2580 C 1.03976 0.19473 0.11519
 C2581 C 1.04491 0.20462 0.10352
 C2582 C 1.04416 0.22043 0.10604
 C2583 C 1.02822 0.22198 0.14614
 C2584 C 1.02402 0.22640 0.15862
 C2585 C 1.01938 0.23113 0.17347
 C2586 C 1.01571 0.23479 0.18636
 H2587 H 1.03808 0.23838 0.12176
 H2588 H 1.03037 0.19268 0.13799
 H2589 H 1.04042 0.18251 0.11372
 H2590 H 1.04791 0.22832 0.09722
 C2591 C 0.61948 0.21501 0.70314
 C2592 C 0.61731 0.21598 0.71913
 C2593 C 0.62892 0.21150 0.72921
 C2594 C 0.64263 0.20596 0.72330
 C2595 C 0.64486 0.20484 0.70722
 C2596 C 0.63314 0.20948 0.69722
 C2597 C 0.60295 0.22113 0.72505
 C2598 C 0.59068 0.22523 0.72954
 C2599 C 0.57604 0.22976 0.73426
 C2600 C 0.56333 0.23335 0.73784
 H2601 H 0.61052 0.21834 0.69524
 H2602 H 0.62735 0.21220 0.74161
 H2603 H 0.65150 0.20261 0.73128
 H2604 H 0.63439 0.20852 0.68480
 C2605 C 1.11879 0.19959 0.21747
 C2606 C 1.11637 0.21532 0.21803
 C2607 C 1.12782 0.22528 0.21318
 C2608 C 1.14156 0.21952 0.20761
 C2609 C 1.14402 0.20371 0.20681
 C2610 C 1.13250 0.19382 0.21191
 C2611 C 1.10192 0.22112 0.22305
 C2612 C 1.08961 0.22564 0.22699
 C2613 C 1.07497 0.23052 0.23132
 C2614 C 1.06227 0.23431 0.23477
 H2615 H 1.10997 0.19178 0.22111
 H2616 H 1.12606 0.23747 0.21355
 H2617 H 1.15027 0.22742 0.20392
 H2618 H 1.13394 0.18160 0.21122
 C2619 C 0.12497 0.72387 0.53964
 C2620 C 0.13636 0.71386 0.53475
 C2621 C 0.13389 0.69815 0.53540
 C2622 C 0.12015 0.69243 0.54097
 C2623 C 0.10865 0.70238 0.54598
 C2624 C 0.11120 0.71817 0.54523
 C2625 C 0.15072 0.71961 0.52939
 C2626 C 0.16290 0.72416 0.52506
 C2627 C 0.17736 0.72918 0.52022
 C2628 C 0.18985 0.73323 0.51632
 H2629 H 0.12677 0.73606 0.53919
 H2630 H 0.14266 0.69029 0.53174
 H2631 H 0.11863 0.68022 0.54164
 H2632 H 0.10251 0.72611 0.54885
 C2633 C 0.13176 0.21342 1.04929
 C2634 C 0.13440 0.21435 1.03336
 C2635 C 0.12303 0.20994 1.02296
 C2636 C 0.10911 0.20454 1.02846
 C2637 C 0.10638 0.20351 1.04446
 C2638 C 0.11786 0.20804 1.05481
 C2639 C 0.14889 0.21958 1.02780
 C2640 C 0.16117 0.22385 1.02345
 C2641 C 0.17571 0.22869 1.01870
 C2642 C 0.18827 0.23267 1.01494
 H2643 H 0.14050 0.21673 1.05745
 H2644 H 0.12495 0.21062 1.01060
 H2645 H 0.10044 0.20128 1.02021
 H2646 H 0.11620 0.20716 1.06718
 C2647 C 0.62978 0.55057 0.21870
 C2648 C 0.63233 0.53490 0.21982
 C2649 C 0.62088 0.52468 0.21552
 C2650 C 0.60701 0.53012 0.20991
 C2651 C 0.60443 0.54587 0.20851
 C2652 C 0.61593 0.55603 0.21310
 C2653 C 0.64691 0.52937 0.22482
 C2654 C 0.65931 0.52500 0.22871
 C2655 C 0.67403 0.52023 0.23293
 C2656 C 0.68678 0.51647 0.23627
 H2657 H 0.63859 0.55858 0.22191
 H2658 H 0.62274 0.51252 0.21634
 H2659 H 0.59832 0.52203 0.20663
 H2660 H 0.61438 0.56820 0.21195
 C2661 C 0.63275 1.03662 0.70034
 C2662 C 0.63530 1.03572 0.71629
 C2663 C 0.62384 1.04003 0.72659
 C2664 C 0.60991 1.04533 0.72095
 C2665 C 0.60728 1.04637 0.70493
 C2666 C 0.61885 1.04190 0.69469
 C2667 C 0.64980 1.03065 0.72200
 C2668 C 0.66208 1.02654 0.72650
 C2669 C 0.67663 1.02187 0.73145
 C2670 C 0.68919 1.01802 0.73537
 H2671 H 0.64157 1.03338 0.69226
 H2672 H 0.62568 1.03937 0.73896
 H2673 H 0.60117 1.04853 0.72912
 H2674 H 0.61727 1.04279 0.68230
 C2675 C 0.86614 0.44849 0.28534
 C2676 C 0.86394 0.46423 0.28448
 C2677 C 0.87556 0.47412 0.28909
 C2678 C 0.88930 0.46828 0.29463
 C2679 C 0.89158 0.45246 0.29562
 C2680 C 0.87985 0.44263 0.29086
 C2681 C 0.84960 0.47014 0.27922
 C2682 C 0.83742 0.47480 0.27499
 C2683 C 0.82296 0.47991 0.27026
 C2684 C 0.81045 0.48399 0.26644
 H2685 H 0.85720 0.44073 0.28188
 H2686 H 0.87397 0.48633 0.28848
 H2687 H 0.89816 0.47612 0.29806
 H2688 H 0.88116 0.43041 0.29170
 C2689 C 0.86931 0.95103 0.78312
 C2690 C 0.86700 0.96678 0.78275
 C2691 C 0.87862 0.97661 0.78748
 C2692 C 0.89245 0.97070 0.79271
 C2693 C 0.89481 0.95487 0.79327
 C2694 C 0.88310 0.94511 0.78833
 C2695 C 0.85252 0.97272 0.77796
 C2696 C 0.84018 0.97731 0.77415
 C2697 C 0.82551 0.98222 0.76992
 C2698 C 0.81278 0.98598 0.76651
 H2699 H 0.86036 0.94332 0.77957
 H2700 H 0.87695 0.98882 0.78724
 H2701 H 0.90130 0.97850 0.79628
 H2702 H 0.88447 0.93287 0.78885
 C2703 C 0.37383 0.27399 0.78928
 C2704 C 0.38543 0.28395 0.78483
 C2705 C 0.38303 0.29968 0.78540
 C2706 C 0.36913 0.30545 0.79047
 C2707 C 0.35741 0.29555 0.79506
 C2708 C 0.35990 0.27975 0.79437
 C2709 C 0.39994 0.27813 0.77997
 C2710 C 0.41224 0.27357 0.77603
 C2711 C 0.42682 0.26857 0.77158
 C2712 C 0.43941 0.26461 0.76793
 H2713 H 0.37557 0.26180 0.78887
 H2714 H 0.39196 0.30749 0.78206
 H2715 H 0.36766 0.31766 0.79110
 H2716 H 0.35105 0.27185 0.79767
 C2717 C 0.87405 0.27661 0.28934
 C2718 C 0.88564 0.28662 0.28494
 C2719 C 0.88334 0.30234 0.28598
 C2720 C 0.86956 0.30805 0.29143
 C2721 C 0.85785 0.29811 0.29594
 C2722 C 0.86024 0.28231 0.29481
 C2723 C 0.90000 0.28084 0.27964
 C2724 C 0.91218 0.27627 0.27532
 C2725 C 0.92661 0.27123 0.27043
 C2726 C 0.93907 0.26717 0.26644
 H2727 H 0.87571 0.26442 0.28858
 H2728 H 0.89226 0.31018 0.28268
 H2729 H 0.86816 0.32026 0.29239
 H2730 H 0.85139 0.27438 0.29805
 C2731 C 0.36911 0.80166 0.46710
 C2732 C 0.36690 0.78592 0.46814
 C2733 C 0.37847 0.77599 0.46354
 C2734 C 0.39211 0.78178 0.45775
 C2735 C 0.39435 0.79759 0.45646
 C2736 C 0.38273 0.80747 0.46132
 C2737 C 0.35254 0.78005 0.47335
 C2738 C 0.34031 0.77543 0.47744
 C2739 C 0.32574 0.77042 0.48191
 C2740 C 0.31310 0.76651 0.48545
 H2741 H 0.36020 0.80945 0.47053
 H2742 H 0.37688 0.76379 0.46429
 H2743 H 0.40091 0.77390 0.45426
 H2744 H 0.38401 0.81968 0.46026
 C2745 C 0.37775 0.27456 0.96439
 C2746 C 0.36612 0.28446 0.96888
 C2747 C 0.36834 0.30020 0.96802
 C2748 C 0.38205 0.30605 0.96252
 C2749 C 0.39375 0.29621 0.95779
 C2750 C 0.39149 0.28039 0.95888
 C2751 C 0.35167 0.27858 0.97381
 C2752 C 0.33935 0.27403 0.97767
 C2753 C 0.32467 0.26915 0.98188
 C2754 C 0.31194 0.26538 0.98521
 H2755 H 0.37613 0.26235 0.96500
 H2756 H 0.35938 0.30797 0.97137
 H2757 H 0.38334 0.31827 0.96159
 H2758 H 0.40034 0.27254 0.95547
 C2759 C 0.79037 0.47406 0.37798
 C2760 C 0.78570 0.46398 0.36637
 C2761 C 0.78656 0.44827 0.36888
 C2762 C 0.79214 0.44265 0.38289
 C2763 C 0.79696 0.45268 0.39460
 C2764 C 0.79597 0.46846 0.39201
 C2765 C 0.78033 0.46966 0.35175
 C2766 C 0.77596 0.47419 0.33936
 C2767 C 0.77101 0.47921 0.32470
 C2768 C 0.76693 0.48326 0.31205
 H2769 H 0.78974 0.48624 0.37616
 H2770 H 0.78305 0.44037 0.35995
 H2771 H 0.79298 0.43045 0.38444
 H2772 H 0.79944 0.47645 0.40087
 C2773 C 0.78911 0.97645 0.88087
 C2774 C 0.78407 0.96651 0.86930
 C2775 C 0.78468 0.95079 0.87171
 C2776 C 0.79039 0.94499 0.88558
 C2777 C 0.79559 0.95486 0.89726
 C2778 C 0.79484 0.97067 0.89478
 C2779 C 0.77872 0.97230 0.85472
 C2780 C 0.77446 0.97675 0.84227
 C2781 C 0.76976 0.98151 0.82743
 C2782 C 0.76605 0.98524 0.81456
 H2783 H 0.78871 0.98865 0.87910
 H2784 H 0.78090 0.94299 0.86279
 H2785 H 0.79105 0.93277 0.88702
 H2786 H 0.79863 0.97854 0.90361
 C2787 C 0.27573 0.79022 0.37145
 C2788 C 0.28558 0.78561 0.38327
 C2789 C 0.30128 0.78657 0.38110
 C2790 C 0.30714 0.79221 0.36724
 C2791 C 0.29736 0.79699 0.35531
 C2792 C 0.28158 0.79588 0.35755
 C2793 C 0.27968 0.78029 0.39782
 C2794 C 0.27510 0.77601 0.41021
 C2795 C 0.27019 0.77125 0.42497
 C2796 C 0.26640 0.76742 0.43778
 H2797 H 0.26355 0.78953 0.37301
 H2798 H 0.30901 0.78312 0.39021
 H2799 H 0.31933 0.79314 0.36597
 H2800 H 0.27377 0.79931 0.34853
 C2801 C 0.28470 0.30039 0.87936
 C2802 C 0.28395 0.28469 0.88194
 C2803 C 0.28894 0.27460 0.87049
 C2804 C 0.29477 0.28021 0.85656
 C2805 C 0.29569 0.29598 0.85392
 C2806 C 0.29051 0.30601 0.86546
 C2807 C 0.27852 0.27904 0.89654
 C2808 C 0.27419 0.27462 0.90898
 C2809 C 0.26942 0.26981 0.92377
 C2810 C 0.26562 0.26602 0.93659
 H2811 H 0.28096 0.30830 0.88818
 H2812 H 0.28842 0.26243 0.87237
 H2813 H 0.29851 0.27221 0.84784
 H2814 H 0.29128 0.31821 0.86389
 C2815 C 0.47384 0.28972 0.87944
 C2816 C 0.46381 0.28503 0.86781
 C2817 C 0.44814 0.28587 0.87026
 C2818 C 0.44250 0.29147 0.88424
 C2819 C 0.45247 0.29632 0.89597
 C2820 C 0.46821 0.29534 0.89344
 C2821 C 0.46952 0.27965 0.85322
 C2822 C 0.47406 0.27528 0.84085
 C2823 C 0.47911 0.27035 0.82621
 C2824 C 0.48321 0.26631 0.81357
 H2825 H 0.48599 0.28911 0.87766
 H2826 H 0.44028 0.28234 0.86131
 H2827 H 0.43033 0.29230 0.88574
 H2828 H 0.47616 0.29883 0.90232
 C2829 C 0.97455 0.29119 0.37762
 C2830 C 0.96463 0.28637 0.36594
 C2831 C 0.94894 0.28710 0.36830
 C2832 C 0.94317 0.29266 0.38223
 C2833 C 0.95303 0.29756 0.39405
 C2834 C 0.96880 0.29676 0.39159
 C2835 C 0.97041 0.28093 0.35140
 C2836 C 0.97491 0.27649 0.33904
 C2837 C 0.97980 0.27148 0.32437
 C2838 C 0.98370 0.26740 0.31168
 H2839 H 0.98672 0.29067 0.37591
 H2840 H 0.94116 0.28349 0.35931
 H2841 H 0.93099 0.29336 0.38366
 H2842 H 0.97666 0.30032 0.40052
 C2843 C 0.44847 0.36669 0.78487
 C2844 C 0.46415 0.36426 0.78432
 C2845 C 0.47410 0.37582 0.78895
 C2846 C 0.46839 0.38973 0.79423
 C2847 C 0.45263 0.39224 0.79493
 C2848 C 0.44274 0.38058 0.79013
 C2849 C 0.46994 0.34974 0.77937
 C2850 C 0.47452 0.33743 0.77539
 C2851 C 0.47958 0.32285 0.77093
 C2852 C 0.48365 0.31025 0.76731
 H2853 H 0.44067 0.35779 0.78139
 H2854 H 0.48626 0.37405 0.78858
 H2855 H 0.47628 0.39855 0.79769
 H2856 H 0.43056 0.38207 0.79075
 C2857 C 0.97310 0.37684 0.28775
 C2858 C 0.96324 0.36516 0.28324
 C2859 C 0.94754 0.36728 0.28427
 C2860 C 0.94170 0.38097 0.28991
 C2861 C 0.95150 0.39274 0.29463
 C2862 C 0.96728 0.39056 0.29341
 C2863 C 0.96915 0.35080 0.27798
 C2864 C 0.97381 0.33860 0.27376
 C2865 C 0.97894 0.32411 0.26906
 C2866 C 0.98301 0.31158 0.26524
 H2867 H 0.98528 0.37531 0.28700
 H2868 H 0.93981 0.35828 0.28089
 H2869 H 0.92951 0.38222 0.29093
 H2870 H 0.97510 0.39946 0.29680
 C2871 C 0.30148 0.86937 0.46765
 C2872 C 0.28579 0.86721 0.46864
 C2873 C 0.27592 0.87875 0.46381
 C2874 C 0.28174 0.89237 0.45787
 C2875 C 0.29752 0.89458 0.45668
 C2876 C 0.30732 0.88295 0.46173
 C2877 C 0.27991 0.85288 0.47403
 C2878 C 0.27536 0.84064 0.47827
 C2879 C 0.27046 0.82603 0.48285
 C2880 C 0.26665 0.81334 0.48642
 H2881 H 0.30922 0.86047 0.47125
 H2882 H 0.26374 0.87718 0.46450
 H2883 H 0.27392 0.90117 0.45423
 H2884 H 0.31951 0.88419 0.46074
 C2885 C 0.30069 0.36820 0.96634
 C2886 C 0.28497 0.36615 0.96730
 C2887 C 0.27521 0.37791 0.96279
 C2888 C 0.28115 0.39161 0.95720
 C2889 C 0.29695 0.39372 0.95604
 C2890 C 0.30665 0.38187 0.96076
 C2891 C 0.27896 0.35179 0.97245
 C2892 C 0.27428 0.33954 0.97655
 C2893 C 0.26925 0.32495 0.98106
 C2894 C 0.26536 0.31228 0.98466
 H2895 H 0.30835 0.35914 0.96970
 H2896 H 0.26302 0.37645 0.96348
 H2897 H 0.27340 0.40058 0.95381
 H2898 H 0.31884 0.38303 0.95979
 C2899 C 0.77590 0.37334 0.28760
 C2900 C 0.78574 0.38516 0.28349
 C2901 C 0.80144 0.38310 0.28472
 C2902 C 0.80729 0.36934 0.29020
 C2903 C 0.79750 0.35744 0.29453
 C2904 C 0.78173 0.35955 0.29309
 C2905 C 0.77981 0.39959 0.27844
 C2906 C 0.77511 0.41184 0.27441
 C2907 C 0.76995 0.42637 0.26989
 C2908 C 0.76586 0.43894 0.26621
 H2909 H 0.76372 0.37481 0.28668
 H2910 H 0.80916 0.39221 0.28165
 H2911 H 0.81947 0.36815 0.29140
 H2912 H 0.77392 0.35054 0.29618
   
