data_POSCAR
  _audit_creation_date              2014-09-24
  _audit_creation_method            'ToBaCCo'
  _symmetry_space_group_name_H-M    'P1'
  _symmetry_Int_Tables_number       1
  _symmetry_cell_setting            triclinic
  loop_
  _symmetry_equiv_pos_as_xyz
 x,y,z
_cell_length_a 49.4926
_cell_length_b 48.7869
_cell_length_c 47.8806
_cell_angle_alpha 90.306100
_cell_angle_beta 89.642500
_cell_angle_gamma 89.560200
loop_
  _atom_site_label
  _atom_site_type_symbol
  _atom_site_fract_x
  _atom_site_fract_y
  _atom_site_fract_z
N1 N 0.38705 1.37009 0.32011
 N2 N 0.37160 1.39216 0.32179
 C3 C 0.38225 1.41198 0.30565
 C4 C 0.40517 1.40110 0.29320
 C5 C 0.40788 1.37476 0.30269
 H6 H 0.37435 1.43262 0.30375
 H7 H 0.42427 1.36051 0.29836
 Cu8 Cu 0.33939 1.39226 0.34539
 Cu9 Cu 0.38050 1.33774 0.34254
 Cu10 Cu 0.34342 1.35245 0.40214
 N11 N 0.30972 1.39030 0.37218
 N12 N 0.31213 1.37587 0.39521
 C13 C 0.28821 1.37543 0.40863
 C14 C 0.26990 1.39001 0.39301
 C15 C 0.28391 1.39896 0.36980
 H16 H 0.28367 1.36248 0.42630
 H17 H 0.27550 1.40847 0.35141
 N18 N 0.36743 1.32031 0.39882
 N19 N 0.38061 1.31420 0.37550
 C20 C 0.39311 1.28986 0.37836
 C21 C 0.38719 1.28029 0.40470
 C22 C 0.37089 1.29981 0.41724
 H23 H 0.40481 1.27957 0.36222
 H24 H 0.36127 1.29865 0.43754
 H25 H 0.34230 1.34479 0.36062
 H26 H 0.37175 1.36549 0.37237
 N27 N 0.41221 0.87919 0.82170
 N28 N 0.39302 0.89792 0.82007
 C29 C 0.39702 0.91288 0.79692
 C30 C 0.41991 0.90287 0.78364
 C31 C 0.42924 0.88176 0.79990
 H32 H 0.38263 0.92736 0.78846
 H33 H 0.44482 0.86707 0.79420
 Cu34 Cu 0.36075 0.89579 0.84321
 Cu35 Cu 0.40891 0.84790 0.84612
 Cu36 Cu 0.35727 0.85013 0.89544
 N37 N 0.32886 0.89311 0.86669
 N38 N 0.32731 0.87493 0.88687
 C39 C 0.30265 0.87657 0.89887
 C40 C 0.28828 0.89676 0.88515
 C41 C 0.30524 0.90686 0.86496
 H42 H 0.29566 0.86378 0.91578
 H43 H 0.30049 0.92249 0.84980
 N44 N 0.38591 0.82161 0.89494
 N45 N 0.40578 0.82127 0.87634
 C46 C 0.42113 0.79877 0.88006
 C47 C 0.41023 0.78426 0.90170
 C48 C 0.38789 0.79896 0.91087
 H49 H 0.43803 0.79253 0.86705
 H50 H 0.37354 0.79304 0.92682
 H51 H 0.36714 0.84763 0.85437
 H52 H 0.38901 0.87041 0.87580
 N53 N 0.87973 1.36526 0.79626
 N54 N 0.85821 1.38110 0.79915
 C55 C 0.86283 1.40540 0.78695
 C56 C 0.88847 1.40426 0.77590
 C57 C 0.89891 1.37879 0.78190
 H58 H 0.84886 1.42256 0.78669
 H59 H 0.91884 1.37088 0.77685
 Cu60 Cu 0.82659 1.36912 0.81956
 Cu61 Cu 0.88113 1.32871 0.81213
 Cu62 Cu 0.83478 1.31858 0.86593
 N63 N 0.80078 1.36361 0.84941
 N64 N 0.80423 1.34418 0.86805
 C65 C 0.78400 1.34565 0.88703
 C66 C 0.76735 1.36719 0.87966
 C67 C 0.77840 1.37823 0.85577
 H68 H 0.78171 1.33228 0.90481
 H69 H 0.77106 1.39572 0.84420
 N70 N 0.86690 1.29490 0.85963
 N71 N 0.88408 1.29833 0.83869
 C72 C 0.90332 1.27864 0.83954
 C73 C 0.89781 1.26224 0.86208
 C74 C 0.87469 1.27287 0.87442
 H75 H 0.92001 1.27651 0.82499
 H76 H 0.86427 1.26496 0.89255
 H77 H 0.84103 1.32096 0.82382
 H78 H 0.86098 1.34496 0.84578
 N79 N 0.89777 0.88088 0.31409
 N80 N 0.87824 0.89892 0.31011
 C81 C 0.88669 0.91763 0.29135
 C82 C 0.91267 0.91040 0.28368
 C83 C 0.91925 0.88724 0.29817
 H84 H 0.87496 0.93490 0.28397
 H85 H 0.93802 0.87577 0.29705
 Cu86 Cu 0.84381 0.89629 0.33005
 Cu87 Cu 0.89414 0.84979 0.33850
 Cu88 Cu 0.83299 0.84243 0.37245
 N89 N 0.81274 0.89486 0.35539
 N90 N 0.80919 0.87391 0.37219
 C91 C 0.78611 0.87732 0.38674
 C92 C 0.77465 0.90172 0.37855
 C93 C 0.79177 0.91248 0.35863
 H94 H 0.77792 0.86276 0.40142
 H95 H 0.78889 0.93122 0.34702
 N96 N 0.86313 0.81671 0.37683
 N97 N 0.88656 0.81951 0.36387
 C98 C 0.90275 0.79821 0.37032
 C99 C 0.88864 0.78170 0.38836
 C100 C 0.86376 0.79375 0.39225
 H101 H 0.92293 0.79472 0.36222
 H102 H 0.84725 0.78610 0.40479
 H103 H 0.85330 0.84706 0.33429
 H104 H 0.86533 0.86755 0.36487
 N105 N 0.60267 0.62238 0.33084
 N106 N 0.62135 0.60313 0.32861
 C107 C 0.61950 0.59096 0.30341
 C108 C 0.59837 0.60331 0.28950
 C109 C 0.58798 0.62302 0.30728
 H110 H 0.63291 0.57502 0.29562
 H111 H 0.57173 0.63735 0.30310
 Cu112 Cu 0.64728 0.59690 0.35811
 Cu113 Cu 0.59993 0.64610 0.36348
 Cu114 Cu 0.65755 0.64752 0.40441
 N115 N 0.67968 0.59799 0.38052
 N116 N 0.68354 0.61800 0.39856
 C117 C 0.70851 0.61578 0.40919
 C118 C 0.72076 0.59320 0.39701
 C119 C 0.70213 0.58223 0.37895
 H120 H 0.71757 0.63029 0.42341
 H121 H 0.70518 0.56525 0.36463
 N122 N 0.62875 0.67537 0.40712
 N123 N 0.60692 0.67490 0.39137
 C124 C 0.59280 0.69830 0.39538
 C125 C 0.60650 0.71385 0.41473
 C126 C 0.62901 0.69893 0.42189
 H127 H 0.57500 0.70426 0.38384
 H128 H 0.64524 0.70563 0.43524
 H129 H 0.64115 0.64580 0.36474
 H130 H 0.62398 0.62618 0.39292
 N131 N 0.61420 0.13016 0.81144
 N132 N 0.63216 0.11027 0.80871
 C133 C 0.63118 0.10008 0.78253
 C134 C 0.61112 0.11404 0.76859
 C135 C 0.60091 0.13317 0.78719
 H136 H 0.64528 0.08524 0.77380
 H137 H 0.58664 0.14948 0.78280
 Cu138 Cu 0.65740 0.10204 0.83842
 Cu139 Cu 0.61199 0.15306 0.84493
 Cu140 Cu 0.66903 0.15062 0.88663
 N141 N 0.68925 0.10060 0.86170
 N142 N 0.69372 0.11988 0.88042
 C143 C 0.71767 0.11514 0.89263
 C144 C 0.72864 0.09173 0.88073
 C145 C 0.71032 0.08290 0.86117
 H146 H 0.72675 0.12811 0.90831
 H147 H 0.71247 0.06559 0.84711
 N148 N 0.64147 0.17988 0.88978
 N149 N 0.61953 0.18056 0.87417
 C150 C 0.60526 0.20348 0.88028
 C151 C 0.61901 0.21760 0.90074
 C152 C 0.64175 0.20229 0.90638
 H153 H 0.58689 0.20984 0.86996
 H154 H 0.65762 0.20753 0.92083
 H155 H 0.65317 0.15096 0.84669
 H156 H 0.63487 0.13115 0.87394
 N157 N 1.11268 0.65553 0.82068
 N158 N 1.12904 0.63433 0.81734
 C159 C 1.12147 0.62002 0.79463
 C160 C 1.09914 0.63299 0.78342
 C161 C 1.09388 0.65532 0.80038
 H162 H 1.13220 0.60245 0.78609
 H163 H 1.07876 0.67112 0.79724
 Cu164 Cu 1.16044 0.62888 0.84116
 Cu165 Cu 1.11966 0.68353 0.84892
 Cu166 Cu 1.18572 0.68445 0.87218
 N167 N 1.19160 0.62604 0.86573
 N168 N 1.20120 0.64799 0.87822
 C169 C 1.22349 0.64104 0.89261
 C170 C 1.22797 0.61328 0.88876
 C171 C 1.20756 0.60428 0.87159
 H172 H 1.23596 0.65525 0.90410
 H173 H 1.20494 0.58375 0.86347
 N174 N 1.16194 0.71711 0.87272
 N175 N 1.13612 0.71625 0.86605
 C176 C 1.12648 0.74209 0.86435
 C177 C 1.14735 0.76005 0.86955
 C178 C 1.16947 0.74348 0.87473
 H179 H 1.10738 0.74744 0.85487
 H180 H 1.19021 0.75017 0.87598
 H181 H 1.15935 0.67860 0.83885
 H182 H 1.14975 0.66599 0.87425
 N183 N 1.11579 0.15453 0.30595
 N184 N 1.13301 0.13395 0.30817
 C185 C 1.13063 0.11731 0.28572
 C186 C 1.11070 0.12823 0.26892
 C187 C 1.10164 0.15167 0.28221
 H188 H 1.14252 0.09896 0.28187
 H189 H 1.08628 0.16580 0.27499
 Cu190 Cu 1.15702 0.13150 0.34015
 Cu191 Cu 1.11352 0.18405 0.33354
 Cu192 Cu 1.16334 0.18441 0.38446
 N193 N 1.18772 0.13390 0.36526
 N194 N 1.18985 0.15469 0.38275
 C195 C 1.21269 0.15188 0.39760
 C196 C 1.22549 0.12823 0.38872
 C197 C 1.20935 0.11714 0.36817
 H198 H 1.21965 0.16619 0.41326
 H199 H 1.21310 0.09865 0.35615
 N200 N 1.13906 0.21597 0.37759
 N201 N 1.12002 0.21579 0.35843
 C202 C 1.11131 0.24171 0.35451
 C203 C 1.12538 0.25915 0.37195
 C204 C 1.14288 0.24201 0.38610
 H205 H 1.09906 0.24805 0.33703
 H206 H 1.16007 0.24860 0.39818
 H207 H 1.15419 0.18100 0.34248
 H208 H 1.13025 0.16531 0.36772
 N209 N 0.62235 1.36542 0.68863
 N210 N 0.64201 1.38346 0.68868
 C211 C 0.63910 1.40026 0.71087
 C212 C 0.61659 1.39218 0.72542
 C213 C 0.60625 1.37001 0.71105
 H214 H 0.65262 1.41672 0.71634
 H215 H 0.58885 1.35790 0.71669
 Cu216 Cu 0.67047 1.38316 0.66076
 Cu217 Cu 0.62011 1.33672 0.66010
 Cu218 Cu 0.66975 1.33740 0.60866
 N219 N 0.69205 1.38809 0.62724
 N220 N 0.69117 1.37027 0.60656
 C221 C 0.70995 1.37661 0.58732
 C222 C 0.72321 1.39950 0.59659
 C223 C 0.71159 1.40644 0.62197
 H224 H 0.71511 1.36421 0.56925
 H225 H 0.71812 1.42222 0.63630
 N226 N 0.64117 1.31001 0.60985
 N227 N 0.62204 1.30955 0.62924
 C228 C 0.60620 1.28761 0.62463
 C229 C 0.61611 1.27413 0.60121
 C230 C 0.63808 1.28865 0.59233
 H231 H 0.58935 1.28153 0.63762
 H232 H 0.65114 1.28366 0.57483
 H233 H 0.66026 1.33486 0.65127
 H234 H 0.63995 1.35908 0.62970
 N235 N 0.61050 0.86119 1.16990
 N236 N 0.63281 0.87448 1.17646
 C237 C 0.62980 0.88473 1.20261
 C238 C 0.60454 0.87709 1.21246
 C239 C 0.59288 0.86233 1.19139
 H240 H 0.64475 0.89658 1.21364
 H241 H 0.57320 0.85287 1.19174
 Cu242 Cu 0.66431 0.87722 1.15016
 Cu243 Cu 0.60569 0.84137 1.13480
 Cu244 Cu 0.65574 0.84529 1.08843
 N245 N 0.69236 0.87724 1.12049
 N246 N 0.68833 0.86516 1.09620
 C247 C 0.71055 0.86723 1.08008
 C248 C 0.72953 0.88141 1.09494
 C249 C 0.71760 0.88770 1.12054
 H250 H 0.71294 0.85843 1.05942
 H251 H 0.72668 0.89840 1.13790
 N252 N 0.62990 0.81581 1.08685
 N253 N 0.61022 0.81435 1.10533
 C254 C 0.59705 0.79061 1.10192
 C255 C 0.60946 0.77657 1.08025
 C256 C 0.63012 0.79295 1.07097
 H257 H 0.58113 0.78331 1.11549
 H258 H 0.64538 0.78778 1.05551
 H259 H 0.64704 0.84087 1.13802
 H260 H 0.63237 0.87326 1.12425
 N261 N 1.10746 1.36492 1.18331
 N262 N 1.12769 1.38189 1.18696
 C263 C 1.12215 1.39790 1.20930
 C264 C 1.09711 1.39030 1.21959
 C265 C 1.08830 1.36955 1.20278
 H266 H 1.13595 1.41247 1.21840
 H267 H 1.07038 1.35738 1.20587
 Cu268 Cu 1.16078 1.37952 1.16441
 Cu269 Cu 1.10956 1.33527 1.15710
 Cu270 Cu 1.16280 1.32680 1.11517
 N271 N 1.19209 1.37290 1.13916
 N272 N 1.19272 1.35280 1.12048
 C273 C 1.21664 1.35310 1.10690
 C274 C 1.23165 1.37419 1.11771
 C275 C 1.21575 1.38647 1.13809
 H276 H 1.22280 1.33894 1.09058
 H277 H 1.22108 1.40370 1.15119
 N278 N 1.12860 1.30842 1.10826
 N279 N 1.10733 1.31270 1.12433
 C280 C 1.08792 1.29468 1.11790
 C281 C 1.09774 1.27804 1.09704
 C282 C 1.12355 1.28717 1.09112
 H283 H 1.06954 1.29164 1.12977
 H284 H 1.13844 1.27728 1.07775
 H285 H 1.15907 1.33864 1.15678
 H286 H 1.14261 1.36088 1.13033
 N287 N 1.11810 0.89178 0.66580
 N288 N 1.14129 0.90468 0.66764
 C289 C 1.14227 0.91784 0.69245
 C290 C 1.11841 0.91266 0.70648
 C291 C 1.10342 0.89629 0.68909
 H292 H 1.15970 0.92850 0.70045
 H293 H 1.08430 0.88668 0.69378
 Cu294 Cu 1.16937 0.89910 0.63933
 Cu295 Cu 1.11024 0.86661 0.63565
 Cu296 Cu 1.16624 0.84315 0.59853
 N297 N 1.20144 0.88505 0.61997
 N298 N 1.20024 0.86247 0.60494
 C299 C 1.22554 0.85336 0.59985
 C300 C 1.24374 0.87110 0.61210
 C301 C 1.22758 0.89093 0.62478
 H302 H 1.23027 0.83321 0.59155
 H303 H 1.23418 0.90563 0.64026
 N304 N 1.13123 0.82368 0.59938
 N305 N 1.10979 0.83310 0.61307
 C306 C 1.09010 0.81417 0.61255
 C307 C 1.09971 0.79193 0.59779
 C308 C 1.12572 0.79842 0.58957
 H309 H 1.07106 0.81574 0.62366
 H310 H 1.14002 0.78514 0.57885
 H311 H 1.14996 0.85413 0.63649
 H312 H 1.13994 0.87491 0.60571
 N313 N 0.37924 0.64303 0.69934
 N314 N 0.35968 0.62562 0.70459
 C315 C 0.36475 0.61263 0.72870
 C316 C 0.38867 0.62262 0.73900
 C317 C 0.39748 0.64188 0.72013
 H318 H 0.35193 0.59734 0.73812
 H319 H 0.41545 0.65426 0.72156
 Cu320 Cu 0.32898 0.62139 0.68019
 Cu321 Cu 0.37879 0.66660 0.66657
 Cu322 Cu 0.32467 0.65860 0.62192
 N323 N 0.30518 0.61100 0.65001
 N324 N 0.30434 0.62540 0.62690
 C325 C 0.28444 0.61610 0.61064
 C326 C 0.27214 0.59482 0.62444
 C327 C 0.28561 0.59193 0.64936
 H328 H 0.27790 0.62564 0.59147
 H329 H 0.28025 0.57862 0.66648
 N330 N 0.35293 0.68557 0.61558
 N331 N 0.37386 0.68846 0.63231
 C332 C 0.38878 0.70962 0.62325
 C333 C 0.37648 0.72015 0.59976
 C334 C 0.35391 0.70463 0.59536
 H335 H 0.40638 0.71762 0.63368
 H336 H 0.33880 0.70773 0.57946
 H337 H 0.33800 0.66758 0.66241
 H338 H 0.35617 0.64002 0.64247
 N339 N 0.38095 0.13609 1.20866
 N340 N 0.36283 0.11652 1.20868
 C341 C 0.35613 0.11060 1.23524
 C342 C 0.37113 0.12698 1.25282
 C343 C 0.38647 0.14305 1.23525
 H344 H 0.33917 0.09802 1.24121
 H345 H 0.39789 0.16094 1.24126
 Cu346 Cu 0.34514 0.10502 1.17445
 Cu347 Cu 0.39066 0.15553 1.17451
 Cu348 Cu 0.33962 0.15342 1.12550
 N349 N 0.32011 0.10106 1.14369
 N350 N 0.31785 0.12030 1.12464
 C351 C 0.29703 0.11437 1.10777
 C352 C 0.28585 0.09014 1.11690
 C353 C 0.30081 0.08214 1.13966
 H354 H 0.28964 0.12744 1.09127
 H355 H 0.29685 0.06503 1.15332
 N356 N 0.36835 0.18128 1.12518
 N357 N 0.38818 0.18174 1.14356
 C358 C 0.40362 0.20393 1.13896
 C359 C 0.39284 0.21778 1.11653
 C360 C 0.37070 0.20305 1.10817
 H361 H 0.42045 0.21015 1.15177
 H362 H 0.35679 0.20841 1.09172
 H363 H 0.35060 0.15389 1.16715
 H364 H 0.37157 0.13325 1.14218
 N365 N 0.88644 0.64068 1.19902
 N366 N 0.86868 0.62093 1.20136
 C367 C 0.86435 0.61594 1.22868
 C368 C 0.88048 0.63319 1.24436
 C369 C 0.89402 0.64869 1.22473
 H370 H 0.84794 0.60362 1.23660
 H371 H 0.90546 0.66705 1.22894
 Cu372 Cu 0.84829 0.60830 1.16905
 Cu373 Cu 0.89353 0.65892 1.16350
 Cu374 Cu 0.84421 0.64965 1.11340
 N375 N 0.82074 0.60312 1.14067
 N376 N 0.81937 0.61964 1.11906
 C377 C 0.79748 0.61358 1.10385
 C378 C 0.78451 0.59218 1.11671
 C379 C 0.79957 0.58587 1.14002
 H380 H 0.79082 0.62468 1.08562
 H381 H 0.79480 0.57098 1.15593
 N382 N 0.87122 0.67880 1.11114
 N383 N 0.89023 0.68221 1.13009
 C384 C 0.90402 0.70518 1.12413
 C385 C 0.89300 0.71640 1.10029
 C386 C 0.87241 0.69936 1.09251
 H387 H 0.91975 0.71382 1.13697
 H388 H 0.85851 0.70255 1.07549
 H389 H 0.85327 0.65564 1.15514
 H390 H 0.87594 0.63262 1.13427
 N391 N 0.86613 0.13868 0.68829
 N392 N 0.84745 0.11961 0.68656
 C393 C 0.85069 0.10144 0.70735
 C394 C 0.87259 0.10934 0.72276
 C395 C 0.88218 0.13303 0.71032
 H396 H 0.83832 0.08360 0.71082
 H397 H 0.89939 0.14505 0.71663
 Cu398 Cu 0.82115 0.11919 0.65672
 Cu399 Cu 0.86816 0.16862 0.66071
 Cu400 Cu 0.81132 0.17521 0.61918
 N401 N 0.79774 0.11892 0.62423
 N402 N 0.79503 0.14102 0.60889
 C403 C 0.77574 0.13713 0.58976
 C404 C 0.76574 0.11130 0.59349
 C405 C 0.77987 0.10007 0.61552
 H406 H 0.76758 0.15292 0.57640
 H407 H 0.77581 0.08088 0.62586
 N408 N 0.83852 0.20350 0.62183
 N409 N 0.86076 0.20137 0.63685
 C410 C 0.87588 0.22390 0.63219
 C411 C 0.86212 0.24026 0.61324
 C412 C 0.83874 0.22688 0.60720
 H413 H 0.89538 0.22784 0.64140
 H414 H 0.82335 0.23330 0.59265
 H415 H 0.82775 0.16881 0.65932
 H416 H 0.84492 0.15277 0.62848
 N417 N 1.34258 0.37777 0.70089
 N418 N 1.36436 0.36210 0.70137
 C419 C 1.37942 0.36919 0.72362
 C420 C 1.36611 0.39039 0.73748
 C421 C 1.34285 0.39530 0.72272
 H422 H 1.39820 0.35939 0.72953
 H423 H 1.32708 0.41003 0.72772
 Cu424 Cu 1.36985 0.33316 0.67339
 Cu425 Cu 1.31453 0.37292 0.67317
 Cu426 Cu 1.33446 0.33683 0.61399
 N427 N 1.37057 0.30322 0.64598
 N428 N 1.35769 0.30556 0.62211
 C429 C 1.35995 0.28195 0.60763
 C430 C 1.37496 0.26391 0.62326
 C431 C 1.38113 0.27769 0.64770
 H432 H 1.34912 0.27738 0.58862
 H433 H 1.39062 0.26923 0.66607
 N434 N 1.30221 0.36047 0.61512
 N435 N 1.29434 0.37360 0.63801
 C436 C 1.27059 0.38616 0.63323
 C437 C 1.26319 0.38023 0.60617
 C438 C 1.28345 0.36395 0.59511
 H439 H 1.25918 0.39796 0.64848
 H440 H 1.28406 0.35452 0.57462
 H441 H 1.32424 0.33511 0.65495
 H442 H 1.34428 0.36592 0.64518
 N443 N 1.34928 0.88741 1.17982
 N444 N 1.37269 0.87674 1.17221
 C445 C 1.39036 0.87952 1.19328
 C446 C 1.37733 0.89237 1.21535
 C447 C 1.35124 0.89704 1.20620
 H448 H 1.40963 0.86892 1.19421
 H449 H 1.33418 0.90362 1.21888
 Cu450 Cu 1.37526 0.85167 1.14055
 Cu451 Cu 1.31699 0.88300 1.15675
 Cu452 Cu 1.31921 0.82649 1.11218
 N453 N 1.37589 0.81689 1.12056
 N454 N 1.35332 0.80578 1.11178
 C455 C 1.35780 0.77890 1.10650
 C456 C 1.38471 0.77320 1.11184
 C457 C 1.39553 0.79767 1.12076
 H458 H 1.34211 0.76417 1.10222
 H459 H 1.41485 0.80022 1.13087
 N460 N 1.28564 0.84750 1.12028
 N461 N 1.28487 0.86923 1.13686
 C462 C 1.25887 0.87628 1.14159
 C463 C 1.24244 0.85842 1.12714
 C464 C 1.26013 0.84024 1.11426
 H465 H 1.25226 0.89082 1.15740
 H466 H 1.25467 0.82114 1.10430
 H467 H 1.32816 0.84326 1.15018
 H468 H 1.33203 0.86628 1.11964
 N469 N 0.85649 0.37740 1.19563
 N470 N 0.87779 0.36217 1.18929
 C471 C 0.89924 0.37113 1.20387
 C472 C 0.89051 0.39267 1.22040
 C473 C 0.86352 0.39654 1.21461
 H474 H 0.91963 0.36320 1.20194
 H475 H 0.85027 0.41246 1.22274
 Cu476 Cu 0.87530 0.33237 1.16219
 Cu477 Cu 0.82140 0.37120 1.17834
 Cu478 Cu 0.82482 0.33456 1.11603
 N479 N 0.87243 0.30483 1.13276
 N480 N 0.85269 0.30585 1.11446
 C481 C 0.85538 0.28467 1.09639
 C482 C 0.87786 0.26969 1.10407
 C483 C 0.88832 0.28288 1.12716
 H484 H 0.84177 0.28030 1.07938
 H485 H 0.90586 0.27681 1.13906
 N486 N 0.79263 0.35637 1.12771
 N487 N 0.79105 0.36935 1.15192
 C488 C 0.76510 0.37628 1.15694
 C489 C 0.74941 0.36759 1.13487
 C490 C 0.76763 0.35498 1.11676
 H491 H 0.75753 0.38351 1.17691
 H492 H 0.76237 0.34176 1.09945
 H493 H 0.82622 0.33303 1.15826
 H494 H 0.84194 0.36397 1.14249
 N495 N 0.84592 0.88142 0.67794
 N496 N 0.86601 0.86358 0.67676
 C497 C 0.88300 0.86831 0.69819
 C498 C 0.87288 0.89046 0.71323
 C499 C 0.84950 0.89836 0.69991
 H500 H 0.90074 0.85614 0.70288
 H501 H 0.83561 0.91448 0.70629
 Cu502 Cu 0.86648 0.83479 0.64829
 Cu503 Cu 0.81550 0.88011 0.65208
 Cu504 Cu 0.81189 0.82214 0.60957
 N505 N 0.86232 0.79976 0.62883
 N506 N 0.84080 0.79502 0.61370
 C507 C 0.83968 0.76806 0.60777
 C508 C 0.86152 0.75492 0.61981
 C509 C 0.87545 0.77583 0.63302
 H510 H 0.82199 0.75810 0.59945
 H511 H 0.89113 0.77308 0.64843
 N512 N 0.78128 0.84786 0.61512
 N513 N 0.78265 0.87000 0.63099
 C514 C 0.75732 0.87913 0.63619
 C515 C 0.73905 0.86191 0.62332
 C516 C 0.75511 0.84235 0.61023
 H517 H 0.75231 0.89399 0.65230
 H518 H 0.74807 0.82302 0.60196
 H519 H 0.81789 0.83819 0.64912
 H520 H 0.83177 0.85801 0.61935
 N521 N 0.63834 0.62741 0.69735
 N522 N 0.61561 0.64139 0.69533
 C523 C 0.59760 0.63097 0.71366
 C524 C 0.61019 0.60922 0.72711
 C525 C 0.63583 0.60766 0.71650
 H526 H 0.57767 0.63934 0.71782
 H527 H 0.65206 0.59444 0.72349
 Cu528 Cu 0.61383 0.67311 0.67031
 Cu529 Cu 0.67094 0.63834 0.67888
 Cu530 Cu 0.66176 0.67740 0.61997
 N531 N 0.61863 0.70654 0.64835
 N532 N 0.63645 0.70778 0.62789
 C533 C 0.63835 0.73398 0.61939
 C534 C 0.62122 0.75025 0.63548
 C535 C 0.60917 0.73199 0.65372
 H536 H 0.65430 0.74140 0.60591
 H537 H 0.59750 0.73744 0.67214
 N538 N 0.69374 0.65348 0.62539
 N539 N 0.69743 0.64008 0.64898
 C540 C 0.72064 0.62584 0.64776
 C541 C 0.73213 0.63053 0.62230
 C542 C 0.71496 0.64820 0.60826
 H543 H 0.72818 0.61243 0.66390
 H544 H 0.71754 0.65643 0.58749
 H545 H 0.66242 0.67653 0.66170
 H546 H 0.64744 0.64540 0.64536
 N547 N 0.65184 1.11739 1.20021
 N548 N 0.63906 1.13914 1.21022
 C549 C 0.61945 1.13124 1.22792
 C550 C 0.62028 1.10314 1.22913
 C551 C 0.64068 1.09471 1.21122
 H552 H 0.60437 1.14471 1.23717
 H553 H 0.64584 1.07388 1.20531
 Cu554 Cu 0.64495 1.17518 1.19504
 Cu555 Cu 0.68033 1.12031 1.17184
 Cu556 Cu 0.69041 1.18510 1.14445
 N557 N 0.64221 1.20624 1.17025
 N558 N 0.65997 1.20969 1.15005
 C559 C 0.65257 1.23124 1.13448
 C560 C 0.62881 1.24151 1.14560
 C561 C 0.62266 1.22549 1.16829
 H562 H 0.66315 1.23821 1.11603
 H563 H 0.60491 1.22689 1.18154
 N564 N 0.71212 1.15330 1.13319
 N565 N 0.70835 1.12845 1.14334
 C566 C 0.72690 1.11135 1.13187
 C567 C 0.74252 1.12640 1.11356
 C568 C 0.73279 1.15277 1.11481
 H569 H 0.72932 1.08990 1.13694
 H570 H 0.74061 1.17036 1.10385
 H571 H 0.69029 1.15989 1.18011
 H572 H 0.66383 1.15436 1.15317
 N573 N 0.12853 0.60497 1.17789
 N574 N 0.11048 0.62488 1.17954
 C575 C 0.10171 0.62725 1.20614
 C576 C 0.11465 0.60731 1.22146
 C577 C 0.13154 0.59359 1.20319
 H578 H 0.08892 0.64365 1.21404
 H579 H 0.14709 0.57883 1.20847
 Cu580 Cu 0.10307 0.64807 1.14765
 Cu581 Cu 0.15157 0.60005 1.14521
 Cu582 Cu 0.15597 0.65882 1.10529
 N583 N 0.10150 0.67537 1.11850
 N584 N 0.12236 0.67960 1.10188
 C585 C 0.11635 0.69998 1.08404
 C586 C 0.09044 0.70856 1.09013
 C587 C 0.08132 0.69275 1.11185
 H588 H 0.12970 0.70770 1.06798
 H589 H 0.06173 0.69374 1.12198
 N590 N 0.18393 0.62979 1.10511
 N591 N 0.18181 0.60701 1.11975
 C592 C 0.20490 0.59239 1.11736
 C593 C 0.22208 0.60681 1.10025
 C594 C 0.20836 0.63021 1.09262
 H595 H 0.20941 0.57379 1.12865
 H596 H 0.21616 0.64694 1.08032
 H597 H 0.15163 0.64165 1.14456
 H598 H 0.13397 0.62557 1.11439
 N599 N 0.13252 1.12466 0.68215
 N600 N 0.12097 1.14790 0.69026
 C601 C 0.11333 1.14580 0.71722
 C602 C 0.12008 1.11983 0.72612
 C603 C 0.13250 1.10706 0.70369
 H604 H 0.10553 1.16252 0.72990
 H605 H 0.14328 1.08769 0.70393
 Cu606 Cu 0.11875 1.18018 0.66600
 Cu607 Cu 0.15246 1.12056 0.64656
 Cu608 Cu 0.15287 1.17573 0.60551
 N609 N 0.10941 1.20278 0.63398
 N610 N 0.12240 1.20070 0.60994
 C611 C 0.11078 1.21751 0.59120
 C612 C 0.08984 1.23086 0.60469
 C613 C 0.08917 1.22117 0.63159
 H614 H 0.11660 1.21922 0.56947
 H615 H 0.07456 1.22615 0.64778
 N616 N 0.18053 1.14748 0.60187
 N617 N 0.18019 1.12570 0.61799
 C618 C 0.20178 1.10975 0.61197
 C619 C 0.21630 1.12251 0.59111
 C620 C 0.20244 1.14631 0.58505
 H621 H 0.20694 1.09093 0.62260
 H622 H 0.20827 1.16191 0.57027
 H623 H 0.15538 1.16114 0.65411
 H624 H 0.12335 1.15037 0.63707
 N625 N 1.35145 0.61828 0.29613
 N626 N 1.37383 0.63205 0.29999
 C627 C 1.38619 0.63560 0.27515
 C628 C 1.37071 0.62375 0.25443
 C629 C 1.34878 0.61301 0.26864
 H630 H 1.40244 0.64994 0.27176
 H631 H 1.33039 0.60559 0.25923
 Cu632 Cu 1.37999 0.65186 0.33481
 Cu633 Cu 1.32474 0.61391 0.32608
 Cu634 Cu 1.32886 0.66214 0.37966
 N635 N 1.38079 0.68178 0.36172
 N636 N 1.36050 0.68625 0.37915
 C637 C 1.36645 0.70790 0.39569
 C638 C 1.39143 0.71756 0.38743
 C639 C 1.40024 0.70041 0.36628
 H640 H 1.35412 0.71524 0.41294
 H641 H 1.41961 0.70082 0.35569
 N642 N 1.29629 0.63932 0.37311
 N643 N 1.29532 0.62019 0.35355
 C644 C 1.26962 0.61167 0.35107
 C645 C 1.25333 0.62602 0.36972
 C646 C 1.27107 0.64347 0.38320
 H647 H 1.26245 0.59958 0.33367
 H648 H 1.26525 0.66078 0.39617
 H649 H 1.33121 0.65386 0.33765
 H650 H 1.34474 0.62736 0.36157
 N651 N 1.37527 1.12530 0.81362
 N652 N 1.39259 1.14563 0.81312
 C653 C 1.40716 1.14407 0.78925
 C654 C 1.39817 1.12159 0.77443
 C655 C 1.37804 1.11009 0.79028
 H656 H 1.42242 1.15853 0.78284
 H657 H 1.36600 1.09243 0.78499
 Cu658 Cu 1.39258 1.17309 0.84289
 Cu659 Cu 1.34947 1.12047 0.84362
 Cu660 Cu 1.35028 1.16789 0.89779
 N661 N 1.38491 1.20443 0.86736
 N662 N 1.36896 1.20215 0.88925
 C663 C 1.36390 1.22734 0.89979
 C664 C 1.37710 1.24664 0.88367
 C665 C 1.39003 1.23119 0.86313
 H666 H 1.34830 1.23170 0.91515
 H667 H 1.39916 1.23912 0.84427
 N668 N 1.32529 1.13641 0.89662
 N669 N 1.32492 1.11862 0.87571
 C670 C 1.30386 1.10162 0.87898
 C671 C 1.29041 1.10921 0.90301
 C672 C 1.30427 1.13125 0.91382
 H673 H 1.29768 1.08616 0.86413
 H674 H 1.29841 1.14373 0.93162
 H675 H 1.34679 1.16134 0.85586
 H676 H 1.37183 1.13907 0.87402
 N677 N 0.84939 0.62580 0.82162
 N678 N 0.86809 0.64487 0.82149
 C679 C 0.88404 0.64143 0.79872
 C680 C 0.87471 0.61885 0.78417
 C681 C 0.85291 0.60932 0.79919
 H682 H 0.90030 0.65490 0.79271
 H683 H 0.83979 0.59257 0.79355
 Cu684 Cu 0.86786 0.67377 0.84990
 Cu685 Cu 0.82023 0.62564 0.84942
 Cu686 Cu 0.80998 0.68791 0.88355
 N687 N 0.86235 0.70908 0.86856
 N688 N 0.83901 0.71498 0.88047
 C689 C 0.83750 0.74224 0.88479
 C690 C 0.86111 0.75430 0.87535
 C691 C 0.87640 0.73243 0.86523
 H692 H 0.81903 0.75302 0.89032
 H693 H 0.89398 0.73409 0.85181
 N694 N 0.78157 0.65949 0.88046
 N695 N 0.78600 0.63517 0.86904
 C696 C 0.76209 0.62252 0.86563
 C697 C 0.74144 0.63972 0.87476
 C698 C 0.75472 0.66296 0.88396
 H699 H 0.75945 0.60461 0.85253
 H700 H 0.74520 0.68249 0.88866
 H701 H 0.81966 0.66726 0.84711
 H702 H 0.83282 0.65273 0.88014
 N703 N 0.85684 1.11774 0.30578
 N704 N 0.87363 1.13797 0.30083
 C705 C 0.88967 1.13129 0.27905
 C706 C 0.88232 1.10557 0.26998
 C707 C 0.86146 1.09743 0.28712
 H708 H 0.90489 1.14441 0.27002
 H709 H 0.85007 1.07867 0.28563
 Cu710 Cu 0.87228 1.17174 0.32208
 Cu711 Cu 0.82922 1.12023 0.33482
 Cu712 Cu 0.82805 1.17983 0.37473
 N713 N 0.87723 1.19966 0.35038
 N714 N 0.85985 1.20280 0.37108
 C715 C 0.86699 1.22461 0.38659
 C716 C 0.89012 1.23538 0.37482
 C717 C 0.89619 1.21927 0.35195
 H718 H 0.85575 1.23252 0.40436
 H719 H 0.91248 1.22212 0.33712
 N720 N 0.80220 1.14979 0.38022
 N721 N 0.80281 1.12702 0.36510
 C722 C 0.78196 1.11110 0.37272
 C723 C 0.76787 1.12456 0.39366
 C724 C 0.78103 1.14892 0.39806
 H725 H 0.77685 1.09171 0.36316
 H726 H 0.77513 1.16511 0.41242
 H727 H 0.82529 1.16197 0.33525
 H728 H 0.85043 1.14734 0.35998
 N729 N 0.65554 0.38387 0.32294
 N730 N 0.63507 0.36689 0.32458
 C731 C 0.62092 0.36790 0.30063
 C732 C 0.63299 0.38678 0.28329
 C733 C 0.65500 0.39642 0.29791
 H734 H 0.60512 0.35371 0.29505
 H735 H 0.67109 0.40902 0.28975
 Cu736 Cu 0.63229 0.34078 0.35511
 Cu737 Cu 0.68420 0.38367 0.35108
 Cu738 Cu 0.68984 0.32156 0.38592
 N739 N 0.63432 0.30700 0.37630
 N740 N 0.65733 0.29869 0.38713
 C741 C 0.65489 0.27226 0.39494
 C742 C 0.62884 0.26396 0.38911
 C743 C 0.61646 0.28633 0.37701
 H744 H 0.67149 0.25933 0.40155
 H745 H 0.59731 0.28642 0.36624
 N746 N 0.71996 0.34817 0.38283
 N747 N 0.71724 0.37254 0.37125
 C748 C 0.74187 0.38391 0.36854
 C749 C 0.76118 0.36575 0.37835
 C750 C 0.74644 0.34337 0.38715
 H751 H 0.74593 0.40154 0.35562
 H752 H 0.75482 0.32353 0.39238
 H753 H 0.68087 0.34228 0.34971
 H754 H 0.67005 0.35840 0.38327
 N755 N 0.64057 0.87430 0.81677
 N756 N 0.62059 0.85669 0.81541
 C757 C 0.60466 0.86334 0.79362
 C758 C 0.61549 0.88640 0.78115
 C759 C 0.63811 0.89282 0.79620
 H760 H 0.58720 0.85190 0.78693
 H761 H 0.65216 0.90915 0.79193
 Cu762 Cu 0.61893 0.82597 0.84143
 Cu763 Cu 0.66941 0.87108 0.84384
 Cu764 Cu 0.66715 0.81635 0.88980
 N765 N 0.62312 0.79088 0.86062
 N766 N 0.64186 0.78718 0.87958
 C767 C 0.64319 0.76029 0.88590
 C768 C 0.62436 0.74617 0.87015
 C769 C 0.61226 0.76642 0.85419
 H770 H 0.65940 0.75110 0.89777
 H771 H 0.59942 0.76297 0.83633
 N772 N 0.69612 0.84428 0.89037
 N773 N 0.69688 0.86489 0.87256
 C774 C 0.71939 0.87957 0.87688
 C775 C 0.73341 0.86758 0.89836
 C776 C 0.71835 0.84528 0.90660
 H777 H 0.72550 0.89726 0.86498
 H778 H 0.72350 0.83056 0.92255
 H779 H 0.66717 0.82883 0.84929
 H780 H 0.64793 0.85103 0.87428
 N781 N 0.13904 0.39013 0.81737
 N782 N 0.11984 0.37173 0.81543
 C783 C 0.10265 0.37941 0.79516
 C784 C 0.11185 0.40394 0.78439
 C785 C 0.13480 0.41022 0.79880
 H786 H 0.08588 0.36736 0.78773
 H787 H 0.14832 0.42707 0.79479
 Cu788 Cu 0.12084 0.33790 0.83724
 Cu789 Cu 0.16991 0.38445 0.84063
 Cu790 Cu 0.17218 0.33269 0.88633
 N791 N 0.12574 0.30551 0.86144
 N792 N 0.14548 0.30332 0.87984
 C793 C 0.14589 0.27754 0.88991
 C794 C 0.12517 0.26323 0.87760
 C795 C 0.11305 0.28123 0.85940
 H796 H 0.16148 0.26916 0.90317
 H797 H 0.09797 0.27625 0.84398
 N798 N 0.19607 0.36441 0.88915
 N799 N 0.19431 0.38492 0.87150
 C800 C 0.21338 0.40351 0.87712
 C801 C 0.22796 0.39404 0.89927
 C802 C 0.21680 0.36915 0.90665
 H803 H 0.21729 0.42176 0.86508
 H804 H 0.22385 0.35517 0.92252
 H805 H 0.16192 0.33537 0.84469
 H806 H 0.14135 0.35620 0.86991
 N807 N 0.12152 0.88594 0.32375
 N808 N 0.10099 0.86918 0.32682
 C809 C 0.08545 0.86986 0.30387
 C810 C 0.09694 0.88802 0.28556
 C811 C 0.11974 0.89806 0.29859
 H812 H 0.06825 0.85684 0.30011
 H813 H 0.13443 0.91206 0.29004
 Cu814 Cu 0.09935 0.84410 0.35779
 Cu815 Cu 0.14948 0.88929 0.35239
 Cu816 Cu 0.14784 0.84162 0.40587
 N817 N 0.10608 0.81118 0.37911
 N818 N 0.12547 0.81009 0.39775
 C819 C 0.12968 0.78383 0.40512
 C820 C 0.11198 0.76796 0.39019
 C821 C 0.09730 0.78566 0.37385
 H822 H 0.14641 0.77668 0.41764
 H823 H 0.08390 0.78020 0.35697
 N824 N 0.17650 0.86881 0.40214
 N825 N 0.17818 0.88608 0.38100
 C826 C 0.20231 0.89873 0.38208
 C827 C 0.21597 0.88874 0.40504
 C828 C 0.19922 0.87001 0.41733
 H829 H 0.20982 0.91303 0.36676
 H830 H 0.20396 0.85684 0.43475
 H831 H 0.14731 0.84905 0.36385
 H832 H 0.12857 0.87435 0.38591
 O833 O 0.97600 0.89404 0.85345
 O834 O 0.97707 0.86287 0.81993
 C835 C 0.96729 0.88480 0.83028
 C836 C 0.94508 0.89936 0.81570
 C837 C 0.93530 0.88991 0.78987
 H838 H 0.94451 0.87220 0.77980
 O839 O 1.03558 1.08903 0.85554
 O840 O 1.03623 1.12085 0.82302
 C841 C 1.04579 1.09886 0.83338
 C842 C 1.07031 1.08573 0.82093
 C843 C 1.08554 1.09956 0.80048
 H844 H 1.07847 1.11892 0.79218
 O845 O 0.87217 0.96691 0.89449
 O846 O 0.83957 0.96748 0.86333
 C847 C 0.84981 0.95781 0.88560
 C848 C 0.83595 0.93551 0.90115
 C849 C 0.81025 0.92639 0.89308
 H850 H 0.79997 0.93592 0.87570
 O851 O 1.14805 1.01505 0.89550
 O852 O 1.17955 1.01261 0.86276
 C853 C 1.17059 1.02277 0.88545
 C854 C 1.18560 1.04452 0.90017
 C855 C 1.21220 1.05180 0.89281
 H856 H 1.22283 1.04085 0.87631
 O857 O 0.90825 0.85563 0.96740
 O858 O 0.87616 0.82454 0.96848
 C859 C 0.89747 0.83412 0.95739
 C860 C 0.90842 0.82172 0.93114
 C861 C 0.89094 0.80739 0.91315
 H862 H 0.87020 0.80387 0.91947
 O863 O 1.10995 1.12621 0.96224
 O864 O 1.14162 1.15777 0.96182
 C865 C 1.11980 1.14807 0.95221
 C866 C 1.10616 1.16183 0.92858
 C867 C 1.11906 1.18313 0.91411
 H868 H 1.13874 1.19022 0.92062
 O869 O 0.90809 1.02073 0.85567
 O870 O 0.87568 1.02206 0.82434
 C871 C 0.89804 1.03095 0.83366
 C872 C 0.91239 1.05379 0.81938
 C873 C 0.90182 1.06608 0.79512
 H874 H 0.88331 1.05843 0.78613
 O875 O 1.10591 0.96467 0.85950
 O876 O 1.13675 0.96272 0.82609
 C877 C 1.11414 0.95533 0.83616
 C878 C 1.09718 0.93595 0.82031
 C879 C 1.10284 0.93096 0.79204
 H880 H 1.11942 0.94147 0.78199
 O881 O 1.03021 0.85771 0.89130
 O882 O 1.03143 0.82695 0.85737
 C883 C 1.04114 0.83689 0.87970
 C884 C 1.06690 0.82574 0.89063
 C885 C 1.08577 0.81448 0.87160
 H886 H 1.08088 0.81304 0.84961
 O887 O 0.98302 1.12777 0.89405
 O888 O 0.98266 1.15935 0.86131
 C889 C 0.97352 1.14993 0.88420
 C890 C 0.95098 1.16420 0.89913
 C891 C 0.94010 1.18898 0.88894
 H892 H 0.94870 1.19839 0.87052
 O893 O 0.87361 1.09249 0.97020
 O894 O 0.84191 1.12454 0.97028
 C895 C 0.85141 1.10198 0.96102
 C896 C 0.83660 1.08693 0.93911
 C897 C 0.81026 1.09495 0.93210
 H898 H 0.80039 1.11173 0.94315
 O899 O 1.13974 0.89045 0.97019
 O900 O 1.17088 0.85786 0.97124
 C901 C 1.16222 0.88062 0.96192
 C902 C 1.17777 0.89546 0.94046
 C903 C 1.20460 0.88815 0.93433
 H904 H 1.21458 0.87209 0.94604
 O905 O 0.98217 1.09032 0.85539
 O906 O 0.98271 1.12178 0.82253
 C907 C 0.97282 1.10008 0.83281
 C908 C 0.94936 1.08704 0.81897
 C909 C 0.93852 1.09873 0.79473
 H910 H 0.94805 1.11636 0.78527
 O911 O 1.02855 0.89662 0.85529
 O912 O 1.02918 0.86605 0.82115
 C913 C 1.03790 0.88812 0.83201
 C914 C 1.05969 0.90363 0.81790
 C915 C 1.06573 0.89898 0.78951
 H916 H 1.05389 0.88464 0.77742
 O917 O 1.14359 0.96209 0.89726
 O918 O 1.17489 0.95973 0.86434
 C919 C 1.16523 0.95157 0.88748
 C920 C 1.17909 0.92970 0.90341
 C921 C 1.20600 0.92212 0.89750
 H922 H 1.21696 0.93241 0.88101
 O923 O 0.87154 1.02033 0.89477
 O924 O 0.83882 1.02111 0.86372
 C925 C 0.84912 1.02989 0.88627
 C926 C 0.83527 1.05178 0.90256
 C927 C 0.80882 1.06014 0.89589
 H928 H 0.79810 1.05012 0.87909
 O929 O 0.91177 1.12851 0.96939
 O930 O 0.88023 1.16067 0.96893
 C931 C 0.90225 1.15055 0.95941
 C932 C 0.91638 1.16425 0.93603
 C933 C 0.90617 1.18897 0.92566
 H934 H 0.88865 1.19861 0.93533
 O935 O 1.10161 0.85513 0.96557
 O936 O 1.13294 0.82269 0.96421
 C937 C 1.11200 0.83397 0.95403
 C938 C 1.10126 0.82386 0.92709
 C939 C 1.11929 0.81154 0.90789
 H940 H 1.14017 0.80804 0.91365
 O941 O 1.10870 1.01789 0.86040
 O942 O 1.14025 1.01626 0.82767
 C943 C 1.11888 1.02707 0.83796
 C944 C 1.10647 1.05120 0.82420
 C945 C 1.12148 1.06585 0.80445
 H946 H 1.14176 1.05925 0.79883
 O947 O 0.90679 0.96713 0.85369
 O948 O 0.87455 0.96801 0.82215
 C949 C 0.89663 0.95812 0.83116
 C950 C 0.91040 0.93533 0.81602
 C951 C 0.90078 0.92553 0.79025
 H952 H 0.88349 0.93535 0.78068
 O953 O 1.03611 1.12783 0.89227
 O954 O 1.03567 1.15951 0.85958
 C955 C 1.04562 1.14969 0.88178
 C956 C 1.06960 1.16284 0.89440
 C957 C 1.08300 1.18400 0.88019
 H958 H 1.07516 1.19173 0.86066
 O959 O 0.97649 0.85702 0.89251
 O960 O 0.97702 0.82621 0.85866
 C961 C 0.96697 0.83552 0.88139
 C962 C 0.94245 0.82274 0.89369
 C963 C 0.92432 0.80901 0.87607
 H964 H 0.92913 0.80657 0.85408
 O965 O 1.14677 1.08830 0.96435
 O966 O 1.17852 1.11983 0.96460
 C967 C 1.16928 1.09725 0.95569
 C968 C 1.18457 1.08125 0.93479
 C969 C 1.21105 1.08818 0.92762
 H970 H 1.22063 1.10524 0.93807
 O971 O 0.87334 0.89518 0.96925
 O972 O 0.84117 0.86419 0.97085
 C973 C 0.85091 0.88609 0.96064
 C974 C 0.83646 0.90068 0.93798
 C975 C 0.81081 0.89194 0.92946
 H976 H 0.80117 0.87505 0.94007
 Cu977 Cu 1.00253 0.87922 0.87662
 Cu978 Cu 1.00386 0.84201 0.83628
 Cu979 Cu 1.00913 1.10558 0.87753
 Cu980 Cu 1.00914 1.14340 0.83826
 Cu981 Cu 0.89291 0.99371 0.87765
 Cu982 Cu 0.85395 0.99476 0.84022
 Cu983 Cu 1.12356 0.99002 0.88156
 Cu984 Cu 1.16080 0.98728 0.84168
 C985 C 0.93266 0.92223 0.82835
 H986 H 0.93992 0.92939 0.84838
 C987 C 0.91324 0.90281 0.77703
 C988 C 1.08085 1.06129 0.83237
 H989 H 1.06960 1.05067 0.84843
 C990 C 1.11125 1.08983 0.79267
 C991 C 0.84877 0.92260 0.92382
 H992 H 0.86870 0.92921 0.93005
 C993 C 0.79763 0.90473 0.90710
 C994 C 1.17221 1.05926 0.92133
 H995 H 1.15158 1.05416 0.92677
 C996 C 1.22508 1.07351 0.90673
 C997 C 0.93430 0.82894 0.92128
 H998 H 0.94744 0.84096 0.93449
 C999 C 0.89838 0.80195 0.88531
 C1000 C 1.08123 1.15210 0.91876
 H1001 H 1.07144 1.13532 0.92943
 C1002 C 1.10762 1.19410 0.88992
 C1003 C 0.93630 1.06443 0.83099
 H1004 H 0.94436 1.05560 0.84993
 C1005 C 0.91489 1.08866 0.78280
 C1006 C 1.07535 0.92247 0.83307
 H1007 H 1.07105 0.92607 0.85500
 C1008 C 1.08709 0.91273 0.77650
 C1009 C 1.07496 0.83077 0.91835
 H1010 H 1.06125 0.84118 0.93267
 C1011 C 1.11202 0.80794 0.87995
 C1012 C 0.93901 1.15211 0.92284
 H1013 H 0.94679 1.13278 0.93055
 C1014 C 0.91766 1.20127 0.90228
 C1015 C 0.84888 1.06512 0.92443
 H1016 H 0.86936 1.05905 0.92952
 C1017 C 0.79630 1.08169 0.91078
 C1018 C 1.16529 0.91640 0.92509
 H1019 H 1.14446 0.92192 0.92956
 C1020 C 1.21885 0.90148 0.91317
 O1021 O 1.03653 0.89710 1.13452
 O1022 O 1.03697 0.86563 1.16743
 C1023 C 1.04600 0.88776 1.15718
 C1024 C 1.06744 0.90323 1.17171
 C1025 C 1.07410 0.89781 1.19970
 H1026 H 1.06361 0.88187 1.21096
 O1027 O 0.98470 1.09401 1.13008
 O1028 O 0.98555 1.12633 1.16243
 C1029 C 0.97597 1.10404 1.15292
 C1030 C 0.95377 1.09013 1.16793
 C1031 C 0.94413 1.10057 1.19349
 H1032 H 0.95355 1.11827 1.20299
 O1033 O 0.87452 1.02049 1.09593
 O1034 O 0.84350 1.02111 1.12922
 C1035 C 0.85252 1.02981 1.10606
 C1036 C 0.83787 1.05182 1.09141
 C1037 C 0.81281 1.06108 1.10149
 H1038 H 0.80325 1.05105 1.11907
 O1039 O 1.14381 0.96347 1.09369
 O1040 O 1.17455 0.96272 1.12684
 C1041 C 1.16402 0.95211 1.10521
 C1042 C 1.17363 0.92497 1.09492
 C1043 C 1.18640 0.90684 1.11354
 H1044 H 1.19081 0.91341 1.13467
 O1045 O 1.09882 0.85236 1.02020
 O1046 O 1.12756 0.81755 1.01846
 C1047 C 1.10605 0.82860 1.02793
 C1048 C 1.08937 0.81439 1.04875
 C1049 C 1.08666 0.78580 1.04845
 H1050 H 1.09706 0.77356 1.03273
 O1051 O 0.91006 1.13155 1.02383
 O1052 O 0.87862 1.16380 1.02346
 C1053 C 0.90056 1.15418 1.03302
 C1054 C 0.91492 1.16894 1.05553
 C1055 C 0.90517 1.19414 1.06611
 H1056 H 0.88731 1.20347 1.05715
 O1057 O 0.91304 0.96967 1.13544
 O1058 O 0.88282 0.97134 1.16957
 C1059 C 0.90486 0.96226 1.15940
 C1060 C 0.92170 0.94339 1.17563
 C1061 C 0.92232 0.94507 1.20485
 H1062 H 0.90957 0.95974 1.21588
 O1063 O 1.10972 1.02168 1.12892
 O1064 O 1.14133 1.02215 1.16117
 C1065 C 1.11953 1.03180 1.15114
 C1066 C 1.10555 1.05517 1.16523
 C1067 C 1.11456 1.06505 1.19122
 H1068 H 1.13161 1.05542 1.20143
 O1069 O 0.98133 0.86205 1.09830
 O1070 O 0.98043 0.83128 1.13190
 C1071 C 0.97154 0.84045 1.10883
 C1072 C 0.95007 0.82542 1.09389
 C1073 C 0.94270 0.79922 1.10279
 H1074 H 0.95255 0.78997 1.12061
 O1075 O 1.03531 1.13108 1.08943
 O1076 O 1.03644 1.16394 1.12123
 C1077 C 1.04455 1.15371 1.09814
 C1078 C 1.06541 1.16769 1.08136
 C1079 C 1.07182 1.19533 1.08611
 H1080 H 1.06104 1.20697 1.10201
 O1081 O 0.87300 0.89411 1.02383
 O1082 O 0.84136 0.86260 1.02548
 C1083 C 0.85119 0.88494 1.03438
 C1084 C 0.83768 0.90021 1.05766
 C1085 C 0.81145 0.89342 1.06690
 H1086 H 0.80047 0.87722 1.05650
 O1087 O 1.14584 1.08978 1.01815
 O1088 O 1.17709 1.12178 1.01839
 C1089 C 1.16776 1.09939 1.02766
 C1090 C 1.18247 1.08435 1.04970
 C1091 C 1.20817 1.09282 1.05831
 H1092 H 1.21768 1.11033 1.04862
 O1093 O 1.03759 1.09500 1.12893
 O1094 O 1.03863 1.12747 1.16111
 C1095 C 1.04765 1.10501 1.15109
 C1096 C 1.07034 1.09073 1.16517
 C1097 C 1.07973 1.10025 1.19107
 H1098 H 1.06991 1.11767 1.20101
 O1099 O 0.98431 0.89910 1.13699
 O1100 O 0.98485 0.86880 1.17110
 C1101 C 0.97639 0.89121 1.16087
 C1102 C 0.95721 0.90867 1.17650
 C1103 C 0.95805 0.91074 1.20573
 H1104 H 0.97268 0.89889 1.21743
 O1105 O 1.14704 1.01740 1.09071
 O1106 O 1.17890 1.01702 1.12267
 C1107 C 1.16944 1.02605 1.09987
 C1108 C 1.18376 1.04786 1.08449
 C1109 C 1.20948 1.05664 1.09282
 H1110 H 1.21968 1.04640 1.10982
 O1111 O 0.87598 0.96707 1.09743
 O1112 O 0.84545 0.96775 1.13120
 C1113 C 0.85446 0.95785 1.10832
 C1114 C 0.83974 0.93548 1.09415
 C1115 C 0.81382 0.92811 1.10328
 H1116 H 0.80439 0.93876 1.12075
 O1117 O 1.10770 1.12653 1.01643
 O1118 O 1.13875 1.15875 1.01605
 C1119 C 1.11651 1.14933 1.02505
 C1120 C 1.10074 1.16513 1.04569
 C1121 C 1.10696 1.19257 1.05073
 H1122 H 1.12316 1.20238 1.03929
 O1123 O 0.91135 0.85747 1.02259
 O1124 O 0.87997 0.82568 1.02400
 C1125 C 0.90206 0.83558 1.03296
 C1126 C 0.91668 0.82234 1.05639
 C1127 C 0.90962 0.79603 1.06579
 H1128 H 0.89390 0.78470 1.05528
 O1129 O 1.10751 0.96858 1.13176
 O1130 O 1.13847 0.96934 1.16475
 C1131 C 1.11636 0.96035 1.15513
 C1132 C 1.10126 0.93942 1.17077
 C1133 C 1.10777 0.93366 1.19856
 H1134 H 1.12339 0.94515 1.20909
 O1135 O 0.91273 1.02260 1.13243
 O1136 O 0.88177 1.02402 1.16578
 C1137 C 0.90356 1.03289 1.15503
 C1138 C 0.91815 1.05561 1.16878
 C1139 C 0.90892 1.06635 1.19442
 H1140 H 0.89137 1.05762 1.20452
 O1141 O 0.98288 1.13278 1.09359
 O1142 O 0.98406 1.16518 1.12585
 C1143 C 0.97391 1.15525 1.10378
 C1144 C 0.95095 1.16944 1.09018
 C1145 C 0.94096 1.19462 1.10050
 H1146 H 0.95059 1.20449 1.11810
 O1147 O 1.03325 0.85815 1.09721
 O1148 O 1.03231 0.82606 1.12955
 C1149 C 1.04048 0.83475 1.10603
 C1150 C 1.05777 0.81746 1.08791
 C1151 C 1.05508 0.78885 1.08743
 H1152 H 1.04099 0.77893 1.10145
 O1153 O 1.13715 0.88799 1.02449
 O1154 O 1.16590 0.85322 1.02562
 C1155 C 1.15722 0.87587 1.03555
 C1156 C 1.16961 0.88741 1.06112
 C1157 C 1.18239 0.86977 1.08011
 H1158 H 1.18393 0.84802 1.07557
 O1159 O 0.87387 1.09336 1.02456
 O1160 O 0.84228 1.12549 1.02462
 C1161 C 0.85184 1.10319 1.03415
 C1162 C 0.83770 1.08856 1.05694
 C1163 C 0.81286 1.09810 1.06790
 H1164 H 0.80338 1.11626 1.05936
 Cu1165 Cu 1.00904 0.88230 1.11354
 Cu1166 Cu 1.00869 0.84477 1.15336
 Cu1167 Cu 1.01006 1.11000 1.10731
 Cu1168 Cu 1.01143 1.14886 1.14601
 Cu1169 Cu 0.89472 0.87852 0.99577
 Cu1170 Cu 0.85665 0.84098 0.99740
 Cu1171 Cu 1.11625 0.87477 0.99526
 Cu1172 Cu 1.15235 0.83442 0.99497
 Cu1173 Cu 0.89549 1.10827 0.99715
 Cu1174 Cu 0.85765 1.14691 0.99670
 Cu1175 Cu 1.12437 1.10451 0.99030
 Cu1176 Cu 1.16210 1.14289 0.99034
 Cu1177 Cu 0.89711 0.99472 1.11187
 Cu1178 Cu 0.86015 0.99604 1.15223
 Cu1179 Cu 1.12407 0.99296 1.10784
 Cu1180 Cu 1.16176 0.99304 1.14686
 C1181 C 1.08099 0.92427 1.15757
 H1182 H 1.07613 0.92849 1.13598
 C1183 C 1.09419 0.91324 1.21319
 C1184 C 0.94079 1.06746 1.15583
 H1185 H 0.94780 1.05955 1.13586
 C1186 C 0.92184 1.08886 1.20674
 C1187 C 0.84992 1.06530 1.06880
 H1188 H 0.86939 1.05823 1.06110
 C1189 C 0.80041 1.08421 1.09020
 C1190 C 1.16543 0.91505 1.06864
 H1191 H 1.15459 0.92851 1.05460
 C1192 C 1.19025 0.87918 1.10647
 C1193 C 1.07489 0.83000 1.06849
 H1194 H 1.07678 0.85213 1.06860
 C1195 C 1.06920 0.77310 1.06747
 C1196 C 0.93793 1.15698 1.06754
 H1197 H 0.94533 1.13742 1.05973
 C1198 C 0.91816 1.20707 1.08863
 C1199 C 0.93911 0.92517 1.16166
 H1200 H 0.93872 0.92399 1.13904
 C1201 C 0.94081 0.92917 1.21982
 C1202 C 1.08329 1.06807 1.15249
 H1203 H 1.07632 1.06078 1.13240
 C1204 C 1.10176 1.08747 1.20424
 C1205 C 0.93715 0.83676 1.07050
 H1206 H 0.94264 0.85711 1.06366
 C1207 C 0.92283 0.78443 1.08891
 C1208 C 1.07976 1.15286 1.06080
 H1209 H 1.07519 1.13145 1.05715
 C1210 C 1.09256 1.20773 1.07053
 C1211 C 0.85144 0.92151 1.07129
 H1212 H 0.87158 0.92693 1.06439
 C1213 C 0.79941 0.90753 1.08965
 C1214 C 1.17060 1.06165 1.06268
 H1215 H 1.15060 1.05528 1.05641
 C1216 C 1.22175 1.07911 1.07970
 O1217 O 1.09048 0.53498 0.63973
 O1218 O 1.12176 0.53375 0.67234
 C1219 C 1.10052 0.54439 0.66211
 C1220 C 1.08770 0.56826 0.67615
 C1221 C 1.09634 0.57654 0.70265
 H1222 H 1.11201 0.56509 0.71331
 O1223 O 0.89965 0.49470 0.63901
 O1224 O 0.86728 0.49672 0.67091
 C1225 C 0.88951 0.48676 0.66194
 C1226 C 0.90385 0.46565 0.67806
 C1227 C 0.90076 0.46411 0.70709
 H1228 H 0.88780 0.47861 0.71810
 O1229 O 1.02578 0.64778 0.59714
 O1230 O 1.02769 0.68185 0.62748
 C1231 C 1.03591 0.67030 0.60503
 C1232 C 1.05788 0.68249 0.58800
 C1233 C 1.06639 0.70970 0.59254
 H1234 H 1.05654 0.72236 0.60827
 O1235 O 0.96183 0.37782 0.60411
 O1236 O 0.95963 0.34734 0.63794
 C1237 C 0.95149 0.35651 0.61474
 C1238 C 0.92978 0.34217 0.60010
 C1239 C 0.92100 0.31672 0.60976
 H1240 H 0.93051 0.30724 0.62764
 O1241 O 1.13476 0.59737 0.52492
 O1242 O 1.16648 0.62886 0.52630
 C1243 C 1.15629 0.60668 0.53528
 C1244 C 1.16932 0.59169 0.55824
 C1245 C 1.19569 0.59798 0.56620
 H1246 H 1.20695 0.61359 0.55521
 O1247 O 0.86269 0.41918 0.52523
 O1248 O 0.82974 0.38905 0.52642
 C1249 C 0.84016 0.41145 0.53488
 C1250 C 0.82637 0.42818 0.55676
 C1251 C 0.80012 0.42152 0.56531
 H1252 H 0.78972 0.40479 0.55517
 O1253 O 0.97282 0.61548 0.63896
 O1254 O 0.97498 0.64822 0.67079
 C1255 C 0.96447 0.62622 0.66167
 C1256 C 0.94171 0.61311 0.67674
 C1257 C 0.93315 0.62212 0.70334
 H1258 H 0.94370 0.63857 0.71380
 O1259 O 1.01602 0.41276 0.64138
 O1260 O 1.01463 0.38113 0.67413
 C1261 C 1.02452 0.40292 0.66422
 C1262 C 1.04620 0.41681 0.67940
 C1263 C 1.05407 0.40748 0.70573
 H1264 H 1.04389 0.39035 0.71539
 O1265 O 1.12343 0.47712 0.60332
 O1266 O 1.15494 0.47628 0.63571
 C1267 C 1.14484 0.46676 0.61335
 C1268 C 1.15821 0.44332 0.59912
 C1269 C 1.18366 0.43440 0.60810
 H1270 H 1.19368 0.44477 0.62518
 O1271 O 0.86528 0.54760 0.59856
 O1272 O 0.83216 0.54952 0.62955
 C1273 C 0.84296 0.55772 0.60697
 C1274 C 0.82996 0.57951 0.59033
 C1275 C 0.80451 0.59031 0.59767
 H1276 H 0.79382 0.58218 0.61556
 O1277 O 0.90717 0.65201 0.52408
 O1278 O 0.87464 0.68316 0.52239
 C1279 C 0.89574 0.67355 0.53382
 C1280 C 0.90570 0.68592 0.56016
 C1281 C 0.88742 0.69952 0.57830
 H1282 H 0.86658 0.70245 0.57211
 O1283 O 1.08492 0.36623 0.52806
 O1284 O 1.11405 0.33188 0.53058
 C1285 C 1.09205 0.34333 0.53822
 C1286 C 1.07449 0.33030 0.55931
 C1287 C 1.07434 0.30171 0.56273
 H1288 H 1.08729 0.28872 0.54991
 O1289 O 0.90022 0.54788 0.63871
 O1290 O 0.86737 0.54987 0.67000
 C1291 C 0.89011 0.55804 0.66099
 C1292 C 0.90500 0.57976 0.67619
 C1293 C 0.89677 0.58890 0.70284
 H1294 H 0.87939 0.57969 0.71281
 O1295 O 1.08830 0.48169 0.64316
 O1296 O 1.11960 0.48045 0.67574
 C1297 C 1.09720 0.47238 0.66610
 C1298 C 1.08166 0.45110 0.68082
 C1299 C 1.08949 0.44143 0.70721
 H1300 H 1.10663 0.45042 0.71770
 O1301 O 1.01398 0.37540 0.60268
 O1302 O 1.01145 0.34351 0.63514
 C1303 C 1.02086 0.35211 0.61202
 C1304 C 1.03955 0.33477 0.59540
 C1305 C 1.03910 0.30618 0.59797
 H1306 H 1.02504 0.29659 0.61227
 O1307 O 0.97306 0.65093 0.59949
 O1308 O 0.97423 0.68381 0.63130
 C1309 C 0.96385 0.67328 0.60956
 C1310 C 0.93930 0.68569 0.59736
 C1311 C 0.92063 0.69898 0.61511
 H1312 H 0.92524 0.70157 0.63707
 O1313 O 0.87104 0.61456 0.52255
 O1314 O 0.83994 0.64702 0.51865
 C1315 C 0.84850 0.62506 0.52978
 C1316 C 0.83257 0.61211 0.55201
 C1317 C 0.80697 0.62241 0.55928
 H1318 H 0.79812 0.63930 0.54781
 O1319 O 1.12367 0.40179 0.53033
 O1320 O 1.15335 0.36804 0.53383
 C1321 C 1.14447 0.39138 0.54165
 C1322 C 1.15829 0.40655 0.56421
 C1323 C 1.18403 0.39821 0.57333
 H1324 H 1.19408 0.38075 0.56367
 O1325 O 0.96394 0.41677 0.64080
 O1326 O 0.96262 0.38649 0.67487
 C1327 C 0.95486 0.40905 0.66429
 C1328 C 0.93536 0.42696 0.67924
 C1329 C 0.93146 0.42507 0.70825
 H1330 H 0.94232 0.40979 0.72020
 O1331 O 1.02517 0.61301 0.63810
 O1332 O 1.02773 0.64642 0.66913
 C1333 C 1.03526 0.62298 0.66025
 C1334 C 1.05611 0.60703 0.67541
 C1335 C 1.06509 0.61506 0.70210
 H1336 H 1.05660 0.63314 0.71214
 O1337 O 0.86456 0.49437 0.59915
 O1338 O 0.83175 0.49596 0.63050
 C1339 C 0.84194 0.48593 0.60818
 C1340 C 0.82738 0.46413 0.59277
 C1341 C 0.80111 0.45688 0.60099
 H1342 H 0.79122 0.46735 0.61829
 O1343 O 1.12842 0.53009 0.60252
 O1344 O 1.15988 0.52921 0.63495
 C1345 C 1.15105 0.53801 0.61182
 C1346 C 1.16689 0.55805 0.59570
 C1347 C 1.19336 0.56471 0.60352
 H1348 H 1.20264 0.55469 0.62120
 O1349 O 0.89357 0.37580 0.52884
 O1350 O 0.86068 0.34561 0.53011
 C1351 C 0.88276 0.35460 0.53953
 C1352 C 0.89589 0.34089 0.56348
 C1353 C 0.88683 0.31545 0.57380
 H1354 H 0.87011 0.30516 0.56387
 O1355 O 1.09961 0.63743 0.52255
 O1356 O 1.13127 0.66897 0.52356
 C1357 C 1.10858 0.66012 0.53175
 C1358 C 1.09303 0.67687 0.55217
 C1359 C 1.10107 0.70387 0.55712
 H1360 H 1.11785 0.71250 0.54557
 Cu1361 Cu 1.10442 0.50613 0.61899
 Cu1362 Cu 1.14220 0.50485 0.65798
 Cu1363 Cu 0.88571 0.52104 0.61575
 Cu1364 Cu 0.84623 0.52308 0.65333
 Cu1365 Cu 0.99920 0.62856 0.61530
 Cu1366 Cu 1.00167 0.66863 0.65264
 Cu1367 Cu 0.98915 0.39888 0.61891
 Cu1368 Cu 0.98699 0.36146 0.65892
 C1369 C 1.06743 0.58345 0.66279
 H1370 H 1.06089 0.57724 0.64217
 C1371 C 1.08517 0.59963 0.71576
 C1372 C 0.92139 0.44727 0.66436
 H1373 H 0.92402 0.44868 0.64192
 C1374 C 0.91456 0.44399 0.72215
 C1375 C 1.07118 0.66633 0.56743
 H1376 H 1.06515 0.64531 0.56391
 C1377 C 1.08801 0.72030 0.57685
 C1378 C 0.91744 0.35395 0.57681
 H1379 H 0.92427 0.37369 0.56944
 C1380 C 0.89966 0.30332 0.59698
 C1381 C 1.15514 0.57146 0.57286
 H1382 H 1.13459 0.56674 0.56695
 C1383 C 1.20773 0.58461 0.58864
 C1384 C 0.83981 0.44980 0.57041
 H1385 H 0.86024 0.45491 0.56421
 C1386 C 0.78747 0.43576 0.58740
 C1387 C 0.92759 0.59182 0.66357
 H1388 H 0.93383 0.58500 0.64294
 C1389 C 0.91088 0.61000 0.71662
 C1390 C 1.05976 0.43884 0.66728
 H1391 H 1.05385 0.44581 0.64674
 C1392 C 1.07554 0.41956 0.71965
 C1393 C 1.14567 0.42938 0.57701
 H1394 H 1.12583 0.43595 0.57018
 C1395 C 1.19669 0.41227 0.59524
 C1396 C 0.84372 0.59046 0.56732
 H1397 H 0.86362 0.58268 0.56184
 C1398 C 0.79301 0.61183 0.58210
 C1399 C 0.93173 0.67937 0.56984
 H1400 H 0.94550 0.66777 0.55655
 C1401 C 0.89452 0.70525 0.60605
 C1402 C 1.05699 0.34664 0.57571
 H1403 H 1.05712 0.36872 0.57333
 C1404 C 1.05623 0.28970 0.58162
 O1405 O 1.10283 0.47624 0.37048
 O1406 O 1.13410 0.47260 0.33759
 C1407 C 1.11130 0.46587 0.34767
 C1408 C 1.09471 0.44604 0.33210
 C1409 C 1.10225 0.43931 0.30473
 H1410 H 1.11974 0.44867 0.29508
 O1411 O 0.90123 0.53459 0.35780
 O1412 O 0.86832 0.53665 0.32698
 C1413 C 0.89052 0.54547 0.33638
 C1414 C 0.90318 0.56959 0.32325
 C1415 C 0.88710 0.58835 0.30841
 H1416 H 0.86571 0.58462 0.30578
 O1417 O 0.98083 0.63684 0.39215
 O1418 O 0.98371 0.66865 0.35971
 C1419 C 0.97410 0.66017 0.38273
 C1420 C 0.95430 0.67717 0.39835
 C1421 C 0.94731 0.70352 0.38900
 H1422 H 0.95711 0.71211 0.37078
 O1423 O 1.02345 0.36817 0.39850
 O1424 O 1.02331 0.33683 0.36511
 C1425 C 1.03301 0.34626 0.38761
 C1426 C 1.05713 0.33299 0.39985
 C1427 C 1.07556 0.31914 0.38218
 H1428 H 1.07120 0.31691 0.36013
 O1429 O 1.12795 0.40040 0.47635
 O1430 O 1.15803 0.36696 0.47973
 C1431 C 1.15017 0.38934 0.46883
 C1432 C 1.16638 0.40198 0.44632
 C1433 C 1.18730 0.38700 0.43333
 H1434 H 1.19240 0.36655 0.44039
 O1435 O 0.87325 0.61185 0.46891
 O1436 O 0.84149 0.64379 0.46700
 C1437 C 0.85088 0.62061 0.45933
 C1438 C 0.83514 0.60346 0.43974
 C1439 C 0.80763 0.60913 0.43552
 H1440 H 0.79786 0.62602 0.44648
 O1441 O 1.02997 0.59407 0.35402
 O1442 O 1.03226 0.62529 0.32097
 C1443 C 1.04079 0.60319 0.33189
 C1444 C 1.06537 0.58962 0.32054
 C1445 C 1.08004 0.60209 0.29889
 H1446 H 1.07201 0.61995 0.28834
 O1447 O 0.97188 0.40741 0.35980
 O1448 O 0.97183 0.37570 0.32679
 C1449 C 0.96329 0.39840 0.33646
 C1450 C 0.94324 0.41462 0.32053
 C1451 C 0.93961 0.41049 0.29168
 H1452 H 0.95168 0.39532 0.28055
 O1453 O 1.14492 0.52874 0.40390
 O1454 O 1.17596 0.52486 0.37080
 C1455 C 1.16679 0.53667 0.39254
 C1456 C 1.18015 0.56141 0.40351
 C1457 C 1.19470 0.57863 0.38536
 H1458 H 1.19810 0.57245 0.36384
 O1459 O 0.86500 0.47948 0.39480
 O1460 O 0.83404 0.47978 0.36182
 C1461 C 0.84378 0.46954 0.38389
 C1462 C 0.83131 0.44474 0.39588
 C1463 C 0.81820 0.42607 0.37814
 H1464 H 0.81669 0.43033 0.35601
 O1465 O 1.10134 0.63333 0.46807
 O1466 O 1.13274 0.66518 0.46893
 C1467 C 1.11167 0.65485 0.45808
 C1468 C 1.10003 0.66704 0.43265
 C1469 C 1.11374 0.68810 0.41883
 H1470 H 1.13200 0.69672 0.42749
 O1471 O 0.89946 0.37654 0.47450
 O1472 O 0.86714 0.34567 0.47542
 C1473 C 0.88963 0.35421 0.46576
 C1474 C 0.90393 0.33867 0.44336
 C1475 C 0.89434 0.31316 0.43455
 H1476 H 0.87710 0.30403 0.44490
 O1477 O 0.90336 0.48119 0.35813
 O1478 O 0.87261 0.48312 0.32501
 C1479 C 0.89442 0.47313 0.33478
 C1480 C 0.90955 0.45148 0.31955
 C1481 C 0.90620 0.44720 0.29077
 H1482 H 0.89255 0.46015 0.27903
 O1483 O 1.10652 0.52874 0.36741
 O1484 O 1.13796 0.52488 0.33467
 C1485 C 1.11641 0.53598 0.34406
 C1486 C 1.10323 0.55799 0.32791
 C1487 C 1.11777 0.57136 0.30686
 H1488 H 1.13842 0.56536 0.30206
 O1489 O 0.97039 0.37218 0.40075
 O1490 O 0.97009 0.34024 0.36804
 C1491 C 0.96082 0.35018 0.39091
 C1492 C 0.93836 0.33671 0.40624
 C1493 C 0.92824 0.31118 0.39767
 H1494 H 0.93720 0.30067 0.37987
 O1495 O 1.03274 0.63193 0.39124
 O1496 O 1.03536 0.66301 0.35801
 C1497 C 1.04383 0.65297 0.38078
 C1498 C 1.06736 0.66550 0.39457
 C1499 C 1.08167 0.68630 0.38098
 H1500 H 1.07526 0.69376 0.36078
 O1501 O 0.86027 0.41149 0.47057
 O1502 O 0.82773 0.38085 0.47196
 C1503 C 0.83871 0.40135 0.46054
 C1504 C 0.82789 0.41179 0.43386
 C1505 C 0.81394 0.39381 0.41598
 H1506 H 0.80948 0.37317 0.42277
 O1507 O 1.14202 0.60003 0.47070
 O1508 O 1.17300 0.63231 0.47273
 C1509 C 1.16426 0.61029 0.46225
 C1510 C 1.17876 0.59789 0.43826
 C1511 C 1.19358 0.61473 0.42008
 H1512 H 1.19622 0.63622 0.42513
 O1513 O 1.02423 0.40889 0.36458
 O1514 O 1.02456 0.37783 0.33091
 C1515 C 1.03400 0.39963 0.34187
 C1516 C 1.05701 0.41401 0.32866
 C1517 C 1.06515 0.40753 0.30120
 H1518 H 1.05416 0.39241 0.28927
 O1519 O 0.97644 0.59956 0.35372
 O1520 O 0.97853 0.63147 0.32134
 C1521 C 0.96700 0.61080 0.33192
 C1522 C 0.94101 0.60129 0.32037
 C1523 C 0.92459 0.61967 0.30537
 H1524 H 0.93184 0.64003 0.30060
 O1525 O 0.86755 0.53312 0.39928
 O1526 O 0.83463 0.53360 0.36843
 C1527 C 0.84519 0.54261 0.39087
 C1528 C 0.83195 0.56496 0.40695
 C1529 C 0.80448 0.57100 0.40309
 H1530 H 0.79264 0.55865 0.38891
 O1531 O 1.14063 0.47489 0.40779
 O1532 O 1.17187 0.47086 0.37497
 C1533 C 1.16149 0.46298 0.39786
 C1534 C 1.17257 0.43850 0.41207
 C1535 C 1.19402 0.42347 0.39994
 H1536 H 1.20407 0.43082 0.38129
 O1537 O 1.09004 0.36469 0.47337
 O1538 O 1.12051 0.33153 0.47582
 C1539 C 1.10029 0.34250 0.46395
 C1540 C 1.09011 0.33084 0.43749
 C1541 C 1.10813 0.31682 0.41948
 H1542 H 1.12874 0.31293 0.42598
 O1543 O 0.91296 0.64702 0.46928
 O1544 O 0.88255 0.68002 0.46601
 C1545 C 0.90468 0.66899 0.45820
 C1546 C 0.92040 0.68138 0.43537
 C1547 C 0.91351 0.70746 0.42560
 H1548 H 0.89748 0.71903 0.43582
 Cu1549 Cu 1.12091 0.50257 0.39109
 Cu1550 Cu 1.15833 0.49764 0.35141
 Cu1551 Cu 0.88738 0.50698 0.38067
 Cu1552 Cu 0.84913 0.50839 0.34248
 Cu1553 Cu 1.11645 0.61378 0.49655
 Cu1554 Cu 1.15375 0.65217 0.49840
 Cu1555 Cu 1.10350 0.38649 0.50190
 Cu1556 Cu 1.13936 0.34609 0.50568
 Cu1557 Cu 0.89450 0.62833 0.49631
 Cu1558 Cu 0.85764 0.66750 0.49197
 Cu1559 Cu 0.88204 0.39875 0.49984
 Cu1560 Cu 0.84314 0.36239 0.50112
 Cu1561 Cu 1.00456 0.61212 0.37579
 Cu1562 Cu 1.00756 0.64996 0.33634
 Cu1563 Cu 0.99721 0.39207 0.38424
 Cu1564 Cu 0.99734 0.35449 0.34448
 C1565 C 1.07183 0.43360 0.34395
 H1566 H 1.06606 0.43859 0.36525
 C1567 C 1.08774 0.42040 0.28931
 C1568 C 0.93019 0.57612 0.32892
 H1569 H 0.94233 0.56229 0.34137
 C1570 C 0.89752 0.61356 0.29990
 C1571 C 0.94102 0.66643 0.42184
 H1572 H 0.94596 0.64596 0.42893
 C1573 C 0.92684 0.71855 0.40240
 C1574 C 1.06451 0.33858 0.42756
 H1575 H 1.05102 0.35052 0.44085
 C1576 C 1.10126 0.31166 0.39163
 C1577 C 1.15927 0.42783 0.43567
 H1578 H 1.14245 0.43903 0.44491
 C1579 C 1.20109 0.39768 0.41035
 C1580 C 0.84709 0.58108 0.42563
 H1581 H 0.86836 0.57665 0.42864
 C1582 C 0.79224 0.59290 0.41763
 C1583 C 1.07697 0.56717 0.33462
 H1584 H 1.06610 0.55765 0.35166
 C1585 C 1.10628 0.59324 0.29248
 C1586 C 0.92816 0.43515 0.33416
 H1587 H 0.93081 0.43832 0.35639
 C1588 C 0.92131 0.42688 0.27678
 C1589 C 1.17295 0.57103 0.43017
 H1590 H 1.16064 0.55842 0.44371
 C1591 C 1.20105 0.60553 0.39335
 C1592 C 0.83614 0.43740 0.42372
 H1593 H 0.84763 0.45097 0.43705
 C1594 C 0.80998 0.40041 0.38784
 C1595 C 1.07666 0.65594 0.42048
 H1596 H 1.06610 0.63942 0.43080
 C1597 C 1.10468 0.69742 0.39303
 C1598 C 0.92616 0.35013 0.42930
 H1599 H 0.93343 0.37004 0.43580
 C1600 C 0.90625 0.29941 0.41192
 O1601 O 0.58926 1.02161 0.63844
 O1602 O 0.62051 1.02371 0.67100
 C1603 C 0.59903 1.03300 0.66005
 C1604 C 0.58631 1.05828 0.67158
 C1605 C 0.59996 1.07385 0.69186
 H1606 H 0.61906 1.06677 0.70020
 O1607 O 0.39530 0.97162 0.62657
 O1608 O 0.36518 0.97239 0.66079
 C1609 C 0.38726 0.96348 0.65027
 C1610 C 0.40383 0.94366 0.66586
 C1611 C 0.40022 0.94107 0.69476
 H1612 H 0.38536 0.95359 0.70571
 O1613 O 0.51762 1.13471 0.59394
 O1614 O 0.51603 1.16644 0.62691
 C1615 C 0.52585 1.15717 0.60416
 C1616 C 0.54794 1.17189 0.59006
 C1617 C 0.55634 1.19758 0.59979
 H1618 H 0.54577 1.20760 0.61695
 O1619 O 0.47172 0.86004 0.59280
 O1620 O 0.46867 0.82895 0.62590
 C1621 C 0.46146 0.83824 0.60234
 C1622 C 0.44045 0.82367 0.58645
 C1623 C 0.43260 0.79756 0.59498
 H1624 H 0.44272 0.78760 0.61224
 O1625 O 0.62536 1.09354 0.52540
 O1626 O 0.65806 1.12392 0.52743
 C1627 C 0.64751 1.10158 0.53561
 C1628 C 0.66139 1.08478 0.55700
 C1629 C 0.68824 1.09049 0.56395
 H1630 H 0.69866 1.10703 0.55355
 O1631 O 0.35926 0.89562 0.52103
 O1632 O 0.32884 0.86283 0.52015
 C1633 C 0.33780 0.88489 0.53066
 C1634 C 0.32425 0.89719 0.55551
 C1635 C 0.30758 0.88096 0.57253
 H1636 H 0.30343 0.85995 0.56661
 O1637 O 0.46648 1.09446 0.63060
 O1638 O 0.46568 1.12551 0.66427
 C1639 C 0.45695 1.10341 0.65356
 C1640 C 0.43478 1.08869 0.66753
 C1641 C 0.42656 1.09673 0.69438
 H1642 H 0.43741 1.11274 0.70520
 O1643 O 0.52162 0.89602 0.63587
 O1644 O 0.51780 0.86515 0.66916
 C1645 C 0.52823 0.88691 0.65975
 C1646 C 0.54880 0.90139 0.67633
 C1647 C 0.55719 0.89127 0.70224
 H1648 H 0.54780 0.87323 0.71100
 O1649 O 0.62700 0.96471 0.60472
 O1650 O 0.65726 0.96602 0.63835
 C1651 C 0.64831 0.95532 0.61609
 C1652 C 0.66189 0.93072 0.60420
 C1653 C 0.67657 0.91313 0.62174
 H1654 H 0.67880 0.91816 0.64367
 O1655 O 0.35529 1.02262 0.58903
 O1656 O 0.32409 1.02264 0.62209
 C1657 C 0.33317 1.03168 0.59903
 C1658 C 0.31864 1.05367 0.58398
 C1659 C 0.29279 1.06242 0.59241
 H1660 H 0.28253 1.05232 0.60952
 O1661 O 0.39382 1.13277 0.52298
 O1662 O 0.36218 1.16484 0.52199
 C1663 C 0.38327 1.15462 0.53290
 C1664 C 0.39504 1.16755 0.55803
 C1665 C 0.37999 1.18679 0.57377
 H1666 H 0.35997 1.19296 0.56714
 O1667 O 0.59677 0.85818 0.53042
 O1668 O 0.62836 0.82600 0.52904
 C1669 C 0.60696 0.83605 0.53980
 C1670 C 0.59494 0.82331 0.56494
 C1671 C 0.61163 0.80952 0.58411
 H1672 H 0.63295 0.80673 0.57952
 O1673 O 0.39206 1.02449 0.62789
 O1674 O 0.36088 1.02510 0.66101
 C1675 C 0.38288 1.03402 0.65091
 C1676 C 0.39802 1.05556 0.66610
 C1677 C 0.39005 1.06402 0.69315
 H1678 H 0.37275 1.05479 0.70327
 O1679 O 0.58850 0.96790 0.64160
 O1680 O 0.61886 0.96972 0.67503
 C1681 C 0.59735 0.95969 0.66496
 C1682 C 0.58287 0.93723 0.67932
 C1683 C 0.59136 0.92662 0.70518
 H1684 H 0.60822 0.93584 0.71593
 O1685 O 0.52453 0.85807 0.59792
 O1686 O 0.52173 0.82767 0.63175
 C1687 C 0.53324 0.83658 0.60985
 C1688 C 0.55836 0.82332 0.59938
 C1689 C 0.57519 0.80911 0.61801
 H1690 H 0.56866 0.80603 0.63941
 O1691 O 0.46477 1.13409 0.59526
 O1692 O 0.46341 1.16504 0.62902
 C1693 C 0.45428 1.15547 0.60632
 C1694 C 0.43016 1.16835 0.59366
 C1695 C 0.41501 1.18797 0.60880
 H1696 H 0.42173 1.19496 0.62911
 O1697 O 0.35740 1.09544 0.51894
 O1698 O 0.32572 1.12744 0.51756
 C1699 C 0.33473 1.10493 0.52716
 C1700 C 0.31940 1.08980 0.54875
 C1701 C 0.29353 1.09840 0.55753
 H1702 H 0.28400 1.11589 0.54771
 O1703 O 0.63248 0.89613 0.53106
 O1704 O 0.66366 0.86356 0.52986
 C1705 C 0.65382 0.88529 0.54080
 C1706 C 0.66558 0.89670 0.56671
 C1707 C 0.68077 0.87967 0.58445
 H1708 H 0.68588 0.85895 0.57797
 O1709 O 0.46979 0.89894 0.63008
 O1710 O 0.46654 0.86830 0.66368
 C1711 C 0.45928 0.89088 0.65281
 C1712 C 0.43882 0.90818 0.66709
 C1713 C 0.43500 0.90597 0.69604
 H1714 H 0.44698 0.89142 0.70779
 O1715 O 0.51936 1.09711 0.63191
 O1716 O 0.51829 1.12902 0.66473
 C1717 C 0.52854 1.10727 0.65443
 C1718 C 0.55221 1.09468 0.66827
 C1719 C 0.56651 1.10997 0.68815
 H1720 H 0.55993 1.13051 0.69382
 O1721 O 0.35595 0.96875 0.59179
 O1722 O 0.32560 0.96856 0.62570
 C1723 C 0.33516 0.95837 0.60325
 C1724 C 0.32314 0.93316 0.59130
 C1725 C 0.30681 0.91634 0.60811
 H1726 H 0.30199 0.92243 0.62937
 O1727 O 0.62481 1.01778 0.59914
 O1728 O 0.65640 1.01916 0.63142
 C1729 C 0.64689 1.02719 0.60815
 C1730 C 0.66134 1.04816 0.59182
 C1731 C 0.68820 1.05425 0.59827
 H1732 H 0.69866 1.04308 0.61451
 O1733 O 0.39848 0.86023 0.51987
 O1734 O 0.36821 0.82731 0.51891
 C1735 C 0.38985 0.83742 0.52872
 C1736 C 0.40500 0.82304 0.55102
 C1737 C 0.39719 0.79688 0.56032
 H1738 H 0.38020 0.78663 0.55082
 O1739 O 0.59128 1.13454 0.52424
 O1740 O 0.62349 1.16543 0.52639
 C1741 C 0.60069 1.15657 0.53441
 C1742 C 0.58501 1.17148 0.55618
 C1743 C 0.59322 1.19721 0.56619
 H1744 H 0.61094 1.20682 0.55731
 Cu1745 Cu 0.60419 0.99266 0.61787
 Cu1746 Cu 0.64131 0.99501 0.65728
 Cu1747 Cu 0.37746 0.99706 0.60527
 Cu1748 Cu 0.34064 0.99720 0.64559
 Cu1749 Cu 0.49225 1.11198 0.60951
 Cu1750 Cu 0.49076 1.14959 0.64964
 Cu1751 Cu 0.49727 0.88123 0.61068
 Cu1752 Cu 0.49290 0.84405 0.65064
 C1753 C 0.56224 1.06878 0.66006
 H1754 H 0.55183 1.05727 0.64404
 C1755 C 0.59025 1.09975 0.69980
 C1756 C 0.42344 0.92740 0.65214
 H1757 H 0.42633 0.92926 0.62978
 C1758 C 0.41596 0.92269 0.70992
 C1759 C 0.56214 1.15920 0.56803
 H1760 H 0.55597 1.13914 0.56079
 C1761 C 0.57881 1.21034 0.58799
 C1762 C 0.42687 0.83617 0.56415
 H1763 H 0.43273 0.85654 0.55772
 C1764 C 0.41116 0.78423 0.58233
 C1765 C 0.64809 1.06327 0.57083
 H1766 H 0.62721 1.05890 0.56594
 C1767 C 0.70164 1.07525 0.58452
 C1768 C 0.33151 0.92347 0.56489
 H1769 H 0.34502 0.93575 0.55231
 C1770 C 0.29930 0.89015 0.59902
 C1771 C 0.42060 1.06792 0.65358
 H1772 H 0.42673 1.06188 0.63266
 C1773 C 0.40426 1.08455 0.70730
 C1774 C 0.56136 0.92459 0.66539
 H1775 H 0.55498 0.93222 0.64526
 C1776 C 0.57836 0.90358 0.71672
 C1777 C 0.65675 0.92246 0.57663
 H1778 H 0.64434 0.93536 0.56346
 C1779 C 0.68570 0.88751 0.61216
 C1780 C 0.33155 1.06723 0.56190
 H1781 H 0.35169 1.06080 0.55559
 C1782 C 0.28015 1.08463 0.57932
 C1783 C 0.42021 1.15860 0.56808
 H1784 H 0.43155 1.14315 0.55653
 C1785 C 0.38990 1.19694 0.59909
 C1786 C 0.56823 0.82977 0.57268
 H1787 H 0.55574 0.84163 0.55861
 C1788 C 0.60203 0.80283 0.61083
 O1789 O 0.59723 0.96768 0.36157
 O1790 O 0.62984 0.96746 0.32995
 C1791 C 0.60769 0.95813 0.33921
 C1792 C 0.59414 0.93593 0.32374
 C1793 C 0.60446 0.92717 0.29788
 H1794 H 0.62214 0.93685 0.28897
 O1795 O 0.40064 1.02420 0.35473
 O1796 O 0.36888 1.02493 0.32258
 C1797 C 0.39009 1.03498 0.33330
 C1798 C 0.40087 1.06113 0.32271
 C1799 C 0.38299 1.07998 0.31038
 H1800 H 0.36215 1.07440 0.30669
 O1801 O 0.47406 1.13233 0.39823
 O1802 O 0.47521 1.16467 0.36621
 C1803 C 0.46582 1.15520 0.38901
 C1804 C 0.44443 1.17035 0.40451
 C1805 C 0.43774 1.19734 0.39729
 H1806 H 0.44883 1.20770 0.38092
 O1807 O 0.52366 0.86345 0.39763
 O1808 O 0.52576 0.83041 0.36604
 C1809 C 0.53341 0.84075 0.38913
 C1810 C 0.55369 0.82600 0.40618
 C1811 C 0.55926 0.79825 0.40066
 H1812 H 0.54860 0.78753 0.38425
 O1813 O 0.63292 0.89741 0.47644
 O1814 O 0.66425 0.86507 0.47473
 C1815 C 0.65486 0.88785 0.46630
 C1816 C 0.66925 0.90314 0.44411
 C1817 C 0.69548 0.89536 0.43571
 H1818 H 0.70573 0.87846 0.44586
 O1819 O 0.36098 1.09654 0.46482
 O1820 O 0.32986 1.12906 0.46327
 C1821 C 0.33963 1.10654 0.45420
 C1822 C 0.32605 1.09190 0.43105
 C1823 C 0.30088 1.10106 0.42127
 H1824 H 0.29126 1.11874 0.43094
 O1825 O 0.52357 1.09209 0.35815
 O1826 O 0.52346 1.12274 0.32444
 C1827 C 0.53212 1.10032 0.33467
 C1828 C 0.55296 1.08384 0.31983
 C1829 C 0.55785 1.08705 0.29113
 H1830 H 0.54581 1.10130 0.27908
 O1831 O 0.47203 0.89884 0.35580
 O1832 O 0.47338 0.86550 0.32456
 C1833 C 0.46331 0.88802 0.33349
 C1834 C 0.44047 0.90113 0.31847
 C1835 C 0.42772 0.88725 0.29654
 H1836 H 0.43506 0.86729 0.28980
 O1837 O 0.63220 1.02256 0.39955
 O1838 O 0.66435 1.02247 0.36744
 C1839 C 0.65424 1.03195 0.38994
 C1840 C 0.66804 1.05441 0.40478
 C1841 C 0.69344 1.06347 0.39570
 H1842 H 0.70351 1.05357 0.37817
 O1843 O 0.36434 0.96980 0.39180
 O1844 O 0.33287 0.96993 0.35939
 C1845 C 0.34225 0.96078 0.38220
 C1846 C 0.32732 0.93949 0.39774
 C1847 C 0.30041 0.93370 0.39107
 H1848 H 0.29032 0.94485 0.37457
 O1849 O 0.59360 1.13394 0.46985
 O1850 O 0.62622 1.16444 0.47132
 C1851 C 0.60468 1.15539 0.46037
 C1852 C 0.59309 1.16865 0.43528
 C1853 C 0.60712 1.18944 0.42101
 H1854 H 0.62583 1.19739 0.42927
 O1855 O 0.39796 0.85980 0.46557
 O1856 O 0.36736 0.82717 0.46451
 C1857 C 0.38943 0.83719 0.45578
 C1858 C 0.40570 0.82230 0.43444
 C1859 C 0.40322 0.79376 0.43099
 H1860 H 0.38913 0.78242 0.44381
 O1861 O 0.40088 0.97025 0.35249
 O1862 O 0.36984 0.97016 0.31970
 C1863 C 0.39167 0.96067 0.32975
 C1864 C 0.40572 0.93713 0.31599
 C1865 C 0.39378 0.92319 0.29340
 H1866 H 0.37501 0.93059 0.28457
 O1867 O 0.59549 1.02092 0.36102
 O1868 O 0.62746 1.02041 0.32868
 C1869 C 0.60489 1.02932 0.33791
 C1870 C 0.58918 1.04953 0.32170
 C1871 C 0.59411 1.05329 0.29309
 H1872 H 0.60971 1.04146 0.28244
 O1873 O 0.47128 0.86058 0.39344
 O1874 O 0.47371 0.82720 0.36223
 C1875 C 0.46344 0.83741 0.38435
 C1876 C 0.44225 0.82231 0.39983
 C1877 C 0.43974 0.79372 0.39697
 H1878 H 0.45358 0.78235 0.38355
 O1879 O 0.52672 1.13170 0.39453
 O1880 O 0.52797 1.16240 0.36093
 C1881 C 0.53712 1.15295 0.38365
 C1882 C 0.56050 1.16641 0.39711
 C1883 C 0.57525 1.18652 0.38285
 H1884 H 0.56936 1.19268 0.36204
 O1885 O 0.36148 0.89835 0.46643
 O1886 O 0.33036 0.86627 0.46520
 C1887 C 0.33976 0.88893 0.45646
 C1888 C 0.32583 0.90450 0.43418
 C1889 C 0.29883 0.89911 0.42726
 H1890 H 0.28780 0.88359 0.43860
 O1891 O 0.63011 1.09616 0.47141
 O1892 O 0.66272 1.12667 0.47359
 C1893 C 0.65289 1.10498 0.46315
 C1894 C 0.66756 1.09018 0.44062
 C1895 C 0.69291 1.09917 0.43109
 H1896 H 0.70239 1.11667 0.44086
 O1897 O 0.52515 0.89735 0.35607
 O1898 O 0.52688 0.86481 0.32400
 C1899 C 0.53558 0.88725 0.33390
 C1900 C 0.55866 0.90149 0.32041
 C1901 C 0.56918 0.89315 0.29417
 H1902 H 0.55978 0.87658 0.28278
 O1903 O 0.47066 1.09657 0.35866
 O1904 O 0.47072 1.12901 0.32668
 C1905 C 0.46042 1.10761 0.33710
 C1906 C 0.43505 1.09691 0.32529
 C1907 C 0.41673 1.11538 0.31309
 H1908 H 0.42181 1.13687 0.31127
 O1909 O 0.36231 1.02321 0.39117
 O1910 O 0.33086 1.02287 0.35870
 C1911 C 0.34022 1.03246 0.38136
 C1912 C 0.32591 1.05530 0.39590
 C1913 C 0.30062 1.06477 0.38649
 H1914 H 0.29077 1.05470 0.36914
 O1915 O 0.63229 0.96922 0.40144
 O1916 O 0.66492 0.96921 0.36984
 C1917 C 0.65485 0.96021 0.39248
 C1918 C 0.66925 0.93864 0.40821
 C1919 C 0.69553 0.93071 0.40035
 H1920 H 0.70560 0.94102 0.38329
 O1921 O 0.59410 0.86172 0.47576
 O1922 O 0.62490 0.82883 0.47442
 C1923 C 0.60287 0.83927 0.46566
 C1924 C 0.58744 0.82520 0.44342
 C1925 C 0.59271 0.79750 0.43734
 H1926 H 0.60774 0.78641 0.44923
 O1927 O 0.39893 1.13303 0.46872
 O1928 O 0.36814 1.16590 0.46755
 C1929 C 0.39075 1.15594 0.45953
 C1930 C 0.40760 1.17074 0.43892
 C1931 C 0.40147 1.19790 0.43161
 H1932 H 0.38470 1.20850 0.44164
 Cu1933 Cu 0.61106 0.99521 0.38413
 Cu1934 Cu 0.64997 0.99491 0.34583
 Cu1935 Cu 0.38527 0.99669 0.37564
 Cu1936 Cu 0.34778 0.99661 0.33648
 Cu1937 Cu 0.60676 1.11161 0.49763
 Cu1938 Cu 0.64576 1.14833 0.50027
 Cu1939 Cu 0.61098 0.88155 0.50342
 Cu1940 Cu 0.64851 0.84266 0.50132
 Cu1941 Cu 0.38093 1.11126 0.49391
 Cu1942 Cu 0.34339 1.15014 0.49222
 Cu1943 Cu 0.38222 0.88177 0.49323
 Cu1944 Cu 0.34550 0.84275 0.49193
 Cu1945 Cu 0.49887 1.10996 0.38055
 Cu1946 Cu 0.49951 1.14783 0.34128
 Cu1947 Cu 0.49781 0.88343 0.37869
 Cu1948 Cu 0.50025 0.84385 0.34090
 C1949 C 0.57119 0.92314 0.33477
 H1950 H 0.56347 0.92967 0.35498
 C1951 C 0.59212 0.90620 0.28288
 C1952 C 0.42697 1.06977 0.33009
 H1953 H 0.44046 1.05582 0.34083
 C1954 C 0.39060 1.10719 0.30629
 C1955 C 0.42942 1.15729 0.42557
 H1956 H 0.43409 1.13622 0.43084
 C1957 C 0.41660 1.21122 0.41087
 C1958 C 0.56763 0.83930 0.42791
 H1959 H 0.56354 0.86075 0.43228
 C1960 C 0.57846 0.78394 0.41618
 C1961 C 0.65638 0.92500 0.43037
 H1962 H 0.63598 0.93084 0.43634
 C1963 C 0.70871 0.90913 0.41406
 C1964 C 0.33830 1.06888 0.41837
 H1965 H 0.35788 1.06193 0.42559
 C1966 C 0.28801 1.08755 0.39905
 C1967 C 0.56853 1.06481 0.33482
 H1968 H 0.56492 1.06224 0.35699
 C1969 C 0.57826 1.07169 0.27779
 C1970 C 0.42944 0.92621 0.32789
 H1971 H 0.43858 0.93657 0.34548
 C1972 C 0.40461 0.89812 0.28393
 C1973 C 0.65541 1.06767 0.42745
 H1974 H 0.63569 1.06089 0.43435
 C1975 C 0.70587 1.08577 0.40861
 C1976 C 0.33980 0.92495 0.41946
 H1977 H 0.36065 0.92922 0.42456
 C1978 C 0.28600 0.91394 0.40587
 C1979 C 0.56947 1.15782 0.42340
 H1980 H 0.55862 1.14175 0.43411
 C1981 C 0.59831 1.19818 0.39466
 C1982 C 0.42522 0.83635 0.41874
 H1983 H 0.42726 0.85831 0.42137
 C1984 C 0.42043 0.77938 0.41261
 O1985 O 0.60937 0.52006 1.13620
 O1986 O 0.64188 0.52225 1.16743
 C1987 C 0.61893 0.53008 1.15852
 C1988 C 0.60312 0.55076 1.17450
 C1989 C 0.61004 0.55684 1.20222
 H1990 H 0.62684 0.54638 1.21204
 O1991 O 0.41229 0.47347 1.15355
 O1992 O 0.38328 0.47411 1.18873
 C1993 C 0.40513 0.46534 1.17754
 C1994 C 0.42268 0.44554 1.19226
 C1995 C 0.42179 0.44327 1.22144
 H1996 H 0.40785 0.45579 1.23362
 O1997 O 0.53154 0.62691 1.10265
 O1998 O 0.53577 0.65932 1.13459
 C1999 C 0.54222 0.64903 1.11098
 C2000 C 0.56209 0.66339 1.09315
 C2001 C 0.56693 0.69130 1.09795
 H2002 H 0.55607 0.70226 1.11431
 O2003 O 0.48441 0.36315 1.11428
 O2004 O 0.48613 0.33180 1.14722
 C2005 C 0.47607 0.34078 1.12473
 C2006 C 0.45444 0.32519 1.11061
 C2007 C 0.44741 0.29876 1.11961
 H2008 H 0.45804 0.28930 1.13680
 O2009 O 0.64260 0.59202 1.02076
 O2010 O 0.67308 0.62471 1.02188
 C2011 C 0.66441 0.60175 1.03038
 C2012 C 0.67951 0.58656 1.05214
 C2013 C 0.70559 0.59483 1.05982
 H2014 H 0.71520 0.61180 1.04926
 O2015 O 0.37260 0.39473 1.04705
 O2016 O 0.34150 0.36270 1.04969
 C2017 C 0.35125 0.38518 1.05819
 C2018 C 0.33760 0.40033 1.08124
 C2019 C 0.31158 0.39286 1.09018
 H2020 H 0.30139 0.37602 1.07998
 O2021 O 0.47967 0.59439 1.14692
 O2022 O 0.48321 0.62763 1.17811
 C2023 C 0.47144 0.60633 1.16909
 C2024 C 0.44637 0.59693 1.18292
 C2025 C 0.42914 0.61632 1.19584
 H2026 H 0.43512 0.63761 1.19709
 O2027 O 0.53931 0.40046 1.14929
 O2028 O 0.54109 0.36864 1.18179
 C2029 C 0.55014 0.39046 1.17111
 C2030 C 0.57440 0.40349 1.18317
 C2031 C 0.58892 0.39063 1.20473
 H2032 H 0.58172 0.37171 1.21374
 O2033 O 0.64739 0.46584 1.09917
 O2034 O 0.67960 0.46725 1.13080
 C2035 C 0.66929 0.45647 1.10917
 C2036 C 0.68139 0.43135 1.09677
 C2037 C 0.69495 0.41251 1.11401
 H2038 H 0.69842 0.41756 1.13576
 O2039 O 0.37059 0.52307 1.11605
 O2040 O 0.33970 0.52246 1.14947
 C2041 C 0.34821 0.53142 1.12612
 C2042 C 0.33260 0.55230 1.11060
 C2043 C 0.30507 0.55732 1.11626
 H2044 H 0.29455 0.54543 1.13191
 O2045 O 0.40338 0.63535 1.04398
 O2046 O 0.37154 0.66709 1.04729
 C2047 C 0.39420 0.65739 1.05485
 C2048 C 0.41004 0.67123 1.07685
 C2049 C 0.40057 0.69534 1.09017
 H2050 H 0.38172 0.70479 1.08386
 O2051 O 0.60372 0.36501 1.02833
 O2052 O 0.63404 0.33170 1.02572
 C2053 C 0.61324 0.34254 1.03727
 C2054 C 0.60095 0.32950 1.06216
 C2055 C 0.61340 0.30639 1.07385
 H2056 H 0.63112 0.29726 1.06405
 O2057 O 0.40824 0.52676 1.15291
 O2058 O 0.37742 0.52774 1.18641
 C2059 C 0.39842 0.53756 1.17500
 C2060 C 0.41047 0.56301 1.18612
 C2061 C 0.39390 0.58247 1.19983
 H2062 H 0.37287 0.57786 1.20400
 O2063 O 0.61253 0.46718 1.13971
 O2064 O 0.64516 0.46968 1.17080
 C2065 C 0.62318 0.45933 1.16246
 C2066 C 0.61040 0.43717 1.17871
 C2067 C 0.62457 0.42407 1.20030
 H2068 H 0.64463 0.43080 1.20594
 O2069 O 0.53653 0.36631 1.10811
 O2070 O 0.53881 0.33447 1.14056
 C2071 C 0.54673 0.34425 1.11727
 C2072 C 0.56871 0.33039 1.10129
 C2073 C 0.58164 0.30729 1.11251
 H2074 H 0.57482 0.29898 1.13223
 O2075 O 0.47920 0.63186 1.10943
 O2076 O 0.48419 0.66438 1.14116
 C2077 C 0.47204 0.65480 1.12004
 C2078 C 0.44844 0.66976 1.10867
 C2079 C 0.43825 0.69324 1.12225
 H2080 H 0.44829 0.70130 1.14055
 O2081 O 0.36811 0.59627 1.04406
 O2082 O 0.33586 0.62770 1.04637
 C2083 C 0.34601 0.60504 1.05434
 C2084 C 0.33194 0.58859 1.07563
 C2085 C 0.30460 0.59335 1.08150
 H2086 H 0.29383 0.60912 1.07016
 O2087 O 0.64411 0.39760 1.02630
 O2088 O 0.67445 0.36432 1.02315
 C2089 C 0.66577 0.38613 1.03471
 C2090 C 0.67937 0.39661 1.06000
 C2091 C 0.69250 0.37796 1.07776
 H2092 H 0.69425 0.35656 1.07177
 O2093 O 0.48625 0.40374 1.15022
 O2094 O 0.48866 0.37276 1.18353
 C2095 C 0.47901 0.39510 1.17401
 C2096 C 0.45919 0.41140 1.19054
 C2097 C 0.45844 0.40987 1.21979
 H2098 H 0.47250 0.39666 1.23071
 O2099 O 0.53284 0.59064 1.14247
 O2100 O 0.53656 0.62263 1.17488
 C2101 C 0.54397 0.59980 1.16441
 C2102 C 0.56616 0.58419 1.17763
 C2103 C 0.57343 0.58992 1.20534
 H2104 H 0.56208 0.60506 1.21729
 O2105 O 0.37271 0.46990 1.11874
 O2106 O 0.34312 0.46924 1.15336
 C2107 C 0.35185 0.45978 1.13022
 C2108 C 0.33781 0.43674 1.11647
 C2109 C 0.31179 0.42893 1.12517
 H2110 H 0.30162 0.43990 1.14198
 O2111 O 0.64557 0.51955 1.09651
 O2112 O 0.67847 0.52137 1.12728
 C2113 C 0.66776 0.52957 1.10474
 C2114 C 0.68106 0.55136 1.08837
 C2115 C 0.70706 0.56004 1.09565
 H2116 H 0.71766 0.55014 1.11260
 O2117 O 0.41156 0.35874 1.04302
 O2118 O 0.38050 0.32668 1.04569
 C2119 C 0.40301 0.33657 1.05337
 C2120 C 0.41903 0.32288 1.07531
 C2121 C 0.41230 0.29656 1.08457
 H2122 H 0.39585 0.28569 1.07477
 O2123 O 0.60304 0.62733 1.02299
 O2124 O 0.63298 0.66058 1.02383
 C2125 C 0.61130 0.64984 1.03298
 C2126 C 0.59558 0.66387 1.05530
 C2127 C 0.59996 0.69178 1.06055
 H2128 H 0.61452 0.70289 1.04808
 Cu2129 Cu 0.62558 0.49298 1.11466
 Cu2130 Cu 0.66480 0.49580 1.15195
 Cu2131 Cu 0.39395 0.49824 1.13196
 Cu2132 Cu 0.35793 0.49820 1.17306
 Cu2133 Cu 0.50555 0.60758 1.12228
 Cu2134 Cu 0.51097 0.64646 1.16061
 Cu2135 Cu 0.51119 0.38664 1.12744
 Cu2136 Cu 0.51360 0.34867 1.16638
 C2137 C 0.58090 0.56430 1.16242
 H2138 H 0.57555 0.55992 1.14096
 C2139 C 0.59520 0.57609 1.21773
 C2140 C 0.44146 0.42955 1.17701
 H2141 H 0.44214 0.43108 1.15444
 C2142 C 0.43996 0.42588 1.23517
 C2143 C 0.57625 0.64978 1.07146
 H2144 H 0.57274 0.62819 1.06765
 C2145 C 0.58544 0.70555 1.08161
 C2146 C 0.44031 0.33690 1.08826
 H2147 H 0.44537 0.35739 1.08146
 C2148 C 0.42652 0.28435 1.10665
 C2149 C 0.66751 0.56452 1.06635
 H2150 H 0.64726 0.55822 1.06090
 C2151 C 0.71939 0.58168 1.08142
 C2152 C 0.35044 0.42243 1.09437
 H2153 H 0.37052 0.42824 1.08763
 C2154 C 0.29848 0.40724 1.11199
 C2155 C 0.43685 0.57028 1.17821
 H2156 H 0.44937 0.55572 1.16674
 C2157 C 0.40279 0.60941 1.20380
 C2158 C 0.58513 0.42703 1.17069
 H2159 H 0.57441 0.43668 1.15366
 C2160 C 0.61395 0.40085 1.21329
 C2161 C 0.67418 0.42336 1.06959
 H2162 H 0.66266 0.43732 1.05666
 C2163 C 0.69971 0.38550 1.10494
 C2164 C 0.34573 0.56787 1.09003
 H2165 H 0.36698 0.56433 1.08566
 C2166 C 0.29095 0.57763 1.10154
 C2167 C 0.43429 0.65906 1.08589
 H2168 H 0.44166 0.64048 1.07586
 C2169 C 0.41465 0.70620 1.11304
 C2170 C 0.57843 0.34134 1.07594
 H2171 H 0.56903 0.35957 1.06743
 C2172 C 0.60411 0.29552 1.09897
 O2173 O 0.59340 0.47195 0.86505
 O2174 O 0.62079 0.47087 0.82857
 C2175 C 0.60031 0.46177 0.84153
 C2176 C 0.58498 0.43868 0.82921
 C2177 C 0.59242 0.42839 0.80275
 H2178 H 0.60871 0.43790 0.79122
 O2179 O 0.39815 0.52451 0.88198
 O2180 O 0.36543 0.52425 0.85091
 C2181 C 0.38758 0.53396 0.85997
 C2182 C 0.40075 0.55696 0.84522
 C2183 C 0.39088 0.56572 0.81935
 H2184 H 0.37412 0.55524 0.80963
 O2185 O 0.47277 0.63854 0.91671
 O2186 O 0.46995 0.67004 0.88397
 C2187 C 0.46297 0.66089 0.90771
 C2188 C 0.44242 0.67565 0.92464
 C2189 C 0.43501 0.70276 0.91860
 H2190 H 0.44534 0.71349 0.90197
 O2191 O 0.52268 0.35993 0.91015
 O2192 O 0.52132 0.32835 0.87706
 C2193 C 0.53152 0.33778 0.89939
 C2194 C 0.55453 0.32338 0.91243
 C2195 C 0.56201 0.29694 0.90352
 H2196 H 0.55025 0.28641 0.88782
 O2197 O 0.63858 0.40069 0.97137
 O2198 O 0.66919 0.36775 0.96841
 C2199 C 0.65951 0.39046 0.95986
 C2200 C 0.67204 0.40481 0.93578
 C2201 C 0.69591 0.39475 0.92323
 H2202 H 0.70591 0.37688 0.93177
 O2203 O 0.36522 0.59897 0.98997
 O2204 O 0.33375 0.63118 0.99214
 C2205 C 0.34296 0.60902 0.98159
 C2206 C 0.32787 0.59499 0.95910
 C2207 C 0.30384 0.60640 0.94884
 H2208 H 0.29586 0.62531 0.95768
 O2209 O 0.51975 0.59780 0.87362
 O2210 O 0.51596 0.62854 0.84020
 C2211 C 0.52590 0.60627 0.84943
 C2212 C 0.54555 0.59078 0.83208
 C2213 C 0.55138 0.59982 0.80505
 H2214 H 0.54060 0.61718 0.79635
 O2215 O 0.46852 0.39858 0.87569
 O2216 O 0.46799 0.36768 0.84190
 C2217 C 0.45887 0.38967 0.85293
 C2218 C 0.43628 0.40441 0.83945
 C2219 C 0.42673 0.39535 0.81357
 H2220 H 0.43655 0.37833 0.80287
 O2221 O 0.63520 0.52712 0.89519
 O2222 O 0.66190 0.52621 0.85815
 C2223 C 0.65525 0.53655 0.88157
 C2224 C 0.66980 0.56081 0.89244
 C2225 C 0.68325 0.57859 0.87405
 H2226 H 0.68421 0.57375 0.85195
 O2227 O 0.36353 0.47110 0.92172
 O2228 O 0.33041 0.47042 0.89115
 C2229 C 0.34132 0.46136 0.91334
 C2230 C 0.32862 0.43873 0.92920
 C2231 C 0.30300 0.42896 0.92192
 H2232 H 0.29199 0.43861 0.90511
 O2233 O 0.60440 0.63187 0.96866
 O2234 O 0.63516 0.66439 0.96950
 C2235 C 0.61356 0.65450 0.95961
 C2236 C 0.59981 0.66839 0.93613
 C2237 C 0.61490 0.68381 0.91683
 H2238 H 0.63638 0.68657 0.91997
 O2239 O 0.40491 0.35717 0.98842
 O2240 O 0.37332 0.32561 0.99107
 C2241 C 0.39388 0.33554 0.97898
 C2242 C 0.40375 0.32311 0.95249
 C2243 C 0.38597 0.30779 0.93580
 H2244 H 0.36559 0.30391 0.94309
 O2245 O 0.39625 0.47099 0.87893
 O2246 O 0.36337 0.47038 0.84810
 C2247 C 0.38594 0.46134 0.85666
 C2248 C 0.40021 0.43899 0.84111
 C2249 C 0.39065 0.42920 0.81517
 H2250 H 0.37289 0.43836 0.80586
 O2251 O 0.59197 0.52560 0.86467
 O2252 O 0.61866 0.52443 0.82765
 C2253 C 0.59805 0.53413 0.84046
 C2254 C 0.58132 0.55608 0.82762
 C2255 C 0.58732 0.56606 0.80076
 H2256 H 0.60396 0.55723 0.78890
 O2257 O 0.46960 0.35854 0.91101
 O2258 O 0.46835 0.32782 0.87707
 C2259 C 0.45956 0.33700 0.90025
 C2260 C 0.43611 0.32372 0.91381
 C2261 C 0.41817 0.30803 0.89766
 H2262 H 0.42244 0.30436 0.87572
 O2263 O 0.52564 0.63766 0.90857
 O2264 O 0.52268 0.66829 0.87500
 C2265 C 0.53482 0.65865 0.89610
 C2266 C 0.56096 0.67056 0.90496
 C2267 C 0.57643 0.68600 0.88598
 H2268 H 0.56847 0.69051 0.86547
 O2269 O 0.37063 0.39696 0.99301
 O2270 O 0.33892 0.36551 0.99571
 C2271 C 0.34785 0.38782 0.98564
 C2272 C 0.33192 0.40284 0.96460
 C2273 C 0.30630 0.39347 0.95701
 H2274 H 0.29763 0.37573 0.96711
 O2275 O 0.64188 0.59478 0.96610
 O2276 O 0.67217 0.62772 0.96679
 C2277 C 0.66284 0.60596 0.95593
 C2278 C 0.67461 0.59471 0.92973
 C2279 C 0.68879 0.61188 0.91125
 H2280 H 0.69354 0.63266 0.91753
 O2281 O 0.52117 0.39762 0.87207
 O2282 O 0.52033 0.36601 0.83900
 C2283 C 0.52962 0.38826 0.84872
 C2284 C 0.55073 0.40291 0.83272
 C2285 C 0.55859 0.39310 0.80617
 H2286 H 0.54889 0.37534 0.79712
 O2287 O 0.46778 0.60011 0.87901
 O2288 O 0.46426 0.63157 0.84630
 C2289 C 0.45640 0.60929 0.85718
 C2290 C 0.43393 0.59397 0.84413
 C2291 C 0.42374 0.60222 0.81811
 H2292 H 0.43238 0.61968 0.80753
 O2293 O 0.36003 0.52483 0.91894
 O2294 O 0.32709 0.52423 0.88818
 C2295 C 0.33766 0.53430 0.90999
 C2296 C 0.32470 0.55809 0.92443
 C2297 C 0.30042 0.56981 0.91458
 H2298 H 0.29012 0.56067 0.89699
 O2299 O 0.63380 0.47348 0.89915
 O2300 O 0.66132 0.47223 0.86277
 C2301 C 0.65437 0.46346 0.88678
 C2302 C 0.66957 0.44067 0.90010
 C2303 C 0.69342 0.43024 0.88794
 H2304 H 0.70165 0.43954 0.86927
 O2305 O 0.60224 0.36189 0.97416
 O2306 O 0.63292 0.32899 0.97118
 C2307 C 0.61033 0.33903 0.96404
 C2308 C 0.59340 0.32414 0.94362
 C2309 C 0.60062 0.29759 0.93437
 H2310 H 0.61850 0.28764 0.94257
 O2311 O 0.40242 0.63598 0.99017
 O2312 O 0.37124 0.66846 0.99313
 C2313 C 0.39301 0.65898 0.98253
 C2314 C 0.40764 0.67453 0.96096
 C2315 C 0.40039 0.70166 0.95468
 H2316 H 0.38408 0.71179 0.96597
 Cu2317 Cu 0.61100 0.49974 0.88469
 Cu2318 Cu 0.64341 0.49826 0.84069
 Cu2319 Cu 0.38261 0.49777 0.90347
 Cu2320 Cu 0.34335 0.49719 0.86653
 Cu2321 Cu 0.62007 0.60818 0.99454
 Cu2322 Cu 0.65652 0.64755 0.99612
 Cu2323 Cu 0.61937 0.38477 0.99994
 Cu2324 Cu 0.65570 0.34495 0.99664
 Cu2325 Cu 0.38795 0.61346 1.01682
 Cu2326 Cu 0.34980 0.65177 1.02003
 Cu2327 Cu 0.39323 0.37985 1.01777
 Cu2328 Cu 0.35555 0.34181 1.02086
 Cu2329 Cu 0.49665 0.61570 0.89809
 Cu2330 Cu 0.49276 0.65290 0.85820
 Cu2331 Cu 0.49564 0.38167 0.89571
 Cu2332 Cu 0.49450 0.34430 0.85546
 C2333 C 0.56393 0.42589 0.84404
 H2334 H 0.55829 0.43338 0.86461
 C2335 C 0.57937 0.40558 0.79122
 C2336 C 0.42245 0.57112 0.85743
 H2337 H 0.43004 0.56472 0.87756
 C2338 C 0.40230 0.58809 0.80571
 C2339 C 0.42886 0.66185 0.94607
 H2340 H 0.43423 0.64076 0.95053
 C2341 C 0.41409 0.71590 0.93374
 C2342 C 0.57016 0.33670 0.93271
 H2343 H 0.56467 0.35726 0.93938
 C2344 C 0.58485 0.28394 0.91437
 C2345 C 0.65923 0.42796 0.92421
 H2346 H 0.64059 0.43558 0.93346
 C2347 C 0.70664 0.40746 0.89934
 C2348 C 0.33801 0.57073 0.94691
 H2349 H 0.35682 0.56210 0.95444
 C2350 C 0.29005 0.59408 0.92677
 C2351 C 0.56022 0.56858 0.84307
 H2352 H 0.55591 0.56175 0.86411
 C2353 C 0.57234 0.58805 0.78957
 C2354 C 0.42315 0.42647 0.85292
 H2355 H 0.43036 0.43336 0.87306
 C2356 C 0.40408 0.40735 0.80140
 C2357 C 0.66617 0.56885 0.92035
 H2358 H 0.65471 0.55583 0.93427
 C2359 C 0.69257 0.60422 0.88316
 C2360 C 0.34283 0.42567 0.95082
 H2361 H 0.36282 0.43272 0.95631
 C2362 C 0.29184 0.40630 0.93583
 C2363 C 0.57277 0.66225 0.93016
 H2364 H 0.56143 0.64946 0.94441
 C2365 C 0.60354 0.69220 0.89145
 C2366 C 0.42891 0.33070 0.94138
 H2367 H 0.44217 0.34358 0.95360
 C2368 C 0.39281 0.30063 0.90826
 N2369 N 1.10132 1.11821 1.24262
 N2370 N 1.11154 1.09714 1.23069
 N2371 N 1.08679 0.62708 0.75718
 N2372 N 1.09548 0.60698 0.74261
 N2373 N 0.60863 1.11531 0.74151
 N2374 N 0.60660 1.11767 0.71604
 N2375 N 0.59020 0.59851 1.26143
 N2376 N 0.60276 0.58126 1.24605
 N2377 N 0.92832 0.92266 1.26577
 N2378 N 0.94377 0.93358 1.24907
 N2379 N 0.90090 0.42427 0.76347
 N2380 N 0.91193 0.44360 0.75178
 N2381 N 0.42625 0.90592 0.75481
 N2382 N 0.41146 0.92071 0.73930
 N2383 N 0.42319 0.41415 1.27855
 N2384 N 0.44087 0.42568 1.26490
 N2385 N 0.88292 1.09503 0.74650
 N2386 N 0.90433 1.10255 0.75879
 N2387 N 0.87198 0.64437 0.27065
 N2388 N 0.87907 0.63565 0.29459
 N2389 N 0.36148 1.13631 0.27938
 N2390 N 0.37009 1.12769 0.30279
 N2391 N 0.40123 0.61524 0.76465
 N2392 N 0.39119 0.59630 0.77952
 N2393 N 1.11289 0.91837 0.73519
 N2394 N 1.09277 0.90764 0.74757
 N2395 N 1.08554 0.39729 0.24594
 N2396 N 1.09756 0.41380 0.26204
 N2397 N 0.59225 0.88315 0.23893
 N2398 N 0.60365 0.89902 0.25627
 N2399 N 0.60760 0.40367 0.75134
 N2400 N 0.58763 0.39408 0.76486
 N2401 N 1.26094 1.07844 1.10808
 N2402 N 1.24736 1.08937 1.08854
 N2403 N 1.24646 0.58371 0.61774
 N2404 N 1.23412 0.59296 0.59656
 N2405 N 0.74040 1.10263 0.58307
 N2406 N 0.72817 1.08228 0.59344
 N2407 N 0.75874 0.58139 1.10953
 N2408 N 0.74557 0.59132 1.08913
 N2409 N 1.26089 0.90502 0.88968
 N2410 N 1.24638 0.89360 0.90818
 N2411 N 1.24391 0.38592 0.39411
 N2412 N 1.21970 0.38053 0.39548
 N2413 N 0.74887 0.91227 0.38695
 N2414 N 0.73509 0.90005 0.40559
 N2415 N 0.74372 0.37650 0.89428
 N2416 N 0.73056 0.39729 0.88569
 N2417 N 0.75637 0.88697 1.08538
 N2418 N 0.77253 0.90176 1.09930
 N2419 N 0.74816 0.40900 0.58556
 N2420 N 0.76148 0.42779 0.59758
 N2421 N 0.26819 0.86142 0.62451
 N2422 N 0.29194 0.87016 0.61945
 N2423 N 0.25848 0.38111 1.10927
 N2424 N 0.27158 0.40040 1.12081
 N2425 N 0.75476 1.08034 0.88598
 N2426 N 0.76967 1.09125 0.90441
 N2427 N 0.74844 0.58533 0.39937
 N2428 N 0.76420 0.59933 0.41460
 N2429 N 0.25088 1.11831 0.39869
 N2430 N 0.26241 1.09697 0.38869
 N2431 N 0.25045 0.59749 0.89862
 N2432 N 0.26652 0.60786 0.91635
 N2433 N 1.08739 1.25161 1.09091
 N2434 N 1.10082 1.23521 1.07551
 N2435 N 1.08684 0.76595 0.59514
 N2436 N 1.09837 0.74728 0.58074
 N2437 N 0.60734 1.24885 0.58944
 N2438 N 0.58720 1.23608 0.59933
 N2439 N 0.60579 0.74848 1.07323
 N2440 N 0.58934 0.73401 1.08718
 N2441 N 0.91257 1.23847 0.87054
 N2442 N 0.90494 1.22564 0.89218
 N2443 N 0.89703 0.75608 0.39941
 N2444 N 0.91879 0.74445 0.39132
 N2445 N 0.39378 1.25391 0.41543
 N2446 N 0.41009 1.23837 0.40206
 N2447 N 0.41839 0.75727 0.90923
 N2448 N 0.40588 0.74338 0.92749
 N2449 N 1.14953 0.78607 0.85618
 N2450 N 1.13295 0.80602 0.85919
 N2451 N 1.13320 0.28592 0.36327
 N2452 N 1.12256 0.30847 0.37145
 N2453 N 0.60159 0.74181 0.42195
 N2454 N 0.58336 0.75568 0.40973
 N2455 N 0.61261 0.24402 0.91210
 N2456 N 0.59185 0.25719 0.90400
 N2457 N 0.89877 0.74246 1.08836
 N2458 N 0.91640 0.75785 1.09935
 N2459 N 0.87005 0.26563 0.60109
 N2460 N 0.89142 0.27770 0.60860
 N2461 N 0.38316 0.74489 0.58567
 N2462 N 0.40335 0.75855 0.59387
 N2463 N 0.40041 0.24398 1.10607
 N2464 N 0.41952 0.25771 1.11680
 N2465 N 1.12385 1.11285 0.75208
 N2466 N 1.12904 1.10612 0.77620
 N2467 N 1.11814 0.60796 0.24838
 N2468 N 1.12261 0.60835 0.27358
 N2469 N 0.60100 1.08790 0.23912
 N2470 N 0.58228 1.07415 0.24841
 N2471 N 0.60160 0.59493 0.75138
 N2472 N 0.57970 0.60093 0.76392
 N2473 N 0.88278 0.90175 0.73885
 N2474 N 0.90344 0.89189 0.75106
 N2475 N 0.90591 0.40936 0.23449
 N2476 N 0.92069 0.42545 0.24698
 N2477 N 0.38371 0.88769 0.24136
 N2478 N 0.38986 0.88096 0.26527
 N2479 N 0.37371 0.40347 0.76304
 N2480 N 0.39509 0.39593 0.77548
 N2481 N 1.08865 0.89236 1.25743
 N2482 N 1.10151 0.90861 1.24165
 N2483 N 1.10330 0.41719 0.75953
 N2484 N 1.08374 0.40783 0.74553
 N2485 N 0.60706 0.89973 0.75611
 N2486 N 0.58692 0.89121 0.74232
 N2487 N 0.63144 0.38619 1.25603
 N2488 N 0.63113 0.38437 1.23035
 N2489 N 0.89223 1.09151 1.24581
 N2490 N 0.91182 1.10132 1.23186
 N2491 N 0.88333 0.60890 0.75734
 N2492 N 0.90269 0.61976 0.74380
 N2493 N 0.40689 1.11303 0.74729
 N2494 N 0.39560 1.09320 0.73460
 N2495 N 0.36817 0.63607 1.22756
 N2496 N 0.38305 0.63094 1.20630
 N2497 N 1.12391 1.23654 0.87555
 N2498 N 1.12332 1.21148 0.87236
 N2499 N 1.11575 0.74213 0.38442
 N2500 N 1.11935 0.71784 0.37851
 N2501 N 0.62167 1.23863 0.38422
 N2502 N 0.61482 1.21528 0.37749
 N2503 N 0.62989 0.71947 0.85891
 N2504 N 0.62122 0.69662 0.86808
 N2505 N 0.88741 1.24479 1.09132
 N2506 N 0.90822 1.23233 1.10050
 N2507 N 0.85887 0.72842 0.63202
 N2508 N 0.87362 0.70746 0.62679
 N2509 N 0.37436 1.23730 0.62012
 N2510 N 0.37237 1.21231 0.61719
 N2511 N 0.39417 0.74942 1.11986
 N2512 N 0.40385 0.72821 1.12960
 N2513 N 0.86076 0.78024 0.86158
 N2514 N 0.87759 0.79970 0.86469
 N2515 N 0.90336 0.26009 0.38265
 N2516 N 0.89460 0.27404 0.40332
 N2517 N 0.40661 0.73491 0.40104
 N2518 N 0.42201 0.75010 0.41392
 N2519 N 0.36509 0.27273 0.87789
 N2520 N 0.37140 0.29565 0.88891
 N2521 N 1.07664 0.72726 1.07695
 N2522 N 1.06341 0.74467 1.06442
 N2523 N 1.07148 0.24633 0.59321
 N2524 N 1.05362 0.26066 0.58292
 N2525 N 0.62875 0.77722 0.64407
 N2526 N 0.62106 0.79967 0.63303
 N2527 N 0.61262 0.26296 1.13440
 N2528 N 0.61904 0.27353 1.11112
 N2529 N 1.26438 1.10017 0.91174
 N2530 N 1.25187 1.08136 0.89868
 N2531 N 1.22672 0.63465 0.36213
 N2532 N 1.20449 0.62576 0.37204
 N2533 N 0.74290 1.11643 0.40605
 N2534 N 0.73121 1.09481 0.39762
 N2535 N 0.71626 0.64146 0.86031
 N2536 N 0.69629 0.62519 0.86263
 N2537 N 1.21644 0.85043 1.13716
 N2538 N 1.19387 0.85955 1.12830
 N2539 N 1.23828 0.38750 0.59326
 N2540 N 1.22244 0.40417 0.60576
 N2541 N 0.71400 0.85492 0.63635
 N2542 N 0.69128 0.86672 0.63236
 N2543 N 0.72271 0.35743 1.13910
 N2544 N 0.70169 0.36433 1.12547
 N2545 N 0.76625 1.11758 1.09893
 N2546 N 0.77605 1.09385 1.10320
 N2547 N 0.75687 0.61848 0.61319
 N2548 N 0.76784 0.62424 0.58999
 N2549 N 0.24197 1.11437 0.57998
 N2550 N 0.25413 1.09331 0.58934
 N2551 N 0.24996 0.60141 1.09496
 N2552 N 0.26281 0.58226 1.10716
 N2553 N 0.75923 0.87564 0.90867
 N2554 N 0.77161 0.89582 0.89784
 N2555 N 0.78704 0.36267 0.36515
 N2556 N 0.80720 0.37860 0.36789
 N2557 N 0.24337 0.89340 0.41264
 N2558 N 0.25835 0.90942 0.39870
 N2559 N 0.25245 0.40586 0.90869
 N2560 N 0.26656 0.39489 0.92768
   
