data_POSCAR
  _audit_creation_date              2014-09-24
  _audit_creation_method            'ToBaCCo'
  _symmetry_space_group_name_H-M    'P1'
  _symmetry_Int_Tables_number       1
  _symmetry_cell_setting            triclinic
  loop_
  _symmetry_equiv_pos_as_xyz
 x,y,z
_cell_length_a 74.8155
_cell_length_b 74.8745
_cell_length_c 75.1196
_cell_angle_alpha 89.991200
_cell_angle_beta 90.007100
_cell_angle_gamma 90.005700
loop_
  _atom_site_label
  _atom_site_type_symbol
  _atom_site_fract_x
  _atom_site_fract_y
  _atom_site_fract_z
N1 N 0.17861 0.22188 0.22515
 N2 N 0.18346 0.20773 0.23435
 C3 C 0.17202 0.20548 0.24803
 C4 C 0.15946 0.21892 0.24724
 C5 C 0.16395 0.22911 0.23264
 H6 H 0.17272 0.19490 0.25781
 H7 H 0.15706 0.24086 0.22784
 Cu8 Cu 0.20423 0.19369 0.22749
 Cu9 Cu 0.19163 0.22988 0.20416
 Cu10 Cu 0.22870 0.20502 0.19171
 N11 N 0.22504 0.17985 0.22039
 N12 N 0.23456 0.18437 0.20636
 C13 C 0.24810 0.17269 0.20438
 C14 C 0.24692 0.16028 0.21787
 C15 C 0.23222 0.16511 0.22781
 H16 H 0.25803 0.17317 0.19393
 H17 H 0.22719 0.15839 0.23952
 N18 N 0.22064 0.22635 0.17860
 N19 N 0.20652 0.23582 0.18335
 C20 C 0.20447 0.24946 0.17182
 C21 C 0.21792 0.24844 0.15935
 C22 C 0.22794 0.23372 0.16394
 H23 H 0.19401 0.25941 0.17241
 H24 H 0.23965 0.22880 0.15708
 H25 H 0.20163 0.20511 0.19720
 H26 H 0.21612 0.21945 0.21153
 N27 N 0.67904 0.72229 0.72564
 N28 N 0.68412 0.70835 0.73504
 C29 C 0.67269 0.70608 0.74872
 C30 C 0.65990 0.71928 0.74773
 C31 C 0.66423 0.72935 0.73301
 H32 H 0.67354 0.69564 0.75863
 H33 H 0.65715 0.74092 0.72804
 Cu34 Cu 0.70513 0.69454 0.72845
 Cu35 Cu 0.69194 0.73021 0.70457
 Cu36 Cu 0.72901 0.70542 0.69208
 N37 N 0.72572 0.68053 0.72102
 N38 N 0.73500 0.68486 0.70678
 C39 C 0.74841 0.67306 0.70464
 C40 C 0.74740 0.66077 0.71825
 C41 C 0.73292 0.66580 0.72842
 H42 H 0.75815 0.67338 0.69401
 H43 H 0.72805 0.65919 0.74027
 N44 N 0.72084 0.72666 0.67891
 N45 N 0.70671 0.73611 0.68367
 C46 C 0.70459 0.74971 0.67212
 C47 C 0.71800 0.74868 0.65961
 C48 C 0.72808 0.73401 0.66420
 H49 H 0.69412 0.75965 0.67272
 H50 H 0.73979 0.72910 0.65733
 H51 H 0.70201 0.70535 0.69799
 H52 H 0.71659 0.72009 0.71183
 N53 N 0.32037 0.77803 0.72580
 N54 N 0.31527 0.79196 0.73519
 C55 C 0.32668 0.79424 0.74888
 C56 C 0.33948 0.78104 0.74792
 C57 C 0.33517 0.77097 0.73319
 H58 H 0.32580 0.80467 0.75880
 H59 H 0.34227 0.75941 0.72823
 Cu60 Cu 0.29426 0.80576 0.72857
 Cu61 Cu 0.30750 0.77011 0.70470
 Cu62 Cu 0.27044 0.79489 0.69215
 N63 N 0.27367 0.81977 0.72110
 N64 N 0.26441 0.81544 0.70684
 C65 C 0.25100 0.82723 0.70466
 C66 C 0.25201 0.83951 0.71828
 C67 C 0.26646 0.83450 0.72850
 H68 H 0.24128 0.82691 0.69400
 H69 H 0.27133 0.84110 0.74035
 N70 N 0.27864 0.77366 0.67899
 N71 N 0.29277 0.76421 0.68378
 C72 C 0.29491 0.75061 0.67222
 C73 C 0.28153 0.75164 0.65969
 C74 C 0.27143 0.76630 0.66427
 H75 H 0.30539 0.74069 0.67285
 H76 H 0.25973 0.77120 0.65738
 H77 H 0.29743 0.79497 0.69811
 H78 H 0.28283 0.78021 0.71191
 N79 N 0.82121 0.27758 0.22577
 N80 N 0.81610 0.29149 0.23519
 C81 C 0.82750 0.29377 0.24889
 C82 C 0.84029 0.28057 0.24789
 C83 C 0.83601 0.27051 0.23314
 H84 H 0.82661 0.30419 0.25882
 H85 H 0.84311 0.25896 0.22816
 Cu86 Cu 0.79508 0.30529 0.22859
 Cu87 Cu 0.80833 0.26969 0.20466
 Cu88 Cu 0.77124 0.29446 0.19217
 N89 N 0.77447 0.31929 0.22116
 N90 N 0.76521 0.31498 0.20690
 C91 C 0.75179 0.32677 0.20477
 C92 C 0.75277 0.33903 0.21840
 C93 C 0.76724 0.33400 0.22858
 H94 H 0.74206 0.32646 0.19412
 H95 H 0.77210 0.34059 0.24044
 N96 N 0.77945 0.27326 0.17897
 N97 N 0.79359 0.26382 0.18373
 C98 C 0.79573 0.25024 0.17216
 C99 C 0.78233 0.25127 0.15964
 C100 C 0.77223 0.26593 0.16425
 H101 H 0.80621 0.24031 0.17276
 H102 H 0.76052 0.27083 0.15738
 H103 H 0.79824 0.29455 0.19811
 H104 H 0.78366 0.27976 0.21191
 N105 N 0.82085 0.72236 0.27435
 N106 N 0.81578 0.70841 0.26497
 C107 C 0.82722 0.70612 0.25130
 C108 C 0.84000 0.71934 0.25227
 C109 C 0.83565 0.72943 0.26698
 H110 H 0.82637 0.69567 0.24141
 H111 H 0.84273 0.74101 0.27193
 Cu112 Cu 0.79478 0.69459 0.27157
 Cu113 Cu 0.80793 0.73029 0.29541
 Cu114 Cu 0.77088 0.70548 0.30792
 N115 N 0.77420 0.68057 0.27902
 N116 N 0.76491 0.68491 0.29325
 C117 C 0.75150 0.67310 0.29540
 C118 C 0.75253 0.66079 0.28181
 C119 C 0.76701 0.66582 0.27164
 H120 H 0.74176 0.67342 0.30603
 H121 H 0.77189 0.65920 0.25980
 N122 N 0.77903 0.72674 0.32107
 N123 N 0.79315 0.73620 0.31630
 C124 C 0.79526 0.74982 0.32784
 C125 C 0.78185 0.74879 0.34035
 C126 C 0.77178 0.73410 0.33576
 H127 H 0.80573 0.75976 0.32723
 H128 H 0.76008 0.72919 0.34264
 H129 H 0.79788 0.70543 0.30202
 H130 H 0.78329 0.72015 0.28816
 N131 N 0.32135 0.22229 -0.22595
 N132 N 0.31630 0.20834 -0.23534
 C133 C 0.32775 0.20605 -0.24901
 C134 C 0.34051 0.21928 -0.24800
 C135 C 0.33616 0.22938 -0.23329
 H136 H 0.32691 0.19560 -0.25891
 H137 H 0.34322 0.24096 -0.22832
 Cu138 Cu 0.29529 0.19450 -0.22877
 Cu139 Cu 0.30841 0.23020 -0.20490
 Cu140 Cu 0.27135 0.20537 -0.19244
 N141 N 0.27470 0.18047 -0.22135
 N142 N 0.26540 0.18480 -0.20713
 C143 C 0.25200 0.17299 -0.20500
 C144 C 0.25304 0.16069 -0.21859
 C145 C 0.26752 0.16572 -0.22875
 H146 H 0.24224 0.17331 -0.19438
 H147 H 0.27242 0.15912 -0.24059
 N148 N 0.27947 0.22663 -0.17928
 N149 N 0.29360 0.23610 -0.18403
 C150 C 0.29569 0.24971 -0.17248
 C151 C 0.28226 0.24867 -0.15999
 C152 C 0.27221 0.23398 -0.16459
 H153 H 0.30615 0.25965 -0.17307
 H154 H 0.26050 0.22906 -0.15773
 H155 H 0.29835 0.20534 -0.19831
 H156 H 0.28378 0.22005 -0.21218
 N157 N 0.67815 0.27804 -0.22526
 N158 N 0.68281 0.29239 -0.23425
 C159 C 0.67136 0.29468 -0.24792
 C160 C 0.65901 0.28105 -0.24733
 C161 C 0.66360 0.27070 -0.23287
 H162 H 0.67195 0.30541 -0.25756
 H163 H 0.65688 0.25878 -0.22824
 Cu164 Cu 0.70336 0.30666 -0.22720
 Cu165 Cu 0.69127 0.26993 -0.20439
 Cu166 Cu 0.72837 0.29472 -0.19194
 N167 N 0.72445 0.32020 -0.22028
 N168 N 0.73417 0.31545 -0.20647
 C169 C 0.74785 0.32699 -0.20460
 C170 C 0.74657 0.33954 -0.21795
 C171 C 0.73165 0.33494 -0.22769
 H172 H 0.75796 0.32631 -0.19433
 H173 H 0.72648 0.34182 -0.23925
 N174 N 0.72037 0.27332 -0.17892
 N175 N 0.70623 0.26387 -0.18366
 C176 C 0.70421 0.25018 -0.17219
 C177 C 0.71770 0.25115 -0.15975
 C178 C 0.72771 0.26588 -0.16431
 H179 H 0.69373 0.24026 -0.17277
 H180 H 0.73943 0.27079 -0.15745
 H181 H 0.70123 0.29462 -0.19709
 H182 H 0.71559 0.28066 -0.21192
 N183 N 0.17959 0.77801 0.27431
 N184 N 0.18467 0.79195 0.26492
 C185 C 0.17324 0.79422 0.25123
 C186 C 0.16045 0.78101 0.25221
 C187 C 0.16479 0.77093 0.26693
 H188 H 0.17409 0.80467 0.24132
 H189 H 0.15772 0.75936 0.27189
 Cu190 Cu 0.20568 0.80577 0.27152
 Cu191 Cu 0.19250 0.77008 0.29538
 Cu192 Cu 0.22957 0.79488 0.30788
 N193 N 0.22627 0.81978 0.27895
 N194 N 0.23556 0.81544 0.29319
 C195 C 0.24898 0.82723 0.29534
 C196 C 0.24794 0.83952 0.28173
 C197 C 0.23347 0.83452 0.27154
 H198 H 0.25873 0.82690 0.30597
 H199 H 0.22858 0.84112 0.25969
 N200 N 0.22140 0.77363 0.32104
 N201 N 0.20727 0.76418 0.31628
 C202 C 0.20515 0.75057 0.32783
 C203 C 0.21856 0.75160 0.34034
 C204 C 0.22864 0.76628 0.33575
 H205 H 0.19467 0.74064 0.32722
 H206 H 0.24035 0.77118 0.34262
 H207 H 0.20257 0.79494 0.30197
 H208 H 0.21715 0.78021 0.28813
 N209 N 0.47167 0.42842 0.47536
 N210 N 0.45733 0.43313 0.48434
 C211 C 0.45504 0.42173 0.49805
 C212 C 0.46865 0.40935 0.49750
 C213 C 0.47898 0.41389 0.48302
 H214 H 0.44433 0.42235 0.50770
 H215 H 0.49090 0.40714 0.47841
 Cu216 Cu 0.44308 0.45367 0.47725
 Cu217 Cu 0.47979 0.44145 0.45444
 Cu218 Cu 0.45505 0.47854 0.44191
 N219 N 0.42957 0.47474 0.47028
 N220 N 0.43433 0.48441 0.45644
 C221 C 0.42282 0.49810 0.45456
 C222 C 0.41027 0.49688 0.46792
 C223 C 0.41485 0.48199 0.47769
 H224 H 0.42351 0.50818 0.44426
 H225 H 0.40797 0.47687 0.48927
 N226 N 0.47644 0.47047 0.42890
 N227 N 0.48587 0.45634 0.43367
 C228 C 0.49956 0.45426 0.42220
 C229 C 0.49861 0.46771 0.40973
 C230 C 0.48389 0.47775 0.41426
 H231 H 0.50948 0.44378 0.42281
 H232 H 0.47900 0.48946 0.40738
 H233 H 0.46911 0.46579 0.46192
 H234 H 0.45510 0.45144 0.44714
 N235 N -0.02749 -0.07085 0.97550
 N236 N -0.04143 -0.06575 0.98488
 C237 C -0.04373 -0.07716 0.99857
 C238 C -0.03053 -0.08995 0.99761
 C239 C -0.02044 -0.08564 0.98288
 H240 H -0.05418 -0.07628 1.00848
 H241 H -0.00887 -0.09274 0.97793
 Cu242 Cu -0.05522 -0.04474 0.97827
 Cu243 Cu -0.01954 -0.05797 0.95442
 Cu244 Cu -0.04430 -0.02090 0.94189
 N245 N -0.06921 -0.02414 0.97083
 N246 N -0.06486 -0.01488 0.95659
 C247 C -0.07665 -0.00146 0.95444
 C248 C -0.08895 -0.00245 0.96804
 C249 C -0.08395 -0.01692 0.97822
 H250 H -0.07631 0.00828 0.94380
 H251 H -0.09056 -0.02177 0.99007
 N252 N -0.02305 -0.02910 0.92874
 N253 N -0.01361 -0.04323 0.93351
 C254 C 0.00000 -0.04537 0.92196
 C255 C -0.00101 -0.03197 0.90945
 C256 C -0.01568 -0.02188 0.91403
 H257 H 0.00993 -0.05585 0.92258
 H258 H -0.02057 -0.01017 0.90715
 H259 H -0.02963 -0.03332 0.96165
 H260 H -0.04440 -0.04787 0.94782
 N261 N 1.02834 0.57139 0.97501
 N262 N 1.04272 0.56672 0.98397
 C263 C 1.04503 0.57814 0.99765
 C264 C 1.03140 0.59051 0.99711
 C265 C 1.02104 0.58593 0.98266
 H266 H 1.05577 0.57755 1.00727
 H267 H 1.00911 0.59266 0.97806
 Cu268 Cu 1.05697 0.54618 0.97688
 Cu269 Cu 1.02018 0.55832 0.95414
 Cu270 Cu 1.04493 0.52124 0.94162
 N271 N 1.07049 0.52511 0.96992
 N272 N 1.06570 0.51542 0.95611
 C273 C 1.07722 0.50173 0.95423
 C274 C 1.08980 0.50299 0.96756
 C275 C 1.08523 0.51789 0.97731
 H276 H 1.07651 0.49163 0.94396
 H277 H 1.09214 0.52304 0.98886
 N278 N 1.02350 0.52926 0.92865
 N279 N 1.01407 0.54340 0.93341
 C280 C 1.00035 0.54544 0.92196
 C281 C 1.00128 0.53197 0.90952
 C282 C 1.01602 0.52195 0.91404
 H283 H 0.99042 0.55592 0.92258
 H284 H 1.02091 0.51024 0.90717
 H285 H 1.03091 0.53401 0.96164
 H286 H 1.04486 0.54835 0.94680
 N287 N 0.52754 0.07099 0.47586
 N288 N 0.54149 0.06590 0.48524
 C289 C 0.54379 0.07731 0.49893
 C290 C 0.53058 0.09009 0.49797
 C291 C 0.52048 0.08578 0.48325
 H292 H 0.55425 0.07643 0.50883
 H293 H 0.50891 0.09287 0.47830
 Cu294 Cu 0.55529 0.04490 0.47862
 Cu295 Cu 0.51958 0.05812 0.45479
 Cu296 Cu 0.54435 0.02106 0.44226
 N297 N 0.56929 0.02431 0.47118
 N298 N 0.56493 0.01505 0.45694
 C299 C 0.57672 0.00163 0.45479
 C300 C 0.58903 0.00263 0.46838
 C301 C 0.58403 0.01710 0.47856
 H302 H 0.57638 -0.00810 0.44415
 H303 H 0.59065 0.02195 0.49041
 N304 N 0.52309 0.02925 0.42911
 N305 N 0.51365 0.04337 0.43388
 C306 C 0.50002 0.04550 0.42234
 C307 C 0.50103 0.03210 0.40983
 C308 C 0.51571 0.02203 0.41441
 H309 H 0.49008 0.05597 0.42296
 H310 H 0.52061 0.01032 0.40754
 H311 H 0.52969 0.03348 0.46202
 H312 H 0.54444 0.04804 0.44818
 N313 N -0.02772 0.07107 0.52437
 N314 N -0.04168 0.06599 0.51500
 C315 C -0.04400 0.07742 0.50133
 C316 C -0.03080 0.09021 0.50230
 C317 C -0.02068 0.08588 0.51700
 H318 H -0.05447 0.07656 0.49144
 H319 H -0.00910 0.09297 0.52194
 Cu320 Cu -0.05546 0.04496 0.52160
 Cu321 Cu -0.01973 0.05816 0.54541
 Cu322 Cu -0.04446 0.02106 0.55791
 N323 N -0.06943 0.02435 0.52902
 N324 N -0.06505 0.01506 0.54324
 C325 C -0.07683 0.00163 0.54537
 C326 C -0.08916 0.00264 0.53179
 C327 C -0.08418 0.01713 0.52163
 H328 H -0.07647 -0.00813 0.55599
 H329 H -0.09081 0.02201 0.50980
 N330 N -0.02319 0.02924 0.57104
 N331 N -0.01376 0.04338 0.56628
 C332 C -0.00012 0.04549 0.57781
 C333 C -0.00111 0.03207 0.59030
 C334 C -0.01579 0.02199 0.58572
 H335 H 0.00980 0.05597 0.57720
 H336 H -0.02067 0.01027 0.59259
 H337 H -0.02983 0.03352 0.53815
 H338 H -0.04457 0.04804 0.55204
 N339 N 0.47199 0.57119 0.02480
 N340 N 0.45783 0.56630 0.01561
 C341 C 0.45553 0.57773 0.00194
 C342 C 0.46894 0.59033 0.00272
 C343 C 0.47916 0.58587 0.01730
 H344 H 0.44494 0.57700 -0.00783
 H345 H 0.49091 0.59279 0.02209
 Cu346 Cu 0.44386 0.54550 0.02247
 Cu347 Cu 0.48006 0.55819 0.04577
 Cu348 Cu 0.45531 0.52105 0.05822
 N349 N 0.43008 0.52464 0.02958
 N350 N 0.43465 0.51514 0.04359
 C351 C 0.42301 0.50156 0.04558
 C352 C 0.41058 0.50271 0.03210
 C353 C 0.41535 0.51742 0.02216
 H354 H 0.42353 0.49163 0.05602
 H355 H 0.40860 0.52244 0.01046
 N356 N 0.47664 0.52917 0.07132
 N357 N 0.48607 0.54331 0.06658
 C358 C 0.49973 0.54540 0.07809
 C359 C 0.49876 0.53195 0.09055
 C360 C 0.48406 0.52188 0.08597
 H361 H 0.50965 0.55589 0.07750
 H362 H 0.47917 0.51016 0.09283
 H363 H 0.46969 0.53369 0.03840
 H364 H 0.45531 0.54810 0.05275
 N365 N 0.52834 -0.07143 0.02518
 N366 N 0.54271 -0.06675 0.01621
 C367 C 0.54499 -0.07815 0.00251
 C368 C 0.53135 -0.09051 0.00305
 C369 C 0.52101 -0.08595 0.01752
 H370 H 0.55571 -0.07755 -0.00712
 H371 H 0.50909 -0.09268 0.02212
 Cu372 Cu 0.55699 -0.04623 0.02330
 Cu373 Cu 0.52023 -0.05838 0.04608
 Cu374 Cu 0.54502 -0.02133 0.05862
 N375 N 0.57052 -0.02517 0.03028
 N376 N 0.56576 -0.01550 0.04411
 C377 C 0.57730 -0.00182 0.04599
 C378 C 0.58985 -0.00306 0.03264
 C379 C 0.58526 -0.01795 0.02288
 H380 H 0.57661 0.00827 0.05628
 H381 H 0.59214 -0.02308 0.01130
 N382 N 0.52360 -0.02937 0.07162
 N383 N 0.51416 -0.04349 0.06684
 C384 C 0.50045 -0.04554 0.07830
 C385 C 0.50142 -0.03210 0.09077
 C386 C 0.51616 -0.02208 0.08624
 H387 H 0.49052 -0.05602 0.07768
 H388 H 0.52106 -0.01038 0.09313
 H389 H 0.53096 -0.03406 0.03860
 H390 H 0.54493 -0.04844 0.05340
 N391 N 1.02759 0.42934 0.52417
 N392 N 1.04152 0.43444 0.51476
 C393 C 1.04378 0.42305 0.50105
 C394 C 1.03057 0.41026 0.50203
 C395 C 1.02051 0.41456 0.51678
 H396 H 1.05421 0.42394 0.49113
 H397 H 1.00895 0.40746 0.52175
 Cu398 Cu 1.05534 0.45543 0.52138
 Cu399 Cu 1.01969 0.44218 0.54528
 Cu400 Cu 1.04450 0.47921 0.55781
 N401 N 1.06936 0.47601 0.52883
 N402 N 1.06505 0.48524 0.54309
 C403 C 1.07685 0.49865 0.54524
 C404 C 1.08912 0.49768 0.53161
 C405 C 1.08409 0.48323 0.52142
 H406 H 1.07654 0.50836 0.55589
 H407 H 1.09068 0.47839 0.50955
 N408 N 1.02327 0.47100 0.57100
 N409 N 1.01382 0.45689 0.56622
 C410 C 1.00021 0.45474 0.57778
 C411 C 1.00125 0.46811 0.59032
 C412 C 1.01593 0.47820 0.58573
 H413 H 0.99027 0.44427 0.57717
 H414 H 1.02084 0.48989 0.59261
 H415 H 1.02979 0.46684 0.53806
 H416 H 1.04457 0.45225 0.55184
 C417 C 0.40106 0.00811 0.22620
 H418 H 0.40174 0.02025 0.23399
 C419 C 0.41274 0.00559 0.21192
 H420 H 0.42242 0.01583 0.20862
 C421 C 0.38779 -0.02021 0.22110
 H422 H 0.37827 -0.03035 0.22488
 C423 C 0.39923 -0.02326 0.20672
 H424 H 0.39835 -0.03568 0.19937
 N425 N 0.38877 -0.00462 0.23038
 C426 C 0.34634 0.02378 0.25844
 H427 H 0.34562 0.01595 0.27053
 C428 C 0.33469 0.03813 0.25590
 H429 H 0.32499 0.04144 0.26608
 C430 C 0.35971 0.02891 0.23027
 H431 H 0.36927 0.02513 0.22019
 C432 C 0.34830 0.04336 0.22720
 H433 H 0.34924 0.05076 0.21484
 Zn434 Zn 0.37372 -0.00027 0.25018
 N435 N 0.35868 0.01959 0.24580
 C436 C 0.38765 0.01973 0.27928
 N437 N 0.38870 0.00413 0.27002
 C438 C 0.40102 -0.00855 0.27425
 C439 C 0.41266 -0.00596 0.28855
 C440 C 0.39905 0.02285 0.29368
 C441 C 0.34645 -0.02441 0.24183
 C442 C 0.33483 -0.03880 0.24433
 C443 C 0.34837 -0.04399 0.27308
 C444 C 0.35975 -0.02951 0.27005
 N445 N 0.35873 -0.02019 0.25451
 H446 H 0.37810 0.02984 0.27546
 H447 H 0.40176 -0.02069 0.26648
 H448 H 0.42237 -0.01616 0.29189
 H449 H 0.39811 0.03527 0.30102
 H450 H 0.34573 -0.01659 0.22974
 H451 H 0.32516 -0.04214 0.23412
 H452 H 0.34930 -0.05139 0.28544
 H453 H 0.36927 -0.02570 0.28016
 C454 C 0.33573 0.04803 0.24016
 C455 C 0.41177 -0.01022 0.20207
 C456 C 0.33585 -0.04870 0.26008
 C457 C 0.41162 0.00986 0.29838
 C458 C 0.09907 -0.00846 0.72581
 H459 H 0.09834 -0.02059 0.73360
 C460 C 0.08740 -0.00589 0.71152
 H461 H 0.07768 -0.01609 0.70822
 C462 C 0.11244 0.01981 0.72071
 H463 H 0.12200 0.02992 0.72449
 C464 C 0.10102 0.02292 0.70633
 H465 H 0.10195 0.03533 0.69897
 N466 N 0.11141 0.00423 0.72999
 C467 C 0.15370 -0.02431 0.75812
 H468 H 0.15445 -0.01648 0.77020
 C469 C 0.16530 -0.03871 0.75562
 H470 H 0.17498 -0.04205 0.76581
 C471 C 0.14034 -0.02942 0.72994
 H472 H 0.13081 -0.02561 0.71984
 C473 C 0.15170 -0.04391 0.72690
 H474 H 0.15074 -0.05132 0.71455
 Zn475 Zn 0.12643 -0.00017 0.74980
 N476 N 0.14140 -0.02009 0.74546
 C477 C 0.11240 -0.02009 0.77892
 N478 N 0.11142 -0.00450 0.76964
 C479 C 0.09914 0.00823 0.77383
 C480 C 0.08748 0.00570 0.78813
 C481 C 0.10099 -0.02315 0.79331
 C482 C 0.15379 0.02387 0.74145
 C483 C 0.16544 0.03823 0.74394
 C484 C 0.15190 0.04349 0.77267
 C485 C 0.14049 0.02904 0.76965
 N486 N 0.14149 0.01970 0.75413
 H487 H 0.12192 -0.03024 0.77512
 H488 H 0.09845 0.02037 0.76605
 H489 H 0.07781 0.01594 0.79144
 H490 H 0.10188 -0.03557 0.80067
 H491 H 0.15449 0.01603 0.72937
 H492 H 0.17512 0.04153 0.73374
 H493 H 0.15099 0.05091 0.78502
 H494 H 0.13095 0.02526 0.77976
 C495 C 0.16424 -0.04862 0.73988
 C496 C 0.08843 0.00993 0.70168
 C497 C 0.16444 0.04815 0.75968
 C498 C 0.08846 -0.01011 0.79798
 C499 C 0.59881 0.49145 0.22617
 H500 H 0.59809 0.47931 0.23395
 C501 C 0.58716 0.49400 0.21186
 H502 H 0.57747 0.48378 0.20854
 C503 C 0.61213 0.51975 0.22111
 H504 H 0.62166 0.52988 0.22491
 C505 C 0.60072 0.52284 0.20671
 H506 H 0.60164 0.53525 0.19935
 N507 N 0.61111 0.50415 0.23038
 C508 C 0.65344 0.47570 0.25853
 H509 H 0.65416 0.48353 0.27062
 C510 C 0.66508 0.46133 0.25603
 H511 H 0.67477 0.45801 0.26623
 C512 C 0.64012 0.47057 0.23034
 H513 H 0.63058 0.47436 0.22023
 C514 C 0.65151 0.45611 0.22730
 H515 H 0.65059 0.44870 0.21494
 Zn516 Zn 0.62612 0.49978 0.25020
 N517 N 0.64114 0.47990 0.24586
 C518 C 0.61212 0.47982 0.27930
 N519 N 0.61111 0.49541 0.27002
 C520 C 0.59880 0.50811 0.27422
 C521 C 0.58714 0.50556 0.28851
 C522 C 0.60070 0.47673 0.29369
 C523 C 0.65344 0.52387 0.24188
 C524 C 0.66507 0.53825 0.24438
 C525 C 0.65149 0.54348 0.27311
 C526 C 0.64011 0.52901 0.27007
 N527 N 0.64114 0.51967 0.25455
 H528 H 0.62166 0.46969 0.27551
 H529 H 0.59808 0.52025 0.26643
 H530 H 0.57744 0.51578 0.29182
 H531 H 0.60162 0.46432 0.30104
 H532 H 0.65417 0.51604 0.22980
 H533 H 0.67475 0.54157 0.23419
 H534 H 0.65055 0.55090 0.28545
 H535 H 0.63057 0.52522 0.28017
 C536 C 0.66406 0.45143 0.24028
 C537 C 0.58817 0.50982 0.20202
 C538 C 0.66403 0.54817 0.26012
 C539 C 0.58815 0.48974 0.29836
 C540 C 0.90117 0.50817 0.72600
 H541 H 0.90187 0.52029 0.73380
 C542 C 0.91284 0.50565 0.71171
 H543 H 0.92254 0.51587 0.70843
 C544 C 0.88785 0.47988 0.72086
 H545 H 0.87830 0.46975 0.72462
 C546 C 0.89927 0.47682 0.70647
 H547 H 0.89837 0.46443 0.69909
 N548 N 0.88885 0.49546 0.73016
 C549 C 0.84648 0.52388 0.75827
 H550 H 0.84574 0.51603 0.77034
 C551 C 0.83485 0.53825 0.75576
 H552 H 0.82515 0.54156 0.76595
 C553 C 0.85985 0.52905 0.73010
 H554 H 0.86941 0.52527 0.72002
 C555 C 0.84847 0.54352 0.72706
 H556 H 0.84942 0.55095 0.71472
 Zn557 Zn 0.87381 0.49980 0.74996
 N558 N 0.85880 0.51969 0.74561
 C559 C 0.88777 0.51973 0.77909
 N560 N 0.88879 0.50415 0.76981
 C561 C 0.90109 0.49144 0.77402
 C562 C 0.91273 0.49397 0.78834
 C563 C 0.89917 0.52281 0.79350
 C564 C 0.84649 0.47573 0.74158
 C565 C 0.83483 0.46137 0.74407
 C566 C 0.84835 0.45612 0.77281
 C567 C 0.85977 0.47057 0.76979
 N568 N 0.85878 0.47991 0.75427
 H569 H 0.87824 0.52986 0.77529
 H570 H 0.90181 0.47930 0.76624
 H571 H 0.92242 0.48375 0.79166
 H572 H 0.89825 0.53522 0.80086
 H573 H 0.84579 0.48356 0.72949
 H574 H 0.82515 0.45807 0.73386
 H575 H 0.84925 0.44871 0.78517
 H576 H 0.86930 0.47435 0.77990
 C577 C 0.83591 0.54819 0.74004
 C578 C 0.91184 0.48985 0.70184
 C579 C 0.83581 0.45146 0.75981
 C580 C 0.91172 0.50979 0.79818
 C581 C 0.22598 0.40306 0.00809
 H582 H 0.23381 0.40376 0.02018
 C583 C 0.21163 0.41471 0.00557
 H584 H 0.20831 0.42439 0.01577
 C585 C 0.22086 0.38979 -0.02013
 H586 H 0.22466 0.38027 -0.03023
 C587 C 0.20641 0.40120 -0.02317
 H588 H 0.19901 0.40030 -0.03554
 N589 N 0.23018 0.39078 -0.00459
 C590 C 0.25842 0.34844 0.02374
 H591 H 0.27057 0.34773 0.01595
 C592 C 0.25588 0.33678 0.03803
 H593 H 0.26611 0.32709 0.04134
 C594 C 0.23010 0.36174 0.02883
 H595 H 0.21997 0.37128 0.02505
 C596 C 0.22702 0.35033 0.04322
 H597 H 0.21460 0.35123 0.05058
 Zn598 Zn 0.25008 0.37577 -0.00025
 N599 N 0.24571 0.36074 0.01955
 C600 C 0.27930 0.38974 0.01966
 N601 N 0.26998 0.39077 0.00413
 C602 C 0.27419 0.40308 -0.00853
 C603 C 0.28855 0.41472 -0.00598
 C604 C 0.29376 0.40113 0.02274
 C605 C 0.24175 0.34850 -0.02431
 C606 C 0.24430 0.33687 -0.03862
 C607 C 0.27316 0.35043 -0.04376
 C608 C 0.27007 0.36182 -0.02935
 N609 N 0.25446 0.36079 -0.02009
 H610 H 0.27550 0.38019 0.02975
 H611 H 0.26637 0.40381 -0.02062
 H612 H 0.29188 0.42442 -0.01616
 H613 H 0.30116 0.40020 0.03511
 H614 H 0.22960 0.34778 -0.01653
 H615 H 0.23408 0.32719 -0.04195
 H616 H 0.28559 0.35135 -0.05110
 H617 H 0.28021 0.37134 -0.02554
 C618 C 0.24005 0.33778 0.04788
 C619 C 0.20173 0.41373 -0.01018
 C620 C 0.26014 0.33789 -0.04845
 C621 C 0.29845 0.41369 0.00977
 C622 C 0.72604 0.09672 -0.00825
 H623 H 0.73384 0.09599 -0.02035
 C624 C 0.71168 0.08508 -0.00568
 H625 H 0.70835 0.07537 -0.01585
 C626 C 0.72097 0.11007 0.01994
 H627 H 0.72478 0.11962 0.03001
 C628 C 0.70652 0.09867 0.02304
 H629 H 0.69914 0.09960 0.03541
 N630 N 0.73026 0.10904 0.00439
 C631 C 0.75842 0.15133 -0.02410
 H632 H 0.77058 0.15206 -0.01633
 C633 C 0.75584 0.16295 -0.03841
 H634 H 0.76606 0.17264 -0.04176
 C635 C 0.73011 0.13798 -0.02911
 H636 H 0.71999 0.12844 -0.02529
 C637 C 0.72699 0.14936 -0.04352
 H638 H 0.71456 0.14842 -0.05086
 Zn639 Zn 0.75015 0.12405 -0.00002
 N640 N 0.74573 0.13902 -0.01986
 C641 C 0.77935 0.11006 -0.01994
 N642 N 0.77005 0.10905 -0.00439
 C643 C 0.77429 0.09677 0.00829
 C644 C 0.78867 0.08515 0.00576
 C645 C 0.79383 0.09868 -0.02300
 C646 C 0.74184 0.15137 0.02398
 C647 C 0.74441 0.16303 0.03827
 C648 C 0.77329 0.14949 0.04340
 C649 C 0.77018 0.13808 0.02902
 N650 N 0.75456 0.13908 0.01977
 H651 H 0.77553 0.11958 -0.03004
 H652 H 0.76649 0.09606 0.02039
 H653 H 0.79202 0.07549 0.01596
 H654 H 0.80121 0.09960 -0.03537
 H655 H 0.72968 0.15207 0.01622
 H656 H 0.73419 0.17271 0.04160
 H657 H 0.78572 0.14859 0.05074
 H658 H 0.78031 0.12855 0.02522
 C659 C 0.74000 0.16191 -0.04823
 C660 C 0.70181 0.08611 0.01009
 C661 C 0.76026 0.16203 0.04809
 C662 C 0.79855 0.08616 -0.01001
 C663 C 0.22599 0.59694 0.49165
 H664 H 0.23385 0.59622 0.47958
 C665 C 0.21160 0.58531 0.49412
 H666 H 0.20831 0.57563 0.48392
 C667 C 0.22079 0.61025 0.51983
 H668 H 0.22456 0.61978 0.52993
 C669 C 0.20630 0.59887 0.52283
 H670 H 0.19886 0.59979 0.53517
 N671 N 0.23016 0.60923 0.50433
 C672 C 0.25852 0.65153 0.47606
 H673 H 0.27064 0.65223 0.48389
 C674 C 0.25603 0.66318 0.46175
 H675 H 0.26627 0.67287 0.45848
 C676 C 0.23022 0.63823 0.47087
 H677 H 0.22007 0.62870 0.47462
 C678 C 0.22719 0.64964 0.45647
 H679 H 0.21479 0.64874 0.44907
 Zn680 Zn 0.25009 0.62423 0.50004
 N681 N 0.24579 0.63923 0.48020
 C682 C 0.27936 0.61022 0.48025
 N683 N 0.27000 0.60922 0.49576
 C684 C 0.27416 0.59692 0.50845
 C685 C 0.28852 0.58526 0.50596
 C686 C 0.29382 0.59881 0.47723
 C687 C 0.24166 0.65154 0.52400
 C688 C 0.24416 0.66320 0.53830
 C689 C 0.27299 0.64964 0.54361
 C690 C 0.26996 0.63823 0.52921
 N691 N 0.25439 0.63924 0.51987
 H692 H 0.27559 0.61975 0.47014
 H693 H 0.26631 0.59622 0.52052
 H694 H 0.29180 0.57558 0.51616
 H695 H 0.30124 0.59971 0.46488
 H696 H 0.22955 0.65225 0.51616
 H697 H 0.23392 0.67290 0.54155
 H698 H 0.28538 0.64873 0.55102
 H699 H 0.28010 0.62869 0.52547
 C700 C 0.24023 0.66219 0.45185
 C701 C 0.20165 0.58633 0.50984
 C702 C 0.25995 0.66220 0.54821
 C703 C 0.29845 0.58626 0.49023
 C704 C 0.72585 0.90335 0.50836
 H705 H 0.73370 0.90406 0.52044
 C706 C 0.71148 0.91498 0.50587
 H707 H 0.70817 0.92466 0.51607
 C708 C 0.72069 0.89006 0.48016
 H709 H 0.72448 0.88053 0.47006
 C710 C 0.70622 0.90144 0.47714
 H711 H 0.69879 0.90053 0.46479
 N712 N 0.73004 0.89107 0.49568
 C713 C 0.75832 0.84874 0.52399
 H714 H 0.77046 0.84803 0.51619
 C715 C 0.75579 0.83708 0.53828
 H716 H 0.76602 0.82739 0.54158
 C717 C 0.73001 0.86204 0.52911
 H718 H 0.71987 0.87158 0.52534
 C719 C 0.72694 0.85063 0.54350
 H720 H 0.71453 0.85153 0.55087
 Zn721 Zn 0.74995 0.87606 0.50000
 N722 N 0.74560 0.86104 0.51982
 C723 C 0.77921 0.89003 0.51986
 N724 N 0.76986 0.89106 0.50434
 C725 C 0.77406 0.90336 0.49167
 C726 C 0.78843 0.91499 0.49418
 C727 C 0.79369 0.90141 0.52290
 C728 C 0.74157 0.84877 0.47598
 C729 C 0.74410 0.83713 0.46168
 C730 C 0.77295 0.85068 0.45647
 C731 C 0.76989 0.86208 0.47088
 N732 N 0.75430 0.86107 0.48017
 H733 H 0.77542 0.88049 0.52995
 H734 H 0.76621 0.90409 0.47959
 H735 H 0.79175 0.92468 0.48399
 H736 H 0.80111 0.90048 0.53525
 H737 H 0.72944 0.84806 0.48378
 H738 H 0.73386 0.82745 0.45838
 H739 H 0.78536 0.85160 0.44910
 H740 H 0.78003 0.87161 0.47466
 C741 C 0.73997 0.83808 0.54814
 C742 C 0.70155 0.91397 0.49013
 C743 C 0.75991 0.83814 0.45182
 C744 C 0.79836 0.91396 0.50992
 C745 C 0.00808 0.22623 0.40204
 H746 H 0.02018 0.23411 0.40272
 C747 C 0.00563 0.21190 0.41369
 H748 H 0.01589 0.20866 0.42334
 C749 C -0.02022 0.22093 0.38882
 H750 H -0.03039 0.22464 0.37931
 C751 C -0.02320 0.20650 0.40022
 H752 H -0.03558 0.19904 0.39935
 N753 N -0.00467 0.23033 0.38978
 C754 C 0.02364 0.25861 0.34754
 H755 H 0.01576 0.27071 0.34681
 C756 C 0.03798 0.25611 0.33591
 H757 H 0.04124 0.26633 0.32623
 C758 C 0.02889 0.23036 0.36085
 H759 H 0.02514 0.22023 0.37037
 C760 C 0.04334 0.22733 0.34946
 H761 H 0.05078 0.21495 0.35038
 Zn762 Zn -0.00041 0.25020 0.37478
 N763 N 0.01950 0.24590 0.35982
 C764 C 0.01943 0.27952 0.38867
 N765 N 0.00387 0.27015 0.38968
 C766 C -0.00887 0.27431 0.40193
 C767 C -0.00638 0.28868 0.41353
 C768 C 0.02245 0.29399 0.40002
 C769 C -0.02448 0.24167 0.34759
 C770 C -0.03884 0.24411 0.33596
 C771 C -0.04420 0.27295 0.34938
 C772 C -0.02974 0.26998 0.36077
 N773 N -0.02034 0.25443 0.35982
 H774 H 0.02958 0.27575 0.37917
 H775 H -0.02098 0.26645 0.40265
 H776 H -0.01662 0.29196 0.42318
 H777 H 0.03484 0.30142 0.39911
 H778 H -0.01660 0.22957 0.34693
 H779 H -0.04210 0.23385 0.32633
 H780 H -0.05165 0.28533 0.35024
 H781 H -0.02599 0.28015 0.37025
 C782 C 0.04794 0.24034 0.33692
 C783 C -0.01014 0.20192 0.41273
 C784 C -0.04880 0.25988 0.33690
 C785 C 0.00941 0.29862 0.41252
 C786 C -0.00824 0.72596 0.09779
 H787 H -0.02036 0.73381 0.09710
 C788 C -0.00576 0.71162 0.08616
 H789 H -0.01601 0.70835 0.07650
 C790 C 0.02007 0.72074 0.11102
 H791 H 0.03023 0.72450 0.12052
 C792 C 0.02309 0.70630 0.09963
 H793 H 0.03549 0.69888 0.10052
 N794 N 0.00450 0.73011 0.11004
 C795 C -0.02383 0.75847 0.15220
 H796 H -0.01596 0.77057 0.15289
 C797 C -0.03819 0.75600 0.16382
 H798 H -0.04146 0.76624 0.17347
 C799 C -0.02908 0.73019 0.13896
 H800 H -0.02533 0.72004 0.12947
 C801 C -0.04354 0.72718 0.15035
 H802 H -0.05099 0.71481 0.14945
 Zn803 Zn 0.00022 0.75001 0.12499
 N804 N -0.01969 0.74573 0.13995
 C805 C -0.01963 0.77929 0.11102
 N806 N -0.00407 0.76991 0.11002
 C807 C 0.00866 0.77405 0.09776
 C808 C 0.00618 0.78840 0.08614
 C809 C -0.02265 0.79374 0.09964
 C810 C 0.02431 0.74158 0.15219
 C811 C 0.03868 0.74407 0.16380
 C812 C 0.04399 0.77289 0.15030
 C813 C 0.02952 0.76986 0.13893
 N814 N 0.02015 0.75431 0.13993
 H815 H -0.02978 0.77554 0.12053
 H816 H 0.02077 0.76619 0.09706
 H817 H 0.01642 0.79167 0.07648
 H818 H -0.03504 0.80117 0.10054
 H819 H 0.01645 0.72947 0.15290
 H820 H 0.04197 0.73384 0.17345
 H821 H 0.05142 0.78527 0.14939
 H822 H 0.02575 0.78001 0.12943
 C823 C -0.04815 0.74023 0.16284
 C824 C 0.01004 0.70169 0.08713
 C825 C 0.04862 0.75985 0.16280
 C826 C -0.00961 0.79835 0.08713
 C827 C 0.49157 0.22596 0.59831
 H828 H 0.47947 0.23384 0.59763
 C829 C 0.49403 0.21162 0.58668
 H830 H 0.48377 0.20838 0.57702
 C831 C 0.51987 0.22068 0.61155
 H832 H 0.53004 0.22442 0.62105
 C833 C 0.52287 0.20625 0.60015
 H834 H 0.53525 0.19880 0.60103
 N835 N 0.50432 0.23008 0.61057
 C836 C 0.47599 0.25841 0.65276
 H837 H 0.48387 0.27050 0.65346
 C838 C 0.46163 0.25593 0.66437
 H839 H 0.45836 0.26616 0.67402
 C840 C 0.47075 0.23013 0.63949
 H841 H 0.47450 0.21999 0.62999
 C842 C 0.45629 0.22712 0.65086
 H843 H 0.44884 0.21474 0.64995
 Zn844 Zn 0.50005 0.24997 0.62554
 N845 N 0.48014 0.24568 0.64050
 C846 C 0.48019 0.27925 0.61158
 N847 N 0.49576 0.26988 0.61059
 C848 C 0.50849 0.27403 0.59833
 C849 C 0.50599 0.28836 0.58669
 C850 C 0.47716 0.29368 0.60019
 C851 C 0.52414 0.24150 0.65273
 C852 C 0.53849 0.24398 0.66436
 C853 C 0.54381 0.27281 0.65089
 C854 C 0.52936 0.26980 0.63950
 N855 N 0.51998 0.25424 0.64049
 H856 H 0.47005 0.27549 0.62109
 H857 H 0.52061 0.26617 0.59763
 H858 H 0.51623 0.29163 0.57702
 H859 H 0.46476 0.30110 0.60108
 H860 H 0.51627 0.22940 0.65342
 H861 H 0.54176 0.23374 0.67401
 H862 H 0.55124 0.28520 0.65001
 H863 H 0.52560 0.27995 0.63001
 C864 C 0.45167 0.24016 0.66337
 C865 C 0.50980 0.20166 0.58765
 C866 C 0.54843 0.25977 0.66339
 C867 C 0.49020 0.29829 0.58767
 C868 C 0.50825 0.72608 0.90228
 H869 H 0.52037 0.73394 0.90295
 C870 C 0.50578 0.71174 0.91391
 H871 H 0.51604 0.70847 0.92355
 C872 C 0.47992 0.72087 0.88907
 H873 H 0.46976 0.72463 0.87959
 C874 C 0.47692 0.70643 0.90046
 H875 H 0.46452 0.69900 0.89959
 N876 N 0.49550 0.73023 0.89004
 C877 C 0.52382 0.75857 0.84783
 H878 H 0.51596 0.77068 0.84715
 C879 C 0.53816 0.75608 0.83620
 H880 H 0.54144 0.76632 0.82655
 C881 C 0.52903 0.73028 0.86108
 H882 H 0.52528 0.72013 0.87058
 C883 C 0.54348 0.72726 0.84968
 H884 H 0.55091 0.71487 0.85058
 Zn885 Zn 0.49977 0.75013 0.87508
 N886 N 0.51967 0.74584 0.86009
 C887 C 0.51968 0.77939 0.88902
 N888 N 0.50410 0.77003 0.89003
 C889 C 0.49139 0.77418 0.90230
 C890 C 0.49391 0.78851 0.91394
 C891 C 0.52274 0.79381 0.90041
 C892 C 0.47565 0.74171 0.84790
 C893 C 0.46127 0.74421 0.83631
 C894 C 0.45599 0.77303 0.84981
 C895 C 0.47047 0.77000 0.86116
 N896 N 0.47983 0.75444 0.86015
 H897 H 0.52981 0.77563 0.87950
 H898 H 0.47927 0.76633 0.90301
 H899 H 0.48369 0.79177 0.92362
 H900 H 0.53514 0.80123 0.89951
 H901 H 0.48350 0.72960 0.84719
 H902 H 0.45797 0.73397 0.82666
 H903 H 0.44857 0.78541 0.85072
 H904 H 0.47425 0.78014 0.87066
 C905 C 0.54810 0.74030 0.83718
 C906 C 0.48998 0.70181 0.91295
 C907 C 0.45134 0.75999 0.83731
 C908 C 0.50971 0.79843 0.91294
 C909 C 0.09057 0.23801 0.28341
 C910 C 0.10972 0.24539 0.28616
 C911 C 0.11729 0.22696 0.28127
 C912 C 0.09837 0.21953 0.27833
 C913 C 0.09023 0.23217 0.30301
 C914 C 0.09781 0.21374 0.29812
 C915 C 0.10915 0.23960 0.30596
 C916 C 0.11695 0.22112 0.30087
 C917 C 0.13235 0.22407 0.26915
 C918 C 0.14472 0.22171 0.25916
 C919 C 0.07516 0.23508 0.31511
 C920 C 0.06276 0.23747 0.32506
 H921 H 0.07955 0.24498 0.27636
 H922 H 0.11478 0.25837 0.28111
 H923 H 0.09411 0.21125 0.26683
 H924 H 0.09274 0.20076 0.30317
 H925 H 0.11341 0.24788 0.31745
 H926 H 0.12797 0.21415 0.30792
 C927 C 0.59797 0.74646 0.79063
 C928 C 0.61714 0.74124 0.79646
 C929 C 0.61757 0.72711 0.78163
 C930 C 0.59864 0.73229 0.77561
 C931 C 0.59045 0.73222 0.80332
 C932 C 0.59089 0.71810 0.78849
 C933 C 0.60938 0.72704 0.80933
 C934 C 0.61006 0.71288 0.79432
 C935 C 0.63268 0.72429 0.76955
 C936 C 0.64510 0.72199 0.75960
 C937 C 0.57535 0.73509 0.81539
 C938 C 0.56293 0.73746 0.82532
 H939 H 0.59284 0.76030 0.78925
 H940 H 0.62810 0.75072 0.79961
 H941 H 0.59439 0.73442 0.76161
 H942 H 0.57993 0.70862 0.78534
 H943 H 0.61363 0.72492 0.82333
 H944 H 0.61519 0.69904 0.79570
 C945 C 0.40657 0.75862 0.78552
 C946 C 0.38670 0.75514 0.79020
 C947 C 0.38180 0.77322 0.78184
 C948 C 0.40143 0.77673 0.77697
 C949 C 0.40893 0.76810 0.80351
 C950 C 0.40403 0.78617 0.79514
 C951 C 0.38930 0.76458 0.80837
 C952 C 0.38416 0.78270 0.79982
 C953 C 0.36669 0.77604 0.76975
 C954 C 0.35427 0.77834 0.75980
 C955 C 0.42405 0.76522 0.81557
 C956 C 0.43648 0.76285 0.82548
 H957 H 0.41595 0.74868 0.77978
 H958 H 0.37941 0.74242 0.78803
 H959 H 0.40625 0.78176 0.76393
 H960 H 0.41132 0.79890 0.79731
 H961 H 0.38448 0.75955 0.82142
 H962 H 0.37478 0.79263 0.80556
 C963 C -0.09344 0.25834 0.28500
 C964 C -0.11332 0.25485 0.28963
 C965 C -0.11822 0.27291 0.28122
 C966 C -0.09858 0.27644 0.27640
 C967 C -0.09113 0.26785 0.30297
 C968 C -0.09603 0.28591 0.29457
 C969 C -0.11077 0.26432 0.30779
 C970 C -0.11591 0.28242 0.29920
 C971 C -0.13330 0.27571 0.26911
 C972 C -0.14571 0.27800 0.25914
 C973 C -0.07605 0.26502 0.31508
 C974 C -0.06363 0.26268 0.32503
 H975 H -0.08403 0.24841 0.27929
 H976 H -0.12059 0.24212 0.28746
 H977 H -0.09373 0.28146 0.26336
 H978 H -0.08876 0.29865 0.29674
 H979 H -0.11562 0.25930 0.32083
 H980 H -0.12532 0.29235 0.30491
 C981 C -0.11026 0.73407 0.19132
 C982 C -0.11441 0.71641 0.20125
 C983 C -0.11766 0.72714 0.21838
 C984 C -0.11375 0.74476 0.20864
 C985 C -0.09053 0.73221 0.19669
 C986 C -0.09379 0.74294 0.21382
 C987 C -0.09444 0.71459 0.20643
 C988 C -0.09793 0.72528 0.22375
 C989 C -0.13277 0.72433 0.23046
 C990 C -0.14519 0.72204 0.24041
 C991 C -0.07543 0.73505 0.18462
 C992 C -0.06300 0.73741 0.17469
 H993 H -0.11516 0.73772 0.17786
 H994 H -0.12305 0.70547 0.19622
 H995 H -0.12186 0.75713 0.20968
 H996 H -0.08514 0.75388 0.21885
 H997 H -0.08633 0.70222 0.20539
 H998 H -0.09303 0.72163 0.23721
 C999 C 0.41092 0.22514 0.71633
 C1000 C 0.39770 0.23980 0.72251
 C1001 C 0.38209 0.22698 0.71880
 C1002 C 0.39509 0.21228 0.71282
 C1003 C 0.40925 0.23209 0.69716
 C1004 C 0.39365 0.21928 0.69346
 C1005 C 0.39626 0.24680 0.70315
 C1006 C 0.38042 0.23394 0.69963
 C1007 C 0.36697 0.22416 0.73086
 C1008 C 0.35453 0.22186 0.74079
 C1009 C 0.42438 0.23495 0.68512
 C1010 C 0.43682 0.23732 0.67520
 H1011 H 0.42364 0.22155 0.72307
 H1012 H 0.39919 0.24821 0.73459
 H1013 H 0.39444 0.19805 0.71693
 H1014 H 0.39216 0.21087 0.68138
 H1015 H 0.39691 0.26102 0.69904
 H1016 H 0.36771 0.23752 0.69290
 C1017 C 0.60915 0.27485 0.69162
 C1018 C 0.60907 0.28777 0.70773
 C1019 C 0.61771 0.27311 0.71916
 C1020 C 0.61803 0.26023 0.70324
 C1021 C 0.59070 0.26791 0.69736
 C1022 C 0.59935 0.25325 0.70879
 C1023 C 0.59038 0.28079 0.71328
 C1024 C 0.59927 0.26617 0.72490
 C1025 C 0.63275 0.27601 0.73132
 C1026 C 0.64510 0.27838 0.74135
 C1027 C 0.57564 0.26501 0.68523
 C1028 C 0.56325 0.26262 0.67527
 H1029 H 0.61304 0.27838 0.67781
 H1030 H 0.61323 0.30200 0.70743
 H1031 H 0.62956 0.25182 0.69925
 H1032 H 0.59518 0.23902 0.70909
 H1033 H 0.57885 0.28921 0.71727
 H1034 H 0.59537 0.26264 0.73871
 C1035 C 0.10723 0.77982 0.19239
 C1036 C 0.10590 0.78803 0.21127
 C1037 C 0.11813 0.77313 0.21831
 C1038 C 0.11969 0.76496 0.19961
 C1039 C 0.09100 0.76798 0.19663
 C1040 C 0.10323 0.75308 0.20367
 C1041 C 0.08945 0.77614 0.21533
 C1042 C 0.10191 0.76129 0.22255
 C1043 C 0.13324 0.77598 0.23039
 C1044 C 0.14566 0.77829 0.24034
 C1045 C 0.07590 0.76509 0.18457
 C1046 C 0.06347 0.76270 0.17464
 H1047 H 0.10924 0.78741 0.17985
 H1048 H 0.10717 0.80243 0.21454
 H1049 H 0.13229 0.76040 0.19328
 H1050 H 0.10197 0.73867 0.20040
 H1051 H 0.07684 0.78071 0.22166
 H1052 H 0.09989 0.75370 0.23509
 C1053 C 0.28583 0.09506 0.24365
 C1054 C 0.29159 0.11493 0.24340
 C1055 C 0.28042 0.11771 0.22647
 C1056 C 0.27446 0.09807 0.22667
 C1057 C 0.30196 0.09048 0.23185
 C1058 C 0.29078 0.09326 0.21492
 C1059 C 0.30791 0.11012 0.23165
 C1060 C 0.29655 0.11313 0.21467
 C1061 C 0.26844 0.13289 0.22344
 C1062 C 0.25861 0.14538 0.22092
 C1063 C 0.31397 0.07533 0.23483
 C1064 C 0.32388 0.06288 0.23726
 H1065 H 0.28155 0.08745 0.25560
 H1066 H 0.29179 0.12401 0.25508
 H1067 H 0.26057 0.09329 0.22459
 H1068 H 0.29058 0.08418 0.20324
 H1069 H 0.32180 0.11490 0.23373
 H1070 H 0.30083 0.12074 0.20272
 C1071 C 0.78192 0.58922 0.72924
 C1072 C 0.77927 0.60500 0.74232
 C1073 C 0.78076 0.61805 0.72661
 C1074 C 0.78322 0.60251 0.71348
 C1075 C 0.80223 0.59074 0.73187
 C1076 C 0.80371 0.60379 0.71616
 C1077 C 0.79977 0.60628 0.74499
 C1078 C 0.80106 0.61957 0.72924
 C1079 C 0.76882 0.63327 0.72366
 C1080 C 0.75903 0.64581 0.72120
 C1081 C 0.81421 0.57555 0.73479
 C1082 C 0.82409 0.56307 0.73718
 H1083 H 0.77418 0.57657 0.72928
 H1084 H 0.76909 0.60566 0.75305
 H1085 H 0.77628 0.60112 0.70049
 H1086 H 0.81389 0.60313 0.70543
 H1087 H 0.80670 0.60766 0.75799
 H1088 H 0.80880 0.63222 0.72920
 C1089 C 0.78538 0.40497 0.75663
 C1090 C 0.79094 0.38504 0.75621
 C1091 C 0.78026 0.38194 0.77340
 C1092 C 0.77451 0.40163 0.77387
 C1093 C 0.80192 0.40909 0.76804
 C1094 C 0.79124 0.40599 0.78523
 C1095 C 0.80766 0.38939 0.76757
 C1096 C 0.79680 0.38606 0.78481
 C1097 C 0.76822 0.36682 0.77643
 C1098 C 0.75833 0.35437 0.77897
 C1099 C 0.81399 0.42420 0.76508
 C1100 C 0.82393 0.43663 0.76267
 H1101 H 0.78082 0.41292 0.74501
 H1102 H 0.79068 0.37626 0.74430
 H1103 H 0.76075 0.40650 0.77649
 H1104 H 0.79150 0.41477 0.79713
 H1105 H 0.82143 0.38453 0.76495
 H1106 H 0.80136 0.37812 0.79643
 C1107 C 0.30447 -0.10510 0.28317
 C1108 C 0.28421 -0.10373 0.28720
 C1109 C 0.28069 -0.11857 0.27351
 C1110 C 0.30077 -0.12017 0.26952
 C1111 C 0.30217 -0.09126 0.26824
 C1112 C 0.29866 -0.10609 0.25455
 C1113 C 0.28209 -0.08965 0.27223
 C1114 C 0.27839 -0.10472 0.25859
 C1115 C 0.26876 -0.13379 0.27647
 C1116 C 0.25896 -0.14633 0.27893
 C1117 C 0.31415 -0.07607 0.26532
 C1118 C 0.32403 -0.06359 0.26293
 H1119 H 0.31533 -0.10509 0.29324
 H1120 H 0.27813 -0.10293 0.30066
 H1121 H 0.30832 -0.13289 0.26844
 H1122 H 0.30473 -0.10689 0.24110
 H1123 H 0.27455 -0.07693 0.27331
 H1124 H 0.26754 -0.10474 0.24851
 C1125 C 0.19806 -0.10269 0.71475
 C1126 C 0.21875 -0.10178 0.71468
 C1127 C 0.21929 -0.11856 0.72645
 C1128 C 0.19879 -0.11970 0.72647
 C1129 C 0.19785 -0.09123 0.73171
 C1130 C 0.19839 -0.10800 0.74348
 C1131 C 0.21835 -0.09008 0.73169
 C1132 C 0.21908 -0.10709 0.74341
 C1133 C 0.23121 -0.13379 0.72350
 C1134 C 0.24099 -0.14633 0.72106
 C1135 C 0.18589 -0.07602 0.73463
 C1136 C 0.17603 -0.06352 0.73702
 H1137 H 0.18928 -0.10071 0.70300
 H1138 H 0.22725 -0.09939 0.70281
 H1139 H 0.19087 -0.13205 0.72430
 H1140 H 0.18989 -0.11039 0.75535
 H1141 H 0.22626 -0.07773 0.73386
 H1142 H 0.22786 -0.10907 0.75516
 C1143 C 0.70258 0.40134 0.21370
 C1144 C 0.72247 0.40055 0.21942
 C1145 C 0.71933 0.38167 0.22681
 C1146 C 0.69963 0.38223 0.22105
 C1147 C 0.69780 0.40893 0.23210
 C1148 C 0.69467 0.39006 0.23949
 C1149 C 0.71750 0.40838 0.23785
 C1150 C 0.71455 0.38927 0.24520
 C1151 C 0.73129 0.36648 0.22384
 C1152 C 0.74111 0.35396 0.22137
 C1153 C 0.68580 0.42410 0.23503
 C1154 C 0.67590 0.43656 0.23743
 H1155 H 0.69752 0.40647 0.20079
 H1156 H 0.73403 0.40470 0.21113
 H1157 H 0.69242 0.37131 0.21411
 H1158 H 0.68310 0.38591 0.24777
 H1159 H 0.72471 0.41931 0.24480
 H1160 H 0.71961 0.38414 0.25812
 C1161 C 0.71238 0.59139 0.28256
 C1162 C 0.72546 0.59915 0.26856
 C1163 C 0.71918 0.61805 0.27349
 C1164 C 0.70629 0.61053 0.28754
 C1165 C 0.69771 0.59074 0.26826
 C1166 C 0.69144 0.60963 0.27319
 C1167 C 0.71060 0.59826 0.25421
 C1168 C 0.70451 0.61739 0.25919
 C1169 C 0.73111 0.63328 0.27643
 C1170 C 0.74090 0.64582 0.27887
 C1171 C 0.68573 0.57554 0.26535
 C1172 C 0.67585 0.56305 0.26297
 H1173 H 0.71548 0.58053 0.29213
 H1174 H 0.73958 0.59501 0.26668
 H1175 H 0.70465 0.61574 0.30127
 H1176 H 0.67731 0.61377 0.27507
 H1177 H 0.71224 0.59304 0.24048
 H1178 H 0.70141 0.62825 0.24962
 C1179 C 0.19772 0.10807 0.75696
 C1180 C 0.19921 0.11883 0.77452
 C1181 C 0.21968 0.11797 0.77304
 C1182 C 0.21837 0.10745 0.75553
 C1183 C 0.19818 0.09067 0.76779
 C1184 C 0.21864 0.08981 0.76632
 C1185 C 0.19949 0.10119 0.78530
 C1186 C 0.22014 0.10057 0.78387
 C1187 C 0.23162 0.13319 0.77599
 C1188 C 0.24141 0.14573 0.77844
 C1189 C 0.18618 0.07549 0.76489
 C1190 C 0.17629 0.06302 0.76251
 H1191 H 0.18837 0.11099 0.74586
 H1192 H 0.19136 0.13093 0.77792
 H1193 H 0.22627 0.11019 0.74332
 H1194 H 0.22650 0.07770 0.76292
 H1195 H 0.19159 0.09845 0.79751
 H1196 H 0.22949 0.09765 0.79497
 C1197 C 0.23044 0.28347 0.08857
 C1198 C 0.24285 0.28170 0.10499
 C1199 C 0.22634 0.28224 0.11714
 C1200 C 0.21388 0.28382 0.10095
 C1201 C 0.23171 0.30390 0.09009
 C1202 C 0.21520 0.30443 0.10224
 C1203 C 0.24417 0.30231 0.10628
 C1204 C 0.22762 0.30266 0.11866
 C1205 C 0.22333 0.27018 0.13220
 C1206 C 0.22086 0.26026 0.14459
 C1207 C 0.23470 0.31596 0.07504
 C1208 C 0.23714 0.32590 0.06265
 H1209 H 0.23163 0.27572 0.07603
 H1210 H 0.25418 0.27223 0.10629
 H1211 H 0.20138 0.27608 0.09893
 H1212 H 0.20387 0.31391 0.10094
 H1213 H 0.25667 0.31005 0.10830
 H1214 H 0.22642 0.31041 0.13119
 C1215 C 0.73040 0.78375 0.58881
 C1216 C 0.74282 0.78198 0.60522
 C1217 C 0.72632 0.78249 0.61738
 C1218 C 0.71385 0.78407 0.60121
 C1219 C 0.73166 0.80417 0.59034
 C1220 C 0.71516 0.80468 0.60250
 C1221 C 0.74414 0.80259 0.60652
 C1222 C 0.72759 0.80291 0.61891
 C1223 C 0.72334 0.77042 0.63244
 C1224 C 0.72090 0.76050 0.64483
 C1225 C 0.73463 0.81625 0.57529
 C1226 C 0.73707 0.82619 0.56292
 H1227 H 0.73159 0.77600 0.57627
 H1228 H 0.75417 0.77251 0.60651
 H1229 H 0.70136 0.77632 0.59919
 H1230 H 0.70382 0.81415 0.60121
 H1231 H 0.75663 0.81034 0.60853
 H1232 H 0.72640 0.81066 0.63145
 C1233 C 0.75948 0.80640 0.39121
 C1234 C 0.77783 0.80266 0.38241
 C1235 C 0.77353 0.78259 0.38257
 C1236 C 0.75523 0.78615 0.39113
 C1237 C 0.76821 0.80426 0.40960
 C1238 C 0.76391 0.78420 0.40976
 C1239 C 0.78651 0.80070 0.40104
 C1240 C 0.78226 0.78045 0.40096
 C1241 C 0.77650 0.77053 0.36751
 C1242 C 0.77894 0.76061 0.35511
 C1243 C 0.76524 0.81633 0.42466
 C1244 C 0.76281 0.82627 0.43704
 H1245 H 0.75009 0.81721 0.38737
 H1246 H 0.78360 0.81011 0.37100
 H1247 H 0.74240 0.78003 0.38689
 H1248 H 0.75815 0.77674 0.42117
 H1249 H 0.79934 0.80682 0.40528
 H1250 H 0.79165 0.76964 0.40481
 C1251 C 0.27711 0.30966 -0.10841
 C1252 C 0.28875 0.29256 -0.10789
 C1253 C 0.27388 0.28244 -0.11775
 C1254 C 0.26228 0.29935 -0.11850
 C1255 C 0.26851 0.30407 -0.09069
 C1256 C 0.25364 0.29395 -0.10056
 C1257 C 0.28010 0.28715 -0.08994
 C1258 C 0.26528 0.27684 -0.10004
 C1259 C 0.27687 0.27039 -0.13282
 C1260 C 0.27933 0.26048 -0.14522
 C1261 C 0.26552 0.31612 -0.07563
 C1262 C 0.26306 0.32604 -0.06324
 H1263 H 0.28194 0.32329 -0.11168
 H1264 H 0.30322 0.29185 -0.11107
 H1265 H 0.25499 0.30424 -0.13042
 H1266 H 0.23916 0.29466 -0.09737
 H1267 H 0.28739 0.28227 -0.07802
 H1268 H 0.26045 0.26322 -0.09676
 C1269 C 0.72303 0.21431 -0.08901
 C1270 C 0.73783 0.22181 -0.10135
 C1271 C 0.72615 0.21732 -0.11756
 C1272 C 0.71131 0.21000 -0.10546
 C1273 C 0.73156 0.19570 -0.09050
 C1274 C 0.71988 0.19121 -0.10671
 C1275 C 0.74641 0.20302 -0.10260
 C1276 C 0.73468 0.19872 -0.11905
 C1277 C 0.72313 0.22938 -0.13263
 C1278 C 0.72065 0.23930 -0.14501
 C1279 C 0.73457 0.18366 -0.07542
 C1280 C 0.73705 0.17375 -0.06303
 H1281 H 0.71828 0.22058 -0.07649
 H1282 H 0.74518 0.23453 -0.09931
 H1283 H 0.69684 0.21301 -0.10680
 H1284 H 0.71254 0.17849 -0.10875
 H1285 H 0.76087 0.20002 -0.10125
 H1286 H 0.73944 0.19244 -0.13157
 C1287 C 0.21540 0.70785 0.40722
 C1288 C 0.22766 0.72374 0.40214
 C1289 C 0.22680 0.71779 0.38258
 C1290 C 0.21450 0.70209 0.38743
 C1291 C 0.23206 0.69610 0.40963
 C1292 C 0.23120 0.69015 0.39007
 C1293 C 0.24436 0.71179 0.40478
 C1294 C 0.24346 0.70603 0.38499
 C1295 C 0.22387 0.72986 0.36752
 C1296 C 0.22145 0.73978 0.35512
 C1297 C 0.23498 0.68402 0.42469
 C1298 C 0.23738 0.67407 0.43707
 H1299 H 0.20390 0.70847 0.41653
 H1300 H 0.22617 0.73768 0.40693
 H1301 H 0.20219 0.69824 0.38013
 H1302 H 0.23269 0.67621 0.38528
 H1303 H 0.25667 0.71565 0.41208
 H1304 H 0.25497 0.70542 0.37568
 C1305 C 0.27947 0.71320 0.58960
 C1306 C 0.26456 0.72330 0.59979
 C1307 C 0.27334 0.71782 0.61745
 C1308 C 0.28829 0.70791 0.60750
 C1309 C 0.26811 0.69613 0.59041
 C1310 C 0.27690 0.69065 0.60808
 C1311 C 0.25316 0.70603 0.60036
 C1312 C 0.26199 0.70074 0.61826
 C1313 C 0.27626 0.72989 0.63252
 C1314 C 0.27866 0.73982 0.64491
 C1315 C 0.26520 0.68404 0.57536
 C1316 C 0.26280 0.67409 0.56298
 H1317 H 0.28662 0.71819 0.57765
 H1318 H 0.25952 0.73686 0.59655
 H1319 H 0.30277 0.70882 0.61060
 H1320 H 0.28193 0.67709 0.61132
 H1321 H 0.23868 0.70512 0.59726
 H1322 H 0.25484 0.69575 0.63021
 C1323 C 0.75441 0.20843 0.09811
 C1324 C 0.76001 0.20251 0.11707
 C1325 C 0.77401 0.21752 0.11737
 C1326 C 0.76845 0.22363 0.09864
 C1327 C 0.76864 0.19589 0.09031
 C1328 C 0.78264 0.21090 0.09060
 C1329 C 0.77421 0.18978 0.10903
 C1330 C 0.78825 0.20498 0.10956
 C1331 C 0.77699 0.22957 0.13244
 C1332 C 0.77943 0.23947 0.14485
 C1333 C 0.76565 0.18383 0.07525
 C1334 C 0.76319 0.17390 0.06286
 H1335 H 0.74046 0.20971 0.09324
 H1336 H 0.75074 0.19919 0.12813
 H1337 H 0.76612 0.23768 0.09454
 H1338 H 0.79191 0.21422 0.07955
 H1339 H 0.77654 0.17573 0.11314
 H1340 H 0.80220 0.20370 0.11443
 C1341 C 0.49696 0.35209 0.54578
 C1342 C 0.48788 0.35076 0.52729
 C1343 C 0.47675 0.36740 0.53177
 C1344 C 0.48578 0.36897 0.55008
 C1345 C 0.48198 0.34046 0.55363
 C1346 C 0.47085 0.35710 0.55812
 C1347 C 0.47296 0.33890 0.53533
 C1348 C 0.46178 0.35577 0.53963
 C1349 C 0.47385 0.38239 0.51958
 C1350 C 0.47147 0.39470 0.50952
 C1351 C 0.48491 0.32544 0.56579
 C1352 C 0.48732 0.31307 0.57577
 H1353 H 0.51145 0.35041 0.54845
 H1354 H 0.49486 0.34832 0.51447
 H1355 H 0.49102 0.38150 0.55601
 H1356 H 0.46388 0.35954 0.57094
 H1357 H 0.46772 0.32637 0.52940
 H1358 H 0.44728 0.35746 0.53696
 C1359 C -0.00420 0.84682 0.03908
 C1360 C -0.01971 0.84841 0.02550
 C1361 C -0.02275 0.86777 0.03155
 C1362 C -0.00728 0.86641 0.04494
 C1363 C -0.01766 0.84068 0.05326
 C1364 C -0.02070 0.86004 0.05931
 C1365 C -0.03313 0.84204 0.03987
 C1366 C -0.03621 0.86164 0.04573
 C1367 C -0.02555 0.88286 0.01945
 C1368 C -0.02784 0.89527 0.00949
 C1369 C -0.01481 0.82559 0.06534
 C1370 C -0.01245 0.81317 0.07527
 H1371 H 0.00899 0.84056 0.03648
 H1372 H -0.01934 0.84379 0.01146
 H1373 H 0.00332 0.87661 0.04689
 H1374 H -0.02107 0.86466 0.07335
 H1375 H -0.04373 0.83184 0.03792
 H1376 H -0.04940 0.86790 0.04833
 C1377 C 0.00337 0.65041 0.04223
 C1378 C 0.01577 0.65073 0.02571
 C1379 C 0.02337 0.63252 0.03131
 C1380 C 0.01102 0.63196 0.04764
 C1381 C 0.01818 0.65949 0.05313
 C1382 C 0.02578 0.64127 0.05873
 C1383 C 0.03053 0.66005 0.03680
 C1384 C 0.03818 0.64160 0.04221
 C1385 C 0.02625 0.61751 0.01913
 C1386 C 0.02861 0.60518 0.00909
 C1387 C 0.01529 0.67452 0.06527
 C1388 C 0.01290 0.68690 0.07524
 H1389 H -0.01097 0.65420 0.04237
 H1390 H 0.01168 0.65446 0.01200
 H1391 H 0.00303 0.62024 0.05196
 H1392 H 0.02987 0.63755 0.07245
 H1393 H 0.03852 0.67176 0.03248
 H1394 H 0.05252 0.63781 0.04207
 C1395 C 0.51020 0.15826 0.53474
 C1396 C 0.52863 0.15162 0.52807
 C1397 C 0.52283 0.13233 0.53195
 C1398 C 0.50443 0.13873 0.53843
 C1399 C 0.51779 0.15938 0.55371
 C1400 C 0.51198 0.14009 0.55759
 C1401 C 0.53618 0.15298 0.54723
 C1402 C 0.53042 0.13345 0.55092
 C1403 C 0.52561 0.11726 0.51983
 C1404 C 0.52789 0.10487 0.50986
 C1405 C 0.51496 0.17445 0.56582
 C1406 C 0.51262 0.18685 0.57577
 H1407 H 0.50185 0.16862 0.52822
 H1408 H 0.53551 0.15620 0.51579
 H1409 H 0.49141 0.13270 0.53468
 H1410 H 0.50510 0.13552 0.56987
 H1411 H 0.54920 0.15901 0.55098
 H1412 H 0.53876 0.12309 0.55744
 C1413 C -0.02181 0.14037 0.44060
 C1414 C -0.00807 0.13357 0.45447
 C1415 C -0.02310 0.13252 0.46837
 C1416 C -0.03688 0.13908 0.45469
 C1417 C -0.01808 0.15961 0.44665
 C1418 C -0.03310 0.15855 0.46055
 C1419 C -0.00430 0.15305 0.46033
 C1420 C -0.01936 0.15176 0.47442
 C1421 C -0.02587 0.11742 0.48047
 C1422 C -0.02813 0.10501 0.49043
 C1423 C -0.01527 0.17470 0.43455
 C1424 C -0.01294 0.18711 0.42461
 H1425 H -0.02279 0.13585 0.42656
 H1426 H 0.00219 0.12313 0.45210
 H1427 H -0.05031 0.13316 0.45251
 H1428 H -0.04336 0.16900 0.46292
 H1429 H 0.00913 0.15896 0.46251
 H1430 H -0.01838 0.15628 0.48846
 C1431 C 0.47816 0.64029 0.94088
 C1432 C 0.49186 0.63349 0.95478
 C1433 C 0.47682 0.63249 0.96866
 C1434 C 0.46307 0.63906 0.95495
 C1435 C 0.48192 0.65953 0.94689
 C1436 C 0.46688 0.65854 0.96078
 C1437 C 0.49567 0.65297 0.96061
 C1438 C 0.48059 0.65174 0.97468
 C1439 C 0.47399 0.61744 0.98080
 C1440 C 0.47168 0.60507 0.99079
 C1441 C 0.48478 0.67460 0.93478
 C1442 C 0.48715 0.68700 0.92483
 H1443 H 0.47719 0.63575 0.92685
 H1444 H 0.50210 0.62302 0.95245
 H1445 H 0.44963 0.63317 0.95276
 H1446 H 0.45664 0.66901 0.96311
 H1447 H 0.50911 0.65886 0.96279
 H1448 H 0.48156 0.65628 0.98871
 C1449 C 0.50411 0.84745 0.96041
 C1450 C 0.51895 0.84837 0.97476
 C1451 C 0.52323 0.86753 0.96881
 C1452 C 0.50843 0.86684 0.95464
 C1453 C 0.51798 0.84059 0.94696
 C1454 C 0.52225 0.85975 0.94101
 C1455 C 0.53277 0.84128 0.96113
 C1456 C 0.53710 0.86068 0.95536
 C1457 C 0.52614 0.88252 0.98100
 C1458 C 0.52853 0.89484 0.99105
 C1459 C 0.51504 0.82557 0.93481
 C1460 C 0.51261 0.81321 0.92484
 H1461 H 0.49051 0.84184 0.96234
 H1462 H 0.51762 0.84386 0.98877
 H1463 H 0.49846 0.87752 0.95211
 H1464 H 0.52358 0.86426 0.92699
 H1465 H 0.54275 0.83061 0.96366
 H1466 H 0.55069 0.86628 0.95343
 C1467 C 0.03577 0.34631 0.45409
 C1468 C 0.03155 0.36609 0.44972
 C1469 C 0.02268 0.36803 0.46807
 C1470 C 0.02695 0.34848 0.47263
 C1471 C 0.01753 0.34095 0.44637
 C1472 C 0.00867 0.34289 0.46471
 C1473 C 0.01326 0.36049 0.44181
 C1474 C 0.00444 0.36266 0.46034
 C1475 C 0.02553 0.38310 0.48017
 C1476 C 0.02784 0.39550 0.49014
 C1477 C 0.01465 0.32586 0.43429
 C1478 C 0.01226 0.31345 0.42436
 H1479 H 0.04863 0.33942 0.45138
 H1480 H 0.04099 0.37580 0.44370
 H1481 H 0.03262 0.34371 0.48543
 H1482 H -0.00077 0.33318 0.47074
 H1483 H 0.00760 0.36526 0.42900
 H1484 H -0.00841 0.36955 0.46305
 C1485 C 0.35185 0.55164 0.46474
 C1486 C 0.36916 0.55113 0.47605
 C1487 C 0.36793 0.53065 0.47658
 C1488 C 0.35085 0.53098 0.46522
 C1489 C 0.34081 0.55233 0.48197
 C1490 C 0.33957 0.53186 0.48250
 C1491 C 0.35788 0.55201 0.49333
 C1492 C 0.35689 0.53135 0.49381
 C1493 C 0.38303 0.51859 0.47354
 C1494 C 0.39546 0.50868 0.47100
 C1495 C 0.32570 0.56442 0.48495
 C1496 C 0.31328 0.57437 0.48737
 H1497 H 0.34960 0.56012 0.45283
 H1498 H 0.38149 0.55892 0.47336
 H1499 H 0.34812 0.52219 0.45363
 H1500 H 0.32724 0.52407 0.48519
 H1501 H 0.36061 0.56080 0.50492
 H1502 H 0.35913 0.52287 0.50572
 C1503 C 0.84866 0.04768 -0.03665
 C1504 C 0.86779 0.05065 -0.02934
 C1505 C 0.86837 0.03097 -0.02356
 C1506 C 0.84947 0.02782 -0.03091
 C1507 C 0.84109 0.05247 -0.01825
 C1508 C 0.84166 0.03280 -0.01247
 C1509 C 0.85999 0.05563 -0.01090
 C1510 C 0.86080 0.03577 -0.00516
 C1511 C 0.88358 0.01902 -0.02654
 C1512 C 0.89611 0.00922 -0.02900
 C1513 C 0.82591 0.06446 -0.01530
 C1514 C 0.81343 0.07434 -0.01289
 H1515 H 0.84349 0.05271 -0.04956
 H1516 H 0.87871 0.05786 -0.03632
 H1517 H 0.84531 0.01625 -0.03918
 H1518 H 0.83075 0.02559 -0.00549
 H1519 H 0.86415 0.06719 -0.00263
 H1520 H 0.86597 0.03073 0.00775
 C1521 C 0.64054 0.05517 0.01100
 C1522 C 0.63991 0.03523 0.00554
 C1523 C 0.63226 0.03064 0.02396
 C1524 C 0.63266 0.05039 0.02947
 C1525 C 0.65942 0.05227 0.01851
 C1526 C 0.65177 0.04767 0.03693
 C1527 C 0.65902 0.03251 0.01300
 C1528 C 0.65114 0.02773 0.03147
 C1529 C 0.61713 0.01860 0.02702
 C1530 C 0.60469 0.00871 0.02957
 C1531 C 0.67454 0.06432 0.01549
 C1532 C 0.68697 0.07424 0.01302
 H1533 H 0.63635 0.06659 0.00254
 H1534 H 0.63486 0.02997 -0.00733
 H1535 H 0.62165 0.05761 0.03627
 H1536 H 0.65682 0.05293 0.04980
 H1537 H 0.67004 0.02529 0.00620
 H1538 H 0.65533 0.01631 0.03992
 C1539 C 0.14099 0.55425 0.50848
 C1540 C 0.14112 0.53382 0.50521
 C1541 C 0.13182 0.53109 0.52324
 C1542 C 0.13145 0.55134 0.52655
 C1543 C 0.15911 0.55260 0.51797
 C1544 C 0.14980 0.54987 0.53600
 C1545 C 0.15948 0.53236 0.51465
 C1546 C 0.14994 0.52944 0.53273
 C1547 C 0.11661 0.51914 0.52619
 C1548 C 0.10408 0.50933 0.52865
 C1549 C 0.17429 0.56460 0.51505
 C1550 C 0.18677 0.57450 0.51267
 H1551 H 0.13748 0.56459 0.49847
 H1552 H 0.13738 0.52709 0.49258
 H1553 H 0.11976 0.55901 0.53148
 H1554 H 0.15354 0.55661 0.54862
 H1555 H 0.17117 0.52469 0.50973
 H1556 H 0.15345 0.51911 0.54273
 C1557 C 0.14644 0.45392 -0.00386
 C1558 C 0.14787 0.47321 -0.01121
 C1559 C 0.13220 0.46927 -0.02383
 C1560 C 0.13053 0.45017 -0.01653
 C1561 C 0.15935 0.44761 -0.01846
 C1562 C 0.14368 0.44368 -0.03108
 C1563 C 0.16102 0.46671 -0.02577
 C1564 C 0.14511 0.46296 -0.03844
 C1565 C 0.11707 0.48132 -0.02686
 C1566 C 0.10463 0.49121 -0.02938
 C1567 C 0.17446 0.43554 -0.01549
 C1568 C 0.18689 0.42560 -0.01307
 H1569 H 0.14715 0.45007 0.01040
 H1570 H 0.14942 0.48548 -0.00307
 H1571 H 0.11783 0.44351 -0.01276
 H1572 H 0.14212 0.43140 -0.03923
 H1573 H 0.17372 0.47337 -0.02953
 H1574 H 0.14440 0.46681 -0.05269
 C1575 C 0.65387 0.95569 0.46386
 C1576 C 0.63407 0.95098 0.46763
 C1577 C 0.63173 0.96921 0.47673
 C1578 C 0.65130 0.97410 0.47291
 C1579 C 0.65901 0.94770 0.48199
 C1580 C 0.65667 0.96592 0.49109
 C1581 C 0.63944 0.94281 0.48581
 C1582 C 0.63686 0.96122 0.49486
 C1583 C 0.61651 0.98116 0.47378
 C1584 C 0.60398 0.99097 0.47133
 C1585 C 0.67419 0.93570 0.48490
 C1586 C 0.68667 0.92581 0.48729
 H1587 H 0.66104 0.95328 0.45114
 H1588 H 0.62460 0.94497 0.45795
 H1589 H 0.65600 0.98710 0.46757
 H1590 H 0.66614 0.97193 0.50076
 H1591 H 0.63473 0.92980 0.49114
 H1592 H 0.62970 0.96362 0.50757
 C1593 C 0.85572 0.95125 0.50443
 C1594 C 0.85431 0.97149 0.50848
 C1595 C 0.86816 0.96921 0.52340
 C1596 C 0.86981 0.94915 0.51940
 C1597 C 0.84088 0.94769 0.51811
 C1598 C 0.85474 0.94541 0.53304
 C1599 C 0.83923 0.96775 0.52212
 C1600 C 0.85332 0.96565 0.53709
 C1601 C 0.88337 0.98116 0.52637
 C1602 C 0.89590 0.99097 0.52883
 C1603 C 0.82571 0.93569 0.51518
 C1604 C 0.81323 0.92579 0.51278
 H1605 H 0.85654 0.94519 0.49097
 H1606 H 0.85430 0.98234 0.49841
 H1607 H 0.88256 0.94164 0.51832
 H1608 H 0.85475 0.93456 0.54311
 H1609 H 0.82649 0.97526 0.52320
 H1610 H 0.85251 0.97171 0.55055
 C1611 C 0.34399 0.46504 0.00793
 C1612 C 0.34837 0.47442 0.02578
 C1613 C 0.36807 0.46911 0.02350
 C1614 C 0.36393 0.45991 0.00569
 C1615 C 0.34088 0.44751 0.01810
 C1616 C 0.36058 0.44220 0.01582
 C1617 C 0.34502 0.45671 0.03591
 C1618 C 0.36496 0.45158 0.03367
 C1619 C 0.38322 0.48112 0.02653
 C1620 C 0.39570 0.49098 0.02905
 C1621 C 0.32574 0.43547 0.01512
 C1622 C 0.31330 0.42555 0.01268
 H1623 H 0.33520 0.47043 -0.00270
 H1624 H 0.34352 0.48780 0.02992
 H1625 H 0.37187 0.46137 -0.00671
 H1626 H 0.36543 0.42882 0.01169
 H1627 H 0.33708 0.45525 0.04831
 H1628 H 0.37375 0.44618 0.04430
 C1629 C 0.53726 0.46987 0.33977
 C1630 C 0.54262 0.46118 0.35771
 C1631 C 0.53253 0.47605 0.36758
 C1632 C 0.52699 0.48470 0.34987
 C1633 C 0.55423 0.48140 0.34056
 C1634 C 0.54414 0.49627 0.35043
 C1635 C 0.55978 0.47275 0.35827
 C1636 C 0.54950 0.48758 0.36837
 C1637 C 0.52044 0.47307 0.38263
 C1638 C 0.51049 0.47062 0.39500
 C1639 C 0.56631 0.48437 0.32551
 C1640 C 0.57626 0.48682 0.31313
 H1641 H 0.53236 0.46262 0.32783
 H1642 H 0.54186 0.44671 0.36087
 H1643 H 0.51337 0.48957 0.34659
 H1644 H 0.54491 0.51074 0.34727
 H1645 H 0.57340 0.46788 0.36155
 H1646 H 0.55440 0.49483 0.38031
 C1647 C 0.03756 -0.02992 0.83941
 C1648 C 0.04292 -0.03859 0.85736
 C1649 C 0.03284 -0.02371 0.86722
 C1650 C 0.02729 -0.01507 0.84951
 C1651 C 0.05453 -0.01839 0.84018
 C1652 C 0.04446 -0.00351 0.85005
 C1653 C 0.06008 -0.02703 0.85790
 C1654 C 0.04982 -0.01219 0.86800
 C1655 C 0.02076 -0.02667 0.88228
 C1656 C 0.01083 -0.02909 0.89468
 C1657 C 0.06662 -0.01544 0.82513
 C1658 C 0.07657 -0.01301 0.81275
 H1659 H 0.03265 -0.03717 0.82748
 H1660 H 0.04215 -0.05305 0.86053
 H1661 H 0.01368 -0.01019 0.84623
 H1662 H 0.04522 0.01095 0.84688
 H1663 H 0.07370 -0.03191 0.86118
 H1664 H 0.05472 -0.00493 0.87992
 C1665 C 0.03815 0.03073 0.65998
 C1666 C 0.04374 0.03843 0.64166
 C1667 C 0.03279 0.02372 0.63247
 C1668 C 0.02701 0.01606 0.65056
 C1669 C 0.05450 0.01833 0.65949
 C1670 C 0.04355 0.00361 0.65030
 C1671 C 0.06027 0.02598 0.64141
 C1672 C 0.04914 0.01131 0.63198
 C1673 C 0.02070 0.02671 0.61743
 C1674 C 0.01075 0.02917 0.60505
 C1675 C 0.06658 0.01533 0.67454
 C1676 C 0.07654 0.01286 0.68691
 H1677 H 0.03376 0.03868 0.67166
 H1678 H 0.04368 0.05278 0.63794
 H1679 H 0.01320 0.01202 0.65415
 H1680 H 0.04361 -0.01073 0.65402
 H1681 H 0.07409 0.03002 0.63781
 H1682 H 0.05353 0.00336 0.62030
 C1683 C 0.54257 0.53487 0.15742
 C1684 C 0.54836 0.53581 0.13764
 C1685 C 0.53262 0.52357 0.13274
 C1686 C 0.52665 0.52268 0.15229
 C1687 C 0.55429 0.51819 0.15979
 C1688 C 0.53856 0.50595 0.15490
 C1689 C 0.56026 0.51908 0.14024
 C1690 C 0.54434 0.50689 0.13511
 C1691 C 0.52055 0.52656 0.11768
 C1692 C 0.51061 0.52902 0.10530
 C1693 C 0.56636 0.51519 0.17485
 C1694 C 0.57630 0.51274 0.18724
 H1695 H 0.54198 0.54634 0.16676
 H1696 H 0.55225 0.54812 0.13037
 H1697 H 0.51270 0.52419 0.15708
 H1698 H 0.53466 0.49364 0.16216
 H1699 H 0.57422 0.51756 0.13545
 H1700 H 0.54493 0.49541 0.12578
 C1701 C 0.46356 -0.02861 0.16111
 C1702 C 0.45868 -0.03876 0.14380
 C1703 C 0.46747 -0.02379 0.13290
 C1704 C 0.47254 -0.01368 0.14997
 C1705 C 0.44574 -0.01848 0.15990
 C1706 C 0.45453 -0.00351 0.14900
 C1707 C 0.44067 -0.02859 0.14284
 C1708 C 0.44965 -0.01366 0.13170
 C1709 C 0.47958 -0.02675 0.11786
 C1710 C 0.48954 -0.02919 0.10550
 C1711 C 0.43364 -0.01553 0.17494
 C1712 C 0.42367 -0.01311 0.18731
 H1713 H 0.46914 -0.03472 0.17337
 H1714 H 0.46052 -0.05329 0.14150
 H1715 H 0.48578 -0.00759 0.15273
 H1716 H 0.45269 0.01102 0.15130
 H1717 H 0.42744 -0.03468 0.14007
 H1718 H 0.44407 -0.00754 0.11943
 C1719 C 0.94228 0.48826 0.64059
 C1720 C 0.96190 0.49480 0.63955
 C1721 C 0.96745 0.47633 0.63258
 C1722 C 0.94801 0.46974 0.63338
 C1723 C 0.94576 0.48161 0.65963
 C1724 C 0.95131 0.46314 0.65265
 C1725 C 0.96519 0.48820 0.65882
 C1726 C 0.97093 0.46968 0.65161
 C1727 C 0.97951 0.47339 0.61751
 C1728 C 0.98944 0.47098 0.60510
 C1729 C 0.93368 0.48455 0.67468
 C1730 C 0.92373 0.48697 0.68707
 H1731 H 0.93036 0.49593 0.63622
 H1732 H 0.96638 0.50779 0.63400
 H1733 H 0.94108 0.46212 0.62275
 H1734 H 0.94682 0.45015 0.65821
 H1735 H 0.97212 0.49583 0.66946
 H1736 H 0.98285 0.46201 0.65598
 C1737 C 0.94212 0.51163 0.85948
 C1738 C 0.96173 0.50505 0.86055
 C1739 C 0.96732 0.52356 0.86741
 C1740 C 0.94791 0.53018 0.86657
 C1741 C 0.94562 0.51816 0.84040
 C1742 C 0.95121 0.53666 0.84726
 C1743 C 0.96503 0.51153 0.84124
 C1744 C 0.97082 0.53008 0.84833
 C1745 C 0.97942 0.52656 0.88245
 C1746 C 0.98939 0.52903 0.89481
 C1747 C 0.93353 0.51516 0.82535
 C1748 C 0.92359 0.51270 0.81297
 H1749 H 0.93019 0.50401 0.86389
 H1750 H 0.96619 0.49209 0.86618
 H1751 H 0.94100 0.53789 0.87716
 H1752 H 0.94675 0.54962 0.84163
 H1753 H 0.97194 0.50382 0.83065
 H1754 H 0.98275 0.53770 0.84392
 C1755 C 0.46500 0.02450 0.33884
 C1756 C 0.46181 0.03812 0.35404
 C1757 C 0.46717 0.02374 0.36763
 C1758 C 0.47055 0.01018 0.35266
 C1759 C 0.44550 0.01832 0.34059
 C1760 C 0.45086 0.00395 0.35418
 C1761 C 0.44212 0.03188 0.35556
 C1762 C 0.44767 0.01756 0.36938
 C1763 C 0.47924 0.02675 0.38269
 C1764 C 0.48918 0.02920 0.39507
 C1765 C 0.43343 0.01530 0.32554
 C1766 C 0.42349 0.01281 0.31316
 H1767 H 0.47199 0.02733 0.32611
 H1768 H 0.46644 0.05220 0.35416
 H1769 H 0.48238 0.00129 0.35163
 H1770 H 0.44623 -0.01014 0.35406
 H1771 H 0.43029 0.04077 0.35659
 H1772 H 0.44068 0.01473 0.38211
   
