data_POSCAR
  _audit_creation_date              2014-09-24
  _audit_creation_method            'ToBaCCo'
  _symmetry_space_group_name_H-M    'P1'
  _symmetry_Int_Tables_number       1
  _symmetry_cell_setting            triclinic
  loop_
  _symmetry_equiv_pos_as_xyz
 x,y,z
_cell_length_a 56.7604
_cell_length_b 56.9758
_cell_length_c 57.0947
_cell_angle_alpha 90.048800
_cell_angle_beta 89.939600
_cell_angle_gamma 90.090100
loop_
  _atom_site_label
  _atom_site_type_symbol
  _atom_site_fract_x
  _atom_site_fract_y
  _atom_site_fract_z
N1 N 0.17169 0.22823 0.23362
 N2 N 0.17745 0.20915 0.24519
 C3 C 0.16243 0.20634 0.26326
 C4 C 0.14648 0.22462 0.26300
 C5 C 0.15285 0.23820 0.24391
 H6 H 0.16297 0.19210 0.27575
 H7 H 0.14441 0.25406 0.23783
 Cu8 Cu 0.20403 0.18988 0.23556
 Cu9 Cu 0.18887 0.23864 0.20599
 Cu10 Cu 0.23694 0.20528 0.18895
 N11 N 0.23148 0.17176 0.22613
 N12 N 0.24427 0.17787 0.20791
 C13 C 0.26208 0.16251 0.20531
 C14 C 0.26036 0.14588 0.22291
 C15 C 0.24077 0.15229 0.23576
 H16 H 0.27523 0.16346 0.19164
 H17 H 0.23390 0.14338 0.25103
 N18 N 0.22674 0.23361 0.17202
 N19 N 0.20843 0.24632 0.17852
 C20 C 0.20591 0.26436 0.16349
 C21 C 0.22350 0.26289 0.14674
 C22 C 0.23634 0.24324 0.15269
 H23 H 0.19225 0.27748 0.16463
 H24 H 0.25154 0.23647 0.14349
 H25 H 0.20123 0.20600 0.19608
 H26 H 0.22069 0.22386 0.21556
 N27 N 0.66713 0.72408 0.72836
 N28 N 0.67331 0.70525 0.74013
 C29 C 0.65841 0.70237 0.75829
 C30 C 0.64206 0.72029 0.75784
 C31 C 0.64813 0.73380 0.73859
 H32 H 0.65929 0.68830 0.77095
 H33 H 0.63945 0.74948 0.73243
 Cu34 Cu 0.70020 0.68637 0.73051
 Cu35 Cu 0.68410 0.73460 0.70064
 Cu36 Cu 0.73259 0.70184 0.68361
 N37 N 0.72780 0.66848 0.72105
 N38 N 0.74034 0.67461 0.70267
 C39 C 0.75827 0.65941 0.70000
 C40 C 0.75695 0.64289 0.71762
 C41 C 0.73738 0.64915 0.73072
 H42 H 0.77138 0.66028 0.68626
 H43 H 0.73063 0.64038 0.74610
 N44 N 0.72196 0.72997 0.66659
 N45 N 0.70349 0.74243 0.67308
 C46 C 0.70075 0.76043 0.65805
 C47 C 0.71829 0.75925 0.64134
 C48 C 0.73146 0.73971 0.64726
 H49 H 0.68703 0.77353 0.65911
 H50 H 0.74681 0.73308 0.63824
 H51 H 0.69693 0.70209 0.69091
 H52 H 0.71621 0.72042 0.71011
 N53 N 0.32669 0.77275 0.73342
 N54 N 0.32119 0.79219 0.74457
 C55 C 0.33617 0.79516 0.76263
 C56 C 0.35181 0.77661 0.76280
 C57 C 0.34530 0.76270 0.74399
 H58 H 0.33584 0.80972 0.77478
 H59 H 0.35351 0.74659 0.73825
 Cu60 Cu 0.29506 0.81171 0.73427
 Cu61 Cu 0.30952 0.76198 0.70593
 Cu62 Cu 0.26244 0.79601 0.68767
 N63 N 0.26823 0.83035 0.72413
 N64 N 0.25567 0.82415 0.70581
 C65 C 0.23841 0.83996 0.70245
 C66 C 0.24024 0.85703 0.71968
 C67 C 0.25931 0.85033 0.73313
 H68 H 0.22553 0.83892 0.68856
 H69 H 0.26616 0.85942 0.74831
 N70 N 0.27203 0.76693 0.67162
 N71 N 0.29001 0.75401 0.67852
 C72 C 0.29220 0.73552 0.66396
 C73 C 0.27477 0.73682 0.64719
 C74 C 0.26228 0.75697 0.65253
 H75 H 0.30550 0.72203 0.66536
 H76 H 0.24735 0.76398 0.64315
 H77 H 0.29803 0.79462 0.69518
 H78 H 0.27793 0.77764 0.71480
 N79 N 0.83331 0.27671 0.22739
 N80 N 0.82657 0.29499 0.23972
 C81 C 0.84128 0.29774 0.25802
 C82 C 0.85810 0.28024 0.25711
 C83 C 0.85250 0.26716 0.23739
 H84 H 0.83995 0.31144 0.27108
 H85 H 0.86157 0.25189 0.23071
 Cu86 Cu 0.79928 0.31349 0.23062
 Cu87 Cu 0.81683 0.26665 0.19924
 Cu88 Cu 0.76880 0.29985 0.18192
 N89 N 0.77266 0.33228 0.22028
 N90 N 0.76087 0.32690 0.20121
 C91 C 0.74350 0.34265 0.19808
 C92 C 0.74450 0.35880 0.21620
 C93 C 0.76317 0.35167 0.22994
 H94 H 0.73108 0.34225 0.18376
 H95 H 0.76931 0.36007 0.24579
 N96 N 0.77957 0.27184 0.16472
 N97 N 0.79791 0.25925 0.17128
 C98 C 0.80082 0.24138 0.15609
 C99 C 0.78345 0.24283 0.13917
 C100 C 0.77031 0.26228 0.14520
 H101 H 0.81445 0.22824 0.15737
 H102 H 0.75508 0.26889 0.13597
 H103 H 0.80417 0.29953 0.19053
 H104 H 0.78427 0.28024 0.20814
 N105 N 0.83460 0.72261 0.27269
 N106 N 0.82829 0.70374 0.26100
 C107 C 0.84319 0.70065 0.24288
 C108 C 0.85971 0.71856 0.24332
 C109 C 0.85369 0.73217 0.26242
 H110 H 0.84200 0.68652 0.23030
 H111 H 0.86262 0.74785 0.26839
 Cu112 Cu 0.80116 0.68510 0.27047
 Cu113 Cu 0.81766 0.73334 0.30035
 Cu114 Cu 0.76856 0.70119 0.31704
 N115 N 0.77318 0.66765 0.27973
 N116 N 0.76051 0.67403 0.29794
 C117 C 0.74229 0.65909 0.30042
 C118 C 0.74357 0.64247 0.28285
 C119 C 0.76340 0.64842 0.26999
 H120 H 0.72903 0.66019 0.31399
 H121 H 0.77019 0.63952 0.25470
 N122 N 0.77951 0.72919 0.33415
 N123 N 0.79826 0.74140 0.32783
 C124 C 0.80125 0.75931 0.34296
 C125 C 0.78351 0.75829 0.35958
 C126 C 0.77007 0.73905 0.35344
 H127 H 0.81524 0.77214 0.34189
 H128 H 0.75456 0.73274 0.36247
 H129 H 0.80429 0.70101 0.31004
 H130 H 0.78545 0.71945 0.29059
 N131 N 0.33346 0.22551 -0.22943
 N132 N 0.32801 0.20588 -0.24029
 C133 C 0.34356 0.20221 -0.25774
 C134 C 0.35964 0.22058 -0.25777
 C135 C 0.35265 0.23500 -0.23958
 H136 H 0.34302 0.18741 -0.26957
 H137 H 0.36092 0.25125 -0.23420
 Cu138 Cu 0.30092 0.18708 -0.23101
 Cu139 Cu 0.31519 0.23732 -0.20311
 Cu140 Cu 0.26551 0.20569 -0.18738
 N141 N 0.27243 0.17013 -0.22233
 N142 N 0.25853 0.17762 -0.20550
 C143 C 0.24007 0.16292 -0.20345
 C144 C 0.24251 0.14524 -0.21981
 C145 C 0.26326 0.15035 -0.23155
 H146 H 0.22586 0.16488 -0.19096
 H147 H 0.27099 0.14058 -0.24585
 N148 N 0.27547 0.23449 -0.17107
 N149 N 0.29449 0.24647 -0.17694
 C150 C 0.29679 0.26489 -0.16229
 C151 C 0.27835 0.26450 -0.14652
 C152 C 0.26515 0.24497 -0.15256
 H153 H 0.31090 0.27765 -0.16289
 H154 H 0.24940 0.23866 -0.14398
 H155 H 0.30161 0.20541 -0.19235
 H156 H 0.28380 0.22242 -0.21399
 N157 N 0.67301 0.26882 -0.23544
 N158 N 0.67920 0.28747 -0.24753
 C159 C 0.66403 0.29030 -0.26544
 C160 C 0.64754 0.27244 -0.26457
 C161 C 0.65377 0.25910 -0.24524
 H162 H 0.66488 0.30425 -0.27825
 H163 H 0.64504 0.24357 -0.23867
 Cu164 Cu 0.70659 0.30608 -0.23875
 Cu165 Cu 0.69025 0.25853 -0.20785
 Cu166 Cu 0.73864 0.29185 -0.19134
 N167 N 0.73351 0.32489 -0.22899
 N168 N 0.74598 0.31919 -0.21047
 C169 C 0.76348 0.33490 -0.20765
 C170 C 0.76188 0.35137 -0.22541
 C171 C 0.74268 0.34448 -0.23859
 H172 H 0.77632 0.33432 -0.19371
 H173 H 0.73598 0.35317 -0.25403
 N174 N 0.72839 0.26359 -0.17422
 N175 N 0.70992 0.25096 -0.18046
 C176 C 0.70739 0.23301 -0.16532
 C177 C 0.72511 0.23436 -0.14884
 C178 C 0.73812 0.25398 -0.15498
 H179 H 0.69369 0.21983 -0.16613
 H180 H 0.75342 0.26085 -0.14605
 H181 H 0.70301 0.29132 -0.19884
 H182 H 0.72245 0.27255 -0.21742
 N183 N 0.16814 0.77429 0.27114
 N184 N 0.17434 0.79307 0.25927
 C185 C 0.15979 0.79555 0.24081
 C186 C 0.14362 0.77731 0.24120
 C187 C 0.14945 0.76420 0.26067
 H188 H 0.16089 0.80955 0.22811
 H189 H 0.14069 0.74847 0.26674
 Cu190 Cu 0.20083 0.81244 0.26909
 Cu191 Cu 0.18471 0.76430 0.29924
 Cu192 Cu 0.23268 0.79780 0.31653
 N193 N 0.22810 0.83077 0.27876
 N194 N 0.24046 0.82496 0.29733
 C195 C 0.25821 0.84042 0.30008
 C196 C 0.25694 0.85681 0.28230
 C197 C 0.23759 0.85015 0.26903
 H198 H 0.27112 0.83981 0.31398
 H199 H 0.23089 0.85864 0.25349
 N200 N 0.22204 0.76971 0.33369
 N201 N 0.20371 0.75702 0.32716
 C202 C 0.20084 0.73919 0.34237
 C203 C 0.21822 0.74075 0.35928
 C204 C 0.23134 0.76024 0.35321
 H205 H 0.18719 0.72601 0.34113
 H206 H 0.24653 0.76698 0.36246
 H207 H 0.19714 0.79706 0.30879
 H208 H 0.21684 0.77877 0.28999
 N209 N 0.47795 0.42173 0.48287
 N210 N 0.45919 0.42806 0.49480
 C211 C 0.45680 0.41383 0.51349
 C212 C 0.47503 0.39781 0.51327
 C213 C 0.48815 0.40331 0.49355
 H214 H 0.44283 0.41492 0.52634
 H215 H 0.50377 0.39450 0.48726
 Cu216 Cu 0.43968 0.45421 0.48467
 Cu217 Cu 0.48763 0.43756 0.45424
 Cu218 Cu 0.45384 0.48485 0.43628
 N219 N 0.42126 0.48117 0.47466
 N220 N 0.42689 0.49306 0.45574
 C221 C 0.41138 0.51065 0.45281
 C222 C 0.39517 0.50979 0.47083
 C223 C 0.40196 0.49085 0.48443
 H224 H 0.41181 0.52320 0.43861
 H225 H 0.39355 0.48459 0.50022
 N226 N 0.48176 0.47385 0.41895
 N227 N 0.49457 0.45579 0.42574
 C228 C 0.51223 0.45254 0.41029
 C229 C 0.51040 0.46940 0.39295
 C230 C 0.49096 0.48260 0.39902
 H231 H 0.52545 0.43899 0.41164
 H232 H 0.48407 0.49747 0.38949
 H233 H 0.47323 0.46974 0.46292
 H234 H 0.45463 0.44963 0.44485
 N235 N -0.02143 -0.07851 0.98337
 N236 N -0.04089 -0.07302 0.99461
 C237 C -0.04400 -0.08818 1.01245
 C238 C -0.02553 -0.10393 1.01239
 C239 C -0.01151 -0.09730 0.99366
 H240 H -0.05855 -0.08782 1.02469
 H241 H 0.00462 -0.10549 0.98784
 Cu242 Cu -0.06016 -0.04651 0.98499
 Cu243 Cu -0.01038 -0.06096 0.95628
 Cu244 Cu -0.04345 -0.01279 0.93947
 N245 N -0.07809 -0.01897 0.97566
 N246 N -0.07145 -0.00587 0.95790
 C247 C -0.08676 0.01194 0.95531
 C248 C -0.10395 0.00990 0.97243
 C249 C -0.09789 -0.00989 0.98500
 H250 H -0.08541 0.02532 0.94197
 H251 H -0.10725 -0.01702 0.99990
 N252 N -0.01459 -0.02262 0.92300
 N253 N -0.00206 -0.04104 0.92933
 C254 C 0.01634 -0.04332 0.91458
 C255 C 0.01539 -0.02549 0.89828
 C256 C -0.00447 -0.01267 0.90410
 H257 H 0.02953 -0.05696 0.91553
 H258 H -0.01118 0.00262 0.89515
 H259 H -0.02553 -0.02949 0.96621
 H260 H -0.04290 -0.04849 0.94586
 N261 N 1.02537 0.58154 0.97812
 N262 N 1.04417 0.57521 0.98994
 C263 C 1.04791 0.59074 1.00736
 C264 C 1.03046 0.60768 1.00635
 C265 C 1.01648 0.60126 0.98763
 H266 H 1.06214 0.58969 1.01987
 H267 H 1.00094 0.61030 0.98145
 Cu268 Cu 1.06182 0.54718 0.98154
 Cu269 Cu 1.01373 0.56371 0.95141
 Cu270 Cu 1.04531 0.51412 0.93556
 N271 N 1.07966 0.51963 0.97208
 N272 N 1.07310 0.50677 0.95410
 C273 C 1.08836 0.48892 0.95138
 C274 C 1.10540 0.49065 0.96854
 C275 C 1.09936 0.51037 0.98141
 H276 H 1.08720 0.47560 0.93792
 H277 H 1.10855 0.51745 0.99641
 N278 N 1.01673 0.52445 0.91895
 N279 N 1.00476 0.54338 0.92492
 C280 C 0.98637 0.54582 0.91022
 C281 C 0.98674 0.52756 0.89433
 C282 C 1.00624 0.51433 0.90034
 H283 H 0.97357 0.55984 0.91094
 H284 H 1.01245 0.49861 0.89175
 H285 H 1.02712 0.53162 0.96164
 H286 H 1.04601 0.54986 0.94195
 N287 N 0.52190 0.07841 0.48290
 N288 N 0.54080 0.07233 0.49470
 C289 C 0.54366 0.08725 0.51280
 C290 C 0.52559 0.10345 0.51233
 C291 C 0.51208 0.09733 0.49309
 H292 H 0.55785 0.08652 0.52540
 H293 H 0.49640 0.10603 0.48680
 Cu294 Cu 0.55990 0.04563 0.48518
 Cu295 Cu 0.51155 0.06156 0.45506
 Cu296 Cu 0.54593 0.01473 0.43690
 N297 N 0.57925 0.01957 0.47444
 N298 N 0.57374 0.00766 0.45549
 C299 C 0.58989 -0.00925 0.45199
 C300 C 0.60645 -0.00785 0.46973
 C301 C 0.59913 0.01059 0.48366
 H302 H 0.58945 -0.02170 0.43770
 H303 H 0.60773 0.01692 0.49934
 N304 N 0.51713 0.02456 0.42040
 N305 N 0.50400 0.04237 0.42733
 C306 C 0.48565 0.04465 0.41256
 C307 C 0.48735 0.02741 0.39554
 C308 C 0.50747 0.01505 0.40105
 H309 H 0.47212 0.05788 0.41409
 H310 H 0.51449 0.00019 0.39157
 H311 H 0.52642 0.02962 0.46363
 H312 H 0.54470 0.04998 0.44550
 N313 N -0.02067 0.07885 0.51739
 N314 N -0.03898 0.07210 0.50501
 C315 C -0.04196 0.08707 0.48701
 C316 C -0.02453 0.10407 0.48821
 C317 C -0.01137 0.09830 0.50769
 H318 H -0.05581 0.08572 0.47411
 H319 H 0.00383 0.10765 0.51432
 Cu320 Cu -0.05726 0.04452 0.51368
 Cu321 Cu -0.01033 0.06204 0.54520
 Cu322 Cu -0.04316 0.01346 0.56176
 N323 N -0.07585 0.01758 0.52362
 N324 N -0.07025 0.00553 0.54243
 C325 C -0.08591 -0.01200 0.54534
 C326 C -0.10221 -0.01086 0.52734
 C327 C -0.09529 0.00810 0.51393
 H328 H -0.08542 -0.02454 0.55952
 H329 H -0.10389 0.01447 0.49829
 N330 N -0.01515 0.02425 0.57907
 N331 N -0.00266 0.04276 0.57278
 C332 C 0.01524 0.04561 0.58800
 C333 C 0.01392 0.02801 0.60464
 C334 C -0.00552 0.01483 0.59844
 H335 H 0.02823 0.05946 0.58701
 H336 H -0.01208 -0.00052 0.60747
 H337 H -0.02367 0.02961 0.53575
 H338 H -0.04319 0.04886 0.55378
 N339 N 0.47682 0.58049 0.01859
 N340 N 0.45837 0.57388 0.00634
 C341 C 0.45580 0.58845 -0.01206
 C342 C 0.47364 0.60506 -0.01121
 C343 C 0.48660 0.59946 0.00844
 H344 H 0.44199 0.58708 -0.02500
 H345 H 0.50200 0.60861 0.01488
 Cu346 Cu 0.43948 0.54692 0.01567
 Cu347 Cu 0.48671 0.56415 0.04684
 Cu348 Cu 0.45397 0.51549 0.06338
 N349 N 0.42164 0.51922 0.02488
 N350 N 0.42741 0.50703 0.04354
 C351 C 0.41232 0.48894 0.04594
 C352 C 0.39622 0.48985 0.02775
 C353 C 0.40266 0.50926 0.01476
 H354 H 0.41304 0.47619 0.05992
 H355 H 0.39407 0.51560 -0.00090
 N356 N 0.48146 0.52682 0.08117
 N357 N 0.49394 0.54534 0.07486
 C358 C 0.51148 0.54856 0.09041
 C359 C 0.50999 0.53129 0.10728
 C360 C 0.49075 0.51777 0.10090
 H361 H 0.52450 0.56241 0.08959
 H362 H 0.48404 0.50246 0.10985
 H363 H 0.47321 0.53179 0.03727
 H364 H 0.45396 0.55092 0.05570
 N365 N 0.52046 -0.07697 0.01621
 N366 N 0.53918 -0.07065 0.00419
 C367 C 0.54182 -0.08533 -0.01413
 C368 C 0.52378 -0.10162 -0.01358
 C369 C 0.51052 -0.09581 0.00594
 H370 H 0.55585 -0.08439 -0.02693
 H371 H 0.49498 -0.10469 0.01240
 Cu372 Cu 0.55835 -0.04397 0.01375
 Cu373 Cu 0.51054 -0.06060 0.04448
 Cu374 Cu 0.54508 -0.01384 0.06272
 N375 N 0.57779 -0.01794 0.02450
 N376 N 0.57255 -0.00632 0.04371
 C377 C 0.58872 0.01063 0.04715
 C378 C 0.60500 0.00955 0.02911
 C379 C 0.59751 -0.00874 0.01507
 H380 H 0.58849 0.02286 0.06163
 H381 H 0.60589 -0.01482 -0.00083
 N382 N 0.51659 -0.02411 0.07960
 N383 N 0.50340 -0.04189 0.07263
 C384 C 0.48530 -0.04453 0.08769
 C385 C 0.48722 -0.02756 0.10495
 C386 C 0.50722 -0.01498 0.09928
 H387 H 0.47179 -0.05781 0.08617
 H388 H 0.51434 -0.00021 0.10887
 H389 H 0.52520 -0.02844 0.03613
 H390 H 0.54381 -0.04896 0.05363
 N391 N 1.02057 0.42345 0.51583
 N392 N 1.04146 0.42667 0.50640
 C393 C 1.04552 0.40963 0.49059
 C394 C 1.02601 0.39497 0.49003
 C395 C 1.01051 0.40433 0.50621
 H396 H 1.06134 0.40825 0.48013
 H397 H 0.99317 0.39775 0.51061
 Cu398 Cu 1.06080 0.45353 0.51489
 Cu399 Cu 1.00802 0.44476 0.53946
 Cu400 Cu 1.05135 0.47718 0.56778
 N401 N 1.08075 0.47850 0.52688
 N402 N 1.07701 0.48774 0.54765
 C403 C 1.09351 0.50421 0.55186
 C404 C 1.10832 0.50540 0.53267
 C405 C 1.09970 0.48881 0.51710
 H406 H 1.09464 0.51457 0.56771
 H407 H 1.10659 0.48455 0.49997
 N408 N 1.01970 0.47188 0.58100
 N409 N 1.00298 0.46028 0.56985
 C410 C 0.98327 0.46039 0.58298
 C411 C 0.98778 0.47267 0.60336
 C412 C 1.01107 0.47976 0.60153
 H413 H 0.96688 0.45196 0.57820
 H414 H 1.02099 0.49007 0.61399
 H415 H 1.03122 0.47366 0.53869
 H416 H 1.04117 0.44550 0.55205
 C417 C 0.40901 0.00973 0.21917
 H418 H 0.40992 0.02570 0.22939
 C419 C 0.42449 0.00633 0.20047
 H420 H 0.43726 0.01984 0.19629
 C421 C 0.39151 -0.02746 0.21253
 H422 H 0.37902 -0.04082 0.21762
 C423 C 0.40666 -0.03159 0.19367
 H424 H 0.40559 -0.04828 0.18472
 N425 N 0.39272 -0.00692 0.22463
 C426 C 0.33670 0.03076 0.26098
 H427 H 0.33559 0.02064 0.27697
 C428 C 0.32144 0.04960 0.25738
 H429 H 0.30863 0.05400 0.27076
 C430 C 0.35450 0.03701 0.22396
 H431 H 0.36701 0.03172 0.21073
 C432 C 0.33959 0.05600 0.21963
 H433 H 0.34086 0.06484 0.20293
 Zn434 Zn 0.37274 -0.00105 0.25055
 N435 N 0.35303 0.02504 0.24451
 C436 C 0.39104 0.02550 0.28871
 N437 N 0.39235 0.00490 0.27671
 C438 C 0.40860 -0.01166 0.28233
 C439 C 0.42397 -0.00809 0.30107
 C440 C 0.40608 0.02980 0.30759
 C441 C 0.33681 -0.03279 0.23954
 C442 C 0.32147 -0.05170 0.24275
 C443 C 0.33923 -0.05855 0.28055
 C444 C 0.35422 -0.03949 0.27662
 N445 N 0.35290 -0.02719 0.25626
 H446 H 0.37858 0.03880 0.28348
 H447 H 0.40961 -0.02766 0.27218
 H448 H 0.43675 -0.02152 0.30534
 H449 H 0.40496 0.04655 0.31642
 H450 H 0.33605 -0.02261 0.22357
 H451 H 0.30937 -0.05611 0.22880
 H452 H 0.34058 -0.06823 0.29682
 H453 H 0.36678 -0.03452 0.28992
 C454 C 0.32295 0.06271 0.23665
 C455 C 0.42326 -0.01439 0.18723
 C456 C 0.32247 -0.06479 0.26361
 C457 C 0.42269 0.01272 0.31416
 C458 C 0.09001 -0.00887 0.71973
 H459 H 0.08850 -0.02466 0.73015
 C460 C 0.07458 -0.00509 0.70110
 H461 H 0.06124 -0.01812 0.69717
 C462 C 0.10898 0.02748 0.71254
 H463 H 0.12202 0.04041 0.71739
 C464 C 0.09393 0.03197 0.69373
 H465 H 0.09564 0.04847 0.68456
 N466 N 0.10702 0.00715 0.72487
 C467 C 0.16203 -0.03224 0.76086
 H468 H 0.16374 -0.02204 0.77677
 C469 C 0.17655 -0.05166 0.75714
 H470 H 0.18940 -0.05636 0.77033
 C471 C 0.14332 -0.03829 0.72430
 H472 H 0.13051 -0.03294 0.71142
 C473 C 0.15743 -0.05786 0.71987
 H474 H 0.15457 -0.06744 0.70380
 Zn475 Zn 0.12687 0.00069 0.75072
 N476 N 0.14567 -0.02607 0.74463
 C477 C 0.10793 -0.02479 0.78937
 N478 N 0.10707 -0.00448 0.77691
 C479 C 0.09114 0.01253 0.78211
 C480 C 0.07552 0.00972 0.80081
 C481 C 0.09268 -0.02832 0.80825
 C482 C 0.16349 0.03182 0.73966
 C483 C 0.17917 0.05043 0.74302
 C484 C 0.16213 0.05670 0.78129
 C485 C 0.14671 0.03805 0.77715
 N486 N 0.14749 0.02620 0.75648
 H487 H 0.12029 -0.03837 0.78461
 H488 H 0.09048 0.02827 0.77155
 H489 H 0.06280 0.02342 0.80407
 H490 H 0.09364 -0.04458 0.81802
 H491 H 0.16386 0.02195 0.72347
 H492 H 0.19112 0.05484 0.72895
 H493 H 0.16118 0.06600 0.79783
 H494 H 0.13423 0.03304 0.79052
 C495 C 0.17448 -0.06473 0.73640
 C496 C 0.07661 0.01537 0.68761
 C497 C 0.17870 0.06312 0.76419
 C498 C 0.07632 -0.01090 0.81436
 C499 C 0.58971 0.48940 0.21918
 H500 H 0.58881 0.47346 0.22943
 C501 C 0.57418 0.49274 0.20053
 H502 H 0.56180 0.47892 0.19639
 C503 C 0.60770 0.52624 0.21201
 H504 H 0.62060 0.53938 0.21666
 C505 C 0.59254 0.53031 0.19320
 H506 H 0.59408 0.54652 0.18341
 N507 N 0.60622 0.50591 0.22438
 C508 C 0.66314 0.46820 0.25913
 H509 H 0.66476 0.47837 0.27506
 C510 C 0.67825 0.44932 0.25506
 H511 H 0.69148 0.44499 0.26801
 C512 C 0.64402 0.46168 0.22285
 H513 H 0.63079 0.46663 0.21023
 C514 C 0.65875 0.44266 0.21806
 H515 H 0.65598 0.43299 0.20201
 Zn516 Zn 0.62659 0.49985 0.24992
 N517 N 0.64627 0.47385 0.24323
 C518 C 0.60960 0.47326 0.28862
 N519 N 0.60743 0.49360 0.27638
 C520 C 0.59099 0.50988 0.28231
 C521 C 0.57622 0.50623 0.30153
 C522 C 0.59521 0.46888 0.30799
 C523 C 0.66250 0.53172 0.23895
 C524 C 0.67788 0.55058 0.24233
 C525 C 0.66018 0.55707 0.28027
 C526 C 0.64516 0.53807 0.27617
 N527 N 0.64643 0.52597 0.25567
 H528 H 0.62250 0.46035 0.28344
 H529 H 0.58944 0.52579 0.27210
 H530 H 0.56333 0.51948 0.30606
 H531 H 0.59790 0.45281 0.31763
 H532 H 0.66324 0.52168 0.22287
 H533 H 0.68997 0.55510 0.22840
 H534 H 0.65888 0.56656 0.29667
 H535 H 0.63262 0.53299 0.28947
 C536 C 0.67629 0.43631 0.23428
 C537 C 0.57544 0.51353 0.18728
 C538 C 0.67693 0.56345 0.26335
 C539 C 0.57811 0.48550 0.31465
 C540 C 0.90901 0.51106 0.71681
 H541 H 0.90970 0.52709 0.72694
 C542 C 0.92450 0.50781 0.69807
 H543 H 0.93661 0.52181 0.69374
 C544 C 0.89176 0.47376 0.71016
 H545 H 0.87924 0.46037 0.71512
 C546 C 0.90696 0.46975 0.69133
 H547 H 0.90579 0.45333 0.68181
 N548 N 0.89294 0.49424 0.72237
 C549 C 0.83748 0.53149 0.76015
 H550 H 0.83676 0.52124 0.77608
 C551 C 0.82217 0.55041 0.75712
 H552 H 0.81015 0.55477 0.77115
 C553 C 0.85470 0.53831 0.72296
 H554 H 0.86715 0.53337 0.70953
 C555 C 0.83976 0.55738 0.71921
 H556 H 0.84105 0.56709 0.70295
 Zn557 Zn 0.87329 0.49977 0.74862
 N558 N 0.85348 0.52595 0.74329
 C559 C 0.89222 0.52547 0.78716
 N560 N 0.89337 0.50526 0.77453
 C561 C 0.90981 0.48863 0.77931
 C562 C 0.92563 0.49170 0.79777
 C563 C 0.90768 0.52927 0.80581
 C564 C 0.83730 0.46789 0.73785
 C565 C 0.82212 0.44889 0.74125
 C566 C 0.84030 0.44218 0.77888
 C567 C 0.85513 0.46132 0.77475
 N568 N 0.85361 0.47352 0.75435
 H569 H 0.87949 0.53880 0.78272
 H570 H 0.91070 0.47297 0.76861
 H571 H 0.93875 0.47831 0.80071
 H572 H 0.90649 0.54545 0.81572
 H573 H 0.83614 0.47820 0.72198
 H574 H 0.80933 0.44456 0.72785
 H575 H 0.84161 0.43316 0.79548
 H576 H 0.86765 0.46654 0.78800
 C577 C 0.82311 0.56357 0.73629
 C578 C 0.92375 0.48676 0.68517
 C579 C 0.82369 0.43554 0.76182
 C580 C 0.92453 0.51220 0.81150
 C581 C 0.21804 0.41177 0.01123
 H582 H 0.22837 0.41282 0.02711
 C583 C 0.19902 0.42693 0.00793
 H584 H 0.19468 0.43918 0.02173
 C585 C 0.21107 0.39380 -0.02556
 H586 H 0.21597 0.38108 -0.03870
 C587 C 0.19190 0.40859 -0.02956
 H588 H 0.18208 0.40694 -0.04574
 N589 N 0.22356 0.39549 -0.00531
 C590 C 0.26075 0.34004 0.03202
 H591 H 0.27671 0.33902 0.02169
 C592 C 0.25737 0.32476 0.05083
 H593 H 0.27089 0.31203 0.05499
 C594 C 0.22355 0.35759 0.03881
 H595 H 0.21016 0.37002 0.03374
 C596 C 0.21945 0.34265 0.05778
 H597 H 0.20275 0.34381 0.06683
 Zn598 Zn 0.24982 0.37588 0.00043
 N599 N 0.24408 0.35625 0.02658
 C600 C 0.28816 0.39440 0.02661
 N601 N 0.27606 0.39564 0.00610
 C602 C 0.28167 0.41183 -0.01047
 C603 C 0.30053 0.42721 -0.00701
 C604 C 0.30716 0.40943 0.03080
 C605 C 0.23890 0.33960 -0.03060
 C606 C 0.24208 0.32408 -0.04927
 C607 C 0.27974 0.34232 -0.05700
 C608 C 0.27582 0.35748 -0.03816
 N609 N 0.25551 0.35606 -0.02560
 H610 H 0.28294 0.38200 0.03993
 H611 H 0.27143 0.41278 -0.02641
 H612 H 0.30481 0.43994 -0.02045
 H613 H 0.31607 0.40836 0.04749
 H614 H 0.22316 0.33848 -0.01994
 H615 H 0.22872 0.31093 -0.05241
 H616 H 0.29599 0.34374 -0.06687
 H617 H 0.28913 0.37023 -0.03354
 C618 C 0.23666 0.32612 0.06419
 C619 C 0.18573 0.42553 -0.01282
 C620 C 0.26267 0.32550 -0.06297
 C621 C 0.31374 0.42597 0.01370
 C622 C 0.71704 0.08918 -0.01142
 H623 H 0.72730 0.08769 -0.02733
 C624 C 0.69758 0.07457 -0.00789
 H625 H 0.69290 0.06188 -0.02124
 C626 C 0.71087 0.10739 0.02537
 H627 H 0.71620 0.12007 0.03840
 C628 C 0.69129 0.09315 0.02963
 H629 H 0.68158 0.09575 0.04570
 N630 N 0.72317 0.10532 0.00503
 C631 C 0.76205 0.16018 -0.03169
 H632 H 0.77778 0.16087 -0.02103
 C633 C 0.75933 0.17579 -0.05033
 H634 H 0.77308 0.18855 -0.05343
 C635 C 0.72469 0.14327 -0.03932
 H636 H 0.71106 0.13085 -0.03476
 C637 C 0.72125 0.15852 -0.05814
 H638 H 0.70501 0.15750 -0.06804
 Zn639 Zn 0.75008 0.12415 -0.00078
 N640 N 0.74499 0.14416 -0.02673
 C641 C 0.78804 0.10509 -0.02710
 N642 N 0.77565 0.10368 -0.00675
 C643 C 0.78066 0.08703 0.00954
 C644 C 0.79928 0.07143 0.00600
 C645 C 0.80681 0.08985 -0.03135
 C646 C 0.74076 0.16060 0.03072
 C647 C 0.74474 0.17572 0.04956
 C648 C 0.78155 0.15584 0.05685
 C649 C 0.77686 0.14111 0.03784
 N650 N 0.75663 0.14358 0.02536
 H651 H 0.78330 0.11789 -0.04020
 H652 H 0.77021 0.08597 0.02536
 H653 H 0.80316 0.05841 0.01926
 H654 H 0.81602 0.09114 -0.04789
 H655 H 0.72494 0.16238 0.02031
 H656 H 0.73182 0.18911 0.05362
 H657 H 0.79750 0.15294 0.06673
 H658 H 0.78946 0.12773 0.03313
 C659 C 0.73875 0.17491 -0.06405
 C660 C 0.68449 0.07630 0.01289
 C661 C 0.76539 0.17359 0.06285
 C662 C 0.81288 0.07294 -0.01447
 C663 C 0.21956 0.58677 0.49040
 H664 H 0.23029 0.58576 0.47475
 C665 C 0.20090 0.57110 0.49356
 H666 H 0.19727 0.55851 0.47986
 C667 C 0.21123 0.60517 0.52668
 H668 H 0.21544 0.61830 0.53967
 C669 C 0.19240 0.58984 0.53057
 H670 H 0.18216 0.59148 0.54651
 N671 N 0.22420 0.60354 0.50671
 C672 C 0.26004 0.65967 0.46881
 H673 H 0.27582 0.66150 0.47927
 C674 C 0.25632 0.67449 0.44971
 H675 H 0.26940 0.68769 0.44550
 C676 C 0.22372 0.64038 0.46183
 H677 H 0.21093 0.62723 0.46672
 C678 C 0.21930 0.65480 0.44257
 H679 H 0.20336 0.65186 0.43268
 Zn680 Zn 0.24994 0.62391 0.50093
 N681 N 0.24392 0.64289 0.47438
 C682 C 0.28953 0.60639 0.47579
 N683 N 0.27679 0.60487 0.49592
 C684 C 0.28238 0.58903 0.51281
 C685 C 0.30168 0.57412 0.50998
 C686 C 0.30898 0.59184 0.47224
 C687 C 0.23767 0.66035 0.53135
 C688 C 0.24033 0.67626 0.54979
 C689 C 0.27836 0.65919 0.55799
 C690 C 0.27497 0.64364 0.53938
 N691 N 0.25474 0.64429 0.52668
 H692 H 0.28457 0.61876 0.46236
 H693 H 0.27184 0.58808 0.52858
 H694 H 0.30602 0.56218 0.52403
 H695 H 0.31896 0.59331 0.45613
 H696 H 0.22200 0.66085 0.52060
 H697 H 0.22658 0.68902 0.55266
 H698 H 0.29456 0.65836 0.56796
 H699 H 0.28863 0.63120 0.53504
 C700 C 0.23569 0.67231 0.43636
 C701 C 0.18706 0.57245 0.51399
 C702 C 0.26087 0.67565 0.56359
 C703 C 0.31518 0.57530 0.48933
 C704 C 0.71783 0.91207 0.51023
 H705 H 0.72796 0.91339 0.52621
 C706 C 0.69857 0.92686 0.50664
 H707 H 0.69392 0.93952 0.52002
 C708 C 0.71176 0.89404 0.47333
 H709 H 0.71704 0.88136 0.46029
 C710 C 0.69237 0.90846 0.46901
 H711 H 0.68277 0.90599 0.45287
 N712 N 0.72390 0.89592 0.49377
 C713 C 0.76142 0.84064 0.53104
 H714 H 0.77756 0.84005 0.52095
 C715 C 0.75811 0.82514 0.54969
 H716 H 0.77214 0.81308 0.55399
 C717 C 0.72403 0.85779 0.53778
 H718 H 0.71065 0.87032 0.53292
 C719 C 0.71999 0.84263 0.55657
 H720 H 0.70355 0.84381 0.56616
 Zn721 Zn 0.75043 0.87673 0.49979
 N722 N 0.74460 0.85668 0.52559
 C723 C 0.78826 0.89534 0.52668
 N724 N 0.77622 0.89687 0.50615
 C725 C 0.78171 0.91347 0.48994
 C726 C 0.80048 0.92888 0.49373
 C727 C 0.80717 0.91039 0.53119
 C728 C 0.74092 0.84058 0.46798
 C729 C 0.74487 0.82555 0.44906
 C730 C 0.78214 0.84494 0.44232
 C731 C 0.77746 0.85959 0.46139
 N732 N 0.75702 0.85734 0.47363
 H733 H 0.78312 0.88261 0.53972
 H734 H 0.77152 0.91464 0.47398
 H735 H 0.80473 0.94187 0.48054
 H736 H 0.81610 0.90901 0.54784
 H737 H 0.72493 0.83897 0.47819
 H738 H 0.73177 0.81240 0.44476
 H739 H 0.79827 0.84768 0.43264
 H740 H 0.79023 0.87274 0.46634
 C741 C 0.73704 0.82593 0.56266
 C742 C 0.68561 0.92529 0.48578
 C743 C 0.76573 0.82749 0.43599
 C744 C 0.81372 0.92725 0.51439
 C745 C 0.01037 0.21933 0.41062
 H746 H 0.02616 0.22996 0.41150
 C747 C 0.00740 0.20050 0.42597
 H748 H 0.02106 0.19662 0.43862
 C749 C -0.02681 0.21181 0.39334
 H750 H -0.04036 0.21661 0.38099
 C751 C -0.03051 0.19282 0.40835
 H752 H -0.04707 0.18347 0.40732
 N753 N -0.00648 0.22442 0.39450
 C754 C 0.02944 0.26190 0.33829
 H755 H 0.01839 0.27732 0.33716
 C756 C 0.04817 0.25903 0.32269
 H757 H 0.05098 0.27231 0.30948
 C758 C 0.03789 0.22544 0.35627
 H759 H 0.03359 0.21218 0.36909
 C760 C 0.05681 0.22185 0.34103
 H761 H 0.06707 0.20590 0.34247
 Zn762 Zn -0.00137 0.25057 0.37470
 N763 N 0.02484 0.24538 0.35483
 C764 C 0.02418 0.28969 0.39234
 N765 N 0.00396 0.27698 0.39415
 C766 C -0.01269 0.28236 0.41041
 C767 C -0.00954 0.30149 0.42539
 C768 C 0.02806 0.30895 0.40698
 C769 C -0.03280 0.23872 0.33900
 C770 C -0.05162 0.24153 0.32354
 C771 C -0.05970 0.27914 0.34137
 C772 C -0.04069 0.27561 0.35647
 N773 N -0.02779 0.25556 0.35513
 H774 H 0.03737 0.28497 0.37955
 H775 H -0.02848 0.27178 0.41167
 H776 H -0.02306 0.30562 0.43815
 H777 H 0.04400 0.31908 0.40462
 H778 H -0.02214 0.22301 0.33823
 H779 H -0.05551 0.22753 0.31134
 H780 H -0.06980 0.29520 0.34265
 H781 H -0.03619 0.28902 0.36908
 C782 C 0.06236 0.23884 0.32412
 C783 C -0.01310 0.18676 0.42479
 C784 C -0.06524 0.26213 0.32447
 C785 C 0.01110 0.31499 0.42394
 C786 C -0.00956 0.71748 0.08802
 H787 H -0.02532 0.72801 0.08641
 C788 C -0.00595 0.69849 0.07300
 H789 H -0.01910 0.69444 0.05985
 C790 C 0.02676 0.71017 0.10703
 H791 H 0.03956 0.71487 0.12021
 C792 C 0.03109 0.69101 0.09237
 H793 H 0.04699 0.68099 0.09509
 N794 N 0.00659 0.72281 0.10478
 C795 C -0.03218 0.75993 0.15938
 H796 H -0.02189 0.77588 0.16063
 C797 C -0.05130 0.75639 0.17437
 H798 H -0.05570 0.76977 0.18713
 C799 C -0.03868 0.72299 0.14142
 H800 H -0.03358 0.70990 0.12873
 C801 C -0.05795 0.71873 0.15605
 H802 H -0.06765 0.70258 0.15372
 Zn803 Zn 0.00037 0.74908 0.12415
 N804 N -0.02634 0.74339 0.14321
 C805 C -0.02518 0.78759 0.10511
 N806 N -0.00484 0.77504 0.10417
 C807 C 0.01211 0.78001 0.08809
 C808 C 0.00925 0.79860 0.07244
 C809 C -0.02877 0.80636 0.08981
 C810 C 0.03110 0.73873 0.16101
 C811 C 0.04950 0.74242 0.17680
 C812 C 0.05699 0.77991 0.15849
 C813 C 0.03843 0.77550 0.14305
 N814 N 0.02611 0.75504 0.14438
 H815 H -0.03874 0.78301 0.11758
 H816 H 0.02786 0.76936 0.08736
 H817 H 0.02289 0.80170 0.05960
 H818 H -0.04504 0.81623 0.09084
 H819 H 0.02070 0.72284 0.16200
 H820 H 0.05328 0.72920 0.18988
 H821 H 0.06607 0.79656 0.15732
 H822 H 0.03370 0.78861 0.13025
 C823 C -0.06437 0.73551 0.17300
 C824 C 0.01461 0.68501 0.07494
 C825 C 0.06291 0.76308 0.17552
 C826 C -0.01136 0.81227 0.07336
 C827 C 0.48909 0.22040 0.58752
 H828 H 0.47382 0.23166 0.58624
 C829 C 0.49196 0.20186 0.57177
 H830 H 0.47885 0.19942 0.55828
 C831 C 0.52519 0.21115 0.60610
 H832 H 0.53830 0.21504 0.61924
 C833 C 0.52877 0.19241 0.59072
 H834 H 0.54456 0.18189 0.59235
 N835 N 0.50543 0.22450 0.60443
 C836 C 0.46826 0.26112 0.66047
 H837 H 0.47902 0.27672 0.66214
 C838 C 0.44914 0.25766 0.67549
 H839 H 0.44519 0.27076 0.68868
 C840 C 0.46058 0.22496 0.64143
 H841 H 0.46519 0.21214 0.62828
 C842 C 0.44130 0.22079 0.65607
 H843 H 0.43106 0.20503 0.65331
 Zn844 Zn 0.50026 0.25036 0.62464
 N845 N 0.47352 0.24493 0.64377
 C846 C 0.47568 0.29006 0.60686
 N847 N 0.49569 0.27706 0.60547
 C848 C 0.51260 0.28194 0.58931
 C849 C 0.50996 0.30081 0.57396
 C850 C 0.47231 0.30912 0.59187
 C851 C 0.53067 0.23786 0.66097
 C852 C 0.54933 0.24024 0.67671
 C853 C 0.55856 0.27771 0.65918
 C854 C 0.53968 0.27463 0.64381
 N855 N 0.52636 0.25479 0.64478
 H856 H 0.46214 0.28555 0.61938
 H857 H 0.52808 0.27093 0.58820
 H858 H 0.52351 0.30378 0.56099
 H859 H 0.45624 0.31927 0.59319
 H860 H 0.51943 0.22252 0.66172
 H861 H 0.55189 0.22663 0.68962
 H862 H 0.56902 0.29359 0.65810
 H863 H 0.53563 0.28818 0.63124
 C864 C 0.43548 0.23720 0.67358
 C865 C 0.51194 0.18736 0.57344
 C866 C 0.56378 0.26033 0.67577
 C867 C 0.48961 0.31485 0.57524
 C868 C 0.51019 0.71944 0.91087
 H869 H 0.52588 0.73017 0.91217
 C870 C 0.50690 0.70064 0.92620
 H871 H 0.52022 0.69689 0.93924
 C872 C 0.47353 0.71169 0.89263
 H873 H 0.46029 0.71640 0.87991
 C874 C 0.46952 0.69271 0.90759
 H875 H 0.45305 0.68327 0.90614
 N876 N 0.49374 0.72443 0.89433
 C877 C 0.53107 0.76257 0.83942
 H878 H 0.52043 0.77828 0.83849
 C879 C 0.55011 0.75970 0.82419
 H880 H 0.55417 0.77366 0.81203
 C881 C 0.53870 0.72574 0.85704
 H882 H 0.53402 0.71238 0.86962
 C883 C 0.55791 0.72214 0.84217
 H884 H 0.56798 0.70608 0.84361
 Zn885 Zn 0.49917 0.75078 0.87486
 N886 N 0.52582 0.74579 0.85552
 C887 C 0.52406 0.78991 0.89367
 N888 N 0.50394 0.77697 0.89473
 C889 C 0.48697 0.78168 0.91087
 C890 C 0.48961 0.80039 0.92646
 C891 C 0.52742 0.80880 0.90890
 C892 C 0.46844 0.73926 0.83840
 C893 C 0.44975 0.74212 0.82279
 C894 C 0.44126 0.77947 0.84095
 C895 C 0.46012 0.77589 0.85621
 N896 N 0.47309 0.75588 0.85486
 H897 H 0.53765 0.78553 0.88117
 H898 H 0.47141 0.77073 0.91170
 H899 H 0.47597 0.80328 0.93935
 H900 H 0.54353 0.81896 0.90778
 H901 H 0.47941 0.72378 0.83735
 H902 H 0.44688 0.72877 0.80965
 H903 H 0.43108 0.79548 0.84230
 H904 H 0.46446 0.78920 0.86897
 C905 C 0.56371 0.73910 0.82532
 C906 C 0.48649 0.68683 0.92454
 C907 C 0.43566 0.76239 0.82413
 C908 C 0.51002 0.81444 0.92544
 C909 C 0.12692 0.22805 0.27967
 C910 C 0.11293 0.24699 0.27909
 C911 C 0.09319 0.25125 0.29548
 C912 C 0.08240 0.23440 0.30799
 H913 H 0.11642 0.26075 0.26651
 H914 H 0.08724 0.26921 0.29663
 H915 H 0.12454 0.21474 0.29294
 H916 H 0.08843 0.21645 0.30665
 C917 C 0.62256 0.72360 0.77462
 C918 C 0.60702 0.74122 0.77272
 C919 C 0.58692 0.74522 0.78878
 C920 C 0.58419 0.73480 0.80971
 H921 H 0.60845 0.75330 0.75818
 H922 H 0.57389 0.75759 0.78268
 H923 H 0.62102 0.71080 0.78848
 H924 H 0.59701 0.72219 0.81573
 C925 C 0.37129 0.77325 0.77954
 C926 C 0.38501 0.75411 0.77931
 C927 C 0.40470 0.74990 0.79573
 C928 C 0.41567 0.76682 0.80798
 H929 H 0.38134 0.74014 0.76699
 H930 H 0.41045 0.73189 0.79713
 H931 H 0.37385 0.78681 0.79255
 H932 H 0.40983 0.78481 0.80643
 C933 C -0.12350 0.27717 0.27309
 C934 C -0.10753 0.25988 0.27117
 C935 C -0.08767 0.25607 0.28753
 C936 C -0.08548 0.26632 0.30861
 H937 H -0.10833 0.24789 0.25649
 H938 H -0.07432 0.24396 0.28152
 H939 H -0.12237 0.28970 0.28726
 H940 H -0.09856 0.27871 0.31458
 C941 C -0.12040 0.72289 0.22725
 C942 C -0.11463 0.70795 0.21003
 C943 C -0.09455 0.71135 0.19384
 C944 C -0.08457 0.73224 0.18925
 H945 H -0.12434 0.69171 0.20809
 H946 H -0.08829 0.69568 0.18522
 H947 H -0.11004 0.73853 0.23031
 H948 H -0.09117 0.74782 0.19787
 C949 C 0.37882 0.22451 0.72733
 C950 C 0.38500 0.20954 0.71021
 C951 C 0.40527 0.21306 0.69427
 C952 C 0.41526 0.23397 0.68980
 H953 H 0.37550 0.19322 0.70800
 H954 H 0.41167 0.19743 0.68566
 H955 H 0.38909 0.24023 0.73035
 H956 H 0.40870 0.24953 0.69845
 C957 C 0.62886 0.26928 0.71978
 C958 C 0.61376 0.25115 0.72114
 C959 C 0.59398 0.24725 0.70473
 C960 C 0.58383 0.26428 0.69202
 H961 H 0.61628 0.23770 0.73426
 H962 H 0.58745 0.22946 0.70381
 H963 H 0.62712 0.28201 0.70584
 H964 H 0.59041 0.28206 0.69333
 C965 C 0.12408 0.77231 0.22492
 C966 C 0.11962 0.78569 0.20613
 C967 C 0.10028 0.78151 0.18922
 C968 C 0.08216 0.76673 0.19273
 H969 H 0.13098 0.80046 0.20231
 H970 H 0.10130 0.79151 0.17318
 H971 H 0.11352 0.75698 0.22867
 H972 H 0.08124 0.75645 0.20860
 C973 C 0.27563 0.12549 0.22760
 C974 C 0.29462 0.12054 0.21451
 C975 C 0.31066 0.10044 0.21843
 C976 C 0.30643 0.08256 0.23318
 H977 H 0.29928 0.13203 0.20016
 H978 H 0.32679 0.10074 0.20835
 H979 H 0.27094 0.11472 0.24245
 H980 H 0.29057 0.08237 0.24365
 C981 C 0.77335 0.62313 0.72101
 C982 C 0.77101 0.60763 0.73854
 C983 C 0.78686 0.58740 0.74266
 C984 C 0.80764 0.58408 0.73189
 H985 H 0.75635 0.60929 0.75054
 H986 H 0.78070 0.57476 0.75539
 H987 H 0.78741 0.62150 0.70837
 H988 H 0.81370 0.59645 0.71888
 C989 C 0.77696 0.37199 0.77006
 C990 C 0.79574 0.37720 0.78335
 C991 C 0.81165 0.39748 0.77961
 C992 C 0.80730 0.41548 0.76507
 H993 H 0.80036 0.36573 0.79772
 H994 H 0.82777 0.39723 0.78967
 H995 H 0.77239 0.38270 0.75514
 H996 H 0.79144 0.41562 0.75464
 C997 C 0.27237 -0.12428 0.27914
 C998 C 0.27017 -0.10874 0.26158
 C999 C 0.28604 -0.08845 0.25760
 C1000 C 0.30696 -0.08530 0.26812
 H1001 H 0.25565 -0.11031 0.24942
 H1002 H 0.27981 -0.07566 0.24509
 H1003 H 0.28635 -0.12239 0.29183
 H1004 H 0.31313 -0.09782 0.28090
 C1005 C 0.22624 -0.12312 0.72337
 C1006 C 0.20837 -0.11720 0.70916
 C1007 C 0.19334 -0.09627 0.71244
 C1008 C 0.19001 -0.08546 0.73309
 H1009 H 0.20484 -0.12745 0.69360
 H1010 H 0.18430 -0.09026 0.69695
 H1011 H 0.23062 -0.11208 0.73817
 H1012 H 0.19899 -0.09193 0.74848
 C1013 C 0.72921 0.37921 0.22071
 C1014 C 0.71214 0.38578 0.20590
 C1015 C 0.69645 0.40616 0.20966
 C1016 C 0.69238 0.41610 0.23062
 H1017 H 0.70981 0.37638 0.18960
 H1018 H 0.68765 0.41265 0.19421
 H1019 H 0.73266 0.38917 0.23647
 H1020 H 0.70119 0.40937 0.24599
 C1021 C 0.72692 0.62289 0.27926
 C1022 C 0.72944 0.60719 0.26192
 C1023 C 0.71341 0.58711 0.25753
 C1024 C 0.69252 0.58383 0.26812
 H1025 H 0.74439 0.60858 0.25024
 H1026 H 0.71956 0.57450 0.24477
 H1027 H 0.71254 0.62157 0.29158
 H1028 H 0.68649 0.59610 0.28125
 C1029 C 0.22593 0.12563 0.77652
 C1030 C 0.23020 0.10816 0.76133
 C1031 C 0.21418 0.08809 0.75678
 C1032 C 0.19453 0.08335 0.76905
 H1033 H 0.24630 0.10841 0.75118
 H1034 H 0.21964 0.07649 0.74284
 H1035 H 0.20992 0.12601 0.78673
 H1036 H 0.18985 0.09420 0.78385
 C1037 C 0.22813 0.27838 0.12655
 C1038 C 0.21496 0.29735 0.12194
 C1039 C 0.21874 0.31354 0.10198
 C1040 C 0.23341 0.30952 0.08394
 H1041 H 0.20063 0.30186 0.13360
 H1042 H 0.20860 0.32957 0.10252
 H1043 H 0.24296 0.27384 0.11561
 H1044 H 0.24395 0.29376 0.08353
 C1045 C 0.72159 0.77578 0.62173
 C1046 C 0.73897 0.77346 0.60597
 C1047 C 0.74312 0.78948 0.58595
 C1048 C 0.73240 0.81025 0.58290
 H1049 H 0.75089 0.75872 0.60728
 H1050 H 0.75587 0.78346 0.57322
 H1051 H 0.70903 0.78993 0.62047
 H1052 H 0.71931 0.81616 0.59531
 C1053 C 0.77913 0.77398 0.37967
 C1054 C 0.79381 0.79152 0.38545
 C1055 C 0.79023 0.80747 0.40561
 C1056 C 0.76928 0.81137 0.41584
 H1057 H 0.80991 0.79399 0.37561
 H1058 H 0.80579 0.81655 0.41167
 H1059 H 0.76365 0.77040 0.39012
 H1060 H 0.75382 0.80230 0.40943
 C1061 C 0.27452 0.28131 -0.12723
 C1062 C 0.25531 0.28062 -0.11355
 C1063 C 0.25070 0.29704 -0.09400
 C1064 C 0.26746 0.30945 -0.08292
 H1065 H 0.24160 0.26793 -0.11715
 H1066 H 0.23255 0.29822 -0.08841
 H1067 H 0.28776 0.29475 -0.12477
 H1068 H 0.28558 0.30806 -0.08860
 C1069 C 0.72858 0.21810 -0.12906
 C1070 C 0.74716 0.21957 -0.11465
 C1071 C 0.75142 0.20345 -0.09481
 C1072 C 0.73446 0.19097 -0.08408
 H1073 H 0.76067 0.23257 -0.11792
 H1074 H 0.76942 0.20253 -0.08877
 H1075 H 0.71565 0.20432 -0.12690
 H1076 H 0.71648 0.19231 -0.09018
 C1077 C 0.22255 0.72530 0.37954
 C1078 C 0.20800 0.70766 0.38529
 C1079 C 0.21145 0.69194 0.40561
 C1080 C 0.23231 0.68827 0.41607
 H1081 H 0.19204 0.70492 0.37530
 H1082 H 0.19589 0.68281 0.41158
 H1083 H 0.23784 0.72916 0.39015
 H1084 H 0.24778 0.69739 0.40977
 C1085 C 0.27110 0.72008 0.62782
 C1086 C 0.25270 0.72151 0.61319
 C1087 C 0.24831 0.70498 0.59368
 C1088 C 0.26518 0.69209 0.58335
 H1089 H 0.23944 0.73483 0.61600
 H1090 H 0.23036 0.70416 0.58751
 H1091 H 0.28373 0.70598 0.62614
 H1092 H 0.28313 0.69339 0.58956
 C1093 C 0.77907 0.22724 0.11900
 C1094 C 0.79352 0.20950 0.11339
 C1095 C 0.78991 0.19355 0.09324
 C1096 C 0.76899 0.18981 0.08292
 H1097 H 0.80947 0.20683 0.12338
 H1098 H 0.80539 0.18428 0.08731
 H1099 H 0.76379 0.23102 0.10838
 H1100 H 0.75360 0.19907 0.08918
 C1101 C 0.47874 0.37882 0.53040
 C1102 C 0.49771 0.36484 0.52983
 C1103 C 0.50209 0.34545 0.54648
 C1104 C 0.48520 0.33482 0.55912
 H1105 H 0.51138 0.36801 0.51700
 H1106 H 0.52012 0.33954 0.54757
 H1107 H 0.46557 0.37680 0.54395
 H1108 H 0.46719 0.34081 0.55777
 C1109 C -0.02222 0.87654 0.02899
 C1110 C -0.00298 0.86291 0.02875
 C1111 C 0.00124 0.84328 0.04515
 C1112 C -0.01579 0.83217 0.05718
 H1113 H 0.01109 0.86666 0.01651
 H1114 H 0.01935 0.83771 0.04672
 H1115 H -0.03586 0.87390 0.04196
 H1116 H -0.03388 0.83783 0.05541
 C1117 C 0.02669 0.62812 0.02174
 C1118 C 0.04165 0.63389 0.03898
 C1119 C 0.03853 0.65426 0.05478
 C1120 C 0.01774 0.66473 0.05888
 H1121 H 0.05761 0.62383 0.04135
 H1122 H 0.05424 0.66024 0.06362
 H1123 H 0.01134 0.63877 0.01826
 H1124 H 0.00211 0.65843 0.05006
 C1125 C 0.52228 0.12300 0.52896
 C1126 C 0.50356 0.13729 0.52812
 C1127 C 0.49940 0.15700 0.54449
 C1128 C 0.51632 0.16742 0.55724
 H1129 H 0.48986 0.13409 0.51534
 H1130 H 0.48146 0.16321 0.54543
 H1131 H 0.53550 0.12511 0.54242
 H1132 H 0.53425 0.16113 0.55612
 C1133 C -0.02032 0.12431 0.47266
 C1134 C -0.03372 0.12867 0.45382
 C1135 C -0.03035 0.14866 0.43758
 C1136 C -0.01594 0.16698 0.44144
 H1137 H -0.04791 0.11676 0.44948
 H1138 H -0.04058 0.14789 0.42164
 H1139 H -0.00559 0.13550 0.47703
 H1140 H -0.00530 0.16763 0.45711
 C1141 C 0.47833 0.62485 0.97282
 C1142 C 0.46502 0.62921 0.95392
 C1143 C 0.46886 0.64888 0.93739
 C1144 C 0.48323 0.66722 0.94133
 H1145 H 0.45057 0.61755 0.94976
 H1146 H 0.45894 0.64794 0.92127
 H1147 H 0.49336 0.63574 0.97693
 H1148 H 0.49345 0.66807 0.95726
 C1149 C 0.52032 0.87896 0.96968
 C1150 C 0.50152 0.86470 0.97052
 C1151 C 0.49730 0.84505 0.95409
 C1152 C 0.51429 0.83443 0.94161
 H1153 H 0.48783 0.86790 0.98332
 H1154 H 0.47929 0.83901 0.95296
 H1155 H 0.53349 0.87688 0.95614
 H1156 H 0.53228 0.84054 0.94306
 C1157 C 0.02178 0.37413 0.47527
 C1158 C 0.03811 0.36568 0.46053
 C1159 C 0.03484 0.34498 0.44519
 C1160 C 0.01388 0.33543 0.43983
 H1161 H 0.05530 0.37386 0.45983
 H1162 H 0.05079 0.33778 0.43778
 H1163 H 0.00486 0.36560 0.47708
 H1164 H -0.00206 0.34249 0.44741
 C1165 C 0.37517 0.52596 0.47410
 C1166 C 0.35986 0.52386 0.49188
 C1167 C 0.33934 0.53942 0.49582
 C1168 C 0.33600 0.56014 0.48513
 H1169 H 0.36182 0.50956 0.50417
 H1170 H 0.32656 0.53313 0.50839
 H1171 H 0.37311 0.53957 0.46111
 H1172 H 0.34861 0.56634 0.47236
 C1173 C 0.87553 0.02511 -0.02305
 C1174 C 0.87110 0.04436 -0.03581
 C1175 C 0.85099 0.06047 -0.03206
 C1176 C 0.83264 0.05623 -0.01779
 H1177 H 0.88307 0.04922 -0.04974
 H1178 H 0.85174 0.07671 -0.04181
 H1179 H 0.86426 0.02020 -0.00862
 H1180 H 0.83201 0.04029 -0.00759
 C1181 C 0.62585 0.02447 0.02495
 C1182 C 0.63283 0.04098 0.04019
 C1183 C 0.65368 0.05625 0.03689
 C1184 C 0.66376 0.06066 0.01605
 H1185 H 0.62344 0.04309 0.05655
 H1186 H 0.66041 0.06443 0.05259
 H1187 H 0.63579 0.02119 0.00912
 H1188 H 0.65681 0.05244 0.00044
 C1189 C 0.12863 0.52135 0.52993
 C1190 C 0.14304 0.52039 0.51132
 C1191 C 0.16358 0.53597 0.50763
 C1192 C 0.16665 0.55672 0.51839
 H1193 H 0.14032 0.50701 0.49814
 H1194 H 0.17630 0.52991 0.49492
 H1195 H 0.13179 0.53375 0.54391
 H1196 H 0.15385 0.56266 0.53111
 C1197 C 0.12538 0.47446 -0.02820
 C1198 C 0.14143 0.47737 -0.01120
 C1199 C 0.16184 0.46173 -0.00707
 C1200 C 0.16510 0.44081 -0.01743
 H1201 H 0.14005 0.49233 0.00039
 H1202 H 0.17468 0.46818 0.00534
 H1203 H 0.12668 0.46006 -0.04044
 H1204 H 0.15258 0.43448 -0.03020
 C1205 C 0.62733 0.97732 0.47376
 C1206 C 0.63414 0.96070 0.45857
 C1207 C 0.65494 0.94543 0.46181
 C1208 C 0.66502 0.94104 0.48262
 H1209 H 0.62463 0.95847 0.44231
 H1210 H 0.66157 0.93718 0.44611
 H1211 H 0.63742 0.98073 0.48945
 H1212 H 0.65811 0.94931 0.49824
 C1213 C 0.87726 0.97391 0.52280
 C1214 C 0.87185 0.95552 0.53643
 C1215 C 0.85167 0.93948 0.53255
 C1216 C 0.83361 0.94379 0.51798
 H1217 H 0.88310 0.95126 0.55111
 H1218 H 0.85203 0.92337 0.54252
 H1219 H 0.86682 0.97802 0.50754
 H1220 H 0.83333 0.95973 0.50776
 C1221 C 0.37619 0.47409 0.02276
 C1222 C 0.37127 0.45528 0.03602
 C1223 C 0.35142 0.43887 0.03196
 C1224 C 0.33350 0.44271 0.01710
 H1225 H 0.38259 0.45108 0.05065
 H1226 H 0.35189 0.42288 0.04212
 H1227 H 0.36566 0.47826 0.00760
 H1228 H 0.33316 0.45846 0.00658
 C1229 C 0.52558 0.47322 0.37233
 C1230 C 0.54321 0.45864 0.36664
 C1231 C 0.55870 0.46171 0.34601
 C1232 C 0.56233 0.48233 0.33519
 H1233 H 0.54611 0.44300 0.37695
 H1234 H 0.56774 0.44611 0.34017
 H1235 H 0.52154 0.48817 0.36141
 H1236 H 0.55336 0.49784 0.34149
 C1237 C 0.03213 -0.02179 0.87886
 C1238 C 0.03108 -0.00304 0.86473
 C1239 C 0.04755 0.00142 0.84514
 C1240 C 0.06012 -0.01537 0.83433
 H1241 H 0.01808 0.01044 0.86802
 H1242 H 0.04860 0.01941 0.83930
 H1243 H 0.04590 -0.03471 0.87671
 H1244 H 0.05868 -0.03334 0.84024
 C1245 C 0.02941 0.02356 0.62487
 C1246 C 0.04816 0.03704 0.62979
 C1247 C 0.06438 0.03321 0.64972
 C1248 C 0.05993 0.01898 0.66795
 H1249 H 0.05255 0.05151 0.61833
 H1250 H 0.08075 0.04291 0.64903
 H1251 H 0.02515 0.00849 0.63555
 H1252 H 0.04371 0.00906 0.66859
 C1253 C 0.52606 0.52843 0.12735
 C1254 C 0.52337 0.51133 0.14328
 C1255 C 0.53902 0.50750 0.16366
 C1256 C 0.55995 0.51806 0.16685
 H1257 H 0.50861 0.49940 0.14178
 H1258 H 0.53265 0.49504 0.17646
 H1259 H 0.54020 0.54105 0.12882
 H1260 H 0.56621 0.53084 0.15433
 C1261 C 0.47179 -0.02319 0.12529
 C1262 C 0.45240 -0.03599 0.12956
 C1263 C 0.43615 -0.03238 0.14958
 C1264 C 0.44002 -0.01762 0.16754
 H1265 H 0.44759 -0.04991 0.11758
 H1266 H 0.42011 -0.04260 0.14906
 H1267 H 0.47676 -0.00885 0.13664
 H1268 H 0.45571 -0.00688 0.16788
 C1269 C 0.97083 0.47689 0.62249
 C1270 C 0.97668 0.48839 0.64216
 C1271 C 0.96028 0.49318 0.66177
 C1272 C 0.93968 0.48202 0.66508
 H1273 H 0.99430 0.49539 0.64405
 H1274 H 0.96639 0.50580 0.67454
 H1275 H 0.95310 0.47047 0.61989
 H1276 H 0.93457 0.46800 0.65336
 C1277 C 0.96978 0.52382 0.87513
 C1278 C 0.97035 0.50478 0.86133
 C1279 C 0.95365 0.50022 0.84196
 C1280 C 0.94095 0.51691 0.83121
 H1281 H 0.98313 0.49114 0.86472
 H1282 H 0.95248 0.48218 0.83626
 H1283 H 0.95628 0.53699 0.87288
 H1284 H 0.94237 0.53493 0.83700
 C1285 C 0.47167 0.02263 0.37551
 C1286 C 0.45215 0.03520 0.37133
 C1287 C 0.43576 0.03124 0.35152
 C1288 C 0.43949 0.01620 0.33376
 H1289 H 0.44741 0.04924 0.38319
 H1290 H 0.41974 0.04147 0.35199
 H1291 H 0.47659 0.00820 0.36428
 H1292 H 0.45513 0.00545 0.33349
   
