data_POSCAR
  _audit_creation_date              2014-09-24
  _audit_creation_method            'ToBaCCo'
  _symmetry_space_group_name_H-M    'P1'
  _symmetry_Int_Tables_number       1
  _symmetry_cell_setting            triclinic
  loop_
  _symmetry_equiv_pos_as_xyz
 x,y,z
_cell_length_a 54.9555
_cell_length_b 54.9328
_cell_length_c 54.9544
_cell_angle_alpha 87.746900
_cell_angle_beta 87.842000
_cell_angle_gamma 87.829000
loop_
  _atom_site_label
  _atom_site_type_symbol
  _atom_site_fract_x
  _atom_site_fract_y
  _atom_site_fract_z
C1 C 0.78951 0.64159 1.00526
 C2 C 0.79498 0.62361 0.98498
 C3 C 0.77560 0.61007 0.98004
 C4 C 0.75259 0.61553 0.99594
 C5 C 0.76715 0.65690 0.99692
 C6 C 0.74785 0.64312 0.99207
 C7 C 0.78027 0.62607 1.02719
 C8 C 0.76093 0.61250 1.02231
 H9 H 0.81182 0.62330 0.97396
 H10 H 0.73689 0.60430 0.99204
 H11 H 0.76687 0.67662 0.99433
 H12 H 0.78729 0.62701 1.04535
 C13 C 0.78821 0.36548 0.47865
 C14 C 0.79282 0.38156 0.50002
 C15 C 0.77294 0.39546 0.50710
 C16 C 0.75025 0.39214 0.49222
 C17 C 0.76619 0.35052 0.48700
 C18 C 0.74635 0.36456 0.49407
 C19 C 0.77881 0.38304 0.45848
 C20 C 0.75894 0.39694 0.46561
 H21 H 0.81003 0.38148 0.50914
 H22 H 0.73410 0.40358 0.49801
 H23 H 0.76625 0.33073 0.48725
 H24 H 0.78632 0.38346 0.43989
 C25 C 0.28779 -0.13368 -0.02142
 C26 C 0.29259 -0.11870 -0.00094
 C27 C 0.27185 -0.10388 0.00660
 C28 C 0.25032 -0.10681 -0.00770
 C29 C 0.26678 -0.14791 -0.01362
 C30 C 0.24609 -0.13296 -0.00606
 C31 C 0.27920 -0.11678 -0.04062
 C32 C 0.25849 -0.10194 -0.03299
 H33 H 0.30973 -0.11927 0.00838
 H34 H 0.23429 -0.09518 -0.00179
 H35 H 0.26662 -0.16771 -0.01352
 H36 H 0.28627 -0.11674 -0.05939
 C37 C 0.28926 0.13791 0.50650
 C38 C 0.29446 0.11985 0.48625
 C39 C 0.27488 0.10657 0.48135
 C40 C 0.25195 0.11236 0.49726
 C41 C 0.26709 0.15351 0.49814
 C42 C 0.24759 0.14000 0.49332
 C43 C 0.27983 0.12256 0.52847
 C44 C 0.26030 0.10925 0.52363
 H45 H 0.31127 0.11935 0.47517
 H46 H 0.23609 0.10134 0.49340
 H47 H 0.26713 0.17320 0.49536
 H48 H 0.28693 0.12338 0.54660
 C49 C 0.13878 0.50722 0.28885
 C50 C 0.12049 0.48716 0.29417
 C51 C 0.10719 0.48227 0.27460
 C52 C 0.11319 0.49802 0.25158
 C53 C 0.15432 0.49860 0.26677
 C54 C 0.14078 0.49380 0.24729
 C55 C 0.12369 0.52928 0.27924
 C56 C 0.11036 0.52447 0.25972
 H57 H 0.11989 0.47614 0.31103
 H58 H 0.10215 0.49418 0.23572
 H59 H 0.17397 0.49565 0.26687
 H60 H 0.12472 0.54745 0.28620
 C61 C -0.13374 -0.02273 0.28900
 C62 C -0.11841 -0.00073 0.29368
 C63 C -0.10444 0.00660 0.27388
 C64 C -0.10702 -0.00872 0.25132
 C65 C -0.14869 -0.01478 0.26677
 C66 C -0.13458 -0.00744 0.24702
 C67 C -0.11654 -0.04151 0.28048
 C68 C -0.10189 -0.03378 0.25978
 H69 H -0.11895 0.00850 0.31084
 H70 H -0.09554 -0.00266 0.23526
 H71 H -0.16846 -0.01486 0.26668
 H72 H -0.11617 -0.06022 0.28773
 C73 C 0.36522 0.47772 0.78826
 C74 C 0.38118 0.49916 0.79300
 C75 C 0.39513 0.50641 0.77319
 C76 C 0.39195 0.49160 0.75043
 C77 C 0.35032 0.48611 0.76619
 C78 C 0.36440 0.49335 0.74643
 C79 C 0.38287 0.45767 0.77886
 C80 C 0.39681 0.46496 0.75906
 H81 H 0.38094 0.50825 0.81022
 H82 H 0.40342 0.49753 0.73434
 H83 H 0.33054 0.48629 0.76619
 H84 H 0.38332 0.43904 0.78631
 C85 C 0.63922 1.00634 0.78939
 C86 C 0.62134 0.98585 0.79477
 C87 C 0.60780 0.98104 0.77532
 C88 C 0.61327 0.99728 0.75243
 C89 C 0.65464 0.99801 0.76706
 C90 C 0.64088 0.99324 0.74768
 C91 C 0.62455 1.02719 0.78077
 C92 C 0.61033 1.02220 0.76046
 H93 H 0.62107 0.97469 0.81155
 H94 H 0.60205 0.99341 0.73669
 H95 H 0.67430 0.99498 0.76699
 H96 H 0.62584 1.04541 0.78757
 C97 C -0.02126 0.28822 -0.13658
 C98 C 0.00015 0.29281 -0.12052
 C99 C 0.00724 0.27292 -0.10658
 C100 C -0.00768 0.25024 -0.10984
 C101 C -0.01296 0.26615 -0.15148
 C102 C -0.00589 0.24630 -0.13740
 C103 C -0.04141 0.27885 -0.11899
 C104 C -0.03427 0.25897 -0.10505
 H105 H 0.00927 0.31002 -0.12061
 H106 H -0.00188 0.23408 -0.09838
 H107 H -0.01278 0.26619 -0.17126
 H108 H -0.05998 0.28642 -0.11854
 C109 C 0.50611 0.28818 0.13931
 C110 C 0.48600 0.29361 0.12111
 C111 C 0.48115 0.27416 0.10764
 C112 C 0.49697 0.25114 0.11339
 C113 C 0.49760 0.26589 0.15468
 C114 C 0.49284 0.24653 0.14096
 C115 C 0.52816 0.27882 0.12408
 C116 C 0.52337 0.25942 0.11059
 H117 H 0.47495 0.31044 0.12067
 H118 H 0.49315 0.23539 0.10221
 H119 H 0.49473 0.26575 0.17435
 H120 H 0.54631 0.28583 0.12516
 C121 C 1.00580 0.78962 0.63806
 C122 C 0.98649 0.79503 0.62099
 C123 C 0.98156 0.77475 0.60650
 C124 C 0.99696 0.75303 0.61179
 C125 C 0.99809 0.76825 0.65262
 C126 C 0.99324 0.74801 0.63796
 C127 C 1.02690 0.78133 0.62336
 C128 C 1.02199 0.76110 0.60886
 H129 H 0.97486 0.81151 0.62125
 H130 H 0.99326 0.73739 0.60033
 H131 H 0.99505 0.76792 0.67230
 H132 H 1.04513 0.78807 0.62489
 C133 C 0.47841 0.78755 0.36518
 C134 C 0.49987 0.79219 0.38115
 C135 C 0.50705 0.77231 0.39506
 C136 C 0.49216 0.74959 0.39186
 C137 C 0.48670 0.76551 0.35025
 C138 C 0.49387 0.74567 0.36430
 C139 C 0.45835 0.77815 0.38283
 C140 C 0.46557 0.75828 0.39674
 H141 H 0.50900 0.80941 0.38097
 H142 H 0.49803 0.73345 0.40330
 H143 H 0.48687 0.76557 0.33047
 H144 H 0.43976 0.78566 0.38333
 C145 C 0.38990 -0.00903 0.26575
 H146 H 0.38911 0.00852 0.27406
 C147 C 0.40330 -0.02852 0.27635
 H148 H 0.41298 -0.02598 0.29282
 C149 C 0.37739 -0.03417 0.23474
 H150 H 0.36679 -0.03650 0.21890
 C151 C 0.39056 -0.05412 0.24475
 H152 H 0.39022 -0.07167 0.23646
 N153 N 0.37731 -0.01216 0.24531
 C154 C 0.36468 0.06038 0.21192
 H155 H 0.34515 0.06029 0.21012
 C156 C 0.37755 0.08073 0.20375
 H157 H 0.36793 0.09641 0.19563
 C158 C 0.40113 0.04006 0.22471
 H159 H 0.41028 0.02411 0.23270
 C160 C 0.41471 0.06006 0.21677
 H161 H 0.43425 0.05952 0.21881
 Zn162 Zn 0.35738 0.01430 0.23364
 N163 N 0.37652 0.04074 0.22250
 C164 C 0.33727 0.04666 0.26851
 N165 N 0.33658 0.02370 0.26016
 C166 C 0.32336 0.00628 0.27230
 C167 C 0.31053 0.01157 0.29404
 C168 C 0.32467 0.05270 0.29007
 C169 C 0.35290 -0.00010 0.18630
 C170 C 0.34158 -0.00815 0.16596
 C171 C 0.30293 -0.00561 0.18839
 C172 C 0.31501 0.00246 0.20838
 N173 N 0.33963 0.00465 0.20707
 H174 H 0.34838 0.06007 0.25908
 H175 H 0.32358 -0.01197 0.26557
 H176 H 0.30070 -0.00259 0.30402
 H177 H 0.32595 0.07081 0.29695
 H178 H 0.37241 0.00200 0.18573
 H179 H 0.35240 -0.01231 0.14966
 H180 H 0.28341 -0.00777 0.18963
 H181 H 0.30478 0.00665 0.22496
 C182 C 0.40276 0.08062 0.20635
 C183 C 0.40349 -0.05129 0.26582
 C184 C 0.31642 -0.01114 0.16707
 C185 C 0.31150 0.03492 0.30314
 C186 C 0.07876 1.03513 0.78374
 H187 H 0.07772 1.01718 0.79246
 C188 C 0.06567 1.05488 0.79375
 H189 H 0.05438 1.05214 0.81014
 C190 C 0.09559 1.06096 0.75237
 H191 H 0.10778 1.06343 0.73667
 C192 C 0.08282 1.08115 0.76176
 H193 H 0.08502 1.09902 0.75308
 N194 N 0.09338 1.03849 0.76343
 C195 C 0.10668 0.96728 0.73221
 H196 H 0.12636 0.96741 0.73071
 C197 C 0.09450 0.94765 0.72381
 H198 H 0.10480 0.93257 0.71583
 C199 C 0.06919 0.98695 0.74420
 H200 H 0.05945 1.00244 0.75191
 C201 C 0.05624 0.96760 0.73598
 H202 H 0.03652 0.96814 0.73747
 Zn203 Zn 0.11301 1.01174 0.75250
 N204 N 0.09399 0.98629 0.74236
 C205 C 0.13006 0.97719 0.78810
 N206 N 0.13217 1.00041 0.77886
 C207 C 0.14676 1.01631 0.78918
 C208 C 0.16027 1.00891 0.80940
 C209 C 0.14323 0.96907 0.80825
 C210 C 0.12095 1.02816 0.70445
 C211 C 0.13406 1.03513 0.68325
 C212 C 0.17137 1.02773 0.70471
 C213 C 0.15753 1.02088 0.72558
 N214 N 0.13276 1.02147 0.72512
 H215 H 0.11789 0.96501 0.78015
 H216 H 0.14772 1.03481 0.78178
 H217 H 0.17183 1.02165 0.81753
 H218 H 0.14139 0.95058 0.81551
 H219 H 0.10126 1.02809 0.70452
 H220 H 0.12448 1.04059 0.66693
 H221 H 0.19107 1.02735 0.70520
 H222 H 0.16660 1.01499 0.74200
 C223 C 0.06907 0.94777 0.72575
 C224 C 0.06788 1.07812 0.78273
 C225 C 0.15949 1.03497 0.68339
 C226 C 0.15844 0.98506 0.81901
 C227 C 0.57984 0.53622 0.28250
 H228 H 0.57912 0.51818 0.29109
 C229 C 0.56667 0.55573 0.29284
 H230 H 0.55564 0.55274 0.30936
 C231 C 0.59599 0.56248 0.25113
 H232 H 0.60795 0.56521 0.23530
 C233 C 0.58313 0.58246 0.26085
 H234 H 0.58502 0.60043 0.25230
 N235 N 0.59416 0.53991 0.26203
 C236 C 0.60779 0.46901 0.23025
 H237 H 0.62745 0.46934 0.22847
 C238 C 0.59567 0.44924 0.22205
 H239 H 0.60600 0.43425 0.21393
 C240 C 0.57028 0.48827 0.24283
 H241 H 0.56050 0.50365 0.25072
 C242 C 0.55740 0.46878 0.23483
 H243 H 0.53770 0.46909 0.23667
 Zn244 Zn 0.61395 0.51343 0.25075
 N245 N 0.59506 0.48787 0.24063
 C246 C 0.63155 0.47881 0.28601
 N247 N 0.63336 0.50211 0.27692
 C248 C 0.64778 0.51812 0.28731
 C249 C 0.66141 0.51075 0.30746
 C250 C 0.64484 0.47072 0.30609
 C251 C 0.62157 0.53028 0.20276
 C252 C 0.63460 0.53744 0.18156
 C253 C 0.67200 0.53003 0.20287
 C254 C 0.65826 0.52299 0.22372
 N255 N 0.63348 0.52349 0.22335
 H256 H 0.61950 0.46653 0.27802
 H257 H 0.64851 0.53667 0.28003
 H258 H 0.67283 0.52358 0.31566
 H259 H 0.64322 0.45216 0.31324
 H260 H 0.60189 0.53014 0.20288
 H261 H 0.62495 0.54297 0.16530
 H262 H 0.69170 0.52972 0.20329
 H263 H 0.66740 0.51702 0.24008
 C264 C 0.57028 0.44907 0.22442
 C265 C 0.56850 0.57909 0.28199
 C266 C 0.66003 0.53736 0.18163
 C267 C 0.65987 0.48682 0.31692
 C268 C 0.89296 0.49323 0.76462
 H269 H 0.89244 0.51079 0.77292
 C270 C 0.90624 0.47361 0.77512
 H271 H 0.91611 0.47604 0.79150
 C272 C 0.87981 0.46821 0.73381
 H273 H 0.86898 0.46596 0.71812
 C274 C 0.89285 0.44813 0.74372
 H275 H 0.89219 0.43058 0.73549
 N276 N 0.88007 0.49022 0.74435
 C277 C 0.86697 0.56271 0.71094
 H278 H 0.84741 0.56250 0.70939
 C279 C 0.87965 0.58305 0.70241
 H280 H 0.86986 0.59861 0.69427
 C281 C 0.90368 0.54266 0.72343
 H282 H 0.91298 0.52681 0.73143
 C283 C 0.91707 0.56267 0.71511
 H284 H 0.93665 0.56224 0.71688
 Zn285 Zn 0.86006 0.51673 0.73290
 N286 N 0.87903 0.54319 0.72152
 C287 C 0.84019 0.54912 0.76787
 N288 N 0.83949 0.52613 0.75959
 C289 C 0.82631 0.50873 0.77181
 C290 C 0.81349 0.51408 0.79353
 C291 C 0.82760 0.55522 0.78942
 C292 C 0.85509 0.50238 0.68563
 C293 C 0.84356 0.49432 0.66542
 C294 C 0.80512 0.49682 0.68823
 C295 C 0.81740 0.50490 0.70809
 N296 N 0.84202 0.50710 0.70653
 H297 H 0.85126 0.56252 0.75836
 H298 H 0.82652 0.49046 0.76513
 H299 H 0.80366 0.49996 0.80355
 H300 H 0.82884 0.57337 0.79622
 H301 H 0.87460 0.50450 0.68486
 H302 H 0.85422 0.49015 0.64902
 H303 H 0.78561 0.49462 0.68967
 H304 H 0.80733 0.50908 0.72476
 C305 C 0.90490 0.58308 0.70465
 C306 C 0.90602 0.45082 0.76466
 C307 C 0.81841 0.49130 0.66679
 C308 C 0.81442 0.53748 0.80254
 C309 C 0.26570 0.39062 -0.00786
 H310 H 0.27407 0.38985 0.00968
 C311 C 0.27632 0.40389 -0.02742
 H312 H 0.29285 0.41350 -0.02496
 C313 C 0.23458 0.37811 -0.03288
 H314 H 0.21871 0.36754 -0.03514
 C315 C 0.24460 0.39115 -0.05290
 H316 H 0.23628 0.39075 -0.07044
 N317 N 0.24522 0.37806 -0.01090
 C318 C 0.21207 0.36538 0.06168
 H319 H 0.21022 0.34584 0.06157
 C320 C 0.20399 0.37821 0.08205
 H321 H 0.19591 0.36856 0.09773
 C322 C 0.22487 0.40187 0.04140
 H323 H 0.23284 0.41104 0.02546
 C324 C 0.21702 0.41541 0.06142
 H325 H 0.21911 0.43496 0.06091
 Zn326 Zn 0.23361 0.35814 0.01560
 N327 N 0.22261 0.37725 0.04205
 C328 C 0.26855 0.33782 0.04786
 N329 N 0.26012 0.33725 0.02492
 C330 C 0.27215 0.32405 0.00746
 C331 C 0.29386 0.31112 0.01268
 C332 C 0.29009 0.32512 0.05384
 C333 C 0.18620 0.35377 0.00129
 C334 C 0.16586 0.34251 -0.00683
 C335 C 0.18827 0.30381 -0.00439
 C336 C 0.20826 0.31584 0.00375
 N337 N 0.20697 0.34045 0.00601
 H338 H 0.25920 0.34891 0.06130
 H339 H 0.26536 0.32436 -0.01078
 H340 H 0.30376 0.30130 -0.00151
 H341 H 0.29704 0.32629 0.07193
 H342 H 0.18565 0.37328 0.00343
 H343 H 0.14957 0.35336 -0.01100
 H344 H 0.18951 0.28430 -0.00663
 H345 H 0.22484 0.30557 0.00792
 C346 C 0.20665 0.40342 0.08198
 C347 C 0.26574 0.40400 -0.05018
 C348 C 0.16696 0.31735 -0.00991
 C349 C 0.30305 0.31196 0.03601
 C350 C 0.78471 0.07866 1.03684
 H351 H 0.79325 0.07787 1.01881
 C352 C 0.79504 0.06546 1.05638
 H353 H 0.81150 0.05434 1.05341
 C354 C 0.75348 0.09500 1.06306
 H355 H 0.73770 0.10703 1.06576
 C356 C 0.76319 0.08211 1.08306
 H357 H 0.75468 0.08406 1.10102
 N358 N 0.76432 0.09309 1.04049
 C359 C 0.73223 0.10672 0.96971
 H360 H 0.73050 0.12639 0.97004
 C361 C 0.72384 0.09465 0.95001
 H362 H 0.71562 0.10503 0.93508
 C363 C 0.74486 0.06915 0.98891
 H364 H 0.75283 0.05933 1.00424
 C365 C 0.73665 0.05631 0.96948
 H366 H 0.73843 0.03659 0.96980
 Zn367 Zn 0.75295 0.11284 1.01398
 N368 N 0.74271 0.09394 0.98851
 C369 C 0.78801 0.13040 0.97920
 N370 N 0.77904 0.13229 1.00251
 C371 C 0.78941 0.14691 1.01835
 C372 C 0.80939 0.16069 1.01077
 C373 C 0.80792 0.14383 0.97092
 C374 C 0.70501 0.12038 1.03084
 C375 C 0.68375 0.13336 1.03787
 C376 C 0.70489 0.17085 1.03026
 C377 C 0.72581 0.15715 1.02337
 N378 N 0.72554 0.13236 1.02402
 H379 H 0.78004 0.11820 0.96707
 H380 H 0.78222 0.14771 1.03691
 H381 H 0.81756 0.17229 1.02345
 H382 H 0.81496 0.14216 0.95235
 H383 H 0.70521 0.10068 1.03081
 H384 H 0.66753 0.12365 1.04340
 H385 H 0.70521 0.19057 1.02980
 H386 H 0.74211 0.16634 1.01735
 C387 C 0.72612 0.06924 0.94985
 C388 C 0.78425 0.06737 1.07973
 C389 C 0.68369 0.15881 1.03760
 C390 C 0.81871 0.15909 0.98682
 C391 C 0.28256 0.58000 0.53697
 H392 H 0.29108 0.57930 0.51892
 C393 C 0.29296 0.56677 0.55645
 H394 H 0.30946 0.55572 0.55341
 C395 C 0.25131 0.59615 0.56330
 H396 H 0.23551 0.60812 0.56607
 C397 C 0.26110 0.58322 0.58324
 H398 H 0.25262 0.58509 0.60122
 N399 N 0.26213 0.59435 0.54071
 C400 C 0.23003 0.60821 0.46996
 H401 H 0.22829 0.62787 0.47033
 C402 C 0.22171 0.59617 0.45021
 H403 H 0.21352 0.60657 0.43528
 C404 C 0.24267 0.57061 0.48911
 H405 H 0.25063 0.56076 0.50444
 C406 C 0.23454 0.55780 0.46963
 H407 H 0.23635 0.53809 0.46990
 Zn408 Zn 0.25075 0.61421 0.51429
 N409 N 0.24049 0.59539 0.48876
 C410 C 0.28590 0.63178 0.47960
 N411 N 0.27689 0.63363 0.50290
 C412 C 0.28737 0.64804 0.51885
 C413 C 0.30754 0.66161 0.51142
 C414 C 0.30599 0.64501 0.47145
 C415 C 0.20283 0.62176 0.53121
 C416 C 0.18160 0.63475 0.53834
 C417 C 0.20283 0.67221 0.53094
 C418 C 0.22371 0.65851 0.52394
 N419 N 0.22338 0.63372 0.52443
 H420 H 0.27784 0.61974 0.46738
 H421 H 0.28016 0.64879 0.53741
 H422 H 0.31582 0.67301 0.52421
 H423 H 0.31308 0.64336 0.45290
 H424 H 0.20299 0.60207 0.53105
 H425 H 0.16537 0.62505 0.54382
 H426 H 0.20320 0.69193 0.53060
 H427 H 0.24004 0.66769 0.51797
 C428 C 0.22404 0.57076 0.44999
 C429 C 0.28221 0.56857 0.57982
 C430 C 0.18161 0.66019 0.53823
 C431 C 0.31693 0.66002 0.48750
 C432 C 0.76646 0.88994 0.49283
 H433 H 0.77471 0.88924 0.51042
 C434 C 0.77716 0.90321 0.47330
 H435 H 0.79364 0.91288 0.47585
 C436 C 0.73555 0.87730 0.46762
 H437 H 0.71974 0.86668 0.46527
 C438 C 0.74566 0.89033 0.44764
 H439 H 0.73745 0.88987 0.43005
 N440 N 0.74604 0.87733 0.48968
 C441 C 0.71228 0.86460 0.56198
 H442 H 0.71042 0.84507 0.56177
 C443 C 0.70401 0.87736 0.58233
 H444 H 0.69577 0.86766 0.59789
 C445 C 0.72534 0.90115 0.54198
 H446 H 0.73348 0.91036 0.52616
 C447 C 0.71729 0.91462 0.56199
 H448 H 0.71942 0.93415 0.56160
 Zn449 Zn 0.73426 0.85743 0.51613
 N450 N 0.72304 0.87653 0.54250
 C451 C 0.76891 0.83717 0.54872
 N452 N 0.76068 0.83653 0.52570
 C453 C 0.77285 0.82325 0.50839
 C454 C 0.79449 0.81029 0.51386
 C455 C 0.79036 0.82444 0.55494
 C456 C 0.68696 0.85307 0.50153
 C457 C 0.66662 0.84182 0.49340
 C458 C 0.68895 0.80309 0.49604
 C459 C 0.70894 0.81510 0.50419
 N460 N 0.70768 0.83973 0.50637
 H461 H 0.75945 0.84832 0.56205
 H462 H 0.76623 0.82350 0.49009
 H463 H 0.80450 0.80040 0.49979
 H464 H 0.79714 0.82566 0.57310
 H465 H 0.68643 0.87259 0.50363
 H466 H 0.65035 0.85268 0.48916
 H467 H 0.69015 0.78356 0.49388
 H468 H 0.72548 0.80482 0.50845
 C469 C 0.70670 0.90256 0.58240
 C470 C 0.76674 0.90325 0.45047
 C471 C 0.66768 0.81665 0.49042
 C472 C 0.80346 0.81119 0.53728
 C473 C -0.00785 0.26654 0.39147
 H474 H 0.00968 0.27492 0.39068
 C475 C -0.02736 0.27709 0.40483
 H476 H -0.02486 0.29358 0.41448
 C477 C -0.03291 0.23545 0.37896
 H478 H -0.03521 0.21963 0.36836
 C479 C -0.05288 0.24541 0.39208
 H480 H -0.07041 0.23707 0.39172
 N481 N -0.01093 0.24611 0.37888
 C482 C 0.06159 0.21299 0.36595
 H483 H 0.06141 0.21125 0.34642
 C484 C 0.08200 0.20478 0.37871
 H485 H 0.09762 0.19671 0.36901
 C486 C 0.04146 0.22563 0.40252
 H487 H 0.02556 0.23356 0.41175
 C488 C 0.06151 0.21764 0.41599
 H489 H 0.06107 0.21961 0.43554
 Zn490 Zn 0.01548 0.23456 0.35888
 N491 N 0.04202 0.22350 0.37790
 C492 C 0.04764 0.26958 0.33853
 N493 N 0.02471 0.26114 0.33799
 C494 C 0.00720 0.27318 0.32481
 C495 C 0.01237 0.29491 0.31186
 C496 C 0.05357 0.29114 0.32580
 C497 C 0.00119 0.18714 0.35453
 C498 C -0.00689 0.16678 0.34328
 C499 C -0.00459 0.18924 0.30459
 C500 C 0.00351 0.20926 0.31660
 N501 N 0.00583 0.20795 0.34120
 H502 H 0.06113 0.26022 0.34960
 H503 H -0.01103 0.26637 0.32515
 H504 H -0.00185 0.30481 0.30205
 H505 H 0.07167 0.29810 0.32694
 H506 H 0.00340 0.18658 0.37403
 H507 H -0.01098 0.15045 0.35414
 H508 H -0.00687 0.19049 0.28508
 H509 H 0.00762 0.22586 0.30632
 C510 C 0.08201 0.20728 0.40393
 C511 C -0.05011 0.26650 0.40498
 C512 C -0.01002 0.16790 0.31814
 C513 C 0.03570 0.30411 0.31266
 C514 C 1.03702 0.78643 0.07871
 H515 H 1.01898 0.79496 0.07791
 C516 C 1.05656 0.79689 0.06564
 H517 H 1.05357 0.81343 0.05460
 C518 C 1.06328 0.75511 0.09495
 H519 H 1.06600 0.73925 0.10691
 C520 C 1.08327 0.76495 0.08219
 H521 H 1.10124 0.75645 0.08415
 N522 N 1.04070 0.76594 0.09303
 C523 C 0.96994 0.73372 0.10646
 H524 H 0.97031 0.73187 0.12612
 C525 C 0.95022 0.72543 0.09435
 H526 H 0.93531 0.71715 0.10469
 C527 C 0.98907 0.74661 0.06896
 H528 H 1.00438 0.75465 0.05919
 C529 C 0.96962 0.73850 0.05608
 H530 H 0.96989 0.74042 0.03638
 Zn531 Zn 1.01420 0.75444 0.11270
 N532 N 0.98872 0.74429 0.09374
 C533 C 0.97942 0.78943 0.13034
 N534 N 1.00273 0.78045 0.13222
 C535 C 1.01860 0.79077 0.14684
 C536 C 1.01105 0.81072 0.16064
 C537 C 0.97116 0.80931 0.14380
 C538 C 1.03113 0.70645 0.12013
 C539 C 1.03818 0.68513 0.13307
 C540 C 1.03056 0.70614 0.17059
 C541 C 1.02364 0.72711 0.15693
 N542 N 1.02428 0.72694 0.13214
 H543 H 0.96726 0.78150 0.11814
 H544 H 1.03717 0.78358 0.14762
 H545 H 1.02376 0.81886 0.17224
 H546 H 0.95259 0.81636 0.14215
 H547 H 1.03109 0.70673 0.10044
 H548 H 1.04372 0.66895 0.12334
 H549 H 1.03010 0.70639 0.19030
 H550 H 1.01761 0.74339 0.16615
 C551 C 0.95000 0.72789 0.06896
 C552 C 1.07992 0.78612 0.06756
 C553 C 1.03792 0.68499 0.15852
 C554 C 0.98710 0.82006 0.15906
 C555 C 0.53670 0.28272 0.57983
 H556 H 0.51866 0.29124 0.57909
 C557 C 0.55618 0.29312 0.56664
 H558 H 0.55316 0.30963 0.55557
 C559 C 0.56301 0.25143 0.59606
 H560 H 0.56578 0.23561 0.60805
 C561 C 0.58296 0.26122 0.58317
 H562 H 0.60093 0.25272 0.58509
 N563 N 0.54043 0.26226 0.59420
 C564 C 0.46969 0.23013 0.60792
 H565 H 0.47002 0.22840 0.62759
 C566 C 0.44999 0.22173 0.59584
 H567 H 0.43507 0.21350 0.60620
 C568 C 0.48888 0.24275 0.57037
 H569 H 0.50421 0.25072 0.56056
 C570 C 0.46946 0.23454 0.55752
 H571 H 0.46978 0.23631 0.53781
 Zn572 Zn 0.51401 0.25085 0.61401
 N573 N 0.48849 0.24061 0.59515
 C574 C 0.47932 0.28595 0.63163
 N575 N 0.50263 0.27694 0.63345
 C576 C 0.51860 0.28737 0.64788
 C577 C 0.51118 0.30747 0.66152
 C578 C 0.47118 0.30597 0.64493
 C579 C 0.53095 0.20289 0.62152
 C580 C 0.53817 0.18165 0.63446
 C581 C 0.53087 0.20279 0.67195
 C582 C 0.52376 0.22369 0.65827
 N583 N 0.52418 0.22342 0.63350
 H584 H 0.46708 0.27793 0.61957
 H585 H 0.53717 0.28016 0.64861
 H586 H 0.52398 0.31570 0.67295
 H587 H 0.45262 0.31305 0.64331
 H588 H 0.53074 0.20310 0.60183
 H589 H 0.54368 0.16544 0.62475
 H590 H 0.53061 0.20312 0.69165
 H591 H 0.51780 0.24000 0.66747
 C592 C 0.44983 0.22400 0.57043
 C593 C 0.57955 0.28235 0.56850
 C594 C 0.53817 0.18161 0.65990
 C595 C 0.48724 0.31685 0.65998
 C596 C 0.49009 0.76658 0.89234
 H597 H 0.50765 0.77490 0.89163
 C598 C 0.47054 0.77723 0.90556
 H599 H 0.47304 0.79373 0.91519
 C600 C 0.46498 0.73556 0.87974
 H601 H 0.46268 0.71972 0.86915
 C602 C 0.44498 0.74562 0.89273
 H603 H 0.42742 0.73736 0.89228
 N604 N 0.48700 0.74613 0.87976
 C605 C 0.55944 0.71271 0.86708
 H606 H 0.55916 0.71079 0.84758
 C607 C 0.57992 0.70469 0.87980
 H608 H 0.59551 0.69654 0.87010
 C609 C 0.53950 0.72577 0.90359
 H610 H 0.52366 0.73385 0.91280
 C611 C 0.55964 0.71797 0.91702
 H612 H 0.55933 0.72021 0.93653
 Zn613 Zn 0.51348 0.73448 0.85990
 N614 N 0.53993 0.72338 0.87901
 C615 C 0.54589 0.76929 0.83967
 N616 N 0.52291 0.76098 0.83902
 C617 C 0.50557 0.77308 0.82567
 C618 C 0.51096 0.79472 0.81265
 C619 C 0.55205 0.79075 0.82688
 C620 C 0.49905 0.68709 0.85545
 C621 C 0.49117 0.66670 0.84410
 C622 C 0.49401 0.68911 0.80541
 C623 C 0.50190 0.70916 0.81752
 N624 N 0.50388 0.70787 0.84217
 H625 H 0.55925 0.75989 0.85086
 H626 H 0.48729 0.76638 0.82591
 H627 H 0.49687 0.80466 0.80270
 H628 H 0.57018 0.79758 0.82810
 H629 H 0.50100 0.68654 0.87498
 H630 H 0.48696 0.65038 0.85490
 H631 H 0.49204 0.69033 0.78585
 H632 H 0.50617 0.72574 0.80728
 C633 C 0.58009 0.70751 0.90496
 C634 C 0.44775 0.76673 0.90560
 C635 C 0.48843 0.66777 0.81889
 C636 C 0.53435 0.80376 0.81355
 C637 C 0.47054 -0.19101 0.35036
 C638 C 0.46374 -0.17328 0.33853
 C639 C 0.45517 -0.15203 0.32481
 C640 C 0.44236 -0.15460 0.30355
 C641 C 0.43295 -0.13396 0.29091
 C642 C 0.43632 -0.11068 0.29948
 C643 C 0.44940 -0.10810 0.32057
 C644 C 0.45881 -0.12873 0.33321
 C645 C 0.42542 -0.08958 0.28728
 C646 C 0.41574 -0.07203 0.27734
 H647 H 0.43937 -0.17253 0.29696
 H648 H 0.42277 -0.13617 0.27469
 H649 H 0.45200 -0.09019 0.32741
 H650 H 0.46861 -0.12655 0.34968
 C651 C 0.97101 0.30971 0.84860
 C652 C 0.96440 0.32756 0.83683
 C653 C 0.95612 0.34900 0.82322
 C654 C 0.96067 0.37218 0.83141
 C655 C 0.95160 0.39304 0.81888
 C656 C 0.93796 0.39080 0.79811
 C657 C 0.93367 0.36763 0.78974
 C658 C 0.94274 0.34677 0.80228
 C659 C 0.92743 0.41217 0.78602
 C660 C 0.91802 0.42991 0.77615
 H661 H 0.97092 0.37410 0.84764
 H662 H 0.95492 0.41086 0.82557
 H663 H 0.92304 0.36569 0.77377
 H664 H 0.93904 0.32893 0.79584
 C665 C 0.00242 1.22357 0.85240
 C666 C 0.00946 1.20460 0.84380
 C667 C 0.01806 1.18206 0.83343
 C668 C 0.02707 1.16288 0.84850
 C669 C 0.03612 1.14126 0.83833
 C670 C 0.03619 1.13873 0.81305
 C671 C 0.02697 1.15782 0.79801
 C672 C 0.01792 1.17944 0.80818
 C673 C 0.04664 1.11699 0.80246
 C674 C 0.05597 1.09908 0.79351
 H675 H 0.02730 1.16473 0.86804
 H676 H 0.04332 1.12666 0.85011
 H677 H 0.02705 1.15611 0.77843
 H678 H 0.01104 1.19417 0.79636
 C679 C 0.50231 0.72303 0.35401
 C680 C 0.50946 0.70418 0.34523
 C681 C 0.51818 0.68184 0.33456
 C682 C 0.52855 0.66301 0.34917
 C683 C 0.53774 0.64162 0.33863
 C684 C 0.53658 0.63897 0.31345
 C685 C 0.52599 0.65770 0.29888
 C686 C 0.51681 0.67908 0.30941
 C687 C 0.54713 0.61750 0.30243
 C688 C 0.55653 0.59981 0.29313
 H689 H 0.52975 0.66497 0.36862
 H690 H 0.54599 0.62730 0.35005
 H691 H 0.52510 0.65589 0.27937
 H692 H 0.50887 0.69354 0.29794
 C693 C 0.51141 0.30926 0.15354
 C694 C 0.51620 0.32691 0.16455
 C695 C 0.52256 0.34823 0.17695
 C696 C 0.51553 0.37146 0.16767
 C697 C 0.52341 0.39227 0.17847
 C698 C 0.53832 0.38992 0.19861
 C699 C 0.54490 0.36669 0.20822
 C700 C 0.53703 0.34589 0.19742
 C701 C 0.54838 0.41117 0.20827
 C702 C 0.55780 0.42868 0.21588
 H703 H 0.50446 0.37347 0.15176
 H704 H 0.51837 0.41013 0.17078
 H705 H 0.55659 0.36467 0.22367
 H706 H 0.54269 0.32802 0.20465
 C707 C 0.01068 0.80944 0.65187
 C708 C 0.01532 0.82691 0.66326
 C709 C 0.02152 0.84799 0.67612
 C710 C 0.03559 0.84527 0.69685
 C711 C 0.04335 0.86586 0.70812
 C712 C 0.03707 0.88924 0.69872
 C713 C 0.02255 0.89196 0.67831
 C714 C 0.01478 0.87137 0.66704
 C715 C 0.04710 0.91027 0.70884
 C716 C 0.05653 0.92759 0.71682
 H717 H 0.04103 0.82728 0.70393
 H718 H 0.05474 0.86354 0.72378
 H719 H 0.01775 0.90995 0.67076
 H720 H 0.00403 0.87368 0.65092
 C721 C 0.98351 0.72702 0.64734
 C722 C 0.97467 0.70842 0.65519
 C723 C 0.96380 0.68621 0.66407
 C724 C 0.95958 0.66790 0.64786
 C725 C 0.94832 0.64660 0.65626
 C726 C 0.94124 0.64351 0.68091
 C727 C 0.94563 0.66175 0.69716
 C728 C 0.95689 0.68306 0.68876
 C729 C 0.92887 0.62198 0.68936
 C730 C 0.91815 0.60412 0.69634
 H731 H 0.96479 0.67018 0.62872
 H732 H 0.94495 0.63266 0.64352
 H733 H 0.94016 0.65958 0.71625
 H734 H 0.96001 0.69713 0.70144
 C735 C 0.48271 0.22441 0.15113
 C736 C 0.47389 0.20582 0.15901
 C737 C 0.46294 0.18362 0.16780
 C738 C 0.45197 0.18206 0.19121
 C739 C 0.44043 0.16080 0.19930
 C740 C 0.43983 0.14102 0.18401
 C741 C 0.45101 0.14250 0.16069
 C742 C 0.46254 0.16376 0.15261
 C743 C 0.42715 0.11952 0.19195
 C744 C 0.41621 0.10167 0.19852
 H745 H 0.45209 0.19735 0.20308
 H746 H 0.43178 0.15987 0.21734
 H747 H 0.45059 0.12735 0.14869
 H748 H 0.47089 0.16480 0.13444
 C749 C 0.35037 0.46982 -0.19036
 C750 C 0.33854 0.46305 -0.17263
 C751 C 0.32482 0.45460 -0.15136
 C752 C 0.33268 0.45924 -0.12808
 C753 C 0.32003 0.45003 -0.10737
 C754 C 0.29947 0.43615 -0.10987
 C755 C 0.29143 0.43177 -0.13314
 C756 C 0.30408 0.44097 -0.15385
 C757 C 0.28726 0.42552 -0.08865
 C758 C 0.27730 0.41604 -0.07100
 H759 H 0.34875 0.46969 -0.12596
 H760 H 0.32647 0.45343 -0.08947
 H761 H 0.27561 0.42096 -0.13527
 H762 H 0.29790 0.43721 -0.17176
 C763 C 0.85140 0.96929 0.31037
 C764 C 0.83957 0.96249 0.32810
 C765 C 0.82588 0.95399 0.34937
 C766 C 0.83387 0.95843 0.37265
 C767 C 0.82124 0.94919 0.39335
 C768 C 0.80056 0.93547 0.39086
 C769 C 0.79240 0.93127 0.36758
 C770 C 0.80504 0.94052 0.34688
 C771 C 0.78835 0.92480 0.41207
 C772 C 0.77837 0.91531 0.42969
 H773 H 0.85002 0.96876 0.37477
 H774 H 0.82777 0.95244 0.41125
 H775 H 0.77650 0.92059 0.36545
 H776 H 0.79875 0.93690 0.32897
 C777 C 0.85526 0.00095 1.22427
 C778 C 0.84666 0.00808 1.20531
 C779 C 0.83625 0.01682 1.18282
 C780 C 0.81163 0.01331 1.17875
 C781 C 0.80129 0.02254 1.15726
 C782 C 0.81553 0.03529 1.13973
 C783 C 0.84021 0.03858 1.14368
 C784 C 0.85055 0.02936 1.16517
 C785 C 0.80459 0.04589 1.11820
 C786 C 0.79535 0.05533 1.10047
 H787 H 0.80039 0.00369 1.19230
 H788 H 0.78216 0.01999 1.15445
 H789 H 0.85136 0.04852 1.13030
 H790 H 0.86960 0.03222 1.16815
 C791 C 0.35417 0.50189 0.72376
 C792 C 0.34547 0.50912 0.70488
 C793 C 0.33492 0.51794 0.68249
 C794 C 0.31045 0.51384 0.67828
 C795 C 0.29996 0.52311 0.65688
 C796 C 0.31390 0.53650 0.63959
 C797 C 0.33844 0.54039 0.64370
 C798 C 0.34893 0.53113 0.66510
 C799 C 0.30279 0.54710 0.61816
 C800 C 0.29343 0.55654 0.60050
 H801 H 0.29944 0.50372 0.69163
 H802 H 0.28094 0.52010 0.65394
 H803 H 0.34935 0.55082 0.63051
 H804 H 0.36785 0.53444 0.66820
 C805 C 0.15284 0.51252 0.31005
 C806 C 0.16377 0.51728 0.32777
 C807 C 0.17612 0.52356 0.34915
 C808 C 0.16641 0.51706 0.37234
 C809 C 0.17725 0.52481 0.39317
 C810 C 0.19787 0.53908 0.39089
 C811 C 0.20788 0.54515 0.36771
 C812 C 0.19703 0.53740 0.34688
 C813 C 0.20764 0.54904 0.41213
 C814 C 0.21536 0.55837 0.42962
 H815 H 0.15016 0.50648 0.37429
 H816 H 0.16925 0.52018 0.41099
 H817 H 0.22370 0.55634 0.36573
 H818 H 0.20460 0.54264 0.32903
 C819 C 0.65353 0.01155 0.81047
 C820 C 0.66467 0.01620 0.82809
 C821 C 0.67726 0.02234 0.84936
 C822 C 0.69816 0.03619 0.84694
 C823 C 0.70924 0.04383 0.86769
 C824 C 0.69948 0.03763 0.89094
 C825 C 0.67889 0.02333 0.89337
 C826 C 0.66781 0.01569 0.87262
 C827 C 0.70945 0.04752 0.91211
 C828 C 0.71731 0.05683 0.92955
 H829 H 0.70553 0.04155 0.82905
 H830 H 0.72503 0.05505 0.86560
 H831 H 0.67108 0.01860 0.91125
 H832 H 0.65158 0.00510 0.87469
 C833 C 0.65101 0.98272 0.72577
 C834 C 0.65901 0.97345 0.70748
 C835 C 0.66812 0.96188 0.68576
 C836 C 0.67544 0.93717 0.68688
 C837 C 0.68355 0.92559 0.66571
 C838 C 0.68437 0.93867 0.64330
 C839 C 0.67720 0.96343 0.64218
 C840 C 0.66908 0.97502 0.66338
 C841 C 0.69227 0.92649 0.62152
 C842 C 0.69884 0.91583 0.60353
 H843 H 0.67469 0.92681 0.70407
 H844 H 0.68902 0.90643 0.66678
 H845 H 0.67774 0.97370 0.62495
 H846 H 0.66338 0.99411 0.66230
 C847 C 0.15115 0.48353 0.22535
 C848 C 0.15928 0.47457 0.20696
 C849 C 0.16847 0.46345 0.18502
 C850 C 0.18640 0.44467 0.18623
 C851 C 0.19453 0.43309 0.16505
 C852 C 0.18475 0.44023 0.14258
 C853 C 0.16698 0.45917 0.14133
 C854 C 0.15885 0.47075 0.16252
 C855 C 0.19251 0.42768 0.12098
 C856 C 0.19894 0.41681 0.10307
 H857 H 0.19388 0.43881 0.20355
 H858 H 0.20823 0.41842 0.16623
 H859 H 0.15925 0.46479 0.12407
 H860 H 0.14489 0.48518 0.16140
 C861 C -0.19033 0.35068 0.47090
 C862 C -0.17255 0.33889 0.46423
 C863 C -0.15123 0.32524 0.45584
 C864 C -0.15365 0.30403 0.44292
 C865 C -0.13293 0.29145 0.43370
 C866 C -0.10970 0.30002 0.43738
 C867 C -0.10727 0.32105 0.45057
 C868 C -0.12799 0.33363 0.45979
 C869 C -0.08850 0.28789 0.42667
 C870 C -0.07089 0.27799 0.41712
 H871 H -0.17154 0.29744 0.43969
 H872 H -0.13502 0.27528 0.42343
 H873 H -0.08941 0.32790 0.45341
 H874 H -0.12593 0.35006 0.46968
 C875 C 0.30798 0.85209 0.97114
 C876 C 0.32564 0.84010 0.96443
 C877 C 0.34682 0.82623 0.95603
 C878 C 0.37015 0.83375 0.96098
 C879 C 0.39078 0.82099 0.95180
 C880 C 0.38817 0.80065 0.93765
 C881 C 0.36484 0.79294 0.93296
 C882 C 0.34420 0.80571 0.94214
 C883 C 0.40934 0.78835 0.92705
 C884 C 0.42695 0.77834 0.91760
 H885 H 0.37237 0.84965 0.97163
 H886 H 0.40873 0.82717 0.95544
 H887 H 0.36261 0.77731 0.92195
 H888 H 0.32625 0.79979 0.93813
 C889 C 1.22450 0.85753 0.00189
 C890 C 1.20552 0.84896 0.00898
 C891 C 1.18302 0.83852 0.01763
 C892 C 1.17888 0.81397 0.01383
 C893 C 1.15738 0.80358 0.02295
 C894 C 1.13992 0.81769 0.03588
 C895 C 1.14395 0.84232 0.03946
 C896 C 1.16545 0.85271 0.03035
 C897 C 1.11839 0.80668 0.04635
 C898 C 1.10066 0.79735 0.05567
 H899 H 1.19236 0.80282 0.00406
 H900 H 1.15451 0.78449 0.02017
 H901 H 1.13062 0.85337 0.04954
 H902 H 1.16849 0.87170 0.03343
 C903 C 0.72368 0.35427 0.50247
 C904 C 0.70479 0.34552 0.50957
 C905 C 0.68239 0.33491 0.51824
 C906 C 0.67924 0.30988 0.51622
 C907 C 0.65781 0.29939 0.52537
 C908 C 0.63942 0.31388 0.53655
 C909 C 0.64247 0.33895 0.53835
 C910 C 0.66390 0.34944 0.52921
 C911 C 0.61794 0.30286 0.54709
 C912 C 0.60024 0.29354 0.55650
 H913 H 0.69344 0.29846 0.50781
 H914 H 0.65570 0.27997 0.52398
 H915 H 0.62842 0.35030 0.54707
 H916 H 0.66617 0.36880 0.53090
 C917 C 0.31045 0.15197 0.51183
 C918 C 0.32813 0.16295 0.51662
 C919 C 0.34944 0.17538 0.52296
 C920 C 0.37269 0.16557 0.51687
 C921 C 0.39343 0.17654 0.52468
 C922 C 0.39101 0.19739 0.53858
 C923 C 0.36778 0.20749 0.54423
 C924 C 0.34704 0.19652 0.53643
 C925 C 0.41214 0.20732 0.54861
 C926 C 0.42955 0.21517 0.55799
 H927 H 0.37475 0.14915 0.50657
 H928 H 0.41129 0.16847 0.52037
 H929 H 0.36569 0.22349 0.55514
 H930 H 0.32915 0.20417 0.54135
 C931 C 0.81053 0.65590 0.01061
 C932 C 0.82813 0.66701 0.01538
 C933 C 0.84940 0.67954 0.02167
 C934 C 0.84699 0.70020 0.03584
 C935 C 0.86775 0.71119 0.04358
 C936 C 0.89100 0.70157 0.03718
 C937 C 0.89340 0.68123 0.02257
 C938 C 0.87264 0.67024 0.01482
 C939 C 0.91220 0.71143 0.04715
 C940 C 0.92967 0.71919 0.05650
 H941 H 0.82911 0.70745 0.04135
 H942 H 0.86568 0.72680 0.05504
 H943 H 0.91128 0.67352 0.01768
 H944 H 0.87471 0.65419 0.00398
 C945 C 0.72557 0.65331 0.98232
 C946 C 0.70686 0.66128 0.97382
 C947 C 0.68454 0.67026 0.96326
 C948 C 0.66252 0.65932 0.96997
 C949 C 0.64100 0.66727 0.95886
 C950 C 0.64141 0.68618 0.94100
 C951 C 0.66338 0.69727 0.93448
 C952 C 0.68490 0.68933 0.94558
 C953 C 0.61950 0.69372 0.92881
 C954 C 0.60138 0.69999 0.91818
 H955 H 0.66206 0.64449 0.98355
 H956 H 0.62413 0.65852 0.96399
 H957 H 0.66391 0.71186 0.92063
 H958 H 0.70183 0.69784 0.94018
 C959 C 0.22558 0.15046 0.48323
 C960 C 0.20714 0.15872 0.47441
 C961 C 0.18516 0.16809 0.46345
 C962 C 0.18625 0.18663 0.44524
 C963 C 0.16504 0.19497 0.43380
 C964 C 0.14266 0.18480 0.44050
 C965 C 0.14152 0.16642 0.45888
 C966 C 0.16273 0.15807 0.47033
 C967 C 0.12103 0.19278 0.42805
 C968 C 0.10311 0.19939 0.41725
 H969 H 0.20351 0.19442 0.43971
 H970 H 0.16614 0.20914 0.41956
 H971 H 0.12432 0.15838 0.46416
 H972 H 0.16170 0.14365 0.48432
 C973 C 0.59888 0.04053 0.74731
 C974 C 0.58937 0.05732 0.73600
 C975 C 0.57875 0.07798 0.72281
 C976 C 0.58156 0.07997 0.69738
 C977 C 0.57256 0.10080 0.68473
 C978 C 0.56076 0.11973 0.69746
 C979 C 0.55768 0.11761 0.72287
 C980 C 0.56667 0.09678 0.73552
 C981 C 0.55244 0.14158 0.68451
 C982 C 0.54579 0.15988 0.67346
 H983 H 0.59099 0.06562 0.68738
 H984 H 0.57509 0.10228 0.66508
 H985 H 0.54863 0.13215 0.73290
 H986 H 0.56453 0.09549 0.75520
 C987 C 1.09789 0.54367 0.24596
 C988 C 1.08824 0.56042 0.23472
 C989 C 1.07757 0.58107 0.22155
 C990 C 1.06620 0.60024 0.23429
 C991 C 1.05733 0.62111 0.22162
 C992 C 1.05982 0.62290 0.19616
 C993 C 1.07088 0.60359 0.18339
 C994 C 1.07975 0.58273 0.19606
 C995 C 1.05173 0.64481 0.18316
 C996 C 1.04529 0.66317 0.17208
 H997 H 1.06457 0.59922 0.25401
 H998 H 1.04887 0.63595 0.23168
 H999 H 1.07295 0.60482 0.16370
 H1000 H 1.08865 0.56809 0.18604
 C1001 C 0.91229 0.95001 0.24684
 C1002 C 0.92425 0.93509 0.23564
 C1003 C 0.93778 0.91656 0.22250
 C1004 C 0.93845 0.91735 0.19697
 C1005 C 0.94996 0.89832 0.18424
 C1006 C 0.96083 0.87842 0.19698
 C1007 C 0.96055 0.87785 0.22250
 C1008 C 0.94904 0.89688 0.23523
 C1009 C 0.97098 0.85801 0.18391
 C1010 C 0.97875 0.84075 0.17274
 H1011 H 0.92965 0.93239 0.18695
 H1012 H 0.94994 0.89888 0.16451
 H1013 H 0.96878 0.86249 0.23254
 H1014 H 0.94849 0.89601 0.25497
 C1015 C 0.41225 0.44795 0.74576
 C1016 C 0.42446 0.43298 0.73487
 C1017 C 0.43819 0.41433 0.72208
 C1018 C 0.43950 0.41506 0.69656
 C1019 C 0.45104 0.39584 0.68413
 C1020 C 0.46131 0.37582 0.69718
 C1021 C 0.46043 0.37532 0.72270
 C1022 C 0.44889 0.39454 0.73513
 C1023 C 0.47137 0.35519 0.68438
 C1024 C 0.47903 0.33774 0.67343
 H1025 H 0.43114 0.43019 0.68629
 H1026 H 0.45149 0.39635 0.66439
 H1027 H 0.46817 0.35985 0.73297
 H1028 H 0.44782 0.39370 0.75487
 C1029 C 0.41015 0.52730 0.77361
 C1030 C 0.42218 0.54504 0.77509
 C1031 C 0.43587 0.56644 0.77825
 C1032 C 0.45859 0.56428 0.78903
 C1033 C 0.47055 0.58518 0.79489
 C1034 C 0.45985 0.60833 0.79000
 C1035 C 0.43747 0.61050 0.77854
 C1036 C 0.42551 0.58959 0.77268
 C1037 C 0.47062 0.62961 0.79882
 C1038 C 0.47906 0.64719 0.80735
 H1039 H 0.46666 0.54647 0.79364
 H1040 H 0.48773 0.58328 0.80395
 H1041 H 0.42891 0.62829 0.77489
 H1042 H 0.40784 0.59147 0.76456
 C1043 C -0.08957 0.02761 0.27424
 C1044 C -0.07758 0.04540 0.27561
 C1045 C -0.06385 0.06681 0.27858
 C1046 C -0.04072 0.06461 0.28851
 C1047 C -0.02857 0.08547 0.29412
 C1048 C -0.03949 0.10863 0.28981
 C1049 C -0.06230 0.11085 0.27922
 C1050 C -0.07445 0.08998 0.27360
 C1051 C -0.02841 0.12985 0.29840
 C1052 C -0.01970 0.14738 0.30677
 H1053 H -0.03245 0.04678 0.29264
 H1054 H -0.01105 0.08353 0.30252
 H1055 H -0.07102 0.12865 0.27603
 H1056 H -0.09242 0.09190 0.26613
 C1057 C 0.09329 0.46058 0.27443
 C1058 C 0.08270 0.44173 0.27516
 C1059 C 0.07126 0.41858 0.27722
 C1060 C 0.08224 0.39839 0.26580
 C1061 C 0.07321 0.37514 0.27052
 C1062 C 0.05314 0.37201 0.28668
 C1063 C 0.04163 0.39232 0.29743
 C1064 C 0.05067 0.41556 0.29271
 C1065 C 0.04608 0.34785 0.29433
 C1066 C 0.04096 0.32775 0.30199
 H1067 H 0.09833 0.40047 0.25400
 H1068 H 0.08241 0.35954 0.26233
 H1069 H 0.02627 0.39007 0.31016
 H1070 H 0.04220 0.43100 0.30185
 C1071 C 0.59383 0.95939 0.77513
 C1072 C 0.58310 0.94063 0.77585
 C1073 C 0.57141 0.91761 0.77789
 C1074 C 0.55058 0.91491 0.79311
 C1075 C 0.54122 0.89181 0.79782
 C1076 C 0.55265 0.87131 0.78734
 C1077 C 0.57297 0.87413 0.77146
 C1078 C 0.58233 0.89724 0.76673
 C1079 C 0.54525 0.84729 0.79505
 C1080 C 0.53986 0.82729 0.80278
 H1081 H 0.54215 0.93049 0.80204
 H1082 H 0.52566 0.88981 0.81035
 H1083 H 0.58213 0.85838 0.76347
 H1084 H 0.59860 0.89908 0.75514
 C1085 C 0.74743 0.59965 0.04143
 C1086 C 0.73633 0.58966 0.05806
 C1087 C 0.72327 0.57858 0.07855
 C1088 C 0.69774 0.57952 0.07961
 C1089 C 0.68507 0.57027 0.10029
 C1090 C 0.69788 0.56007 0.12002
 C1091 C 0.72340 0.55881 0.11882
 C1092 C 0.73607 0.56806 0.09813
 C1093 C 0.68482 0.55165 0.14175
 C1094 C 0.67368 0.54497 0.15997
 H1095 H 0.68766 0.58776 0.06464
 H1096 H 0.66533 0.57140 0.10105
 H1097 H 0.73348 0.55103 0.13399
 H1098 H 0.75581 0.56739 0.09758
 C1099 C 0.24673 1.09651 0.54277
 C1100 C 0.23563 1.08660 0.55946
 C1101 C 0.22262 1.07562 0.58003
 C1102 C 0.19709 1.07660 0.58118
 C1103 C 0.18448 1.06744 0.60194
 C1104 C 0.19734 1.05731 0.62166
 C1105 C 0.22287 1.05603 0.62038
 C1106 C 0.23548 1.06517 0.59961
 C1107 C 0.18434 1.04900 0.64346
 C1108 C 0.17321 1.04243 0.66172
 H1109 H 0.18697 1.08478 0.56622
 H1110 H 0.16475 1.06859 0.60277
 H1111 H 0.23299 1.04829 0.63554
 H1112 H 0.25522 1.06448 0.59898
 C1113 C 0.24538 0.91196 0.95068
 C1114 C 0.23409 0.92368 0.93560
 C1115 C 0.22091 0.93689 0.91685
 C1116 C 0.19547 0.93613 0.91666
 C1117 C 0.18285 0.94735 0.89737
 C1118 C 0.19561 0.95935 0.87817
 C1119 C 0.22102 0.96049 0.87858
 C1120 C 0.23364 0.94928 0.89788
 C1121 C 0.18277 0.96927 0.85749
 C1122 C 0.17182 0.97686 0.83999
 H1123 H 0.18547 0.92646 0.93115
 H1124 H 0.16322 0.94624 0.89717
 H1125 H 0.23108 0.96960 0.86377
 H1126 H 0.25333 0.94984 0.89776
 C1127 C 0.74565 0.41229 0.44848
 C1128 C 0.73476 0.42445 0.43342
 C1129 C 0.72197 0.43810 0.41469
 C1130 C 0.73502 0.44870 0.39485
 C1131 C 0.72259 0.46017 0.37556
 C1132 C 0.69707 0.46108 0.37604
 C1133 C 0.68402 0.45092 0.39611
 C1134 C 0.69645 0.43945 0.41540
 C1135 C 0.68426 0.47107 0.35536
 C1136 C 0.67331 0.47867 0.33787
 H1137 H 0.75475 0.44761 0.39404
 H1138 H 0.73285 0.46783 0.36007
 H1139 H 0.66428 0.45139 0.39660
 H1140 H 0.68619 0.43116 0.43056
 C1141 C 0.77327 0.41074 0.52779
 C1142 C 0.77467 0.42301 0.54535
 C1143 C 0.77773 0.43704 0.56652
 C1144 C 0.77244 0.42686 0.58982
 C1145 C 0.77823 0.43919 0.61051
 C1146 C 0.78934 0.46174 0.60799
 C1147 C 0.79394 0.47225 0.58470
 C1148 C 0.78815 0.45993 0.56401
 C1149 C 0.79817 0.47288 0.62905
 C1150 C 0.80676 0.48162 0.64644
 H1151 H 0.76461 0.40907 0.59197
 H1152 H 0.77481 0.43077 0.62841
 H1153 H 0.80274 0.48956 0.58253
 H1154 H 0.79254 0.46786 0.54609
 C1155 C 0.27215 -0.08994 0.02658
 C1156 C 0.27345 -0.07805 0.04443
 C1157 C 0.27641 -0.06444 0.06591
 C1158 C 0.28604 -0.04117 0.06381
 C1159 C 0.29172 -0.02914 0.08472
 C1160 C 0.28780 -0.04034 0.10781
 C1161 C 0.27750 -0.06330 0.10994
 C1162 C 0.27182 -0.07533 0.08903
 C1163 C 0.29650 -0.02936 0.12904
 C1164 C 0.30495 -0.02074 0.14656
 H1165 H 0.28988 -0.03267 0.04602
 H1166 H 0.29990 -0.01149 0.08284
 H1167 H 0.27461 -0.07224 0.12769
 H1168 H 0.26460 -0.09342 0.09086
 C1169 C 0.27460 0.09276 0.45962
 C1170 C 0.27520 0.08222 0.44077
 C1171 C 0.27708 0.07081 0.41762
 C1172 C 0.29236 0.05008 0.41458
 C1173 C 0.29686 0.04100 0.39135
 C1174 C 0.28611 0.05261 0.37107
 C1175 C 0.27016 0.07284 0.37423
 C1176 C 0.26565 0.08191 0.39746
 C1177 C 0.29353 0.04547 0.34691
 C1178 C 0.30102 0.04027 0.32681
 H1179 H 0.30150 0.04150 0.42999
 H1180 H 0.30944 0.02551 0.38908
 H1181 H 0.26196 0.08213 0.35865
 H1182 H 0.25400 0.09811 0.39956
 C1183 C 0.77561 0.59614 0.95838
 C1184 C 0.77649 0.58549 0.93959
 C1185 C 0.77871 0.57393 0.91652
 C1186 C 0.76738 0.58479 0.89618
 C1187 C 0.77223 0.57560 0.87305
 C1188 C 0.78841 0.55551 0.87017
 C1189 C 0.79908 0.54414 0.89062
 C1190 C 0.79424 0.55334 0.91376
 C1191 C 0.79611 0.54825 0.84613
 C1192 C 0.80379 0.54294 0.82611
 H1193 H 0.75555 0.60088 0.89807
 H1194 H 0.76408 0.58469 0.85734
 H1195 H 0.81182 0.52876 0.88857
 H1196 H 0.80331 0.54496 0.92931
 C1197 C 0.04038 0.74794 0.59757
 C1198 C 0.05722 0.73660 0.58823
 C1199 C 0.07793 0.72337 0.57782
 C1200 C 0.09698 0.73606 0.56613
 C1201 C 0.11783 0.72336 0.55736
 C1202 C 0.11974 0.69792 0.56028
 C1203 C 0.10056 0.68520 0.57170
 C1204 C 0.07970 0.69791 0.58047
 C1205 C 0.14159 0.68489 0.55217
 C1206 C 0.15989 0.67379 0.54568
 H1207 H 0.09586 0.75577 0.56412
 H1208 H 0.13257 0.73337 0.54860
 H1209 H 0.10186 0.66553 0.57410
 H1210 H 0.06515 0.68793 0.58962
 C1211 C 0.54258 0.24585 1.09799
 C1212 C 0.55932 0.23474 1.08823
 C1213 C 0.57996 0.22171 1.07745
 C1214 C 0.59949 0.23458 1.06692
 C1215 C 0.62033 0.22198 1.05797
 C1216 C 0.62174 0.19646 1.05955
 C1217 C 0.60208 0.18358 1.06977
 C1218 C 0.58124 0.19618 1.07872
 C1219 C 0.64361 0.18348 1.05142
 C1220 C 0.66194 0.17240 1.04497
 H1221 H 0.59876 0.25433 1.06600
 H1222 H 0.63544 0.23212 1.05017
 H1223 H 0.60301 0.16384 1.07113
 H1224 H 0.56633 0.18605 1.08697
 C1225 C 0.94868 0.24576 0.91046
 C1226 C 0.93375 0.23489 0.92278
 C1227 C 0.91522 0.22206 0.93668
 C1228 C 0.89506 0.23498 0.94676
 C1229 C 0.87603 0.22243 0.95853
 C1230 C 0.87709 0.19690 0.96027
 C1231 C 0.89748 0.18400 0.95061
 C1232 C 0.91651 0.19655 0.93883
 C1233 C 0.85668 0.18389 0.97058
 C1234 C 0.83941 0.17276 0.97842
 H1235 H 0.89381 0.25470 0.94505
 H1236 H 0.86029 0.23258 0.96580
 H1237 H 0.89842 0.16425 0.95172
 H1238 H 0.93193 0.18637 0.93096
 C1239 C 0.44853 0.74503 0.41224
 C1240 C 0.43353 0.73421 0.42451
 C1241 C 0.41483 0.72152 0.43830
 C1242 C 0.41528 0.69599 0.43951
 C1243 C 0.39599 0.68369 0.45110
 C1244 C 0.37617 0.69686 0.46152
 C1245 C 0.37596 0.72239 0.46075
 C1246 C 0.39525 0.73469 0.44917
 C1247 C 0.35544 0.68420 0.47162
 C1248 C 0.33792 0.67336 0.47929
 H1249 H 0.43024 0.68563 0.43102
 H1250 H 0.39626 0.66394 0.45146
 H1251 H 0.36066 0.73276 0.46862
 H1252 H 0.39464 0.75444 0.44819
 C1253 C 0.52786 0.77264 0.41021
 C1254 C 0.54552 0.77401 0.42238
 C1255 C 0.56680 0.77698 0.43628
 C1256 C 0.59002 0.77170 0.42597
 C1257 C 0.61082 0.77733 0.43822
 C1258 C 0.60849 0.78827 0.46084
 C1259 C 0.58528 0.79289 0.47148
 C1260 C 0.56448 0.78726 0.45922
 C1261 C 0.62967 0.79687 0.47197
 C1262 C 0.64718 0.80525 0.48071
 H1263 H 0.59203 0.76396 0.40814
 H1264 H 0.62866 0.77389 0.42971
 H1265 H 0.58325 0.80156 0.48884
 H1266 H 0.54663 0.79163 0.46727
 C1267 C 0.02789 0.27325 -0.09123
 C1268 C 0.04542 0.27461 -0.07889
 C1269 C 0.06655 0.27761 -0.06476
 C1270 C 0.08985 0.27210 -0.07475
 C1271 C 0.11053 0.27776 -0.06231
 C1272 C 0.10798 0.28894 -0.03983
 C1273 C 0.08468 0.29377 -0.02950
 C1274 C 0.06401 0.28812 -0.04194
 C1275 C 0.12907 0.29757 -0.02854
 C1276 C 0.14651 0.30596 -0.01971
 H1277 H 0.09203 0.26418 -0.09248
 H1278 H 0.12845 0.27415 -0.07058
 H1279 H 0.08249 0.30263 -0.01225
 H1280 H 0.04608 0.29266 -0.03415
 C1281 C 0.45946 0.27404 0.09373
 C1282 C 0.44063 0.27479 0.08313
 C1283 C 0.41750 0.27684 0.07166
 C1284 C 0.39736 0.26516 0.08249
 C1285 C 0.37413 0.26983 0.07343
 C1286 C 0.37095 0.28619 0.05350
 C1287 C 0.39121 0.29720 0.04214
 C1288 C 0.41444 0.29254 0.05121
 C1289 C 0.34679 0.29375 0.04643
 C1290 C 0.32669 0.30135 0.04129
 H1291 H 0.39948 0.25319 0.09847
 H1292 H 0.35857 0.26142 0.08252
 H1293 H 0.38893 0.31008 0.02689
 H1294 H 0.42983 0.30187 0.04286
 C1295 C 0.96047 0.77426 0.59422
 C1296 C 0.94133 0.77469 0.58417
 C1297 C 0.91794 0.77644 0.57319
 C1298 C 0.89767 0.76634 0.58545
 C1299 C 0.87435 0.77083 0.57654
 C1300 C 0.87121 0.78544 0.55533
 C1301 C 0.89158 0.79485 0.54262
 C1302 C 0.91490 0.79036 0.55153
 C1303 C 0.84709 0.79297 0.54813
 C1304 C 0.82704 0.80056 0.54282
 H1305 H 0.89979 0.75576 0.60234
 H1306 H 0.85872 0.76369 0.58666
 H1307 H 0.88934 0.80639 0.52636
 H1308 H 0.93040 0.79848 0.54205
   
