data_POSCAR
  _audit_creation_date              2014-09-24
  _audit_creation_method            'ToBaCCo'
  _symmetry_space_group_name_H-M    'P1'
  _symmetry_Int_Tables_number       1
  _symmetry_cell_setting            triclinic
  loop_
  _symmetry_equiv_pos_as_xyz
 x,y,z
_cell_length_a 83.9456
_cell_length_b 84.0569
_cell_length_c 84.1291
_cell_angle_alpha 89.981200
_cell_angle_beta 89.983800
_cell_angle_gamma 89.946300
loop_
  _atom_site_label
  _atom_site_type_symbol
  _atom_site_fract_x
  _atom_site_fract_y
  _atom_site_fract_z
N1 N 0.35719 0.31288 0.32435
 N2 N 0.35720 0.32422 0.31356
 C3 C 0.36951 0.32186 0.30353
 C4 C 0.37749 0.30836 0.30837
 C5 C 0.36946 0.30294 0.32158
 H6 H 0.37243 0.32931 0.29347
 H7 H 0.37230 0.29253 0.32859
 Cu8 Cu 0.34089 0.34069 0.31368
 Cu9 Cu 0.34122 0.31172 0.34110
 Cu10 Cu 0.31198 0.34101 0.34118
 N11 N 0.32457 0.35715 0.31377
 N12 N 0.31321 0.35708 0.32455
 C13 C 0.30340 0.36950 0.32199
 C14 C 0.30896 0.37772 0.30896
 C15 C 0.32236 0.36965 0.30397
 H16 H 0.29301 0.37233 0.32905
 H17 H 0.32984 0.37264 0.29394
 N18 N 0.31285 0.32374 0.35701
 N19 N 0.32401 0.31264 0.35703
 C20 C 0.32145 0.30273 0.36936
 C21 C 0.30812 0.30790 0.37735
 C22 C 0.30292 0.32119 0.36933
 H23 H 0.32874 0.29255 0.37236
 H24 H 0.29273 0.32846 0.37233
 H25 H 0.32334 0.32310 0.32867
 H26 H 0.33600 0.33571 0.34181
 N27 N 0.35743 0.81311 -0.17612
 N28 N 0.35720 0.82417 -0.18719
 C29 C 0.36951 0.82176 -0.19722
 C30 C 0.37772 0.80851 -0.19208
 C31 C 0.36983 0.80326 -0.17872
 H32 H 0.37228 0.82901 -0.20749
 H33 H 0.37286 0.79309 -0.17144
 Cu34 Cu 0.34080 0.84059 -0.18725
 Cu35 Cu 0.34153 0.81211 -0.15928
 Cu36 Cu 0.31220 0.84133 -0.15937
 N37 N 0.32433 0.85695 -0.18731
 N38 N 0.31320 0.85719 -0.17629
 C39 C 0.30335 0.86956 -0.17896
 C40 C 0.30865 0.87744 -0.19232
 C41 C 0.32196 0.86924 -0.19737
 H42 H 0.29314 0.87260 -0.17173
 H43 H 0.32928 0.87199 -0.20760
 N44 N 0.31325 0.82425 -0.14326
 N45 N 0.32441 0.81314 -0.14324
 C46 C 0.32186 0.80323 -0.13090
 C47 C 0.30853 0.80838 -0.12288
 C48 C 0.30333 0.82169 -0.13092
 H49 H 0.32912 0.79302 -0.12794
 H50 H 0.29309 0.82891 -0.12797
 H51 H 0.32346 0.82325 -0.17166
 H52 H 0.33626 0.83611 -0.15891
 N53 N 0.85675 0.31334 -0.17591
 N54 N 0.85660 0.32446 -0.18692
 C55 C 0.86891 0.32205 -0.19693
 C56 C 0.87705 0.30874 -0.19186
 C57 C 0.86912 0.30347 -0.17854
 H58 H 0.87173 0.32935 -0.20713
 H59 H 0.87210 0.29324 -0.17133
 Cu60 Cu 0.84022 0.34084 -0.18712
 Cu61 Cu 0.84085 0.31237 -0.15909
 Cu62 Cu 0.81167 0.34170 -0.15913
 N63 N 0.82395 0.35735 -0.18694
 N64 N 0.81278 0.35757 -0.17596
 C65 C 0.80302 0.37003 -0.17857
 C66 C 0.80845 0.37795 -0.19185
 C67 C 0.82170 0.36970 -0.19692
 H68 H 0.79278 0.37308 -0.17138
 H69 H 0.82908 0.37247 -0.20709
 N70 N 0.81261 0.32459 -0.14311
 N71 N 0.82373 0.31344 -0.14309
 C72 C 0.82113 0.30352 -0.13078
 C73 C 0.80780 0.30872 -0.12278
 C74 C 0.80266 0.32204 -0.13080
 H75 H 0.82834 0.29328 -0.12783
 H76 H 0.79243 0.32930 -0.12786
 H77 H 0.82283 0.32362 -0.17147
 H78 H 0.83573 0.33644 -0.15878
 N79 N 0.85672 0.81328 0.32418
 N80 N 0.85657 0.82441 0.31318
 C81 C 0.86882 0.82194 0.30311
 C82 C 0.87700 0.80866 0.30818
 C83 C 0.86909 0.80342 0.32155
 H84 H 0.87161 0.82923 0.29287
 H85 H 0.87208 0.79321 0.32876
 Cu86 Cu 0.84028 0.84095 0.31298
 Cu87 Cu 0.84086 0.81237 0.34100
 Cu88 Cu 0.81168 0.84160 0.34100
 N89 N 0.82378 0.85728 0.31319
 N90 N 0.81262 0.85745 0.32418
 C91 C 0.80277 0.86983 0.32153
 C92 C 0.80808 0.87770 0.30818
 C93 C 0.82137 0.86951 0.30311
 H94 H 0.79253 0.87283 0.32874
 H95 H 0.82869 0.87227 0.29288
 N96 N 0.81269 0.82456 0.35705
 N97 N 0.82381 0.81342 0.35704
 C98 C 0.82126 0.80352 0.36938
 C99 C 0.80795 0.80871 0.37741
 C100 C 0.80278 0.82203 0.36940
 H101 H 0.82848 0.79328 0.37232
 H102 H 0.79256 0.82928 0.37237
 H103 H 0.82292 0.82363 0.32841
 H104 H 0.83580 0.83646 0.34122
 N105 N 0.64306 0.68716 0.32432
 N106 N 0.64320 0.67599 0.31338
 C107 C 0.63085 0.67833 0.30341
 C108 C 0.62270 0.69165 0.30842
 C109 C 0.63068 0.69702 0.32167
 H110 H 0.62798 0.67096 0.29329
 H111 H 0.62776 0.70734 0.32880
 Cu112 Cu 0.65946 0.65949 0.31310
 Cu113 Cu 0.65892 0.68813 0.34112
 Cu114 Cu 0.68815 0.65891 0.34109
 N115 N 0.67599 0.64323 0.31334
 N116 N 0.68718 0.64308 0.32428
 C117 C 0.69705 0.63072 0.32161
 C118 C 0.69167 0.62277 0.30835
 C119 C 0.67833 0.63092 0.30336
 H120 H 0.70738 0.62779 0.32872
 H121 H 0.67094 0.62807 0.29324
 N122 N 0.68714 0.67596 0.35712
 N123 N 0.67602 0.68709 0.35712
 C124 C 0.67853 0.69695 0.36949
 C125 C 0.69182 0.69173 0.37754
 C126 C 0.69702 0.67846 0.36949
 H127 H 0.67127 0.70716 0.37246
 H128 H 0.70723 0.67119 0.37246
 H129 H 0.67695 0.67696 0.32844
 H130 H 0.66406 0.66409 0.34129
 N131 N 0.64316 0.18677 -0.17600
 N132 N 0.64335 0.17563 -0.18700
 C133 C 0.63106 0.17803 -0.19703
 C134 C 0.62283 0.19129 -0.19194
 C135 C 0.63075 0.19657 -0.17861
 H136 H 0.62828 0.17074 -0.20724
 H137 H 0.62770 0.20677 -0.17138
 Cu138 Cu 0.65983 0.15932 -0.18704
 Cu139 Cu 0.65903 0.18778 -0.15912
 Cu140 Cu 0.68835 0.15856 -0.15917
 N141 N 0.67620 0.14289 -0.18706
 N142 N 0.68738 0.14272 -0.17608
 C143 C 0.69723 0.13034 -0.17873
 C144 C 0.69192 0.12246 -0.19208
 C145 C 0.67861 0.13065 -0.19713
 H146 H 0.70745 0.12731 -0.17151
 H147 H 0.67127 0.12788 -0.20733
 N148 N 0.68728 0.17563 -0.14308
 N149 N 0.67613 0.18674 -0.14307
 C150 C 0.67864 0.19662 -0.13071
 C151 C 0.69195 0.19145 -0.12267
 C152 C 0.69717 0.17816 -0.13071
 H153 H 0.67137 0.20683 -0.12775
 H154 H 0.70740 0.17093 -0.12774
 H155 H 0.67709 0.17662 -0.17149
 H156 H 0.66428 0.16378 -0.15872
 N157 N 0.14308 0.68706 -0.17579
 N158 N 0.14326 0.67595 -0.18680
 C159 C 0.13094 0.67833 -0.19679
 C160 C 0.12275 0.69160 -0.19171
 C161 C 0.13068 0.69688 -0.17839
 H162 H 0.12812 0.67103 -0.20700
 H163 H 0.12767 0.70710 -0.17119
 Cu164 Cu 0.15966 0.65960 -0.18703
 Cu165 Cu 0.15896 0.68805 -0.15897
 Cu166 Cu 0.18813 0.65871 -0.15897
 N167 N 0.17590 0.64309 -0.18678
 N168 N 0.18703 0.64285 -0.17577
 C169 C 0.19679 0.63040 -0.17837
 C170 C 0.19145 0.62252 -0.19169
 C171 C 0.17822 0.63078 -0.19678
 H172 H 0.20703 0.62736 -0.17119
 H173 H 0.17092 0.62804 -0.20701
 N174 N 0.18719 0.67582 -0.14297
 N175 N 0.17608 0.68697 -0.14297
 C176 C 0.17865 0.69686 -0.13062
 C177 C 0.19195 0.69162 -0.12260
 C178 C 0.19710 0.67831 -0.13063
 H179 H 0.17143 0.70709 -0.12766
 H180 H 0.20730 0.67103 -0.12767
 H181 H 0.17699 0.67681 -0.17136
 H182 H 0.16405 0.66397 -0.15869
 N183 N 0.14299 0.18704 0.32418
 N184 N 0.14320 0.17596 0.31314
 C185 C 0.13089 0.17833 0.30313
 C186 C 0.12266 0.19157 0.30824
 C187 C 0.13056 0.19684 0.32158
 H188 H 0.12812 0.17106 0.29290
 H189 H 0.12750 0.20703 0.32882
 Cu190 Cu 0.15965 0.15965 0.31284
 Cu191 Cu 0.15885 0.18803 0.34100
 Cu192 Cu 0.18807 0.15876 0.34098
 N193 N 0.17591 0.14315 0.31314
 N194 N 0.18702 0.14292 0.32417
 C195 C 0.19680 0.13048 0.32157
 C196 C 0.19148 0.12260 0.30824
 C197 C 0.17825 0.13085 0.30314
 H198 H 0.20702 0.12742 0.32878
 H199 H 0.17096 0.12812 0.29290
 N200 N 0.18709 0.17584 0.35700
 N201 N 0.17596 0.18697 0.35702
 C202 C 0.17850 0.19683 0.36939
 C203 C 0.19180 0.19161 0.37741
 C204 C 0.19699 0.17833 0.36936
 H205 H 0.17125 0.20705 0.37236
 H206 H 0.20721 0.17107 0.37231
 H207 H 0.17692 0.17687 0.32861
 H208 H 0.16398 0.16397 0.34122
 N209 N 0.64290 0.31306 0.67597
 N210 N 0.64286 0.32443 0.68673
 C211 C 0.63056 0.32208 0.69677
 C212 C 0.62261 0.30856 0.69196
 C213 C 0.63066 0.30312 0.67878
 H214 H 0.62762 0.32954 0.70682
 H215 H 0.62784 0.29270 0.67178
 Cu216 Cu 0.65921 0.34082 0.68655
 Cu217 Cu 0.65883 0.31191 0.65915
 Cu218 Cu 0.68815 0.34110 0.65911
 N219 N 0.67567 0.35711 0.68669
 N220 N 0.68705 0.35704 0.67593
 C221 C 0.69702 0.36926 0.67870
 C222 C 0.69156 0.37733 0.69188
 C223 C 0.67803 0.36940 0.69670
 H224 H 0.70745 0.37206 0.67170
 H225 H 0.67055 0.37236 0.70675
 N226 N 0.68713 0.32394 0.64313
 N227 N 0.67597 0.31285 0.64315
 C228 C 0.67847 0.30296 0.63079
 C229 C 0.69176 0.30811 0.62272
 C230 C 0.69700 0.32138 0.63075
 H231 H 0.67118 0.29279 0.62782
 H232 H 0.70721 0.32861 0.62775
 H233 H 0.67678 0.32323 0.67157
 H234 H 0.66415 0.33587 0.65842
 N235 N 0.64290 0.81325 1.17596
 N236 N 0.64308 0.82439 1.18694
 C237 C 0.63077 0.82206 1.19696
 C238 C 0.62257 0.80880 1.19191
 C239 C 0.63049 0.80346 1.17860
 H240 H 0.62798 0.82939 1.20715
 H241 H 0.62748 0.79323 1.17141
 Cu242 Cu 0.65953 0.84067 1.18712
 Cu243 Cu 0.65877 0.81218 1.15912
 Cu244 Cu 0.68803 0.84135 1.15907
 N245 N 0.67583 0.85709 1.18685
 N246 N 0.68699 0.85724 1.17586
 C247 C 0.69680 0.86963 1.17846
 C248 C 0.69144 0.87758 1.19174
 C249 C 0.67817 0.86940 1.19683
 H250 H 0.70706 0.87261 1.17127
 H251 H 0.67085 0.87220 1.20703
 N252 N 0.68701 0.82425 1.14308
 N253 N 0.67587 0.81315 1.14309
 C254 C 0.67839 0.80325 1.13075
 C255 C 0.69170 0.80841 1.12270
 C256 C 0.69692 0.82168 1.13073
 H257 H 0.67113 0.79305 1.12780
 H258 H 0.70715 0.82890 1.12776
 H259 H 0.67683 0.82334 1.17148
 H260 H 0.66395 0.83622 1.15878
 N261 N 0.14292 0.31319 1.17588
 N262 N 0.14304 0.32437 1.18682
 C263 C 0.13073 0.32202 1.19684
 C264 C 0.12261 0.30870 1.19185
 C265 C 0.13055 0.30335 1.17856
 H266 H 0.12788 0.32939 1.20699
 H267 H 0.12759 0.29309 1.17140
 Cu268 Cu 0.15935 0.34077 1.18688
 Cu269 Cu 0.15879 0.31216 1.15903
 Cu270 Cu 0.18797 0.34142 1.15900
 N271 N 0.17573 0.35709 1.18679
 N272 N 0.18691 0.35724 1.17582
 C273 C 0.19673 0.36960 1.17846
 C274 C 0.19139 0.37753 1.19174
 C275 C 0.17807 0.36940 1.19679
 H276 H 0.20699 0.37258 1.17127
 H277 H 0.17070 0.37225 1.20694
 N278 N 0.18700 0.32436 1.14299
 N279 N 0.17590 0.31321 1.14300
 C280 C 0.17848 0.30333 1.13065
 C281 C 0.19177 0.30855 1.12262
 C282 C 0.19692 0.32185 1.13064
 H283 H 0.17127 0.29310 1.12770
 H284 H 0.20712 0.32911 1.12767
 H285 H 0.17679 0.32340 1.17143
 H286 H 0.16393 0.33619 1.15859
 N287 N 0.14303 0.81318 0.67582
 N288 N 0.14317 0.82435 0.68677
 C289 C 0.13089 0.82197 0.69682
 C290 C 0.12276 0.80866 0.69183
 C291 C 0.13069 0.80333 0.67852
 H292 H 0.12804 0.82933 0.70698
 H293 H 0.12768 0.79312 0.67131
 Cu294 Cu 0.15935 0.84087 0.68675
 Cu295 Cu 0.15884 0.81222 0.65891
 Cu296 Cu 0.18806 0.84143 0.65893
 N297 N 0.17587 0.85705 0.68678
 N298 N 0.18707 0.85720 0.67583
 C299 C 0.19691 0.86953 0.67851
 C300 C 0.19155 0.87746 0.69180
 C301 C 0.17823 0.86932 0.69681
 H302 H 0.20714 0.87256 0.67130
 H303 H 0.17085 0.87216 0.70697
 N304 N 0.18702 0.82444 0.64283
 N305 N 0.17590 0.81332 0.64282
 C306 C 0.17841 0.80350 0.63042
 C307 C 0.19169 0.80873 0.62236
 C308 C 0.19689 0.82198 0.63044
 H309 H 0.17117 0.79329 0.62744
 H310 H 0.20709 0.82924 0.62748
 H311 H 0.17678 0.82343 0.67140
 H312 H 0.16399 0.83621 0.65849
 N313 N 0.35698 0.68706 0.67584
 N314 N 0.35680 0.67594 0.68686
 C315 C 0.36912 0.67831 0.69685
 C316 C 0.37732 0.69157 0.69176
 C317 C 0.36939 0.69686 0.67844
 H318 H 0.37191 0.67100 0.70706
 H319 H 0.37239 0.70707 0.67121
 Cu320 Cu 0.34035 0.65962 0.68707
 Cu321 Cu 0.34109 0.68805 0.65902
 Cu322 Cu 0.31187 0.65881 0.65905
 N323 N 0.32402 0.64318 0.68692
 N324 N 0.31289 0.64297 0.67591
 C325 C 0.30308 0.63058 0.67856
 C326 C 0.30838 0.62269 0.69191
 C327 C 0.32167 0.63090 0.69696
 H328 H 0.29286 0.62755 0.67135
 H329 H 0.32900 0.62814 0.70716
 N330 N 0.31287 0.67589 0.64299
 N331 N 0.32398 0.68703 0.64300
 C332 C 0.32139 0.69695 0.63068
 C333 C 0.30809 0.69177 0.62265
 C334 C 0.30294 0.67845 0.63066
 H335 H 0.32861 0.70718 0.62773
 H336 H 0.29272 0.67121 0.62771
 H337 H 0.32302 0.67688 0.67137
 H338 H 0.33593 0.66401 0.65871
 N339 N 0.35727 0.18670 1.17569
 N340 N 0.35732 0.17534 1.18646
 C341 C 0.36963 0.17769 1.19648
 C342 C 0.37757 0.19120 1.19165
 C343 C 0.36950 0.19665 1.17847
 H344 H 0.37258 0.17024 1.20653
 H345 H 0.37230 0.20708 1.17147
 Cu346 Cu 0.34100 0.15895 1.18638
 Cu347 Cu 0.34127 0.18786 1.15893
 Cu348 Cu 0.31204 0.15859 1.15897
 N349 N 0.32461 0.14262 1.18649
 N350 N 0.31323 0.14267 1.17573
 C351 C 0.30327 0.13044 1.17851
 C352 C 0.30875 0.12238 1.19167
 C353 C 0.32227 0.13032 1.19650
 H354 H 0.29283 0.12764 1.17152
 H355 H 0.32974 0.12737 1.20655
 N356 N 0.31295 0.17574 1.14303
 N357 N 0.32406 0.18688 1.14301
 C358 C 0.32146 0.19678 1.13068
 C359 C 0.30815 0.19157 1.12269
 C360 C 0.30301 0.17827 1.13071
 H361 H 0.32869 0.20699 1.12769
 H362 H 0.29282 0.17099 1.12775
 H363 H 0.32340 0.17650 1.17142
 H364 H 0.33605 0.16388 1.15824
 N365 N 0.85717 0.68686 1.17582
 N366 N 0.85723 0.67550 1.18660
 C367 C 0.86953 0.67786 1.19661
 C368 C 0.87747 0.69135 1.19176
 C369 C 0.86941 0.69680 1.17858
 H370 H 0.87248 0.67040 1.20666
 H371 H 0.87220 0.70722 1.17158
 Cu372 Cu 0.84093 0.65908 1.18647
 Cu373 Cu 0.84118 0.68801 1.15909
 Cu374 Cu 0.81193 0.65875 1.15913
 N375 N 0.82455 0.64276 1.18663
 N376 N 0.81316 0.64279 1.17588
 C377 C 0.80326 0.63051 1.17864
 C378 C 0.80878 0.62245 1.19178
 C379 C 0.82227 0.63043 1.19661
 H380 H 0.79283 0.62769 1.17165
 H381 H 0.82977 0.62748 1.20665
 N382 N 0.81282 0.67595 1.14321
 N383 N 0.82395 0.68706 1.14319
 C384 C 0.82137 0.69698 1.13086
 C385 C 0.80803 0.69181 1.12288
 C386 C 0.80287 0.67851 1.13090
 H387 H 0.82863 0.70717 1.12786
 H388 H 0.79267 0.67125 1.12794
 H389 H 0.82330 0.67661 1.17156
 H390 H 0.83592 0.66402 1.15838
 N391 N 0.85695 0.18698 0.67578
 N392 N 0.85685 0.17578 0.68672
 C393 C 0.86914 0.17817 0.69675
 C394 C 0.87723 0.19153 0.69175
 C395 C 0.86928 0.19685 0.67845
 H396 H 0.87198 0.17084 0.70692
 H397 H 0.87225 0.20710 0.67127
 Cu398 Cu 0.84050 0.15942 0.68681
 Cu399 Cu 0.84108 0.18798 0.65894
 Cu400 Cu 0.81187 0.15872 0.65897
 N401 N 0.82421 0.14300 0.68673
 N402 N 0.81299 0.14287 0.67581
 C403 C 0.80317 0.13050 0.67847
 C404 C 0.80858 0.12255 0.69173
 C405 C 0.82191 0.13069 0.69672
 H406 H 0.79291 0.12750 0.67131
 H407 H 0.82929 0.12786 0.70688
 N408 N 0.81284 0.17581 0.64295
 N409 N 0.82397 0.18693 0.64293
 C410 C 0.82140 0.19681 0.63057
 C411 C 0.80810 0.19161 0.62257
 C412 C 0.80292 0.17833 0.63062
 H413 H 0.82864 0.20702 0.62759
 H414 H 0.79270 0.17109 0.62767
 H415 H 0.82304 0.17677 0.67136
 H416 H 0.83587 0.16398 0.65854
 N417 N 0.31283 0.35706 0.67574
 N418 N 0.32398 0.35686 0.68673
 C419 C 0.32158 0.36912 0.69678
 C420 C 0.30828 0.37730 0.69173
 C421 C 0.30299 0.36943 0.67839
 H422 H 0.32887 0.37187 0.70702
 H423 H 0.29276 0.37245 0.67118
 Cu424 Cu 0.34033 0.34044 0.68675
 Cu425 Cu 0.31179 0.34120 0.65888
 Cu426 Cu 0.34106 0.31193 0.65889
 N427 N 0.35672 0.32407 0.68677
 N428 N 0.35691 0.31294 0.67576
 C429 C 0.36928 0.30309 0.67841
 C430 C 0.37716 0.30835 0.69177
 C431 C 0.36898 0.32164 0.69683
 H432 H 0.37231 0.29289 0.67119
 H433 H 0.37175 0.32892 0.70706
 N434 N 0.32397 0.31299 0.64286
 N435 N 0.31284 0.32412 0.64285
 C436 C 0.30292 0.32158 0.63051
 C437 C 0.30810 0.30826 0.62252
 C438 C 0.32141 0.30307 0.63054
 H439 H 0.29269 0.32882 0.62755
 H440 H 0.32864 0.29284 0.62760
 H441 H 0.32299 0.32314 0.67124
 H442 H 0.33585 0.33595 0.65846
 N443 N 0.31303 0.85728 0.17559
 N444 N 0.32417 0.85707 0.18658
 C445 C 0.32181 0.86935 0.19662
 C446 C 0.30852 0.87755 0.19156
 C447 C 0.30322 0.86968 0.17822
 H448 H 0.32911 0.87212 0.20683
 H449 H 0.29299 0.87271 0.17101
 Cu450 Cu 0.34056 0.84069 0.18659
 Cu451 Cu 0.31199 0.84144 0.15872
 Cu452 Cu 0.34123 0.81215 0.15873
 N453 N 0.35689 0.82426 0.18661
 N454 N 0.35708 0.81314 0.17560
 C455 C 0.36946 0.80330 0.17824
 C456 C 0.37735 0.80856 0.19159
 C457 C 0.36917 0.82185 0.19665
 H458 H 0.37248 0.79309 0.17101
 H459 H 0.37196 0.82913 0.20687
 N460 N 0.32414 0.81322 0.14270
 N461 N 0.31302 0.82436 0.14269
 C462 C 0.30309 0.82181 0.13036
 C463 C 0.30826 0.80849 0.12237
 C464 C 0.32157 0.80330 0.13038
 H465 H 0.29286 0.82905 0.12741
 H466 H 0.32879 0.79306 0.12745
 H467 H 0.32319 0.82339 0.17107
 H468 H 0.33605 0.83619 0.15828
 N469 N 0.81303 0.35724 0.17563
 N470 N 0.82419 0.35703 0.18660
 C471 C 0.82192 0.36937 0.19657
 C472 C 0.80867 0.37761 0.19152
 C473 C 0.80327 0.36968 0.17825
 H474 H 0.82928 0.37214 0.20675
 H475 H 0.79305 0.37277 0.17104
 Cu476 Cu 0.84045 0.34056 0.18684
 Cu477 Cu 0.81196 0.34136 0.15883
 Cu478 Cu 0.84118 0.31205 0.15886
 N479 N 0.85683 0.32421 0.18668
 N480 N 0.85703 0.31307 0.17570
 C481 C 0.86943 0.30325 0.17837
 C482 C 0.87732 0.30859 0.19168
 C483 C 0.86912 0.32187 0.19671
 H484 H 0.87251 0.29305 0.17116
 H485 H 0.87191 0.32921 0.20688
 N486 N 0.82406 0.31310 0.14284
 N487 N 0.81294 0.32424 0.14284
 C488 C 0.80300 0.32170 0.13053
 C489 C 0.80816 0.30838 0.12252
 C490 C 0.82148 0.30318 0.13054
 H491 H 0.79278 0.32895 0.12758
 H492 H 0.82870 0.29294 0.12760
 H493 H 0.82315 0.32328 0.17119
 H494 H 0.83604 0.33610 0.15848
 N495 N 0.81309 0.85736 0.67574
 N496 N 0.82426 0.85714 0.68671
 C497 C 0.82195 0.86944 0.69673
 C498 C 0.80867 0.87767 0.69170
 C499 C 0.80330 0.86978 0.67840
 H500 H 0.82932 0.87220 0.70689
 H501 H 0.79305 0.87283 0.67123
 Cu502 Cu 0.84065 0.84076 0.68678
 Cu503 Cu 0.81202 0.84150 0.65890
 Cu504 Cu 0.84122 0.81218 0.65887
 N505 N 0.85694 0.82429 0.68667
 N506 N 0.85709 0.81315 0.67568
 C507 C 0.86947 0.80330 0.67831
 C508 C 0.87740 0.80859 0.69162
 C509 C 0.86924 0.82189 0.69668
 H510 H 0.87247 0.79306 0.67111
 H511 H 0.87206 0.82921 0.70686
 N512 N 0.82411 0.81325 0.64287
 N513 N 0.81300 0.82441 0.64287
 C514 C 0.80307 0.82187 0.63054
 C515 C 0.80822 0.80855 0.62254
 C516 C 0.82153 0.80334 0.63055
 H517 H 0.79285 0.82914 0.62758
 H518 H 0.82875 0.79310 0.62761
 H519 H 0.82322 0.82343 0.67126
 H520 H 0.83604 0.83618 0.65845
 N521 N 0.68699 0.64276 0.67585
 N522 N 0.67588 0.64298 0.68690
 C523 C 0.67822 0.63066 0.69686
 C524 C 0.69143 0.62239 0.69173
 C525 C 0.69676 0.63031 0.67842
 H526 H 0.67094 0.62791 0.70711
 H527 H 0.70695 0.62725 0.67117
 Cu528 Cu 0.65964 0.65952 0.68727
 Cu529 Cu 0.68804 0.65866 0.65906
 Cu530 Cu 0.65885 0.68794 0.65909
 N531 N 0.64313 0.67579 0.68692
 N532 N 0.64295 0.68691 0.67589
 C533 C 0.63051 0.69669 0.67847
 C534 C 0.62255 0.69137 0.69177
 C535 C 0.63078 0.67814 0.69689
 H536 H 0.62746 0.70689 0.67123
 H537 H 0.62800 0.67086 0.70712
 N538 N 0.67598 0.68693 0.64307
 N539 N 0.68709 0.67577 0.64305
 C540 C 0.69700 0.67830 0.63070
 C541 C 0.69184 0.69161 0.62268
 C542 C 0.67855 0.69683 0.63074
 H543 H 0.70720 0.67102 0.62772
 H544 H 0.67132 0.70707 0.62779
 H545 H 0.67690 0.67673 0.67146
 H546 H 0.66394 0.66387 0.65886
 N547 N 0.68714 0.14259 0.17571
 N548 N 0.67594 0.14276 0.18665
 C549 C 0.67829 0.13049 0.19670
 C550 C 0.69162 0.12233 0.19171
 C551 C 0.69698 0.13022 0.17840
 H552 H 0.67089 0.12767 0.20684
 H553 H 0.70725 0.12719 0.17125
 Cu554 Cu 0.65940 0.15898 0.18659
 Cu555 Cu 0.68820 0.15838 0.15882
 Cu556 Cu 0.65903 0.18770 0.15879
 N557 N 0.64326 0.17559 0.18658
 N558 N 0.64316 0.18677 0.17563
 C559 C 0.63080 0.19664 0.17826
 C560 C 0.62282 0.19133 0.19154
 C561 C 0.63094 0.17799 0.19658
 H562 H 0.62784 0.20690 0.17108
 H563 H 0.62805 0.17063 0.20672
 N564 N 0.67612 0.18660 0.14276
 N565 N 0.68722 0.17544 0.14275
 C566 C 0.69712 0.17793 0.13038
 C567 C 0.69196 0.19124 0.12236
 C568 C 0.67867 0.19648 0.13040
 H569 H 0.70731 0.17064 0.12742
 H570 H 0.67145 0.20671 0.12744
 H571 H 0.67698 0.17635 0.17128
 H572 H 0.66420 0.16367 0.15833
 N573 N 0.18707 0.64297 0.17580
 N574 N 0.17582 0.64308 0.18669
 C575 C 0.17818 0.63080 0.19673
 C576 C 0.19158 0.62271 0.19180
 C577 C 0.19696 0.63065 0.17853
 H578 H 0.17074 0.62791 0.20682
 H579 H 0.20727 0.62768 0.17141
 Cu580 Cu 0.15918 0.65922 0.18663
 Cu581 Cu 0.18806 0.65877 0.15891
 Cu582 Cu 0.15887 0.68803 0.15886
 N583 N 0.14309 0.67589 0.18664
 N584 N 0.14304 0.68712 0.17573
 C585 C 0.13074 0.69705 0.17843
 C586 C 0.12275 0.69172 0.19170
 C587 C 0.13079 0.67832 0.19666
 H588 H 0.12782 0.70734 0.17129
 H589 H 0.12786 0.67092 0.20676
 N590 N 0.17593 0.68693 0.14279
 N591 N 0.18705 0.67578 0.14280
 C592 C 0.19694 0.67828 0.13043
 C593 C 0.19177 0.69157 0.12237
 C594 C 0.17847 0.69679 0.13042
 H595 H 0.20717 0.67102 0.12748
 H596 H 0.17124 0.70702 0.12746
 H597 H 0.17673 0.67670 0.17142
 H598 H 0.16401 0.66403 0.15839
 N599 N 0.18680 0.14261 0.67584
 N600 N 0.17556 0.14274 0.68675
 C601 C 0.17787 0.13041 0.69675
 C602 C 0.19123 0.12227 0.69177
 C603 C 0.19662 0.13023 0.67851
 H604 H 0.17046 0.12757 0.70687
 H605 H 0.20691 0.12723 0.67137
 Cu606 Cu 0.15920 0.15916 0.68672
 Cu607 Cu 0.18787 0.15845 0.65895
 Cu608 Cu 0.15865 0.18776 0.65890
 N609 N 0.14285 0.17558 0.68670
 N610 N 0.14278 0.18678 0.67577
 C611 C 0.13044 0.19667 0.67843
 C612 C 0.12246 0.19134 0.69170
 C613 C 0.13053 0.17796 0.69669
 H614 H 0.12749 0.20695 0.67127
 H615 H 0.12764 0.17060 0.70683
 N616 N 0.17576 0.18667 0.64287
 N617 N 0.18688 0.17553 0.64288
 C618 C 0.19678 0.17802 0.63052
 C619 C 0.19159 0.19131 0.62246
 C620 C 0.17830 0.19654 0.63050
 H621 H 0.20699 0.17076 0.62756
 H622 H 0.17106 0.20676 0.62753
 H623 H 0.17665 0.17652 0.67131
 H624 H 0.16384 0.16376 0.65848
 N625 N 0.31294 0.64282 0.32406
 N626 N 0.32411 0.64303 0.31308
 C627 C 0.32182 0.63071 0.30308
 C628 C 0.30855 0.62249 0.30812
 C629 C 0.30317 0.63041 0.32141
 H630 H 0.32919 0.62792 0.29292
 H631 H 0.29292 0.62737 0.32858
 Cu632 Cu 0.34049 0.65938 0.31298
 Cu633 Cu 0.31184 0.65866 0.34090
 Cu634 Cu 0.34103 0.68794 0.34093
 N635 N 0.35677 0.67584 0.31310
 N636 N 0.35691 0.68696 0.32410
 C637 C 0.36927 0.69682 0.32146
 C638 C 0.37721 0.69154 0.30815
 C639 C 0.36907 0.67824 0.30309
 H640 H 0.37224 0.70706 0.32865
 H641 H 0.37191 0.67093 0.29290
 N642 N 0.32392 0.68688 0.35693
 N643 N 0.31281 0.67574 0.35693
 C644 C 0.30287 0.67828 0.36926
 C645 C 0.30802 0.69160 0.37727
 C646 C 0.32133 0.69679 0.36925
 H647 H 0.29266 0.67103 0.37220
 H648 H 0.32855 0.70702 0.37219
 H649 H 0.32302 0.67668 0.32851
 H650 H 0.33587 0.66388 0.34130
 N651 N 0.31293 0.14266 0.82458
 N652 N 0.32402 0.14285 0.81352
 C653 C 0.32175 0.13041 0.80367
 C654 C 0.30861 0.12210 0.80894
 C655 C 0.30325 0.13013 0.82216
 H656 H 0.32908 0.12756 0.79348
 H657 H 0.29309 0.12709 0.82946
 Cu658 Cu 0.34040 0.15923 0.81343
 Cu659 Cu 0.31186 0.15856 0.84135
 Cu660 Cu 0.34107 0.18782 0.84126
 N661 N 0.35666 0.17574 0.81331
 N662 N 0.35690 0.18682 0.82436
 C663 C 0.36930 0.19661 0.82173
 C664 C 0.37719 0.19133 0.80837
 C665 C 0.36894 0.17811 0.80327
 H666 H 0.37236 0.20678 0.82898
 H667 H 0.37173 0.17080 0.79306
 N668 N 0.32398 0.18678 0.85732
 N669 N 0.31284 0.17568 0.85732
 C670 C 0.30294 0.17821 0.86966
 C671 C 0.30813 0.19148 0.87768
 C672 C 0.32143 0.19667 0.86967
 H673 H 0.29272 0.17097 0.87263
 H674 H 0.32868 0.20687 0.87263
 H675 H 0.32303 0.17659 0.82896
 H676 H 0.33588 0.16380 0.84174
 N677 N 0.81310 0.64288 0.82435
 N678 N 0.82424 0.64307 0.81334
 C679 C 0.82186 0.63080 0.80330
 C680 C 0.80857 0.62261 0.80837
 C681 C 0.80328 0.63050 0.82172
 H682 H 0.82917 0.62803 0.79308
 H683 H 0.79307 0.62748 0.82895
 Cu684 Cu 0.84060 0.65947 0.81332
 Cu685 Cu 0.81207 0.65873 0.84122
 Cu686 Cu 0.84128 0.68798 0.84120
 N687 N 0.85698 0.67586 0.81331
 N688 N 0.85715 0.68697 0.82433
 C689 C 0.86951 0.69682 0.82169
 C690 C 0.87741 0.69157 0.80833
 C691 C 0.86925 0.67828 0.80326
 H692 H 0.87251 0.70702 0.82892
 H693 H 0.87204 0.67101 0.79302
 N694 N 0.82419 0.68694 0.85725
 N695 N 0.81308 0.67581 0.85727
 C696 C 0.80317 0.67836 0.86961
 C697 C 0.80832 0.69167 0.87760
 C698 C 0.82162 0.69685 0.86957
 H699 H 0.79295 0.67112 0.87259
 H700 H 0.82884 0.70709 0.87251
 H701 H 0.82325 0.67677 0.82885
 H702 H 0.83612 0.66396 0.84162
 N703 N 0.81318 0.14256 0.32466
 N704 N 0.82437 0.14264 0.31370
 C705 C 0.82214 0.13015 0.30390
 C706 C 0.80890 0.12195 0.30907
 C707 C 0.80346 0.13007 0.32221
 H708 H 0.82949 0.12726 0.29375
 H709 H 0.79318 0.12715 0.32939
 Cu710 Cu 0.84061 0.15916 0.31330
 Cu711 Cu 0.81206 0.15855 0.34130
 Cu712 Cu 0.84123 0.18780 0.34115
 N713 N 0.85704 0.17549 0.31347
 N714 N 0.85715 0.18670 0.32438
 C715 C 0.86955 0.19651 0.32174
 C716 C 0.87756 0.19110 0.30851
 C717 C 0.86940 0.17779 0.30351
 H718 H 0.87248 0.20682 0.32885
 H719 H 0.87225 0.17042 0.29337
 N720 N 0.82409 0.18687 0.35713
 N721 N 0.81297 0.17575 0.35716
 C722 C 0.80307 0.17829 0.36951
 C723 C 0.80825 0.19159 0.37750
 C724 C 0.82155 0.19678 0.36946
 H725 H 0.79289 0.17103 0.37253
 H726 H 0.82880 0.20698 0.37242
 H727 H 0.82315 0.17659 0.32870
 H728 H 0.83604 0.16380 0.34151
 N729 N 0.68706 0.35714 0.32410
 N730 N 0.67595 0.35692 0.31307
 C731 C 0.67830 0.36922 0.30306
 C732 C 0.69155 0.37743 0.30815
 C733 C 0.69685 0.36954 0.32150
 H734 H 0.67100 0.37201 0.29284
 H735 H 0.70707 0.37256 0.32871
 Cu736 Cu 0.65967 0.34045 0.31283
 Cu737 Cu 0.68810 0.34129 0.34094
 Cu738 Cu 0.65891 0.31206 0.34094
 N739 N 0.64325 0.32412 0.31305
 N740 N 0.64305 0.31304 0.32410
 C741 C 0.63064 0.30325 0.32152
 C742 C 0.62273 0.30850 0.30817
 C743 C 0.63094 0.32174 0.30304
 H744 H 0.62763 0.29304 0.32875
 H745 H 0.62814 0.32902 0.29281
 N746 N 0.67600 0.31310 0.35699
 N747 N 0.68711 0.32422 0.35698
 C748 C 0.69701 0.32171 0.36934
 C749 C 0.69183 0.30843 0.37739
 C750 C 0.67855 0.30322 0.36935
 H751 H 0.70722 0.32896 0.37231
 H752 H 0.67132 0.29300 0.37232
 H753 H 0.67697 0.32321 0.32857
 H754 H 0.66402 0.33610 0.34119
 N755 N 0.68707 0.85727 0.82423
 N756 N 0.67594 0.85704 0.81321
 C757 C 0.67831 0.86929 0.80314
 C758 C 0.69159 0.87749 0.80819
 C759 C 0.69690 0.86963 0.82154
 H760 H 0.67099 0.87205 0.79293
 H761 H 0.70711 0.87268 0.82876
 Cu762 Cu 0.65953 0.84071 0.81326
 Cu763 Cu 0.68810 0.84148 0.84115
 Cu764 Cu 0.65890 0.81222 0.84120
 N765 N 0.64321 0.82428 0.81330
 N766 N 0.64304 0.81317 0.82432
 C767 C 0.63068 0.80333 0.82170
 C768 C 0.62275 0.80861 0.80837
 C769 C 0.63092 0.82188 0.80328
 H770 H 0.62766 0.79314 0.82895
 H771 H 0.62810 0.82918 0.79307
 N772 N 0.67598 0.81332 0.85727
 N773 N 0.68708 0.82446 0.85726
 C774 C 0.69697 0.82197 0.86963
 C775 C 0.69180 0.80869 0.87769
 C776 C 0.67852 0.80346 0.86965
 H777 H 0.70718 0.82922 0.87258
 H778 H 0.67131 0.79323 0.87262
 H779 H 0.67692 0.82343 0.82882
 H780 H 0.66406 0.83624 0.84158
 N781 N 0.18676 0.35714 0.82440
 N782 N 0.17563 0.35694 0.81339
 C783 C 0.17793 0.36927 0.80340
 C784 C 0.19118 0.37750 0.80848
 C785 C 0.19652 0.36958 0.82179
 H786 H 0.17061 0.37202 0.79319
 H787 H 0.20677 0.37260 0.82897
 Cu788 Cu 0.15935 0.34047 0.81316
 Cu789 Cu 0.18785 0.34124 0.84119
 Cu790 Cu 0.15865 0.31199 0.84121
 N791 N 0.14292 0.32416 0.81341
 N792 N 0.14274 0.31304 0.82442
 C793 C 0.13029 0.30328 0.82184
 C794 C 0.12233 0.30863 0.80856
 C795 C 0.13056 0.32186 0.80345
 H796 H 0.12726 0.29307 0.82906
 H797 H 0.12775 0.32919 0.79326
 N798 N 0.17580 0.31299 0.85718
 N799 N 0.18691 0.32412 0.85718
 C800 C 0.19684 0.32158 0.86951
 C801 C 0.19170 0.30826 0.87753
 C802 C 0.17839 0.30307 0.86951
 H803 H 0.20705 0.32883 0.87247
 H804 H 0.17116 0.29285 0.87247
 H805 H 0.17668 0.32319 0.82883
 H806 H 0.16377 0.33604 0.84151
 N807 N 0.18694 0.85737 0.32408
 N808 N 0.17574 0.85724 0.31314
 C809 C 0.17808 0.86955 0.30314
 C810 C 0.19143 0.87766 0.30814
 C811 C 0.19680 0.86970 0.32141
 H812 H 0.17072 0.87239 0.29298
 H813 H 0.20711 0.87264 0.32854
 Cu814 Cu 0.15936 0.84089 0.31315
 Cu815 Cu 0.18799 0.84152 0.34094
 Cu816 Cu 0.15874 0.81231 0.34096
 N817 N 0.14297 0.82455 0.31316
 N818 N 0.14285 0.81336 0.32411
 C819 C 0.13046 0.80355 0.32148
 C820 C 0.12246 0.80894 0.30823
 C821 C 0.13060 0.82225 0.30321
 H822 H 0.12749 0.79329 0.32865
 H823 H 0.12774 0.82963 0.29307
 N824 N 0.17587 0.81331 0.35698
 N825 N 0.18699 0.82443 0.35698
 C826 C 0.19688 0.82191 0.36934
 C827 C 0.19169 0.80863 0.37739
 C828 C 0.17840 0.80343 0.36935
 H829 H 0.20709 0.82916 0.37231
 H830 H 0.17115 0.79323 0.37232
 H831 H 0.17679 0.82350 0.32854
 H832 H 0.16398 0.83629 0.34138
 C833 C 0.25612 1.01455 0.24418
 C834 C 0.24410 1.01455 0.25584
 C835 C 0.23818 1.00008 0.26159
 C836 C 0.24412 0.98562 0.25581
 C837 C 0.25615 0.98564 0.24415
 C838 C 0.26207 1.00010 0.23842
 H839 H 0.27135 1.00012 0.22944
 H840 H 0.22892 1.00007 0.27059
 C841 C 0.25600 0.51439 0.74427
 C842 C 0.24402 0.51440 0.75600
 C843 C 0.23811 0.49994 0.76178
 C844 C 0.24400 0.48546 0.75600
 C845 C 0.25598 0.48547 0.74428
 C846 C 0.26190 0.49993 0.73851
 H847 H 0.27114 0.49991 0.72949
 H848 H 0.22888 0.49995 0.77081
 C849 C 0.75620 -0.01465 0.25611
 C850 C 0.74428 -0.01472 0.24435
 C851 C 0.73842 -0.00031 0.23842
 C852 C 0.74430 0.01420 0.24408
 C853 C 0.75619 0.01431 0.25589
 C854 C 0.76206 -0.00013 0.26181
 H855 H 0.77123 -0.00008 0.27090
 H856 H 0.72923 -0.00038 0.22935
 C857 C 0.75599 0.48533 0.75614
 C858 C 0.74436 0.48545 0.74408
 C859 C 0.73866 0.49998 0.73823
 C860 C 0.74444 0.51440 0.74423
 C861 C 0.75605 0.51429 0.75631
 C862 C 0.76176 0.49976 0.76215
 H863 H 0.77074 0.49968 0.77143
 H864 H 0.72968 0.50006 0.72895
 C865 C 0.25595 0.48539 0.25572
 C866 C 0.24416 0.48546 0.24383
 C867 C 0.23834 0.49993 0.23801
 C868 C 0.24411 0.51437 0.24390
 C869 C 0.25584 0.51436 0.25586
 C870 C 0.26169 0.49986 0.26167
 H871 H 0.27074 0.49984 0.27088
 H872 H 0.22924 0.49995 0.22884
 C873 C 0.75574 1.01471 0.74417
 C874 C 0.74416 1.01471 0.75629
 C875 C 0.73848 1.00023 0.76223
 C876 C 0.74422 0.98576 0.75627
 C877 C 0.75579 0.98577 0.74414
 C878 C 0.76148 1.00025 0.73821
 H879 H 0.77042 1.00026 0.72888
 H880 H 0.72951 1.00021 0.77153
 C881 C 0.75581 0.51453 0.24400
 C882 C 0.74424 0.51454 0.25612
 C883 C 0.73852 0.50007 0.26206
 C884 C 0.74423 0.48560 0.25611
 C885 C 0.75581 0.48559 0.24400
 C886 C 0.76153 0.50006 0.23804
 H887 H 0.77046 0.50006 0.22872
 H888 H 0.72955 0.50008 0.27136
 C889 C 0.25609 -0.01473 0.75619
 C890 C 0.24442 -0.01477 0.74417
 C891 C 0.23861 -0.00034 0.73820
 C892 C 0.24435 0.01417 0.74398
 C893 C 0.25612 0.01426 0.75591
 C894 C 0.26188 -0.00020 0.76195
 H895 H 0.27091 -0.00014 0.77117
 H896 H 0.22956 -0.00040 0.72899
 C897 C 0.24386 0.25567 1.01462
 C898 C 0.25603 0.24415 1.01460
 C899 C 0.26200 0.23846 1.00015
 C900 C 0.25598 0.24414 0.98571
 C901 C 0.24380 0.25566 0.98572
 C902 C 0.23784 0.26136 1.00018
 H903 H 0.22847 0.27027 1.00019
 H904 H 0.27137 0.22955 1.00014
 C905 C 0.24397 0.75592 0.51438
 C906 C 0.25617 0.74441 0.51438
 C907 C 0.26215 0.73872 0.49992
 C908 C 0.25614 0.74438 0.48546
 C909 C 0.24394 0.75589 0.48546
 C910 C 0.23796 0.76159 0.49992
 H911 H 0.22858 0.77049 0.49992
 H912 H 0.27153 0.72982 0.49992
 C913 C 0.25645 0.75574 -0.01461
 C914 C 0.24423 0.74427 -0.01462
 C915 C 0.23820 0.73860 -0.00016
 C916 C 0.24417 0.74426 0.01431
 C917 C 0.25638 0.75574 0.01431
 C918 C 0.26242 0.76139 -0.00014
 H919 H 0.27181 0.77026 -0.00013
 H920 H 0.22880 0.72974 -0.00017
 C921 C 0.25599 0.25570 0.48558
 C922 C 0.24380 0.24422 0.48557
 C923 C 0.23779 0.23854 0.50002
 C924 C 0.24378 0.24422 0.51448
 C925 C 0.25598 0.25570 0.51447
 C926 C 0.26198 0.26136 0.50002
 H927 H 0.27137 0.27024 0.50002
 H928 H 0.22840 0.22967 0.50002
 C929 C 0.74418 0.75603 1.01461
 C930 C 0.75589 0.74404 1.01461
 C931 C 0.76178 0.73824 1.00015
 C932 C 0.75602 0.74417 0.98570
 C933 C 0.74411 0.75597 0.98570
 C934 C 0.73832 0.76186 1.00016
 H935 H 0.72921 0.77104 1.00016
 H936 H 0.77089 0.72907 1.00016
 C937 C 0.74400 0.25583 0.51444
 C938 C 0.75573 0.24385 0.51444
 C939 C 0.76163 0.23805 0.50000
 C940 C 0.75588 0.24396 0.48554
 C941 C 0.74396 0.25575 0.48552
 C942 C 0.73815 0.26165 0.49997
 H943 H 0.72903 0.27081 0.49996
 H944 H 0.77074 0.22889 0.50001
 C945 C 0.75606 0.25590 -0.01456
 C946 C 0.74390 0.24437 -0.01457
 C947 C 0.73793 0.23865 -0.00011
 C948 C 0.74392 0.24432 0.01436
 C949 C 0.75608 0.25585 0.01436
 C950 C 0.76205 0.26155 -0.00010
 H951 H 0.77140 0.27046 -0.00009
 H952 H 0.72858 0.22975 -0.00011
 C953 C 0.75609 0.75590 0.48561
 C954 C 0.74391 0.74439 0.48561
 C955 C 0.73793 0.73869 0.50007
 C956 C 0.74393 0.74436 0.51453
 C957 C 0.75611 0.75587 0.51452
 C958 C 0.76209 0.76155 0.50006
 H959 H 0.77145 0.77045 0.50006
 H960 H 0.72857 0.72980 0.50007
 C961 C 1.01442 0.24421 0.25599
 C962 C 1.01446 0.25602 0.24412
 C963 C 1.00000 0.26194 0.23833
 C964 C 0.98550 0.25614 0.24414
 C965 C 0.98544 0.24414 0.25581
 C966 C 0.99991 0.23830 0.26170
 H967 H 0.99988 0.22911 0.27076
 H968 H 1.00003 0.27111 0.22924
 C969 C 0.51441 0.24397 0.75598
 C970 C 0.51439 0.25577 0.74411
 C971 C 0.49990 0.26168 0.73836
 C972 C 0.48542 0.25587 0.74422
 C973 C 0.48542 0.24387 0.75589
 C974 C 0.49992 0.23805 0.76174
 H975 H 0.49993 0.22887 0.77081
 H976 H 0.49989 0.27086 0.72928
 C977 C -0.01466 0.25605 0.75588
 C978 C -0.01470 0.24399 0.74428
 C979 C -0.00024 0.23809 0.73844
 C980 C 0.01427 0.24399 0.74412
 C981 C 0.01433 0.25586 0.75593
 C982 C -0.00014 0.26185 0.76168
 H983 H -0.00011 0.27106 0.77072
 H984 H -0.00028 0.22886 0.72942
 C985 C 0.48563 0.25583 0.25574
 C986 C 0.48566 0.24360 0.24431
 C987 C 0.50017 0.23762 0.23866
 C988 C 0.51464 0.24366 0.24430
 C989 C 0.51460 0.25588 0.25574
 C990 C 0.50009 0.26186 0.26139
 H991 H 0.50006 0.27125 0.27025
 H992 H 0.50020 0.22822 0.22981
 C993 C 1.01457 0.74434 0.75601
 C994 C 1.01454 0.75614 0.74414
 C995 C 1.00004 0.76202 0.73839
 C996 C 0.98557 0.75618 0.74424
 C997 C 0.98560 0.74418 0.75592
 C998 C 1.00010 0.73840 0.76177
 H999 H 1.00013 0.72922 0.77085
 H1000 H 1.00001 0.77120 0.72931
 C1001 C 0.51445 0.74424 0.25608
 C1002 C 0.51446 0.75602 0.24419
 C1003 C 0.49998 0.76192 0.23840
 C1004 C 0.48549 0.75610 0.24422
 C1005 C 0.48547 0.74411 0.25591
 C1006 C 0.49996 0.73832 0.26181
 H1007 H 0.49995 0.72915 0.27090
 H1008 H 0.49998 0.77108 0.22930
 C1009 C -0.01456 0.75621 0.25582
 C1010 C -0.01460 0.74415 0.24422
 C1011 C -0.00014 0.73826 0.23836
 C1012 C 0.01437 0.74416 0.24403
 C1013 C 0.01443 0.75604 0.25583
 C1014 C -0.00004 0.76202 0.26160
 H1015 H -0.00000 0.77123 0.27063
 H1016 H -0.00018 0.72902 0.22935
 C1017 C 0.48539 0.75619 0.75608
 C1018 C 0.48544 0.74418 0.74441
 C1019 C 0.49997 0.73838 0.73860
 C1020 C 0.51444 0.74431 0.74437
 C1021 C 0.51438 0.75612 0.75624
 C1022 C 0.49985 0.76201 0.76195
 H1023 H 0.49981 0.77120 0.77102
 H1024 H 0.50001 0.72920 0.72953
 C1025 C 0.44490 0.27523 0.27429
 C1026 C 0.43048 0.27556 0.26559
 C1027 C 0.41649 0.28197 0.27265
 C1028 C 0.41715 0.28851 0.28815
 C1029 C 0.43166 0.28847 0.29672
 C1030 C 0.44556 0.28172 0.28981
 C1031 C 0.45992 0.28174 0.29866
 C1032 C 0.46053 0.28831 0.31385
 C1033 C 0.44695 0.29496 0.32058
 C1034 C 0.43265 0.29506 0.31218
 C1035 C 0.40208 0.28169 0.26392
 C1036 C 0.40155 0.27544 0.24859
 C1037 C 0.41532 0.26952 0.24155
 C1038 C 0.42967 0.26963 0.24988
 C1039 C 0.40299 0.29550 0.29520
 C1040 C 0.39132 0.30137 0.30116
 C1041 C 0.45906 0.26815 0.26737
 C1042 C 0.47102 0.26240 0.26190
 H1043 H 0.47082 0.27676 0.29392
 H1044 H 0.47162 0.28826 0.32043
 H1045 H 0.44750 0.30008 0.33238
 H1046 H 0.42242 0.30037 0.31793
 H1047 H 0.39109 0.28626 0.26885
 H1048 H 0.39042 0.27525 0.24211
 H1049 H 0.41487 0.26472 0.22962
 H1050 H 0.44006 0.26488 0.24391
 C1051 C 0.44466 0.77571 0.77461
 C1052 C 0.43077 0.77775 0.76528
 C1053 C 0.41675 0.78418 0.77226
 C1054 C 0.41687 0.78908 0.78836
 C1055 C 0.43086 0.78735 0.79760
 C1056 C 0.44478 0.78057 0.79073
 C1057 C 0.45861 0.77891 0.80023
 C1058 C 0.45870 0.78384 0.81604
 C1059 C 0.44512 0.79050 0.82275
 C1060 C 0.43132 0.79225 0.81370
 C1061 C 0.40285 0.78559 0.76284
 C1062 C 0.40286 0.78095 0.74693
 C1063 C 0.41668 0.77502 0.74002
 C1064 C 0.43054 0.77348 0.74901
 C1065 C 0.40267 0.79608 0.79537
 C1066 C 0.39093 0.80194 0.80123
 C1067 C 0.45882 0.76857 0.76770
 C1068 C 0.47077 0.76278 0.76225
 H1069 H 0.46950 0.77386 0.79554
 H1070 H 0.46939 0.78252 0.82311
 H1071 H 0.44526 0.79433 0.83503
 H1072 H 0.42105 0.79749 0.81945
 H1073 H 0.39185 0.79024 0.76766
 H1074 H 0.39210 0.78204 0.73993
 H1075 H 0.41664 0.77147 0.72764
 H1076 H 0.44098 0.76877 0.74312
 C1077 C -0.05538 0.27560 0.77433
 C1078 C -0.06952 0.27683 0.76525
 C1079 C -0.08354 0.28325 0.77225
 C1080 C -0.08317 0.28892 0.78810
 C1081 C -0.06893 0.28799 0.79707
 C1082 C -0.05501 0.28124 0.79020
 C1083 C -0.04093 0.28039 0.79943
 C1084 C -0.04059 0.28611 0.81497
 C1085 C -0.05419 0.29276 0.82167
 C1086 C -0.06823 0.29370 0.81288
 C1087 C -0.09767 0.28388 0.76311
 C1088 C -0.09790 0.27850 0.74744
 C1089 C -0.08410 0.27257 0.74048
 C1090 C -0.07002 0.27180 0.74921
 C1091 C -0.09735 0.29592 0.79512
 C1092 C -0.10905 0.30178 0.80102
 C1093 C -0.04121 0.26849 0.76746
 C1094 C -0.02924 0.26270 0.76204
 H1095 H -0.03002 0.27537 0.79474
 H1096 H -0.02971 0.28541 0.82185
 H1097 H -0.05387 0.29722 0.83373
 H1098 H -0.07849 0.29898 0.81862
 H1099 H -0.10868 0.28849 0.76797
 H1100 H -0.10884 0.27900 0.74064
 H1101 H -0.08433 0.26844 0.72829
 H1102 H -0.05959 0.26706 0.74330
 C1103 C -0.05529 0.77574 0.27434
 C1104 C -0.06925 0.77752 0.26508
 C1105 C -0.08329 0.78392 0.27206
 C1106 C -0.08311 0.78903 0.28811
 C1107 C -0.06903 0.78755 0.29727
 C1108 C -0.05511 0.78081 0.29039
 C1109 C -0.04121 0.77938 0.29982
 C1110 C -0.04104 0.78454 0.31556
 C1111 C -0.05464 0.79118 0.32226
 C1112 C -0.06851 0.79268 0.31329
 C1113 C -0.09725 0.78509 0.26271
 C1114 C -0.09730 0.78025 0.24686
 C1115 C -0.08348 0.77433 0.23994
 C1116 C -0.06956 0.77303 0.24887
 C1117 C -0.09732 0.79595 0.29515
 C1118 C -0.10906 0.80174 0.30107
 C1119 C -0.04111 0.76863 0.26744
 C1120 C -0.02914 0.76285 0.26200
 H1121 H -0.03030 0.77435 0.29513
 H1122 H -0.03029 0.78340 0.32258
 H1123 H -0.05444 0.79519 0.33449
 H1124 H -0.07878 0.79792 0.31903
 H1125 H -0.10826 0.78971 0.26754
 H1126 H -0.10811 0.78116 0.23991
 H1127 H -0.08356 0.77062 0.22761
 H1128 H -0.05911 0.76831 0.24297
 C1129 C 0.55513 0.72553 0.27540
 C1130 C 0.56913 0.73474 0.27717
 C1131 C 0.58318 0.72764 0.28339
 C1132 C 0.58298 0.71154 0.28836
 C1133 C 0.56886 0.70244 0.28695
 C1134 C 0.55491 0.70943 0.28038
 C1135 C 0.54094 0.70009 0.27908
 C1136 C 0.54074 0.68432 0.28420
 C1137 C 0.55436 0.67750 0.29066
 C1138 C 0.56830 0.68639 0.29204
 C1139 C 0.59718 0.73694 0.28455
 C1140 C 0.59723 0.75285 0.27989
 C1141 C 0.58338 0.75989 0.27417
 C1142 C 0.56944 0.75101 0.27287
 C1143 C 0.59715 0.70446 0.29531
 C1144 C 0.60883 0.69861 0.30125
 C1145 C 0.54098 0.73251 0.26838
 C1146 C 0.52903 0.73801 0.26265
 H1147 H 0.53003 0.70487 0.27418
 H1148 H 0.52994 0.67737 0.28316
 H1149 H 0.55414 0.66526 0.29464
 H1150 H 0.57858 0.68056 0.29715
 H1151 H 0.60821 0.73201 0.28904
 H1152 H 0.60806 0.75976 0.28078
 H1153 H 0.58347 0.77227 0.27060
 H1154 H 0.55897 0.75699 0.26832
 C1155 C 0.55516 0.22532 0.77531
 C1156 C 0.57014 0.23278 0.77334
 C1157 C 0.58409 0.22555 0.77965
 C1158 C 0.58290 0.21118 0.78836
 C1159 C 0.56786 0.20393 0.79068
 C1160 C 0.55396 0.21098 0.78407
 C1161 C 0.53905 0.20348 0.78650
 C1162 C 0.53791 0.18946 0.79528
 C1163 C 0.55150 0.18259 0.80177
 C1164 C 0.56633 0.18968 0.79952
 C1165 C 0.59900 0.23299 0.77709
 C1166 C 0.60007 0.24727 0.76874
 C1167 C 0.58638 0.25453 0.76291
 C1168 C 0.57155 0.24744 0.76519
 C1169 C 0.59710 0.20403 0.79520
 C1170 C 0.60886 0.19817 0.80101
 C1171 C 0.54099 0.23226 0.76824
 C1172 C 0.52902 0.23774 0.76251
 H1173 H 0.52813 0.20838 0.78174
 H1174 H 0.52641 0.18391 0.79707
 H1175 H 0.55055 0.17172 0.80860
 H1176 H 0.57655 0.18389 0.80482
 H1177 H 0.60996 0.22786 0.78151
 H1178 H 0.61157 0.25275 0.76685
 H1179 H 0.58726 0.26566 0.75650
 H1180 H 0.56124 0.25354 0.76046
 C1181 C 1.05528 0.72562 0.77528
 C1182 C 1.05453 0.71013 0.78186
 C1183 C 1.06843 0.70310 0.78848
 C1184 C 1.08302 0.71154 0.78834
 C1185 C 1.08375 0.72703 0.78175
 C1186 C 1.06977 0.73421 0.77546
 C1187 C 1.07066 0.74993 0.76951
 C1188 C 1.08507 0.75814 0.76926
 C1189 C 1.09883 0.75097 0.77503
 C1190 C 1.09823 0.73564 0.78132
 C1191 C 1.06737 0.68767 0.79514
 C1192 C 1.05299 0.67941 0.79525
 C1193 C 1.03940 0.68626 0.78875
 C1194 C 1.04009 0.70143 0.78210
 C1195 C 1.09717 0.70443 0.79528
 C1196 C 1.10886 0.69854 0.80117
 C1197 C 1.04113 0.73261 0.76823
 C1198 C 1.02918 0.73811 0.76252
 H1199 H 1.06027 0.75598 0.76486
 H1200 H 1.08558 0.77007 0.76443
 H1201 H 1.11003 0.75734 0.77472
 H1202 H 1.10922 0.73062 0.78578
 H1203 H 1.07762 0.68184 0.80035
 H1204 H 1.05239 0.66763 0.80042
 H1205 H 1.02825 0.67980 0.78888
 H1206 H 1.02918 0.70626 0.77723
 C1207 C 1.05511 0.22548 0.27529
 C1208 C 1.06960 0.23407 0.27542
 C1209 C 1.08360 0.22691 0.28169
 C1210 C 1.08288 0.21143 0.28832
 C1211 C 1.06829 0.20299 0.28850
 C1212 C 1.05438 0.21000 0.28189
 C1213 C 1.03994 0.20130 0.28217
 C1214 C 1.03926 0.18614 0.28885
 C1215 C 1.05286 0.17931 0.29535
 C1216 C 1.06725 0.18758 0.29520
 C1217 C 1.09807 0.23552 0.28121
 C1218 C 1.09866 0.25084 0.27490
 C1219 C 1.08489 0.25799 0.26913
 C1220 C 1.07048 0.24978 0.26943
 C1221 C 1.09704 0.20434 0.29525
 C1222 C 1.10875 0.19848 0.30113
 C1223 C 1.04095 0.23245 0.26826
 C1224 C 1.02900 0.23796 0.26254
 H1225 H 1.02902 0.20612 0.27732
 H1226 H 1.02812 0.17968 0.28901
 H1227 H 1.05228 0.16754 0.30055
 H1228 H 1.07750 0.18176 0.30040
 H1229 H 1.10908 0.23051 0.28567
 H1230 H 1.10985 0.25721 0.27455
 H1231 H 1.08539 0.26991 0.26427
 H1232 H 1.06008 0.25582 0.26479
 C1233 C 0.55507 0.27457 0.72486
 C1234 C 0.55501 0.29082 0.72041
 C1235 C 0.56895 0.29780 0.71383
 C1236 C 0.58291 0.28853 0.71189
 C1237 C 0.58294 0.27226 0.71631
 C1238 C 0.56889 0.26520 0.72255
 C1239 C 0.56904 0.24879 0.72632
 C1240 C 0.58282 0.23973 0.72446
 C1241 C 0.59666 0.24672 0.71870
 C1242 C 0.59677 0.26278 0.71457
 C1243 C 0.56856 0.31402 0.70930
 C1244 C 0.55479 0.32308 0.71120
 C1245 C 0.54117 0.31628 0.71766
 C1246 C 0.54121 0.30035 0.72225
 C1247 C 0.59709 0.29564 0.70501
 C1248 C 0.60877 0.30156 0.69914
 C1249 C 0.54091 0.26758 0.73186
 C1250 C 0.52897 0.26204 0.73758
 H1251 H 0.55856 0.24283 0.73088
 H1252 H 0.58278 0.22724 0.72761
 H1253 H 0.60737 0.23966 0.71737
 H1254 H 0.60779 0.26766 0.71004
 H1255 H 0.57886 0.31985 0.70422
 H1256 H 0.55470 0.33546 0.70763
 H1257 H 0.53049 0.32337 0.71909
 H1258 H 0.53030 0.29559 0.72717
 C1259 C 0.55513 0.77471 0.22484
 C1260 C 0.55395 0.78930 0.21649
 C1261 C 0.56782 0.79636 0.20988
 C1262 C 0.58282 0.78888 0.21180
 C1263 C 0.58399 0.77428 0.22013
 C1264 C 0.57006 0.76703 0.22642
 C1265 C 0.57143 0.75214 0.23414
 C1266 C 0.58623 0.74485 0.23607
 C1267 C 0.59991 0.75214 0.23029
 C1268 C 0.59886 0.76664 0.22231
 C1269 C 0.56633 0.81085 0.20143
 C1270 C 0.55154 0.81817 0.19958
 C1271 C 0.53797 0.81130 0.20608
 C1272 C 0.53909 0.79703 0.21445
 C1273 C 0.59697 0.79603 0.20490
 C1274 C 0.60867 0.80190 0.19903
 C1275 C 0.54100 0.76775 0.23193
 C1276 C 0.52906 0.76226 0.23767
 H1277 H 0.56112 0.74601 0.23883
 H1278 H 0.58708 0.73355 0.24220
 H1279 H 0.61139 0.74650 0.23192
 H1280 H 0.60982 0.77178 0.21792
 H1281 H 0.57654 0.81667 0.19616
 H1282 H 0.55062 0.82924 0.19306
 H1283 H 0.52651 0.81702 0.20459
 H1284 H 0.52818 0.79212 0.21923
 C1285 C 1.05514 0.27479 0.22489
 C1286 C 1.05436 0.29026 0.21824
 C1287 C 1.06826 0.29727 0.21163
 C1288 C 1.08287 0.28885 0.21184
 C1289 C 1.08364 0.27339 0.21851
 C1290 C 1.06966 0.26623 0.22478
 C1291 C 1.07058 0.25054 0.23080
 C1292 C 1.08502 0.24235 0.23114
 C1293 C 1.09877 0.24950 0.22537
 C1294 C 1.09814 0.26480 0.21902
 C1295 C 1.06717 0.31267 0.20489
 C1296 C 1.05276 0.32091 0.20471
 C1297 C 1.03918 0.31408 0.21122
 C1298 C 1.03990 0.29893 0.21793
 C1299 C 1.09702 0.29594 0.20490
 C1300 C 1.10872 0.30178 0.19900
 C1301 C 1.04100 0.26779 0.23192
 C1302 C 1.02906 0.26227 0.23763
 H1303 H 1.06019 0.24448 0.23543
 H1304 H 1.08554 0.23045 0.23603
 H1305 H 1.10998 0.24314 0.22575
 H1306 H 1.10913 0.26982 0.21455
 H1307 H 1.07740 0.31849 0.19966
 H1308 H 1.05213 0.33267 0.19948
 H1309 H 1.02801 0.32053 0.21105
 H1310 H 1.02899 0.29410 0.22279
 C1311 C 1.05520 0.77489 0.72483
 C1312 C 1.06973 0.76633 0.72479
 C1313 C 1.08372 0.77347 0.71851
 C1314 C 1.08296 0.78890 0.71178
 C1315 C 1.06835 0.79732 0.71151
 C1316 C 1.05444 0.79032 0.71812
 C1317 C 1.03997 0.79900 0.71775
 C1318 C 1.03926 0.81411 0.71097
 C1319 C 1.05286 0.82094 0.70448
 C1320 C 1.06727 0.81270 0.70472
 C1321 C 1.09823 0.76490 0.71909
 C1322 C 1.09885 0.74962 0.72551
 C1323 C 1.08508 0.74248 0.73127
 C1324 C 1.07064 0.75066 0.73088
 C1325 C 1.09712 0.79597 0.70483
 C1326 C 1.10883 0.80179 0.69894
 C1327 C 1.04105 0.76792 0.73188
 C1328 C 1.02911 0.76241 0.73760
 H1329 H 1.02905 0.79418 0.72260
 H1330 H 1.02809 0.82056 0.71075
 H1331 H 1.05225 0.83267 0.69922
 H1332 H 1.07751 0.81850 0.69952
 H1333 H 1.10922 0.76991 0.71464
 H1334 H 1.11007 0.74328 0.72594
 H1335 H 1.08561 0.73059 0.73620
 H1336 H 1.06025 0.74463 0.73553
 C1337 C 0.44477 0.72464 0.72585
 C1338 C 0.44598 0.71597 0.71146
 C1339 C 0.43211 0.70923 0.70450
 C1340 C 0.41709 0.71131 0.71188
 C1341 C 0.41588 0.72001 0.72625
 C1342 C 0.42980 0.72645 0.73339
 C1343 C 0.42837 0.73456 0.74806
 C1344 C 0.41355 0.73670 0.75522
 C1345 C 0.39990 0.73077 0.74803
 C1346 C 0.40099 0.72243 0.73375
 C1347 C 0.43365 0.70049 0.69019
 C1348 C 0.44845 0.69848 0.68296
 C1349 C 0.46200 0.70509 0.68975
 C1350 C 0.46086 0.71375 0.70382
 C1351 C 0.40294 0.70433 0.70480
 C1352 C 0.39123 0.69850 0.69888
 C1353 C 0.45891 0.73178 0.73275
 C1354 C 0.47085 0.73757 0.73821
 H1355 H 0.43866 0.73939 0.75411
 H1356 H 0.41266 0.74311 0.76635
 H1357 H 0.38840 0.73256 0.75358
 H1358 H 0.39004 0.71793 0.72867
 H1359 H 0.42345 0.69512 0.68445
 H1360 H 0.44940 0.69173 0.67204
 H1361 H 0.47348 0.70348 0.68409
 H1362 H 0.47175 0.71862 0.70867
 C1363 C 0.44499 0.22412 0.22578
 C1364 C 0.44582 0.21703 0.21053
 C1365 C 0.43192 0.21033 0.20360
 C1366 C 0.41724 0.21092 0.21188
 C1367 C 0.41642 0.21804 0.22712
 C1368 C 0.43040 0.22441 0.23420
 C1369 C 0.42941 0.23093 0.24968
 C1370 C 0.41491 0.23163 0.25772
 C1371 C 0.40116 0.22576 0.25064
 C1372 C 0.40186 0.21894 0.23556
 C1373 C 0.43307 0.20314 0.18842
 C1374 C 0.44753 0.20261 0.18031
 C1375 C 0.46111 0.20921 0.18705
 C1376 C 0.46034 0.21636 0.20198
 C1377 C 0.40308 0.20400 0.20481
 C1378 C 0.39141 0.19817 0.19884
 C1379 C 0.45914 0.23121 0.23268
 C1380 C 0.47108 0.23697 0.23814
 H1381 H 0.43978 0.23567 0.25567
 H1382 H 0.41433 0.23688 0.26946
 H1383 H 0.38991 0.22641 0.25689
 H1384 H 0.39087 0.21442 0.23058
 H1385 H 0.42284 0.19784 0.18268
 H1386 H 0.44819 0.19704 0.16872
 H1387 H 0.47232 0.20876 0.18069
 H1388 H 0.47125 0.22127 0.20674
 C1389 C -0.05525 0.72448 0.22589
 C1390 C -0.05406 0.71589 0.21146
 C1391 C -0.06791 0.70911 0.20454
 C1392 C -0.08290 0.71111 0.21200
 C1393 C -0.08409 0.71969 0.22644
 C1394 C -0.07017 0.72615 0.23355
 C1395 C -0.07156 0.73416 0.24827
 C1396 C -0.08635 0.73619 0.25553
 C1397 C -0.10001 0.73021 0.24838
 C1398 C -0.09895 0.72196 0.23405
 C1399 C -0.06641 0.70043 0.19019
 C1400 C -0.05164 0.69854 0.18287
 C1401 C -0.03809 0.70521 0.18960
 C1402 C -0.03921 0.71380 0.20373
 C1403 C -0.09704 0.70417 0.20491
 C1404 C -0.10871 0.69833 0.19894
 C1405 C -0.04113 0.73170 0.23273
 C1406 C -0.02920 0.73754 0.23812
 H1407 H -0.06126 0.73901 0.25429
 H1408 H -0.08722 0.74254 0.26669
 H1409 H -0.11149 0.73190 0.25400
 H1410 H -0.10989 0.71742 0.22900
 H1411 H -0.07660 0.69501 0.18449
 H1412 H -0.05071 0.69185 0.17191
 H1413 H -0.02664 0.70369 0.18386
 H1414 H -0.02831 0.71870 0.20853
 C1415 C -0.05537 0.22437 0.72592
 C1416 C -0.05428 0.21629 0.71118
 C1417 C -0.06816 0.20956 0.70425
 C1418 C -0.08306 0.21110 0.71200
 C1419 C -0.08412 0.21915 0.72675
 C1420 C -0.07018 0.22556 0.73386
 C1421 C -0.07144 0.23303 0.74888
 C1422 C -0.08613 0.23460 0.75643
 C1423 C -0.09983 0.22868 0.74929
 C1424 C -0.09889 0.22094 0.73467
 C1425 C -0.06676 0.20139 0.68959
 C1426 C -0.05208 0.19994 0.68199
 C1427 C -0.03852 0.20657 0.68875
 C1428 C -0.03954 0.21467 0.70316
 C1429 C -0.09721 0.20422 0.70487
 C1430 C -0.10890 0.19844 0.69890
 C1431 C -0.04125 0.23157 0.73276
 C1432 C -0.02931 0.23739 0.73817
 H1433 H -0.06111 0.23783 0.75489
 H1434 H -0.08690 0.24055 0.76782
 H1435 H -0.11123 0.23002 0.75515
 H1436 H -0.10985 0.21642 0.72964
 H1437 H -0.07696 0.19602 0.68386
 H1438 H -0.05124 0.19364 0.67080
 H1439 H -0.02715 0.20541 0.68279
 H1440 H -0.02863 0.21957 0.70796
 C1441 C 0.27466 0.44461 0.27500
 C1442 C 0.28029 0.44524 0.29087
 C1443 C 0.28735 0.43155 0.29789
 C1444 C 0.28882 0.41734 0.28898
 C1445 C 0.28309 0.41667 0.27318
 C1446 C 0.27591 0.43031 0.26618
 C1447 C 0.27010 0.42925 0.25043
 C1448 C 0.27139 0.41511 0.24185
 C1449 C 0.27855 0.40185 0.24863
 C1450 C 0.28435 0.40255 0.26411
 C1451 C 0.29280 0.43244 0.31378
 C1452 C 0.29133 0.44644 0.32251
 C1453 C 0.28447 0.45984 0.31566
 C1454 C 0.27901 0.45932 0.30002
 C1455 C 0.29610 0.40336 0.29610
 C1456 C 0.30204 0.39168 0.30196
 C1457 C 0.26779 0.45875 0.26777
 C1458 C 0.26228 0.47074 0.26211
 H1459 H 0.26447 0.43927 0.24463
 H1460 H 0.26682 0.41437 0.22989
 H1461 H 0.27959 0.39095 0.24186
 H1462 H 0.28978 0.39189 0.26887
 H1463 H 0.29823 0.42233 0.31964
 H1464 H 0.29555 0.44690 0.33467
 H1465 H 0.28336 0.47069 0.32249
 H1466 H 0.27374 0.47005 0.29523
 C1467 C 0.27495 -0.05552 0.77538
 C1468 C 0.26599 -0.06973 0.77651
 C1469 C 0.27316 -0.08377 0.78270
 C1470 C 0.28909 -0.08338 0.78826
 C1471 C 0.29793 -0.06906 0.78747
 C1472 C 0.29088 -0.05512 0.78092
 C1473 C 0.30000 -0.04098 0.78020
 C1474 C 0.31560 -0.04058 0.78585
 C1475 C 0.32246 -0.05418 0.79231
 C1476 C 0.31379 -0.06829 0.79312
 C1477 C 0.26411 -0.09796 0.78322
 C1478 C 0.24837 -0.09823 0.77796
 C1479 C 0.24125 -0.08443 0.77226
 C1480 C 0.24988 -0.07029 0.77159
 C1481 C 0.29624 -0.09759 0.79512
 C1482 C 0.30211 -0.10934 0.80096
 C1483 C 0.26790 -0.04131 0.76845
 C1484 C 0.26236 -0.02933 0.76277
 H1485 H 0.29518 -0.03007 0.77534
 H1486 H 0.32238 -0.02965 0.78525
 H1487 H 0.33457 -0.05379 0.79672
 H1488 H 0.31966 -0.07855 0.79823
 H1489 H 0.26910 -0.10897 0.78766
 H1490 H 0.24166 -0.10921 0.77837
 H1491 H 0.22901 -0.08470 0.76821
 H1492 H 0.24384 -0.05987 0.76703
 C1493 C 0.77471 0.44457 0.77535
 C1494 C 0.78770 0.44608 0.78600
 C1495 C 0.79478 0.43225 0.79269
 C1496 C 0.78897 0.41699 0.78857
 C1497 C 0.77597 0.41549 0.77794
 C1498 C 0.76867 0.42934 0.77150
 C1499 C 0.75534 0.42756 0.76136
 C1500 C 0.74961 0.41252 0.75740
 C1501 C 0.75699 0.39898 0.76337
 C1502 C 0.76998 0.40038 0.77359
 C1503 C 0.80762 0.43405 0.80345
 C1504 C 0.81331 0.44909 0.80747
 C1505 C 0.80643 0.46261 0.80088
 C1506 C 0.79378 0.46120 0.79025
 C1507 C 0.79612 0.40286 0.79553
 C1508 C 0.80197 0.39115 0.80142
 C1509 C 0.76772 0.45872 0.76829
 C1510 C 0.76220 0.47069 0.76261
 H1511 H 0.74920 0.43775 0.75645
 H1512 H 0.73942 0.41136 0.74960
 H1513 H 0.75258 0.38732 0.76015
 H1514 H 0.77526 0.38950 0.77803
 H1515 H 0.81337 0.42390 0.80889
 H1516 H 0.82312 0.45024 0.81574
 H1517 H 0.81090 0.47426 0.80404
 H1518 H 0.78880 0.47207 0.78548
 C1519 C 0.77524 -0.05559 0.27457
 C1520 C 0.76572 -0.06926 0.27704
 C1521 C 0.77253 -0.08312 0.28397
 C1522 C 0.78885 -0.08327 0.28827
 C1523 C 0.79839 -0.06963 0.28568
 C1524 C 0.79157 -0.05575 0.27882
 C1525 C 0.80134 -0.04224 0.27638
 C1526 C 0.81739 -0.04244 0.28060
 C1527 C 0.82406 -0.05601 0.28731
 C1528 C 0.81473 -0.06948 0.28985
 C1529 C 0.76273 -0.09658 0.28649
 C1530 C 0.74670 -0.09639 0.28222
 C1531 C 0.74007 -0.08288 0.27534
 C1532 C 0.74941 -0.06943 0.27275
 C1533 C 0.79579 -0.09741 0.29542
 C1534 C 0.80156 -0.10912 0.30140
 C1535 C 0.76825 -0.04127 0.26788
 C1536 C 0.76265 -0.02923 0.26245
 H1537 H 0.79671 -0.03140 0.27119
 H1538 H 0.82469 -0.03201 0.27864
 H1539 H 0.83653 -0.05610 0.29057
 H1540 H 0.82046 -0.07974 0.29511
 H1541 H 0.76734 -0.10737 0.29179
 H1542 H 0.73938 -0.10679 0.28425
 H1543 H 0.72761 -0.08281 0.27201
 H1544 H 0.74372 -0.05920 0.26737
 C1545 C 0.27498 0.55520 0.72552
 C1546 C 0.26885 0.57037 0.72952
 C1547 C 0.27566 0.58427 0.72271
 C1548 C 0.28860 0.58292 0.71197
 C1549 C 0.29472 0.56773 0.70797
 C1550 C 0.28790 0.55383 0.71476
 C1551 C 0.29424 0.53878 0.71058
 C1552 C 0.30695 0.53751 0.69999
 C1553 C 0.31361 0.55110 0.69335
 C1554 C 0.30761 0.56607 0.69724
 C1555 C 0.26930 0.59930 0.72686
 C1556 C 0.25659 0.60056 0.73746
 C1557 C 0.24994 0.58697 0.74414
 C1558 C 0.25595 0.57201 0.74025
 C1559 C 0.29560 0.59711 0.70499
 C1560 C 0.30144 0.60881 0.69908
 C1561 C 0.26802 0.54097 0.73240
 C1562 C 0.26243 0.52898 0.73793
 H1563 H 0.28946 0.52786 0.71543
 H1564 H 0.31165 0.52591 0.69693
 H1565 H 0.32348 0.55006 0.68513
 H1566 H 0.31321 0.57628 0.69175
 H1567 H 0.27406 0.61021 0.72197
 H1568 H 0.25187 0.61216 0.74051
 H1569 H 0.24008 0.58801 0.75238
 H1570 H 0.25038 0.56179 0.74573
 C1571 C 0.27520 1.05532 0.22568
 C1572 C 0.26580 1.06915 0.22359
 C1573 C 0.27263 1.08297 0.21664
 C1574 C 0.28883 1.08289 0.21194
 C1575 C 0.29823 1.06905 0.21406
 C1576 C 0.29138 1.05521 0.22092
 C1577 C 0.30099 1.04148 0.22284
 C1578 C 0.31690 1.04145 0.21810
 C1579 C 0.32360 1.05500 0.21142
 C1580 C 0.31443 1.06868 0.20939
 C1581 C 0.26298 1.09662 0.21452
 C1582 C 0.24703 1.09662 0.21915
 C1583 C 0.24037 1.08313 0.22601
 C1584 C 0.24959 1.06952 0.22825
 C1585 C 0.29584 1.09697 0.20483
 C1586 C 0.30174 1.10859 0.19887
 C1587 C 0.26819 1.04111 0.23246
 C1588 C 0.26257 1.02912 0.23792
 H1589 H 0.29633 1.03065 0.22799
 H1590 H 0.32407 1.03085 0.21964
 H1591 H 0.33597 1.05492 0.20777
 H1592 H 0.32018 1.07891 0.20412
 H1593 H 0.26762 1.10740 0.20924
 H1594 H 0.23982 1.10716 0.21741
 H1595 H 0.22798 1.08320 0.22961
 H1596 H 0.24388 1.05931 0.23363
 C1597 C 0.77447 0.55518 0.22468
 C1598 C 0.78817 0.55377 0.21494
 C1599 C 0.79527 0.56762 0.20834
 C1600 C 0.78874 0.58280 0.21165
 C1601 C 0.77501 0.58419 0.22134
 C1602 C 0.76770 0.57032 0.22765
 C1603 C 0.75364 0.57196 0.23679
 C1604 C 0.74722 0.58692 0.23997
 C1605 C 0.75461 0.60052 0.23416
 C1606 C 0.76830 0.59924 0.22487
 C1607 C 0.80884 0.56591 0.19849
 C1608 C 0.81522 0.55095 0.19526
 C1609 C 0.80831 0.53741 0.20175
 C1610 C 0.79496 0.53873 0.21151
 C1611 C 0.79592 0.59692 0.20479
 C1612 C 0.80184 0.60859 0.19893
 C1613 C 0.76751 0.54105 0.23174
 C1614 C 0.76202 0.52911 0.23746
 H1615 H 0.74748 0.56172 0.24155
 H1616 H 0.73651 0.58797 0.24707
 H1617 H 0.74966 0.61212 0.23677
 H1618 H 0.77356 0.61015 0.22051
 H1619 H 0.81465 0.57609 0.19316
 H1620 H 0.82558 0.54987 0.18766
 H1621 H 0.81331 0.52581 0.19919
 H1622 H 0.78999 0.52784 0.21623
 C1623 C 0.77444 1.05530 0.72478
 C1624 C 0.76762 1.07043 0.72764
 C1625 C 0.77491 1.08429 0.72128
 C1626 C 0.78868 1.08287 0.71164
 C1627 C 0.79528 1.06769 0.70846
 C1628 C 0.78819 1.05387 0.71511
 C1629 C 0.79504 1.03882 0.71180
 C1630 C 0.80845 1.03749 0.70211
 C1631 C 0.81534 1.05101 0.69557
 C1632 C 0.80890 1.06597 0.69868
 C1633 C 0.76814 1.09933 0.72470
 C1634 C 0.75441 1.10062 0.73393
 C1635 C 0.74705 1.08704 0.73980
 C1636 C 0.75352 1.07208 0.73672
 C1637 C 0.79583 1.09697 0.70471
 C1638 C 0.80170 1.10865 0.69884
 C1639 C 0.76746 1.04120 0.73187
 C1640 C 0.76195 1.02928 0.73762
 H1641 H 0.79007 1.02795 0.71656
 H1642 H 0.81350 1.02589 0.69965
 H1643 H 0.82574 1.04992 0.68803
 H1644 H 0.81470 1.07613 0.69331
 H1645 H 0.77337 1.11023 0.72028
 H1646 H 0.74941 1.11222 0.73646
 H1647 H 0.73631 1.08809 0.74687
 H1648 H 0.74737 1.06185 0.74152
 C1649 C 0.72540 0.55523 0.27521
 C1650 C 0.70886 0.55567 0.27851
 C1651 C 0.70192 0.56961 0.28510
 C1652 C 0.71152 0.58310 0.28820
 C1653 C 0.72806 0.58267 0.28486
 C1654 C 0.73506 0.56860 0.27861
 C1655 C 0.75170 0.56827 0.27589
 C1656 C 0.76108 0.58162 0.27880
 C1657 C 0.75418 0.59548 0.28461
 C1658 C 0.73788 0.59604 0.28770
 C1659 C 0.68540 0.56968 0.28850
 C1660 C 0.67600 0.55637 0.28545
 C1661 C 0.68278 0.54276 0.27894
 C1662 C 0.69900 0.54234 0.27547
 C1663 C 0.70447 0.59725 0.29519
 C1664 C 0.69862 0.60892 0.30115
 C1665 C 0.73241 0.54105 0.26831
 C1666 C 0.73797 0.52911 0.26265
 H1667 H 0.75759 0.55777 0.27131
 H1668 H 0.77375 0.58123 0.27644
 H1669 H 0.76150 0.60585 0.28678
 H1670 H 0.73307 0.60707 0.29232
 H1671 H 0.67957 0.57999 0.29357
 H1672 H 0.66339 0.55663 0.28815
 H1673 H 0.67542 0.53246 0.27658
 H1674 H 0.70372 0.53146 0.27046
 C1675 C 0.72524 1.05547 0.77534
 C1676 C 0.73487 1.06888 0.77867
 C1677 C 0.72786 1.08294 0.78495
 C1678 C 0.71133 1.08334 0.78836
 C1679 C 0.70176 1.06982 0.78531
 C1680 C 0.70871 1.05588 0.77870
 C1681 C 0.69887 1.04255 0.77570
 C1682 C 0.68265 1.04294 0.77920
 C1683 C 0.67587 1.05654 0.78571
 C1684 C 0.68525 1.06987 0.78874
 C1685 C 0.73765 1.09635 0.78771
 C1686 C 0.75393 1.09584 0.78452
 C1687 C 0.76084 1.08199 0.77869
 C1688 C 0.75149 1.06860 0.77585
 C1689 C 0.70427 1.09753 0.79530
 C1690 C 0.69844 1.10927 0.80119
 C1691 C 0.73228 1.04126 0.76845
 C1692 C 0.73786 1.02930 0.76280
 H1693 H 0.70359 1.03166 0.77068
 H1694 H 0.67531 1.03261 0.77687
 H1695 H 0.66327 1.05678 0.78844
 H1696 H 0.67942 1.08017 0.79381
 H1697 H 0.73284 1.10737 0.79233
 H1698 H 0.76122 1.10624 0.78664
 H1699 H 0.77350 1.08164 0.77626
 H1700 H 0.75740 1.05812 0.77126
 C1701 C 0.22537 0.55557 0.77427
 C1702 C 0.21088 0.56165 0.76817
 C1703 C 0.20394 0.57545 0.77505
 C1704 C 0.21156 0.58312 0.78795
 C1705 C 0.22611 0.57709 0.79398
 C1706 C 0.23306 0.56329 0.78710
 C1707 C 0.24760 0.55747 0.79335
 C1708 C 0.25501 0.56502 0.80610
 C1709 C 0.24819 0.57849 0.81287
 C1710 C 0.23392 0.58452 0.80691
 C1711 C 0.18936 0.58122 0.76885
 C1712 C 0.18185 0.57358 0.75622
 C1713 C 0.18865 0.56010 0.74946
 C1714 C 0.20301 0.55416 0.75531
 C1715 C 0.20437 0.59710 0.79511
 C1716 C 0.19843 0.60870 0.80111
 C1717 C 0.23214 0.54113 0.76764
 C1718 C 0.23763 0.52903 0.76226
 H1719 H 0.25336 0.54703 0.78849
 H1720 H 0.26609 0.56038 0.81078
 H1721 H 0.25397 0.58429 0.82279
 H1722 H 0.22908 0.59502 0.81258
 H1723 H 0.18360 0.59167 0.77372
 H1724 H 0.17069 0.57814 0.75166
 H1725 H 0.18277 0.55420 0.73966
 H1726 H 0.20783 0.54364 0.74966
 C1727 C 0.22538 1.05567 0.27413
 C1728 C 0.23336 1.06374 0.28657
 C1729 C 0.22640 1.07751 0.29349
 C1730 C 0.21151 1.08315 0.28791
 C1731 C 0.20357 1.07512 0.27543
 C1732 C 0.21054 1.06136 0.26849
 C1733 C 0.20235 1.05352 0.25605
 C1734 C 0.18767 1.05907 0.25066
 C1735 C 0.18084 1.07251 0.25748
 C1736 C 0.18865 1.08050 0.26971
 C1737 C 0.23454 1.08531 0.30599
 C1738 C 0.24915 1.07967 0.31149
 C1739 C 0.25597 1.06622 0.30470
 C1740 C 0.24823 1.05830 0.29238
 C1741 C 0.20434 1.09714 0.29508
 C1742 C 0.19843 1.10876 0.30107
 C1743 C 0.23218 1.04127 0.26748
 C1744 C 0.23768 1.02917 0.26210
 H1745 H 0.20718 1.04302 0.25037
 H1746 H 0.18154 1.05291 0.24116
 H1747 H 0.16941 1.07676 0.25328
 H1748 H 0.18285 1.09088 0.27464
 H1749 H 0.22971 1.09582 0.31166
 H1750 H 0.25519 1.08577 0.32107
 H1751 H 0.26733 1.06188 0.30902
 H1752 H 0.25402 1.04789 0.28747
 C1753 C 0.72540 0.44481 0.72496
 C1754 C 0.70868 0.44392 0.72286
 C1755 C 0.70174 0.42999 0.71625
 C1756 C 0.71154 0.41698 0.71192
 C1757 C 0.72825 0.41786 0.71405
 C1758 C 0.73522 0.43192 0.72036
 C1759 C 0.75199 0.43270 0.72193
 C1760 C 0.76157 0.41979 0.71781
 C1761 C 0.75473 0.40594 0.71194
 C1762 C 0.73828 0.40494 0.70999
 C1763 C 0.68503 0.42945 0.71410
 C1764 C 0.67543 0.44230 0.71835
 C1765 C 0.68221 0.45591 0.72484
 C1766 C 0.69863 0.45677 0.72712
 C1767 C 0.70446 0.40283 0.70496
 C1768 C 0.69856 0.39117 0.69905
 C1769 C 0.73243 0.45900 0.73186
 C1770 C 0.73802 0.47092 0.73752
 H1771 H 0.75786 0.44320 0.72651
 H1772 H 0.77436 0.42052 0.71926
 H1773 H 0.76221 0.39592 0.70882
 H1774 H 0.73352 0.39394 0.70531
 H1775 H 0.67920 0.41912 0.70911
 H1776 H 0.66268 0.44169 0.71658
 H1777 H 0.67470 0.46586 0.72811
 H1778 H 0.70333 0.46763 0.73218
 C1779 C 0.72541 -0.05568 0.22598
 C1780 C 0.73390 -0.06442 0.21434
 C1781 C 0.72690 -0.07813 0.20737
 C1782 C 0.71148 -0.08304 0.21211
 C1783 C 0.70301 -0.07431 0.22377
 C1784 C 0.71000 -0.06059 0.23074
 C1785 C 0.70127 -0.05201 0.24231
 C1786 C 0.68605 -0.05681 0.24683
 C1787 C 0.67921 -0.07023 0.24001
 C1788 C 0.68754 -0.07893 0.22862
 C1789 C 0.73555 -0.08661 0.19567
 C1790 C 0.75068 -0.08167 0.19098
 C1791 C 0.75753 -0.06826 0.19779
 C1792 C 0.74929 -0.05969 0.20936
 C1793 C 0.70430 -0.09699 0.20491
 C1794 C 0.69840 -0.10859 0.19891
 C1795 C 0.73233 -0.04139 0.23272
 C1796 C 0.73789 -0.02935 0.23813
 H1797 H 0.70608 -0.04149 0.24795
 H1798 H 0.67952 -0.05008 0.25566
 H1799 H 0.66738 -0.07391 0.24356
 H1800 H 0.68171 -0.08927 0.22365
 H1801 H 0.73073 -0.09712 0.19002
 H1802 H 0.75712 -0.08829 0.18199
 H1803 H 0.76928 -0.06446 0.19409
 H1804 H 0.75512 -0.04934 0.21431
 C1805 C 0.22493 0.44507 0.22466
 C1806 C 0.20861 0.44169 0.22731
 C1807 C 0.20170 0.42782 0.22058
 C1808 C 0.21117 0.41735 0.21139
 C1809 C 0.22741 0.42088 0.20852
 C1810 C 0.23424 0.43492 0.21497
 C1811 C 0.25031 0.43855 0.21139
 C1812 C 0.25942 0.42850 0.20184
 C1813 C 0.25286 0.41455 0.19588
 C1814 C 0.23704 0.41073 0.19913
 C1815 C 0.18530 0.42482 0.22314
 C1816 C 0.17599 0.43526 0.23206
 C1817 C 0.18276 0.44880 0.23868
 C1818 C 0.19889 0.45202 0.23641
 C1819 C 0.20412 0.40317 0.20456
 C1820 C 0.19828 0.39145 0.19878
 C1821 C 0.23203 0.45912 0.23168
 C1822 C 0.23774 0.47096 0.23736
 H1823 H 0.25600 0.44917 0.21591
 H1824 H 0.27170 0.43143 0.19927
 H1825 H 0.26005 0.40665 0.18868
 H1826 H 0.23244 0.39979 0.19416
 H1827 H 0.17948 0.41445 0.21822
 H1828 H 0.16345 0.43283 0.23380
 H1829 H 0.17547 0.45689 0.24557
 H1830 H 0.20360 0.46274 0.24176
 C1831 C 0.22566 -0.05526 0.72473
 C1832 C 0.23362 -0.07006 0.72574
 C1833 C 0.22637 -0.08395 0.71942
 C1834 C 0.21146 -0.08284 0.71162
 C1835 C 0.20370 -0.06794 0.71022
 C1836 C 0.21077 -0.05412 0.71688
 C1837 C 0.20276 -0.03936 0.71537
 C1838 C 0.18822 -0.03829 0.70745
 C1839 C 0.18132 -0.05181 0.70092
 C1840 C 0.18891 -0.06650 0.70227
 C1841 C 0.23431 -0.09873 0.72105
 C1842 C 0.24912 -0.09970 0.72849
 C1843 C 0.25640 -0.08604 0.73429
 C1844 C 0.24881 -0.07135 0.73291
 C1845 C 0.20429 -0.09694 0.70472
 C1846 C 0.19842 -0.10863 0.69888
 C1847 C 0.23265 -0.04121 0.73187
 C1848 C 0.23819 -0.02933 0.73765
 H1849 H 0.20767 -0.02849 0.72021
 H1850 H 0.18229 -0.02690 0.70636
 H1851 H 0.17003 -0.05092 0.69476
 H1852 H 0.18307 -0.07667 0.69698
 H1853 H 0.22918 -0.10966 0.71662
 H1854 H 0.25499 -0.11110 0.72970
 H1855 H 0.26793 -0.08684 0.74001
 H1856 H 0.25494 -0.06105 0.73761
 C1857 C 0.27529 0.27442 0.44499
 C1858 C 0.27790 0.26491 0.43136
 C1859 C 0.28423 0.27189 0.41733
 C1860 C 0.28843 0.28819 0.41721
 C1861 C 0.28615 0.29763 0.43097
 C1862 C 0.27947 0.29074 0.44488
 C1863 C 0.27725 0.30043 0.45848
 C1864 C 0.28156 0.31643 0.45834
 C1865 C 0.28813 0.32315 0.44475
 C1866 C 0.29041 0.31392 0.43118
 C1867 C 0.28625 0.26227 0.40367
 C1868 C 0.28229 0.24617 0.40392
 C1869 C 0.27644 0.23927 0.41775
 C1870 C 0.27431 0.24847 0.43137
 C1871 C 0.29536 0.29519 0.40304
 C1872 C 0.30117 0.30099 0.39131
 C1873 C 0.26828 0.26748 0.45913
 C1874 C 0.26255 0.26194 0.47104
 H1875 H 0.27223 0.29574 0.46937
 H1876 H 0.27983 0.32365 0.46886
 H1877 H 0.29149 0.33558 0.44470
 H1878 H 0.29557 0.31968 0.42089
 H1879 H 0.29087 0.26707 0.39266
 H1880 H 0.28385 0.23901 0.39334
 H1881 H 0.27343 0.22676 0.41791
 H1882 H 0.26968 0.24258 0.44184
 C1883 C 0.27579 0.77447 -0.05525
 C1884 C 0.27807 0.76508 -0.06903
 C1885 C 0.28436 0.77209 -0.08307
 C1886 C 0.28886 0.78833 -0.08308
 C1887 C 0.28695 0.79763 -0.06917
 C1888 C 0.28031 0.79071 -0.05524
 C1889 C 0.27846 0.80027 -0.04151
 C1890 C 0.28311 0.81618 -0.04151
 C1891 C 0.28966 0.82292 -0.05511
 C1892 C 0.29156 0.81382 -0.06881
 C1893 C 0.28605 0.76258 -0.09685
 C1894 C 0.28181 0.74655 -0.09671
 C1895 C 0.27600 0.73961 -0.08288
 C1896 C 0.27419 0.74870 -0.06914
 C1897 C 0.29573 0.79541 -0.09728
 C1898 C 0.30153 0.80133 -0.10899
 C1899 C 0.26877 0.76751 -0.04109
 C1900 C 0.26304 0.76198 -0.02917
 H1901 H 0.27349 0.79556 -0.03061
 H1902 H 0.28167 0.82331 -0.03089
 H1903 H 0.29329 0.83528 -0.05504
 H1904 H 0.29672 0.81960 -0.07909
 H1905 H 0.29063 0.76742 -0.10785
 H1906 H 0.28312 0.73947 -0.10737
 H1907 H 0.27276 0.72715 -0.08281
 H1908 H 0.26958 0.74279 -0.05868
 C1909 C 0.77523 0.27480 -0.05515
 C1910 C 0.77754 0.26543 -0.06894
 C1911 C 0.78378 0.27249 -0.08297
 C1912 C 0.78820 0.28875 -0.08295
 C1913 C 0.78624 0.29803 -0.06904
 C1914 C 0.77965 0.29106 -0.05512
 C1915 C 0.77775 0.30060 -0.04138
 C1916 C 0.78229 0.31654 -0.04137
 C1917 C 0.78878 0.32334 -0.05497
 C1918 C 0.79075 0.31425 -0.06868
 C1919 C 0.78550 0.26301 -0.09676
 C1920 C 0.78134 0.24696 -0.09664
 C1921 C 0.77558 0.23997 -0.08282
 C1922 C 0.77375 0.24903 -0.06906
 C1923 C 0.79503 0.29584 -0.09714
 C1924 C 0.80081 0.30173 -0.10886
 C1925 C 0.76827 0.26778 -0.04101
 C1926 C 0.76258 0.26220 -0.02910
 H1927 H 0.77282 0.29585 -0.03048
 H1928 H 0.78080 0.32365 -0.03074
 H1929 H 0.79233 0.33572 -0.05489
 H1930 H 0.79586 0.32007 -0.07895
 H1931 H 0.79005 0.26788 -0.10777
 H1932 H 0.78267 0.23990 -0.10732
 H1933 H 0.77241 0.22749 -0.08276
 H1934 H 0.76918 0.24308 -0.05861
 C1935 C 0.77527 0.77475 0.44498
 C1936 C 0.77760 0.76537 0.43120
 C1937 C 0.78385 0.77241 0.41717
 C1938 C 0.78826 0.78867 0.41717
 C1939 C 0.78627 0.79797 0.43107
 C1940 C 0.77967 0.79101 0.44499
 C1941 C 0.77775 0.80057 0.45872
 C1942 C 0.78228 0.81652 0.45871
 C1943 C 0.78878 0.82330 0.44511
 C1944 C 0.79077 0.81420 0.43141
 C1945 C 0.78559 0.76292 0.40339
 C1946 C 0.78145 0.74686 0.40353
 C1947 C 0.77568 0.73989 0.41736
 C1948 C 0.77383 0.74896 0.43109
 C1949 C 0.79513 0.79576 0.40300
 C1950 C 0.80094 0.80167 0.39130
 C1951 C 0.76831 0.76774 0.45913
 C1952 C 0.76262 0.76218 0.47105
 H1953 H 0.77281 0.79583 0.46961
 H1954 H 0.78078 0.82364 0.46933
 H1955 H 0.79232 0.83568 0.44517
 H1956 H 0.79589 0.82001 0.42114
 H1957 H 0.79014 0.76778 0.39238
 H1958 H 0.78280 0.73979 0.39286
 H1959 H 0.77252 0.72741 0.41742
 H1960 H 0.76926 0.74302 0.44155
 C1961 C 0.72552 0.27524 0.55512
 C1962 C 0.73330 0.27366 0.56997
 C1963 C 0.72616 0.28002 0.58391
 C1964 C 0.71157 0.28841 0.58284
 C1965 C 0.70396 0.29031 0.56793
 C1966 C 0.71092 0.28363 0.55404
 C1967 C 0.70306 0.28563 0.53928
 C1968 C 0.68877 0.29401 0.53826
 C1969 C 0.68199 0.30057 0.55184
 C1970 C 0.68945 0.29877 0.56653
 C1971 C 0.73390 0.27782 0.59870
 C1972 C 0.74839 0.26976 0.59965
 C1973 C 0.75557 0.26391 0.58595
 C1974 C 0.74818 0.26585 0.57124
 C1975 C 0.70452 0.29533 0.59702
 C1976 C 0.69869 0.30114 0.60876
 C1977 C 0.73238 0.26814 0.54097
 C1978 C 0.73781 0.26240 0.52901
 H1979 H 0.70788 0.28080 0.52836
 H1980 H 0.68294 0.29545 0.52687
 H1981 H 0.67090 0.30710 0.55099
 H1982 H 0.68371 0.30410 0.57675
 H1983 H 0.72885 0.28227 0.60966
 H1984 H 0.75411 0.26812 0.61106
 H1985 H 0.76685 0.25772 0.58673
 H1986 H 0.75422 0.26111 0.56091
 C1987 C 0.72572 0.77553 1.05527
 C1988 C 0.71174 0.78489 1.05396
 C1989 C 0.70474 0.79159 1.06781
 C1990 C 0.71166 0.78874 1.08290
 C1991 C 0.72566 0.77942 1.08419
 C1992 C 0.73286 0.77302 1.07030
 C1993 C 0.74717 0.76426 1.07182
 C1994 C 0.75394 0.76147 1.08669
 C1995 C 0.74667 0.76737 1.10032
 C1996 C 0.73274 0.77632 1.09915
 C1997 C 0.69087 0.80104 1.06620
 C1998 C 0.68409 0.80378 1.05133
 C1999 C 0.69091 0.79720 1.03778
 C2000 C 0.70457 0.78785 1.03901
 C2001 C 0.70454 0.79563 1.09705
 C2002 C 0.69867 0.80143 1.10877
 C2003 C 0.73259 0.76838 1.04114
 C2004 C 0.73800 0.76261 1.02919
 H2005 H 0.75326 0.75945 1.06155
 H2006 H 0.76482 0.75461 1.08765
 H2007 H 0.75190 0.76507 1.11186
 H2008 H 0.72760 0.78077 1.11008
 H2009 H 0.68513 0.80643 1.07638
 H2010 H 0.67349 0.81106 1.05031
 H2011 H 0.68560 0.79937 1.02626
 H2012 H 0.70945 0.78304 1.02812
 C2013 C 0.22464 0.27445 1.05525
 C2014 C 0.22588 0.26656 1.07007
 C2015 C 0.21958 0.27378 1.08399
 C2016 C 0.21157 0.28857 1.08292
 C2017 C 0.21003 0.29630 1.06804
 C2018 C 0.21666 0.28927 1.05418
 C2019 C 0.21503 0.29726 1.03944
 C2020 C 0.20702 0.31175 1.03843
 C2021 C 0.20049 0.31861 1.05198
 C2022 C 0.20195 0.31103 1.06664
 C2023 C 0.22144 0.26591 1.09876
 C2024 C 0.22911 0.25123 1.09970
 C2025 C 0.23492 0.24399 1.08602
 C2026 C 0.23330 0.25149 1.07133
 C2027 C 0.20464 0.29568 1.09704
 C2028 C 0.19880 0.30156 1.10873
 C2029 C 0.23165 0.26744 1.04113
 C2030 C 0.23734 0.26191 1.02920
 H2031 H 0.21985 0.29238 1.02855
 H2032 H 0.20585 0.31768 1.02706
 H2033 H 0.19425 0.32985 1.05113
 H2034 H 0.19667 0.31683 1.07684
 H2035 H 0.21701 0.27101 1.10971
 H2036 H 0.23050 0.24541 1.11110
 H2037 H 0.24082 0.23256 1.08680
 H2038 H 0.23800 0.24540 1.06102
 C2039 C 0.22461 0.77461 0.55499
 C2040 C 0.21555 0.78878 0.55372
 C2041 C 0.20890 0.79582 0.56757
 C2042 C 0.21148 0.78874 0.58263
 C2043 C 0.22056 0.77459 0.58390
 C2044 C 0.22690 0.76736 0.57000
 C2045 C 0.23541 0.75290 0.57149
 C2046 C 0.23800 0.74602 0.58634
 C2047 C 0.23216 0.75331 0.59998
 C2048 C 0.22345 0.76739 0.59884
 C2049 C 0.19974 0.80988 0.56599
 C2050 C 0.19725 0.81681 0.55114
 C2051 C 0.20379 0.80997 0.53760
 C2052 C 0.21286 0.79612 0.53879
 C2053 C 0.20455 0.79586 0.59676
 C2054 C 0.19871 0.80175 0.60846
 C2055 C 0.23167 0.76765 0.54087
 C2056 C 0.23741 0.76214 0.52894
 H2057 H 0.24016 0.74678 0.56122
 H2058 H 0.24468 0.73503 0.58728
 H2059 H 0.23432 0.74799 0.61150
 H2060 H 0.21904 0.77255 0.60977
 H2061 H 0.19440 0.81566 0.57617
 H2062 H 0.19019 0.82755 0.55015
 H2063 H 0.20181 0.81539 0.52609
 H2064 H 0.21765 0.79121 0.52790
 C2065 C 0.27541 0.72562 0.55501
 C2066 C 0.27960 0.70929 0.55510
 C2067 C 0.28622 0.70235 0.56903
 C2068 C 0.28843 0.71173 0.58283
 C2069 C 0.28423 0.72805 0.58273
 C2070 C 0.27797 0.73508 0.56869
 C2071 C 0.27439 0.75153 0.56871
 C2072 C 0.27645 0.76068 0.58236
 C2073 C 0.28224 0.75373 0.59620
 C2074 C 0.28619 0.73763 0.59642
 C2075 C 0.29050 0.68606 0.56878
 C2076 C 0.28828 0.67687 0.55517
 C2077 C 0.28176 0.68364 0.54158
 C2078 C 0.27744 0.69965 0.54147
 C2079 C 0.29529 0.70465 0.59702
 C2080 C 0.30109 0.69877 0.60874
 C2081 C 0.26843 0.73261 0.54086
 C2082 C 0.26273 0.73816 0.52893
 H2083 H 0.26981 0.75746 0.55824
 H2084 H 0.27344 0.77321 0.58222
 H2085 H 0.28374 0.76086 0.60680
 H2086 H 0.29076 0.73279 0.60744
 H2087 H 0.29563 0.68026 0.57906
 H2088 H 0.29166 0.66444 0.55519
 H2089 H 0.28007 0.67645 0.53103
 H2090 H 0.27247 0.70437 0.53058
 C2091 C 0.27531 0.22534 1.05517
 C2092 C 0.28058 0.20933 1.05486
 C2093 C 0.28722 0.20237 1.06875
 C2094 C 0.28837 0.21140 1.08291
 C2095 C 0.28305 0.22739 1.08323
 C2096 C 0.27677 0.23447 1.06923
 C2097 C 0.27209 0.25064 1.06967
 C2098 C 0.27306 0.25941 1.08368
 C2099 C 0.27885 0.25238 1.09748
 C2100 C 0.28389 0.23658 1.09730
 C2101 C 0.29259 0.18641 1.06812
 C2102 C 0.29141 0.17757 1.05416
 C2103 C 0.28487 0.18436 1.04058
 C2104 C 0.27949 0.20005 1.04085
 C2105 C 0.29530 0.20434 1.09706
 C2106 C 0.30114 0.19851 1.10877
 C2107 C 0.26831 0.23234 1.04105
 C2108 C 0.26259 0.23789 1.02914
 H2109 H 0.26747 0.25662 1.05924
 H2110 H 0.26920 0.27170 1.08386
 H2111 H 0.27950 0.25920 1.10836
 H2112 H 0.28842 0.23166 1.10830
 H2113 H 0.29777 0.18061 1.07837
 H2114 H 0.29559 0.16539 1.05389
 H2115 H 0.28398 0.17744 1.02976
 H2116 H 0.27456 0.20481 1.02996
 C2117 C 0.77443 0.72458 1.05522
 C2118 C 0.79080 0.72049 1.05538
 C2119 C 0.79768 0.71381 1.06930
 C2120 C 0.78820 0.71143 1.08301
 C2121 C 0.77183 0.71550 1.08283
 C2122 C 0.76486 0.72183 1.06880
 C2123 C 0.74835 0.72528 1.06871
 C2124 C 0.73910 0.72304 1.08228
 C2125 C 0.74599 0.71719 1.09613
 C2126 C 0.76214 0.71336 1.09644
 C2127 C 0.81403 0.70966 1.06914
 C2128 C 0.82332 0.71206 1.05562
 C2129 C 0.81660 0.71862 1.04202
 C2130 C 0.80054 0.72282 1.04183
 C2131 C 0.79522 0.70454 1.09720
 C2132 C 0.80106 0.69876 1.10894
 C2133 C 0.76752 0.73166 1.04108
 C2134 C 0.76207 0.73743 1.02916
 H2135 H 0.74247 0.72991 1.05824
 H2136 H 0.72654 0.72595 1.08208
 H2137 H 0.73878 0.71555 1.10667
 H2138 H 0.76694 0.70874 1.10745
 H2139 H 0.81980 0.70451 1.07943
 H2140 H 0.83580 0.70879 1.05570
 H2141 H 0.82387 0.72045 1.03154
 H2142 H 0.79586 0.72782 1.03094
 C2143 C 0.77430 0.22438 0.55503
 C2144 C 0.79038 0.21927 0.55481
 C2145 C 0.79731 0.21261 0.56871
 C2146 C 0.78816 0.21125 0.58279
 C2147 C 0.77208 0.21634 0.58299
 C2148 C 0.76504 0.22265 0.56898
 C2149 C 0.74878 0.22708 0.56930
 C2150 C 0.73986 0.22584 0.58322
 C2151 C 0.74685 0.22004 0.59704
 C2152 C 0.76274 0.21523 0.59697
 C2153 C 0.81336 0.20744 0.56817
 C2154 C 0.82231 0.20882 0.55429
 C2155 C 0.81555 0.21536 0.54070
 C2156 C 0.79979 0.22056 0.54088
 C2157 C 0.79521 0.20437 0.59695
 C2158 C 0.80109 0.19857 0.60867
 C2159 C 0.76738 0.23148 0.54091
 C2160 C 0.76192 0.23726 0.52900
 H2161 H 0.74283 0.23171 0.55886
 H2162 H 0.72750 0.22951 0.58332
 H2163 H 0.73992 0.21918 0.60785
 H2164 H 0.76762 0.21068 0.60797
 H2165 H 0.81914 0.20226 0.57844
 H2166 H 0.83456 0.20478 0.55409
 H2167 H 0.82256 0.21639 0.52994
 H2168 H 0.79505 0.22550 0.52999
 C2169 C 0.72457 0.72577 0.44498
 C2170 C 0.71576 0.71146 0.44620
 C2171 C 0.70911 0.70445 0.43233
 C2172 C 0.71147 0.71169 0.41731
 C2173 C 0.72029 0.72599 0.41610
 C2174 C 0.72663 0.73319 0.43001
 C2175 C 0.73489 0.74779 0.42858
 C2176 C 0.73724 0.75484 0.41377
 C2177 C 0.73140 0.74759 0.40012
 C2178 C 0.72293 0.73338 0.40121
 C2179 C 0.70020 0.69024 0.43386
 C2180 C 0.69794 0.68314 0.44866
 C2181 C 0.70448 0.68996 0.46222
 C2182 C 0.71331 0.70395 0.46107
 C2183 C 0.70459 0.70458 0.40317
 C2184 C 0.69879 0.69870 0.39146
 C2185 C 0.73162 0.73271 0.45911
 C2186 C 0.73735 0.73820 0.47104
 H2187 H 0.73964 0.75387 0.43886
 H2188 H 0.74374 0.76592 0.41287
 H2189 H 0.73336 0.75305 0.38863
 H2190 H 0.71851 0.72826 0.39027
 H2191 H 0.69487 0.68448 0.42367
 H2192 H 0.69106 0.67229 0.44961
 H2193 H 0.70268 0.68440 0.47369
 H2194 H 0.71810 0.70882 0.47197
 C2195 C 0.72459 0.22571 -0.05523
 C2196 C 0.71581 0.21137 -0.05402
 C2197 C 0.70919 0.20434 -0.06789
 C2198 C 0.71153 0.21158 -0.08291
 C2199 C 0.72029 0.22593 -0.08411
 C2200 C 0.72661 0.23315 -0.07020
 C2201 C 0.73480 0.24777 -0.07162
 C2202 C 0.73711 0.25485 -0.08642
 C2203 C 0.73128 0.24760 -0.10007
 C2204 C 0.72288 0.23335 -0.09899
 C2205 C 0.70030 0.19012 -0.06636
 C2206 C 0.69805 0.18302 -0.05156
 C2207 C 0.70457 0.18985 -0.03800
 C2208 C 0.71337 0.20386 -0.03915
 C2209 C 0.70470 0.20442 -0.09706
 C2210 C 0.69892 0.19848 -0.10876
 C2211 C 0.73163 0.23267 -0.04109
 C2212 C 0.73735 0.23816 -0.02915
 H2213 H 0.73955 0.25386 -0.06133
 H2214 H 0.74357 0.26597 -0.08731
 H2215 H 0.73320 0.25309 -0.11156
 H2216 H 0.71846 0.22822 -0.10993
 H2217 H 0.69498 0.18435 -0.07655
 H2218 H 0.69119 0.17216 -0.05061
 H2219 H 0.70278 0.18429 -0.02653
 H2220 H 0.71816 0.20874 -0.02825
 C2221 C 0.22483 0.72566 -0.05522
 C2222 C 0.21595 0.71139 -0.05397
 C2223 C 0.20927 0.70438 -0.06782
 C2224 C 0.21166 0.71158 -0.08285
 C2225 C 0.22054 0.72585 -0.08409
 C2226 C 0.22691 0.73305 -0.07019
 C2227 C 0.23523 0.74761 -0.07165
 C2228 C 0.23761 0.75462 -0.08647
 C2229 C 0.23173 0.74738 -0.10010
 C2230 C 0.22321 0.73320 -0.09899
 C2231 C 0.20029 0.69022 -0.06626
 C2232 C 0.19799 0.68316 -0.05144
 C2233 C 0.20456 0.68998 -0.03790
 C2234 C 0.21346 0.70392 -0.03908
 C2235 C 0.20476 0.70447 -0.09698
 C2236 C 0.19895 0.69859 -0.10869
 C2237 C 0.23191 0.73259 -0.04110
 C2238 C 0.23766 0.73808 -0.02918
 H2239 H 0.24001 0.75368 -0.06137
 H2240 H 0.24415 0.76568 -0.08738
 H2241 H 0.23371 0.75282 -0.11160
 H2242 H 0.21875 0.72809 -0.10992
 H2243 H 0.19493 0.68447 -0.07644
 H2244 H 0.19106 0.67235 -0.05047
 H2245 H 0.20273 0.68445 -0.02642
 H2246 H 0.21827 0.70879 -0.02819
 C2247 C 0.22454 0.22559 0.44489
 C2248 C 0.22684 0.23288 0.42989
 C2249 C 0.22050 0.22569 0.41598
 C2250 C 0.21146 0.21153 0.41721
 C2251 C 0.20887 0.20441 0.43226
 C2252 C 0.21551 0.21141 0.44613
 C2253 C 0.21284 0.20403 0.46103
 C2254 C 0.20380 0.19018 0.46219
 C2255 C 0.19726 0.18337 0.44863
 C2256 C 0.19974 0.19035 0.43381
 C2257 C 0.22337 0.23294 0.40106
 C2258 C 0.23207 0.24701 0.39995
 C2259 C 0.23792 0.25425 0.41359
 C2260 C 0.23534 0.24733 0.42843
 C2261 C 0.20458 0.20443 0.40306
 C2262 C 0.19878 0.19857 0.39134
 C2263 C 0.23156 0.23253 0.45904
 C2264 C 0.23726 0.23801 0.47099
 H2265 H 0.21762 0.20890 0.47193
 H2266 H 0.20184 0.18472 0.47368
 H2267 H 0.19023 0.17263 0.44959
 H2268 H 0.19440 0.18461 0.42361
 H2269 H 0.21895 0.22782 0.39012
 H2270 H 0.23420 0.25236 0.38844
 H2271 H 0.24460 0.26522 0.41268
 H2272 H 0.24010 0.25341 0.43872
 C2273 C 0.27505 0.44466 0.72570
 C2274 C 0.29082 0.44510 0.71974
 C2275 C 0.29764 0.43124 0.71284
 C2276 C 0.28863 0.41704 0.71192
 C2277 C 0.27284 0.41661 0.71787
 C2278 C 0.26605 0.43045 0.72483
 C2279 C 0.25028 0.42972 0.73076
 C2280 C 0.24144 0.41573 0.72977
 C2281 C 0.24806 0.40222 0.72289
 C2282 C 0.26358 0.40258 0.71700
 C2283 C 0.31343 0.43197 0.70697
 C2284 C 0.32223 0.44600 0.70787
 C2285 C 0.31556 0.45955 0.71459
 C2286 C 0.30004 0.45918 0.72048
 C2287 C 0.29558 0.40291 0.70480
 C2288 C 0.30137 0.39121 0.69886
 C2289 C 0.26805 0.45889 0.73251
 C2290 C 0.26242 0.47088 0.73798
 H2291 H 0.24461 0.43993 0.73620
 H2292 H 0.22939 0.41538 0.73434
 H2293 H 0.24115 0.39138 0.72211
 H2294 H 0.26821 0.39177 0.71177
 H2295 H 0.31914 0.42175 0.70162
 H2296 H 0.33428 0.44634 0.70331
 H2297 H 0.32244 0.47042 0.71525
 H2298 H 0.29539 0.47004 0.72560
 C2299 C 0.27527 0.94489 0.22552
 C2300 C 0.29109 0.94532 0.21966
 C2301 C 0.29791 0.93147 0.21277
 C2302 C 0.28887 0.91730 0.21173
 C2303 C 0.27305 0.91689 0.21757
 C2304 C 0.26624 0.93072 0.22454
 C2305 C 0.25042 0.93002 0.23034
 C2306 C 0.24155 0.91606 0.22924
 C2307 C 0.24818 0.90255 0.22236
 C2308 C 0.26374 0.90289 0.21659
 C2309 C 0.31374 0.93218 0.20699
 C2310 C 0.32257 0.94618 0.20798
 C2311 C 0.31588 0.95973 0.21470
 C2312 C 0.30033 0.95938 0.22049
 C2313 C 0.29584 0.90318 0.20461
 C2314 C 0.30164 0.89147 0.19868
 C2315 C 0.26828 0.95911 0.23236
 C2316 C 0.26263 0.97108 0.23785
 H2317 H 0.24474 0.94023 0.23577
 H2318 H 0.22946 0.91574 0.23372
 H2319 H 0.24124 0.89174 0.22149
 H2320 H 0.26837 0.89208 0.21135
 H2321 H 0.31946 0.92195 0.20165
 H2322 H 0.33465 0.94651 0.20350
 H2323 H 0.32278 0.97058 0.21543
 H2324 H 0.29567 0.97023 0.22561
 C2325 C 0.77455 0.44495 0.22462
 C2326 C 0.76804 0.42977 0.22789
 C2327 C 0.77534 0.41592 0.22149
 C2328 C 0.78880 0.41737 0.21145
 C2329 C 0.79510 0.43258 0.20789
 C2330 C 0.78800 0.44641 0.21456
 C2331 C 0.79456 0.46148 0.21088
 C2332 C 0.80769 0.46285 0.20083
 C2333 C 0.81459 0.44932 0.19427
 C2334 C 0.80842 0.43434 0.19772
 C2335 C 0.76888 0.40084 0.22530
 C2336 C 0.75546 0.39950 0.23495
 C2337 C 0.74808 0.41307 0.24088
 C2338 C 0.75425 0.42806 0.23743
 C2339 C 0.79597 0.40326 0.20450
 C2340 C 0.80183 0.39156 0.19862
 C2341 C 0.76756 0.45908 0.23170
 C2342 C 0.76204 0.47101 0.23744
 H2343 H 0.78960 0.47236 0.21565
 H2344 H 0.81253 0.47447 0.19810
 H2345 H 0.82478 0.45045 0.18645
 H2346 H 0.81420 0.42417 0.19233
 H2347 H 0.77413 0.38995 0.22087
 H2348 H 0.75070 0.38787 0.23778
 H2349 H 0.73758 0.41196 0.24827
 H2350 H 0.74811 0.43828 0.24229
 C2351 C 0.77456 0.94514 0.72471
 C2352 C 0.76705 0.93018 0.72655
 C2353 C 0.77430 0.91627 0.72020
 C2354 C 0.78875 0.91747 0.71159
 C2355 C 0.79607 0.93249 0.70943
 C2356 C 0.78901 0.94635 0.71609
 C2357 C 0.79661 0.96122 0.71383
 C2358 C 0.81073 0.96237 0.70519
 C2359 C 0.81760 0.94882 0.69864
 C2360 C 0.81041 0.93402 0.70071
 C2361 C 0.76681 0.90139 0.72262
 C2362 C 0.75247 0.90030 0.73090
 C2363 C 0.74519 0.91395 0.73676
 C2364 C 0.75232 0.92876 0.73460
 C2365 C 0.79592 0.90332 0.70469
 C2366 C 0.80179 0.89161 0.69883
 C2367 C 0.76757 0.95927 0.73180
 C2368 C 0.76203 0.97119 0.73756
 H2369 H 0.79170 0.97211 0.71864
 H2370 H 0.81636 0.97384 0.70354
 H2371 H 0.82855 0.94977 0.69191
 H2372 H 0.81622 0.92383 0.69539
 H2373 H 0.77195 0.89046 0.71817
 H2374 H 0.74694 0.88881 0.73270
 H2375 H 0.73401 0.91305 0.74312
 H2376 H 0.74620 0.93904 0.73936
 C2377 C 0.72567 0.55511 0.72496
 C2378 C 0.73179 0.57035 0.72863
 C2379 C 0.72447 0.58417 0.72217
 C2380 C 0.71137 0.58264 0.71167
 C2381 C 0.70547 0.56737 0.70772
 C2382 C 0.71258 0.55357 0.71445
 C2383 C 0.70641 0.53844 0.71035
 C2384 C 0.69366 0.53698 0.69986
 C2385 C 0.68675 0.55048 0.69323
 C2386 C 0.69253 0.56552 0.69709
 C2387 C 0.73056 0.59930 0.72634
 C2388 C 0.74365 0.60073 0.73643
 C2389 C 0.75104 0.58721 0.74244
 C2390 C 0.74522 0.57216 0.73863
 C2391 C 0.70418 0.59674 0.70469
 C2392 C 0.69831 0.60844 0.69881
 C2393 C 0.73269 0.54099 0.73205
 C2394 C 0.73822 0.52904 0.73775
 H2395 H 0.71141 0.52758 0.71514
 H2396 H 0.68913 0.52532 0.69682
 H2397 H 0.67688 0.54928 0.68505
 H2398 H 0.68677 0.57566 0.69163
 H2399 H 0.72529 0.61017 0.72186
 H2400 H 0.74813 0.61240 0.73950
 H2401 H 0.76129 0.58840 0.75015
 H2402 H 0.75138 0.56198 0.74356
 C2403 C 0.72506 0.05463 0.22478
 C2404 C 0.70877 0.05810 0.22749
 C2405 C 0.70185 0.07198 0.22072
 C2406 C 0.71130 0.08237 0.21143
 C2407 C 0.72751 0.07873 0.20848
 C2408 C 0.73435 0.06470 0.21499
 C2409 C 0.75039 0.06098 0.21137
 C2410 C 0.75946 0.07092 0.20168
 C2411 C 0.75290 0.08486 0.19566
 C2412 C 0.73712 0.08878 0.19897
 C2413 C 0.68548 0.07507 0.22336
 C2414 C 0.67620 0.06471 0.23239
 C2415 C 0.68296 0.05117 0.23904
 C2416 C 0.69907 0.04786 0.23670
 C2417 C 0.70426 0.09660 0.20459
 C2418 C 0.69846 0.10836 0.19879
 C2419 C 0.73215 0.04055 0.23184
 C2420 C 0.73785 0.02870 0.23756
 H2421 H 0.75608 0.05037 0.21593
 H2422 H 0.77172 0.06791 0.19904
 H2423 H 0.76007 0.09268 0.18834
 H2424 H 0.73252 0.09970 0.19394
 H2425 H 0.67967 0.08544 0.21841
 H2426 H 0.66367 0.06720 0.23419
 H2427 H 0.67568 0.04314 0.24600
 H2428 H 0.70376 0.03714 0.24206
 C2429 C 0.22515 0.55497 0.22471
 C2430 C 0.23500 0.56782 0.22009
 C2431 C 0.22805 0.58189 0.21376
 C2432 C 0.21134 0.58282 0.21161
 C2433 C 0.20153 0.56980 0.21588
 C2434 C 0.20844 0.55586 0.22252
 C2435 C 0.19839 0.54301 0.22672
 C2436 C 0.18198 0.54389 0.22436
 C2437 C 0.17522 0.55750 0.21783
 C2438 C 0.18482 0.57035 0.21363
 C2439 C 0.23810 0.59476 0.20967
 C2440 C 0.25456 0.59371 0.21163
 C2441 C 0.26137 0.57984 0.21754
 C2442 C 0.25176 0.56698 0.22167
 C2443 C 0.20428 0.59702 0.20474
 C2444 C 0.19846 0.60877 0.19890
 C2445 C 0.23216 0.54083 0.23171
 C2446 C 0.23777 0.52893 0.23741
 H2447 H 0.20308 0.53215 0.23179
 H2448 H 0.17447 0.53393 0.22759
 H2449 H 0.16247 0.55810 0.21599
 H2450 H 0.17901 0.58068 0.20859
 H2451 H 0.23337 0.60577 0.20494
 H2452 H 0.26206 0.60370 0.20850
 H2453 H 0.27415 0.57907 0.21901
 H2454 H 0.25761 0.55646 0.22626
 C2455 C 0.22493 0.05460 0.72476
 C2456 C 0.20862 0.05799 0.72745
 C2457 C 0.20165 0.07187 0.72073
 C2458 C 0.21105 0.08235 0.71148
 C2459 C 0.22729 0.07879 0.70855
 C2460 C 0.23418 0.06476 0.71501
 C2461 C 0.25023 0.06111 0.71136
 C2462 C 0.25925 0.07111 0.70168
 C2463 C 0.25265 0.08505 0.69573
 C2464 C 0.23685 0.08891 0.69908
 C2465 C 0.18526 0.07488 0.72336
 C2466 C 0.17600 0.06443 0.73229
 C2467 C 0.18281 0.05087 0.73888
 C2468 C 0.19894 0.04766 0.73657
 C2469 C 0.20394 0.09654 0.70463
 C2470 C 0.19809 0.10830 0.69883
 C2471 C 0.23210 0.04052 0.73178
 C2472 C 0.23786 0.02868 0.73748
 H2473 H 0.25597 0.05051 0.71589
 H2474 H 0.27152 0.06815 0.69901
 H2475 H 0.25978 0.09292 0.68844
 H2476 H 0.23222 0.09984 0.69410
 H2477 H 0.17942 0.08525 0.71846
 H2478 H 0.16346 0.06685 0.73407
 H2479 H 0.17555 0.04277 0.74577
 H2480 H 0.20368 0.03693 0.74190
 C2481 C 0.27443 0.55509 0.27517
 C2482 C 0.28739 0.55360 0.28585
 C2483 C 0.29445 0.56743 0.29252
 C2484 C 0.28865 0.58269 0.28833
 C2485 C 0.27567 0.58418 0.27768
 C2486 C 0.26838 0.57033 0.27127
 C2487 C 0.25509 0.57211 0.26109
 C2488 C 0.24936 0.58715 0.25707
 C2489 C 0.25672 0.60069 0.26302
 C2490 C 0.26969 0.59929 0.27327
 C2491 C 0.30727 0.56563 0.30330
 C2492 C 0.31297 0.55060 0.30737
 C2493 C 0.30610 0.53707 0.30081
 C2494 C 0.29347 0.53847 0.29016
 C2495 C 0.29583 0.59683 0.29520
 C2496 C 0.30169 0.60855 0.30102
 C2497 C 0.26750 0.54093 0.26810
 C2498 C 0.26204 0.52896 0.26240
 H2499 H 0.24897 0.56192 0.25618
 H2500 H 0.23920 0.58831 0.24923
 H2501 H 0.25232 0.61235 0.25975
 H2502 H 0.27495 0.61017 0.27770
 H2503 H 0.31301 0.57579 0.30872
 H2504 H 0.32277 0.54945 0.31566
 H2505 H 0.31058 0.52541 0.30401
 H2506 H 0.28850 0.52759 0.28541
 C2507 C 0.27483 0.05499 0.77511
 C2508 C 0.27689 0.06902 0.76601
 C2509 C 0.28392 0.08269 0.77305
 C2510 C 0.28880 0.08229 0.78915
 C2511 C 0.28663 0.06831 0.79829
 C2512 C 0.27965 0.05462 0.79125
 C2513 C 0.27766 0.04077 0.80064
 C2514 C 0.28237 0.04049 0.81652
 C2515 C 0.28917 0.05389 0.82340
 C2516 C 0.29131 0.06767 0.81444
 C2517 C 0.28593 0.09656 0.76373
 C2518 C 0.28108 0.09695 0.74791
 C2519 C 0.27416 0.08363 0.74104
 C2520 C 0.27206 0.06977 0.74991
 C2521 C 0.29595 0.09630 0.79628
 C2522 C 0.30180 0.10804 0.80207
 C2523 C 0.26795 0.04088 0.76791
 C2524 C 0.26243 0.02890 0.76225
 H2525 H 0.27243 0.03004 0.79583
 H2526 H 0.28074 0.02981 0.82352
 H2527 H 0.29280 0.05361 0.83574
 H2528 H 0.29665 0.07780 0.82032
 H2529 H 0.29124 0.10725 0.76853
 H2530 H 0.28270 0.10767 0.74096
 H2531 H 0.27044 0.08410 0.72878
 H2532 H 0.26663 0.05969 0.74402
 C2533 C 0.77496 0.55491 0.77553
 C2534 C 0.79164 0.55568 0.77793
 C2535 C 0.79857 0.56961 0.78456
 C2536 C 0.78880 0.58274 0.78859
 C2537 C 0.77212 0.58196 0.78619
 C2538 C 0.76515 0.56791 0.77987
 C2539 C 0.74841 0.56724 0.77803
 C2540 C 0.73885 0.58025 0.78190
 C2541 C 0.74570 0.59408 0.78780
 C2542 C 0.76212 0.59497 0.79002
 C2543 C 0.81524 0.57003 0.78701
 C2544 C 0.82481 0.55707 0.78303
 C2545 C 0.81805 0.54348 0.77650
 C2546 C 0.80167 0.54272 0.77395
 C2547 C 0.79586 0.59693 0.79548
 C2548 C 0.80169 0.60867 0.80130
 C2549 C 0.76794 0.54074 0.76859
 C2550 C 0.76237 0.52882 0.76289
 H2551 H 0.74254 0.55675 0.77342
 H2552 H 0.72608 0.57960 0.78023
 H2553 H 0.73824 0.60418 0.79074
 H2554 H 0.76688 0.60596 0.79472
 H2555 H 0.82106 0.58034 0.79206
 H2556 H 0.83754 0.55759 0.78503
 H2557 H 0.82553 0.53344 0.77344
 H2558 H 0.79697 0.53187 0.76888
 C2559 C 0.77495 0.05500 0.27511
 C2560 C 0.77693 0.06904 0.26602
 C2561 C 0.78401 0.08270 0.27304
 C2562 C 0.78898 0.08228 0.28911
 C2563 C 0.78690 0.06828 0.29824
 C2564 C 0.77990 0.05459 0.29121
 C2565 C 0.77800 0.04072 0.30058
 C2566 C 0.78285 0.04040 0.31642
 C2567 C 0.78968 0.05380 0.32328
 C2568 C 0.79172 0.06761 0.31435
 C2569 C 0.78595 0.09658 0.26372
 C2570 C 0.78101 0.09699 0.24793
 C2571 C 0.77404 0.08368 0.24110
 C2572 C 0.77199 0.06981 0.24996
 C2573 C 0.79615 0.09627 0.29625
 C2574 C 0.80203 0.10796 0.30211
 C2575 C 0.76805 0.04089 0.26790
 C2576 C 0.76252 0.02894 0.26223
 H2577 H 0.77274 0.02999 0.29579
 H2578 H 0.78130 0.02970 0.32342
 H2579 H 0.79342 0.05350 0.33559
 H2580 H 0.79709 0.07772 0.32021
 H2581 H 0.79130 0.10726 0.26851
 H2582 H 0.78259 0.10770 0.24096
 H2583 H 0.77021 0.08416 0.22886
 H2584 H 0.76650 0.05975 0.24410
 C2585 C 0.72530 0.44497 0.27519
 C2586 C 0.73503 0.43176 0.27903
 C2587 C 0.72803 0.41772 0.28534
 C2588 C 0.71142 0.41717 0.28825
 C2589 C 0.70175 0.43052 0.28472
 C2590 C 0.70869 0.44443 0.27809
 C2591 C 0.69876 0.45761 0.27461
 C2592 C 0.68246 0.45708 0.27767
 C2593 C 0.67568 0.44349 0.28421
 C2594 C 0.68515 0.43032 0.28770
 C2595 C 0.73793 0.40449 0.28864
 C2596 C 0.75429 0.40516 0.28593
 C2597 C 0.76117 0.41899 0.28004
 C2598 C 0.75172 0.43220 0.27669
 C2599 C 0.70435 0.40301 0.29517
 C2600 C 0.69848 0.39132 0.30103
 C2601 C 0.73234 0.45913 0.26827
 C2602 C 0.73793 0.47105 0.26261
 H2603 H 0.70349 0.46847 0.26958
 H2604 H 0.67505 0.46728 0.27499
 H2605 H 0.66301 0.44316 0.28661
 H2606 H 0.67932 0.42003 0.29278
 H2607 H 0.73315 0.39349 0.29332
 H2608 H 0.76168 0.39490 0.28846
 H2609 H 0.77389 0.41947 0.27799
 H2610 H 0.75761 0.44268 0.27209
 C2611 C 0.72536 0.94508 0.77532
 C2612 C 0.73469 0.93121 0.77744
 C2613 C 0.72762 0.91719 0.78370
 C2614 C 0.71139 0.91729 0.78831
 C2615 C 0.70215 0.93127 0.78652
 C2616 C 0.70912 0.94519 0.77992
 C2617 C 0.69962 0.95901 0.77818
 C2618 C 0.68372 0.95911 0.78291
 C2619 C 0.67691 0.94552 0.78943
 C2620 C 0.68596 0.93173 0.79122
 C2621 C 0.73706 0.90332 0.78524
 C2622 C 0.75308 0.90336 0.78089
 C2623 C 0.76008 0.91717 0.77510
 C2624 C 0.75107 0.93099 0.77344
 C2625 C 0.70430 0.90312 0.79521
 C2626 C 0.69847 0.89141 0.80107
 C2627 C 0.73239 0.95924 0.76840
 C2628 C 0.73795 0.97119 0.76276
 H2629 H 0.70438 0.96990 0.77323
 H2630 H 0.67664 0.96980 0.78156
 H2631 H 0.66456 0.94568 0.79314
 H2632 H 0.68013 0.92146 0.79634
 H2633 H 0.73218 0.89232 0.78979
 H2634 H 0.76011 0.89262 0.78209
 H2635 H 0.77254 0.91715 0.77177
 H2636 H 0.75703 0.94144 0.76885
 C2637 C 0.22521 0.44438 0.77435
 C2638 C 0.23305 0.43643 0.78697
 C2639 C 0.22606 0.42267 0.79390
 C2640 C 0.21130 0.41693 0.78814
 C2641 C 0.20349 0.42484 0.77548
 C2642 C 0.21048 0.43859 0.76855
 C2643 C 0.20243 0.44632 0.75594
 C2644 C 0.18785 0.44068 0.75039
 C2645 C 0.18100 0.42726 0.75720
 C2646 C 0.18869 0.41938 0.76959
 C2647 C 0.23406 0.41500 0.80658
 C2648 C 0.24854 0.42075 0.81226
 C2649 C 0.25539 0.43419 0.80548
 C2650 C 0.24779 0.44198 0.79297
 C2651 C 0.20409 0.40295 0.79531
 C2652 C 0.19814 0.39134 0.80129
 C2653 C 0.23206 0.45875 0.76766
 C2654 C 0.23758 0.47083 0.76226
 H2655 H 0.20728 0.45681 0.75026
 H2656 H 0.18182 0.44677 0.74078
 H2657 H 0.16966 0.42293 0.75287
 H2658 H 0.18289 0.40899 0.77451
 H2659 H 0.22921 0.40451 0.81224
 H2660 H 0.25448 0.41475 0.82198
 H2661 H 0.26663 0.43862 0.80995
 H2662 H 0.25358 0.45239 0.78808
 C2663 C 0.22538 0.94453 0.27407
 C2664 C 0.21064 0.93877 0.26827
 C2665 C 0.20366 0.92501 0.27519
 C2666 C 0.21148 0.91708 0.28782
 C2667 C 0.22625 0.92281 0.29358
 C2668 C 0.23323 0.93657 0.28668
 C2669 C 0.24795 0.94214 0.29269
 C2670 C 0.25554 0.93435 0.30521
 C2671 C 0.24871 0.92091 0.31198
 C2672 C 0.23424 0.91514 0.30627
 C2673 C 0.18883 0.91958 0.26933
 C2674 C 0.18111 0.92751 0.25699
 C2675 C 0.18795 0.94094 0.25019
 C2676 C 0.20256 0.94655 0.25571
 C2677 C 0.20431 0.90309 0.29497
 C2678 C 0.19839 0.89148 0.30095
 C2679 C 0.23220 0.95891 0.26741
 C2680 C 0.23771 0.97100 0.26204
 H2681 H 0.25375 0.95255 0.28781
 H2682 H 0.26678 0.93879 0.30969
 H2683 H 0.25463 0.91491 0.32171
 H2684 H 0.22939 0.90465 0.31194
 H2685 H 0.18302 0.90920 0.27424
 H2686 H 0.16974 0.92322 0.25269
 H2687 H 0.18190 0.94707 0.24061
 H2688 H 0.20740 0.95704 0.25004
 C2689 C 0.44477 0.27543 0.72564
 C2690 C 0.44483 0.27999 0.70943
 C2691 C 0.43092 0.28673 0.70253
 C2692 C 0.41700 0.28873 0.71183
 C2693 C 0.41696 0.28417 0.72804
 C2694 C 0.43098 0.27777 0.73504
 C2695 C 0.43083 0.27385 0.75140
 C2696 C 0.41706 0.27569 0.76047
 C2697 C 0.40324 0.28160 0.75353
 C2698 C 0.40315 0.28590 0.73753
 C2699 C 0.43131 0.29135 0.68634
 C2700 C 0.44504 0.28935 0.67723
 C2701 C 0.45862 0.28272 0.68397
 C2702 C 0.45859 0.27807 0.69987
 C2703 C 0.40282 0.29565 0.70478
 C2704 C 0.39109 0.30144 0.69887
 C2705 C 0.45890 0.26829 0.73257
 C2706 C 0.47083 0.26249 0.73804
 H2707 H 0.44128 0.26916 0.75731
 H2708 H 0.41708 0.27242 0.77291
 H2709 H 0.39254 0.28294 0.76060
 H2710 H 0.39215 0.29054 0.73269
 H2711 H 0.42104 0.29656 0.68056
 H2712 H 0.44513 0.29297 0.66488
 H2713 H 0.46926 0.28120 0.67685
 H2714 H 0.46947 0.27302 0.70458
 C2715 C 0.44486 0.77564 0.22563
 C2716 C 0.43027 0.77544 0.23405
 C2717 C 0.41631 0.78184 0.22695
 C2718 C 0.41716 0.78892 0.21168
 C2719 C 0.43184 0.78943 0.20340
 C2720 C 0.44571 0.78270 0.21036
 C2721 C 0.46024 0.78329 0.20182
 C2722 C 0.46104 0.79039 0.18687
 C2723 C 0.44747 0.79701 0.18009
 C2724 C 0.43301 0.79657 0.18820
 C2725 C 0.40174 0.78103 0.23538
 C2726 C 0.40103 0.77425 0.25049
 C2727 C 0.41476 0.76833 0.25759
 C2728 C 0.42926 0.76896 0.24955
 C2729 C 0.40300 0.79585 0.20458
 C2730 C 0.39128 0.80165 0.19867
 C2731 C 0.45898 0.76848 0.23254
 C2732 C 0.47091 0.76268 0.23801
 H2733 H 0.47114 0.77836 0.20661
 H2734 H 0.47225 0.79077 0.18052
 H2735 H 0.44816 0.80253 0.16848
 H2736 H 0.42278 0.80188 0.18244
 H2737 H 0.39076 0.78557 0.23040
 H2738 H 0.38977 0.77365 0.25673
 H2739 H 0.41416 0.76312 0.26935
 H2740 H 0.43962 0.76420 0.25555
 C2741 C 0.94496 0.27569 0.22542
 C2742 C 0.93259 0.28136 0.23535
 C2743 C 0.91855 0.28784 0.22848
 C2744 C 0.91718 0.28907 0.21175
 C2745 C 0.92972 0.28372 0.20183
 C2746 C 0.94363 0.27695 0.20868
 C2747 C 0.95600 0.27167 0.19852
 C2748 C 0.95468 0.27310 0.18207
 C2749 C 0.94109 0.27976 0.17537
 C2750 C 0.92871 0.28501 0.18508
 C2751 C 0.90613 0.29301 0.23863
 C2752 C 0.90762 0.29195 0.25510
 C2753 C 0.92147 0.28587 0.26182
 C2754 C 0.93387 0.28067 0.25212
 C2755 C 0.90300 0.29600 0.20472
 C2756 C 0.89127 0.30177 0.19880
 C2757 C 0.95907 0.26856 0.23236
 C2758 C 0.97096 0.26275 0.23788
 H2759 H 0.96683 0.26645 0.20315
 H2760 H 0.96428 0.26905 0.17447
 H2761 H 0.94013 0.28088 0.16259
 H2762 H 0.91838 0.29012 0.17931
 H2763 H 0.89515 0.29788 0.23397
 H2764 H 0.89797 0.29592 0.26268
 H2765 H 0.92257 0.28511 0.27462
 H2766 H 0.94439 0.27596 0.25789
 C2767 C 0.94490 0.77569 0.72571
 C2768 C 0.93002 0.77427 0.73350
 C2769 C 0.91609 0.78067 0.72634
 C2770 C 0.91721 0.78895 0.71172
 C2771 C 0.93216 0.79069 0.70411
 C2772 C 0.94604 0.78398 0.71109
 C2773 C 0.96085 0.78583 0.70324
 C2774 C 0.96192 0.79413 0.68894
 C2775 C 0.94835 0.80073 0.68214
 C2776 C 0.93361 0.79905 0.68957
 C2777 C 0.90126 0.77864 0.73409
 C2778 C 0.90026 0.77071 0.74861
 C2779 C 0.91395 0.76481 0.75580
 C2780 C 0.92870 0.76658 0.74840
 C2781 C 0.90305 0.79588 0.70462
 C2782 C 0.89133 0.80168 0.69871
 C2783 C 0.95903 0.76854 0.73262
 C2784 C 0.97097 0.76275 0.73807
 H2785 H 0.97176 0.78098 0.70809
 H2786 H 0.97335 0.79548 0.68311
 H2787 H 0.94924 0.80719 0.67104
 H2788 H 0.92340 0.80440 0.68382
 H2789 H 0.89030 0.78314 0.72902
 H2790 H 0.88882 0.76922 0.75434
 H2791 H 0.91313 0.75871 0.76711
 H2792 H 0.93902 0.76180 0.75446
 C2793 C 0.55522 0.27536 0.27439
 C2794 C 0.56875 0.27835 0.26481
 C2795 C 0.58277 0.28479 0.27175
 C2796 C 0.58298 0.28872 0.28812
 C2797 C 0.56932 0.28603 0.29763
 C2798 C 0.55543 0.27926 0.29077
 C2799 C 0.54194 0.27664 0.30053
 C2800 C 0.54215 0.28065 0.31661
 C2801 C 0.55573 0.28731 0.32331
 C2802 C 0.56920 0.28997 0.31400
 C2803 C 0.59633 0.28718 0.26205
 C2804 C 0.59599 0.28350 0.24590
 C2805 C 0.58217 0.27753 0.23904
 C2806 C 0.56865 0.27503 0.24832
 C2807 C 0.59714 0.29571 0.29514
 C2808 C 0.60884 0.30156 0.30105
 C2809 C 0.54108 0.26828 0.26745
 C2810 C 0.52916 0.26250 0.26194
 H2811 H 0.53108 0.27153 0.29586
 H2812 H 0.53172 0.27862 0.32389
 H2813 H 0.55583 0.29043 0.33579
 H2814 H 0.57947 0.29516 0.31976
 H2815 H 0.60733 0.29187 0.26683
 H2816 H 0.60649 0.28534 0.23867
 H2817 H 0.58195 0.27474 0.22648
 H2818 H 0.55820 0.27031 0.24245
 C2819 C 0.55501 0.77502 0.77548
 C2820 C 0.55605 0.79175 0.77723
 C2821 C 0.56998 0.79867 0.78388
 C2822 C 0.58284 0.78884 0.78860
 C2823 C 0.58178 0.77212 0.78687
 C2824 C 0.56772 0.76517 0.78053
 C2825 C 0.56676 0.74840 0.77935
 C2826 C 0.57950 0.73879 0.78390
 C2827 C 0.59337 0.74560 0.78982
 C2828 C 0.59453 0.76206 0.79138
 C2829 C 0.57068 0.81540 0.78565
 C2830 C 0.55798 0.82502 0.78100
 C2831 C 0.54437 0.81827 0.77447
 C2832 C 0.54335 0.80183 0.77256
 C2833 C 0.59704 0.79590 0.79549
 C2834 C 0.60879 0.80173 0.80132
 C2835 C 0.54085 0.76801 0.76849
 C2836 C 0.52893 0.76244 0.76277
 H2837 H 0.55624 0.74256 0.77476
 H2838 H 0.57864 0.72599 0.78276
 H2839 H 0.60326 0.73810 0.79329
 H2840 H 0.60553 0.76679 0.79612
 H2841 H 0.58101 0.82122 0.79067
 H2842 H 0.55870 0.83779 0.78249
 H2843 H 0.53453 0.82579 0.77089
 H2844 H 0.53249 0.79714 0.76748
 C2845 C 0.05505 0.27446 0.77530
 C2846 C 0.05345 0.28690 0.78655
 C2847 C 0.06726 0.29398 0.79329
 C2848 C 0.08259 0.28868 0.78865
 C2849 C 0.08418 0.27619 0.77746
 C2850 C 0.07037 0.26891 0.77094
 C2851 C 0.07226 0.25611 0.76018
 C2852 C 0.08737 0.25084 0.75575
 C2853 C 0.10087 0.25820 0.76183
 C2854 C 0.09936 0.27070 0.77261
 C2855 C 0.06536 0.30628 0.80462
 C2856 C 0.05026 0.31147 0.80915
 C2857 C 0.03676 0.30460 0.80253
 C2858 C 0.03826 0.29246 0.79134
 C2859 C 0.09669 0.29587 0.79560
 C2860 C 0.10839 0.30175 0.80147
 C2861 C 0.04092 0.26754 0.76815
 C2862 C 0.02896 0.26207 0.76241
 H2863 H 0.06210 0.25000 0.75517
 H2864 H 0.08863 0.24102 0.74752
 H2865 H 0.11258 0.25417 0.75826
 H2866 H 0.11022 0.27596 0.77711
 H2867 H 0.07551 0.31200 0.81011
 H2868 H 0.04903 0.32089 0.81784
 H2869 H 0.02505 0.30867 0.80609
 H2870 H 0.02739 0.28746 0.78658
 C2871 C 0.05517 0.77471 0.27509
 C2872 C 0.05360 0.78722 0.28626
 C2873 C 0.06742 0.79432 0.29295
 C2874 C 0.08273 0.78896 0.28834
 C2875 C 0.08430 0.77640 0.27723
 C2876 C 0.07048 0.76910 0.27077
 C2877 C 0.07234 0.75621 0.26012
 C2878 C 0.08744 0.75087 0.25572
 C2879 C 0.10096 0.75825 0.26175
 C2880 C 0.09948 0.77084 0.27243
 C2881 C 0.06555 0.80670 0.30421
 C2882 C 0.05046 0.81193 0.30873
 C2883 C 0.03694 0.80502 0.30216
 C2884 C 0.03842 0.79282 0.29105
 C2885 C 0.09685 0.79614 0.29526
 C2886 C 0.10855 0.80203 0.30113
 C2887 C 0.04103 0.76776 0.26799
 C2888 C 0.02907 0.76227 0.26229
 H2889 H 0.06217 0.75007 0.25516
 H2890 H 0.08867 0.74099 0.24758
 H2891 H 0.11265 0.75415 0.25820
 H2892 H 0.11034 0.77613 0.27689
 H2893 H 0.07570 0.81244 0.30966
 H2894 H 0.04926 0.82138 0.31738
 H2895 H 0.02524 0.80912 0.30573
 H2896 H 0.02754 0.78779 0.28632
 C2897 C 0.55520 0.72566 0.72496
 C2898 C 0.55361 0.71310 0.71385
 C2899 C 0.56742 0.70597 0.70713
 C2900 C 0.58275 0.71133 0.71167
 C2901 C 0.58433 0.72393 0.72274
 C2902 C 0.57051 0.73128 0.72921
 C2903 C 0.57239 0.74423 0.73978
 C2904 C 0.58750 0.74956 0.74411
 C2905 C 0.60100 0.74212 0.73810
 C2906 C 0.59951 0.72948 0.72749
 C2907 C 0.56554 0.69356 0.69592
 C2908 C 0.55044 0.68832 0.69148
 C2909 C 0.53693 0.69525 0.69807
 C2910 C 0.53843 0.70749 0.70913
 C2911 C 0.59686 0.70413 0.70470
 C2912 C 0.60857 0.69825 0.69883
 C2913 C 0.54106 0.73261 0.73211
 C2914 C 0.52909 0.73809 0.73786
 H2915 H 0.56222 0.75040 0.74472
 H2916 H 0.58874 0.75949 0.75220
 H2917 H 0.61271 0.74621 0.74160
 H2918 H 0.61037 0.72416 0.72304
 H2919 H 0.57569 0.68780 0.69046
 H2920 H 0.54922 0.67884 0.68285
 H2921 H 0.52523 0.69115 0.69456
 H2922 H 0.52755 0.71254 0.71387
 C2923 C 0.55533 0.22419 0.22573
 C2924 C 0.55396 0.21465 0.21192
 C2925 C 0.56783 0.20791 0.20493
 C2926 C 0.58299 0.21089 0.21168
 C2927 C 0.58434 0.22044 0.22548
 C2928 C 0.57044 0.22689 0.23268
 C2929 C 0.57204 0.23591 0.24678
 C2930 C 0.58699 0.23885 0.25336
 C2931 C 0.60061 0.23288 0.24611
 C2932 C 0.59937 0.22370 0.23237
 C2933 C 0.56615 0.19827 0.19123
 C2934 C 0.55121 0.19539 0.18462
 C2935 C 0.53766 0.20203 0.19141
 C2936 C 0.53895 0.21156 0.20490
 C2937 C 0.59715 0.20399 0.20455
 C2938 C 0.60888 0.19822 0.19862
 C2939 C 0.54119 0.23132 0.23265
 C2940 C 0.52925 0.23709 0.23812
 H2941 H 0.56178 0.24079 0.25285
 H2942 H 0.58800 0.24590 0.26408
 H2943 H 0.61220 0.23529 0.25119
 H2944 H 0.61029 0.21921 0.22723
 H2945 H 0.57634 0.19284 0.18551
 H2946 H 0.55015 0.18797 0.17416
 H2947 H 0.52608 0.19976 0.18623
 H2948 H 0.52805 0.21641 0.20978
 C2949 C 0.05501 0.72527 0.22476
 C2950 C 0.06757 0.73517 0.21946
 C2951 C 0.08164 0.72827 0.21305
 C2952 C 0.08287 0.71153 0.21154
 C2953 C 0.07016 0.70165 0.21653
 C2954 C 0.05622 0.70853 0.22322
 C2955 C 0.04368 0.69840 0.22815
 C2956 C 0.04487 0.68195 0.22645
 C2957 C 0.05848 0.67523 0.21986
 C2958 C 0.07102 0.68490 0.21495
 C2959 C 0.09422 0.73838 0.20824
 C2960 C 0.09289 0.75485 0.20961
 C2961 C 0.07903 0.76161 0.21563
 C2962 C 0.06645 0.75194 0.22046
 C2963 C 0.09708 0.70449 0.20463
 C2964 C 0.10882 0.69865 0.19878
 C2965 C 0.04084 0.73225 0.23176
 C2966 C 0.02892 0.73782 0.23748
 H2967 H 0.03282 0.70306 0.23329
 H2968 H 0.03515 0.67438 0.23024
 H2969 H 0.05933 0.66245 0.21854
 H2970 H 0.08137 0.67911 0.20989
 H2971 H 0.10520 0.73369 0.20341
 H2972 H 0.10265 0.76241 0.20592
 H2973 H 0.07804 0.77441 0.21664
 H2974 H 0.05593 0.75775 0.22511
 C2975 C 0.05487 0.22505 0.72486
 C2976 C 0.06744 0.23492 0.71954
 C2977 C 0.08149 0.22799 0.71313
 C2978 C 0.08269 0.21125 0.71164
 C2979 C 0.06998 0.20140 0.71666
 C2980 C 0.05605 0.20831 0.72335
 C2981 C 0.04350 0.19820 0.72829
 C2982 C 0.04465 0.18175 0.72660
 C2983 C 0.05826 0.17500 0.72003
 C2984 C 0.07082 0.18465 0.71511
 C2985 C 0.09408 0.23808 0.70829
 C2986 C 0.09276 0.25456 0.70961
 C2987 C 0.07891 0.26135 0.71562
 C2988 C 0.06633 0.25170 0.72049
 C2989 C 0.09685 0.20418 0.70468
 C2990 C 0.10855 0.19830 0.69880
 C2991 C 0.04072 0.23205 0.73187
 C2992 C 0.02881 0.23764 0.73759
 H2993 H 0.03265 0.20289 0.73343
 H2994 H 0.03492 0.17420 0.73039
 H2995 H 0.05910 0.16221 0.71872
 H2996 H 0.08115 0.17883 0.71007
 H2997 H 0.10506 0.23336 0.70348
 H2998 H 0.10253 0.26209 0.70591
 H2999 H 0.07793 0.27415 0.71659
 H3000 H 0.05581 0.25753 0.72513
 C3001 C 0.44479 0.72456 0.27434
 C3002 C 0.43036 0.72427 0.26563
 C3003 C 0.41637 0.71786 0.27267
 C3004 C 0.41703 0.71127 0.28815
 C3005 C 0.43155 0.71124 0.29672
 C3006 C 0.44545 0.71798 0.28983
 C3007 C 0.45982 0.71786 0.29865
 C3008 C 0.46044 0.71123 0.31383
 C3009 C 0.44685 0.70460 0.32054
 C3010 C 0.43254 0.70459 0.31216
 C3011 C 0.40197 0.71819 0.26394
 C3012 C 0.40144 0.72447 0.24862
 C3013 C 0.41521 0.73037 0.24159
 C3014 C 0.42955 0.73023 0.24992
 C3015 C 0.40284 0.70430 0.29517
 C3016 C 0.39112 0.69847 0.30105
 C3017 C 0.45893 0.73170 0.26747
 C3018 C 0.47088 0.73750 0.26205
 H3019 H 0.47074 0.72281 0.29391
 H3020 H 0.47154 0.71120 0.32039
 H3021 H 0.44739 0.69943 0.33232
 H3022 H 0.42231 0.69929 0.31789
 H3023 H 0.39098 0.71362 0.26887
 H3024 H 0.39031 0.72469 0.24214
 H3025 H 0.41476 0.73520 0.22967
 H3026 H 0.43995 0.73496 0.24396
 C3027 C 0.44473 0.22425 0.77433
 C3028 C 0.44601 0.21523 0.78849
 C3029 C 0.43215 0.20846 0.79545
 C3030 C 0.41707 0.21090 0.78829
 C3031 C 0.41580 0.21993 0.77413
 C3032 C 0.42971 0.22639 0.76698
 C3033 C 0.42822 0.23488 0.75253
 C3034 C 0.41335 0.23734 0.74558
 C3035 C 0.39970 0.23137 0.75278
 C3036 C 0.40086 0.22268 0.76685
 C3037 C 0.43374 0.19937 0.80953
 C3038 C 0.44860 0.19705 0.81655
 C3039 C 0.46214 0.20370 0.80978
 C3040 C 0.46094 0.21269 0.79591
 C3041 C 0.40290 0.20397 0.79539
 C3042 C 0.39116 0.19819 0.80130
 C3043 C 0.45887 0.23145 0.76746
 C3044 C 0.47082 0.23726 0.76205
 H3045 H 0.43850 0.23973 0.74649
 H3046 H 0.41240 0.24402 0.73461
 H3047 H 0.38816 0.23341 0.74741
 H3048 H 0.38992 0.21817 0.77194
 H3049 H 0.42355 0.19396 0.81525
 H3050 H 0.44960 0.19004 0.82731
 H3051 H 0.47366 0.20185 0.81527
 H3052 H 0.47184 0.21757 0.79107
 C3053 C 0.94496 0.72464 0.77449
 C3054 C 0.94525 0.71937 0.79048
 C3055 C 0.93136 0.71261 0.79738
 C3056 C 0.91721 0.71131 0.78830
 C3057 C 0.91692 0.71662 0.77232
 C3058 C 0.93092 0.72304 0.76531
 C3059 C 0.93051 0.72773 0.74916
 C3060 C 0.91651 0.72662 0.74032
 C3061 C 0.90272 0.72069 0.74729
 C3062 C 0.90288 0.71565 0.76307
 C3063 C 0.93198 0.70728 0.81333
 C3064 C 0.94592 0.70861 0.82222
 C3065 C 0.95949 0.71525 0.81549
 C3066 C 0.95923 0.72059 0.79981
 C3067 C 0.90304 0.70434 0.79534
 C3068 C 0.89132 0.69851 0.80123
 C3069 C 0.95909 0.73177 0.76757
 C3070 C 0.97102 0.73757 0.76211
 H3071 H 0.94093 0.73245 0.74323
 H3072 H 0.91634 0.73048 0.72805
 H3073 H 0.89185 0.71993 0.74041
 H3074 H 0.89189 0.71102 0.76793
 H3075 H 0.92173 0.70202 0.81910
 H3076 H 0.94619 0.70445 0.83440
 H3077 H 0.97029 0.71625 0.82245
 H3078 H 0.97011 0.72562 0.79510
 C3079 C 0.94472 0.22439 0.27408
 C3080 C 0.94636 0.21248 0.28589
 C3081 C 0.93257 0.20560 0.29288
 C3082 C 0.91723 0.21078 0.28815
 C3083 C 0.91560 0.22264 0.27630
 C3084 C 0.92938 0.22929 0.26908
 C3085 C 0.92744 0.24073 0.25689
 C3086 C 0.91232 0.24569 0.25217
 C3087 C 0.89885 0.23948 0.25950
 C3088 C 0.90040 0.22805 0.27140
 C3089 C 0.93450 0.19363 0.30456
 C3090 C 0.94962 0.18860 0.30922
 C3091 C 0.96310 0.19534 0.30241
 C3092 C 0.96157 0.20716 0.29088
 C3093 C 0.90315 0.20380 0.29536
 C3094 C 0.89146 0.19799 0.30135
 C3095 C 0.95884 0.23168 0.26728
 C3096 C 0.97080 0.23753 0.26191
 H3097 H 0.93757 0.24588 0.25084
 H3098 H 0.91102 0.25440 0.24279
 H3099 H 0.88714 0.24348 0.25589
 H3100 H 0.88957 0.22349 0.27667
 H3101 H 0.92438 0.18801 0.31021
 H3102 H 0.95087 0.17941 0.31815
 H3103 H 0.97482 0.19139 0.30606
 H3104 H 0.97242 0.21200 0.28591
 C3105 C 0.27533 0.27445 0.55501
 C3106 C 0.27948 0.29078 0.55510
 C3107 C 0.28612 0.29770 0.56900
 C3108 C 0.28841 0.28829 0.58278
 C3109 C 0.28427 0.27197 0.58268
 C3110 C 0.27798 0.26496 0.56866
 C3111 C 0.27448 0.24849 0.56865
 C3112 C 0.27665 0.23931 0.58227
 C3113 C 0.28246 0.24624 0.59610
 C3114 C 0.28633 0.26236 0.59635
 C3115 C 0.29037 0.31399 0.56876
 C3116 C 0.28810 0.32320 0.55517
 C3117 C 0.28156 0.31645 0.54158
 C3118 C 0.27727 0.30044 0.54148
 C3119 C 0.29529 0.29535 0.59694
 C3120 C 0.30110 0.30124 0.60864
 C3121 C 0.26829 0.26748 0.54090
 C3122 C 0.26255 0.26194 0.52901
 H3123 H 0.26988 0.24258 0.55819
 H3124 H 0.27370 0.22678 0.58212
 H3125 H 0.28404 0.23908 0.60668
 H3126 H 0.29092 0.26718 0.60735
 H3127 H 0.29551 0.31978 0.57903
 H3128 H 0.29146 0.33563 0.55519
 H3129 H 0.27984 0.32366 0.53105
 H3130 H 0.27228 0.29573 0.53059
 C3131 C 0.27555 0.77454 0.05492
 C3132 C 0.27741 0.76529 0.06886
 C3133 C 0.28367 0.77235 0.08286
 C3134 C 0.28856 0.78847 0.08268
 C3135 C 0.28704 0.79762 0.06863
 C3136 C 0.28043 0.79066 0.05472
 C3137 C 0.27897 0.80007 0.04083
 C3138 C 0.28397 0.81588 0.04066
 C3139 C 0.29049 0.82266 0.05425
 C3140 C 0.29202 0.81370 0.06810
 C3141 C 0.28494 0.76301 0.09681
 C3142 C 0.28033 0.74709 0.09686
 C3143 C 0.27455 0.74008 0.08306
 C3144 C 0.27315 0.74901 0.06916
 C3145 C 0.29543 0.79556 0.09683
 C3146 C 0.30124 0.80146 0.10851
 C3147 C 0.26859 0.76754 0.04078
 C3148 C 0.26290 0.76199 0.02886
 H3149 H 0.27404 0.79532 0.02994
 H3150 H 0.28282 0.82289 0.02993
 H3151 H 0.29439 0.83493 0.05406
 H3152 H 0.29717 0.81951 0.07836
 H3153 H 0.28948 0.76790 0.10780
 H3154 H 0.28132 0.74014 0.10765
 H3155 H 0.27102 0.72770 0.08313
 H3156 H 0.26855 0.74305 0.05873
 C3157 C 0.77536 0.27460 0.05497
 C3158 C 0.77727 0.26532 0.06888
 C3159 C 0.78357 0.27236 0.08289
 C3160 C 0.78844 0.28848 0.08274
 C3161 C 0.78686 0.29767 0.06871
 C3162 C 0.78021 0.29074 0.05481
 C3163 C 0.77869 0.30019 0.04095
 C3164 C 0.78367 0.31600 0.04081
 C3165 C 0.79021 0.32276 0.05440
 C3166 C 0.79180 0.31376 0.06822
 C3167 C 0.78488 0.26298 0.09681
 C3168 C 0.78028 0.24706 0.09682
 C3169 C 0.77448 0.24008 0.08302
 C3170 C 0.77304 0.24903 0.06915
 C3171 C 0.79534 0.29553 0.09691
 C3172 C 0.80115 0.30138 0.10862
 C3173 C 0.76835 0.26762 0.04083
 C3174 C 0.76264 0.26209 0.02891
 H3175 H 0.77373 0.29546 0.03006
 H3176 H 0.78247 0.32304 0.03010
 H3177 H 0.79409 0.33503 0.05423
 H3178 H 0.79697 0.31955 0.07848
 H3179 H 0.78944 0.26785 0.10780
 H3180 H 0.78130 0.24008 0.10760
 H3181 H 0.77097 0.22769 0.08308
 H3182 H 0.76842 0.24309 0.05872
 C3183 C 0.77542 0.77465 0.55507
 C3184 C 0.77965 0.79096 0.55511
 C3185 C 0.78630 0.79790 0.56901
 C3186 C 0.78850 0.78853 0.58283
 C3187 C 0.78427 0.77223 0.58278
 C3188 C 0.77797 0.76520 0.56877
 C3189 C 0.77437 0.74876 0.56882
 C3190 C 0.77643 0.73962 0.58249
 C3191 C 0.78226 0.74657 0.59630
 C3192 C 0.78623 0.76266 0.59649
 C3193 C 0.79063 0.81417 0.56871
 C3194 C 0.78843 0.82334 0.55509
 C3195 C 0.78188 0.81657 0.54151
 C3196 C 0.77751 0.80058 0.54145
 C3197 C 0.79539 0.79561 0.59698
 C3198 C 0.80120 0.80152 0.60867
 C3199 C 0.76840 0.76766 0.54096
 C3200 C 0.76267 0.76211 0.52906
 H3201 H 0.76976 0.74284 0.55837
 H3202 H 0.77340 0.72711 0.58238
 H3203 H 0.78376 0.73945 0.60692
 H3204 H 0.79083 0.76751 0.60749
 H3205 H 0.79578 0.81997 0.57897
 H3206 H 0.79185 0.83576 0.55506
 H3207 H 0.78021 0.82375 0.53095
 H3208 H 0.77252 0.79586 0.53058
 C3209 C 0.27532 0.72552 0.44485
 C3210 C 0.27786 0.73497 0.43115
 C3211 C 0.28413 0.72793 0.41712
 C3212 C 0.28833 0.71161 0.41704
 C3213 C 0.28613 0.70224 0.43087
 C3214 C 0.27952 0.70919 0.44479
 C3215 C 0.27738 0.69957 0.45844
 C3216 C 0.28172 0.68356 0.45837
 C3217 C 0.28823 0.67678 0.44477
 C3218 C 0.29042 0.68595 0.43114
 C3219 C 0.28608 0.73750 0.40341
 C3220 C 0.28213 0.75360 0.40362
 C3221 C 0.27634 0.76056 0.41745
 C3222 C 0.27429 0.75142 0.43112
 C3223 C 0.29520 0.70452 0.40287
 C3224 C 0.30100 0.69862 0.39116
 C3225 C 0.26835 0.73253 0.45900
 C3226 C 0.26267 0.73810 0.47091
 H3227 H 0.27242 0.70431 0.46933
 H3228 H 0.28005 0.67639 0.46893
 H3229 H 0.29161 0.66435 0.44478
 H3230 H 0.29554 0.68014 0.42086
 H3231 H 0.29064 0.73265 0.39240
 H3232 H 0.28363 0.76073 0.39301
 H3233 H 0.27334 0.77309 0.41758
 H3234 H 0.26971 0.75736 0.44158
 C3235 C 0.27525 0.22536 0.94512
 C3236 C 0.28206 0.20996 0.94588
 C3237 C 0.28870 0.20299 0.93199
 C3238 C 0.28833 0.21138 0.91740
 C3239 C 0.28148 0.22677 0.91664
 C3240 C 0.27518 0.23389 0.93061
 C3241 C 0.26897 0.24952 0.92970
 C3242 C 0.26849 0.25768 0.91528
 C3243 C 0.27428 0.25055 0.90154
 C3244 C 0.28080 0.23531 0.90216
 C3245 C 0.29562 0.18766 0.93307
 C3246 C 0.29596 0.17944 0.94745
 C3247 C 0.28942 0.18624 0.96103
 C3248 C 0.28253 0.20131 0.96033
 C3249 C 0.29526 0.20433 0.90327
 C3250 C 0.30111 0.19847 0.89157
 C3251 C 0.26823 0.23234 0.95924
 C3252 C 0.26252 0.23788 0.97115
 H3253 H 0.26431 0.25555 0.94007
 H3254 H 0.26348 0.26954 0.91476
 H3255 H 0.27378 0.25689 0.89034
 H3256 H 0.28527 0.23031 0.89117
 H3257 H 0.30086 0.18187 0.92284
 H3258 H 0.30132 0.16774 0.94806
 H3259 H 0.28972 0.17981 0.97218
 H3260 H 0.27766 0.20611 0.97123
 C3261 C 0.77546 0.72551 0.94512
 C3262 C 0.77966 0.70918 0.94503
 C3263 C 0.78631 0.70227 0.93112
 C3264 C 0.78858 0.71167 0.91734
 C3265 C 0.78440 0.72800 0.91744
 C3266 C 0.77809 0.73500 0.93147
 C3267 C 0.77456 0.75147 0.93148
 C3268 C 0.77669 0.76065 0.91785
 C3269 C 0.78250 0.75372 0.90401
 C3270 C 0.78642 0.73760 0.90377
 C3271 C 0.79057 0.68597 0.93135
 C3272 C 0.78831 0.67676 0.94494
 C3273 C 0.78178 0.68351 0.95854
 C3274 C 0.77747 0.69952 0.95865
 C3275 C 0.79548 0.70461 0.90317
 C3276 C 0.80131 0.69871 0.89148
 C3277 C 0.76837 0.73245 0.95924
 C3278 C 0.76260 0.73794 0.97115
 H3279 H 0.76996 0.75738 0.94195
 H3280 H 0.77371 0.77318 0.91800
 H3281 H 0.78405 0.76087 0.89343
 H3282 H 0.79102 0.73278 0.89276
 H3283 H 0.79572 0.68018 0.92108
 H3284 H 0.79167 0.66432 0.94491
 H3285 H 0.78006 0.67631 0.96907
 H3286 H 0.77249 0.70424 0.96955
 C3287 C 0.77533 0.22526 0.44501
 C3288 C 0.77798 0.23475 0.43136
 C3289 C 0.78431 0.22773 0.41735
 C3290 C 0.78851 0.21142 0.41727
 C3291 C 0.78621 0.20201 0.43104
 C3292 C 0.77953 0.20893 0.44494
 C3293 C 0.77732 0.19928 0.45856
 C3294 C 0.78162 0.18326 0.45846
 C3295 C 0.78816 0.17650 0.44487
 C3296 C 0.79045 0.18571 0.43128
 C3297 C 0.78633 0.23732 0.40366
 C3298 C 0.78241 0.25343 0.40388
 C3299 C 0.77659 0.26037 0.41770
 C3300 C 0.77445 0.25121 0.43134
 C3301 C 0.79545 0.20438 0.40313
 C3302 C 0.80128 0.19855 0.39142
 C3303 C 0.76824 0.23221 0.45911
 C3304 C 0.76246 0.23772 0.47101
 H3305 H 0.77234 0.20400 0.46945
 H3306 H 0.77989 0.17606 0.46899
 H3307 H 0.79150 0.16406 0.44485
 H3308 H 0.79559 0.17991 0.42101
 H3309 H 0.79093 0.23248 0.39266
 H3310 H 0.78396 0.26056 0.39328
 H3311 H 0.77361 0.27291 0.41783
 H3312 H 0.76984 0.25713 0.44180
 C3313 C 0.72460 0.27434 0.44484
 C3314 C 0.71547 0.28846 0.44611
 C3315 C 0.70883 0.29549 0.43224
 C3316 C 0.71149 0.28845 0.41718
 C3317 C 0.72060 0.27432 0.41593
 C3318 C 0.72694 0.26709 0.42984
 C3319 C 0.73547 0.25265 0.42836
 C3320 C 0.73811 0.24578 0.41351
 C3321 C 0.73228 0.25307 0.39986
 C3322 C 0.72353 0.26713 0.40100
 C3323 C 0.69961 0.30951 0.43382
 C3324 C 0.69704 0.31641 0.44866
 C3325 C 0.70356 0.30956 0.46222
 C3326 C 0.71269 0.29575 0.46103
 C3327 C 0.70461 0.29557 0.40304
 C3328 C 0.69881 0.30146 0.39132
 C3329 C 0.73170 0.26743 0.45898
 C3330 C 0.73743 0.26197 0.47093
 H3331 H 0.74022 0.24654 0.43864
 H3332 H 0.74481 0.23481 0.41258
 H3333 H 0.73446 0.24776 0.38834
 H3334 H 0.71913 0.27228 0.39006
 H3335 H 0.69428 0.31528 0.42362
 H3336 H 0.68994 0.32712 0.44965
 H3337 H 0.70152 0.31495 0.47373
 H3338 H 0.71745 0.29084 0.47193
 C3339 C 0.72469 0.77457 0.94508
 C3340 C 0.72701 0.76733 0.93007
 C3341 C 0.72066 0.77455 0.91617
 C3342 C 0.71153 0.78867 0.91743
 C3343 C 0.70888 0.79571 0.93250
 C3344 C 0.71554 0.78868 0.94635
 C3345 C 0.71277 0.79597 0.96128
 C3346 C 0.70363 0.80977 0.96248
 C3347 C 0.69708 0.81661 0.94893
 C3348 C 0.69965 0.80972 0.93408
 C3349 C 0.72358 0.76736 0.90123
 C3350 C 0.73233 0.75330 0.90009
 C3351 C 0.73818 0.74602 0.91373
 C3352 C 0.73556 0.75289 0.92858
 C3353 C 0.70464 0.79580 0.90330
 C3354 C 0.69881 0.80170 0.89160
 C3355 C 0.73181 0.76767 0.95920
 C3356 C 0.73757 0.76220 0.97113
 H3357 H 0.71754 0.79107 0.97218
 H3358 H 0.70159 0.81516 0.97398
 H3359 H 0.68997 0.82732 0.94991
 H3360 H 0.69430 0.81548 0.92389
 H3361 H 0.71915 0.77251 0.89030
 H3362 H 0.73451 0.74800 0.88857
 H3363 H 0.74489 0.73506 0.91280
 H3364 H 0.74033 0.74679 0.93886
 C3365 C 0.22445 0.27435 0.94510
 C3366 C 0.21786 0.28985 0.94578
 C3367 C 0.21123 0.29682 0.93188
 C3368 C 0.21139 0.28832 0.91735
 C3369 C 0.21799 0.27283 0.91668
 C3370 C 0.22428 0.26571 0.93066
 C3371 C 0.23026 0.24999 0.92984
 C3372 C 0.23053 0.24172 0.91549
 C3373 C 0.22474 0.24881 0.90173
 C3374 C 0.21844 0.26415 0.90226
 C3375 C 0.20455 0.31226 0.93288
 C3376 C 0.20444 0.32059 0.94720
 C3377 C 0.21097 0.31380 0.96079
 C3378 C 0.21763 0.29862 0.96015
 C3379 C 0.20450 0.29540 0.90317
 C3380 C 0.19869 0.30127 0.89145
 C3381 C 0.23149 0.26739 0.95924
 C3382 C 0.23722 0.26188 0.97116
 H3383 H 0.23491 0.24398 0.94023
 H3384 H 0.23537 0.22978 0.91503
 H3385 H 0.22506 0.24238 0.89059
 H3386 H 0.21396 0.26913 0.89127
 H3387 H 0.19932 0.31804 0.92265
 H3388 H 0.19925 0.33237 0.94776
 H3389 H 0.21085 0.32031 0.97189
 H3390 H 0.22250 0.29383 0.97106
 C3391 C 0.22451 0.77454 0.44484
 C3392 C 0.21545 0.78871 0.44610
 C3393 C 0.20879 0.79574 0.43224
 C3394 C 0.21137 0.78866 0.41719
 C3395 C 0.22043 0.77450 0.41593
 C3396 C 0.22678 0.76727 0.42983
 C3397 C 0.23528 0.75281 0.42835
 C3398 C 0.23785 0.74591 0.41350
 C3399 C 0.23199 0.75319 0.39987
 C3400 C 0.22330 0.76727 0.40100
 C3401 C 0.19963 0.80980 0.43382
 C3402 C 0.19713 0.81674 0.44866
 C3403 C 0.20368 0.80990 0.46221
 C3404 C 0.21275 0.79605 0.46102
 C3405 C 0.20447 0.79578 0.40304
 C3406 C 0.19867 0.80166 0.39133
 C3407 C 0.23160 0.76759 0.45896
 C3408 C 0.23735 0.76210 0.47089
 H3409 H 0.24005 0.74670 0.43862
 H3410 H 0.24451 0.73492 0.41257
 H3411 H 0.23412 0.74785 0.38835
 H3412 H 0.21887 0.77242 0.39007
 H3413 H 0.19428 0.81556 0.42363
 H3414 H 0.19007 0.82747 0.44964
 H3415 H 0.20170 0.81532 0.47371
 H3416 H 0.21755 0.79115 0.47191
 C3417 C 0.72458 0.72570 0.55519
 C3418 C 0.71552 0.71155 0.55394
 C3419 C 0.70887 0.70453 0.56781
 C3420 C 0.71147 0.71160 0.58286
 C3421 C 0.72053 0.72574 0.58411
 C3422 C 0.72687 0.73296 0.57020
 C3423 C 0.73537 0.74741 0.57168
 C3424 C 0.73795 0.75430 0.58652
 C3425 C 0.73210 0.74703 0.60016
 C3426 C 0.72340 0.73296 0.59903
 C3427 C 0.69970 0.69049 0.56624
 C3428 C 0.69720 0.68356 0.55140
 C3429 C 0.70375 0.69039 0.53785
 C3430 C 0.71282 0.70421 0.53903
 C3431 C 0.70460 0.70447 0.59702
 C3432 C 0.69881 0.69859 0.60874
 C3433 C 0.73164 0.73265 0.54105
 C3434 C 0.73737 0.73815 0.52911
 H3435 H 0.74014 0.75350 0.56140
 H3436 H 0.74462 0.76527 0.58745
 H3437 H 0.73423 0.75236 0.61168
 H3438 H 0.71898 0.72782 0.60997
 H3439 H 0.69435 0.68473 0.57643
 H3440 H 0.69013 0.67284 0.55042
 H3441 H 0.70176 0.68496 0.52635
 H3442 H 0.71761 0.70910 0.52813
 C3443 C 0.72466 0.22556 0.05499
 C3444 C 0.71624 0.21101 0.05382
 C3445 C 0.70963 0.20395 0.06769
 C3446 C 0.71163 0.21139 0.08265
 C3447 C 0.72004 0.22594 0.08382
 C3448 C 0.72633 0.23318 0.06990
 C3449 C 0.73417 0.24801 0.07127
 C3450 C 0.73618 0.25525 0.08603
 C3451 C 0.73037 0.24798 0.09969
 C3452 C 0.72230 0.23354 0.09866
 C3453 C 0.70110 0.18951 0.06620
 C3454 C 0.69919 0.18222 0.05145
 C3455 C 0.70570 0.18908 0.03790
 C3456 C 0.71415 0.20331 0.03900
 C3457 C 0.70478 0.20421 0.09679
 C3458 C 0.69897 0.19827 0.10847
 C3459 C 0.73168 0.23256 0.04086
 C3460 C 0.73738 0.23808 0.02893
 H3461 H 0.73889 0.25412 0.06097
 H3462 H 0.74238 0.26651 0.08688
 H3463 H 0.73205 0.25360 0.11115
 H3464 H 0.71788 0.22840 0.10960
 H3465 H 0.69580 0.18371 0.07639
 H3466 H 0.69260 0.17119 0.05054
 H3467 H 0.70418 0.18338 0.02647
 H3468 H 0.71894 0.20821 0.02810
 C3469 C 0.22471 0.72564 0.05495
 C3470 C 0.21625 0.71111 0.05380
 C3471 C 0.20957 0.70410 0.06766
 C3472 C 0.21154 0.71157 0.08262
 C3473 C 0.22001 0.72609 0.08377
 C3474 C 0.22637 0.73328 0.06985
 C3475 C 0.23426 0.74808 0.07121
 C3476 C 0.23625 0.75535 0.08596
 C3477 C 0.23038 0.74814 0.09962
 C3478 C 0.22226 0.73372 0.09860
 C3479 C 0.20101 0.68968 0.06619
 C3480 C 0.19912 0.68236 0.05145
 C3481 C 0.20569 0.68917 0.03790
 C3482 C 0.21418 0.70337 0.03899
 C3483 C 0.20462 0.70446 0.09676
 C3484 C 0.19879 0.69856 0.10847
 C3485 C 0.23181 0.73258 0.04081
 C3486 C 0.23757 0.73807 0.02888
 H3487 H 0.23902 0.75415 0.06091
 H3488 H 0.24249 0.76659 0.08680
 H3489 H 0.23205 0.75377 0.11106
 H3490 H 0.21780 0.72863 0.10954
 H3491 H 0.19568 0.68391 0.07638
 H3492 H 0.19251 0.67134 0.05054
 H3493 H 0.20418 0.68345 0.02648
 H3494 H 0.21901 0.70823 0.02809
 C3495 C 0.22436 0.22558 0.55509
 C3496 C 0.22680 0.23270 0.57014
 C3497 C 0.22046 0.22544 0.58402
 C3498 C 0.21125 0.21139 0.58270
 C3499 C 0.20848 0.20448 0.56760
 C3500 C 0.21514 0.21154 0.55376
 C3501 C 0.21227 0.20437 0.53880
 C3502 C 0.20304 0.19066 0.53755
 C3503 C 0.19649 0.18379 0.55108
 C3504 C 0.19915 0.19056 0.56596
 C3505 C 0.22348 0.23251 0.59899
 C3506 C 0.23232 0.24648 0.60018
 C3507 C 0.23817 0.25380 0.58657
 C3508 C 0.23545 0.24705 0.57168
 C3509 C 0.20438 0.20422 0.59684
 C3510 C 0.19858 0.19830 0.60854
 C3511 C 0.23145 0.23254 0.54098
 C3512 C 0.23720 0.23803 0.52905
 H3513 H 0.21706 0.20930 0.52792
 H3514 H 0.20093 0.18537 0.52601
 H3515 H 0.18929 0.17316 0.55004
 H3516 H 0.19380 0.18478 0.57614
 H3517 H 0.21906 0.22732 0.60990
 H3518 H 0.23456 0.25170 0.61173
 H3519 H 0.24495 0.26471 0.58754
 H3520 H 0.24023 0.25318 0.56143
   
