data_POSCAR
  _audit_creation_date              2014-09-24
  _audit_creation_method            'ToBaCCo'
  _symmetry_space_group_name_H-M    'P1'
  _symmetry_Int_Tables_number       1
  _symmetry_cell_setting            triclinic
  loop_
  _symmetry_equiv_pos_as_xyz
 x,y,z
_cell_length_a 68.3677
_cell_length_b 68.3142
_cell_length_c 68.3480
_cell_angle_alpha 90.010600
_cell_angle_beta 90.002300
_cell_angle_gamma 89.994200
loop_
  _atom_site_label
  _atom_site_type_symbol
  _atom_site_fract_x
  _atom_site_fract_y
  _atom_site_fract_z
C1 C 0.36657 1.35276 0.33790
 C2 C 0.36658 1.33830 0.35247
 C3 C 0.35227 1.33836 0.36675
 C4 C 0.33779 1.35290 0.36669
 C5 C 0.33783 1.36713 0.35240
 C6 C 0.35235 1.36706 0.33788
 C7 C 0.37826 1.35594 0.32185
 N8 N 0.37157 1.37192 0.31185
 C9 C 0.35563 1.37872 0.32182
 C10 C 0.32181 1.37886 0.35562
 N11 N 0.31180 1.37216 0.37159
 C12 C 0.32175 1.35618 0.37835
 C13 C 0.35543 1.32231 0.37847
 N14 N 0.37133 1.31246 0.37167
 C15 C 0.37824 1.32221 0.35576
 H16 H 0.39070 1.34698 0.31805
 H17 H 0.34651 1.39097 0.31775
 H18 H 0.31779 1.39109 0.34646
 H19 H 0.31789 1.34725 0.39079
 H20 H 0.34674 1.31813 0.39103
 H21 H 0.39051 1.31765 0.34684
 C22 C 0.36675 0.85304 0.83839
 C23 C 0.36674 0.83849 0.85286
 C24 C 0.35245 0.83851 0.86717
 C25 C 0.33800 0.85309 0.86723
 C26 C 0.33803 0.86740 0.85303
 C27 C 0.35248 0.86738 0.83846
 C28 C 0.37840 0.85629 0.82230
 N29 N 0.37154 0.87225 0.81257
 C30 C 0.35567 0.87910 0.82242
 C31 C 0.32202 0.87912 0.85632
 N32 N 0.31202 0.87235 0.87225
 C33 C 0.32196 0.85632 0.87892
 C34 C 0.35560 0.82239 0.87881
 N35 N 0.37147 0.81255 0.87193
 C36 C 0.37837 0.82236 0.85605
 H37 H 0.39065 0.84734 0.81774
 H38 H 0.34703 0.89170 0.81826
 H39 H 0.31798 0.89137 0.84719
 H40 H 0.31810 0.84734 0.89134
 H41 H 0.34693 0.81818 0.89137
 H42 H 0.39062 0.81784 0.84710
 C43 C 0.86660 1.35288 0.83793
 C44 C 0.86661 1.33840 0.85248
 C45 C 0.85227 1.33842 0.86673
 C46 C 0.83776 1.35293 0.86666
 C47 C 0.83780 1.36717 0.85239
 C48 C 0.85235 1.36715 0.83789
 C49 C 0.87831 1.35609 0.82190
 N50 N 0.87161 1.37207 0.81190
 C51 C 0.85563 1.37883 0.82185
 C52 C 0.82176 1.37888 0.85559
 N53 N 0.81173 1.37215 0.87153
 C54 C 0.82170 1.35618 0.87829
 C55 C 0.85546 1.32236 0.87844
 N56 N 0.87139 1.31256 0.87166
 C57 C 0.87830 1.32234 0.85577
 H58 H 0.89077 1.34716 0.81811
 H59 H 0.84650 1.39106 0.81777
 H60 H 0.81773 1.39111 0.84642
 H61 H 0.81783 1.34724 0.89074
 H62 H 0.84676 1.31815 0.89098
 H63 H 0.89059 1.31782 0.84687
 C64 C 0.86699 0.85288 0.33792
 C65 C 0.86702 0.83838 0.35246
 C66 C 0.85269 0.83836 0.36673
 C67 C 0.83817 0.85285 0.36669
 C68 C 0.83819 0.86716 0.35240
 C69 C 0.85273 0.86715 0.33791
 C70 C 0.87868 0.85611 0.32189
 N71 N 0.87196 0.87209 0.31190
 C72 C 0.85599 0.87884 0.32187
 C73 C 0.82210 0.87883 0.35559
 N74 N 0.81226 0.87193 0.37145
 C75 C 0.82206 0.85602 0.37832
 C76 C 0.85586 0.82227 0.37840
 N77 N 0.87179 0.81248 0.37158
 C78 C 0.87870 0.82230 0.35571
 H79 H 0.89114 0.84719 0.31807
 H80 H 0.84683 0.89106 0.31780
 H81 H 0.81760 0.89110 0.34664
 H82 H 0.81781 0.84733 0.39085
 H83 H 0.84716 0.81804 0.39093
 H84 H 0.89098 0.81779 0.34679
 C85 C 0.63275 0.64663 0.33837
 C86 C 0.63277 0.66114 0.35290
 C87 C 0.64707 0.66111 0.36719
 C88 C 0.66152 0.64654 0.36719
 C89 C 0.66147 0.63226 0.35287
 C90 C 0.64694 0.63231 0.33837
 C91 C 0.62108 0.64347 0.32230
 N92 N 0.62776 0.62747 0.31230
 C93 C 0.64368 0.62065 0.32231
 C94 C 0.67753 0.62054 0.35603
 N95 N 0.68735 0.62735 0.37194
 C96 C 0.67759 0.64327 0.37885
 C97 C 0.64393 0.67721 0.37886
 N98 N 0.62805 0.68706 0.37201
 C99 C 0.62114 0.67727 0.35612
 H100 H 0.60867 0.65245 0.31845
 H101 H 0.65281 0.60841 0.31824
 H102 H 0.68172 0.60798 0.34733
 H103 H 0.68214 0.65220 0.39111
 H104 H 0.65262 0.68142 0.39141
 H105 H 0.60889 0.68181 0.34718
 C106 C 0.63376 0.14746 0.83745
 C107 C 0.63370 0.16193 0.85202
 C108 C 0.64799 0.16190 0.86632
 C109 C 0.66249 0.14738 0.86629
 C110 C 0.66250 0.13315 0.85200
 C111 C 0.64801 0.13319 0.83745
 C112 C 0.62209 0.14425 0.82139
 N113 N 0.62882 0.12827 0.81140
 C114 C 0.64477 0.12151 0.82140
 C115 C 0.67853 0.12143 0.85526
 N116 N 0.68849 0.12814 0.87126
 C117 C 0.67851 0.14412 0.87799
 C118 C 0.64476 0.17794 0.87805
 N119 N 0.62885 0.18775 0.87123
 C120 C 0.62199 0.17799 0.85529
 H121 H 0.60964 0.15318 0.81757
 H122 H 0.65390 0.10926 0.81735
 H123 H 0.68258 0.10920 0.84611
 H124 H 0.68232 0.15305 0.89045
 H125 H 0.65342 0.18213 0.89063
 H126 H 0.60973 0.18251 0.84636
 C127 C 1.13296 0.64696 0.83887
 C128 C 1.13292 0.66136 0.85349
 C129 C 1.14721 0.66128 0.86779
 C130 C 1.16171 0.64674 0.86771
 C131 C 1.16176 0.63259 0.85335
 C132 C 1.14726 0.63265 0.83881
 C133 C 1.12133 0.64386 0.82275
 N134 N 1.12820 0.62801 0.81286
 C135 C 1.14407 0.62106 0.82265
 C136 C 1.17783 0.62092 0.85651
 N137 N 1.18778 0.62757 0.87254
 C138 C 1.17774 0.64346 0.87939
 C139 C 1.14401 0.67731 0.87955
 N140 N 1.12812 0.68716 0.87274
 C141 C 1.12125 0.67744 0.85678
 H142 H 1.10878 0.65256 0.81856
 H143 H 1.15302 0.60882 0.81808
 H144 H 1.18171 0.60853 0.84750
 H145 H 1.18178 0.65257 0.89166
 H146 H 1.15268 0.68147 0.89212
 H147 H 1.10901 0.68201 0.84784
 C148 C 1.13313 0.14699 0.33826
 C149 C 1.13308 0.16143 0.35285
 C150 C 1.14734 0.16135 0.36719
 C151 C 1.16180 0.14679 0.36716
 C152 C 1.16183 0.13261 0.35282
 C153 C 1.14735 0.13269 0.33826
 C154 C 1.12151 0.14385 0.32216
 N155 N 1.12824 0.12790 0.31213
 C156 C 1.14415 0.12108 0.32215
 C157 C 1.17787 0.12090 0.35604
 N158 N 1.18780 0.12754 0.37208
 C159 C 1.17780 0.14348 0.37888
 C160 C 1.14414 0.17739 0.37892
 N161 N 1.12827 0.18725 0.37207
 C162 C 1.12142 0.17753 0.35612
 H163 H 1.10909 0.15283 0.31832
 H164 H 1.15329 0.10885 0.31807
 H165 H 1.18173 0.10848 0.34706
 H166 H 1.18183 0.15259 0.39114
 H167 H 1.15278 0.18154 0.39152
 H168 H 1.10919 0.18210 0.34716
 C169 C 0.63307 1.35266 0.66200
 C170 C 0.63299 1.33820 0.64741
 C171 C 0.64727 1.33823 0.63310
 C172 C 0.66179 1.35272 0.63314
 C173 C 0.66181 1.36698 0.64748
 C174 C 0.64732 1.36692 0.66203
 C175 C 0.62142 1.35584 0.67807
 N176 N 0.62815 1.37179 0.68810
 C177 C 0.64410 1.37856 0.67812
 C178 C 0.67790 1.37866 0.64426
 N179 N 0.68767 1.37180 0.62833
 C180 C 0.67784 1.35591 0.62146
 C181 C 0.64406 1.32217 0.62139
 N182 N 0.62817 1.31236 0.62823
 C183 C 0.62130 1.32213 0.64415
 H184 H 0.60897 1.34689 0.68189
 H185 H 0.65324 1.39079 0.68219
 H186 H 0.68244 1.39090 0.65323
 H187 H 0.68203 1.34726 0.60887
 H188 H 0.65273 1.31798 0.60882
 H189 H 0.60906 1.31759 0.65310
 C190 C 0.63280 0.85303 1.16161
 C191 C 0.63293 0.83852 1.14708
 C192 C 0.64730 0.83858 1.13286
 C193 C 0.66170 0.85320 1.13292
 C194 C 0.66155 0.86748 1.14724
 C195 C 0.64695 0.86739 1.16167
 C196 C 0.62105 0.85619 1.17763
 N197 N 0.62764 0.87221 1.18764
 C198 C 0.64358 0.87906 1.17770
 C199 C 0.67757 0.87926 1.14413
 N200 N 0.68748 0.87248 1.12827
 C201 C 0.67781 0.85652 1.12132
 C202 C 0.64424 0.82248 1.12117
 N203 N 0.62834 0.81261 1.12794
 C204 C 0.62135 0.82238 1.14380
 H205 H 0.60864 0.84718 1.18142
 H206 H 0.65266 0.89133 1.18181
 H207 H 0.68168 0.89183 1.15284
 H208 H 0.68244 0.84761 1.10907
 H209 H 0.65298 0.81830 1.10865
 H210 H 0.60906 0.81782 1.15268
 C211 C 1.13264 1.35352 1.16125
 C212 C 1.13261 1.33905 1.14671
 C213 C 1.14694 1.33902 1.13245
 C214 C 1.16153 1.35347 1.13256
 C215 C 1.16157 1.36768 1.14688
 C216 C 1.14700 1.36776 1.16133
 C217 C 1.12097 1.35668 1.17732
 N218 N 1.12787 1.37251 1.18722
 C219 C 1.14380 1.37938 1.17747
 C220 C 1.17771 1.37927 1.14375
 N221 N 1.18771 1.37253 1.12779
 C222 C 1.17764 1.35665 1.12095
 C223 C 1.14369 1.32295 1.12075
 N224 N 1.12776 1.31319 1.12759
 C225 C 1.12091 1.32301 1.14348
 H226 H 1.10838 1.34802 1.18148
 H227 H 1.15280 1.39157 1.18208
 H228 H 1.18159 1.39167 1.15274
 H229 H 1.18168 1.34750 1.10871
 H230 H 1.15266 1.31840 1.10851
 H231 H 1.10833 1.31882 1.15214
 C232 C 1.13199 0.85380 0.66073
 C233 C 1.13207 0.83931 0.64619
 C234 C 1.14637 0.83942 0.63189
 C235 C 1.16077 0.85404 0.63188
 C236 C 1.16071 0.86830 0.64623
 C237 C 1.14622 0.86817 0.66076
 C238 C 1.12036 0.85689 0.67687
 N239 N 1.12721 0.87276 0.68674
 C240 C 1.14304 0.87974 0.67691
 C241 C 1.17678 0.88000 0.64312
 N242 N 1.18662 0.87321 0.62722
 C243 C 1.17687 0.85732 0.62026
 C244 C 1.14331 0.82330 0.62022
 N245 N 1.12748 0.81338 0.62707
 C246 C 1.12052 0.82313 0.64297
 H247 H 1.10818 0.84785 0.68139
 H248 H 1.15169 0.89231 0.68119
 H249 H 1.18098 0.89252 0.65187
 H250 H 1.18145 0.84839 0.60801
 H251 H 1.15201 0.81913 0.60767
 H252 H 1.10831 0.81852 0.65192
 C253 C 0.36721 0.64674 0.66136
 C254 C 0.36724 0.66114 0.64674
 C255 C 0.35293 0.66104 0.63246
 C256 C 0.33843 0.64652 0.63256
 C257 C 0.33842 0.63233 0.64689
 C258 C 0.35292 0.63242 0.66142
 C259 C 0.37885 0.64365 0.67747
 N260 N 0.37200 0.62778 0.68735
 C261 C 0.35613 0.62083 0.67757
 C262 C 0.32237 0.62064 0.64372
 N263 N 0.31237 0.62732 0.62773
 C264 C 0.32237 0.64325 0.62091
 C265 C 0.35609 0.67708 0.62071
 N266 N 0.37199 0.68694 0.62750
 C267 C 0.37889 0.67722 0.64344
 H268 H 0.39140 0.65235 0.68166
 H269 H 0.34720 0.60858 0.68214
 H270 H 0.31830 0.60847 0.65294
 H271 H 0.31853 0.65215 0.60844
 H272 H 0.34740 0.68124 0.60815
 H273 H 0.39113 0.68180 0.65237
 C274 C 0.36742 0.14648 1.16102
 C275 C 0.36745 0.16099 1.14652
 C276 C 0.35316 0.16100 1.13221
 C277 C 0.33861 0.14652 1.13225
 C278 C 0.33859 0.13225 1.14649
 C279 C 0.35311 0.13220 1.16101
 C280 C 0.37903 0.14332 1.17714
 N281 N 0.37214 0.12744 1.18695
 C282 C 0.35628 0.12054 1.17712
 C283 C 0.32251 0.12061 1.14327
 N284 N 0.31251 0.12740 1.12734
 C285 C 0.32253 0.14336 1.12061
 C286 C 0.35638 0.17712 1.12057
 N287 N 0.37226 0.18693 1.12749
 C288 C 0.37910 0.17709 1.14338
 H289 H 0.39157 0.15201 1.18138
 H290 H 0.34731 0.10830 1.18164
 H291 H 0.31843 0.10840 1.15243
 H292 H 0.31869 0.15231 1.10817
 H293 H 0.34743 0.18167 1.10833
 H294 H 0.39163 0.18131 1.15209
 C295 C 0.86751 0.64683 1.16135
 C296 C 0.86758 0.66133 1.14683
 C297 C 0.85330 0.66137 1.13251
 C298 C 0.83872 0.64693 1.13254
 C299 C 0.83867 0.63261 1.14683
 C300 C 0.85318 0.63256 1.16135
 C301 C 0.87913 0.64366 1.17746
 N302 N 0.87223 0.62779 1.18728
 C303 C 0.85634 0.62091 1.17747
 C304 C 0.82255 0.62100 1.14361
 N305 N 0.81277 0.62793 1.12773
 C306 C 0.82262 0.64381 1.12088
 C307 C 0.85656 0.67748 1.12087
 N308 N 0.87245 0.68725 1.12779
 C309 C 0.87926 0.67741 1.14368
 H310 H 0.89169 0.65232 1.18169
 H311 H 0.84736 0.60868 1.18199
 H312 H 0.81800 0.60874 1.15255
 H313 H 0.81843 0.65250 1.10832
 H314 H 0.84762 0.68204 1.10862
 H315 H 0.89179 0.68162 1.15240
 C316 C 0.86688 0.14704 0.66192
 C317 C 0.86695 0.16152 0.64737
 C318 C 0.85267 0.16153 0.63306
 C319 C 0.83815 0.14704 0.63307
 C320 C 0.83813 0.13274 0.64738
 C321 C 0.85262 0.13277 0.66192
 C322 C 0.87852 0.14383 0.67800
 N323 N 0.87178 0.12787 0.68800
 C324 C 0.85584 0.12111 0.67799
 C325 C 0.82204 0.12108 0.64415
 N326 N 0.81226 0.12797 0.62824
 C327 C 0.82208 0.14386 0.62139
 C328 C 0.85587 0.17761 0.62139
 N329 N 0.87177 0.18741 0.62825
 C330 C 0.87864 0.17760 0.64415
 H331 H 0.89097 0.15277 0.68184
 H332 H 0.84668 0.10888 0.68204
 H333 H 0.81750 0.10882 0.65309
 H334 H 0.81789 0.15254 0.60883
 H335 H 0.84720 0.18183 0.60884
 H336 H 0.89089 0.18212 0.65311
 C337 C 1.35311 0.36700 0.66143
 C338 C 1.33862 0.36701 0.64691
 C339 C 1.33868 0.35273 0.63257
 C340 C 1.35326 0.33828 0.63252
 C341 C 1.36747 0.33825 0.64681
 C342 C 1.36742 0.35271 0.66139
 C343 C 1.35629 0.37863 0.67756
 N344 N 1.37217 0.37172 0.68736
 C345 C 1.37906 0.35585 0.67750
 C346 C 1.37915 0.32220 0.64357
 N347 N 1.37246 0.31224 0.62756
 C348 C 1.35652 0.32225 0.62081
 C349 C 1.32260 0.35591 0.62090
 N350 N 1.31275 0.37177 0.62778
 C351 C 1.32251 0.37865 0.64370
 H352 H 1.34732 0.39087 0.68211
 H353 H 1.39161 0.34717 0.68171
 H354 H 1.39157 0.31833 0.65253
 H355 H 1.34737 0.31820 0.60858
 H356 H 1.31842 0.34725 0.60831
 H357 H 1.31795 0.39089 0.65267
 C358 C 1.35279 0.86689 1.16174
 C359 C 1.33832 0.86689 1.14719
 C360 C 1.33838 0.85258 1.13289
 C361 C 1.35294 0.83812 1.13291
 C362 C 1.36713 0.83813 1.14723
 C363 C 1.36705 0.85264 1.16177
 C364 C 1.35597 0.87858 1.17780
 N365 N 1.37190 0.87184 1.18784
 C366 C 1.37867 0.85586 1.17786
 C367 C 1.37883 0.82208 1.14404
 N368 N 1.37218 0.81209 1.12802
 C369 C 1.35624 0.82208 1.12122
 C370 C 1.32234 0.85576 1.12117
 N371 N 1.31250 0.87166 1.12799
 C372 C 1.32224 0.87856 1.14392
 H373 H 1.34680 0.89080 1.18183
 H374 H 1.39111 0.84693 1.18173
 H375 H 1.39125 0.81824 1.15301
 H376 H 1.34713 0.81801 1.10898
 H377 H 1.31817 0.84708 1.10859
 H378 H 1.31770 0.89083 1.15284
 C379 C 0.85271 0.36682 1.16218
 C380 C 0.83823 0.36682 1.14763
 C381 C 0.83832 0.35254 1.13331
 C382 C 0.85290 0.33809 1.13330
 C383 C 0.86712 0.33813 1.14758
 C384 C 0.86700 0.35260 1.16216
 C385 C 0.85589 0.37849 1.17825
 N386 N 0.87185 0.37177 1.18825
 C387 C 0.87864 0.35583 1.17824
 C388 C 0.87888 0.32213 1.14432
 N389 N 0.87221 0.31214 1.12832
 C390 C 0.85621 0.32208 1.12159
 C391 C 0.82226 0.35570 1.12160
 N392 N 0.81239 0.37157 1.12845
 C393 C 0.82212 0.37846 1.14438
 H394 H 0.84670 0.39068 1.18232
 H395 H 0.89112 0.34693 1.18207
 H396 H 0.89111 0.31811 1.15348
 H397 H 0.84730 0.31822 1.10913
 H398 H 0.81811 0.34703 1.10901
 H399 H 0.81755 0.39070 1.15333
 C400 C 0.85301 0.86787 0.66111
 C401 C 0.83863 0.86785 0.64648
 C402 C 0.83870 0.85348 0.63225
 C403 C 0.85318 0.83894 0.63241
 C404 C 0.86740 0.83898 0.64680
 C405 C 0.86731 0.85356 0.66126
 C406 C 0.85609 0.87960 0.67718
 N407 N 0.87192 0.87277 0.68711
 C408 C 0.87887 0.85683 0.67741
 C409 C 0.87905 0.82284 0.64372
 N410 N 0.87223 0.81297 0.62784
 C411 C 0.85639 0.82278 0.62085
 C412 C 0.82267 0.85659 0.62050
 N413 N 0.81283 0.87253 0.62723
 C414 C 0.82256 0.87951 0.64313
 H415 H 0.84740 0.89218 0.68129
 H416 H 0.89110 0.84790 0.68203
 H417 H 0.89125 0.81834 0.65275
 H418 H 0.84777 0.81851 0.60827
 H419 H 0.81850 0.84783 0.60799
 H420 H 0.81798 0.89180 0.65201
 C421 C 0.64666 0.63236 0.66130
 C422 C 0.66125 0.63226 0.64688
 C423 C 0.66135 0.64648 0.63249
 C424 C 0.64690 0.66105 0.63236
 C425 C 0.63252 0.66115 0.64657
 C426 C 0.63241 0.64673 0.66117
 C427 C 0.64333 0.62078 0.67743
 N428 N 0.62742 0.62777 0.68713
 C429 C 0.62067 0.64366 0.67722
 C430 C 0.62092 0.67727 0.64322
 N431 N 0.62792 0.68699 0.62733
 C432 C 0.64383 0.67710 0.62061
 C433 C 0.67748 0.64317 0.62092
 N434 N 0.68722 0.62729 0.62794
 C435 C 0.67733 0.62054 0.64384
 H436 H 0.65222 0.60851 0.68204
 H437 H 0.60813 0.65240 0.68135
 H438 H 0.60863 0.68186 0.65209
 H439 H 0.65259 0.68125 0.60809
 H440 H 0.68207 0.65205 0.60864
 H441 H 0.68150 0.60803 0.65260
 C442 C 0.64730 1.13330 1.16214
 C443 C 0.66190 1.13332 1.14772
 C444 C 0.66197 1.14762 1.13342
 C445 C 0.64746 1.16214 1.13339
 C446 C 0.63313 1.16211 1.14756
 C447 C 0.63307 1.14758 1.16208
 C448 C 0.64397 1.12160 1.17815
 N449 N 0.62797 1.12834 1.18806
 C450 C 0.62130 1.14434 1.17806
 C451 C 0.62143 1.17814 1.14427
 N452 N 0.62824 1.18816 1.12835
 C453 C 0.64427 1.17821 1.12171
 C454 C 0.67808 1.14439 1.12180
 N455 N 0.68784 1.12848 1.12871
 C456 C 0.67799 1.12163 1.14458
 H457 H 0.65310 1.10937 1.18225
 H458 H 0.60883 1.15327 1.18184
 H459 H 0.60916 1.18218 1.15336
 H460 H 0.65325 1.18206 1.10930
 H461 H 0.68263 1.15333 1.10955
 H462 H 0.68216 1.10905 1.15326
 C463 C 0.14736 0.63355 1.16241
 C464 C 0.16193 0.63354 1.14796
 C465 C 0.16199 0.64785 1.13367
 C466 C 0.14751 0.66240 1.13368
 C467 C 0.13320 0.66238 1.14787
 C468 C 0.13313 0.64782 1.16237
 C469 C 0.14407 0.62185 1.17842
 N470 N 0.12806 0.62857 1.18835
 C471 C 0.12137 0.64456 1.17836
 C472 C 0.12152 0.67843 1.14460
 N473 N 0.12832 0.68845 1.12868
 C474 C 0.14433 0.67848 1.12201
 C475 C 0.17809 0.64459 1.12202
 N476 N 0.18783 0.62866 1.12891
 C477 C 0.17798 0.62182 1.14479
 H478 H 0.15299 0.60939 1.18228
 H479 H 0.10913 0.65371 1.18237
 H480 H 0.10926 0.68246 1.15371
 H481 H 0.15329 0.68232 1.10959
 H482 H 0.18264 0.65353 1.10977
 H483 H 0.18215 0.60924 1.15346
 C484 C 0.14711 1.13312 0.66202
 C485 C 0.16167 1.13309 0.64756
 C486 C 0.16174 1.14739 0.63326
 C487 C 0.14726 1.16195 0.63326
 C488 C 0.13295 1.16193 0.64746
 C489 C 0.13287 1.14739 0.66196
 C490 C 0.14382 1.12144 0.67805
 N491 N 0.12782 1.12818 0.68798
 C492 C 0.12113 1.14415 0.67796
 C493 C 0.12128 1.17798 0.64419
 N494 N 0.12808 1.18800 0.62827
 C495 C 0.14408 1.17802 0.62159
 C496 C 0.17784 1.14413 0.62163
 N497 N 0.18759 1.12821 0.62854
 C498 C 0.17773 1.12138 0.64441
 H499 H 0.15275 1.10898 0.68192
 H500 H 0.10889 1.15331 0.68197
 H501 H 0.10902 1.18203 0.65330
 H502 H 0.15305 1.18186 0.60917
 H503 H 0.18240 1.15307 0.60937
 H504 H 0.18190 1.10881 0.65310
 C505 C 1.35296 0.63286 0.33813
 C506 C 1.33844 0.63285 0.35263
 C507 C 1.33845 0.64715 0.36694
 C508 C 1.35300 0.66163 0.36696
 C509 C 1.36726 0.66160 0.35273
 C510 C 1.36722 0.64711 0.33817
 C511 C 1.35620 0.62118 0.32208
 N512 N 1.37217 0.62793 0.31211
 C513 C 1.37890 0.64389 0.32213
 C514 C 1.37897 0.67763 0.35599
 N515 N 1.37222 0.68764 0.37195
 C516 C 1.35623 0.67768 0.37865
 C517 C 1.32236 0.64399 0.37859
 N518 N 1.31254 0.62809 0.37173
 C519 C 1.32234 0.62119 0.35584
 H520 H 1.34704 0.60897 0.31799
 H521 H 1.39137 0.65281 0.31832
 H522 H 1.39120 0.68167 0.34685
 H523 H 1.34727 0.68154 0.39107
 H524 H 1.31814 0.65267 0.39115
 H525 H 1.31782 0.60892 0.34689
 C526 C 1.35334 1.13276 0.83867
 C527 C 1.33880 1.13274 0.85314
 C528 C 1.33881 1.14702 0.86748
 C529 C 1.35337 1.16149 0.86756
 C530 C 1.36766 1.16149 0.85336
 C531 C 1.36765 1.14705 0.83876
 C532 C 1.35657 1.12114 0.82255
 N533 N 1.37249 1.12804 0.81281
 C534 C 1.37934 1.14390 0.82269
 C535 C 1.37935 1.17753 0.85666
 N536 N 1.37256 1.18751 0.87261
 C537 C 1.35657 1.17753 0.87927
 C538 C 1.32269 1.14384 0.87909
 N539 N 1.31286 1.12798 0.87217
 C540 C 1.32268 1.12110 0.85629
 H541 H 1.34762 1.10890 0.81797
 H542 H 1.39192 1.15257 0.81853
 H543 H 1.39158 1.18160 0.84753
 H544 H 1.34758 1.18137 0.89169
 H545 H 1.31845 1.15251 0.89165
 H546 H 1.31816 1.10886 0.84730
 C547 C 0.85330 0.63245 0.83896
 C548 C 0.83874 0.63238 0.85342
 C549 C 0.83871 0.64660 0.86780
 C550 C 0.85324 0.66109 0.86796
 C551 C 0.86761 0.66115 0.85374
 C552 C 0.86761 0.64675 0.83911
 C553 C 0.85656 0.62089 0.82279
 N554 N 0.87248 0.62784 0.81309
 C555 C 0.87932 0.64367 0.82303
 C556 C 0.87925 0.67723 0.85708
 N557 N 0.87229 0.68698 0.87298
 C558 C 0.85636 0.67713 0.87971
 C559 C 0.82256 0.64341 0.87935
 N560 N 0.81274 0.62757 0.87236
 C561 C 0.82261 0.62073 0.85648
 H562 H 0.84762 0.60866 0.81816
 H563 H 0.89189 0.65237 0.81891
 H564 H 0.89153 0.68180 0.84819
 H565 H 0.84761 0.68133 0.89222
 H566 H 0.81829 0.65204 0.89193
 H567 H 0.81810 0.60853 0.84744
 C568 C 0.85326 1.13211 0.33894
 C569 C 0.83865 1.13230 0.35334
 C570 C 0.83860 1.14671 0.36754
 C571 C 0.85317 1.16117 0.36752
 C572 C 0.86756 1.16100 0.35331
 C573 C 0.86763 1.14634 0.33894
 C574 C 0.85647 1.12033 0.32294
 N575 N 0.87245 1.12705 0.31319
 C576 C 0.87937 1.14297 0.32294
 C577 C 0.87926 1.17707 0.35644
 N578 N 0.87235 1.18703 0.37222
 C579 C 0.85638 1.17735 0.37908
 C580 C 0.82241 1.14364 0.37910
 N581 N 0.81259 1.12774 0.37223
 C582 C 0.82249 1.12073 0.35646
 H583 H 0.84774 1.10781 0.31873
 H584 H 0.89167 1.15185 0.31842
 H585 H 0.89189 1.18116 0.34782
 H586 H 0.84739 1.18200 0.39126
 H587 H 0.81783 1.15269 0.39126
 H588 H 0.81829 1.10813 0.34783
 C589 C 0.64699 0.36740 0.33831
 C590 C 0.66152 0.36746 0.35280
 C591 C 0.66158 0.35319 0.36713
 C592 C 0.64714 0.33861 0.36713
 C593 C 0.63283 0.33857 0.35284
 C594 C 0.63280 0.35307 0.33831
 C595 C 0.64372 0.37905 0.32225
 N596 N 0.62780 0.37223 0.31225
 C597 C 0.62113 0.35624 0.32224
 C598 C 0.62120 0.32246 0.35608
 N599 N 0.62811 0.31268 0.37197
 C600 C 0.64399 0.32252 0.37881
 C601 C 0.67765 0.35648 0.37879
 N602 N 0.68740 0.37239 0.37188
 C603 C 0.67757 0.37919 0.35597
 H604 H 0.65284 0.39130 0.31818
 H605 H 0.60872 0.34725 0.31840
 H606 H 0.60894 0.31791 0.34715
 H607 H 0.65268 0.31833 0.39137
 H608 H 0.68220 0.34756 0.39106
 H609 H 0.68175 0.39175 0.34727
 C610 C 0.64695 0.86742 0.83859
 C611 C 0.66141 0.86752 0.85314
 C612 C 0.66144 0.85325 0.86748
 C613 C 0.64703 0.83864 0.86743
 C614 C 0.63275 0.83855 0.85311
 C615 C 0.63271 0.85305 0.83858
 C616 C 0.64378 0.87903 0.82247
 N617 N 0.62794 0.87209 0.81262
 C618 C 0.62108 0.85619 0.82244
 C619 C 0.62116 0.82241 0.85632
 N620 N 0.62807 0.81265 0.87223
 C621 C 0.64391 0.82254 0.87910
 C622 C 0.67750 0.85655 0.87916
 N623 N 0.68726 0.87246 0.87225
 C624 C 0.67745 0.87924 0.85632
 H625 H 0.65242 0.89161 0.81824
 H626 H 0.60888 0.84718 0.81790
 H627 H 0.60894 0.81783 0.84736
 H628 H 0.65257 0.81837 0.89168
 H629 H 0.68204 0.84762 0.89143
 H630 H 0.68166 0.89178 0.84760
 C631 C 0.14652 0.36789 0.83862
 C632 C 0.16110 0.36776 0.85306
 C633 C 0.16111 0.35341 0.86732
 C634 C 0.14654 0.33896 0.86731
 C635 C 0.13221 0.33909 0.85304
 C636 C 0.13222 0.35368 0.83861
 C637 C 0.14330 0.37962 0.82260
 N638 N 0.12732 0.37294 0.81261
 C639 C 0.12055 0.35697 0.82258
 C640 C 0.12050 0.32303 0.85617
 N641 N 0.12735 0.31311 0.87200
 C642 C 0.14328 0.32282 0.87891
 C643 C 0.17725 0.35653 0.87894
 N644 N 0.18708 0.37241 0.87206
 C645 C 0.17725 0.37935 0.85622
 H646 H 0.15251 0.39180 0.81854
 H647 H 0.10809 0.34805 0.81872
 H648 H 0.10792 0.31889 0.84749
 H649 H 0.15224 0.31820 0.89112
 H650 H 0.18177 0.34753 0.89116
 H651 H 0.18148 0.39193 0.84757
 C652 C 0.14654 0.86767 0.33843
 C653 C 0.16113 0.86754 0.35286
 C654 C 0.16113 0.85319 0.36712
 C655 C 0.14655 0.83874 0.36712
 C656 C 0.13223 0.83887 0.35284
 C657 C 0.13225 0.85346 0.33841
 C658 C 0.14333 0.87942 0.32242
 N659 N 0.12734 0.87275 0.31242
 C660 C 0.12057 0.85677 0.32238
 C661 C 0.12050 0.82282 0.35598
 N662 N 0.12734 0.81291 0.37183
 C663 C 0.14329 0.82261 0.37872
 C664 C 0.17726 0.85631 0.37875
 N665 N 0.18710 0.87219 0.37188
 C666 C 0.17727 0.87913 0.35603
 H667 H 0.15254 0.89160 0.31837
 H668 H 0.10810 0.84787 0.31852
 H669 H 0.10792 0.81868 0.34732
 H670 H 0.15224 0.81801 0.39095
 H671 H 0.18178 0.84731 0.39097
 H672 H 0.18150 0.89171 0.34739
 O673 O 0.98081 0.92935 0.90271
 O674 O 0.98073 0.90653 0.87988
 C675 C 0.97412 0.92249 0.88679
 C676 C 0.95819 0.93297 0.87648
 C677 C 0.95174 0.92668 0.85802
 H678 H 0.95901 0.91453 0.85089
 O679 O 1.01909 1.07075 0.90243
 O680 O 1.01912 1.09351 0.87955
 C681 C 1.02575 1.07758 0.88649
 C682 C 1.04167 1.06705 0.87619
 C683 C 1.04818 1.07334 0.85774
 H684 H 1.04128 1.08582 0.85081
 O685 O 0.90263 0.98112 0.92940
 O686 O 0.87974 0.98107 0.90667
 C687 C 0.88668 0.97444 0.92260
 C688 C 0.87639 0.95852 0.93312
 C689 C 0.85793 0.95204 0.92683
 H690 H 0.85081 0.95929 0.91467
 O691 O 1.09743 1.01906 0.92910
 O692 O 1.12027 1.01900 0.90632
 C693 C 1.11338 1.02569 0.92224
 C694 C 1.12371 1.04162 0.93271
 C695 C 1.14214 1.04814 0.92636
 H696 H 1.14903 1.04122 0.91388
 O697 O 0.92928 0.90286 0.98115
 O698 O 0.90651 0.88000 0.98118
 C699 C 0.92242 0.88691 0.97451
 C700 C 0.93288 0.87657 0.95858
 C701 C 0.92658 0.85807 0.95218
 H702 H 0.91447 0.85095 0.95950
 O703 O 1.07082 1.09736 0.98071
 O704 O 1.09359 1.12023 0.98064
 C705 C 1.07765 1.11330 0.97402
 C706 C 1.06716 1.12361 0.95810
 C707 C 1.07344 1.14209 0.95166
 H708 H 1.08558 1.14922 0.95894
 O709 O 0.92939 1.01923 0.90251
 O710 O 0.90663 1.01924 0.87964
 C711 C 0.92255 1.02590 0.88656
 C712 C 0.93302 1.04184 0.87626
 C713 C 0.92671 1.04837 0.85782
 H714 H 0.91425 1.04144 0.85090
 O715 O 1.07051 0.98088 0.90246
 O716 O 1.09320 0.98078 0.87953
 C717 C 1.07730 0.97416 0.88652
 C718 C 1.06680 0.95819 0.87630
 C719 C 1.07303 0.95167 0.85783
 H720 H 1.08513 0.95895 0.85064
 O721 O 1.01896 0.90256 0.92950
 O722 O 1.01895 0.87961 0.90681
 C723 C 1.02562 0.88659 0.92270
 C724 C 1.04158 0.87634 0.93319
 C725 C 1.04811 0.85787 0.92692
 H726 H 1.04119 0.85089 0.91449
 O727 O 0.98098 1.09760 0.92926
 O728 O 0.98096 1.12050 0.90652
 C729 C 0.97431 1.11355 0.92244
 C730 C 0.95836 1.12383 0.93292
 C731 C 0.95178 1.14225 0.92658
 H732 H 0.95866 1.14918 0.91410
 O733 O 0.90267 1.07081 0.98097
 O734 O 0.87980 1.09359 0.98095
 C735 C 0.88673 1.07766 0.97430
 C736 C 0.87645 1.06720 0.95833
 C737 C 0.85801 1.07353 0.95183
 H738 H 0.85087 1.08567 0.95911
 O739 O 1.09740 0.92950 0.98095
 O740 O 1.12027 0.90674 0.98093
 C741 C 1.11332 0.92265 0.97426
 C742 C 1.12358 0.93308 0.95827
 C743 C 1.14203 0.92677 0.95180
 H744 H 1.14920 0.91468 0.95914
 O745 O 0.98095 1.07078 0.90248
 O746 O 0.98092 1.09354 0.87960
 C747 C 0.97427 1.07762 0.88654
 C748 C 0.95830 1.06716 0.87628
 C749 C 0.95179 1.07347 0.85784
 H750 H 0.95906 1.08560 0.85069
 O751 O 1.01895 0.92930 0.90264
 O752 O 1.01892 0.90648 0.87981
 C753 C 1.02559 0.92242 0.88670
 C754 C 1.04150 0.93289 0.87636
 C755 C 1.04795 0.92658 0.85790
 H756 H 1.04100 0.91412 0.85099
 O757 O 1.09735 0.98090 0.92919
 O758 O 1.12019 0.98080 0.90641
 C759 C 1.11328 0.97420 0.92236
 C760 C 1.12357 0.95829 0.93289
 C761 C 1.14203 0.95177 0.92662
 H762 H 1.14896 0.95866 0.91414
 O763 O 0.90264 1.01928 0.92933
 O764 O 0.87973 1.01929 0.90661
 C765 C 0.88669 1.02595 0.92252
 C766 C 0.87642 1.04191 0.93302
 C767 C 0.85798 1.04845 0.92671
 H768 H 0.85106 1.04155 0.91424
 O769 O 0.92948 1.09759 0.98090
 O770 O 0.90675 1.12049 0.98088
 C771 C 0.92264 1.11353 0.97421
 C772 C 0.93308 1.12379 0.95822
 C773 C 0.92672 1.14221 0.95168
 H774 H 0.91457 1.14934 0.95894
 O775 O 1.07058 0.90273 0.98102
 O776 O 1.09332 0.87984 0.98099
 C777 C 1.07740 0.88677 0.97435
 C778 C 1.06692 0.87646 0.95843
 C779 C 1.07323 0.85800 0.95197
 H780 H 1.08538 0.85088 0.95924
 O781 O 1.07056 1.01907 0.90241
 O782 O 1.09325 1.01902 0.87948
 C783 C 1.07737 1.02572 0.88645
 C784 C 1.06692 1.04171 0.87619
 C785 C 1.07321 1.04819 0.85774
 H786 H 1.08532 1.04089 0.85057
 O787 O 0.92936 0.98105 0.90256
 O788 O 0.90661 0.98101 0.87969
 C789 C 0.92252 0.97435 0.88663
 C790 C 0.93298 0.95836 0.87638
 C791 C 0.92672 0.95184 0.85791
 H792 H 0.91431 0.95881 0.85094
 O793 O 1.01914 1.09755 0.92924
 O794 O 1.01917 1.12046 0.90651
 C795 C 1.02583 1.11349 0.92241
 C796 C 1.04180 1.12374 0.93289
 C797 C 1.04830 1.14222 0.92664
 H798 H 1.04134 1.14921 0.91424
 O799 O 0.98081 0.90261 0.92955
 O800 O 0.98074 0.87964 0.90687
 C801 C 0.97412 0.88664 0.92277
 C802 C 0.95818 0.87641 0.93331
 C803 C 0.95167 0.85792 0.92710
 H804 H 0.95859 0.85091 0.91468
 O805 O 1.09760 1.07056 0.98071
 O806 O 1.12050 1.09330 0.98063
 C807 C 1.11353 1.07738 0.97400
 C808 C 1.12376 1.06690 0.95802
 C809 C 1.14219 1.07320 0.95148
 H810 H 1.14936 1.08533 0.95875
 O811 O 0.90251 0.92968 0.98114
 O812 O 0.87959 0.90696 0.98118
 C813 C 0.88656 0.92286 0.97449
 C814 C 0.87629 0.93332 0.95852
 C815 C 0.85784 0.92704 0.95201
 H816 H 0.85088 0.91461 0.95897
 Cu817 Cu 0.99989 0.91824 0.91838
 Cu818 Cu 0.99983 0.89076 0.89106
 Cu819 Cu 1.00004 1.08189 0.91813
 Cu820 Cu 1.00005 1.10930 0.89075
 Cu821 Cu 0.91829 1.00017 0.91822
 Cu822 Cu 0.89088 1.00015 0.89086
 Cu823 Cu 1.08169 0.99999 0.91807
 Cu824 Cu 1.10901 0.99989 0.89063
 C825 C 0.94884 0.94894 0.88545
 H826 H 0.95358 0.95371 0.89980
 C827 C 0.93602 0.93603 0.84861
 C828 C 1.05102 1.05112 0.88520
 H829 H 1.04625 1.04635 0.89954
 C830 C 1.06393 1.06399 0.84838
 C831 C 0.88535 0.94919 0.94908
 H832 H 0.89969 0.95395 0.95385
 C833 C 0.84854 0.93632 0.93619
 C834 C 1.11474 1.05099 0.94865
 H835 H 1.10042 1.04621 0.95346
 C836 C 1.15150 1.06391 0.93567
 C837 C 0.94880 0.88552 0.94917
 H838 H 0.95357 0.89989 0.95387
 C839 C 0.93589 0.84862 0.93646
 C840 C 1.05121 1.11465 0.94874
 H841 H 1.04645 1.10029 0.95347
 C842 C 1.06410 1.15152 0.93596
 C843 C 0.94894 1.05122 0.88527
 H844 H 0.95372 1.04644 0.89961
 C845 C 0.93602 1.06416 0.84848
 C846 C 1.05090 0.94882 0.88535
 H847 H 1.04618 0.95360 0.89970
 C848 C 1.06370 0.93589 0.84851
 C849 C 1.05097 0.88541 0.94907
 H850 H 1.04618 0.89976 0.95382
 C851 C 1.06392 0.84858 0.93623
 C852 C 0.94903 1.11482 0.94887
 H853 H 0.95385 1.10050 0.95367
 C854 C 0.93597 1.15156 0.93588
 C855 C 0.88543 1.05126 0.94895
 H856 H 0.89976 1.04647 0.95372
 C857 C 0.84865 1.06424 0.93604
 C858 C 1.11456 0.94896 0.94883
 H859 H 1.10022 0.95373 0.95358
 C860 C 1.15138 0.93603 0.93600
 O861 O 1.01923 0.92961 1.09747
 O862 O 1.01925 0.90686 1.12036
 C863 C 1.02590 0.92278 1.11342
 C864 C 1.04184 0.93327 1.12370
 C865 C 1.04827 0.92701 1.14219
 H866 H 1.04097 0.91490 1.14934
 O867 O 0.98130 1.07103 1.09735
 O868 O 0.98132 1.09385 1.12018
 C869 C 0.97467 1.07790 1.11329
 C870 C 0.95878 1.06741 1.12364
 C871 C 0.95244 1.07365 1.14217
 H872 H 0.95977 1.08577 1.14930
 O873 O 0.90289 1.01946 1.07088
 O874 O 0.88008 1.01956 1.09369
 C875 C 0.88699 1.02618 1.07774
 C876 C 0.87670 1.04213 1.06727
 C877 C 0.85830 1.04868 1.07364
 H878 H 0.85121 1.04146 1.08584
 O879 O 1.09756 0.98111 1.07075
 O880 O 1.12046 0.98108 1.09347
 C881 C 1.11349 0.97442 1.07756
 C882 C 1.12374 0.95845 1.06707
 C883 C 1.14216 0.95188 1.07337
 H884 H 1.14911 0.95877 1.08583
 O885 O 1.07068 0.90273 1.01918
 O886 O 1.09342 0.87983 1.01917
 C887 C 1.07752 0.88678 1.02585
 C888 C 1.06709 0.87651 1.04183
 C889 C 1.07345 0.85808 1.04836
 H890 H 1.08560 0.85095 1.04110
 O891 O 0.92954 1.09765 1.01906
 O892 O 0.90681 1.12056 1.01908
 C893 C 0.92273 1.11362 1.02572
 C894 C 0.93323 1.12393 1.04164
 C895 C 0.92692 1.14239 1.04813
 H896 H 0.91476 1.14951 1.04088
 O897 O 0.92963 0.98125 1.09768
 O898 O 0.90694 0.98130 1.12061
 C899 C 0.92282 0.97460 1.11364
 C900 C 0.93328 0.95861 1.12389
 C901 C 0.92696 0.95205 1.14232
 H902 H 0.91452 0.95898 1.14927
 O903 O 1.07087 1.01938 1.09750
 O904 O 1.09362 1.01941 1.12037
 C905 C 1.07772 1.02608 1.11342
 C906 C 1.06728 1.04209 1.12366
 C907 C 1.07356 1.04863 1.14211
 H908 H 1.08598 1.04168 1.14908
 O909 O 0.98104 0.90283 1.07071
 O910 O 0.98102 0.87994 1.09346
 C911 C 0.97436 0.88689 1.07755
 C912 C 0.95837 0.87663 1.06712
 C913 C 0.95189 0.85817 1.07341
 H914 H 0.95921 0.85099 1.08550
 O915 O 1.01938 1.09778 1.07045
 O916 O 1.01945 1.12075 1.09312
 C917 C 1.02607 1.11375 1.07722
 C918 C 1.04200 1.12398 1.06667
 C919 C 1.04853 1.14247 1.07286
 H920 H 1.04162 1.14950 1.08527
 O921 O 0.90256 0.92973 1.01931
 O922 O 0.87965 0.90701 1.01940
 C923 C 0.88662 0.92292 1.02603
 C924 C 0.87640 0.93344 1.04199
 C925 C 0.85796 0.92718 1.04856
 H926 H 0.85097 0.91475 1.04164
 O927 O 1.09763 1.07060 1.01889
 O928 O 1.12053 1.09334 1.01884
 C929 C 1.11358 1.07744 1.02553
 C930 C 1.12386 1.06701 1.04151
 C931 C 1.14233 1.07330 1.04794
 H932 H 1.14949 1.08537 1.04059
 O933 O 1.01944 1.07107 1.09732
 O934 O 1.01950 1.09390 1.12014
 C935 C 1.02613 1.07795 1.11324
 C936 C 1.04207 1.06748 1.12354
 C937 C 1.04855 1.07381 1.14199
 H938 H 1.04130 1.08597 1.14911
 O939 O 0.98109 0.92958 1.09755
 O940 O 0.98107 0.90683 1.12043
 C941 C 0.97443 0.92276 1.11350
 C942 C 0.95850 0.93324 1.12380
 C943 C 0.95199 0.92690 1.14222
 H944 H 0.95923 0.91473 1.14934
 O945 O 1.09761 1.01927 1.07068
 O946 O 1.12052 1.01930 1.09339
 C947 C 1.11357 1.02593 1.07747
 C948 C 1.12387 1.04181 1.06691
 C949 C 1.14234 1.04831 1.07314
 H950 H 1.14929 1.04142 1.08561
 O951 O 0.90284 0.98129 1.07090
 O952 O 0.88001 0.98134 1.09369
 C953 C 0.88690 0.97466 1.07776
 C954 C 0.87656 0.95872 1.06732
 C955 C 0.85812 0.95227 1.07366
 H956 H 0.85102 0.95956 1.08582
 O957 O 1.07088 1.09745 1.01886
 O958 O 1.09366 1.12031 1.01881
 C959 C 1.07774 1.11341 1.02548
 C960 C 1.06729 1.12378 1.04139
 C961 C 1.07360 1.14227 1.04777
 H962 H 1.08572 1.14937 1.04044
 O963 O 0.92931 0.90289 1.01930
 O964 O 0.90655 0.88002 1.01938
 C965 C 0.92248 0.88695 1.02599
 C966 C 0.93301 0.87664 1.04190
 C967 C 0.92673 0.85818 1.04840
 H968 H 0.91426 0.85125 1.04151
 O969 O 1.07079 0.98120 1.09754
 O970 O 1.09353 0.98117 1.12042
 C971 C 1.07761 0.97453 1.11349
 C972 C 1.06710 0.95860 1.12377
 C973 C 1.07334 0.95212 1.14225
 H974 H 1.08576 0.95907 1.14922
 O975 O 0.92975 1.01944 1.09760
 O976 O 0.90708 1.01952 1.12055
 C977 C 0.92298 1.02614 1.11356
 C978 C 0.93353 1.04207 1.12380
 C979 C 0.92739 1.04853 1.14232
 H980 H 0.91500 1.04157 1.14934
 O981 O 0.98123 1.09780 1.07053
 O982 O 0.98125 1.12076 1.09321
 C983 C 0.97456 1.11377 1.07733
 C984 C 0.95859 1.12403 1.06686
 C985 C 0.95206 1.14248 1.07315
 H986 H 0.95901 1.14945 1.08558
 O987 O 1.01920 0.90271 1.07076
 O988 O 1.01922 0.87982 1.09352
 C989 C 1.02587 0.88676 1.07760
 C990 C 1.04181 0.87647 1.06712
 C991 C 1.04839 0.85805 1.07346
 H992 H 1.04150 0.85112 1.08594
 O993 O 1.09743 0.92956 1.01913
 O994 O 1.12030 0.90679 1.01913
 C995 C 1.11337 0.92272 1.02579
 C996 C 1.12366 0.93317 1.04175
 C997 C 1.14208 0.92681 1.04825
 H998 H 1.14920 0.91466 1.04096
 O999 O 0.90272 1.07089 1.01915
 O1000 O 0.87985 1.09366 1.01917
 C1001 C 0.88680 1.07775 1.02585
 C1002 C 0.87657 1.06732 1.04187
 C1003 C 0.85817 1.07368 1.04846
 H1004 H 0.85122 1.08613 1.04153
 Cu1005 Cu 1.00014 0.91846 1.08184
 Cu1006 Cu 1.00014 0.89107 1.10923
 Cu1007 Cu 1.00033 1.08214 1.08163
 Cu1008 Cu 1.00038 1.10962 1.10895
 Cu1009 Cu 0.91819 0.91857 1.00022
 Cu1010 Cu 0.89077 0.89121 1.00029
 Cu1011 Cu 1.08174 0.91842 1.00007
 Cu1012 Cu 1.10912 0.89101 1.00005
 Cu1013 Cu 0.91837 1.08195 1.00002
 Cu1014 Cu 0.89101 1.10937 1.00002
 Cu1015 Cu 1.08196 1.08171 0.99980
 Cu1016 Cu 1.10937 1.10908 0.99972
 Cu1017 Cu 0.91856 1.00035 1.08198
 Cu1018 Cu 0.89124 1.00044 1.10943
 Cu1019 Cu 1.08192 1.00024 1.08184
 Cu1020 Cu 1.10933 1.00024 1.10921
 C1021 C 1.05123 0.94919 1.11471
 H1022 H 1.04651 0.95393 1.10035
 C1023 C 1.06400 0.93635 1.15159
 C1024 C 0.94935 1.05150 1.11468
 H1025 H 0.95400 1.04676 1.10028
 C1026 C 0.93677 1.06429 1.15163
 C1027 C 0.88561 1.05143 1.05126
 H1028 H 0.89992 1.04661 1.04642
 C1029 C 0.84891 1.06444 1.06433
 C1030 C 1.11470 0.94911 1.05114
 H1031 H 1.10038 0.95393 1.04637
 C1032 C 1.15146 0.93607 1.06403
 C1033 C 1.05115 0.88548 1.05118
 H1034 H 1.04633 0.89980 1.04638
 C1035 C 1.06419 0.84873 1.06416
 C1036 C 0.94919 1.11496 1.05098
 H1037 H 0.95397 1.10061 1.04622
 C1038 C 0.93625 1.15179 1.06387
 C1039 C 0.94916 0.94922 1.11485
 H1040 H 0.95395 0.95402 1.10052
 C1041 C 0.93624 0.93621 1.15161
 C1042 C 1.05141 1.05150 1.11460
 H1043 H 1.04665 1.04670 1.10026
 C1044 C 1.06428 1.06447 1.15140
 C1045 C 0.94894 0.88565 1.05124
 H1046 H 0.95370 0.90001 1.04647
 C1047 C 0.93610 0.84881 1.06414
 C1048 C 1.05137 1.11485 1.05082
 H1049 H 1.04659 1.10048 1.04613
 C1050 C 1.06431 1.15174 1.06348
 C1051 C 0.88548 0.94933 1.05136
 H1052 H 0.89982 0.95406 1.04655
 C1053 C 0.84869 0.93652 1.06437
 C1054 C 1.11485 1.05115 1.05097
 H1055 H 1.10049 1.04639 1.04625
 C1056 C 1.15170 1.06403 1.06373
 O1057 O 0.98082 0.42915 0.40275
 O1058 O 0.98077 0.40635 0.37991
 C1059 C 0.97414 0.42229 0.38682
 C1060 C 0.95821 0.43277 0.37652
 C1061 C 0.95169 0.42642 0.35810
 H1062 H 0.95893 0.41425 0.35098
 O1063 O 1.01916 0.57068 0.40259
 O1064 O 1.01917 0.59345 0.37972
 C1065 C 1.02582 0.57752 0.38665
 C1066 C 1.04173 0.56701 0.37634
 C1067 C 1.04826 0.57333 0.35790
 H1068 H 1.04136 0.58582 0.35099
 O1069 O 0.90271 0.48092 0.42948
 O1070 O 0.87982 0.48091 0.40674
 C1071 C 0.88675 0.47427 0.42266
 C1072 C 0.87644 0.45835 0.43316
 C1073 C 0.85801 0.45186 0.42683
 H1074 H 0.85090 0.45911 0.41466
 O1075 O 1.09744 0.51897 0.42926
 O1076 O 1.12028 0.51894 0.40648
 C1077 C 1.11338 0.52562 0.42240
 C1078 C 1.12370 0.54155 0.43287
 C1079 C 1.14211 0.54809 0.42651
 H1080 H 1.14901 0.54119 0.41402
 O1081 O 0.92926 0.40266 0.48119
 O1082 O 0.90648 0.37981 0.48121
 C1083 C 0.92240 0.38672 0.47454
 C1084 C 0.93285 0.37638 0.45860
 C1085 C 0.92652 0.35792 0.45216
 H1086 H 0.91439 0.35081 0.45945
 O1087 O 1.07082 0.59729 0.48091
 O1088 O 1.09359 0.62017 0.48087
 C1089 C 1.07766 0.61324 0.47424
 C1090 C 1.06717 0.62355 0.45831
 C1091 C 1.07346 0.64203 0.45187
 H1092 H 1.08560 0.64916 0.45915
 O1093 O 0.92951 0.51904 0.40262
 O1094 O 0.90676 0.51907 0.37975
 C1095 C 0.92268 0.52571 0.38668
 C1096 C 0.93316 0.54166 0.37640
 C1097 C 0.92686 0.54817 0.35794
 H1098 H 0.91442 0.54122 0.35100
 O1099 O 1.07052 0.48081 0.40259
 O1100 O 1.09321 0.48073 0.37965
 C1101 C 1.07730 0.47411 0.38664
 C1102 C 1.06678 0.45815 0.37640
 C1103 C 1.07300 0.45166 0.35792
 H1104 H 1.08541 0.45860 0.35094
 O1105 O 1.01898 0.40236 0.42955
 O1106 O 1.01897 0.37943 0.40684
 C1107 C 1.02564 0.38640 0.42274
 C1108 C 1.04162 0.37615 0.43321
 C1109 C 1.04817 0.35770 0.42690
 H1110 H 1.04123 0.35074 0.41446
 O1111 O 0.98103 0.59748 0.42943
 O1112 O 0.98100 0.62039 0.40670
 C1113 C 0.97435 0.61344 0.42261
 C1114 C 0.95840 0.62371 0.43310
 C1115 C 0.95184 0.64214 0.42678
 H1116 H 0.95874 0.64908 0.41431
 O1117 O 0.90270 0.57066 0.48108
 O1118 O 0.87981 0.59341 0.48107
 C1119 C 0.88676 0.57749 0.47441
 C1120 C 0.87648 0.56700 0.45845
 C1121 C 0.85805 0.57331 0.45192
 H1122 H 0.85109 0.58576 0.45885
 O1123 O 1.09746 0.42932 0.48095
 O1124 O 1.12034 0.40656 0.48092
 C1125 C 1.11339 0.42248 0.47426
 C1126 C 1.12364 0.43292 0.45827
 C1127 C 1.14208 0.42662 0.45177
 H1128 H 1.14924 0.41450 0.45906
 O1129 O 0.98102 0.57066 0.40266
 O1130 O 0.98098 0.59343 0.37978
 C1131 C 0.97434 0.57750 0.38672
 C1132 C 0.95840 0.56701 0.37644
 C1133 C 0.95191 0.57330 0.35799
 H1134 H 0.95917 0.58545 0.35084
 O1135 O 1.01896 0.42918 0.40278
 O1136 O 1.01896 0.40638 0.37992
 C1137 C 1.02561 0.42232 0.38684
 C1138 C 1.04154 0.43280 0.37652
 C1139 C 1.04796 0.42652 0.35804
 H1140 H 1.04067 0.41438 0.35090
 O1141 O 1.09739 0.48081 0.42929
 O1142 O 1.12023 0.48073 0.40650
 C1143 C 1.11332 0.47411 0.42244
 C1144 C 1.12362 0.45818 0.43294
 C1145 C 1.14206 0.45167 0.42664
 H1146 H 1.14897 0.45858 0.41416
 O1147 O 0.90276 0.51909 0.42945
 O1148 O 0.87987 0.51913 0.40672
 C1149 C 0.88683 0.52578 0.42263
 C1150 C 0.87656 0.54174 0.43311
 C1151 C 0.85812 0.54824 0.42680
 H1152 H 0.85099 0.54096 0.41465
 O1153 O 0.92950 0.59744 0.48104
 O1154 O 0.90675 0.62034 0.48103
 C1155 C 0.92266 0.61339 0.47436
 C1156 C 0.93310 0.62367 0.45839
 C1157 C 0.92676 0.64210 0.45186
 H1158 H 0.91461 0.64923 0.45912
 O1159 O 1.07065 0.40254 0.48100
 O1160 O 1.09340 0.37965 0.48097
 C1161 C 1.07747 0.38658 0.47434
 C1162 C 1.06698 0.37627 0.45841
 C1163 C 1.07332 0.35782 0.45191
 H1164 H 1.08548 0.35071 0.45916
 O1165 O 1.07060 0.51900 0.40253
 O1166 O 1.09330 0.51897 0.37960
 C1167 C 1.07742 0.52566 0.38657
 C1168 C 1.06698 0.54166 0.37632
 C1169 C 1.07329 0.54817 0.35788
 H1170 H 1.08540 0.54088 0.35072
 O1171 O 0.92943 0.48085 0.40262
 O1172 O 0.90668 0.48084 0.37975
 C1173 C 0.92258 0.47416 0.38669
 C1174 C 0.93301 0.45816 0.37643
 C1175 C 0.92668 0.45160 0.35800
 H1176 H 0.91425 0.45854 0.35105
 O1177 O 1.01919 0.59745 0.42942
 O1178 O 1.01920 0.62037 0.40670
 C1179 C 1.02586 0.61340 0.42260
 C1180 C 1.04182 0.62366 0.43308
 C1181 C 1.04833 0.64214 0.42683
 H1182 H 1.04138 0.64912 0.41441
 O1183 O 0.98082 0.40243 0.42962
 O1184 O 0.98077 0.37948 0.40692
 C1185 C 0.97412 0.38647 0.42282
 C1186 C 0.95816 0.37623 0.43333
 C1187 C 0.95162 0.35777 0.42708
 H1188 H 0.95853 0.35078 0.41465
 O1189 O 1.09759 0.57047 0.48088
 O1190 O 1.12048 0.59321 0.48084
 C1191 C 1.11352 0.57729 0.47419
 C1192 C 1.12375 0.56683 0.45819
 C1193 C 1.14216 0.57316 0.45164
 H1194 H 1.14932 0.58529 0.45890
 O1195 O 0.90250 0.42949 0.48119
 O1196 O 0.87958 0.40677 0.48121
 C1197 C 0.88655 0.42267 0.47453
 C1198 C 0.87631 0.43314 0.45855
 C1199 C 0.85787 0.42684 0.45200
 H1200 H 0.85090 0.41441 0.45894
 Cu1201 Cu 0.99990 0.41806 0.41846
 Cu1202 Cu 0.99987 0.39061 0.39111
 Cu1203 Cu 1.00010 0.58179 0.41831
 Cu1204 Cu 1.00009 0.60921 0.39093
 Cu1205 Cu 0.91839 0.49997 0.41832
 Cu1206 Cu 0.89098 0.49999 0.39095
 Cu1207 Cu 1.08171 0.49991 0.41820
 Cu1208 Cu 1.10904 0.49983 0.39075
 C1209 C 0.94889 0.44876 0.38547
 H1210 H 0.95368 0.45357 0.39979
 C1211 C 0.93595 0.43575 0.34871
 C1212 C 1.05107 0.55106 0.38533
 H1213 H 1.04629 0.54627 0.39966
 C1214 C 1.06401 0.56399 0.34855
 C1215 C 0.88538 0.44901 0.44914
 H1216 H 0.89971 0.45378 0.45394
 C1217 C 0.84860 0.43612 0.43615
 C1218 C 1.11473 0.55091 0.44883
 H1219 H 1.10042 0.54611 0.45364
 C1220 C 1.15147 0.56388 0.43582
 C1221 C 0.94879 0.38533 0.44921
 H1222 H 0.95359 0.39968 0.45394
 C1223 C 0.93582 0.34848 0.43642
 C1224 C 1.05123 0.61459 0.44895
 H1225 H 1.04647 0.60023 0.45368
 C1226 C 1.06413 0.65145 0.43615
 C1227 C 0.94905 0.55107 0.38543
 H1228 H 0.95381 0.54630 0.39977
 C1229 C 0.93616 0.56396 0.34861
 C1230 C 1.05093 0.44874 0.38549
 H1231 H 1.04622 0.45351 0.39985
 C1232 C 1.06366 0.43587 0.34861
 C1233 C 1.05101 0.38521 0.44908
 H1234 H 1.04621 0.39955 0.45386
 C1235 C 1.06400 0.34842 0.43617
 C1236 C 0.94905 0.61469 0.44903
 H1237 H 0.95386 0.60036 0.45382
 C1238 C 0.93604 0.65146 0.43608
 C1239 C 0.88552 0.55110 0.44906
 H1240 H 0.89986 0.54632 0.45385
 C1241 C 0.84874 0.56400 0.43611
 C1242 C 1.11462 0.44883 0.44888
 H1243 H 1.10029 0.45361 0.45365
 C1244 C 1.15142 0.43591 0.43598
 O1245 O 1.01922 0.42931 0.59749
 O1246 O 1.01926 0.40656 0.62037
 C1247 C 1.02590 0.42249 0.61343
 C1248 C 1.04182 0.43298 0.62372
 C1249 C 1.04823 0.42675 0.64222
 H1250 H 1.04093 0.41465 0.64938
 O1251 O 0.98123 0.57078 0.59756
 O1252 O 0.98125 0.59359 0.62040
 C1253 C 0.97459 0.57765 0.61350
 C1254 C 0.95868 0.56719 0.62384
 C1255 C 0.95223 0.57351 0.64229
 H1256 H 0.95951 0.58567 0.64941
 O1257 O 0.90295 0.51921 0.57096
 O1258 O 0.88011 0.51928 0.59375
 C1259 C 0.88703 0.52591 0.57781
 C1260 C 0.87673 0.54184 0.56732
 C1261 C 0.85828 0.54832 0.57364
 H1262 H 0.85117 0.54105 0.58579
 O1263 O 1.09756 0.48089 0.57078
 O1264 O 1.12045 0.48083 0.59351
 C1265 C 1.11350 0.47419 0.57760
 C1266 C 1.12376 0.45824 0.56709
 C1267 C 1.14220 0.45169 0.57337
 H1268 H 1.14914 0.45859 0.58584
 O1269 O 1.07071 0.40254 0.51916
 O1270 O 1.09346 0.37965 0.51916
 C1271 C 1.07755 0.38659 0.52582
 C1272 C 1.06711 0.37630 0.54179
 C1273 C 1.07345 0.35786 0.54828
 H1274 H 1.08559 0.35073 0.54100
 O1275 O 0.92955 0.59746 0.51919
 O1276 O 0.90680 0.62036 0.51924
 C1277 C 0.92273 0.61342 0.52587
 C1278 C 0.93321 0.62371 0.54182
 C1279 C 0.92691 0.64216 0.54832
 H1280 H 0.91476 0.64930 0.54106
 O1281 O 0.92968 0.48100 0.59776
 O1282 O 0.90698 0.48103 0.62068
 C1283 C 0.92286 0.47434 0.61371
 C1284 C 0.93332 0.45834 0.62396
 C1285 C 0.92701 0.45179 0.64239
 H1286 H 0.91458 0.45874 0.64935
 O1287 O 1.07085 0.51912 0.59757
 O1288 O 1.09360 0.51912 0.62044
 C1289 C 1.07770 0.52580 0.61350
 C1290 C 1.06725 0.54179 0.62376
 C1291 C 1.07357 0.54834 0.64219
 H1292 H 1.08600 0.54141 0.64914
 O1293 O 0.98103 0.40252 0.57075
 O1294 O 0.98103 0.37961 0.59348
 C1295 C 0.97435 0.38657 0.57759
 C1296 C 0.95835 0.37632 0.56714
 C1297 C 0.95181 0.35789 0.57345
 H1298 H 0.95875 0.35092 0.58588
 O1299 O 1.01933 0.59752 0.57066
 O1300 O 1.01939 0.62047 0.59335
 C1301 C 1.02601 0.61348 0.57744
 C1302 C 1.04194 0.62373 0.56691
 C1303 C 1.04844 0.64223 0.57312
 H1304 H 1.04151 0.64923 0.58554
 O1305 O 0.90254 0.42952 0.51937
 O1306 O 0.87962 0.40681 0.51943
 C1307 C 0.88660 0.42272 0.52608
 C1308 C 0.87639 0.43322 0.54206
 C1309 C 0.85795 0.42697 0.54863
 H1310 H 0.85096 0.41453 0.54172
 O1311 O 1.09763 0.57049 0.51906
 O1312 O 1.12053 0.59322 0.51905
 C1313 C 1.11358 0.57731 0.52572
 C1314 C 1.12385 0.56686 0.54169
 C1315 C 1.14232 0.57313 0.54814
 H1316 H 1.14949 0.58523 0.54082
 O1317 O 1.01937 0.57076 0.59749
 O1318 O 1.01944 0.59358 0.62032
 C1319 C 1.02607 0.57763 0.61340
 C1320 C 1.04202 0.56716 0.62369
 C1321 C 1.04854 0.57350 0.64212
 H1322 H 1.04129 0.58566 0.64924
 O1323 O 0.98108 0.42929 0.59758
 O1324 O 0.98108 0.40652 0.62045
 C1325 C 0.97443 0.42245 0.61353
 C1326 C 0.95851 0.43294 0.62384
 C1327 C 0.95201 0.42661 0.64228
 H1328 H 0.95925 0.41443 0.64939
 O1329 O 1.09759 0.51905 0.57075
 O1330 O 1.12049 0.51905 0.59347
 C1331 C 1.11355 0.52570 0.57755
 C1332 C 1.12386 0.54160 0.56703
 C1333 C 1.14232 0.54809 0.57328
 H1334 H 1.14926 0.54117 0.58574
 O1335 O 0.90287 0.48105 0.57100
 O1336 O 0.88003 0.48108 0.59378
 C1337 C 0.88693 0.47441 0.57785
 C1338 C 0.87659 0.45848 0.56740
 C1339 C 0.85815 0.45204 0.57376
 H1340 H 0.85107 0.45933 0.58592
 O1341 O 1.07086 0.59731 0.51906
 O1342 O 1.09362 0.62018 0.51905
 C1343 C 1.07770 0.61326 0.52571
 C1344 C 1.06724 0.62360 0.54164
 C1345 C 1.07353 0.64209 0.54804
 H1346 H 1.08564 0.64922 0.54073
 O1347 O 0.92931 0.40269 0.51934
 O1348 O 0.90653 0.37984 0.51941
 C1349 C 0.92247 0.38675 0.52603
 C1350 C 0.93295 0.37644 0.54196
 C1351 C 0.92663 0.35801 0.54847
 H1352 H 0.91445 0.35089 0.54124
 O1353 O 1.07077 0.48093 0.59756
 O1354 O 1.09351 0.48089 0.62044
 C1355 C 1.07759 0.47425 0.61350
 C1356 C 1.06708 0.45833 0.62378
 C1357 C 1.07329 0.45188 0.64228
 H1358 H 1.08569 0.45885 0.64926
 O1359 O 0.92973 0.51919 0.59777
 O1360 O 0.90702 0.51926 0.62069
 C1361 C 0.92293 0.52589 0.61372
 C1362 C 0.93344 0.54184 0.62397
 C1363 C 0.92718 0.54838 0.64242
 H1364 H 0.91476 0.54145 0.64940
 O1365 O 0.98117 0.59753 0.57072
 O1366 O 0.98120 0.62048 0.59342
 C1367 C 0.97452 0.61350 0.57753
 C1368 C 0.95856 0.62377 0.56705
 C1369 C 0.95204 0.64222 0.57335
 H1370 H 0.95897 0.64918 0.58580
 O1371 O 1.01919 0.40246 0.57074
 O1372 O 1.01923 0.37956 0.59348
 C1373 C 1.02587 0.38650 0.57756
 C1374 C 1.04181 0.37623 0.56707
 C1375 C 1.04837 0.35779 0.57337
 H1376 H 1.04147 0.35084 0.58583
 O1377 O 1.09748 0.42936 0.51913
 O1378 O 1.12035 0.40660 0.51913
 C1379 C 1.11342 0.42252 0.52579
 C1380 C 1.12370 0.43297 0.54176
 C1381 C 1.14214 0.42664 0.54824
 H1382 H 1.14927 0.41451 0.54094
 O1383 O 0.90275 0.57068 0.51925
 O1384 O 0.87986 0.59343 0.51929
 C1385 C 0.88682 0.57752 0.52595
 C1386 C 0.87659 0.56705 0.54194
 C1387 C 0.85814 0.57333 0.54847
 H1388 H 0.85116 0.58575 0.54152
 Cu1389 Cu 1.00013 0.41817 0.58186
 Cu1390 Cu 1.00015 0.39076 0.60924
 Cu1391 Cu 1.00027 0.58187 0.58183
 Cu1392 Cu 1.00033 0.60933 0.60916
 Cu1393 Cu 0.91818 0.41837 0.50027
 Cu1394 Cu 0.89075 0.39102 0.50032
 Cu1395 Cu 1.08180 0.41823 0.50006
 Cu1396 Cu 1.10918 0.39082 0.50004
 Cu1397 Cu 0.91840 0.58178 0.50014
 Cu1398 Cu 0.89101 0.60918 0.50016
 Cu1399 Cu 1.08195 0.58160 0.49998
 Cu1400 Cu 1.10935 0.60898 0.49995
 Cu1401 Cu 0.91859 0.50011 0.58209
 Cu1402 Cu 0.89125 0.50017 0.60952
 Cu1403 Cu 1.08191 0.50000 0.58189
 Cu1404 Cu 1.10931 0.49997 0.60927
 C1405 C 1.05122 0.44889 0.61472
 H1406 H 1.04651 0.45362 0.60034
 C1407 C 1.06394 0.43612 0.65163
 C1408 C 0.94930 0.55123 0.61489
 H1409 H 0.95403 0.54643 0.60054
 C1410 C 0.93651 0.56419 0.65172
 C1411 C 0.88567 0.55119 0.55135
 H1412 H 0.90000 0.54643 0.54656
 C1413 C 0.84886 0.56404 0.56430
 C1414 C 1.11473 0.44890 0.55116
 H1415 H 1.10039 0.45370 0.54640
 C1416 C 1.15151 0.43591 0.56402
 C1417 C 1.05117 0.38527 0.55116
 H1418 H 1.04637 0.39961 0.54639
 C1419 C 1.06417 0.34848 0.56405
 C1420 C 0.94916 0.61473 0.55116
 H1421 H 0.95394 0.60038 0.54639
 C1422 C 0.93624 0.65155 0.56407
 C1423 C 0.94919 0.44893 0.61490
 H1424 H 0.95396 0.45373 0.60057
 C1425 C 0.93628 0.43595 0.65168
 C1426 C 1.05136 0.55119 0.61473
 H1427 H 1.04657 0.54638 0.60040
 C1428 C 1.06429 0.56417 0.65150
 C1429 C 0.94894 0.38539 0.55127
 H1430 H 0.95374 0.39972 0.54649
 C1431 C 0.93596 0.34860 0.56420
 C1432 C 1.05133 0.61463 0.55104
 H1433 H 1.04656 0.60026 0.54634
 C1434 C 1.06421 0.65153 0.56376
 C1435 C 0.88549 0.44910 0.55143
 H1436 H 0.89982 0.45384 0.54661
 C1437 C 0.84871 0.43630 0.56447
 C1438 C 1.11484 0.55097 0.55111
 H1439 H 1.10048 0.54622 0.54637
 C1440 C 1.15168 0.56383 0.56391
 O1441 O 0.57059 1.01900 0.59734
 O1442 O 0.59337 1.01901 0.62019
 C1443 C 0.57745 1.02568 0.61327
 C1444 C 0.56700 1.04166 0.62356
 C1445 C 0.57337 1.04825 0.64196
 H1446 H 0.58584 1.04134 0.64888
 O1447 O 0.42947 0.98074 0.59750
 O1448 O 0.40677 0.98070 0.62043
 C1449 C 0.42267 0.97405 0.61345
 C1450 C 0.43317 0.95807 0.62368
 C1451 C 0.42692 0.95153 0.64214
 H1452 H 0.41450 0.95847 0.64912
 O1453 O 0.51902 1.09734 0.57048
 O1454 O 0.51906 1.12027 0.59319
 C1455 C 0.52569 1.11331 0.57728
 C1456 C 0.54162 1.12358 0.56677
 C1457 C 0.54817 1.14202 0.57307
 H1458 H 0.54127 1.14897 0.58554
 O1459 O 0.48094 0.90233 0.57048
 O1460 O 0.48097 0.87939 0.59318
 C1461 C 0.47429 0.88636 0.57729
 C1462 C 0.45831 0.87610 0.56682
 C1463 C 0.45179 0.85765 0.57311
 H1464 H 0.45873 0.85068 0.58554
 O1465 O 0.59728 1.07048 0.51878
 O1466 O 0.62016 1.09323 0.51878
 C1467 C 0.61322 1.07732 0.52545
 C1468 C 0.62349 1.06687 0.54142
 C1469 C 0.64193 1.07319 0.54791
 H1470 H 0.64908 1.08531 0.54062
 O1471 O 0.40249 0.92926 0.51904
 O1472 O 0.37959 0.90652 0.51910
 C1473 C 0.38655 0.92244 0.52574
 C1474 C 0.37630 0.93295 0.54169
 C1475 C 0.35782 0.92674 0.54816
 H1476 H 0.35082 0.91434 0.54120
 O1477 O 0.48095 1.07054 0.59736
 O1478 O 0.48094 1.09333 0.62021
 C1479 C 0.47430 1.07739 0.61330
 C1480 C 0.45838 1.06692 0.62362
 C1481 C 0.45191 1.07326 0.64207
 H1482 H 0.45918 1.08542 0.64918
 O1483 O 0.51912 0.92911 0.59724
 O1484 O 0.51920 0.90632 0.62009
 C1485 C 0.52582 0.92227 0.61317
 C1486 C 0.54175 0.93277 0.62346
 C1487 C 0.54828 0.92647 0.64190
 H1488 H 0.54139 0.91399 0.64883
 O1489 O 0.59730 0.98086 0.57044
 O1490 O 0.62024 0.98082 0.59313
 C1491 C 0.61327 0.97419 0.57722
 C1492 C 0.62355 0.95829 0.56665
 C1493 C 0.64203 0.95181 0.57288
 H1494 H 0.64899 0.95871 0.58533
 O1495 O 0.40264 1.01895 0.57078
 O1496 O 0.37981 1.01895 0.59357
 C1497 C 0.38671 1.02561 0.57764
 C1498 C 0.37640 1.04157 0.56720
 C1499 C 0.35798 1.04807 0.57357
 H1500 H 0.35089 1.04082 0.58575
 O1501 O 0.42914 1.09729 0.51908
 O1502 O 0.40639 1.12018 0.51916
 C1503 C 0.42232 1.11324 0.52577
 C1504 C 0.43285 1.12354 0.54168
 C1505 C 0.42660 1.14202 0.54819
 H1506 H 0.41414 1.14897 0.54129
 O1507 O 0.57054 0.90257 0.51872
 O1508 O 0.59333 0.87971 0.51869
 C1509 C 0.57741 0.88663 0.52537
 C1510 C 0.56699 0.87630 0.54133
 C1511 C 0.57334 0.85784 0.54777
 H1512 H 0.58546 0.85073 0.54046
 O1513 O 0.42947 1.01893 0.59753
 O1514 O 0.40677 1.01893 0.62046
 C1515 C 0.42266 1.02560 0.61349
 C1516 C 0.43315 1.04156 0.62375
 C1517 C 0.42687 1.04812 0.64219
 H1518 H 0.41444 1.04119 0.64916
 O1519 O 0.57056 0.98081 0.59727
 O1520 O 0.59334 0.98077 0.62011
 C1521 C 0.57742 0.97411 0.61318
 C1522 C 0.56699 0.95812 0.62345
 C1523 C 0.57331 0.95162 0.64188
 H1524 H 0.58543 0.95891 0.64904
 O1525 O 0.51909 0.90237 0.57039
 O1526 O 0.51918 0.87943 0.59309
 C1527 C 0.52579 0.88641 0.57718
 C1528 C 0.54173 0.87617 0.56665
 C1529 C 0.54829 0.85771 0.57289
 H1530 H 0.54140 0.85073 0.58534
 O1531 O 0.48086 1.09730 0.57052
 O1532 O 0.48087 1.12023 0.59324
 C1533 C 0.47419 1.11326 0.57735
 C1534 C 0.45821 1.12352 0.56691
 C1535 C 0.45176 1.14200 0.57320
 H1536 H 0.45909 1.14917 0.58529
 O1537 O 0.40238 1.07047 0.51913
 O1538 O 0.37948 1.09321 0.51921
 C1539 C 0.38645 1.07729 0.52585
 C1540 C 0.37624 1.06681 0.54184
 C1541 C 0.35782 1.07312 0.54844
 H1542 H 0.35085 1.08557 0.54152
 O1543 O 0.59728 0.92942 0.51868
 O1544 O 0.62019 0.90669 0.51865
 C1545 C 0.61324 0.92260 0.52533
 C1546 C 0.62352 0.93306 0.54128
 C1547 C 0.64200 0.92679 0.54770
 H1548 H 0.64916 0.91470 0.54036
 O1549 O 0.48098 0.92912 0.59728
 O1550 O 0.48101 0.90633 0.62012
 C1551 C 0.47434 0.92226 0.61322
 C1552 C 0.45842 0.93273 0.62354
 C1553 C 0.45197 0.92641 0.64200
 H1554 H 0.45926 0.91426 0.64911
 O1555 O 0.51909 1.07058 0.59731
 O1556 O 0.51913 1.09338 0.62016
 C1557 C 0.52578 1.07745 0.61323
 C1558 C 0.54176 1.06700 0.62351
 C1559 C 0.54831 1.07337 0.64191
 H1560 H 0.54107 1.08555 0.64903
 O1561 O 0.40268 0.98078 0.57071
 O1562 O 0.37984 0.98073 0.59350
 C1563 C 0.38675 0.97411 0.57755
 C1564 C 0.37643 0.95819 0.56705
 C1565 C 0.35794 0.95179 0.57331
 H1566 H 0.35081 0.95909 0.58543
 O1567 O 0.59728 1.01902 0.57047
 O1568 O 0.62021 1.01902 0.59317
 C1569 C 0.61324 1.02568 0.57727
 C1570 C 0.62352 1.04161 0.56675
 C1571 C 0.64196 1.04814 0.57305
 H1572 H 0.64889 1.04125 0.58552
 O1573 O 0.42928 0.90245 0.51900
 O1574 O 0.40652 0.87958 0.51907
 C1575 C 0.42245 0.88651 0.52568
 C1576 C 0.43294 0.87621 0.54161
 C1577 C 0.42664 0.85775 0.54809
 H1578 H 0.41448 0.85063 0.54083
 O1579 O 0.57049 1.09729 0.51883
 O1580 O 0.59324 1.12017 0.51882
 C1581 C 0.57733 1.11323 0.52549
 C1582 C 0.56690 1.12352 0.54147
 C1583 C 0.57323 1.14196 0.54797
 H1584 H 0.58537 1.14909 0.54069
 Cu1585 Cu 0.58164 0.99993 0.58161
 Cu1586 Cu 0.60908 0.99990 0.60894
 Cu1587 Cu 0.41834 0.99985 0.58185
 Cu1588 Cu 0.39101 0.99982 0.60929
 Cu1589 Cu 0.49998 1.08166 0.58164
 Cu1590 Cu 0.50000 1.10910 0.60899
 Cu1591 Cu 0.50003 0.91801 0.58157
 Cu1592 Cu 0.50010 0.89057 0.60891
 C1593 C 0.55108 1.05102 0.61455
 H1594 H 0.54626 1.04619 0.60024
 C1595 C 0.56410 1.06408 0.65126
 C1596 C 0.44904 0.94868 0.61460
 H1597 H 0.45377 0.95348 0.60026
 C1598 C 0.43625 0.93572 0.65143
 C1599 C 0.55097 1.11454 0.55084
 H1600 H 0.54617 1.10021 0.54607
 C1601 C 0.56396 1.15134 0.56375
 C1602 C 0.44891 0.88517 0.55095
 H1603 H 0.45369 0.89951 0.54619
 C1604 C 0.43597 0.84835 0.56382
 C1605 C 0.61450 1.05095 0.55082
 H1606 H 0.60017 1.04616 0.54605
 C1607 C 0.65129 1.06391 0.56370
 C1608 C 0.38540 0.94880 0.55112
 H1609 H 0.39977 0.95350 0.54638
 C1610 C 0.34851 0.93608 0.56395
 C1611 C 0.44902 1.05095 0.61468
 H1612 H 0.45377 1.04615 0.60034
 C1613 C 0.43618 1.06394 0.65148
 C1614 C 0.55109 0.94872 0.61445
 H1615 H 0.54630 0.95349 0.60011
 C1616 C 0.56404 0.93581 0.65124
 C1617 C 0.61451 0.94894 0.55074
 H1618 H 0.60015 0.95369 0.54603
 C1619 C 0.65138 0.93608 0.56347
 C1620 C 0.38531 1.05092 0.55121
 H1621 H 0.39962 1.04614 0.54638
 C1622 C 0.34857 1.06383 0.56428
 C1623 C 0.44878 1.11451 0.55103
 H1624 H 0.45352 1.10014 0.54626
 C1625 C 0.43598 1.15137 0.56393
 C1626 C 0.55107 0.88525 0.55074
 H1627 H 0.54626 0.89960 0.54602
 C1628 C 0.56407 0.84842 0.56353
 O1629 O 0.57019 0.98088 0.40209
 O1630 O 0.59287 0.98087 0.37915
 C1631 C 0.57699 0.97420 0.38613
 C1632 C 0.56650 0.95822 0.37590
 C1633 C 0.57275 0.95168 0.35743
 H1634 H 0.58515 0.95862 0.35044
 O1635 O 0.42916 1.01895 0.40248
 O1636 O 0.40640 1.01898 0.37962
 C1637 C 0.42232 1.02564 0.38655
 C1638 C 0.43278 1.04160 0.37627
 C1639 C 0.42650 1.04808 0.35781
 H1640 H 0.41408 1.04111 0.35085
 O1641 O 0.48061 1.09748 0.42933
 O1642 O 0.48052 1.12041 0.40662
 C1643 C 0.47390 1.11343 0.42253
 C1644 C 0.45795 1.12368 0.43304
 C1645 C 0.45138 1.14212 0.42676
 H1646 H 0.45828 1.14908 0.41430
 O1647 O 0.51883 0.90236 0.42912
 O1648 O 0.51883 0.87944 0.40640
 C1649 C 0.52551 0.88641 0.42229
 C1650 C 0.54149 0.87616 0.43274
 C1651 C 0.54805 0.85772 0.42644
 H1652 H 0.54113 0.85075 0.41400
 O1653 O 0.59720 0.92941 0.48050
 O1654 O 0.62011 0.90669 0.48044
 C1655 C 0.61313 0.92259 0.47379
 C1656 C 0.62334 0.93305 0.45779
 C1657 C 0.64177 0.92673 0.45125
 H1658 H 0.64894 0.91462 0.45853
 O1659 O 0.40231 1.07048 0.48096
 O1660 O 0.37940 1.09321 0.48099
 C1661 C 0.38635 1.07730 0.47431
 C1662 C 0.37609 1.06681 0.45835
 C1663 C 0.35764 1.07310 0.45182
 H1664 H 0.35068 1.08554 0.45875
 O1665 O 0.51874 1.07074 0.40243
 O1666 O 0.51869 1.09353 0.37958
 C1667 C 0.52536 1.07760 0.38647
 C1668 C 0.54128 1.06714 0.37613
 C1669 C 0.54775 1.07350 0.35769
 H1670 H 0.54048 1.08568 0.35061
 O1671 O 0.48062 0.92914 0.40242
 O1672 O 0.48056 0.90635 0.37955
 C1673 C 0.47392 0.92229 0.38649
 C1674 C 0.45796 0.93276 0.37623
 C1675 C 0.45144 0.92644 0.35780
 H1676 H 0.45870 0.91428 0.35066
 O1677 O 0.59700 1.01905 0.42886
 O1678 O 0.61984 1.01909 0.40607
 C1679 C 0.61293 1.02572 0.42202
 C1680 C 0.62324 1.04165 0.43251
 C1681 C 0.64170 1.04812 0.42622
 H1682 H 0.64882 1.04087 0.41406
 O1683 O 0.40242 0.98076 0.42928
 O1684 O 0.37952 0.98075 0.40656
 C1685 C 0.38648 0.97409 0.42247
 C1686 C 0.37621 0.95813 0.43294
 C1687 C 0.35778 0.95162 0.42663
 H1688 H 0.35064 0.95888 0.41449
 O1689 O 0.57044 1.09732 0.48067
 O1690 O 0.59321 1.12019 0.48063
 C1691 C 0.57727 1.11327 0.47400
 C1692 C 0.56679 1.12359 0.45808
 C1693 C 0.57314 1.14202 0.45157
 H1694 H 0.58532 1.14913 0.45881
 O1695 O 0.42920 0.90243 0.48084
 O1696 O 0.40646 0.87954 0.48087
 C1697 C 0.42236 0.88648 0.47419
 C1698 C 0.43281 0.87617 0.45823
 C1699 C 0.42652 0.85770 0.45178
 H1700 H 0.41440 0.85055 0.45908
 O1701 O 0.42913 0.98076 0.40242
 O1702 O 0.40636 0.98076 0.37956
 C1703 C 0.42228 0.97409 0.38648
 C1704 C 0.43273 0.95812 0.37619
 C1705 C 0.42640 0.95158 0.35776
 H1706 H 0.41396 0.95851 0.35082
 O1707 O 0.57020 1.01908 0.40209
 O1708 O 0.59289 1.01912 0.37916
 C1709 C 0.57700 1.02578 0.38615
 C1710 C 0.56651 1.04177 0.37594
 C1711 C 0.57278 1.04835 0.35750
 H1712 H 0.58521 1.04143 0.35051
 O1713 O 0.48068 0.90235 0.42922
 O1714 O 0.48064 0.87942 0.40649
 C1715 C 0.47401 0.88638 0.42241
 C1716 C 0.45809 0.87610 0.43293
 C1717 C 0.45158 0.85763 0.42667
 H1718 H 0.45850 0.85067 0.41423
 O1719 O 0.51877 1.09751 0.42925
 O1720 O 0.51873 1.12044 0.40654
 C1721 C 0.52543 1.11347 0.42243
 C1722 C 0.54141 1.12372 0.43288
 C1723 C 0.54798 1.14215 0.42656
 H1724 H 0.54105 1.14912 0.41412
 O1725 O 0.40241 0.92923 0.48087
 O1726 O 0.37952 0.90648 0.48089
 C1727 C 0.38646 0.92239 0.47422
 C1728 C 0.37617 0.93287 0.45827
 C1729 C 0.35774 0.92655 0.45174
 H1730 H 0.35081 0.91409 0.45867
 O1731 O 0.59720 1.07049 0.48061
 O1732 O 0.62010 1.09322 0.48057
 C1733 C 0.61313 1.07731 0.47391
 C1734 C 0.62337 1.06684 0.45793
 C1735 C 0.64182 1.07312 0.45142
 H1736 H 0.64879 1.08553 0.45839
 O1737 O 0.51876 0.92917 0.40235
 O1738 O 0.51875 0.90640 0.37948
 C1739 C 0.52539 0.92234 0.38639
 C1740 C 0.54129 0.93283 0.37606
 C1741 C 0.54773 0.92651 0.35760
 H1742 H 0.54046 0.91435 0.35049
 O1743 O 0.48061 1.07067 0.40254
 O1744 O 0.48050 1.09346 0.37968
 C1745 C 0.47390 1.07751 0.38661
 C1746 C 0.45797 1.06700 0.37633
 C1747 C 0.45149 1.07326 0.35787
 H1748 H 0.45875 1.08541 0.35072
 O1749 O 0.40242 1.01894 0.42931
 O1750 O 0.37952 1.01897 0.40658
 C1751 C 0.38647 1.02561 0.42250
 C1752 C 0.37618 1.04156 0.43299
 C1753 C 0.35774 1.04804 0.42669
 H1754 H 0.35061 1.04076 0.41455
 O1755 O 0.59703 0.98089 0.42881
 O1756 O 0.61987 0.98088 0.40603
 C1757 C 0.61296 0.97422 0.42196
 C1758 C 0.62328 0.95830 0.43244
 C1759 C 0.64170 0.95177 0.42610
 H1760 H 0.64860 0.95866 0.41361
 O1761 O 0.57047 0.90255 0.48057
 O1762 O 0.59326 0.87970 0.48051
 C1763 C 0.57732 0.88661 0.47389
 C1764 C 0.56685 0.87629 0.45796
 C1765 C 0.57320 0.85785 0.45146
 H1766 H 0.58536 0.85074 0.45871
 O1767 O 0.42908 1.09730 0.48093
 O1768 O 0.40631 1.12017 0.48096
 C1769 C 0.42222 1.11325 0.47428
 C1770 C 0.43265 1.12356 0.45832
 C1771 C 0.42630 1.14200 0.45184
 H1772 H 0.41415 1.14911 0.45912
 Cu1773 Cu 0.58132 0.99997 0.41774
 Cu1774 Cu 0.60865 0.99999 0.39030
 Cu1775 Cu 0.41807 0.99985 0.41814
 Cu1776 Cu 0.39065 0.99987 0.39079
 Cu1777 Cu 0.58157 1.08161 0.49972
 Cu1778 Cu 0.60897 1.10900 0.49970
 Cu1779 Cu 0.58159 0.91827 0.49962
 Cu1780 Cu 0.60902 0.89091 0.49957
 Cu1781 Cu 0.41800 1.08160 0.50002
 Cu1782 Cu 0.39059 1.10898 0.50009
 Cu1783 Cu 0.41812 0.91812 0.49993
 Cu1784 Cu 0.39073 0.89074 0.49999
 Cu1785 Cu 0.49969 1.08182 0.41817
 Cu1786 Cu 0.49960 1.10926 0.39081
 Cu1787 Cu 0.49973 0.91803 0.41806
 Cu1788 Cu 0.49969 0.89061 0.39069
 C1789 C 0.55065 0.94880 0.38499
 H1790 H 0.54592 0.95359 0.39934
 C1791 C 0.56344 0.93585 0.34816
 C1792 C 0.44864 1.05104 0.38532
 H1793 H 0.45339 1.04629 0.39967
 C1794 C 0.43578 1.06389 0.34848
 C1795 C 0.44860 1.11461 0.44895
 H1796 H 0.45342 1.10028 0.45370
 C1797 C 0.43557 1.15141 0.43608
 C1798 C 0.55088 0.88523 0.44863
 H1799 H 0.54607 0.89956 0.45340
 C1800 C 0.56389 0.84844 0.43572
 C1801 C 0.61432 0.94895 0.44841
 H1802 H 0.59999 0.95374 0.45321
 C1803 C 0.65107 0.93600 0.43542
 C1804 C 0.38514 1.05092 0.44894
 H1805 H 0.39948 1.04616 0.45372
 C1806 C 0.34834 1.06379 0.43601
 C1807 C 0.55064 1.05115 0.38503
 H1808 H 0.54590 1.04632 0.39936
 C1809 C 0.56348 1.06420 0.34825
 C1810 C 0.44863 0.94872 0.38521
 H1811 H 0.45342 0.95351 0.39954
 C1812 C 0.43568 0.93576 0.34843
 C1813 C 0.61429 1.05099 0.44849
 H1814 H 0.59995 1.04624 0.45326
 C1815 C 0.65111 1.06383 0.43560
 C1816 C 0.38519 0.94878 0.44889
 H1817 H 0.39952 0.95357 0.45367
 C1818 C 0.34842 0.93584 0.43594
 C1819 C 0.55081 1.11466 0.44876
 H1820 H 0.54600 1.10033 0.45354
 C1821 C 0.56383 1.15143 0.43583
 C1822 C 0.44872 0.88516 0.44883
 H1823 H 0.45349 0.89952 0.45357
 C1824 C 0.43582 0.84830 0.43602
 O1825 O 0.48074 0.42918 0.90272
 O1826 O 0.48065 0.40638 0.87988
 C1827 C 0.47403 0.42233 0.88681
 C1828 C 0.45807 0.43280 0.87654
 C1829 C 0.45155 0.42647 0.85811
 H1830 H 0.45880 0.41431 0.85098
 O1831 O 0.51889 0.57062 0.90269
 O1832 O 0.51889 0.59340 0.87983
 C1833 C 0.52554 0.57746 0.88674
 C1834 C 0.54145 0.56698 0.87640
 C1835 C 0.54789 0.57331 0.85795
 H1836 H 0.54062 0.58547 0.85085
 O1837 O 0.40247 0.48086 0.92951
 O1838 O 0.37958 0.48085 0.90677
 C1839 C 0.38652 0.47420 0.92269
 C1840 C 0.37623 0.45825 0.93316
 C1841 C 0.35780 0.45174 0.92684
 H1842 H 0.35068 0.45900 0.91469
 O1843 O 0.59721 0.51889 0.92912
 O1844 O 0.62004 0.51892 0.90633
 C1845 C 0.61314 0.52556 0.92227
 C1846 C 0.62346 0.54147 0.93278
 C1847 C 0.64190 0.54797 0.92647
 H1848 H 0.64881 0.54106 0.91398
 O1849 O 0.42918 0.40260 0.98112
 O1850 O 0.40644 0.37970 0.98113
 C1851 C 0.42236 0.38664 0.97447
 C1852 C 0.43283 0.37632 0.95854
 C1853 C 0.42656 0.35782 0.95213
 H1854 H 0.41444 0.35068 0.95943
 O1855 O 0.57064 0.59720 0.98092
 O1856 O 0.59341 0.62006 0.98086
 C1857 C 0.57748 0.61315 0.97424
 C1858 C 0.56699 0.62347 0.95833
 C1859 C 0.57333 0.64191 0.95183
 H1860 H 0.58551 0.64901 0.95907
 O1861 O 0.42924 0.51902 0.90269
 O1862 O 0.40649 0.51905 0.87982
 C1863 C 0.42241 0.52570 0.88675
 C1864 C 0.43288 0.54167 0.87648
 C1865 C 0.42657 0.54820 0.85804
 H1866 H 0.41413 0.54126 0.85109
 O1867 O 0.57038 0.48073 0.90236
 O1868 O 0.59307 0.48071 0.87943
 C1869 C 0.57718 0.47404 0.88641
 C1870 C 0.56669 0.45806 0.87617
 C1871 C 0.57296 0.45149 0.85773
 H1872 H 0.58540 0.45840 0.85076
 O1873 O 0.51894 0.40238 0.92945
 O1874 O 0.51890 0.37944 0.90674
 C1875 C 0.52560 0.38642 0.92262
 C1876 C 0.54160 0.37617 0.93306
 C1877 C 0.54820 0.35776 0.92670
 H1878 H 0.54128 0.35082 0.91424
 O1879 O 0.48078 0.59746 0.92954
 O1880 O 0.48075 0.62037 0.90681
 C1881 C 0.47410 0.61342 0.92272
 C1882 C 0.45815 0.62369 0.93321
 C1883 C 0.45158 0.64212 0.92688
 H1884 H 0.45848 0.64906 0.91442
 O1885 O 0.40244 0.57061 0.98116
 O1886 O 0.37955 0.59336 0.98116
 C1887 C 0.38650 0.57744 0.97450
 C1888 C 0.37622 0.56695 0.95854
 C1889 C 0.35777 0.57323 0.95202
 H1890 H 0.35082 0.58568 0.95895
 O1891 O 0.59739 0.42934 0.98084
 O1892 O 0.62027 0.40658 0.98080
 C1893 C 0.61331 0.42250 0.97414
 C1894 C 0.62354 0.43293 0.95812
 C1895 C 0.64197 0.42662 0.95160
 H1896 H 0.64915 0.41452 0.95890
 O1897 O 0.48075 0.57064 0.90275
 O1898 O 0.48071 0.59342 0.87989
 C1899 C 0.47407 0.57749 0.88682
 C1900 C 0.45811 0.56702 0.87654
 C1901 C 0.45161 0.57333 0.85811
 H1902 H 0.45887 0.58548 0.85097
 O1903 O 0.51889 0.42913 0.90260
 O1904 O 0.51884 0.40633 0.87976
 C1905 C 0.52551 0.42226 0.88665
 C1906 C 0.54145 0.43271 0.87632
 C1907 C 0.54792 0.42635 0.85788
 H1908 H 0.54065 0.41418 0.85078
 O1909 O 0.59721 0.48074 0.92910
 O1910 O 0.62005 0.48071 0.90632
 C1911 C 0.61314 0.47407 0.92225
 C1912 C 0.62347 0.45815 0.93275
 C1913 C 0.64190 0.45163 0.92643
 H1914 H 0.64879 0.45853 0.91393
 O1915 O 0.40252 0.51903 0.92954
 O1916 O 0.37963 0.51907 0.90680
 C1917 C 0.38658 0.52572 0.92272
 C1918 C 0.37630 0.54167 0.93320
 C1919 C 0.35785 0.54815 0.92690
 H1920 H 0.35072 0.54087 0.91477
 O1921 O 0.42923 0.59740 0.98112
 O1922 O 0.40649 0.62030 0.98112
 C1923 C 0.42239 0.61335 0.97445
 C1924 C 0.43284 0.62363 0.95848
 C1925 C 0.42649 0.64206 0.95196
 H1926 H 0.41434 0.64919 0.95921
 O1927 O 0.57062 0.40253 0.98089
 O1928 O 0.59337 0.37964 0.98085
 C1929 C 0.57744 0.38658 0.97421
 C1930 C 0.56697 0.37628 0.95827
 C1931 C 0.57335 0.35787 0.95171
 H1932 H 0.58554 0.35077 0.95893
 O1933 O 0.57037 0.51892 0.90239
 O1934 O 0.59305 0.51895 0.87945
 C1935 C 0.57716 0.52561 0.88645
 C1936 C 0.56667 0.54160 0.87623
 C1937 C 0.57291 0.54815 0.85777
 H1938 H 0.58533 0.54121 0.85078
 O1939 O 0.42923 0.48083 0.90270
 O1940 O 0.40648 0.48082 0.87982
 C1941 C 0.42239 0.47415 0.88676
 C1942 C 0.43285 0.45817 0.87649
 C1943 C 0.42652 0.45162 0.85806
 H1944 H 0.41407 0.45855 0.85111
 O1945 O 0.51894 0.59742 0.92950
 O1946 O 0.51895 0.62034 0.90678
 C1947 C 0.52563 0.61337 0.92267
 C1948 C 0.54161 0.62361 0.93313
 C1949 C 0.54817 0.64205 0.92682
 H1950 H 0.54124 0.64902 0.91440
 O1951 O 0.48078 0.40240 0.92953
 O1952 O 0.48070 0.37945 0.90683
 C1953 C 0.47408 0.38644 0.92275
 C1954 C 0.45815 0.37619 0.93328
 C1955 C 0.45165 0.35769 0.92706
 H1956 H 0.45859 0.35070 0.91465
 O1957 O 0.59738 0.57035 0.98086
 O1958 O 0.62029 0.59308 0.98080
 C1959 C 0.61331 0.57717 0.97415
 C1960 C 0.62353 0.56671 0.95814
 C1961 C 0.64197 0.57300 0.95163
 H1962 H 0.64916 0.58510 0.95893
 O1963 O 0.40237 0.42937 0.98114
 O1964 O 0.37949 0.40662 0.98115
 C1965 C 0.38643 0.42254 0.97448
 C1966 C 0.37616 0.43301 0.95852
 C1967 C 0.35773 0.42669 0.95198
 H1968 H 0.35078 0.41425 0.95891
 Cu1969 Cu 0.49985 0.41805 0.91836
 Cu1970 Cu 0.49976 0.39060 0.89101
 Cu1971 Cu 0.49984 0.58176 0.91840
 Cu1972 Cu 0.49982 0.60918 0.89104
 Cu1973 Cu 0.41815 0.49993 0.91838
 Cu1974 Cu 0.39075 0.49995 0.89101
 Cu1975 Cu 0.58151 0.49982 0.91802
 Cu1976 Cu 0.60883 0.49983 0.89058
 C1977 C 0.44874 0.44877 0.88551
 H1978 H 0.45353 0.45357 0.89984
 C1979 C 0.43579 0.43579 0.84874
 C1980 C 0.55081 0.55100 0.88533
 H1981 H 0.54608 0.54620 0.89967
 C1982 C 0.56360 0.56398 0.84851
 C1983 C 0.38520 0.44890 0.94912
 H1984 H 0.39952 0.45368 0.95391
 C1985 C 0.34842 0.43599 0.93616
 C1986 C 0.61449 0.55082 0.94874
 H1987 H 0.60015 0.54606 0.95352
 C1988 C 0.65129 0.56371 0.93582
 C1989 C 0.44875 0.38528 0.94914
 H1990 H 0.45350 0.39966 0.95384
 C1991 C 0.43588 0.34838 0.93641
 C1992 C 0.55101 0.61454 0.94900
 H1993 H 0.54620 0.60020 0.95377
 C1994 C 0.56401 0.65132 0.93610
 C1995 C 0.44877 0.55106 0.88552
 H1996 H 0.45354 0.54627 0.89985
 C1997 C 0.43586 0.56401 0.84873
 C1998 C 0.55081 0.44869 0.88524
 H1999 H 0.54605 0.45351 0.89958
 C2000 C 0.56366 0.43566 0.84846
 C2001 C 0.55097 0.38521 0.94897
 H2002 H 0.54614 0.39952 0.95379
 C2003 C 0.56406 0.34849 0.93594
 C2004 C 0.44879 0.61467 0.94913
 H2005 H 0.45361 0.60034 0.95392
 C2006 C 0.43577 0.65143 0.93617
 C2007 C 0.38527 0.55105 0.94914
 H2008 H 0.39961 0.54629 0.95392
 C2009 C 0.34846 0.56391 0.93622
 C2010 C 0.61450 0.44882 0.94872
 H2011 H 0.60017 0.45360 0.95351
 C2012 C 0.65128 0.43589 0.93577
 O2013 O 0.51916 0.42926 1.09748
 O2014 O 0.51919 0.40647 1.12033
 C2015 C 0.52584 0.42241 1.11341
 C2016 C 0.54179 0.43286 1.12371
 C2017 C 0.54826 0.42654 1.14216
 H2018 H 0.54096 0.41441 1.14929
 O2019 O 0.48106 0.57063 1.09751
 O2020 O 0.48108 0.59342 1.12037
 C2021 C 0.47442 0.57749 1.11345
 C2022 C 0.45848 0.56703 1.12377
 C2023 C 0.45203 0.57337 1.14222
 H2024 H 0.45932 0.58551 1.14934
 O2025 O 0.40265 0.51909 1.07094
 O2026 O 0.37984 0.51914 1.09375
 C2027 C 0.38674 0.52578 1.07782
 C2028 C 0.37645 0.54176 1.06737
 C2029 C 0.35805 0.54830 1.07376
 H2030 H 0.35095 0.54106 1.08593
 O2031 O 0.59749 0.48078 1.07076
 O2032 O 0.62039 0.48075 1.09348
 C2033 C 0.61344 0.47410 1.07757
 C2034 C 0.62371 0.45817 1.06705
 C2035 C 0.64213 0.45159 1.07335
 H2036 H 0.64906 0.45847 1.08584
 O2037 O 0.57066 0.40256 1.01905
 O2038 O 0.59341 0.37966 1.01904
 C2039 C 0.57750 0.38661 1.02572
 C2040 C 0.56707 0.37632 1.04169
 C2041 C 0.57342 0.35789 1.04820
 H2042 H 0.58557 0.35076 1.04092
 O2043 O 0.42929 0.59742 1.01927
 O2044 O 0.40656 0.62033 1.01933
 C2045 C 0.42248 0.61338 1.02595
 C2046 C 0.43302 0.62367 1.04187
 C2047 C 0.42674 0.64213 1.04842
 H2048 H 0.41427 0.64907 1.04154
 O2049 O 0.42946 0.48088 1.09767
 O2050 O 0.40678 0.48087 1.12061
 C2051 C 0.42266 0.47420 1.11362
 C2052 C 0.43315 0.45822 1.12386
 C2053 C 0.42685 0.45165 1.14229
 H2054 H 0.41440 0.45856 1.14925
 O2055 O 0.57074 0.51897 1.09756
 O2056 O 0.59349 0.51900 1.12044
 C2057 C 0.57758 0.52566 1.11349
 C2058 C 0.56709 0.54163 1.12376
 C2059 C 0.57336 0.54815 1.14222
 H2060 H 0.58579 0.54121 1.14918
 O2061 O 0.48098 0.40251 1.07067
 O2062 O 0.48098 0.37958 1.09338
 C2063 C 0.47431 0.38656 1.07749
 C2064 C 0.45833 0.37630 1.06704
 C2065 C 0.45187 0.35782 1.07330
 H2066 H 0.45920 0.35064 1.08538
 O2067 O 0.51919 0.59740 1.07066
 O2068 O 0.51926 0.62032 1.09339
 C2069 C 0.52589 0.61335 1.07747
 C2070 C 0.54185 0.62359 1.06698
 C2071 C 0.54844 0.64202 1.07328
 H2072 H 0.54155 0.64899 1.08574
 O2073 O 0.40242 0.42939 1.01931
 O2074 O 0.37954 0.40664 1.01937
 C2075 C 0.38649 0.42256 1.02601
 C2076 C 0.37625 0.43305 1.04198
 C2077 C 0.35780 0.42679 1.04852
 H2078 H 0.35083 0.41435 1.04159
 O2079 O 0.59747 0.57037 1.01904
 O2080 O 0.62037 0.59311 1.01901
 C2081 C 0.61342 0.57720 1.02569
 C2082 C 0.62370 0.56676 1.04167
 C2083 C 0.64214 0.57310 1.04815
 H2084 H 0.64928 0.58521 1.04084
 O2085 O 0.51921 0.57059 1.09745
 O2086 O 0.51927 0.59338 1.12031
 C2087 C 0.52590 0.57744 1.11338
 C2088 C 0.54184 0.56697 1.12367
 C2089 C 0.54830 0.57327 1.14213
 H2090 H 0.54101 0.58541 1.14927
 O2091 O 0.48101 0.42927 1.09751
 O2092 O 0.48100 0.40648 1.12036
 C2093 C 0.47435 0.42241 1.11345
 C2094 C 0.45840 0.43287 1.12375
 C2095 C 0.45191 0.42652 1.14218
 H2096 H 0.45917 0.41436 1.14929
 O2097 O 0.59751 0.51894 1.07076
 O2098 O 0.62041 0.51897 1.09348
 C2099 C 0.61346 0.52561 1.07757
 C2100 C 0.62374 0.54153 1.06704
 C2101 C 0.64218 0.54808 1.07332
 H2102 H 0.64911 0.54120 1.08580
 O2103 O 0.40262 0.48092 1.07093
 O2104 O 0.37980 0.48091 1.09373
 C2105 C 0.38669 0.47426 1.07779
 C2106 C 0.37638 0.45832 1.06733
 C2107 C 0.35793 0.45186 1.07365
 H2108 H 0.35082 0.45914 1.08579
 O2109 O 0.57071 0.59720 1.01908
 O2110 O 0.59348 0.62006 1.01905
 C2111 C 0.57757 0.61314 1.02573
 C2112 C 0.56715 0.62346 1.04169
 C2113 C 0.57352 0.64189 1.04819
 H2114 H 0.58567 0.64899 1.04091
 O2115 O 0.42922 0.40260 1.01926
 O2116 O 0.40649 0.37970 1.01932
 C2117 C 0.42242 0.38664 1.02594
 C2118 C 0.43296 0.37633 1.04182
 C2119 C 0.42670 0.35785 1.04830
 H2120 H 0.41423 0.35092 1.04140
 O2121 O 0.57074 0.48079 1.09758
 O2122 O 0.59349 0.48076 1.12046
 C2123 C 0.57757 0.47411 1.11352
 C2124 C 0.56708 0.45816 1.12379
 C2125 C 0.57335 0.45163 1.14224
 H2126 H 0.58579 0.45855 1.14920
 O2127 O 0.42949 0.51907 1.09768
 O2128 O 0.40681 0.51910 1.12063
 C2129 C 0.42271 0.52575 1.11365
 C2130 C 0.43322 0.54171 1.12389
 C2131 C 0.42696 0.54826 1.14234
 H2132 H 0.41452 0.54134 1.14932
 O2133 O 0.48103 0.59739 1.07067
 O2134 O 0.48106 0.62031 1.09340
 C2135 C 0.47437 0.61335 1.07751
 C2136 C 0.45838 0.62363 1.06708
 C2137 C 0.45192 0.64209 1.07341
 H2138 H 0.45924 0.64924 1.08551
 O2139 O 0.51915 0.40247 1.07067
 O2140 O 0.51918 0.37954 1.09338
 C2141 C 0.52583 0.38651 1.07747
 C2142 C 0.54178 0.37625 1.06698
 C2143 C 0.54835 0.35781 1.07329
 H2144 H 0.54146 0.35087 1.08576
 O2145 O 0.59746 0.42934 1.01903
 O2146 O 0.62034 0.40658 1.01901
 C2147 C 0.61340 0.42250 1.02569
 C2148 C 0.62368 0.43293 1.04168
 C2149 C 0.64210 0.42657 1.04819
 H2150 H 0.64924 0.41444 1.04089
 O2151 O 0.40249 0.57063 1.01933
 O2152 O 0.37961 0.59339 1.01939
 C2153 C 0.38657 0.57748 1.02604
 C2154 C 0.37633 0.56701 1.04203
 C2155 C 0.35794 0.57336 1.04863
 H2156 H 0.35099 0.58582 1.04173
 Cu2157 Cu 0.50008 0.41816 1.08180
 Cu2158 Cu 0.50009 0.39072 1.10915
 Cu2159 Cu 0.50012 0.58173 1.08179
 Cu2160 Cu 0.50017 0.60916 1.10916
 Cu2161 Cu 0.41807 0.41828 1.00021
 Cu2162 Cu 0.39069 0.39087 1.00025
 Cu2163 Cu 0.58176 0.41823 0.99996
 Cu2164 Cu 0.60914 0.39083 0.99992
 Cu2165 Cu 0.41814 0.58173 1.00022
 Cu2166 Cu 0.39076 0.60914 1.00025
 Cu2167 Cu 0.58177 0.58149 0.99998
 Cu2168 Cu 0.60919 0.60886 0.99993
 Cu2169 Cu 0.41833 0.49999 1.08202
 Cu2170 Cu 0.39102 0.50001 1.10948
 Cu2171 Cu 0.58184 0.49987 1.08189
 Cu2172 Cu 0.60924 0.49987 1.10926
 C2173 C 0.55118 0.44879 1.11474
 H2174 H 0.54643 0.45358 1.10040
 C2175 C 0.56401 0.43584 1.15156
 C2176 C 0.44910 0.55108 1.11482
 H2177 H 0.45384 0.54628 1.10048
 C2178 C 0.43629 0.56407 1.15164
 C2179 C 0.38537 0.55109 1.05139
 H2180 H 0.39968 0.54629 1.04655
 C2181 C 0.34866 0.56408 1.06447
 C2182 C 0.61470 0.44885 1.05109
 H2183 H 0.60038 0.45366 1.04631
 C2184 C 0.65145 0.43582 1.06400
 C2185 C 0.55112 0.38528 1.05106
 H2186 H 0.54630 0.39961 1.04628
 C2187 C 0.56416 0.34851 1.06398
 C2188 C 0.44896 0.61464 1.05119
 H2189 H 0.45371 0.60029 1.04639
 C2190 C 0.43612 0.65146 1.06417
 C2191 C 0.44904 0.44884 1.11481
 H2192 H 0.45381 0.45366 1.10048
 C2193 C 0.43615 0.43582 1.15158
 C2194 C 0.55121 0.55102 1.11470
 H2195 H 0.54647 0.54624 1.10035
 C2196 C 0.56404 0.56395 1.15153
 C2197 C 0.44889 0.38534 1.05117
 H2198 H 0.45363 0.39971 1.04642
 C2199 C 0.43608 0.34847 1.06402
 C2200 C 0.55119 0.61453 1.05106
 H2201 H 0.54636 0.60020 1.04629
 C2202 C 0.56426 0.65130 1.06397
 C2203 C 0.38532 0.44894 1.05137
 H2204 H 0.39966 0.45368 1.04658
 C2205 C 0.34851 0.43611 1.06433
 C2206 C 0.61472 0.55086 1.05109
 H2207 H 0.60039 0.54606 1.04633
 C2208 C 0.65150 0.56385 1.06396
 C2209 C 1.10563 1.10531 1.25942
 C2210 C 1.09779 1.12236 1.26749
 C2211 C 1.10516 1.12982 1.28505
 C2212 C 1.12069 1.12038 1.29501
 C2213 C 1.12827 1.10300 1.28660
 C2214 C 1.12082 1.09562 1.26904
 C2215 C 1.09828 1.09795 1.24111
 C2216 C 1.09219 1.09195 1.22568
 C2217 C 1.08499 1.08500 1.20715
 C2218 C 1.07964 1.09839 1.19261
 C2219 C 1.07284 1.09173 1.17452
 C2220 C 1.07130 1.07154 1.17071
 C2221 C 1.07668 1.05819 1.18544
 C2222 C 1.08347 1.06489 1.20354
 H2223 H 1.08602 1.13002 1.26012
 H2224 H 1.09865 1.14317 1.29040
 H2225 H 1.13990 1.09479 1.29341
 H2226 H 1.12697 1.08235 1.26292
 H2227 H 1.08083 1.11399 1.19522
 H2228 H 1.06908 1.10236 1.16339
 H2229 H 1.07545 1.04257 1.18303
 H2230 H 1.08755 1.05440 1.21471
 C2231 C 1.10565 0.60536 0.75937
 C2232 C 1.10329 0.62518 0.76395
 C2233 C 1.11060 0.63261 0.78155
 C2234 C 1.12041 0.62029 0.79483
 C2235 C 1.12264 0.60036 0.79010
 C2236 C 1.11530 0.59296 0.77249
 C2237 C 1.09836 0.59786 0.74110
 C2238 C 1.09229 0.59179 0.72569
 C2239 C 1.08510 0.58480 0.70717
 C2240 C 1.07972 0.59816 0.69262
 C2241 C 1.07289 0.59147 0.67455
 C2242 C 1.07135 0.57127 0.67079
 C2243 C 1.07676 0.55795 0.68552
 C2244 C 1.08358 0.56469 0.70360
 H2245 H 1.09591 0.63493 0.75386
 H2246 H 1.10887 0.64805 0.78458
 H2247 H 1.12989 0.59044 0.80010
 H2248 H 1.11718 0.57758 0.76910
 H2249 H 1.08091 0.61377 0.69521
 H2250 H 1.06911 0.60208 0.66341
 H2251 H 1.07553 0.54232 0.68313
 H2252 H 1.08768 0.55422 0.71478
 C2253 C 0.60601 1.10541 0.75889
 C2254 C 0.59817 1.12248 0.76693
 C2255 C 0.60560 1.13003 0.78442
 C2256 C 0.62121 1.12067 0.79434
 C2257 C 0.62879 1.10327 0.78597
 C2258 C 0.62127 1.09580 0.76847
 C2259 C 0.59858 1.09795 0.74065
 C2260 C 0.59241 1.09188 0.72528
 C2261 C 0.58512 1.08485 0.70682
 C2262 C 0.57965 1.09818 0.69227
 C2263 C 0.57274 1.09143 0.67424
 C2264 C 0.57122 1.07123 0.67051
 C2265 C 0.57672 1.05794 0.68525
 C2266 C 0.58362 1.06472 0.70329
 H2267 H 0.58634 1.13007 0.75958
 H2268 H 0.59909 1.14338 0.78974
 H2269 H 0.64047 1.09512 0.79275
 H2270 H 0.62743 1.08251 0.76238
 H2271 H 0.58082 1.11379 0.69482
 H2272 H 0.56890 1.10202 0.66310
 H2273 H 0.57551 1.04231 0.68290
 H2274 H 0.58778 1.05428 0.71447
 C2275 C 0.60512 0.60482 1.25964
 C2276 C 0.59735 0.62193 1.26764
 C2277 C 0.60471 0.62941 1.28519
 C2278 C 0.62019 0.61992 1.29520
 C2279 C 0.62768 0.60247 1.28688
 C2280 C 0.62023 0.59508 1.26932
 C2281 C 0.59780 0.59745 1.24132
 C2282 C 0.59175 0.59144 1.22588
 C2283 C 0.58461 0.58448 1.20733
 C2284 C 0.57926 0.59787 1.19279
 C2285 C 0.57252 0.59120 1.17468
 C2286 C 0.57103 0.57101 1.17086
 C2287 C 0.57642 0.55766 1.18558
 C2288 C 0.58316 0.56437 1.20370
 H2289 H 0.58564 0.62963 1.26022
 H2290 H 0.59827 0.64281 1.29048
 H2291 H 0.63925 0.59422 1.29374
 H2292 H 0.62633 0.58175 1.26327
 H2293 H 0.58041 0.61347 1.19542
 H2294 H 0.56875 0.60184 1.16355
 H2295 H 0.57523 0.54205 1.18315
 H2296 H 0.58724 0.55388 1.21487
 C2297 C 0.89472 0.89495 1.25938
 C2298 C 0.87952 0.90460 1.26902
 C2299 C 0.87202 0.89714 1.28652
 C2300 C 0.87956 0.87970 1.29484
 C2301 C 0.89512 0.87030 1.28487
 C2302 C 0.90253 0.87785 1.26738
 C2303 C 0.90210 0.90240 1.24113
 C2304 C 0.90821 0.90847 1.22573
 C2305 C 0.91542 0.91549 1.20724
 C2306 C 0.91692 0.93561 1.20370
 C2307 C 0.92374 0.94238 1.18564
 C2308 C 0.92916 0.92908 1.17088
 C2309 C 0.92763 0.90888 1.17461
 C2310 C 0.92081 0.90215 1.19267
 H2311 H 0.87338 0.91791 1.26297
 H2312 H 0.86038 0.90532 1.29335
 H2313 H 0.90160 0.85692 1.29017
 H2314 H 0.91431 0.87023 1.25999
 H2315 H 0.91281 0.94606 1.21490
 H2316 H 0.92496 0.95801 1.18328
 H2317 H 0.93142 0.89829 1.16345
 H2318 H 0.91963 0.88654 1.19522
 C2319 C 0.89450 0.39487 0.75941
 C2320 C 0.87923 0.40450 0.76897
 C2321 C 0.87168 0.39705 0.78646
 C2322 C 0.87925 0.37966 0.79485
 C2323 C 0.89487 0.37028 0.78496
 C2324 C 0.90233 0.37782 0.76747
 C2325 C 0.90194 0.40230 0.74117
 C2326 C 0.90810 0.40834 0.72579
 C2327 C 0.91538 0.41532 0.70731
 C2328 C 0.91694 0.43544 0.70376
 C2329 C 0.92380 0.44218 0.68570
 C2330 C 0.92922 0.42885 0.67096
 C2331 C 0.92764 0.40866 0.67471
 C2332 C 0.92077 0.40196 0.69276
 H2333 H 0.87308 0.41778 0.76286
 H2334 H 0.85999 0.40521 0.79322
 H2335 H 0.90138 0.35694 0.79030
 H2336 H 0.91416 0.37021 0.76015
 H2337 H 0.91283 0.44591 0.71494
 H2338 H 0.92505 0.45780 0.68332
 H2339 H 0.93142 0.39804 0.66356
 H2340 H 0.91956 0.38635 0.69533
 C2341 C 0.39445 0.89498 0.75928
 C2342 C 0.37464 0.89740 0.76380
 C2343 C 0.36713 0.89005 0.78134
 C2344 C 0.37935 0.88013 0.79462
 C2345 C 0.39928 0.87785 0.78997
 C2346 C 0.40676 0.88524 0.77242
 C2347 C 0.40204 0.90224 0.74103
 C2348 C 0.40827 0.90820 0.72564
 C2349 C 0.41556 0.91515 0.70716
 C2350 C 0.41707 0.93526 0.70357
 C2351 C 0.42387 0.94198 0.68548
 C2352 C 0.42926 0.92864 0.67074
 C2353 C 0.42774 0.90845 0.67453
 C2354 C 0.42093 0.90177 0.69262
 H2355 H 0.36496 0.90485 0.75369
 H2356 H 0.35169 0.89181 0.78431
 H2357 H 0.40912 0.87053 0.79997
 H2358 H 0.42213 0.88331 0.76908
 H2359 H 0.41296 0.94574 0.71474
 H2360 H 0.42508 0.95760 0.68307
 H2361 H 0.43151 0.89782 0.66339
 H2362 H 0.41974 0.88617 0.69521
 C2363 C 0.39443 0.39466 1.25932
 C2364 C 0.37921 0.40433 1.26891
 C2365 C 0.37167 0.39690 1.28641
 C2366 C 0.37920 0.37949 1.29478
 C2367 C 0.39478 0.37007 1.28486
 C2368 C 0.40223 0.37759 1.26736
 C2369 C 0.40186 0.40209 1.24107
 C2370 C 0.40802 0.40813 1.22569
 C2371 C 0.41529 0.41513 1.20721
 C2372 C 0.41679 0.43525 1.20366
 C2373 C 0.42365 0.44201 1.18560
 C2374 C 0.42909 0.42870 1.17086
 C2375 C 0.42757 0.40850 1.17460
 C2376 C 0.42071 0.40178 1.19266
 H2377 H 0.37308 0.41763 1.26281
 H2378 H 0.36001 0.40510 1.29319
 H2379 H 0.40126 0.35671 1.29019
 H2380 H 0.41403 0.36995 1.26002
 H2381 H 0.41266 0.44571 1.21484
 H2382 H 0.42486 0.45763 1.18323
 H2383 H 0.43138 0.39790 1.16346
 H2384 H 0.41953 0.38618 1.19522
 C2385 C 0.89445 1.10511 0.74060
 C2386 C 0.87921 1.09549 0.73100
 C2387 C 0.87174 1.10292 0.71347
 C2388 C 0.87935 1.12029 0.70508
 C2389 C 0.89494 1.12967 0.71502
 C2390 C 0.90233 1.12215 0.73255
 C2391 C 0.90182 1.09769 0.75887
 C2392 C 0.90794 1.09167 0.77428
 C2393 C 0.91517 1.08471 0.79279
 C2394 C 0.91665 1.06460 0.79640
 C2395 C 0.92348 1.05788 0.81448
 C2396 C 0.92895 1.07123 0.82919
 C2397 C 0.92745 1.09142 0.82538
 C2398 C 0.92061 1.09809 0.80731
 H2399 H 0.87303 1.08222 0.73710
 H2400 H 0.86006 1.09476 0.70667
 H2401 H 0.90148 1.14300 0.70969
 H2402 H 0.91414 1.12975 0.73990
 H2403 H 0.91251 1.05411 0.78525
 H2404 H 0.92468 1.04226 0.81690
 H2405 H 0.93127 1.10205 0.83650
 H2406 H 0.91945 1.11369 0.80469
 C2407 C 0.89471 0.60502 0.24074
 C2408 C 0.88505 0.59265 0.22759
 C2409 C 0.87772 0.60008 0.20999
 C2410 C 0.87998 0.62002 0.20531
 C2411 C 0.88980 0.63230 0.21862
 C2412 C 0.89709 0.62484 0.23620
 C2413 C 0.90202 0.59749 0.25900
 C2414 C 0.90810 0.59143 0.27440
 C2415 C 0.91532 0.58447 0.29291
 C2416 C 0.91684 0.56436 0.29651
 C2417 C 0.92368 0.55766 0.31460
 C2418 C 0.92911 0.57102 0.32931
 C2419 C 0.92756 0.59121 0.32551
 C2420 C 0.92071 0.59786 0.30743
 H2421 H 0.88316 0.57726 0.23095
 H2422 H 0.87046 0.59020 0.19998
 H2423 H 0.89154 0.64775 0.21563
 H2424 H 0.90448 0.63456 0.24631
 H2425 H 0.91274 0.55387 0.28536
 H2426 H 0.92492 0.54205 0.31702
 H2427 H 0.93135 0.60184 0.33663
 H2428 H 0.91952 0.61346 0.30482
 C2429 C 0.39455 1.10474 0.24047
 C2430 C 0.39691 1.12456 0.23592
 C2431 C 0.38964 1.13200 0.21832
 C2432 C 0.37988 1.11969 0.20499
 C2433 C 0.37764 1.09976 0.20968
 C2434 C 0.38494 1.09234 0.22730
 C2435 C 0.40181 1.09724 0.25875
 C2436 C 0.40786 1.09120 0.27417
 C2437 C 0.41504 1.08428 0.29271
 C2438 C 0.42036 1.09771 0.30723
 C2439 C 0.42717 1.09108 0.32533
 C2440 C 0.42875 1.07091 0.32916
 C2441 C 0.42339 1.05752 0.31445
 C2442 C 0.41659 1.06418 0.29634
 H2443 H 0.40425 1.13431 0.24604
 H2444 H 0.39136 1.14745 0.21532
 H2445 H 0.37042 1.08986 0.19965
 H2446 H 0.38306 1.07696 0.23067
 H2447 H 0.41914 1.11330 0.30460
 H2448 H 0.43091 1.10174 0.33645
 H2449 H 0.42465 1.04191 0.31689
 H2450 H 0.41254 1.05367 0.28518
 C2451 C 0.39457 0.60515 0.74083
 C2452 C 0.39691 0.62497 0.73626
 C2453 C 0.38960 0.63239 0.71866
 C2454 C 0.37981 0.62007 0.70537
 C2455 C 0.37760 0.60013 0.71009
 C2456 C 0.38494 0.59273 0.72770
 C2457 C 0.40186 0.59765 0.75910
 C2458 C 0.40791 0.59159 0.77452
 C2459 C 0.41509 0.58461 0.79304
 C2460 C 0.42046 0.59798 0.80759
 C2461 C 0.42728 0.59129 0.82566
 C2462 C 0.42881 0.57110 0.82944
 C2463 C 0.42340 0.55776 0.81470
 C2464 C 0.41659 0.56449 0.79662
 H2465 H 0.40428 0.63472 0.74636
 H2466 H 0.39131 0.64784 0.71564
 H2467 H 0.37036 0.59021 0.70009
 H2468 H 0.38307 0.57735 0.73108
 H2469 H 0.41928 0.61358 0.80499
 H2470 H 0.43105 0.60191 0.83680
 H2471 H 0.42462 0.54214 0.81710
 H2472 H 0.41250 0.55401 0.78544
 C2473 C 1.10451 0.89492 0.74036
 C2474 C 1.12430 0.89739 0.73579
 C2475 C 1.13174 0.89021 0.71815
 C2476 C 1.11947 0.88043 0.70481
 C2477 C 1.09956 0.87809 0.70952
 C2478 C 1.09214 0.88530 0.72718
 C2479 C 1.09701 0.90209 0.75868
 C2480 C 1.09097 0.90808 0.77413
 C2481 C 1.08405 0.91518 0.79270
 C2482 C 1.09747 0.92055 0.80720
 C2483 C 1.09086 0.92734 0.82532
 C2484 C 1.07070 0.92884 0.82919
 C2485 C 1.05731 0.92342 0.81451
 C2486 C 1.06397 0.91664 0.79638
 H2487 H 1.13402 0.90474 0.74593
 H2488 H 1.14717 0.89201 0.71513
 H2489 H 1.08968 0.87086 0.69948
 H2490 H 1.07678 0.88334 0.73056
 H2491 H 1.11305 0.91941 0.80453
 H2492 H 1.10151 0.93112 0.83641
 H2493 H 1.04171 0.92461 0.81698
 H2494 H 1.05346 0.91255 0.78524
 C2495 C 1.10522 0.39510 0.24068
 C2496 C 1.10285 0.37530 0.23605
 C2497 C 1.11020 0.36789 0.21848
 C2498 C 1.12008 0.38021 0.20525
 C2499 C 1.12234 0.40013 0.21002
 C2500 C 1.11495 0.40751 0.22762
 C2501 C 1.09785 0.40256 0.25893
 C2502 C 1.09171 0.40858 0.27433
 C2503 C 1.08444 0.41548 0.29284
 C2504 C 1.07907 0.40205 0.30734
 C2505 C 1.07222 0.40867 0.32543
 C2506 C 1.07065 0.42885 0.32927
 C2507 C 1.07602 0.44224 0.31458
 C2508 C 1.08286 0.43558 0.29648
 H2509 H 1.09541 0.36554 0.24610
 H2510 H 1.10846 0.35245 0.21542
 H2511 H 1.12965 0.41004 0.20007
 H2512 H 1.11684 0.42288 0.23105
 H2513 H 1.08030 0.38646 0.30470
 H2514 H 1.06847 0.39801 0.33654
 H2515 H 1.07476 0.45785 0.31703
 H2516 H 1.08695 0.44610 0.28534
 C2517 C 0.60472 0.89486 0.24017
 C2518 C 0.61981 0.90465 0.23052
 C2519 C 0.62735 0.89726 0.21300
 C2520 C 0.61997 0.87976 0.20469
 C2521 C 0.60451 0.87022 0.21467
 C2522 C 0.59705 0.87770 0.23218
 C2523 C 0.59731 0.90224 0.25845
 C2524 C 0.59121 0.90825 0.27387
 C2525 C 0.58403 0.91523 0.29240
 C2526 C 0.58253 0.93535 0.29598
 C2527 C 0.57578 0.94208 0.31409
 C2528 C 0.57042 0.92875 0.32884
 C2529 C 0.57195 0.90856 0.32506
 C2530 C 0.57872 0.90187 0.30696
 H2531 H 0.62582 0.91802 0.23657
 H2532 H 0.63889 0.90556 0.20616
 H2533 H 0.59815 0.85677 0.20938
 H2534 H 0.58535 0.86996 0.23958
 H2535 H 0.58659 0.94582 0.28479
 H2536 H 0.57456 0.95770 0.31649
 H2537 H 0.56822 0.89794 0.33622
 H2538 H 0.57990 0.88626 0.30437
 C2539 C 0.60537 0.39451 0.74068
 C2540 C 0.62065 0.40413 0.73114
 C2541 C 0.62817 0.39670 0.71362
 C2542 C 0.62056 0.37935 0.70519
 C2543 C 0.60494 0.36998 0.71508
 C2544 C 0.59751 0.37749 0.73259
 C2545 C 0.59795 0.40193 0.75894
 C2546 C 0.59179 0.40797 0.77433
 C2547 C 0.58451 0.41497 0.79281
 C2548 C 0.58299 0.43509 0.79637
 C2549 C 0.57614 0.44184 0.81443
 C2550 C 0.57070 0.42853 0.82917
 C2551 C 0.57223 0.40834 0.82542
 C2552 C 0.57909 0.40162 0.80736
 H2553 H 0.62683 0.41738 0.73727
 H2554 H 0.63987 0.40485 0.70687
 H2555 H 0.59839 0.35666 0.70971
 H2556 H 0.58567 0.36989 0.73990
 H2557 H 0.58712 0.44555 0.78519
 H2558 H 0.57491 0.45747 0.81680
 H2559 H 0.56843 0.39773 0.83656
 H2560 H 0.58028 0.38601 0.80479
 C2561 C 1.25983 1.10479 1.10476
 C2562 C 1.26949 1.09507 1.11990
 C2563 C 1.28705 1.10245 1.12734
 C2564 C 1.29540 1.11987 1.11978
 C2565 C 1.28541 1.12933 1.10428
 C2566 C 1.26785 1.12186 1.09693
 C2567 C 1.24151 1.09743 1.09744
 C2568 C 1.22607 1.09144 1.09140
 C2569 C 1.20752 1.08450 1.08426
 C2570 C 1.20384 1.06440 1.08289
 C2571 C 1.18572 1.05771 1.07616
 C2572 C 1.17104 1.07107 1.07070
 C2573 C 1.17490 1.09126 1.07210
 C2574 C 1.19302 1.09791 1.07884
 H2575 H 1.26341 1.08178 1.12604
 H2576 H 1.29390 1.09422 1.13893
 H2577 H 1.29072 1.14270 1.09780
 H2578 H 1.26045 1.12953 1.08520
 H2579 H 1.21497 1.05389 1.08703
 H2580 H 1.18324 1.04209 1.07504
 H2581 H 1.16381 1.10191 1.06828
 H2582 H 1.19569 1.11350 1.07992
 C2583 C 1.25974 0.60454 0.60518
 C2584 C 1.26785 0.62148 0.59717
 C2585 C 1.28539 0.62900 0.60451
 C2586 C 1.29528 0.61973 0.62019
 C2587 C 1.28684 0.60245 0.62794
 C2588 C 1.26929 0.59501 0.62051
 C2589 C 1.24144 0.59714 0.59786
 C2590 C 1.22600 0.59115 0.59178
 C2591 C 1.20747 0.58424 0.58459
 C2592 C 1.19299 0.59766 0.57917
 C2593 C 1.17488 0.59103 0.57237
 C2594 C 1.17101 0.57085 0.57091
 C2595 C 1.18568 0.55747 0.57637
 C2596 C 1.20379 0.56414 0.58316
 H2597 H 1.26054 0.62901 0.58528
 H2598 H 1.29078 0.64225 0.59785
 H2599 H 1.29358 0.59437 0.63970
 H2600 H 1.26314 0.58182 0.62680
 H2601 H 1.19566 0.61325 0.58030
 H2602 H 1.16380 0.60169 0.56855
 H2603 H 1.18321 0.54185 0.57520
 H2604 H 1.21492 0.55362 0.58729
 C2605 C 0.75893 1.10516 0.60551
 C2606 C 0.76345 1.12499 0.60318
 C2607 C 0.78099 1.13247 0.61056
 C2608 C 0.79428 1.12019 0.62041
 C2609 C 0.78961 1.10024 0.62262
 C2610 C 0.77206 1.09279 0.61521
 C2611 C 0.74073 1.09761 0.59811
 C2612 C 0.72536 1.09152 0.59195
 C2613 C 0.70690 1.08453 0.58466
 C2614 C 0.69239 1.09790 0.57917
 C2615 C 0.67435 1.09120 0.57227
 C2616 C 0.67057 1.07101 0.57077
 C2617 C 0.68527 1.05768 0.57628
 C2618 C 0.70332 1.06442 0.58317
 H2619 H 0.75336 1.13471 0.59577
 H2620 H 0.78396 1.14793 0.60886
 H2621 H 0.79961 1.09036 0.62990
 H2622 H 0.76872 1.07740 0.61706
 H2623 H 0.69498 1.11350 0.58033
 H2624 H 0.66324 1.10182 0.56842
 H2625 H 0.68287 1.04206 0.57509
 H2626 H 0.71447 1.05394 0.58735
 C2627 C 0.75934 0.60519 1.10516
 C2628 C 0.76389 0.62501 1.10280
 C2629 C 0.78147 0.63247 1.11010
 C2630 C 0.79477 0.62018 1.11992
 C2631 C 0.79008 0.60023 1.12214
 C2632 C 0.77249 0.59281 1.11481
 C2633 C 0.74108 0.59766 1.09789
 C2634 C 0.72568 0.59157 1.09184
 C2635 C 0.70717 0.58455 1.08468
 C2636 C 0.69263 0.59789 1.07923
 C2637 C 0.67456 0.59117 1.07243
 C2638 C 0.67078 0.57097 1.07099
 C2639 C 0.68551 0.55766 1.07649
 C2640 C 0.70359 0.56442 1.08328
 H2641 H 0.75378 0.63475 1.09543
 H2642 H 0.78447 0.64792 1.10838
 H2643 H 0.80009 0.59034 1.12939
 H2644 H 0.76913 0.57742 1.11668
 H2645 H 0.69522 0.61350 1.08033
 H2646 H 0.66343 0.60177 1.06859
 H2647 H 0.68311 0.54203 1.07534
 H2648 H 0.71476 0.55397 1.08743
 C2649 C 1.25944 0.89513 0.89492
 C2650 C 1.26912 0.90483 0.87979
 C2651 C 1.28666 0.89740 0.87233
 C2652 C 1.29495 0.87994 0.87985
 C2653 C 1.28494 0.87050 0.89534
 C2654 C 1.26741 0.87802 0.90271
 C2655 C 1.24114 0.90253 0.90223
 C2656 C 1.22570 0.90854 0.90828
 C2657 C 1.20716 0.91550 0.91542
 C2658 C 1.20350 0.93561 0.91679
 C2659 C 1.18539 0.94232 0.92354
 C2660 C 1.17070 0.92897 0.92901
 C2661 C 1.17455 0.90878 0.92760
 C2662 C 1.19266 0.90211 0.92085
 H2663 H 1.26308 0.91816 0.87367
 H2664 H 1.29352 0.90562 0.86074
 H2665 H 1.29022 0.85711 0.90181
 H2666 H 1.25999 0.87035 0.91444
 H2667 H 1.21464 0.94610 0.91265
 H2668 H 1.18293 0.95794 0.92466
 H2669 H 1.16345 0.89815 0.93143
 H2670 H 1.19531 0.88651 0.91977
 C2671 C 1.25926 0.39503 0.39428
 C2672 C 1.26877 0.40453 0.37891
 C2673 C 1.28628 0.39707 0.37143
 C2674 C 1.29474 0.37978 0.37917
 C2675 C 1.28488 0.37054 0.39489
 C2676 C 1.26738 0.37809 0.40228
 C2677 C 1.24100 0.40246 0.40167
 C2678 C 1.22560 0.40848 0.40781
 C2679 C 1.20710 0.41542 0.41508
 C2680 C 1.20346 0.43553 0.41655
 C2681 C 1.18539 0.44222 0.42342
 C2682 C 1.17072 0.42885 0.42892
 C2683 C 1.17456 0.40867 0.42743
 C2684 C 1.19262 0.40202 0.42056
 H2685 H 1.26261 0.41772 0.37262
 H2686 H 1.29299 0.40511 0.35963
 H2687 H 1.29028 0.35730 0.40156
 H2688 H 1.26010 0.37059 0.41421
 H2689 H 1.21458 0.44603 0.41238
 H2690 H 1.18294 0.45783 0.42460
 H2691 H 1.16347 0.39803 0.43128
 H2692 H 1.19526 0.38642 0.41941
 C2693 C 0.75884 0.89475 0.39394
 C2694 C 0.76334 0.87492 0.39628
 C2695 C 0.78092 0.86743 0.38899
 C2696 C 0.79425 0.87971 0.37922
 C2697 C 0.78961 0.89966 0.37700
 C2698 C 0.77202 0.90712 0.38432
 C2699 C 0.74059 0.90230 0.40123
 C2700 C 0.72520 0.90839 0.40731
 C2701 C 0.70670 0.91539 0.41452
 C2702 C 0.69219 0.90203 0.41999
 C2703 C 0.67414 0.90872 0.42685
 C2704 C 0.67034 0.92891 0.42832
 C2705 C 0.68504 0.94224 0.42281
 C2706 C 0.70310 0.93551 0.41596
 H2707 H 0.75321 0.86520 0.40364
 H2708 H 0.78388 0.85197 0.39070
 H2709 H 0.79965 0.90954 0.36978
 H2710 H 0.76869 0.92251 0.38246
 H2711 H 0.69480 0.88642 0.41886
 H2712 H 0.66303 0.89810 0.43071
 H2713 H 0.68262 0.95787 0.42398
 H2714 H 0.71425 0.94598 0.41179
 C2715 C 0.75914 0.39497 0.89416
 C2716 C 0.76722 0.37799 0.90211
 C2717 C 0.78474 0.37045 0.89474
 C2718 C 0.79465 0.37975 0.87909
 C2719 C 0.78624 0.39708 0.87140
 C2720 C 0.76871 0.40453 0.87886
 C2721 C 0.74087 0.40240 0.90152
 C2722 C 0.72546 0.40842 0.90764
 C2723 C 0.70696 0.41537 0.91489
 C2724 C 0.69249 0.40198 0.92039
 C2725 C 0.67442 0.40864 0.92726
 C2726 C 0.67058 0.42883 0.92870
 C2727 C 0.68524 0.44218 0.92317
 C2728 C 0.70331 0.43548 0.91631
 H2729 H 0.75990 0.37044 0.91397
 H2730 H 0.79011 0.35716 0.90135
 H2731 H 0.79300 0.40518 0.85967
 H2732 H 0.76258 0.41776 0.87261
 H2733 H 0.69513 0.38638 0.91928
 H2734 H 0.66334 0.39800 0.93113
 H2735 H 0.68279 0.45780 0.92432
 H2736 H 0.71443 0.44597 0.91212
 C2737 C 0.74084 0.89530 1.10563
 C2738 C 0.72775 0.88560 1.09323
 C2739 C 0.71018 0.87819 1.10062
 C2740 C 0.70545 0.88040 1.12055
 C2741 C 0.71868 0.89027 1.13286
 C2742 C 0.73624 0.89765 1.12544
 C2743 C 0.75910 0.90262 1.09814
 C2744 C 0.77450 0.90869 1.09207
 C2745 C 0.79300 0.91586 1.08506
 C2746 C 0.79656 0.91734 1.06495
 C2747 C 0.81464 0.92412 1.05819
 C2748 C 0.82940 0.92952 1.07149
 C2749 C 0.82565 0.92801 1.09168
 C2750 C 0.80758 0.92123 1.09839
 H2751 H 0.73115 0.88373 1.07786
 H2752 H 0.70022 0.87089 1.09071
 H2753 H 0.71565 0.89198 1.14830
 H2754 H 0.74631 0.90507 1.13519
 H2755 H 0.78536 0.91326 1.05450
 H2756 H 0.81702 0.92532 1.04257
 H2757 H 0.83681 0.93178 1.10227
 H2758 H 0.80501 0.92006 1.11399
 C2759 C 0.74096 0.39468 0.60560
 C2760 C 0.72784 0.40702 0.61535
 C2761 C 0.71030 0.39954 0.62276
 C2762 C 0.70564 0.37960 0.62049
 C2763 C 0.71891 0.36735 0.61058
 C2764 C 0.73644 0.37486 0.60321
 C2765 C 0.75918 0.40226 0.59829
 C2766 C 0.77456 0.40846 0.59227
 C2767 C 0.79304 0.41569 0.58525
 C2768 C 0.80763 0.42104 0.59856
 C2769 C 0.82570 0.42780 0.59181
 C2770 C 0.82942 0.42930 0.57161
 C2771 C 0.81464 0.42392 0.55834
 C2772 C 0.79656 0.41717 0.56513
 H2773 H 0.73119 0.42240 0.61726
 H2774 H 0.70030 0.40940 0.63008
 H2775 H 0.71594 0.35190 0.60883
 H2776 H 0.74653 0.36516 0.59576
 H2777 H 0.80509 0.41987 0.61416
 H2778 H 0.83688 0.43156 0.60239
 H2779 H 0.81699 0.42512 0.54272
 H2780 H 0.78535 0.41308 0.55469
 C2781 C 0.24019 0.89562 0.60468
 C2782 C 0.23559 0.89798 0.62449
 C2783 C 0.21796 0.89074 0.63187
 C2784 C 0.20465 0.88101 0.61953
 C2785 C 0.20938 0.87880 0.59960
 C2786 C 0.22703 0.88607 0.59224
 C2787 C 0.25853 0.90278 0.59724
 C2788 C 0.27400 0.90871 0.59123
 C2789 C 0.29260 0.91573 0.58432
 C2790 C 0.30714 0.92097 0.59774
 C2791 C 0.32530 0.92764 0.59112
 C2792 C 0.32915 0.92915 0.57095
 C2793 C 0.31443 0.92386 0.55757
 C2794 C 0.29627 0.91720 0.56422
 H2795 H 0.24572 0.90528 0.63426
 H2796 H 0.21493 0.89244 0.64731
 H2797 H 0.19936 0.87162 0.58967
 H2798 H 0.23043 0.88420 0.57687
 H2799 H 0.30448 0.91982 0.61332
 H2800 H 0.33642 0.93133 0.60178
 H2801 H 0.31690 0.92507 0.54196
 H2802 H 0.28510 0.91321 0.55371
 C2803 C 0.24045 0.39502 1.10522
 C2804 C 0.23076 0.37989 1.09550
 C2805 C 0.21318 0.37248 1.10287
 C2806 C 0.20484 0.38004 1.12028
 C2807 C 0.21487 0.39551 1.12976
 C2808 C 0.23244 0.40284 1.12230
 C2809 C 0.25877 0.40232 1.09785
 C2810 C 0.27421 0.40837 1.09185
 C2811 C 0.29275 0.41551 1.08489
 C2812 C 0.29636 0.41698 1.06479
 C2813 C 0.31446 0.42373 1.05807
 C2814 C 0.32920 0.42912 1.07141
 C2815 C 0.32540 0.42762 1.09159
 C2816 C 0.30729 0.42086 1.09826
 H2817 H 0.23682 0.37375 1.08219
 H2818 H 0.20632 0.36090 1.09463
 H2819 H 0.20957 0.40200 1.14313
 H2820 H 0.23987 0.41456 1.12998
 H2821 H 0.28518 0.41290 1.05431
 H2822 H 0.31688 0.42493 1.04246
 H2823 H 0.33653 0.43138 1.10221
 H2824 H 0.30468 0.41971 1.11385
 C2825 C 0.74096 1.10528 0.89412
 C2826 C 0.73149 1.09576 0.87873
 C2827 C 0.71400 1.10323 0.87119
 C2828 C 0.70553 1.12053 0.87888
 C2829 C 0.71535 1.12979 0.89463
 C2830 C 0.73283 1.12224 0.90208
 C2831 C 0.75920 1.09784 0.90156
 C2832 C 0.77457 1.09181 0.90775
 C2833 C 0.79304 1.08484 0.91507
 C2834 C 0.79663 1.06472 0.91656
 C2835 C 0.81468 1.05799 0.92346
 C2836 C 0.82937 1.07133 0.92897
 C2837 C 0.82558 1.09152 0.92747
 C2838 C 0.80754 1.09821 0.92056
 H2839 H 0.73766 1.08256 0.87247
 H2840 H 0.70732 1.09517 0.85938
 H2841 H 0.70994 1.14305 0.90126
 H2842 H 0.74008 1.12975 0.91401
 H2843 H 0.78549 1.05424 0.91238
 H2844 H 0.81709 1.04237 0.92466
 H2845 H 0.83669 1.10214 0.93132
 H2846 H 0.80494 1.11381 0.91940
 C2847 C 0.74077 0.60485 0.39476
 C2848 C 0.73625 0.60246 0.37494
 C2849 C 0.71866 0.60972 0.36746
 C2850 C 0.70533 0.61952 0.37973
 C2851 C 0.70998 0.62176 0.39967
 C2852 C 0.72758 0.61446 0.40712
 C2853 C 0.75906 0.59766 0.40230
 C2854 C 0.77449 0.59169 0.40841
 C2855 C 0.79303 0.58462 0.41543
 C2856 C 0.80761 0.57929 0.40209
 C2857 C 0.82570 0.57254 0.40881
 C2858 C 0.82946 0.57105 0.42900
 C2859 C 0.81470 0.57644 0.44230
 C2860 C 0.79660 0.58318 0.43554
 H2861 H 0.74639 0.59510 0.36522
 H2862 H 0.71569 0.60799 0.35201
 H2863 H 0.69994 0.62899 0.40954
 H2864 H 0.73092 0.61636 0.42250
 H2865 H 0.80503 0.58042 0.38649
 H2866 H 0.83686 0.56878 0.39821
 H2867 H 0.81709 0.57525 0.45792
 H2868 H 0.78540 0.58724 0.44599
 C2869 C 0.24034 1.10483 0.39489
 C2870 C 0.23059 1.11989 0.40465
 C2871 C 0.21307 1.12736 0.39721
 C2872 C 0.20485 1.11993 0.37968
 C2873 C 0.21493 1.10451 0.37018
 C2874 C 0.23245 1.09712 0.37771
 C2875 C 0.25864 1.09752 0.40232
 C2876 C 0.27406 1.09148 0.40837
 C2877 C 0.29260 1.08437 0.41537
 C2878 C 0.30717 1.07904 0.40202
 C2879 C 0.32527 1.07230 0.40872
 C2880 C 0.32904 1.07081 0.42891
 C2881 C 0.31429 1.07620 0.44222
 C2882 C 0.29618 1.08293 0.43548
 H2883 H 0.23656 1.12594 0.41804
 H2884 H 0.20614 1.13887 0.40549
 H2885 H 0.20972 1.09813 0.35672
 H2886 H 0.23993 1.08545 0.37000
 H2887 H 0.30458 1.08018 0.38642
 H2888 H 0.33642 1.06855 0.39812
 H2889 H 0.31669 1.07501 0.45784
 H2890 H 0.28499 1.08700 0.44593
 C2891 C 0.24041 0.60493 0.89523
 C2892 C 0.23064 0.61997 0.90502
 C2893 C 0.21310 0.62741 0.89762
 C2894 C 0.20486 0.61998 0.88010
 C2895 C 0.21495 0.60459 0.87056
 C2896 C 0.23250 0.59722 0.87805
 C2897 C 0.25872 0.59763 0.90262
 C2898 C 0.27416 0.59160 0.90865
 C2899 C 0.29270 0.58449 0.91563
 C2900 C 0.29631 0.58305 0.93574
 C2901 C 0.31442 0.57632 0.94246
 C2902 C 0.32916 0.57093 0.92914
 C2903 C 0.32536 0.57241 0.90895
 C2904 C 0.30726 0.57915 0.90227
 H2905 H 0.23663 0.62601 0.91840
 H2906 H 0.20617 0.63891 0.90592
 H2907 H 0.20972 0.59821 0.85711
 H2908 H 0.23998 0.58557 0.87032
 H2909 H 0.28513 0.58713 0.94621
 H2910 H 0.31684 0.57514 0.95808
 H2911 H 0.33650 0.56865 0.89834
 H2912 H 0.30465 0.58028 0.88667
 C2913 C 1.10510 1.25982 1.10474
 C2914 C 1.10271 1.26435 1.12455
 C2915 C 1.11005 1.28191 1.13204
 C2916 C 1.11993 1.29520 1.11980
 C2917 C 1.12219 1.29053 1.09986
 C2918 C 1.11481 1.27296 1.09240
 C2919 C 1.09784 1.24155 1.09719
 C2920 C 1.09187 1.22613 1.09103
 C2921 C 1.08491 1.20760 1.08385
 C2922 C 1.06481 1.20400 1.08240
 C2923 C 1.05808 1.18586 1.07572
 C2924 C 1.07140 1.17109 1.07039
 C2925 C 1.09158 1.17489 1.07185
 C2926 C 1.09827 1.19302 1.07854
 H2927 H 1.09529 1.25424 1.13426
 H2928 H 1.10831 1.28489 1.14749
 H2929 H 1.12949 1.30054 1.09001
 H2930 H 1.11672 1.26960 1.07702
 H2931 H 1.05434 1.21520 1.08646
 H2932 H 1.04247 1.18345 1.07455
 H2933 H 1.10219 1.16372 1.06813
 H2934 H 1.11386 1.19562 1.07970
 C2935 C 1.10502 0.75977 0.60458
 C2936 C 1.12481 0.76441 0.60221
 C2937 C 1.13217 0.78206 0.60949
 C2938 C 1.11982 0.79532 0.61928
 C2939 C 1.09992 0.79054 0.62151
 C2940 C 1.09258 0.77288 0.61420
 C2941 C 1.09760 0.74144 0.59734
 C2942 C 1.09159 0.72598 0.59134
 C2943 C 1.08466 0.70741 0.58424
 C2944 C 1.09805 0.69286 0.57893
 C2945 C 1.09141 0.67472 0.57221
 C2946 C 1.07124 0.67089 0.57071
 C2947 C 1.05788 0.68562 0.57605
 C2948 C 1.06456 0.70377 0.58277
 H2949 H 1.13459 0.75433 0.59485
 H2950 H 1.14760 0.78513 0.60777
 H2951 H 1.08998 0.80052 0.62874
 H2952 H 1.07723 0.76945 0.61608
 H2953 H 1.11363 0.69550 0.58009
 H2954 H 1.10205 0.66358 0.56848
 H2955 H 1.04228 0.68317 0.57485
 H2956 H 1.05407 0.71494 0.58681
 C2957 C 0.60530 1.25904 0.60547
 C2958 C 0.59296 1.27219 0.61518
 C2959 C 0.60043 1.28974 0.62259
 C2960 C 0.62037 1.29438 0.62037
 C2961 C 0.63262 1.28108 0.61051
 C2962 C 0.62512 1.26354 0.60314
 C2963 C 0.59773 1.24082 0.59810
 C2964 C 0.59163 1.22544 0.59196
 C2965 C 0.58462 1.20697 0.58469
 C2966 C 0.56452 1.20342 0.58318
 C2967 C 0.55777 1.18536 0.57631
 C2968 C 0.57107 1.17062 0.57083
 C2969 C 0.59125 1.17436 0.57235
 C2970 C 0.59796 1.19242 0.57924
 H2971 H 0.57757 1.26886 0.61704
 H2972 H 0.59057 1.29976 0.62988
 H2973 H 0.64806 1.28403 0.60881
 H2974 H 0.63482 1.25342 0.59572
 H2975 H 0.55407 1.21460 0.58734
 H2976 H 0.54215 1.18298 0.57510
 H2977 H 0.60184 1.16322 0.56853
 H2978 H 0.61356 1.19499 0.58042
 C2979 C 0.60570 0.75916 1.10524
 C2980 C 0.59329 0.77231 1.11484
 C2981 C 0.60069 0.78992 1.12222
 C2982 C 0.62063 0.79460 1.12007
 C2983 C 0.63295 0.78129 1.11030
 C2984 C 0.62552 0.76370 1.10296
 C2985 C 0.59820 0.74088 1.09794
 C2986 C 0.59210 0.72547 1.09188
 C2987 C 0.58505 0.70696 1.08471
 C2988 C 0.56494 0.70344 1.08326
 C2989 C 0.55814 0.68536 1.07646
 C2990 C 0.57141 0.67058 1.07102
 C2991 C 0.59160 0.67429 1.07251
 C2992 C 0.59836 0.69236 1.07931
 H2993 H 0.57791 0.76895 1.11666
 H2994 H 0.59077 0.79993 1.12943
 H2995 H 0.64839 0.78429 1.10864
 H2996 H 0.63527 0.75358 1.09562
 H2997 H 0.55451 0.71465 1.08737
 H2998 H 0.54253 0.68301 1.07527
 H2999 H 0.60217 0.66312 1.06871
 H3000 H 0.61396 0.69491 1.08046
 C3001 C 0.89433 1.25925 0.89437
 C3002 C 0.87449 1.26371 0.89669
 C3003 C 0.86697 1.28125 0.88934
 C3004 C 0.87921 1.29460 0.87953
 C3005 C 0.89917 1.29000 0.87735
 C3006 C 0.90666 1.27244 0.88473
 C3007 C 0.90192 1.24101 0.90169
 C3008 C 0.90806 1.22563 0.90777
 C3009 C 0.91513 1.20715 0.91497
 C3010 C 0.90184 1.19256 0.92042
 C3011 C 0.90861 1.17452 0.92727
 C3012 C 0.92881 1.17081 0.92877
 C3013 C 0.94206 1.18558 0.92327
 C3014 C 0.93525 1.20364 0.91643
 H3015 H 0.86480 1.25356 0.90406
 H3016 H 0.85152 1.28419 0.89103
 H3017 H 0.90902 1.30005 0.87011
 H3018 H 0.92205 1.26915 0.88289
 H3019 H 0.88624 1.19510 0.91928
 H3020 H 0.89805 1.16335 0.93111
 H3021 H 0.95768 1.18324 0.92446
 H3022 H 0.94567 1.21484 0.91227
 C3023 C 0.89465 0.75913 0.39430
 C3024 C 0.87481 0.76361 0.39658
 C3025 C 0.86732 0.78116 0.38921
 C3026 C 0.87958 0.79449 0.37942
 C3027 C 0.89953 0.78987 0.37725
 C3028 C 0.90700 0.77231 0.38465
 C3029 C 0.90221 0.74091 0.40167
 C3030 C 0.90832 0.72554 0.40781
 C3031 C 0.91534 0.70707 0.41509
 C3032 C 0.90201 0.69252 0.42055
 C3033 C 0.90874 0.67447 0.42745
 C3034 C 0.92892 0.67074 0.42898
 C3035 C 0.94221 0.68547 0.42349
 C3036 C 0.93545 0.70353 0.41660
 H3037 H 0.86511 0.75348 0.40396
 H3038 H 0.85186 0.78410 0.39089
 H3039 H 0.90940 0.79991 0.37001
 H3040 H 0.92239 0.76900 0.38283
 H3041 H 0.88642 0.69508 0.41937
 H3042 H 0.89815 0.66333 0.43129
 H3043 H 0.95782 0.68310 0.42471
 H3044 H 0.94589 0.71470 0.41244
 C3045 C 0.39415 1.25914 0.39448
 C3046 C 0.37433 1.26365 0.39680
 C3047 C 0.36685 1.28120 0.38941
 C3048 C 0.37911 1.29449 0.37956
 C3049 C 0.39905 1.28983 0.37737
 C3050 C 0.40650 1.27227 0.38479
 C3051 C 0.40170 1.24091 0.40185
 C3052 C 0.40780 1.22553 0.40798
 C3053 C 0.41483 1.20704 0.41523
 C3054 C 0.40152 1.19247 0.42065
 C3055 C 0.40825 1.17442 0.42751
 C3056 C 0.42844 1.17069 0.42902
 C3057 C 0.44172 1.18545 0.42357
 C3058 C 0.43494 1.20351 0.41672
 H3059 H 0.36461 1.25355 0.40421
 H3060 H 0.35140 1.28417 0.39111
 H3061 H 0.40892 1.29984 0.37009
 H3062 H 0.42189 1.26893 0.38294
 H3063 H 0.38592 1.19503 0.41948
 H3064 H 0.39767 1.16326 0.43132
 H3065 H 0.45733 1.18309 0.42477
 H3066 H 0.44538 1.21471 0.41259
 C3067 C 0.39430 0.75914 0.89455
 C3068 C 0.37449 0.76366 0.89691
 C3069 C 0.36700 0.78123 0.88957
 C3070 C 0.37925 0.79454 0.87974
 C3071 C 0.39919 0.78988 0.87750
 C3072 C 0.40665 0.77230 0.88486
 C3073 C 0.40186 0.74090 0.90188
 C3074 C 0.40798 0.72552 0.90799
 C3075 C 0.41502 0.70704 0.91524
 C3076 C 0.40170 0.69247 0.92068
 C3077 C 0.40844 0.67442 0.92756
 C3078 C 0.42863 0.67070 0.92908
 C3079 C 0.44191 0.68545 0.92359
 C3080 C 0.43513 0.70351 0.91672
 H3081 H 0.36478 0.75354 0.90431
 H3082 H 0.35156 0.78421 0.89130
 H3083 H 0.40905 0.79990 0.87023
 H3084 H 0.42203 0.76896 0.88299
 H3085 H 0.38610 0.69502 0.91952
 H3086 H 0.39786 0.66327 0.93139
 H3087 H 0.45752 0.68309 0.92480
 H3088 H 0.44556 0.71470 0.91258
 C3089 C 1.10528 0.74055 0.89535
 C3090 C 1.09294 0.72739 0.88568
 C3091 C 1.10040 0.70979 0.87835
 C3092 C 1.12033 0.70513 0.88060
 C3093 C 1.13257 0.71844 0.89046
 C3094 C 1.12509 0.73602 0.89776
 C3095 C 1.09773 0.75884 0.90257
 C3096 C 1.09162 0.77427 0.90856
 C3097 C 1.08460 0.79282 0.91565
 C3098 C 1.06450 0.79638 0.91711
 C3099 C 1.05774 0.81450 0.92384
 C3100 C 1.07103 0.82928 0.92921
 C3101 C 1.09122 0.82553 0.92770
 C3102 C 1.09793 0.80742 0.92096
 H3103 H 1.07757 0.73074 0.88376
 H3104 H 1.09054 0.69977 0.87107
 H3105 H 1.14801 0.71546 0.89220
 H3106 H 1.13479 0.74615 0.90515
 H3107 H 1.05405 0.78517 0.91306
 H3108 H 1.04212 0.81688 0.92504
 H3109 H 1.10181 0.83670 0.93144
 H3110 H 1.11353 0.80484 0.91981
 C3111 C 1.10540 0.24060 0.39478
 C3112 C 1.12521 0.23606 0.39719
 C3113 C 1.13270 0.21850 0.38984
 C3114 C 1.12047 0.20522 0.37994
 C3115 C 1.10054 0.20989 0.37767
 C3116 C 1.09308 0.22747 0.38504
 C3117 C 1.09784 0.25885 0.40209
 C3118 C 1.09173 0.27425 0.40816
 C3119 C 1.08471 0.29275 0.41536
 C3120 C 1.09803 0.30734 0.42071
 C3121 C 1.09130 0.32541 0.42754
 C3122 C 1.07112 0.32913 0.42911
 C3123 C 1.05783 0.31436 0.42370
 C3124 C 1.06460 0.29628 0.41688
 H3125 H 1.13490 0.24617 0.40464
 H3126 H 1.14814 0.21552 0.39160
 H3127 H 1.09069 0.19989 0.37035
 H3128 H 1.07770 0.23082 0.38313
 H3129 H 1.11363 0.30479 0.41952
 H3130 H 1.10189 0.33658 0.43131
 H3131 H 1.04222 0.31672 0.42495
 H3132 H 1.05416 0.28507 0.41280
 C3133 C 0.60527 0.74052 0.39455
 C3134 C 0.62509 0.73599 0.39692
 C3135 C 0.63255 0.71839 0.38963
 C3136 C 0.62029 0.70507 0.37982
 C3137 C 0.60035 0.70974 0.37759
 C3138 C 0.59291 0.72735 0.38491
 C3139 C 0.59774 0.75880 0.40181
 C3140 C 0.59163 0.77422 0.40784
 C3141 C 0.58460 0.79274 0.41498
 C3142 C 0.59793 0.80734 0.42033
 C3143 C 0.59120 0.82542 0.42712
 C3144 C 0.57101 0.82915 0.42866
 C3145 C 0.55772 0.81437 0.42327
 C3146 C 0.56450 0.79628 0.41648
 H3147 H 0.63480 0.74612 0.40429
 H3148 H 0.64800 0.71541 0.39135
 H3149 H 0.59048 0.69971 0.37035
 H3150 H 0.57754 0.73070 0.38303
 H3151 H 0.61352 0.80478 0.41915
 H3152 H 0.60178 0.83660 0.43088
 H3153 H 0.54211 0.81673 0.42450
 H3154 H 0.55406 0.78506 0.41241
 C3155 C 0.60582 0.24098 0.89406
 C3156 C 0.59353 0.22782 0.88432
 C3157 C 0.60105 0.21029 0.87689
 C3158 C 0.62100 0.20569 0.87912
 C3159 C 0.63320 0.21901 0.88902
 C3160 C 0.62565 0.23652 0.89642
 C3161 C 0.59820 0.25918 0.90144
 C3162 C 0.59203 0.27453 0.90759
 C3163 C 0.58495 0.29298 0.91487
 C3164 C 0.56483 0.29644 0.91641
 C3165 C 0.55800 0.31446 0.92332
 C3166 C 0.57124 0.32925 0.92879
 C3167 C 0.59144 0.32560 0.92721
 C3168 C 0.59822 0.30759 0.92030
 H3169 H 0.57814 0.23111 0.88245
 H3170 H 0.59122 0.20026 0.86958
 H3171 H 0.64865 0.21608 0.89074
 H3172 H 0.63532 0.24665 0.90386
 H3173 H 0.55442 0.28521 0.91228
 H3174 H 0.54238 0.31676 0.92457
 H3175 H 0.60199 0.33679 0.93103
 H3176 H 0.61383 0.30509 0.91909
 C3177 C 0.89498 0.74075 1.10513
 C3178 C 0.88537 0.72760 1.09273
 C3179 C 0.87804 0.70998 1.10013
 C3180 C 0.88025 0.70528 1.12006
 C3181 C 0.89004 0.71859 1.13237
 C3182 C 0.89733 0.73619 1.12494
 C3183 C 0.90225 0.75904 1.09764
 C3184 C 0.90828 0.77448 1.09159
 C3185 C 0.91543 0.79302 1.08464
 C3186 C 0.91684 0.79667 1.06454
 C3187 C 0.92361 0.81479 1.05784
 C3188 C 0.92909 0.82949 1.07119
 C3189 C 0.92765 0.82565 1.09136
 C3190 C 0.92087 0.80754 1.09802
 H3191 H 0.88350 0.73097 1.07735
 H3192 H 0.87081 0.69996 1.09022
 H3193 H 0.89174 0.71558 1.14781
 H3194 H 0.90468 0.74631 1.13469
 H3195 H 0.91270 0.78552 1.05405
 H3196 H 0.92476 0.81724 1.04223
 H3197 H 0.93148 0.83676 1.10200
 H3198 H 0.91976 0.80489 1.11361
 C3199 C 0.89464 0.24080 0.60568
 C3200 C 0.87482 0.23630 0.60331
 C3201 C 0.86733 0.21874 0.61063
 C3202 C 0.87957 0.20540 0.62045
 C3203 C 0.89951 0.21004 0.62269
 C3204 C 0.90698 0.22763 0.61534
 C3205 C 0.90221 0.25905 0.59837
 C3206 C 0.90831 0.27444 0.59228
 C3207 C 0.91531 0.29294 0.58507
 C3208 C 0.90197 0.30752 0.57971
 C3209 C 0.90868 0.32559 0.57286
 C3210 C 0.92886 0.32932 0.57127
 C3211 C 0.94216 0.31455 0.57666
 C3212 C 0.93542 0.29648 0.58351
 H3213 H 0.86513 0.24644 0.59592
 H3214 H 0.85188 0.21578 0.60890
 H3215 H 0.90936 0.20001 0.62996
 H3216 H 0.92236 0.23095 0.61723
 H3217 H 0.88638 0.30496 0.58093
 H3218 H 0.89808 0.33675 0.56910
 H3219 H 0.95777 0.31691 0.57540
 H3220 H 0.94587 0.28527 0.58758
 C3221 C 0.39474 0.74035 0.60486
 C3222 C 0.40711 0.72720 0.61452
 C3223 C 0.39968 0.70960 0.62187
 C3224 C 0.37975 0.70492 0.61963
 C3225 C 0.36748 0.71822 0.60980
 C3226 C 0.37493 0.73580 0.60248
 C3227 C 0.40226 0.75863 0.59761
 C3228 C 0.40835 0.77406 0.59160
 C3229 C 0.41535 0.79260 0.58448
 C3230 C 0.43545 0.79617 0.58298
 C3231 C 0.44219 0.81428 0.57622
 C3232 C 0.42888 0.82905 0.57086
 C3233 C 0.40870 0.82529 0.57240
 C3234 C 0.40200 0.80719 0.57916
 H3235 H 0.42248 0.73056 0.61641
 H3236 H 0.40956 0.69959 0.62913
 H3237 H 0.35204 0.71522 0.60807
 H3238 H 0.36521 0.74592 0.59510
 H3239 H 0.44591 0.78496 0.58703
 H3240 H 0.45780 0.81667 0.57500
 H3241 H 0.39809 0.83645 0.56866
 H3242 H 0.38641 0.80461 0.58034
 C3243 C 0.39479 0.24043 1.10486
 C3244 C 0.38517 0.22729 1.09245
 C3245 C 0.37783 0.20967 1.09984
 C3246 C 0.38004 0.20496 1.11977
 C3247 C 0.38981 0.21827 1.13209
 C3248 C 0.39712 0.23587 1.12467
 C3249 C 0.40209 0.25871 1.09738
 C3250 C 0.40816 0.27414 1.09135
 C3251 C 0.41536 0.29268 1.08443
 C3252 C 0.41679 0.29634 1.06434
 C3253 C 0.42360 0.31446 1.05767
 C3254 C 0.42907 0.32913 1.07104
 C3255 C 0.42762 0.32527 1.09121
 C3256 C 0.42081 0.30716 1.09784
 H3257 H 0.38332 0.23066 1.07707
 H3258 H 0.37061 0.19965 1.08994
 H3259 H 0.39151 0.21526 1.14754
 H3260 H 0.40447 0.24598 1.13443
 H3261 H 0.41264 0.28521 1.05383
 H3262 H 0.42476 0.31693 1.04206
 H3263 H 0.43145 0.33636 1.10186
 H3264 H 0.41968 0.30450 1.11343
 C3265 C 1.10490 1.10549 0.74049
 C3266 C 1.12190 1.09755 0.73245
 C3267 C 1.12947 1.10493 0.71495
 C3268 C 1.12018 1.12059 0.70503
 C3269 C 1.10283 1.12826 0.71339
 C3270 C 1.09535 1.12078 0.73090
 C3271 C 1.09745 1.09813 0.75876
 C3272 C 1.09142 1.09202 0.77417
 C3273 C 1.08446 1.08479 0.79268
 C3274 C 1.09784 1.07934 0.80718
 C3275 C 1.09117 1.07250 0.82526
 C3276 C 1.07100 1.07104 0.82908
 C3277 C 1.05766 1.07652 0.81439
 C3278 C 1.06437 1.08335 0.79630
 H3279 H 1.12944 1.08569 0.73980
 H3280 H 1.14277 1.09833 0.70962
 H3281 H 1.09474 1.13999 0.70661
 H3282 H 1.08211 1.12702 0.73699
 H3283 H 1.11342 1.08047 0.80456
 H3284 H 1.10179 1.06867 0.83637
 H3285 H 1.04205 1.07535 0.81682
 H3286 H 1.05389 1.08751 0.78516
 C3287 C 1.10509 0.60576 0.24080
 C3288 C 1.12208 0.59782 0.23274
 C3289 C 1.12967 0.60525 0.21526
 C3290 C 1.12041 0.62095 0.20538
 C3291 C 1.10307 0.62862 0.21377
 C3292 C 1.09557 0.62110 0.23125
 C3293 C 1.09762 0.59835 0.25904
 C3294 C 1.09158 0.59220 0.27442
 C3295 C 1.08460 0.58492 0.29291
 C3296 C 1.09796 0.57942 0.30741
 C3297 C 1.09127 0.57254 0.32546
 C3298 C 1.07110 0.57107 0.32926
 C3299 C 1.05777 0.57660 0.31457
 C3300 C 1.06450 0.58347 0.29651
 H3301 H 1.12960 0.58592 0.24005
 H3302 H 1.14296 0.59864 0.20992
 H3303 H 1.09500 0.64039 0.20702
 H3304 H 1.08234 0.62734 0.23736
 H3305 H 1.11355 0.58056 0.30480
 H3306 H 1.10189 0.56867 0.33657
 H3307 H 1.04217 0.57543 0.31698
 H3308 H 1.05403 0.58766 0.28537
 C3309 C 0.60501 1.10550 0.24050
 C3310 C 0.59723 1.12259 0.23248
 C3311 C 0.60470 1.13014 0.21500
 C3312 C 0.62029 1.12073 0.20508
 C3313 C 0.62780 1.10329 0.21343
 C3314 C 0.62024 1.09584 0.23091
 C3315 C 0.59758 1.09805 0.25874
 C3316 C 0.59144 1.09199 0.27412
 C3317 C 0.58421 1.08496 0.29260
 C3318 C 0.57884 1.09829 0.30719
 C3319 C 0.57202 1.09155 0.32525
 C3320 C 0.57050 1.07135 0.32897
 C3321 C 0.57590 1.05806 0.31419
 C3322 C 0.58271 1.06484 0.29613
 H3323 H 0.58543 1.13022 0.23982
 H3324 H 0.59825 1.14352 0.20969
 H3325 H 0.63945 1.09510 0.20664
 H3326 H 0.62635 1.08252 0.23698
 H3327 H 0.58002 1.11390 0.30465
 H3328 H 0.56825 1.10214 0.33642
 H3329 H 0.57469 1.04243 0.31655
 H3330 H 0.58681 1.05439 0.28492
 C3331 C 0.60467 0.60519 0.74055
 C3332 C 0.60236 0.62501 0.73596
 C3333 C 0.60971 0.63241 0.71837
 C3334 C 0.61952 0.62007 0.70511
 C3335 C 0.62169 0.60013 0.70984
 C3336 C 0.61431 0.59276 0.72744
 C3337 C 0.59738 0.59772 0.75883
 C3338 C 0.59134 0.59165 0.77425
 C3339 C 0.58420 0.58465 0.79278
 C3340 C 0.57889 0.59800 0.80736
 C3341 C 0.57213 0.59129 0.82545
 C3342 C 0.57060 0.57109 0.82920
 C3343 C 0.57596 0.55777 0.81443
 C3344 C 0.58271 0.56453 0.79633
 H3345 H 0.59499 0.63478 0.74604
 H3346 H 0.60803 0.64786 0.71534
 H3347 H 0.62894 0.59020 0.69986
 H3348 H 0.61615 0.57737 0.73084
 H3349 H 0.58006 0.61360 0.80479
 H3350 H 0.56839 0.60190 0.83662
 H3351 H 0.57474 0.54215 0.81681
 H3352 H 0.58676 0.55406 0.78513
 C3353 C 0.89452 0.89550 0.74054
 C3354 C 0.90692 0.88580 0.72745
 C3355 C 0.89954 0.87842 0.70985
 C3356 C 0.87963 0.88066 0.70510
 C3357 C 0.86732 0.89055 0.71833
 C3358 C 0.87473 0.89790 0.73592
 C3359 C 0.90201 0.90274 0.75884
 C3360 C 0.90817 0.90867 0.77427
 C3361 C 0.91539 0.91558 0.79280
 C3362 C 0.92072 0.90217 0.80733
 C3363 C 0.92750 0.90881 0.82544
 C3364 C 0.92904 0.92899 0.82927
 C3365 C 0.92369 0.94236 0.81455
 C3366 C 0.91692 0.93568 0.79644
 H3367 H 0.92227 0.88389 0.73087
 H3368 H 0.90944 0.87112 0.69989
 H3369 H 0.85189 0.89229 0.71528
 H3370 H 0.86499 0.90532 0.74599
 H3371 H 0.91952 0.88657 0.80469
 H3372 H 0.93123 0.89816 0.83656
 H3373 H 0.92492 0.95798 0.81700
 H3374 H 0.91285 0.94619 0.78528
 C3375 C 0.89446 0.39459 0.24086
 C3376 C 0.90237 0.37756 0.23281
 C3377 C 0.89501 0.37002 0.21529
 C3378 C 0.87940 0.37936 0.20534
 C3379 C 0.87176 0.39673 0.21372
 C3380 C 0.87921 0.40418 0.23125
 C3381 C 0.90181 0.40203 0.25914
 C3382 C 0.90791 0.40808 0.27455
 C3383 C 0.91512 0.41508 0.29305
 C3384 C 0.92049 0.40173 0.30761
 C3385 C 0.92733 0.40844 0.32568
 C3386 C 0.92887 0.42864 0.32943
 C3387 C 0.92346 0.44195 0.31468
 C3388 C 0.91663 0.43520 0.29661
 H3389 H 0.91420 0.36998 0.24017
 H3390 H 0.90157 0.35670 0.20995
 H3391 H 0.86007 0.40486 0.20692
 H3392 H 0.87300 0.41744 0.23735
 H3393 H 0.91931 0.38613 0.30504
 H3394 H 0.93111 0.39784 0.33683
 H3395 H 0.92469 0.45758 0.31706
 H3396 H 0.91253 0.44566 0.28542
 C3397 C 0.39442 0.89466 0.24048
 C3398 C 0.40230 0.87759 0.23249
 C3399 C 0.39496 0.87005 0.21495
 C3400 C 0.37943 0.87944 0.20493
 C3401 C 0.37182 0.89685 0.21325
 C3402 C 0.37924 0.90430 0.23080
 C3403 C 0.40173 0.90210 0.25877
 C3404 C 0.40778 0.90815 0.27420
 C3405 C 0.41494 0.91513 0.29273
 C3406 C 0.42032 0.90177 0.30728
 C3407 C 0.42711 0.90847 0.32536
 C3408 C 0.42862 0.92866 0.32914
 C3409 C 0.42320 0.94199 0.31441
 C3410 C 0.41641 0.93525 0.29632
 H3411 H 0.41406 0.86997 0.23990
 H3412 H 0.40149 0.85669 0.20966
 H3413 H 0.36020 0.90502 0.20639
 H3414 H 0.37306 0.91759 0.23685
 H3415 H 0.41916 0.88617 0.30468
 H3416 H 0.43090 0.89785 0.33650
 H3417 H 0.42440 0.95761 0.31681
 H3418 H 0.41231 0.94572 0.28514
 C3419 C 0.39461 0.39448 0.74085
 C3420 C 0.38497 0.40685 0.72769
 C3421 C 0.37767 0.39942 0.71007
 C3422 C 0.37994 0.37948 0.70538
 C3423 C 0.38975 0.36720 0.71869
 C3424 C 0.39702 0.37466 0.73629
 C3425 C 0.40186 0.40201 0.75913
 C3426 C 0.40788 0.40811 0.77454
 C3427 C 0.41502 0.41512 0.79307
 C3428 C 0.41651 0.43524 0.79663
 C3429 C 0.42330 0.44200 0.81472
 C3430 C 0.42872 0.42868 0.82946
 C3431 C 0.42719 0.40848 0.82571
 C3432 C 0.42039 0.40177 0.80763
 H3433 H 0.38306 0.42223 0.73106
 H3434 H 0.37043 0.40930 0.70006
 H3435 H 0.39150 0.35175 0.71569
 H3436 H 0.40439 0.36493 0.74641
 H3437 H 0.41242 0.44570 0.78544
 H3438 H 0.42452 0.45762 0.81710
 H3439 H 0.43097 0.39788 0.83686
 H3440 H 0.41922 0.38616 0.80505
 C3441 C 1.10484 0.89561 1.25981
 C3442 C 1.12005 0.90521 1.26947
 C3443 C 1.12746 0.89775 1.28701
 C3444 C 1.11980 0.88038 1.29535
 C3445 C 1.10421 0.87105 1.28537
 C3446 C 1.09689 0.87859 1.26783
 C3447 C 1.09758 0.90302 1.24148
 C3448 C 1.09157 0.90902 1.22603
 C3449 C 1.08448 0.91594 1.20745
 C3450 C 1.08303 0.93605 1.20379
 C3451 C 1.07632 0.94272 1.18564
 C3452 C 1.07096 0.92933 1.17094
 C3453 C 1.07244 0.90915 1.17480
 C3454 C 1.07916 0.90252 1.19293
 H3455 H 1.12629 0.91846 1.26339
 H3456 H 1.13912 0.90588 1.29385
 H3457 H 1.09763 0.85773 1.29068
 H3458 H 1.08509 0.87102 1.26043
 H3459 H 1.08709 0.94656 1.21494
 H3460 H 1.07514 0.95833 1.18318
 H3461 H 1.06870 0.89849 1.16368
 H3462 H 1.08030 0.88693 1.19559
 C3463 C 1.10481 0.39569 0.75995
 C3464 C 1.09682 0.37873 0.76804
 C3465 C 1.10414 0.37122 0.78559
 C3466 C 1.11977 0.38054 0.79552
 C3467 C 1.12747 0.39786 0.78712
 C3468 C 1.12007 0.40527 0.76955
 C3469 C 1.09754 0.40305 0.74161
 C3470 C 1.09152 0.40901 0.72614
 C3471 C 1.08441 0.41587 0.70755
 C3472 C 1.07911 0.40241 0.69306
 C3473 C 1.07238 0.40898 0.67491
 C3474 C 1.07088 0.42915 0.67100
 C3475 C 1.07621 0.44258 0.68568
 C3476 C 1.08293 0.43596 0.70384
 H3477 H 1.08499 0.37116 0.76068
 H3478 H 1.09752 0.35794 0.79096
 H3479 H 1.13918 0.40597 0.79391
 H3480 H 1.12633 0.41849 0.76342
 H3481 H 1.08027 0.38682 0.69576
 H3482 H 1.06866 0.39829 0.66382
 H3483 H 1.07501 0.45818 0.68318
 H3484 H 1.08697 0.44651 0.71498
 C3485 C 0.60520 0.89450 0.75913
 C3486 C 0.62500 0.89693 0.76369
 C3487 C 0.63245 0.88966 0.78128
 C3488 C 0.62019 0.87982 0.79459
 C3489 C 0.60028 0.87752 0.78988
 C3490 C 0.59284 0.88482 0.77227
 C3491 C 0.59768 0.90178 0.74086
 C3492 C 0.59160 0.90783 0.72545
 C3493 C 0.58462 0.91502 0.70693
 C3494 C 0.59798 0.92046 0.69241
 C3495 C 0.59130 0.92729 0.67433
 C3496 C 0.57112 0.92876 0.67053
 C3497 C 0.55780 0.92328 0.68524
 C3498 C 0.56452 0.91646 0.70332
 H3499 H 0.63471 0.90433 0.75358
 H3500 H 0.64789 0.89143 0.78429
 H3501 H 0.59040 0.87025 0.79989
 H3502 H 0.57748 0.88289 0.76889
 H3503 H 0.61357 0.91933 0.69502
 H3504 H 0.60191 0.93112 0.66321
 H3505 H 0.54219 0.92446 0.68282
 H3506 H 0.55406 0.91232 0.71448
 C3507 C 0.60513 0.39489 1.25961
 C3508 C 0.59737 0.37777 1.26760
 C3509 C 0.60475 0.37029 1.28514
 C3510 C 0.62022 0.37978 1.29516
 C3511 C 0.62770 0.39724 1.28684
 C3512 C 0.62023 0.40464 1.26930
 C3513 C 0.59780 0.40227 1.24130
 C3514 C 0.59174 0.40829 1.22587
 C3515 C 0.58460 0.41526 1.20733
 C3516 C 0.57922 0.40189 1.19279
 C3517 C 0.57247 0.40857 1.17468
 C3518 C 0.57101 0.42876 1.17087
 C3519 C 0.57643 0.44210 1.18560
 C3520 C 0.58317 0.43538 1.20371
 H3521 H 0.58567 0.37007 1.26017
 H3522 H 0.59832 0.35688 1.29042
 H3523 H 0.63925 0.40550 1.29371
 H3524 H 0.62632 0.41797 1.26325
 H3525 H 0.58035 0.38628 1.19540
 H3526 H 0.56869 0.39794 1.16355
 H3527 H 0.57526 0.45772 1.18318
 H3528 H 0.58727 0.44586 1.21488
 C3529 C 0.89536 1.10439 1.25987
 C3530 C 0.90771 1.11397 1.27309
 C3531 C 0.90023 1.12130 1.29067
 C3532 C 0.88027 1.11915 1.29525
 C3533 C 0.86802 1.10937 1.28188
 C3534 C 0.87553 1.10206 1.26432
 C3535 C 0.90294 1.09723 1.24157
 C3536 C 0.90914 1.09137 1.22614
 C3537 C 0.91638 1.08453 1.20759
 C3538 C 0.92166 1.09800 1.19310
 C3539 C 0.92839 1.09143 1.17495
 C3540 C 0.92991 1.07126 1.17103
 C3541 C 0.92462 1.05783 1.18572
 C3542 C 0.91790 1.06444 1.20388
 H3543 H 0.92310 1.11582 1.26980
 H3544 H 0.91009 1.12852 1.30073
 H3545 H 0.85256 1.10771 1.28480
 H3546 H 0.86582 1.09474 1.25414
 H3547 H 0.92045 1.11359 1.19580
 H3548 H 0.93208 1.10212 1.16385
 H3549 H 0.92584 1.04223 1.18321
 H3550 H 0.91387 1.05389 1.21501
 C3551 C 0.89520 0.60528 0.75964
 C3552 C 0.88551 0.59285 0.77271
 C3553 C 0.87812 0.60022 0.79031
 C3554 C 0.88034 0.62015 0.79508
 C3555 C 0.89020 0.63248 0.78186
 C3556 C 0.89756 0.62509 0.76427
 C3557 C 0.90253 0.59782 0.74137
 C3558 C 0.90862 0.59177 0.72596
 C3559 C 0.91581 0.58479 0.70744
 C3560 C 0.91732 0.56468 0.70386
 C3561 C 0.92411 0.55795 0.68576
 C3562 C 0.92950 0.57128 0.67103
 C3563 C 0.92797 0.59147 0.67481
 C3564 C 0.92117 0.59816 0.69289
 H3565 H 0.88363 0.57748 0.76928
 H3566 H 0.87083 0.59030 0.80026
 H3567 H 0.89192 0.64792 0.78493
 H3568 H 0.90497 0.63485 0.75422
 H3569 H 0.91324 0.55420 0.71503
 H3570 H 0.92533 0.54233 0.68336
 H3571 H 0.93173 0.60209 0.66367
 H3572 H 0.91999 0.61376 0.69549
 C3573 C 0.39507 1.10528 0.75938
 C3574 C 0.39747 1.12510 0.76395
 C3575 C 0.39017 1.13256 0.78153
 C3576 C 0.38032 1.12028 0.79481
 C3577 C 0.37806 1.10034 0.79011
 C3578 C 0.38540 1.09291 0.77251
 C3579 C 0.40234 1.09775 0.74111
 C3580 C 0.40836 1.09166 0.72570
 C3581 C 0.41550 1.08464 0.70717
 C3582 C 0.42084 1.09798 0.69259
 C3583 C 0.42762 1.09126 0.67451
 C3584 C 0.42915 1.07106 0.67077
 C3585 C 0.42376 1.05775 0.68553
 C3586 C 0.41699 1.06452 0.70362
 H3587 H 0.40487 1.13483 0.75385
 H3588 H 0.39191 1.14801 0.78454
 H3589 H 0.37079 1.09045 0.80011
 H3590 H 0.38350 1.07753 0.76914
 H3591 H 0.41967 1.11359 0.69517
 H3592 H 0.43138 1.10186 0.66335
 H3593 H 0.42498 1.04213 0.68315
 H3594 H 0.41292 1.05406 0.71482
 C3595 C 0.39491 0.60515 1.25954
 C3596 C 0.37969 0.59551 1.26915
 C3597 C 0.37220 0.60294 1.28667
 C3598 C 0.37977 0.62034 1.29504
 C3599 C 0.39535 0.62973 1.28510
 C3600 C 0.40276 0.62221 1.26759
 C3601 C 0.40229 0.59773 1.24127
 C3602 C 0.40839 0.59170 1.22586
 C3603 C 0.41560 0.58471 1.20735
 C3604 C 0.41708 0.56459 1.20377
 C3605 C 0.42387 0.55785 1.18568
 C3606 C 0.42928 0.57117 1.17094
 C3607 C 0.42778 0.59137 1.17472
 C3608 C 0.42098 0.59807 1.19280
 H3609 H 0.37353 0.58222 1.26306
 H3610 H 0.36055 0.59477 1.29347
 H3611 H 0.40186 0.64309 1.29043
 H3612 H 0.41455 0.62983 1.26023
 H3613 H 0.41297 0.55412 1.21495
 H3614 H 0.42507 0.54222 1.18328
 H3615 H 0.43156 0.60198 1.16358
 H3616 H 0.41981 0.61367 1.19539
 C3617 C 1.10466 1.25966 0.89462
 C3618 C 1.10225 1.26427 0.87482
 C3619 C 1.10959 1.28187 0.86741
 C3620 C 1.11949 1.29510 0.87971
 C3621 C 1.12175 1.29035 0.89962
 C3622 C 1.11438 1.27274 0.90701
 C3623 C 1.09743 1.24135 0.90210
 C3624 C 1.09149 1.22591 0.90824
 C3625 C 1.08457 1.20737 0.91543
 C3626 C 1.06448 1.20375 0.91694
 C3627 C 1.05779 1.18561 0.92367
 C3628 C 1.07114 1.17087 0.92899
 C3629 C 1.09131 1.17469 0.92746
 C3630 C 1.09796 1.19282 0.92072
 H3631 H 1.09483 1.25420 0.86508
 H3632 H 1.10784 1.28492 0.85198
 H3633 H 1.12906 1.30031 0.90952
 H3634 H 1.11631 1.26932 0.92237
 H3635 H 1.05398 1.21492 0.91290
 H3636 H 1.04219 1.18318 0.92489
 H3637 H 1.10195 1.16354 0.93117
 H3638 H 1.11354 1.19544 0.91953
 C3639 C 1.10465 0.75950 0.39455
 C3640 C 1.11438 0.77261 0.40692
 C3641 C 1.12174 0.79020 0.39950
 C3642 C 1.11947 0.79492 0.37958
 C3643 C 1.10956 0.78167 0.36731
 C3644 C 1.10222 0.76409 0.37475
 C3645 C 1.09742 0.74121 0.40208
 C3646 C 1.09149 0.72579 0.40826
 C3647 C 1.08458 0.70726 0.41551
 C3648 C 1.09798 0.69273 0.42085
 C3649 C 1.09134 0.67461 0.42763
 C3650 C 1.07117 0.67079 0.42917
 C3651 C 1.05781 0.68552 0.42381
 C3652 C 1.06449 0.70364 0.41703
 H3653 H 1.11631 0.76922 0.42228
 H3654 H 1.12906 0.80018 0.40938
 H3655 H 1.10780 0.78470 0.35187
 H3656 H 1.09479 0.75401 0.36503
 H3657 H 1.11356 0.69535 0.41965
 H3658 H 1.10197 0.66348 0.43137
 H3659 H 1.04221 0.68308 0.42503
 H3660 H 1.05400 0.71480 0.41296
 C3661 C 0.60530 1.25926 0.39456
 C3662 C 0.62511 1.26378 0.39693
 C3663 C 0.63259 1.28136 0.38963
 C3664 C 0.62033 1.29468 0.37980
 C3665 C 0.60040 1.29002 0.37757
 C3666 C 0.59295 1.27243 0.38491
 C3667 C 0.59775 1.24100 0.40184
 C3668 C 0.59163 1.22559 0.40788
 C3669 C 0.58458 1.20708 0.41504
 C3670 C 0.59790 1.19247 0.42039
 C3671 C 0.59115 1.17441 0.42720
 C3672 C 0.57096 1.17070 0.42875
 C3673 C 0.55769 1.18549 0.42335
 C3674 C 0.56447 1.20357 0.41655
 H3675 H 0.63482 1.25365 0.40432
 H3676 H 0.64803 1.28434 0.39135
 H3677 H 0.59053 1.30005 0.37032
 H3678 H 0.57757 1.26909 0.38302
 H3679 H 0.61349 1.19501 0.41921
 H3680 H 0.60173 1.16322 0.43096
 H3681 H 0.54207 1.18314 0.42459
 H3682 H 0.55404 1.21479 0.41247
 C3683 C 0.60535 0.75919 0.89481
 C3684 C 0.62515 0.76376 0.89721
 C3685 C 0.63260 0.78135 0.88990
 C3686 C 0.62032 0.79464 0.88005
 C3687 C 0.60040 0.78993 0.87778
 C3688 C 0.59298 0.77232 0.88513
 C3689 C 0.59783 0.74092 0.90210
 C3690 C 0.59174 0.72551 0.90815
 C3691 C 0.58472 0.70700 0.91532
 C3692 C 0.59804 0.69240 0.92066
 C3693 C 0.59132 0.67432 0.92747
 C3694 C 0.57114 0.67061 0.92904
 C3695 C 0.55784 0.68539 0.92366
 C3696 C 0.56461 0.70347 0.91685
 H3697 H 0.63487 0.75366 0.90462
 H3698 H 0.64803 0.78437 0.89165
 H3699 H 0.59052 0.79992 0.87050
 H3700 H 0.57761 0.76894 0.88322
 H3701 H 0.61364 0.69495 0.91946
 H3702 H 0.60191 0.66315 0.93123
 H3703 H 0.54223 0.68303 0.92490
 H3704 H 0.55417 0.71468 0.91278
 C3705 C 0.89519 1.25966 1.10553
 C3706 C 0.87821 1.26773 1.09758
 C3707 C 0.87063 1.28522 1.10500
 C3708 C 0.87987 1.29510 1.12070
 C3709 C 0.89720 1.28671 1.12838
 C3710 C 0.90470 1.26921 1.12087
 C3711 C 0.90266 1.24140 1.09813
 C3712 C 0.90870 1.22600 1.09199
 C3713 C 0.91567 1.20749 1.08473
 C3714 C 0.90231 1.19295 1.07934
 C3715 C 0.90899 1.17487 1.07248
 C3716 C 0.92917 1.17110 1.07092
 C3717 C 0.94249 1.18583 1.07634
 C3718 C 0.93577 1.20392 1.08320
 H3719 H 0.87070 1.26042 1.08568
 H3720 H 0.85735 1.29057 1.09838
 H3721 H 0.90526 1.29345 1.14015
 H3722 H 0.91792 1.26309 1.12712
 H3723 H 0.88672 1.19554 1.08054
 H3724 H 0.89838 1.16373 1.06870
 H3725 H 0.95810 1.18344 1.07510
 H3726 H 0.94624 1.21509 1.08730
 C3727 C 0.89507 0.75944 0.60551
 C3728 C 0.87526 0.76398 0.60307
 C3729 C 0.86778 0.78158 0.61032
 C3730 C 0.88001 0.79491 0.62015
 C3731 C 0.89993 0.79023 0.62248
 C3732 C 0.90739 0.77261 0.61520
 C3733 C 0.90262 0.74118 0.59823
 C3734 C 0.90870 0.72577 0.59215
 C3735 C 0.91568 0.70725 0.58494
 C3736 C 0.90231 0.69271 0.57955
 C3737 C 0.90899 0.67463 0.57269
 C3738 C 0.92916 0.67085 0.57113
 C3739 C 0.94249 0.68558 0.57656
 C3740 C 0.93578 0.70367 0.58341
 H3741 H 0.86557 0.75385 0.59566
 H3742 H 0.85234 0.78456 0.60852
 H3743 H 0.90978 0.80027 0.62975
 H3744 H 0.92276 0.76926 0.61714
 H3745 H 0.88672 0.69530 0.58074
 H3746 H 0.89837 0.66349 0.56890
 H3747 H 0.95810 0.68318 0.57532
 H3748 H 0.94625 0.71484 0.58751
 C3749 C 0.39505 1.25958 0.60479
 C3750 C 0.40287 1.26757 0.62188
 C3751 C 0.39553 1.28513 0.62939
 C3752 C 0.38003 1.29515 0.61997
 C3753 C 0.37248 1.28684 0.60253
 C3754 C 0.37992 1.26929 0.59511
 C3755 C 0.40234 1.24126 0.59740
 C3756 C 0.40836 1.22580 0.59139
 C3757 C 0.41547 1.20723 0.58444
 C3758 C 0.42087 1.19271 0.59782
 C3759 C 0.42759 1.17457 0.59116
 C3760 C 0.42900 1.17072 0.57098
 C3761 C 0.42356 1.18542 0.55763
 C3762 C 0.41684 1.20356 0.56433
 H3763 H 0.41461 1.26014 0.62953
 H3764 H 0.40201 1.29041 0.64277
 H3765 H 0.36090 1.29372 0.59432
 H3766 H 0.37377 1.26324 0.58180
 H3767 H 0.41978 1.19536 0.61341
 H3768 H 0.43140 1.16346 0.60179
 H3769 H 0.42468 1.18296 0.54202
 H3770 H 0.41272 1.21472 0.55385
 C3771 C 0.39493 0.75949 1.10529
 C3772 C 0.40268 0.76746 1.12242
 C3773 C 0.39527 0.78500 1.12993
 C3774 C 0.37980 0.79502 1.12045
 C3775 C 0.37234 0.78672 1.10298
 C3776 C 0.37983 0.76918 1.09556
 C3777 C 0.40229 0.74119 1.09788
 C3778 C 0.40836 0.72576 1.09184
 C3779 C 0.41551 0.70723 1.08484
 C3780 C 0.42095 0.69268 1.09818
 C3781 C 0.42771 0.67458 1.09147
 C3782 C 0.42911 0.67078 1.07128
 C3783 C 0.42362 0.68551 1.05797
 C3784 C 0.41687 0.70362 1.06473
 H3785 H 0.41439 0.76004 1.13011
 H3786 H 0.40169 0.79027 1.14335
 H3787 H 0.36078 0.79359 1.09472
 H3788 H 0.37375 0.76314 1.08221
 H3789 H 0.41987 0.69529 1.11378
 H3790 H 0.43154 0.66344 1.10207
 H3791 H 0.42474 0.68309 1.04236
 H3792 H 0.41272 0.71479 1.05427
 C3793 C 0.89491 0.74045 0.89563
 C3794 C 0.90733 0.72728 0.88605
 C3795 C 0.89994 0.70966 0.87870
 C3796 C 0.88001 0.70498 0.88085
 C3797 C 0.86768 0.71829 0.89060
 C3798 C 0.87510 0.73589 0.89792
 C3799 C 0.90238 0.75875 0.90288
 C3800 C 0.90843 0.77420 0.90889
 C3801 C 0.91538 0.79276 0.91599
 C3802 C 0.93548 0.79638 0.91746
 C3803 C 0.94218 0.81453 0.92417
 C3804 C 0.92884 0.82927 0.92952
 C3805 C 0.90867 0.82546 0.92803
 C3806 C 0.90201 0.80732 0.92131
 H3807 H 0.92271 0.73065 0.88422
 H3808 H 0.90986 0.69964 0.87149
 H3809 H 0.85224 0.71529 0.89226
 H3810 H 0.86534 0.74602 0.90524
 H3811 H 0.94596 0.78520 0.91340
 H3812 H 0.95779 0.81696 0.92536
 H3813 H 0.89804 0.83660 0.93176
 H3814 H 0.88642 0.80470 0.92016
 C3815 C 0.89505 0.24047 0.39489
 C3816 C 0.88524 0.22742 0.40725
 C3817 C 0.87787 0.20982 0.39985
 C3818 C 0.88021 0.20504 0.37995
 C3819 C 0.89019 0.21824 0.36768
 C3820 C 0.89754 0.23582 0.37512
 C3821 C 0.90231 0.25876 0.40241
 C3822 C 0.90827 0.27418 0.40858
 C3823 C 0.91523 0.29270 0.41581
 C3824 C 0.90187 0.30726 0.42117
 C3825 C 0.90856 0.32536 0.42794
 C3826 C 0.92873 0.32915 0.42944
 C3827 C 0.94206 0.31440 0.42405
 C3828 C 0.93533 0.29629 0.41729
 H3829 H 0.88326 0.23086 0.42260
 H3830 H 0.87049 0.19989 0.40972
 H3831 H 0.89200 0.21516 0.35226
 H3832 H 0.90503 0.24586 0.36540
 H3833 H 0.88628 0.30466 0.42000
 H3834 H 0.89794 0.33651 0.43170
 H3835 H 0.95766 0.31681 0.42525
 H3836 H 0.94580 0.28511 0.41320
 C3837 C 0.39500 0.74024 0.39466
 C3838 C 0.37797 0.73219 0.40253
 C3839 C 0.37046 0.71466 0.39514
 C3840 C 0.37981 0.70472 0.37954
 C3841 C 0.39718 0.71309 0.37194
 C3842 C 0.40461 0.73063 0.37942
 C3843 C 0.40240 0.75854 0.40202
 C3844 C 0.40840 0.77397 0.40812
 C3845 C 0.41534 0.79250 0.41532
 C3846 C 0.40195 0.80702 0.42073
 C3847 C 0.40860 0.82513 0.42753
 C3848 C 0.42877 0.82896 0.42902
 C3849 C 0.44212 0.81425 0.42358
 C3850 C 0.43543 0.79614 0.41679
 H3851 H 0.37038 0.73955 0.41435
 H3852 H 0.35713 0.70932 0.40169
 H3853 H 0.40533 0.70630 0.36026
 H3854 H 0.41787 0.73673 0.37323
 H3855 H 0.38636 0.80439 0.41958
 H3856 H 0.39797 0.83625 0.43133
 H3857 H 0.45772 0.81670 0.42477
 H3858 H 0.44592 0.78499 0.41267
 C3859 C 0.39522 0.24015 0.89534
 C3860 C 0.40491 0.23051 0.88017
 C3861 C 0.39753 0.21296 0.87269
 C3862 C 0.38012 0.20460 0.88022
 C3863 C 0.37068 0.21456 0.89576
 C3864 C 0.37816 0.23211 0.90315
 C3865 C 0.40257 0.25848 0.90268
 C3866 C 0.40855 0.27393 0.90875
 C3867 C 0.41546 0.29250 0.91590
 C3868 C 0.43555 0.29615 0.91737
 C3869 C 0.44222 0.31430 0.92410
 C3870 C 0.42886 0.32902 0.92946
 C3871 C 0.40869 0.32517 0.92797
 C3872 C 0.40206 0.30703 0.92123
 H3873 H 0.41820 0.23661 0.87404
 H3874 H 0.40574 0.20614 0.86107
 H3875 H 0.35733 0.20924 0.90224
 H3876 H 0.37050 0.23950 0.91491
 H3877 H 0.44605 0.28499 0.91331
 H3878 H 0.45783 0.31675 0.92530
 H3879 H 0.39805 0.33629 0.93171
 H3880 H 0.38648 0.30438 0.92007
 C3881 C 1.10551 0.74099 1.10589
 C3882 C 1.12262 0.73301 1.09812
 C3883 C 1.13016 0.71551 1.10555
 C3884 C 1.12073 0.70551 1.12107
 C3885 C 1.10328 0.71383 1.12857
 C3886 C 1.09583 0.73134 1.12106
 C3887 C 1.09806 0.75925 1.09847
 C3888 C 1.09199 0.77464 1.09233
 C3889 C 1.08496 0.79312 1.08508
 C3890 C 1.09827 0.80768 1.07961
 C3891 C 1.09153 0.82573 1.07275
 C3892 C 1.07134 0.82946 1.07126
 C3893 C 1.05806 0.81472 1.07677
 C3894 C 1.06484 0.79666 1.08362
 H3895 H 1.13026 0.74041 1.08636
 H3896 H 1.14355 0.71022 1.09910
 H3897 H 1.09508 0.70699 1.14019
 H3898 H 1.08251 0.73738 1.12716
 H3899 H 1.11387 0.80512 1.08076
 H3900 H 1.10211 0.83688 1.06890
 H3901 H 1.04245 0.81708 1.07558
 H3902 H 1.05441 0.78548 1.08779
 C3903 C 1.10533 0.24059 0.60552
 C3904 C 1.12245 0.23261 0.59776
 C3905 C 1.12997 0.21509 0.60517
 C3906 C 1.12051 0.20508 0.62066
 C3907 C 1.10306 0.21339 0.62815
 C3908 C 1.09563 0.23091 0.62066
 C3909 C 1.09791 0.25886 0.59813
 C3910 C 1.09186 0.27427 0.59203
 C3911 C 1.08485 0.29278 0.58482
 C3912 C 1.09819 0.30735 0.57941
 C3913 C 1.09147 0.32542 0.57259
 C3914 C 1.07129 0.32918 0.57110
 C3915 C 1.05799 0.31444 0.57655
 C3916 C 1.06475 0.29635 0.58336
 H3917 H 1.13011 0.24002 0.58602
 H3918 H 1.14337 0.20980 0.59873
 H3919 H 1.09483 0.20653 0.63974
 H3920 H 1.08230 0.23696 0.62675
 H3921 H 1.11378 0.30477 0.58055
 H3922 H 1.10206 0.33657 0.56878
 H3923 H 1.04238 0.31682 0.57537
 H3924 H 1.05430 0.28517 0.58749
 C3925 C 0.60531 0.74042 0.60457
 C3926 C 0.59289 0.72728 0.61416
 C3927 C 0.60027 0.70967 0.62155
 C3928 C 0.62021 0.70498 0.61943
 C3929 C 0.63254 0.71826 0.60965
 C3930 C 0.62513 0.73585 0.60230
 C3931 C 0.59784 0.75870 0.59728
 C3932 C 0.59176 0.77413 0.59124
 C3933 C 0.58476 0.79266 0.58411
 C3934 C 0.56465 0.79624 0.58267
 C3935 C 0.55789 0.81434 0.57593
 C3936 C 0.57119 0.82911 0.57051
 C3937 C 0.59137 0.82534 0.57198
 C3938 C 0.59809 0.80724 0.57873
 H3939 H 0.57751 0.73065 0.61597
 H3940 H 0.59035 0.69967 0.62876
 H3941 H 0.64799 0.71525 0.60801
 H3942 H 0.63490 0.74596 0.59496
 H3943 H 0.55420 0.78504 0.58677
 H3944 H 0.54228 0.81674 0.57475
 H3945 H 0.60197 0.83650 0.56820
 H3946 H 0.61368 0.80465 0.57986
 C3947 C 0.60544 0.24070 1.10555
 C3948 C 0.59573 0.23103 1.12069
 C3949 C 0.60318 0.21352 1.12821
 C3950 C 0.62065 0.20523 1.12074
 C3951 C 0.63011 0.21524 1.10524
 C3952 C 0.62257 0.23274 1.09781
 C3953 C 0.59799 0.25897 1.09815
 C3954 C 0.59193 0.27436 1.09203
 C3955 C 0.58490 0.29286 1.08480
 C3956 C 0.56479 0.29641 1.08334
 C3957 C 0.55802 0.31447 1.07652
 C3958 C 0.57130 0.32923 1.07104
 C3959 C 0.59148 0.32549 1.07253
 C3960 C 0.59822 0.30743 1.07937
 H3961 H 0.58239 0.23706 1.12677
 H3962 H 0.59496 0.20666 1.13979
 H3963 H 0.64352 0.20997 1.09882
 H3964 H 0.63023 0.24016 1.08608
 H3965 H 0.55436 0.28521 1.08749
 H3966 H 0.54240 0.31684 1.07533
 H3967 H 0.60207 0.33665 1.06871
 H3968 H 0.61382 0.30486 1.08051
 C3969 C 1.25938 1.10516 0.89452
 C3970 C 1.27256 1.09281 0.88487
 C3971 C 1.29017 1.10026 0.87761
 C3972 C 1.29484 1.12020 0.87991
 C3973 C 1.28151 1.13246 0.88971
 C3974 C 1.26391 1.12499 0.89694
 C3975 C 1.24110 1.09762 0.90173
 C3976 C 1.22569 1.09152 0.90774
 C3977 C 1.20716 1.08452 0.91487
 C3978 C 1.20356 1.06440 0.91629
 C3979 C 1.18548 1.05767 0.92309
 C3980 C 1.17077 1.07100 0.92858
 C3981 C 1.17456 1.09119 0.92710
 C3982 C 1.19263 1.09789 0.92030
 H3983 H 1.26921 1.07743 0.88295
 H3984 H 1.30020 1.09039 0.87037
 H3985 H 1.28450 1.14791 0.89148
 H3986 H 1.25378 1.13470 0.90432
 H3987 H 1.21472 1.05393 0.91216
 H3988 H 1.18307 1.04205 0.92426
 H3989 H 1.16344 1.10181 0.93094
 H3990 H 1.19524 1.11349 0.91918
 C3991 C 1.25916 0.60524 0.39429
 C3992 C 1.27233 0.59288 0.38463
 C3993 C 1.28991 0.60035 0.37729
 C3994 C 1.29455 0.62030 0.37953
 C3995 C 1.28123 0.63256 0.38935
 C3996 C 1.26367 0.62507 0.39665
 C3997 C 1.24093 0.59768 0.40159
 C3998 C 1.22554 0.59157 0.40767
 C3999 C 1.20705 0.58455 0.41488
 C4000 C 1.20349 0.56443 0.41632
 C4001 C 1.18543 0.55767 0.42318
 C4002 C 1.17072 0.57099 0.42870
 C4003 C 1.17448 0.59119 0.42721
 C4004 C 1.19252 0.59790 0.42035
 H4005 H 1.26900 0.57749 0.38275
 H4006 H 1.29993 0.59047 0.37004
 H4007 H 1.28420 0.64802 0.39107
 H4008 H 1.25354 0.63479 0.40404
 H4009 H 1.21465 0.55397 0.41216
 H4010 H 1.18304 0.54205 0.42436
 H4011 H 1.16336 0.60179 0.43107
 H4012 H 1.19511 0.61351 0.41921
 C4013 C 0.75902 1.10534 0.39478
 C4014 C 0.76366 1.10290 0.37500
 C4015 C 0.78127 1.11018 0.36760
 C4016 C 0.79451 1.12005 0.37992
 C4017 C 0.78972 1.12239 0.39981
 C4018 C 0.77209 1.11507 0.40718
 C4019 C 0.74075 1.09802 0.40224
 C4020 C 0.72534 1.09191 0.40826
 C4021 C 0.70683 1.08467 0.41517
 C4022 C 0.70322 1.08307 0.43527
 C4023 C 0.68514 1.07622 0.44194
 C4024 C 0.67043 1.07086 0.42856
 C4025 C 0.67423 1.07247 0.40839
 C4026 C 0.69231 1.07933 0.40177
 H4027 H 0.75360 1.09547 0.36525
 H4028 H 0.78434 1.10839 0.35218
 H4029 H 0.79968 1.12968 0.40972
 H4030 H 0.76866 1.11701 0.42254
 H4031 H 0.71438 1.08713 0.44577
 H4032 H 0.68272 1.07494 0.45754
 H4033 H 0.66312 1.06873 0.39775
 H4034 H 0.69493 1.08057 0.38618
 C4035 C 0.75920 0.60478 0.89459
 C4036 C 0.76375 0.62459 0.89704
 C4037 C 0.78136 0.63206 0.88983
 C4038 C 0.79469 0.61980 0.88002
 C4039 C 0.78999 0.59987 0.87768
 C4040 C 0.77237 0.59243 0.88492
 C4041 C 0.74093 0.59724 0.90181
 C4042 C 0.72551 0.59117 0.90785
 C4043 C 0.70698 0.58422 0.91501
 C4044 C 0.69249 0.59761 0.92047
 C4045 C 0.67441 0.59095 0.92730
 C4046 C 0.67058 0.57077 0.92875
 C4047 C 0.68526 0.55741 0.92325
 C4048 C 0.70334 0.56411 0.91644
 H4049 H 0.75362 0.63430 0.90443
 H4050 H 0.78436 0.64750 0.89164
 H4051 H 0.80002 0.59000 0.87042
 H4052 H 0.76900 0.57705 0.88297
 H4053 H 0.69513 0.61321 0.91936
 H4054 H 0.66332 0.60159 0.93115
 H4055 H 0.68281 0.54179 0.92441
 H4056 H 0.71448 0.55361 0.91228
 C4057 C 1.25919 0.89454 1.10531
 C4058 C 1.26370 0.87471 1.10294
 C4059 C 1.28125 0.86721 1.11028
 C4060 C 1.29455 0.87947 1.12013
 C4061 C 1.28991 0.89942 1.12236
 C4062 C 1.27234 0.90689 1.11499
 C4063 C 1.24095 0.90211 1.09802
 C4064 C 1.22557 0.90824 1.09196
 C4065 C 1.20707 0.91529 1.08479
 C4066 C 1.19250 0.90197 1.07938
 C4067 C 1.17445 0.90872 1.07257
 C4068 C 1.17072 0.92893 1.07109
 C4069 C 1.18548 0.94221 1.07655
 C4070 C 1.20354 0.93542 1.08335
 H4071 H 1.25358 0.86500 1.09554
 H4072 H 1.28421 0.85175 1.10855
 H4073 H 1.29992 0.90929 1.12963
 H4074 H 1.26901 0.92229 1.11687
 H4075 H 1.19506 0.88636 1.08051
 H4076 H 1.16329 0.89814 1.06876
 H4077 H 1.18311 0.95784 1.07537
 H4078 H 1.21474 0.94586 1.08747
 C4079 C 1.25935 0.39458 0.60523
 C4080 C 1.27248 0.40694 0.61492
 C4081 C 1.29007 0.39949 0.62225
 C4082 C 1.29475 0.37955 0.61997
 C4083 C 1.28147 0.36728 0.61012
 C4084 C 1.26389 0.37476 0.60281
 C4085 C 1.24109 0.40212 0.59795
 C4086 C 1.22569 0.40822 0.59191
 C4087 C 1.20718 0.41523 0.58475
 C4088 C 1.20360 0.43536 0.58331
 C4089 C 1.18553 0.44211 0.57652
 C4090 C 1.17079 0.42880 0.57106
 C4091 C 1.17456 0.40860 0.57253
 C4092 C 1.19263 0.40189 0.57933
 H4093 H 1.26912 0.42232 0.61683
 H4094 H 1.30007 0.40936 0.62953
 H4095 H 1.28446 0.35183 0.60836
 H4096 H 1.25379 0.36504 0.59540
 H4097 H 1.21478 0.44581 0.58744
 H4098 H 1.18313 0.45774 0.57534
 H4099 H 1.16343 0.39800 0.56872
 H4100 H 1.19522 0.38628 0.58046
 C4101 C 0.75943 0.89515 0.60452
 C4102 C 0.76398 0.87532 0.60224
 C4103 C 0.78156 0.86791 0.60958
 C4104 C 0.79485 0.88025 0.61935
 C4105 C 0.79016 0.90020 0.62148
 C4106 C 0.77256 0.90759 0.61411
 C4107 C 0.74115 0.90263 0.59723
 C4108 C 0.72572 0.90867 0.59119
 C4109 C 0.70718 0.91561 0.58404
 C4110 C 0.69268 0.90221 0.57864
 C4111 C 0.67457 0.90885 0.57188
 C4112 C 0.67072 0.92904 0.57044
 C4113 C 0.68540 0.94241 0.57588
 C4114 C 0.70352 0.93572 0.58263
 H4115 H 0.75388 0.86555 0.59491
 H4116 H 0.78456 0.85245 0.60794
 H4117 H 0.80016 0.91013 0.62869
 H4118 H 0.76919 0.92298 0.61592
 H4119 H 0.69534 0.88661 0.57975
 H4120 H 0.66347 0.89821 0.56808
 H4121 H 0.68294 0.95802 0.57473
 H4122 H 0.71466 0.94622 0.58675
 C4123 C 0.75908 0.39437 1.10567
 C4124 C 0.77218 0.40673 1.11541
 C4125 C 0.78973 0.39928 1.12283
 C4126 C 0.79442 0.37934 1.12058
 C4127 C 0.78117 0.36707 1.11068
 C4128 C 0.76363 0.37455 1.10330
 C4129 C 0.74086 0.40192 1.09830
 C4130 C 0.72550 0.40803 1.09217
 C4131 C 0.70703 0.41506 1.08491
 C4132 C 0.70348 0.43519 1.08347
 C4133 C 0.68544 0.44197 1.07661
 C4134 C 0.67071 0.42868 1.07108
 C4135 C 0.67446 0.40847 1.07254
 C4136 C 0.69250 0.40173 1.07941
 H4137 H 0.76882 0.42212 1.11730
 H4138 H 0.79971 0.40916 1.13014
 H4139 H 0.78416 0.35162 1.10895
 H4140 H 0.75355 0.36483 1.09585
 H4141 H 0.71464 0.44564 1.08767
 H4142 H 0.68306 0.45760 1.07545
 H4143 H 0.66333 0.39788 1.06867
 H4144 H 0.69507 0.38612 1.08054
 C4145 C 0.74122 1.10585 1.10590
 C4146 C 0.72807 1.11553 1.09355
 C4147 C 0.71049 1.12288 1.10100
 C4148 C 0.70582 1.12064 1.12093
 C4149 C 0.71912 1.11079 1.13319
 C4150 C 0.73669 1.10346 1.12571
 C4151 C 0.75947 1.09856 1.09834
 C4152 C 0.77486 1.09250 1.09222
 C4153 C 0.79334 1.08532 1.08516
 C4154 C 0.79683 1.08380 1.06504
 C4155 C 0.81488 1.07697 1.05823
 C4156 C 0.82967 1.07155 1.07150
 C4157 C 0.82599 1.07312 1.09169
 C4158 C 0.80795 1.07996 1.09846
 H4159 H 0.73142 1.11742 1.07817
 H4160 H 0.70048 1.13015 1.09113
 H4161 H 0.71613 1.10905 1.14864
 H4162 H 0.74680 1.09606 1.13542
 H4163 H 0.78561 1.08788 1.05461
 H4164 H 0.81721 1.07572 1.04261
 H4165 H 0.83717 1.06935 1.10226
 H4166 H 0.80543 1.08116 1.11406
 C4167 C 0.74074 0.60474 0.60541
 C4168 C 0.73615 0.60242 0.62522
 C4169 C 0.71853 0.60970 0.63261
 C4170 C 0.70523 0.61943 0.62025
 C4171 C 0.70995 0.62159 0.60032
 C4172 C 0.72758 0.61428 0.59296
 C4173 C 0.75906 0.59754 0.59795
 C4174 C 0.77452 0.59158 0.59189
 C4175 C 0.79308 0.58454 0.58491
 C4176 C 0.80767 0.57927 0.59826
 C4177 C 0.82578 0.57257 0.59157
 C4178 C 0.82956 0.57104 0.57139
 C4179 C 0.81479 0.57636 0.55806
 C4180 C 0.79667 0.58306 0.56480
 H4181 H 0.74627 0.59512 0.63500
 H4182 H 0.71550 0.60803 0.64805
 H4183 H 0.69994 0.62877 0.59038
 H4184 H 0.73097 0.61612 0.57759
 H4185 H 0.80508 0.58044 0.61386
 H4186 H 0.83695 0.56886 0.60218
 H4187 H 0.81719 0.57515 0.54245
 H4188 H 0.78546 0.58708 0.55433
 C4189 C 0.24092 1.10544 0.60575
 C4190 C 0.22780 1.11515 0.59339
 C4191 C 0.21024 1.12256 0.60083
 C4192 C 0.20556 1.12034 0.62077
 C4193 C 0.21884 1.11047 0.63304
 C4194 C 0.23638 1.10310 0.62557
 C4195 C 0.25914 1.09808 0.59820
 C4196 C 0.27451 1.09196 0.59209
 C4197 C 0.29298 1.08472 0.58505
 C4198 C 0.29649 1.08319 0.56494
 C4199 C 0.31454 1.07634 0.55815
 C4200 C 0.32930 1.07090 0.57143
 C4201 C 0.32560 1.07245 0.59162
 C4202 C 0.30756 1.07932 0.59837
 H4203 H 0.23115 1.11702 0.57801
 H4204 H 0.20025 1.12985 0.59095
 H4205 H 0.21585 1.10876 0.64848
 H4206 H 0.24647 1.09568 0.63528
 H4207 H 0.28529 1.08730 0.55450
 H4208 H 0.31688 1.07510 0.54253
 H4209 H 0.33677 1.06866 0.60220
 H4210 H 0.30503 1.08051 0.61397
 C4211 C 0.24112 0.60586 1.10605
 C4212 C 0.22800 0.61560 1.09371
 C4213 C 0.21045 0.62302 1.10118
 C4214 C 0.20579 0.62079 1.12112
 C4215 C 0.21907 0.61089 1.13337
 C4216 C 0.23660 0.60350 1.12587
 C4217 C 0.25933 0.59848 1.09849
 C4218 C 0.27469 0.59235 1.09236
 C4219 C 0.29314 0.58508 1.08530
 C4220 C 0.29663 0.58356 1.06518
 C4221 C 0.31466 0.57667 1.05838
 C4222 C 0.32942 0.57120 1.07164
 C4223 C 0.32574 0.57274 1.09184
 C4224 C 0.30772 0.57964 1.09860
 H4225 H 0.23134 0.61747 1.07833
 H4226 H 0.20046 0.63033 1.09132
 H4227 H 0.21609 0.60917 1.14882
 H4228 H 0.24669 0.59606 1.13558
 H4229 H 0.28543 0.58770 1.05476
 H4230 H 0.31699 0.57544 1.04275
 H4231 H 0.33690 0.56892 1.10241
 H4232 H 0.30519 0.58083 1.11421
 C4233 C 0.74063 0.89509 0.89504
 C4234 C 0.72747 0.88546 0.90741
 C4235 C 0.70989 0.87811 0.89997
 C4236 C 0.70524 0.88030 0.88002
 C4237 C 0.71855 0.89010 0.86775
 C4238 C 0.73612 0.89743 0.87522
 C4239 C 0.75889 0.90237 0.90257
 C4240 C 0.77430 0.90842 0.90865
 C4241 C 0.79283 0.91558 0.91563
 C4242 C 0.79641 0.91711 0.93573
 C4243 C 0.81450 0.92391 0.94245
 C4244 C 0.82924 0.92927 0.92912
 C4245 C 0.82546 0.92770 0.90894
 C4246 C 0.80738 0.92090 0.90226
 H4247 H 0.73080 0.88361 0.92280
 H4248 H 0.69986 0.87087 0.90985
 H4249 H 0.71559 0.89180 0.85229
 H4250 H 0.74624 0.90479 0.86549
 H4251 H 0.78523 0.91306 0.94621
 H4252 H 0.81690 0.92515 0.95806
 H4253 H 0.83661 0.93144 0.89832
 H4254 H 0.80479 0.91970 0.88667
 C4255 C 0.74075 0.39503 0.39472
 C4256 C 0.73624 0.39739 0.37490
 C4257 C 0.71867 0.39008 0.36741
 C4258 C 0.70536 0.38026 0.37967
 C4259 C 0.71000 0.37804 0.39962
 C4260 C 0.72758 0.38539 0.40708
 C4261 C 0.75901 0.40228 0.40228
 C4262 C 0.77442 0.40830 0.40839
 C4263 C 0.79294 0.41542 0.41543
 C4264 C 0.80753 0.42074 0.40210
 C4265 C 0.82560 0.42752 0.40884
 C4266 C 0.82932 0.42907 0.42903
 C4267 C 0.81455 0.42370 0.44232
 C4268 C 0.79647 0.41693 0.43554
 H4269 H 0.74637 0.40476 0.36519
 H4270 H 0.71571 0.39179 0.35196
 H4271 H 0.69998 0.37079 0.40949
 H4272 H 0.73091 0.38351 0.42246
 H4273 H 0.80498 0.41956 0.38650
 H4274 H 0.83678 0.43126 0.39825
 H4275 H 0.81691 0.42493 0.45794
 H4276 H 0.78525 0.41287 0.44598
 C4277 C 0.24058 0.89457 0.39468
 C4278 C 0.22741 0.88491 0.40703
 C4279 C 0.20981 0.87762 0.39958
 C4280 C 0.20513 0.87992 0.37965
 C4281 C 0.21845 0.88974 0.36739
 C4282 C 0.23604 0.89699 0.37487
 C4283 C 0.25884 0.90182 0.40222
 C4284 C 0.27425 0.90786 0.40832
 C4285 C 0.29276 0.91503 0.41532
 C4286 C 0.29634 0.91651 0.43543
 C4287 C 0.31441 0.92333 0.44217
 C4288 C 0.32914 0.92877 0.42885
 C4289 C 0.32538 0.92724 0.40867
 C4290 C 0.30731 0.92041 0.40197
 H4291 H 0.23077 0.88299 0.42240
 H4292 H 0.19978 0.87037 0.40944
 H4293 H 0.21546 0.89151 0.35195
 H4294 H 0.24617 0.90437 0.36516
 H4295 H 0.28516 0.91241 0.44589
 H4296 H 0.31681 0.92455 0.45778
 H4297 H 0.33651 0.93103 0.39806
 H4298 H 0.30472 0.91925 0.38637
 C4299 C 0.24057 0.39478 0.89486
 C4300 C 0.22740 0.38512 0.90721
 C4301 C 0.20979 0.37784 0.89976
 C4302 C 0.20511 0.38014 0.87983
 C4303 C 0.21843 0.38996 0.86758
 C4304 C 0.23603 0.39720 0.87505
 C4305 C 0.25884 0.40202 0.90241
 C4306 C 0.27425 0.40805 0.90850
 C4307 C 0.29276 0.41521 0.91551
 C4308 C 0.29632 0.41670 0.93562
 C4309 C 0.31440 0.42351 0.94237
 C4310 C 0.32914 0.42892 0.92906
 C4311 C 0.32539 0.42738 0.90887
 C4312 C 0.30732 0.42057 0.90217
 H4313 H 0.23076 0.38319 0.92258
 H4314 H 0.19976 0.37059 0.90963
 H4315 H 0.21544 0.39173 0.85214
 H4316 H 0.24616 0.40459 0.86534
 H4317 H 0.28514 0.41262 0.94608
 H4318 H 0.31679 0.42473 0.95798
 H4319 H 0.33654 0.43116 0.89827
 H4320 H 0.30474 0.41940 0.88657
   
