data_POSCAR
  _audit_creation_date              2014-09-24
  _audit_creation_method            'ToBaCCo'
  _symmetry_space_group_name_H-M    'P1'
  _symmetry_Int_Tables_number       1
  _symmetry_cell_setting            triclinic
  loop_
  _symmetry_equiv_pos_as_xyz
 x,y,z
_cell_length_a 45.8402
_cell_length_b 45.4794
_cell_length_c 44.9038
_cell_angle_alpha 93.801900
_cell_angle_beta 92.504800
_cell_angle_gamma 92.454400
loop_
  _atom_site_label
  _atom_site_type_symbol
  _atom_site_fract_x
  _atom_site_fract_y
  _atom_site_fract_z
C1 C 0.69984 0.65535 0.94627
 H2 H 0.71076 0.64253 0.92937
 C3 C 0.67711 0.67287 0.93771
 H4 H 0.67084 0.67324 0.91421
 C5 C 0.69316 0.66856 0.99739
 H6 H 0.69894 0.66595 1.02065
 C7 C 0.67021 0.68630 0.98980
 H8 H 0.65888 0.69785 1.00737
 N9 N 0.70703 0.65305 0.97570
 C10 C 0.79069 0.62368 1.00922
 H11 H 0.78877 0.60100 1.00017
 C12 C 0.81734 0.63513 1.02220
 H13 H 0.83573 0.62103 1.02350
 C14 C 0.76929 0.66983 1.01772
 H15 H 0.75072 0.68345 1.01539
 C16 C 0.79546 0.68209 1.03127
 H17 H 0.79680 0.70511 1.03932
 Zn18 Zn 0.73302 0.62391 0.98673
 N19 N 0.76735 0.64104 1.00713
 C20 C 0.76567 0.61519 0.93622
 N21 N 0.74428 0.60271 0.95192
 C22 C 0.73145 0.57591 0.94296
 C23 C 0.74042 0.56034 0.91733
 C24 C 0.77559 0.60025 0.91078
 C25 C 0.68340 0.59723 1.00947
 C26 C 0.66726 0.58189 1.02953
 C27 C 0.71242 0.56696 1.05219
 C28 C 0.72765 0.58301 1.03183
 N29 N 0.71302 0.59834 1.01150
 H30 H 0.77539 0.63661 0.94383
 H31 H 0.71425 0.56663 0.95569
 H32 H 0.72978 0.53913 0.91045
 H33 H 0.79347 0.61017 0.89942
 H34 H 0.67209 0.60917 0.99280
 H35 H 0.64395 0.58412 1.02767
 H36 H 0.72550 0.55463 1.06705
 H37 H 0.75124 0.58355 1.03269
 C38 C 0.81995 0.66471 1.03334
 C39 C 0.66149 0.68806 0.95962
 C40 C 0.68142 0.56679 1.05237
 C41 C 0.76308 0.57231 0.90104
 C42 C 0.71631 0.34135 0.48438
 H43 H 0.73567 0.33109 0.47672
 C44 C 0.69436 0.32412 0.49624
 H45 H 0.69706 0.30070 0.49756
 C46 C 0.68905 0.38413 0.49182
 H47 H 0.68738 0.40765 0.49028
 C48 C 0.66651 0.36772 0.50375
 H49 H 0.64760 0.37881 0.51165
 N50 N 0.71366 0.37092 0.48317
 C51 C 0.77824 0.36946 0.42453
 H52 H 0.76511 0.38188 0.40973
 C53 C 0.80012 0.35228 0.41294
 H54 H 0.80381 0.35192 0.38927
 C55 C 0.79022 0.35581 0.47347
 H56 H 0.78622 0.35749 0.49707
 C57 C 0.81233 0.33835 0.46283
 H58 H 0.82515 0.32638 0.47839
 Zn59 Zn 0.74472 0.39484 0.47010
 N60 N 0.77366 0.37082 0.45429
 C61 C 0.78886 0.43204 0.49988
 N62 N 0.76226 0.41845 0.50300
 C63 C 0.75006 0.41845 0.53008
 C64 C 0.76503 0.43175 0.55550
 C65 C 0.80474 0.44540 0.52483
 C66 C 0.70936 0.40416 0.42034
 C67 C 0.69789 0.41894 0.39663
 C68 C 0.72882 0.46170 0.41347
 C69 C 0.73951 0.44613 0.43716
 N70 N 0.72978 0.41782 0.43997
 H71 H 0.79836 0.43124 0.47822
 H72 H 0.72928 0.40702 0.53241
 H73 H 0.75547 0.43029 0.57702
 H74 H 0.82629 0.45530 0.52213
 H75 H 0.70207 0.38160 0.42308
 H76 H 0.68122 0.40771 0.38168
 H77 H 0.73727 0.48399 0.41119
 H78 H 0.75587 0.45650 0.45297
 C79 C 0.81757 0.33651 0.43219
 C80 C 0.66932 0.33741 0.50663
 C81 C 0.70780 0.44803 0.39269
 C82 C 0.79305 0.44479 0.55319
 C83 C 0.22398 -0.16989 -0.00377
 H84 H 0.24445 -0.17816 -0.01085
 C85 C 0.20214 -0.18963 0.00462
 H86 H 0.20605 -0.21297 0.00402
 C87 C 0.19377 -0.12960 0.00565
 H88 H 0.19085 -0.10610 0.00623
 C89 C 0.17125 -0.14857 0.01388
 H90 H 0.15107 -0.13949 0.02112
 N91 N 0.21967 -0.14042 -0.00248
 C92 C 0.28639 -0.12666 -0.05871
 H93 H 0.27329 -0.11193 -0.07090
 C94 C 0.30976 -0.13960 -0.07243
 H95 H 0.31431 -0.13456 -0.09504
 C96 C 0.29747 -0.14972 -0.01405
 H97 H 0.29268 -0.15317 0.00887
 C98 C 0.32112 -0.16323 -0.02697
 H99 H 0.33417 -0.17753 -0.01402
 Zn100 Zn 0.24948 -0.11285 -0.01179
 N101 N 0.28047 -0.13211 -0.03014
 C102 C 0.29096 -0.07629 0.02191
 N103 N 0.26518 -0.09194 0.02346
 C104 C 0.25252 -0.09490 0.05001
 C105 C 0.26620 -0.08233 0.07650
 C106 C 0.30555 -0.06366 0.04790
 C107 C 0.21677 -0.09964 -0.06218
 C108 C 0.20564 -0.08243 -0.08415
 C109 C 0.22798 -0.03927 -0.05661
 C110 C 0.23861 -0.05746 -0.03512
 N111 N 0.23322 -0.08708 -0.03854
 H112 H 0.30071 -0.07459 0.00055
 H113 H 0.23231 -0.10782 0.05088
 H114 H 0.25637 -0.08581 0.09755
 H115 H 0.32647 -0.05199 0.04641
 H116 H 0.21250 -0.12330 -0.06409
 H117 H 0.19166 -0.09382 -0.10158
 H118 H 0.23455 -0.01616 -0.05342
 H119 H 0.25188 -0.04794 -0.01614
 C120 C 0.32742 -0.15828 -0.05662
 C121 C 0.17548 -0.17896 0.01385
 C122 C 0.21134 -0.05143 -0.08226
 C123 C 0.29337 -0.06707 0.07567
 C124 C 0.21035 0.16782 0.45975
 H125 H 0.22840 0.16086 0.44680
 C126 C 0.18916 0.18476 0.44682
 H127 H 0.19114 0.19034 0.42391
 C128 C 0.18492 0.16744 0.50452
 H129 H 0.18320 0.16037 0.52691
 C130 C 0.16328 0.18449 0.49250
 H131 H 0.14521 0.19065 0.50599
 N132 N 0.20748 0.15882 0.48781
 C133 C 0.28984 0.12965 0.52483
 H134 H 0.28527 0.10609 0.52171
 C135 C 0.31705 0.14057 0.53661
 H136 H 0.33352 0.12524 0.54229
 C137 C 0.27382 0.17817 0.52065
 H138 H 0.25675 0.19259 0.51442
 C139 C 0.30096 0.19010 0.53219
 H140 H 0.30465 0.21382 0.53500
 Zn141 Zn 0.23283 0.13053 0.50230
 N142 N 0.26879 0.14842 0.51749
 C143 C 0.22889 0.07616 0.46520
 N144 N 0.24156 0.10377 0.47013
 C145 C 0.26240 0.11376 0.45219
 C146 C 0.27114 0.09602 0.42808
 C147 C 0.23693 0.05760 0.44109
 C148 C 0.22785 0.11287 0.56112
 C149 C 0.21390 0.10116 0.58494
 C150 C 0.17274 0.08575 0.55131
 C151 C 0.18758 0.09765 0.52802
 N152 N 0.21459 0.11106 0.53329
 H153 H 0.21266 0.06841 0.47990
 H154 H 0.27262 0.13555 0.45691
 H155 H 0.28836 0.10431 0.41471
 H156 H 0.22652 0.03578 0.43733
 H157 H 0.24889 0.12430 0.56527
 H158 H 0.22449 0.10377 0.60705
 H159 H 0.15108 0.07554 0.54680
 H160 H 0.17713 0.09709 0.50590
 C161 C 0.32284 0.17114 0.54058
 C162 C 0.16479 0.19266 0.46295
 C163 C 0.18582 0.08773 0.58030
 C164 C 0.25836 0.06753 0.42215
 C165 C 0.17557 0.47608 0.22821
 H166 H 0.17654 0.46699 0.24988
 C167 C 0.19309 0.46511 0.20560
 H168 H 0.20788 0.44791 0.21029
 C169 C 0.15494 0.50944 0.19582
 H170 H 0.14000 0.52664 0.19191
 C171 C 0.17173 0.49899 0.17262
 H172 H 0.16885 0.50800 0.15104
 N173 N 0.15676 0.49766 0.22284
 C174 C 0.13239 0.54490 0.30521
 H175 H 0.10893 0.54317 0.30111
 C176 C 0.14416 0.55877 0.33185
 H177 H 0.12958 0.56779 0.34808
 C178 C 0.17960 0.53341 0.28969
 H179 H 0.19320 0.52303 0.27335
 C180 C 0.19234 0.54680 0.31642
 H181 H 0.21582 0.54699 0.32039
 Zn182 Zn 0.13040 0.51017 0.25199
 N183 N 0.15005 0.53232 0.28486
 C184 C 0.11707 0.47240 0.29694
 N185 N 0.11216 0.47605 0.26731
 C186 C 0.09611 0.45532 0.24952
 C187 C 0.08276 0.43089 0.26186
 C188 C 0.10421 0.44858 0.31008
 C189 C 0.10595 0.56449 0.24014
 C190 C 0.08938 0.58380 0.22432
 C191 C 0.06635 0.54194 0.19525
 C192 C 0.08308 0.52333 0.21198
 N193 N 0.10279 0.53478 0.23373
 H194 H 0.13116 0.48780 0.31071
 H195 H 0.09368 0.45755 0.22578
 H196 H 0.06934 0.41505 0.24764
 H197 H 0.10825 0.44645 0.33378
 H198 H 0.12255 0.57355 0.25635
 H199 H 0.09324 0.60735 0.22896
 H200 H 0.05160 0.53252 0.17730
 H201 H 0.08138 0.49989 0.20640
 C202 C 0.17443 0.55944 0.33796
 C203 C 0.19103 0.47634 0.17715
 C204 C 0.06980 0.57264 0.20106
 C205 C 0.08628 0.42778 0.29270
 C206 C -0.13456 -0.01303 0.20605
 H207 H -0.13562 -0.03641 0.20925
 C208 C -0.15372 -0.00161 0.18508
 H209 H -0.16947 -0.01668 0.17274
 C210 C -0.11391 0.03464 0.21996
 H211 H -0.09883 0.04894 0.23391
 C212 C -0.13298 0.04709 0.19987
 H213 H -0.13067 0.07065 0.19804
 N214 N -0.11430 0.00497 0.22208
 C215 C -0.10839 -0.05256 0.28871
 H216 H -0.09631 -0.06844 0.27591
 C217 C -0.12365 -0.06149 0.31303
 H218 H -0.12261 -0.08410 0.31901
 C219 C -0.12428 -0.00388 0.29666
 H220 H -0.12438 0.01856 0.29003
 C221 C -0.13984 -0.01185 0.32115
 H222 H -0.15214 0.00454 0.33313
 Zn223 Zn -0.08706 -0.01086 0.24934
 N224 N -0.10854 -0.02403 0.28135
 C225 C -0.05544 0.02638 0.29382
 N226 N -0.05898 0.01918 0.26395
 C227 C -0.04435 0.03470 0.24393
 C228 C -0.02802 0.06054 0.25347
 C229 C -0.03878 0.05163 0.30438
 C230 C -0.07352 -0.05301 0.20242
 C231 C -0.06068 -0.07824 0.19068
 C232 C -0.03270 -0.08022 0.23729
 C233 C -0.04644 -0.05516 0.24833
 N234 N -0.06702 -0.04257 0.23116
 H235 H -0.06652 0.01330 0.30947
 H236 H -0.04716 0.02822 0.22033
 H237 H -0.01820 0.07389 0.23716
 H238 H -0.03761 0.05804 0.32808
 H239 H -0.08890 -0.04211 0.18858
 H240 H -0.06653 -0.08664 0.16797
 H241 H -0.01696 -0.09049 0.25147
 H242 H -0.04133 -0.04619 0.27097
 C243 C -0.13945 -0.04095 0.32978
 C244 C -0.15307 0.02900 0.18138
 C245 C -0.04037 -0.09240 0.20836
 C246 C -0.02589 0.06966 0.28398
 C247 C 0.35567 0.53049 0.75142
 H248 H 0.35890 0.54016 0.77405
 C249 C 0.33827 0.54421 0.73067
 H250 H 0.32760 0.56409 0.73776
 C251 C 0.36665 0.49338 0.71456
 H252 H 0.37846 0.47406 0.70819
 C253 C 0.34959 0.50648 0.69304
 H254 H 0.34859 0.49704 0.67022
 N255 N 0.36970 0.50576 0.74299
 C256 C 0.39649 0.46208 0.82247
 H257 H 0.41936 0.45982 0.81821
 C258 C 0.38436 0.44839 0.84621
 H259 H 0.39805 0.43576 0.86038
 C260 C 0.35060 0.48045 0.80850
 H261 H 0.33737 0.49231 0.79329
 C262 C 0.33764 0.46744 0.83232
 H263 H 0.31448 0.46943 0.83532
 Zn264 Zn 0.39754 0.49183 0.77034
 N265 N 0.37954 0.47748 0.80401
 C266 C 0.43053 0.53212 0.81132
 N267 N 0.42396 0.52410 0.78200
 C268 C 0.43375 0.54071 0.76006
 C269 C 0.45021 0.56695 0.76727
 C270 C 0.44717 0.55808 0.81952
 C271 C 0.40329 0.43320 0.74946
 C272 C 0.41693 0.40881 0.73684
 C273 C 0.45874 0.44080 0.72834
 C274 C 0.44451 0.46446 0.74166
 N275 N 0.41721 0.46031 0.75174
 H276 H 0.42210 0.51896 0.82845
 H277 H 0.42784 0.53407 0.73693
 H278 H 0.45721 0.58027 0.74955
 H279 H 0.45130 0.56469 0.84300
 H280 H 0.38164 0.43047 0.75784
 H281 H 0.40564 0.38737 0.73605
 H282 H 0.48010 0.44490 0.71972
 H283 H 0.45525 0.48615 0.74373
 C284 C 0.35452 0.45076 0.85116
 C285 C 0.33559 0.53261 0.70082
 C286 C 0.44505 0.41237 0.72590
 C287 C 0.45670 0.57616 0.79736
 C288 C 0.67556 0.97230 0.71047
 H289 H 0.67690 0.96585 0.73321
 C290 C 0.69257 0.95842 0.68908
 H291 H 0.70783 0.94248 0.69616
 C292 C 0.65310 0.99987 0.67368
 H293 H 0.63699 1.01529 0.66748
 C294 C 0.66913 0.98603 0.65148
 H295 H 0.66483 0.99116 0.62857
 N296 N 0.65636 0.99276 0.70254
 C297 C 0.63176 1.04001 0.78538
 H298 H 0.60961 1.04393 0.77807
 C299 C 0.64235 1.05170 0.81341
 H300 H 0.62705 1.06282 0.82737
 C301 C 0.67738 1.02029 0.77534
 H302 H 0.69132 1.00882 0.76021
 C303 C 0.68900 1.03159 0.80338
 H304 H 0.71189 1.02864 0.80859
 Zn305 Zn 0.62982 1.00847 0.73045
 N306 N 0.64890 1.02394 0.76721
 C307 C 0.60501 0.95016 0.72539
 N308 N 0.60221 0.97769 0.73855
 C309 C 0.58131 0.98284 0.75862
 C310 C 0.56332 0.95967 0.76728
 C311 C 0.58763 0.92631 0.73356
 C312 C 0.62929 1.06384 0.70885
 C313 C 0.61801 1.08977 0.69933
 C314 C 0.56932 1.06768 0.70118
 C315 C 0.58162 1.04187 0.71031
 N316 N 0.61114 1.04062 0.71430
 H317 H 0.62118 0.94636 0.70899
 H318 H 0.57885 1.00478 0.76851
 H319 H 0.54764 0.96409 0.78417
 H320 H 0.59069 0.90447 0.72338
 H321 H 0.65266 1.06225 0.71227
 H322 H 0.63308 1.10772 0.69479
 H323 H 0.54577 1.06859 0.69906
 H324 H 0.56757 1.02318 0.71489
 C325 C 0.67142 1.04746 0.82336
 C326 C 0.68915 0.96477 0.65890
 C327 C 0.58760 1.09227 0.69593
 C328 C 0.56687 0.93084 0.75523
 C329 C 0.01867 0.24288 -0.12916
 H330 H 0.02530 0.26574 -0.13122
 C331 C 0.03273 0.22063 -0.14489
 H332 H 0.04999 0.22660 -0.15937
 C333 C -0.01205 0.20755 -0.10774
 H334 H -0.02906 0.20255 -0.09271
 C335 C 0.00153 0.18453 -0.12300
 H336 H -0.00520 0.16195 -0.11952
 N337 N -0.00342 0.23605 -0.11125
 C338 C -0.04555 0.31969 -0.10663
 H339 H -0.04472 0.32483 -0.08272
 C340 C -0.05585 0.34016 -0.12587
 H341 H -0.06318 0.36106 -0.11671
 C342 C -0.03699 0.28616 -0.14770
 H343 H -0.02984 0.26499 -0.15610
 C344 C -0.04760 0.30579 -0.16774
 H345 H -0.04813 0.29980 -0.19151
 Zn346 Zn -0.01990 0.26811 -0.09032
 N347 N -0.03561 0.29367 -0.11780
 C348 C 0.02260 0.31380 -0.07579
 N349 N 0.01134 0.28790 -0.06674
 C350 C 0.02504 0.27398 -0.04453
 C351 C 0.05122 0.28607 -0.03066
 C352 C 0.04868 0.32650 -0.06275
 C353 C -0.07352 0.24017 -0.08431
 C354 C -0.09734 0.22789 -0.07053
 C355 C -0.07558 0.24694 -0.02289
 C356 C -0.05193 0.25859 -0.03775
 N357 N -0.05111 0.25449 -0.06789
 H358 H 0.01239 0.32387 -0.09443
 H359 H 0.01622 0.25291 -0.03836
 H360 H 0.06190 0.27452 -0.01323
 H361 H 0.05775 0.34634 -0.07152
 H362 H -0.07238 0.23743 -0.10835
 H363 H -0.11303 0.21502 -0.08515
 H364 H -0.07531 0.25193 0.00095
 H365 H -0.03431 0.27098 -0.02516
 C366 C -0.05666 0.33336 -0.15684
 C367 C 0.02432 0.19098 -0.14179
 C368 C -0.09900 0.23051 -0.03898
 C369 C 0.06368 0.31249 -0.04011
 C370 C 0.45609 0.18187 0.15892
 H371 H 0.43902 0.19230 0.14672
 C372 C 0.44871 0.15878 0.17650
 H373 H 0.42594 0.15169 0.17755
 C374 C 0.50647 0.17722 0.17094
 H375 H 0.52897 0.18425 0.16812
 C376 C 0.50006 0.15373 0.18854
 H377 H 0.51771 0.14298 0.19962
 N378 N 0.48458 0.19047 0.15626
 C379 C 0.51296 0.27721 0.12995
 H380 H 0.50922 0.27329 0.10603
 C381 C 0.52174 0.30532 0.14213
 H382 H 0.52463 0.32300 0.12737
 C383 C 0.51230 0.25895 0.17817
 H384 H 0.50819 0.24081 0.19204
 C385 C 0.52099 0.28689 0.19136
 H386 H 0.52398 0.29000 0.21544
 Zn387 Zn 0.49416 0.21849 0.12849
 N388 N 0.50854 0.25471 0.14795
 C389 C 0.44237 0.24636 0.12026
 N390 N 0.45985 0.22704 0.10615
 C391 C 0.45299 0.21566 0.07782
 C392 C 0.42763 0.22388 0.06257
 C393 C 0.41727 0.25561 0.10571
 C394 C 0.54987 0.21674 0.10371
 C395 C 0.57289 0.20331 0.08964
 C396 C 0.54070 0.16069 0.07603
 C397 C 0.51823 0.17498 0.09035
 N398 N 0.52324 0.20238 0.10413
 H399 H 0.44832 0.25514 0.14279
 H400 H 0.46716 0.20033 0.06696
 H401 H 0.42246 0.21431 0.04016
 H402 H 0.40467 0.27207 0.11717
 H403 H 0.55383 0.23810 0.11547
 H404 H 0.59421 0.21466 0.09083
 H405 H 0.53643 0.13863 0.06573
 H406 H 0.49710 0.16369 0.09158
 C407 C 0.52580 0.31051 0.17322
 C408 C 0.47083 0.14407 0.19122
 C409 C 0.56868 0.17464 0.07609
 C410 C 0.40951 0.24450 0.07635
 C411 C 0.96094 0.72462 0.67038
 H412 H 0.94969 0.74474 0.66746
 C413 C 0.94751 0.70179 0.68494
 H414 H 0.92579 0.70456 0.69290
 C415 C 1.00203 0.69600 0.66150
 H416 H 1.02289 0.69335 0.65169
 C417 C 0.98972 0.67292 0.67639
 H418 H 1.00191 0.65326 0.67857
 N419 N 0.98754 0.72120 0.65867
 C420 C 1.02506 0.80791 0.64376
 H421 H 1.02726 0.80450 0.61990
 C422 C 1.03321 0.83512 0.65834
 H423 H 1.04126 0.85264 0.64526
 C424 C 1.01037 0.78920 0.68907
 H425 H 1.00142 0.77112 0.70080
 C426 C 1.01876 0.81609 0.70476
 H427 H 1.01649 0.81837 0.72868
 Zn428 Zn 1.00235 0.75109 0.63531
 N429 N 1.01346 0.78582 0.65907
 C430 C 0.95915 0.78618 0.61264
 N431 N 0.97172 0.75983 0.60780
 C432 C 0.96041 0.73935 0.58642
 C433 C 0.93562 0.74527 0.56877
 C434 C 0.93450 0.79291 0.59572
 C435 C 1.05974 0.73626 0.63678
 C436 C 1.08665 0.72772 0.62690
 C437 C 1.06669 0.72598 0.57612
 C438 C 1.03985 0.73440 0.58709
 N439 N 1.03686 0.73900 0.61704
 H440 H 0.96751 0.80183 0.63037
 H441 H 0.97020 0.71818 0.58356
 H442 H 0.92663 0.72868 0.55209
 H443 H 0.92510 0.81414 0.59997
 H444 H 1.05687 0.74040 0.66046
 H445 H 1.10407 0.72476 0.64334
 H446 H 1.06878 0.72255 0.55224
 H447 H 1.02157 0.73734 0.57171
 C448 C 1.03026 0.83958 0.68930
 C449 C 0.96175 0.67527 0.68776
 C450 C 1.09058 0.72248 0.59619
 C451 C 0.92216 0.77227 0.57367
 C452 C 0.49712 0.71642 0.33520
 H453 H 0.49394 0.73862 0.32899
 C454 C 0.50314 0.69460 0.31325
 H455 H 0.50462 0.70031 0.29031
 C456 C 0.49943 0.68197 0.37246
 H457 H 0.49850 0.67740 0.39575
 C458 C 0.50544 0.65947 0.35124
 H459 H 0.50945 0.63771 0.35848
 N460 N 0.49654 0.71002 0.36434
 C461 C 0.45838 0.78845 0.38637
 H462 H 0.44404 0.77839 0.40155
 C463 C 0.45031 0.81425 0.37388
 H464 H 0.42988 0.82335 0.38025
 C465 C 0.50330 0.79005 0.36247
 H466 H 0.52396 0.78033 0.35813
 C467 C 0.49632 0.81632 0.34979
 H468 H 0.51167 0.82590 0.33513
 Zn469 Zn 0.49351 0.73988 0.39546
 N470 N 0.48398 0.77621 0.37964
 C471 C 0.53479 0.77165 0.43459
 N472 N 0.53013 0.74640 0.41672
 C473 C 0.55241 0.72855 0.41035
 C474 C 0.58091 0.73665 0.42071
 C475 C 0.56312 0.78083 0.44512
 C476 C 0.43676 0.72158 0.40646
 C477 C 0.41316 0.71280 0.42280
 C478 C 0.44584 0.71281 0.46646
 C479 C 0.46872 0.72265 0.44941
 N480 N 0.46369 0.72702 0.42002
 H481 H 0.51677 0.78569 0.43896
 H482 H 0.54852 0.70873 0.39593
 H483 H 0.59840 0.72248 0.41461
 H484 H 0.56663 0.80200 0.45754
 H485 H 0.43349 0.72488 0.38292
 H486 H 0.39180 0.71025 0.41150
 H487 H 0.45062 0.70872 0.48958
 H488 H 0.49050 0.72650 0.45956
 C489 C 0.46895 0.82844 0.35456
 C490 C 0.50829 0.66590 0.32133
 C491 C 0.41739 0.70799 0.45329
 C492 C 0.58679 0.76372 0.43723
 C493 C 0.38755 -0.03950 0.28256
 C494 C 0.37150 -0.04714 0.25227
 C495 C 0.35681 -0.02466 0.24130
 C496 C 0.35925 0.00381 0.26166
 C497 C 0.40737 -0.01224 0.27740
 C498 C 0.39249 0.01048 0.26654
 C499 C 0.36434 -0.02726 0.30297
 C500 C 0.34893 -0.00500 0.29218
 H501 H 0.37247 -0.06845 0.24013
 H502 H 0.34743 0.02182 0.25178
 H503 H 0.43074 -0.01060 0.28189
 H504 H 0.36223 -0.03457 0.32524
 C505 C 0.08921 1.04956 0.77277
 C506 C 0.10621 1.06083 0.74691
 C507 C 0.12495 1.04144 0.73503
 C508 C 0.12534 1.01231 0.75036
 C509 C 0.07424 1.02012 0.75976
 C510 C 0.09328 1.00065 0.74795
 C511 C 0.11247 1.04016 0.79527
 C512 C 0.13133 1.02058 0.78387
 H513 H 0.10247 1.08190 0.73784
 H514 H 0.14109 0.99684 0.74089
 H515 H 0.05099 1.01512 0.75898
 H516 H 0.11151 1.04577 0.81902
 C517 C 0.57668 0.52711 0.23644
 C518 C 0.59269 0.53605 0.20885
 C519 C 0.61288 0.51691 0.19967
 C520 C 0.61488 0.48993 0.21817
 C521 C 0.56335 0.49607 0.22685
 C522 C 0.58339 0.47662 0.21720
 C523 C 0.60083 0.52182 0.25987
 C524 C 0.62067 0.50212 0.25072
 H525 H 0.58765 0.55510 0.19668
 H526 H 0.63133 0.47450 0.21000
 H527 H 0.54013 0.49046 0.22598
 H528 H 0.59993 0.53038 0.28289
 C529 C 0.89376 0.47289 0.75771
 C530 C 0.87644 0.46430 0.72812
 C531 C 0.86090 0.48654 0.71742
 C532 C 0.86405 0.51551 0.73722
 C533 C 0.91276 0.49990 0.75054
 C534 C 0.89724 0.52219 0.73999
 C535 C 0.87126 0.48503 0.77884
 C536 C 0.85554 0.50718 0.76842
 H537 H 0.87805 0.44340 0.71547
 H538 H 0.85163 0.53357 0.72807
 H539 H 0.93642 0.50038 0.75123
 H540 H 0.86936 0.47755 0.80110
 C541 C 0.27455 0.38324 -0.01122
 C542 C 0.24452 0.36902 -0.02093
 C543 C 0.23240 0.35240 -0.00029
 C544 C 0.25138 0.35121 0.02852
 C545 C 0.26986 0.40042 0.01871
 C546 C 0.25708 0.38405 0.03960
 C547 C 0.29314 0.35791 -0.00199
 C548 C 0.28122 0.34079 0.01844
 H549 H 0.23311 0.37314 -0.04178
 H550 H 0.24093 0.33694 0.04439
 H551 H 0.27707 0.42328 0.02304
 H552 H 0.31554 0.35606 -0.00830
 C553 C 0.76180 0.08390 1.03844
 C554 C 0.73351 0.09808 1.04736
 C555 C 0.72223 0.11597 1.02712
 C556 C 0.74053 0.11825 0.99941
 C557 C 0.75390 0.06805 1.00750
 C558 C 0.74279 0.08604 0.98699
 C559 C 0.78254 0.10966 1.03167
 C560 C 0.77175 0.12772 1.01133
 H561 H 0.72310 0.09384 1.06794
 H562 H 0.73141 0.13314 0.98320
 H563 H 0.75553 0.04470 1.00234
 H564 H 0.80505 0.11145 1.04025
 C565 C 0.26017 0.59734 0.55581
 C566 C 0.23560 0.61768 0.56403
 C567 C 0.22714 0.63498 0.54204
 C568 C 0.24430 0.63085 0.51359
 C569 C 0.24883 0.58017 0.52636
 C570 C 0.24061 0.59775 0.50420
 C571 C 0.28481 0.61791 0.54595
 C572 C 0.27671 0.63526 0.52381
 H573 H 0.22434 0.61677 0.58470
 H574 H 0.23789 0.64585 0.49618
 H575 H 0.24838 0.55650 0.52262
 H576 H 0.30749 0.61599 0.55313
 C577 C 0.77724 0.88344 0.46109
 C578 C 0.74871 0.86474 0.45514
 C579 C 0.73854 0.85214 0.47952
 C580 C 0.75772 0.85980 0.50815
 C581 C 0.77002 0.90604 0.48647
 C582 C 0.75948 0.89394 0.51126
 C583 C 0.79845 0.86317 0.47562
 C584 C 0.78859 0.85073 0.50016
 H585 H 0.73655 0.86331 0.43382
 H586 H 0.74940 0.84865 0.52743
 H587 H 0.77180 0.92947 0.48425
 H588 H 0.82032 0.86045 0.46797
 C589 C -0.03214 0.26779 0.38384
 C590 C -0.03682 0.24322 0.35871
 C591 C -0.01186 0.23567 0.34532
 C592 C 0.01568 0.25344 0.35806
 C593 C -0.00886 0.25589 0.40499
 C594 C 0.01621 0.24863 0.39165
 C595 C -0.01657 0.29312 0.36939
 C596 C 0.00843 0.28598 0.35599
 H597 H -0.05697 0.22997 0.35474
 H598 H 0.03591 0.24711 0.34702
 H599 H -0.01223 0.25281 0.42832
 H600 H -0.02536 0.31485 0.36916
 C601 C 1.03386 0.74400 0.07838
 C602 C 1.04124 0.71834 0.09757
 C603 C 1.01968 0.71047 0.11578
 C604 C 0.99227 0.72863 0.11298
 C605 C 1.00519 0.73311 0.06143
 C606 C 0.98337 0.72476 0.07931
 C607 C 1.02519 0.76864 0.10058
 C608 C 1.00353 0.76100 0.11860
 H609 H 1.06087 0.70610 0.09584
 H610 H 0.97496 0.72195 0.12801
 H611 H 1.00293 0.73118 0.03728
 H612 H 1.03451 0.79097 0.10074
 C613 C 0.53163 0.26492 0.58413
 C614 C 0.54058 0.23797 0.60063
 C615 C 0.51991 0.22749 0.61843
 C616 C 0.49170 0.24455 0.61805
 C617 C 0.50281 0.25437 0.56714
 C618 C 0.48173 0.24402 0.58482
 C619 C 0.52267 0.28724 0.60866
 C620 C 0.50168 0.27688 0.62624
 H621 H 0.56036 0.22639 0.59692
 H622 H 0.47511 0.23610 0.63300
 H623 H 0.49971 0.25446 0.54311
 H624 H 0.53048 0.31015 0.61019
 C625 C 0.47731 0.78169 0.88270
 C626 C 0.46911 0.75354 0.86295
 C627 C 0.49049 0.74437 0.84513
 C628 C 0.51865 0.76395 0.84856
 C629 C 0.50544 0.77419 0.90005
 C630 C 0.52711 0.76484 0.88226
 C631 C 0.48746 0.80425 0.86117
 C632 C 0.50889 0.79531 0.84298
 H633 H 0.44885 0.74068 0.86457
 H634 H 0.53565 0.75559 0.83379
 H635 H 0.50780 0.77486 0.92410
 H636 H 0.47930 0.82625 0.86193
 C637 C 0.48019 -0.12431 0.33206
 C638 C 0.45994 -0.14632 0.34025
 C639 C 0.42999 -0.14271 0.33365
 C640 C 0.42043 -0.11777 0.32022
 C641 C 0.44076 -0.09538 0.31323
 C642 C 0.47066 -0.09903 0.31901
 C643 C 0.43077 -0.06981 0.30070
 C644 C 0.40058 -0.06671 0.29491
 C645 C 0.38093 -0.08999 0.30101
 C646 C 0.39066 -0.11504 0.31368
 H647 H 0.41383 -0.15983 0.33790
 H648 H 0.48670 -0.08220 0.31370
 H649 H 0.44654 -0.05274 0.29568
 H650 H 0.37479 -0.13222 0.31856
 H651 H 0.50338 -0.12573 0.33695
 H652 H 0.35767 -0.08849 0.29635
 C653 C 0.91203 0.34685 0.79955
 C654 C 0.93323 0.35510 0.82244
 C655 C 0.94435 0.38443 0.82595
 C656 C 0.93386 0.40555 0.80732
 C657 C 0.91184 0.39731 0.78498
 C658 C 0.90130 0.36783 0.78105
 C659 C 0.89998 0.41884 0.76767
 C660 C 0.91012 0.44861 0.77198
 C661 C 0.93240 0.45627 0.79409
 C662 C 0.94432 0.43497 0.81135
 H663 H 0.96097 0.39082 0.84337
 H664 H 0.88445 0.36109 0.76399
 H665 H 0.88186 0.41243 0.75202
 H666 H 0.96106 0.44169 0.82853
 H667 H 0.90321 0.32432 0.79655
 H668 H 0.93983 0.47906 0.79898
 C669 C 0.07047 1.16970 0.84073
 C670 C 0.03996 1.16703 0.84266
 C671 C 0.02470 1.14141 0.82986
 C672 C 0.03978 1.11881 0.81533
 C673 C 0.07039 1.12193 0.81351
 C674 C 0.08553 1.14741 0.82622
 C675 C 0.08553 1.09944 0.79925
 C676 C 0.07081 1.07336 0.78686
 C677 C 0.04021 1.07051 0.78861
 C678 C 0.02488 1.09309 0.80267
 H679 H 0.00114 1.13921 0.83095
 H680 H 0.10907 1.15002 0.82513
 H681 H 0.10907 1.10201 0.79803
 H682 H 0.00136 1.09033 0.80380
 H683 H 0.08282 1.18890 0.85084
 H684 H 0.02783 1.05109 0.77941
 C685 C 0.54193 0.65233 0.28091
 C686 C 0.51973 0.64374 0.29959
 C687 C 0.51072 0.61372 0.29924
 C688 C 0.52466 0.59245 0.28146
 C689 C 0.54773 0.60135 0.26377
 C690 C 0.55579 0.63135 0.26318
 C691 C 0.56334 0.58011 0.24801
 C692 C 0.55605 0.54976 0.24893
 C693 C 0.53267 0.54121 0.26629
 C694 C 0.51696 0.56233 0.28214
 H695 H 0.49349 0.60687 0.31341
 H696 H 0.57345 0.63853 0.24970
 H697 H 0.58221 0.58740 0.23633
 H698 H 0.49949 0.55504 0.29578
 H699 H 0.54957 0.67520 0.28102
 H700 H 0.52724 0.51815 0.26877
 C701 C 0.52084 0.35256 0.21160
 C702 C 0.53439 0.34063 0.18633
 C703 C 0.55539 0.35808 0.17277
 C704 C 0.56233 0.38720 0.18383
 C705 C 0.54818 0.39921 0.20889
 C706 C 0.52764 0.38161 0.22276
 C707 C 0.55482 0.42858 0.21958
 C708 C 0.57567 0.44592 0.20571
 C709 C 0.58972 0.43366 0.18096
 C710 C 0.58307 0.40459 0.17006
 H711 H 0.56631 0.34898 0.15355
 H712 H 0.51661 0.39041 0.24204
 H713 H 0.54414 0.43777 0.23893
 H714 H 0.59408 0.39574 0.15080
 H715 H 0.50440 0.33966 0.22227
 H716 H 0.60559 0.44671 0.16969
 C717 C 0.02308 0.88054 0.72863
 C718 C 0.03901 0.86872 0.70492
 C719 C 0.06284 0.88550 0.69523
 C720 C 0.06999 0.91391 0.70807
 C721 C 0.05377 0.92566 0.73173
 C722 C 0.03051 0.90868 0.74204
 C723 C 0.06113 0.95417 0.74460
 C724 C 0.08435 0.97108 0.73386
 C725 C 0.09989 0.95923 0.70994
 C726 C 0.09293 0.93086 0.69732
 H727 H 0.07587 0.87654 0.67752
 H728 H 0.01778 0.91733 0.76013
 H729 H 0.04913 0.96292 0.76321
 H730 H 0.10537 0.92226 0.67896
 H731 H 0.00441 0.86835 0.73637
 H732 H 0.11735 0.97198 0.70068
 C733 C 0.92827 0.65396 0.72481
 C734 C 0.94717 0.64971 0.70117
 C735 C 0.95189 0.62072 0.69001
 C736 C 0.93844 0.59647 0.70243
 C737 C 0.91924 0.60101 0.72592
 C738 C 0.91429 0.62986 0.73693
 C739 C 0.90549 0.57662 0.73803
 C740 C 0.91140 0.54789 0.72740
 C741 C 0.93073 0.54358 0.70431
 C742 C 0.94397 0.56768 0.69173
 H743 H 0.96577 0.61690 0.67136
 H744 H 0.89981 0.63377 0.75507
 H745 H 0.89072 0.57990 0.75602
 H746 H 0.95866 0.56381 0.67376
 H747 H 0.92448 0.67592 0.73421
 H748 H 0.93525 0.52149 0.69576
 C749 C 0.47848 0.09178 0.20337
 C750 C 0.46318 0.11776 0.20764
 C751 C 0.43893 0.11773 0.22573
 C752 C 0.42911 0.09178 0.23807
 C753 C 0.44388 0.06543 0.23263
 C754 C 0.46892 0.06583 0.21576
 C755 C 0.43269 0.03899 0.24321
 C756 C 0.40671 0.03862 0.25876
 C757 C 0.39305 0.06519 0.26508
 C758 C 0.40413 0.09155 0.25490
 H759 H 0.42721 0.13775 0.22949
 H760 H 0.48060 0.04589 0.21141
 H761 H 0.44336 0.01856 0.23812
 H762 H 0.39274 0.11161 0.25959
 H763 H 0.49712 0.09121 0.18936
 H764 H 0.37360 0.06560 0.27776
 C765 C 0.34605 0.40438 -0.12328
 C766 C 0.34091 0.43442 -0.12522
 C767 C 0.32284 0.44848 -0.10470
 C768 C 0.31055 0.43275 -0.08202
 C769 C 0.31588 0.40253 -0.08039
 C770 C 0.33346 0.38851 -0.10123
 C771 C 0.30372 0.38674 -0.05787
 C772 C 0.28737 0.40087 -0.03570
 C773 C 0.28140 0.43078 -0.03816
 C774 C 0.29299 0.44657 -0.06098
 H775 H 0.31885 0.47169 -0.10605
 H776 H 0.33772 0.36532 -0.10030
 H777 H 0.30712 0.36333 -0.05774
 H778 H 0.28826 0.46962 -0.06213
 H779 H 0.35961 0.39308 -0.13911
 H780 H 0.26754 0.44201 -0.02264
 C781 C 0.84572 0.96898 0.38253
 C782 C 0.84498 0.95020 0.35631
 C783 C 0.82993 0.92257 0.35583
 C784 C 0.81628 0.91359 0.38128
 C785 C 0.81740 0.93249 0.40760
 C786 C 0.83207 0.96022 0.40794
 C787 C 0.80433 0.92318 0.43330
 C788 C 0.78964 0.89525 0.43300
 C789 C 0.78934 0.87652 0.40666
 C790 C 0.80214 0.88570 0.38104
 H791 H 0.82887 0.90801 0.33566
 H792 H 0.83326 0.97500 0.42794
 H793 H 0.80659 0.93746 0.45355
 H794 H 0.80144 0.87074 0.36118
 H795 H 0.85746 0.99023 0.38363
 H796 H 0.77953 0.85440 0.40599
 C797 C 0.82041 0.07088 1.16348
 C798 C 0.82862 0.04131 1.15955
 C799 C 0.81907 0.02491 1.13272
 C800 C 0.80346 0.03824 1.10996
 C801 C 0.79637 0.06802 1.11422
 C802 C 0.80443 0.08394 1.14122
 C803 C 0.78199 0.08174 1.09116
 C804 C 0.77494 0.06651 1.06326
 C805 C 0.78169 0.03659 1.05938
 C806 C 0.79567 0.02260 1.08257
 H807 H 0.82536 0.00241 1.12843
 H808 H 0.79876 0.10674 1.14498
 H809 H 0.77704 0.10480 1.09454
 H810 H 0.80095 -0.00030 1.07882
 H811 H 0.82569 0.08407 1.18410
 H812 H 0.77686 0.02379 1.03855
 C813 C 0.32316 0.57978 0.67826
 C814 C 0.32025 0.54881 0.67752
 C815 C 0.30408 0.53349 0.65352
 C816 C 0.29185 0.54879 0.63020
 C817 C 0.29543 0.57981 0.63102
 C818 C 0.31076 0.59513 0.65533
 C819 C 0.28423 0.59499 0.60720
 C820 C 0.27004 0.57970 0.58193
 C821 C 0.26564 0.54882 0.58198
 C822 C 0.27650 0.53357 0.60583
 H823 H 0.30128 0.50966 0.65280
 H824 H 0.31376 0.61894 0.65628
 H825 H 0.28720 0.61882 0.60792
 H826 H 0.27317 0.50980 0.60502
 H827 H 0.33586 0.59219 0.69613
 H828 H 0.25384 0.53602 0.56392
 C829 C 0.17645 0.59849 0.38000
 C830 C 0.18660 0.57192 0.36746
 C831 C 0.20646 0.55618 0.38426
 C832 C 0.21524 0.56634 0.41365
 C833 C 0.20436 0.59277 0.42620
 C834 C 0.18530 0.60886 0.40907
 C835 C 0.21244 0.60256 0.45578
 C836 C 0.23140 0.58644 0.47323
 C837 C 0.24229 0.56027 0.46042
 C838 C 0.23424 0.55030 0.43095
 H839 H 0.21413 0.53547 0.37491
 H840 H 0.17687 0.62925 0.41829
 H841 H 0.20352 0.62257 0.46518
 H842 H 0.24292 0.53005 0.42168
 H843 H 0.16131 0.61107 0.36738
 H844 H 0.25751 0.54771 0.47291
 C845 C 0.66905 0.08239 0.86775
 C846 C 0.68221 0.05855 0.85242
 C847 C 0.70591 0.04576 0.86732
 C848 C 0.71536 0.05580 0.89660
 C849 C 0.70128 0.07908 0.91152
 C850 C 0.67836 0.09235 0.89680
 C851 C 0.71021 0.08870 0.94098
 C852 C 0.73333 0.07551 0.95587
 C853 C 0.74740 0.05244 0.94073
 C854 C 0.73846 0.04263 0.91144
 H855 H 0.71629 0.02699 0.85703
 H856 H 0.66761 0.11060 0.90774
 H857 H 0.69866 0.10605 0.95242
 H858 H 0.74966 0.02478 0.90037
 H859 H 0.65197 0.09430 0.85724
 H860 H 0.76561 0.04216 0.95137
 C861 C 0.71200 0.91871 0.63790
 C862 C 0.70499 0.94830 0.63508
 C863 C 0.71200 0.96157 0.60864
 C864 C 0.72455 0.94536 0.58517
 C865 C 0.73140 0.91576 0.58833
 C866 C 0.72537 0.90276 0.61496
 C867 C 0.74362 0.89946 0.56465
 C868 C 0.74826 0.91194 0.53720
 C869 C 0.74101 0.94155 0.53451
 C870 C 0.72972 0.95810 0.55828
 H871 H 0.70746 0.98446 0.60607
 H872 H 0.73027 0.87998 0.61776
 H873 H 0.74922 0.87706 0.56793
 H874 H 0.72432 0.98073 0.55533
 H875 H 0.70646 0.90742 0.65749
 H876 H 0.74325 0.95216 0.51388
 C877 C 0.21738 0.48227 0.12984
 C878 C 0.20767 0.46392 0.15180
 C879 C 0.21227 0.43347 0.14822
 C880 C 0.22509 0.42147 0.12253
 C881 C 0.23328 0.44001 0.10004
 C882 C 0.22984 0.47043 0.10417
 C883 C 0.24416 0.42783 0.07345
 C884 C 0.24762 0.39719 0.06893
 C885 C 0.24047 0.37919 0.09217
 C886 C 0.22916 0.39114 0.11852
 H887 H 0.20480 0.41890 0.16473
 H888 H 0.23641 0.48507 0.08734
 H889 H 0.24882 0.44243 0.05606
 H890 H 0.22333 0.37657 0.13567
 H891 H 0.21499 0.50587 0.13227
 H892 H 0.24328 0.35574 0.09027
 C893 C -0.16168 0.30270 0.39287
 C894 C -0.15819 0.31925 0.42047
 C895 C -0.13099 0.32024 0.43631
 C896 C -0.10738 0.30562 0.42440
 C897 C -0.11096 0.28952 0.39638
 C898 C -0.13829 0.28794 0.38095
 C899 C -0.08694 0.27610 0.38381
 C900 C -0.05925 0.27833 0.39895
 C901 C -0.05613 0.29466 0.42678
 C902 C -0.07997 0.30780 0.43953
 H903 H -0.12786 0.33331 0.45737
 H904 H -0.14148 0.27563 0.35947
 H905 H -0.08975 0.26513 0.36169
 H906 H -0.07675 0.32039 0.46086
 H907 H -0.18252 0.30126 0.38043
 H908 H -0.03495 0.29808 0.43839
 C909 C 0.34960 0.81752 0.89868
 C910 C 0.35241 0.82797 0.92889
 C911 C 0.37942 0.82619 0.94467
 C912 C 0.40345 0.81476 0.93022
 C913 C 0.40042 0.80499 0.89971
 C914 C 0.37338 0.80622 0.88420
 C915 C 0.42451 0.79441 0.88501
 C916 C 0.45179 0.79263 0.90032
 C917 C 0.45461 0.80266 0.93074
 C918 C 0.43063 0.81349 0.94553
 H919 H 0.38197 0.83446 0.96788
 H920 H 0.37067 0.79858 0.86082
 H921 H 0.42211 0.78767 0.86137
 H922 H 0.43346 0.82120 0.96888
 H923 H 0.32892 0.81813 0.88616
 H924 H 0.47527 0.80293 0.94324
 C925 C 1.16048 0.78056 0.04579
 C926 C 1.15277 0.80095 0.02497
 C927 C 1.12316 0.80334 0.01636
 C928 C 1.10141 0.78640 0.02930
 C929 C 1.10932 0.76682 0.05110
 C930 C 1.13895 0.76368 0.05879
 C931 C 1.08753 0.75167 0.06581
 C932 C 1.05767 0.75545 0.05888
 C933 C 1.05025 0.77457 0.03656
 C934 C 1.07182 0.78966 0.02178
 H935 H 1.11706 0.81883 0.00010
 H936 H 1.14544 0.74873 0.07543
 H937 H 1.09419 0.73838 0.08376
 H938 H 1.06534 0.80469 0.00522
 H939 H 1.18314 0.77850 0.05288
 H940 H 1.02760 0.77889 0.03141
 C941 C 0.65582 0.30031 0.54290
 C942 C 0.64705 0.32007 0.52183
 C943 C 0.61709 0.32399 0.51634
 C944 C 0.59616 0.30867 0.53203
 C945 C 0.60528 0.28920 0.55346
 C946 C 0.63514 0.28505 0.55861
 C947 C 0.58450 0.27464 0.56991
 C948 C 0.55441 0.27862 0.56486
 C949 C 0.54573 0.29839 0.54363
 C950 C 0.56633 0.31302 0.52721
 H951 H 0.61009 0.33903 0.49997
 H952 H 0.64253 0.27026 0.57503
 H953 H 0.59218 0.26109 0.58724
 H954 H 0.55893 0.32814 0.51111
 H955 H 0.67878 0.29723 0.54781
 H956 H 0.52291 0.30299 0.54010
 C957 C 0.36474 0.17015 0.57804
 C958 C 0.35169 0.18285 0.55335
 C959 C 0.36680 0.20591 0.54035
 C960 C 0.39492 0.21567 0.55143
 C961 C 0.40793 0.20250 0.57606
 C962 C 0.39256 0.17992 0.58934
 C963 C 0.43619 0.21188 0.58684
 C964 C 0.45187 0.23415 0.57325
 C965 C 0.43863 0.24725 0.54887
 C966 C 0.41043 0.23811 0.53807
 H967 H 0.35704 0.21564 0.52113
 H968 H 0.40216 0.16965 0.60830
 H969 H 0.44605 0.20138 0.60547
 H970 H 0.40078 0.24855 0.51925
 H971 H 0.35335 0.15258 0.58863
 H972 H 0.44991 0.26491 0.53835
 C973 C 0.84973 0.69476 0.07350
 C974 C 0.84833 0.67750 0.04631
 C975 C 0.87419 0.67258 0.03138
 C976 C 0.90110 0.68495 0.04332
 C977 C 0.90233 0.70205 0.07081
 C978 C 0.87653 0.70676 0.08577
 C979 C 0.92927 0.71441 0.08273
 C980 C 0.95497 0.71078 0.06717
 C981 C 0.95341 0.69348 0.03990
 C982 C 0.92678 0.68063 0.02815
 H983 H 0.87324 0.65958 0.01020
 H984 H 0.87704 0.71986 0.10686
 H985 H 0.92992 0.72717 0.10386
 H986 H 0.92628 0.66742 0.00713
 H987 H 0.83008 0.69866 0.08543
 H988 H 0.97286 0.68943 0.02772
 C989 C 0.60947 0.70058 0.96710
 C990 C 0.63492 0.70360 0.95095
 C991 C 0.63415 0.71974 0.92530
 C992 C 0.60814 0.73185 0.91536
 C993 C 0.58254 0.72809 0.93138
 C994 C 0.58354 0.71274 0.95742
 C995 C 0.55625 0.73923 0.92076
 C996 C 0.55515 0.75416 0.89428
 C997 C 0.58088 0.75809 0.87887
 C998 C 0.60713 0.74711 0.88929
 H999 H 0.65370 0.72250 0.91284
 H1000 H 0.56412 0.70962 0.96998
 H1001 H 0.53655 0.73545 0.93269
 H1002 H 0.62657 0.75033 0.87679
 H1003 H 0.60933 0.68791 0.98667
 H1004 H 0.58091 0.76980 0.85879
 C1005 C 0.14549 0.22902 0.42792
 C1006 C 0.14021 0.20743 0.44832
 C1007 C 0.11115 0.19884 0.45361
 C1008 C 0.08776 0.21129 0.43858
 C1009 C 0.09332 0.23263 0.41779
 C1010 C 0.12227 0.24149 0.41279
 C1011 C 0.06985 0.24464 0.40234
 C1012 C 0.04092 0.23586 0.40776
 C1013 C 0.03566 0.21476 0.42860
 C1014 C 0.05887 0.20250 0.44380
 H1015 H 0.10668 0.18186 0.46884
 H1016 H 0.12696 0.25795 0.39707
 H1017 H 0.07405 0.26110 0.38647
 H1018 H 0.05422 0.18610 0.45959
 H1019 H 0.16763 0.23628 0.42365
 H1020 H 0.01353 0.20738 0.43280
 C1021 C 0.58986 0.14760 0.69738
 C1022 C 0.57547 0.12056 0.68726
 C1023 C 0.55025 0.12091 0.66816
 C1024 C 0.54054 0.14767 0.65821
 C1025 C 0.55628 0.17439 0.66738
 C1026 C 0.58049 0.17417 0.68741
 C1027 C 0.54822 0.20077 0.65553
 C1028 C 0.52452 0.20090 0.63473
 C1029 C 0.50806 0.17466 0.62674
 C1030 C 0.51602 0.14817 0.63838
 H1031 H 0.53888 0.10036 0.66006
 H1032 H 0.59252 0.19451 0.69500
 H1033 H 0.56102 0.22107 0.66156
 H1034 H 0.50360 0.12796 0.63113
 H1035 H 0.60867 0.14826 0.71288
 H1036 H 0.49005 0.17436 0.61029
 C1037 C 1.05806 0.58828 0.14980
 C1038 C 1.05606 0.59313 0.18086
 C1039 C 1.04377 0.61910 0.19241
 C1040 C 1.03492 0.64060 0.17325
 C1041 C 1.03856 0.63609 0.14220
 C1042 C 1.04945 0.60959 0.13064
 C1043 C 1.03233 0.65861 0.12336
 C1044 C 1.02236 0.68557 0.13507
 C1045 C 1.01714 0.68930 0.16559
 C1046 C 1.02354 0.66703 0.18462
 H1047 H 1.04194 0.62291 0.21633
 H1048 H 1.05220 0.60573 0.10688
 H1049 H 1.03595 0.65551 0.09968
 H1050 H 1.02036 0.67078 0.20832
 H1051 H 1.06770 0.56861 0.14042
 H1052 H 1.00939 0.70997 0.17491
 C1053 C 1.00284 0.87721 0.19805
 C1054 C 0.97245 0.88012 0.19655
 C1055 C 0.95423 0.85701 0.18284
 C1056 C 0.96626 0.83170 0.16976
 C1057 C 0.99693 0.82951 0.17021
 C1058 C 1.01501 0.85214 0.18487
 C1059 C 1.00898 0.80528 0.15503
 C1060 C 0.99080 0.78332 0.13916
 C1061 C 0.96039 0.78499 0.14026
 C1062 C 0.94818 0.80896 0.15541
 H1063 H 0.93072 0.85896 0.18203
 H1064 H 1.03857 0.85075 0.18557
 H1065 H 1.03253 0.80403 0.15463
 H1066 H 0.92461 0.81020 0.15500
 H1067 H 1.01720 0.89478 0.20857
 H1068 H 0.94597 0.76871 0.12804
 C1069 C 0.49054 0.38552 0.71425
 C1070 C 0.45990 0.38683 0.71170
 C1071 C 0.44367 0.36393 0.69489
 C1072 C 0.45781 0.34075 0.68017
 C1073 C 0.48865 0.34054 0.68190
 C1074 C 0.50476 0.36274 0.69936
 C1075 C 0.50289 0.31864 0.66541
 C1076 C 0.48671 0.29687 0.64723
 C1077 C 0.45606 0.29634 0.64681
 C1078 C 0.44170 0.31819 0.66306
 H1079 H 0.42011 0.36457 0.69232
 H1080 H 0.52841 0.36269 0.70124
 H1081 H 0.52658 0.31898 0.66600
 H1082 H 0.41803 0.31789 0.66161
 H1083 H 0.50367 0.40220 0.72771
 H1084 H 0.44319 0.27990 0.63274
 C1085 C 0.49234 0.60952 0.82918
 C1086 C 0.47085 0.60566 0.80578
 C1087 C 0.46105 0.63052 0.79198
 C1088 C 0.47127 0.65898 0.80252
 C1089 C 0.49227 0.66270 0.82667
 C1090 C 0.50318 0.63778 0.83935
 C1091 C 0.50064 0.69122 0.83883
 C1092 C 0.48741 0.71579 0.82782
 C1093 C 0.46726 0.71203 0.80334
 C1094 C 0.45955 0.68383 0.79046
 H1095 H 0.44415 0.62783 0.77423
 H1096 H 0.51929 0.64020 0.85784
 H1097 H 0.51575 0.69420 0.85818
 H1098 H 0.44338 0.68138 0.77202
 H1099 H 0.50037 0.59064 0.83994
 H1100 H 0.45666 0.73088 0.79499
 C1101 C 0.00580 0.10366 0.31917
 C1102 C -0.01395 0.09951 0.29430
 C1103 C -0.02547 0.12421 0.28163
 C1104 C -0.01904 0.15265 0.29495
 C1105 C 0.00023 0.15660 0.32052
 C1106 C 0.01321 0.13204 0.33192
 C1107 C 0.00461 0.18470 0.33540
 C1108 C -0.01115 0.20841 0.32584
 C1109 C -0.02959 0.20450 0.30001
 C1110 C -0.03313 0.17692 0.28435
 H1111 H -0.04116 0.12107 0.26278
 H1112 H 0.02796 0.13464 0.35153
 H1113 H 0.01844 0.18761 0.35570
 H1114 H -0.04803 0.17426 0.26485
 H1115 H 0.01482 0.08484 0.32923
 H1116 H -0.04198 0.22262 0.29257
 C1117 C 0.05713 0.41081 0.33431
 C1118 C 0.07068 0.40390 0.30741
 C1119 C 0.06977 0.37441 0.29554
 C1120 C 0.05578 0.35207 0.31073
 C1121 C 0.04243 0.35950 0.33783
 C1122 C 0.04321 0.38886 0.34939
 C1123 C 0.02814 0.33758 0.35288
 C1124 C 0.02628 0.30812 0.34112
 C1125 C 0.04016 0.30063 0.31457
 C1126 C 0.05481 0.32245 0.29946
 H1127 H 0.08033 0.36885 0.27491
 H1128 H 0.03293 0.39489 0.37007
 H1129 H 0.01818 0.34357 0.37375
 H1130 H 0.06498 0.31624 0.27878
 H1131 H 0.05719 0.43339 0.34367
 H1132 H 0.03890 0.27810 0.30499
 C1133 C 0.52068 0.90747 0.77270
 C1134 C 0.55041 0.90555 0.76677
 C1135 C 0.56494 0.88013 0.77391
 C1136 C 0.55041 0.85764 0.78821
 C1137 C 0.52080 0.86026 0.79494
 C1138 C 0.50594 0.88493 0.78647
 C1139 C 0.50687 0.83881 0.81108
 C1140 C 0.52237 0.81520 0.82174
 C1141 C 0.55136 0.81209 0.81346
 C1142 C 0.56524 0.83306 0.79686
 H1143 H 0.58795 0.87853 0.76972
 H1144 H 0.48316 0.88721 0.79131
 H1145 H 0.48412 0.84110 0.81594
 H1146 H 0.58788 0.83052 0.79161
 H1147 H 0.50894 0.92666 0.76705
 H1148 H 0.56389 0.79410 0.82055
 C1149 C 0.63502 0.54921 0.07119
 C1150 C 0.66591 0.55397 0.07416
 C1151 C 0.67973 0.54607 0.10134
 C1152 C 0.66340 0.53628 0.12485
 C1153 C 0.63264 0.53414 0.12176
 C1154 C 0.61878 0.53988 0.09464
 C1155 C 0.61620 0.52689 0.14604
 C1156 C 0.63020 0.52139 0.17337
 C1157 C 0.66079 0.52193 0.17594
 C1158 C 0.67732 0.52956 0.15192
 H1159 H 0.70300 0.54922 0.10580
 H1160 H 0.59520 0.53737 0.09157
 H1161 H 0.59251 0.52603 0.14394
 H1162 H 0.70095 0.53082 0.15472
 H1163 H 0.62266 0.55201 0.05066
 H1164 H 0.67185 0.51763 0.19692
 C1165 C 0.14014 1.08467 0.60872
 C1166 C 0.16961 1.07801 0.60609
 C1167 C 0.18394 1.06386 0.62915
 C1168 C 0.16929 1.05728 0.65488
 C1169 C 0.13991 1.06490 0.65756
 C1170 C 0.12542 1.07818 0.63420
 C1171 C 0.12560 1.05949 0.68370
 C1172 C 0.14017 1.04650 0.70733
 C1173 C 0.16906 1.03819 0.70419
 C1174 C 0.18359 1.04367 0.67821
 H1175 H 0.20657 1.05829 0.62721
 H1176 H 0.10287 1.08408 0.63590
 H1177 H 0.10303 1.06528 0.68561
 H1178 H 0.20607 1.03756 0.67650
 H1179 H 0.12872 1.09589 0.59149
 H1180 H 0.18062 1.02807 0.72212
 C1181 C 0.19857 0.99669 0.90136
 C1182 C 0.20102 0.96580 0.89593
 C1183 C 0.19196 0.95339 0.86694
 C1184 C 0.17953 0.97050 0.84529
 C1185 C 0.17650 1.00089 0.85182
 C1186 C 0.18659 1.01384 0.87965
 C1187 C 0.16252 1.01764 0.83081
 C1188 C 0.15067 1.00417 0.80356
 C1189 C 0.15485 0.97407 0.79680
 C1190 C 0.16937 0.95745 0.81737
 H1191 H 0.19509 0.93050 0.86031
 H1192 H 0.18433 1.03719 0.88507
 H1193 H 0.15997 1.04096 0.83612
 H1194 H 0.17160 0.93411 0.81189
 H1195 H 0.20401 1.00800 0.92290
 H1196 H 0.14567 0.96288 0.77628
 C1197 C 0.69016 0.49403 0.37092
 C1198 C 0.69580 0.46387 0.36727
 C1199 C 0.68852 0.44847 0.33953
 C1200 C 0.67427 0.46240 0.31647
 C1201 C 0.66800 0.49247 0.32068
 C1202 C 0.67661 0.50825 0.34775
 C1203 C 0.65220 0.50592 0.29825
 C1204 C 0.64152 0.48940 0.27209
 C1205 C 0.64868 0.45968 0.26788
 C1206 C 0.66516 0.44642 0.28971
 H1207 H 0.69333 0.42540 0.33606
 H1208 H 0.67195 0.53134 0.35138
 H1209 H 0.64740 0.52898 0.30168
 H1210 H 0.66973 0.42330 0.28616
 H1211 H 0.69529 0.50644 0.39204
 H1212 H 0.64045 0.44610 0.24839
 C1213 C 0.84004 0.44641 0.58379
 C1214 C 0.81094 0.45469 0.58064
 C1215 C 0.79837 0.46996 0.60482
 C1216 C 0.81427 0.47577 0.63217
 C1217 C 0.84311 0.46621 0.63536
 C1218 C 0.85599 0.45211 0.61089
 C1219 C 0.85837 0.47026 0.66315
 C1220 C 0.84526 0.48385 0.68786
 C1221 C 0.81711 0.49440 0.68427
 C1222 C 0.80163 0.49025 0.65666
 H1223 H 0.77603 0.47671 0.60252
 H1224 H 0.87812 0.44478 0.61295
 H1225 H 0.88040 0.46269 0.66563
 H1226 H 0.77962 0.49790 0.65458
 H1227 H 0.85009 0.43432 0.56565
 H1228 H 0.80677 0.50506 0.70308
 C1229 C 0.33952 -0.06441 0.10746
 C1230 C 0.31010 -0.05737 0.10381
 C1231 C 0.29640 -0.04304 0.12779
 C1232 C 0.31172 -0.03661 0.15540
 C1233 C 0.34097 -0.04489 0.15906
 C1234 C 0.35481 -0.05830 0.13486
 C1235 C 0.35572 -0.04027 0.18705
 C1236 C 0.34176 -0.02727 0.21147
 C1237 C 0.31321 -0.01784 0.20745
 C1238 C 0.29818 -0.02267 0.17963
 H1239 H 0.27376 -0.03732 0.12505
 H1240 H 0.37727 -0.06464 0.13729
 H1241 H 0.37799 -0.04707 0.18997
 H1242 H 0.27585 -0.01597 0.17720
 H1243 H 0.35041 -0.07571 0.08940
 H1244 H 0.30222 -0.00769 0.22610
 C1245 C 0.27327 0.01812 0.40127
 C1246 C 0.26884 0.04805 0.39737
 C1247 C 0.27702 0.05993 0.37062
 C1248 C 0.29157 0.04292 0.34927
 C1249 C 0.29716 0.01333 0.35412
 C1250 C 0.28709 0.00084 0.37971
 C1251 C 0.31395 -0.00287 0.33410
 C1252 C 0.32661 0.01048 0.30994
 C1253 C 0.31908 0.03934 0.30432
 C1254 C 0.30172 0.05537 0.32375
 H1255 H 0.27310 0.08277 0.36696
 H1256 H 0.29110 -0.02190 0.38373
 H1257 H 0.31781 -0.02560 0.33813
 H1258 H 0.29721 0.07793 0.31941
 H1259 H 0.26735 0.00839 0.42166
 H1260 H 0.32722 0.05025 0.28560
 C1261 C 0.77700 0.52445 0.87561
 C1262 C 0.77488 0.55520 0.87519
 C1263 C 0.78594 0.56961 0.85093
 C1264 C 0.80050 0.55388 0.82854
 C1265 C 0.80320 0.52320 0.82984
 C1266 C 0.79076 0.50858 0.85302
 C1267 C 0.81944 0.50779 0.80876
 C1268 C 0.83422 0.52275 0.78702
 C1269 C 0.83028 0.55305 0.78503
 C1270 C 0.81341 0.56846 0.80551
 H1271 H 0.78397 0.59318 0.84985
 H1272 H 0.79269 0.48503 0.85433
 H1273 H 0.82139 0.48424 0.81004
 H1274 H 0.81144 0.59198 0.80406
 H1275 H 0.76911 0.51271 0.89407
 H1276 H 0.84122 0.56520 0.76854
 C1277 C 0.14544 0.72329 0.60132
 C1278 C 0.11931 0.71270 0.58580
 C1279 C 0.12083 0.69126 0.56185
 C1280 C 0.14772 0.67938 0.55477
 C1281 C 0.17343 0.68902 0.57184
 C1282 C 0.17215 0.71147 0.59455
 C1283 C 0.19978 0.67532 0.56663
 C1284 C 0.20083 0.65236 0.54433
 C1285 C 0.17560 0.64378 0.52655
 C1286 C 0.14920 0.65715 0.53174
 H1287 H 0.10100 0.68275 0.54967
 H1288 H 0.19171 0.71946 0.60754
 H1289 H 0.21927 0.68183 0.58047
 H1290 H 0.12978 0.64949 0.51836
 H1291 H 0.14519 0.74043 0.61922
 H1292 H 0.17597 0.62570 0.50966
 C1293 C 0.59709 0.12886 1.07095
 C1294 C 0.59401 0.15853 1.06483
 C1295 C 0.61633 0.17315 1.05007
 C1296 C 0.64178 0.15867 1.04260
 C1297 C 0.64488 0.12916 1.04979
 C1298 C 0.62221 0.11431 1.06345
 C1299 C 0.67088 0.11517 1.04392
 C1300 C 0.69408 0.13027 1.03109
 C1301 C 0.69046 0.15923 1.02300
 C1302 C 0.66454 0.17336 1.02877
 H1303 H 0.61412 0.19591 1.04489
 H1304 H 0.62424 0.09165 1.06906
 H1305 H 0.67315 0.09256 1.04962
 H1306 H 0.66254 0.19595 1.02296
 H1307 H 0.58054 0.11717 1.08266
 H1308 H 0.70804 0.17128 1.01312
 C1309 C 0.88057 0.21221 1.00607
 C1310 C 0.87844 0.21693 0.97509
 C1311 C 0.85231 0.20584 0.95911
 C1312 C 0.83095 0.18885 0.97259
 C1313 C 0.83448 0.18358 1.00303
 C1314 C 0.85893 0.19599 1.01970
 C1315 C 0.81403 0.16515 1.01608
 C1316 C 0.79048 0.15095 0.99877
 C1317 C 0.78661 0.15723 0.96866
 C1318 C 0.80647 0.17624 0.95578
 H1319 H 0.84776 0.21041 0.93613
 H1320 H 0.86196 0.19216 1.04318
 H1321 H 0.81701 0.16117 1.03952
 H1322 H 0.80333 0.18008 0.93233
 H1323 H 0.89963 0.21912 1.02012
 H1324 H 0.76905 0.14648 0.95454
 C1325 C 0.39190 0.70495 0.50193
 C1326 C 0.39234 0.69783 0.47092
 C1327 C 0.36849 0.68094 0.45679
 C1328 C 0.34482 0.67155 0.47308
 C1329 C 0.34523 0.67802 0.50429
 C1330 C 0.36878 0.69488 0.51846
 C1331 C 0.32232 0.66706 0.52080
 C1332 C 0.29878 0.65020 0.50634
 C1333 C 0.29795 0.64506 0.47514
 C1334 C 0.32090 0.65542 0.45866
 H1335 H 0.36838 0.67446 0.43315
 H1336 H 0.36930 0.70037 0.54234
 H1337 H 0.32298 0.67116 0.54489
 H1338 H 0.32014 0.65043 0.43470
 H1339 H 0.40931 0.71854 0.51357
 H1340 H 0.28019 0.63185 0.46360
 C1341 C 0.63769 0.77147 0.42048
 C1342 C 0.61745 0.77550 0.44292
 C1343 C 0.62628 0.79234 0.46950
 C1344 C 0.65465 0.80557 0.47318
 C1345 C 0.67440 0.80175 0.45007
 C1346 C 0.66586 0.78432 0.42407
 C1347 C 0.70211 0.81612 0.45289
 C1348 C 0.71045 0.83466 0.47836
 C1349 C 0.69115 0.83760 0.50173
 C1350 C 0.66345 0.82316 0.49916
 H1351 H 0.61102 0.79547 0.48708
 H1352 H 0.68074 0.78125 0.40613
 H1353 H 0.71704 0.81328 0.43495
 H1354 H 0.64868 0.82632 0.51717
 H1355 H 0.63144 0.75919 0.39953
 H1356 H 0.69702 0.85193 0.52150
 C1357 C 0.09921 0.35520 -0.02569
 C1358 C 0.09304 0.32452 -0.02835
 C1359 C 0.11572 0.30556 -0.02200
 C1360 C 0.14431 0.31703 -0.01465
 C1361 C 0.15035 0.34782 -0.01378
 C1362 C 0.12757 0.36671 -0.01867
 C1363 C 0.17918 0.35919 -0.00865
 C1364 C 0.20204 0.34024 -0.00390
 C1365 C 0.19583 0.30985 -0.00335
 C1366 C 0.16717 0.29825 -0.00897
 H1367 H 0.11151 0.28187 -0.02409
 H1368 H 0.13176 0.39040 -0.01760
 H1369 H 0.18397 0.38276 -0.00859
 H1370 H 0.16295 0.27460 -0.00929
 H1371 H 0.08214 0.37041 -0.02960
 H1372 H 0.21329 0.29505 0.00052
 C1373 C 0.38486 0.25973 0.02897
 C1374 C 0.38394 0.25607 0.05980
 C1375 C 0.35953 0.26592 0.07510
 C1376 C 0.33781 0.28126 0.06045
 C1377 C 0.33968 0.28561 0.02977
 C1378 C 0.36277 0.27399 0.01405
 C1379 C 0.31941 0.30292 0.01566
 C1380 C 0.29814 0.31747 0.03209
 C1381 C 0.29556 0.31183 0.06227
 C1382 C 0.31504 0.29362 0.07626
 H1383 H 0.35789 0.26267 0.09865
 H1384 H 0.36453 0.27720 -0.00952
 H1385 H 0.32117 0.30623 -0.00789
 H1386 H 0.31319 0.29044 0.09981
 H1387 H 0.40334 0.25285 0.01648
 H1388 H 0.27954 0.32260 0.07556
 C1389 C 0.89364 0.77383 0.52483
 C1390 C 0.89561 0.77954 0.55599
 C1391 C 0.87311 0.79450 0.57005
 C1392 C 0.85011 0.80548 0.55309
 C1393 C 0.84917 0.80091 0.52165
 C1394 C 0.87056 0.78436 0.50779
 C1395 C 0.82769 0.81414 0.50454
 C1396 C 0.80753 0.83250 0.51839
 C1397 C 0.80773 0.83560 0.54970
 C1398 C 0.82878 0.82211 0.56693
 H1399 H 0.87408 0.79851 0.59415
 H1400 H 0.87006 0.78054 0.48369
 H1401 H 0.82739 0.81108 0.48038
 H1402 H 0.82912 0.82572 0.59105
 H1403 H 0.91068 0.76241 0.51350
 H1404 H 0.79263 0.84971 0.56090
   
