data_POSCAR
  _audit_creation_date              2014-09-24
  _audit_creation_method            'ToBaCCo'
  _symmetry_space_group_name_H-M    'P1'
  _symmetry_Int_Tables_number       1
  _symmetry_cell_setting            triclinic
  loop_
  _symmetry_equiv_pos_as_xyz
 x,y,z
_cell_length_a 51.4015
_cell_length_b 53.5211
_cell_length_c 53.5261
_cell_angle_alpha 89.916300
_cell_angle_beta 90.448000
_cell_angle_gamma 89.778000
loop_
  _atom_site_label
  _atom_site_type_symbol
  _atom_site_fract_x
  _atom_site_fract_y
  _atom_site_fract_z
O1 O 0.34686 0.30747 -0.02410
 O2 O 0.31273 0.34506 0.02227
 O3 O 0.34448 0.30736 0.02425
 O4 O 0.31478 0.34440 -0.02601
 O5 O 0.28099 0.31922 -0.02710
 O6 O 0.31214 0.28040 0.02243
 O7 O 0.27963 0.31898 0.02152
 O8 O 0.31404 0.28104 -0.02609
 Cu9 Cu 0.33297 0.32862 -0.00068
 Cu10 Cu 0.29333 0.29726 -0.00244
 C11 C 0.33652 0.28791 -0.03303
 C12 C 0.29029 0.33881 0.02969
 C13 C 0.33379 0.28737 0.03166
 C14 C 0.29269 0.33858 -0.03502
 O15 O 0.67953 0.64703 0.01976
 O16 O 0.64790 0.68110 -0.03132
 O17 O 0.68210 0.64615 -0.02873
 O18 O 0.64464 0.68164 0.01674
 O19 O 0.67523 0.71038 0.01851
 O20 O 0.71380 0.67370 -0.02707
 O21 O 0.67875 0.70964 -0.03015
 O22 O 0.71095 0.67500 0.02145
 Cu23 Cu 0.66053 0.66113 -0.00601
 Cu24 Cu 0.69784 0.69508 -0.00416
 C25 C 0.70057 0.65502 0.02934
 C26 C 0.65770 0.70122 -0.03945
 C27 C 0.70431 0.65354 -0.03577
 C28 C 0.65317 0.70214 0.02529
 O29 O 0.64389 0.31683 1.02856
 O30 O 0.68319 0.35276 0.98457
 O31 O 0.64825 0.31862 0.98037
 O32 O 0.67715 0.35230 1.03262
 O33 O 0.70932 0.32504 1.03496
 O34 O 0.67858 0.28941 0.98314
 O35 O 0.71436 0.32434 0.98670
 O36 O 0.67515 0.28861 1.03181
 Cu37 Cu 0.66004 0.33792 1.00624
 Cu38 Cu 0.69750 0.30392 1.00943
 C39 C 0.65276 0.29664 1.03782
 C40 C 0.70546 0.34481 0.97810
 C41 C 0.65809 0.29825 0.97288
 C42 C 0.69826 0.34491 1.04264
 O43 O 0.31688 0.65503 0.97016
 O44 O 0.34071 0.69455 1.02143
 O45 O 0.31004 0.65653 1.01842
 O46 O 0.34745 0.69408 0.97466
 O47 O 0.31355 0.71874 0.96769
 O48 O 0.27599 0.68117 1.01334
 O49 O 0.30776 0.72058 1.01518
 O50 O 0.28276 0.67965 0.96501
 Cu51 Cu 0.33192 0.67228 0.99654
 Cu52 Cu 0.29141 0.70239 0.98986
 C53 C 0.29562 0.66028 0.95902
 C54 C 0.32903 0.71490 1.02609
 C55 C 0.28667 0.66216 1.02352
 C56 C 0.33742 0.71334 0.96457
 O57 O -0.02426 0.35071 0.31264
 O58 O 0.02935 0.31858 0.34436
 O59 O 0.02572 0.35117 0.30905
 O60 O -0.02114 0.31823 0.34793
 O61 O -0.02263 0.28713 0.32106
 O62 O 0.02338 0.32156 0.28045
 O63 O 0.02805 0.28827 0.31649
 O64 O -0.02677 0.32055 0.28462
 Cu65 Cu 0.00262 0.33759 0.33131
 Cu66 Cu 0.00026 0.30119 0.29790
 C67 C -0.03450 0.34144 0.29314
 C68 C 0.03805 0.29807 0.33592
 C69 C 0.03228 0.34239 0.28801
 C70 C -0.02992 0.29704 0.34147
 O71 O 0.01379 0.68926 0.65253
 O72 O -0.01966 0.64518 0.69348
 O73 O -0.03419 0.67732 0.65939
 O74 O 0.02792 0.65488 0.68464
 O75 O 0.02450 0.68077 0.71651
 O76 O -0.03389 0.70875 0.68591
 O77 O -0.02513 0.67496 0.72151
 O78 O 0.01601 0.71659 0.68336
 Cu79 Cu -0.00291 0.66390 0.66951
 Cu80 Cu -0.00489 0.69826 0.70479
 C81 C 0.02079 0.71037 0.66097
 C82 C -0.02783 0.65243 0.71459
 C83 C -0.04398 0.69765 0.66716
 C84 C 0.03602 0.66275 0.70563
 O85 O 0.97872 0.67572 0.36107
 O86 O 1.02627 0.64113 0.32381
 O87 O 1.02888 0.67401 0.35894
 O88 O 0.97574 0.64221 0.32669
 O89 O 0.97454 0.67160 0.29773
 O90 O 1.02793 0.70430 0.33102
 O91 O 1.02538 0.67068 0.29503
 O92 O 0.97752 0.70582 0.33285
 Cu93 Cu 1.00254 0.65526 0.34536
 Cu94 Cu 1.00130 0.69107 0.31118
 C95 C 0.97009 0.69671 0.35355
 C96 C 1.03401 0.64987 0.30310
 C97 C 1.03726 0.69482 0.35101
 C98 C 0.96593 0.65132 0.30686
 O99 O 0.97054 0.31804 0.64608
 O100 O 1.02543 0.35390 0.67110
 O101 O 1.01894 0.31805 0.63807
 O102 O 0.97536 0.35217 0.67935
 O103 O 0.98011 0.32298 0.70815
 O104 O 1.02865 0.29126 0.66807
 O105 O 1.03050 0.32681 0.70185
 O106 O 0.97870 0.28785 0.67324
 Cu107 Cu 0.99722 0.33864 0.65594
 Cu108 Cu 1.00510 0.30445 0.69094
 C109 C 0.96598 0.29636 0.65454
 C110 C 1.03701 0.34696 0.69099
 C111 C 1.03081 0.29853 0.64555
 C112 C 0.96967 0.34323 0.70056
 O113 O 0.35316 0.01448 0.32063
 O114 O 0.31456 -0.03175 0.35401
 O115 O 0.35040 -0.03395 0.32066
 O116 O 0.31788 0.01637 0.35422
 O117 O 0.28707 0.01834 0.32529
 O118 O 0.32079 -0.03210 0.29063
 O119 O 0.28404 -0.03005 0.32481
 O120 O 0.32328 0.01678 0.29089
 Cu121 Cu 0.33702 -0.00897 0.34026
 Cu122 Cu 0.30077 -0.00662 0.30481
 C123 C 0.34489 0.02374 0.30022
 C124 C 0.29265 -0.03863 0.34545
 C125 C 0.34141 -0.04163 0.29994
 C126 C 0.29696 0.02589 0.34577
 O127 O 0.66079 0.03159 0.68991
 O128 O 0.68760 -0.02194 0.65613
 O129 O 0.65553 -0.01560 0.69365
 O130 O 0.69219 0.02622 0.65328
 O131 O 0.72506 0.02593 0.68001
 O132 O 0.68918 -0.01941 0.71935
 O133 O 0.72173 -0.02270 0.68135
 O134 O 0.69249 0.02879 0.71791
 Cu135 Cu 0.67083 0.00497 0.67049
 Cu136 Cu 0.71058 0.00291 0.70225
 C137 C 0.67149 0.03882 0.71007
 C138 C 0.70960 -0.03098 0.66232
 C139 C 0.66564 -0.02404 0.71365
 C140 C 0.71466 0.03361 0.65974
 O141 O 0.31866 1.03054 0.64729
 O142 O 0.35172 0.97904 0.67906
 O143 O 0.31558 0.98203 0.64585
 O144 O 0.35410 1.02718 0.68144
 O145 O 0.32424 1.02808 0.71082
 O146 O 0.28548 0.98214 0.67503
 O147 O 0.32241 0.97948 0.70899
 O148 O 0.28795 1.03096 0.67590
 Cu149 Cu 0.33792 1.00470 0.66045
 Cu150 Cu 0.30192 1.00527 0.69564
 C151 C 0.29775 1.03958 0.65593
 C152 C 0.34301 0.97048 0.69944
 C153 C 0.29416 0.97409 0.65437
 C154 C 0.34597 1.03527 0.70226
 O155 O 0.65174 0.97059 0.31066
 O156 O 0.68786 1.01718 0.34691
 O157 O 0.65458 1.01891 0.31048
 O158 O 0.68355 0.96888 0.34800
 O159 O 0.71639 0.96578 0.32186
 O160 O 0.68662 1.01649 0.28336
 O161 O 0.72081 1.01441 0.32099
 O162 O 0.68384 0.96808 0.28360
 Cu163 Cu 0.66627 0.99422 0.33163
 Cu164 Cu 0.70528 0.99102 0.29980
 C165 C 0.66142 0.96149 0.29089
 C166 C 0.71065 1.02361 0.34055
 C167 C 0.66518 1.02605 0.29041
 C168 C 0.70477 0.95868 0.34155
 C169 C 0.87050 0.77250 0.50975
 C170 C 0.86550 0.78357 0.48650
 C171 C 0.84871 0.80431 0.48513
 C172 C 0.83529 0.81293 0.50651
 C173 C 0.84017 0.80061 0.52957
 C174 C 0.85805 0.78082 0.53134
 C175 C 0.81567 0.83391 0.50472
 C176 C 0.80782 0.84714 0.52632
 C177 C 0.78774 0.86497 0.52524
 C178 C 0.77664 0.87105 0.50207
 C179 C 0.78466 0.85913 0.48023
 C180 C 0.80377 0.84038 0.48160
 H181 H 0.88452 0.75737 0.51108
 H182 H 0.84601 0.81321 0.46718
 H183 H 0.82974 0.80561 0.54626
 H184 H 0.81678 0.84349 0.54427
 H185 H 0.76183 0.88550 0.50093
 H186 H 0.80841 0.83056 0.46459
 C187 C 0.12641 0.22081 0.48818
 C188 C 0.14022 0.21256 0.46737
 C189 C 0.15696 0.19205 0.46975
 C190 C 0.15919 0.17891 0.49258
 C191 C 0.14349 0.18652 0.51280
 C192 C 0.12739 0.20777 0.51094
 C193 C 0.17870 0.15822 0.49555
 C194 C 0.18985 0.15285 0.51921
 C195 C 0.21005 0.13538 0.52161
 C196 C 0.21972 0.12356 0.50035
 C197 C 0.20908 0.12849 0.47674
 C198 C 0.18797 0.14500 0.47453
 H199 H 0.11447 0.23740 0.48628
 H200 H 0.16859 0.18707 0.45377
 H201 H 0.14354 0.17586 0.52996
 H202 H 0.18389 0.16289 0.53574
 H203 H 0.23572 0.11040 0.50221
 H204 H 0.17960 0.14804 0.45618
 C205 C 0.10995 0.78839 0.50407
 C206 C 0.11279 0.80302 0.52561
 C207 C 0.13073 0.82278 0.52557
 C208 C 0.14630 0.82752 0.50442
 C209 C 0.14300 0.81227 0.48311
 C210 C 0.12463 0.79308 0.48273
 C211 C 0.16658 0.84755 0.50467
 C212 C 0.17525 0.85830 0.48206
 C213 C 0.19653 0.87454 0.48184
 C214 C 0.20794 0.88176 0.50445
 C215 C 0.19910 0.87229 0.52719
 C216 C 0.17866 0.85502 0.52728
 H217 H 0.09619 0.77311 0.50386
 H218 H 0.13218 0.83448 0.54196
 H219 H 0.15511 0.81458 0.46686
 H220 H 0.16616 0.85363 0.46440
 H221 H 0.22387 0.89498 0.50429
 H222 H 0.17309 0.84685 0.54493
 C223 C 0.88453 0.21333 0.49602
 C224 C 0.87904 0.20104 0.51832
 C225 C 0.86457 0.17894 0.51775
 C226 C 0.85313 0.17014 0.49518
 C227 C 0.85905 0.18321 0.47281
 C228 C 0.87498 0.20450 0.47316
 C229 C 0.83386 0.14877 0.49542
 C230 C 0.82499 0.13725 0.47300
 C231 C 0.80504 0.11933 0.47337
 C232 C 0.79529 0.11133 0.49633
 C233 C 0.80379 0.12192 0.51871
 C234 C 0.82261 0.14072 0.51819
 H235 H 0.89641 0.23002 0.49656
 H236 H 0.86185 0.16950 0.53533
 H237 H 0.85075 0.17786 0.45506
 H238 H 0.83269 0.14242 0.45505
 H239 H 0.78062 0.09682 0.49678
 H240 H 0.82721 0.14947 0.53578
 C241 C 0.50120 0.88769 0.78698
 C242 C 0.47823 0.87489 0.79222
 C243 C 0.47816 0.85657 0.81086
 C244 C 0.50099 0.85105 0.82462
 C245 C 0.52387 0.86465 0.81941
 C246 C 0.52410 0.88286 0.80051
 C247 C 0.50107 0.83074 0.84379
 C248 C 0.52395 0.81686 0.84862
 C249 C 0.52410 0.79741 0.86610
 C250 C 0.50118 0.79142 0.87862
 C251 C 0.47817 0.80492 0.87435
 C252 C 0.47823 0.82465 0.85703
 H253 H 0.50116 0.90156 0.77219
 H254 H 0.46042 0.84622 0.81394
 H255 H 0.54145 0.86152 0.83022
 H256 H 0.54162 0.82059 0.83843
 H257 H 0.50133 0.77616 0.89195
 H258 H 0.46058 0.83544 0.85437
 C259 C 0.50223 0.11300 0.21456
 C260 C 0.47785 0.12247 0.20770
 C261 C 0.47587 0.13961 0.18796
 C262 C 0.49810 0.14688 0.17430
 C263 C 0.52238 0.13586 0.18095
 C264 C 0.52460 0.11986 0.20165
 C265 C 0.49627 0.16708 0.15465
 C266 C 0.51867 0.18067 0.14766
 C267 C 0.51708 0.20048 0.13057
 C268 C 0.49281 0.20755 0.12098
 C269 C 0.47018 0.19510 0.12798
 C270 C 0.47201 0.17428 0.14389
 H271 H 0.50385 0.10007 0.23012
 H272 H 0.45699 0.14777 0.18429
 H273 H 0.53991 0.14003 0.17081
 H274 H 0.53745 0.17684 0.15599
 H275 H 0.49141 0.22295 0.10785
 H276 H 0.45429 0.16445 0.14814
 C277 C 0.50888 0.11788 0.79027
 C278 C 0.53167 0.12531 0.80240
 C279 C 0.53021 0.14079 0.82341
 C280 C 0.50607 0.15102 0.83115
 C281 C 0.48332 0.14338 0.81814
 C282 C 0.48461 0.12656 0.79811
 C283 C 0.50485 0.17095 0.85107
 C284 C 0.48085 0.17834 0.86183
 C285 C 0.47934 0.19931 0.87749
 C286 C 0.50214 0.21179 0.88428
 C287 C 0.52621 0.20422 0.87505
 C288 C 0.52750 0.18424 0.85828
 H289 H 0.51019 0.10529 0.77448
 H290 H 0.54825 0.14524 0.83278
 H291 H 0.46447 0.15105 0.82248
 H292 H 0.46298 0.16863 0.85771
 H293 H 0.50115 0.22757 0.89693
 H294 H 0.54627 0.18021 0.85036
 C295 C 0.49854 0.87156 0.21450
 C296 C 0.52149 0.86658 0.20152
 C297 C 0.52019 0.85313 0.17900
 C298 C 0.49629 0.84311 0.17027
 C299 C 0.47361 0.84802 0.18433
 C300 C 0.47461 0.86261 0.20598
 C301 C 0.49496 0.82707 0.14719
 C302 C 0.47100 0.82301 0.13464
 C303 C 0.46925 0.80654 0.11441
 C304 C 0.49168 0.79490 0.10554
 C305 C 0.51576 0.79872 0.11729
 C306 C 0.51731 0.81459 0.13812
 H307 H 0.49921 0.88300 0.23119
 H308 H 0.53797 0.85040 0.16873
 H309 H 0.45501 0.84020 0.17918
 H310 H 0.45337 0.83237 0.14029
 H311 H 0.49021 0.78217 0.08986
 H312 H 0.53584 0.81606 0.14765
 C313 C 0.79211 0.49820 0.88749
 C314 C 0.80349 0.47503 0.88241
 C315 C 0.82535 0.47393 0.86696
 C316 C 0.83473 0.49568 0.85501
 C317 C 0.82228 0.51877 0.85998
 C318 C 0.80120 0.52009 0.87637
 C319 C 0.85634 0.49415 0.83641
 C320 C 0.87184 0.51526 0.83112
 C321 C 0.89062 0.51452 0.81224
 C322 C 0.89457 0.49221 0.79916
 C323 C 0.88014 0.47086 0.80456
 C324 C 0.86094 0.47187 0.82293
 H325 H 0.77590 0.49916 0.90030
 H326 H 0.83446 0.45596 0.86394
 H327 H 0.82810 0.53570 0.85054
 H328 H 0.86959 0.53235 0.84164
 H329 H 0.90881 0.49144 0.78434
 H330 H 0.84914 0.45545 0.82576
 C331 C 0.20658 0.50191 0.10670
 C332 C 0.19889 0.47939 0.11751
 C333 C 0.17997 0.47968 0.13621
 C334 C 0.16786 0.50226 0.14377
 C335 C 0.17570 0.52472 0.13192
 C336 C 0.19575 0.52469 0.11423
 C337 C 0.14871 0.50242 0.16503
 C338 C 0.14361 0.52454 0.17877
 C339 C 0.12760 0.52409 0.19988
 C340 C 0.11712 0.50145 0.20786
 C341 C 0.12192 0.47929 0.19494
 C342 C 0.13663 0.48001 0.17300
 H343 H 0.22138 0.50176 0.09237
 H344 H 0.17587 0.46216 0.14534
 H345 H 0.16707 0.54246 0.13675
 H346 H 0.15267 0.54207 0.17409
 H347 H 0.10507 0.50107 0.22440
 H348 H 0.13907 0.46273 0.16290
 C349 C 0.77333 0.50204 0.12991
 C350 C 0.78508 0.52471 0.13610
 C351 C 0.80642 0.52490 0.15256
 C352 C 0.81478 0.50268 0.16462
 C353 C 0.80183 0.48015 0.15856
 C354 C 0.78166 0.47965 0.14084
 C355 C 0.83573 0.50303 0.18438
 C356 C 0.84868 0.48073 0.19158
 C357 C 0.86549 0.48019 0.21229
 C358 C 0.87136 0.50247 0.22463
 C359 C 0.86003 0.52504 0.21711
 C360 C 0.84198 0.52527 0.19737
 H361 H 0.75764 0.50191 0.11625
 H362 H 0.81579 0.54257 0.15617
 H363 H 0.80652 0.46284 0.16797
 H364 H 0.84537 0.46341 0.18177
 H365 H 0.88508 0.50229 0.24013
 H366 H 0.83238 0.54276 0.19310
 C367 C 0.22613 0.49766 0.86844
 C368 C 0.21938 0.52040 0.85729
 C369 C 0.20119 0.52058 0.83763
 C370 C 0.18853 0.49843 0.82977
 C371 C 0.19574 0.47568 0.84167
 C372 C 0.21523 0.47514 0.86026
 C373 C 0.16861 0.49922 0.80886
 C374 C 0.16195 0.47749 0.79514
 C375 C 0.14419 0.47862 0.77506
 C376 C 0.13371 0.50176 0.76795
 C377 C 0.13995 0.52357 0.78096
 C378 C 0.15646 0.52205 0.80189
 H379 H 0.23990 0.49744 0.88387
 H380 H 0.19768 0.53818 0.82833
 H381 H 0.18677 0.45823 0.83648
 H382 H 0.17081 0.45963 0.79931
 H383 H 0.12000 0.50274 0.75248
 H384 H 0.15987 0.53901 0.81227
 C385 C 0.24936 0.39203 0.07545
 C386 C 0.27659 0.39373 0.07212
 C387 C 0.28984 0.37553 0.05832
 C388 C 0.27644 0.35558 0.04719
 C389 C 0.24964 0.35326 0.05132
 C390 C 0.23622 0.37121 0.06529
 C391 C 0.23572 0.41310 0.08858
 C392 C 0.20856 0.41385 0.09226
 C393 C 0.19666 0.43496 0.10266
 C394 C 0.21153 0.45577 0.10956
 C395 C 0.23865 0.45467 0.10721
 C396 C 0.25077 0.43369 0.09675
 C397 C 0.29042 0.41408 0.08175
 C398 C 0.27779 0.43365 0.09375
 H399 H 0.31131 0.41524 0.07938
 H400 H 0.28931 0.44930 0.10026
 H401 H 0.31060 0.37745 0.05549
 H402 H 0.23884 0.33802 0.04299
 H403 H 0.17568 0.43542 0.10440
 H404 H 0.25029 0.47054 0.11296
 H405 H 0.21553 0.36881 0.06735
 H406 H 0.19612 0.39861 0.08672
 C407 C 0.73582 0.60704 0.08437
 C408 C 0.75164 0.62236 0.06921
 C409 C 0.74008 0.63933 0.05231
 C410 C 0.71292 0.64037 0.04956
 C411 C 0.69737 0.62556 0.06495
 C412 C 0.70857 0.60929 0.08228
 C413 C 0.74867 0.58779 0.10066
 C414 C 0.73448 0.57167 0.11620
 C415 C 0.74680 0.55199 0.12852
 C416 C 0.77360 0.54802 0.12603
 C417 C 0.78838 0.56511 0.11230
 C418 C 0.77605 0.58491 0.09944
 C419 C 0.77877 0.61970 0.07010
 C420 C 0.79070 0.60121 0.08470
 H421 H 0.79094 0.63148 0.05861
 H422 H 0.81168 0.59929 0.08401
 H423 H 0.75219 0.65059 0.04024
 H424 H 0.67636 0.62621 0.06324
 H425 H 0.73519 0.53929 0.13956
 H426 H 0.80917 0.56218 0.11052
 H427 H 0.69546 0.59807 0.09314
 H428 H 0.71377 0.57344 0.11864
 C429 C 0.75084 0.39293 0.93113
 C430 C 0.72330 0.39417 0.93079
 C431 C 0.70876 0.37785 0.94556
 C432 C 0.72108 0.36000 0.96077
 C433 C 0.74827 0.35783 0.96019
 C434 C 0.76304 0.37413 0.94561
 C435 C 0.76563 0.41229 0.91675
 C436 C 0.79305 0.41402 0.91711
 C437 C 0.80564 0.43383 0.90512
 C438 C 0.79115 0.45221 0.89250
 C439 C 0.76405 0.44982 0.89088
 C440 C 0.75122 0.43039 0.90311
 C441 C 0.71035 0.41208 0.91621
 C442 C 0.72402 0.42971 0.90253
 H443 H 0.68927 0.41279 0.91573
 H444 H 0.71308 0.44351 0.89192
 H445 H 0.68771 0.37937 0.94557
 H446 H 0.75820 0.34407 0.97169
 H447 H 0.82660 0.43532 0.90654
 H448 H 0.75279 0.46375 0.88072
 H449 H 0.78390 0.37200 0.94627
 H450 H 0.80505 0.40075 0.92714
 C451 C 0.26340 0.60694 0.90709
 C452 C 0.28942 0.60451 0.91570
 C453 C 0.30013 0.62252 0.93178
 C454 C 0.28529 0.64306 0.93970
 C455 C 0.25990 0.64602 0.93029
 C456 C 0.24907 0.62825 0.91419
 C457 C 0.25203 0.58614 0.89172
 C458 C 0.22591 0.58595 0.88339
 C459 C 0.21564 0.56505 0.87119
 C460 C 0.23115 0.54390 0.86685
 C461 C 0.25754 0.54453 0.87375
 C462 C 0.26796 0.56522 0.88634
 C463 C 0.30440 0.58376 0.90884
 C464 C 0.29393 0.56458 0.89442
 H465 H 0.32440 0.58204 0.91519
 H466 H 0.30617 0.54865 0.89011
 H467 H 0.31985 0.62010 0.93872
 H468 H 0.24803 0.66175 0.93596
 H469 H 0.19520 0.56503 0.86611
 H470 H 0.26984 0.52847 0.87003
 H471 H 0.22931 0.63132 0.90799
 H472 H 0.21287 0.60138 0.88677
 C473 C 0.09542 0.26043 0.38125
 C474 C 0.09164 0.28656 0.38327
 C475 C 0.07400 0.29883 0.36735
 C476 C 0.05950 0.28547 0.34957
 C477 C 0.06435 0.25988 0.34651
 C478 C 0.08212 0.24745 0.36212
 C479 C 0.11175 0.24761 0.40082
 C480 C 0.11532 0.22147 0.40168
 C481 C 0.12682 0.21013 0.42257
 C482 C 0.13517 0.22458 0.44289
 C483 C 0.13421 0.25068 0.44106
 C484 C 0.12231 0.26226 0.42043
 C485 C 0.10438 0.30017 0.40199
 C486 C 0.11937 0.28826 0.42022
 H487 H 0.10180 0.32024 0.40323
 H488 H 0.12784 0.29948 0.43501
 H489 H 0.07070 0.31873 0.36959
 H490 H 0.05356 0.24921 0.33275
 H491 H 0.12748 0.18992 0.42361
 H492 H 0.14104 0.26191 0.45663
 H493 H 0.08444 0.22761 0.35948
 H494 H 0.10822 0.20939 0.38706
 C495 C 0.05811 0.75956 0.60905
 C496 C 0.03447 0.74749 0.60281
 C497 C 0.02257 0.73161 0.62006
 C498 C 0.03330 0.72809 0.64390
 C499 C 0.05570 0.74124 0.65083
 C500 C 0.06819 0.75667 0.63352
 C501 C 0.07158 0.77419 0.58901
 C502 C 0.09672 0.78432 0.59205
 C503 C 0.10961 0.79515 0.57181
 C504 C 0.09761 0.79645 0.54820
 C505 C 0.07185 0.78822 0.54559
 C506 C 0.05914 0.77647 0.56542
 C507 C 0.02292 0.75107 0.57932
 C508 C 0.03479 0.76562 0.56116
 H509 H 0.00455 0.74222 0.57477
 H510 H 0.02527 0.76746 0.54311
 H511 H 0.00480 0.72192 0.61495
 H512 H 0.06398 0.73895 0.66937
 H513 H 0.12952 0.80124 0.57431
 H514 H 0.06218 0.78961 0.52756
 H515 H 0.08570 0.76601 0.63955
 H516 H 0.10721 0.78296 0.60953
 C517 C 0.91997 0.73694 0.40379
 C518 C 0.92168 0.71052 0.40462
 C519 C 0.93746 0.69766 0.38768
 C520 C 0.95163 0.71056 0.36953
 C521 C 0.94903 0.73661 0.36785
 C522 C 0.93347 0.74970 0.38481
 C523 C 0.90441 0.74998 0.42361
 C524 C 0.90269 0.77625 0.42571
 C525 C 0.88940 0.78733 0.44564
 C526 C 0.87747 0.77249 0.46385
 C527 C 0.87811 0.74642 0.46122
 C528 C 0.89168 0.73513 0.44165
 C529 C 0.90805 0.69701 0.42265
 C530 C 0.89321 0.70904 0.44064
 H531 H 0.90914 0.67678 0.42307
 H532 H 0.88333 0.69772 0.45441
 H533 H 0.93902 0.67748 0.38888
 H534 H 0.95972 0.74697 0.35392
 H535 H 0.88920 0.80749 0.44728
 H536 H 0.86849 0.73479 0.47493
 H537 H 0.93256 0.76976 0.38299
 H538 H 0.91202 0.78851 0.41255
 C539 C 0.91747 0.25353 0.60555
 C540 C 0.93671 0.24135 0.62029
 C541 C 0.95101 0.25495 0.63822
 C542 C 0.94688 0.28073 0.64107
 C543 C 0.92674 0.29231 0.62755
 C544 C 0.91202 0.27891 0.61025
 C545 C 0.90502 0.23936 0.58449
 C546 C 0.88733 0.25055 0.56760
 C547 C 0.87846 0.23758 0.54671
 C548 C 0.88660 0.21301 0.54219
 C549 C 0.90304 0.20106 0.55953
 C550 C 0.91263 0.21421 0.58046
 C551 C 0.94248 0.21609 0.61609
 C552 C 0.93064 0.20279 0.59667
 H553 H 0.95699 0.20664 0.62751
 H554 H 0.93635 0.18350 0.59379
 H555 H 0.96668 0.24590 0.64852
 H556 H 0.92305 0.31214 0.62964
 H557 H 0.86552 0.24697 0.53363
 H558 H 0.90940 0.18206 0.55603
 H559 H 0.89721 0.28909 0.60010
 H560 H 0.88065 0.26953 0.56967
 C561 C 0.39574 0.07548 0.26339
 C562 C 0.37608 0.06308 0.24953
 C563 C 0.35860 0.04705 0.26172
 C564 C 0.36101 0.04260 0.28749
 C565 C 0.38011 0.05540 0.30117
 C566 C 0.39711 0.07171 0.28940
 C567 C 0.41526 0.09086 0.24959
 C568 C 0.43586 0.10333 0.26173
 C569 C 0.45539 0.11474 0.24797
 C570 C 0.45473 0.11439 0.22182
 C571 C 0.43328 0.10381 0.20948
 C572 C 0.41367 0.09182 0.22317
 C573 C 0.37469 0.06597 0.22353
 C574 C 0.39316 0.07991 0.21062
 H575 H 0.35956 0.05665 0.21289
 H576 H 0.39173 0.08087 0.19043
 H577 H 0.34393 0.03716 0.25099
 H578 H 0.38218 0.05253 0.32113
 H579 H 0.47159 0.12324 0.25781
 H580 H 0.43270 0.10355 0.18923
 H581 H 0.41158 0.08059 0.30101
 H582 H 0.43778 0.10390 0.28178
 C583 C 0.62222 0.08783 0.75136
 C584 C 0.63775 0.06992 0.76412
 C585 C 0.65596 0.05550 0.75087
 C586 C 0.65807 0.05803 0.72488
 C587 C 0.64369 0.07663 0.71256
 C588 C 0.62625 0.09159 0.72561
 C589 C 0.60075 0.10051 0.76533
 C590 C 0.58333 0.11739 0.75379
 C591 C 0.56160 0.12612 0.76647
 C592 C 0.55686 0.11867 0.79108
 C593 C 0.57496 0.10334 0.80351
 C594 C 0.59673 0.09395 0.79068
 C595 C 0.63384 0.06543 0.78962
 C596 C 0.61374 0.07715 0.80260
 H597 H 0.64586 0.05191 0.79948
 H598 H 0.61094 0.07231 0.82206
 H599 H 0.66686 0.04090 0.76041
 H600 H 0.64519 0.07892 0.69250
 H601 H 0.54793 0.13824 0.75676
 H602 H 0.57128 0.09761 0.82259
 H603 H 0.61533 0.10514 0.71489
 H604 H 0.58554 0.12351 0.73474
 C605 C 0.39271 0.91727 0.73637
 C606 C 0.37372 0.93044 0.75024
 C607 C 0.35619 0.94666 0.73797
 C608 C 0.35780 0.95037 0.71208
 C609 C 0.37559 0.93615 0.69830
 C610 C 0.39266 0.91968 0.71019
 C611 C 0.41313 0.90270 0.75027
 C612 C 0.43415 0.89094 0.73819
 C613 C 0.45462 0.88065 0.75200
 C614 C 0.45440 0.88133 0.77811
 C615 C 0.43276 0.89127 0.79044
 C616 C 0.41234 0.90238 0.77671
 C617 C 0.37319 0.92824 0.77632
 C618 C 0.39204 0.91442 0.78927
 H619 H 0.35847 0.93801 0.78695
 H620 H 0.39128 0.91399 0.80950
 H621 H 0.34239 0.95750 0.74874
 H622 H 0.37683 0.93828 0.67822
 H623 H 0.47120 0.87291 0.74226
 H624 H 0.43275 0.89197 0.81069
 H625 H 0.40614 0.90969 0.69852
 H626 H 0.43581 0.89037 0.71814
 C627 C 0.61072 0.91344 0.24868
 C628 C 0.61097 0.91282 0.27515
 C629 C 0.62830 0.92789 0.28865
 C630 C 0.64586 0.94346 0.27630
 C631 C 0.64689 0.94292 0.25014
 C632 C 0.62944 0.92817 0.23642
 C633 C 0.58982 0.89914 0.23512
 C634 C 0.58598 0.90032 0.20898
 C635 C 0.56448 0.88872 0.19769
 C636 C 0.54651 0.87558 0.21220
 C637 C 0.55117 0.87297 0.23792
 C638 C 0.57218 0.88497 0.24949
 C639 C 0.59348 0.89771 0.28810
 C640 C 0.57468 0.88386 0.27552
 H641 H 0.59400 0.89695 0.30833
 H642 H 0.56124 0.87286 0.28645
 H643 H 0.62775 0.92791 0.30890
 H644 H 0.66044 0.95475 0.24026
 H645 H 0.56127 0.89101 0.17780
 H646 H 0.53759 0.86246 0.24920
 H647 H 0.63057 0.92893 0.21632
 H648 H 0.59875 0.91088 0.19708
 C649 C 0.38776 0.24552 0.92024
 C650 C 0.38693 0.27195 0.91885
 C651 C 0.36899 0.28542 0.93309
 C652 C 0.35159 0.27312 0.94885
 C653 C 0.35106 0.24695 0.94901
 C654 C 0.36899 0.23322 0.93490
 C655 C 0.40944 0.23211 0.90704
 C656 C 0.41359 0.20604 0.90871
 C657 C 0.43572 0.19499 0.89816
 C658 C 0.45406 0.20968 0.88575
 C659 C 0.44927 0.23530 0.88272
 C660 C 0.42747 0.24661 0.89344
 C661 C 0.40469 0.28495 0.90408
 C662 C 0.42443 0.27253 0.89153
 H663 H 0.40374 0.30514 0.90276
 H664 H 0.43813 0.28353 0.88088
 H665 H 0.36919 0.30569 0.93263
 H666 H 0.33770 0.23711 0.96106
 H667 H 0.43905 0.17514 0.90061
 H668 H 0.46323 0.24666 0.87276
 H669 H 0.36836 0.21313 0.93630
 H670 H 0.40047 0.19405 0.91875
 C671 C 0.61073 0.74298 0.90844
 C672 C 0.60696 0.71699 0.91166
 C673 C 0.62352 0.70330 0.92746
 C674 C 0.64363 0.71509 0.94073
 C675 C 0.64837 0.74051 0.93646
 C676 C 0.63216 0.75433 0.92046
 C677 C 0.59063 0.75741 0.89387
 C678 C 0.59162 0.78356 0.89064
 C679 C 0.57059 0.79648 0.88001
 C680 C 0.54825 0.78361 0.87232
 C681 C 0.54795 0.75749 0.87355
 C682 C 0.56878 0.74435 0.88437
 C683 C 0.58589 0.70498 0.90021
 C684 C 0.56715 0.71839 0.88690
 H685 H 0.58326 0.68501 0.90242
 H686 H 0.55061 0.70838 0.87926
 H687 H 0.61993 0.68355 0.93034
 H688 H 0.66391 0.74999 0.94636
 H689 H 0.57118 0.81669 0.87911
 H690 H 0.53080 0.74749 0.86723
 H691 H 0.63619 0.77399 0.91851
 H692 H 0.60795 0.79446 0.89705
 C693 C 0.37815 0.76236 0.06943
 C694 C 0.37373 0.76698 0.04369
 C695 C 0.35517 0.75299 0.03049
 C696 C 0.34226 0.73317 0.04205
 C697 C 0.34665 0.72834 0.06741
 C698 C 0.36401 0.74309 0.08115
 C699 C 0.39943 0.77652 0.08241
 C700 C 0.40447 0.77445 0.10825
 C701 C 0.42639 0.78571 0.11888
 C702 C 0.44374 0.79914 0.10400
 C703 C 0.43802 0.80276 0.07863
 C704 C 0.41578 0.79192 0.06783
 C705 C 0.38924 0.78410 0.03081
 C706 C 0.41020 0.79586 0.04248
 H707 H 0.38597 0.78748 0.01105
 H708 H 0.42241 0.80800 0.03141
 H709 H 0.35239 0.75607 0.01061
 H710 H 0.33732 0.71260 0.07635
 H711 H 0.43052 0.78288 0.13856
 H712 H 0.45133 0.81343 0.06720
 H713 H 0.36719 0.73822 0.10050
 H714 H 0.39204 0.76384 0.12042
 C715 C 0.60215 0.25440 0.08551
 C716 C 0.59796 0.28028 0.08156
 C717 C 0.61504 0.29397 0.06662
 C718 C 0.63647 0.28238 0.05539
 C719 C 0.64136 0.25704 0.06021
 C720 C 0.62441 0.24316 0.07506
 C721 C 0.58207 0.24006 0.09977
 C722 C 0.58337 0.21397 0.10346
 C723 C 0.56280 0.20121 0.11463
 C724 C 0.54058 0.21416 0.12249
 C725 C 0.53987 0.24027 0.12038
 C726 C 0.56013 0.25321 0.10884
 C727 C 0.57636 0.29228 0.09194
 C728 C 0.55791 0.27905 0.10538
 H729 H 0.57337 0.31215 0.08915
 H730 H 0.54120 0.28910 0.11252
 H731 H 0.61132 0.31367 0.06333
 H732 H 0.65788 0.24771 0.05187
 H733 H 0.56375 0.18104 0.11608
 H734 H 0.52294 0.25045 0.12688
 H735 H 0.62883 0.22362 0.07771
 H736 H 0.59964 0.20297 0.09711
 C737 C 0.26112 0.09362 0.60796
 C738 C 0.24573 0.07876 0.62399
 C739 C 0.25774 0.06237 0.64118
 C740 C 0.28491 0.05996 0.64189
 C741 C 0.30004 0.07561 0.62691
 C742 C 0.28840 0.09239 0.61036
 C743 C 0.24783 0.10844 0.58777
 C744 C 0.26165 0.12238 0.56992
 C745 C 0.24891 0.13253 0.54920
 C746 C 0.22206 0.12954 0.54604
 C747 C 0.20767 0.11768 0.56472
 C748 C 0.22042 0.10677 0.58540
 C749 C 0.21855 0.07932 0.62174
 C750 C 0.20617 0.09298 0.60282
 H751 H 0.20671 0.06821 0.63417
 H752 H 0.18516 0.09196 0.60124
 H753 H 0.24594 0.05026 0.65272
 H754 H 0.32108 0.07433 0.62746
 H755 H 0.26021 0.14186 0.53498
 H756 H 0.18687 0.11531 0.56217
 H757 H 0.30119 0.10345 0.59901
 H758 H 0.28243 0.12481 0.57094
 C759 C 0.75308 0.07091 0.38975
 C760 C 0.72595 0.06749 0.39253
 C761 C 0.71212 0.05229 0.37584
 C762 C 0.72458 0.04047 0.35575
 C763 C 0.75120 0.04514 0.35206
 C764 C 0.76532 0.05999 0.36892
 C765 C 0.76743 0.08549 0.40953
 C766 C 0.79477 0.08825 0.41010
 C767 C 0.80719 0.10020 0.43025
 C768 C 0.79259 0.10972 0.45014
 C769 C 0.76537 0.10830 0.44892
 C770 C 0.75281 0.09593 0.42927
 C771 C 0.71270 0.07890 0.41222
 C772 C 0.72579 0.09305 0.43002
 H773 H 0.69186 0.07658 0.41411
 H774 H 0.71466 0.10117 0.44511
 H775 H 0.69147 0.04951 0.37880
 H776 H 0.76144 0.03662 0.33662
 H777 H 0.82823 0.10109 0.43078
 H778 H 0.75390 0.11604 0.46400
 H779 H 0.78581 0.06247 0.36552
 H780 H 0.80691 0.08060 0.39562
 C781 C 0.74529 0.91795 0.61066
 C782 C 0.71802 0.92189 0.61034
 C783 C 0.70644 0.93756 0.62807
 C784 C 0.72153 0.94963 0.64632
 C785 C 0.74834 0.94470 0.64750
 C786 C 0.76012 0.92907 0.62991
 C787 C 0.75710 0.90286 0.58994
 C788 C 0.78415 0.89904 0.58745
 C789 C 0.79416 0.88625 0.56681
 C790 C 0.77746 0.87693 0.54821
 C791 C 0.75051 0.87981 0.55107
 C792 C 0.74028 0.89284 0.57147
 C793 C 0.70248 0.91080 0.59189
 C794 C 0.71336 0.89647 0.57296
 H795 H 0.68159 0.91360 0.59182
 H796 H 0.70051 0.88864 0.55888
 H797 H 0.68564 0.94099 0.62714
 H798 H 0.76044 0.95371 0.66145
 H799 H 0.81504 0.88432 0.56500
 H800 H 0.73741 0.87223 0.53706
 H801 H 0.78089 0.92640 0.63139
 H802 H 0.79792 0.90626 0.60089
 C803 C 0.24758 0.91620 0.39522
 C804 C 0.27512 0.91516 0.39569
 C805 C 0.28952 0.92882 0.37834
 C806 C 0.27705 0.94387 0.36044
 C807 C 0.24981 0.94379 0.35890
 C808 C 0.23518 0.93012 0.37610
 C809 C 0.23310 0.90348 0.41589
 C810 C 0.20577 0.90455 0.41830
 C811 C 0.19358 0.89433 0.43927
 C812 C 0.20839 0.88290 0.45819
 C813 C 0.23534 0.88056 0.45528
 C814 C 0.24777 0.89086 0.43456
 C815 C 0.28828 0.90134 0.41407
 C816 C 0.27488 0.88939 0.43306
 H817 H 0.30935 0.90033 0.41418
 H818 H 0.28601 0.87949 0.44726
 H819 H 0.31060 0.92849 0.37940
 H820 H 0.23979 0.95523 0.34514
 H821 H 0.17270 0.89619 0.44116
 H822 H 0.24678 0.87130 0.46970
 H823 H 0.21428 0.93129 0.37456
 H824 H 0.19357 0.91375 0.40459
 C825 C 0.09299 0.39770 0.72308
 C826 C 0.08202 0.37856 0.73790
 C827 C 0.06482 0.36116 0.72708
 C828 C 0.05763 0.36305 0.70177
 C829 C 0.06897 0.38173 0.68707
 C830 C 0.08651 0.39870 0.69746
 C831 C 0.10969 0.41700 0.73563
 C832 C 0.12116 0.43694 0.72255
 C833 C 0.13378 0.45611 0.73538
 C834 C 0.13558 0.45585 0.76154
 C835 C 0.12611 0.43509 0.77464
 C836 C 0.11303 0.41579 0.76190
 C837 C 0.08738 0.37757 0.76360
 C838 C 0.10237 0.39587 0.77536
 H839 H 0.07914 0.36286 0.77496
 H840 H 0.10517 0.39472 0.79542
 H841 H 0.05604 0.34691 0.73867
 H842 H 0.06391 0.38353 0.66747
 H843 H 0.14141 0.47171 0.72485
 H844 H 0.12746 0.43473 0.79486
 H845 H 0.09412 0.41285 0.68521
 H846 H 0.12001 0.43851 0.70250
 C847 C 0.08544 0.60292 0.26057
 C848 C 0.07026 0.62146 0.24833
 C849 C 0.05452 0.63776 0.26235
 C850 C 0.05293 0.63518 0.28841
 C851 C 0.06841 0.61715 0.30045
 C852 C 0.08458 0.60138 0.28683
 C853 C 0.10032 0.58461 0.24496
 C854 C 0.11558 0.56529 0.25546
 C855 C 0.12597 0.54659 0.24041
 C856 C 0.12183 0.54685 0.21452
 C857 C 0.10872 0.56716 0.20355
 C858 C 0.09774 0.58594 0.21862
 C859 C 0.06995 0.62281 0.22217
 C860 C 0.08320 0.60531 0.20764
 H861 H 0.05848 0.63707 0.21275
 H862 H 0.08149 0.60659 0.18749
 H863 H 0.04247 0.65154 0.25287
 H864 H 0.06772 0.61494 0.32055
 H865 H 0.13636 0.53119 0.24914
 H866 H 0.10552 0.56741 0.18350
 H867 H 0.09556 0.58763 0.29724
 H868 H 0.11900 0.56371 0.27529
 C869 C 0.91376 0.39166 0.25501
 C870 C 0.91442 0.39061 0.28145
 C871 C 0.93003 0.37288 0.29368
 C872 C 0.94522 0.35604 0.28006
 C873 C 0.94315 0.35573 0.25395
 C874 C 0.92759 0.37336 0.24149
 C875 C 0.89947 0.41299 0.24280
 C876 C 0.89933 0.41718 0.21675
 C877 C 0.88770 0.43865 0.20663
 C878 C 0.87596 0.45634 0.22224
 C879 C 0.87492 0.45172 0.24798
 C880 C 0.88675 0.43050 0.25836
 C881 C 0.90045 0.40793 0.29563
 C882 C 0.88675 0.42737 0.28431
 H883 H 0.90067 0.40684 0.31586
 H884 H 0.87677 0.44068 0.29614
 H885 H 0.93127 0.37292 0.31392
 H886 H 0.95471 0.34277 0.24311
 H887 H 0.88863 0.44185 0.18667
 H888 H 0.86539 0.46511 0.26008
 H889 H 0.92734 0.37287 0.22135
 H890 H 0.90870 0.40450 0.20398
 C891 C 0.94235 0.59638 0.76390
 C892 C 0.92858 0.61917 0.76080
 C893 C 0.93871 0.63807 0.74537
 C894 C 0.96146 0.63372 0.73174
 C895 C 0.97453 0.61086 0.73426
 C896 C 0.96531 0.59250 0.75028
 C897 C 0.93089 0.57651 0.78005
 C898 C 0.94426 0.55426 0.78598
 C899 C 0.93158 0.53485 0.79813
 C900 C 0.90532 0.53709 0.80471
 C901 C 0.89266 0.56019 0.80126
 C902 C 0.90538 0.57999 0.78913
 C903 C 0.90428 0.62234 0.77212
 C904 C 0.89262 0.60292 0.78542
 H905 H 0.89360 0.63968 0.76971
 H906 H 0.87327 0.60585 0.79279
 H907 H 0.92837 0.65563 0.74307
 H908 H 0.99216 0.60725 0.72387
 H909 H 0.94211 0.51759 0.80154
 H910 H 0.87250 0.56231 0.80666
 H911 H 0.97603 0.57515 0.75112
 H912 H 0.96432 0.55129 0.78098
 C913 C 0.74704 0.60543 0.91676
 C914 C 0.72004 0.60201 0.92032
 C915 C 0.70606 0.61845 0.93549
 C916 C 0.71828 0.63883 0.94718
 C917 C 0.74465 0.64332 0.94211
 C918 C 0.75893 0.62673 0.92726
 C919 C 0.76176 0.58556 0.90291
 C920 C 0.78911 0.58546 0.90061
 C921 C 0.80204 0.56482 0.89040
 C922 C 0.78795 0.54401 0.88210
 C923 C 0.76072 0.54484 0.88245
 C924 C 0.74761 0.56502 0.89324
 C925 C 0.70713 0.58182 0.90929
 C926 C 0.72059 0.56387 0.89579
 H927 H 0.68634 0.57953 0.91164
 H928 H 0.70980 0.54822 0.88819
 H929 H 0.68553 0.61499 0.93847
 H930 H 0.75462 0.65908 0.95045
 H931 H 0.82311 0.56452 0.89029
 H932 H 0.74974 0.52891 0.87571
 H933 H 0.77929 0.63066 0.92458
 H934 H 0.80089 0.60057 0.90764
 C935 C 0.25765 0.38928 0.91355
 C936 C 0.28447 0.39077 0.91952
 C937 C 0.29586 0.37359 0.93609
 C938 C 0.28125 0.35418 0.94672
 C939 C 0.25503 0.35164 0.93941
 C940 C 0.24330 0.36908 0.92324
 C941 C 0.24583 0.40967 0.89767
 C942 C 0.21888 0.41175 0.89261
 C943 C 0.20879 0.43244 0.87954
 C944 C 0.22537 0.45137 0.87110
 C945 C 0.25227 0.44864 0.87482
 C946 C 0.26249 0.42848 0.88842
 C947 C 0.29985 0.40962 0.90926
 C948 C 0.28917 0.42786 0.89376
 H949 H 0.32048 0.41048 0.91354
 H950 H 0.30188 0.44226 0.88658
 H951 H 0.31630 0.37559 0.94085
 H952 H 0.24322 0.33674 0.94694
 H953 H 0.18795 0.43414 0.87694
 H954 H 0.26531 0.46294 0.86795
 H955 H 0.22297 0.36662 0.91875
 H956 H 0.20525 0.39807 0.89936
 C957 C 0.24487 0.61090 0.06851
 C958 C 0.27228 0.60948 0.06661
 C959 C 0.28583 0.62702 0.05239
 C960 C 0.27277 0.64653 0.03984
 C961 C 0.24572 0.64890 0.04301
 C962 C 0.23190 0.63124 0.05702
 C963 C 0.23106 0.59021 0.08207
 C964 C 0.20369 0.58848 0.08363
 C965 C 0.19197 0.56766 0.09484
 C966 C 0.20728 0.54822 0.10470
 C967 C 0.23443 0.55046 0.10431
 C968 C 0.24635 0.57089 0.09286
 C969 C 0.28616 0.59020 0.07840
 C970 C 0.27349 0.57144 0.09142
 H971 H 0.30719 0.58936 0.07720
 H972 H 0.28512 0.55669 0.09985
 H973 H 0.30677 0.62508 0.05079
 H974 H 0.23500 0.66385 0.03387
 H975 H 0.17095 0.56634 0.09500
 H976 H 0.24640 0.53572 0.11235
 H977 H 0.21110 0.63357 0.05830
 H978 H 0.19107 0.60262 0.07573
 C979 C 0.73362 0.39343 0.09511
 C980 C 0.70719 0.39650 0.08820
 C981 C 0.69545 0.37973 0.07163
 C982 C 0.70945 0.35946 0.06169
 C983 C 0.73502 0.35521 0.07021
 C984 C 0.74704 0.37207 0.08659
 C985 C 0.74628 0.41374 0.11016
 C986 C 0.77315 0.41410 0.11571
 C987 C 0.78449 0.43499 0.12699
 C988 C 0.76928 0.45586 0.13318
 C989 C 0.74229 0.45489 0.12944
 C990 C 0.73082 0.43437 0.11757
 C991 C 0.69274 0.41677 0.09715
 C992 C 0.70425 0.43517 0.11177
 H993 H 0.67235 0.41881 0.09224
 H994 H 0.69241 0.45087 0.11765
 H995 H 0.67540 0.38296 0.06598
 H996 H 0.74624 0.33953 0.06334
 H997 H 0.80539 0.43535 0.12969
 H998 H 0.73035 0.47078 0.13461
 H999 H 0.76697 0.36834 0.09190
 H1000 H 0.78590 0.39896 0.11049
 C1001 C 0.90104 0.73286 0.61947
 C1002 C 0.90676 0.70712 0.61685
 C1003 C 0.92356 0.69519 0.63385
 C1004 C 0.93519 0.70843 0.65366
 C1005 C 0.92750 0.73335 0.65764
 C1006 C 0.91076 0.74547 0.64070
 C1007 C 0.88626 0.74567 0.59871
 C1008 C 0.88189 0.77172 0.59794
 C1009 C 0.87119 0.78307 0.57659
 C1010 C 0.86445 0.76872 0.55563
 C1011 C 0.86686 0.74265 0.55700
 C1012 C 0.87807 0.73112 0.57802
 C1013 C 0.89677 0.69361 0.59659
 C1014 C 0.88254 0.70532 0.57769
 H1015 H 0.90075 0.67379 0.59487
 H1016 H 0.87599 0.69418 0.56198
 H1017 H 0.92852 0.67571 0.63082
 H1018 H 0.93566 0.74405 0.67295
 H1019 H 0.86950 0.80324 0.57596
 H1020 H 0.86129 0.73139 0.54100
 H1021 H 0.90637 0.76489 0.64408
 H1022 H 0.88767 0.78374 0.61314
 C1023 C 0.91984 0.26031 0.39213
 C1024 C 0.93059 0.24694 0.37187
 C1025 C 0.94609 0.25940 0.35417
 C1026 C 0.95258 0.28476 0.35741
 C1027 C 0.94205 0.29767 0.37788
 C1028 C 0.92578 0.28579 0.39476
 C1029 C 0.90430 0.24637 0.41113
 C1030 C 0.89147 0.25842 0.43090
 C1031 C 0.88038 0.24459 0.45008
 C1032 C 0.88161 0.21841 0.45005
 C1033 C 0.89194 0.20615 0.42913
 C1034 C 0.90322 0.22001 0.40960
 C1035 C 0.92695 0.22102 0.37024
 C1036 C 0.91409 0.20777 0.38899
 H1037 H 0.93518 0.21064 0.35481
 H1038 H 0.91289 0.18762 0.38746
 H1039 H 0.95431 0.24895 0.33877
 H1040 H 0.94644 0.31720 0.38107
 H1041 H 0.87165 0.25445 0.46559
 H1042 H 0.89256 0.18590 0.42873
 H1043 H 0.91887 0.29674 0.41026
 H1044 H 0.89027 0.27850 0.43222
 C1045 C 0.07172 0.25532 0.59234
 C1046 C 0.05250 0.27280 0.58486
 C1047 C 0.04043 0.28797 0.60259
 C1048 C 0.04518 0.28456 0.62827
 C1049 C 0.06296 0.26594 0.63585
 C1050 C 0.07653 0.25187 0.61809
 C1051 C 0.08553 0.24091 0.57239
 C1052 C 0.10815 0.22662 0.57697
 C1053 C 0.12139 0.21517 0.55723
 C1054 C 0.11191 0.21703 0.53257
 C1055 C 0.08845 0.22996 0.52830
 C1056 C 0.07616 0.24295 0.54756
 C1057 C 0.04464 0.27445 0.55982
 C1058 C 0.05556 0.25915 0.54172
 H1059 H 0.02943 0.28742 0.55420
 H1060 H 0.04857 0.26090 0.52263
 H1061 H 0.02604 0.30152 0.59630
 H1062 H 0.06676 0.26253 0.65550
 H1063 H 0.13958 0.20569 0.56125
 H1064 H 0.08018 0.23097 0.50965
 H1065 H 0.09020 0.23798 0.62479
 H1066 H 0.11657 0.22515 0.59546
 C1067 C 0.08738 0.73572 0.39868
 C1068 C 0.08183 0.71033 0.40365
 C1069 C 0.06652 0.69655 0.38694
 C1070 C 0.05602 0.70764 0.36524
 C1071 C 0.06317 0.73227 0.35939
 C1072 C 0.07861 0.74617 0.37589
 C1073 C 0.10086 0.75061 0.41865
 C1074 C 0.10556 0.77648 0.41653
 C1075 C 0.11488 0.79008 0.43698
 C1076 C 0.11984 0.77819 0.45989
 C1077 C 0.11720 0.75221 0.46158
 C1078 C 0.10750 0.73843 0.44135
 C1079 C 0.09047 0.69908 0.42585
 C1080 C 0.10309 0.71283 0.44429
 H1081 H 0.08656 0.67952 0.42943
 H1082 H 0.10852 0.70348 0.46155
 H1083 H 0.06184 0.67735 0.39157
 H1084 H 0.05585 0.74130 0.34262
 H1085 H 0.11686 0.81015 0.43530
 H1086 H 0.12145 0.74290 0.47917
 H1087 H 0.08272 0.76525 0.37083
 H1088 H 0.10117 0.78672 0.39965
 C1089 C 0.61241 0.93611 0.76033
 C1090 C 0.60723 0.96093 0.75249
 C1091 C 0.62523 0.97371 0.73780
 C1092 C 0.64872 0.96245 0.73101
 C1093 C 0.65481 0.93854 0.73996
 C1094 C 0.63676 0.92536 0.75437
 C1095 C 0.59125 0.92228 0.77373
 C1096 C 0.59316 0.89681 0.78038
 C1097 C 0.57177 0.88421 0.79039
 C1098 C 0.54811 0.89675 0.79412
 C1099 C 0.54663 0.92243 0.78912
 C1100 C 0.56767 0.93510 0.77860
 C1101 C 0.58387 0.97276 0.75878
 C1102 C 0.56461 0.96019 0.77177
 H1103 H 0.58019 0.99191 0.75312
 H1104 H 0.54662 0.97000 0.77570
 H1105 H 0.62081 0.99247 0.73125
 H1106 H 0.67307 0.92973 0.73502
 H1107 H 0.57335 0.86435 0.79406
 H1108 H 0.52852 0.93235 0.79235
 H1109 H 0.64200 0.90673 0.76032
 H1110 H 0.61061 0.88609 0.77711
 C1111 C 0.38999 0.90572 0.26155
 C1112 C 0.37176 0.92037 0.24790
 C1113 C 0.35456 0.93641 0.26054
 C1114 C 0.35587 0.93861 0.28664
 C1115 C 0.37307 0.92319 0.30011
 C1116 C 0.38974 0.90683 0.28783
 C1117 C 0.40994 0.89105 0.24744
 C1118 C 0.42984 0.87723 0.25942
 C1119 C 0.45005 0.86678 0.24569
 C1120 C 0.45074 0.86943 0.21968
 C1121 C 0.42999 0.88140 0.20731
 C1122 C 0.40980 0.89253 0.22102
 C1123 C 0.37171 0.91982 0.22173
 C1124 C 0.39034 0.90622 0.20858
 H1125 H 0.35761 0.93078 0.21122
 H1126 H 0.39003 0.90713 0.18835
 H1127 H 0.34131 0.94828 0.25000
 H1128 H 0.37414 0.92425 0.32030
 H1129 H 0.46575 0.85730 0.25550
 H1130 H 0.43052 0.88355 0.18717
 H1131 H 0.40282 0.89591 0.29931
 H1132 H 0.43079 0.87501 0.27942
 C1133 C 0.61616 0.07491 0.24706
 C1134 C 0.61803 0.07743 0.27335
 C1135 C 0.63556 0.06260 0.28706
 C1136 C 0.65141 0.04501 0.27514
 C1137 C 0.65101 0.04367 0.24898
 C1138 C 0.63356 0.05843 0.23503
 C1139 C 0.59471 0.08880 0.23360
 C1140 C 0.58954 0.08627 0.20775
 C1141 C 0.56746 0.09745 0.19684
 C1142 C 0.55018 0.11135 0.21147
 C1143 C 0.55606 0.11526 0.23675
 C1144 C 0.57785 0.10399 0.24793
 C1145 C 0.60155 0.09383 0.28608
 C1146 C 0.58196 0.10690 0.27362
 H1147 H 0.60329 0.09599 0.30616
 H1148 H 0.56920 0.11877 0.28447
 H1149 H 0.63602 0.06392 0.30728
 H1150 H 0.66311 0.03018 0.23941
 H1151 H 0.56323 0.09428 0.17724
 H1152 H 0.54285 0.12626 0.24804
 H1153 H 0.63334 0.05605 0.21502
 H1154 H 0.60179 0.07508 0.19588
 C1155 C 0.39789 0.08201 0.74479
 C1156 C 0.40118 0.07888 0.71874
 C1157 C 0.38356 0.06440 0.70497
 C1158 C 0.36250 0.05273 0.71664
 C1159 C 0.35848 0.05676 0.74221
 C1160 C 0.37595 0.07121 0.75616
 C1161 C 0.41853 0.09584 0.75911
 C1162 C 0.41814 0.09876 0.78531
 C1163 C 0.43909 0.10978 0.79792
 C1164 C 0.46082 0.11821 0.78472
 C1165 C 0.46068 0.11670 0.75858
 C1166 C 0.44003 0.10536 0.74578
 C1167 C 0.42243 0.08958 0.70661
 C1168 C 0.44139 0.10263 0.71983
 H1169 H 0.42476 0.08738 0.68662
 H1170 H 0.45778 0.11008 0.70964
 H1171 H 0.38666 0.06171 0.68514
 H1172 H 0.34227 0.04808 0.75162
 H1173 H 0.43880 0.11073 0.81813
 H1174 H 0.47720 0.12364 0.74820
 H1175 H 0.37220 0.07327 0.77585
 H1176 H 0.40226 0.09199 0.79646
 C1177 C 0.60113 0.74449 0.07193
 C1178 C 0.59659 0.71892 0.06687
 C1179 C 0.61432 0.70518 0.05263
 C1180 C 0.63660 0.71644 0.04276
 C1181 C 0.64166 0.74155 0.04844
 C1182 C 0.62417 0.75544 0.06287
 C1183 C 0.58059 0.75886 0.08575
 C1184 C 0.58267 0.78454 0.09140
 C1185 C 0.56201 0.79736 0.10258
 C1186 C 0.53887 0.78490 0.10828
 C1187 C 0.53712 0.75917 0.10388
 C1188 C 0.55762 0.74614 0.09269
 C1189 C 0.57394 0.70728 0.07527
 C1190 C 0.55484 0.72062 0.08783
 H1191 H 0.57061 0.68765 0.07153
 H1192 H 0.53736 0.71088 0.09339
 H1193 H 0.61028 0.68572 0.04861
 H1194 H 0.65875 0.75068 0.04110
 H1195 H 0.56374 0.81724 0.10594
 H1196 H 0.51942 0.74938 0.10870
 H1197 H 0.62873 0.77481 0.06621
 H1198 H 0.59981 0.79514 0.08687
 C1199 C 0.38118 0.24314 0.08139
 C1200 C 0.38070 0.26954 0.08326
 C1201 C 0.36404 0.28366 0.06790
 C1202 C 0.34753 0.27202 0.05058
 C1203 C 0.34658 0.24585 0.04987
 C1204 C 0.36327 0.23151 0.06505
 C1205 C 0.40171 0.22905 0.09592
 C1206 C 0.40570 0.20298 0.09383
 C1207 C 0.42713 0.19139 0.10548
 C1208 C 0.44485 0.20553 0.11950
 C1209 C 0.43999 0.23104 0.12310
 C1210 C 0.41898 0.24292 0.11122
 C1211 C 0.39757 0.28188 0.09969
 C1212 C 0.41618 0.26883 0.11351
 H1213 H 0.39688 0.30205 0.10139
 H1214 H 0.42929 0.27934 0.12543
 H1215 H 0.36457 0.30391 0.06878
 H1216 H 0.33390 0.23649 0.03665
 H1217 H 0.43059 0.17165 0.10251
 H1218 H 0.45358 0.24198 0.13415
 H1219 H 0.36238 0.21146 0.06320
 H1220 H 0.39313 0.19146 0.08251
 C1221 C 0.61084 0.25961 0.91928
 C1222 C 0.62855 0.24597 0.93451
 C1223 C 0.64557 0.25867 0.95081
 C1224 C 0.64463 0.28481 0.95252
 C1225 C 0.62829 0.29823 0.93623
 C1226 C 0.61179 0.28589 0.91968
 C1227 C 0.59069 0.24555 0.90468
 C1228 C 0.57075 0.25761 0.89096
 C1229 C 0.55050 0.24393 0.88038
 C1230 C 0.54981 0.21791 0.88277
 C1231 C 0.57039 0.20547 0.89490
 C1232 C 0.59057 0.21913 0.90627
 C1233 C 0.62823 0.21979 0.93426
 C1234 C 0.60973 0.20666 0.92034
 H1235 H 0.64199 0.20929 0.94562
 H1236 H 0.60981 0.18643 0.92139
 H1237 H 0.65825 0.24818 0.96329
 H1238 H 0.62763 0.31846 0.93686
 H1239 H 0.53482 0.25378 0.87089
 H1240 H 0.56974 0.18532 0.89688
 H1241 H 0.59938 0.29734 0.90803
 H1242 H 0.56978 0.27763 0.88896
 C1243 C 0.39073 0.76112 0.92589
 C1244 C 0.39623 0.75215 0.95027
 C1245 C 0.37845 0.73673 0.96243
 C1246 C 0.35473 0.73045 0.95113
 C1247 C 0.34834 0.74049 0.92771
 C1248 C 0.36627 0.75551 0.91503
 C1249 C 0.41161 0.77547 0.91264
 C1250 C 0.40944 0.78325 0.88750
 C1251 C 0.43061 0.79416 0.87533
 C1252 C 0.45430 0.79770 0.88799
 C1253 C 0.45600 0.79159 0.91342
 C1254 C 0.43522 0.78013 0.92563
 C1255 C 0.41960 0.75823 0.96232
 C1256 C 0.43857 0.77215 0.95035
 H1257 H 0.42348 0.75176 0.98120
 H1258 H 0.45657 0.77592 0.96031
 H1259 H 0.38309 0.72947 0.98089
 H1260 H 0.32987 0.73610 0.91893
 H1261 H 0.42886 0.79868 0.85565
 H1262 H 0.47412 0.79467 0.92345
 H1263 H 0.36077 0.76236 0.89677
 H1264 H 0.39196 0.78016 0.87667
 C1265 C 0.73640 0.90537 0.39398
 C1266 C 0.75306 0.91741 0.37680
 C1267 C 0.74263 0.93376 0.35859
 C1268 C 0.71580 0.93880 0.35776
 C1269 C 0.69935 0.92602 0.37415
 C1270 C 0.70939 0.90943 0.39185
 C1271 C 0.74834 0.89006 0.41463
 C1272 C 0.73340 0.87859 0.43339
 C1273 C 0.74541 0.86729 0.45394
 C1274 C 0.77256 0.86668 0.45618
 C1275 C 0.78773 0.87636 0.43678
 C1276 C 0.77581 0.88836 0.41619
 C1277 C 0.78004 0.91389 0.37863
 C1278 C 0.79117 0.89970 0.39789
 H1279 H 0.79284 0.92287 0.36539
 H1280 H 0.81218 0.89822 0.39891
 H1281 H 0.75550 0.94356 0.34601
 H1282 H 0.67854 0.92927 0.37365
 H1283 H 0.73342 0.85972 0.46867
 H1284 H 0.80876 0.87604 0.43854
 H1285 H 0.69566 0.90060 0.40410
 H1286 H 0.71244 0.87888 0.43309
 C1287 C 0.25129 0.92224 0.60863
 C1288 C 0.27858 0.92468 0.60624
 C1289 C 0.29234 0.94111 0.62174
 C1290 C 0.27946 0.95538 0.63979
 C1291 C 0.25264 0.95217 0.64303
 C1292 C 0.23865 0.93584 0.62761
 C1293 C 0.23707 0.90624 0.59003
 C1294 C 0.20974 0.90371 0.58956
 C1295 C 0.19732 0.89112 0.56994
 C1296 C 0.21189 0.88070 0.55054
 C1297 C 0.23910 0.88139 0.55190
 C1298 C 0.25174 0.89429 0.57117
 C1299 C 0.29199 0.91131 0.58792
 C1300 C 0.27885 0.89638 0.57079
 H1301 H 0.31293 0.91295 0.58636
 H1302 H 0.29004 0.88700 0.55647
 H1303 H 0.31317 0.94314 0.61940
 H1304 H 0.24232 0.96286 0.65700
 H1305 H 0.17626 0.89073 0.56920
 H1306 H 0.25042 0.87302 0.53705
 H1307 H 0.21797 0.93452 0.63053
 H1308 H 0.19757 0.91216 0.60356
 C1309 C 0.26069 0.07835 0.39506
 C1310 C 0.24515 0.06390 0.37862
 C1311 C 0.25702 0.04790 0.36119
 C1312 C 0.28420 0.04555 0.36058
 C1313 C 0.29946 0.06058 0.37622
 C1314 C 0.28796 0.07692 0.39306
 C1315 C 0.24753 0.09344 0.41486
 C1316 C 0.26148 0.10756 0.43260
 C1317 C 0.24868 0.11933 0.45213
 C1318 C 0.22163 0.11763 0.45445
 C1319 C 0.20725 0.10484 0.43615
 C1320 C 0.22005 0.09252 0.41651
 C1321 C 0.21797 0.06470 0.38047
 C1322 C 0.20570 0.07866 0.39904
 H1323 H 0.20601 0.05381 0.36781
 H1324 H 0.18466 0.07812 0.40009
 H1325 H 0.24513 0.03620 0.34920
 H1326 H 0.32050 0.05927 0.37583
 H1327 H 0.26005 0.12962 0.46576
 H1328 H 0.18629 0.10358 0.43784
 H1329 H 0.30088 0.08759 0.40481
 H1330 H 0.28233 0.10942 0.43213
 C1331 C 0.75534 0.07905 0.60630
 C1332 C 0.72797 0.07640 0.60509
 C1333 C 0.71495 0.06256 0.62331
 C1334 C 0.72866 0.05076 0.64281
 C1335 C 0.75564 0.05416 0.64468
 C1336 C 0.76888 0.06815 0.62666
 C1337 C 0.76862 0.09235 0.58521
 C1338 C 0.79584 0.09545 0.58395
 C1339 C 0.80728 0.10607 0.56279
 C1340 C 0.79186 0.11375 0.54246
 C1341 C 0.76475 0.11198 0.54411
 C1342 C 0.75308 0.10132 0.56512
 C1343 C 0.71371 0.08679 0.58524
 C1344 C 0.72600 0.09893 0.56565
 H1345 H 0.69273 0.08492 0.58449
 H1346 H 0.71413 0.10606 0.55038
 H1347 H 0.69403 0.06034 0.62182
 H1348 H 0.76666 0.04531 0.65959
 H1349 H 0.82827 0.10738 0.56189
 H1350 H 0.75272 0.11832 0.52858
 H1351 H 0.78971 0.06967 0.62867
 H1352 H 0.80864 0.08928 0.59880
 C1353 C 0.90835 0.60563 0.27082
 C1354 C 0.92277 0.62303 0.25660
 C1355 C 0.94046 0.63919 0.26856
 C1356 C 0.94461 0.63758 0.29445
 C1357 C 0.92955 0.62103 0.30851
 C1358 C 0.91152 0.60543 0.29697
 C1359 C 0.89185 0.58692 0.25730
 C1360 C 0.87789 0.56812 0.26982
 C1361 C 0.86610 0.54887 0.25648
 C1362 C 0.86744 0.54813 0.23039
 C1363 C 0.87922 0.56787 0.21756
 C1364 C 0.89174 0.58710 0.23084
 C1365 C 0.92043 0.62329 0.23050
 C1366 C 0.90533 0.60564 0.21789
 H1367 H 0.93123 0.63674 0.21958
 H1368 H 0.90498 0.60601 0.19764
 H1369 H 0.95209 0.65192 0.25756
 H1370 H 0.93214 0.61972 0.32858
 H1371 H 0.85679 0.53388 0.26664
 H1372 H 0.88028 0.56727 0.19734
 H1373 H 0.90099 0.59282 0.30887
 H1374 H 0.87667 0.56729 0.28989
 C1375 C 0.92066 0.38880 0.74703
 C1376 C 0.92157 0.39261 0.72087
 C1377 C 0.93651 0.37677 0.70588
 C1378 C 0.95124 0.35726 0.71643
 C1379 C 0.94948 0.35271 0.74216
 C1380 C 0.93435 0.36825 0.75733
 C1381 C 0.90655 0.40778 0.76259
 C1382 C 0.90521 0.40648 0.78889
 C1383 C 0.89480 0.42634 0.80262
 C1384 C 0.88550 0.44777 0.79041
 C1385 C 0.88489 0.44843 0.76428
 C1386 C 0.89537 0.42876 0.75033
 C1387 C 0.90857 0.41288 0.70985
 C1388 C 0.89585 0.43064 0.72427
 H1389 H 0.90906 0.41559 0.68978
 H1390 H 0.88695 0.44653 0.71492
 H1391 H 0.93744 0.38029 0.68595
 H1392 H 0.96057 0.33769 0.75074
 H1393 H 0.89537 0.42558 0.82284
 H1394 H 0.87748 0.46498 0.75485
 H1395 H 0.93428 0.36434 0.77710
 H1396 H 0.91294 0.39077 0.79922
 C1397 C 0.09021 0.61326 0.74181
 C1398 C 0.08981 0.61563 0.71545
 C1399 C 0.07375 0.63352 0.70389
 C1400 C 0.05758 0.64905 0.71808
 C1401 C 0.05936 0.64803 0.74422
 C1402 C 0.07551 0.63038 0.75600
 C1403 C 0.10503 0.59172 0.75317
 C1404 C 0.10530 0.58643 0.77903
 C1405 C 0.11738 0.56475 0.78827
 C1406 C 0.12943 0.54788 0.77197
 C1407 C 0.13037 0.55364 0.74643
 C1408 C 0.11818 0.57515 0.73693
 C1409 C 0.10434 0.59929 0.70063
 C1410 C 0.11829 0.57953 0.71115
 H1411 H 0.10429 0.60133 0.68048
 H1412 H 0.12862 0.56698 0.69879
 H1413 H 0.07270 0.63434 0.68365
 H1414 H 0.04705 0.65981 0.75560
 H1415 H 0.11646 0.56070 0.80807
 H1416 H 0.14007 0.54089 0.73378
 H1417 H 0.07541 0.62979 0.77615
 H1418 H 0.09573 0.59840 0.79231
 C1419 C 0.07790 0.39227 0.24337
 C1420 C 0.08113 0.39130 0.26966
 C1421 C 0.06719 0.37395 0.28380
 C1422 C 0.04989 0.35732 0.27231
 C1423 C 0.04783 0.35710 0.24618
 C1424 C 0.06163 0.37442 0.23181
 C1425 C 0.09104 0.41300 0.22935
 C1426 C 0.08776 0.41704 0.20342
 C1427 C 0.09858 0.43806 0.19183
 C1428 C 0.11287 0.45541 0.20585
 C1429 C 0.11739 0.45080 0.23129
 C1430 C 0.10643 0.43009 0.24314
 C1431 C 0.09750 0.40821 0.28191
 C1432 C 0.11000 0.42710 0.26891
 H1433 H 0.10020 0.40720 0.30199
 H1434 H 0.12199 0.44010 0.27936
 H1435 H 0.06916 0.37396 0.30400
 H1436 H 0.03459 0.34435 0.23694
 H1437 H 0.09495 0.44125 0.17213
 H1438 H 0.12885 0.46395 0.24212
 H1439 H 0.05878 0.37397 0.21183
 H1440 H 0.07631 0.40462 0.19195
   
