data_POSCAR
  _audit_creation_date              2014-09-24
  _audit_creation_method            'ToBaCCo'
  _symmetry_space_group_name_H-M    'P1'
  _symmetry_Int_Tables_number       1
  _symmetry_cell_setting            triclinic
  loop_
  _symmetry_equiv_pos_as_xyz
 x,y,z
_cell_length_a 58.2170
_cell_length_b 58.0905
_cell_length_c 40.1416
_cell_angle_alpha 89.966100
_cell_angle_beta 90.091300
_cell_angle_gamma 90.022200
loop_
  _atom_site_label
  _atom_site_type_symbol
  _atom_site_fract_x
  _atom_site_fract_y
  _atom_site_fract_z
Zr1 Zr -0.04119 0.00451 -0.00209
 O2 O -0.06752 -0.01323 -0.02799
 O3 O -0.06028 0.02554 0.03006
 O4 O -0.05999 -0.01746 0.02967
 O5 O -0.03293 0.04540 -0.06364
 O6 O -0.03242 -0.03801 0.05694
 O7 O -0.06020 0.02657 -0.03331
 O8 O -0.03281 0.04390 0.06059
 O9 O -0.02171 0.00329 0.04174
 O10 O -0.02139 0.03453 -0.00159
 O11 O -0.02188 -0.02596 -0.00548
 O12 O -0.02233 0.00412 -0.04700
 Zr13 Zr 0.03875 0.00284 -0.00511
 Zr14 Zr -0.00112 -0.02609 0.03718
 Zr15 Zr -0.00133 0.03346 -0.04452
 Zr16 Zr -0.00112 0.03267 0.04091
 O17 O -0.00093 0.03152 -0.09715
 O18 O -0.00041 0.02581 0.09279
 O19 O 0.01967 0.03364 -0.00191
 O20 O 0.01965 0.00330 0.03932
 O21 O 0.01921 -0.02738 -0.00572
 O22 O 0.01901 0.00407 -0.04861
 C23 C -0.05390 0.03967 0.05295
 C24 C -0.05398 0.04111 -0.05580
 C25 C -0.05353 -0.03296 0.05067
 O26 O 0.00107 -0.02422 0.08972
 O27 O 0.03028 -0.04057 0.05271
 O28 O 0.05762 -0.02102 0.02352
 C29 C 0.05129 -0.03654 0.04454
 O30 O -0.03222 -0.03697 -0.07083
 Zr31 Zr -0.00131 -0.02531 -0.04819
 O32 O 0.05785 -0.01849 -0.03675
 O33 O -0.00311 -0.06226 0.03164
 O34 O -0.00264 -0.06153 -0.04179
 O35 O 0.00040 -0.02004 -0.10041
 O36 O 0.03037 -0.03900 -0.06424
 C37 C 0.05145 -0.03428 -0.05720
 O38 O 0.06504 0.01943 0.02239
 O39 O -0.00190 0.06970 -0.03921
 O40 O 0.05760 0.02621 -0.03459
 O41 O 0.03009 0.04759 -0.06074
 O42 O -0.00218 0.06904 0.03649
 O43 O 0.02977 0.04737 0.05957
 C44 C 0.05119 0.04253 -0.05431
 H45 H -0.03069 0.04878 -0.00129
 H46 H 0.02988 0.00303 0.05905
 H47 H 0.02845 0.00463 -0.06909
 H48 H -0.03200 -0.03965 -0.00633
 H49 H -0.00444 0.04029 0.10442
 H50 H 0.00028 -0.04025 0.09812
 H51 H -0.00227 -0.06894 0.05433
 H52 H 0.00124 -0.06866 -0.06348
 H53 H -0.00567 0.07538 0.05884
 H54 H -0.00262 0.07624 -0.06199
 H55 H -0.00038 0.04756 -0.10551
 H56 H 0.00407 -0.03508 -0.11077
 H57 H 0.02626 0.05698 0.07929
 H58 H 0.07995 0.01380 0.01363
 H59 H -0.08244 -0.00752 -0.01938
 H60 H -0.02870 -0.04950 -0.08673
 Zr61 Zr 0.53874 0.50282 0.49486
 O62 O 0.56500 0.51948 0.52233
 O63 O 0.55787 0.48140 0.46339
 O64 O 0.55757 0.47903 0.52367
 O65 O 0.53019 0.54741 0.43894
 O66 O 0.53019 0.45958 0.55293
 O67 O 0.55764 0.52607 0.46528
 O68 O 0.53041 0.46083 0.43593
 O69 O 0.51919 0.47261 0.49439
 O70 O 0.51906 0.50393 0.45131
 O71 O 0.51959 0.50342 0.53924
 O72 O 0.51968 0.53364 0.49782
 Zr73 Zr 0.45880 0.50454 0.49768
 Zr74 Zr 0.49881 0.47404 0.53723
 Zr75 Zr 0.49873 0.53335 0.45516
 Zr76 Zr 0.49871 0.47457 0.45186
 O77 O 0.49815 0.56960 0.46027
 O78 O 0.49738 0.43837 0.45849
 O79 O 0.47772 0.50401 0.45282
 O80 O 0.47810 0.47405 0.49452
 O81 O 0.47823 0.50344 0.54156
 O82 O 0.47861 0.53455 0.49803
 C83 C 0.55148 0.46557 0.44299
 C84 C 0.55128 0.54234 0.44545
 C85 C 0.55121 0.46358 0.54478
 O86 O 0.49681 0.43785 0.53192
 O87 O 0.46748 0.46218 0.55698
 O88 O 0.43996 0.48267 0.52952
 C89 C 0.44639 0.46722 0.55062
 O90 O 0.52971 0.54756 0.55922
 Zr91 Zr 0.49884 0.53281 0.54059
 O92 O 0.43968 0.52567 0.52966
 O93 O 0.50093 0.47606 0.58977
 O94 O 0.49950 0.52611 0.59252
 O95 O 0.49778 0.56917 0.53594
 O96 O 0.46713 0.54409 0.56016
 C97 C 0.44605 0.53985 0.55250
 O98 O 0.43249 0.48673 0.47185
 O99 O 0.49921 0.53127 0.40254
 O100 O 0.43985 0.52648 0.46622
 O101 O 0.46715 0.54521 0.43584
 O102 O 0.50047 0.47968 0.39961
 O103 O 0.46782 0.46284 0.42924
 C104 C 0.44610 0.54092 0.44362
 H105 H 0.52852 0.50443 0.43085
 H106 H 0.46798 0.46036 0.49373
 H107 H 0.46931 0.54881 0.49821
 H108 H 0.52980 0.50320 0.55900
 H109 H 0.50129 0.43117 0.43685
 H110 H 0.49762 0.43123 0.55466
 H111 H 0.50013 0.46006 0.59827
 H112 H 0.49547 0.54064 0.60404
 H113 H 0.50414 0.46461 0.38935
 H114 H 0.49978 0.54729 0.39410
 H115 H 0.49746 0.57608 0.43744
 H116 H 0.49427 0.57557 0.55824
 H117 H 0.47136 0.45025 0.41343
 H118 H 0.41756 0.49248 0.48039
 H119 H 0.57992 0.51382 0.51365
 H120 H 0.52619 0.55724 0.57885
 Zr121 Zr 0.54048 -0.00060 0.49281
 O122 O 0.56627 0.01720 0.46597
 O123 O 0.56018 -0.02155 0.52438
 O124 O 0.55967 0.02152 0.52385
 O125 O 0.53141 -0.04171 0.43186
 O126 O 0.53248 0.04188 0.55209
 O127 O 0.55908 -0.02273 0.46130
 O128 O 0.53337 -0.04007 0.55586
 O129 O 0.52174 0.00056 0.53724
 O130 O 0.52082 -0.03069 0.49407
 O131 O 0.52096 0.02977 0.48992
 O132 O 0.52088 -0.00032 0.44849
 Zr133 Zr 0.46039 0.00071 0.49220
 Zr134 Zr 0.50092 0.02982 0.53319
 Zr135 Zr 0.50008 -0.02974 0.45177
 Zr136 Zr 0.50127 -0.02891 0.53717
 O137 O 0.49883 -0.02780 0.39917
 O138 O 0.50148 -0.02191 0.58901
 O139 O 0.47976 -0.02996 0.49498
 O140 O 0.48030 0.00035 0.53602
 O141 O 0.47983 0.03101 0.49093
 O142 O 0.47948 -0.00048 0.44816
 C143 C 0.55429 -0.03574 0.54747
 C144 C 0.55255 -0.03741 0.43917
 C145 C 0.55350 0.03693 0.54512
 O146 O 0.49956 0.02802 0.58579
 O147 O 0.46973 0.04414 0.54962
 O148 O 0.44188 0.02441 0.52162
 C149 C 0.44857 0.03997 0.54238
 O150 O 0.53013 0.04085 0.42429
 Zr151 Zr 0.49968 0.02900 0.44787
 O152 O 0.44070 0.02204 0.46109
 O153 O 0.50267 0.06599 0.52746
 O154 O 0.50089 0.06522 0.45417
 O155 O 0.49717 0.02365 0.39573
 O156 O 0.46770 0.04251 0.43261
 C157 C 0.44674 0.03777 0.44029
 O158 O 0.43462 -0.01606 0.52040
 O159 O 0.50087 -0.06598 0.45711
 O160 O 0.44119 -0.02280 0.46318
 O161 O 0.46854 -0.04408 0.43671
 O162 O 0.50231 -0.06527 0.53275
 O163 O 0.47082 -0.04371 0.55701
 C164 C 0.44749 -0.03917 0.44351
 H165 H 0.53016 -0.04493 0.49415
 H166 H 0.47042 0.00058 0.55608
 H167 H 0.46973 -0.00111 0.42795
 H168 H 0.53099 0.04352 0.48873
 H169 H 0.50581 -0.03635 0.60060
 H170 H 0.50044 0.04405 0.59411
 H171 H 0.50214 0.07270 0.55014
 H172 H 0.49663 0.07234 0.43258
 H173 H 0.50628 -0.07160 0.55495
 H174 H 0.50124 -0.07253 0.43433
 H175 H 0.49818 -0.04384 0.39087
 H176 H 0.49327 0.03865 0.38540
 H177 H 0.47475 -0.05327 0.57663
 H178 H 0.41956 -0.01050 0.51206
 H179 H 0.58135 0.01157 0.47416
 H180 H 0.52626 0.05335 0.40846
 Zr181 Zr -0.03970 0.50088 -0.01079
 O182 O -0.06563 0.48427 0.01733
 O183 O -0.05928 0.52243 -0.04174
 O184 O -0.05810 0.52459 0.01876
 O185 O -0.03178 0.45604 -0.06616
 O186 O -0.03015 0.54423 0.04669
 O187 O -0.05898 0.47734 -0.03967
 O188 O -0.03225 0.54264 -0.07027
 O189 O -0.02013 0.53107 -0.01205
 O190 O -0.02068 0.49960 -0.05486
 O191 O -0.01980 0.50041 0.03304
 O192 O -0.02048 0.47012 -0.00801
 Zr193 Zr 0.04036 0.49916 -0.01020
 Zr194 Zr 0.00096 0.52978 0.03019
 Zr195 Zr -0.00018 0.47027 -0.05122
 Zr196 Zr -0.00032 0.52896 -0.05513
 O197 O 0.00050 0.43402 -0.04602
 O198 O 0.00109 0.56518 -0.04887
 O199 O 0.02078 0.49957 -0.05453
 O200 O 0.02098 0.52962 -0.01310
 O201 O 0.02164 0.50042 0.03424
 O202 O 0.02055 0.46917 -0.00893
 C203 C -0.05331 0.53824 -0.06254
 C204 C -0.05289 0.46083 -0.05933
 C205 C -0.05134 0.54012 0.03951
 O206 O 0.00288 0.56594 0.02443
 O207 O 0.03259 0.54167 0.04906
 O208 O 0.05968 0.52123 0.02076
 C209 C 0.05358 0.53665 0.04206
 O210 O -0.02951 0.45640 0.05397
 Zr211 Zr 0.00102 0.47106 0.03418
 O212 O 0.05997 0.47816 0.02143
 O213 O -0.00037 0.52799 0.08279
 O214 O 0.00125 0.47804 0.08602
 O215 O 0.00190 0.43469 0.02975
 O216 O 0.03306 0.45975 0.05289
 C217 C 0.05401 0.46401 0.04452
 O218 O 0.06623 0.51676 -0.03715
 O219 O -0.00148 0.47223 -0.10382
 O220 O 0.05882 0.47678 -0.04155
 O221 O 0.03110 0.45822 -0.07119
 O222 O -0.00290 0.52360 -0.10726
 O223 O 0.03015 0.54070 -0.07878
 C224 C 0.05234 0.46211 -0.06380
 H225 H -0.03048 0.49901 -0.07502
 H226 H 0.03108 0.54332 -0.01430
 H227 H 0.02981 0.45489 -0.00885
 H228 H -0.02967 0.50068 0.05310
 H229 H -0.00317 0.57231 -0.07045
 H230 H 0.00239 0.57265 0.04712
 H231 H 0.00059 0.54403 0.09110
 H232 H 0.00550 0.46358 0.09760
 H233 H -0.00680 0.53860 -0.11758
 H234 H -0.00221 0.45619 -0.11213
 H235 H 0.00084 0.42750 -0.06882
 H236 H 0.00583 0.42834 0.05197
 H237 H 0.02631 0.55315 -0.09468
 H238 H 0.08128 0.51104 -0.02896
 H239 H -0.08065 0.48992 0.00894
 H240 H -0.02564 0.44682 0.07360
 Zr241 Zr 0.04049 0.50319 0.50591
 O242 O 0.06644 0.48525 0.53233
 O243 O 0.06000 0.52401 0.47401
 O244 O 0.05927 0.48110 0.47450
 O245 O 0.03244 0.54441 0.56698
 O246 O 0.03175 0.46075 0.44680
 O247 O 0.05957 0.52525 0.53688
 O248 O 0.03297 0.54267 0.44298
 O249 O 0.02132 0.50211 0.46181
 O250 O 0.02103 0.53339 0.50499
 O251 O 0.02091 0.47289 0.50919
 O252 O 0.02144 0.50302 0.55062
 Zr253 Zr -0.03947 0.50226 0.50795
 Zr254 Zr 0.00043 0.47293 0.46627
 Zr255 Zr 0.00079 0.53256 0.54770
 Zr256 Zr 0.00101 0.53168 0.46224
 O257 O 0.00013 0.53062 0.60032
 O258 O 0.00061 0.52470 0.41040
 O259 O -0.01999 0.53286 0.50484
 O260 O -0.02006 0.50250 0.46376
 O261 O -0.02021 0.47187 0.50890
 O262 O -0.01992 0.50338 0.55166
 C263 C 0.05395 0.53822 0.45103
 C264 C 0.05345 0.53998 0.55910
 C265 C 0.05285 0.46570 0.45337
 O266 O -0.00149 0.47471 0.41369
 O267 O -0.03100 0.45876 0.45046
 O268 O -0.05843 0.47864 0.47893
 C269 C -0.05205 0.46303 0.45809
 O270 O 0.03073 0.46179 0.57464
 Zr271 Zr 0.00008 0.47380 0.55162
 O272 O -0.05897 0.48111 0.53944
 O273 O 0.00208 0.43675 0.47197
 O274 O 0.00098 0.43757 0.54531
 O275 O -0.00180 0.47914 0.60381
 O276 O -0.03183 0.46051 0.56751
 C277 C -0.05283 0.46538 0.56020
 O278 O -0.06543 0.51916 0.48016
 O279 O 0.00169 0.56880 0.54234
 O280 O -0.05824 0.52584 0.53726
 O281 O -0.03054 0.54700 0.56335
 O282 O 0.00232 0.56804 0.46653
 O283 O -0.02960 0.54660 0.44305
 C284 C -0.05168 0.54216 0.55687
 H285 H 0.03045 0.54758 0.50471
 H286 H -0.03016 0.50230 0.44389
 H287 H -0.02946 0.50406 0.57204
 H288 H 0.03089 0.45912 0.51020
 H289 H 0.00488 0.53912 0.39875
 H290 H -0.00078 0.45867 0.40538
 H291 H 0.00127 0.43005 0.44930
 H292 H -0.00311 0.43049 0.56698
 H293 H 0.00605 0.57432 0.44422
 H294 H 0.00233 0.57534 0.56512
 H295 H -0.00034 0.54668 0.60863
 H296 H -0.00567 0.46415 0.61420
 H297 H -0.02587 0.55611 0.42330
 H298 H -0.08044 0.51367 0.48875
 H299 H 0.08148 0.49079 0.52390
 H300 H 0.02696 0.44928 0.59048
 Zr301 Zr 0.46053 0.00221 0.00795
 O302 O 0.43461 0.01911 -0.01989
 O303 O 0.44100 -0.01898 0.03936
 O304 O 0.44162 -0.02140 -0.02113
 O305 O 0.46937 0.04695 0.06338
 O306 O 0.46909 -0.04127 -0.04954
 O307 O 0.44172 0.02577 0.03723
 O308 O 0.46812 -0.03959 0.06746
 O309 O 0.47981 -0.02817 0.00893
 O310 O 0.48002 0.00333 0.05172
 O311 O 0.48000 0.00247 -0.03619
 O312 O 0.48000 0.03282 0.00491
 Zr313 Zr 0.54050 0.00317 0.00611
 Zr314 Zr 0.50050 -0.02709 -0.03365
 Zr315 Zr 0.50073 0.03251 0.04783
 Zr316 Zr 0.50004 -0.02625 0.05171
 O317 O 0.50162 0.06875 0.04251
 O318 O 0.50100 -0.06248 0.04540
 O319 O 0.52138 0.00298 0.05078
 O320 O 0.52092 -0.02713 0.00933
 O321 O 0.52138 0.00210 -0.03804
 O322 O 0.52102 0.03336 0.00517
 C323 C 0.44713 -0.03473 0.06008
 C324 C 0.44824 0.04210 0.05685
 C325 C 0.44803 -0.03701 -0.04196
 O326 O 0.50214 -0.06327 -0.02797
 O327 O 0.53185 -0.03928 -0.05301
 O328 O 0.55933 -0.01891 -0.02523
 C329 C 0.55294 -0.03434 -0.04636
 O330 O 0.47046 0.04655 -0.05693
 Zr331 Zr 0.50106 0.03166 -0.03764
 O332 O 0.56003 0.02405 -0.02568
 O333 O 0.49866 -0.02529 -0.08623
 O334 O 0.50076 0.02468 -0.08947
 O335 O 0.50231 0.06802 -0.03332
 O336 O 0.53304 0.04271 -0.05676
 C337 C 0.55401 0.03829 -0.04864
 O338 O 0.56642 -0.01476 0.03259
 O339 O 0.50000 0.03055 0.10045
 O340 O 0.55952 0.02522 0.03716
 O341 O 0.53235 0.04438 0.06719
 O342 O 0.49806 -0.02092 0.10389
 O343 O 0.53067 -0.03822 0.07482
 C344 C 0.55337 0.03995 0.05937
 H345 H 0.47046 0.00399 0.07207
 H346 H 0.53091 -0.04090 0.01037
 H347 H 0.53042 0.04756 0.00493
 H348 H 0.46993 0.00227 -0.05608
 H349 H 0.49689 -0.06956 0.06705
 H350 H 0.50136 -0.06997 -0.05064
 H351 H 0.49938 -0.04134 -0.09455
 H352 H 0.50504 0.03911 -0.10111
 H353 H 0.49419 -0.03592 0.11426
 H354 H 0.49951 0.04660 0.10876
 H355 H 0.50223 0.07529 0.06529
 H356 H 0.50605 0.07431 -0.05562
 H357 H 0.52689 -0.05073 0.09066
 H358 H 0.58147 -0.00921 0.02420
 H359 H 0.41958 0.01361 -0.01135
 H360 H 0.47421 0.05605 -0.07668
 Zr361 Zr 0.46018 0.49741 0.00093
 O362 O 0.43443 0.51548 0.02741
 O363 O 0.44040 0.47638 -0.03047
 O364 O 0.44106 0.51933 -0.03048
 O365 O 0.46906 0.45677 0.06268
 O366 O 0.46834 0.53951 -0.05881
 O367 O 0.44151 0.47568 0.03291
 O368 O 0.46724 0.45764 -0.06155
 O369 O 0.47895 0.49821 -0.04347
 O370 O 0.47972 0.46724 0.00022
 O371 O 0.47979 0.52775 0.00343
 O372 O 0.47977 0.49794 0.04528
 Zr373 Zr 0.54019 0.49849 0.00155
 Zr374 Zr 0.49983 0.52745 -0.03983
 Zr375 Zr 0.50046 0.46842 0.04254
 Zr376 Zr 0.49933 0.46869 -0.04288
 O377 O 0.50167 0.47068 0.09512
 O378 O 0.49930 0.47522 -0.09485
 O379 O 0.52079 0.46783 -0.00066
 O380 O 0.52035 0.49792 -0.04228
 O381 O 0.52090 0.52885 0.00239
 O382 O 0.52114 0.49766 0.04564
 C383 C 0.44631 0.46210 -0.05341
 C384 C 0.44794 0.46120 0.05536
 C385 C 0.44730 0.53466 -0.05184
 O386 O 0.50118 0.52527 -0.09240
 O387 O 0.53105 0.54166 -0.05633
 O388 O 0.55881 0.52200 -0.02806
 C389 C 0.55217 0.53752 -0.04892
 O390 O 0.47067 0.53931 0.06890
 Zr391 Zr 0.50108 0.52720 0.04550
 O392 O 0.55997 0.51994 0.03222
 O393 O 0.49818 0.56367 -0.03474
 O394 O 0.50003 0.56338 0.03860
 O395 O 0.50353 0.52217 0.09772
 O396 O 0.53315 0.54069 0.06059
 C397 C 0.55406 0.53580 0.05283
 O398 O 0.56588 0.48148 -0.02646
 O399 O 0.49956 0.43215 0.03769
 O400 O 0.55931 0.47518 0.03091
 O401 O 0.53199 0.45421 0.05807
 O402 O 0.49800 0.43236 -0.03796
 O403 O 0.52978 0.45363 -0.06220
 C404 C 0.55304 0.45908 0.05107
 H405 H 0.47029 0.45305 0.00035
 H406 H 0.53024 0.49801 -0.06232
 H407 H 0.53090 0.49716 0.06584
 H408 H 0.46981 0.54152 0.00441
 H409 H 0.49497 0.46069 -0.10618
 H410 H 0.50039 0.54125 -0.10097
 H411 H 0.49874 0.57022 -0.05753
 H412 H 0.50433 0.57062 0.06007
 H413 H 0.49409 0.42592 -0.06012
 H414 H 0.49914 0.42575 0.06057
 H415 H 0.50223 0.45468 0.10366
 H416 H 0.50751 0.53722 0.10782
 H417 H 0.52589 0.44390 -0.08166
 H418 H 0.58097 0.48704 -0.01821
 H419 H 0.41933 0.50985 0.01930
 H420 H 0.47459 0.55192 0.08449
 Zr421 Zr 0.04022 -0.00135 0.50158
 O422 O 0.06595 -0.01833 0.47362
 O423 O 0.05994 0.02019 0.53220
 O424 O 0.05876 0.02217 0.47190
 O425 O 0.03213 -0.04558 0.55823
 O426 O 0.03094 0.04169 0.44356
 O427 O 0.05939 -0.02458 0.53099
 O428 O 0.03306 0.04091 0.56050
 O429 O 0.02084 0.02896 0.50233
 O430 O 0.02117 -0.00216 0.54568
 O431 O 0.02036 -0.00206 0.45777
 O432 O 0.02089 -0.03207 0.49949
 Zr433 Zr -0.03980 -0.00266 0.50100
 Zr434 Zr -0.00024 0.02743 0.46012
 Zr435 Zr 0.00056 -0.03146 0.54269
 Zr436 Zr 0.00103 0.02732 0.54545
 O437 O -0.00026 -0.06773 0.53798
 O438 O -0.00011 0.06349 0.53841
 O439 O -0.02020 -0.00199 0.54533
 O440 O -0.02027 0.02774 0.50338
 O441 O -0.02104 -0.00187 0.45659
 O442 O -0.02019 -0.03278 0.50039
 C443 C 0.05398 0.03606 0.55277
 C444 C 0.05316 -0.04067 0.55120
 C445 C 0.05208 0.03764 0.45098
 O446 O -0.00198 0.06365 0.46507
 O447 O -0.03176 0.03937 0.44111
 O448 O -0.05899 0.01917 0.46952
 C449 C -0.05279 0.03449 0.44811
 O450 O 0.02991 -0.04635 0.43799
 Zr451 Zr -0.00059 -0.03134 0.45728
 O452 O -0.05953 -0.02381 0.46969
 O453 O 0.00111 0.02516 0.40756
 O454 O -0.00065 -0.02490 0.40529
 O455 O -0.00180 -0.06767 0.46235
 O456 O -0.03264 -0.04252 0.43867
 C457 C -0.05358 -0.03812 0.44681
 O458 O -0.06561 0.01540 0.52740
 O459 O 0.00181 -0.02911 0.59526
 O460 O -0.05841 -0.02437 0.53310
 O461 O -0.03079 -0.04312 0.56294
 O462 O 0.00348 0.02238 0.59769
 O463 O -0.02940 0.03941 0.56880
 C464 C -0.05193 -0.03877 0.55563
 H465 H 0.03094 -0.00261 0.56589
 H466 H -0.03029 0.04149 0.50432
 H467 H -0.02958 -0.04698 0.50059
 H468 H 0.03025 -0.00197 0.43773
 H469 H 0.00419 0.07078 0.55985
 H470 H -0.00145 0.07016 0.44226
 H471 H 0.00027 0.04112 0.39893
 H472 H -0.00494 -0.03946 0.39402
 H473 H 0.00743 0.03746 0.60773
 H474 H 0.00241 -0.04509 0.60386
 H475 H -0.00066 -0.07410 0.56088
 H476 H -0.00570 -0.07415 0.44021
 H477 H -0.02551 0.05206 0.58435
 H478 H -0.08070 0.00970 0.51932
 H479 H 0.08103 -0.01271 0.48185
 H480 H 0.02603 -0.05612 0.41857
 Zr481 Zr 0.75198 0.21064 0.25546
 O482 O 0.73423 0.18429 0.28131
 O483 O 0.77304 0.19147 0.22346
 O484 O 0.73016 0.19179 0.22371
 O485 O 0.79262 0.21892 0.31723
 O486 O 0.70965 0.21928 0.19611
 O487 O 0.77394 0.19159 0.28672
 O488 O 0.79146 0.21897 0.19306
 O489 O 0.75088 0.23009 0.21157
 O490 O 0.78192 0.23047 0.25513
 O491 O 0.72154 0.22998 0.25855
 O492 O 0.75138 0.22955 0.30035
 Zr493 Zr 0.75028 0.29076 0.25837
 Zr494 Zr 0.72154 0.25072 0.21584
 Zr495 Zr 0.78067 0.25056 0.29804
 Zr496 Zr 0.78018 0.25075 0.21262
 O497 O 0.77851 0.25101 0.35065
 O498 O 0.77350 0.25139 0.16068
 O499 O 0.78100 0.27159 0.25545
 O500 O 0.75087 0.27155 0.21396
 O501 O 0.72011 0.27117 0.25870
 O502 O 0.75135 0.27100 0.30187
 C503 C 0.78722 0.19785 0.20069
 C504 C 0.78842 0.19783 0.30928
 C505 C 0.71472 0.19816 0.20261
 O506 O 0.72359 0.25273 0.16331
 O507 O 0.70726 0.28218 0.19998
 O508 O 0.72665 0.30964 0.22931
 C509 C 0.71130 0.30326 0.20804
 O510 O 0.71025 0.21972 0.32377
 Zr511 Zr 0.72203 0.25065 0.30122
 O512 O 0.72886 0.30993 0.28977
 O513 O 0.68543 0.24883 0.22111
 O514 O 0.68591 0.24936 0.29446
 O515 O 0.72710 0.25240 0.35349
 O516 O 0.70835 0.28242 0.31719
 C517 C 0.71307 0.30354 0.31015
 O518 O 0.76700 0.31709 0.23109
 O519 O 0.81685 0.24999 0.29314
 O520 O 0.77349 0.30968 0.28818
 O521 O 0.79472 0.28200 0.31420
 O522 O 0.81646 0.24971 0.21733
 O523 O 0.79491 0.28168 0.19407
 C524 C 0.78974 0.30316 0.30791
 H525 H 0.79615 0.22115 0.25495
 H526 H 0.75069 0.28176 0.19421
 H527 H 0.75185 0.28047 0.32236
 H528 H 0.70788 0.21985 0.25932
 H529 H 0.78799 0.24735 0.14918
 H530 H 0.70762 0.25193 0.15477
 H531 H 0.67884 0.24962 0.19836
 H532 H 0.67871 0.25329 0.31607
 H533 H 0.82285 0.24619 0.19504
 H534 H 0.82329 0.24932 0.31599
 H535 H 0.79449 0.25160 0.35916
 H536 H 0.71206 0.25609 0.36372
 H537 H 0.80453 0.27816 0.17441
 H538 H 0.76133 0.33203 0.23978
 H539 H 0.73994 0.16932 0.27277
 H540 H 0.69769 0.22329 0.33955
 Zr541 Zr 0.74723 0.79283 0.75290
 O542 O 0.76506 0.81884 0.77939
 O543 O 0.72642 0.81238 0.72097
 O544 O 0.76934 0.81177 0.72158
 O545 O 0.70614 0.78442 0.81395
 O546 O 0.78964 0.78418 0.69406
 O547 O 0.72515 0.81179 0.78395
 O548 O 0.70785 0.78532 0.68988
 O549 O 0.74839 0.77369 0.70879
 O550 O 0.71715 0.77322 0.75187
 O551 O 0.77748 0.77322 0.75628
 O552 O 0.74741 0.77359 0.79756
 Zr553 Zr 0.74836 0.71264 0.75478
 Zr554 Zr 0.77752 0.75278 0.71334
 Zr555 Zr 0.71799 0.75280 0.79452
 Zr556 Zr 0.71893 0.75327 0.70908
 O557 O 0.71985 0.75195 0.84715
 O558 O 0.72596 0.75307 0.65727
 O559 O 0.71779 0.73208 0.75162
 O560 O 0.74807 0.73219 0.71065
 O561 O 0.77863 0.73202 0.75593
 O562 O 0.74714 0.73211 0.79854
 C563 C 0.71224 0.80635 0.69797
 C564 C 0.71051 0.80552 0.80620
 C565 C 0.78476 0.80532 0.70057
 O566 O 0.77579 0.75098 0.66076
 O567 O 0.79181 0.72139 0.69752
 O568 O 0.77201 0.69376 0.72583
 C569 C 0.78762 0.70026 0.70510
 O570 O 0.78854 0.78293 0.82179
 Zr571 Zr 0.77660 0.75225 0.79868
 O572 O 0.76955 0.69308 0.78622
 O573 O 0.81362 0.75453 0.71915
 O574 O 0.81276 0.75326 0.79250
 O575 O 0.77115 0.75025 0.85083
 O576 O 0.78991 0.72027 0.81461
 C577 C 0.78517 0.69923 0.80711
 O578 O 0.73157 0.68665 0.72689
 O579 O 0.68184 0.75365 0.78903
 O580 O 0.72489 0.69370 0.78398
 O581 O 0.70362 0.72131 0.80998
 O582 O 0.68263 0.75441 0.71334
 O583 O 0.70411 0.72262 0.68969
 C584 C 0.70854 0.70016 0.80348
 H585 H 0.70297 0.78262 0.75159
 H586 H 0.74832 0.72212 0.69076
 H587 H 0.74646 0.72249 0.81889
 H588 H 0.79122 0.78325 0.75736
 H589 H 0.71157 0.75734 0.64557
 H590 H 0.79181 0.75177 0.65249
 H591 H 0.82033 0.75380 0.69650
 H592 H 0.81981 0.74913 0.81418
 H593 H 0.67635 0.75822 0.69104
 H594 H 0.67529 0.75420 0.81178
 H595 H 0.70383 0.75139 0.85538
 H596 H 0.78608 0.74636 0.86131
 H597 H 0.69463 0.72641 0.66993
 H598 H 0.73708 0.67159 0.73545
 H599 H 0.75949 0.83391 0.77096
 H600 H 0.80097 0.77913 0.83774
 Zr601 Zr 0.25101 0.29149 0.74502
 O602 O 0.23327 0.31751 0.71844
 O603 O 0.27155 0.31101 0.77746
 O604 O 0.22862 0.31021 0.77608
 O605 O 0.29243 0.28338 0.68448
 O606 O 0.20817 0.28252 0.80326
 O607 O 0.27317 0.31066 0.71422
 O608 O 0.28983 0.28378 0.80862
 O609 O 0.24961 0.27216 0.78901
 O610 O 0.28113 0.27197 0.74637
 O611 O 0.22083 0.27173 0.74117
 O612 O 0.25112 0.27234 0.70029
 Zr613 Zr 0.25022 0.21127 0.74274
 Zr614 Zr 0.22056 0.25117 0.78403
 Zr615 Zr 0.28060 0.25169 0.70361
 Zr616 Zr 0.27913 0.25183 0.78899
 O617 O 0.27906 0.25101 0.65095
 O618 O 0.27183 0.25130 0.84072
 O619 O 0.28068 0.23082 0.74638
 O620 O 0.25007 0.23067 0.78698
 O621 O 0.21985 0.23050 0.74134
 O622 O 0.25158 0.23087 0.69910
 C623 C 0.28551 0.30484 0.80070
 C624 C 0.28795 0.30446 0.69211
 C625 C 0.21306 0.30369 0.79684
 O626 O 0.22199 0.24930 0.83663
 O627 O 0.20636 0.21962 0.79966
 O628 O 0.22637 0.19224 0.77117
 C629 C 0.21068 0.19855 0.79187
 O630 O 0.21010 0.28152 0.67552
 Zr631 Zr 0.22202 0.25085 0.69870
 O632 O 0.22942 0.19173 0.71090
 O633 O 0.18450 0.25270 0.77771
 O634 O 0.18582 0.25171 0.70448
 O635 O 0.22776 0.24899 0.64661
 O636 O 0.20888 0.21881 0.68256
 C637 C 0.21379 0.19779 0.68999
 O638 O 0.26688 0.18526 0.77077
 O639 O 0.31672 0.25271 0.70956
 O640 O 0.27400 0.19250 0.71375
 O641 O 0.29520 0.22036 0.68811
 O642 O 0.31544 0.25327 0.78533
 O643 O 0.29396 0.22114 0.80824
 C644 C 0.29040 0.19915 0.69441
 H645 H 0.29527 0.28144 0.74688
 H646 H 0.24975 0.22053 0.80681
 H647 H 0.25242 0.22132 0.67871
 H648 H 0.20707 0.28170 0.73994
 H649 H 0.28614 0.25555 0.85263
 H650 H 0.20593 0.24996 0.84469
 H651 H 0.17765 0.25190 0.80026
 H652 H 0.17890 0.24758 0.68272
 H653 H 0.32153 0.25695 0.80778
 H654 H 0.32341 0.25337 0.68689
 H655 H 0.29513 0.25056 0.64291
 H656 H 0.21291 0.24502 0.63596
 H657 H 0.30332 0.22485 0.82814
 H658 H 0.26148 0.17022 0.76204
 H659 H 0.23873 0.33258 0.72702
 H660 H 0.19777 0.27770 0.65942
 Zr661 Zr 0.24607 0.71024 0.24595
 O662 O 0.26405 0.68428 0.21969
 O663 O 0.22504 0.69063 0.27739
 O664 O 0.26789 0.69119 0.27763
 O665 O 0.20537 0.71881 0.18417
 O666 O 0.28805 0.71867 0.30571
 O667 O 0.22422 0.69138 0.21431
 O668 O 0.20638 0.71763 0.30836
 O669 O 0.24696 0.72928 0.29017
 O670 O 0.21599 0.72987 0.24652
 O671 O 0.27638 0.72980 0.24327
 O672 O 0.24654 0.72959 0.20139
 Zr673 Zr 0.24736 0.79040 0.24454
 Zr674 Zr 0.27617 0.75015 0.28631
 Zr675 Zr 0.21714 0.75040 0.20398
 Zr676 Zr 0.21753 0.74972 0.28944
 O677 O 0.21936 0.75137 0.15139
 O678 O 0.22418 0.74987 0.34139
 O679 O 0.21672 0.77101 0.24700
 O680 O 0.24674 0.77076 0.28857
 O681 O 0.27760 0.77099 0.24385
 O682 O 0.24638 0.77105 0.20065
 C683 C 0.21079 0.69663 0.30025
 C684 C 0.20972 0.69768 0.19182
 C685 C 0.28316 0.69756 0.29901
 O686 O 0.27409 0.75184 0.33887
 O687 O 0.29044 0.78149 0.30255
 O688 O 0.27091 0.80920 0.27396
 C689 C 0.28636 0.80264 0.29496
 O690 O 0.28773 0.72019 0.17790
 Zr691 Zr 0.27579 0.75086 0.20096
 O692 O 0.26874 0.81001 0.21348
 O693 O 0.31229 0.74834 0.28117
 O694 O 0.31191 0.74970 0.20772
 O695 O 0.27073 0.75307 0.14872
 O696 O 0.28933 0.78283 0.18557
 C697 C 0.28454 0.80387 0.19296
 O698 O 0.23053 0.81637 0.27231
 O699 O 0.18096 0.74960 0.20885
 O700 O 0.22404 0.80941 0.21519
 O701 O 0.20295 0.78199 0.18832
 O702 O 0.18127 0.74853 0.28455
 O703 O 0.20261 0.78036 0.30858
 C704 C 0.20785 0.80309 0.19524
 H705 H 0.20181 0.72047 0.24649
 H706 H 0.24687 0.78079 0.30851
 H707 H 0.24586 0.78073 0.18035
 H708 H 0.29009 0.71976 0.24240
 H709 H 0.20970 0.74560 0.35279
 H710 H 0.29004 0.75102 0.34743
 H711 H 0.31886 0.74899 0.30395
 H712 H 0.31910 0.75386 0.18618
 H713 H 0.17486 0.74470 0.30673
 H714 H 0.17454 0.74909 0.18598
 H715 H 0.20338 0.75194 0.14286
 H716 H 0.28576 0.75692 0.13857
 H717 H 0.19298 0.77656 0.32814
 H718 H 0.23610 0.83143 0.26389
 H719 H 0.25840 0.66920 0.22794
 H720 H 0.30026 0.72398 0.16217
 Zr721 Zr 0.25026 0.79083 0.75830
 O722 O 0.26699 0.81716 0.73105
 O723 O 0.22884 0.80999 0.78969
 O724 O 0.22665 0.80971 0.72924
 O725 O 0.29471 0.78204 0.81413
 O726 O 0.20725 0.78227 0.69990
 O727 O 0.27348 0.80974 0.78812
 O728 O 0.20830 0.78248 0.81707
 O729 O 0.22010 0.77124 0.75861
 O730 O 0.25133 0.77105 0.80180
 O731 O 0.25086 0.77163 0.71388
 O732 O 0.28098 0.77166 0.75537
 Zr733 Zr 0.25196 0.71070 0.75534
 Zr734 Zr 0.22153 0.75079 0.71575
 Zr735 Zr 0.28065 0.75061 0.79795
 Zr736 Zr 0.22201 0.75071 0.80112
 O737 O 0.31683 0.75004 0.79306
 O738 O 0.18589 0.74940 0.79435
 O739 O 0.25136 0.72961 0.80025
 O740 O 0.22153 0.73005 0.75844
 O741 O 0.25087 0.73017 0.71147
 O742 O 0.28190 0.73053 0.75503
 C743 C 0.21303 0.80359 0.81004
 C744 C 0.28973 0.80321 0.80784
 C745 C 0.21131 0.80334 0.70797
 O746 O 0.18542 0.74891 0.72100
 O747 O 0.20964 0.71936 0.69598
 O748 O 0.23015 0.69186 0.72357
 C749 C 0.21472 0.69823 0.70247
 O750 O 0.29490 0.78177 0.69402
 Zr751 Zr 0.28017 0.75082 0.71253
 O752 O 0.27302 0.69154 0.72332
 O753 O 0.22358 0.75282 0.66321
 O754 O 0.27349 0.75150 0.66059
 O755 O 0.31645 0.74977 0.71724
 O756 O 0.29143 0.71906 0.69293
 C757 C 0.28719 0.69793 0.70054
 O758 O 0.23422 0.68435 0.78118
 O759 O 0.27848 0.75105 0.85056
 O760 O 0.27394 0.69165 0.78659
 O761 O 0.29260 0.71897 0.81712
 O762 O 0.22707 0.75246 0.85339
 O763 O 0.21023 0.71977 0.82366
 C764 C 0.28840 0.69788 0.80915
 H765 H 0.25183 0.78052 0.82228
 H766 H 0.20786 0.71991 0.75920
 H767 H 0.29613 0.72122 0.75484
 H768 H 0.25068 0.78185 0.69413
 H769 H 0.17869 0.75332 0.81597
 H770 H 0.17882 0.74970 0.69825
 H771 H 0.20761 0.75203 0.65467
 H772 H 0.28799 0.74746 0.64908
 H773 H 0.21204 0.75616 0.86361
 H774 H 0.29446 0.75164 0.85907
 H775 H 0.32327 0.74936 0.81591
 H776 H 0.32284 0.74626 0.69494
 H777 H 0.19768 0.72334 0.83945
 H778 H 0.23993 0.66938 0.77263
 H779 H 0.26133 0.83210 0.73974
 H780 H 0.30453 0.77825 0.67436
 Zr781 Zr 0.24787 0.21271 0.25372
 O782 O 0.23116 0.18658 0.22602
 O783 O 0.26910 0.19332 0.28534
 O784 O 0.27158 0.19380 0.22490
 O785 O 0.20314 0.22145 0.30891
 O786 O 0.29125 0.22139 0.19630
 O787 O 0.22445 0.19381 0.28306
 O788 O 0.28952 0.22067 0.31328
 O789 O 0.27809 0.23218 0.25466
 O790 O 0.24664 0.23232 0.29735
 O791 O 0.24749 0.23212 0.20945
 O792 O 0.21724 0.23207 0.25047
 Zr793 Zr 0.24654 0.29290 0.25129
 Zr794 Zr 0.27689 0.25280 0.21193
 Zr795 Zr 0.21744 0.25292 0.29323
 Zr796 Zr 0.27605 0.25255 0.29727
 O797 O 0.18128 0.25370 0.28780
 O798 O 0.31220 0.25370 0.29104
 O799 O 0.24680 0.27380 0.29608
 O800 O 0.27684 0.27338 0.25473
 O801 O 0.24770 0.27362 0.20731
 O802 O 0.21650 0.27321 0.25045
 C803 C 0.28478 0.19959 0.30605
 C804 C 0.20810 0.20029 0.30254
 C805 C 0.28714 0.20028 0.20408
 O806 O 0.31299 0.25464 0.21764
 O807 O 0.28894 0.28417 0.19245
 O808 O 0.26859 0.31179 0.21985
 C809 C 0.28403 0.30532 0.19887
 O810 O 0.20353 0.22238 0.18865
 Zr811 Zr 0.21829 0.25312 0.20780
 O812 O 0.22566 0.31229 0.21926
 O813 O 0.27510 0.25083 0.15937
 O814 O 0.22526 0.25276 0.15597
 O815 O 0.18200 0.25420 0.21213
 O816 O 0.20713 0.28508 0.18838
 C817 C 0.21148 0.30615 0.19631
 O818 O 0.26431 0.31905 0.27756
 O819 O 0.21934 0.25221 0.34587
 O820 O 0.22446 0.31189 0.28229
 O821 O 0.20557 0.28457 0.31253
 O822 O 0.27068 0.25064 0.34945
 O823 O 0.28788 0.28334 0.32017
 C824 C 0.20988 0.30566 0.30466
 H825 H 0.24601 0.22277 0.31776
 H826 H 0.29055 0.28344 0.25573
 H827 H 0.20230 0.28258 0.25014
 H828 H 0.24774 0.22198 0.18963
 H829 H 0.31928 0.24967 0.31274
 H830 H 0.31968 0.25386 0.19498
 H831 H 0.29110 0.25163 0.15106
 H832 H 0.21086 0.25695 0.14427
 H833 H 0.28564 0.24684 0.35990
 H834 H 0.20332 0.25165 0.35413
 H835 H 0.17474 0.25430 0.31057
 H836 H 0.17568 0.25792 0.18982
 H837 H 0.30032 0.27964 0.33615
 H838 H 0.25869 0.33407 0.26904
 H839 H 0.23671 0.17157 0.23468
 H840 H 0.19400 0.22608 0.16890
 Zr841 Zr 0.75081 0.71058 0.24243
 O842 O 0.76753 0.68451 0.27025
 O843 O 0.72995 0.69112 0.21057
 O844 O 0.72701 0.69146 0.27085
 O845 O 0.79568 0.71985 0.18766
 O846 O 0.70706 0.71878 0.29956
 O847 O 0.77454 0.69191 0.21322
 O848 O 0.70934 0.71827 0.18246
 O849 O 0.72043 0.72981 0.24124
 O850 O 0.75208 0.73031 0.19889
 O851 O 0.75074 0.72987 0.28677
 O852 O 0.78127 0.73015 0.24605
 Zr853 Zr 0.75157 0.79080 0.24515
 Zr854 Zr 0.72121 0.75036 0.28403
 Zr855 Zr 0.78110 0.75113 0.20341
 Zr856 Zr 0.72251 0.75028 0.19871
 O857 O 0.81722 0.75215 0.20922
 O858 O 0.68633 0.75112 0.20463
 O859 O 0.75160 0.77177 0.20031
 O860 O 0.72140 0.77105 0.24129
 O861 O 0.75026 0.77136 0.28903
 O862 O 0.78171 0.77130 0.24627
 C863 C 0.71427 0.69724 0.18977
 C864 C 0.79089 0.69863 0.19384
 C865 C 0.71136 0.69773 0.29165
 O866 O 0.68514 0.75186 0.27785
 O867 O 0.70879 0.78165 0.30340
 O868 O 0.72927 0.80943 0.27647
 C869 C 0.71369 0.80285 0.29718
 O870 O 0.79467 0.72032 0.30783
 Zr871 Zr 0.77979 0.75104 0.28879
 O872 O 0.77217 0.81025 0.27761
 O873 O 0.72274 0.74840 0.33662
 O874 O 0.77259 0.75038 0.34055
 O875 O 0.81609 0.75251 0.28498
 O876 O 0.79052 0.78296 0.30856
 C877 C 0.78617 0.80403 0.30076
 O878 O 0.73375 0.81690 0.21882
 O879 O 0.77946 0.75059 0.15075
 O880 O 0.77366 0.81007 0.21435
 O881 O 0.79287 0.78287 0.18439
 O882 O 0.72817 0.74854 0.14659
 O883 O 0.71054 0.78099 0.17572
 C884 C 0.78839 0.80394 0.19215
 H885 H 0.75289 0.72081 0.17845
 H886 H 0.70763 0.78101 0.24016
 H887 H 0.79584 0.78078 0.24678
 H888 H 0.75045 0.71969 0.30655
 H889 H 0.67936 0.74703 0.18288
 H890 H 0.67832 0.75101 0.30043
 H891 H 0.70669 0.74903 0.34474
 H892 H 0.78691 0.75461 0.35242
 H893 H 0.71331 0.74458 0.13597
 H894 H 0.79552 0.75017 0.14264
 H895 H 0.82387 0.75288 0.18653
 H896 H 0.82223 0.75613 0.30742
 H897 H 0.69819 0.77720 0.15964
 H898 H 0.73922 0.83194 0.22747
 H899 H 0.76213 0.66949 0.26145
 H900 H 0.80407 0.72399 0.32770
 Zr901 Zr 0.74729 0.29121 0.74602
 O902 O 0.73040 0.31722 0.77364
 O903 O 0.76867 0.31078 0.71489
 O904 O 0.77080 0.31011 0.77534
 O905 O 0.70296 0.28261 0.68974
 O906 O 0.79023 0.28252 0.80434
 O907 O 0.72398 0.31013 0.71653
 O908 O 0.78933 0.28356 0.68718
 O909 O 0.77755 0.27184 0.74552
 O910 O 0.74638 0.27176 0.70222
 O911 O 0.74663 0.27167 0.79015
 O912 O 0.71667 0.27178 0.74851
 Zr913 Zr 0.74610 0.21107 0.74781
 Zr914 Zr 0.77610 0.25110 0.78809
 Zr915 Zr 0.71717 0.25109 0.70558
 Zr916 Zr 0.77583 0.25160 0.70272
 O917 O 0.68098 0.25026 0.71037
 O918 O 0.81194 0.25052 0.70957
 O919 O 0.74660 0.23030 0.70316
 O920 O 0.77639 0.23066 0.74514
 O921 O 0.74692 0.23019 0.79196
 O922 O 0.71600 0.23065 0.74822
 C923 C 0.78451 0.30460 0.69444
 C924 C 0.70782 0.30374 0.69657
 C925 C 0.78616 0.30364 0.79652
 O926 O 0.81224 0.24941 0.78305
 O927 O 0.78805 0.21967 0.80759
 O928 O 0.76791 0.19211 0.77962
 C929 C 0.78318 0.19854 0.80096
 O930 O 0.70248 0.28124 0.81005
 Zr931 Zr 0.71746 0.25059 0.79106
 O932 O 0.72507 0.19150 0.77929
 O933 O 0.77394 0.25284 0.84064
 O934 O 0.72405 0.25083 0.84302
 O935 O 0.68120 0.24937 0.78607
 O936 O 0.70629 0.21852 0.81006
 C937 C 0.71076 0.19750 0.80205
 O938 O 0.76414 0.18508 0.72170
 O939 O 0.71945 0.25193 0.65300
 O940 O 0.72429 0.19210 0.71626
 O941 O 0.70544 0.21944 0.68593
 O942 O 0.77084 0.25368 0.65045
 O943 O 0.78783 0.22089 0.67986
 C944 C 0.70980 0.19833 0.69372
 H945 H 0.74588 0.28139 0.68187
 H946 H 0.79012 0.22063 0.74434
 H947 H 0.70183 0.22123 0.74821
 H948 H 0.74672 0.28175 0.81003
 H949 H 0.81915 0.25463 0.68802
 H950 H 0.81877 0.25010 0.80584
 H951 H 0.78989 0.25206 0.84925
 H952 H 0.70957 0.24656 0.85440
 H953 H 0.78588 0.25751 0.64033
 H954 H 0.70349 0.25245 0.64443
 H955 H 0.67459 0.24969 0.68748
 H956 H 0.67477 0.24558 0.80826
 H957 H 0.80038 0.22465 0.66415
 H958 H 0.75851 0.17000 0.73000
 H959 H 0.73596 0.33227 0.76516
 H960 H 0.69285 0.27747 0.82962
 C961 C 0.10247 0.42033 0.89179
 C962 C 0.10874 0.43726 0.91506
 C963 C 0.09218 0.45171 0.92912
 C964 C 0.06871 0.44952 0.92053
 C965 C 0.06272 0.43302 0.89616
 C966 C 0.07935 0.41874 0.88203
 C967 C 0.11975 0.40379 0.87869
 C968 C 0.11386 0.38055 0.87404
 C969 C 0.12999 0.36482 0.86214
 C970 C 0.15253 0.37184 0.85476
 C971 C 0.15848 0.39509 0.85941
 C972 C 0.14227 0.41089 0.87125
 C973 C 0.16949 0.35493 0.84178
 C974 C 0.18496 0.36106 0.81639
 C975 C 0.19971 0.34463 0.80258
 C976 C 0.19924 0.32167 0.81372
 C977 C 0.18433 0.31576 0.83988
 C978 C 0.16972 0.33220 0.85381
 H979 H 0.12639 0.43885 0.92332
 H980 H 0.09785 0.46411 0.94755
 H981 H 0.04507 0.43075 0.88818
 H982 H 0.07401 0.40625 0.86354
 H983 H 0.09680 0.37439 0.88000
 H984 H 0.12468 0.34714 0.85835
 H985 H 0.17573 0.40104 0.85422
 H986 H 0.14733 0.42870 0.87428
 H987 H 0.18510 0.37836 0.80635
 H988 H 0.21092 0.34977 0.78240
 H989 H 0.18368 0.29831 0.84933
 H990 H 0.15842 0.32702 0.87386
 C991 C 0.39387 0.58223 0.39652
 C992 C 0.41664 0.58273 0.38496
 C993 C 0.43345 0.56890 0.39966
 C994 C 0.42789 0.55415 0.42623
 C995 C 0.40494 0.55308 0.43707
 C996 C 0.38812 0.56698 0.42239
 C997 C 0.37649 0.59835 0.38270
 C998 C 0.35371 0.59125 0.37702
 C999 C 0.33739 0.60677 0.36466
 C1000 C 0.34349 0.62972 0.35792
 C1001 C 0.36629 0.63672 0.36346
 C1002 C 0.38255 0.62126 0.37574
 C1003 C 0.32638 0.64643 0.34491
 C1004 C 0.32645 0.66929 0.35633
 C1005 C 0.31184 0.68564 0.34220
 C1006 C 0.29670 0.67955 0.31634
 C1007 C 0.29587 0.65645 0.30591
 C1008 C 0.31058 0.64006 0.32004
 H1009 H 0.42152 0.59399 0.36465
 H1010 H 0.45090 0.57004 0.39047
 H1011 H 0.40004 0.54199 0.45755
 H1012 H 0.37079 0.56636 0.43208
 H1013 H 0.34856 0.57367 0.38192
 H1014 H 0.31993 0.60090 0.36079
 H1015 H 0.37164 0.65418 0.35803
 H1016 H 0.39985 0.62737 0.38027
 H1017 H 0.33805 0.67462 0.37599
 H1018 H 0.31278 0.70320 0.35115
 H1019 H 0.28443 0.65117 0.28603
 H1020 H 0.31020 0.62260 0.31061
 C1021 C 0.89614 0.92025 0.60381
 C1022 C 0.91902 0.91967 0.61501
 C1023 C 0.93577 0.93340 0.59998
 C1024 C 0.93001 0.94813 0.57345
 C1025 C 0.90695 0.94928 0.56299
 C1026 C 0.89022 0.93548 0.57798
 C1027 C 0.87879 0.90421 0.61789
 C1028 C 0.85607 0.91138 0.62361
 C1029 C 0.83971 0.89592 0.63594
 C1030 C 0.84573 0.87294 0.64266
 C1031 C 0.86850 0.86588 0.63719
 C1032 C 0.88480 0.88129 0.62491
 C1033 C 0.82853 0.85627 0.65548
 C1034 C 0.82854 0.83342 0.64402
 C1035 C 0.81377 0.81712 0.65788
 C1036 C 0.79852 0.82327 0.68350
 C1037 C 0.79777 0.84636 0.69399
 C1038 C 0.81265 0.86269 0.68013
 H1039 H 0.92405 0.90842 0.63527
 H1040 H 0.95330 0.93220 0.60886
 H1041 H 0.90190 0.96035 0.54255
 H1042 H 0.87280 0.93615 0.56854
 H1043 H 0.85096 0.92898 0.61870
 H1044 H 0.82228 0.90184 0.63975
 H1045 H 0.87379 0.84841 0.64262
 H1046 H 0.90206 0.87512 0.62037
 H1047 H 0.84019 0.82806 0.62451
 H1048 H 0.81465 0.79957 0.64891
 H1049 H 0.78626 0.85167 0.71370
 H1050 H 0.81232 0.88013 0.68960
 C1051 C 0.60618 0.08163 0.10410
 C1052 C 0.58406 0.08093 0.11802
 C1053 C 0.56698 0.06705 0.10397
 C1054 C 0.57176 0.05340 0.07591
 C1055 C 0.59410 0.05366 0.06261
 C1056 C 0.61108 0.06770 0.07645
 C1057 C 0.62386 0.09744 0.11763
 C1058 C 0.63711 0.11107 0.09603
 C1059 C 0.65313 0.12670 0.10872
 C1060 C 0.65637 0.12885 0.14325
 C1061 C 0.64343 0.11491 0.16484
 C1062 C 0.62723 0.09945 0.15216
 C1063 C 0.67259 0.14614 0.15683
 C1064 C 0.68746 0.14045 0.18314
 C1065 C 0.70176 0.15715 0.19723
 C1066 C 0.70129 0.17998 0.18553
 C1067 C 0.68678 0.18551 0.15866
 C1068 C 0.67266 0.16873 0.14437
 H1069 H 0.57979 0.09165 0.13919
 H1070 H 0.54996 0.06725 0.11481
 H1071 H 0.59837 0.04344 0.04092
 H1072 H 0.62806 0.06775 0.06545
 H1073 H 0.63471 0.11001 0.06932
 H1074 H 0.66298 0.13715 0.09155
 H1075 H 0.64544 0.11638 0.19158
 H1076 H 0.61734 0.08903 0.16933
 H1077 H 0.68790 0.12308 0.19297
 H1078 H 0.71271 0.15230 0.21791
 H1079 H 0.68602 0.20290 0.14900
 H1080 H 0.66124 0.17362 0.12426
 C1081 C 0.89566 0.07795 0.40375
 C1082 C 0.91841 0.07837 0.39216
 C1083 C 0.93492 0.06369 0.40576
 C1084 C 0.92908 0.04813 0.43123
 C1085 C 0.90608 0.04699 0.44181
 C1086 C 0.88955 0.06176 0.42823
 C1087 C 0.87873 0.09508 0.39133
 C1088 C 0.85583 0.08882 0.38482
 C1089 C 0.84008 0.10515 0.37315
 C1090 C 0.84688 0.12811 0.36791
 C1091 C 0.86975 0.13434 0.37462
 C1092 C 0.88545 0.11805 0.38623
 C1093 C 0.83048 0.14549 0.35477
 C1094 C 0.83087 0.16822 0.36677
 C1095 C 0.81676 0.18506 0.35265
 C1096 C 0.80184 0.17956 0.32626
 C1097 C 0.80088 0.15664 0.31502
 C1098 C 0.81505 0.13980 0.32911
 H1099 H 0.92354 0.09029 0.37280
 H1100 H 0.95240 0.06490 0.39672
 H1101 H 0.90099 0.03523 0.46141
 H1102 H 0.87218 0.06111 0.43780
 H1103 H 0.85018 0.07123 0.38835
 H1104 H 0.82254 0.09986 0.36844
 H1105 H 0.87563 0.15178 0.37042
 H1106 H 0.90286 0.12353 0.39150
 H1107 H 0.84227 0.17305 0.38693
 H1108 H 0.81784 0.20249 0.36211
 H1109 H 0.78967 0.15179 0.29465
 H1110 H 0.81451 0.12251 0.31909
 C1111 C 0.39520 0.42404 0.59648
 C1112 C 0.41813 0.42352 0.60743
 C1113 C 0.43453 0.43808 0.59333
 C1114 C 0.42842 0.45364 0.56797
 C1115 C 0.40527 0.45489 0.55800
 C1116 C 0.38884 0.44022 0.57208
 C1117 C 0.37834 0.40702 0.60943
 C1118 C 0.35553 0.41338 0.61632
 C1119 C 0.33982 0.39713 0.62836
 C1120 C 0.34656 0.37415 0.63359
 C1121 C 0.36934 0.36784 0.62659
 C1122 C 0.38500 0.38404 0.61462
 C1123 C 0.33016 0.35679 0.64683
 C1124 C 0.33043 0.33407 0.63480
 C1125 C 0.31629 0.31725 0.64887
 C1126 C 0.30143 0.32275 0.67526
 C1127 C 0.30057 0.34567 0.68655
 C1128 C 0.31479 0.36249 0.67250
 H1129 H 0.42348 0.41162 0.62670
 H1130 H 0.45213 0.43679 0.60190
 H1131 H 0.39996 0.46664 0.53851
 H1132 H 0.37135 0.44096 0.56296
 H1133 H 0.34990 0.43097 0.61277
 H1134 H 0.32234 0.40249 0.63329
 H1135 H 0.37520 0.35039 0.63078
 H1136 H 0.40233 0.37847 0.60907
 H1137 H 0.34175 0.32922 0.61461
 H1138 H 0.31729 0.29984 0.63936
 H1139 H 0.28940 0.35051 0.70692
 H1140 H 0.31431 0.37977 0.68255
 C1141 C 0.60479 0.92376 0.90712
 C1142 C 0.61050 0.93838 0.93374
 C1143 C 0.59384 0.95254 0.94817
 C1144 C 0.57104 0.95218 0.93653
 C1145 C 0.56547 0.93786 0.90945
 C1146 C 0.58219 0.92389 0.89482
 C1147 C 0.62208 0.90779 0.89296
 C1148 C 0.62397 0.90490 0.85833
 C1149 C 0.63955 0.88908 0.84508
 C1150 C 0.65341 0.87565 0.86620
 C1151 C 0.65169 0.87870 0.90082
 C1152 C 0.63627 0.89470 0.91406
 C1153 C 0.66910 0.85808 0.85209
 C1154 C 0.67006 0.83584 0.86581
 C1155 C 0.68382 0.81886 0.85134
 C1156 C 0.69712 0.82383 0.82302
 C1157 C 0.69659 0.84628 0.80985
 C1158 C 0.68265 0.86317 0.82413
 H1159 H 0.62786 0.93877 0.94348
 H1160 H 0.59873 0.96333 0.96900
 H1161 H 0.54810 0.93718 0.89981
 H1162 H 0.57727 0.91266 0.87451
 H1163 H 0.61334 0.91488 0.84151
 H1164 H 0.64038 0.88695 0.81831
 H1165 H 0.66228 0.86869 0.91764
 H1166 H 0.63502 0.89642 0.94086
 H1167 H 0.65963 0.83139 0.88719
 H1168 H 0.68383 0.80176 0.86210
 H1169 H 0.70654 0.85070 0.78797
 H1170 H 0.68240 0.88023 0.81324
 C1171 C 0.10562 0.57859 0.08844
 C1172 C 0.08325 0.57781 0.10144
 C1173 C 0.06652 0.56381 0.08684
 C1174 C 0.07183 0.55007 0.05905
 C1175 C 0.09442 0.55034 0.04665
 C1176 C 0.11109 0.56457 0.06107
 C1177 C 0.12285 0.59463 0.10277
 C1178 C 0.13648 0.60842 0.08187
 C1179 C 0.15167 0.62459 0.09539
 C1180 C 0.15373 0.62711 0.13008
 C1181 C 0.14047 0.61295 0.15096
 C1182 C 0.12512 0.59696 0.13745
 C1183 C 0.16914 0.64486 0.14456
 C1184 C 0.18297 0.63969 0.17227
 C1185 C 0.19658 0.65669 0.18701
 C1186 C 0.19654 0.67935 0.17456
 C1187 C 0.18298 0.68442 0.14647
 C1188 C 0.16952 0.66732 0.13154
 H1189 H 0.07848 0.58858 0.12233
 H1190 H 0.04932 0.56399 0.09707
 H1191 H 0.09907 0.54002 0.02524
 H1192 H 0.12827 0.56469 0.05075
 H1193 H 0.13493 0.60713 0.05505
 H1194 H 0.16180 0.63516 0.07872
 H1195 H 0.14155 0.61465 0.17778
 H1196 H 0.11495 0.58645 0.15414
 H1197 H 0.18318 0.62247 0.18262
 H1198 H 0.20675 0.65217 0.20866
 H1199 H 0.18255 0.70166 0.13624
 H1200 H 0.15887 0.67185 0.11039
 C1201 C 0.39497 0.92215 0.10322
 C1202 C 0.41757 0.92171 0.11553
 C1203 C 0.43434 0.93613 0.10211
 C1204 C 0.42888 0.95143 0.07614
 C1205 C 0.40608 0.95245 0.06460
 C1206 C 0.38930 0.93794 0.07799
 C1207 C 0.37773 0.90544 0.11568
 C1208 C 0.35486 0.91210 0.12140
 C1209 C 0.33872 0.89609 0.13280
 C1210 C 0.34513 0.87309 0.13852
 C1211 C 0.36800 0.86650 0.13281
 C1212 C 0.38408 0.88246 0.12149
 C1213 C 0.32824 0.85594 0.15071
 C1214 C 0.32845 0.83336 0.13819
 C1215 C 0.31383 0.81664 0.15130
 C1216 C 0.29855 0.82212 0.17718
 C1217 C 0.29775 0.84492 0.18894
 C1218 C 0.31246 0.86165 0.17584
 H1219 H 0.42235 0.91004 0.13541
 H1220 H 0.45167 0.93504 0.11182
 H1221 H 0.40131 0.96397 0.04452
 H1222 H 0.37207 0.93852 0.06780
 H1223 H 0.34951 0.92973 0.11734
 H1224 H 0.32118 0.90163 0.13679
 H1225 H 0.37355 0.84900 0.13744
 H1226 H 0.40148 0.87671 0.11687
 H1227 H 0.34010 0.82856 0.11837
 H1228 H 0.31476 0.79932 0.14144
 H1229 H 0.28625 0.84969 0.20895
 H1230 H 0.31204 0.87886 0.18618
 C1231 C 0.60312 0.42179 0.40028
 C1232 C 0.60898 0.43770 0.42522
 C1233 C 0.59237 0.45244 0.43842
 C1234 C 0.56953 0.45149 0.42702
 C1235 C 0.56386 0.43604 0.40136
 C1236 C 0.58048 0.42141 0.38810
 C1237 C 0.62024 0.40496 0.38796
 C1238 C 0.61376 0.38199 0.38232
 C1239 C 0.62976 0.36595 0.37105
 C1240 C 0.65265 0.37246 0.36529
 C1241 C 0.65918 0.39543 0.37093
 C1242 C 0.64313 0.41152 0.38221
 C1243 C 0.66943 0.35530 0.35293
 C1244 C 0.68523 0.36115 0.32789
 C1245 C 0.69991 0.34450 0.31466
 C1246 C 0.69903 0.32163 0.32613
 C1247 C 0.68370 0.31598 0.35187
 C1248 C 0.66911 0.33264 0.36517
 H1249 H 0.62622 0.43824 0.43533
 H1250 H 0.59729 0.46408 0.45825
 H1251 H 0.54649 0.43501 0.39179
 H1252 H 0.57557 0.40963 0.36843
 H1253 H 0.59634 0.37633 0.38698
 H1254 H 0.62412 0.34847 0.36648
 H1255 H 0.67674 0.40090 0.36692
 H1256 H 0.64857 0.42914 0.38613
 H1257 H 0.68571 0.37842 0.31773
 H1258 H 0.71145 0.34941 0.29475
 H1259 H 0.68272 0.29859 0.36149
 H1260 H 0.65743 0.32773 0.38490
 C1261 C 0.89572 0.58106 0.89738
 C1262 C 0.91871 0.58333 0.88743
 C1263 C 0.93560 0.56875 0.90019
 C1264 C 0.93002 0.55128 0.92330
 C1265 C 0.90667 0.54848 0.93211
 C1266 C 0.88982 0.56324 0.91940
 C1267 C 0.87823 0.59782 0.88564
 C1268 C 0.85592 0.59067 0.87705
 C1269 C 0.83965 0.60665 0.86586
 C1270 C 0.84536 0.63010 0.86309
 C1271 C 0.86764 0.63719 0.87185
 C1272 C 0.88382 0.62129 0.88308
 C1273 C 0.82846 0.64717 0.85048
 C1274 C 0.82756 0.66940 0.86421
 C1275 C 0.81309 0.68612 0.85065
 C1276 C 0.79900 0.68095 0.82321
 C1277 C 0.79922 0.65847 0.81024
 C1278 C 0.81385 0.64177 0.82368
 H1279 H 0.92372 0.59655 0.86985
 H1280 H 0.95313 0.57154 0.89209
 H1281 H 0.90134 0.53532 0.94962
 H1282 H 0.87225 0.56113 0.92768
 H1283 H 0.85113 0.57269 0.87855
 H1284 H 0.82257 0.60067 0.85955
 H1285 H 0.87272 0.65505 0.86955
 H1286 H 0.90073 0.62743 0.89001
 H1287 H 0.83824 0.67397 0.88530
 H1288 H 0.81316 0.70320 0.86146
 H1289 H 0.78866 0.65395 0.78900
 H1290 H 0.81429 0.62488 0.81232
 C1291 C 0.10689 0.07866 0.59503
 C1292 C 0.08482 0.07824 0.60912
 C1293 C 0.06773 0.06413 0.59574
 C1294 C 0.07242 0.04997 0.56819
 C1295 C 0.09468 0.05000 0.55463
 C1296 C 0.11170 0.06431 0.56781
 C1297 C 0.12454 0.09464 0.60808
 C1298 C 0.13763 0.10813 0.58612
 C1299 C 0.15335 0.12420 0.59845
 C1300 C 0.15641 0.12689 0.63293
 C1301 C 0.14369 0.11302 0.65486
 C1302 C 0.12782 0.09711 0.64255
 C1303 C 0.17219 0.14466 0.64613
 C1304 C 0.18701 0.13960 0.67275
 C1305 C 0.20100 0.15671 0.68637
 C1306 C 0.20027 0.17933 0.67386
 C1307 C 0.18571 0.18427 0.64681
 C1308 C 0.17190 0.16708 0.63299
 H1309 H 0.08062 0.08931 0.62993
 H1310 H 0.05077 0.06448 0.60679
 H1311 H 0.09884 0.03935 0.53334
 H1312 H 0.12864 0.06420 0.55668
 H1313 H 0.13528 0.10668 0.55944
 H1314 H 0.16307 0.13459 0.58104
 H1315 H 0.14558 0.11490 0.68157
 H1316 H 0.11804 0.08679 0.65997
 H1317 H 0.18770 0.12239 0.68312
 H1318 H 0.21199 0.15232 0.70721
 H1319 H 0.18477 0.20149 0.63656
 H1320 H 0.16046 0.17147 0.61265
 C1321 C 0.10461 0.42392 0.40641
 C1322 C 0.11038 0.43851 0.43303
 C1323 C 0.09375 0.45263 0.44762
 C1324 C 0.07091 0.45224 0.43613
 C1325 C 0.06528 0.43795 0.40905
 C1326 C 0.08197 0.42403 0.39427
 C1327 C 0.12187 0.40799 0.39209
 C1328 C 0.12362 0.40513 0.35744
 C1329 C 0.13915 0.38932 0.34404
 C1330 C 0.15308 0.37587 0.36503
 C1331 C 0.15151 0.37891 0.39967
 C1332 C 0.13614 0.39490 0.41306
 C1333 C 0.16868 0.35827 0.35078
 C1334 C 0.16967 0.33604 0.36452
 C1335 C 0.18335 0.31904 0.34995
 C1336 C 0.19653 0.32398 0.32150
 C1337 C 0.19597 0.34642 0.30830
 C1338 C 0.18212 0.36333 0.32269
 H1339 H 0.12777 0.43892 0.44265
 H1340 H 0.09868 0.46340 0.46845
 H1341 H 0.04787 0.43726 0.39953
 H1342 H 0.07699 0.41281 0.37396
 H1343 H 0.11293 0.41511 0.34072
 H1344 H 0.13987 0.38719 0.31726
 H1345 H 0.16216 0.36889 0.41639
 H1346 H 0.13500 0.39661 0.43987
 H1347 H 0.15933 0.33161 0.38600
 H1348 H 0.18339 0.30195 0.36074
 H1349 H 0.20583 0.35081 0.28634
 H1350 H 0.18184 0.38039 0.31178
 C1351 C 0.39578 0.57816 0.90374
 C1352 C 0.41856 0.57865 0.89230
 C1353 C 0.43507 0.56398 0.90592
 C1354 C 0.42919 0.54835 0.93128
 C1355 C 0.40617 0.54714 0.94174
 C1356 C 0.38964 0.56191 0.92813
 C1357 C 0.37884 0.59526 0.89128
 C1358 C 0.35597 0.58893 0.88463
 C1359 C 0.34020 0.60524 0.87292
 C1360 C 0.34695 0.62822 0.86778
 C1361 C 0.36978 0.63451 0.87462
 C1362 C 0.38550 0.61825 0.88627
 C1363 C 0.33053 0.64558 0.85463
 C1364 C 0.33083 0.66829 0.86670
 C1365 C 0.31670 0.68512 0.85259
 C1366 C 0.30184 0.67962 0.82612
 C1367 C 0.30096 0.65671 0.81481
 C1368 C 0.31516 0.63989 0.82890
 H1369 H 0.42372 0.59062 0.87301
 H1370 H 0.45257 0.56524 0.89698
 H1371 H 0.40104 0.53533 0.96125
 H1372 H 0.37225 0.56120 0.93760
 H1373 H 0.35036 0.57132 0.88807
 H1374 H 0.32269 0.59991 0.86811
 H1375 H 0.37563 0.65197 0.87050
 H1376 H 0.40288 0.62377 0.89164
 H1377 H 0.34218 0.67312 0.88692
 H1378 H 0.31772 0.70253 0.86211
 H1379 H 0.28980 0.65186 0.79438
 H1380 H 0.31467 0.62261 0.81881
 C1381 C 0.60546 0.07906 0.59133
 C1382 C 0.58305 0.07838 0.60422
 C1383 C 0.56635 0.06432 0.58968
 C1384 C 0.57171 0.05043 0.56207
 C1385 C 0.59433 0.05061 0.54979
 C1386 C 0.61098 0.06489 0.56415
 C1387 C 0.62268 0.09515 0.60554
 C1388 C 0.63639 0.10878 0.58454
 C1389 C 0.65162 0.12497 0.59792
 C1390 C 0.65363 0.12766 0.63259
 C1391 C 0.64028 0.11367 0.65358
 C1392 C 0.62490 0.09767 0.64021
 C1393 C 0.66910 0.14542 0.64692
 C1394 C 0.68288 0.14033 0.67470
 C1395 C 0.69656 0.15736 0.68928
 C1396 C 0.69661 0.17995 0.67659
 C1397 C 0.68309 0.18493 0.64843
 C1398 C 0.66957 0.16782 0.63366
 H1399 H 0.57825 0.08927 0.62496
 H1400 H 0.54912 0.06458 0.59982
 H1401 H 0.59903 0.04017 0.52853
 H1402 H 0.62819 0.06492 0.55392
 H1403 H 0.63488 0.10735 0.55772
 H1404 H 0.66182 0.13540 0.58117
 H1405 H 0.64133 0.11551 0.68039
 H1406 H 0.61466 0.08728 0.65697
 H1407 H 0.68302 0.12317 0.68523
 H1408 H 0.70669 0.15290 0.71100
 H1409 H 0.68273 0.20213 0.63802
 H1410 H 0.65896 0.17227 0.61243
 C1411 C 0.89537 0.92375 0.09651
 C1412 C 0.91832 0.92321 0.10738
 C1413 C 0.93470 0.93780 0.09328
 C1414 C 0.92854 0.95341 0.06801
 C1415 C 0.90537 0.95467 0.05813
 C1416 C 0.88897 0.93998 0.07221
 C1417 C 0.87854 0.90670 0.10946
 C1418 C 0.85575 0.91304 0.11649
 C1419 C 0.84007 0.89676 0.12854
 C1420 C 0.84682 0.87378 0.13364
 C1421 C 0.86959 0.86749 0.12650
 C1422 C 0.88522 0.88371 0.11452
 C1423 C 0.83046 0.85638 0.14688
 C1424 C 0.83071 0.83369 0.13475
 C1425 C 0.81662 0.81684 0.14882
 C1426 C 0.80181 0.82227 0.17531
 C1427 C 0.80098 0.84516 0.18671
 C1428 C 0.81515 0.86202 0.17267
 H1429 H 0.92371 0.91127 0.12658
 H1430 H 0.95231 0.93651 0.10179
 H1431 H 0.90003 0.96647 0.03871
 H1432 H 0.87146 0.94073 0.06316
 H1433 H 0.85011 0.93064 0.11304
 H1434 H 0.82260 0.90211 0.13358
 H1435 H 0.87547 0.85003 0.13060
 H1436 H 0.90253 0.87816 0.10888
 H1437 H 0.84198 0.82889 0.11448
 H1438 H 0.81759 0.79945 0.13922
 H1439 H 0.78986 0.84995 0.20717
 H1440 H 0.81469 0.87928 0.18279
 C1441 C 0.89378 0.08283 0.89788
 C1442 C 0.91650 0.08324 0.88608
 C1443 C 0.93331 0.06927 0.90052
 C1444 C 0.92780 0.05446 0.92705
 C1445 C 0.90489 0.05349 0.93812
 C1446 C 0.88808 0.06752 0.92370
 C1447 C 0.87642 0.09907 0.88431
 C1448 C 0.85358 0.09209 0.87883
 C1449 C 0.83729 0.10769 0.86663
 C1450 C 0.84347 0.13061 0.85983
 C1451 C 0.86632 0.13751 0.86520
 C1452 C 0.88256 0.12196 0.87733
 C1453 C 0.82640 0.14739 0.84686
 C1454 C 0.82663 0.17028 0.85810
 C1455 C 0.81203 0.18666 0.84398
 C1456 C 0.79675 0.18055 0.81831
 C1457 C 0.79578 0.15741 0.80805
 C1458 C 0.81047 0.14101 0.82216
 H1459 H 0.92134 0.09453 0.86580
 H1460 H 0.95072 0.07034 0.89117
 H1461 H 0.90004 0.04235 0.95858
 H1462 H 0.87079 0.06696 0.93357
 H1463 H 0.84836 0.07452 0.88375
 H1464 H 0.81979 0.10191 0.86291
 H1465 H 0.87174 0.15494 0.85973
 H1466 H 0.89991 0.12798 0.88171
 H1467 H 0.83833 0.17563 0.87761
 H1468 H 0.81309 0.20425 0.85279
 H1469 H 0.78423 0.15211 0.78831
 H1470 H 0.80997 0.12352 0.81284
 C1471 C 0.10629 0.58165 0.60379
 C1472 C 0.08419 0.58090 0.61778
 C1473 C 0.06710 0.56703 0.60373
 C1474 C 0.07185 0.55343 0.57562
 C1475 C 0.09418 0.55373 0.56223
 C1476 C 0.11116 0.56777 0.57607
 C1477 C 0.12397 0.59746 0.61733
 C1478 C 0.13718 0.61115 0.59575
 C1479 C 0.15318 0.62679 0.60846
 C1480 C 0.15645 0.62889 0.64299
 C1481 C 0.14355 0.61489 0.66456
 C1482 C 0.12737 0.59942 0.65186
 C1483 C 0.17264 0.64620 0.65660
 C1484 C 0.18753 0.64050 0.68288
 C1485 C 0.20181 0.65721 0.69700
 C1486 C 0.20129 0.68006 0.68537
 C1487 C 0.18676 0.68559 0.65852
 C1488 C 0.17267 0.66881 0.64420
 H1489 H 0.07994 0.59158 0.63900
 H1490 H 0.05010 0.56719 0.61464
 H1491 H 0.09842 0.54355 0.54050
 H1492 H 0.12812 0.56787 0.56501
 H1493 H 0.13475 0.61012 0.56904
 H1494 H 0.16299 0.63729 0.59130
 H1495 H 0.14558 0.61633 0.69130
 H1496 H 0.11752 0.58896 0.66901
 H1497 H 0.18801 0.62312 0.69266
 H1498 H 0.21278 0.65235 0.71766
 H1499 H 0.18596 0.70300 0.64891
 H1500 H 0.16122 0.67370 0.62411
 C1501 C 0.60399 0.91987 0.39311
 C1502 C 0.60995 0.93502 0.41901
 C1503 C 0.59343 0.94943 0.43325
 C1504 C 0.57054 0.94898 0.42198
 C1505 C 0.56475 0.93433 0.39539
 C1506 C 0.58129 0.92000 0.38109
 C1507 C 0.62106 0.90328 0.37964
 C1508 C 0.61443 0.88060 0.37215
 C1509 C 0.63040 0.86476 0.36010
 C1510 C 0.65345 0.87113 0.35533
 C1511 C 0.66012 0.89384 0.36269
 C1512 C 0.64410 0.90973 0.37477
 C1513 C 0.67027 0.85410 0.34236
 C1514 C 0.68675 0.86049 0.31852
 C1515 C 0.70141 0.84402 0.30462
 C1516 C 0.69987 0.82077 0.31420
 C1517 C 0.68392 0.81457 0.33891
 C1518 C 0.66935 0.83103 0.35284
 H1519 H 0.62722 0.93517 0.42908
 H1520 H 0.59848 0.96040 0.45381
 H1521 H 0.54734 0.93366 0.38590
 H1522 H 0.57624 0.90886 0.36074
 H1523 H 0.59691 0.87496 0.37606
 H1524 H 0.62460 0.84752 0.35420
 H1525 H 0.67778 0.89924 0.35949
 H1526 H 0.64971 0.92712 0.38005
 H1527 H 0.68778 0.87809 0.30974
 H1528 H 0.71346 0.84941 0.28562
 H1529 H 0.68238 0.79688 0.34714
 H1530 H 0.65720 0.82563 0.37168
 C1531 C 0.39582 0.42015 0.10301
 C1532 C 0.41869 0.41945 0.11427
 C1533 C 0.43550 0.43321 0.09943
 C1534 C 0.42982 0.44807 0.07303
 C1535 C 0.40678 0.44934 0.06252
 C1536 C 0.38999 0.43552 0.07732
 C1537 C 0.37840 0.40412 0.11689
 C1538 C 0.35568 0.41134 0.12257
 C1539 C 0.33925 0.39588 0.13469
 C1540 C 0.34518 0.37287 0.14125
 C1541 C 0.36794 0.36575 0.13582
 C1542 C 0.38432 0.38115 0.12373
 C1543 C 0.32790 0.35621 0.15393
 C1544 C 0.32787 0.33339 0.14240
 C1545 C 0.31304 0.31711 0.15618
 C1546 C 0.29778 0.32325 0.18179
 C1547 C 0.29707 0.34633 0.19233
 C1548 C 0.31201 0.36264 0.17856
 H1549 H 0.42365 0.40809 0.13443
 H1550 H 0.45302 0.43191 0.10833
 H1551 H 0.40178 0.46053 0.04217
 H1552 H 0.37259 0.43629 0.06782
 H1553 H 0.35065 0.42898 0.11778
 H1554 H 0.32183 0.40185 0.13848
 H1555 H 0.37316 0.34823 0.14113
 H1556 H 0.40156 0.37494 0.11921
 H1557 H 0.33953 0.32802 0.12291
 H1558 H 0.31390 0.29956 0.14718
 H1559 H 0.28556 0.35165 0.21204
 H1560 H 0.31171 0.38007 0.18809
 C1561 C 0.60706 0.57831 0.09503
 C1562 C 0.58501 0.57790 0.10917
 C1563 C 0.56789 0.56381 0.09582
 C1564 C 0.57253 0.54967 0.06825
 C1565 C 0.59478 0.54967 0.05464
 C1566 C 0.61183 0.56395 0.06778
 C1567 C 0.62474 0.59427 0.10802
 C1568 C 0.63780 0.60777 0.08603
 C1569 C 0.65355 0.62381 0.09831
 C1570 C 0.65669 0.62647 0.13279
 C1571 C 0.64400 0.61260 0.15475
 C1572 C 0.62809 0.59672 0.14248
 C1573 C 0.67253 0.64421 0.14594
 C1574 C 0.68741 0.63909 0.17246
 C1575 C 0.70145 0.65617 0.18606
 C1576 C 0.70071 0.67880 0.17363
 C1577 C 0.68609 0.68380 0.14667
 C1578 C 0.67222 0.66664 0.13287
 H1579 H 0.58084 0.58897 0.13000
 H1580 H 0.55094 0.56419 0.10691
 H1581 H 0.59889 0.53903 0.03333
 H1582 H 0.62875 0.56383 0.05661
 H1583 H 0.63539 0.60633 0.05936
 H1584 H 0.66325 0.63420 0.08088
 H1585 H 0.64595 0.61446 0.18145
 H1586 H 0.61834 0.58639 0.15993
 H1587 H 0.68811 0.62187 0.18278
 H1588 H 0.71249 0.65173 0.20682
 H1589 H 0.68513 0.70104 0.13649
 H1590 H 0.66074 0.67107 0.11261
 C1591 C 0.10305 0.92193 0.89999
 C1592 C 0.10893 0.93784 0.92493
 C1593 C 0.09233 0.95258 0.93816
 C1594 C 0.06949 0.95165 0.92677
 C1595 C 0.06380 0.93622 0.90110
 C1596 C 0.08041 0.92158 0.88781
 C1597 C 0.12015 0.90509 0.88765
 C1598 C 0.11366 0.88213 0.88197
 C1599 C 0.12965 0.86607 0.87073
 C1600 C 0.15255 0.87255 0.86501
 C1601 C 0.15910 0.89551 0.87068
 C1602 C 0.14306 0.91162 0.88194
 C1603 C 0.16933 0.85538 0.85268
 C1604 C 0.18518 0.86122 0.82771
 C1605 C 0.19988 0.84456 0.81453
 C1606 C 0.19897 0.82169 0.82598
 C1607 C 0.18357 0.81604 0.85165
 C1608 C 0.16897 0.83271 0.86490
 H1609 H 0.12618 0.93836 0.93504
 H1610 H 0.09727 0.96421 0.95799
 H1611 H 0.04643 0.93520 0.89154
 H1612 H 0.07548 0.90981 0.86814
 H1613 H 0.09622 0.87648 0.88660
 H1614 H 0.12399 0.84860 0.86613
 H1615 H 0.17667 0.90096 0.86670
 H1616 H 0.14852 0.92923 0.88588
 H1617 H 0.18569 0.87849 0.81757
 H1618 H 0.21146 0.84947 0.79467
 H1619 H 0.18257 0.79864 0.86125
 H1620 H 0.15725 0.82780 0.88458
 C1621 C 0.39457 0.08130 0.39780
 C1622 C 0.41708 0.08158 0.38525
 C1623 C 0.43383 0.06703 0.39847
 C1624 C 0.42846 0.05175 0.42448
 C1625 C 0.40573 0.05089 0.43629
 C1626 C 0.38896 0.06554 0.42309
 C1627 C 0.37735 0.09810 0.38544
 C1628 C 0.35443 0.09153 0.37980
 C1629 C 0.33837 0.10758 0.36822
 C1630 C 0.34491 0.13051 0.36225
 C1631 C 0.36782 0.13702 0.36797
 C1632 C 0.38382 0.12103 0.37947
 C1633 C 0.32813 0.14767 0.34963
 C1634 C 0.32848 0.17036 0.36170
 C1635 C 0.31399 0.18704 0.34815
 C1636 C 0.29870 0.18141 0.32227
 C1637 C 0.29777 0.15851 0.31095
 C1638 C 0.31236 0.14182 0.32449
 H1639 H 0.42180 0.09322 0.36533
 H1640 H 0.45109 0.06800 0.38855
 H1641 H 0.40103 0.03940 0.45641
 H1642 H 0.37181 0.06506 0.43345
 H1643 H 0.34899 0.07395 0.38399
 H1644 H 0.32080 0.10211 0.36424
 H1645 H 0.37347 0.15447 0.36316
 H1646 H 0.40127 0.12670 0.38403
 H1647 H 0.34014 0.17528 0.38151
 H1648 H 0.31501 0.20445 0.35768
 H1649 H 0.28627 0.15361 0.29095
 H1650 H 0.31184 0.12452 0.31447
 C1651 C 0.89501 0.42250 0.60385
 C1652 C 0.91763 0.42208 0.61610
 C1653 C 0.93440 0.43642 0.60250
 C1654 C 0.92893 0.45161 0.57640
 C1655 C 0.90611 0.45261 0.56491
 C1656 C 0.88933 0.43818 0.57849
 C1657 C 0.87776 0.40587 0.61651
 C1658 C 0.85490 0.41258 0.62218
 C1659 C 0.83875 0.39663 0.63373
 C1660 C 0.84513 0.37365 0.63964
 C1661 C 0.86800 0.36702 0.63401
 C1662 C 0.88410 0.38291 0.62254
 C1663 C 0.82822 0.35655 0.65192
 C1664 C 0.82845 0.33393 0.63955
 C1665 C 0.81382 0.31726 0.65275
 C1666 C 0.79851 0.32282 0.67856
 C1667 C 0.79768 0.34565 0.69014
 C1668 C 0.81241 0.36235 0.67696
 H1669 H 0.92242 0.41049 0.63607
 H1670 H 0.95175 0.43535 0.61217
 H1671 H 0.90134 0.46405 0.54474
 H1672 H 0.87210 0.43875 0.56833
 H1673 H 0.84957 0.43020 0.61796
 H1674 H 0.82121 0.40220 0.63766
 H1675 H 0.87354 0.34953 0.63880
 H1676 H 0.90149 0.37712 0.61796
 H1677 H 0.84011 0.32907 0.61979
 H1678 H 0.81476 0.29991 0.64300
 H1679 H 0.78615 0.35050 0.71009
 H1680 H 0.81198 0.37959 0.68718
 C1681 C 0.89832 0.58341 0.08723
 C1682 C 0.89193 0.56912 0.06048
 C1683 C 0.90812 0.55474 0.04522
 C1684 C 0.93105 0.55441 0.05637
 C1685 C 0.93724 0.56835 0.08355
 C1686 C 0.92109 0.58258 0.09883
 C1687 C 0.88166 0.59973 0.10244
 C1688 C 0.88882 0.62194 0.11166
 C1689 C 0.87346 0.63740 0.12611
 C1690 C 0.85044 0.63117 0.13158
 C1691 C 0.84321 0.60894 0.12244
 C1692 C 0.85864 0.59340 0.10794
 C1693 C 0.83422 0.64802 0.14654
 C1694 C 0.81796 0.64121 0.17050
 C1695 C 0.80360 0.65750 0.18563
 C1696 C 0.80525 0.68095 0.17714
 C1697 C 0.82117 0.68758 0.15261
 C1698 C 0.83538 0.67135 0.13749
 H1699 H 0.87458 0.56952 0.05076
 H1700 H 0.90280 0.54428 0.02426
 H1701 H 0.95466 0.56835 0.09307
 H1702 H 0.92648 0.59299 0.11981
 H1703 H 0.90632 0.62751 0.10737
 H1704 H 0.87970 0.65425 0.13327
 H1705 H 0.82555 0.60367 0.12610
 H1706 H 0.85264 0.57635 0.10136
 H1707 H 0.81674 0.62338 0.17818
 H1708 H 0.79153 0.65179 0.20440
 H1709 H 0.82277 0.70541 0.14507
 H1710 H 0.84734 0.67712 0.11861
 C1711 C 0.60299 0.42090 0.59029
 C1712 C 0.58091 0.42244 0.60413
 C1713 C 0.56418 0.43638 0.58943
 C1714 C 0.56922 0.44929 0.56072
 C1715 C 0.59143 0.44801 0.54713
 C1716 C 0.60811 0.43384 0.56165
 C1717 C 0.62035 0.40532 0.60529
 C1718 C 0.63345 0.39062 0.58508
 C1719 C 0.64871 0.37485 0.59938
 C1720 C 0.65133 0.37364 0.63415
 C1721 C 0.63869 0.38879 0.65430
 C1722 C 0.62327 0.40439 0.64002
 C1723 C 0.66648 0.35602 0.64945
 C1724 C 0.68112 0.36169 0.67606
 C1725 C 0.69480 0.34482 0.69110
 C1726 C 0.69391 0.32185 0.68007
 C1727 C 0.67934 0.31626 0.65329
 C1728 C 0.66586 0.33317 0.63808
 H1729 H 0.57641 0.41245 0.62595
 H1730 H 0.54726 0.43699 0.60058
 H1731 H 0.59584 0.45768 0.52496
 H1732 H 0.62505 0.43307 0.55059
 H1733 H 0.63142 0.39086 0.55826
 H1734 H 0.65838 0.36350 0.58326
 H1735 H 0.64024 0.38812 0.68117
 H1736 H 0.61352 0.41567 0.65616
 H1737 H 0.68204 0.37922 0.68515
 H1738 H 0.70583 0.34972 0.71166
 H1739 H 0.67827 0.29878 0.64408
 H1740 H 0.65454 0.32825 0.61785
 C1741 C 0.10226 0.08200 0.40511
 C1742 C 0.10860 0.06753 0.43169
 C1743 C 0.09250 0.05269 0.44620
 C1744 C 0.06972 0.05207 0.43447
 C1745 C 0.06362 0.06610 0.40732
 C1746 C 0.07969 0.08079 0.39278
 C1747 C 0.11872 0.09890 0.39087
 C1748 C 0.11119 0.12109 0.38219
 C1749 C 0.12637 0.13709 0.36855
 C1750 C 0.14955 0.13140 0.36340
 C1751 C 0.15717 0.10923 0.37212
 C1752 C 0.14192 0.09315 0.38580
 C1753 C 0.16552 0.14869 0.34893
 C1754 C 0.18197 0.14234 0.32503
 C1755 C 0.19607 0.15898 0.31024
 C1756 C 0.19398 0.18233 0.31901
 C1757 C 0.17785 0.18853 0.34346
 C1758 C 0.16387 0.17193 0.35827
 H1759 H 0.12580 0.06819 0.44192
 H1760 H 0.09774 0.04214 0.46713
 H1761 H 0.04632 0.06588 0.39736
 H1762 H 0.07439 0.09132 0.37187
 H1763 H 0.09353 0.12620 0.38621
 H1764 H 0.11985 0.15389 0.36169
 H1765 H 0.17497 0.10439 0.36871
 H1766 H 0.14821 0.07614 0.39202
 H1767 H 0.18353 0.12459 0.31711
 H1768 H 0.20831 0.15360 0.29151
 H1769 H 0.17592 0.20629 0.35115
 H1770 H 0.15172 0.17734 0.37709
 C1771 C 0.39701 0.91953 0.91210
 C1772 C 0.41962 0.92024 0.89995
 C1773 C 0.43597 0.93459 0.91459
 C1774 C 0.43015 0.94874 0.94168
 C1775 C 0.40736 0.94856 0.95331
 C1776 C 0.39096 0.93407 0.93867
 C1777 C 0.38020 0.90303 0.89768
 C1778 C 0.35717 0.90932 0.89222
 C1779 C 0.34162 0.89361 0.87830
 C1780 C 0.34877 0.87126 0.86976
 C1781 C 0.37179 0.86504 0.87528
 C1782 C 0.38726 0.88067 0.88913
 C1783 C 0.33250 0.85429 0.85517
 C1784 C 0.33358 0.83107 0.86480
 C1785 C 0.31948 0.81468 0.84974
 C1786 C 0.30378 0.82106 0.82473
 C1787 C 0.30215 0.84442 0.81574
 C1788 C 0.31639 0.86087 0.83080
 H1789 H 0.42471 0.90963 0.87906
 H1790 H 0.45327 0.93447 0.90470
 H1791 H 0.40233 0.95920 0.97420
 H1792 H 0.37373 0.93378 0.94877
 H1793 H 0.35126 0.92648 0.89833
 H1794 H 0.32396 0.89885 0.87457
 H1795 H 0.37795 0.84808 0.86857
 H1796 H 0.40478 0.87515 0.89343
 H1797 H 0.34543 0.82551 0.88400
 H1798 H 0.32103 0.79692 0.85765
 H1799 H 0.29024 0.84993 0.79659
 H1800 H 0.31526 0.87861 0.82269
 C1801 C 0.10547 0.91858 0.59936
 C1802 C 0.08267 0.91809 0.61071
 C1803 C 0.06579 0.93134 0.59510
 C1804 C 0.07131 0.94558 0.56791
 C1805 C 0.09422 0.94633 0.55684
 C1806 C 0.11109 0.93285 0.57229
 C1807 C 0.12306 0.90365 0.61522
 C1808 C 0.13821 0.89065 0.59557
 C1809 C 0.15362 0.87528 0.61042
 C1810 C 0.15436 0.87276 0.64524
 C1811 C 0.13971 0.88629 0.66493
 C1812 C 0.12414 0.90149 0.65007
 C1813 C 0.16960 0.85533 0.66086
 C1814 C 0.18233 0.86056 0.68966
 C1815 C 0.19615 0.84381 0.70476
 C1816 C 0.19728 0.82140 0.69159
 C1817 C 0.18456 0.81626 0.66273
 C1818 C 0.17097 0.83305 0.64747
 H1819 H 0.07778 0.90704 0.63125
 H1820 H 0.04835 0.93039 0.60437
 H1821 H 0.09906 0.95711 0.53598
 H1822 H 0.12857 0.93366 0.56318
 H1823 H 0.13764 0.89184 0.56866
 H1824 H 0.16486 0.86521 0.59466
 H1825 H 0.13980 0.88459 0.69180
 H1826 H 0.11280 0.91146 0.66582
 H1827 H 0.18167 0.87764 0.70040
 H1828 H 0.20568 0.84831 0.72702
 H1829 H 0.18507 0.79920 0.65187
 H1830 H 0.16113 0.82845 0.62554
 C1831 C 0.60363 0.58306 0.39741
 C1832 C 0.60930 0.56836 0.42400
 C1833 C 0.59240 0.55492 0.43935
 C1834 C 0.56939 0.55609 0.42869
 C1835 C 0.56380 0.57073 0.40195
 C1836 C 0.58074 0.58397 0.38641
 C1837 C 0.62133 0.59798 0.38181
 C1838 C 0.62230 0.60058 0.34702
 C1839 C 0.63817 0.61562 0.33249
 C1840 C 0.65320 0.62857 0.35248
 C1841 C 0.65252 0.62564 0.38723
 C1842 C 0.63683 0.61043 0.40173
 C1843 C 0.66879 0.64588 0.33732
 C1844 C 0.67054 0.66798 0.35122
 C1845 C 0.68445 0.68469 0.33646
 C1846 C 0.69716 0.67964 0.30762
 C1847 C 0.69570 0.65739 0.29396
 C1848 C 0.68151 0.64072 0.30854
 H1849 H 0.62685 0.56720 0.43283
 H1850 H 0.59732 0.54383 0.45985
 H1851 H 0.54629 0.57202 0.39300
 H1852 H 0.57582 0.59533 0.36622
 H1853 H 0.61069 0.59105 0.33106
 H1854 H 0.63822 0.61766 0.30567
 H1855 H 0.66404 0.63527 0.40321
 H1856 H 0.63637 0.60890 0.42861
 H1857 H 0.66073 0.67252 0.37315
 H1858 H 0.68522 0.70163 0.34768
 H1859 H 0.70521 0.65298 0.27171
 H1860 H 0.68056 0.62377 0.29741
 C1861 C 0.39707 0.08520 0.10316
 C1862 C 0.39059 0.06873 0.07924
 C1863 C 0.40708 0.05445 0.06447
 C1864 C 0.43040 0.05637 0.07330
 C1865 C 0.43672 0.07248 0.09780
 C1866 C 0.42028 0.08664 0.11256
 C1867 C 0.37999 0.10140 0.11757
 C1868 C 0.38592 0.12458 0.12272
 C1869 C 0.37013 0.13998 0.13633
 C1870 C 0.34791 0.13268 0.14501
 C1871 C 0.34192 0.10949 0.13995
 C1872 C 0.35778 0.09401 0.12628
 C1873 C 0.33123 0.14942 0.15912
 C1874 C 0.31670 0.14332 0.18568
 C1875 C 0.30200 0.15965 0.19997
 C1876 C 0.30157 0.18242 0.18802
 C1877 C 0.31571 0.18828 0.16094
 C1878 C 0.33027 0.17200 0.14664
 H1879 H 0.37287 0.06731 0.07127
 H1880 H 0.40160 0.04222 0.04571
 H1881 H 0.45445 0.07429 0.10555
 H1882 H 0.42579 0.09879 0.13141
 H1883 H 0.40275 0.13093 0.11588
 H1884 H 0.37544 0.15763 0.14033
 H1885 H 0.32488 0.10338 0.14616
 H1886 H 0.35275 0.07622 0.12286
 H1887 H 0.31717 0.12611 0.19603
 H1888 H 0.29139 0.15458 0.22087
 H1889 H 0.31566 0.20557 0.15081
 H1890 H 0.34085 0.17713 0.12576
 C1891 C 0.89648 0.41858 0.89776
 C1892 C 0.91979 0.41550 0.89017
 C1893 C 0.93655 0.42969 0.90418
 C1894 C 0.93057 0.44766 0.92626
 C1895 C 0.90699 0.45113 0.93303
 C1896 C 0.89022 0.43674 0.91900
 C1897 C 0.87901 0.40238 0.88411
 C1898 C 0.85745 0.41020 0.87303
 C1899 C 0.84141 0.39476 0.85960
 C1900 C 0.84656 0.37116 0.85709
 C1901 C 0.86809 0.36341 0.86834
 C1902 C 0.88403 0.37877 0.88177
 C1903 C 0.82981 0.35452 0.84266
 C1904 C 0.82776 0.33228 0.85617
 C1905 C 0.81334 0.31599 0.84145
 C1906 C 0.80038 0.32153 0.81298
 C1907 C 0.80180 0.34399 0.80003
 C1908 C 0.81641 0.36030 0.81466
 H1909 H 0.92518 0.40203 0.87326
 H1910 H 0.95427 0.42630 0.89761
 H1911 H 0.90137 0.46469 0.94964
 H1912 H 0.87239 0.43949 0.92549
 H1913 H 0.85311 0.42830 0.87426
 H1914 H 0.82491 0.40127 0.85143
 H1915 H 0.87280 0.34544 0.86635
 H1916 H 0.90031 0.37207 0.89053
 H1917 H 0.83740 0.32740 0.87815
 H1918 H 0.81245 0.29896 0.85236
 H1919 H 0.79211 0.34878 0.77805
 H1920 H 0.81774 0.37720 0.80344
 C1921 C 0.60667 0.07877 0.90438
 C1922 C 0.61182 0.06513 0.93230
 C1923 C 0.59491 0.05140 0.94690
 C1924 C 0.57241 0.05117 0.93405
 C1925 C 0.56742 0.06444 0.90565
 C1926 C 0.58440 0.07802 0.89090
 C1927 C 0.62413 0.09452 0.89021
 C1928 C 0.62671 0.09663 0.85556
 C1929 C 0.64227 0.11244 0.84223
 C1930 C 0.65543 0.12658 0.86329
 C1931 C 0.65312 0.12421 0.89795
 C1932 C 0.63768 0.10828 0.91128
 C1933 C 0.67084 0.14433 0.84905
 C1934 C 0.67097 0.16678 0.86206
 C1935 C 0.68431 0.18396 0.84727
 C1936 C 0.69793 0.17900 0.81930
 C1937 C 0.69828 0.15635 0.80690
 C1938 C 0.68480 0.13923 0.82155
 H1939 H 0.62892 0.06523 0.94298
 H1940 H 0.59933 0.04143 0.96880
 H1941 H 0.55029 0.06464 0.89511
 H1942 H 0.57991 0.08854 0.86958
 H1943 H 0.61658 0.08612 0.83878
 H1944 H 0.64356 0.11405 0.81542
 H1945 H 0.66319 0.13478 0.91473
 H1946 H 0.63588 0.10716 0.93808
 H1947 H 0.66019 0.17122 0.88306
 H1948 H 0.68366 0.20120 0.85746
 H1949 H 0.70854 0.15193 0.78535
 H1950 H 0.68519 0.12201 0.81124
 C1951 C 0.39450 0.58119 0.60036
 C1952 C 0.38840 0.56601 0.57459
 C1953 C 0.40498 0.55198 0.55973
 C1954 C 0.42801 0.55287 0.57034
 C1955 C 0.43387 0.56743 0.59700
 C1956 C 0.41730 0.58139 0.61184
 C1957 C 0.37751 0.59764 0.61410
 C1958 C 0.38396 0.62053 0.62034
 C1959 C 0.36810 0.63628 0.63279
 C1960 C 0.34536 0.62955 0.63925
 C1961 C 0.33885 0.60664 0.63309
 C1962 C 0.35476 0.59084 0.62051
 C1963 C 0.32878 0.64645 0.65290
 C1964 C 0.31380 0.64031 0.67883
 C1965 C 0.29966 0.65685 0.69360
 C1966 C 0.30025 0.67987 0.68273
 C1967 C 0.31459 0.68576 0.65590
 C1968 C 0.32866 0.66923 0.64115
 H1969 H 0.37099 0.56561 0.56506
 H1970 H 0.39987 0.54100 0.53922
 H1971 H 0.45138 0.56841 0.60603
 H1972 H 0.42241 0.59260 0.63209
 H1973 H 0.40126 0.62637 0.61520
 H1974 H 0.37373 0.65372 0.63774
 H1975 H 0.32140 0.60101 0.63768
 H1976 H 0.34935 0.57327 0.61610
 H1977 H 0.31365 0.62292 0.68856
 H1978 H 0.28886 0.65173 0.71426
 H1979 H 0.31532 0.70326 0.64667
 H1980 H 0.33969 0.67436 0.62076
 C1981 C 0.10682 0.42368 0.09177
 C1982 C 0.08456 0.42444 0.10521
 C1983 C 0.06754 0.43792 0.09032
 C1984 C 0.07244 0.45108 0.06180
 C1985 C 0.09491 0.45081 0.04893
 C1986 C 0.11188 0.43717 0.06369
 C1987 C 0.12437 0.40812 0.10625
 C1988 C 0.13806 0.39436 0.08545
 C1989 C 0.15361 0.37862 0.09907
 C1990 C 0.15590 0.37646 0.13378
 C1991 C 0.14261 0.39062 0.15457
 C1992 C 0.12694 0.40623 0.14094
 C1993 C 0.17141 0.35889 0.14834
 C1994 C 0.18524 0.36418 0.17599
 C1995 C 0.19878 0.34722 0.19094
 C1996 C 0.19865 0.32452 0.17871
 C1997 C 0.18518 0.31938 0.15058
 C1998 C 0.17177 0.33640 0.13550
 H1999 H 0.08012 0.41404 0.12665
 H2000 H 0.05043 0.43775 0.10089
 H2001 H 0.09927 0.46069 0.02695
 H2002 H 0.12896 0.43707 0.05303
 H2003 H 0.13628 0.39531 0.05862
 H2004 H 0.16377 0.36805 0.08248
 H2005 H 0.14387 0.38917 0.18141
 H2006 H 0.11673 0.41675 0.15754
 H2007 H 0.18545 0.38144 0.18618
 H2008 H 0.20892 0.35179 0.21260
 H2009 H 0.18469 0.30209 0.14051
 H2010 H 0.16111 0.33179 0.11440
 C2011 C 0.89397 0.92070 0.40035
 C2012 C 0.91668 0.92016 0.38860
 C2013 C 0.93352 0.93406 0.40299
 C2014 C 0.92805 0.94890 0.42947
 C2015 C 0.90512 0.95012 0.44035
 C2016 C 0.88825 0.93616 0.42592
 C2017 C 0.87670 0.90431 0.38707
 C2018 C 0.85403 0.91131 0.38047
 C2019 C 0.83792 0.89558 0.36809
 C2020 C 0.84416 0.87255 0.36237
 C2021 C 0.86681 0.86561 0.36910
 C2022 C 0.88287 0.88128 0.38131
 C2023 C 0.82742 0.85572 0.34881
 C2024 C 0.82702 0.83304 0.36094
 C2025 C 0.81299 0.81648 0.34610
 C2026 C 0.79898 0.82222 0.31878
 C2027 C 0.79860 0.84517 0.30759
 C2028 C 0.81269 0.86176 0.32246
 H2029 H 0.92149 0.90873 0.36848
 H2030 H 0.95094 0.93282 0.39375
 H2031 H 0.90030 0.96134 0.46072
 H2032 H 0.87091 0.93684 0.43562
 H2033 H 0.84885 0.92899 0.38453
 H2034 H 0.82055 0.90137 0.36327
 H2035 H 0.87222 0.84807 0.36449
 H2036 H 0.90010 0.87530 0.38661
 H2037 H 0.83785 0.82800 0.38165
 H2038 H 0.81355 0.79904 0.35560
 H2039 H 0.78804 0.85018 0.28656
 H2040 H 0.81275 0.87907 0.31245
 C2041 C 0.89725 0.58522 0.60343
 C2042 C 0.89074 0.56889 0.57933
 C2043 C 0.90720 0.55462 0.56449
 C2044 C 0.93051 0.55641 0.57340
 C2045 C 0.93685 0.57239 0.59807
 C2046 C 0.92045 0.58654 0.61292
 C2047 C 0.88020 0.60142 0.61794
 C2048 C 0.88622 0.62455 0.62336
 C2049 C 0.87048 0.63995 0.63707
 C2050 C 0.84821 0.63271 0.64556
 C2051 C 0.84212 0.60956 0.64023
 C2052 C 0.85794 0.59409 0.62647
 C2053 C 0.83156 0.64944 0.65978
 C2054 C 0.81693 0.64326 0.68617
 C2055 C 0.80228 0.65958 0.70058
 C2056 C 0.80201 0.68242 0.68890
 C2057 C 0.81624 0.68837 0.66198
 C2058 C 0.83075 0.67210 0.64756
 H2059 H 0.87303 0.56758 0.57129
 H2060 H 0.90171 0.54250 0.54559
 H2061 H 0.95458 0.57410 0.60589
 H2062 H 0.92597 0.59857 0.63190
 H2063 H 0.90309 0.63087 0.61666
 H2064 H 0.87585 0.65756 0.64128
 H2065 H 0.82505 0.60350 0.64629
 H2066 H 0.85284 0.57634 0.62284
 H2067 H 0.81729 0.62599 0.69632
 H2068 H 0.79157 0.65444 0.72133
 H2069 H 0.81630 0.70571 0.65206
 H2070 H 0.84141 0.67730 0.62680
 C2071 C 0.60530 0.41828 0.09928
 C2072 C 0.58248 0.41775 0.11053
 C2073 C 0.56560 0.43100 0.09490
 C2074 C 0.57116 0.44529 0.06777
 C2075 C 0.59409 0.44608 0.05679
 C2076 C 0.61095 0.43260 0.07226
 C2077 C 0.62289 0.40338 0.11518
 C2078 C 0.63811 0.39044 0.09556
 C2079 C 0.65355 0.37511 0.11044
 C2080 C 0.65424 0.37256 0.14525
 C2081 C 0.63951 0.38603 0.16492
 C2082 C 0.62392 0.40119 0.15003
 C2083 C 0.66951 0.35517 0.16090
 C2084 C 0.68220 0.36041 0.18974
 C2085 C 0.69605 0.34369 0.20485
 C2086 C 0.69726 0.32130 0.19164
 C2087 C 0.68459 0.31614 0.16274
 C2088 C 0.67098 0.33290 0.14748
 H2089 H 0.57757 0.40667 0.13103
 H2090 H 0.54816 0.43002 0.10411
 H2091 H 0.59896 0.45689 0.03598
 H2092 H 0.62844 0.43344 0.06322
 H2093 H 0.63759 0.39165 0.06865
 H2094 H 0.66485 0.36509 0.09470
 H2095 H 0.63957 0.38431 0.19179
 H2096 H 0.61252 0.41111 0.16576
 H2097 H 0.68147 0.37749 0.20051
 H2098 H 0.70554 0.34821 0.22714
 H2099 H 0.68516 0.29909 0.15186
 H2100 H 0.66117 0.32829 0.12552
 C2101 C 0.39596 0.91764 0.39777
 C2102 C 0.41912 0.91620 0.38820
 C2103 C 0.43564 0.93039 0.40277
 C2104 C 0.42949 0.94656 0.42726
 C2105 C 0.40622 0.94849 0.43625
 C2106 C 0.38963 0.93416 0.42166
 C2107 C 0.37881 0.90140 0.38347
 C2108 C 0.35659 0.90876 0.37470
 C2109 C 0.34074 0.89329 0.36086
 C2110 C 0.34675 0.87011 0.35571
 C2111 C 0.36896 0.86282 0.36456
 C2112 C 0.38473 0.87822 0.37832
 C2113 C 0.33013 0.85340 0.34121
 C2114 C 0.32919 0.83073 0.35335
 C2115 C 0.31475 0.81447 0.33863
 C2116 C 0.30069 0.82045 0.31146
 C2117 C 0.30109 0.84331 0.29984
 C2118 C 0.31568 0.85961 0.31456
 H2119 H 0.42452 0.90402 0.36936
 H2120 H 0.45333 0.92856 0.39487
 H2121 H 0.40087 0.96075 0.45500
 H2122 H 0.37195 0.93560 0.42973
 H2123 H 0.35156 0.92655 0.37813
 H2124 H 0.32372 0.89940 0.35454
 H2125 H 0.37429 0.84519 0.36051
 H2126 H 0.40156 0.87188 0.38521
 H2127 H 0.33972 0.82549 0.37429
 H2128 H 0.31472 0.79712 0.34851
 H2129 H 0.29053 0.84848 0.27889
 H2130 H 0.31613 0.87688 0.30444
 C2131 C 0.10337 0.08353 0.89777
 C2132 C 0.10909 0.06889 0.92441
 C2133 C 0.09225 0.05534 0.93972
 C2134 C 0.06926 0.05635 0.92897
 C2135 C 0.06361 0.07094 0.90219
 C2136 C 0.08049 0.08427 0.88669
 C2137 C 0.12098 0.09855 0.88219
 C2138 C 0.12201 0.10107 0.84739
 C2139 C 0.13778 0.11621 0.83286
 C2140 C 0.15267 0.12932 0.85285
 C2141 C 0.15193 0.12648 0.88761
 C2142 C 0.13634 0.11117 0.90211
 C2143 C 0.16819 0.14667 0.83765
 C2144 C 0.16978 0.16884 0.85139
 C2145 C 0.18365 0.18557 0.83659
 C2146 C 0.19648 0.18047 0.80786
 C2147 C 0.19516 0.15817 0.79436
 C2148 C 0.18102 0.14149 0.80898
 H2149 H 0.12663 0.06787 0.93330
 H2150 H 0.09720 0.04431 0.96026
 H2151 H 0.04611 0.07210 0.89317
 H2152 H 0.07553 0.09558 0.86646
 H2153 H 0.11050 0.09141 0.83143
 H2154 H 0.13788 0.11817 0.80603
 H2155 H 0.16334 0.13624 0.90359
 H2156 H 0.13582 0.10970 0.92900
 H2157 H 0.15989 0.17340 0.87323
 H2158 H 0.18431 0.20255 0.84768
 H2159 H 0.20476 0.15372 0.77220
 H2160 H 0.18018 0.12449 0.79798
 C2161 C 0.10311 0.92065 0.08971
 C2162 C 0.08105 0.92218 0.10362
 C2163 C 0.06431 0.93616 0.08904
 C2164 C 0.06931 0.94913 0.06037
 C2165 C 0.09151 0.94787 0.04670
 C2166 C 0.10820 0.93365 0.06111
 C2167 C 0.12047 0.90503 0.10460
 C2168 C 0.13353 0.89034 0.08429
 C2169 C 0.14877 0.87451 0.09848
 C2170 C 0.15143 0.87323 0.13324
 C2171 C 0.13884 0.88836 0.15349
 C2172 C 0.12344 0.90402 0.13932
 C2173 C 0.16656 0.85554 0.14843
 C2174 C 0.18124 0.86114 0.17504
 C2175 C 0.19490 0.84421 0.18998
 C2176 C 0.19396 0.82127 0.17886
 C2177 C 0.17934 0.81576 0.15208
 C2178 C 0.16589 0.83272 0.13697
 H2179 H 0.07658 0.91215 0.12542
 H2180 H 0.04741 0.93677 0.10024
 H2181 H 0.09589 0.95758 0.02457
 H2182 H 0.12512 0.93288 0.05000
 H2183 H 0.13146 0.89063 0.05748
 H2184 H 0.15840 0.86318 0.08229
 H2185 H 0.14043 0.88763 0.18035
 H2186 H 0.11373 0.91529 0.15552
 H2187 H 0.18221 0.87864 0.18420
 H2188 H 0.20597 0.84904 0.21053
 H2189 H 0.17823 0.79829 0.14280
 H2190 H 0.15454 0.82787 0.11675
 C2191 C 0.89691 0.41956 0.41223
 C2192 C 0.91949 0.42030 0.40003
 C2193 C 0.93585 0.43464 0.41464
 C2194 C 0.93005 0.44878 0.44177
 C2195 C 0.90728 0.44858 0.45344
 C2196 C 0.89087 0.43409 0.43883
 C2197 C 0.88010 0.40304 0.39784
 C2198 C 0.85707 0.40931 0.39241
 C2199 C 0.84152 0.39359 0.37848
 C2200 C 0.84869 0.37124 0.36992
 C2201 C 0.87172 0.36504 0.37543
 C2202 C 0.88718 0.38069 0.38928
 C2203 C 0.83244 0.35427 0.35531
 C2204 C 0.83355 0.33104 0.36491
 C2205 C 0.81947 0.31464 0.34983
 C2206 C 0.80377 0.32102 0.32481
 C2207 C 0.80212 0.34438 0.31585
 C2208 C 0.81633 0.36084 0.33094
 H2209 H 0.92458 0.40969 0.37913
 H2210 H 0.95314 0.43454 0.40471
 H2211 H 0.90226 0.45922 0.47435
 H2212 H 0.87365 0.43378 0.44896
 H2213 H 0.85114 0.42646 0.39853
 H2214 H 0.82386 0.39881 0.37476
 H2215 H 0.87789 0.34810 0.36870
 H2216 H 0.90470 0.37518 0.39357
 H2217 H 0.84540 0.32549 0.38411
 H2218 H 0.82104 0.29688 0.35772
 H2219 H 0.79021 0.34989 0.29670
 H2220 H 0.81518 0.37859 0.32285
 C2221 C 0.39808 0.08340 0.58952
 C2222 C 0.39176 0.06900 0.56285
 C2223 C 0.40799 0.05456 0.54781
 C2224 C 0.43089 0.05427 0.55909
 C2225 C 0.43700 0.06831 0.58621
 C2226 C 0.42081 0.08260 0.60127
 C2227 C 0.38138 0.09980 0.60447
 C2228 C 0.38853 0.12204 0.61354
 C2229 C 0.37314 0.13759 0.62773
 C2230 C 0.35009 0.13141 0.63308
 C2231 C 0.34287 0.10915 0.62408
 C2232 C 0.35834 0.09352 0.60984
 C2233 C 0.33384 0.14834 0.64778
 C2234 C 0.31748 0.14163 0.67166
 C2235 C 0.30309 0.15799 0.68657
 C2236 C 0.30480 0.18141 0.67792
 C2237 C 0.32082 0.18794 0.65348
 C2238 C 0.33507 0.17164 0.63858
 H2239 H 0.37444 0.06937 0.55301
 H2240 H 0.40273 0.04402 0.52690
 H2241 H 0.45439 0.06834 0.59583
 H2242 H 0.42614 0.09308 0.62220
 H2243 H 0.40605 0.12757 0.60933
 H2244 H 0.37938 0.15446 0.63479
 H2245 H 0.32519 0.10392 0.62764
 H2246 H 0.35233 0.07646 0.60337
 H2247 H 0.31622 0.12383 0.67947
 H2248 H 0.29094 0.15235 0.70528
 H2249 H 0.32246 0.20575 0.64583
 H2250 H 0.34710 0.17733 0.61975
 C2251 C 0.60246 0.58183 0.90538
 C2252 C 0.60876 0.56731 0.93192
 C2253 C 0.59263 0.55248 0.94637
 C2254 C 0.56986 0.55193 0.93462
 C2255 C 0.56380 0.56601 0.90750
 C2256 C 0.57990 0.58069 0.89302
 C2257 C 0.61896 0.59872 0.89123
 C2258 C 0.61147 0.62095 0.88264
 C2259 C 0.62668 0.63695 0.86909
 C2260 C 0.64985 0.63123 0.86394
 C2261 C 0.65743 0.60902 0.87255
 C2262 C 0.64215 0.59294 0.88615
 C2263 C 0.66585 0.64852 0.84957
 C2264 C 0.68229 0.64220 0.82563
 C2265 C 0.69643 0.65886 0.81094
 C2266 C 0.69438 0.68219 0.81984
 C2267 C 0.67827 0.68836 0.84432
 C2268 C 0.66425 0.67175 0.85904
 H2269 H 0.62597 0.56792 0.94217
 H2270 H 0.59784 0.54189 0.96727
 H2271 H 0.54650 0.56585 0.89753
 H2272 H 0.57463 0.59126 0.87214
 H2273 H 0.59382 0.62608 0.88668
 H2274 H 0.62020 0.65378 0.86231
 H2275 H 0.67523 0.60416 0.86913
 H2276 H 0.64840 0.57591 0.89230
 H2277 H 0.68381 0.62448 0.81761
 H2278 H 0.70865 0.65350 0.79217
 H2279 H 0.67636 0.70610 0.85212
 H2280 H 0.65211 0.67712 0.87789
 C2281 C 0.39370 0.42123 0.89994
 C2282 C 0.41643 0.42053 0.88830
 C2283 C 0.43333 0.43434 0.90274
 C2284 C 0.42790 0.44923 0.92918
 C2285 C 0.40495 0.45061 0.93995
 C2286 C 0.38802 0.43675 0.92545
 C2287 C 0.37637 0.40493 0.88664
 C2288 C 0.35376 0.41205 0.87991
 C2289 C 0.33757 0.39639 0.86756
 C2290 C 0.34367 0.37330 0.86202
 C2291 C 0.36626 0.36624 0.86887
 C2292 C 0.38240 0.38185 0.88105
 C2293 C 0.32685 0.35652 0.84855
 C2294 C 0.32627 0.33391 0.86091
 C2295 C 0.31220 0.31736 0.84614
 C2296 C 0.29831 0.32305 0.81867
 C2297 C 0.29809 0.34596 0.80725
 C2298 C 0.31223 0.36253 0.82206
 H2299 H 0.42122 0.40905 0.86823
 H2300 H 0.45076 0.43297 0.89359
 H2301 H 0.40016 0.46187 0.96027
 H2302 H 0.37067 0.43755 0.93507
 H2303 H 0.34868 0.42977 0.88384
 H2304 H 0.32024 0.40227 0.86264
 H2305 H 0.37158 0.34865 0.86440
 H2306 H 0.39959 0.37577 0.88645
 H2307 H 0.33702 0.32890 0.88174
 H2308 H 0.31264 0.29996 0.85582
 H2309 H 0.28763 0.35092 0.78610
 H2310 H 0.31242 0.37980 0.81188
 C2311 C 0.89458 0.08099 0.10090
 C2312 C 0.88847 0.06583 0.07510
 C2313 C 0.90504 0.05181 0.06023
 C2314 C 0.92807 0.05267 0.07086
 C2315 C 0.93394 0.06719 0.09754
 C2316 C 0.91738 0.08116 0.11240
 C2317 C 0.87759 0.09745 0.11463
 C2318 C 0.88407 0.12033 0.12090
 C2319 C 0.86821 0.13611 0.13330
 C2320 C 0.84545 0.12941 0.13967
 C2321 C 0.83892 0.10650 0.13349
 C2322 C 0.85483 0.09068 0.12097
 C2323 C 0.82886 0.14633 0.15324
 C2324 C 0.81382 0.14020 0.17911
 C2325 C 0.79967 0.15676 0.19381
 C2326 C 0.80030 0.17978 0.18294
 C2327 C 0.81470 0.18565 0.15617
 C2328 C 0.82879 0.16911 0.14149
 H2329 H 0.87107 0.06546 0.06556
 H2330 H 0.89992 0.04085 0.03969
 H2331 H 0.95145 0.06815 0.10658
 H2332 H 0.92249 0.09234 0.13268
 H2333 H 0.90139 0.12615 0.11582
 H2334 H 0.87385 0.15354 0.13827
 H2335 H 0.82146 0.10090 0.13802
 H2336 H 0.84940 0.07312 0.11654
 H2337 H 0.81363 0.12281 0.18884
 H2338 H 0.78882 0.15165 0.21442
 H2339 H 0.81547 0.20315 0.14694
 H2340 H 0.83988 0.17422 0.12115
 C2341 C 0.60731 0.92406 0.59448
 C2342 C 0.58505 0.92468 0.60793
 C2343 C 0.56796 0.93813 0.59314
 C2344 C 0.57279 0.95140 0.56469
 C2345 C 0.59526 0.95127 0.55182
 C2346 C 0.61230 0.93767 0.56649
 C2347 C 0.62493 0.90852 0.60883
 C2348 C 0.63868 0.89491 0.58789
 C2349 C 0.65429 0.87918 0.60138
 C2350 C 0.65659 0.87687 0.63606
 C2351 C 0.64324 0.89088 0.65698
 C2352 C 0.62751 0.90649 0.64350
 C2353 C 0.67214 0.85926 0.65045
 C2354 C 0.68594 0.86445 0.67818
 C2355 C 0.69951 0.84743 0.69297
 C2356 C 0.69942 0.82480 0.68051
 C2357 C 0.68599 0.81977 0.65230
 C2358 C 0.67256 0.83684 0.63737
 H2359 H 0.58067 0.91419 0.62930
 H2360 H 0.55085 0.93784 0.60370
 H2361 H 0.59958 0.96124 0.52990
 H2362 H 0.62937 0.93769 0.55582
 H2363 H 0.63690 0.89597 0.56108
 H2364 H 0.66449 0.86872 0.58469
 H2365 H 0.64451 0.88931 0.68380
 H2366 H 0.61726 0.91690 0.66019
 H2367 H 0.68611 0.88165 0.68855
 H2368 H 0.70961 0.85191 0.71470
 H2369 H 0.68554 0.80253 0.64205
 H2370 H 0.66192 0.83231 0.61621
 C2371 C 0.10667 0.57833 0.40349
 C2372 C 0.11186 0.56466 0.43135
 C2373 C 0.09492 0.55106 0.44615
 C2374 C 0.07235 0.55101 0.43355
 C2375 C 0.06732 0.56431 0.40520
 C2376 C 0.08432 0.57776 0.39026
 C2377 C 0.12417 0.59394 0.38912
 C2378 C 0.12657 0.59606 0.35444
 C2379 C 0.14217 0.61177 0.34095
 C2380 C 0.15555 0.62580 0.36188
 C2381 C 0.15343 0.62341 0.39656
 C2382 C 0.13796 0.60757 0.41005
 C2383 C 0.17094 0.64351 0.34749
 C2384 C 0.17125 0.66592 0.36060
 C2385 C 0.18457 0.68308 0.34572
 C2386 C 0.19799 0.67813 0.31754
 C2387 C 0.19816 0.65551 0.30503
 C2388 C 0.18470 0.63842 0.31977
 H2389 H 0.12902 0.56462 0.44184
 H2390 H 0.09938 0.54106 0.46800
 H2391 H 0.05013 0.56465 0.39485
 H2392 H 0.07980 0.58831 0.36899
 H2393 H 0.11627 0.58564 0.33777
 H2394 H 0.14330 0.61340 0.31413
 H2395 H 0.16367 0.63389 0.41323
 H2396 H 0.13631 0.60644 0.43687
 H2397 H 0.16063 0.67037 0.38177
 H2398 H 0.18406 0.70030 0.35601
 H2399 H 0.20826 0.65110 0.28332
 H2400 H 0.18494 0.62122 0.30938
   
