data_POSCAR
  _audit_creation_date              2014-09-24
  _audit_creation_method            'ToBaCCo'
  _symmetry_space_group_name_H-M    'P1'
  _symmetry_Int_Tables_number       1
  _symmetry_cell_setting            triclinic
  loop_
  _symmetry_equiv_pos_as_xyz
 x,y,z
_cell_length_a 75.5220
_cell_length_b 79.7237
_cell_length_c 73.5695
_cell_angle_alpha 89.480800
_cell_angle_beta 90.247600
_cell_angle_gamma 89.464800
loop_
  _atom_site_label
  _atom_site_type_symbol
  _atom_site_fract_x
  _atom_site_fract_y
  _atom_site_fract_z
C1 C 0.32138 0.42903 0.92011
 C2 C 0.33566 0.43711 0.92849
 C3 C 0.34686 0.42876 0.94115
 C4 C 0.34242 0.41218 0.94626
 C5 C 0.32782 0.40399 0.93845
 C6 C 0.31761 0.41243 0.92519
 H7 H 0.33756 0.45026 0.92551
 H8 H 0.35054 0.40525 0.95589
 H9 H 0.30699 0.40586 0.91847
 C10 C 0.43506 0.83503 0.44465
 C11 C 0.44499 0.82501 0.43261
 C12 C 0.43968 0.80880 0.42806
 C13 C 0.42448 0.80213 0.43610
 C14 C 0.41417 0.81171 0.44811
 C15 C 0.41958 0.82808 0.45229
 H16 H 0.45707 0.82964 0.42668
 H17 H 0.42068 0.78943 0.43288
 H18 H 0.41096 0.83572 0.46058
 C19 C 0.95355 0.93293 0.78360
 C20 C 0.96051 0.93997 0.79947
 C21 C 0.95251 0.95393 0.80780
 C22 C 0.93703 0.96068 0.79969
 C23 C 0.92986 0.95400 0.78362
 C24 C 0.93813 0.93993 0.77575
 H25 H 0.97169 0.93369 0.80589
 H26 H 0.93063 0.97151 0.80557
 H27 H 0.93286 0.93464 0.76337
 C28 C 0.41725 -0.10722 0.32622
 C29 C 0.40269 -0.09758 0.31986
 C30 C 0.39632 -0.08381 0.32971
 C31 C 0.40497 -0.07929 0.34579
 C32 C 0.41986 -0.08825 0.35216
 C33 C 0.42567 -0.10243 0.34253
 H34 H 0.39620 -0.10070 0.30721
 H35 H 0.40016 -0.06856 0.35330
 H36 H 0.43686 -0.10958 0.34772
 C37 C 0.83893 0.32729 0.34915
 C38 C 0.83306 0.34348 0.34402
 C39 C 0.84105 0.35197 0.32937
 C40 C 0.85459 0.34393 0.31967
 C41 C 0.86022 0.32762 0.32421
 C42 C 0.85240 0.31945 0.33911
 H43 H 0.82268 0.34958 0.35171
 H44 H 0.86069 0.35040 0.30834
 H45 H 0.85645 0.30678 0.34271
 C46 C -0.18059 0.84119 0.80922
 C47 C -0.19304 0.83464 0.82159
 C48 C -0.18996 0.81933 0.83098
 C49 C -0.17419 0.81037 0.82728
 C50 C -0.16166 0.81667 0.81508
 C51 C -0.16476 0.83217 0.80649
 H52 H -0.20519 0.84153 0.82394
 H53 H -0.17120 0.79868 0.83426
 H54 H -0.15505 0.83676 0.79693
 C55 C 0.93514 0.34057 0.44440
 C56 C 0.94583 0.33217 0.43159
 C57 C 0.94127 0.31606 0.42542
 C58 C 0.92565 0.30873 0.43190
 C59 C 0.91528 0.31637 0.44533
 C60 C 0.92017 0.33234 0.45147
 H61 H 0.95759 0.33818 0.42639
 H62 H 0.92144 0.29695 0.42619
 H63 H 0.91253 0.33833 0.46204
 C64 C 0.42431 0.42255 0.86166
 C65 C 0.43456 0.40933 0.85436
 C66 C 0.43158 0.40338 0.83674
 C67 C 0.41770 0.41045 0.82643
 C68 C 0.40665 0.42292 0.83364
 C69 C 0.40994 0.42886 0.85124
 H70 H 0.44467 0.40326 0.86262
 H71 H 0.41573 0.40665 0.81249
 H72 H 0.40176 0.43900 0.85629
 C73 C 0.82913 0.88660 0.92057
 C74 C 0.84399 0.89458 0.92789
 C75 C 0.84932 0.91038 0.92142
 C76 C 0.83933 0.91837 0.90760
 C77 C 0.82435 0.91062 0.90008
 C78 C 0.81961 0.89459 0.90646
 H79 H 0.85108 0.88873 0.93914
 H80 H 0.84317 0.93069 0.90282
 H81 H 0.80852 0.88821 0.90035
 C82 C 0.33978 0.86572 0.33112
 C83 C 0.33077 0.85787 0.34574
 C84 C 0.33801 0.84365 0.35457
 C85 C 0.35428 0.83717 0.34884
 C86 C 0.36319 0.84433 0.33419
 C87 C 0.35605 0.85854 0.32548
 H88 H 0.31843 0.86290 0.35083
 H89 H 0.35950 0.82576 0.35506
 H90 H 0.36289 0.86323 0.31362
 C91 C 0.81710 0.41134 0.43801
 C92 C 0.80791 0.42179 0.42586
 C93 C 0.81417 0.43781 0.42152
 C94 C 0.83030 0.44313 0.42914
 C95 C 0.84016 0.43257 0.44113
 C96 C 0.83293 0.41685 0.44573
 H97 H 0.79606 0.41716 0.41934
 H98 H 0.83532 0.45522 0.42506
 H99 H 0.83914 0.40892 0.45597
 C100 C 0.91764 0.85204 -0.07282
 C101 C 0.90293 0.84374 -0.06512
 C102 C 0.89651 0.82862 -0.07210
 C103 C 0.90390 0.82252 -0.08821
 C104 C 0.91727 0.83125 -0.09731
 C105 C 0.92440 0.84574 -0.08941
 H106 H 0.89603 0.84922 -0.05377
 H107 H 0.89963 0.81066 -0.09365
 H108 H 0.93548 0.85159 -0.09609
 C109 C 0.30467 0.33594 0.79772
 C110 C 0.32087 0.33075 0.79033
 C111 C 0.32831 0.31497 0.79488
 C112 C 0.31942 0.30472 0.80763
 C113 C 0.30336 0.31005 0.81551
 C114 C 0.29605 0.32559 0.81022
 H115 H 0.32760 0.33910 0.78101
 H116 H 0.32476 0.29249 0.81124
 H117 H 0.28389 0.33004 0.81638
 C118 C 0.18063 0.55927 0.55283
 C119 C 0.19117 0.55365 0.56739
 C120 C 0.20693 0.56182 0.57206
 C121 C 0.21262 0.57521 0.56105
 C122 C 0.20284 0.58036 0.54559
 C123 C 0.18674 0.57238 0.54171
 H124 H 0.18691 0.54285 0.57517
 H125 H 0.22439 0.58201 0.56484
 H126 H 0.17883 0.57648 0.53018
 C127 C 0.60830 0.65431 0.08661
 C128 C 0.60410 0.66401 0.10189
 C129 C 0.59050 0.65915 0.11365
 C130 C 0.58152 0.64411 0.11056
 C131 C 0.58571 0.63415 0.09554
 C132 C 0.59900 0.63940 0.08353
 H133 H 0.61098 0.67565 0.10432
 H134 H 0.57085 0.64044 0.11954
 H135 H 0.60183 0.63203 0.07157
 C136 C 0.70173 0.19464 0.67884
 C137 C 0.68629 0.19966 0.68782
 C138 C 0.67985 0.19044 0.70272
 C139 C 0.68937 0.17606 0.70861
 C140 C 0.70453 0.17018 0.69924
 C141 C 0.71049 0.17987 0.68438
 H142 H 0.67917 0.21065 0.68294
 H143 H 0.68506 0.16976 0.72085
 H144 H 0.72133 0.17553 0.67606
 C145 C 1.09975 0.08356 0.16285
 C146 C 1.08841 0.07674 0.14972
 C147 C 1.07336 0.08561 0.14290
 C148 C 1.07023 0.10181 0.15027
 C149 C 1.08106 0.10850 0.16401
 C150 C 1.09585 0.09934 0.17010
 H151 H 1.09139 0.06409 0.14570
 H152 H 1.05935 0.10959 0.14574
 H153 H 1.10452 0.10464 0.18027
 C154 C 0.08275 0.14251 1.07768
 C155 C 0.07375 0.15082 1.09170
 C156 C 0.07956 0.16641 1.09854
 C157 C 0.09539 0.17311 1.09118
 C158 C 0.10491 0.16454 1.07769
 C159 C 0.09847 0.14939 1.07099
 H160 H 0.06249 0.14457 1.09759
 H161 H 0.10031 0.18517 1.09538
 H162 H 0.10552 0.14328 1.06006
 C163 C 0.16815 0.69062 0.67685
 C164 C 0.17775 0.69361 0.66087
 C165 C 0.19122 0.68259 0.65532
 C166 C 0.19559 0.66870 0.66633
 C167 C 0.18649 0.66564 0.68267
 C168 C 0.17276 0.67667 0.68779
 H169 H 0.17470 0.70458 0.65260
 H170 H 0.20560 0.65992 0.66174
 H171 H 0.16545 0.67423 0.70013
 C172 C 1.16335 0.13979 0.15607
 C173 C 1.14990 0.14712 0.16646
 C174 C 1.14242 0.16265 0.16151
 C175 C 1.14801 0.17047 0.14544
 C176 C 1.16183 0.16361 0.13512
 C177 C 1.16959 0.14823 0.14055
 H178 H 1.14613 0.14114 0.17913
 H179 H 1.14227 0.18245 0.14146
 H180 H 1.18042 0.14289 0.13283
 C181 C 0.64737 1.07649 0.55732
 C182 C 0.65496 1.09075 0.54884
 C183 C 0.67124 1.09765 0.55447
 C184 C 0.68019 1.08968 0.56907
 C185 C 0.67364 1.07500 0.57735
 C186 C 0.65724 1.06863 0.57147
 H187 H 0.64811 1.09670 0.53769
 H188 H 0.69275 1.09444 0.57368
 H189 H 0.65224 1.05766 0.57831
 C190 C 0.54796 0.54838 0.20352
 C191 C 0.54336 0.56510 0.20716
 C192 C 0.55274 0.57433 0.22011
 C193 C 0.56682 0.56659 0.22958
 C194 C 0.57197 0.55003 0.22583
 C195 C 0.56211 0.54085 0.21315
 H196 H 0.53323 0.57128 0.19901
 H197 H 0.57439 0.57377 0.23925
 H198 H 0.56583 0.52798 0.21032
 C199 C 0.64708 0.66799 0.17209
 C200 C 0.65193 0.67280 0.15439
 C201 C 0.66426 0.66343 0.14446
 C202 C 0.67123 0.64848 0.15188
 C203 C 0.66583 0.64286 0.16917
 C204 C 0.65400 0.65286 0.17927
 H205 H 0.64646 0.68417 0.14836
 H206 H 0.68055 0.64112 0.14406
 H207 H 0.65070 0.64907 0.19300
 C208 C 0.14108 0.08306 1.07563
 C209 C 0.14913 0.07935 1.09255
 C210 C 0.16490 0.08718 1.09792
 C211 C 0.17193 0.09986 1.08677
 C212 C 0.16396 0.10420 1.07008
 C213 C 0.14865 0.09569 1.06469
 H214 H 0.14387 0.06954 1.10114
 H215 H 0.18395 0.10604 1.09087
 H216 H 0.14256 0.09908 1.05186
 C217 C 0.59237 0.16784 0.56988
 C218 C 0.58220 0.17794 0.58156
 C219 C 0.56657 0.17178 0.58955
 C220 C 0.56123 0.15540 0.58537
 C221 C 0.57090 0.14552 0.57322
 C222 C 0.58657 0.15167 0.56578
 H223 H 0.58650 0.19058 0.58431
 H224 H 0.54956 0.15014 0.59161
 H225 H 0.59383 0.14415 0.55609
 C226 C 0.09986 0.58383 0.68214
 C227 C 0.08962 0.59791 0.68684
 C228 C 0.07473 0.60287 0.67647
 C229 C 0.07031 0.59341 0.66096
 C230 C 0.08069 0.57948 0.65573
 C231 C 0.09528 0.57472 0.66659
 H232 H 0.09347 0.60512 0.69857
 H233 H 0.05897 0.59702 0.65274
 H234 H 0.10329 0.56398 0.66279
 C235 C 0.64264 0.58970 0.09507
 C236 C 0.65180 0.60329 0.08753
 C237 C 0.66766 0.60889 0.09546
 C238 C 0.67397 0.60091 0.11138
 C239 C 0.66454 0.58773 0.11929
 C240 C 0.64877 0.58239 0.11133
 H241 H 0.64710 0.60878 0.07488
 H242 H 0.68669 0.60425 0.11710
 H243 H 0.64200 0.57166 0.11707
 C244 C 0.03876 0.69889 0.56317
 C245 C 0.05374 0.70658 0.55579
 C246 C 0.06325 0.69917 0.54159
 C247 C 0.05636 0.68478 0.53328
 C248 C 0.04064 0.67745 0.53974
 C249 C 0.03215 0.68447 0.55490
 H250 H 0.05848 0.71810 0.56170
 H251 H 0.06349 0.67900 0.52221
 H252 H 0.02097 0.67812 0.56091
 C253 C 0.55961 1.06376 0.67480
 C254 C 0.55099 1.07911 0.67887
 C255 C 0.55752 1.09003 0.69233
 C256 C 0.57291 1.08506 0.70193
 C257 C 0.58160 1.06991 0.69833
 C258 C 0.57488 1.05934 0.68493
 H259 H 0.53932 1.08275 0.67130
 H260 H 0.57887 1.09324 0.71180
 H261 H 0.58163 1.04753 0.68265
 C262 C 0.42889 0.35398 0.92711
 C263 C 0.41540 0.34694 0.93775
 C264 C 0.40522 0.33359 0.93122
 C265 C 0.40851 0.32759 0.91363
 C266 C 0.42236 0.33404 0.90318
 C267 C 0.43233 0.34739 0.90987
 H268 H 0.41313 0.35166 0.95129
 H269 H 0.40080 0.31738 0.90824
 H270 H 0.44322 0.35221 0.90189
 C271 C 0.92132 0.40800 0.35639
 C272 C 0.92636 0.39314 0.34756
 C273 C 0.91756 0.38785 0.33178
 C274 C 0.90256 0.39675 0.32559
 C275 C 0.89671 0.41109 0.33482
 C276 C 0.90615 0.41667 0.35002
 H277 H 0.93814 0.38636 0.35192
 H278 H 0.89580 0.39290 0.31332
 H279 H 0.90162 0.42793 0.35678
 C280 C 0.28573 0.94441 0.42975
 C281 C 0.27662 0.92988 0.43495
 C282 C 0.28273 0.91971 0.44934
 C283 C 0.29811 0.92436 0.45875
 C284 C 0.30799 0.93836 0.45325
 C285 C 0.30153 0.94846 0.43883
 H286 H 0.26518 0.92603 0.42717
 H287 H 0.30253 0.91686 0.47026
 H288 H 0.30895 0.95928 0.43440
 O289 O 0.25777 0.55175 0.72745
 O290 O 0.28814 0.54497 0.72582
 O291 O 0.23403 0.50587 0.70884
 O292 O 0.23522 0.47863 0.71684
 O293 O 0.21268 0.53140 0.75350
 O294 O 0.22039 0.53229 0.78526
 O295 O 0.28425 0.46628 0.76060
 O296 O 0.27952 0.46754 0.72896
 O297 O 0.30765 0.51108 0.77587
 O298 O 0.29995 0.54103 0.77046
 O299 O 0.26529 0.49136 0.80438
 O300 O 0.23351 0.49261 0.80144
 O301 O 0.26353 0.46760 0.78298
 O302 O 0.23016 0.47456 0.78188
 O303 O 0.28696 0.51054 0.80010
 O304 O 0.27962 0.54112 0.79282
 O305 O 0.30621 0.48794 0.75806
 O306 O 0.29883 0.48809 0.72390
 O307 O 0.23730 0.55408 0.74997
 O308 O 0.24067 0.55039 0.78280
 O309 O 0.21141 0.50846 0.73536
 O310 O 0.21918 0.47860 0.74160
 O311 O 0.25472 0.52612 0.70464
 O312 O 0.28689 0.52392 0.70928
 Zr313 Zr 0.26790 0.52724 0.73001
 O314 O 0.28612 0.51446 0.74695
 Zr315 Zr 0.23718 0.49817 0.73597
 O316 O 0.25435 0.48359 0.75247
 Zr317 Zr 0.23881 0.53076 0.76378
 O318 O 0.25556 0.51744 0.78201
 Zr319 Zr 0.28085 0.48873 0.74598
 O320 O 0.26361 0.50131 0.72754
 Zr321 Zr 0.28193 0.52106 0.77420
 O322 O 0.26536 0.53571 0.75697
 Zr323 Zr 0.25149 0.49146 0.77950
 O324 O 0.23294 0.50496 0.76319
 O325 O 0.24155 0.52384 0.73684
 O326 O 0.27782 0.49538 0.77294
 C327 C 0.24597 0.55996 0.73633
 C328 C 0.24162 0.51721 0.69919
 C329 C 0.20449 0.52161 0.74255
 C330 C 0.27639 0.46035 0.77464
 C331 C 0.31418 0.49742 0.76951
 C332 C 0.27940 0.49894 0.80942
 H333 H 0.29831 0.51698 0.74304
 H334 H 0.25369 0.52130 0.79460
 H335 H 0.23356 0.53047 0.72882
 H336 H 0.25175 0.47154 0.75101
 H337 H 0.27286 0.47111 0.71795
 H338 H 0.24337 0.46955 0.72091
 H339 H 0.28955 0.54023 0.80165
 H340 H 0.25201 0.55611 0.78038
 H341 H 0.30830 0.49630 0.72616
 H342 H 0.28506 0.51257 0.70431
 H343 H 0.23314 0.50434 0.80565
 H344 H 0.21478 0.52115 0.78620
 H345 H 0.28944 0.55108 0.73739
 H346 H 0.30759 0.53830 0.75999
 H347 H 0.21240 0.48191 0.75251
 H348 H 0.23242 0.46517 0.77348
 O349 O 0.29986 -0.00042 0.26661
 O350 O 0.29796 0.02953 0.25965
 O351 O 0.25505 -0.00919 0.29897
 O352 O 0.22557 -0.00748 0.29691
 O353 O 0.26914 -0.04090 0.25436
 O354 O 0.26262 -0.03911 0.22197
 O355 O 0.20790 0.03273 0.24916
 O356 O 0.21755 0.03401 0.27950
 O357 O 0.25330 0.04626 0.21828
 O358 O 0.28302 0.03561 0.21562
 O359 O 0.22253 0.00380 0.20371
 O360 O 0.22018 -0.02464 0.21479
 O361 O 0.20353 0.01185 0.22879
 O362 O 0.20531 -0.01989 0.23772
 O363 O 0.24406 0.02312 0.19916
 O364 O 0.27771 0.01446 0.20056
 O365 O 0.23197 0.05010 0.23962
 O366 O 0.24112 0.04986 0.27376
 O367 O 0.29512 -0.02157 0.24656
 O368 O 0.28407 -0.02301 0.21565
 O369 O 0.25043 -0.03586 0.27795
 O370 O 0.21876 -0.02557 0.27659
 O371 O 0.27913 0.00697 0.29319
 O372 O 0.28064 0.03548 0.28153
 Zr373 Zr 0.27622 0.01394 0.26566
 O374 O 0.26095 0.03012 0.24894
 Zr375 Zr 0.24179 -0.01082 0.27386
 O376 O 0.22486 0.00452 0.25794
 Zr377 Zr 0.26842 -0.01857 0.23890
 O378 O 0.25243 -0.00405 0.22116
 Zr379 Zr 0.23436 0.02918 0.25721
 O380 O 0.24992 0.01439 0.27530
 Zr381 Zr 0.26068 0.02102 0.22222
 O382 O 0.27805 0.00614 0.23844
 Zr383 Zr 0.22628 -0.00359 0.23087
 O384 O 0.24183 -0.02012 0.24716
 O385 O 0.26802 -0.01075 0.26575
 O386 O 0.23447 0.02115 0.23051
 C387 C 0.30463 -0.01384 0.25826
 C388 C 0.26958 -0.00213 0.30376
 C389 C 0.26157 -0.04511 0.26932
 C390 C 0.19874 0.02537 0.23689
 C391 C 0.24048 0.05460 0.22531
 C392 C 0.22985 0.01551 0.19440
 H393 H 0.26572 0.04160 0.24945
 H394 H 0.25309 -0.00855 0.20871
 H395 H 0.27552 -0.01767 0.27397
 H396 H 0.21266 0.00416 0.26275
 H397 H 0.22354 0.02925 0.29041
 H398 H 0.21726 0.00182 0.29398
 H399 H 0.27095 0.00754 0.19191
 H400 H 0.29129 -0.01285 0.21378
 H401 H 0.24850 0.05763 0.26656
 H402 H 0.26966 0.03742 0.28853
 H403 H 0.23082 -0.02730 0.20755
 H404 H 0.25094 -0.04337 0.22584
 H405 H 0.30266 0.02581 0.24779
 H406 H 0.28611 0.04205 0.22659
 H407 H 0.21922 -0.03414 0.26695
 H408 H 0.19717 -0.01383 0.24593
 O409 O 0.48887 0.70067 0.22700
 O410 O 0.46070 0.71427 0.22258
 O411 O 0.52543 0.73873 0.21052
 O412 O 0.52929 0.76646 0.21755
 O413 O 0.53452 0.71120 0.25836
 O414 O 0.52334 0.71353 0.28919
 O415 O 0.48045 0.79026 0.25600
 O416 O 0.49085 0.78764 0.22503
 O417 O 0.44732 0.75546 0.26927
 O418 O 0.44510 0.72360 0.26278
 O419 O 0.48838 0.76166 0.30195
 O420 O 0.52089 0.75304 0.30103
 O421 O 0.49770 0.78471 0.28082
 O422 O 0.52758 0.77267 0.28468
 O423 O 0.46386 0.74641 0.29569
 O424 O 0.45900 0.71755 0.28598
 O425 O 0.45466 0.77453 0.24743
 O426 O 0.46696 0.77299 0.21660
 O427 O 0.50566 0.69512 0.25223
 O428 O 0.49993 0.69979 0.28410
 O429 O 0.54345 0.73198 0.23920
 O430 O 0.54382 0.76229 0.24437
 O431 O 0.50013 0.72443 0.20443
 O432 O 0.46941 0.73305 0.20465
 Zr433 Zr 0.48464 0.72685 0.22798
 O434 O 0.46866 0.74424 0.24180
 Zr435 Zr 0.52135 0.74820 0.23685
 O436 O 0.50691 0.76667 0.25116
 Zr437 Zr 0.50842 0.71818 0.26527
 O438 O 0.49340 0.73505 0.28081
 Zr439 Zr 0.48084 0.76783 0.24117
 O440 O 0.49583 0.75089 0.22529
 Zr441 Zr 0.46794 0.73755 0.26940
 O442 O 0.48224 0.71897 0.25527
 Zr443 Zr 0.50437 0.75911 0.27855
 O444 O 0.52075 0.74171 0.26467
 O445 O 0.51025 0.72452 0.23799
 O446 O 0.47875 0.76137 0.26852
 C447 C 0.49776 0.69074 0.23755
 C448 C 0.51574 0.72949 0.20030
 C449 C 0.54590 0.71790 0.24760
 C450 C 0.48750 0.79435 0.27125
 C451 C 0.44455 0.76898 0.26002
 C452 C 0.47294 0.75602 0.30595
 H453 H 0.45667 0.74460 0.23637
 H454 H 0.49304 0.73100 0.29354
 H455 H 0.51707 0.71606 0.23114
 H456 H 0.51262 0.77773 0.25005
 H457 H 0.49727 0.78237 0.21482
 H458 H 0.52586 0.77761 0.22226
 H459 H 0.46819 0.71536 0.29534
 H460 H 0.48772 0.69679 0.28051
 H461 H 0.45729 0.76478 0.21549
 H462 H 0.47417 0.74372 0.19980
 H463 H 0.51518 0.74388 0.30794
 H464 H 0.53198 0.72275 0.29015
 H465 H 0.45713 0.70890 0.23415
 H466 H 0.43812 0.73007 0.25367
 H467 H 0.54716 0.75869 0.25684
 H468 H 0.53039 0.77974 0.27398
 O469 O 0.01227 0.71404 0.72839
 O470 O -0.01906 0.71782 0.72830
 O471 O 0.03191 0.75572 0.69982
 O472 O 0.03121 0.78348 0.70111
 O473 O 0.05473 0.74129 0.75156
 O474 O 0.04615 0.74494 0.78213
 O475 O -0.02026 0.80219 0.74008
 O476 O -0.01396 0.79510 0.70965
 O477 O -0.04102 0.76230 0.76638
 O478 O -0.03393 0.73340 0.77078
 O479 O 0.00215 0.78723 0.79007
 O480 O 0.03285 0.78839 0.78549
 O481 O -0.00001 0.80656 0.76249
 O482 O 0.03425 0.80161 0.76171
 O483 O -0.01912 0.76726 0.79134
 O484 O -0.01384 0.73509 0.78955
 O485 O -0.04113 0.77907 0.74123
 O486 O -0.03237 0.77350 0.70926
 O487 O 0.03150 0.71683 0.75206
 O488 O 0.02628 0.72665 0.78356
 O489 O 0.05502 0.75830 0.72656
 O490 O 0.04632 0.78890 0.72563
 O491 O 0.01133 0.73504 0.70073
 O492 O -0.02047 0.73498 0.70642
 Zr493 Zr -0.00054 0.73748 0.72647
 O494 O -0.01930 0.75281 0.73951
 Zr495 Zr 0.02903 0.76816 0.72459
 O496 O 0.01109 0.78521 0.73648
 Zr497 Zr 0.02827 0.74217 0.76021
 O498 O 0.01121 0.75863 0.77425
 Zr499 Zr -0.01508 0.77775 0.73152
 O500 O 0.00276 0.76229 0.71713
 Zr501 Zr -0.01507 0.75265 0.76780
 O502 O 0.00198 0.73511 0.75496
 Zr503 Zr 0.01413 0.78349 0.76479
 O504 O 0.03321 0.76735 0.75286
 O505 O 0.02561 0.74328 0.73214
 O506 O -0.01215 0.77749 0.75968
 C507 C 0.02444 0.70834 0.73910
 C508 C 0.02385 0.74317 0.69291
 C509 C 0.06252 0.74807 0.73790
 C510 C -0.01327 0.81119 0.75249
 C511 C -0.04865 0.77253 0.75518
 C512 C -0.01098 0.78004 0.79778
 H513 H -0.03134 0.74899 0.73640
 H514 H 0.01361 0.75767 0.78744
 H515 H 0.03400 0.73583 0.72571
 H516 H 0.01308 0.79672 0.73187
 H517 H -0.00681 0.78972 0.70003
 H518 H 0.02252 0.79275 0.70234
 H519 H -0.00595 0.73965 0.79902
 H520 H 0.01580 0.71948 0.78174
 H521 H -0.04020 0.76405 0.71244
 H522 H -0.01958 0.74488 0.69827
 H523 H 0.03432 0.77792 0.79268
 H524 H 0.05116 0.75632 0.78091
 H525 H -0.01864 0.71368 0.74102
 H526 H -0.03786 0.73031 0.75843
 H527 H 0.05351 0.78761 0.73685
 H528 H 0.03046 0.80966 0.75211
 O529 O -0.00685 0.04711 0.02118
 O530 O -0.03731 0.03763 0.02196
 O531 O 0.02277 0.00335 0.03415
 O532 O 0.02376 -0.02364 0.02419
 O533 O 0.03799 0.03314 -0.01109
 O534 O 0.02684 0.03709 -0.04156
 O535 O -0.02446 -0.03764 -0.01869
 O536 O -0.01783 -0.03833 0.01290
 O537 O -0.05484 0.00482 -0.02915
 O538 O -0.05237 0.03438 -0.02143
 O539 O -0.01102 -0.00554 -0.06120
 O540 O 0.02134 -0.00189 -0.05781
 O541 O -0.00703 -0.03109 -0.04279
 O542 O 0.02538 -0.02291 -0.04222
 O543 O -0.03515 0.01041 -0.05447
 O544 O -0.03234 0.04058 -0.04290
 O545 O -0.04904 -0.01913 -0.01301
 O546 O -0.03992 -0.02094 0.02050
 O547 O 0.01238 0.05269 -0.00189
 O548 O 0.00510 0.05285 -0.03466
 O549 O 0.04283 0.01039 0.00737
 O550 O 0.03945 -0.01942 -0.00152
 O551 O -0.00008 0.02115 0.04059
 O552 O -0.03208 0.01541 0.03778
 Zr553 Zr -0.01506 0.02230 0.01629
 O554 O -0.03229 0.00876 -0.00063
 Zr555 Zr 0.01890 -0.00292 0.00665
 O556 O 0.00311 -0.01779 -0.01041
 Zr557 Zr 0.01117 0.03140 -0.01862
 O558 O -0.00473 0.01804 -0.03692
 Zr559 Zr -0.02342 -0.01622 -0.00222
 O560 O -0.00727 -0.00320 0.01649
 Zr561 Zr -0.03091 0.01803 -0.02742
 O562 O -0.01539 0.03307 -0.01000
 Zr563 Zr 0.00322 -0.00730 -0.03674
 O564 O 0.02064 0.00651 -0.02015
 O565 O 0.01098 0.02196 0.00765
 O566 O -0.02304 -0.00697 -0.02866
 C567 C 0.00469 0.05635 0.01317
 C568 C 0.01461 0.01363 0.04470
 C569 C 0.04760 0.02424 -0.00016
 C570 C -0.01786 -0.04077 -0.03441
 C571 C -0.05890 -0.00994 -0.02344
 C572 C -0.02596 0.00132 -0.06534
 H573 H -0.04448 0.00944 0.00412
 H574 H -0.00402 0.02326 -0.04914
 H575 H 0.01880 0.02846 0.01566
 H576 H 0.00732 -0.02957 -0.01024
 H577 H -0.01117 -0.03485 0.02384
 H578 H 0.01828 -0.03357 0.01859
 H579 H -0.04181 0.03946 -0.05218
 H580 H -0.00610 0.05759 -0.02989
 H581 H -0.05041 -0.01345 0.01966
 H582 H -0.02852 0.00392 0.04159
 H583 H 0.01782 0.00902 -0.06329
 H584 H 0.03408 0.02695 -0.04399
 H585 H -0.03885 0.04525 0.01136
 H586 H -0.05759 0.03071 -0.00977
 H587 H 0.04431 -0.01481 -0.01297
 H588 H 0.02481 -0.03282 -0.03407
 O589 O -0.01613 0.45997 0.49582
 O590 O -0.01121 0.46821 0.52672
 O591 O -0.04023 0.50364 0.47108
 O592 O -0.03410 0.52994 0.46518
 O593 O 0.00394 0.47713 0.44695
 O594 O 0.03598 0.47988 0.45157
 O595 O 0.01053 0.55009 0.50928
 O596 O -0.02084 0.54540 0.50717
 O597 O 0.03200 0.51055 0.53829
 O598 O 0.03040 0.47986 0.53635
 O599 O 0.05476 0.52362 0.48756
 O600 O 0.04702 0.52083 0.45660
 O601 O 0.03202 0.54680 0.48799
 O602 O 0.02712 0.53806 0.45479
 O603 O 0.05499 0.50741 0.51314
 O604 O 0.04795 0.47655 0.51598
 O605 O 0.01001 0.53018 0.53631
 O606 O -0.01986 0.52771 0.53226
 O607 O 0.00618 0.45719 0.47530
 O608 O 0.03703 0.46321 0.47398
 O609 O -0.01635 0.49835 0.44469
 O610 O -0.01173 0.52928 0.44753
 O611 O -0.03961 0.48418 0.49394
 O612 O -0.03172 0.48901 0.52606
 Zr613 Zr -0.01360 0.48518 0.50449
 O614 O 0.00268 0.50147 0.51949
 Zr615 Zr -0.01397 0.51164 0.46908
 O616 O 0.00206 0.52893 0.48266
 Zr617 Zr 0.01656 0.48141 0.47212
 O618 O 0.03416 0.49740 0.48572
 Zr619 Zr -0.00140 0.52635 0.51076
 O620 O -0.01925 0.51041 0.49718
 Zr621 Zr 0.02953 0.49667 0.51393
 O622 O 0.01328 0.47899 0.50042
 Zr623 Zr 0.02867 0.52238 0.47816
 O624 O 0.01258 0.50617 0.46276
 O625 O -0.00998 0.48670 0.47665
 O626 O 0.02538 0.52154 0.50628
 C627 C -0.00679 0.45132 0.48456
 C628 C -0.04754 0.49250 0.48119
 C629 C -0.00870 0.48507 0.43869
 C630 C 0.02375 0.55543 0.49997
 C631 C 0.02299 0.52298 0.54465
 C632 C 0.06243 0.51732 0.50164
 H633 H -0.00004 0.50024 0.53256
 H634 H 0.04642 0.49404 0.48268
 H635 H -0.01811 0.47903 0.47031
 H636 H -0.00077 0.54049 0.47854
 H637 H -0.03192 0.53975 0.50356
 H638 H -0.03106 0.53959 0.47289
 H639 H 0.05592 0.47724 0.50537
 H640 H 0.03747 0.45949 0.48685
 H641 H -0.02980 0.52036 0.52886
 H642 H -0.04060 0.47992 0.52584
 H643 H 0.05229 0.50942 0.45704
 H644 H 0.03385 0.48950 0.44321
 H645 H 0.00042 0.46248 0.52559
 H646 H 0.01917 0.48116 0.54307
 H647 H -0.00159 0.52567 0.43997
 H648 H 0.01891 0.54746 0.45742
 O649 O 0.52780 0.01804 0.51395
 O650 O 0.52329 0.01348 0.48281
 O651 O 0.48229 0.04502 0.53146
 O652 O 0.45124 0.04089 0.52920
 O653 O 0.50044 0.00245 0.56156
 O654 O 0.49746 -0.02729 0.55783
 O655 O 0.43409 0.00026 0.48712
 O656 O 0.44169 0.02798 0.48398
 O657 O 0.47802 -0.02648 0.46737
 O658 O 0.51011 -0.02634 0.47475
 O659 O 0.45395 -0.04321 0.51431
 O660 O 0.45349 -0.03532 0.54545
 O661 O 0.43200 -0.01924 0.50977
 O662 O 0.43747 -0.01484 0.54383
 O663 O 0.47591 -0.04626 0.49359
 O664 O 0.50875 -0.04206 0.49642
 O665 O 0.45894 -0.00445 0.46399
 O666 O 0.46458 0.02776 0.46938
 O667 O 0.52605 -0.00077 0.53737
 O668 O 0.51751 -0.03029 0.53813
 O669 O 0.47984 0.02336 0.55881
 O670 O 0.44880 0.02318 0.55034
 O671 O 0.50506 0.04189 0.51149
 O672 O 0.50161 0.03369 0.47894
 Zr673 Zr 0.50263 0.01724 0.50176
 O674 O 0.48702 0.00203 0.48488
 Zr675 Zr 0.47025 0.02140 0.53205
 O676 O 0.45309 0.00690 0.51630
 Zr677 Zr 0.49968 -0.00974 0.53627
 O678 O 0.48342 -0.02591 0.52116
 Zr679 Zr 0.46032 0.00845 0.48879
 O680 O 0.47599 0.02487 0.50432
 Zr681 Zr 0.48908 -0.02314 0.49338
 O682 O 0.50666 -0.00822 0.50868
 Zr683 Zr 0.45669 -0.01849 0.52333
 O684 O 0.47273 -0.00380 0.54057
 O685 O 0.49686 0.01533 0.52927
 O686 O 0.46235 -0.01691 0.49569
 C687 C 0.53445 0.01022 0.52780
 C688 C 0.49595 0.05041 0.52297
 C689 C 0.49170 0.01507 0.56779
 C690 C 0.42556 -0.01080 0.49625
 C691 C 0.46644 -0.01794 0.45829
 C692 C 0.46249 -0.05172 0.50245
 H693 H 0.49058 0.00356 0.47207
 H694 H 0.48533 -0.03757 0.52547
 H695 H 0.50452 0.02248 0.53682
 H696 H 0.44079 0.01082 0.51825
 H697 H 0.43640 0.03081 0.49585
 H698 H 0.45266 0.04557 0.51678
 H699 H 0.50596 -0.04867 0.50747
 H700 H 0.52416 -0.03050 0.52657
 H701 H 0.47200 0.02309 0.45956
 H702 H 0.51159 0.04165 0.47985
 H703 H 0.46486 -0.04139 0.54717
 H704 H 0.48561 -0.02549 0.56321
 H705 H 0.52744 0.00175 0.48442
 H706 H 0.50961 -0.01689 0.46595
 H707 H 0.44906 0.01282 0.55786
 H708 H 0.42928 -0.00582 0.53968
 O709 O 0.50868 0.52888 0.04793
 O710 O 0.47786 0.52073 0.04813
 O711 O 0.53564 0.48636 0.06926
 O712 O 0.53970 0.45947 0.06305
 O713 O 0.55291 0.51217 0.02154
 O714 O 0.54513 0.50932 -0.01030
 O715 O 0.49114 0.43945 0.02249
 O716 O 0.49674 0.44366 0.05396
 O717 O 0.46185 0.47954 0.00345
 O718 O 0.46393 0.50969 0.00435
 O719 O 0.50763 0.46490 -0.02480
 O720 O 0.53873 0.46768 -0.02077
 O721 O 0.50908 0.44261 -0.00206
 O722 O 0.54253 0.45057 0.00012
 O723 O 0.48281 0.48101 -0.02210
 O724 O 0.48270 0.51296 -0.01543
 O725 O 0.46600 0.45884 0.02452
 O726 O 0.47435 0.46169 0.05742
 O727 O 0.52566 0.53182 0.02260
 O728 O 0.52281 0.52551 -0.00931
 O729 O 0.55775 0.49114 0.04218
 O730 O 0.55437 0.45988 0.03770
 O731 O 0.51233 0.50444 0.07207
 O732 O 0.48066 0.50098 0.06731
 Zr733 Zr 0.49957 0.50389 0.04644
 O734 O 0.48294 0.48802 0.03137
 Zr735 Zr 0.53387 0.47756 0.04263
 O736 O 0.51852 0.46022 0.02816
 Zr737 Zr 0.52727 0.50766 0.01168
 O738 O 0.51231 0.49160 -0.00470
 Zr739 Zr 0.49165 0.46307 0.03482
 O740 O 0.50727 0.47873 0.05136
 Zr741 Zr 0.48570 0.49285 0.00337
 O742 O 0.50039 0.51043 0.01858
 Zr743 Zr 0.52001 0.46661 0.00049
 O744 O 0.53684 0.48294 0.01481
 O745 O 0.52599 0.50239 0.03934
 O746 O 0.49332 0.46801 0.00710
 C747 C 0.51864 0.53746 0.03720
 C748 C 0.52628 0.49689 0.07829
 C749 C 0.56235 0.50461 0.03372
 C750 C 0.49790 0.43435 0.00751
 C751 C 0.45681 0.46635 0.01208
 C752 C 0.49274 0.47059 -0.03074
 H753 H 0.47054 0.48956 0.03529
 H754 H 0.51385 0.49474 -0.01762
 H755 H 0.53305 0.51002 0.04694
 H756 H 0.52267 0.44862 0.03060
 H757 H 0.50296 0.44886 0.06434
 H758 H 0.53241 0.44953 0.06046
 H759 H 0.49056 0.51073 -0.02587
 H760 H 0.51063 0.52989 -0.00764
 H761 H 0.46465 0.46995 0.05557
 H762 H 0.48306 0.48989 0.07302
 H763 H 0.53781 0.47903 -0.02626
 H764 H 0.55308 0.49940 -0.00939
 H765 H 0.47718 0.52671 0.03629
 H766 H 0.45965 0.50977 0.01703
 H767 H 0.56079 0.46377 0.02676
 H768 H 0.53993 0.44051 0.00758
 O769 O 0.78858 0.26762 0.48349
 O770 O 0.78770 0.23788 0.48939
 O771 O 0.74369 0.27710 0.44937
 O772 O 0.71461 0.27099 0.44986
 O773 O 0.75260 0.30704 0.49566
 O774 O 0.74712 0.30340 0.52790
 O775 O 0.69841 0.23004 0.49780
 O776 O 0.70793 0.23138 0.46632
 O777 O 0.74141 0.21875 0.52906
 O778 O 0.77236 0.22890 0.53063
 O779 O 0.70962 0.25755 0.54266
 O780 O 0.70692 0.28768 0.53295
 O781 O 0.69083 0.25241 0.51524
 O782 O 0.69166 0.28309 0.51100
 O783 O 0.73488 0.24292 0.54914
 O784 O 0.76740 0.24919 0.54631
 O785 O 0.72434 0.21295 0.50447
 O786 O 0.73279 0.21468 0.47362
 O787 O 0.78077 0.28919 0.50204
 O788 O 0.77023 0.28874 0.53306
 O789 O 0.73518 0.30164 0.47102
 O790 O 0.70528 0.28955 0.47003
 O791 O 0.76903 0.26236 0.45547
 O792 O 0.77041 0.23233 0.46482
 Zr793 Zr 0.76544 0.25291 0.48219
 O794 O 0.75084 0.23557 0.49792
 Zr795 Zr 0.72928 0.27597 0.47373
 O796 O 0.71322 0.25965 0.48893
 Zr797 Zr 0.75454 0.28415 0.50980
 O798 O 0.73957 0.26835 0.52663
 Zr799 Zr 0.72434 0.23541 0.48921
 O800 O 0.73934 0.25126 0.47186
 Zr801 Zr 0.74955 0.24372 0.52495
 O802 O 0.76592 0.25999 0.50973
 Zr803 Zr 0.71365 0.26709 0.51628
 O804 O 0.72808 0.28459 0.50069
 O805 O 0.75526 0.27712 0.48280
 O806 O 0.72339 0.24261 0.51626
 C807 C 0.79179 0.28157 0.49159
 C808 C 0.75920 0.27168 0.44507
 C809 C 0.74485 0.31129 0.48072
 C810 C 0.68760 0.23821 0.50796
 C811 C 0.73123 0.20902 0.51997
 C812 C 0.71940 0.24847 0.55325
 H813 H 0.75613 0.22422 0.49696
 H814 H 0.73988 0.27259 0.53921
 H815 H 0.76238 0.28498 0.47545
 H816 H 0.70110 0.25963 0.48380
 H817 H 0.71458 0.23534 0.45556
 H818 H 0.70551 0.26265 0.45311
 H819 H 0.76263 0.25900 0.55288
 H820 H 0.77853 0.27910 0.53430
 H821 H 0.74032 0.21927 0.46384
 H822 H 0.78112 0.23478 0.45754
 H823 H 0.71578 0.28824 0.54286
 H824 H 0.73483 0.30669 0.52464
 H825 H 0.79088 0.24073 0.50205
 H826 H 0.77368 0.22064 0.52077
 H827 H 0.70419 0.29731 0.48041
 H828 H 0.68627 0.27960 0.49937
 O829 O 0.78820 0.73759 -0.04128
 O830 O 0.78266 0.70771 -0.03755
 O831 O 0.74127 0.75838 -0.06132
 O832 O 0.71202 0.75775 -0.05383
 O833 O 0.76741 0.78027 -0.01667
 O834 O 0.76788 0.77409 0.01578
 O835 O 0.69856 0.71472 -0.00567
 O836 O 0.69937 0.71928 -0.03855
 O837 O 0.74257 0.69323 0.01190
 O838 O 0.77572 0.69736 0.00460
 O839 O 0.72404 0.73295 0.03538
 O840 O 0.72852 0.76510 0.03016
 O841 O 0.69975 0.73645 0.01414
 O842 O 0.70688 0.76624 0.01301
 O843 O 0.74724 0.71456 0.03467
 O844 O 0.77822 0.71483 0.02496
 O845 O 0.72041 0.69310 -0.00915
 O846 O 0.72088 0.69737 -0.04045
 O847 O 0.79081 0.75704 -0.01897
 O848 O 0.78771 0.75484 0.01380
 O849 O 0.74391 0.78115 -0.03621
 O850 O 0.71250 0.77550 -0.03053
 O851 O 0.76148 0.73710 -0.06324
 O852 O 0.76161 0.70685 -0.05549
 Zr853 Zr 0.76313 0.72686 -0.03685
 O854 O 0.74879 0.71097 -0.01944
 Zr855 Zr 0.73255 0.75710 -0.03416
 O856 O 0.71685 0.74252 -0.01655
 Zr857 Zr 0.76655 0.75609 -0.00509
 O858 O 0.75247 0.74151 0.01385
 Zr859 Zr 0.72173 0.71695 -0.02125
 O860 O 0.73575 0.73145 -0.04062
 Zr861 Zr 0.75583 0.71602 0.00760
 O862 O 0.77179 0.73057 -0.00993
 Zr863 Zr 0.72521 0.74618 0.01043
 O864 O 0.73944 0.76238 -0.00704
 O865 O 0.75941 0.75220 -0.03195
 O866 O 0.72885 0.72083 0.00560
 C867 C 0.79646 0.74951 -0.03325
 C868 C 0.75276 0.74959 -0.07005
 C869 C 0.75766 0.78764 -0.02874
 C870 C 0.69238 0.72337 0.00757
 C871 C 0.72891 0.68667 0.00441
 C872 C 0.73364 0.72110 0.04235
 H873 H 0.75095 0.69912 -0.02268
 H874 H 0.75649 0.74400 0.02633
 H875 H 0.76612 0.75930 -0.04052
 H876 H 0.70417 0.74534 -0.01826
 H877 H 0.70374 0.72351 -0.05038
 H878 H 0.70177 0.75183 -0.04857
 H879 H 0.77840 0.72531 0.03205
 H880 H 0.79367 0.74388 0.01199
 H881 H 0.72466 0.70221 -0.05220
 H882 H 0.75102 0.70887 -0.06319
 H883 H 0.73671 0.76074 0.03966
 H884 H 0.75618 0.77979 0.01604
 H885 H 0.78956 0.70855 -0.02613
 H886 H 0.77108 0.68861 -0.00355
 H887 H 0.71554 0.78171 -0.01937
 H888 H 0.69893 0.76597 0.00230
 O889 O 1.02963 0.21040 0.23979
 O890 O 0.99815 0.21290 0.24386
 O891 O 1.04382 0.25350 0.21066
 O892 O 1.03917 0.28149 0.21277
 O893 O 1.07330 0.23881 0.25635
 O894 O 1.06993 0.24183 0.28852
 O895 O 0.99481 0.29606 0.26104
 O896 O 0.99557 0.29027 0.22960
 O897 O 0.98079 0.25312 0.28852
 O898 O 0.99132 0.22409 0.28901
 O899 O 1.02339 0.28187 0.30473
 O900 O 1.05483 0.28270 0.29680
 O901 O 1.01854 0.30066 0.27946
 O902 O 1.05216 0.29753 0.27383
 O903 O 1.00388 0.26060 0.30850
 O904 O 1.01506 0.22959 0.30661
 O905 O 0.97624 0.27263 0.26617
 O906 O 0.97917 0.26682 0.23158
 O907 O 1.05241 0.21351 0.25992
 O908 O 1.05163 0.22179 0.29246
 O909 O 1.06909 0.25759 0.23310
 O910 O 1.05826 0.28755 0.23482
 O911 O 1.02591 0.23082 0.21383
 O912 O 0.99368 0.23155 0.22282
 Zr913 Zr 1.01565 0.23323 0.24061
 O914 O 0.99835 0.24674 0.25762
 Zr915 Zr 1.04258 0.26568 0.23577
 O916 O 1.02582 0.28105 0.25136
 Zr917 Zr 1.04893 0.23828 0.26993
 O918 O 1.03344 0.25309 0.28750
 Zr919 Zr 0.99965 0.27219 0.25043
 O920 O 1.01592 0.25856 0.23224
 Zr921 Zr 1.00707 0.24563 0.28489
 O922 O 1.02269 0.22975 0.26829
 Zr923 Zr 1.03359 0.27828 0.27865
 O924 O 1.05137 0.26392 0.26290
 O925 O 1.04172 0.24052 0.24287
 O926 O 1.00746 0.27072 0.27738
 C927 C 1.04390 0.20523 0.24772
 C928 C 1.03746 0.23955 0.20505
 C929 C 1.07819 0.24630 0.24168
 C930 C 1.00344 0.30486 0.27255
 C931 C 0.97157 0.26473 0.28072
 C932 C 1.01093 0.27454 0.31342
 H933 H 0.98620 0.24240 0.25633
 H934 H 1.03756 0.25181 0.30022
 H935 H 1.04955 0.23361 0.23522
 H936 H 1.02639 0.29283 0.24710
 H937 H 1.00123 0.28572 0.21856
 H938 H 1.03056 0.29033 0.21615
 H939 H 1.00707 0.23168 0.31702
 H940 H 1.04150 0.21401 0.29193
 H941 H 0.97093 0.25882 0.23733
 H942 H 0.99429 0.24131 0.21443
 H943 H 1.05596 0.27281 0.30495
 H944 H 1.07354 0.25367 0.28712
 H945 H 1.00037 0.20827 0.25620
 H946 H 0.98349 0.22301 0.27829
 H947 H 1.06723 0.28643 0.24463
 H948 H 1.04707 0.30525 0.26454
 O949 O 0.70198 1.01694 0.75439
 O950 O 0.71688 1.01321 0.78366
 O951 O 0.74120 1.04133 0.72254
 O952 O 0.76971 1.03596 0.71449
 O953 O 0.71223 1.00000 0.70181
 O954 O 0.71624 0.96970 0.70511
 O955 O 0.79807 0.99157 0.75156
 O956 O 0.79299 1.02106 0.75121
 O957 O 0.76109 0.97044 0.78566
 O958 O 0.72778 0.97415 0.78885
 O959 O 0.76797 0.95051 0.73509
 O960 O 0.75781 0.95927 0.70341
 O961 O 0.79146 0.97179 0.73060
 O962 O 0.77811 0.97566 0.70021
 O963 O 0.75224 0.94984 0.76140
 O964 O 0.72224 0.95687 0.77007
 O965 O 0.78230 0.98995 0.78055
 O966 O 0.77870 1.02104 0.77753
 O967 O 0.69585 0.99704 0.73331
 O968 O 0.70207 0.96809 0.72940
 O969 O 0.73354 1.01943 0.69655
 O970 O 0.76550 1.01580 0.69421
 O971 O 0.72609 1.03975 0.74921
 O972 O 0.73577 1.03213 0.77895
 Zr973 Zr 0.72963 1.01496 0.75819
 O974 O 0.74901 0.99917 0.77003
 Zr975 Zr 0.75112 1.01664 0.71884
 O976 O 0.77143 1.00054 0.72892
 Zr977 Zr 0.72065 0.98748 0.72576
 O978 O 0.73932 0.97028 0.73640
 Zr979 Zr 0.77349 1.00298 0.75721
 O980 O 0.75459 1.02049 0.74695
 Zr981 Zr 0.74257 0.97424 0.76444
 O982 O 0.72210 0.98993 0.75423
 Zr983 Zr 0.76429 0.97531 0.72518
 O984 O 0.74508 0.99148 0.71293
 O985 O 0.72647 1.01248 0.73030
 O986 O 0.76745 0.97788 0.75308
 C987 C 0.69125 1.00871 0.74426
 C988 C 0.73139 1.04774 0.73506
 C989 C 0.71896 1.01209 0.69246
 C990 C 0.80227 0.97912 0.74140
 C991 C 0.77589 0.97749 0.78947
 C992 C 0.76204 0.94302 0.74935
 H993 H 0.74968 1.00116 0.78325
 H994 H 0.73530 0.95880 0.73375
 H995 H 0.71722 1.02020 0.72548
 H996 H 0.78282 1.00317 0.72305
 H997 H 0.78660 1.03150 0.74767
 H998 H 0.78158 1.03132 0.71745
 H999 H 0.71971 0.95078 0.75870
 H1000 H 0.69972 0.96736 0.74261
 H1001 H 0.77151 1.01835 0.78835
 H1002 H 0.74752 1.03677 0.77594
 H1003 H 0.74838 0.95167 0.70764
 H1004 H 0.72545 0.97156 0.69578
 H1005 H 0.71041 1.00247 0.78373
 H1006 H 0.73307 0.98238 0.79720
 H1007 H 0.76242 1.00514 0.68822
 H1008 H 0.78546 0.98586 0.69992
 O1009 O 0.70943 0.51941 0.24539
 O1010 O 0.71909 0.52289 0.27622
 O1011 O 0.75401 0.53719 0.21427
 O1012 O 0.78364 0.53186 0.21428
 O1013 O 0.72882 0.49227 0.20165
 O1014 O 0.73303 0.46311 0.21342
 O1015 O 0.80408 0.49688 0.26750
 O1016 O 0.80039 0.52609 0.25617
 O1017 O 0.76290 0.48471 0.29765
 O1018 O 0.72978 0.48700 0.29435
 O1019 O 0.77943 0.45444 0.25714
 O1020 O 0.77252 0.45421 0.22229
 O1021 O 0.80253 0.47471 0.24829
 O1022 O 0.79376 0.46954 0.21783
 O1023 O 0.75889 0.45856 0.27924
 O1024 O 0.72700 0.46608 0.27942
 O1025 O 0.78393 0.50409 0.29125
 O1026 O 0.78083 0.53137 0.28026
 O1027 O 0.70778 0.49555 0.22863
 O1028 O 0.71433 0.46669 0.23466
 O1029 O 0.75132 0.51022 0.19514
 O1030 O 0.78331 0.50737 0.19947
 O1031 O 0.73353 0.54124 0.23651
 O1032 O 0.74024 0.54188 0.26941
 Zr1033 Zr 0.73627 0.52001 0.25375
 O1034 O 0.75339 0.50816 0.27267
 Zr1035 Zr 0.76468 0.51317 0.21996
 O1036 O 0.78284 0.50073 0.23736
 Zr1037 Zr 0.73339 0.48525 0.22903
 O1038 O 0.74984 0.47178 0.24725
 Zr1039 Zr 0.77974 0.50976 0.26382
 O1040 O 0.76292 0.52374 0.24605
 Zr1041 Zr 0.74818 0.48236 0.27331
 O1042 O 0.72988 0.49437 0.25559
 Zr1043 Zr 0.77623 0.47518 0.23932
 O1044 O 0.75962 0.48723 0.21987
 O1045 O 0.73842 0.51070 0.22772
 O1046 O 0.77450 0.48428 0.26565
 C1047 C 0.70094 0.50886 0.23552
 C1048 C 0.74151 0.54569 0.22182
 C1049 C 0.73695 0.50261 0.19112
 C1050 C 0.81042 0.48344 0.26034
 C1051 C 0.77650 0.49350 0.30192
 C1052 C 0.77141 0.45011 0.27181
 H1053 H 0.75199 0.51342 0.28471
 H1054 H 0.74650 0.45982 0.24730
 H1055 H 0.72999 0.51662 0.21957
 H1056 H 0.79510 0.50229 0.23305
 H1057 H 0.79471 0.53591 0.25013
 H1058 H 0.79482 0.52846 0.22036
 H1059 H 0.72727 0.45688 0.27049
 H1060 H 0.70983 0.46903 0.24701
 H1061 H 0.77348 0.54004 0.27407
 H1062 H 0.73022 0.54977 0.26711
 H1063 H 0.76483 0.44616 0.22874
 H1064 H 0.74323 0.46370 0.20504
 H1065 H 0.71321 0.51198 0.27814
 H1066 H 0.73300 0.49768 0.30019
 H1067 H 0.78063 0.49592 0.19521
 H1068 H 0.79976 0.48008 0.21442
 O1069 O 0.51393 0.21150 0.73198
 O1070 O 0.48296 0.21452 0.73088
 O1071 O 0.53143 0.25619 0.70450
 O1072 O 0.52708 0.28383 0.70720
 O1073 O 0.55657 0.23972 0.75235
 O1074 O 0.55026 0.24260 0.78398
 O1075 O 0.47745 0.29698 0.75060
 O1076 O 0.48166 0.29205 0.71944
 O1077 O 0.46112 0.25404 0.77520
 O1078 O 0.47119 0.22443 0.77566
 O1079 O 0.50386 0.27954 0.79820
 O1080 O 0.53419 0.28349 0.79139
 O1081 O 0.49746 0.30008 0.77347
 O1082 O 0.53177 0.29915 0.76922
 O1083 O 0.48347 0.25870 0.79854
 O1084 O 0.49064 0.22740 0.79463
 O1085 O 0.45815 0.27326 0.75239
 O1086 O 0.46526 0.26870 0.71861
 O1087 O 0.53421 0.21437 0.75467
 O1088 O 0.53234 0.22282 0.78612
 O1089 O 0.55487 0.25996 0.73037
 O1090 O 0.54309 0.28950 0.73131
 O1091 O 0.51321 0.23359 0.70499
 O1092 O 0.48092 0.23318 0.71049
 Zr1093 Zr 0.50079 0.23479 0.73072
 O1094 O 0.48156 0.24773 0.74602
 Zr1095 Zr 0.52789 0.26736 0.72987
 O1096 O 0.50934 0.28221 0.74407
 Zr1097 Zr 0.53098 0.23927 0.76344
 O1098 O 0.51353 0.25326 0.77963
 Zr1099 Zr 0.48345 0.27339 0.74000
 O1100 O 0.50172 0.26032 0.72336
 Zr1101 Zr 0.48751 0.24583 0.77393
 O1102 O 0.50511 0.23069 0.75882
 Zr1103 Zr 0.51419 0.27875 0.77195
 O1104 O 0.53375 0.26506 0.75773
 O1105 O 0.52671 0.24184 0.73573
 O1106 O 0.48825 0.27121 0.76774
 C1107 C 0.52638 0.20580 0.74233
 C1108 C 0.52511 0.24282 0.69747
 C1109 C 0.56340 0.24872 0.73966
 C1110 C 0.48366 0.30479 0.76437
 C1111 C 0.45220 0.26521 0.76631
 C1112 C 0.49126 0.27135 0.80562
 H1113 H 0.46965 0.24336 0.74328
 H1114 H 0.51674 0.25155 0.79256
 H1115 H 0.53525 0.23497 0.72880
 H1116 H 0.51019 0.29413 0.74036
 H1117 H 0.48848 0.28779 0.70896
 H1118 H 0.51774 0.29228 0.70962
 H1119 H 0.49899 0.23177 0.80379
 H1120 H 0.52149 0.21596 0.78576
 H1121 H 0.45701 0.25988 0.72267
 H1122 H 0.48162 0.24356 0.70305
 H1123 H 0.53671 0.27274 0.79774
 H1124 H 0.55498 0.25405 0.78231
 H1125 H 0.48232 0.21058 0.74366
 H1126 H 0.46345 0.22441 0.76478
 H1127 H 0.55056 0.28854 0.74236
 H1128 H 0.52617 0.30767 0.76113
 O1129 O 0.28518 0.74475 0.45381
 O1130 O 0.27684 0.71613 0.45049
 O1131 O 0.24173 0.77292 0.43203
 O1132 O 0.21252 0.77472 0.43614
 O1133 O 0.26358 0.78511 0.48410
 O1134 O 0.26053 0.77381 0.51390
 O1135 O 0.18932 0.72626 0.46935
 O1136 O 0.19695 0.73287 0.43938
 O1137 O 0.23219 0.69668 0.48938
 O1138 O 0.26362 0.69954 0.49109
 O1139 O 0.21163 0.73536 0.51988
 O1140 O 0.21534 0.76564 0.52083
 O1141 O 0.18983 0.74165 0.49520
 O1142 O 0.19922 0.77204 0.49980
 O1143 O 0.23217 0.71443 0.51785
 O1144 O 0.26555 0.71538 0.51230
 O1145 O 0.21046 0.70227 0.46865
 O1146 O 0.21714 0.71049 0.43808
 O1147 O 0.28616 0.76082 0.47921
 O1148 O 0.27810 0.75299 0.51080
 O1149 O 0.24312 0.79113 0.46210
 O1150 O 0.21029 0.78637 0.46235
 O1151 O 0.26280 0.75243 0.42944
 O1152 O 0.25629 0.72174 0.42874
 Zr1153 Zr 0.25893 0.73666 0.45229
 O1154 O 0.24176 0.71932 0.46456
 Zr1155 Zr 0.23019 0.76810 0.45743
 O1156 O 0.21142 0.75191 0.46904
 Zr1157 Zr 0.26008 0.75960 0.48980
 O1158 O 0.24225 0.74375 0.50343
 Zr1159 Zr 0.21551 0.72718 0.46022
 O1160 O 0.23261 0.74383 0.44624
 Zr1161 Zr 0.24508 0.71950 0.49298
 O1162 O 0.26410 0.73506 0.48046
 Zr1163 Zr 0.21595 0.75075 0.49717
 O1164 O 0.23381 0.76822 0.48580
 O1165 O 0.25626 0.76091 0.46197
 O1166 O 0.21870 0.72620 0.48831
 C1167 C 0.29328 0.75445 0.46488
 C1168 C 0.25495 0.76600 0.42405
 C1169 C 0.25594 0.79517 0.47277
 C1170 C 0.18191 0.73237 0.48352
 C1171 C 0.21858 0.69252 0.48003
 C1172 C 0.21906 0.72179 0.52565
 H1173 H 0.24381 0.70805 0.45942
 H1174 H 0.24462 0.74400 0.51664
 H1175 H 0.26461 0.76880 0.45623
 H1176 H 0.19936 0.75599 0.46595
 H1177 H 0.20353 0.73863 0.42957
 H1178 H 0.20293 0.76637 0.43635
 H1179 H 0.26324 0.72273 0.52281
 H1180 H 0.28429 0.74263 0.50690
 H1181 H 0.22414 0.71621 0.42858
 H1182 H 0.26645 0.72403 0.42059
 H1183 H 0.22616 0.76304 0.52797
 H1184 H 0.24888 0.77956 0.51458
 H1185 H 0.28237 0.71466 0.46263
 H1186 H 0.26378 0.69588 0.47828
 H1187 H 0.21281 0.79119 0.47443
 H1188 H 0.19079 0.77210 0.48947
 O1189 O 0.20933 0.21874 0.99519
 O1190 O 0.21470 0.22116 0.96319
 O1191 O 0.25546 0.19904 1.01857
 O1192 O 0.28456 0.20457 1.01901
 O1193 O 0.23038 0.24226 1.03999
 O1194 O 0.23220 0.27210 1.03219
 O1195 O 0.30220 0.24352 0.97113
 O1196 O 0.29787 0.21477 0.97511
 O1197 O 0.25845 0.26293 0.94428
 O1198 O 0.22753 0.26091 0.94709
 O1199 O 0.27672 0.28690 0.98913
 O1200 O 0.27444 0.28293 1.02203
 O1201 O 0.30045 0.26511 0.99103
 O1202 O 0.29309 0.26455 1.02473
 O1203 O 0.25490 0.28608 0.96777
 O1204 O 0.22228 0.27704 0.96833
 O1205 O 0.28046 0.24338 0.94686
 O1206 O 0.27647 0.21218 0.95431
 O1207 O 0.20732 0.24117 1.01417
 O1208 O 0.21284 0.27106 1.01107
 O1209 O 0.25319 0.22344 1.04224
 O1210 O 0.28503 0.22714 1.03637
 O1211 O 0.23458 0.19762 0.99620
 O1212 O 0.23879 0.20311 0.96300
 Zr1213 Zr 0.23472 0.22133 0.98344
 O1214 O 0.25024 0.23587 0.96560
 Zr1215 Zr 0.26506 0.22369 1.01648
 O1216 O 0.28193 0.23802 1.00002
 Zr1217 Zr 0.23260 0.25219 1.01340
 O1218 O 0.24817 0.26803 0.99698
 Zr1219 Zr 0.27708 0.23260 0.97262
 O1220 O 0.26175 0.21662 0.98918
 Zr1221 Zr 0.24511 0.26147 0.96952
 O1222 O 0.22781 0.24688 0.98579
 Zr1223 Zr 0.27513 0.26353 1.00260
 O1224 O 0.25945 0.24929 1.02076
 O1225 O 0.23841 0.22693 1.01062
 O1226 O 0.27188 0.25818 0.97522
 C1227 C 0.20110 0.22780 1.00695
 C1228 C 0.24321 0.19138 1.00981
 C1229 C 0.23944 0.23091 1.04858
 C1230 C 0.30859 0.25650 0.97892
 C1231 C 0.27233 0.25526 0.93832
 C1232 C 0.26758 0.29347 0.97608
 H1233 H 0.24788 0.23274 0.95286
 H1234 H 0.24469 0.27983 0.99916
 H1235 H 0.23107 0.21976 1.01852
 H1236 H 0.29441 0.23569 1.00334
 H1237 H 0.29300 0.20501 0.98177
 H1238 H 0.29503 0.20821 1.01205
 H1239 H 0.22370 0.28585 0.97760
 H1240 H 0.20680 0.26930 0.99928
 H1241 H 0.26888 0.21530 0.94380
 H1242 H 0.22972 0.19427 0.96443
 H1243 H 0.26285 0.28871 1.02086
 H1244 H 0.24349 0.27139 1.03904
 H1245 H 0.20785 0.23174 0.96439
 H1246 H 0.22426 0.24907 0.94532
 H1247 H 0.28225 0.23776 1.04265
 H1248 H 0.30208 0.25560 1.02309
 C1249 C 0.30591 0.36722 0.79557
 C1250 C 0.29781 0.38281 0.79182
 C1251 C 0.28038 0.38343 0.78468
 C1252 C 0.27126 0.36846 0.78169
 C1253 C 0.27928 0.35303 0.78581
 C1254 C 0.29664 0.35230 0.79270
 C1255 C 0.27233 0.39896 0.78067
 C1256 C 0.28143 0.41392 0.78380
 C1257 C 0.29874 0.41330 0.79130
 C1258 C 0.30681 0.39777 0.79523
 C1259 C 0.30779 0.42827 0.79451
 C1260 C 0.30005 0.44365 0.78970
 C1261 C 0.28315 0.44431 0.78178
 C1262 C 0.27369 0.42949 0.77918
 H1263 H 0.31922 0.36667 0.80113
 H1264 H 0.25789 0.36869 0.77629
 H1265 H 0.27196 0.34161 0.78360
 H1266 H 0.25904 0.39941 0.77501
 H1267 H 0.32013 0.39732 0.80082
 H1268 H 0.32096 0.42805 0.80041
 H1269 H 0.30734 0.45507 0.79195
 H1270 H 0.26065 0.43007 0.77295
 C1271 C 0.31405 -0.11691 0.32115
 C1272 C 0.30695 -0.10358 0.31072
 C1273 C 0.31837 -0.09312 0.30067
 C1274 C 0.33665 -0.09582 0.30158
 C1275 C 0.34365 -0.10894 0.31206
 C1276 C 0.33254 -0.12008 0.32172
 C1277 C 0.31138 -0.08013 0.28981
 C1278 C 0.29306 -0.07733 0.28900
 C1279 C 0.28155 -0.08753 0.29930
 C1280 C 0.28857 -0.10071 0.30998
 C1281 C 0.26326 -0.08416 0.29895
 C1282 C 0.25650 -0.07060 0.28878
 C1283 C 0.26787 -0.06061 0.27834
 C1284 C 0.28611 -0.06419 0.27835
 H1285 H 0.30492 -0.12523 0.32792
 H1286 H 0.34558 -0.08780 0.29410
 H1287 H 0.35792 -0.10999 0.31276
 H1288 H 0.32021 -0.07216 0.28206
 H1289 H 0.27975 -0.10862 0.31779
 H1290 H 0.25425 -0.09175 0.30687
 H1291 H 0.24245 -0.06782 0.28916
 H1292 H 0.29504 -0.05618 0.27077
 C1293 C 0.79859 0.86048 0.79376
 C1294 C 0.79517 0.87508 0.78354
 C1295 C 0.80917 0.88599 0.77908
 C1296 C 0.82645 0.88183 0.78449
 C1297 C 0.82984 0.86708 0.79434
 C1298 C 0.81597 0.85622 0.79933
 C1299 C 0.80562 0.90096 0.76951
 C1300 C 0.78821 0.90517 0.76444
 C1301 C 0.77429 0.89394 0.76840
 C1302 C 0.77789 0.87894 0.77780
 C1303 C 0.75685 0.89824 0.76362
 C1304 C 0.75307 0.91397 0.75606
 C1305 C 0.76668 0.92541 0.75273
 C1306 C 0.78431 0.92080 0.75635
 H1307 H 0.78771 0.85212 0.79664
 H1308 H 0.83735 0.89005 0.78123
 H1309 H 0.84334 0.86465 0.79869
 H1310 H 0.81632 0.90951 0.76643
 H1311 H 0.76715 0.87050 0.78109
 H1312 H 0.74606 0.88979 0.76653
 H1313 H 0.73938 0.91753 0.75356
 H1314 H 0.79474 0.92984 0.75425
 C1315 C 0.44175 0.87320 0.31585
 C1316 C 0.44773 0.85925 0.30596
 C1317 C 0.43565 0.85021 0.29518
 C1318 C 0.41778 0.85502 0.29482
 C1319 C 0.41180 0.86845 0.30525
 C1320 C 0.42369 0.87793 0.31571
 C1321 C 0.44157 0.83641 0.28511
 C1322 C 0.45932 0.83113 0.28618
 C1323 C 0.47136 0.83994 0.29724
 C1324 C 0.46556 0.85412 0.30681
 C1325 C 0.48892 0.83417 0.29887
 C1326 C 0.49437 0.81955 0.29003
 C1327 C 0.48252 0.81077 0.27895
 C1328 C 0.46508 0.81683 0.27682
 H1329 H 0.45128 0.88040 0.32346
 H1330 H 0.40836 0.84827 0.28659
 H1331 H 0.39776 0.87127 0.30514
 H1332 H 0.43229 0.82958 0.27674
 H1333 H 0.47483 0.86093 0.31521
 H1334 H 0.49831 0.84071 0.30736
 H1335 H 0.50781 0.81500 0.29197
 H1336 H 0.45574 0.80993 0.26859
 C1337 C -0.04738 0.90341 0.77194
 C1338 C -0.03864 0.88825 0.76787
 C1339 C -0.01990 0.88755 0.76765
 C1340 C -0.01025 0.90216 0.77080
 C1341 C -0.01902 0.91712 0.77497
 C1342 C -0.03761 0.91781 0.77605
 C1343 C -0.01111 0.87222 0.76468
 C1344 C -0.02079 0.85754 0.76184
 C1345 C -0.03953 0.85836 0.76151
 C1346 C -0.04831 0.87366 0.76458
 C1347 C -0.04923 0.84382 0.75818
 C1348 C -0.04049 0.82861 0.75521
 C1349 C -0.02191 0.82755 0.75582
 C1350 C -0.01207 0.84204 0.75929
 H1351 H -0.06170 0.90378 0.77286
 H1352 H 0.00409 0.90193 0.77052
 H1353 H -0.01122 0.92812 0.77790
 H1354 H 0.00325 0.87169 0.76478
 H1355 H -0.06267 0.87417 0.76460
 H1356 H -0.06357 0.84421 0.75783
 H1357 H -0.04832 0.81755 0.75265
 H1358 H 0.00227 0.84130 0.75961
 C1359 C -0.06406 -0.12205 -0.07287
 C1360 C -0.05632 -0.10863 -0.06345
 C1361 C -0.05911 -0.10698 -0.04457
 C1362 C -0.06930 -0.11880 -0.03538
 C1363 C -0.07674 -0.13216 -0.04467
 C1364 C -0.07455 -0.13408 -0.06367
 C1365 C -0.05167 -0.09357 -0.03511
 C1366 C -0.04131 -0.08173 -0.04423
 C1367 C -0.03825 -0.08341 -0.06307
 C1368 C -0.04584 -0.09679 -0.07259
 C1369 C -0.02775 -0.07158 -0.07209
 C1370 C -0.02060 -0.05809 -0.06261
 C1371 C -0.02386 -0.05608 -0.04392
 C1372 C -0.03414 -0.06811 -0.03481
 H1373 H -0.06225 -0.12262 -0.08742
 H1374 H -0.07133 -0.11787 -0.02084
 H1375 H -0.08360 -0.14133 -0.03648
 H1376 H -0.05400 -0.09231 -0.02064
 H1377 H -0.04358 -0.09799 -0.08707
 H1378 H -0.02523 -0.07265 -0.08652
 H1379 H -0.01291 -0.04895 -0.07008
 H1380 H -0.03684 -0.06676 -0.02043
 C1381 C -0.04320 0.36289 0.45423
 C1382 C -0.03959 0.37922 0.46040
 C1383 C -0.05362 0.39087 0.46272
 C1384 C -0.07100 0.38602 0.45876
 C1385 C -0.07449 0.36980 0.45270
 C1386 C -0.06071 0.35798 0.45045
 C1387 C -0.05009 0.40717 0.46891
 C1388 C -0.03264 0.41206 0.47272
 C1389 C -0.01860 0.40041 0.47031
 C1390 C -0.02217 0.38408 0.46429
 C1391 C -0.00114 0.40536 0.47366
 C1392 C 0.00248 0.42178 0.47887
 C1393 C -0.01127 0.43353 0.48128
 C1394 C -0.02889 0.42852 0.47846
 H1395 H -0.03245 0.35393 0.45271
 H1396 H -0.08192 0.39478 0.46035
 H1397 H -0.08805 0.36652 0.44964
 H1398 H -0.06089 0.41607 0.47061
 H1399 H -0.01135 0.37521 0.46248
 H1400 H 0.00977 0.39663 0.47184
 H1401 H 0.01614 0.42540 0.48083
 H1402 H -0.03955 0.43760 0.47991
 C1403 C 0.43579 -0.14061 0.46523
 C1404 C 0.44181 -0.12449 0.46944
 C1405 C 0.45270 -0.11582 0.45703
 C1406 C 0.45703 -0.12316 0.44046
 C1407 C 0.45091 -0.13909 0.43627
 C1408 C 0.44045 -0.14835 0.44866
 C1409 C 0.45916 -0.09994 0.46136
 C1410 C 0.45469 -0.09249 0.47789
 C1411 C 0.44352 -0.10098 0.49023
 C1412 C 0.43724 -0.11698 0.48598
 C1413 C 0.43880 -0.09326 0.50658
 C1414 C 0.44501 -0.07726 0.51061
 C1415 C 0.45627 -0.06882 0.49849
 C1416 C 0.46113 -0.07660 0.48219
 H1417 H 0.42821 -0.14730 0.47537
 H1418 H 0.46511 -0.11654 0.43066
 H1419 H 0.45405 -0.14377 0.42291
 H1420 H 0.46769 -0.09340 0.45188
 H1421 H 0.42879 -0.12356 0.49551
 H1422 H 0.43023 -0.09955 0.51619
 H1423 H 0.44107 -0.07152 0.52327
 H1424 H 0.46968 -0.07018 0.47266
 C1425 C 0.44605 0.36673 -0.04744
 C1426 C 0.45667 0.37942 -0.04038
 C1427 C 0.46168 0.39302 -0.05165
 C1428 C 0.45588 0.39373 -0.06977
 C1429 C 0.44515 0.38108 -0.07666
 C1430 C 0.44012 0.36750 -0.06556
 C1431 C 0.47222 0.40578 -0.04457
 C1432 C 0.47743 0.40530 -0.02625
 C1433 C 0.47226 0.39180 -0.01492
 C1434 C 0.46214 0.37881 -0.02214
 C1435 C 0.47682 0.39182 0.00360
 C1436 C 0.48584 0.40541 0.01097
 C1437 C 0.49097 0.41882 -0.00023
 C1438 C 0.48710 0.41850 -0.01890
 H1439 H 0.44252 0.35617 -0.03886
 H1440 H 0.45951 0.40411 -0.07856
 H1441 H 0.44062 0.38201 -0.09062
 H1442 H 0.47603 0.41626 -0.05318
 H1443 H 0.45816 0.36844 -0.01347
 H1444 H 0.47287 0.38162 0.01249
 H1445 H 0.48854 0.40561 0.02543
 H1446 H 0.49061 0.42907 -0.02750
 C1447 C 0.79209 0.39234 0.44596
 C1448 C 0.78564 0.37653 0.45084
 C1449 C 0.79752 0.36275 0.45233
 C1450 C 0.81553 0.36492 0.44865
 C1451 C 0.82183 0.38070 0.44383
 C1452 C 0.81023 0.39455 0.44260
 C1453 C 0.79129 0.34708 0.45775
 C1454 C 0.77340 0.34504 0.46197
 C1455 C 0.76135 0.35864 0.46017
 C1456 C 0.76757 0.37435 0.45453
 C1457 C 0.74338 0.35628 0.46434
 C1458 C 0.73756 0.34067 0.47072
 C1459 C 0.74973 0.32748 0.47306
 C1460 C 0.76746 0.32960 0.46833
 H1461 H 0.78309 0.40300 0.44520
 H1462 H 0.82475 0.35445 0.44966
 H1463 H 0.83581 0.38208 0.44099
 H1464 H 0.80041 0.33653 0.45902
 H1465 H 0.75845 0.38490 0.45330
 H1466 H 0.73393 0.36653 0.46292
 H1467 H 0.72377 0.33901 0.47423
 H1468 H 0.77668 0.31915 0.46978
 C1469 C 0.80494 0.86732 -0.06936
 C1470 C 0.79911 0.85224 -0.06158
 C1471 C 0.81161 0.83990 -0.05600
 C1472 C 0.82972 0.84276 -0.05862
 C1473 C 0.83542 0.85780 -0.06647
 C1474 C 0.82311 0.87028 -0.07181
 C1475 C 0.80581 0.82496 -0.04785
 C1476 C 0.78764 0.82217 -0.04537
 C1477 C 0.77513 0.83437 -0.05130
 C1478 C 0.78096 0.84937 -0.05924
 C1479 C 0.75697 0.83128 -0.04935
 C1480 C 0.75123 0.81616 -0.04174
 C1481 C 0.76354 0.80410 -0.03556
 C1482 C 0.78176 0.80723 -0.03731
 H1483 H 0.79531 0.87691 -0.07315
 H1484 H 0.83949 0.83339 -0.05456
 H1485 H 0.84947 0.85964 -0.06842
 H1486 H 0.81540 0.81552 -0.04349
 H1487 H 0.77136 0.85878 -0.06367
 H1488 H 0.74722 0.84044 -0.05394
 H1489 H 0.73715 0.81388 -0.04067
 H1490 H 0.79134 0.79778 -0.03299
 C1491 C 0.81291 0.31623 0.36663
 C1492 C 0.80591 0.30696 0.38127
 C1493 C 0.81742 0.30020 0.39474
 C1494 C 0.83571 0.30268 0.39327
 C1495 C 0.84257 0.31161 0.37851
 C1496 C 0.83129 0.31846 0.36509
 C1497 C 0.81050 0.29104 0.40943
 C1498 C 0.79219 0.28847 0.41084
 C1499 C 0.78070 0.29506 0.39728
 C1500 C 0.78761 0.30425 0.38259
 C1501 C 0.76240 0.29262 0.39881
 C1502 C 0.75549 0.28427 0.41394
 C1503 C 0.76672 0.27796 0.42773
 C1504 C 0.78515 0.27981 0.42586
 H1505 H 0.80416 0.32134 0.35621
 H1506 H 0.84473 0.29760 0.40346
 H1507 H 0.85677 0.31324 0.37759
 H1508 H 0.81935 0.28601 0.41983
 H1509 H 0.77875 0.30937 0.37226
 H1510 H 0.75339 0.29755 0.38854
 H1511 H 0.74126 0.28309 0.41507
 H1512 H 0.79396 0.27527 0.43654
 C1513 C 0.79610 0.79585 -0.15262
 C1514 C 0.78514 0.78982 -0.13873
 C1515 C 0.77558 0.80121 -0.12786
 C1516 C 0.77662 0.81843 -0.13154
 C1517 C 0.78751 0.82438 -0.14543
 C1518 C 0.79783 0.81324 -0.15595
 C1519 C 0.76554 0.79525 -0.11319
 C1520 C 0.76518 0.77802 -0.10914
 C1521 C 0.77428 0.76658 -0.12043
 C1522 C 0.78403 0.77254 -0.13527
 C1523 C 0.77417 0.74941 -0.11622
 C1524 C 0.76609 0.74372 -0.10033
 C1525 C 0.75769 0.75504 -0.08856
 C1526 C 0.75668 0.77213 -0.09343
 H1527 H 0.80303 0.78684 -0.16098
 H1528 H 0.76936 0.82736 -0.12334
 H1529 H 0.78857 0.83783 -0.14704
 H1530 H 0.75853 0.80404 -0.10458
 H1531 H 0.79129 0.76377 -0.14369
 H1532 H 0.78100 0.74048 -0.12478
 H1533 H 0.76701 0.73050 -0.09687
 H1534 H 0.75045 0.78101 -0.08433
 C1535 C 0.31889 0.44940 0.89385
 C1536 C 0.30905 0.45791 0.88037
 C1537 C 0.29080 0.45462 0.87832
 C1538 C 0.28265 0.44318 0.89012
 C1539 C 0.29247 0.43501 0.90377
 C1540 C 0.31074 0.43792 0.90576
 C1541 C 0.28108 0.46273 0.86444
 C1542 C 0.28936 0.47420 0.85270
 C1543 C 0.30750 0.47782 0.85515
 C1544 C 0.31724 0.46960 0.86889
 C1545 C 0.31572 0.48941 0.84360
 C1546 C 0.30624 0.49696 0.82936
 C1547 C 0.28835 0.49302 0.82630
 C1548 C 0.27991 0.48180 0.83828
 H1549 H 0.33300 0.45159 0.89483
 H1550 H 0.26864 0.44059 0.88885
 H1551 H 0.28569 0.42651 0.91289
 H1552 H 0.26713 0.46001 0.86267
 H1553 H 0.33122 0.47223 0.87057
 H1554 H 0.32960 0.49236 0.84531
 H1555 H 0.31317 0.50538 0.82028
 H1556 H 0.26615 0.47861 0.83609
 C1557 C 0.29088 -0.03879 0.40112
 C1558 C 0.28442 -0.03062 0.38542
 C1559 C 0.26593 -0.02903 0.38262
 C1560 C 0.25427 -0.03493 0.39590
 C1561 C 0.26079 -0.04295 0.41150
 C1562 C 0.27911 -0.04536 0.41409
 C1563 C 0.25939 -0.02199 0.36639
 C1564 C 0.27108 -0.01655 0.35288
 C1565 C 0.28956 -0.01742 0.35598
 C1566 C 0.29612 -0.02446 0.37224
 C1567 C 0.30117 -0.01165 0.34254
 C1568 C 0.29456 -0.00573 0.32588
 C1569 C 0.27626 -0.00569 0.32230
 C1570 C 0.26457 -0.01075 0.33606
 H1571 H 0.30503 -0.04066 0.40281
 H1572 H 0.24007 -0.03363 0.39407
 H1573 H 0.25144 -0.04751 0.42147
 H1574 H 0.24521 -0.02115 0.36408
 H1575 H 0.31030 -0.02549 0.37445
 H1576 H 0.31537 -0.01212 0.34471
 H1577 H 0.30385 -0.00188 0.31551
 H1578 H 0.25042 -0.01063 0.33349
 C1579 C -0.05094 -0.03077 -0.16324
 C1580 C -0.04376 -0.02474 -0.14694
 C1581 C -0.02554 -0.02705 -0.14323
 C1582 C -0.01474 -0.03499 -0.15596
 C1583 C -0.02192 -0.04097 -0.17210
 C1584 C -0.04021 -0.03925 -0.17602
 C1585 C -0.01839 -0.02159 -0.12674
 C1586 C -0.02928 -0.01396 -0.11379
 C1587 C -0.04747 -0.01135 -0.11755
 C1588 C -0.05461 -0.01674 -0.13413
 C1589 C -0.05825 -0.00366 -0.10450
 C1590 C -0.05116 0.00098 -0.08770
 C1591 C -0.03318 -0.00199 -0.08368
 C1592 C -0.02228 -0.00924 -0.09697
 H1593 H -0.06509 -0.02959 -0.16530
 H1594 H -0.00068 -0.03662 -0.15343
 H1595 H -0.01283 -0.04651 -0.18170
 H1596 H -0.00442 -0.02354 -0.12386
 H1597 H -0.06861 -0.01491 -0.13694
 H1598 H -0.07222 -0.00152 -0.10715
 H1599 H -0.05988 0.00647 -0.07768
 H1600 H -0.00836 -0.01154 -0.09412
 C1601 C -0.06551 0.43234 0.37116
 C1602 C -0.05335 0.43922 0.38335
 C1603 C -0.04372 0.42862 0.39538
 C1604 C -0.04623 0.41125 0.39475
 C1605 C -0.05791 0.40441 0.38211
 C1606 C -0.06777 0.41483 0.37009
 C1607 C -0.03173 0.43556 0.40776
 C1608 C -0.02916 0.45296 0.40812
 C1609 C -0.03850 0.46350 0.39574
 C1610 C -0.05051 0.45656 0.38345
 C1611 C -0.03609 0.48089 0.39623
 C1612 C -0.02530 0.48789 0.40952
 C1613 C -0.01649 0.47760 0.42232
 C1614 C -0.01798 0.46009 0.42116
 H1615 H -0.07231 0.44069 0.36168
 H1616 H -0.03902 0.40292 0.40393
 H1617 H -0.05953 0.39093 0.38212
 H1618 H -0.02454 0.42745 0.41721
 H1619 H -0.05781 0.46468 0.37410
 H1620 H -0.04309 0.48912 0.38678
 H1621 H -0.02439 0.50142 0.41027
 H1622 H -0.01149 0.45209 0.43121
 C1623 C 0.43159 -0.06511 0.37154
 C1624 C 0.43942 -0.05925 0.38754
 C1625 C 0.44563 -0.07081 0.40084
 C1626 C 0.44390 -0.08808 0.39778
 C1627 C 0.43579 -0.09382 0.38188
 C1628 C 0.42937 -0.08240 0.36869
 C1629 C 0.45315 -0.06489 0.41704
 C1630 C 0.45417 -0.04756 0.42024
 C1631 C 0.44785 -0.03606 0.40692
 C1632 C 0.44075 -0.04197 0.39058
 C1633 C 0.44834 -0.01880 0.41031
 C1634 C 0.45465 -0.01295 0.42693
 C1635 C 0.46095 -0.02421 0.44030
 C1636 C 0.46095 -0.04153 0.43674
 H1637 H 0.42707 -0.05615 0.36132
 H1638 H 0.44852 -0.09713 0.40784
 H1639 H 0.43415 -0.10719 0.38014
 H1640 H 0.45786 -0.07374 0.42727
 H1641 H 0.43587 -0.03312 0.38041
 H1642 H 0.44352 -0.00983 0.40026
 H1643 H 0.45455 0.00044 0.42936
 H1644 H 0.46559 -0.05032 0.44706
 C1645 C 0.44699 0.43016 -0.11604
 C1646 C 0.45222 0.43830 -0.10017
 C1647 C 0.43945 0.44602 -0.08900
 C1648 C 0.42155 0.44550 -0.09407
 C1649 C 0.41642 0.43769 -0.11021
 C1650 C 0.42906 0.42986 -0.12151
 C1651 C 0.44484 0.45434 -0.07318
 C1652 C 0.46292 0.45525 -0.06867
 C1653 C 0.47562 0.44761 -0.08009
 C1654 C 0.47019 0.43912 -0.09564
 C1655 C 0.49363 0.44851 -0.07579
 C1656 C 0.49909 0.45662 -0.06011
 C1657 C 0.48668 0.46403 -0.04839
 C1658 C 0.46856 0.46351 -0.05288
 H1659 H 0.45724 0.42503 -0.12468
 H1660 H 0.41152 0.45128 -0.08565
 H1661 H 0.40244 0.43742 -0.11345
 H1662 H 0.43505 0.46022 -0.06452
 H1663 H 0.48000 0.43323 -0.10431
 H1664 H 0.50350 0.44276 -0.08445
 H1665 H 0.51312 0.45684 -0.05700
 H1666 H 0.45886 0.46901 -0.04384
 C1667 C 0.43966 0.79187 0.39965
 C1668 C 0.44841 0.78517 0.38457
 C1669 C 0.46707 0.78598 0.38344
 C1670 C 0.47669 0.79302 0.39778
 C1671 C 0.46786 0.79975 0.41273
 C1672 C 0.44925 0.79955 0.41363
 C1673 C 0.47574 0.78010 0.36787
 C1674 C 0.46596 0.77339 0.35343
 C1675 C 0.44733 0.77219 0.35487
 C1676 C 0.43869 0.77810 0.37038
 C1677 C 0.43754 0.76524 0.34069
 C1678 C 0.44605 0.75967 0.32510
 C1679 C 0.46452 0.76117 0.32318
 C1680 C 0.47443 0.76801 0.33749
 H1681 H 0.42531 0.79183 0.40007
 H1682 H 0.49100 0.79363 0.39725
 H1683 H 0.47556 0.80542 0.42346
 H1684 H 0.49003 0.78094 0.36688
 H1685 H 0.42438 0.77740 0.37129
 H1686 H 0.42327 0.76421 0.34159
 H1687 H 0.43803 0.75453 0.31430
 H1688 H 0.48867 0.76915 0.33623
 C1689 C -0.05803 0.82245 0.88176
 C1690 C -0.05223 0.81453 0.86580
 C1691 C -0.06478 0.80890 0.85293
 C1692 C -0.08286 0.81163 0.85601
 C1693 C -0.08851 0.81938 0.87192
 C1694 C -0.07623 0.82464 0.88508
 C1695 C -0.05912 0.80049 0.83728
 C1696 C -0.04102 0.79770 0.83421
 C1697 C -0.02843 0.80363 0.84687
 C1698 C -0.03411 0.81190 0.86261
 C1699 C -0.01033 0.80130 0.84347
 C1700 C -0.00473 0.79339 0.82761
 C1701 C -0.01712 0.78728 0.81506
 C1702 C -0.03528 0.78931 0.81853
 H1703 H -0.04846 0.82636 0.89186
 H1704 H -0.09265 0.80757 0.84623
 H1705 H -0.10258 0.82111 0.87409
 H1706 H -0.06879 0.79612 0.82751
 H1707 H -0.02443 0.81630 0.87237
 H1708 H -0.00048 0.80582 0.85296
 H1709 H 0.00933 0.79202 0.82511
 H1710 H -0.04488 0.78493 0.80871
 C1711 C 0.37881 0.83067 0.30848
 C1712 C 0.39199 0.81981 0.30202
 C1713 C 0.40550 0.81402 0.31398
 C1714 C 0.40588 0.81956 0.33199
 C1715 C 0.39254 0.83016 0.33837
 C1716 C 0.37877 0.83552 0.32677
 C1717 C 0.41817 0.80251 0.30786
 C1718 C 0.41754 0.79678 0.28994
 C1719 C 0.40444 0.80296 0.27776
 C1720 C 0.39167 0.81440 0.28392
 C1721 C 0.40449 0.79766 0.25959
 C1722 C 0.41742 0.78633 0.25358
 C1723 C 0.43000 0.77982 0.26585
 C1724 C 0.43002 0.78509 0.28394
 H1725 H 0.36809 0.83464 0.29954
 H1726 H 0.41620 0.81531 0.34128
 H1727 H 0.39266 0.83382 0.35251
 H1728 H 0.42841 0.79792 0.31707
 H1729 H 0.38146 0.81902 0.27470
 H1730 H 0.39469 0.80243 0.25001
 H1731 H 0.41759 0.78260 0.23946
 H1732 H 0.44027 0.78056 0.29317
 C1733 C -0.13954 0.80596 0.79279
 C1734 C -0.12357 0.79789 0.78862
 C1735 C -0.11338 0.79027 0.80264
 C1736 C -0.11952 0.79073 0.82060
 C1737 C -0.13534 0.79911 0.82470
 C1738 C -0.14537 0.80697 0.81085
 C1739 C -0.09710 0.78264 0.79851
 C1740 C -0.09072 0.78297 0.78061
 C1741 C -0.10099 0.79056 0.76663
 C1742 C -0.11746 0.79775 0.77068
 C1743 C -0.09442 0.79126 0.74887
 C1744 C -0.07755 0.78499 0.74506
 C1745 C -0.06710 0.77763 0.75889
 C1746 C -0.07395 0.77631 0.77658
 H1747 H -0.14737 0.81166 0.78195
 H1748 H -0.11191 0.78493 0.83152
 H1749 H -0.13951 0.79979 0.83874
 H1750 H -0.08922 0.77685 0.80925
 H1751 H -0.12528 0.80367 0.75996
 H1752 H -0.10214 0.79703 0.73801
 H1753 H -0.07259 0.78609 0.73132
 H1754 H -0.06597 0.77076 0.78737
 C1755 C 0.88429 0.31626 0.45856
 C1756 C 0.86930 0.30761 0.46481
 C1757 C 0.86922 0.28988 0.46480
 C1758 C 0.88441 0.28110 0.45943
 C1759 C 0.89942 0.28974 0.45377
 C1760 C 0.89948 0.30742 0.45276
 C1761 C 0.85400 0.28118 0.47018
 C1762 C 0.83896 0.28997 0.47612
 C1763 C 0.83935 0.30769 0.47699
 C1764 C 0.85437 0.31640 0.47106
 C1765 C 0.82466 0.31642 0.48378
 C1766 C 0.80960 0.30775 0.48926
 C1767 C 0.80868 0.29019 0.48765
 C1768 C 0.82353 0.28135 0.48117
 H1769 H 0.88392 0.32984 0.45789
 H1770 H 0.88473 0.26750 0.45968
 H1771 H 0.91102 0.28245 0.45018
 H1772 H 0.85388 0.26758 0.46979
 H1773 H 0.85446 0.33001 0.47139
 H1774 H 0.82478 0.32997 0.48474
 H1775 H 0.79842 0.31491 0.49427
 H1776 H 0.82307 0.26782 0.48003
 C1777 C 0.87127 0.80795 -0.07141
 C1778 C 0.85940 0.79774 -0.06184
 C1779 C 0.85810 0.79911 -0.04276
 C1780 C 0.86905 0.81028 -0.03353
 C1781 C 0.88140 0.81982 -0.04305
 C1782 C 0.88269 0.81888 -0.06213
 C1783 C 0.84603 0.78917 -0.03318
 C1784 C 0.83557 0.77753 -0.04239
 C1785 C 0.83734 0.77570 -0.06139
 C1786 C 0.84905 0.78598 -0.07104
 C1787 C 0.82717 0.76375 -0.07047
 C1788 C 0.81480 0.75422 -0.06096
 C1789 C 0.81227 0.75655 -0.04221
 C1790 C 0.82307 0.76795 -0.03294
 H1791 H 0.87160 0.80720 -0.08609
 H1792 H 0.86837 0.81135 -0.01888
 H1793 H 0.89022 0.82761 -0.03526
 H1794 H 0.84481 0.79046 -0.01857
 H1795 H 0.85020 0.78475 -0.08566
 H1796 H 0.82843 0.76211 -0.08501
 H1797 H 0.80651 0.74570 -0.06851
 H1798 H 0.82125 0.76989 -0.01850
 C1799 C -0.13489 -0.06418 -0.06681
 C1800 C -0.12015 -0.05671 -0.05855
 C1801 C -0.10521 -0.06670 -0.05386
 C1802 C -0.10510 -0.08385 -0.05779
 C1803 C -0.11974 -0.09115 -0.06608
 C1804 C -0.13486 -0.08148 -0.07053
 C1805 C -0.09060 -0.05940 -0.04531
 C1806 C -0.09061 -0.04218 -0.04159
 C1807 C -0.10536 -0.03208 -0.04657
 C1808 C -0.12012 -0.03944 -0.05487
 C1809 C -0.10496 -0.01475 -0.04336
 C1810 C -0.08999 -0.00747 -0.03552
 C1811 C -0.07539 -0.01747 -0.03033
 C1812 C -0.07589 -0.03486 -0.03327
 H1813 H -0.14650 -0.05660 -0.06999
 H1814 H -0.09370 -0.09164 -0.05444
 H1815 H -0.11921 -0.10443 -0.06907
 H1816 H -0.07919 -0.06709 -0.04166
 H1817 H -0.13151 -0.03173 -0.05859
 H1818 H -0.11609 -0.00679 -0.04720
 H1819 H -0.08979 0.00598 -0.03356
 H1820 H -0.06451 -0.04264 -0.02973
 C1821 C -0.13831 0.45433 0.44999
 C1822 C -0.12173 0.45879 0.45712
 C1823 C -0.10966 0.44615 0.46284
 C1824 C -0.11418 0.42931 0.46109
 C1825 C -0.13052 0.42494 0.45379
 C1826 C -0.14308 0.43730 0.44826
 C1827 C -0.09314 0.45049 0.46998
 C1828 C -0.08830 0.46736 0.47105
 C1829 C -0.10025 0.48007 0.46513
 C1830 C -0.11700 0.47572 0.45847
 C1831 C -0.09503 0.49689 0.46552
 C1832 C -0.07795 0.50102 0.47120
 C1833 C -0.06606 0.48844 0.47709
 C1834 C -0.07144 0.47167 0.47736
 H1835 H -0.14756 0.46428 0.44646
 H1836 H -0.10494 0.41946 0.46510
 H1837 H -0.13282 0.41171 0.45189
 H1838 H -0.08390 0.44074 0.47435
 H1839 H -0.12617 0.48546 0.45396
 H1840 H -0.10396 0.50680 0.46098
 H1841 H -0.07395 0.51403 0.47084
 H1842 H -0.06216 0.46190 0.48157
 C1843 C 0.33171 -0.04176 0.46377
 C1844 C 0.34866 -0.03875 0.47091
 C1845 C 0.35943 -0.05238 0.47678
 C1846 C 0.35318 -0.06877 0.47516
 C1847 C 0.33653 -0.07168 0.46759
 C1848 C 0.32553 -0.05826 0.46185
 C1849 C 0.37639 -0.04945 0.48386
 C1850 C 0.38296 -0.03308 0.48463
 C1851 C 0.37232 -0.01947 0.47843
 C1852 C 0.35514 -0.02236 0.47190
 C1853 C 0.37917 -0.00319 0.47852
 C1854 C 0.39648 -0.00045 0.48440
 C1855 C 0.40710 -0.01385 0.49074
 C1856 C 0.40019 -0.03013 0.49107
 H1857 H 0.32342 -0.03122 0.45967
 H1858 H 0.36132 -0.07938 0.47940
 H1859 H 0.33247 -0.08456 0.46588
 H1860 H 0.38461 -0.05992 0.48839
 H1861 H 0.34699 -0.01190 0.46722
 H1862 H 0.37124 0.00737 0.47375
 H1863 H 0.40159 0.01220 0.48409
 H1864 H 0.40843 -0.04054 0.49572
 C1865 C 0.37008 0.43204 -0.03505
 C1866 C 0.38535 0.44004 -0.02850
 C1867 C 0.39300 0.45313 -0.03877
 C1868 C 0.38546 0.45789 -0.05541
 C1869 C 0.37046 0.44982 -0.06193
 C1870 C 0.36226 0.43681 -0.05190
 C1871 C 0.40814 0.46123 -0.03234
 C1872 C 0.41593 0.45631 -0.01580
 C1873 C 0.40843 0.44316 -0.00548
 C1874 C 0.39310 0.43518 -0.01182
 C1875 C 0.41652 0.43813 0.01092
 C1876 C 0.43204 0.44587 0.01687
 C1877 C 0.43963 0.45895 0.00667
 C1878 C 0.43131 0.46418 -0.00960
 H1879 H 0.36410 0.42254 -0.02653
 H1880 H 0.39132 0.46776 -0.06356
 H1881 H 0.36588 0.45351 -0.07533
 H1882 H 0.41393 0.47130 -0.04027
 H1883 H 0.38733 0.42510 -0.00389
 H1884 H 0.41099 0.42806 0.01901
 H1885 H 0.43818 0.44151 0.02940
 H1886 H 0.43705 0.47412 -0.01775
 C1887 C 0.38939 0.44759 0.82128
 C1888 C 0.37625 0.45441 0.80980
 C1889 C 0.36579 0.44364 0.79908
 C1890 C 0.36850 0.42626 0.80019
 C1891 C 0.38155 0.41958 0.81168
 C1892 C 0.39219 0.43015 0.82224
 C1893 C 0.35271 0.45038 0.78754
 C1894 C 0.34958 0.46773 0.78694
 C1895 C 0.35991 0.47852 0.79773
 C1896 C 0.37335 0.47182 0.80891
 C1897 C 0.35624 0.49579 0.79755
 C1898 C 0.34192 0.50219 0.78750
 C1899 C 0.33130 0.49148 0.77709
 C1900 C 0.33571 0.47434 0.77632
 H1901 H 0.39765 0.45586 0.82920
 H1902 H 0.36051 0.41783 0.79219
 H1903 H 0.38335 0.40609 0.81234
 H1904 H 0.34470 0.44210 0.77935
 H1905 H 0.38128 0.48009 0.81720
 H1906 H 0.36401 0.50426 0.80573
 H1907 H 0.33880 0.51545 0.78835
 H1908 H 0.32761 0.46591 0.76843
 C1909 C 0.37948 -0.06863 0.30492
 C1910 C 0.36541 -0.05818 0.29913
 C1911 C 0.35251 -0.05292 0.31181
 C1912 C 0.35368 -0.05844 0.32991
 C1913 C 0.36769 -0.06879 0.33554
 C1914 C 0.38084 -0.07381 0.32320
 C1915 C 0.33865 -0.04224 0.30623
 C1916 C 0.33733 -0.03694 0.28806
 C1917 C 0.34993 -0.04250 0.27523
 C1918 C 0.36401 -0.05295 0.28090
 C1919 C 0.34799 -0.03776 0.25689
 C1920 C 0.33350 -0.02791 0.25127
 C1921 C 0.32117 -0.02216 0.26402
 C1922 C 0.32324 -0.02656 0.28241
 H1923 H 0.38958 -0.07237 0.29532
 H1924 H 0.34381 -0.05467 0.33974
 H1925 H 0.36831 -0.07284 0.34962
 H1926 H 0.32881 -0.03816 0.31600
 H1927 H 0.37375 -0.05715 0.27110
 H1928 H 0.35741 -0.04204 0.24684
 H1929 H 0.33179 -0.02492 0.23698
 H1930 H 0.31331 -0.02266 0.29213
 C1931 C 0.11940 0.56190 0.69701
 C1932 C 0.13457 0.55722 0.70703
 C1933 C 0.14612 0.56971 0.71349
 C1934 C 0.14225 0.58664 0.70989
 C1935 C 0.12723 0.59119 0.69979
 C1936 C 0.11566 0.57890 0.69319
 C1937 C 0.16149 0.56509 0.72316
 C1938 C 0.16567 0.54809 0.72614
 C1939 C 0.15409 0.53559 0.71974
 C1940 C 0.13852 0.54024 0.71042
 C1941 C 0.15856 0.51862 0.72227
 C1942 C 0.17467 0.51406 0.73040
 C1943 C 0.18641 0.52637 0.73655
 C1944 C 0.18160 0.54339 0.73479
 H1945 H 0.11050 0.55231 0.69220
 H1946 H 0.15097 0.59637 0.71469
 H1947 H 0.12485 0.60435 0.69685
 H1948 H 0.17040 0.57468 0.72798
 H1949 H 0.12971 0.53063 0.70542
 H1950 H 0.14986 0.50888 0.71745
 H1951 H 0.17813 0.50088 0.73155
 H1952 H 0.19071 0.55298 0.73919
 C1953 C 0.11946 0.07263 0.18794
 C1954 C 0.13393 0.06293 0.19409
 C1955 C 0.14465 0.05432 0.18142
 C1956 C 0.14086 0.05580 0.16280
 C1957 C 0.12642 0.06547 0.15680
 C1958 C 0.11550 0.07385 0.16929
 C1959 C 0.15904 0.04453 0.18756
 C1960 C 0.16296 0.04338 0.20620
 C1961 C 0.15244 0.05224 0.21882
 C1962 C 0.13791 0.06184 0.21270
 C1963 C 0.15681 0.05160 0.23737
 C1964 C 0.17166 0.04251 0.24335
 C1965 C 0.18210 0.03357 0.23095
 C1966 C 0.17756 0.03389 0.21240
 H1967 H 0.11107 0.07897 0.19768
 H1968 H 0.14906 0.04947 0.15288
 H1969 H 0.12381 0.06646 0.14233
 H1970 H 0.16727 0.03795 0.17785
 H1971 H 0.12982 0.06859 0.22240
 H1972 H 0.14894 0.05838 0.24720
 H1973 H 0.17508 0.04254 0.25766
 H1974 H 0.18585 0.02736 0.20270
 C1975 C 0.62325 0.67241 0.19574
 C1976 C 0.61187 0.68302 0.20558
 C1977 C 0.61222 0.70053 0.20242
 C1978 C 0.62448 0.70722 0.19021
 C1979 C 0.63600 0.69666 0.18082
 C1980 C 0.63529 0.67910 0.18307
 C1981 C 0.60014 0.71108 0.21129
 C1982 C 0.58780 0.70438 0.22346
 C1983 C 0.58805 0.68699 0.22739
 C1984 C 0.60000 0.67639 0.21834
 C1985 C 0.57600 0.68045 0.23997
 C1986 C 0.56309 0.69082 0.24768
 C1987 C 0.56193 0.70794 0.24291
 C1988 C 0.57480 0.71472 0.23126
 H1989 H 0.62238 0.65896 0.19767
 H1990 H 0.62512 0.72064 0.18785
 H1991 H 0.64551 0.70236 0.17177
 H1992 H 0.60012 0.72446 0.20843
 H1993 H 0.59987 0.66299 0.22102
 H1994 H 0.57620 0.66721 0.24341
 H1995 H 0.55344 0.68521 0.25666
 H1996 H 0.57421 0.72790 0.22752
 C1997 C 0.14875 0.70540 0.69965
 C1998 C 0.13366 0.71503 0.70388
 C1999 C 0.12262 0.72123 0.68971
 C2000 C 0.12679 0.71768 0.67163
 C2001 C 0.14157 0.70782 0.66756
 C2002 C 0.15274 0.70155 0.68147
 C2003 C 0.10733 0.73050 0.69382
 C2004 C 0.10257 0.73318 0.71195
 C2005 C 0.11351 0.72694 0.72617
 C2006 C 0.12917 0.71818 0.72204
 C2007 C 0.10824 0.72905 0.74428
 C2008 C 0.09190 0.73656 0.74821
 C2009 C 0.08085 0.74255 0.73413
 C2010 C 0.08655 0.74129 0.71606
 H2011 H 0.15729 0.70084 0.71052
 H2012 H 0.11839 0.72221 0.66062
 H2013 H 0.14400 0.70479 0.65347
 H2014 H 0.09882 0.73513 0.68292
 H2015 H 0.13753 0.71332 0.73294
 H2016 H 0.11642 0.72434 0.75536
 H2017 H 0.08773 0.73738 0.76224
 H2018 H 0.07801 0.74566 0.70511
 C2019 C 0.60881 0.19031 0.55324
 C2020 C 0.62389 0.19605 0.54416
 C2021 C 0.63911 0.18563 0.54304
 C2022 C 0.63895 0.16962 0.55105
 C2023 C 0.62385 0.16398 0.56004
 C2024 C 0.60865 0.17424 0.56119
 C2025 C 0.65427 0.19143 0.53410
 C2026 C 0.65448 0.20764 0.52654
 C2027 C 0.63922 0.21803 0.52764
 C2028 C 0.62398 0.21210 0.53625
 C2029 C 0.63964 0.23442 0.52063
 C2030 C 0.65527 0.24074 0.51337
 C2031 C 0.67054 0.23062 0.51249
 C2032 C 0.66996 0.21392 0.51861
 H2033 H 0.59706 0.19820 0.55382
 H2034 H 0.65049 0.16146 0.55036
 H2035 H 0.62405 0.15157 0.56615
 H2036 H 0.66599 0.18348 0.53336
 H2037 H 0.61233 0.22011 0.53714
 H2038 H 0.62809 0.24255 0.52139
 H2039 H 0.65560 0.25370 0.50883
 H2040 H 0.68187 0.20622 0.51830
 C2041 C 0.62229 0.67717 0.06819
 C2042 C 0.63497 0.68283 0.05576
 C2043 C 0.64718 0.67131 0.04821
 C2044 C 0.64636 0.65431 0.05313
 C2045 C 0.63380 0.64881 0.06567
 C2046 C 0.62171 0.66017 0.07338
 C2047 C 0.66010 0.67700 0.03605
 C2048 C 0.66116 0.69411 0.03161
 C2049 C 0.64901 0.70564 0.03927
 C2050 C 0.63587 0.69989 0.05111
 C2051 C 0.65053 0.72281 0.03536
 C2052 C 0.66430 0.72859 0.02442
 C2053 C 0.67643 0.71725 0.01681
 C2054 C 0.67459 0.69998 0.02017
 H2055 H 0.61284 0.68601 0.07380
 H2056 H 0.65545 0.64529 0.04733
 H2057 H 0.63362 0.63568 0.06946
 H2058 H 0.66951 0.66818 0.03032
 H2059 H 0.62661 0.70875 0.05704
 H2060 H 0.64140 0.73181 0.04119
 H2061 H 0.66567 0.74196 0.02214
 H2062 H 0.68423 0.69121 0.01472
 C2063 C 0.12383 0.07118 0.05045
 C2064 C 0.10978 0.06156 0.04400
 C2065 C 0.09796 0.05412 0.05642
 C2066 C 0.10029 0.05662 0.07508
 C2067 C 0.11432 0.06627 0.08144
 C2068 C 0.12642 0.07372 0.06927
 C2069 C 0.08400 0.04434 0.04996
 C2070 C 0.08163 0.04212 0.03122
 C2071 C 0.09329 0.04983 0.01876
 C2072 C 0.10741 0.05935 0.02525
 C2073 C 0.09038 0.04819 0.00001
 C2074 C 0.07577 0.03932 -0.00636
 C2075 C 0.06430 0.03151 0.00595
 C2076 C 0.06743 0.03274 0.02470
 H2077 H 0.13319 0.07592 0.04061
 H2078 H 0.09123 0.05116 0.08478
 H2079 H 0.11521 0.06825 0.09594
 H2080 H 0.07489 0.03863 0.05948
 H2081 H 0.11639 0.06524 0.01571
 H2082 H 0.09911 0.05413 -0.00970
 H2083 H 0.07327 0.03872 -0.02084
 H2084 H 0.05821 0.02717 0.03422
 C2085 C 0.15650 0.54875 0.53235
 C2086 C 0.13951 0.54216 0.52978
 C2087 C 0.12878 0.53849 0.54500
 C2088 C 0.13520 0.54152 0.56253
 C2089 C 0.15204 0.54822 0.56497
 C2090 C 0.16287 0.55188 0.54995
 C2091 C 0.11174 0.53205 0.54247
 C2092 C 0.10517 0.52949 0.52488
 C2093 C 0.11588 0.53326 0.50966
 C2094 C 0.13303 0.53939 0.51221
 C2095 C 0.10914 0.53113 0.49208
 C2096 C 0.09182 0.52568 0.48958
 C2097 C 0.08105 0.52194 0.50458
 C2098 C 0.08789 0.52361 0.52223
 H2099 H 0.16476 0.55137 0.52068
 H2100 H 0.12713 0.53890 0.57435
 H2101 H 0.15648 0.55080 0.57867
 H2102 H 0.10351 0.52929 0.55415
 H2103 H 0.14120 0.54228 0.50052
 H2104 H 0.11714 0.53398 0.48028
 H2105 H 0.08680 0.52443 0.47585
 H2106 H 0.07957 0.52094 0.53386
 C2107 C 0.62478 0.05366 0.55514
 C2108 C 0.60834 0.04778 0.54868
 C2109 C 0.59749 0.05842 0.53788
 C2110 C 0.60265 0.07489 0.53453
 C2111 C 0.61851 0.08087 0.54156
 C2112 C 0.63042 0.07034 0.55146
 C2113 C 0.58145 0.05258 0.53082
 C2114 C 0.57559 0.03640 0.53505
 C2115 C 0.58602 0.02581 0.54637
 C2116 C 0.60251 0.03144 0.55284
 C2117 C 0.57959 0.00990 0.55119
 C2118 C 0.56291 0.00468 0.54509
 C2119 C 0.55256 0.01508 0.53364
 C2120 C 0.55921 0.03084 0.52848
 H2121 H 0.63318 0.04485 0.56244
 H2122 H 0.59415 0.08338 0.52680
 H2123 H 0.62082 0.09408 0.53950
 H2124 H 0.57334 0.06077 0.52228
 H2125 H 0.61062 0.02325 0.56136
 H2126 H 0.58732 0.00161 0.55993
 H2127 H 0.55811 -0.00750 0.54932
 H2128 H 0.55140 0.03908 0.51975
 C2129 C 0.62953 0.56391 0.08212
 C2130 C 0.61694 0.55570 0.07153
 C2131 C 0.60306 0.56503 0.06321
 C2132 C 0.60217 0.58248 0.06555
 C2133 C 0.61486 0.59058 0.07614
 C2134 C 0.62856 0.58135 0.08456
 C2135 C 0.59033 0.55675 0.05276
 C2136 C 0.59130 0.53927 0.05067
 C2137 C 0.60527 0.52999 0.05893
 C2138 C 0.61808 0.53830 0.06918
 C2139 C 0.60588 0.51248 0.05727
 C2140 C 0.59235 0.50412 0.04818
 C2141 C 0.57830 0.51320 0.04018
 C2142 C 0.57812 0.53082 0.04107
 H2143 H 0.64034 0.55675 0.08819
 H2144 H 0.59175 0.58984 0.05911
 H2145 H 0.61400 0.60404 0.07778
 H2146 H 0.57954 0.56385 0.04653
 H2147 H 0.62875 0.53119 0.07560
 H2148 H 0.61648 0.50520 0.06356
 H2149 H 0.59258 0.49054 0.04782
 H2150 H 0.56706 0.53790 0.03534
 C2151 C 0.06586 0.06302 0.12068
 C2152 C 0.05406 0.05552 0.10841
 C2153 C 0.03805 0.06372 0.10377
 C2154 C 0.03385 0.07899 0.11191
 C2155 C 0.04524 0.08605 0.12470
 C2156 C 0.06168 0.07837 0.12953
 C2157 C 0.02646 0.05650 0.09111
 C2158 C 0.03059 0.04097 0.08325
 C2159 C 0.04640 0.03250 0.08830
 C2160 C 0.05806 0.03986 0.10075
 C2161 C 0.05047 0.01696 0.08053
 C2162 C 0.03942 0.01020 0.06724
 C2163 C 0.02398 0.01879 0.06152
 C2164 C 0.01943 0.03401 0.07001
 H2165 H 0.07832 0.05661 0.12277
 H2166 H 0.02150 0.08539 0.10864
 H2167 H 0.04043 0.09741 0.13082
 H2168 H 0.01429 0.06300 0.08733
 H2169 H 0.07028 0.03340 0.10443
 H2170 H 0.06252 0.01027 0.08428
 H2171 H 0.04337 -0.00144 0.06089
 H2172 H 0.00775 0.04096 0.06561
 C2173 C 0.05924 0.56653 0.63351
 C2174 C 0.05570 0.55767 0.61744
 C2175 C 0.06984 0.55228 0.60631
 C2176 C 0.08727 0.55589 0.61144
 C2177 C 0.09069 0.56475 0.62738
 C2178 C 0.07677 0.57015 0.63866
 C2179 C 0.06632 0.54350 0.59018
 C2180 C 0.04880 0.54023 0.58489
 C2181 C 0.03469 0.54570 0.59605
 C2182 C 0.03822 0.55422 0.61227
 C2183 C 0.01718 0.54286 0.59064
 C2184 C 0.01361 0.53509 0.57413
 C2185 C 0.02743 0.52966 0.56281
 C2186 C 0.04507 0.53198 0.56842
 H2187 H 0.04837 0.57045 0.64211
 H2188 H 0.09829 0.55196 0.60305
 H2189 H 0.10430 0.56758 0.63076
 H2190 H 0.07720 0.53944 0.58165
 H2191 H 0.02734 0.55839 0.62074
 H2192 H 0.00622 0.54697 0.59900
 H2193 H -0.00007 0.53343 0.57009
 H2194 H 0.05580 0.52805 0.55965
 C2195 C 0.53548 0.05353 0.65502
 C2196 C 0.52972 0.04418 0.64009
 C2197 C 0.54192 0.03410 0.63052
 C2198 C 0.55960 0.03336 0.63617
 C2199 C 0.56533 0.04287 0.65086
 C2200 C 0.55347 0.05336 0.66049
 C2201 C 0.53636 0.02522 0.61519
 C2202 C 0.51881 0.02662 0.60905
 C2203 C 0.50653 0.03659 0.61872
 C2204 C 0.51200 0.04510 0.63433
 C2205 C 0.48912 0.03834 0.61225
 C2206 C 0.48412 0.03086 0.59595
 C2207 C 0.49631 0.02119 0.58606
 C2208 C 0.51353 0.01876 0.59296
 H2209 H 0.52570 0.06064 0.66249
 H2210 H 0.56917 0.02578 0.62889
 H2211 H 0.57935 0.04258 0.65384
 H2212 H 0.54580 0.01762 0.60774
 H2213 H 0.50261 0.05287 0.64164
 H2214 H 0.47953 0.04592 0.61950
 H2215 H 0.47076 0.03287 0.59091
 H2216 H 0.52311 0.01150 0.58531
 C2217 C 0.54997 0.53055 0.17580
 C2218 C 0.54263 0.52429 0.15975
 C2219 C 0.52451 0.52708 0.15579
 C2220 C 0.51388 0.53558 0.16835
 C2221 C 0.52131 0.54185 0.18431
 C2222 C 0.53949 0.53971 0.18802
 C2223 C 0.51745 0.52172 0.13915
 C2224 C 0.52835 0.51366 0.12644
 C2225 C 0.54635 0.51046 0.13075
 C2226 C 0.55336 0.51576 0.14735
 C2227 C 0.55721 0.50226 0.11823
 C2228 C 0.55046 0.49757 0.10142
 C2229 C 0.53271 0.50104 0.09670
 C2230 C 0.52165 0.50901 0.10938
 H2231 H 0.56405 0.52904 0.17829
 H2232 H 0.49992 0.53772 0.16564
 H2233 H 0.51291 0.54869 0.19362
 H2234 H 0.50361 0.52410 0.13596
 H2235 H 0.56725 0.51353 0.15046
 H2236 H 0.57102 0.49969 0.12134
 H2237 H 0.55933 0.49155 0.09190
 H2238 H 0.50794 0.51168 0.10593
 C2239 C 0.20757 0.55034 0.60391
 C2240 C 0.21655 0.54472 0.61949
 C2241 C 0.23514 0.54622 0.62068
 C2242 C 0.24444 0.55290 0.60586
 C2243 C 0.23540 0.55790 0.59001
 C2244 C 0.21683 0.55668 0.58884
 C2245 C 0.24402 0.54096 0.63661
 C2246 C 0.23452 0.53380 0.65108
 C2247 C 0.21598 0.53176 0.64942
 C2248 C 0.20712 0.53746 0.63381
 C2249 C 0.20649 0.52410 0.66344
 C2250 C 0.21516 0.51878 0.67920
 C2251 C 0.23345 0.52124 0.68141
 C2252 C 0.24313 0.52872 0.66725
 H2253 H 0.19324 0.54978 0.60367
 H2254 H 0.25872 0.55403 0.60641
 H2255 H 0.24302 0.56249 0.57861
 H2256 H 0.25825 0.54235 0.63770
 H2257 H 0.19287 0.53609 0.63272
 H2258 H 0.19231 0.52238 0.66230
 H2259 H 0.20735 0.51327 0.69000
 H2260 H 0.25724 0.53064 0.66885
 C2261 C 0.17558 0.06369 0.11833
 C2262 C 0.18648 0.05744 0.13234
 C2263 C 0.19734 0.06851 0.14216
 C2264 C 0.19667 0.08572 0.13815
 C2265 C 0.18542 0.09192 0.12450
 C2266 C 0.17504 0.08096 0.11411
 C2267 C 0.20883 0.06219 0.15564
 C2268 C 0.20938 0.04495 0.15961
 C2269 C 0.19828 0.03390 0.14998
 C2270 C 0.18697 0.04021 0.13635
 C2271 C 0.19857 0.01673 0.15425
 C2272 C 0.20945 0.01058 0.16822
 C2273 C 0.22047 0.02144 0.17792
 C2274 C 0.22058 0.03860 0.17334
 H2275 H 0.16809 0.05492 0.11026
 H2276 H 0.20504 0.09436 0.14539
 H2277 H 0.18511 0.10531 0.12190
 H2278 H 0.21733 0.07067 0.16301
 H2279 H 0.17852 0.03172 0.12890
 H2280 H 0.19011 0.00811 0.14703
 H2281 H 0.20906 -0.00265 0.17167
 H2282 H 0.22875 0.04713 0.18103
 C2283 C 0.69680 0.21054 0.64956
 C2284 C 0.70339 0.21842 0.63388
 C2285 C 0.72189 0.22003 0.63160
 C2286 C 0.73344 0.21427 0.64527
 C2287 C 0.72679 0.20649 0.66082
 C2288 C 0.70847 0.20426 0.66298
 C2289 C 0.72858 0.22704 0.61555
 C2290 C 0.71702 0.23241 0.60169
 C2291 C 0.69851 0.23131 0.60416
 C2292 C 0.69180 0.22432 0.62025
 C2293 C 0.68703 0.23690 0.59030
 C2294 C 0.69384 0.24307 0.57395
 C2295 C 0.71223 0.24364 0.57115
 C2296 C 0.72374 0.23851 0.58522
 H2297 H 0.68267 0.20876 0.65097
 H2298 H 0.74764 0.21556 0.64382
 H2299 H 0.73602 0.20204 0.67113
 H2300 H 0.74278 0.22800 0.61370
 H2301 H 0.67760 0.22321 0.62203
 H2302 H 0.67281 0.23621 0.59197
 H2303 H 0.68470 0.24687 0.56326
 H2304 H 0.73795 0.23903 0.58325
 C2305 C 0.68840 0.67385 0.12433
 C2306 C 0.69392 0.68268 0.10876
 C2307 C 0.68134 0.68746 0.09534
 C2308 C 0.66352 0.68325 0.09767
 C2309 C 0.65809 0.67471 0.11330
 C2310 C 0.67043 0.67011 0.12681
 C2311 C 0.68671 0.69658 0.07997
 C2312 C 0.70453 0.70095 0.07778
 C2313 C 0.71718 0.69591 0.09102
 C2314 C 0.71178 0.68692 0.10649
 C2315 C 0.73510 0.69974 0.08842
 C2316 C 0.74047 0.70832 0.07276
 C2317 C 0.72796 0.71364 0.05973
 C2318 C 0.70997 0.71003 0.06239
 H2319 H 0.69791 0.67051 0.13486
 H2320 H 0.65371 0.68700 0.08767
 H2321 H 0.64417 0.67204 0.11508
 H2322 H 0.67703 0.70031 0.06973
 H2323 H 0.72147 0.68313 0.11669
 H2324 H 0.74499 0.69583 0.09833
 H2325 H 0.75441 0.71075 0.07075
 H2326 H 0.70033 0.71366 0.05208
 C2327 C 0.56680 0.67624 0.12795
 C2328 C 0.56076 0.68740 0.14119
 C2329 C 0.57244 0.69281 0.15497
 C2330 C 0.59014 0.68725 0.15492
 C2331 C 0.59615 0.67633 0.14144
 C2332 C 0.58444 0.67060 0.12804
 C2333 C 0.56617 0.70353 0.16862
 C2334 C 0.54837 0.70882 0.16863
 C2335 C 0.53687 0.70368 0.15454
 C2336 C 0.54316 0.69309 0.14089
 C2337 C 0.51906 0.70875 0.15465
 C2338 C 0.51241 0.71807 0.16908
 C2339 C 0.52351 0.72277 0.18348
 C2340 C 0.54165 0.71857 0.18289
 H2341 H 0.55784 0.67205 0.11740
 H2342 H 0.59930 0.69133 0.16528
 H2343 H 0.60985 0.67217 0.14159
 H2344 H 0.57503 0.70747 0.17937
 H2345 H 0.53426 0.68899 0.13024
 H2346 H 0.51011 0.70497 0.14391
 H2347 H 0.49841 0.72114 0.16931
 H2348 H 0.55025 0.72189 0.19411
 C2349 C 0.04312 0.71039 0.59428
 C2350 C 0.03679 0.71556 0.61115
 C2351 C 0.01850 0.71478 0.61494
 C2352 C 0.00681 0.70912 0.60149
 C2353 C 0.01323 0.70423 0.58450
 C2354 C 0.03147 0.70479 0.58074
 C2355 C 0.01228 0.71967 0.63207
 C2356 C 0.02413 0.72565 0.64523
 C2357 C 0.04239 0.72676 0.64112
 C2358 C 0.04860 0.72151 0.62423
 C2359 C 0.05417 0.73326 0.65392
 C2360 C 0.04796 0.73874 0.67064
 C2361 C 0.02996 0.73744 0.67504
 C2362 C 0.01807 0.73075 0.66235
 H2363 H 0.05727 0.71045 0.59186
 H2364 H -0.00728 0.70850 0.60409
 H2365 H 0.00393 0.70005 0.57429
 H2366 H -0.00174 0.71895 0.63511
 H2367 H 0.06263 0.72224 0.62119
 H2368 H 0.06817 0.73425 0.65094
 H2369 H 0.05731 0.74381 0.68028
 H2370 H 0.00413 0.72988 0.66565
 C2371 C 0.53138 0.59867 0.22161
 C2372 C 0.52786 0.61585 0.22357
 C2373 C 0.54202 0.62692 0.22687
 C2374 C 0.55941 0.62079 0.22759
 C2375 C 0.56283 0.60376 0.22528
 C2376 C 0.54888 0.59246 0.22254
 C2377 C 0.53860 0.64396 0.22952
 C2378 C 0.52123 0.65013 0.22885
 C2379 C 0.50703 0.63930 0.22492
 C2380 C 0.51044 0.62215 0.22237
 C2381 C 0.48970 0.64586 0.22387
 C2382 C 0.48648 0.66288 0.22730
 C2383 C 0.50055 0.67335 0.23203
 C2384 C 0.51787 0.66699 0.23243
 H2385 H 0.52049 0.59012 0.21956
 H2386 H 0.57040 0.62918 0.22985
 H2387 H 0.57648 0.59950 0.22541
 H2388 H 0.54945 0.65239 0.23231
 H2389 H 0.49958 0.61372 0.21962
 H2390 H 0.47866 0.63780 0.22071
 H2391 H 0.47304 0.66773 0.22689
 H2392 H 0.52874 0.67523 0.23575
 C2393 C 0.06294 0.62337 0.69979
 C2394 C 0.05465 0.63864 0.70434
 C2395 C 0.04709 0.64881 0.69048
 C2396 C 0.04811 0.64365 0.67235
 C2397 C 0.05685 0.62872 0.66788
 C2398 C 0.06446 0.61835 0.68147
 C2399 C 0.03892 0.66413 0.69489
 C2400 C 0.03865 0.66967 0.71296
 C2401 C 0.04647 0.65968 0.72683
 C2402 C 0.05417 0.64410 0.72248
 C2403 C 0.04673 0.66562 0.74476
 C2404 C 0.03951 0.68139 0.74887
 C2405 C 0.03151 0.69132 0.73521
 C2406 C 0.03102 0.68526 0.71728
 H2407 H 0.06832 0.61550 0.71058
 H2408 H 0.04251 0.65137 0.66154
 H2409 H 0.05803 0.62558 0.65366
 H2410 H 0.03309 0.67189 0.68422
 H2411 H 0.06014 0.63641 0.73313
 H2412 H 0.05276 0.65818 0.75555
 H2413 H 0.04012 0.68581 0.76273
 H2414 H 0.02520 0.69293 0.70654
 C2415 C 0.05689 0.12563 0.06663
 C2416 C 0.04989 0.11189 0.05729
 C2417 C 0.06144 0.09941 0.05049
 C2418 C 0.07968 0.10053 0.05382
 C2419 C 0.08653 0.11416 0.06324
 C2420 C 0.07529 0.12708 0.06940
 C2421 C 0.05464 0.08621 0.04020
 C2422 C 0.03639 0.08527 0.03670
 C2423 C 0.02472 0.09735 0.04411
 C2424 C 0.03156 0.11065 0.05427
 C2425 C 0.00640 0.09590 0.04117
 C2426 C -0.00029 0.08263 0.03094
 C2427 C 0.01129 0.07100 0.02303
 C2428 C 0.02961 0.07236 0.02598
 H2429 H 0.04802 0.13552 0.07111
 H2430 H 0.08869 0.09100 0.04887
 H2431 H 0.10069 0.11468 0.06552
 H2432 H 0.06355 0.07679 0.03474
 H2433 H 0.02265 0.12008 0.05970
 H2434 H -0.00276 0.10493 0.04692
 H2435 H -0.01447 0.08151 0.02909
 H2436 H 0.03854 0.06304 0.02035
 C2437 C 0.04534 0.64865 0.52682
 C2438 C 0.03872 0.63310 0.52131
 C2439 C 0.02023 0.63045 0.52095
 C2440 C 0.00867 0.64361 0.52538
 C2441 C 0.01535 0.65907 0.53072
 C2442 C 0.03373 0.66166 0.53192
 C2443 C 0.01360 0.61463 0.51648
 C2444 C 0.02523 0.60145 0.51219
 C2445 C 0.04370 0.60429 0.51186
 C2446 C 0.05033 0.62006 0.51653
 C2447 C 0.05526 0.59125 0.50703
 C2448 C 0.04864 0.57548 0.50279
 C2449 C 0.03037 0.57239 0.50363
 C2450 C 0.01870 0.58544 0.50831
 H2451 H 0.05953 0.65035 0.52785
 H2452 H -0.00554 0.64188 0.52496
 H2453 H 0.00609 0.66897 0.53421
 H2454 H -0.00057 0.61254 0.51652
 H2455 H 0.06451 0.62212 0.51659
 H2456 H 0.06943 0.59322 0.50662
 H2457 H 0.05785 0.56554 0.49928
 H2458 H 0.00458 0.58314 0.50880
 C2459 C 0.54617 0.12814 0.56167
 C2460 C 0.53961 0.11314 0.55473
 C2461 C 0.55095 0.09898 0.55347
 C2462 C 0.56856 0.10002 0.55942
 C2463 C 0.57503 0.11509 0.56614
 C2464 C 0.56391 0.12925 0.56722
 C2465 C 0.54452 0.08407 0.54620
 C2466 C 0.52693 0.08312 0.54024
 C2467 C 0.51546 0.09716 0.54184
 C2468 C 0.52193 0.11214 0.54895
 C2469 C 0.49765 0.09584 0.53658
 C2470 C 0.49121 0.08066 0.53003
 C2471 C 0.50265 0.06685 0.52812
 C2472 C 0.52049 0.06818 0.53309
 H2473 H 0.53760 0.13911 0.56228
 H2474 H 0.57733 0.08922 0.55877
 H2475 H 0.58873 0.11571 0.57049
 H2476 H 0.55316 0.07318 0.54529
 H2477 H 0.51322 0.12297 0.55008
 H2478 H 0.48864 0.10642 0.53788
 H2479 H 0.47732 0.07965 0.52651
 H2480 H 0.52915 0.05731 0.53218
 C2481 C 0.56776 0.61635 0.07476
 C2482 C 0.55790 0.60190 0.07126
 C2483 C 0.55597 0.58955 0.08502
 C2484 C 0.56377 0.59201 0.10212
 C2485 C 0.57340 0.60654 0.10555
 C2486 C 0.57556 0.61875 0.09189
 C2487 C 0.54641 0.57492 0.08141
 C2488 C 0.53889 0.57242 0.06417
 C2489 C 0.54078 0.58485 0.05047
 C2490 C 0.55015 0.59954 0.05414
 C2491 C 0.53371 0.58216 0.03310
 C2492 C 0.52553 0.56701 0.02908
 C2493 C 0.52383 0.55449 0.04247
 C2494 C 0.53013 0.55742 0.06015
 H2495 H 0.56926 0.62583 0.06423
 H2496 H 0.56244 0.58269 0.11283
 H2497 H 0.57937 0.60818 0.11882
 H2498 H 0.54507 0.56537 0.09190
 H2499 H 0.55170 0.60898 0.04358
 H2500 H 0.53508 0.59153 0.02245
 H2501 H 0.52097 0.56484 0.01533
 H2502 H 0.52928 0.54758 0.07038
 C2503 C 0.69000 0.12324 0.55452
 C2504 C 0.69657 0.13767 0.54570
 C2505 C 0.69144 0.14132 0.52761
 C2506 C 0.68021 0.13036 0.51851
 C2507 C 0.67390 0.11599 0.52721
 C2508 C 0.67835 0.11214 0.54552
 C2509 C 0.69763 0.15584 0.51884
 C2510 C 0.70906 0.16679 0.52789
 C2511 C 0.71443 0.16307 0.54592
 C2512 C 0.70810 0.14859 0.55474
 C2513 C 0.72595 0.17397 0.55487
 C2514 C 0.73185 0.18856 0.54620
 C2515 C 0.72636 0.19262 0.52836
 C2516 C 0.71503 0.18150 0.51925
 H2517 H 0.69349 0.12125 0.56866
 H2518 H 0.67642 0.13279 0.50450
 H2519 H 0.66606 0.10765 0.51903
 H2520 H 0.69352 0.15864 0.50499
 H2521 H 0.71214 0.14585 0.56862
 H2522 H 0.73023 0.17132 0.56868
 H2523 H 0.74042 0.19687 0.55368
 H2524 H 0.71056 0.18442 0.50556
 C2525 C 0.67990 0.62204 0.06709
 C2526 C 0.69071 0.63371 0.05827
 C2527 C 0.70073 0.64508 0.06863
 C2528 C 0.69976 0.64454 0.08763
 C2529 C 0.68861 0.63317 0.09631
 C2530 C 0.67863 0.62173 0.08617
 C2531 C 0.71147 0.65685 0.05986
 C2532 C 0.71202 0.65761 0.04082
 C2533 C 0.70197 0.64625 0.03043
 C2534 C 0.69157 0.63422 0.03923
 C2535 C 0.70208 0.64746 0.01140
 C2536 C 0.71154 0.66019 0.00275
 C2537 C 0.72144 0.67158 0.01298
 C2538 C 0.72194 0.66997 0.03201
 H2539 H 0.67271 0.61302 0.05904
 H2540 H 0.70767 0.65287 0.09577
 H2541 H 0.68788 0.63329 0.11100
 H2542 H 0.71913 0.66560 0.06781
 H2543 H 0.68380 0.62555 0.03127
 H2544 H 0.69438 0.63892 0.00324
 H2545 H 0.71082 0.66138 -0.01191
 H2546 H 0.72917 0.67900 0.04003
 C2547 C 0.20855 0.64494 0.69558
 C2548 C 0.21270 0.63007 0.70506
 C2549 C 0.19910 0.62080 0.71350
 C2550 C 0.18157 0.62667 0.71239
 C2551 C 0.17749 0.64130 0.70255
 C2552 C 0.19089 0.65053 0.69392
 C2553 C 0.20318 0.60565 0.72254
 C2554 C 0.22064 0.59945 0.72280
 C2555 C 0.23422 0.60879 0.71436
 C2556 C 0.23021 0.62414 0.70581
 C2557 C 0.25155 0.60241 0.71413
 C2558 C 0.25534 0.58667 0.72166
 C2559 C 0.24197 0.57717 0.72991
 C2560 C 0.22468 0.58379 0.73081
 H2561 H 0.21908 0.65206 0.68931
 H2562 H 0.17098 0.61978 0.71881
 H2563 H 0.16374 0.64511 0.70134
 H2564 H 0.19273 0.59850 0.72893
 H2565 H 0.24063 0.63122 0.69926
 H2566 H 0.26210 0.60941 0.70772
 H2567 H 0.26877 0.58183 0.72091
 H2568 H 0.21426 0.57644 0.73698
 C2569 C 0.18967 0.12342 0.16733
 C2570 C 0.19660 0.10986 0.17752
 C2571 C 0.18527 0.09670 0.18295
 C2572 C 0.16748 0.09697 0.17754
 C2573 C 0.16068 0.11054 0.16762
 C2574 C 0.17157 0.12405 0.16285
 C2575 C 0.19178 0.08364 0.19400
 C2576 C 0.20955 0.08338 0.19951
 C2577 C 0.22113 0.09610 0.19350
 C2578 C 0.21454 0.10936 0.18265
 C2579 C 0.23913 0.09522 0.19835
 C2580 C 0.24558 0.08182 0.20898
 C2581 C 0.23399 0.06949 0.21538
 C2582 C 0.21599 0.07038 0.21069
 H2583 H 0.19807 0.13391 0.16380
 H2584 H 0.15869 0.08699 0.18151
 H2585 H 0.14668 0.11086 0.16431
 H2586 H 0.18301 0.07372 0.19837
 H2587 H 0.22332 0.11927 0.17826
 H2588 H 0.24825 0.10474 0.19371
 H2589 H 0.25956 0.08108 0.21225
 H2590 H 0.20715 0.06054 0.21514
 C2591 C 0.70387 1.14179 0.71323
 C2592 C 0.71168 1.12596 0.71635
 C2593 C 0.72891 1.12252 0.70995
 C2594 C 0.73838 1.13527 0.70132
 C2595 C 0.73068 1.15109 0.69851
 C2596 C 0.71303 1.15461 0.70387
 C2597 C 0.73635 1.10640 0.71219
 C2598 C 0.72684 1.09374 0.72111
 C2599 C 0.70986 1.09747 0.72818
 C2600 C 0.70233 1.11344 0.72557
 C2601 C 0.70062 1.08517 0.73778
 C2602 C 0.70801 1.06925 0.74026
 C2603 C 0.72457 1.06510 0.73279
 C2604 C 0.73398 1.07743 0.72317
 H2605 H 0.69024 1.14352 0.71729
 H2606 H 0.75180 1.13303 0.69672
 H2607 H 0.73893 1.16056 0.69238
 H2608 H 0.74948 1.10371 0.70699
 H2609 H 0.68917 1.11611 0.73073
 H2610 H 0.68767 1.08785 0.74341
 H2611 H 0.70054 1.06005 0.74784
 H2612 H 0.74685 1.07441 0.71754
 C2613 C 0.69061 0.62213 0.17547
 C2614 C 0.69713 0.60747 0.18406
 C2615 C 0.68547 0.59717 0.19406
 C2616 C 0.66745 0.60143 0.19491
 C2617 C 0.66112 0.61606 0.18648
 C2618 C 0.67262 0.62673 0.17696
 C2619 C 0.69202 0.58296 0.20337
 C2620 C 0.71013 0.57896 0.20295
 C2621 C 0.72176 0.58896 0.19256
 C2622 C 0.71519 0.60315 0.18316
 C2623 C 0.73981 0.58466 0.19188
 C2624 C 0.74630 0.57066 0.20150
 C2625 C 0.73493 0.56092 0.21224
 C2626 C 0.71681 0.56512 0.21282
 H2627 H 0.69964 0.63026 0.16822
 H2628 H 0.65830 0.59357 0.20233
 H2629 H 0.64715 0.61911 0.18749
 H2630 H 0.68305 0.57517 0.21116
 H2631 H 0.72415 0.61094 0.17539
 H2632 H 0.74890 0.59209 0.18388
 H2633 H 0.76025 0.56751 0.20066
 H2634 H 0.70784 0.55740 0.22067
 C2635 C 0.55157 0.11384 0.71269
 C2636 C 0.54530 0.13016 0.71558
 C2637 C 0.53592 0.13872 0.70164
 C2638 C 0.53293 0.13073 0.68507
 C2639 C 0.53966 0.11461 0.68207
 C2640 C 0.54942 0.10590 0.69571
 C2641 C 0.52996 0.15520 0.70439
 C2642 C 0.53361 0.16332 0.72081
 C2643 C 0.54310 0.15476 0.73473
 C2644 C 0.54866 0.13817 0.73212
 C2645 C 0.54708 0.16304 0.75094
 C2646 C 0.54177 0.17968 0.75336
 C2647 C 0.53218 0.18826 0.73969
 C2648 C 0.52811 0.17994 0.72344
 H2649 H 0.55791 0.10735 0.72398
 H2650 H 0.52582 0.13714 0.67419
 H2651 H 0.53794 0.10958 0.66860
 H2652 H 0.52276 0.16179 0.69367
 H2653 H 0.55596 0.13161 0.74280
 H2654 H 0.55439 0.15667 0.76172
 H2655 H 0.54501 0.18578 0.76602
 H2656 H 0.52087 0.18648 0.71272
 C2657 C 1.07691 0.12713 0.19124
 C2658 C 1.07141 0.14238 0.19902
 C2659 C 1.06574 0.15574 0.18757
 C2660 C 1.06608 0.15381 0.16866
 C2661 C 1.07144 0.13862 0.16107
 C2662 C 1.07663 0.12503 0.17222
 C2663 C 1.05958 0.17075 0.19517
 C2664 C 1.05902 0.17265 0.21409
 C2665 C 1.06526 0.15960 0.22563
 C2666 C 1.07130 0.14446 0.21802
 C2667 C 1.06525 0.16197 0.24457
 C2668 C 1.05870 0.17695 0.25199
 C2669 C 1.05171 0.18957 0.24059
 C2670 C 1.05218 0.18741 0.22164
 H2671 H 1.08087 0.11673 0.19999
 H2672 H 1.06197 0.16398 0.15974
 H2673 H 1.07144 0.13747 0.14641
 H2674 H 1.05503 0.18089 0.18635
 H2675 H 1.07586 0.13433 0.22684
 H2676 H 1.07020 0.15220 0.25363
 H2677 H 1.05865 0.17850 0.26660
 H2678 H 1.04724 0.19733 0.21273
 C2679 C 0.19741 0.60600 0.52583
 C2680 C 0.20369 0.61959 0.51549
 C2681 C 0.22213 0.62165 0.51329
 C2682 C 0.23392 0.60980 0.52078
 C2683 C 0.22757 0.59625 0.53087
 C2684 C 0.20931 0.59434 0.53386
 C2685 C 0.22856 0.63576 0.50406
 C2686 C 0.21679 0.64794 0.49713
 C2687 C 0.19833 0.64559 0.49856
 C2688 C 0.19187 0.63137 0.50770
 C2689 C 0.18668 0.65786 0.49145
 C2690 C 0.19329 0.67278 0.48404
 C2691 C 0.21161 0.67560 0.48365
 C2692 C 0.22328 0.66284 0.48960
 H2693 H 0.18331 0.60488 0.52811
 H2694 H 0.24808 0.61110 0.51902
 H2695 H 0.23703 0.58726 0.53639
 H2696 H 0.24273 0.63754 0.50280
 H2697 H 0.17771 0.62973 0.50920
 H2698 H 0.17249 0.65623 0.49230
 H2699 H 0.18407 0.68250 0.47965
 H2700 H 0.23745 0.66490 0.48923
 C2701 C 0.19047 0.11908 1.05714
 C2702 C 0.19799 0.13132 1.04584
 C2703 C 0.18696 0.14119 1.03436
 C2704 C 0.16862 0.13887 1.03459
 C2705 C 0.16118 0.12719 1.04647
 C2706 C 0.17197 0.11704 1.05782
 C2707 C 0.19435 0.15362 1.02326
 C2708 C 0.21252 0.15689 1.02421
 C2709 C 0.22359 0.14716 1.03579
 C2710 C 0.21632 0.13414 1.04621
 C2711 C 0.24160 0.15111 1.03733
 C2712 C 0.24835 0.16513 1.02823
 C2713 C 0.23732 0.17503 1.01696
 C2714 C 0.21956 0.17042 1.01450
 H2715 H 0.19912 0.11117 1.06536
 H2716 H 0.15996 0.14652 1.02607
 H2717 H 0.14689 0.12641 1.04694
 H2718 H 0.18584 0.16126 1.01454
 H2719 H 0.22478 0.12668 1.05515
 H2720 H 0.25029 0.14381 1.04615
 H2721 H 0.26206 0.16849 1.03034
 H2722 H 0.21086 0.17807 1.00602
 C2723 C 0.18970 0.68966 0.62225
 C2724 C 0.19771 0.69322 0.60555
 C2725 C 0.21633 0.69221 0.60390
 C2726 C 0.22657 0.68724 0.61904
 C2727 C 0.21844 0.68379 0.63572
 C2728 C 0.19997 0.68525 0.63753
 C2729 C 0.22436 0.69650 0.58731
 C2730 C 0.21397 0.70210 0.57251
 C2731 C 0.19531 0.70282 0.57425
 C2732 C 0.18732 0.69820 0.59064
 C2733 C 0.18486 0.70864 0.55973
 C2734 C 0.19281 0.71436 0.54386
 C2735 C 0.21130 0.71413 0.54204
 C2736 C 0.22188 0.70754 0.55620
 H2737 H 0.17541 0.69048 0.62341
 H2738 H 0.24085 0.68633 0.61806
 H2739 H 0.22662 0.68038 0.64733
 H2740 H 0.23866 0.69592 0.58607
 H2741 H 0.17303 0.69894 0.59195
 H2742 H 0.17056 0.70919 0.56081
 H2743 H 0.18448 0.71914 0.53296
 H2744 H 0.23617 0.70739 0.55485
 C2745 C 0.18737 0.17672 1.11909
 C2746 C 0.19407 0.18837 1.10653
 C2747 C 0.18236 0.19691 1.09448
 C2748 C 0.16417 0.19380 1.09535
 C2749 C 0.15761 0.18226 1.10792
 C2750 C 0.16910 0.17374 1.12000
 C2751 C 0.18899 0.20845 1.08181
 C2752 C 0.20721 0.21157 1.08103
 C2753 C 0.21888 0.20333 1.09335
 C2754 C 0.21223 0.19182 1.10606
 C2755 C 0.23711 0.20632 1.09233
 C2756 C 0.24383 0.21652 1.07851
 C2757 C 0.23239 0.22420 1.06576
 C2758 C 0.21402 0.22219 1.06753
 H2759 H 0.19627 0.17053 1.12867
 H2760 H 0.15499 0.20042 1.08643
 H2761 H 0.14346 0.18022 1.10846
 H2762 H 0.18002 0.21479 1.07240
 H2763 H 0.22121 0.18537 1.11538
 H2764 H 0.24624 0.20018 1.10171
 H2765 H 0.25804 0.21780 1.07726
 H2766 H 0.20512 0.22774 1.05749
 C2767 C 0.68713 0.56697 0.12921
 C2768 C 0.69340 0.55488 0.14162
 C2769 C 0.68530 0.55338 0.15886
 C2770 C 0.67118 0.56410 0.16341
 C2771 C 0.66478 0.57587 0.15077
 C2772 C 0.67267 0.57726 0.13363
 C2773 C 0.69132 0.54109 0.17116
 C2774 C 0.70539 0.53039 0.16648
 C2775 C 0.71358 0.53193 0.14931
 C2776 C 0.70741 0.54410 0.13690
 C2777 C 0.72827 0.52173 0.14517
 C2778 C 0.73538 0.51079 0.15834
 C2779 C 0.72733 0.50935 0.17539
 C2780 C 0.71205 0.51879 0.17915
 H2781 H 0.69297 0.56791 0.11580
 H2782 H 0.66487 0.56313 0.17657
 H2783 H 0.65348 0.58367 0.15419
 H2784 H 0.68520 0.53997 0.18443
 H2785 H 0.71365 0.54533 0.12371
 H2786 H 0.73481 0.52288 0.13215
 H2787 H 0.74757 0.50405 0.15555
 H2788 H 0.70644 0.51838 0.19268
 C2789 C 0.67598 1.05806 0.60672
 C2790 C 0.68612 1.04995 0.62039
 C2791 C 0.70481 1.05031 0.61959
 C2792 C 0.71303 1.05823 0.60485
 C2793 C 0.70290 1.06589 0.59112
 C2794 C 0.68425 1.06620 0.59194
 C2795 C 0.71500 1.04276 0.63351
 C2796 C 0.70676 1.03452 0.64810
 C2797 C 0.68807 1.03360 0.64855
 C2798 C 0.67788 1.04147 0.63483
 C2799 C 0.67987 1.02490 0.66281
 C2800 C 0.69002 1.01742 0.67665
 C2801 C 0.70859 1.01871 0.67672
 C2802 C 0.71689 1.02724 0.66229
 H2803 H 0.66169 1.05821 0.60781
 H2804 H 0.72734 1.05842 0.60386
 H2805 H 0.70977 1.07146 0.57973
 H2806 H 0.72934 1.04330 0.63298
 H2807 H 0.66354 1.04097 0.63538
 H2808 H 0.66558 1.02399 0.66334
 H2809 H 0.68327 1.01107 0.68766
 H2810 H 0.73119 1.02824 0.66213
 C2811 C 0.56399 0.19375 0.61391
 C2812 C 0.55405 0.20256 0.62684
 C2813 C 0.53574 0.19947 0.62866
 C2814 C 0.52748 0.18838 0.61675
 C2815 C 0.53736 0.18000 0.60359
 C2816 C 0.55584 0.18213 0.60234
 C2817 C 0.52605 0.20734 0.64248
 C2818 C 0.53440 0.21851 0.65431
 C2819 C 0.55250 0.22230 0.65176
 C2820 C 0.56223 0.21421 0.63818
 C2821 C 0.56073 0.23389 0.66310
 C2822 C 0.55135 0.24118 0.67729
 C2823 C 0.53361 0.23688 0.68062
 C2824 C 0.52510 0.22569 0.66888
 H2825 H 0.57817 0.19558 0.61335
 H2826 H 0.51339 0.18611 0.61767
 H2827 H 0.53044 0.17172 0.59446
 H2828 H 0.51210 0.20461 0.64416
 H2829 H 0.57622 0.21682 0.63660
 H2830 H 0.57454 0.23704 0.66125
 H2831 H 0.55832 0.24963 0.68622
 H2832 H 0.51143 0.22233 0.67129
 C2833 C 1.07750 0.18706 0.12365
 C2834 C 1.06760 0.19542 0.13705
 C2835 C 1.04954 0.19167 0.13951
 C2836 C 1.04159 0.17983 0.12830
 C2837 C 1.05137 0.17174 0.11483
 C2838 C 1.06962 0.17498 0.11223
 C2839 C 1.03973 0.19972 0.15318
 C2840 C 1.04770 0.21180 0.16424
 C2841 C 1.06570 0.21583 0.16142
 C2842 C 1.07557 0.20750 0.14807
 C2843 C 1.07363 0.22813 0.17204
 C2844 C 1.06394 0.23631 0.18542
 C2845 C 1.04614 0.23219 0.18884
 C2846 C 1.03808 0.21981 0.17817
 H2847 H 1.09149 0.18969 0.12277
 H2848 H 1.02768 0.17693 0.12979
 H2849 H 1.04413 0.16340 0.10609
 H2850 H 1.02592 0.19661 0.15518
 H2851 H 1.08942 0.21050 0.14618
 H2852 H 1.08742 0.23135 0.17012
 H2853 H 1.07072 0.24545 0.19366
 H2854 H 1.02447 0.21636 0.18078
 C2855 C 0.65702 0.21222 0.71197
 C2856 C 0.64017 0.21653 0.71861
 C2857 C 0.62910 0.20387 0.72568
 C2858 C 0.63495 0.18715 0.72576
 C2859 C 0.65143 0.18289 0.71852
 C2860 C 0.66272 0.19531 0.71149
 C2861 C 0.61220 0.20804 0.73216
 C2862 C 0.60595 0.22464 0.73109
 C2863 C 0.61684 0.23730 0.72372
 C2864 C 0.63401 0.23322 0.71784
 C2865 C 0.61019 0.25375 0.72199
 C2866 C 0.59283 0.25756 0.72724
 C2867 C 0.58201 0.24509 0.73478
 C2868 C 0.58876 0.22868 0.73683
 H2869 H 0.66554 0.22207 0.70698
 H2870 H 0.62655 0.17727 0.73096
 H2871 H 0.65505 0.16974 0.71800
 H2872 H 0.60375 0.19830 0.73760
 H2873 H 0.64239 0.24293 0.71221
 H2874 H 0.61831 0.26359 0.71627
 H2875 H 0.58787 0.27026 0.72548
 H2876 H 0.58040 0.21889 0.74231
 C2877 C 1.13213 0.18900 0.17664
 C2878 C 1.12250 0.19725 0.19014
 C2879 C 1.11137 0.18790 0.20172
 C2880 C 1.10948 0.17064 0.19913
 C2881 C 1.11874 0.16258 0.18534
 C2882 C 1.13053 0.17156 0.17427
 C2883 C 1.10234 0.19591 0.21575
 C2884 C 1.10379 0.21326 0.21793
 C2885 C 1.11443 0.22280 0.20604
 C2886 C 1.12402 0.21466 0.19238
 C2887 C 1.11474 0.24034 0.20764
 C2888 C 1.10384 0.24837 0.22028
 C2889 C 1.09325 0.23887 0.23205
 C2890 C 1.09387 0.22131 0.23124
 H2891 H 1.14138 0.19612 0.16850
 H2892 H 1.10102 0.16335 0.20792
 H2893 H 1.11695 0.14923 0.18362
 H2894 H 1.09391 0.18870 0.22475
 H2895 H 1.13235 0.22188 0.18331
 H2896 H 1.12268 0.24787 0.19851
 H2897 H 1.10313 0.26195 0.22041
 H2898 H 1.08522 0.21389 0.23980
 C2899 C 0.08747 0.70575 0.51898
 C2900 C 0.10450 0.71180 0.51508
 C2901 C 0.11519 0.71807 0.52929
 C2902 C 0.10891 0.71787 0.54712
 C2903 C 0.09219 0.71159 0.55093
 C2904 C 0.08113 0.70567 0.53695
 C2905 C 0.13210 0.72422 0.52555
 C2906 C 0.13875 0.72383 0.50783
 C2907 C 0.12829 0.71729 0.49362
 C2908 C 0.11113 0.71153 0.49727
 C2909 C 0.13531 0.71638 0.47604
 C2910 C 0.15265 0.72153 0.47270
 C2911 C 0.16316 0.72804 0.48677
 C2912 C 0.15591 0.72948 0.50423
 H2913 H 0.07916 0.70124 0.50806
 H2914 H 0.11703 0.72239 0.55819
 H2915 H 0.08803 0.71117 0.56499
 H2916 H 0.14023 0.72903 0.53649
 H2917 H 0.10307 0.70658 0.48635
 H2918 H 0.12753 0.71138 0.46497
 H2919 H 0.15787 0.72033 0.45908
 H2920 H 0.16380 0.73454 0.51518
 C2921 C 0.12170 0.18636 1.06008
 C2922 C 0.13724 0.19165 1.05128
 C2923 C 0.15292 0.18189 1.05295
 C2924 C 0.15286 0.16718 1.06353
 C2925 C 0.13728 0.16178 1.07179
 C2926 C 0.12159 0.17126 1.07013
 C2927 C 0.16842 0.18698 1.04408
 C2928 C 0.16846 0.20161 1.03333
 C2929 C 0.15288 0.21151 1.03179
 C2930 C 0.13736 0.20646 1.04075
 C2931 C 0.15317 0.22645 1.02151
 C2932 C 0.16877 0.23160 1.01298
 C2933 C 0.18416 0.22168 1.01416
 C2934 C 0.18393 0.20668 1.02433
 H2935 H 0.10956 0.19363 1.05865
 H2936 H 0.16486 0.15979 1.06535
 H2937 H 0.13743 0.15014 1.07951
 H2938 H 0.18047 0.17959 1.04560
 H2939 H 0.12541 0.21403 1.03952
 H2940 H 0.14142 0.23429 1.02033
 H2941 H 0.16889 0.24339 1.00555
 H2942 H 0.19600 0.19933 1.02583
 C2943 C 0.60062 0.53462 0.22162
 C2944 C 0.61787 0.53055 0.22725
 C2945 C 0.62384 0.53527 0.24469
 C2946 C 0.61209 0.54340 0.25649
 C2947 C 0.59486 0.54740 0.25078
 C2948 C 0.58907 0.54340 0.23313
 C2949 C 0.64149 0.53207 0.24987
 C2950 C 0.65314 0.52402 0.23786
 C2951 C 0.64686 0.51879 0.22067
 C2952 C 0.62936 0.52220 0.21545
 C2953 C 0.65819 0.51022 0.20891
 C2954 C 0.67561 0.50684 0.21405
 C2955 C 0.68225 0.51238 0.23082
 C2956 C 0.67095 0.52104 0.24270
 H2957 H 0.59653 0.53170 0.20787
 H2958 H 0.61633 0.54696 0.26999
 H2959 H 0.58617 0.55396 0.26004
 H2960 H 0.64616 0.53592 0.26314
 H2961 H 0.62471 0.51843 0.20213
 H2962 H 0.65355 0.50604 0.19577
 H2963 H 0.68401 0.50003 0.20471
 H2964 H 0.67592 0.52516 0.25576
 C2965 C 0.60133 1.04904 0.71438
 C2966 C 0.61752 1.04463 0.72257
 C2967 C 0.63069 1.05695 0.72489
 C2968 C 0.62735 1.07348 0.71918
 C2969 C 0.61133 1.07769 0.71073
 C2970 C 0.59824 1.06550 0.70810
 C2971 C 0.64721 1.05243 0.73222
 C2972 C 0.65100 1.03562 0.73652
 C2973 C 0.63780 1.02331 0.73437
 C2974 C 0.62100 1.02796 0.72781
 C2975 C 0.64195 1.00640 0.73782
 C2976 C 0.65930 1.00163 0.74217
 C2977 C 0.67254 1.01376 0.74381
 C2978 C 0.66816 1.03078 0.74171
 H2979 H 0.59123 1.03960 0.71263
 H2980 H 0.63731 1.08306 0.72079
 H2981 H 0.60939 1.09041 0.70580
 H2982 H 0.65739 1.06184 0.73373
 H2983 H 0.61095 1.01850 0.72593
 H2984 H 0.63202 0.99679 0.73621
 H2985 H 0.66255 0.98842 0.74360
 H2986 H 0.67847 1.04009 0.74252
 C2987 C 0.88178 0.42753 0.31001
 C2988 C 0.86834 0.43851 0.30391
 C2989 C 0.85443 0.44302 0.31579
 C2990 C 0.85417 0.43643 0.33352
 C2991 C 0.86773 0.42570 0.33955
 C2992 C 0.88163 0.42123 0.32788
 C2993 C 0.84103 0.45404 0.30978
 C2994 C 0.84128 0.46051 0.29200
 C2995 C 0.85516 0.45600 0.28010
 C2996 C 0.86867 0.44511 0.28617
 C2997 C 0.85498 0.46207 0.26212
 C2998 C 0.84082 0.47197 0.25581
 C2999 C 0.82701 0.47638 0.26754
 C3000 C 0.82744 0.47086 0.28568
 H3001 H 0.89262 0.42425 0.30106
 H3002 H 0.84360 0.43972 0.34278
 H3003 H 0.86748 0.42096 0.35338
 H3004 H 0.83030 0.45740 0.31885
 H3005 H 0.87929 0.44161 0.27704
 H3006 H 0.86544 0.45866 0.25278
 H3007 H 0.84036 0.47576 0.24164
 H3008 H 0.81631 0.47357 0.29444
 C3009 C 0.90003 0.95211 0.76799
 C3010 C 0.88400 0.95963 0.76218
 C3011 C 0.88152 0.97715 0.76394
 C3012 C 0.89539 0.98696 0.77046
 C3013 C 0.91131 0.97945 0.77597
 C3014 C 0.91366 0.96191 0.77541
 C3015 C 0.86514 0.98457 0.75946
 C3016 C 0.85119 0.97475 0.75301
 C3017 C 0.85393 0.95737 0.75033
 C3018 C 0.87026 0.94990 0.75504
 C3019 C 0.84014 0.94771 0.74325
 C3020 C 0.82365 0.95507 0.73945
 C3021 C 0.82048 0.97214 0.74301
 C3022 C 0.83445 0.98198 0.74954
 H3023 H 0.90159 0.93860 0.76740
 H3024 H 0.89385 1.00044 0.77156
 H3025 H 0.92174 0.98744 0.78096
 H3026 H 0.86316 0.99795 0.76126
 H3027 H 0.87218 0.93649 0.75340
 H3028 H 0.84202 0.93441 0.74093
 H3029 H 0.81315 0.94721 0.73437
 H3030 H 0.83221 0.99518 0.75218
 C3031 C 0.35768 0.29939 0.79596
 C3032 C 0.37370 0.29435 0.78787
 C3033 C 0.37764 0.29954 0.76992
 C3034 C 0.36528 0.30933 0.76023
 C3035 C 0.34924 0.31404 0.76823
 C3036 C 0.34527 0.30934 0.78626
 C3037 C 0.39384 0.29482 0.76196
 C3038 C 0.40602 0.28467 0.77160
 C3039 C 0.40180 0.27916 0.78939
 C3040 C 0.38582 0.28416 0.79746
 C3041 C 0.41365 0.26871 0.79889
 C3042 C 0.42961 0.26383 0.79100
 C3043 C 0.43433 0.26949 0.77349
 C3044 C 0.42236 0.27994 0.76382
 H3045 H 0.35506 0.29576 0.80991
 H3046 H 0.36795 0.31329 0.74638
 H3047 H 0.33987 0.32129 0.76014
 H3048 H 0.39691 0.29898 0.74826
 H3049 H 0.38277 0.28004 0.81118
 H3050 H 0.41062 0.26434 0.81251
 H3051 H 0.43849 0.25589 0.79893
 H3052 H 0.42576 0.28444 0.75034
 C3053 C 0.88707 0.30893 0.32182
 C3054 C 0.90055 0.30135 0.31164
 C3055 C 0.90150 0.30430 0.29269
 C3056 C 0.88863 0.31443 0.28418
 C3057 C 0.87509 0.32174 0.29437
 C3058 C 0.87425 0.31924 0.31332
 C3059 C 0.91537 0.29721 0.28261
 C3060 C 0.92817 0.28702 0.29122
 C3061 C 0.92684 0.28367 0.31009
 C3062 C 0.91315 0.29094 0.32018
 C3063 C 0.93936 0.27323 0.31866
 C3064 C 0.95333 0.26646 0.30877
 C3065 C 0.95522 0.27011 0.29011
 C3066 C 0.94245 0.28032 0.28137
 H3067 H 0.88677 0.30703 0.33642
 H3068 H 0.88903 0.31673 0.26965
 H3069 H 0.86519 0.32930 0.28734
 H3070 H 0.91626 0.29972 0.26813
 H3071 H 0.91233 0.28855 0.33470
 H3072 H 0.93852 0.27051 0.33309
 H3073 H 0.96308 0.25886 0.31597
 H3074 H 0.94379 0.28329 0.26703
 C3075 C 0.38655 0.79466 0.44466
 C3076 C 0.37059 0.78829 0.45135
 C3077 C 0.36488 0.79249 0.46901
 C3078 C 0.37552 0.80277 0.47981
 C3079 C 0.39159 0.80885 0.47315
 C3080 C 0.39727 0.80494 0.45547
 C3081 C 0.34866 0.78636 0.47551
 C3082 C 0.33824 0.77590 0.46462
 C3083 C 0.34429 0.77145 0.44711
 C3084 C 0.36029 0.77776 0.44056
 C3085 C 0.33419 0.76082 0.43631
 C3086 C 0.31805 0.75484 0.44255
 C3087 C 0.31148 0.75946 0.45971
 C3088 C 0.32179 0.76993 0.47079
 H3089 H 0.39044 0.79179 0.43086
 H3090 H 0.37145 0.80606 0.49344
 H3091 H 0.39964 0.81653 0.48193
 H3092 H 0.34417 0.78974 0.48899
 H3093 H 0.36475 0.77446 0.42704
 H3094 H 0.33867 0.75727 0.42289
 H3095 H 0.31047 0.74693 0.43358
 H3096 H 0.31693 0.77367 0.48400
 C3097 C 0.38877 0.30798 0.94149
 C3098 C 0.37532 0.30028 0.95146
 C3099 C 0.36528 0.30980 0.96388
 C3100 C 0.36907 0.32680 0.96629
 C3101 C 0.38193 0.33458 0.95566
 C3102 C 0.39181 0.32532 0.94297
 C3103 C 0.35123 0.30234 0.97320
 C3104 C 0.34669 0.28567 0.96969
 C3105 C 0.35690 0.27606 0.95746
 C3106 C 0.37139 0.28333 0.94870
 C3107 C 0.35200 0.25954 0.95365
 C3108 C 0.33663 0.25287 0.96120
 C3109 C 0.32609 0.26252 0.97293
 C3110 C 0.33156 0.27875 0.97756
 H3111 H 0.39669 0.30044 0.93237
 H3112 H 0.36164 0.33421 0.97596
 H3113 H 0.38380 0.34794 0.95713
 H3114 H 0.34339 0.30971 0.98259
 H3115 H 0.37910 0.27603 0.93914
 H3116 H 0.35970 0.25199 0.94434
 H3117 H 0.33275 0.24032 0.95746
 H3118 H 0.32355 0.28638 0.98652
 C3119 C 0.81309 0.45746 0.39459
 C3120 C 0.80362 0.46518 0.38030
 C3121 C 0.78500 0.46360 0.37936
 C3122 C 0.77605 0.45533 0.39338
 C3123 C 0.78553 0.44787 0.40767
 C3124 C 0.80417 0.44827 0.40807
 C3125 C 0.77570 0.46984 0.36418
 C3126 C 0.78477 0.47778 0.34999
 C3127 C 0.80323 0.48034 0.35152
 C3128 C 0.81256 0.47394 0.36659
 C3129 C 0.81216 0.48889 0.33768
 C3130 C 0.80308 0.49413 0.32208
 C3131 C 0.78499 0.49054 0.31980
 C3132 C 0.77580 0.48273 0.33405
 H3133 H 0.82743 0.45786 0.39461
 H3134 H 0.76176 0.45427 0.39308
 H3135 H 0.77826 0.44133 0.41817
 H3136 H 0.76149 0.46813 0.36321
 H3137 H 0.82681 0.47543 0.36743
 H3138 H 0.82626 0.49114 0.33871
 H3139 H 0.81048 0.50024 0.31137
 H3140 H 0.76181 0.48012 0.33254
 C3141 C 0.82112 0.92941 0.87237
 C3142 C 0.81063 0.93736 0.85894
 C3143 C 0.79210 0.93498 0.85881
 C3144 C 0.78434 0.92502 0.87232
 C3145 C 0.79481 0.91737 0.88576
 C3146 C 0.81333 0.91927 0.88587
 C3147 C 0.78160 0.94256 0.84521
 C3148 C 0.78934 0.95269 0.83180
 C3149 C 0.80783 0.95538 0.83213
 C3150 C 0.81836 0.94763 0.84562
 C3151 C 0.81548 0.96576 0.81891
 C3152 C 0.80499 0.97325 0.80536
 C3153 C 0.78664 0.97040 0.80465
 C3154 C 0.77890 0.96011 0.81800
 H3155 H 0.83536 0.93093 0.87210
 H3156 H 0.77014 0.92320 0.87255
 H3157 H 0.78832 0.91004 0.89619
 H3158 H 0.76741 0.94057 0.84505
 H3159 H 0.83256 0.94959 0.84575
 H3160 H 0.82961 0.96799 0.81895
 H3161 H 0.81134 0.98097 0.79515
 H3162 H 0.76477 0.95784 0.81764
 C3163 C 0.31086 0.82906 0.36571
 C3164 C 0.30295 0.81743 0.37756
 C3165 C 0.31255 0.81133 0.39285
 C3166 C 0.32953 0.81740 0.39645
 C3167 C 0.33733 0.82882 0.38455
 C3168 C 0.32828 0.83441 0.36886
 C3169 C 0.30518 0.79904 0.40414
 C3170 C 0.28821 0.79292 0.40054
 C3171 C 0.27832 0.79934 0.38562
 C3172 C 0.28584 0.81145 0.37410
 C3173 C 0.26095 0.79374 0.38274
 C3174 C 0.25333 0.78225 0.39483
 C3175 C 0.26326 0.77569 0.40944
 C3176 C 0.28077 0.78085 0.41204
 H3177 H 0.30389 0.83320 0.35354
 H3178 H 0.33698 0.81296 0.40819
 H3179 H 0.35074 0.83285 0.38722
 H3180 H 0.31264 0.79425 0.41576
 H3181 H 0.27838 0.81623 0.36250
 H3182 H 0.25310 0.79864 0.37150
 H3183 H 0.23965 0.77867 0.39298
 H3184 H 0.28820 0.77623 0.42373
 C3185 C 0.30441 0.29273 0.84423
 C3186 C 0.29590 0.28559 0.85936
 C3187 C 0.27720 0.28568 0.86026
 C3188 C 0.26732 0.29225 0.84565
 C3189 C 0.27587 0.29935 0.83067
 C3190 C 0.29448 0.30009 0.83000
 C3191 C 0.26869 0.27953 0.87589
 C3192 C 0.27866 0.27321 0.89062
 C3193 C 0.29736 0.27259 0.88937
 C3194 C 0.30584 0.27883 0.87382
 C3195 C 0.30736 0.26592 0.90380
 C3196 C 0.29899 0.26005 0.91942
 C3197 C 0.28045 0.26093 0.92109
 C3198 C 0.27031 0.26758 0.90662
 H3199 H 0.31874 0.29331 0.84398
 H3200 H 0.25298 0.29224 0.84596
 H3201 H 0.26788 0.30463 0.81974
 H3202 H 0.25435 0.27987 0.87668
 H3203 H 0.32019 0.27861 0.87309
 H3204 H 0.32168 0.26532 0.90307
 H3205 H 0.30713 0.25515 0.93044
 H3206 H 0.25601 0.26824 0.90777
 C3207 C 0.44558 0.32024 0.88466
 C3208 C 0.45087 0.31050 0.86991
 C3209 C 0.43831 0.30590 0.85658
 C3210 C 0.42063 0.31119 0.85829
 C3211 C 0.41542 0.32074 0.87323
 C3212 C 0.42786 0.32530 0.88650
 C3213 C 0.44365 0.29605 0.84184
 C3214 C 0.46139 0.29089 0.84027
 C3215 C 0.47389 0.29551 0.85368
 C3216 C 0.46851 0.30519 0.86845
 C3217 C 0.49169 0.29077 0.85185
 C3218 C 0.49723 0.28211 0.83649
 C3219 C 0.48497 0.27764 0.82306
 C3220 C 0.46700 0.28169 0.82517
 H3221 H 0.45515 0.32343 0.89507
 H3222 H 0.41082 0.30778 0.84822
 H3223 H 0.40166 0.32448 0.87451
 H3224 H 0.43408 0.29257 0.83153
 H3225 H 0.47811 0.30876 0.87870
 H3226 H 0.50142 0.29426 0.86197
 H3227 H 0.51118 0.27923 0.83484
 H3228 H 0.45765 0.27865 0.81451
 C3229 C 0.96074 0.31443 0.39744
 C3230 C 0.96979 0.30490 0.38429
 C3231 C 0.97044 0.28720 0.38586
 C3232 C 0.96275 0.27939 0.40095
 C3233 C 0.95403 0.28891 0.41404
 C3234 C 0.95244 0.30649 0.41226
 C3235 C 0.97869 0.27756 0.37232
 C3236 C 0.98669 0.28540 0.35735
 C3237 C 0.98662 0.30314 0.35617
 C3238 C 0.97803 0.31274 0.36947
 C3239 C 0.99512 0.31105 0.34163
 C3240 C 1.00351 0.30155 0.32833
 C3241 C 1.00330 0.28388 0.32895
 C3242 C 0.99475 0.27584 0.34353
 H3243 H 0.95969 0.32793 0.39580
 H3244 H 0.96336 0.26587 0.40257
 H3245 H 0.94830 0.28242 0.42556
 H3246 H 0.97888 0.26399 0.37346
 H3247 H 0.97775 0.32632 0.36829
 H3248 H 0.99524 0.32461 0.34048
 H3249 H 1.00974 0.30812 0.31716
 H3250 H 0.99442 0.26226 0.34413
 C3251 C 0.43631 0.37859 0.81637
 C3252 C 0.44731 0.36664 0.80819
 C3253 C 0.46541 0.36558 0.81307
 C3254 C 0.47225 0.37681 0.82578
 C3255 C 0.46132 0.38907 0.83344
 C3256 C 0.44320 0.39009 0.82888
 C3257 C 0.47636 0.35342 0.80508
 C3258 C 0.46950 0.34257 0.79195
 C3259 C 0.45149 0.34400 0.78673
 C3260 C 0.44048 0.35587 0.79503
 C3261 C 0.44470 0.33346 0.77335
 C3262 C 0.45552 0.32131 0.76548
 C3263 C 0.47331 0.31934 0.77094
 C3264 C 0.48027 0.33017 0.78409
 H3265 H 0.42234 0.37888 0.81294
 H3266 H 0.48613 0.37631 0.82957
 H3267 H 0.46720 0.39793 0.84269
 H3268 H 0.49020 0.35246 0.80900
 H3269 H 0.42663 0.35680 0.79114
 H3270 H 0.43095 0.33442 0.76917
 H3271 H 0.44968 0.31303 0.75557
 H3272 H 0.49394 0.32876 0.78845
 C3273 C 0.94380 0.37405 0.31775
 C3274 C 0.95181 0.36107 0.30805
 C3275 C 0.94133 0.34805 0.30096
 C3276 C 0.92292 0.34840 0.30366
 C3277 C 0.91503 0.36139 0.31352
 C3278 C 0.92545 0.37420 0.32084
 C3279 C 0.94948 0.33488 0.29149
 C3280 C 0.96796 0.33453 0.28928
 C3281 C 0.97836 0.34759 0.29642
 C3282 C 0.97020 0.36085 0.30559
 C3283 C 0.99684 0.34700 0.29464
 C3284 C 1.00502 0.33335 0.28628
 C3285 C 0.99485 0.32026 0.27925
 C3286 C 0.97627 0.32107 0.28052
 H3287 H 0.95190 0.38411 0.32295
 H3288 H 0.91468 0.33856 0.29830
 H3289 H 0.90085 0.36128 0.31571
 H3290 H 0.94150 0.32483 0.28610
 H3291 H 0.97820 0.37084 0.31113
 H3292 H 1.00498 0.35690 0.30010
 H3293 H 1.01934 0.33289 0.28558
 H3294 H 0.96833 0.31083 0.27549
 C3295 C 0.28422 0.88925 0.45783
 C3296 C 0.27629 0.87363 0.46053
 C3297 C 0.25775 0.87204 0.45865
 C3298 C 0.24742 0.88631 0.45461
 C3299 C 0.25542 0.90191 0.45211
 C3300 C 0.27393 0.90351 0.45347
 C3301 C 0.24993 0.85622 0.46068
 C3302 C 0.26043 0.84205 0.46479
 C3303 C 0.27893 0.84384 0.46717
 C3304 C 0.28673 0.85956 0.46488
 C3305 C 0.28941 0.82986 0.47173
 C3306 C 0.28170 0.81418 0.47386
 C3307 C 0.26342 0.81212 0.47119
 C3308 C 0.25280 0.82610 0.46658
 H3309 H 0.29852 0.89015 0.45857
 H3310 H 0.23317 0.88539 0.45328
 H3311 H 0.24713 0.91272 0.44902
 H3312 H 0.23573 0.85494 0.45902
 H3313 H 0.30095 0.86083 0.46647
 H3314 H 0.30358 0.83104 0.47362
 H3315 H 0.29016 0.80353 0.47721
 H3316 H 0.23868 0.82457 0.46457
 C3317 C 0.30571 0.38151 0.94600
 C3318 C 0.30160 0.36502 0.95131
 C3319 C 0.31540 0.35329 0.95469
 C3320 C 0.33301 0.35813 0.95217
 C3321 C 0.33701 0.37450 0.94680
 C3322 C 0.32346 0.38644 0.94383
 C3323 C 0.31140 0.33694 0.96052
 C3324 C 0.29372 0.33206 0.96274
 C3325 C 0.27989 0.34362 0.95874
 C3326 C 0.28391 0.36006 0.95325
 C3327 C 0.26223 0.33850 0.96024
 C3328 C 0.25829 0.32212 0.96569
 C3329 C 0.27190 0.31070 0.97020
 C3330 C 0.28963 0.31575 0.96873
 H3331 H 0.29511 0.39057 0.94382
 H3332 H 0.34370 0.34923 0.95422
 H3333 H 0.35075 0.37775 0.94476
 H3334 H 0.32203 0.32802 0.96327
 H3335 H 0.27328 0.36897 0.95042
 H3336 H 0.25146 0.34714 0.95710
 H3337 H 0.24455 0.31843 0.96669
 H3338 H 0.30020 0.30688 0.97188
 C3339 C 0.81696 0.37273 0.32144
 C3340 C 0.81143 0.38776 0.31294
 C3341 C 0.82419 0.39924 0.30650
 C3342 C 0.84221 0.39585 0.30939
 C3343 C 0.84760 0.38092 0.31784
 C3344 C 0.83509 0.36897 0.32343
 C3345 C 0.81877 0.41369 0.29689
 C3346 C 0.80073 0.41689 0.29374
 C3347 C 0.78793 0.40575 0.30076
 C3348 C 0.79336 0.39122 0.31024
 C3349 C 0.76987 0.40928 0.29811
 C3350 C 0.76454 0.42370 0.28858
 C3351 C 0.77715 0.43458 0.28115
 C3352 C 0.79525 0.43111 0.28372
 H3353 H 0.80721 0.36360 0.32561
 H3354 H 0.85215 0.40453 0.30466
 H3355 H 0.86165 0.37847 0.31954
 H3356 H 0.82860 0.42229 0.29165
 H3357 H 0.78354 0.38253 0.31531
 H3358 H 0.75989 0.40096 0.30351
 H3359 H 0.75052 0.42632 0.28686
 H3360 H 0.80501 0.43970 0.27833
   
