data_POSCAR
  _audit_creation_date              2014-09-24
  _audit_creation_method            'ToBaCCo'
  _symmetry_space_group_name_H-M    'P1'
  _symmetry_Int_Tables_number       1
  _symmetry_cell_setting            triclinic
  loop_
  _symmetry_equiv_pos_as_xyz
 x,y,z
_cell_length_a 94.9197
_cell_length_b 97.0743
_cell_length_c 94.6327
_cell_angle_alpha 89.941200
_cell_angle_beta 89.946500
_cell_angle_gamma 90.003100
loop_
  _atom_site_label
  _atom_site_type_symbol
  _atom_site_fract_x
  _atom_site_fract_y
  _atom_site_fract_z
C1 C 0.34902 0.35036 0.32954
 C2 C 0.36080 0.34385 0.32357
 C3 C 0.36645 0.33184 0.32970
 C4 C 0.36017 0.32646 0.34200
 C5 C 0.34833 0.33281 0.34803
 C6 C 0.34273 0.34480 0.34178
 C7 C 0.34334 0.36226 0.32335
 C8 C 0.33135 0.36866 0.32914
 C9 C 0.32515 0.36303 0.34137
 C10 C 0.33076 0.35118 0.34773
 C11 C 0.32450 0.34553 0.35986
 C12 C 0.32997 0.33351 0.36611
 C13 C 0.34193 0.32724 0.36011
 H14 H 0.36539 0.34798 0.31397
 H15 H 0.36455 0.31735 0.34696
 H16 H 0.34834 0.36660 0.31405
 H17 H 0.31576 0.36770 0.34579
 H18 H 0.31542 0.35057 0.36449
 H19 H 0.34609 0.31784 0.36467
 C20 C 0.34924 0.85006 -0.16976
 C21 C 0.36089 0.84373 -0.17622
 C22 C 0.36680 0.83145 -0.17074
 C23 C 0.36057 0.82569 -0.15849
 C24 C 0.34898 0.83195 -0.15190
 C25 C 0.34331 0.84418 -0.15755
 C26 C 0.34338 0.86212 -0.17549
 C27 C 0.33152 0.86853 -0.16923
 C28 C 0.32594 0.86256 -0.15677
 C29 C 0.33164 0.85048 -0.15102
 C30 C 0.32574 0.84454 -0.13885
 C31 C 0.33116 0.83221 -0.13325
 C32 C 0.34282 0.82600 -0.13986
 H33 H 0.36559 0.84883 -0.18524
 H34 H 0.36425 0.81598 -0.15426
 H35 H 0.34775 0.86598 -0.18528
 H36 H 0.31734 0.86743 -0.15116
 H37 H 0.31690 0.84955 -0.13374
 H38 H 0.34697 0.81639 -0.13578
 C39 C 0.84958 0.35059 -0.17079
 C40 C 0.86135 0.34444 -0.17719
 C41 C 0.86733 0.33217 -0.17177
 C42 C 0.86104 0.32623 -0.15964
 C43 C 0.84931 0.33230 -0.15312
 C44 C 0.84358 0.34453 -0.15870
 C45 C 0.84365 0.36264 -0.17645
 C46 C 0.83165 0.36887 -0.17025
 C47 C 0.82600 0.36272 -0.15792
 C48 C 0.83177 0.35064 -0.15224
 C49 C 0.82580 0.34452 -0.14020
 C50 C 0.83128 0.33218 -0.13468
 C51 C 0.84309 0.32616 -0.14122
 H52 H 0.86609 0.34967 -0.18611
 H53 H 0.86479 0.31652 -0.15547
 H54 H 0.84808 0.36665 -0.18615
 H55 H 0.81730 0.36745 -0.15235
 H56 H 0.81684 0.34938 -0.13514
 H57 H 0.84729 0.31655 -0.13719
 C58 C 0.84917 0.85117 0.33049
 C59 C 0.86096 0.84467 0.32450
 C60 C 0.86671 0.83274 0.33067
 C61 C 0.86052 0.82739 0.34303
 C62 C 0.84870 0.83373 0.34908
 C63 C 0.84302 0.84569 0.34281
 C64 C 0.84342 0.86300 0.32424
 C65 C 0.83140 0.86957 0.33001
 C66 C 0.82544 0.86390 0.34245
 C67 C 0.83113 0.85209 0.34881
 C68 C 0.82493 0.84646 0.36099
 C69 C 0.83042 0.83444 0.36724
 C70 C 0.84237 0.82819 0.36122
 H71 H 0.86547 0.84876 0.31484
 H72 H 0.86497 0.81832 0.34801
 H73 H 0.84874 0.86727 0.31512
 H74 H 0.81592 0.86817 0.34695
 H75 H 0.81586 0.85149 0.36566
 H76 H 0.84657 0.81880 0.36578
 C77 C 0.65142 0.65067 0.33035
 C78 C 0.63942 0.65676 0.32437
 C79 C 0.63401 0.66919 0.32975
 C80 C 0.64066 0.67537 0.34142
 C81 C 0.65256 0.66930 0.34762
 C82 C 0.65802 0.65694 0.34203
 C83 C 0.65701 0.63849 0.32470
 C84 C 0.66928 0.63256 0.33041
 C85 C 0.67570 0.63880 0.34218
 C86 C 0.67014 0.65091 0.34804
 C87 C 0.67659 0.65717 0.35972
 C88 C 0.67119 0.66947 0.36542
 C89 C 0.65920 0.67549 0.35923
 H90 H 0.63428 0.65178 0.31552
 H91 H 0.63673 0.68505 0.34554
 H92 H 0.65180 0.63364 0.31582
 H93 H 0.68525 0.63444 0.34657
 H94 H 0.68574 0.65235 0.36447
 H95 H 0.65512 0.68512 0.36334
 C96 C 0.65095 0.14961 -0.16954
 C97 C 0.63906 0.15583 -0.17562
 C98 C 0.63375 0.16832 -0.17031
 C99 C 0.64037 0.17444 -0.15860
 C100 C 0.65214 0.16824 -0.15228
 C101 C 0.65747 0.15579 -0.15780
 C102 C 0.65641 0.13735 -0.17512
 C103 C 0.66857 0.13108 -0.16933
 C104 C 0.67482 0.13735 -0.15737
 C105 C 0.66938 0.14957 -0.15163
 C106 C 0.67581 0.15579 -0.13990
 C107 C 0.67058 0.16820 -0.13431
 C108 C 0.65874 0.17437 -0.14063
 H109 H 0.63393 0.15091 -0.18451
 H110 H 0.63652 0.18417 -0.15453
 H111 H 0.65081 0.13259 -0.18378
 H112 H 0.68439 0.13325 -0.15282
 H113 H 0.68483 0.15086 -0.13503
 H114 H 0.65477 0.18408 -0.13661
 C115 C 0.15186 0.65140 -0.16842
 C116 C 0.13970 0.65731 -0.17431
 C117 C 0.13351 0.66907 -0.16821
 C118 C 0.13950 0.67469 -0.15591
 C119 C 0.15172 0.66898 -0.15001
 C120 C 0.15795 0.65731 -0.15629
 C121 C 0.15806 0.63975 -0.17459
 C122 C 0.17048 0.63383 -0.16897
 C123 C 0.17649 0.64004 -0.15685
 C124 C 0.17033 0.65164 -0.15053
 C125 C 0.17657 0.65784 -0.13868
 C126 C 0.17048 0.66955 -0.13239
 C127 C 0.15793 0.67492 -0.13805
 H128 H 0.13530 0.65298 -0.18389
 H129 H 0.13470 0.68358 -0.15094
 H130 H 0.15275 0.63510 -0.18350
 H131 H 0.18633 0.63631 -0.15254
 H132 H 0.18633 0.65370 -0.13453
 H133 H 0.15299 0.68379 -0.13317
 C134 C 0.15157 0.15202 0.33102
 C135 C 0.13991 0.15840 0.32466
 C136 C 0.13414 0.17075 0.33012
 C137 C 0.14053 0.17652 0.34226
 C138 C 0.15214 0.17021 0.34875
 C139 C 0.15767 0.15792 0.34312
 C140 C 0.15729 0.13989 0.32532
 C141 C 0.16916 0.13343 0.33149
 C142 C 0.17491 0.13941 0.34384
 C143 C 0.16935 0.15157 0.34956
 C144 C 0.17541 0.15751 0.36162
 C145 C 0.17013 0.16990 0.36720
 C146 C 0.15845 0.17616 0.36069
 H147 H 0.13509 0.15329 0.31573
 H148 H 0.13695 0.18627 0.34647
 H149 H 0.15279 0.13601 0.31561
 H150 H 0.18351 0.13450 0.34939
 H151 H 0.18427 0.15247 0.36667
 H152 H 0.15441 0.18582 0.36476
 C153 C 0.65128 0.34986 0.66867
 C154 C 0.63953 0.34368 0.67505
 C155 C 0.63377 0.33144 0.66958
 C156 C 0.63995 0.32542 0.65755
 C157 C 0.65164 0.33155 0.65098
 C158 C 0.65730 0.34383 0.65653
 C159 C 0.65721 0.36188 0.67434
 C160 C 0.66908 0.36804 0.66801
 C161 C 0.67479 0.36212 0.65571
 C162 C 0.66907 0.35002 0.65001
 C163 C 0.67507 0.34394 0.63800
 C164 C 0.66964 0.33157 0.63250
 C165 C 0.65787 0.32547 0.63906
 H166 H 0.63478 0.34850 0.68422
 H167 H 0.63580 0.31585 0.65340
 H168 H 0.65281 0.36623 0.68392
 H169 H 0.68375 0.36690 0.65057
 H170 H 0.68399 0.34885 0.63293
 H171 H 0.65370 0.31584 0.63505
 C172 C 0.65145 0.85006 1.16885
 C173 C 0.63916 0.84426 1.17460
 C174 C 0.63298 0.83230 1.16868
 C175 C 0.63937 0.82661 1.15649
 C176 C 0.65173 0.83223 1.15075
 C177 C 0.65784 0.84394 1.15698
 C178 C 0.65759 0.86177 1.17498
 C179 C 0.67012 0.86739 1.16950
 C180 C 0.67648 0.86112 1.15770
 C181 C 0.67041 0.84949 1.15139
 C182 C 0.67682 0.84319 1.13968
 C183 C 0.67077 0.83148 1.13338
 C184 C 0.65812 0.82618 1.13892
 H185 H 0.63497 0.84878 1.18416
 H186 H 0.63465 0.81795 1.15110
 H187 H 0.65251 0.86659 1.18397
 H188 H 0.68628 0.86518 1.15355
 H189 H 0.68667 0.84727 1.13565
 H190 H 0.65322 0.81731 1.13402
 C191 C 0.15080 0.34994 1.16889
 C192 C 0.13846 0.34421 1.17461
 C193 C 0.13217 0.33235 1.16862
 C194 C 0.13850 0.32668 1.15639
 C195 C 0.15090 0.33223 1.15068
 C196 C 0.15712 0.34385 1.15697
 C197 C 0.15705 0.36155 1.17510
 C198 C 0.16963 0.36711 1.16963
 C199 C 0.17591 0.36087 1.15777
 C200 C 0.16973 0.34932 1.15139
 C201 C 0.17607 0.34305 1.13963
 C202 C 0.16990 0.33142 1.13327
 C203 C 0.15721 0.32620 1.13880
 H204 H 0.13432 0.34870 1.18421
 H205 H 0.13370 0.31809 1.15094
 H206 H 0.15203 0.36636 1.18412
 H207 H 0.18574 0.36487 1.15363
 H208 H 0.18594 0.34707 1.13560
 H209 H 0.15224 0.31739 1.13385
 C210 C 0.15145 0.84967 0.66944
 C211 C 0.13968 0.84353 0.67586
 C212 C 0.13359 0.83135 0.67036
 C213 C 0.13979 0.82549 0.65815
 C214 C 0.15151 0.83158 0.65159
 C215 C 0.15733 0.84373 0.65722
 C216 C 0.15749 0.86163 0.67516
 C217 C 0.16933 0.86778 0.66878
 C218 C 0.17494 0.86190 0.65641
 C219 C 0.16911 0.84988 0.65067
 C220 C 0.17500 0.84383 0.63859
 C221 C 0.16944 0.83154 0.63304
 C222 C 0.15764 0.82552 0.63961
 H223 H 0.13505 0.84869 0.68486
 H224 H 0.13598 0.81584 0.65393
 H225 H 0.15318 0.86594 0.68479
 H226 H 0.18389 0.86667 0.65124
 H227 H 0.18394 0.84870 0.63350
 H228 H 0.15338 0.81595 0.63556
 C229 C 0.34889 0.64971 0.66866
 C230 C 0.36112 0.65564 0.67435
 C231 C 0.36727 0.66732 0.66804
 C232 C 0.36118 0.67282 0.65571
 C233 C 0.34887 0.66711 0.65002
 C234 C 0.34265 0.65555 0.65654
 C235 C 0.34268 0.63817 0.67505
 C236 C 0.33019 0.63245 0.66961
 C237 C 0.32396 0.63845 0.65760
 C238 C 0.33011 0.64992 0.65102
 C239 C 0.32379 0.65601 0.63914
 C240 C 0.32990 0.66759 0.63261
 C241 C 0.34256 0.67294 0.63805
 H242 H 0.36560 0.65139 0.68394
 H243 H 0.36597 0.68163 0.65057
 H244 H 0.34767 0.63356 0.68421
 H245 H 0.31417 0.63433 0.65349
 H246 H 0.31394 0.65189 0.63518
 H247 H 0.34751 0.68172 0.63298
 C248 C 0.34828 0.15064 1.16958
 C249 C 0.36054 0.15644 1.17539
 C250 C 0.36692 0.16824 1.16932
 C251 C 0.36076 0.17378 1.15695
 C252 C 0.34847 0.16815 1.15114
 C253 C 0.34217 0.15656 1.15749
 C254 C 0.34197 0.13908 1.17587
 C255 C 0.32945 0.13325 1.17036
 C256 C 0.32347 0.13946 1.15822
 C257 C 0.32972 0.15097 1.15180
 C258 C 0.32353 0.15714 1.13988
 C259 C 0.32974 0.16874 1.13348
 C260 C 0.34232 0.17405 1.13911
 H261 H 0.36455 0.15206 1.18509
 H262 H 0.36563 0.18233 1.15146
 H263 H 0.34727 0.13440 1.18478
 H264 H 0.31357 0.13581 1.15397
 H265 H 0.31374 0.15305 1.13576
 H266 H 0.34734 0.18283 1.13413
 C267 C 0.84811 0.64990 1.17005
 C268 C 0.85957 0.65644 1.17659
 C269 C 0.86556 0.66840 1.17070
 C270 C 0.85987 0.67381 1.15814
 C271 C 0.84834 0.66748 1.15157
 C272 C 0.84247 0.65544 1.15751
 C273 C 0.84206 0.63805 1.17603
 C274 C 0.83036 0.63146 1.16968
 C275 C 0.82504 0.63711 1.15696
 C276 C 0.83090 0.64902 1.15097
 C277 C 0.82523 0.65468 1.13856
 C278 C 0.83080 0.66685 1.13271
 C279 C 0.84246 0.67311 1.13926
 H280 H 0.86368 0.65232 1.18640
 H281 H 0.86449 0.68291 1.15338
 H282 H 0.84620 0.63446 1.18602
 H283 H 0.81655 0.63211 1.15133
 H284 H 0.81642 0.64961 1.13347
 H285 H 0.84674 0.68260 1.13499
 C286 C 0.84802 0.14941 0.66998
 C287 C 0.85977 0.15571 0.67622
 C288 C 0.86547 0.16790 0.67053
 C289 C 0.85923 0.17375 0.65845
 C290 C 0.84755 0.16751 0.65203
 C291 C 0.84195 0.15527 0.65778
 C292 C 0.84215 0.13743 0.67586
 C293 C 0.83029 0.13117 0.66967
 C294 C 0.82453 0.13692 0.65730
 C295 C 0.83019 0.14896 0.65141
 C296 C 0.82414 0.15488 0.63933
 C297 C 0.82952 0.16720 0.63362
 C298 C 0.84128 0.17342 0.64004
 H299 H 0.86456 0.15102 0.68543
 H300 H 0.86333 0.18329 0.65415
 H301 H 0.84659 0.13321 0.68548
 H302 H 0.81558 0.13204 0.65227
 H303 H 0.81522 0.14988 0.63436
 H304 H 0.84540 0.18301 0.63588
 C305 C 0.34787 0.35042 0.67136
 C306 C 0.34178 0.36213 0.67755
 C307 C 0.33019 0.36871 0.67118
 C308 C 0.32481 0.36346 0.65843
 C309 C 0.33066 0.35167 0.65223
 C310 C 0.34224 0.34512 0.65868
 C311 C 0.35936 0.34380 0.67775
 C312 C 0.36539 0.33198 0.67162
 C313 C 0.35968 0.32679 0.65898
 C314 C 0.34812 0.33321 0.65253
 C315 C 0.34222 0.32778 0.64014
 C316 C 0.33052 0.33414 0.63374
 C317 C 0.32495 0.34621 0.63977
 H318 H 0.34590 0.36596 0.68747
 H319 H 0.31603 0.36856 0.65330
 H320 H 0.36347 0.34775 0.68763
 H321 H 0.36433 0.31779 0.65406
 H322 H 0.34650 0.31838 0.63571
 H323 H 0.31612 0.35136 0.63479
 C324 C 0.34904 0.85225 0.17074
 C325 C 0.34295 0.86412 0.17656
 C326 C 0.33027 0.86946 0.17114
 C327 C 0.32386 0.86288 0.15956
 C328 C 0.32993 0.85110 0.15350
 C329 C 0.34253 0.84572 0.15915
 C330 C 0.36144 0.84671 0.17645
 C331 C 0.36736 0.83458 0.17088
 C332 C 0.36089 0.82824 0.15920
 C333 C 0.34857 0.83374 0.15329
 C334 C 0.34208 0.82734 0.14173
 C335 C 0.32951 0.83262 0.13600
 C336 C 0.32349 0.84450 0.14201
 H337 H 0.34811 0.86921 0.18533
 H338 H 0.31398 0.86676 0.15542
 H339 H 0.36646 0.85183 0.18529
 H340 H 0.36523 0.81879 0.15492
 H341 H 0.34693 0.81830 0.13709
 H342 H 0.31367 0.84851 0.13788
 C343 C 0.84777 0.35007 0.16986
 C344 C 0.84188 0.36210 0.17556
 C345 C 0.83014 0.36840 0.16916
 C346 C 0.82452 0.36261 0.15676
 C347 C 0.83020 0.35050 0.15103
 C348 C 0.84184 0.34417 0.15762
 C349 C 0.85941 0.34375 0.17630
 C350 C 0.86513 0.33151 0.17078
 C351 C 0.85901 0.32562 0.15867
 C352 C 0.84746 0.33188 0.15204
 C353 C 0.84133 0.32594 0.14001
 C354 C 0.82970 0.33218 0.13336
 C355 C 0.82430 0.34455 0.13890
 H356 H 0.84621 0.36635 0.18521
 H357 H 0.81567 0.36750 0.15156
 H358 H 0.86410 0.34847 0.18554
 H359 H 0.86313 0.31603 0.15449
 H360 H 0.84546 0.31630 0.13598
 H361 H 0.81549 0.34957 0.13376
 C362 C 0.84915 0.85023 0.67006
 C363 C 0.84358 0.86236 0.67583
 C364 C 0.83133 0.86838 0.67016
 C365 C 0.82493 0.86228 0.65831
 C366 C 0.83048 0.85023 0.65232
 C367 C 0.84257 0.84410 0.65829
 C368 C 0.86112 0.84405 0.67599
 C369 C 0.86651 0.83166 0.67049
 C370 C 0.85988 0.82563 0.65873
 C371 C 0.84801 0.83179 0.65257
 C372 C 0.84138 0.82574 0.64088
 C373 C 0.82941 0.83185 0.63474
 C374 C 0.82403 0.84411 0.64056
 H375 H 0.84877 0.86710 0.68479
 H376 H 0.81540 0.86671 0.65394
 H377 H 0.86625 0.84891 0.68491
 H378 H 0.86379 0.81598 0.65452
 H379 H 0.84544 0.81615 0.63668
 H380 H 0.81491 0.84899 0.63585
 C381 C 0.65076 0.64924 0.66840
 C382 C 0.65636 0.63707 0.67408
 C383 C 0.66861 0.63112 0.66835
 C384 C 0.67500 0.63732 0.65652
 C385 C 0.66943 0.64941 0.65062
 C386 C 0.65734 0.65547 0.65666
 C387 C 0.63879 0.65536 0.67440
 C388 C 0.63339 0.66779 0.66900
 C389 C 0.64001 0.67393 0.65726
 C390 C 0.65189 0.66782 0.65103
 C391 C 0.65850 0.67398 0.63936
 C392 C 0.67048 0.66793 0.63316
 C393 C 0.67587 0.65563 0.63889
 H394 H 0.65117 0.63226 0.68302
 H395 H 0.68454 0.63294 0.65211
 H396 H 0.63367 0.65042 0.68331
 H397 H 0.63608 0.68361 0.65312
 H398 H 0.65443 0.68361 0.63524
 H399 H 0.68500 0.65080 0.63413
 C400 C 0.65140 0.15008 0.16860
 C401 C 0.65765 0.13826 0.17438
 C402 C 0.66979 0.13248 0.16822
 C403 C 0.67558 0.13868 0.15608
 C404 C 0.66950 0.15056 0.15024
 C405 C 0.65735 0.15628 0.15650
 C406 C 0.63938 0.15590 0.17483
 C407 C 0.63326 0.16793 0.16924
 C408 C 0.63927 0.17401 0.15714
 C409 C 0.65124 0.16827 0.15075
 C410 C 0.65729 0.17445 0.13879
 C411 C 0.66951 0.16890 0.13255
 C412 C 0.67550 0.15690 0.13834
 H413 H 0.65323 0.13374 0.18387
 H414 H 0.68479 0.13422 0.15110
 H415 H 0.63474 0.15100 0.18402
 H416 H 0.63482 0.18341 0.15287
 H417 H 0.65244 0.18356 0.13430
 H418 H 0.68503 0.15265 0.13380
 C419 C 0.15009 0.64961 0.16880
 C420 C 0.15596 0.63754 0.17448
 C421 C 0.16782 0.63137 0.16816
 C422 C 0.17356 0.63730 0.15586
 C423 C 0.16791 0.64944 0.15018
 C424 C 0.15617 0.65566 0.15669
 C425 C 0.13836 0.65583 0.17518
 C426 C 0.13269 0.66814 0.16973
 C427 C 0.13894 0.67417 0.15774
 C428 C 0.15060 0.66801 0.15117
 C429 C 0.15691 0.67414 0.13931
 C430 C 0.16867 0.66802 0.13278
 C431 C 0.17399 0.65557 0.13822
 H432 H 0.15153 0.63318 0.18404
 H433 H 0.18251 0.63250 0.15072
 H434 H 0.13357 0.65101 0.18433
 H435 H 0.13488 0.68381 0.15362
 H436 H 0.15283 0.68383 0.13536
 H437 H 0.18291 0.65065 0.13315
 C438 C 0.15156 0.14921 0.66893
 C439 C 0.15724 0.13707 0.67459
 C440 C 0.16963 0.13129 0.66895
 C441 C 0.17607 0.13765 0.65723
 C442 C 0.17042 0.14972 0.65136
 C443 C 0.15819 0.15560 0.65731
 C444 C 0.13945 0.15514 0.67484
 C445 C 0.13394 0.16754 0.66945
 C446 C 0.14061 0.17383 0.65783
 C447 C 0.15264 0.16792 0.65170
 C448 C 0.15930 0.17423 0.64015
 C449 C 0.17141 0.16837 0.63403
 C450 C 0.17690 0.15610 0.63974
 H451 H 0.15202 0.13214 0.68344
 H452 H 0.18571 0.13340 0.65289
 H453 H 0.13429 0.15008 0.68366
 H454 H 0.13661 0.18348 0.65371
 H455 H 0.15514 0.18383 0.63605
 H456 H 0.18614 0.15140 0.63504
 C457 C 0.34837 0.65096 0.32862
 C458 C 0.34232 0.63932 0.32227
 C459 C 0.32987 0.63348 0.32771
 C460 C 0.32350 0.63947 0.33965
 C461 C 0.32948 0.65103 0.34619
 C462 C 0.34199 0.65677 0.34069
 C463 C 0.36059 0.65699 0.32297
 C464 C 0.36660 0.66873 0.32928
 C465 C 0.36036 0.67420 0.34155
 C466 C 0.34806 0.66840 0.34719
 C467 C 0.34163 0.67419 0.35912
 C468 C 0.32900 0.66872 0.36454
 C469 C 0.32304 0.65707 0.35802
 H470 H 0.34742 0.63474 0.31316
 H471 H 0.31374 0.63525 0.34375
 H472 H 0.36519 0.65275 0.31344
 H473 H 0.36504 0.68305 0.34669
 H474 H 0.34647 0.68301 0.36418
 H475 H 0.31322 0.65286 0.36198
 C476 C 0.34943 0.14890 0.83029
 C477 C 0.34333 0.13705 0.82444
 C478 C 0.33063 0.13173 0.82983
 C479 C 0.32420 0.13830 0.84142
 C480 C 0.33028 0.15006 0.84750
 C481 C 0.34290 0.15542 0.84188
 C482 C 0.36185 0.15443 0.82459
 C483 C 0.36777 0.16655 0.83016
 C484 C 0.36129 0.17288 0.84185
 C485 C 0.34894 0.16739 0.84775
 C486 C 0.34243 0.17379 0.85932
 C487 C 0.32983 0.16852 0.86502
 C488 C 0.32381 0.15665 0.85899
 H489 H 0.34851 0.13197 0.81566
 H490 H 0.31430 0.13442 0.84554
 H491 H 0.36688 0.14930 0.81576
 H492 H 0.36563 0.18232 0.84613
 H493 H 0.34727 0.18283 0.86396
 H494 H 0.31397 0.15265 0.86310
 C495 C 0.84952 0.64850 0.83022
 C496 C 0.84340 0.63668 0.82434
 C497 C 0.83068 0.63137 0.82970
 C498 C 0.82425 0.63792 0.84130
 C499 C 0.83035 0.64965 0.84743
 C500 C 0.84300 0.65500 0.84183
 C501 C 0.86195 0.65402 0.82454
 C502 C 0.86788 0.66612 0.83015
 C503 C 0.86141 0.67243 0.84186
 C504 C 0.84905 0.66694 0.84773
 C505 C 0.84254 0.67333 0.85930
 C506 C 0.82993 0.66808 0.86498
 C507 C 0.82389 0.65624 0.85892
 H508 H 0.84857 0.63161 0.81555
 H509 H 0.81435 0.63406 0.84540
 H510 H 0.86697 0.64892 0.81569
 H511 H 0.86576 0.68186 0.84616
 H512 H 0.84739 0.68235 0.86397
 H513 H 0.81403 0.65225 0.86301
 C514 C 0.84991 0.14955 0.33028
 C515 C 0.84420 0.13775 0.32392
 C516 C 0.83210 0.13139 0.32953
 C517 C 0.82582 0.13694 0.34175
 C518 C 0.83146 0.14867 0.34827
 C519 C 0.84353 0.15502 0.34251
 C520 C 0.86180 0.15604 0.32450
 C521 C 0.86747 0.16794 0.33079
 C522 C 0.86111 0.17323 0.34308
 C523 C 0.84916 0.16691 0.34892
 C524 C 0.84267 0.17240 0.36098
 C525 C 0.83060 0.16617 0.36679
 C526 C 0.82511 0.15425 0.36038
 H527 H 0.84926 0.13347 0.31464
 H528 H 0.81635 0.13229 0.34603
 H529 H 0.86646 0.15198 0.31490
 H530 H 0.86550 0.18226 0.34817
 H531 H 0.84685 0.18173 0.36566
 H532 H 0.81592 0.14924 0.36486
 C533 C 0.65026 0.35008 0.33077
 C534 C 0.65586 0.36225 0.32507
 C535 C 0.66816 0.36817 0.33072
 C536 C 0.67461 0.36192 0.34248
 C537 C 0.66904 0.34982 0.34839
 C538 C 0.65689 0.34381 0.34244
 C539 C 0.63824 0.34400 0.32484
 C540 C 0.63284 0.33156 0.33027
 C541 C 0.63952 0.32539 0.34194
 C542 C 0.65145 0.33145 0.34808
 C543 C 0.65812 0.32525 0.35968
 C544 C 0.67014 0.33125 0.36580
 C545 C 0.67553 0.34355 0.36006
 H546 H 0.65063 0.36710 0.31618
 H547 H 0.68419 0.36626 0.34683
 H548 H 0.63307 0.34897 0.31599
 H549 H 0.63560 0.31571 0.34608
 H550 H 0.65404 0.31563 0.36381
 H551 H 0.68471 0.34835 0.36476
 C552 C 0.64973 0.84985 0.83118
 C553 C 0.65535 0.86203 0.82552
 C554 C 0.66761 0.86794 0.83124
 C555 C 0.67399 0.86170 0.84305
 C556 C 0.66839 0.84960 0.84892
 C557 C 0.65630 0.84357 0.84288
 C558 C 0.63777 0.84376 0.82516
 C559 C 0.63237 0.83129 0.83051
 C560 C 0.63897 0.82511 0.84222
 C561 C 0.65084 0.83119 0.84847
 C562 C 0.65747 0.82497 0.86008
 C563 C 0.66946 0.83098 0.86627
 C564 C 0.67483 0.84332 0.86060
 H565 H 0.65018 0.86687 0.81660
 H566 H 0.68354 0.86605 0.84745
 H567 H 0.63266 0.84873 0.81628
 H568 H 0.63504 0.81541 0.84631
 H569 H 0.65340 0.81532 0.86416
 H570 H 0.68397 0.84814 0.86536
 C571 C 0.15063 0.35050 0.82992
 C572 C 0.15654 0.36266 0.82448
 C573 C 0.16830 0.36878 0.83101
 C574 C 0.17392 0.36269 0.84327
 C575 C 0.16822 0.35047 0.84873
 C576 C 0.15657 0.34431 0.84201
 C577 C 0.13898 0.34435 0.82334
 C578 C 0.13324 0.33200 0.82860
 C579 C 0.13936 0.32582 0.84058
 C580 C 0.15094 0.33190 0.84733
 C581 C 0.15709 0.32565 0.85919
 C582 C 0.16876 0.33171 0.86594
 C583 C 0.17415 0.34421 0.86069
 H584 H 0.15221 0.36714 0.81493
 H585 H 0.18279 0.36745 0.84857
 H586 H 0.13429 0.34928 0.81421
 H587 H 0.13523 0.31615 0.84454
 H588 H 0.15296 0.31592 0.86301
 H589 H 0.18298 0.34910 0.86592
 C590 C 0.15033 0.85104 0.33054
 C591 C 0.15623 0.86310 0.32488
 C592 C 0.16804 0.86929 0.33124
 C593 C 0.17372 0.86337 0.34357
 C594 C 0.16804 0.85124 0.34924
 C595 C 0.15633 0.84501 0.34269
 C596 C 0.13862 0.84481 0.32413
 C597 C 0.13290 0.83254 0.32961
 C598 C 0.13908 0.82652 0.34164
 C599 C 0.15070 0.83269 0.34822
 C600 C 0.15690 0.82660 0.36014
 C601 C 0.16861 0.83273 0.36674
 C602 C 0.17401 0.84514 0.36127
 H603 H 0.15185 0.86745 0.31529
 H604 H 0.18263 0.86818 0.34874
 H605 H 0.13388 0.84961 0.31495
 H606 H 0.13497 0.81691 0.34577
 H607 H 0.15277 0.81694 0.36411
 H608 H 0.18290 0.85007 0.36637
 O609 O 0.25041 1.01497 0.23299
 O610 O 0.23096 0.98805 0.25237
 O611 O 0.23092 1.01490 0.25238
 O612 O 0.25050 0.98809 0.23298
 O613 O 0.26680 0.98811 0.24958
 O614 O 0.24731 1.01488 0.26889
 O615 O 0.24738 0.98802 0.26885
 O616 O 0.26672 1.01500 0.24958
 Cu617 Cu 0.23906 1.00150 0.24101
 Cu618 Cu 0.25869 1.00151 0.26087
 C619 C 0.26185 1.01967 0.23802
 C620 C 0.23589 0.98337 0.26390
 C621 C 0.23581 1.01952 0.26394
 C622 C 0.26196 0.98345 0.23802
 O623 O 0.24823 0.51438 0.76955
 O624 O 0.26774 0.48760 0.75011
 O625 O 0.26762 0.51447 0.75019
 O626 O 0.24829 0.48750 0.76948
 O627 O 0.23165 0.48783 0.75322
 O628 O 0.25149 0.51416 0.73343
 O629 O 0.25109 0.48730 0.73386
 O630 O 0.23209 0.51467 0.75280
 Cu631 Cu 0.25961 0.50098 0.76149
 Cu632 Cu 0.23994 0.50099 0.74167
 C633 C 0.23690 0.51923 0.76442
 C634 C 0.26267 0.48276 0.73872
 C635 C 0.26287 0.51895 0.73852
 C636 C 0.23666 0.48305 0.76467
 O637 O 0.74902 -0.01316 0.23021
 O638 O 0.76897 0.01367 0.24907
 O639 O 0.76878 -0.01322 0.24925
 O640 O 0.74934 0.01370 0.23005
 O641 O 0.73306 0.01377 0.24670
 O642 O 0.75279 -0.01286 0.26617
 O643 O 0.75281 0.01392 0.26584
 O644 O 0.73307 -0.01314 0.24717
 Cu645 Cu 0.76064 0.00022 0.23796
 Cu646 Cu 0.74130 0.00046 0.25814
 C647 C 0.73769 -0.01784 0.23554
 C648 C 0.76426 0.01844 0.26065
 C649 C 0.76412 -0.01767 0.26099
 C650 C 0.73791 0.01839 0.23510
 O651 O 0.73199 0.51299 0.74776
 O652 O 0.75146 0.48605 0.76687
 O653 O 0.75145 0.51289 0.76706
 O654 O 0.73198 0.48614 0.74755
 O655 O 0.74858 0.48598 0.73123
 O656 O 0.76754 0.51331 0.75022
 O657 O 0.76804 0.48645 0.75053
 O658 O 0.74808 0.51282 0.73092
 Cu659 Cu 0.74008 0.49950 0.75897
 Cu660 Cu 0.75970 0.49965 0.73907
 C661 C 0.73668 0.51752 0.73607
 C662 C 0.76309 0.48164 0.76201
 C663 C 0.76276 0.51778 0.76189
 C664 C 0.73703 0.48139 0.73610
 O665 O 0.24840 0.48664 0.23051
 O666 O 0.26806 0.51382 0.24914
 O667 O 0.26828 0.48689 0.24936
 O668 O 0.24827 0.51348 0.23030
 O669 O 0.23211 0.51333 0.24706
 O670 O 0.25247 0.48708 0.26646
 O671 O 0.25201 0.51390 0.26602
 O672 O 0.23259 0.48643 0.24761
 Cu673 Cu 0.25986 0.50020 0.23814
 Cu674 Cu 0.24069 0.50020 0.25848
 C675 C 0.23719 0.48180 0.23593
 C676 C 0.26334 0.51859 0.26072
 C677 C 0.26380 0.48240 0.26115
 C678 C 0.23679 0.51799 0.23541
 O679 O 0.74768 1.01293 0.76887
 O680 O 0.76746 0.98607 0.74990
 O681 O 0.76741 1.01296 0.74970
 O682 O 0.74768 0.98611 0.76895
 O683 O 0.73178 0.98584 0.75197
 O684 O 0.75110 1.01304 0.73311
 O685 O 0.75155 0.98622 0.73293
 O686 O 0.73148 1.01271 0.75218
 Cu687 Cu 0.75919 0.99953 0.76103
 Cu688 Cu 0.73986 0.99943 0.74087
 C689 C 0.73619 1.01743 0.76377
 C690 C 0.76290 0.98154 0.73818
 C691 C 0.76255 1.01768 0.73816
 C692 C 0.73639 0.98132 0.76369
 O693 O 0.75103 0.51348 0.23235
 O694 O 0.73143 0.48667 0.25158
 O695 O 0.73156 0.51355 0.25159
 O696 O 0.75088 0.48662 0.23233
 O697 O 0.76727 0.48656 0.24884
 O698 O 0.74778 0.51341 0.26827
 O699 O 0.74770 0.48656 0.26821
 O700 O 0.76734 0.51343 0.24893
 Cu701 Cu 0.73959 0.50009 0.24031
 Cu702 Cu 0.75916 0.49997 0.26023
 C703 C 0.76250 0.51810 0.23737
 C704 C 0.73622 0.48198 0.26315
 C705 C 0.73637 0.51814 0.26319
 C706 C 0.76235 0.48194 0.23729
 O707 O 0.25189 -0.01413 0.76745
 O708 O 0.23252 0.01282 0.74823
 O709 O 0.23244 -0.01404 0.74808
 O710 O 0.25193 0.01272 0.76757
 O711 O 0.26805 0.01306 0.75078
 O712 O 0.24908 -0.01427 0.73179
 O713 O 0.24864 0.01259 0.73143
 O714 O 0.26850 -0.01381 0.75114
 Cu715 Cu 0.24055 -0.00067 0.75949
 Cu716 Cu 0.26021 -0.00060 0.73963
 C717 C 0.26352 -0.01858 0.76261
 C718 C 0.23725 0.01733 0.73655
 C719 C 0.23750 -0.01882 0.73665
 C720 C 0.26325 0.01758 0.76242
 O721 O 0.24849 0.26730 0.98536
 O722 O 0.26758 0.24819 1.01294
 O723 O 0.26758 0.24822 0.98532
 O724 O 0.24851 0.26743 1.01287
 O725 O 0.23206 0.25138 1.01318
 O726 O 0.25091 0.23239 0.98530
 O727 O 0.25112 0.23216 1.01281
 O728 O 0.23171 0.25158 0.98560
 Cu729 Cu 0.25972 0.25936 0.99912
 Cu730 Cu 0.23977 0.24029 0.99922
 C731 C 0.23684 0.26272 0.98073
 C732 C 0.26262 0.23692 1.01762
 C733 C 0.26246 0.23708 0.98051
 C734 C 0.23707 0.26265 1.01781
 O735 O 0.26684 0.74722 0.51289
 O736 O 0.24797 0.76681 0.48556
 O737 O 0.24809 0.76663 0.51310
 O738 O 0.26669 0.74737 0.48533
 O739 O 0.24986 0.73170 0.48536
 O740 O 0.23114 0.75109 0.51310
 O741 O 0.23103 0.75125 0.48557
 O742 O 0.25000 0.73156 0.51292
 Cu743 Cu 0.25909 0.75856 0.49922
 Cu744 Cu 0.23881 0.73983 0.49924
 C745 C 0.26164 0.73608 0.51764
 C746 C 0.23630 0.76238 0.48085
 C747 C 0.23645 0.76216 0.51788
 C748 C 0.26145 0.73628 0.48054
 O749 O 0.25190 0.76867 0.01501
 O750 O 0.23329 0.74953 -0.01286
 O751 O 0.23294 0.74923 0.01466
 O752 O 0.25212 0.76886 -0.01255
 O753 O 0.26899 0.75324 -0.01246
 O754 O 0.24981 0.73360 0.01475
 O755 O 0.25004 0.73378 -0.01277
 O756 O 0.26866 0.75293 0.01512
 Cu757 Cu 0.24089 0.76065 0.00108
 Cu758 Cu 0.26108 0.74183 0.00115
 C759 C 0.26342 0.76403 0.01991
 C760 C 0.23849 0.73841 -0.01762
 C761 C 0.23812 0.73807 0.01939
 C762 C 0.26380 0.76437 -0.01723
 O763 O 0.26826 0.25424 0.48656
 O764 O 0.25029 0.23434 0.51439
 O765 O 0.24995 0.23429 0.48675
 O766 O 0.26855 0.25432 0.51400
 O767 O 0.25117 0.26940 0.51421
 O768 O 0.23258 0.24937 0.48699
 O769 O 0.23290 0.24942 0.51445
 O770 O 0.25087 0.26931 0.48660
 Cu771 Cu 0.26098 0.24276 0.50041
 Cu772 Cu 0.24015 0.26090 0.50058
 C773 C 0.26263 0.26516 0.48179
 C774 C 0.23854 0.23850 0.51922
 C775 C 0.23811 0.23843 0.48216
 C776 C 0.26302 0.26528 0.51880
 O777 O 0.74980 0.76726 0.98589
 O778 O 0.76880 0.74749 1.01312
 O779 O 0.76856 0.74788 0.98556
 O780 O 0.74997 0.76708 1.01345
 O781 O 0.73314 0.75141 1.01353
 O782 O 0.75171 0.73222 0.98563
 O783 O 0.75184 0.73195 1.01316
 O784 O 0.73285 0.75171 0.98599
 Cu785 Cu 0.76098 0.75899 0.99954
 Cu786 Cu 0.74069 0.74026 0.99957
 C787 C 0.73810 0.76282 0.98122
 C788 C 0.76354 0.73635 1.01784
 C789 C 0.76328 0.73681 0.98076
 C790 C 0.73840 0.76251 1.01831
 O791 O 0.74937 0.26614 0.48547
 O792 O 0.76754 0.24646 0.51328
 O793 O 0.76763 0.24616 0.48584
 O794 O 0.74913 0.26631 0.51311
 O795 O 0.73180 0.25117 0.51308
 O796 O 0.75026 0.23105 0.48582
 O797 O 0.75021 0.23132 0.51343
 O798 O 0.73201 0.25103 0.48562
 Cu799 Cu 0.76013 0.25781 0.49942
 Cu800 Cu 0.73935 0.23961 0.49950
 C801 C 0.73761 0.26194 0.48075
 C802 C 0.76198 0.23554 0.51814
 C803 C 0.76209 0.23517 0.48113
 C804 C 0.73732 0.26216 0.51780
 O805 O 0.76872 0.25247 -0.01451
 O806 O 0.74957 0.23295 0.01288
 O807 O 0.75004 0.23289 -0.01470
 O808 O 0.76841 0.25251 0.01299
 O809 O 0.75152 0.26811 0.01264
 O810 O 0.73290 0.24823 -0.01470
 O811 O 0.73279 0.24868 0.01282
 O812 O 0.75159 0.26782 -0.01495
 Cu813 Cu 0.76088 0.24114 -0.00080
 Cu814 Cu 0.74051 0.25977 -0.00109
 C815 C 0.76336 0.26344 -0.01950
 C816 C 0.73795 0.23755 0.01762
 C817 C 0.73833 0.23721 -0.01946
 C818 C 0.76310 0.26366 0.01757
 O819 O 0.73251 0.74874 0.48604
 O820 O 0.75052 0.76834 0.51400
 O821 O 0.75069 0.76878 0.48638
 O822 O 0.73232 0.74833 0.51351
 O823 O 0.74976 0.73332 0.51347
 O824 O 0.76813 0.75377 0.48633
 O825 O 0.76796 0.75332 0.51377
 O826 O 0.74995 0.73372 0.48583
 Cu827 Cu 0.73978 0.76007 0.49999
 Cu828 Cu 0.76068 0.74200 0.49983
 C829 C 0.73817 0.73790 0.48111
 C830 C 0.76231 0.76416 0.51871
 C831 C 0.76254 0.76476 0.48168
 C832 C 0.73793 0.73736 0.51819
 O833 O 1.01396 0.23403 0.25149
 O834 O 0.98583 0.25295 0.23302
 O835 O 1.01327 0.25329 0.23247
 O836 O 0.98651 0.23361 0.25212
 O837 O 0.98653 0.24944 0.26883
 O838 O 1.01335 0.26911 0.24919
 O839 O 0.98588 0.26867 0.24983
 O840 O 1.01401 0.24975 0.26830
 Cu841 Cu 0.99987 0.24189 0.24060
 Cu842 Cu 0.99997 0.26082 0.26072
 C843 C 1.01884 0.23868 0.26304
 C844 C 0.98099 0.26402 0.23829
 C845 C 1.01794 0.26453 0.23748
 C846 C 0.98187 0.23820 0.26381
 O847 O 0.51364 0.26775 0.74918
 O848 O 0.48641 0.24774 0.76788
 O849 O 0.51379 0.24805 0.76778
 O850 O 0.48610 0.26756 0.74926
 O851 O 0.48599 0.25203 0.73226
 O852 O 0.51410 0.23287 0.75045
 O853 O 0.48663 0.23233 0.75076
 O854 O 0.51346 0.25259 0.73184
 Cu855 Cu 0.49996 0.25933 0.76023
 Cu856 Cu 0.50007 0.24093 0.73960
 C857 C 0.51825 0.26357 0.73733
 C858 C 0.48187 0.23659 0.76252
 C859 C 0.51875 0.23716 0.76224
 C860 C 0.48121 0.26306 0.73766
 O861 O -0.01376 0.23245 0.74802
 O862 O 0.01386 0.25231 0.76614
 O863 O -0.01351 0.25241 0.76626
 O864 O 0.01379 0.23234 0.74785
 O865 O 0.01369 0.24738 0.73036
 O866 O -0.01357 0.26752 0.74883
 O867 O 0.01398 0.26736 0.74866
 O868 O -0.01372 0.24752 0.73056
 Cu869 Cu 0.00010 0.24084 0.75880
 Cu870 Cu 0.00010 0.25897 0.73787
 C871 C -0.01853 0.23662 0.73623
 C872 C 0.01869 0.26321 0.76049
 C873 C -0.01826 0.26338 0.76068
 C874 C 0.01846 0.23644 0.73598
 O875 O 0.48630 0.23135 0.24908
 O876 O 0.51331 0.25113 0.26834
 O877 O 0.48582 0.25075 0.26800
 O878 O 0.51378 0.23166 0.24948
 O879 O 0.51349 0.24703 0.23231
 O880 O 0.48621 0.26666 0.25134
 O881 O 0.51367 0.26649 0.25116
 O882 O 0.48606 0.24725 0.23242
 Cu883 Cu 0.49980 0.23966 0.26043
 Cu884 Cu 0.49986 0.25843 0.24012
 C885 C 0.48147 0.23599 0.23750
 C886 C 0.51822 0.26213 0.26296
 C887 C 0.48124 0.26198 0.26286
 C888 C 0.51840 0.23605 0.23771
 O889 O 1.01371 0.76765 0.74945
 O890 O 0.98662 0.74750 0.76824
 O891 O 1.01402 0.74812 0.76817
 O892 O 0.98619 0.76717 0.74954
 O893 O 0.98665 0.75190 0.73230
 O894 O 1.01412 0.73245 0.75130
 O895 O 0.98667 0.73224 0.75098
 O896 O 1.01409 0.75208 0.73249
 Cu897 Cu 1.00009 0.75917 0.76055
 Cu898 Cu 1.00041 0.74062 0.74005
 C899 C 1.01862 0.76324 0.73781
 C900 C 0.98196 0.73644 0.76278
 C901 C 1.01884 0.73703 0.76295
 C902 C 0.98164 0.76282 0.73774
 O903 O 0.48643 0.75340 0.23246
 O904 O 0.51407 0.73375 0.25094
 O905 O 0.48660 0.73370 0.25124
 O906 O 0.51386 0.75320 0.23213
 O907 O 0.51410 0.76877 0.24909
 O908 O 0.48670 0.74931 0.26817
 O909 O 0.51417 0.74921 0.26801
 O910 O 0.48665 0.76889 0.24950
 Cu911 Cu 0.50020 0.74195 0.23999
 Cu912 Cu 0.50044 0.76059 0.26040
 C913 C 0.48180 0.76451 0.23783
 C914 C 0.51888 0.73815 0.26262
 C915 C 0.48193 0.73819 0.26295
 C916 C 0.51869 0.76429 0.23734
 O917 O -0.01403 0.76776 0.25143
 O918 O 0.01289 0.74788 0.23210
 O919 O -0.01460 0.74834 0.23255
 O920 O 0.01343 0.76749 0.25078
 O921 O 0.01318 0.75223 0.26806
 O922 O -0.01415 0.73247 0.24924
 O923 O 0.01333 0.73262 0.24938
 O924 O -0.01429 0.75189 0.26812
 Cu925 Cu -0.00059 0.75942 0.24001
 Cu926 Cu -0.00047 0.74074 0.26040
 C927 C -0.01888 0.76313 0.26302
 C928 C 0.01784 0.73693 0.23754
 C929 C -0.01918 0.73714 0.23775
 C930 C 0.01809 0.76317 0.26255
 O931 O 0.51317 0.75165 0.76718
 O932 O 0.48621 0.73191 0.74787
 O933 O 0.51368 0.73221 0.74832
 O934 O 0.48574 0.75147 0.76671
 O935 O 0.48602 0.76716 0.74984
 O936 O 0.51357 0.74761 0.73116
 O937 O 0.48614 0.74769 0.73107
 O938 O 0.51353 0.76707 0.75004
 Cu939 Cu 0.49967 0.74024 0.75922
 Cu940 Cu 0.49984 0.75895 0.73883
 C941 C 0.51805 0.76269 0.76185
 C942 C 0.48149 0.73648 0.73621
 C943 C 0.51841 0.73661 0.73658
 C944 C 0.48109 0.76261 0.76143
 C945 C 0.40195 0.31129 0.31043
 C946 C 0.40122 0.32575 0.31070
 C947 C 0.38978 0.33242 0.31703
 C948 C 0.37874 0.32479 0.32313
 C949 C 0.37948 0.31032 0.32282
 C950 C 0.39097 0.30366 0.31661
 C951 C 0.41402 0.30418 0.30369
 N952 N 0.41615 0.29049 0.30575
 N953 N 0.42691 0.28404 0.29960
 C954 C 0.43597 0.29100 0.29107
 N955 N 0.43385 0.30469 0.28900
 N956 N 0.42312 0.31115 0.29521
 C957 C 0.44780 0.28373 0.28406
 C958 C 0.45532 0.29003 0.27299
 C959 C 0.46621 0.28299 0.26613
 C960 C 0.46992 0.26957 0.27029
 C961 C 0.46253 0.26336 0.28148
 C962 C 0.45156 0.27033 0.28824
 H963 H 0.40955 0.33194 0.30612
 H964 H 0.38968 0.34357 0.31728
 H965 H 0.37105 0.30411 0.32717
 H966 H 0.39113 0.29251 0.31649
 H967 H 0.45268 0.30033 0.26949
 H968 H 0.47172 0.28807 0.25756
 H969 H 0.46512 0.25302 0.28492
 H970 H 0.44603 0.26520 0.29676
 C971 C 0.40195 0.81193 0.80935
 C972 C 0.39924 0.80994 0.82378
 C973 C 0.38781 0.81638 0.83033
 C974 C 0.37859 0.82503 0.82263
 C975 C 0.38149 0.82701 0.80811
 C976 C 0.39297 0.82059 0.80161
 C977 C 0.41398 0.80493 0.80240
 N978 N 0.41760 0.80799 0.78886
 N979 N 0.42832 0.80159 0.78257
 C980 C 0.43587 0.79183 0.78954
 N981 N 0.43226 0.78879 0.80309
 N982 N 0.42157 0.79521 0.80938
 C983 C 0.44765 0.78454 0.78247
 C984 C 0.45422 0.77322 0.78901
 C985 C 0.46511 0.76615 0.78221
 C986 C 0.46976 0.77029 0.76875
 C987 C 0.46331 0.78170 0.76228
 C988 C 0.45236 0.78872 0.76904
 H989 H 0.40606 0.80347 0.83012
 H990 H 0.38666 0.81487 0.84159
 H991 H 0.37461 0.83301 0.80141
 H992 H 0.39466 0.82225 0.79042
 H993 H 0.45085 0.76971 0.79934
 H994 H 0.46987 0.75742 0.78750
 H995 H 0.46664 0.78514 0.75191
 H996 H 0.44758 0.79741 0.76372
 C997 C -0.09719 0.31311 0.80846
 C998 C -0.09996 0.31102 0.82286
 C999 C -0.11150 0.31732 0.82936
 C1000 C -0.12075 0.32593 0.82166
 C1001 C -0.11776 0.32803 0.80716
 C1002 C -0.10618 0.32174 0.80071
 C1003 C -0.08508 0.30619 0.80154
 N1004 N -0.08156 0.30913 0.78794
 N1005 N -0.07082 0.30274 0.78168
 C1006 C -0.06315 0.29313 0.78873
 N1007 N -0.06665 0.29022 0.80233
 N1008 N -0.07737 0.29663 0.80860
 C1009 C -0.05139 0.28578 0.78168
 C1010 C -0.04464 0.27469 0.78842
 C1011 C -0.03383 0.26749 0.78164
 C1012 C -0.02944 0.27127 0.76799
 C1013 C -0.03603 0.28249 0.76132
 C1014 C -0.04691 0.28964 0.76807
 H1015 H -0.09314 0.30457 0.82921
 H1016 H -0.11272 0.31574 0.84061
 H1017 H -0.12465 0.33402 0.80046
 H1018 H -0.10443 0.32348 0.78954
 H1019 H -0.04781 0.27143 0.79890
 H1020 H -0.02895 0.25892 0.78709
 H1021 H -0.03290 0.28565 0.75080
 H1022 H -0.05184 0.29816 0.76258
 C1023 C -0.09780 0.81233 0.31126
 C1024 C -0.09861 0.82679 0.31149
 C1025 C -0.11003 0.83341 0.31788
 C1026 C -0.12099 0.82573 0.32408
 C1027 C -0.12017 0.81127 0.32382
 C1028 C -0.10869 0.80466 0.31755
 C1029 C -0.08575 0.80527 0.30444
 N1030 N -0.08352 0.79160 0.30653
 N1031 N -0.07279 0.78519 0.30030
 C1032 C -0.06385 0.79216 0.29165
 N1033 N -0.06607 0.80583 0.28955
 N1034 N -0.07677 0.81226 0.29584
 C1035 C -0.05207 0.78492 0.28454
 C1036 C -0.04470 0.79119 0.27336
 C1037 C -0.03387 0.78415 0.26639
 C1038 C -0.03009 0.77076 0.27056
 C1039 C -0.03731 0.76458 0.28188
 C1040 C -0.04822 0.77155 0.28874
 H1041 H -0.09035 0.83301 0.30683
 H1042 H -0.11021 0.84456 0.31809
 H1043 H -0.12853 0.80503 0.32825
 H1044 H -0.10845 0.79351 0.31747
 H1045 H -0.04742 0.80147 0.26984
 H1046 H -0.02848 0.78920 0.25773
 H1047 H -0.03467 0.75426 0.28533
 H1048 H -0.05363 0.76644 0.29735
 C1049 C 0.59821 0.68879 0.31006
 C1050 C 0.60847 0.68210 0.30184
 C1051 C 0.62004 0.67575 0.30823
 C1052 C 0.62159 0.67584 0.32300
 C1053 C 0.61127 0.68245 0.33123
 C1054 C 0.59975 0.68890 0.32483
 C1055 C 0.58608 0.69574 0.30323
 N1056 N 0.57757 0.70430 0.31071
 N1057 N 0.56681 0.71071 0.30450
 C1058 C 0.56408 0.70878 0.29055
 N1059 N 0.57255 0.70016 0.28309
 N1060 N 0.58333 0.69380 0.28929
 C1061 C 0.55226 0.71606 0.28356
 C1062 C 0.54807 0.71245 0.26980
 C1063 C 0.53712 0.71949 0.26309
 C1064 C 0.53017 0.73040 0.26992
 C1065 C 0.53429 0.73398 0.28370
 C1066 C 0.54517 0.72685 0.29047
 H1067 H 0.60767 0.68190 0.29043
 H1068 H 0.62791 0.67098 0.30155
 H1069 H 0.61203 0.68254 0.34265
 H1070 H 0.59199 0.69389 0.33149
 H1071 H 0.55327 0.70416 0.26419
 H1072 H 0.53421 0.71649 0.25246
 H1073 H 0.52912 0.74231 0.28926
 H1074 H 0.54813 0.72992 0.30105
 C1075 C 0.59817 0.18808 0.80981
 C1076 C 0.59961 0.18816 0.82459
 C1077 C 0.61108 0.18169 0.83105
 C1078 C 0.62143 0.17506 0.82287
 C1079 C 0.61998 0.17501 0.80809
 C1080 C 0.60847 0.18139 0.80164
 C1081 C 0.58607 0.19503 0.80292
 N1082 N 0.58345 0.19317 0.78894
 N1083 N 0.57268 0.19952 0.78270
 C1084 C 0.56409 0.20803 0.79016
 N1085 N 0.56671 0.20987 0.80415
 N1086 N 0.57745 0.20349 0.81040
 C1087 C 0.55227 0.21527 0.78314
 C1088 C 0.54499 0.22589 0.79012
 C1089 C 0.53408 0.23296 0.78336
 C1090 C 0.53012 0.22949 0.76951
 C1091 C 0.53726 0.21876 0.76259
 C1092 C 0.54825 0.21177 0.76931
 H1093 H 0.59182 0.19315 0.83120
 H1094 H 0.61176 0.18174 0.84247
 H1095 H 0.62788 0.17022 0.80145
 H1096 H 0.60774 0.18121 0.79022
 H1097 H 0.54783 0.22887 0.80077
 H1098 H 0.52876 0.24116 0.78899
 H1099 H 0.53447 0.21585 0.75191
 H1100 H 0.55359 0.20361 0.76364
 C1101 C 1.09785 0.68869 0.81191
 C1102 C 1.10849 0.69658 0.81829
 C1103 C 1.12001 0.69020 0.82471
 C1104 C 1.12111 0.67576 0.82507
 C1105 C 1.11040 0.66786 0.81876
 C1106 C 1.09893 0.67426 0.81220
 C1107 C 1.08577 0.69556 0.80492
 N1108 N 1.07708 0.68848 0.79615
 N1109 N 1.06638 0.69477 0.78971
 C1110 C 1.06389 0.70840 0.79184
 N1111 N 1.07255 0.71545 0.80067
 N1112 N 1.08327 0.70918 0.80704
 C1113 C 1.05212 0.71552 0.78461
 C1114 C 1.04800 0.72878 0.78888
 C1115 C 1.03709 0.73566 0.78194
 C1116 C 1.03013 0.72950 0.77048
 C1117 C 1.03420 0.71622 0.76622
 C1118 C 1.04503 0.70926 0.77326
 H1119 H 1.10806 0.70773 0.81814
 H1120 H 1.12819 0.69663 0.82918
 H1121 H 1.11082 0.65672 0.81901
 H1122 H 1.09086 0.66788 0.80745
 H1123 H 1.05319 0.73388 0.79761
 H1124 H 1.03423 0.74590 0.78547
 H1125 H 1.02901 0.71119 0.75744
 H1126 H 1.04797 0.69907 0.76968
 C1127 C 1.09887 0.19029 0.31047
 C1128 C 1.10775 0.18157 0.30269
 C1129 C 1.11929 0.17516 0.30910
 C1130 C 1.12234 0.17721 0.32357
 C1131 C 1.11323 0.18596 0.33130
 C1132 C 1.10175 0.19239 0.32484
 C1133 C 1.08674 0.19722 0.30360
 N1134 N 1.07919 0.20696 0.31059
 N1135 N 1.06839 0.21329 0.30437
 C1136 C 1.06465 0.21012 0.29090
 N1137 N 1.07218 0.20034 0.28394
 N1138 N 1.08300 0.19404 0.29014
 C1139 C 1.05273 0.21726 0.28391
 C1140 C 1.04794 0.21296 0.27057
 C1141 C 1.03685 0.21982 0.26388
 C1142 C 1.03034 0.23120 0.27032
 C1143 C 1.03506 0.23547 0.28369
 C1144 C 1.04610 0.22856 0.29042
 H1145 H 1.10594 0.17984 0.29154
 H1146 H 1.12608 0.16910 0.30237
 H1147 H 1.11451 0.18754 0.34253
 H1148 H 1.09502 0.19892 0.33121
 H1149 H 1.05277 0.20428 0.26526
 H1150 H 1.03347 0.21627 0.25358
 H1151 H 1.03026 0.24418 0.28895
 H1152 H 1.04952 0.23216 0.30069
 C1153 C 0.59787 0.31229 0.68961
 C1154 C 0.59913 0.31247 0.67481
 C1155 C 0.61071 0.31874 0.66832
 C1156 C 0.62137 0.32489 0.67647
 C1157 C 0.62010 0.32469 0.69128
 C1158 C 0.60846 0.31852 0.69776
 C1159 C 0.58565 0.30554 0.69650
 N1160 N 0.58315 0.30725 0.71053
 N1161 N 0.57227 0.30105 0.71676
 C1162 C 0.56345 0.29284 0.70924
 N1163 N 0.56594 0.29114 0.69521
 N1164 N 0.57678 0.29738 0.68897
 C1165 C 0.55155 0.28568 0.71626
 C1166 C 0.54417 0.27516 0.70924
 C1167 C 0.53328 0.26807 0.71603
 C1168 C 0.52944 0.27141 0.72996
 C1169 C 0.53664 0.28209 0.73689
 C1170 C 0.54761 0.28910 0.73014
 H1171 H 0.59111 0.30786 0.66820
 H1172 H 0.61123 0.31891 0.65689
 H1173 H 0.62822 0.32912 0.69789
 H1174 H 0.60788 0.31848 0.70919
 H1175 H 0.54694 0.27224 0.69855
 H1176 H 0.52791 0.25991 0.71039
 H1177 H 0.53394 0.28490 0.74763
 H1178 H 0.55303 0.29719 0.73584
 C1179 C 0.59727 0.81312 0.18795
 C1180 C 0.60647 0.80554 0.17935
 C1181 C 0.61809 0.81182 0.17301
 C1182 C 0.62092 0.82600 0.17494
 C1183 C 0.61147 0.83357 0.18352
 C1184 C 0.59988 0.82721 0.18993
 C1185 C 0.58515 0.80626 0.19492
 N1186 N 0.57756 0.81280 0.20508
 N1187 N 0.56688 0.80647 0.21153
 C1188 C 0.56332 0.79334 0.20807
 N1189 N 0.57087 0.78684 0.19786
 N1190 N 0.58156 0.79315 0.19145
 C1191 C 0.55162 0.78614 0.21539
 C1192 C 0.54693 0.77324 0.21056
 C1193 C 0.53615 0.76625 0.21760
 C1194 C 0.52985 0.77194 0.22970
 C1195 C 0.53445 0.78488 0.23449
 C1196 C 0.54519 0.79192 0.22739
 H1197 H 0.60488 0.79461 0.17773
 H1198 H 0.62515 0.80521 0.16715
 H1199 H 0.61259 0.84455 0.18500
 H1200 H 0.59288 0.83340 0.19636
 H1201 H 0.55161 0.76849 0.20133
 H1202 H 0.53286 0.75630 0.21363
 H1203 H 0.52979 0.78955 0.24377
 H1204 H 0.54856 0.80183 0.23140
 C1205 C 1.09629 0.31334 0.18775
 C1206 C 1.10543 0.30574 0.17912
 C1207 C 1.11711 0.31196 0.17282
 C1208 C 1.12006 0.32611 0.17484
 C1209 C 1.11067 0.33370 0.18346
 C1210 C 1.09902 0.32740 0.18983
 C1211 C 1.08413 0.30653 0.19469
 N1212 N 1.07657 0.31308 0.20487
 N1213 N 1.06587 0.30678 0.21131
 C1214 C 1.06224 0.29368 0.20782
 N1215 N 1.06975 0.28717 0.19759
 N1216 N 1.08047 0.29345 0.19118
 C1217 C 1.05056 0.28649 0.21517
 C1218 C 1.04589 0.27355 0.21041
 C1219 C 1.03518 0.26654 0.21755
 C1220 C 1.02893 0.27225 0.22967
 C1221 C 1.03348 0.28524 0.23436
 C1222 C 1.04415 0.29230 0.22717
 H1223 H 1.10375 0.29483 0.17742
 H1224 H 1.12411 0.30532 0.16693
 H1225 H 1.11189 0.34466 0.18502
 H1226 H 1.09208 0.33361 0.19630
 H1227 H 1.05055 0.26879 0.20119
 H1228 H 1.03192 0.25655 0.21365
 H1229 H 1.02885 0.28993 0.24365
 H1230 H 1.04749 0.30223 0.23113
 C1231 C 1.09798 0.81242 0.69007
 C1232 C 1.10074 0.81039 0.67566
 C1233 C 1.11233 0.81664 0.66918
 C1234 C 1.12165 0.82513 0.67692
 C1235 C 1.11869 0.82715 0.69143
 C1236 C 1.10706 0.82092 0.69785
 C1237 C 1.08581 0.80558 0.69696
 N1238 N 1.08219 0.80863 0.71049
 N1239 N 1.07137 0.80232 0.71673
 C1240 C 1.06373 0.79268 0.70971
 N1241 N 1.06734 0.78965 0.69617
 N1242 N 1.07813 0.79598 0.68992
 C1243 C 1.05189 0.78542 0.71674
 C1244 C 1.04529 0.77417 0.71015
 C1245 C 1.03442 0.76705 0.71694
 C1246 C 1.02984 0.77107 0.73045
 C1247 C 1.03629 0.78244 0.73696
 C1248 C 1.04722 0.78951 0.73021
 H1249 H 1.09386 0.80404 0.66928
 H1250 H 1.11352 0.81513 0.65793
 H1251 H 1.12563 0.83304 0.69816
 H1252 H 1.10532 0.82261 0.70903
 H1253 H 1.04862 0.77073 0.69980
 H1254 H 1.02965 0.75835 0.71162
 H1255 H 1.03300 0.78579 0.74737
 H1256 H 1.05204 0.79816 0.73557
 C1257 C 0.40304 0.68724 0.68741
 C1258 C 0.40197 0.67279 0.68734
 C1259 C 0.39047 0.66630 0.68094
 C1260 C 0.37972 0.67411 0.67457
 C1261 C 0.38081 0.68855 0.67470
 C1262 C 0.39235 0.69503 0.68096
 C1263 C 0.41511 0.69422 0.69426
 N1264 N 0.41754 0.70782 0.69199
 N1265 N 0.42823 0.71421 0.69829
 C1266 C 0.43693 0.70728 0.70719
 N1267 N 0.43453 0.69366 0.70945
 N1268 N 0.42386 0.68725 0.70310
 C1269 C 0.44863 0.71453 0.71440
 C1270 C 0.45577 0.70836 0.72577
 C1271 C 0.46648 0.71545 0.73284
 C1272 C 0.47038 0.72880 0.72859
 C1273 C 0.46338 0.73487 0.71708
 C1274 C 0.45260 0.72784 0.71011
 H1275 H 0.41007 0.66649 0.69215
 H1276 H 0.39007 0.65515 0.68087
 H1277 H 0.37260 0.69491 0.67017
 H1278 H 0.39277 0.70617 0.68093
 H1279 H 0.45295 0.69813 0.72936
 H1280 H 0.47170 0.71049 0.74165
 H1281 H 0.46612 0.74514 0.71355
 H1282 H 0.44736 0.73288 0.70135
 C1283 C 0.40263 0.18735 0.18856
 C1284 C 0.39985 0.17331 0.19077
 C1285 C 0.38825 0.16698 0.18438
 C1286 C 0.37896 0.17452 0.17560
 C1287 C 0.38195 0.18864 0.17345
 C1288 C 0.39358 0.19490 0.17978
 C1289 C 0.41478 0.19418 0.19548
 N1290 N 0.41843 0.20725 0.19192
 N1291 N 0.42916 0.21353 0.19827
 C1292 C 0.43669 0.20703 0.20849
 N1293 N 0.43307 0.19393 0.21204
 N1294 N 0.42235 0.18763 0.20565
 C1295 C 0.44844 0.21421 0.21573
 C1296 C 0.45498 0.20835 0.22763
 C1297 C 0.46577 0.21537 0.23467
 C1298 C 0.47029 0.22835 0.22990
 C1299 C 0.46388 0.23412 0.21790
 C1300 C 0.45306 0.22715 0.21093
 H1301 H 0.40672 0.16714 0.19735
 H1302 H 0.38699 0.15604 0.18605
 H1303 H 0.37502 0.19524 0.16743
 H1304 H 0.39530 0.20579 0.17798
 H1305 H 0.45168 0.19840 0.23162
 H1306 H 0.47052 0.21064 0.24387
 H1307 H 0.46711 0.24411 0.21396
 H1308 H 0.44829 0.23196 0.20177
 C1309 C -0.09924 0.68858 0.19082
 C1310 C -0.11000 0.69632 0.18443
 C1311 C -0.12144 0.68979 0.17801
 C1312 C -0.12233 0.67533 0.17770
 C1313 C -0.11156 0.66758 0.18410
 C1314 C -0.10018 0.67413 0.19064
 C1315 C -0.08713 0.69557 0.19760
 N1316 N -0.07815 0.68852 0.20613
 N1317 N -0.06732 0.69487 0.21227
 C1318 C -0.06497 0.70851 0.21007
 N1319 N -0.07392 0.71553 0.20150
 N1320 N -0.08477 0.70921 0.19542
 C1321 C -0.05300 0.71564 0.21696
 C1322 C -0.04906 0.72895 0.21263
 C1323 C -0.03795 0.73582 0.21925
 C1324 C -0.03060 0.72960 0.23045
 C1325 C -0.03447 0.71626 0.23474
 C1326 C -0.04551 0.70932 0.22802
 H1327 H -0.10968 0.70747 0.18448
 H1328 H -0.12967 0.69608 0.17344
 H1329 H -0.11181 0.65643 0.18387
 H1330 H -0.09203 0.66786 0.19539
 H1331 H -0.05456 0.73409 0.20410
 H1332 H -0.03525 0.74610 0.21571
 H1333 H -0.02899 0.71118 0.24332
 H1334 H -0.04828 0.69909 0.23163
 C1335 C -0.09863 0.18746 0.69003
 C1336 C -0.10916 0.18128 0.69836
 C1337 C -0.12079 0.17497 0.69205
 C1338 C -0.12212 0.17457 0.67725
 C1339 C -0.11152 0.18065 0.66893
 C1340 C -0.09995 0.18707 0.67525
 C1341 C -0.08642 0.19436 0.69674
 N1342 N -0.07764 0.20247 0.68902
 N1343 N -0.06678 0.20883 0.69508
 C1344 C -0.06419 0.20729 0.70911
 N1345 N -0.07293 0.19912 0.71681
 N1346 N -0.08382 0.19281 0.71076
 C1347 C -0.05224 0.21453 0.71591
 C1348 C -0.04815 0.21121 0.72977
 C1349 C -0.03706 0.21823 0.73629
 C1350 C -0.02991 0.22883 0.72913
 C1351 C -0.03393 0.23210 0.71524
 C1352 C -0.04493 0.22498 0.70868
 H1353 H -0.10852 0.18148 0.70978
 H1354 H -0.12886 0.17059 0.69878
 H1355 H -0.11209 0.18033 0.65751
 H1356 H -0.09198 0.19164 0.66852
 H1357 H -0.05351 0.20318 0.73562
 H1358 H -0.03423 0.21549 0.74701
 H1359 H -0.02860 0.24019 0.70944
 H1360 H -0.04782 0.22782 0.69800
 C1361 C 0.31284 0.40435 0.30920
 C1362 C 0.31337 0.40329 0.32401
 C1363 C 0.31950 0.39181 0.33047
 C1364 C 0.32514 0.38105 0.32229
 C1365 C 0.32464 0.38215 0.30748
 C1366 C 0.31862 0.39368 0.30102
 C1367 C 0.30613 0.41639 0.30232
 N1368 N 0.30779 0.41871 0.28826
 N1369 N 0.30157 0.42939 0.28202
 C1370 C 0.29336 0.43819 0.28955
 N1371 N 0.29170 0.43589 0.30362
 N1372 N 0.29798 0.42524 0.30988
 C1373 C 0.28613 0.44985 0.28249
 C1374 C 0.27535 0.45712 0.28943
 C1375 C 0.26817 0.46776 0.28255
 C1376 C 0.27171 0.47147 0.26864
 C1377 C 0.28267 0.46438 0.26180
 C1378 C 0.28975 0.45365 0.26862
 H1379 H 0.30910 0.41138 0.33063
 H1380 H 0.31993 0.39142 0.34190
 H1381 H 0.32865 0.37396 0.30084
 H1382 H 0.31830 0.39411 0.28959
 H1383 H 0.27228 0.45444 0.30011
 H1384 H 0.25979 0.47305 0.28812
 H1385 H 0.28564 0.46697 0.25107
 H1386 H 0.29805 0.44831 0.26299
 C1387 C 0.31234 -0.09618 0.81180
 C1388 C 0.30458 -0.10491 0.82069
 C1389 C 0.31085 -0.11640 0.82695
 C1390 C 0.32521 -0.11957 0.82460
 C1391 C 0.33297 -0.11059 0.81573
 C1392 C 0.32662 -0.09913 0.80943
 C1393 C 0.30549 -0.08419 0.80492
 N1394 N 0.31227 -0.07683 0.79477
 N1395 N 0.30595 -0.06626 0.78839
 C1396 C 0.29259 -0.06258 0.79192
 N1397 N 0.28585 -0.06991 0.80212
 N1398 N 0.29215 -0.08049 0.80846
 C1399 C 0.28540 -0.05102 0.78465
 C1400 C 0.27211 -0.04647 0.78929
 C1401 C 0.26512 -0.03583 0.78224
 C1402 C 0.27120 -0.02953 0.77033
 C1403 C 0.28453 -0.03397 0.76575
 C1404 C 0.29157 -0.04457 0.77286
 H1405 H 0.29350 -0.10304 0.82264
 H1406 H 0.30408 -0.12307 0.83307
 H1407 H 0.34412 -0.11200 0.81392
 H1408 H 0.33297 -0.09251 0.80276
 H1409 H 0.26706 -0.05116 0.79836
 H1410 H 0.25486 -0.03266 0.78604
 H1411 H 0.28951 -0.02931 0.75663
 H1412 H 0.30178 -0.04782 0.76899
 C1413 C 0.81230 0.40415 0.81094
 C1414 C 0.80453 0.39525 0.81965
 C1415 C 0.81087 0.38376 0.82585
 C1416 C 0.82529 0.38077 0.82363
 C1417 C 0.83304 0.38991 0.81495
 C1418 C 0.82663 0.40137 0.80870
 C1419 C 0.80538 0.41612 0.80410
 N1420 N 0.81217 0.42361 0.79405
 N1421 N 0.80579 0.43417 0.78771
 C1422 C 0.79238 0.43771 0.79118
 N1423 N 0.78564 0.43026 0.80129
 N1424 N 0.79199 0.41969 0.80760
 C1425 C 0.78513 0.44925 0.78395
 C1426 C 0.77182 0.45372 0.78859
 C1427 C 0.76477 0.46434 0.78158
 C1428 C 0.77082 0.47071 0.76969
 C1429 C 0.78418 0.46635 0.76510
 C1430 C 0.79128 0.45576 0.77218
 H1431 H 0.79341 0.39698 0.82149
 H1432 H 0.80410 0.37695 0.83183
 H1433 H 0.84423 0.38864 0.81325
 H1434 H 0.83298 0.40812 0.80217
 H1435 H 0.76679 0.44898 0.79765
 H1436 H 0.75449 0.46745 0.78539
 H1437 H 0.78914 0.47106 0.75599
 H1438 H 0.80151 0.45258 0.76830
 C1439 C 0.81291 -0.09529 0.31010
 C1440 C 0.82111 -0.10460 0.30230
 C1441 C 0.82722 -0.11606 0.30881
 C1442 C 0.82539 -0.11860 0.32342
 C1443 C 0.81724 -0.10903 0.33118
 C1444 C 0.81109 -0.09762 0.32462
 C1445 C 0.80615 -0.08334 0.30308
 N1446 N 0.79658 -0.07547 0.31006
 N1447 N 0.79029 -0.06491 0.30365
 C1448 C 0.79333 -0.06174 0.29000
 N1449 N 0.80295 -0.06957 0.28305
 N1450 N 0.80921 -0.08015 0.28944
 C1451 C 0.78612 -0.05017 0.28276
 C1452 C 0.79039 -0.04596 0.26920
 C1453 C 0.78337 -0.03529 0.26222
 C1454 C 0.77186 -0.02864 0.26860
 C1455 C 0.76765 -0.03276 0.28220
 C1456 C 0.77473 -0.04338 0.28922
 H1457 H 0.82262 -0.10320 0.29105
 H1458 H 0.83281 -0.12318 0.30206
 H1459 H 0.81590 -0.10994 0.34249
 H1460 H 0.80498 -0.09054 0.33100
 H1461 H 0.79915 -0.05093 0.26393
 H1462 H 0.78687 -0.03236 0.25174
 H1463 H 0.75884 -0.02783 0.28742
 H1464 H 0.77114 -0.04636 0.29965
 C1465 C 0.31089 0.59729 0.68982
 C1466 C 0.31725 0.60771 0.69791
 C1467 C 0.32346 0.61910 0.69137
 C1468 C 0.32357 0.62031 0.67656
 C1469 C 0.31728 0.60984 0.66846
 C1470 C 0.31096 0.59850 0.67502
 C1471 C 0.30417 0.58530 0.69680
 N1472 N 0.29570 0.57663 0.68942
 N1473 N 0.28951 0.56596 0.69576
 C1474 C 0.29158 0.56349 0.70974
 N1475 N 0.30010 0.57213 0.71710
 N1476 N 0.30624 0.58282 0.71077
 C1477 C 0.28452 0.55178 0.71689
 C1478 C 0.28851 0.54786 0.73062
 C1479 C 0.28164 0.53705 0.73753
 C1480 C 0.27053 0.52999 0.73092
 C1481 C 0.26661 0.53382 0.71715
 C1482 C 0.27358 0.54455 0.71018
 H1483 H 0.31729 0.60716 0.70934
 H1484 H 0.32798 0.62708 0.69794
 H1485 H 0.31737 0.61033 0.65703
 H1486 H 0.30624 0.59062 0.66846
 H1487 H 0.29694 0.55316 0.73607
 H1488 H 0.28490 0.53436 0.74814
 H1489 H 0.25811 0.52855 0.71176
 H1490 H 0.27023 0.54732 0.69962
 C1491 C 0.31011 1.09833 0.18994
 C1492 C 0.30787 1.10117 0.17558
 C1493 C 0.31423 1.11256 0.16914
 C1494 C 0.32303 1.12157 0.17687
 C1495 C 0.32519 1.11857 0.19134
 C1496 C 0.31887 1.10714 0.19772
 C1497 C 0.30329 1.08631 0.19680
 N1498 N 0.30674 1.08261 0.21020
 N1499 N 0.30053 1.07191 0.21644
 C1500 C 0.29057 1.06445 0.20955
 N1501 N 0.28713 1.06813 0.19613
 N1502 N 0.29337 1.07882 0.18989
 C1503 C 0.28347 1.05270 0.21661
 C1504 C 0.27186 1.04616 0.21028
 C1505 C 0.26491 1.03536 0.21717
 C1506 C 0.26947 1.03079 0.23050
 C1507 C 0.28121 1.03718 0.23673
 C1508 C 0.28810 1.04802 0.22989
 H1509 H 0.30131 1.09450 0.16921
 H1510 H 0.31256 1.11383 0.15792
 H1511 H 0.33126 1.12529 0.19809
 H1512 H 0.32070 1.10536 0.20886
 H1513 H 0.26800 1.04950 0.20007
 H1514 H 0.25591 1.03065 0.21207
 H1515 H 0.28498 1.03391 0.24699
 H1516 H 0.29703 1.05277 0.23506
 C1517 C 0.81110 0.59628 0.18883
 C1518 C 0.82529 0.59942 0.19146
 C1519 C 0.83165 0.61087 0.18513
 C1520 C 0.82400 0.61964 0.17597
 C1521 C 0.80972 0.61631 0.17341
 C1522 C 0.80343 0.60484 0.17970
 C1523 C 0.80426 0.58427 0.19568
 N1524 N 0.79104 0.58038 0.19192
 N1525 N 0.78477 0.56972 0.19818
 C1526 C 0.79143 0.56251 0.20850
 N1527 N 0.80467 0.56637 0.21225
 N1528 N 0.81095 0.57701 0.20596
 C1529 C 0.78428 0.55084 0.21566
 C1530 C 0.79034 0.54449 0.22755
 C1531 C 0.78334 0.53378 0.23454
 C1532 C 0.77016 0.52914 0.22975
 C1533 C 0.76420 0.53535 0.21775
 C1534 C 0.77115 0.54609 0.21081
 H1535 H 0.83157 0.59295 0.19833
 H1536 H 0.84275 0.61240 0.18713
 H1537 H 0.80302 0.62284 0.16706
 H1538 H 0.79241 0.60283 0.17756
 H1539 H 0.80043 0.54789 0.23158
 H1540 H 0.78823 0.52919 0.24375
 H1541 H 0.75406 0.53203 0.21378
 H1542 H 0.76619 0.55071 0.20166
 C1543 C 0.81081 1.09583 0.68937
 C1544 C 0.82555 1.09719 0.68918
 C1545 C 0.83190 1.10856 0.68269
 C1546 C 0.82365 1.11888 0.67634
 C1547 C 0.80890 1.11751 0.67658
 C1548 C 0.80257 1.10610 0.68294
 C1549 C 0.80399 1.08386 0.69628
 N1550 N 0.79012 1.08119 0.69413
 N1551 N 0.78388 1.07056 0.70045
 C1552 C 0.79122 1.06216 0.70925
 N1553 N 0.80511 1.06481 0.71141
 N1554 N 0.81138 1.07542 0.70503
 C1555 C 0.78413 1.05050 0.71645
 C1556 C 0.79067 1.04355 0.72771
 C1557 C 0.78371 1.03284 0.73475
 C1558 C 0.77013 1.02878 0.73057
 C1559 C 0.76370 1.03559 0.71917
 C1560 C 0.77059 1.04636 0.71224
 H1561 H 0.83221 1.08942 0.69396
 H1562 H 0.84329 1.10920 0.68252
 H1563 H 0.80220 1.12539 0.67206
 H1564 H 0.79119 1.10544 0.68300
 H1565 H 0.80109 1.04651 0.73124
 H1566 H 0.78896 1.02777 0.74348
 H1567 H 0.75323 1.03272 0.71570
 H1568 H 0.76526 1.05144 0.70356
 C1569 C 0.68806 0.59671 0.31106
 C1570 C 0.68802 0.59820 0.32583
 C1571 C 0.68180 0.60973 0.33214
 C1572 C 0.67560 0.62009 0.32380
 C1573 C 0.67568 0.61857 0.30903
 C1574 C 0.68176 0.60700 0.30274
 C1575 C 0.69477 0.58461 0.30429
 N1576 N 0.69263 0.58191 0.29038
 N1577 N 0.69882 0.57118 0.28419
 C1578 C 0.70746 0.56271 0.29163
 N1579 N 0.70959 0.56539 0.30556
 N1580 N 0.70335 0.57610 0.31177
 C1581 C 0.71458 0.55098 0.28460
 C1582 C 0.72566 0.54393 0.29131
 C1583 C 0.73269 0.53320 0.28441
 C1584 C 0.72870 0.52921 0.27071
 C1585 C 0.71747 0.53610 0.26411
 C1586 C 0.71054 0.54690 0.27095
 H1587 H 0.69270 0.59042 0.33255
 H1588 H 0.68175 0.61047 0.34355
 H1589 H 0.67126 0.62647 0.30227
 H1590 H 0.68171 0.60625 0.29133
 H1591 H 0.72906 0.54684 0.30181
 H1592 H 0.74128 0.52807 0.28979
 H1593 H 0.71415 0.53328 0.25356
 H1594 H 0.70201 0.55206 0.26549
 C1595 C 0.68688 1.09532 0.81181
 C1596 C 0.68906 1.09823 0.82616
 C1597 C 0.68295 1.10983 0.83241
 C1598 C 0.67448 1.11900 0.82448
 C1599 C 0.67229 1.11585 0.81005
 C1600 C 0.67835 1.10422 0.80387
 C1601 C 0.69365 1.08323 0.80506
 N1602 N 0.69031 1.07956 0.79163
 N1603 N 0.69661 1.06891 0.78542
 C1604 C 0.70657 1.06148 0.79236
 N1605 N 0.70988 1.06511 0.80581
 N1606 N 0.70355 1.07575 0.81204
 C1607 C 0.71386 1.04988 0.78527
 C1608 C 0.72551 1.04345 0.79165
 C1609 C 0.73269 1.03284 0.78472
 C1610 C 0.72833 1.02836 0.77130
 C1611 C 0.71655 1.03464 0.76502
 C1612 C 0.70942 1.04529 0.77190
 H1613 H 0.69544 1.09148 0.83265
 H1614 H 0.68459 1.11121 0.84362
 H1615 H 0.66646 1.12265 0.80315
 H1616 H 0.67656 1.10238 0.79273
 H1617 H 0.72922 1.04672 0.80193
 H1618 H 0.74170 1.02820 0.78987
 H1619 H 0.71293 1.03143 0.75468
 H1620 H 0.70047 1.04998 0.76670
 C1621 C 0.18944 0.59858 0.81183
 C1622 C 0.19165 0.60146 0.82618
 C1623 C 0.18542 0.61296 0.83250
 C1624 C 0.17679 0.62205 0.82464
 C1625 C 0.17468 0.61901 0.81018
 C1626 C 0.18087 0.60747 0.80393
 C1627 C 0.19612 0.58643 0.80510
 N1628 N 0.19269 0.58273 0.79170
 N1629 N 0.19878 0.57192 0.78557
 C1630 C 0.20858 0.56434 0.79257
 N1631 N 0.21200 0.56803 0.80598
 N1632 N 0.20588 0.57883 0.81212
 C1633 C 0.21556 0.55248 0.78560
 C1634 C 0.22703 0.54581 0.79204
 C1635 C 0.23388 0.53493 0.78524
 C1636 C 0.22936 0.53041 0.77188
 C1637 C 0.21775 0.53693 0.76555
 C1638 C 0.21095 0.54786 0.77231
 H1639 H 0.19808 0.59473 0.83264
 H1640 H 0.18704 0.61428 0.84372
 H1641 H 0.16874 0.62578 0.80335
 H1642 H 0.17908 0.60566 0.79278
 H1643 H 0.23086 0.54910 0.80227
 H1644 H 0.24278 0.53010 0.79041
 H1645 H 0.21400 0.53372 0.75527
 H1646 H 0.20212 0.55272 0.76707
 C1647 C 0.18785 1.09784 0.31266
 C1648 C 0.19577 1.10657 0.32137
 C1649 C 0.18966 1.11816 0.32757
 C1650 C 0.17530 1.12143 0.32535
 C1651 C 0.16740 1.11246 0.31664
 C1652 C 0.17359 1.10090 0.31039
 C1653 C 0.19454 1.08573 0.30585
 N1654 N 0.18766 1.07841 0.29576
 N1655 N 0.19384 1.06772 0.28946
 C1656 C 0.20715 1.06389 0.29301
 N1657 N 0.21398 1.07117 0.30316
 N1658 N 0.20782 1.08186 0.30942
 C1659 C 0.21420 1.05220 0.28582
 C1660 C 0.22736 1.04744 0.29057
 C1661 C 0.23426 1.03672 0.28358
 C1662 C 0.22820 1.03053 0.27162
 C1663 C 0.21498 1.03518 0.26694
 C1664 C 0.20803 1.04587 0.27398
 H1665 H 0.20685 1.10462 0.32322
 H1666 H 0.19655 1.12482 0.33355
 H1667 H 0.15624 1.11396 0.31494
 H1668 H 0.16713 1.09428 0.30386
 H1669 H 0.23240 1.05204 0.29967
 H1670 H 0.24443 1.03339 0.28746
 H1671 H 0.21002 1.03061 0.25777
 H1672 H 0.19792 1.04928 0.27003
 C1673 C 0.68871 0.40348 0.68722
 C1674 C 0.67396 0.40219 0.68706
 C1675 C 0.66757 0.39079 0.68070
 C1676 C 0.67578 0.38037 0.67447
 C1677 C 0.69053 0.38169 0.67466
 C1678 C 0.69691 0.39313 0.68089
 C1679 C 0.69558 0.41545 0.69407
 N1680 N 0.70950 0.41799 0.69201
 N1681 N 0.71577 0.42860 0.69831
 C1682 C 0.70840 0.43709 0.70700
 N1683 N 0.69447 0.43456 0.70906
 N1684 N 0.68818 0.42398 0.70270
 C1685 C 0.71552 0.44870 0.71422
 C1686 C 0.70886 0.45576 0.72535
 C1687 C 0.71580 0.46641 0.73243
 C1688 C 0.72950 0.47033 0.72845
 C1689 C 0.73606 0.46342 0.71719
 C1690 C 0.72918 0.45269 0.71020
 H1691 H 0.66734 0.41002 0.69177
 H1692 H 0.65618 0.39020 0.68057
 H1693 H 0.69719 0.37374 0.67023
 H1694 H 0.70830 0.39374 0.68092
 H1695 H 0.69835 0.45292 0.72873
 H1696 H 0.71045 0.47157 0.74105
 H1697 H 0.74662 0.46618 0.71387
 H1698 H 0.73459 0.44752 0.70164
 C1699 C 0.68924 -0.09697 0.18888
 C1700 C 0.68927 -0.09853 0.17411
 C1701 C 0.68300 -0.11002 0.16783
 C1702 C 0.67664 -0.12029 0.17617
 C1703 C 0.67663 -0.11873 0.19094
 C1704 C 0.68280 -0.10718 0.19721
 C1705 C 0.69599 -0.08485 0.19556
 N1706 N 0.69393 -0.08208 0.20948
 N1707 N 0.70011 -0.07128 0.21554
 C1708 C 0.70866 -0.06282 0.20796
 N1709 N 0.71071 -0.06558 0.19404
 N1710 N 0.70448 -0.07635 0.18796
 C1711 C 0.71578 -0.05099 0.21481
 C1712 C 0.72671 -0.04392 0.20785
 C1713 C 0.73375 -0.03308 0.21453
 C1714 C 0.72993 -0.02899 0.22825
 C1715 C 0.71885 -0.03589 0.23510
 C1716 C 0.71190 -0.04681 0.22848
 H1717 H 0.69406 -0.09081 0.16737
 H1718 H 0.68299 -0.11078 0.15642
 H1719 H 0.67205 -0.12654 0.19769
 H1720 H 0.68268 -0.10636 0.20862
 H1721 H 0.72998 -0.04688 0.19732
 H1722 H 0.74223 -0.02794 0.20896
 H1723 H 0.71567 -0.03300 0.24568
 H1724 H 0.70349 -0.05199 0.23412
 C1725 C 0.18898 0.40254 0.18918
 C1726 C 0.18252 0.39230 0.19747
 C1727 C 0.17629 0.38082 0.19114
 C1728 C 0.17625 0.37935 0.17636
 C1729 C 0.18263 0.38964 0.16807
 C1730 C 0.18897 0.40107 0.17441
 C1731 C 0.19575 0.41462 0.19593
 N1732 N 0.20418 0.42319 0.18834
 N1733 N 0.21041 0.43394 0.19445
 C1734 C 0.20843 0.43661 0.20840
 N1735 N 0.19995 0.42807 0.21597
 N1736 N 0.19377 0.41729 0.20987
 C1737 C 0.21551 0.44845 0.21527
 C1738 C 0.21170 0.45253 0.22900
 C1739 C 0.21859 0.46349 0.23561
 C1740 C 0.22953 0.47055 0.22869
 C1741 C 0.23328 0.46655 0.21493
 C1742 C 0.22631 0.45566 0.20827
 H1743 H 0.18243 0.39305 0.20888
 H1744 H 0.17169 0.37298 0.19785
 H1745 H 0.18259 0.38895 0.15665
 H1746 H 0.19377 0.40881 0.16771
 H1747 H 0.20339 0.44724 0.23468
 H1748 H 0.21546 0.46631 0.24623
 H1749 H 0.24165 0.47180 0.20931
 H1750 H 0.22952 0.45278 0.19769
 C1751 C 0.18909 -0.09681 0.68796
 C1752 C 0.17434 -0.09812 0.68790
 C1753 C 0.16791 -0.10951 0.68156
 C1754 C 0.17608 -0.11991 0.67524
 C1755 C 0.19083 -0.11857 0.67532
 C1756 C 0.19725 -0.10714 0.68153
 C1757 C 0.19598 -0.08485 0.69478
 N1758 N 0.20990 -0.08230 0.69268
 N1759 N 0.21619 -0.07169 0.69896
 C1760 C 0.20885 -0.06319 0.70766
 N1761 N 0.19493 -0.06572 0.70976
 N1762 N 0.18862 -0.07631 0.70343
 C1763 C 0.21598 -0.05156 0.71485
 C1764 C 0.20932 -0.04446 0.72594
 C1765 C 0.21627 -0.03379 0.73300
 C1766 C 0.22997 -0.02990 0.72902
 C1767 C 0.23654 -0.03685 0.71779
 C1768 C 0.22965 -0.04760 0.71083
 H1769 H 0.16775 -0.09030 0.69268
 H1770 H 0.15652 -0.11010 0.68151
 H1771 H 0.19747 -0.12649 0.67081
 H1772 H 0.20864 -0.10651 0.68148
 H1773 H 0.19880 -0.04727 0.72932
 H1774 H 0.21091 -0.02860 0.74159
 H1775 H 0.24710 -0.03412 0.71448
 H1776 H 0.23507 -0.05280 0.70230
 C1777 C 0.30992 0.31494 0.40240
 C1778 C 0.32468 0.31527 0.40126
 C1779 C 0.33118 0.32144 0.38961
 C1780 C 0.32307 0.32735 0.37875
 C1781 C 0.30830 0.32711 0.37995
 C1782 C 0.30181 0.32103 0.39166
 C1783 C 0.30303 0.30807 0.41458
 N1784 N 0.28899 0.30955 0.41694
 N1785 N 0.28276 0.30317 0.42773
 C1786 C 0.29029 0.29498 0.43660
 N1787 N 0.30434 0.29353 0.43425
 N1788 N 0.31057 0.29996 0.42350
 C1789 C 0.28331 0.28760 0.44840
 C1790 C 0.29043 0.27712 0.45575
 C1791 C 0.28373 0.26987 0.46661
 C1792 C 0.26980 0.27303 0.47047
 C1793 C 0.26274 0.28364 0.46326
 C1794 C 0.26939 0.29080 0.45230
 H1795 H 0.33125 0.31077 0.40940
 H1796 H 0.34257 0.32166 0.38915
 H1797 H 0.30173 0.33137 0.37169
 H1798 H 0.29041 0.32089 0.39216
 H1799 H 0.30114 0.27436 0.45301
 H1800 H 0.28947 0.26178 0.47199
 H1801 H 0.25199 0.28631 0.46597
 H1802 H 0.26362 0.29885 0.44689
 C1803 C 0.31159 0.81298 -0.09705
 C1804 C 0.32632 0.81289 -0.09861
 C1805 C 0.33268 0.81921 -0.11027
 C1806 C 0.32446 0.82568 -0.12070
 C1807 C 0.30973 0.82575 -0.11913
 C1808 C 0.30338 0.81954 -0.10742
 C1809 C 0.30478 0.80619 -0.08479
 N1810 N 0.29090 0.80824 -0.08200
 N1811 N 0.28471 0.80201 -0.07110
 C1812 C 0.29211 0.79341 -0.06255
 N1813 N 0.30600 0.79137 -0.06532
 N1814 N 0.31221 0.79766 -0.07619
 C1815 C 0.28508 0.78626 -0.05062
 C1816 C 0.29184 0.77541 -0.04348
 C1817 C 0.28498 0.76836 -0.03257
 C1818 C 0.27127 0.77208 -0.02847
 C1819 C 0.26461 0.78308 -0.03545
 C1820 C 0.27141 0.79005 -0.04643
 H1821 H 0.33296 0.80801 -0.09077
 H1822 H 0.34406 0.81915 -0.11104
 H1823 H 0.30306 0.83041 -0.12708
 H1824 H 0.29200 0.81971 -0.10662
 H1825 H 0.30236 0.77221 -0.04645
 H1826 H 0.29041 0.75995 -0.02737
 H1827 H 0.25404 0.78620 -0.03256
 H1828 H 0.26592 0.79839 -0.05166
 C1829 C 0.81144 0.31243 -0.09894
 C1830 C 0.82618 0.31248 -0.10031
 C1831 C 0.83264 0.31896 -0.11182
 C1832 C 0.82448 0.32545 -0.12229
 C1833 C 0.80973 0.32536 -0.12092
 C1834 C 0.80330 0.31899 -0.10936
 C1835 C 0.80454 0.30550 -0.08680
 N1836 N 0.79059 0.30736 -0.08421
 N1837 N 0.78432 0.30104 -0.07341
 C1838 C 0.79172 0.29253 -0.06476
 N1839 N 0.80567 0.29067 -0.06733
 N1840 N 0.81196 0.29704 -0.07811
 C1841 C 0.78463 0.28531 -0.05291
 C1842 C 0.79148 0.27462 -0.04560
 C1843 C 0.78461 0.26756 -0.03470
 C1844 C 0.77079 0.27111 -0.03080
 C1845 C 0.76403 0.28192 -0.03797
 C1846 C 0.77084 0.28890 -0.04893
 H1847 H 0.83277 0.30759 -0.09242
 H1848 H 0.84402 0.31901 -0.11244
 H1849 H 0.80312 0.33003 -0.12891
 H1850 H 0.79191 0.31906 -0.10870
 H1851 H 0.80209 0.27157 -0.04841
 H1852 H 0.79012 0.25929 -0.02936
 H1853 H 0.75337 0.28490 -0.03523
 H1854 H 0.76528 0.29712 -0.05430
 C1855 C 0.81032 0.81568 0.40339
 C1856 C 0.82509 0.81604 0.40230
 C1857 C 0.83160 0.82230 0.39070
 C1858 C 0.82351 0.82825 0.37985
 C1859 C 0.80874 0.82799 0.38102
 C1860 C 0.80223 0.82183 0.39267
 C1861 C 0.80340 0.80870 0.41548
 N1862 N 0.78935 0.81014 0.41779
 N1863 N 0.78308 0.80363 0.42848
 C1864 C 0.79057 0.79535 0.43727
 N1865 N 0.80463 0.79393 0.43498
 N1866 N 0.81091 0.80049 0.42433
 C1867 C 0.78352 0.78780 0.44892
 C1868 C 0.79060 0.77721 0.45617
 C1869 C 0.78380 0.76978 0.46684
 C1870 C 0.76983 0.77285 0.47061
 C1871 C 0.76282 0.78358 0.46353
 C1872 C 0.76957 0.79092 0.45276
 H1873 H 0.83164 0.81150 0.41042
 H1874 H 0.84300 0.82253 0.39026
 H1875 H 0.80218 0.83227 0.37276
 H1876 H 0.79083 0.82167 0.39313
 H1877 H 0.80133 0.77451 0.45347
 H1878 H 0.78950 0.76160 0.47213
 H1879 H 0.75205 0.78618 0.46617
 H1880 H 0.76384 0.79905 0.44743
 C1881 C 0.68952 0.31199 0.59672
 C1882 C 0.67477 0.31200 0.59810
 C1883 C 0.66831 0.31842 0.60963
 C1884 C 0.67645 0.32490 0.62011
 C1885 C 0.69120 0.32487 0.61871
 C1886 C 0.69765 0.31854 0.60714
 C1887 C 0.69641 0.30506 0.58460
 N1888 N 0.71038 0.30685 0.58203
 N1889 N 0.71663 0.30048 0.57127
 C1890 C 0.70921 0.29200 0.56263
 N1891 N 0.69524 0.29023 0.56518
 N1892 N 0.68896 0.29664 0.57591
 C1893 C 0.71626 0.28464 0.55086
 C1894 C 0.70930 0.27399 0.54364
 C1895 C 0.71611 0.26675 0.53286
 C1896 C 0.72999 0.27008 0.52896
 C1897 C 0.73687 0.28088 0.53602
 C1898 C 0.73011 0.28804 0.54689
 H1899 H 0.66819 0.30711 0.59023
 H1900 H 0.65692 0.31844 0.61027
 H1901 H 0.69781 0.32953 0.62671
 H1902 H 0.70904 0.31864 0.60647
 H1903 H 0.69864 0.27108 0.54644
 H1904 H 0.71050 0.25850 0.52760
 H1905 H 0.74758 0.28369 0.53327
 H1906 H 0.73576 0.29623 0.55219
 C1907 C 0.69091 0.81134 1.09808
 C1908 C 0.68424 0.80361 1.10871
 C1909 C 0.67781 0.81014 1.12016
 C1910 C 0.67775 0.82459 1.12121
 C1911 C 0.68443 0.83234 1.11057
 C1912 C 0.69098 0.82579 1.09916
 C1913 C 0.69774 0.80433 1.08597
 N1914 N 0.70652 0.81129 1.07714
 N1915 N 0.71274 0.80490 1.06635
 C1916 C 0.71037 0.79131 1.06389
 N1917 N 0.70155 0.78438 1.07269
 N1918 N 0.69539 0.79075 1.08351
 C1919 C 0.71736 0.78412 1.05199
 C1920 C 0.71296 0.77086 1.04795
 C1921 C 0.71968 0.76394 1.03690
 C1922 C 0.73104 0.77005 1.02972
 C1923 C 0.73541 0.78333 1.03370
 C1924 C 0.72859 0.79031 1.04467
 H1925 H 0.68410 0.79246 1.10828
 H1926 H 0.67303 0.80384 1.12830
 H1927 H 0.68442 0.84348 1.11095
 H1928 H 0.69597 0.83205 1.09111
 H1929 H 0.70431 0.76581 1.05332
 H1930 H 0.71607 0.75372 1.03410
 H1931 H 0.74411 0.78832 1.02834
 H1932 H 0.73226 0.80050 1.04753
 C1933 C 0.18971 0.31133 1.09775
 C1934 C 0.18305 0.30359 1.10838
 C1935 C 0.17674 0.31011 1.11991
 C1936 C 0.17679 0.32455 1.12103
 C1937 C 0.18346 0.33231 1.11040
 C1938 C 0.18989 0.32577 1.09891
 C1939 C 0.19643 0.30434 1.08557
 N1940 N 0.20511 0.31132 1.07667
 N1941 N 0.21125 0.30495 1.06582
 C1942 C 0.20891 0.29136 1.06337
 N1943 N 0.20018 0.28440 1.07224
 N1944 N 0.19409 0.29075 1.08311
 C1945 C 0.21587 0.28419 1.05144
 C1946 C 0.21163 0.27085 1.04751
 C1947 C 0.21837 0.26395 1.03646
 C1948 C 0.22960 0.27017 1.02917
 C1949 C 0.23379 0.28353 1.03302
 C1950 C 0.22695 0.29049 1.04399
 H1951 H 0.18283 0.29245 1.10789
 H1952 H 0.17196 0.30379 1.12804
 H1953 H 0.18353 0.34345 1.11084
 H1954 H 0.19487 0.33204 1.09087
 H1955 H 0.20309 0.26571 1.05298
 H1956 H 0.21491 0.25366 1.03376
 H1957 H 0.24238 0.28862 1.02758
 H1958 H 0.23050 0.30074 1.04676
 C1959 C 0.18902 0.81171 0.59724
 C1960 C 0.19724 0.81824 0.60760
 C1961 C 0.19089 0.82467 0.61917
 C1962 C 0.17614 0.82484 0.62060
 C1963 C 0.16791 0.81841 0.61017
 C1964 C 0.17427 0.81188 0.59865
 C1965 C 0.19582 0.80468 0.58512
 N1966 N 0.18832 0.79619 0.57656
 N1967 N 0.19453 0.78971 0.56582
 C1968 C 0.20848 0.79150 0.56315
 N1969 N 0.21595 0.80005 0.57168
 N1970 N 0.20976 0.80648 0.58244
 C1971 C 0.21546 0.78417 0.55133
 C1972 C 0.22920 0.78778 0.54717
 C1973 C 0.23592 0.78073 0.53621
 C1974 C 0.22912 0.76984 0.52922
 C1975 C 0.21536 0.76626 0.53333
 C1976 C 0.20858 0.77339 0.54422
 H1977 H 0.20863 0.81823 0.60691
 H1978 H 0.19756 0.82929 0.62713
 H1979 H 0.15652 0.81853 0.61083
 H1980 H 0.16763 0.80703 0.59080
 H1981 H 0.23479 0.79606 0.55238
 H1982 H 0.24653 0.78373 0.53331
 H1983 H 0.20983 0.75793 0.52813
 H1984 H 0.19801 0.77033 0.54718
 C1985 C 0.30972 0.68737 0.59713
 C1986 C 0.31646 0.69520 0.60761
 C1987 C 0.32291 0.68878 0.61911
 C1988 C 0.32293 0.67435 0.62036
 C1989 C 0.31619 0.66650 0.60986
 C1990 C 0.30960 0.67295 0.59840
 C1991 C 0.30285 0.69429 0.58498
 N1992 N 0.29395 0.68731 0.57633
 N1993 N 0.28767 0.69364 0.56553
 C1994 C 0.29011 0.70719 0.56289
 N1995 N 0.29906 0.71414 0.57151
 N1996 N 0.30527 0.70783 0.58233
 C1997 C 0.28304 0.71435 0.55101
 C1998 C 0.28748 0.72755 0.54683
 C1999 C 0.28066 0.73449 0.53587
 C2000 C 0.26915 0.72845 0.52890
 C2001 C 0.26475 0.71521 0.53300
 C2002 C 0.27167 0.70820 0.54389
 H2003 H 0.31663 0.70634 0.60703
 H2004 H 0.32773 0.69516 0.62714
 H2005 H 0.31615 0.65536 0.61040
 H2006 H 0.30456 0.66661 0.59047
 H2007 H 0.29624 0.73256 0.55203
 H2008 H 0.28429 0.74469 0.53298
 H2009 H 0.25593 0.71027 0.52781
 H2010 H 0.26797 0.69805 0.54687
 C2011 C 0.31021 0.18854 1.09762
 C2012 C 0.31007 0.17411 1.09890
 C2013 C 0.31643 0.16766 1.11048
 C2014 C 0.32298 0.17551 1.12110
 C2015 C 0.32299 0.18994 1.11985
 C2016 C 0.31676 0.19637 1.10823
 C2017 C 0.30352 0.19544 1.08536
 N2018 N 0.30585 0.20902 1.08280
 N2019 N 0.29976 0.21530 1.07188
 C2020 C 0.29104 0.20829 1.06308
 N2021 N 0.28872 0.19470 1.06563
 N2022 N 0.29486 0.18840 1.07652
 C2023 C 0.28405 0.21540 1.05113
 C2024 C 0.27292 0.20908 1.04379
 C2025 C 0.26602 0.21602 1.03284
 C2026 C 0.27019 0.22938 1.02890
 C2027 C 0.28147 0.23560 1.03607
 C2028 C 0.28828 0.22872 1.04709
 H2029 H 0.30518 0.16777 1.09088
 H2030 H 0.31639 0.15652 1.11102
 H2031 H 0.32767 0.19632 1.12797
 H2032 H 0.31694 0.20751 1.10765
 H2033 H 0.26938 0.19885 1.04664
 H2034 H 0.25738 0.21093 1.02750
 H2035 H 0.28492 0.24589 1.03330
 H2036 H 0.29685 0.23387 1.05247
 C2037 C 0.81135 0.68614 1.09652
 C2038 C 0.80311 0.67959 1.10689
 C2039 C 0.80943 0.67329 1.11854
 C2040 C 0.82416 0.67326 1.12007
 C2041 C 0.83242 0.67966 1.10961
 C2042 C 0.82608 0.68608 1.09800
 C2043 C 0.80456 0.69315 1.08439
 N2044 N 0.81201 0.70178 1.07590
 N2045 N 0.80579 0.70831 1.06520
 C2046 C 0.79186 0.70644 1.06251
 N2047 N 0.78444 0.69776 1.07096
 N2048 N 0.79064 0.69127 1.08168
 C2049 C 0.78482 0.71388 1.05078
 C2050 C 0.77109 0.71026 1.04664
 C2051 C 0.76428 0.71745 1.03583
 C2052 C 0.77099 0.72850 1.02897
 C2053 C 0.78475 0.73207 1.03304
 C2054 C 0.79162 0.72480 1.04378
 H2055 H 0.79173 0.67953 1.10614
 H2056 H 0.80272 0.66870 1.12652
 H2057 H 0.84380 0.67965 1.11034
 H2058 H 0.83274 0.69094 1.09015
 H2059 H 0.76556 0.70187 1.05177
 H2060 H 0.75368 0.71444 1.03296
 H2061 H 0.79022 0.74052 1.02793
 H2062 H 0.80218 0.72787 1.04673
 C2063 C 0.80959 0.18637 0.59764
 C2064 C 0.82434 0.18638 0.59898
 C2065 C 0.83081 0.18007 0.61057
 C2066 C 0.82269 0.17369 0.62114
 C2067 C 0.80794 0.17368 0.61978
 C2068 C 0.80147 0.17989 0.60814
 C2069 C 0.80269 0.19322 0.58547
 N2070 N 0.78872 0.19144 0.58296
 N2071 N 0.78246 0.19775 0.57215
 C2072 C 0.78990 0.20615 0.56341
 N2073 N 0.80388 0.20790 0.56590
 N2074 N 0.81014 0.20155 0.57668
 C2075 C 0.78287 0.21341 0.55157
 C2076 C 0.78987 0.22398 0.54421
 C2077 C 0.78310 0.23111 0.53333
 C2078 C 0.76923 0.22777 0.52946
 C2079 C 0.76229 0.21707 0.53668
 C2080 C 0.76901 0.21002 0.54765
 H2081 H 0.83091 0.19121 0.59103
 H2082 H 0.84220 0.18009 0.61117
 H2083 H 0.80134 0.16908 0.62784
 H2084 H 0.79008 0.17977 0.60750
 H2085 H 0.80053 0.22688 0.54697
 H2086 H 0.78875 0.23928 0.52795
 H2087 H 0.75159 0.21426 0.53396
 H2088 H 0.76333 0.20190 0.55306
 C2089 C 0.69121 0.68889 0.40118
 C2090 C 0.69934 0.68256 0.39060
 C2091 C 0.69286 0.67628 0.37901
 C2092 C 0.67810 0.67608 0.37779
 C2093 C 0.66998 0.68230 0.38845
 C2094 C 0.67646 0.68868 0.39998
 C2095 C 0.69808 0.69578 0.41334
 N2096 N 0.69052 0.70395 0.42219
 N2097 N 0.69672 0.71030 0.43300
 C2098 C 0.71072 0.70871 0.43545
 N2099 N 0.71827 0.70050 0.42663
 N2100 N 0.71208 0.69419 0.41579
 C2101 C 0.71765 0.71595 0.44736
 C2102 C 0.73152 0.71265 0.45131
 C2103 C 0.73812 0.71964 0.46239
 C2104 C 0.73104 0.73018 0.46968
 C2105 C 0.71715 0.73344 0.46578
 C2106 C 0.71051 0.72636 0.45479
 H2107 H 0.71073 0.68261 0.39114
 H2108 H 0.69944 0.67177 0.37089
 H2109 H 0.65859 0.68213 0.38797
 H2110 H 0.66988 0.69337 0.40799
 H2111 H 0.73731 0.70465 0.44585
 H2112 H 0.74883 0.71691 0.46512
 H2113 H 0.71140 0.74149 0.47121
 H2114 H 0.69983 0.72919 0.45202
 C2115 C 0.69071 0.18768 -0.09865
 C2116 C 0.69879 0.18110 -0.10911
 C2117 C 0.69227 0.17478 -0.12065
 C2118 C 0.67752 0.17480 -0.12195
 C2119 C 0.66944 0.18126 -0.11140
 C2120 C 0.67596 0.18767 -0.09992
 C2121 C 0.69763 0.19464 -0.08656
 N2122 N 0.69018 0.20308 -0.07789
 N2123 N 0.69644 0.20951 -0.06716
 C2124 C 0.71040 0.20772 -0.06462
 N2125 N 0.71784 0.19923 -0.07325
 N2126 N 0.71159 0.19285 -0.08401
 C2127 C 0.71742 0.21504 -0.05282
 C2128 C 0.73121 0.21154 -0.04876
 C2129 C 0.73792 0.21861 -0.03780
 C2130 C 0.73104 0.22942 -0.03074
 C2131 C 0.71723 0.23288 -0.03474
 C2132 C 0.71048 0.22573 -0.04561
 H2133 H 0.71018 0.18099 -0.10850
 H2134 H 0.69882 0.17009 -0.12868
 H2135 H 0.65805 0.18126 -0.11194
 H2136 H 0.66941 0.19256 -0.09200
 H2137 H 0.73684 0.20333 -0.05404
 H2138 H 0.74857 0.21571 -0.03498
 H2139 H 0.71164 0.24114 -0.02949
 H2140 H 0.69986 0.22871 -0.04848
 C2141 C 0.19053 0.68960 -0.09702
 C2142 C 0.18392 0.69736 -0.10767
 C2143 C 0.17750 0.69085 -0.11912
 C2144 C 0.17737 0.67640 -0.12016
 C2145 C 0.18396 0.66863 -0.10949
 C2146 C 0.19051 0.67516 -0.09808
 C2147 C 0.19741 0.69660 -0.08495
 N2148 N 0.20618 0.68962 -0.07615
 N2149 N 0.21247 0.69600 -0.06541
 C2150 C 0.21019 0.70962 -0.06298
 N2151 N 0.20138 0.71657 -0.07175
 N2152 N 0.19514 0.71020 -0.08251
 C2153 C 0.21727 0.71681 -0.05115
 C2154 C 0.21295 0.73009 -0.04712
 C2155 C 0.21974 0.73701 -0.03613
 C2156 C 0.23109 0.73087 -0.02899
 C2157 C 0.23539 0.71757 -0.03296
 C2158 C 0.22850 0.71058 -0.04387
 H2159 H 0.18385 0.70851 -0.10726
 H2160 H 0.17280 0.69717 -0.12728
 H2161 H 0.18389 0.65748 -0.10986
 H2162 H 0.19543 0.66888 -0.09002
 H2163 H 0.20430 0.73517 -0.05246
 H2164 H 0.21618 0.74726 -0.03334
 H2165 H 0.24408 0.71255 -0.02763
 H2166 H 0.23211 0.70038 -0.04673
 C2167 C 0.19012 0.18907 0.40312
 C2168 C 0.19821 0.18249 0.39268
 C2169 C 0.19173 0.17628 0.38106
 C2170 C 0.17698 0.17641 0.37966
 C2171 C 0.16888 0.18290 0.39016
 C2172 C 0.17537 0.18920 0.40173
 C2173 C 0.19704 0.19590 0.41528
 N2174 N 0.18963 0.20430 0.42402
 N2175 N 0.19592 0.21064 0.43478
 C2176 C 0.20989 0.20882 0.43728
 N2177 N 0.21728 0.20036 0.42859
 N2178 N 0.21100 0.19405 0.41780
 C2179 C 0.21697 0.21610 0.44907
 C2180 C 0.23083 0.21270 0.45296
 C2181 C 0.23762 0.21980 0.46384
 C2182 C 0.23075 0.23055 0.47100
 C2183 C 0.21685 0.23389 0.46719
 C2184 C 0.21002 0.22671 0.45640
 H2185 H 0.20959 0.18228 0.39336
 H2186 H 0.19831 0.17160 0.37305
 H2187 H 0.15749 0.18300 0.38952
 H2188 H 0.16881 0.19411 0.40963
 H2189 H 0.23648 0.20455 0.44757
 H2190 H 0.24834 0.21699 0.46651
 H2191 H 0.21125 0.24209 0.47253
 H2192 H 0.19935 0.22961 0.45367
 C2193 C 0.31063 0.40397 0.69087
 C2194 C 0.30243 0.39389 0.68410
 C2195 C 0.30878 0.38247 0.67780
 C2196 C 0.32350 0.38089 0.67797
 C2197 C 0.33171 0.39099 0.68471
 C2198 C 0.32534 0.40237 0.69113
 C2199 C 0.30380 0.41601 0.69763
 N2200 N 0.31116 0.42444 0.70638
 N2201 N 0.30493 0.43516 0.71258
 C2202 C 0.29109 0.43792 0.71024
 N2203 N 0.28377 0.42952 0.70144
 N2204 N 0.28998 0.41879 0.69529
 C2205 C 0.28405 0.44969 0.71727
 C2206 C 0.27047 0.45381 0.71309
 C2207 C 0.26365 0.46467 0.71991
 C2208 C 0.27018 0.47161 0.73116
 C2209 C 0.28379 0.46759 0.73528
 C2210 C 0.29068 0.45679 0.72837
 H2211 H 0.29106 0.39472 0.68380
 H2212 H 0.30211 0.37476 0.67295
 H2213 H 0.34309 0.39019 0.68488
 H2214 H 0.33197 0.40999 0.69619
 H2215 H 0.26508 0.44861 0.70454
 H2216 H 0.25315 0.46750 0.71649
 H2217 H 0.28912 0.47276 0.74389
 H2218 H 0.30112 0.45388 0.73186
 C2219 C 0.31068 0.90490 0.19048
 C2220 C 0.31043 0.90321 0.17573
 C2221 C 0.31686 0.89179 0.16944
 C2222 C 0.32359 0.88174 0.17775
 C2223 C 0.32379 0.88344 0.19251
 C2224 C 0.31748 0.89490 0.19878
 C2225 C 0.30382 0.91694 0.19722
 N2226 N 0.30613 0.91985 0.21105
 N2227 N 0.29987 0.93056 0.21719
 C2228 C 0.29098 0.93880 0.20978
 N2229 N 0.28866 0.93590 0.19593
 N2230 N 0.29497 0.92522 0.18977
 C2231 C 0.28381 0.95054 0.21676
 C2232 C 0.27260 0.95743 0.21009
 C2233 C 0.26556 0.96818 0.21693
 C2234 C 0.26966 0.97237 0.23053
 C2235 C 0.28101 0.96564 0.23709
 C2236 C 0.28797 0.95483 0.23031
 H2237 H 0.30535 0.91076 0.16902
 H2238 H 0.31669 0.89091 0.15803
 H2239 H 0.32864 0.87579 0.19926
 H2240 H 0.31777 0.89582 0.21018
 H2241 H 0.26912 0.95438 0.19966
 H2242 H 0.25686 0.97318 0.21159
 H2243 H 0.28442 0.96860 0.24758
 H2244 H 0.29660 0.94980 0.23573
 C2245 C 0.81061 0.40391 0.18841
 C2246 C 0.80240 0.39369 0.18191
 C2247 C 0.80874 0.38222 0.17567
 C2248 C 0.82348 0.38075 0.17564
 C2249 C 0.83171 0.39105 0.18204
 C2250 C 0.82535 0.40247 0.18841
 C2251 C 0.80378 0.41591 0.19526
 N2252 N 0.81114 0.42431 0.20403
 N2253 N 0.80487 0.43492 0.21039
 C2254 C 0.79100 0.43760 0.20818
 N2255 N 0.78367 0.42924 0.19934
 N2256 N 0.78992 0.41861 0.19304
 C2257 C 0.78390 0.44924 0.21539
 C2258 C 0.77034 0.45339 0.21123
 C2259 C 0.76345 0.46413 0.21822
 C2260 C 0.76991 0.47089 0.22962
 C2261 C 0.78352 0.46683 0.23374
 C2262 C 0.79047 0.45616 0.22665
 H2263 H 0.79101 0.39441 0.18181
 H2264 H 0.80205 0.37437 0.17110
 H2265 H 0.84309 0.39035 0.18203
 H2266 H 0.83198 0.41021 0.19325
 H2267 H 0.76499 0.44833 0.20257
 H2268 H 0.75297 0.46700 0.21480
 H2269 H 0.78879 0.47187 0.24246
 H2270 H 0.80090 0.45321 0.23014
 C2271 C 0.81246 0.90398 0.68988
 C2272 C 0.81261 0.90268 0.67509
 C2273 C 0.81887 0.89124 0.66867
 C2274 C 0.82502 0.88078 0.67690
 C2275 C 0.82487 0.88211 0.69169
 C2276 C 0.81873 0.89360 0.69810
 C2277 C 0.80563 0.91596 0.69676
 N2278 N 0.80756 0.91845 0.71074
 N2279 N 0.80122 0.92904 0.71702
 C2280 C 0.79263 0.93758 0.70959
 N2281 N 0.79072 0.93511 0.69560
 N2282 N 0.79711 0.92454 0.68930
 C2283 C 0.78531 0.94914 0.71671
 C2284 C 0.77432 0.95623 0.70990
 C2285 C 0.76709 0.96680 0.71683
 C2286 C 0.77078 0.97061 0.73067
 C2287 C 0.78192 0.96368 0.73738
 C2288 C 0.78906 0.95303 0.73050
 H2289 H 0.80795 0.91054 0.66844
 H2290 H 0.81899 0.89065 0.65724
 H2291 H 0.82925 0.87414 0.69837
 H2292 H 0.81871 0.89421 0.70952
 H2293 H 0.77114 0.95348 0.69929
 H2294 H 0.75857 0.97197 0.71136
 H2295 H 0.78501 0.96636 0.74804
 H2296 H 0.79751 0.94783 0.73603
 C2297 C 0.68755 0.59543 0.68787
 C2298 C 0.68124 0.60574 0.69614
 C2299 C 0.67510 0.61725 0.68980
 C2300 C 0.67496 0.61869 0.67501
 C2301 C 0.68115 0.60830 0.66672
 C2302 C 0.68743 0.59683 0.67308
 C2303 C 0.69435 0.58340 0.69469
 N2304 N 0.70294 0.57489 0.68722
 N2305 N 0.70929 0.56427 0.69348
 C2306 C 0.70726 0.56168 0.70745
 N2307 N 0.69860 0.57014 0.71488
 N2308 N 0.69231 0.58078 0.70864
 C2309 C 0.71451 0.55005 0.71453
 C2310 C 0.71059 0.54604 0.72826
 C2311 C 0.71765 0.53535 0.73514
 C2312 C 0.72889 0.52849 0.72851
 C2313 C 0.73275 0.53240 0.71474
 C2314 C 0.72559 0.54303 0.70780
 H2315 H 0.68125 0.60505 0.70756
 H2316 H 0.67068 0.62517 0.69653
 H2317 H 0.68105 0.60898 0.65531
 H2318 H 0.69211 0.58902 0.66640
 H2319 H 0.70206 0.55118 0.73374
 H2320 H 0.71443 0.53259 0.74576
 H2321 H 0.74134 0.52729 0.70934
 H2322 H 0.72889 0.54587 0.69724
 C2323 C 0.68960 0.09694 0.18716
 C2324 C 0.67485 0.09806 0.18677
 C2325 C 0.66841 0.10950 0.18052
 C2326 C 0.67659 0.12015 0.17463
 C2327 C 0.69135 0.11901 0.17505
 C2328 C 0.69777 0.10752 0.18117
 C2329 C 0.69647 0.08489 0.19386
 N2330 N 0.71041 0.08240 0.19182
 N2331 N 0.71666 0.07169 0.19797
 C2332 C 0.70927 0.06302 0.20647
 N2333 N 0.69532 0.06549 0.20851
 N2334 N 0.68905 0.07618 0.20230
 C2335 C 0.71635 0.05128 0.21353
 C2336 C 0.70974 0.04418 0.22467
 C2337 C 0.71669 0.03343 0.23163
 C2338 C 0.73032 0.02946 0.22750
 C2339 C 0.73682 0.03641 0.21621
 C2340 C 0.72994 0.04723 0.20935
 H2341 H 0.66825 0.09005 0.19120
 H2342 H 0.65702 0.10994 0.18018
 H2343 H 0.69798 0.12712 0.17087
 H2344 H 0.70917 0.10703 0.18139
 H2345 H 0.69929 0.04706 0.22817
 H2346 H 0.71139 0.02826 0.24028
 H2347 H 0.74733 0.03362 0.21278
 H2348 H 0.73531 0.05244 0.20077
 C2349 C 0.18751 0.59587 0.18731
 C2350 C 0.17276 0.59719 0.18726
 C2351 C 0.16634 0.60862 0.18094
 C2352 C 0.17453 0.61903 0.17464
 C2353 C 0.18928 0.61770 0.17477
 C2354 C 0.19568 0.60624 0.18095
 C2355 C 0.19442 0.58385 0.19403
 N2356 N 0.20828 0.58123 0.19168
 N2357 N 0.21462 0.57058 0.19785
 C2358 C 0.20740 0.56211 0.20670
 N2359 N 0.19352 0.56471 0.20905
 N2360 N 0.18716 0.57534 0.20282
 C2361 C 0.21462 0.55047 0.21378
 C2362 C 0.20827 0.54350 0.22515
 C2363 C 0.21540 0.53288 0.23214
 C2364 C 0.22898 0.52891 0.22780
 C2365 C 0.23520 0.53571 0.21627
 C2366 C 0.22814 0.54640 0.20938
 H2367 H 0.16617 0.58934 0.19200
 H2368 H 0.15495 0.60922 0.18087
 H2369 H 0.19593 0.62565 0.17031
 H2370 H 0.20707 0.60562 0.18091
 H2371 H 0.19787 0.54640 0.22882
 H2372 H 0.21031 0.52781 0.24098
 H2373 H 0.24565 0.53292 0.21267
 H2374 H 0.23332 0.55149 0.20062
 C2375 C 0.18860 0.09557 0.68839
 C2376 C 0.18866 0.09710 0.67362
 C2377 C 0.18239 0.10859 0.66728
 C2378 C 0.17603 0.11888 0.67558
 C2379 C 0.17601 0.11732 0.69036
 C2380 C 0.18215 0.10579 0.69667
 C2381 C 0.19535 0.08350 0.69519
 N2382 N 0.19317 0.08078 0.70910
 N2383 N 0.19939 0.07009 0.71532
 C2384 C 0.20812 0.06168 0.70792
 N2385 N 0.21029 0.06437 0.69399
 N2386 N 0.20401 0.07504 0.68775
 C2387 C 0.21529 0.04999 0.71500
 C2388 C 0.22639 0.04297 0.70830
 C2389 C 0.23347 0.03229 0.71524
 C2390 C 0.22951 0.02832 0.72897
 C2391 C 0.21825 0.03518 0.73556
 C2392 C 0.21126 0.04592 0.72868
 H2393 H 0.19346 0.08937 0.66692
 H2394 H 0.18242 0.10936 0.65587
 H2395 H 0.17147 0.12516 0.69710
 H2396 H 0.18202 0.10500 0.70809
 H2397 H 0.22977 0.04585 0.69778
 H2398 H 0.24209 0.02718 0.70987
 H2399 H 0.21495 0.03239 0.74614
 H2400 H 0.20272 0.05107 0.73412
 C2401 C 0.31110 0.59790 0.30786
 C2402 C 0.31112 0.59924 0.32265
 C2403 C 0.31728 0.61071 0.32907
 C2404 C 0.32347 0.62118 0.32087
 C2405 C 0.32344 0.61982 0.30607
 C2406 C 0.31738 0.60829 0.29965
 C2407 C 0.30445 0.58579 0.30104
 N2408 N 0.30645 0.58321 0.28707
 N2409 N 0.30036 0.57242 0.28091
 C2410 C 0.29195 0.56377 0.28843
 N2411 N 0.28996 0.56635 0.30240
 N2412 N 0.29610 0.57711 0.30858
 C2413 C 0.28492 0.55193 0.28150
 C2414 C 0.27411 0.54470 0.28845
 C2415 C 0.26717 0.53382 0.28174
 C2416 C 0.27098 0.52983 0.26798
 C2417 C 0.28194 0.53692 0.26112
 C2418 C 0.28879 0.54788 0.26777
 H2419 H 0.30646 0.59138 0.32929
 H2420 H 0.31733 0.61131 0.34050
 H2421 H 0.32790 0.62778 0.29942
 H2422 H 0.31747 0.60763 0.28823
 H2423 H 0.27085 0.54755 0.29901
 H2424 H 0.25879 0.52854 0.28733
 H2425 H 0.28510 0.53412 0.25050
 H2426 H 0.29711 0.55320 0.26214
 C2427 C 0.31114 0.09637 0.81029
 C2428 C 0.31791 0.10644 0.80205
 C2429 C 0.32417 0.11789 0.80839
 C2430 C 0.32395 0.11950 0.82315
 C2431 C 0.31722 0.10940 0.83141
 C2432 C 0.31085 0.09799 0.82505
 C2433 C 0.30439 0.08432 0.80348
 N2434 N 0.29566 0.07589 0.81089
 N2435 N 0.28945 0.06518 0.80467
 C2436 C 0.29178 0.06241 0.79079
 N2437 N 0.30056 0.07080 0.78341
 N2438 N 0.30672 0.08153 0.78961
 C2439 C 0.28474 0.05064 0.78376
 C2440 C 0.28886 0.04654 0.77012
 C2441 C 0.28202 0.03568 0.76331
 C2442 C 0.27082 0.02873 0.76991
 C2443 C 0.26676 0.03274 0.78359
 C2444 C 0.27368 0.04354 0.79046
 H2445 H 0.31824 0.10558 0.79064
 H2446 H 0.32901 0.12559 0.80168
 H2447 H 0.31702 0.11022 0.84282
 H2448 H 0.30579 0.09038 0.83172
 H2449 H 0.29737 0.05174 0.76467
 H2450 H 0.28540 0.03285 0.75277
 H2451 H 0.25818 0.02757 0.78897
 H2452 H 0.27023 0.04645 0.80095
 C2453 C 0.81105 0.59617 0.81003
 C2454 C 0.81078 0.59772 0.82480
 C2455 C 0.81721 0.60908 0.83120
 C2456 C 0.82397 0.61919 0.82298
 C2457 C 0.82418 0.61763 0.80821
 C2458 C 0.81786 0.60624 0.80182
 C2459 C 0.80423 0.58418 0.80317
 N2460 N 0.80650 0.58147 0.78928
 N2461 N 0.80027 0.57080 0.78303
 C2462 C 0.79147 0.56241 0.79039
 N2463 N 0.78920 0.56511 0.80429
 N2464 N 0.79548 0.57576 0.81056
 C2465 C 0.78436 0.55071 0.78331
 C2466 C 0.77332 0.54359 0.79002
 C2467 C 0.76634 0.53285 0.78311
 C2468 C 0.77035 0.52890 0.76940
 C2469 C 0.78153 0.53587 0.76279
 C2470 C 0.78842 0.54668 0.76964
 H2471 H 0.80569 0.59011 0.83143
 H2472 H 0.81702 0.60985 0.84261
 H2473 H 0.82904 0.62535 0.80153
 H2474 H 0.81817 0.60543 0.79042
 H2475 H 0.76991 0.54645 0.80054
 H2476 H 0.75778 0.52766 0.78850
 H2477 H 0.78487 0.53309 0.75222
 H2478 H 0.79692 0.55189 0.76418
 C2479 C 0.81348 0.09604 0.30914
 C2480 C 0.81944 0.10674 0.30109
 C2481 C 0.82550 0.11816 0.30769
 C2482 C 0.82588 0.11910 0.32252
 C2483 C 0.82008 0.10831 0.33056
 C2484 C 0.81390 0.09695 0.32395
 C2485 C 0.80669 0.08413 0.30212
 N2486 N 0.79841 0.07531 0.30956
 N2487 N 0.79206 0.06477 0.30319
 C2488 C 0.79378 0.06257 0.28912
 N2489 N 0.80213 0.07134 0.28170
 N2490 N 0.80843 0.08191 0.28806
 C2491 C 0.78650 0.05101 0.28198
 C2492 C 0.79022 0.04718 0.26815
 C2493 C 0.78314 0.03647 0.26130
 C2494 C 0.77209 0.02945 0.26808
 C2495 C 0.76841 0.03322 0.28193
 C2496 C 0.77558 0.04383 0.28883
 H2497 H 0.81920 0.10642 0.28965
 H2498 H 0.82964 0.12638 0.30116
 H2499 H 0.82041 0.10859 0.34199
 H2500 H 0.80951 0.08884 0.33047
 H2501 H 0.79861 0.05245 0.26259
 H2502 H 0.78621 0.03382 0.25062
 H2503 H 0.75996 0.02798 0.28745
 H2504 H 0.77243 0.04654 0.29947
 C2505 C 0.68709 0.40390 0.31121
 C2506 C 0.68069 0.39364 0.30294
 C2507 C 0.67454 0.38212 0.30928
 C2508 C 0.67449 0.38061 0.32406
 C2509 C 0.68077 0.39095 0.33234
 C2510 C 0.68705 0.40243 0.32599
 C2511 C 0.69391 0.41593 0.30440
 N2512 N 0.70258 0.42436 0.31184
 N2513 N 0.70894 0.43499 0.30560
 C2514 C 0.70684 0.43767 0.29166
 N2515 N 0.69810 0.42929 0.28425
 N2516 N 0.69180 0.41863 0.29048
 C2517 C 0.71410 0.44932 0.28459
 C2518 C 0.71010 0.45345 0.27093
 C2519 C 0.71715 0.46418 0.26408
 C2520 C 0.72845 0.47096 0.27067
 C2521 C 0.73240 0.46690 0.28437
 C2522 C 0.72525 0.45625 0.29128
 H2523 H 0.68062 0.39439 0.29152
 H2524 H 0.67006 0.37424 0.30255
 H2525 H 0.68074 0.39022 0.34376
 H2526 H 0.69180 0.41019 0.33267
 H2527 H 0.70151 0.44838 0.26549
 H2528 H 0.71386 0.46704 0.25352
 H2529 H 0.74105 0.47195 0.28974
 H2530 H 0.72862 0.45330 0.30179
 C2531 C 0.68678 0.90352 0.81171
 C2532 C 0.68661 0.90214 0.82650
 C2533 C 0.68025 0.89070 0.83286
 C2534 C 0.67402 0.88034 0.82458
 C2535 C 0.67419 0.88177 0.80979
 C2536 C 0.68043 0.89324 0.80344
 C2537 C 0.69370 0.91549 0.80488
 N2538 N 0.69178 0.91807 0.79091
 N2539 N 0.69817 0.92866 0.78467
 C2540 C 0.70681 0.93711 0.79212
 N2541 N 0.70872 0.93455 0.80611
 N2542 N 0.70228 0.92398 0.81237
 C2543 C 0.71415 0.94870 0.78505
 C2544 C 0.72515 0.95575 0.79186
 C2545 C 0.73235 0.96638 0.78496
 C2546 C 0.72861 0.97028 0.77115
 C2547 C 0.71748 0.96336 0.76443
 C2548 C 0.71037 0.95266 0.77127
 H2549 H 0.69133 0.90992 0.83318
 H2550 H 0.68012 0.89004 0.84428
 H2551 H 0.66975 0.87387 0.80307
 H2552 H 0.68047 0.89392 0.79202
 H2553 H 0.72835 0.95294 0.80246
 H2554 H 0.74086 0.97154 0.79044
 H2555 H 0.71435 0.96610 0.75379
 H2556 H 0.70191 0.94749 0.76574
 C2557 C 0.18795 0.40468 0.81260
 C2558 C 0.17321 0.40329 0.81257
 C2559 C 0.16680 0.39174 0.81866
 C2560 C 0.17500 0.38126 0.82480
 C2561 C 0.18975 0.38267 0.82480
 C2562 C 0.19613 0.39426 0.81884
 C2563 C 0.19483 0.41680 0.80602
 N2564 N 0.20872 0.41937 0.80825
 N2565 N 0.21501 0.43010 0.80215
 C2566 C 0.20771 0.43870 0.79352
 N2567 N 0.19381 0.43616 0.79132
 N2568 N 0.18749 0.42545 0.79746
 C2569 C 0.21487 0.45040 0.78646
 C2570 C 0.20828 0.45757 0.77537
 C2571 C 0.21530 0.46825 0.76835
 C2572 C 0.22901 0.47207 0.77237
 C2573 C 0.23548 0.46508 0.78363
 C2574 C 0.22852 0.45433 0.79055
 H2575 H 0.16660 0.41117 0.80793
 H2576 H 0.15542 0.39108 0.81866
 H2577 H 0.19641 0.37468 0.82917
 H2578 H 0.20752 0.39493 0.81894
 H2579 H 0.19778 0.45480 0.77194
 H2580 H 0.21001 0.47346 0.75974
 H2581 H 0.24604 0.46776 0.78697
 H2582 H 0.23388 0.44907 0.79909
 C2583 C 0.18759 0.90496 0.31223
 C2584 C 0.17285 0.90356 0.31228
 C2585 C 0.16648 0.89208 0.31856
 C2586 C 0.17471 0.88169 0.32482
 C2587 C 0.18945 0.88311 0.32472
 C2588 C 0.19580 0.89463 0.31857
 C2589 C 0.19443 0.91702 0.30549
 N2590 N 0.20831 0.91966 0.30768
 N2591 N 0.21456 0.93036 0.30148
 C2592 C 0.20722 0.93885 0.29277
 N2593 N 0.19333 0.93623 0.29058
 N2594 N 0.18706 0.92555 0.29683
 C2595 C 0.21432 0.95055 0.28564
 C2596 C 0.20774 0.95760 0.27446
 C2597 C 0.21469 0.96831 0.26744
 C2598 C 0.22832 0.97230 0.27154
 C2599 C 0.23481 0.96541 0.28287
 C2600 C 0.22791 0.95463 0.28979
 H2601 H 0.16622 0.91137 0.30756
 H2602 H 0.15509 0.89142 0.31862
 H2603 H 0.19614 0.87519 0.32917
 H2604 H 0.20719 0.89531 0.31862
 H2605 H 0.19729 0.95470 0.27098
 H2606 H 0.20941 0.97345 0.25878
 H2607 H 0.24531 0.96822 0.28627
 H2608 H 0.23327 0.94947 0.29839
 C2609 C 0.40077 0.31168 0.69132
 C2610 C 0.39973 0.32612 0.69138
 C2611 C 0.38830 0.33271 0.68497
 C2612 C 0.37757 0.32500 0.67846
 C2613 C 0.37857 0.31055 0.67851
 C2614 C 0.39006 0.30397 0.68480
 C2615 C 0.41293 0.30466 0.69800
 N2616 N 0.41540 0.29108 0.69562
 N2617 N 0.42630 0.28474 0.70162
 C2618 C 0.43517 0.29168 0.71032
 N2619 N 0.43270 0.30527 0.71273
 N2620 N 0.42183 0.31163 0.70666
 C2621 C 0.44719 0.28454 0.71712
 C2622 C 0.45459 0.29074 0.72831
 C2623 C 0.46568 0.28380 0.73495
 C2624 C 0.46971 0.27058 0.73045
 C2625 C 0.46245 0.26448 0.71913
 C2626 C 0.45128 0.27135 0.71260
 H2627 H 0.40785 0.33236 0.69623
 H2628 H 0.38798 0.34385 0.68493
 H2629 H 0.37038 0.30428 0.67384
 H2630 H 0.39047 0.29283 0.68467
 H2631 H 0.45169 0.30088 0.73207
 H2632 H 0.47108 0.28879 0.74362
 H2633 H 0.46527 0.25429 0.71544
 H2634 H 0.44585 0.26630 0.70398
 C2635 C 0.40346 0.81534 0.19040
 C2636 C 0.39313 0.82187 0.19867
 C2637 C 0.38152 0.82819 0.19233
 C2638 C 0.38001 0.82826 0.17755
 C2639 C 0.39047 0.82193 0.16926
 C2640 C 0.40203 0.81550 0.17561
 C2641 C 0.41550 0.80822 0.19719
 N2642 N 0.42393 0.79962 0.18966
 N2643 N 0.43453 0.79297 0.19587
 C2644 C 0.43719 0.79469 0.20986
 N2645 N 0.42881 0.80335 0.21737
 N2646 N 0.41818 0.80995 0.21117
 C2647 C 0.44883 0.78714 0.21686
 C2648 C 0.45301 0.79062 0.23065
 C2649 C 0.46380 0.78336 0.23738
 C2650 C 0.47059 0.77237 0.23053
 C2651 C 0.46647 0.76891 0.21673
 C2652 C 0.45575 0.77625 0.20994
 H2653 H 0.39385 0.82188 0.21009
 H2654 H 0.37355 0.83275 0.19906
 H2655 H 0.38976 0.82199 0.15785
 H2656 H 0.40985 0.81066 0.16893
 H2657 H 0.44795 0.79897 0.23627
 H2658 H 0.46672 0.78628 0.24802
 H2659 H 0.47152 0.76051 0.21115
 H2660 H 0.45277 0.77328 0.19933
 C2661 C 0.90074 0.31195 0.19086
 C2662 C 0.89015 0.31823 0.19901
 C2663 C 0.87861 0.32453 0.19251
 C2664 C 0.87743 0.32482 0.17771
 C2665 C 0.88808 0.31862 0.16956
 C2666 C 0.89957 0.31221 0.17606
 C2667 C 0.91289 0.30510 0.19776
 N2668 N 0.92167 0.29683 0.19025
 N2669 N 0.93250 0.29056 0.19649
 C2670 C 0.93504 0.29236 0.21049
 N2671 N 0.92629 0.30067 0.21799
 N2672 N 0.91543 0.30689 0.21176
 C2673 C 0.94700 0.28529 0.21747
 C2674 C 0.95114 0.28901 0.23121
 C2675 C 0.96229 0.28222 0.23789
 C2676 C 0.96947 0.27147 0.23103
 C2677 C 0.96538 0.26778 0.21728
 C2678 C 0.95432 0.27466 0.21055
 H2679 H 0.89068 0.31813 0.21044
 H2680 H 0.87049 0.32900 0.19912
 H2681 H 0.88764 0.31885 0.15813
 H2682 H 0.90758 0.30756 0.16946
 H2683 H 0.94578 0.29718 0.23683
 H2684 H 0.96517 0.28529 0.24850
 H2685 H 0.97072 0.25956 0.21171
 H2686 H 0.95139 0.27152 0.19998
 C2687 C 0.90217 0.81180 0.69014
 C2688 C 0.89187 0.81841 0.69838
 C2689 C 0.88034 0.82482 0.69200
 C2690 C 0.87887 0.82489 0.67722
 C2691 C 0.88922 0.81835 0.66897
 C2692 C 0.90071 0.81183 0.67536
 C2693 C 0.91429 0.80485 0.69697
 N2694 N 0.92289 0.79638 0.68946
 N2695 N 0.93366 0.78999 0.69569
 C2696 C 0.93631 0.79185 0.70966
 N2697 N 0.92775 0.80036 0.71714
 N2698 N 0.91696 0.80670 0.71093
 C2699 C 0.94816 0.78462 0.71667
 C2700 C 0.95221 0.78821 0.73047
 C2701 C 0.96319 0.78124 0.73722
 C2702 C 0.97031 0.77045 0.73038
 C2703 C 0.96633 0.76690 0.71655
 C2704 C 0.95542 0.77395 0.70975
 H2705 H 0.89261 0.81849 0.70979
 H2706 H 0.87244 0.82953 0.69870
 H2707 H 0.88852 0.81839 0.65755
 H2708 H 0.90850 0.80691 0.66870
 H2709 H 0.94689 0.79641 0.73610
 H2710 H 0.96598 0.78422 0.74788
 H2711 H 0.97163 0.75865 0.71098
 H2712 H 0.95255 0.77091 0.69913
 C2713 C 0.59713 0.31178 0.31066
 C2714 C 0.60735 0.31853 0.30242
 C2715 C 0.61888 0.32494 0.30878
 C2716 C 0.62043 0.32488 0.32355
 C2717 C 0.61014 0.31823 0.33181
 C2718 C 0.59866 0.31171 0.32544
 C2719 C 0.58505 0.30476 0.30384
 N2720 N 0.57658 0.29614 0.31133
 N2721 N 0.56587 0.28967 0.30511
 C2722 C 0.56315 0.29158 0.29115
 N2723 N 0.57159 0.30025 0.28369
 N2724 N 0.58232 0.30667 0.28990
 C2725 C 0.55139 0.28425 0.28413
 C2726 C 0.54728 0.28787 0.27035
 C2727 C 0.53640 0.28080 0.26358
 C2728 C 0.52943 0.26987 0.27037
 C2729 C 0.53346 0.26629 0.28418
 C2730 C 0.54428 0.27344 0.29102
 H2731 H 0.60656 0.31870 0.29101
 H2732 H 0.62673 0.32974 0.30208
 H2733 H 0.61090 0.31817 0.34322
 H2734 H 0.59093 0.30669 0.33210
 H2735 H 0.55248 0.29617 0.26476
 H2736 H 0.53356 0.28381 0.25293
 H2737 H 0.52828 0.25793 0.28971
 H2738 H 0.54719 0.27038 0.30162
 C2739 C 0.59681 0.81168 0.81047
 C2740 C 0.60714 0.81841 0.80236
 C2741 C 0.61864 0.82473 0.80886
 C2742 C 0.62005 0.82461 0.82365
 C2743 C 0.60967 0.81795 0.83177
 C2744 C 0.59820 0.81152 0.82526
 C2745 C 0.58473 0.80480 0.80350
 N2746 N 0.57612 0.79622 0.81086
 N2747 N 0.56541 0.78987 0.80451
 C2748 C 0.56284 0.79188 0.79054
 N2749 N 0.57141 0.80051 0.78320
 N2750 N 0.58214 0.80682 0.78954
 C2751 C 0.55108 0.78466 0.78338
 C2752 C 0.54712 0.78833 0.76957
 C2753 C 0.53627 0.78133 0.76267
 C2754 C 0.52920 0.77041 0.76937
 C2755 C 0.53308 0.76679 0.78321
 C2756 C 0.54386 0.77387 0.79016
 H2757 H 0.60646 0.81864 0.79094
 H2758 H 0.62657 0.82953 0.80226
 H2759 H 0.61032 0.81783 0.84319
 H2760 H 0.59039 0.80650 0.83182
 H2761 H 0.55242 0.79662 0.76405
 H2762 H 0.53355 0.78436 0.75200
 H2763 H 0.52781 0.75844 0.78868
 H2764 H 0.54665 0.77076 0.80079
 C2765 C 0.09767 0.31274 0.80820
 C2766 C 0.10825 0.31918 0.80015
 C2767 C 0.11976 0.32543 0.80675
 C2768 C 0.12092 0.32549 0.82156
 C2769 C 0.11025 0.31918 0.82961
 C2770 C 0.09880 0.31284 0.82301
 C2771 C 0.08562 0.30583 0.80121
 N2772 N 0.07679 0.29757 0.80870
 N2773 N 0.06610 0.29117 0.80240
 C2774 C 0.06375 0.29278 0.78834
 N2775 N 0.07253 0.30109 0.78085
 N2776 N 0.08326 0.30746 0.78715
 C2777 C 0.05199 0.28546 0.78130
 C2778 C 0.04812 0.28875 0.76736
 C2779 C 0.03718 0.28165 0.76066
 C2780 C 0.02996 0.27103 0.76770
 C2781 C 0.03378 0.26779 0.78166
 C2782 C 0.04462 0.27496 0.78840
 H2783 H 0.10775 0.31922 0.78872
 H2784 H 0.12788 0.33000 0.80022
 H2785 H 0.11068 0.31925 0.84104
 H2786 H 0.09079 0.30807 0.82954
 H2787 H 0.05354 0.29681 0.76160
 H2788 H 0.03450 0.28438 0.74989
 H2789 H 0.02840 0.25969 0.78739
 H2790 H 0.04734 0.27214 0.79913
 C2791 C 0.09732 0.81284 0.30969
 C2792 C 0.10781 0.81922 0.30149
 C2793 C 0.11932 0.82563 0.30794
 C2794 C 0.12055 0.82591 0.32274
 C2795 C 0.10995 0.81966 0.33093
 C2796 C 0.09851 0.81316 0.32449
 C2797 C 0.08527 0.80578 0.30285
 N2798 N 0.07659 0.79747 0.31045
 N2799 N 0.06588 0.79097 0.30426
 C2800 C 0.06337 0.79256 0.29023
 N2801 N 0.07202 0.80092 0.28265
 N2802 N 0.08276 0.80737 0.28882
 C2803 C 0.05157 0.78522 0.28329
 C2804 C 0.04753 0.78864 0.26943
 C2805 C 0.03655 0.78159 0.26279
 C2806 C 0.02943 0.77088 0.26979
 C2807 C 0.03342 0.76748 0.28366
 C2808 C 0.04432 0.77462 0.29036
 H2809 H 0.10726 0.81910 0.29007
 H2810 H 0.12739 0.83015 0.30130
 H2811 H 0.11044 0.81990 0.34236
 H2812 H 0.09056 0.80844 0.33113
 H2813 H 0.05284 0.79678 0.26370
 H2814 H 0.03375 0.78444 0.25209
 H2815 H 0.02812 0.75929 0.28935
 H2816 H 0.04718 0.77171 0.30103
 C2817 C 0.59772 0.68749 0.68884
 C2818 C 0.59918 0.68756 0.67405
 C2819 C 0.61067 0.68109 0.66761
 C2820 C 0.62103 0.67449 0.67580
 C2821 C 0.61956 0.67444 0.69058
 C2822 C 0.60802 0.68081 0.69702
 C2823 C 0.58562 0.69443 0.69572
 N2824 N 0.58295 0.69251 0.70969
 N2825 N 0.57218 0.69886 0.71594
 C2826 C 0.56365 0.70744 0.70850
 N2827 N 0.56631 0.70935 0.69453
 N2828 N 0.57705 0.70296 0.68826
 C2829 C 0.55184 0.71470 0.71554
 C2830 C 0.54467 0.72543 0.70864
 C2831 C 0.53378 0.73252 0.71544
 C2832 C 0.52974 0.72894 0.72926
 C2833 C 0.53677 0.71808 0.73609
 C2834 C 0.54773 0.71108 0.72934
 H2835 H 0.59140 0.69254 0.66743
 H2836 H 0.61137 0.68114 0.65619
 H2837 H 0.62746 0.66968 0.69723
 H2838 H 0.60728 0.68064 0.70844
 H2839 H 0.54757 0.72850 0.69802
 H2840 H 0.52854 0.74082 0.70988
 H2841 H 0.53392 0.71508 0.74674
 H2842 H 0.55299 0.70283 0.73494
 C2843 C 0.59742 0.18698 0.18944
 C2844 C 0.60813 0.18084 0.19754
 C2845 C 0.61970 0.17464 0.19099
 C2846 C 0.62080 0.17431 0.17618
 C2847 C 0.61000 0.18031 0.16808
 C2848 C 0.59848 0.18662 0.17463
 C2849 C 0.58534 0.19386 0.19642
 N2850 N 0.57648 0.20208 0.18894
 N2851 N 0.56578 0.20847 0.19527
 C2852 C 0.56345 0.20686 0.20935
 N2853 N 0.57227 0.19857 0.21680
 N2854 N 0.58300 0.19224 0.21048
 C2855 C 0.55168 0.21412 0.21646
 C2856 C 0.54781 0.21065 0.23036
 C2857 C 0.53690 0.21766 0.23718
 C2858 C 0.52968 0.22838 0.23031
 C2859 C 0.53349 0.23181 0.21639
 C2860 C 0.54433 0.22472 0.20952
 H2861 H 0.60770 0.18101 0.20897
 H2862 H 0.62793 0.17033 0.19757
 H2863 H 0.61039 0.18004 0.15665
 H2864 H 0.59037 0.19116 0.16807
 H2865 H 0.55322 0.20251 0.23600
 H2866 H 0.53422 0.21477 0.24791
 H2867 H 0.52811 0.24000 0.21080
 H2868 H 0.54706 0.22767 0.19883
 C2869 C 0.09707 0.68774 0.18974
 C2870 C 0.09831 0.68754 0.17494
 C2871 C 0.10978 0.68109 0.16846
 C2872 C 0.12035 0.67478 0.17662
 C2873 C 0.11908 0.67497 0.19142
 C2874 C 0.10755 0.68132 0.19790
 C2875 C 0.08498 0.69469 0.19663
 N2876 N 0.08246 0.69297 0.21065
 N2877 N 0.07168 0.69933 0.21689
 C2878 C 0.06300 0.70771 0.20939
 N2879 N 0.06552 0.70942 0.19536
 N2880 N 0.07627 0.70303 0.18911
 C2881 C 0.05117 0.71496 0.21641
 C2882 C 0.04388 0.72558 0.20944
 C2883 C 0.03300 0.73267 0.21625
 C2884 C 0.02909 0.72921 0.23014
 C2885 C 0.03624 0.71846 0.23702
 C2886 C 0.04719 0.71145 0.23027
 H2887 H 0.09037 0.69230 0.16834
 H2888 H 0.11030 0.68093 0.15703
 H2889 H 0.12713 0.67041 0.19804
 H2890 H 0.10697 0.68136 0.20933
 H2891 H 0.04669 0.72855 0.19877
 H2892 H 0.02767 0.74089 0.21065
 H2893 H 0.03350 0.71555 0.24773
 H2894 H 0.05255 0.70329 0.23593
 C2895 C 0.09781 0.18676 0.68894
 C2896 C 0.09943 0.18687 0.67417
 C2897 C 0.11106 0.18054 0.66784
 C2898 C 0.12140 0.17403 0.67613
 C2899 C 0.11975 0.17391 0.69090
 C2900 C 0.10807 0.18015 0.69722
 C2901 C 0.08560 0.19365 0.69570
 N2902 N 0.08285 0.19181 0.70967
 N2903 N 0.07202 0.19816 0.71580
 C2904 C 0.06351 0.20666 0.70826
 N2905 N 0.06624 0.20848 0.69428
 N2906 N 0.07704 0.20208 0.68813
 C2907 C 0.05167 0.21400 0.71518
 C2908 C 0.04450 0.22464 0.70812
 C2909 C 0.03366 0.23186 0.71483
 C2910 C 0.02965 0.22853 0.72872
 C2911 C 0.03666 0.21774 0.73571
 C2912 C 0.04758 0.21060 0.72904
 H2913 H 0.09168 0.19180 0.66747
 H2914 H 0.11189 0.18064 0.65643
 H2915 H 0.12762 0.16921 0.69762
 H2916 H 0.10721 0.17995 0.70863
 H2917 H 0.04739 0.22754 0.69745
 H2918 H 0.02845 0.24009 0.70914
 H2919 H 0.03383 0.21494 0.74642
 H2920 H 0.05283 0.20243 0.73477
 C2921 C 0.40263 0.68880 0.31044
 C2922 C 0.39178 0.69654 0.31668
 C2923 C 0.38014 0.69002 0.32273
 C2924 C 0.37910 0.67557 0.32286
 C2925 C 0.38999 0.66781 0.31667
 C2926 C 0.40159 0.67435 0.31048
 C2927 C 0.41484 0.69582 0.30384
 N2928 N 0.42377 0.68889 0.29516
 N2929 N 0.43457 0.69533 0.28903
 C2930 C 0.43693 0.70894 0.29138
 N2931 N 0.42804 0.71584 0.30012
 N2932 N 0.41722 0.70942 0.30620
 C2933 C 0.44876 0.71622 0.28437
 C2934 C 0.45271 0.72950 0.28876
 C2935 C 0.46362 0.73654 0.28194
 C2936 C 0.47073 0.73051 0.27048
 C2937 C 0.46687 0.71719 0.26615
 C2938 C 0.45605 0.71009 0.27307
 H2939 H 0.39217 0.70769 0.31672
 H2940 H 0.37182 0.69635 0.32712
 H2941 H 0.38962 0.65666 0.31674
 H2942 H 0.40980 0.66808 0.30582
 H2943 H 0.44736 0.73450 0.29747
 H2944 H 0.46633 0.74679 0.28552
 H2945 H 0.47218 0.71225 0.25738
 H2946 H 0.45325 0.69989 0.26940
 C2947 C 0.40391 0.18564 0.81053
 C2948 C 0.39355 0.17915 0.80230
 C2949 C 0.38192 0.17289 0.80868
 C2950 C 0.38041 0.17285 0.82346
 C2951 C 0.39089 0.17918 0.83171
 C2952 C 0.40248 0.18555 0.82532
 C2953 C 0.41598 0.19268 0.80369
 N2954 N 0.42445 0.20128 0.81116
 N2955 N 0.43507 0.20788 0.80489
 C2956 C 0.43769 0.20612 0.79090
 N2957 N 0.42927 0.19746 0.78345
 N2958 N 0.41863 0.19090 0.78970
 C2959 C 0.44929 0.21368 0.78382
 C2960 C 0.45339 0.21022 0.76999
 C2961 C 0.46408 0.21755 0.76316
 C2962 C 0.47085 0.22858 0.76995
 C2963 C 0.46683 0.23199 0.78381
 C2964 C 0.45621 0.22458 0.79069
 H2965 H 0.39427 0.17911 0.79088
 H2966 H 0.37393 0.16836 0.80198
 H2967 H 0.39018 0.17915 0.84313
 H2968 H 0.41033 0.19037 0.83198
 H2969 H 0.44832 0.20185 0.76440
 H2970 H 0.46693 0.21467 0.75248
 H2971 H 0.47187 0.24041 0.78934
 H2972 H 0.45330 0.22753 0.80133
 C2973 C 0.90399 0.68531 0.81057
 C2974 C 0.90259 0.68513 0.82536
 C2975 C 0.89101 0.67872 0.83173
 C2976 C 0.88052 0.67244 0.82346
 C2977 C 0.88201 0.67255 0.80868
 C2978 C 0.89363 0.67884 0.80232
 C2979 C 0.91604 0.69240 0.80374
 N2980 N 0.91865 0.69072 0.78974
 N2981 N 0.92927 0.69733 0.78350
 C2982 C 0.93770 0.70594 0.79099
 N2983 N 0.93511 0.70760 0.80501
 N2984 N 0.92452 0.70095 0.81126
 C2985 C 0.94929 0.71353 0.78394
 C2986 C 0.95626 0.72437 0.79088
 C2987 C 0.96689 0.73179 0.78404
 C2988 C 0.97088 0.72846 0.77015
 C2989 C 0.96406 0.71751 0.76329
 C2990 C 0.95335 0.71017 0.77008
 H2991 H 0.91044 0.68993 0.83203
 H2992 H 0.89032 0.67864 0.84315
 H2993 H 0.87401 0.66804 0.80197
 H2994 H 0.89433 0.67886 0.79090
 H2995 H 0.95338 0.72725 0.80155
 H2996 H 0.97198 0.74015 0.78963
 H2997 H 0.96688 0.71469 0.75258
 H2998 H 0.94824 0.70186 0.76444
 C2999 C 0.90322 0.18850 0.31200
 C3000 C 0.89223 0.19612 0.31816
 C3001 C 0.88067 0.18946 0.32422
 C3002 C 0.87986 0.17499 0.32441
 C3003 C 0.89092 0.16737 0.31835
 C3004 C 0.90243 0.17404 0.31216
 C3005 C 0.91533 0.19562 0.30534
 N3006 N 0.92439 0.18869 0.29679
 N3007 N 0.93512 0.19518 0.29059
 C3008 C 0.93728 0.20885 0.29274
 N3009 N 0.92827 0.21576 0.30135
 N3010 N 0.91751 0.20929 0.30749
 C3011 C 0.94903 0.21616 0.28563
 C3012 C 0.95282 0.22955 0.28982
 C3013 C 0.96364 0.23660 0.28288
 C3014 C 0.97083 0.23048 0.27152
 C3015 C 0.96712 0.21706 0.26740
 C3016 C 0.95639 0.20995 0.27443
 H3017 H 0.89245 0.20728 0.31811
 H3018 H 0.87223 0.19567 0.32854
 H3019 H 0.89075 0.15622 0.31850
 H3020 H 0.91076 0.16786 0.30759
 H3021 H 0.94741 0.23461 0.29844
 H3022 H 0.96624 0.24694 0.28629
 H3023 H 0.97248 0.21205 0.25870
 H3024 H 0.95371 0.19966 0.27093
 C3025 C 0.31087 0.31539 0.59740
 C3026 C 0.32562 0.31549 0.59876
 C3027 C 0.33202 0.32173 0.61043
 C3028 C 0.32381 0.32792 0.62105
 C3029 C 0.30907 0.32787 0.61962
 C3030 C 0.30268 0.32174 0.60792
 C3031 C 0.30402 0.30851 0.58523
 N3032 N 0.29004 0.31023 0.58273
 N3033 N 0.28380 0.30381 0.57199
 C3034 C 0.29124 0.29536 0.56334
 N3035 N 0.30523 0.29367 0.56581
 N3036 N 0.31150 0.30013 0.57652
 C3037 C 0.28418 0.28793 0.55164
 C3038 C 0.29114 0.27727 0.54441
 C3039 C 0.28430 0.26996 0.53370
 C3040 C 0.27039 0.27323 0.52990
 C3041 C 0.26350 0.28403 0.53697
 C3042 C 0.27030 0.29126 0.54776
 H3043 H 0.33224 0.31078 0.59080
 H3044 H 0.34340 0.32176 0.61108
 H3045 H 0.30241 0.33230 0.62772
 H3046 H 0.29130 0.32178 0.60726
 H3047 H 0.30183 0.27443 0.54715
 H3048 H 0.28991 0.26172 0.52843
 H3049 H 0.25277 0.28679 0.53429
 H3050 H 0.26464 0.29944 0.55307
 C3051 C 0.30985 0.81239 0.10051
 C3052 C 0.31625 0.80466 0.11130
 C3053 C 0.32251 0.81121 0.12284
 C3054 C 0.32266 0.82566 0.12380
 C3055 C 0.31626 0.83340 0.11300
 C3056 C 0.30988 0.82684 0.10152
 C3057 C 0.30321 0.80541 0.08830
 N3058 N 0.29468 0.81243 0.07930
 N3059 N 0.28864 0.80610 0.06839
 C3060 C 0.29093 0.79249 0.06597
 N3061 N 0.29951 0.78549 0.07494
 N3062 N 0.30549 0.79180 0.08588
 C3063 C 0.28412 0.78538 0.05393
 C3064 C 0.28849 0.77212 0.04990
 C3065 C 0.28191 0.76529 0.03872
 C3066 C 0.27072 0.77151 0.03139
 C3067 C 0.26639 0.78480 0.03536
 C3068 C 0.27307 0.79169 0.04645
 H3069 H 0.31632 0.79351 0.11093
 H3070 H 0.32710 0.80492 0.13109
 H3071 H 0.31637 0.84454 0.11329
 H3072 H 0.30511 0.83310 0.09334
 H3073 H 0.29701 0.76699 0.05539
 H3074 H 0.28548 0.75504 0.03594
 H3075 H 0.25781 0.78987 0.02989
 H3076 H 0.26943 0.80189 0.04930
 C3077 C 0.81022 0.31289 0.09723
 C3078 C 0.82494 0.31278 0.09882
 C3079 C 0.83127 0.31913 0.11045
 C3080 C 0.82303 0.32565 0.12082
 C3081 C 0.80830 0.32576 0.11922
 C3082 C 0.80198 0.31951 0.10754
 C3083 C 0.80346 0.30602 0.08501
 N3084 N 0.78957 0.30800 0.08219
 N3085 N 0.78343 0.30168 0.07134
 C3086 C 0.79089 0.29306 0.06287
 N3087 N 0.80478 0.29109 0.06567
 N3088 N 0.81094 0.29745 0.07649
 C3089 C 0.78395 0.28579 0.05099
 C3090 C 0.79082 0.27495 0.04396
 C3091 C 0.78409 0.26781 0.03306
 C3092 C 0.77039 0.27144 0.02886
 C3093 C 0.76360 0.28242 0.03573
 C3094 C 0.77028 0.28947 0.04671
 H3095 H 0.83160 0.30785 0.09103
 H3096 H 0.84265 0.31904 0.11124
 H3097 H 0.80161 0.33046 0.12712
 H3098 H 0.79061 0.31971 0.10671
 H3099 H 0.80135 0.27183 0.04700
 H3100 H 0.78962 0.25943 0.02795
 H3101 H 0.75303 0.28545 0.03276
 H3102 H 0.76470 0.29780 0.05186
 C3103 C 0.80936 0.81280 0.59879
 C3104 C 0.82411 0.81298 0.60000
 C3105 C 0.83060 0.81924 0.61158
 C3106 C 0.82249 0.82538 0.62230
 C3107 C 0.80773 0.82522 0.62108
 C3108 C 0.80124 0.81905 0.60944
 C3109 C 0.80248 0.80600 0.58659
 N3110 N 0.78847 0.80761 0.58416
 N3111 N 0.78228 0.80137 0.57328
 C3112 C 0.78981 0.79322 0.56440
 N3113 N 0.80382 0.79162 0.56682
 N3114 N 0.81003 0.79790 0.57767
 C3115 C 0.78287 0.78603 0.55247
 C3116 C 0.79001 0.77566 0.54498
 C3117 C 0.78335 0.76861 0.53398
 C3118 C 0.76945 0.77186 0.53013
 C3119 C 0.76237 0.78237 0.53747
 C3120 C 0.76899 0.78934 0.54856
 H3121 H 0.83069 0.80834 0.59194
 H3122 H 0.84200 0.81938 0.61206
 H3123 H 0.80116 0.82966 0.62924
 H3124 H 0.78985 0.81902 0.60889
 H3125 H 0.80070 0.77283 0.54772
 H3126 H 0.78911 0.76059 0.52851
 H3127 H 0.75165 0.78510 0.53477
 H3128 H 0.76320 0.79731 0.55407
 C3129 C 0.30876 0.68827 0.40014
 C3130 C 0.31538 0.69617 0.38960
 C3131 C 0.32182 0.68983 0.37805
 C3132 C 0.32195 0.67540 0.37680
 C3133 C 0.31530 0.66748 0.38732
 C3134 C 0.30873 0.67384 0.39883
 C3135 C 0.30197 0.69510 0.41237
 N3136 N 0.29320 0.68803 0.42112
 N3137 N 0.28702 0.69427 0.43203
 C3138 C 0.28942 0.70783 0.43469
 N3139 N 0.29823 0.71486 0.42597
 N3140 N 0.30435 0.70864 0.41504
 C3141 C 0.28248 0.71488 0.44670
 C3142 C 0.28692 0.72807 0.45090
 C3143 C 0.28022 0.73490 0.46201
 C3144 C 0.26883 0.72876 0.46911
 C3145 C 0.26442 0.71554 0.46500
 C3146 C 0.27122 0.70864 0.45396
 H3147 H 0.31548 0.70731 0.39020
 H3148 H 0.32656 0.69627 0.37000
 H3149 H 0.31535 0.65634 0.38677
 H3150 H 0.30378 0.66745 0.40680
 H3151 H 0.29560 0.73315 0.44559
 H3152 H 0.28386 0.74508 0.46491
 H3153 H 0.25569 0.71053 0.47029
 H3154 H 0.26752 0.69850 0.45098
 C3155 C 0.30995 0.18875 0.90042
 C3156 C 0.31643 0.19648 0.88966
 C3157 C 0.32278 0.18993 0.87817
 C3158 C 0.32293 0.17548 0.87720
 C3159 C 0.31647 0.16775 0.88798
 C3160 C 0.31000 0.17431 0.89942
 C3161 C 0.30317 0.19574 0.91257
 N3162 N 0.29456 0.18870 0.92150
 N3163 N 0.28839 0.19503 0.93235
 C3164 C 0.29061 0.20865 0.93476
 N3165 N 0.29925 0.21567 0.92586
 N3166 N 0.30538 0.20936 0.91498
 C3167 C 0.28363 0.21576 0.94673
 C3168 C 0.28790 0.22905 0.95076
 C3169 C 0.28116 0.23588 0.96187
 C3170 C 0.26992 0.22962 0.96910
 C3171 C 0.26570 0.21630 0.96513
 C3172 C 0.27253 0.20941 0.95411
 H3173 H 0.31648 0.20763 0.89003
 H3174 H 0.32742 0.19622 0.86993
 H3175 H 0.31658 0.15660 0.88769
 H3176 H 0.30517 0.16804 0.90757
 H3177 H 0.29645 0.23421 0.94534
 H3178 H 0.28464 0.24614 0.96465
 H3179 H 0.25709 0.21119 0.97053
 H3180 H 0.26897 0.19919 0.95126
 C3181 C 0.81006 0.68833 0.90037
 C3182 C 0.81657 0.69605 0.88962
 C3183 C 0.82290 0.68950 0.87812
 C3184 C 0.82302 0.67504 0.87715
 C3185 C 0.81652 0.66732 0.88792
 C3186 C 0.81006 0.67389 0.89936
 C3187 C 0.80334 0.69533 0.91254
 N3188 N 0.79471 0.68833 0.92147
 N3189 N 0.78860 0.69467 0.93234
 C3190 C 0.79093 0.70827 0.93479
 N3191 N 0.79960 0.71526 0.92588
 N3192 N 0.80565 0.70893 0.91498
 C3193 C 0.78406 0.71540 0.94680
 C3194 C 0.78847 0.72864 0.95086
 C3195 C 0.78185 0.73549 0.96202
 C3196 C 0.77058 0.72932 0.96928
 C3197 C 0.76620 0.71605 0.96528
 C3198 C 0.77292 0.70914 0.95421
 H3199 H 0.81665 0.70720 0.89000
 H3200 H 0.82757 0.69578 0.86990
 H3201 H 0.81660 0.65617 0.88762
 H3202 H 0.80522 0.66763 0.90750
 H3203 H 0.79706 0.73373 0.94542
 H3204 H 0.78546 0.74571 0.96483
 H3205 H 0.75757 0.71101 0.97070
 H3206 H 0.76924 0.69896 0.95133
 C3207 C 0.81023 0.18474 0.40284
 C3208 C 0.80221 0.17875 0.39199
 C3209 C 0.80881 0.17265 0.38037
 C3210 C 0.82358 0.17229 0.37937
 C3211 C 0.83160 0.17808 0.39035
 C3212 C 0.82500 0.18428 0.40192
 C3213 C 0.80324 0.19168 0.41491
 N3214 N 0.81071 0.19980 0.42385
 N3215 N 0.80437 0.20631 0.43449
 C3216 C 0.79029 0.20493 0.43666
 N3217 N 0.78283 0.19674 0.42777
 N3218 N 0.78916 0.19027 0.41710
 C3219 C 0.78319 0.21241 0.44830
 C3220 C 0.76923 0.20924 0.45208
 C3221 C 0.76244 0.21650 0.46286
 C3222 C 0.76941 0.22719 0.47002
 C3223 C 0.78339 0.23032 0.46630
 C3224 C 0.79022 0.22297 0.45561
 H3225 H 0.79081 0.17900 0.39233
 H3226 H 0.80231 0.16849 0.37200
 H3227 H 0.84300 0.17776 0.39005
 H3228 H 0.83150 0.18869 0.41015
 H3229 H 0.76353 0.20114 0.44670
 H3230 H 0.75167 0.21386 0.46547
 H3231 H 0.78906 0.23847 0.47164
 H3232 H 0.80096 0.22570 0.45295
 C3233 C 0.69030 0.31165 0.40141
 C3234 C 0.67554 0.31191 0.40029
 C3235 C 0.66902 0.31837 0.38883
 C3236 C 0.67710 0.32461 0.37814
 C3237 C 0.69186 0.32438 0.37928
 C3238 C 0.69839 0.31802 0.39080
 C3239 C 0.69722 0.30465 0.41348
 N3240 N 0.71123 0.30621 0.41588
 N3241 N 0.71746 0.29979 0.42664
 C3242 C 0.70995 0.29150 0.43543
 N3243 N 0.69594 0.28994 0.43303
 N3244 N 0.68970 0.29640 0.42231
 C3245 C 0.71693 0.28415 0.44724
 C3246 C 0.70984 0.27364 0.45460
 C3247 C 0.71654 0.26646 0.46551
 C3248 C 0.73043 0.26973 0.46939
 C3249 C 0.73746 0.28036 0.46217
 C3250 C 0.73081 0.28745 0.45117
 H3251 H 0.66899 0.30720 0.40833
 H3252 H 0.65762 0.31857 0.38842
 H3253 H 0.69841 0.32890 0.37113
 H3254 H 0.70978 0.31793 0.39128
 H3255 H 0.69916 0.27081 0.45183
 H3256 H 0.71083 0.25835 0.47089
 H3257 H 0.74817 0.28310 0.46490
 H3258 H 0.73655 0.29552 0.44577
 C3259 C 0.68974 0.81151 0.90189
 C3260 C 0.67498 0.81160 0.90073
 C3261 C 0.66841 0.81797 0.88925
 C3262 C 0.67644 0.82432 0.87858
 C3263 C 0.69121 0.82420 0.87973
 C3264 C 0.69777 0.81792 0.89127
 C3265 C 0.69673 0.80468 0.91402
 N3266 N 0.71069 0.80654 0.91648
 N3267 N 0.71701 0.80030 0.92729
 C3268 C 0.70965 0.79189 0.93608
 N3269 N 0.69568 0.79003 0.93363
 N3270 N 0.68935 0.79631 0.92285
 C3271 C 0.71676 0.78472 0.94793
 C3272 C 0.70995 0.77402 0.95525
 C3273 C 0.71684 0.76697 0.96612
 C3274 C 0.73064 0.77055 0.97001
 C3275 C 0.73738 0.78140 0.96285
 C3276 C 0.73054 0.78836 0.95189
 H3277 H 0.66847 0.80683 0.90877
 H3278 H 0.65701 0.81807 0.88881
 H3279 H 0.69773 0.82877 0.87159
 H3280 H 0.70917 0.81796 0.89178
 H3281 H 0.69935 0.77093 0.95246
 H3282 H 0.71135 0.75868 0.97146
 H3283 H 0.74802 0.78439 0.96557
 H3284 H 0.73608 0.79660 0.94651
 C3285 C 0.18854 0.31165 0.90150
 C3286 C 0.17380 0.31151 0.90001
 C3287 C 0.16737 0.31808 0.88855
 C3288 C 0.17552 0.32485 0.87825
 C3289 C 0.19026 0.32492 0.87973
 C3290 C 0.19668 0.31846 0.89124
 C3291 C 0.19543 0.30468 0.91360
 N3292 N 0.20931 0.30677 0.91634
 N3293 N 0.21558 0.30043 0.92711
 C3294 C 0.20827 0.29169 0.93559
 N3295 N 0.19438 0.28959 0.93286
 N3296 N 0.18809 0.29598 0.92211
 C3297 C 0.21537 0.28448 0.94742
 C3298 C 0.20871 0.27355 0.95453
 C3299 C 0.21563 0.26651 0.96541
 C3300 C 0.22932 0.27033 0.96948
 C3301 C 0.23589 0.28139 0.96250
 C3302 C 0.22903 0.28834 0.95157
 H3303 H 0.16722 0.30642 0.90777
 H3304 H 0.15598 0.31799 0.88784
 H3305 H 0.19688 0.32980 0.87186
 H3306 H 0.20806 0.31868 0.89198
 H3307 H 0.19820 0.27030 0.95159
 H3308 H 0.21027 0.25805 0.97060
 H3309 H 0.24644 0.28458 0.96537
 H3310 H 0.23445 0.29674 0.94636
 C3311 C 0.18838 0.81275 0.40234
 C3312 C 0.19654 0.81951 0.39205
 C3313 C 0.19012 0.82600 0.38056
 C3314 C 0.17538 0.82601 0.37913
 C3315 C 0.16721 0.81937 0.38951
 C3316 C 0.17364 0.81277 0.40095
 C3317 C 0.19525 0.80562 0.41435
 N3318 N 0.18783 0.79694 0.42282
 N3319 N 0.19409 0.79036 0.43347
 C3320 C 0.20802 0.79222 0.43612
 N3321 N 0.21542 0.80095 0.42769
 N3322 N 0.20917 0.80748 0.41702
 C3323 C 0.21508 0.78477 0.44781
 C3324 C 0.22881 0.78838 0.45194
 C3325 C 0.23561 0.78121 0.46277
 C3326 C 0.22888 0.77019 0.46966
 C3327 C 0.21513 0.76661 0.46560
 C3328 C 0.20827 0.77386 0.45483
 H3329 H 0.20792 0.81961 0.39274
 H3330 H 0.19675 0.83079 0.37264
 H3331 H 0.15583 0.81937 0.38885
 H3332 H 0.16704 0.80775 0.40874
 H3333 H 0.23435 0.79675 0.44680
 H3334 H 0.24622 0.78421 0.46564
 H3335 H 0.20965 0.75819 0.47072
 H3336 H 0.19770 0.77080 0.45190
 C3337 C 0.69056 0.68733 0.59735
 C3338 C 0.69866 0.68099 0.60794
 C3339 C 0.69217 0.67471 0.61954
 C3340 C 0.67740 0.67452 0.62077
 C3341 C 0.66930 0.68076 0.61010
 C3342 C 0.67580 0.68713 0.59856
 C3343 C 0.69745 0.69426 0.58521
 N3344 N 0.68992 0.70248 0.57637
 N3345 N 0.69615 0.70890 0.56561
 C3346 C 0.71016 0.70734 0.56317
 N3347 N 0.71768 0.69907 0.57196
 N3348 N 0.71146 0.69269 0.58276
 C3349 C 0.71714 0.71472 0.55136
 C3350 C 0.73104 0.71149 0.54743
 C3351 C 0.73772 0.71868 0.53651
 C3352 C 0.73069 0.72935 0.52936
 C3353 C 0.71676 0.73251 0.53321
 C3354 C 0.71004 0.72524 0.54404
 H3355 H 0.71006 0.68104 0.60739
 H3356 H 0.69873 0.67020 0.62767
 H3357 H 0.65791 0.68059 0.61059
 H3358 H 0.66923 0.69183 0.59054
 H3359 H 0.73679 0.70341 0.55281
 H3360 H 0.74846 0.71602 0.53380
 H3361 H 0.71104 0.74065 0.52789
 H3362 H 0.69933 0.72801 0.54680
 C3363 C 0.68920 0.18900 0.09692
 C3364 C 0.68876 0.17455 0.09776
 C3365 C 0.68225 0.16803 0.10922
 C3366 C 0.67616 0.17580 0.12018
 C3367 C 0.67664 0.19026 0.11932
 C3368 C 0.68302 0.19677 0.10780
 C3369 C 0.69616 0.19597 0.08484
 N3370 N 0.69420 0.20964 0.08252
 N3371 N 0.70054 0.21596 0.07177
 C3372 C 0.70916 0.20890 0.06289
 N3373 N 0.71113 0.19522 0.06521
 N3374 N 0.70474 0.18888 0.07594
 C3375 C 0.71636 0.21604 0.05107
 C3376 C 0.72756 0.20972 0.04382
 C3377 C 0.73457 0.21667 0.03292
 C3378 C 0.73042 0.23002 0.02895
 C3379 C 0.71909 0.23625 0.03607
 C3380 C 0.71219 0.22937 0.04704
 H3381 H 0.69333 0.16827 0.08950
 H3382 H 0.68188 0.15688 0.10942
 H3383 H 0.67231 0.19657 0.12768
 H3384 H 0.68327 0.20792 0.10755
 H3385 H 0.73105 0.19948 0.04668
 H3386 H 0.74324 0.21159 0.02762
 H3387 H 0.71566 0.24654 0.03328
 H3388 H 0.70357 0.23452 0.05236
 C3389 C 0.18896 0.68802 0.09744
 C3390 C 0.19696 0.68123 0.10781
 C3391 C 0.19037 0.67475 0.11923
 C3392 C 0.17561 0.67480 0.12050
 C3393 C 0.16760 0.68150 0.11006
 C3394 C 0.17420 0.68809 0.09869
 C3395 C 0.19602 0.69510 0.08549
 N3396 N 0.18876 0.70381 0.07693
 N3397 N 0.19519 0.71034 0.06634
 C3398 C 0.20915 0.70838 0.06384
 N3399 N 0.21638 0.69962 0.07236
 N3400 N 0.20996 0.69314 0.08297
 C3401 C 0.21639 0.71578 0.05221
 C3402 C 0.23016 0.71210 0.04822
 C3403 C 0.23713 0.71923 0.03746
 C3404 C 0.23054 0.73028 0.03050
 C3405 C 0.21676 0.73393 0.03443
 C3406 C 0.20973 0.72672 0.04512
 H3407 H 0.20835 0.68107 0.10724
 H3408 H 0.19688 0.66992 0.12721
 H3409 H 0.15621 0.68156 0.11060
 H3410 H 0.16772 0.69315 0.09084
 H3411 H 0.23558 0.70370 0.05342
 H3412 H 0.24775 0.71617 0.03470
 H3413 H 0.21138 0.74238 0.02924
 H3414 H 0.19915 0.72984 0.04794
 C3415 C 0.19152 0.18827 0.59852
 C3416 C 0.19963 0.18194 0.60911
 C3417 C 0.19312 0.17548 0.62061
 C3418 C 0.17835 0.17512 0.62173
 C3419 C 0.17026 0.18134 0.61105
 C3420 C 0.17676 0.18788 0.59962
 C3421 C 0.19841 0.19537 0.58647
 N3422 N 0.19085 0.20359 0.57767
 N3423 N 0.19706 0.21012 0.56696
 C3424 C 0.21109 0.20867 0.56455
 N3425 N 0.21864 0.20039 0.57331
 N3426 N 0.21244 0.19390 0.58405
 C3427 C 0.21803 0.21609 0.55274
 C3428 C 0.23191 0.21287 0.54875
 C3429 C 0.23851 0.22002 0.53775
 C3430 C 0.23142 0.23064 0.53059
 C3431 C 0.21753 0.23383 0.53454
 C3432 C 0.21088 0.22660 0.54545
 H3433 H 0.21102 0.18212 0.60864
 H3434 H 0.19968 0.17099 0.62875
 H3435 H 0.15886 0.18104 0.61145
 H3436 H 0.17019 0.19257 0.59159
 H3437 H 0.23770 0.20480 0.55411
 H3438 H 0.24923 0.21733 0.53497
 H3439 H 0.21177 0.24194 0.52921
 H3440 H 0.20019 0.22937 0.54826
   
