data_POSCAR
  _audit_creation_date              2014-09-24
  _audit_creation_method            'ToBaCCo'
  _symmetry_space_group_name_H-M    'P1'
  _symmetry_Int_Tables_number       1
  _symmetry_cell_setting            triclinic
  loop_
  _symmetry_equiv_pos_as_xyz
 x,y,z
_cell_length_a 27.3921
_cell_length_b 27.5402
_cell_length_c 25.9855
_cell_angle_alpha 90.481800
_cell_angle_beta 89.929700
_cell_angle_gamma 88.779700
loop_
  _atom_site_label
  _atom_site_type_symbol
  _atom_site_fract_x
  _atom_site_fract_y
  _atom_site_fract_z
C1 C 0.36705 -0.00250 0.25132
 C2 C 0.12587 -0.00371 0.74660
 C3 C 0.62162 0.50523 0.24390
 C4 C 0.87057 0.49736 0.75612
 C5 C 0.25196 0.36616 1.00221
 C6 C 0.74363 0.12260 0.99660
 C7 C 0.24547 0.62229 0.50595
 C8 C 0.75078 0.88003 0.50256
 C9 C 0.00072 0.25092 0.37413
 C10 C -0.01005 0.74825 0.12412
 C11 C 0.49030 0.26203 0.62399
 C12 C 0.51410 0.74578 0.86251
 C13 C -0.24687 0.60538 0.99600
 C14 C -0.25180 0.38027 0.49927
 C15 C 0.24808 -0.12314 0.01027
 C16 C 0.25335 1.11835 0.49195
 C17 C 0.13571 0.49957 0.26068
 C18 C -0.13118 0.99546 0.24299
 C19 C 0.36277 0.49144 -0.25606
 C20 C 0.63698 -0.00072 -0.24247
 C21 C -0.00607 0.25153 0.88243
 C22 C 0.50074 0.24550 0.11399
 C23 C 0.01372 0.75563 0.63701
 C24 C 0.49921 0.75717 0.37561
 B25 B -0.03137 0.02143 1.04152
 B26 B -0.05914 0.01477 0.98394
 B27 B -0.01197 0.05288 0.98833
 B28 B 0.02923 0.02907 1.03113
 B29 B 0.00789 -0.02551 1.05067
 B30 B -0.04759 -0.03420 1.02199
 B31 B 0.02200 -0.03133 0.94644
 B32 B 0.04998 -0.02375 1.00381
 B33 B 0.00325 -0.06326 0.99988
 B34 B -0.03889 -0.03923 0.95755
 B35 B -0.01696 0.01436 0.93782
 B36 B 0.03737 0.02487 0.96718
 B37 B 0.46982 0.53171 0.54804
 B38 B 0.44311 0.52646 0.49030
 B39 B 0.49003 0.56551 0.49608
 B40 B 0.53128 0.53960 0.53813
 B41 B 0.50997 0.48419 0.55522
 B42 B 0.45529 0.47649 0.52577
 B43 B 0.52319 0.48336 0.45015
 B44 B 0.55196 0.48748 0.50769
 B45 B 0.50522 0.44873 0.50195
 B46 B 0.46323 0.47448 0.46151
 B47 B 0.48487 0.52897 0.44506
 B48 B 0.53993 0.53770 0.47365
 B49 B 0.53215 0.98220 0.55078
 B50 B 0.56175 0.99135 0.49529
 B51 B 0.51694 0.94918 0.49658
 B52 B 0.47242 0.97011 0.53681
 B53 B 0.48878 1.02501 0.55752
 B54 B 0.54392 1.03907 0.53176
 B55 B 0.48005 1.02959 0.45178
 B56 B 0.44961 1.02116 0.50831
 B57 B 0.49322 1.06379 0.50733
 B58 B 0.53908 1.04260 0.46728
 B59 B 0.52359 0.98653 0.44739
 B60 B 0.46693 0.97389 0.47217
 B61 B 0.03010 0.47888 1.05731
 B62 B 0.06097 0.48237 1.00199
 B63 B 0.01603 0.44099 1.00608
 B64 B -0.02880 0.46557 1.04348
 B65 B -0.01319 0.52338 1.05938
 B66 B 0.04257 0.53397 1.03353
 B67 B -0.01895 0.51775 0.95372
 B68 B -0.05175 0.51277 1.00957
 B69 B -0.00800 0.55623 1.00454
 B70 B 0.03940 0.53139 0.96893
 B71 B 0.02381 0.47416 0.95365
 B72 B -0.03311 0.46361 0.97815
 B73 B 0.02330 0.52994 0.45847
 B74 B 0.05258 0.52083 0.51514
 B75 B 0.00307 0.55931 0.51443
 B76 B -0.03798 0.53608 0.47132
 B77 B -0.01341 0.48326 0.44838
 B78 B 0.04286 0.47371 0.47502
 B79 B -0.02559 0.47326 0.55198
 B80 B -0.05456 0.48128 0.49609
 B81 B -0.00547 0.44391 0.49618
 B82 B 0.03562 0.46636 0.53914
 B83 B 0.01172 0.51922 0.56194
 B84 B -0.04479 0.52901 0.53530
 B85 B 0.52520 0.01900 -0.04793
 B86 B 0.55636 0.01067 0.00799
 B87 B 0.50601 0.04801 0.00688
 B88 B 0.46437 0.02387 -0.03447
 B89 B 0.48910 -0.02903 -0.05666
 B90 B 0.54615 -0.03696 -0.03132
 B91 B 0.47805 -0.03689 0.04773
 B92 B 0.44852 -0.03026 -0.00853
 B93 B 0.49811 -0.06730 -0.00814
 B94 B 0.53963 -0.04364 0.03346
 B95 B 0.51571 0.00904 0.05546
 B96 B 0.45891 0.01802 0.02946
 B97 B 0.47645 0.46308 -0.06103
 B98 B 0.44743 0.47222 -0.00441
 B99 B 0.49675 0.43489 -0.00533
 B100 B 0.53763 0.45651 -0.04852
 B101 B 0.51365 0.50888 -0.07123
 B102 B 0.45716 0.51927 -0.04412
 B103 B 0.52573 0.52094 0.03270
 B104 B 0.55487 0.51122 -0.02408
 B105 B 0.50564 0.54962 -0.02310
 B106 B 0.46442 0.52730 0.02009
 B107 B 0.48887 0.47475 0.04316
 B108 B 0.54487 0.46462 0.01576
 B109 B -0.02103 0.97041 0.44576
 B110 B -0.05017 0.97818 0.50249
 B111 B -0.00134 0.93952 0.50113
 B112 B 0.04011 0.96258 0.45884
 B113 B 0.01649 1.01583 0.43778
 B114 B -0.03911 1.02658 0.46554
 B115 B 0.02826 1.02499 0.54186
 B116 B 0.05768 1.01668 0.48492
 B117 B 0.00877 1.05517 0.48742
 B118 B -0.03270 1.03192 0.52951
 B119 B -0.00914 0.97825 0.55059
 B120 B 0.04731 0.96903 0.52346
 B121 B 0.78301 0.22560 0.19568
 B122 B 0.77348 0.19570 0.25142
 B123 B 0.81075 0.24348 0.25191
 B124 B 0.78741 0.28630 0.21020
 B125 B 0.73504 0.26398 0.18674
 B126 B 0.72771 0.20753 0.21197
 B127 B 0.72407 0.27415 0.29154
 B128 B 0.73163 0.30363 0.23573
 B129 B 0.69576 0.25556 0.23422
 B130 B 0.71859 0.21370 0.27636
 B131 B 0.77089 0.23601 0.30008
 B132 B 0.78008 0.29183 0.27436
 B133 B 0.74293 0.77571 0.70480
 B134 B 0.74586 0.80900 0.76004
 B135 B 0.70456 0.76372 0.75424
 B136 B 0.73045 0.71743 0.71988
 B137 B 0.78600 0.73413 0.70551
 B138 B 0.79661 0.79151 0.72954
 B139 B 0.78283 0.72985 0.80903
 B140 B 0.77949 0.69745 0.75411
 B141 B 0.82106 0.74283 0.75725
 B142 B 0.79479 0.78844 0.79408
 B143 B 0.73696 0.77188 0.80867
 B144 B 0.72831 0.71474 0.78421
 B145 B 0.26025 0.27065 0.78752
 B146 B 0.25464 0.30098 0.73095
 B147 B 0.29321 0.25161 0.73325
 B148 B 0.26855 0.21012 0.77245
 B149 B 0.21463 0.23316 0.79215
 B150 B 0.20516 0.28912 0.76521
 B151 B 0.20839 0.22372 0.68802
 B152 B 0.21607 0.19313 0.74367
 B153 B 0.17653 0.24124 0.74296
 B154 B 0.20105 0.28377 0.70220
 B155 B 0.25569 0.26144 0.68260
 B156 B 0.26410 0.20437 0.70750
 B157 B 0.20893 0.73148 0.30842
 B158 B 0.21800 0.70221 0.25119
 B159 B 0.17962 0.75080 0.25215
 B160 B 0.20236 0.79228 0.29553
 B161 B 0.25567 0.76856 0.31760
 B162 B 0.26515 0.71204 0.29077
 B163 B 0.26587 0.78023 0.21498
 B164 B 0.25770 0.80889 0.27120
 B165 B 0.29556 0.75966 0.26977
 B166 B 0.27274 0.71928 0.22663
 B167 B 0.21972 0.74329 0.20409
 B168 B 0.20957 0.79879 0.23166
 B169 B 0.27544 0.72522 0.70639
 B170 B 0.27304 0.69161 0.76082
 B171 B 0.31330 0.73792 0.75766
 B172 B 0.28564 0.78354 0.72251
 B173 B 0.22863 0.76560 0.70881
 B174 B 0.22172 0.70818 0.73053
 B175 B 0.23401 0.76961 0.81233
 B176 B 0.23610 0.80288 0.75747
 B177 B 0.19617 0.75634 0.76228
 B178 B 0.22320 0.71056 0.79540
 B179 B 0.27872 0.72858 0.81017
 B180 B 0.28764 0.78634 0.78586
 B181 B 0.21951 0.27265 0.20120
 B182 B 0.23301 0.30123 0.25825
 B183 B 0.19495 0.25334 0.25781
 B184 B 0.21473 0.21236 0.21251
 B185 B 0.26581 0.23477 0.18691
 B186 B 0.27709 0.28988 0.21462
 B187 B 0.28374 0.21974 0.28911
 B188 B 0.27097 0.19285 0.23177
 B189 B 0.30898 0.24083 0.23242
 B190 B 0.28919 0.28097 0.27802
 B191 B 0.23823 0.25897 0.30373
 B192 B 0.22643 0.20438 0.27511
 B193 B 0.76519 0.77148 0.30027
 B194 B 0.76704 0.80132 0.24237
 B195 B 0.80610 0.75272 0.25233
 B196 B 0.77605 0.71109 0.28776
 B197 B 0.71950 0.73417 0.29847
 B198 B 0.71365 0.78969 0.26916
 B199 B 0.72905 0.72202 0.19494
 B200 B 0.72793 0.69364 0.25181
 B201 B 0.68881 0.74149 0.24375
 B202 B 0.71909 0.78224 0.20583
 B203 B 0.77676 0.75964 0.19566
 B204 B 0.78137 0.70394 0.22307
 B205 B 0.70873 0.22965 0.80222
 B206 B 0.71846 0.20039 0.74588
 B207 B 0.68126 0.25004 0.74659
 B208 B 0.70450 0.29081 0.78988
 B209 B 0.75612 0.26564 0.81293
 B210 B 0.76501 0.20921 0.78603
 B211 B 0.76823 0.27709 0.70866
 B212 B 0.76071 0.30600 0.76578
 B213 B 0.79697 0.25601 0.76527
 B214 B 0.77371 0.21610 0.72171
 B215 B 0.72139 0.24102 0.69864
 B216 B 0.71272 0.29698 0.72608
 C217 C 0.43891 0.98382 0.31324
 C218 C 0.39714 1.00996 0.30101
 C219 C 0.38557 1.04899 0.33666
 C220 C 0.41541 1.06046 0.37999
 C221 C 0.45607 1.03094 0.39311
 C222 C 0.46774 0.99408 0.35511
 C223 C 0.48432 0.94098 0.35507
 C224 C 0.45167 0.93130 0.31008
 H225 H 0.35235 1.07028 0.33260
 H226 H 0.40364 1.08947 0.40583
 H227 H 0.47179 0.91958 0.38820
 H228 H 0.52373 0.93650 0.34545
 H229 H 0.42096 0.90772 0.32087
 H230 H 0.47246 0.91964 0.27536
 C231 C -0.05997 0.47538 0.81779
 C232 C -0.09637 0.50807 0.80343
 C233 C -0.09839 0.55208 0.83425
 C234 C -0.06934 0.55880 0.87880
 C235 C -0.03772 0.52154 0.89528
 C236 C -0.03092 0.48206 0.85977
 C237 C -0.02032 0.42782 0.86124
 C238 C -0.05213 0.42199 0.81438
 H239 H -0.12530 0.58047 0.82803
 H240 H -0.07588 0.59044 0.90307
 H241 H -0.03638 0.40863 0.89433
 H242 H 0.01874 0.41867 0.85338
 H243 H -0.08546 0.40112 0.82269
 H244 H -0.03029 0.40993 0.78056
 C245 C 0.05507 -0.04676 0.79851
 C246 C 0.09243 -0.01140 0.79432
 C247 C 0.11202 0.00392 0.84142
 C248 C 0.09658 -0.01379 0.88791
 C249 C 0.05326 -0.04065 0.89324
 C250 C 0.03578 -0.06015 0.84683
 C251 C -0.01446 -0.06725 0.82823
 C252 C 0.00373 -0.04952 0.77692
 H253 H 0.14272 0.02782 0.84367
 H254 H 0.11637 0.00026 0.92052
 H255 H -0.04201 -0.04228 0.84624
 H256 H -0.02416 -0.10624 0.82762
 H257 H -0.01472 -0.01431 0.76895
 H258 H -0.00007 -0.07666 0.74565
 C259 C 0.53940 0.50051 0.30226
 C260 C 0.59036 0.50704 0.29445
 C261 C 0.61780 0.50501 0.34052
 C262 C 0.59779 0.49342 0.38796
 C263 C 0.54854 0.47949 0.39394
 C264 C 0.52113 0.48382 0.34847
 C265 C 0.46964 0.48135 0.33137
 C266 C 0.48811 0.50000 0.28011
 H267 H 0.65629 0.51090 0.34039
 H268 H 0.62136 0.50000 0.42026
 H269 H 0.44457 0.50776 0.35099
 H270 H 0.45671 0.44341 0.32954
 H271 H 0.47282 0.53709 0.27308
 H272 H 0.48210 0.47427 0.24787
 C273 C 0.61868 0.50364 0.14512
 C274 C 0.59310 0.50883 0.19124
 C275 C 0.54640 0.53238 0.18351
 C276 C 0.52614 0.54229 0.13357
 C277 C 0.55287 0.53280 0.08760
 C278 C 0.60098 0.51656 0.09760
 C279 C 0.64526 0.49548 0.07228
 C280 C 0.66602 0.48510 0.12452
 H281 H 0.52768 0.54906 0.21516
 H282 H 0.48912 0.55666 0.13118
 H283 H 0.66717 0.52268 0.05325
 H284 H 0.63806 0.46124 0.05181
 H285 H 0.69668 0.50921 0.13431
 H286 H 0.67323 0.44567 0.12891
 C287 C 0.12330 1.01122 0.65057
 C288 C 0.09713 1.00482 0.69555
 C289 C 0.04798 1.02309 0.69158
 C290 C 0.02659 1.03744 0.64353
 C291 C 0.05396 1.03642 0.59688
 C292 C 0.10353 1.02608 0.60501
 C293 C 0.15006 1.01432 0.57861
 C294 C 0.17323 1.00400 0.62999
 H295 H 0.02724 1.03085 0.72563
 H296 H -0.01195 1.04697 0.64272
 H297 H 0.16443 1.04647 0.56068
 H298 H 0.14723 0.98078 0.55578
 H299 H 0.19712 1.03368 0.64237
 H300 H 0.18948 0.96693 0.63133
 C301 C -0.12401 0.48886 0.65935
 C302 C -0.09880 0.49048 0.70551
 C303 C -0.04785 0.47922 0.70068
 C304 C -0.02662 0.46409 0.65283
 C305 C -0.05382 0.46389 0.60612
 C306 C -0.10440 0.47449 0.61307
 C307 C -0.14891 0.49660 0.58710
 C308 C -0.16869 0.51215 0.63895
 H309 H -0.02317 0.48252 0.73253
 H310 H 0.01253 0.45777 0.65170
 H311 H -0.17307 0.46881 0.57103
 H312 H -0.14156 0.52828 0.56234
 H313 H -0.20183 0.49344 0.65173
 H314 H -0.16972 0.55229 0.64336
 C315 C 0.37378 -0.02300 0.15507
 C316 C 0.39874 -0.01412 0.20099
 C317 C 0.45038 -0.02197 0.19699
 C318 C 0.47364 -0.03879 0.15068
 C319 C 0.44812 -0.04285 0.10326
 C320 C 0.39653 -0.03544 0.10864
 C321 C 0.35769 -0.00585 0.08070
 C322 C 0.33457 0.00664 0.13069
 H323 H 0.47453 -0.01222 0.22768
 H324 H 0.51310 -0.04220 0.15075
 H325 H 0.33117 -0.02715 0.05949
 H326 H 0.36974 0.02720 0.06076
 H327 H 0.29835 -0.00939 0.13596
 H328 H 0.33606 0.04635 0.13739
 C329 C 0.34427 0.37541 -0.01933
 C330 C 0.30120 0.39422 0.00329
 C331 C 0.30777 0.44012 0.02851
 C332 C 0.35337 0.46513 0.02747
 C333 C 0.39527 0.44488 0.00248
 C334 C 0.38804 0.39830 -0.01911
 C335 C 0.41230 0.35927 -0.05201
 C336 C 0.36388 0.33528 -0.05299
 H337 H 0.27743 0.45794 0.04791
 H338 H 0.35543 0.50055 0.04560
 H339 H 0.43864 0.33453 -0.03298
 H340 H 0.42352 0.36885 -0.09127
 H341 H 0.36597 0.29949 -0.03361
 H342 H 0.34853 0.33638 -0.09252
 C343 C -0.15798 0.89058 0.47432
 C344 C -0.19958 0.90737 0.50151
 C345 C -0.19087 0.94956 0.53251
 C346 C -0.14445 0.97302 0.53343
 C347 C -0.10386 0.95421 0.50506
 C348 C -0.11351 0.91201 0.47656
 C349 C -0.08845 0.87289 0.44523
 C350 C -0.13711 0.84916 0.44300
 H351 H -0.21995 0.96443 0.55650
 H352 H -0.14033 1.00531 0.55691
 H353 H -0.06171 0.84984 0.46604
 H354 H -0.07699 0.88218 0.40607
 H355 H -0.13503 0.81419 0.46403
 H356 H -0.15181 0.84820 0.40317
 C357 C -0.19657 0.05582 0.94887
 C358 C -0.20576 0.09724 0.98114
 C359 C -0.16175 0.11531 1.00265
 C360 C -0.11745 0.08948 1.00172
 C361 C -0.11091 0.04421 0.97607
 C362 C -0.15182 0.03066 0.94744
 C363 C -0.16758 -0.00643 0.90995
 C364 C -0.21672 0.02163 0.90898
 H365 H -0.16040 0.14790 1.02538
 H366 H -0.08934 0.10456 1.02567
 H367 H -0.16969 -0.04298 0.92752
 H368 H -0.14694 -0.00480 0.87319
 H369 H -0.24768 -0.00051 0.92155
 H370 H -0.22300 0.03982 0.87145
 C371 C 0.30158 0.54619 0.47194
 C372 C 0.29318 0.59456 0.49001
 C373 C 0.33595 0.62231 0.49291
 C374 C 0.38168 0.59982 0.49631
 C375 C 0.38995 0.55086 0.48130
 C376 C 0.34831 0.52757 0.46276
 C377 C 0.33144 0.47880 0.44661
 C378 C 0.27964 0.49799 0.45859
 H379 H 0.33370 0.66083 0.50181
 H380 H 0.40910 0.62133 0.51447
 H381 H 0.34339 0.44810 0.47101
 H382 H 0.33776 0.47234 0.40482
 H383 H 0.26353 0.47974 0.49226
 H384 H 0.25645 0.49749 0.42383
 C385 C 0.19473 0.54462 0.53255
 C386 C 0.19805 0.59310 0.51556
 C387 C 0.15304 0.61673 0.50472
 C388 C 0.10942 0.59320 0.50543
 C389 C 0.10491 0.54579 0.52358
 C390 C 0.14893 0.52144 0.53655
 C391 C 0.16184 0.50002 0.58723
 C392 C 0.21068 0.52441 0.58302
 H393 H 0.15077 0.65364 0.49116
 H394 H 0.08029 0.61165 0.48589
 H395 H 0.16475 0.45973 0.58525
 H396 H 0.13865 0.51475 0.61914
 H397 H 0.24093 0.49767 0.57814
 H398 H 0.21649 0.55288 0.61287
 C399 C 0.69944 0.03697 -0.00216
 C400 C 0.70156 0.08702 0.01081
 C401 C 0.65892 0.10721 0.03321
 C402 C 0.61579 0.08134 0.03726
 C403 C 0.61077 0.03391 0.01725
 C404 C 0.65459 0.01128 -0.00022
 C405 C 0.67798 -0.03153 0.02486
 C406 C 0.72469 -0.00371 0.02619
 H407 H 0.65848 0.14415 0.04759
 H408 H 0.58679 0.10029 0.05612
 H409 H 0.67961 -0.06359 -0.00142
 H410 H 0.66289 -0.03879 0.06373
 H411 H 0.75466 -0.02216 0.00442
 H412 H 0.73491 0.00704 0.06592
 C413 C 0.70562 0.96538 0.48342
 C414 C 0.70678 0.91562 0.49759
 C415 C 0.66171 0.89411 0.50218
 C416 C 0.62075 0.92140 0.50995
 C417 C 0.61613 0.96879 0.49224
 C418 C 0.66014 0.99070 0.47792
 C419 C 0.67428 1.01325 0.42872
 C420 C 0.72312 0.98665 0.43430
 H421 H 0.65876 0.85500 0.50497
 H422 H 0.59168 0.90259 0.52783
 H423 H 0.67701 1.05333 0.43230
 H424 H 0.65229 1.00015 0.39564
 H425 H 0.75431 1.01122 0.44036
 H426 H 0.72915 0.95795 0.40504
 C427 C 0.20108 0.44685 0.97748
 C428 C 0.20604 0.40057 1.00039
 C429 C 0.16146 0.38288 1.01993
 C430 C 0.12033 0.41229 1.02588
 C431 C 0.11479 0.45742 1.00079
 C432 C 0.15703 0.47242 0.97531
 C433 C 0.17643 0.51006 0.94070
 C434 C 0.22545 0.48134 0.94229
 H435 H 0.15795 0.34634 1.03364
 H436 H 0.09163 0.39675 1.04849
 H437 H 0.17765 0.54625 0.95985
 H438 H 0.15865 0.50948 0.90229
 H439 H 0.25505 0.50165 0.96143
 H440 H 0.23549 0.46412 0.90481
 C441 C -0.03404 0.33807 0.39727
 C442 C -0.00314 0.29831 0.40834
 C443 C 0.02551 0.30595 0.45375
 C444 C 0.02463 0.35056 0.48276
 C445 C -0.00711 0.38975 0.46965
 C446 C -0.03655 0.37995 0.42622
 C447 C -0.07153 0.40401 0.38975
 C448 C -0.06870 0.35795 0.35798
 H449 H 0.04764 0.27681 0.46874
 H450 H 0.04858 0.35402 0.51564
 H451 H -0.05589 0.43495 0.36897
 H452 H -0.10882 0.41006 0.40490
 H453 H -0.05149 0.36567 0.32037
 H454 H -0.10385 0.33844 0.35675
 C455 C 0.46686 -0.17771 -0.10014
 C456 C 0.50835 -0.20883 -0.10022
 C457 C 0.54446 -0.19612 -0.06326
 C458 C 0.53885 -0.15467 -0.02988
 C459 C 0.49784 -0.12229 -0.03313
 C460 C 0.46245 -0.13646 -0.06975
 C461 C 0.43057 -0.11145 -0.10909
 C462 C 0.43490 -0.15675 -0.14149
 H463 H 0.57762 -0.21806 -0.06061
 H464 H 0.56849 -0.14618 -0.00404
 H465 H 0.44741 -0.08052 -0.12900
 H466 H 0.39221 -0.10543 -0.09675
 H467 H 0.45349 -0.15053 -0.17849
 H468 H 0.39904 -0.17425 -0.14505
 C469 C 0.03265 -0.17230 1.09457
 C470 C -0.00670 -0.20404 1.09127
 C471 C -0.04177 -0.19094 1.05307
 C472 C -0.03555 -0.15037 1.01937
 C473 C 0.00617 -0.12026 1.02145
 C474 C 0.03869 -0.13272 1.06191
 C475 C 0.09289 -0.14081 1.06356
 C476 C 0.08596 -0.18171 1.10043
 H477 H -0.07406 -0.21256 1.04869
 H478 H -0.06472 -0.14150 0.99276
 H479 H 0.11188 -0.11021 1.08198
 H480 H 0.10805 -0.15464 1.02670
 H481 H 0.09979 -0.17278 1.13943
 H482 H 0.09861 -0.21723 1.08467
 C483 C 0.53835 0.33027 0.58122
 C484 C 0.49360 0.30807 0.58898
 C485 C 0.45497 0.32706 0.55824
 C486 C 0.46184 0.36585 0.52314
 C487 C 0.50708 0.39007 0.51800
 C488 C 0.54524 0.37060 0.54923
 C489 C 0.59329 0.34618 0.53386
 C490 C 0.58522 0.30547 0.56947
 H491 H 0.41902 0.31218 0.56026
 H492 H 0.43005 0.37927 0.50252
 H493 H 0.62524 0.36673 0.54758
 H494 H 0.59426 0.33371 0.49300
 H495 H 0.61094 0.30569 0.60255
 H496 H 0.58121 0.27008 0.54918
 C497 C 0.48070 1.16992 0.61286
 C498 C 0.48799 1.21442 0.58917
 C499 C 0.49067 1.21082 0.53389
 C500 C 0.48950 1.16457 0.50665
 C501 C 0.48700 1.11958 0.53314
 C502 C 0.48372 1.12619 0.58752
 C503 C 0.49681 1.10067 0.63720
 C504 C 0.48887 1.14897 0.66486
 H505 H 0.49480 1.24325 0.51131
 H506 H 0.49278 1.16415 0.46514
 H507 H 0.53579 1.08844 0.63788
 H508 H 0.47125 1.07255 0.65005
 H509 H 0.52191 1.16084 0.68509
 H510 H 0.45504 1.15032 0.68855
 C511 C 0.02503 0.68965 1.04856
 C512 C -0.01292 0.70479 1.08284
 C513 C -0.05686 0.67979 1.07133
 C514 C -0.05782 0.63735 1.03857
 C515 C -0.01517 0.61581 1.01584
 C516 C 0.02429 0.64744 1.01884
 C517 C 0.07447 0.65309 0.99866
 C518 C 0.07525 0.70084 1.02959
 H519 H -0.09118 0.69275 1.08748
 H520 H -0.09261 0.62286 1.02985
 H521 H 0.07499 0.65842 0.95633
 H522 H 0.10038 0.62488 1.01325
 H523 H 0.07423 0.73341 1.00470
 H524 H 0.10457 0.70051 1.05888
 C525 C 0.52228 0.69314 -0.05046
 C526 C 0.51793 0.69726 -0.10510
 C527 C 0.50828 0.65292 -0.13032
 C528 C 0.50323 0.60915 -0.10421
 C529 C 0.50810 0.60455 -0.04972
 C530 C 0.51775 0.64851 -0.02427
 C531 C 0.49212 0.67100 0.02046
 C532 C 0.49631 0.71922 -0.00695
 H533 H 0.49997 0.65211 -0.17097
 H534 H 0.49319 0.57908 -0.12864
 H535 H 0.51437 0.66866 0.05613
 H536 H 0.45388 0.65872 0.02424
 H537 H 0.52036 0.74442 0.01429
 H538 H 0.46037 0.73523 -0.01824
 C539 C -0.00903 1.19796 0.46048
 C540 C 0.00515 1.20414 0.40819
 C541 C 0.02325 1.16092 0.38469
 C542 C 0.02775 1.11691 0.41126
 C543 C 0.00986 1.11026 0.46261
 C544 C -0.00783 1.15341 0.48519
 C545 C -0.03229 1.17182 0.53247
 C546 C -0.03336 1.22180 0.50638
 H547 H 0.03456 1.16068 0.34478
 H548 H 0.04507 1.08789 0.38932
 H549 H -0.00792 1.16973 0.56659
 H550 H -0.06906 1.15623 0.53755
 H551 H -0.00984 1.24793 0.52688
 H552 H -0.07083 1.23591 0.49878
 C553 C 0.73173 0.67238 0.93226
 C554 C 0.76588 0.63841 0.95009
 C555 C 0.81312 0.64177 0.92631
 C556 C 0.82122 0.67185 0.88244
 C557 C 0.78455 0.70469 0.86525
 C558 C 0.74205 0.70618 0.89647
 C559 C 0.69149 0.72868 0.90061
 C560 C 0.68069 0.69104 0.94071
 H561 H 0.84396 0.62088 0.94055
 H562 H 0.85568 0.66902 0.86209
 H563 H 0.66790 0.72380 0.86642
 H564 H 0.69191 0.76628 0.91648
 H565 H 0.65257 0.66552 0.92695
 H566 H 0.67392 0.70779 0.97910
 C567 C 0.25929 0.12544 0.39455
 C568 C 0.26736 0.14696 0.44215
 C569 C 0.29829 0.18808 0.43865
 C570 C 0.30984 0.20983 0.38957
 C571 C 0.29683 0.18775 0.34151
 C572 C 0.27775 0.14067 0.34822
 C573 C 0.24446 0.10485 0.32228
 C574 C 0.22320 0.09208 0.37278
 H575 H 0.31158 0.20501 0.47345
 H576 H 0.32642 0.24515 0.38951
 H577 H 0.26650 0.07362 0.30904
 H578 H 0.21506 0.11697 0.29609
 H579 H 0.22951 0.05347 0.38137
 H580 H 0.18494 0.10575 0.37745
 C581 C 0.75293 0.36710 0.40143
 C582 C 0.74485 0.34643 0.44955
 C583 C 0.71831 0.30175 0.44483
 C584 C 0.70699 0.27954 0.39545
 C585 C 0.71549 0.30329 0.34761
 C586 C 0.73535 0.34971 0.35553
 C587 C 0.75185 0.39377 0.32785
 C588 C 0.76859 0.41351 0.37867
 H589 H 0.70384 0.28464 0.47865
 H590 H 0.69168 0.24364 0.39494
 H591 H 0.72082 0.41626 0.31432
 H592 H 0.78265 0.38754 0.30061
 H593 H 0.74497 0.44486 0.39053
 H594 H 0.80866 0.41842 0.37980
 C595 C 0.20151 0.81012 0.95571
 C596 C 0.24498 0.83519 0.96925
 C597 C 0.28568 0.82382 0.93956
 C598 C 0.28067 0.80305 0.89256
 C599 C 0.23466 0.78962 0.87113
 C600 C 0.19534 0.79010 0.90565
 C601 C 0.17126 0.74627 0.92602
 C602 C 0.17976 0.76621 0.97948
 H603 H 0.32223 0.83384 0.94932
 H604 H 0.31516 0.80049 0.87305
 H605 H 0.19225 0.71205 0.91780
 H606 H 0.13201 0.74538 0.91531
 H607 H 0.20591 0.74320 1.00144
 H608 H 0.14556 0.77525 1.00032
 C609 C 0.25363 0.87983 0.10888
 C610 C 0.24921 0.85192 0.06398
 C611 C 0.26439 0.80211 0.06940
 C612 C 0.27947 0.78207 0.11659
 C613 C 0.27757 0.80938 0.16255
 C614 C 0.26739 0.86008 0.15603
 C615 C 0.23711 0.89849 0.18395
 C616 C 0.21958 0.91606 0.13312
 H617 H 0.26902 0.77820 0.03674
 H618 H 0.28854 0.74360 0.11749
 H619 H 0.26005 0.92640 0.20193
 H620 H 0.20603 0.88757 0.20799
 H621 H 0.22909 0.95427 0.12710
 H622 H 0.18067 0.90753 0.12666
 C623 C 0.75305 0.37704 0.59956
 C624 C 0.74977 0.35160 0.55234
 C625 C 0.76468 0.30152 0.55704
 C626 C 0.77664 0.27940 0.60539
 C627 C 0.77542 0.30558 0.65292
 C628 C 0.76598 0.35616 0.64654
 C629 C 0.73909 0.39578 0.67588
 C630 C 0.72305 0.41596 0.62506
 H631 H 0.77114 0.27924 0.52336
 H632 H 0.78497 0.24079 0.60561
 H633 H 0.76386 0.42104 0.69575
 H634 H 0.70707 0.38572 0.69901
 H635 H 0.73707 0.45266 0.61910
 H636 H 0.68321 0.41151 0.61878
 C637 C 0.23750 0.20135 0.54465
 C638 C 0.24044 0.15027 0.54063
 C639 C 0.22209 0.12562 0.58368
 C640 C 0.19998 0.14904 0.62598
 C641 C 0.19802 0.20003 0.63111
 C642 C 0.21647 0.22472 0.58779
 C643 C 0.19327 0.26359 0.55624
 C644 C 0.21728 0.23953 0.50969
 H645 H 0.22465 0.08679 0.58397
 H646 H 0.18786 0.12572 0.65572
 H647 H 0.20806 0.29993 0.56538
 H648 H 0.15275 0.26172 0.55589
 H649 H 0.24604 0.26228 0.49264
 H650 H 0.19091 0.22518 0.48198
 C651 C 0.74369 0.68950 0.04657
 C652 C 0.74368 0.63821 0.04469
 C653 C 0.72891 0.61590 0.09027
 C654 C 0.72296 0.64210 0.13609
 C655 C 0.72373 0.69374 0.13922
 C656 C 0.73352 0.71629 0.09158
 C657 C 0.76954 0.75405 0.07598
 C658 C 0.77973 0.72485 0.02747
 H659 H 0.72758 0.57672 0.09164
 H660 H 0.72439 0.61910 0.16860
 H661 H 0.80306 0.75551 0.09976
 H662 H 0.75157 0.78985 0.06849
 H663 H 0.81746 0.70915 0.02554
 H664 H 0.76741 0.74454 -0.00740
 C665 C 0.12780 0.59272 0.25209
 C666 C 0.15882 0.55082 0.25279
 C667 C 0.20897 0.56032 0.24124
 C668 C 0.22541 0.60784 0.23028
 C669 C 0.19533 0.64900 0.24092
 C670 C 0.14568 0.63916 0.24934
 C671 C 0.10605 0.66091 0.28264
 C672 C 0.08735 0.61099 0.28708
 H673 H 0.23745 0.53356 0.24473
 H674 H 0.26399 0.61247 0.22316
 H675 H 0.07737 0.68294 0.26346
 H676 H 0.11830 0.67624 0.31973
 H677 H 0.05059 0.60775 0.26968
 H678 H 0.09068 0.60054 0.32778
 C679 C 0.62901 0.09145 0.74746
 C680 C 0.65991 0.05014 0.75209
 C681 C 0.71069 0.05846 0.74645
 C682 C 0.72847 0.10568 0.73787
 C683 C 0.69679 0.14705 0.73818
 C684 C 0.64642 0.13767 0.74202
 C685 C 0.60357 0.15908 0.77181
 C686 C 0.58399 0.10889 0.77512
 H687 H 0.73721 0.02906 0.74902
 H688 H 0.76759 0.11004 0.73553
 H689 H 0.57685 0.18161 0.75047
 H690 H 0.61293 0.17443 0.80993
 H691 H 0.55069 0.10524 0.75148
 H692 H 0.58009 0.09861 0.81569
 C693 C 0.78880 0.05270 0.26088
 C694 C 0.83945 0.04456 0.25067
 C695 C 0.86762 0.08692 0.25110
 C696 C 0.84635 0.13290 0.24879
 C697 C 0.79615 0.14149 0.25781
 C698 C 0.76839 0.09982 0.26578
 C699 C 0.72087 0.08562 0.24305
 C700 C 0.74223 0.03451 0.23775
 H701 H 0.90690 0.08480 0.24786
 H702 H 0.87009 0.16077 0.23574
 H703 H 0.71327 0.10290 0.20533
 H704 H 0.69058 0.08862 0.27147
 H705 H 0.74546 0.02222 0.19741
 H706 H 0.72233 0.00891 0.26241
 C707 C 0.33722 0.56644 0.80057
 C708 C 0.33029 0.53686 0.75713
 C709 C 0.29459 0.55456 0.72197
 C710 C 0.27303 0.60130 0.72687
 C711 C 0.29018 0.63486 0.76356
 C712 C 0.31967 0.61423 0.80256
 C713 C 0.36453 0.62914 0.83067
 C714 C 0.38127 0.57691 0.83174
 H715 H 0.28415 0.53312 0.68923
 H716 H 0.24606 0.61226 0.69863
 H717 H 0.35686 0.64388 0.86984
 H718 H 0.39008 0.64861 0.80558
 H719 H 0.37941 0.56148 0.87105
 H720 H 0.41637 0.57009 0.81137
 C721 C 0.28100 0.44203 0.74481
 C722 C 0.33090 0.44637 0.73291
 C723 C 0.35297 0.40311 0.71345
 C724 C 0.32608 0.36031 0.70563
 C725 C 0.27807 0.35480 0.72528
 C726 C 0.25673 0.39863 0.74302
 C727 C 0.21177 0.42078 0.76650
 C728 C 0.23854 0.46890 0.76810
 H729 H 0.39092 0.40311 0.70176
 H730 H 0.34444 0.33167 0.68489
 H731 H 0.20474 0.40893 0.80594
 H732 H 0.18001 0.42061 0.73992
 H733 H 0.24605 0.48213 0.80777
 H734 H 0.22155 0.49607 0.74197
 C735 C 0.79722 0.94040 0.26773
 C736 C 0.83717 0.94939 0.23633
 C737 C 0.84717 0.91202 0.19921
 C738 C 0.81819 0.86980 0.19514
 C739 C 0.78558 0.85735 0.23501
 C740 C 0.77229 0.89692 0.26699
 C741 C 0.76045 0.90321 0.32222
 C742 C 0.78728 0.94987 0.32288
 H743 H 0.87760 0.91482 0.17290
 H744 H 0.82699 0.84378 0.16491
 H745 H 0.78162 0.87756 0.34610
 H746 H 0.72064 0.90878 0.32885
 H747 H 0.81895 0.94530 0.34866
 H748 H 0.76375 0.98229 0.33048
 C749 C 0.68351 0.92997 0.80938
 C750 C 0.67638 0.95783 0.76443
 C751 C 0.70696 0.94233 0.72265
 C752 C 0.73453 0.89809 0.72374
 C753 C 0.73030 0.86563 0.76523
 C754 C 0.70914 0.88639 0.80954
 C755 C 0.69229 0.87305 0.86196
 C756 C 0.66264 0.92077 0.86171
 H757 H 0.70782 0.96260 0.68749
 H758 H 0.75543 0.88773 0.68996
 H759 H 0.72269 0.87290 0.89025
 H760 H 0.66920 0.84066 0.86327
 H761 H 0.67542 0.94685 0.89138
 H762 H 0.62258 0.91517 0.86102
 C763 C 0.16014 0.41966 0.30805
 C764 C 0.17214 0.45594 0.27267
 C765 C 0.21548 0.44420 0.24444
 C766 C 0.23868 0.39720 0.24627
 C767 C 0.21641 0.35774 0.27141
 C768 C 0.17922 0.37279 0.30575
 C769 C 0.13588 0.35392 0.33326
 C770 C 0.11588 0.40527 0.33705
 H771 H 0.22731 0.46706 0.21400
 H772 H 0.26981 0.39052 0.22135
 H773 H 0.14509 0.33862 0.37150
 H774 H 0.11128 0.33357 0.30793
 H775 H 0.11537 0.41929 0.37730
 H776 H 0.08124 0.41057 0.31556
 C777 C 0.07154 0.20876 0.84401
 C778 C 0.03753 0.24705 0.84273
 C779 C 0.04497 0.28063 0.80162
 C780 C 0.08549 0.27623 0.76656
 C781 C 0.12188 0.23903 0.77147
 C782 C 0.11205 0.20609 0.81241
 C783 C 0.14057 0.17924 0.85371
 C784 C 0.09568 0.18264 0.88721
 H785 H 0.01984 0.31122 0.79743
 H786 H 0.09004 0.30408 0.73791
 H787 H 0.17044 0.19981 0.87194
 H788 H 0.15026 0.14098 0.84382
 H789 H 0.10108 0.20635 0.92125
 H790 H 0.07984 0.14660 0.89487
 C791 C 0.55427 0.78183 0.29393
 C792 C 0.54275 0.75011 0.33511
 C793 C 0.57652 0.71054 0.33817
 C794 C 0.61811 0.70584 0.30599
 C795 C 0.63073 0.73949 0.26598
 C796 C 0.59474 0.77641 0.26140
 C797 C 0.58821 0.82585 0.23961
 C798 C 0.54271 0.83156 0.27416
 H799 H 0.57374 0.68365 0.36796
 H800 H 0.64304 0.67732 0.31776
 H801 H 0.57964 0.82483 0.19784
 H802 H 0.61815 0.85035 0.25095
 H803 H 0.50800 0.83322 0.25211
 H804 H 0.54659 0.86058 0.30353
 C805 C 0.55865 0.28627 0.17760
 C806 C 0.54804 0.24750 0.14625
 C807 C 0.58730 0.21307 0.14332
 C808 C 0.62679 0.21294 0.17868
 C809 C 0.64393 0.25602 0.20390
 C810 C 0.62009 0.29734 0.18387
 C811 C 0.60438 0.37560 0.19661
 C812 C 0.53125 0.35055 0.18476
 H813 H 0.58718 0.18343 0.11591
 H814 H 0.64599 0.17844 0.18191
 H815 H 0.61892 0.40182 0.16843
 H816 H 0.60361 0.36358 0.30570
 H817 H 0.51535 0.36708 0.14975
 H818 H 0.50275 0.35282 0.21555
 C819 C 0.07838 0.80132 0.69389
 C820 C 0.06049 0.75793 0.67188
 C821 C 0.08316 0.71512 0.69112
 C822 C 0.11601 0.71537 0.73273
 C823 C 0.13692 0.75869 0.75145
 C824 C 0.11481 0.80137 0.73256
 C825 C 0.08674 0.83936 0.76243
 C826 C 0.05156 0.84334 0.71764
 H827 H 0.07658 0.68023 0.67461
 H828 H 0.13021 0.68041 0.74522
 H829 H 0.10742 0.87242 0.77013
 H830 H 0.07012 0.82488 0.79796
 H831 H 0.05648 0.87674 0.69466
 H832 H 0.01336 0.83703 0.72863
 C833 C 0.96431 0.76167 0.72722
 C834 C 0.96770 0.75326 0.67286
 C835 C 0.92438 0.73954 0.64945
 C836 C 0.88375 0.72886 0.67807
 C837 C 0.87737 0.74160 0.73167
 C838 C 0.91968 0.75900 0.75523
 C839 C 0.94475 0.73706 0.80051
 C840 C 0.99210 0.73881 0.77058
 H841 H 0.92299 0.73238 0.60841
 H842 H 0.85732 0.70915 0.65588
 H843 H 0.93285 0.69946 0.80836
 H844 H 0.94375 0.76187 0.83447
 H845 H 1.00706 0.70212 0.76108
 H846 H 1.01855 0.76343 0.78861
 C847 C 0.45034 0.25747 0.20192
 C848 C 0.45431 0.24419 0.14892
 C849 C 0.40965 0.23783 0.12336
 C850 C 0.36526 0.23962 0.14926
 C851 C 0.36186 0.24463 0.20400
 C852 C 0.40535 0.25788 0.22834
 C853 C 0.42716 0.24092 0.27740
 C854 C 0.47596 0.23961 0.24935
 H855 H 0.40890 0.23195 0.08208
 H856 H 0.33427 0.23343 0.12470
 H857 H 0.41447 0.20457 0.28913
 H858 H 0.42470 0.26935 0.30796
 H859 H 0.49225 0.20261 0.24520
 H860 H 0.50069 0.26681 0.26548
 C861 C 0.40353 0.76187 0.37343
 C862 C 0.44817 0.76086 0.34623
 C863 C 0.44222 0.75755 0.29132
 C864 C 0.39556 0.75746 0.26658
 C865 C 0.35161 0.76114 0.29485
 C866 C 0.35799 0.76470 0.34900
 C867 C 0.33412 0.73569 0.38994
 C868 C 0.38322 0.72720 0.41275
 H869 H 0.47309 0.75192 0.26624
 H870 H 0.39400 0.75349 0.22513
 H871 H 0.31771 0.70127 0.37669
 H872 H 0.31038 0.75923 0.41477
 H873 H 0.39299 0.68859 0.40666
 H874 H 0.38321 0.73744 0.45370
 C875 C 0.90000 0.25998 0.87477
 C876 C 0.94496 0.25496 0.84991
 C877 C 0.94102 0.24105 0.79650
 C878 C 0.89550 0.23912 0.76991
 C879 C 0.85163 0.25481 0.79360
 C880 C 0.85542 0.26258 0.84777
 C881 C 0.83125 0.23199 0.88757
 C882 C 0.87960 0.22444 0.91207
 H883 H 0.97260 0.22861 0.77491
 H884 H 0.89511 0.22756 0.72999
 H885 H 0.81646 0.19721 0.87312
 H886 H 0.80535 0.25419 0.91132
 H887 H 0.89218 0.18640 0.90599
 H888 H 0.88022 0.23522 0.95243
 C889 C 0.62602 1.00876 0.65967
 C890 C 0.60939 0.98871 0.70562
 C891 C 0.57146 0.95450 0.69745
 C892 C 0.54742 0.94910 0.64829
 C893 C 0.56444 0.97282 0.60344
 C894 C 0.60786 0.99869 0.61204
 C895 C 0.64298 1.03331 0.58775
 C896 C 0.66165 1.04472 0.64060
 H897 H 0.55842 0.93362 0.72927
 H898 H 0.51510 0.92728 0.64587
 H899 H 0.62698 1.06616 0.56939
 H900 H 0.67292 1.01479 0.56668
 H901 H 0.65256 1.08290 0.65127
 H902 H 0.70053 1.03367 0.64576
 C903 C 0.12910 0.50057 1.16230
 C904 C 0.10943 0.48656 1.20952
 C905 C 0.06805 0.45626 1.20441
 C906 C 0.04320 0.45044 1.15603
 C907 C 0.06147 0.47107 1.11012
 C908 C 0.10748 0.49269 1.11585
 C909 C 0.14042 0.52837 1.08995
 C910 C 0.16422 0.53612 1.14132
 H911 H 0.05369 0.43841 1.23771
 H912 H 0.00907 0.43136 1.15511
 H913 H 0.12241 0.56252 1.07692
 H914 H 0.16713 0.51225 1.06271
 H915 H 0.15767 0.57415 1.15441
 H916 H 0.20274 0.52267 1.14246
 C917 C -0.12968 0.01303 1.14714
 C918 C -0.10290 0.00512 1.19228
 C919 C -0.05337 0.01961 1.18908
 C920 C -0.03233 0.03432 1.14170
 C921 C -0.05930 0.03405 1.09491
 C922 C -0.10969 0.02675 1.10130
 C923 C -0.15310 0.00734 1.07283
 C924 C -0.17593 -0.00388 1.12395
 H925 H -0.03049 0.02063 1.22278
 H926 H 0.00644 0.04120 1.14105
 H927 H -0.14503 -0.02601 1.04974
 H928 H -0.17582 0.03497 1.05349
 H929 H -0.18445 -0.04275 1.12574
 H930 H -0.20669 0.02119 1.13298
 C931 C 0.37184 0.50060 0.64726
 C932 C 0.39202 0.50692 0.69564
 C933 C 0.43181 0.53969 0.69553
 C934 C 0.45585 0.55298 0.64850
 C935 C 0.43580 0.54122 0.59956
 C936 C 0.38811 0.52220 0.60319
 C937 C 0.35169 0.49245 0.57367
 C938 C 0.33651 0.46835 0.62224
 H939 H 0.44548 0.55383 0.73135
 H940 H 0.49070 0.57069 0.65065
 H941 H 0.36648 0.46488 0.54692
 H942 H 0.32132 0.51546 0.55966
 H943 H 0.34822 0.42956 0.62141
 H944 H 0.29811 0.47512 0.63357
 C945 C 0.44463 0.46178 -0.20806
 C946 C 0.39430 0.47436 -0.20969
 C947 C 0.36967 0.46642 -0.16294
 C948 C 0.39500 0.45912 -0.11681
 C949 C 0.44670 0.45116 -0.11433
 C950 C 0.46857 0.44771 -0.16328
 C951 C 0.51774 0.44975 -0.18741
 C952 C 0.49163 0.46491 -0.23708
 H953 H 0.33054 0.47235 -0.16054
 H954 H 0.37286 0.46629 -0.08366
 H955 H 0.53569 0.41334 -0.18993
 H956 H 0.54069 0.47888 -0.17118
 H957 H 0.49421 0.43811 -0.26900
 H958 H 0.50225 0.50205 -0.24755
 C959 C -0.05303 0.96399 0.29559
 C960 C -0.09885 0.98832 0.29232
 C961 C -0.11753 1.00391 0.34027
 C962 C -0.09789 0.98766 0.38664
 C963 C -0.05108 0.96413 0.39059
 C964 C -0.02823 0.95526 0.34246
 C965 C -0.00659 0.90919 0.32043
 C966 C -0.03346 0.91955 0.27021
 H967 H -0.15131 1.02475 0.34323
 H968 H -0.11872 0.99858 0.42020
 H969 H -0.01926 0.87606 0.34005
 H970 H 0.03371 0.91124 0.31653
 H971 H -0.06245 0.89319 0.26149
 H972 H -0.00869 0.92795 0.23776
 C973 C 0.05117 0.51498 0.31224
 C974 C 0.10243 0.50768 0.30892
 C975 C 0.12705 0.51661 0.35571
 C976 C 0.10302 0.53188 0.40101
 C977 C 0.05152 0.54014 0.40411
 C978 C 0.02827 0.53350 0.35612
 C979 C -0.02045 0.53772 0.33126
 C980 C 0.00430 0.51711 0.28244
 H981 H 0.16604 0.51037 0.35735
 H982 H 0.12610 0.53171 0.43393
 H983 H -0.03276 0.57622 0.32741
 H984 H -0.04793 0.51353 0.34799
 H985 H 0.00471 0.54300 0.24995
 H986 H -0.00965 0.48069 0.27244
 C987 C 0.55395 -0.00158 -0.18991
 C988 C 0.60485 0.00469 -0.19330
 C989 C 0.62680 0.02503 -0.14842
 C990 C 0.59922 0.04151 -0.10563
 C991 C 0.54856 0.03480 -0.10247
 C992 C 0.52770 0.01452 -0.14705
 C993 C 0.48375 0.02909 -0.17697
 C994 C 0.51059 0.00898 -0.22393
 H995 H 0.66567 0.03136 -0.14794
 H996 H 0.61798 0.06016 -0.07539
 H997 H 0.47805 0.06917 -0.17790
 H998 H 0.45122 0.00793 -0.16631
 H999 H 0.51687 0.03578 -0.25451
 H1000 H 0.49310 -0.02461 -0.23811
 C1001 C 0.69724 0.53314 -0.04407
 C1002 C 0.70380 0.57788 -0.01593
 C1003 C 0.65948 0.60143 -0.00081
 C1004 C 0.61414 0.58124 -0.00727
 C1005 C 0.60751 0.53632 -0.03179
 C1006 C 0.64979 0.51472 -0.05394
 C1007 C 0.66506 0.46302 -0.05247
 C1008 C 0.71364 0.48062 -0.03344
 H1009 H 0.65857 0.63545 0.02001
 H1010 H 0.58511 0.59920 0.01372
 H1011 H 0.66702 0.44738 -0.09204
 H1012 H 0.64510 0.43989 -0.02556
 H1013 H 0.74238 0.46289 -0.05699
 H1014 H 0.72013 0.47368 0.00801
 C1015 C 0.19899 1.03880 0.46967
 C1016 C 0.20524 1.08915 0.48133
 C1017 C 0.16028 1.11540 0.48468
 C1018 C 0.11553 1.09209 0.48802
 C1019 C 0.10997 1.04220 0.47565
 C1020 C 0.15353 1.01854 0.46033
 C1021 C 0.17333 0.96797 0.45732
 C1022 C 0.22308 0.98925 0.47051
 H1023 H 0.15944 1.15377 0.49255
 H1024 H 0.08694 1.11362 0.50565
 H1025 H 0.17119 0.95387 0.41730
 H1026 H 0.15915 0.94252 0.48608
 H1027 H 0.24988 0.98160 0.43968
 H1028 H 0.23593 0.97940 0.50969
 C1029 C 0.19146 -0.04648 1.03627
 C1030 C 0.20350 -0.08605 1.00299
 C1031 C 0.16845 -0.09365 0.96455
 C1032 C 0.11993 -0.08135 0.97246
 C1033 C 0.10545 -0.04495 1.00779
 C1034 C 0.14312 -0.02607 1.03842
 C1035 C 0.15995 0.02473 1.03851
 C1036 C 0.21124 0.00409 1.03357
 H1037 H 0.17641 -0.11211 0.92906
 H1038 H 0.09410 -0.10022 0.94872
 H1039 H 0.15282 0.04321 1.07604
 H1040 H 0.14765 0.04542 1.00414
 H1041 H 0.23466 0.01353 1.06684
 H1042 H 0.22782 0.01231 0.99570
 C1043 C 0.69294 0.45710 0.53064
 C1044 C 0.70233 0.41672 0.49687
 C1045 C 0.66205 0.40484 0.46548
 C1046 C 0.61611 0.42567 0.47221
 C1047 C 0.60588 0.46262 0.50862
 C1048 C 0.64553 0.47775 0.53811
 C1049 C 0.66250 0.52798 0.54469
 C1050 C 0.71292 0.50804 0.53221
 H1051 H 0.66276 0.37657 0.43680
 H1052 H 0.58779 0.41054 0.44842
 H1053 H 0.65857 0.54088 0.58515
 H1054 H 0.64763 0.55326 0.51515
 H1055 H 0.73952 0.51429 0.56360
 H1056 H 0.72425 0.52237 0.49444
 C1057 C -0.15804 0.38537 0.51183
 C1058 C -0.20204 0.40740 0.49602
 C1059 C -0.19561 0.45464 0.47478
 C1060 C -0.14913 0.47718 0.47137
 C1061 C -0.10650 0.45446 0.49137
 C1062 C -0.11362 0.40705 0.51011
 C1063 C -0.08973 0.36649 0.54017
 C1064 C -0.13917 0.34359 0.54254
 H1065 H -0.22597 0.47440 0.45936
 H1066 H -0.14720 0.51324 0.45535
 H1067 H -0.07611 0.37702 0.57862
 H1068 H -0.06510 0.34149 0.51866
 H1069 H -0.15236 0.34371 0.58279
 H1070 H -0.14084 0.30844 0.52129
 C1071 C 0.34173 -0.11600 0.02464
 C1072 C 0.29800 -0.09653 0.00386
 C1073 C 0.30583 -0.05695 -0.03049
 C1074 C 0.35320 -0.03569 -0.03659
 C1075 C 0.39557 -0.05587 -0.01219
 C1076 C 0.38719 -0.09929 0.01414
 C1077 C 0.41213 -0.13964 0.04336
 C1078 C 0.36168 -0.15791 0.05480
 H1079 H 0.27552 -0.04191 -0.05213
 H1080 H 0.35641 -0.00342 -0.05972
 H1081 H 0.43166 -0.12911 0.07875
 H1082 H 0.43255 -0.16646 0.01928
 H1083 H 0.35316 -0.15502 0.09645
 H1084 H 0.35534 -0.19367 0.03613
 C1085 C 0.33115 1.09553 0.54443
 C1086 C 0.29854 1.08510 0.50388
 C1087 C 0.31591 1.05068 0.46730
 C1088 C 0.36036 1.02525 0.47335
 C1089 C 0.39340 1.03800 0.51231
 C1090 C 0.37799 1.07403 0.54747
 C1091 C 0.37466 1.06886 0.60437
 C1092 C 0.32380 1.08957 0.60114
 H1093 H 0.29628 1.04439 0.43230
 H1094 H 0.37036 0.99819 0.44457
 H1095 H 0.39815 1.09420 0.62550
 H1096 H 0.37658 1.03047 0.61730
 H1097 H 0.31934 1.12502 0.62162
 H1098 H 0.29673 1.06166 0.61102
 C1099 C -0.18746 0.53380 0.97316
 C1100 C -0.20347 0.57002 1.00776
 C1101 C -0.17377 0.57376 1.05291
 C1102 C -0.12864 0.54856 1.05717
 C1103 C -0.10994 0.52147 1.01524
 C1104 C -0.14608 0.50517 0.98084
 C1105 C -0.15015 0.48455 0.92759
 C1106 C -0.18872 0.52375 0.91668
 H1107 H -0.18112 0.59991 1.08315
 H1108 H -0.10571 0.55690 1.08987
 H1109 H -0.16598 0.44770 0.92853
 H1110 H -0.11772 0.48470 0.90408
 H1111 H -0.22285 0.51196 0.89914
 H1112 H -0.17381 0.55363 0.89426
 C1113 C 0.00344 0.66205 0.62380
 C1114 C 0.01363 0.70735 0.60226
 C1115 C 0.01482 0.70483 0.54669
 C1116 C 0.00937 0.66007 0.51782
 C1117 C 0.00333 0.61453 0.54233
 C1118 C -0.00112 0.61972 0.59640
 C1119 C -0.01664 0.59235 0.64309
 C1120 C -0.01209 0.63948 0.67335
 H1121 H 0.01832 0.73710 0.52410
 H1122 H 0.01076 0.66127 0.47621
 H1123 H 0.01066 0.56447 0.65558
 H1124 H -0.05486 0.57985 0.64009
 H1125 H 0.01670 0.63671 0.70316
 H1126 H -0.04787 0.65309 0.68783
 C1127 C 0.50015 0.15391 0.10796
 C1128 C 0.50041 0.19767 0.08180
 C1129 C 0.49696 0.19283 0.02680
 C1130 C 0.49868 0.14621 0.00156
 C1131 C 0.50210 0.10290 0.03031
 C1132 C 0.49970 0.11002 0.08432
 C1133 C 0.51366 0.08473 0.13353
 C1134 C 0.51301 0.13398 0.15961
 H1135 H 0.49300 0.22422 0.00258
 H1136 H 0.49774 0.14427 -0.04006
 H1137 H 0.55105 0.06818 0.13246
 H1138 H 0.48545 0.06025 0.14754
 H1139 H 0.54929 0.14081 0.17606
 H1140 H 0.48411 0.14057 0.18763
 C1141 C -0.00567 0.19795 0.96854
 C1142 C -0.00932 0.20349 0.91423
 C1143 C -0.02106 0.16061 0.88738
 C1144 C -0.02700 0.11626 0.91216
 C1145 C -0.01596 0.10901 0.96540
 C1146 C -0.00734 0.15239 0.99242
 C1147 C 0.02686 0.16601 1.03403
 C1148 C 0.02834 0.21616 1.00924
 H1149 H -0.02636 0.16116 0.84616
 H1150 H -0.03837 0.08741 0.88687
 H1151 H 0.06219 0.14549 1.03148
 H1152 H 0.00901 0.16637 1.07247
 H1153 H 0.06491 0.22555 0.99468
 H1154 H 0.01096 0.24476 1.03394
 C1155 C 0.51036 0.70786 0.46345
 C1156 C 0.49700 0.71097 0.41066
 C1157 C 0.47829 0.66823 0.38949
 C1158 C 0.46882 0.62773 0.41966
 C1159 C 0.48712 0.62158 0.47100
 C1160 C 0.50699 0.66428 0.49186
 C1161 C 0.55390 0.67237 0.51898
 C1162 C 0.55780 0.71932 0.48872
 H1163 H 0.46715 0.66714 0.34952
 H1164 H 0.44851 0.60006 0.39989
 H1165 H 0.58248 0.64472 0.50857
 H1166 H 0.54852 0.67856 0.56094
 H1167 H 0.58887 0.71900 0.46112
 H1168 H 0.55478 0.75241 0.51342
 C1169 C 0.47753 0.81833 0.45351
 C1170 C 0.50747 0.80353 0.41116
 C1171 C 0.54872 0.83392 0.40580
 C1172 C 0.55370 0.87806 0.43416
 C1173 C 0.52110 0.89269 0.47475
 C1174 C 0.48563 0.85866 0.48434
 C1175 C 0.44059 0.85476 0.51497
 C1176 C 0.43110 0.80969 0.48236
 H1177 H 0.57737 0.82537 0.37860
 H1178 H 0.58210 0.90190 0.42161
 H1179 H 0.41393 0.88490 0.50774
 H1180 H 0.44831 0.84687 0.55607
 H1181 H 0.39796 0.81583 0.45856
 H1182 H 0.43310 0.77596 0.50552
 C1183 C -0.02766 0.31183 0.96252
 C1184 C 0.00219 0.29687 0.92002
 C1185 C 0.04459 0.32596 0.91636
 C1186 C 0.05195 0.36798 0.94743
 C1187 C 0.01973 0.38332 0.98777
 C1188 C -0.01792 0.35074 0.99530
 C1189 C -0.06535 0.34975 1.02234
 C1190 C -0.07623 0.30611 0.98810
 H1191 H 0.07219 0.31865 0.88770
 H1192 H 0.08082 0.39125 0.93565
 H1193 H -0.08933 0.38174 1.01396
 H1194 H -0.06120 0.34063 1.06370
 H1195 H -0.10752 0.31450 0.96227
 H1196 H -0.07782 0.27221 1.01085
 C1197 C 0.52954 0.30080 0.03844
 C1198 C 0.49706 0.29125 0.07892
 C1199 C 0.46066 0.32791 0.08653
 C1200 C 0.46123 0.37173 0.05995
 C1201 C 0.49497 0.38110 0.01962
 C1202 C 0.52803 0.34285 0.00912
 C1203 C 0.58148 0.33944 -0.00133
 C1204 C 0.58230 0.29241 0.02971
 H1205 H 0.43445 0.32670 0.11747
 H1206 H 0.43594 0.39924 0.07416
 H1207 H 0.60191 0.36912 0.01755
 H1208 H 0.58934 0.33374 -0.04290
 H1209 H 0.60454 0.29432 0.06531
 H1210 H 0.58718 0.25932 0.00598
 C1211 C 0.04399 0.81535 0.56470
 C1212 C 0.00878 0.80185 0.60109
 C1213 C -0.03344 0.83313 0.59976
 C1214 C -0.03841 0.87280 0.56505
 C1215 C -0.00191 0.88498 0.52795
 C1216 C 0.03861 0.85289 0.52971
 C1217 C 0.09088 0.84930 0.51405
 C1218 C 0.09611 0.80680 0.55184
 H1219 H -0.06290 0.82918 0.62688
 H1220 H -0.07008 0.89596 0.57099
 H1221 H 0.11177 0.88146 0.52641
 H1222 H 0.09546 0.83831 0.47305
 H1223 H 0.11998 0.81500 0.58511
 H1224 H 0.10201 0.77108 0.53264
 C1225 C 0.24056 0.36453 0.10250
 C1226 C 0.24615 0.33823 0.05479
 C1227 C 0.22825 0.28984 0.05628
 C1228 C 0.20635 0.27019 0.10096
 C1229 C 0.20103 0.29721 0.14752
 C1230 C 0.21248 0.34562 0.14295
 C1231 C 0.17834 0.38766 0.14478
 C1232 C 0.21670 0.41360 0.11451
 H1233 H 0.22674 0.26757 0.02217
 H1234 H 0.19717 0.23213 0.10033
 H1235 H 0.16794 0.40080 0.18290
 H1236 H 0.14499 0.38029 0.12216
 H1237 H 0.24189 0.43512 0.13843
 H1238 H 0.20089 0.43699 0.08487
 C1239 C 0.70514 0.85339 0.59012
 C1240 C 0.74604 0.85330 0.55506
 C1241 C 0.78516 0.82302 0.57009
 C1242 C 0.78276 0.79489 0.61440
 C1243 C 0.74130 0.79629 0.64823
 C1244 C 0.70354 0.82488 0.63281
 C1245 C 0.65605 0.83945 0.65321
 C1246 C 0.65415 0.87124 0.60668
 H1247 H 0.81833 0.82074 0.54752
 H1248 H 0.81543 0.77420 0.62261
 H1249 H 0.65795 0.86024 0.68932
 H1250 H 0.63021 0.80886 0.65239
 H1251 H 0.65285 0.91053 0.61635
 H1252 H 0.62390 0.85725 0.58314
 C1253 C 0.23469 0.69415 0.56764
 C1254 C 0.25592 0.64929 0.55714
 C1255 C 0.29194 0.63324 0.59347
 C1256 C 0.30557 0.66212 0.63626
 C1257 C 0.27986 0.70552 0.64799
 C1258 C 0.24709 0.72232 0.60900
 C1259 C 0.19701 0.74714 0.60594
 C1260 C 0.18433 0.71419 0.56217
 H1261 H 0.30985 0.59813 0.58908
 H1262 H 0.33265 0.64786 0.66276
 H1263 H 0.19996 0.78576 0.59444
 H1264 H 0.17113 0.74068 0.63783
 H1265 H 0.17688 0.73467 0.52657
 H1266 H 0.15590 0.68814 0.57355
 C1267 C 0.76280 0.20382 0.05131
 C1268 C 0.75375 0.15326 0.04725
 C1269 C 0.76615 0.12665 0.09185
 C1270 C 0.78838 0.14776 0.13519
 C1271 C 0.79555 0.19853 0.14027
 C1272 C 0.78361 0.22475 0.09558
 C1273 C 0.81531 0.25714 0.06562
 C1274 C 0.79143 0.23689 0.01792
 H1275 H 0.76132 0.08790 0.09200
 H1276 H 0.79658 0.12318 0.16559
 H1277 H 0.85465 0.24690 0.06890
 H1278 H 0.80623 0.29614 0.07274
 H1279 H 0.81598 0.21623 -0.00776
 H1280 H 0.76874 0.26510 -0.00152
 C1281 C 0.71307 0.20238 0.94881
 C1282 C 0.72397 0.15211 0.94962
 C1283 C 0.71175 0.12697 0.90451
 C1284 C 0.69694 0.15092 0.85971
 C1285 C 0.69374 0.20230 0.85593
 C1286 C 0.69987 0.22714 0.90296
 C1287 C 0.66029 0.25519 0.92960
 C1288 C 0.67279 0.22762 0.97773
 H1289 H 0.71340 0.08792 0.90367
 H1290 H 0.69082 0.12738 0.82811
 H1291 H 0.62335 0.24734 0.91426
 H1292 H 0.66882 0.29441 0.93227
 H1293 H 0.64383 0.20212 0.98867
 H1294 H 0.68525 0.25167 1.00934
 C1295 C 0.21559 0.63367 0.41616
 C1296 C 0.23457 0.65642 0.45863
 C1297 C 0.23357 0.70797 0.45493
 C1298 C 0.21237 0.73240 0.41161
 C1299 C 0.19910 0.70692 0.36545
 C1300 C 0.19810 0.65649 0.37263
 C1301 C 0.21567 0.61261 0.34391
 C1302 C 0.23233 0.58894 0.39153
 H1303 H 0.25068 0.73038 0.48359
 H1304 H 0.21367 0.77166 0.41163
 H1305 H 0.24799 0.61921 0.31970
 H1306 H 0.18445 0.59301 0.32982
 H1307 H 0.27253 0.58362 0.39043
 H1308 H 0.20979 0.55865 0.40434
 C1309 C 0.77719 0.79874 0.45192
 C1310 C 0.74743 0.84148 0.45744
 C1311 C 0.71522 0.84945 0.41639
 C1312 C 0.71747 0.82203 0.37240
 C1313 C 0.75962 0.79290 0.35936
 C1314 C 0.78542 0.77612 0.40273
 C1315 C 0.78027 0.72677 0.42528
 C1316 C 0.77032 0.75063 0.47676
 H1317 H 0.68882 0.87892 0.41458
 H1318 H 0.68807 0.83128 0.34652
 H1319 H 0.81527 0.70562 0.42404
 H1320 H 0.74835 0.70701 0.40990
 H1321 H 0.79924 0.74193 0.50537
 H1322 H 0.73234 0.74589 0.49077
 C1323 C 0.22556 0.35421 0.90876
 C1324 C 0.25004 0.33446 0.95109
 C1325 C 0.27467 0.28908 0.94100
 C1326 C 0.28243 0.27097 0.88953
 C1327 C 0.26318 0.29562 0.84607
 C1328 C 0.22952 0.33391 0.85945
 C1329 C 0.17389 0.33185 0.85754
 C1330 C 0.17124 0.35738 0.90679
 H1331 H 0.29184 0.26942 0.97215
 H1332 H 0.30312 0.23741 0.88399
 H1333 H 0.16017 0.29428 0.86116
 H1334 H 0.15539 0.35273 0.82658
 H1335 H 0.15281 0.33503 0.93609
 H1336 H 0.15743 0.39529 0.90242
 C1337 C 0.85539 0.40604 0.73732
 C1338 C 0.84184 0.44913 0.76360
 C1339 C 0.80365 0.44210 0.79995
 C1340 C 0.77668 0.39765 0.80214
 C1341 C 0.79110 0.35610 0.77245
 C1342 C 0.83506 0.36203 0.74552
 C1343 C 0.87253 0.33638 0.71225
 C1344 C 0.89164 0.38529 0.69950
 H1345 H 0.79483 0.47067 0.82667
 H1346 H 0.74525 0.39583 0.82729
 H1347 H 0.86069 0.31626 0.67784
 H1348 H 0.90138 0.31814 0.73458
 H1349 H 0.88263 0.39397 0.65914
 H1350 H 0.93046 0.38852 0.71019
 C1351 C 0.29632 0.94587 0.29366
 C1352 C 0.33843 0.95061 0.26290
 C1353 C 0.35752 0.90526 0.24482
 C1354 C 0.33291 0.86207 0.25046
 C1355 C 0.28770 0.85887 0.27683
 C1356 C 0.27294 0.90225 0.30092
 C1357 C 0.23251 0.92438 0.33122
 C1358 C 0.25831 0.97298 0.32363
 H1359 H 0.39188 0.90173 0.22462
 H1360 H 0.34881 0.83191 0.22944
 H1361 H 0.23300 0.91131 0.37151
 H1362 H 0.19692 0.92221 0.31092
 H1363 H 0.27468 0.98829 0.35889
 H1364 H 0.23599 0.99831 0.30004
 C1365 C 0.19503 0.93888 0.78426
 C1366 C 0.16165 0.95119 0.74453
 C1367 C 0.15995 0.91553 0.70465
 C1368 C 0.18851 0.87193 0.70589
 C1369 C 0.21645 0.85840 0.74978
 C1370 C 0.22140 0.89571 0.78582
 C1371 C 0.24385 0.90618 0.83640
 C1372 C 0.21350 0.95321 0.83664
 H1373 H 0.13421 0.91899 0.67340
 H1374 H 0.18419 0.84680 0.67409
 H1375 H 0.28385 0.91162 0.83363
 H1376 H 0.23199 0.88180 0.86681
 H1377 H 0.23579 0.98621 0.83814
 H1378 H 0.18561 0.95203 0.86722
 C1379 C 0.63043 0.41629 0.26840
 C1380 C 0.65211 0.45612 0.24625
 C1381 C 0.69867 0.44614 0.22330
 C1382 C 0.72111 0.39873 0.21652
 C1383 C 0.70091 0.35458 0.23359
 C1384 C 0.65589 0.35859 0.26041
 C1385 C 0.58020 0.32807 0.25138
 C1386 C 0.56112 0.40208 0.26617
 H1387 H 0.71854 0.47589 0.20775
 H1388 H 0.75670 0.39697 0.19833
 H1389 H 0.57096 0.29905 0.27927
 H1390 H 0.58501 0.33942 0.14125
 H1391 H 0.54137 0.40507 0.30343
 H1392 H 0.54175 0.42396 0.23655
 C1393 C 0.70108 0.55536 0.26815
 C1394 C 0.65358 0.55070 0.24668
 C1395 C 0.63194 0.59490 0.23037
 C1396 C 0.65716 0.63750 0.22934
 C1397 C 0.70299 0.64235 0.25362
 C1398 C 0.72340 0.59953 0.27271
 C1399 C 0.76794 0.58065 0.29819
 C1400 C 0.74408 0.53080 0.29443
 H1401 H 0.59515 0.59807 0.21675
 H1402 H 0.63973 0.66663 0.20821
 H1403 H 0.77140 0.59463 0.33824
 H1404 H 0.80086 0.58401 0.27355
 H1405 H 0.73567 0.51599 0.33288
 H1406 H 0.76560 0.50553 0.26939
 C1407 C 0.20401 0.05190 0.76150
 C1408 C 0.15332 0.04492 0.75296
 C1409 C 0.12449 0.08781 0.75025
 C1410 C 0.14534 0.13208 0.74113
 C1411 C 0.19527 0.13966 0.74958
 C1412 C 0.22380 0.09842 0.76178
 C1413 C 0.27100 0.08080 0.73926
 C1414 C 0.25048 0.03000 0.73973
 H1415 H 0.08522 0.08693 0.74892
 H1416 H 0.12146 0.15985 0.72565
 H1417 H 0.30197 0.08557 0.76630
 H1418 H 0.27699 0.09483 0.69992
 H1419 H 0.27111 0.00647 0.76673
 H1420 H 0.24733 0.01337 0.70118
 C1421 C 0.36325 0.08584 0.23568
 C1422 C 0.33647 0.04385 0.23814
 C1423 C 0.28683 0.04897 0.22270
 C1424 C 0.26601 0.09616 0.21213
 C1425 C 0.29380 0.13892 0.21902
 C1426 C 0.34355 0.13185 0.22849
 C1427 C 0.38583 0.14047 0.19290
 C1428 C 0.40696 0.09206 0.20459
 H1429 H 0.26429 0.01742 0.21911
 H1430 H 0.22739 0.09936 0.20375
 H1431 H 0.41095 0.16757 0.20732
 H1432 H 0.37467 0.14387 0.15188
 H1433 H 0.43959 0.09128 0.22994
 H1434 H 0.40908 0.07015 0.16891
 C1435 C 0.78911 0.55423 0.75697
 C1436 C 0.83927 0.54394 0.74761
 C1437 C 0.86657 0.58471 0.73347
 C1438 C 0.84781 0.63151 0.73771
 C1439 C 0.79852 0.64216 0.74915
 C1440 C 0.77008 0.60118 0.75606
 C1441 C 0.71977 0.58771 0.76950
 C1442 C 0.73976 0.53522 0.77093
 H1443 H 0.90546 0.58106 0.72629
 H1444 H 0.87503 0.65765 0.73562
 H1445 H 0.69372 0.59480 0.73756
 H1446 H 0.70847 0.60228 0.80785
 H1447 H 0.72463 0.51158 0.74021
 H1448 H 0.73685 0.52085 0.81045
 C1449 C 0.92872 0.70849 0.18887
 C1450 C 0.94495 0.74962 0.16216
 C1451 C 0.92502 0.79371 0.18356
 C1452 C 0.88981 0.79425 0.22473
 C1453 C 0.86588 0.75203 0.24123
 C1454 C 0.89156 0.70959 0.22509
 C1455 C 0.89274 0.65576 0.23105
 C1456 C 0.93526 0.65460 0.19240
 H1457 H 0.93852 0.82821 0.17079
 H1458 H 0.88127 0.82798 0.24404
 H1459 H 0.85964 0.63804 0.21582
 H1460 H 0.90370 0.64463 0.27045
 H1461 H 0.92601 0.63446 0.15675
 H1462 H 0.97093 0.64400 0.20985
 C1463 C 0.43742 0.26423 0.71232
 C1464 C 0.44171 0.26309 0.65715
 C1465 C 0.39933 0.24745 0.63182
 C1466 C 0.35662 0.23696 0.65773
 C1467 C 0.34951 0.24705 0.71123
 C1468 C 0.39254 0.25648 0.73809
 C1469 C 0.40110 0.29080 0.78070
 C1470 C 0.44721 0.30322 0.75209
 H1471 H 0.39920 0.24060 0.59077
 H1472 H 0.32792 0.22380 0.63311
 H1473 H 0.40821 0.27162 0.81749
 H1474 H 0.37389 0.32106 0.78353
 H1475 H 0.48015 0.29552 0.77580
 H1476 H 0.44422 0.34019 0.73559
 C1477 C 0.46008 0.74941 0.77549
 C1478 C 0.46668 0.74175 0.82934
 C1479 C 0.42426 0.73316 0.85697
 C1480 C 0.37897 0.73366 0.83414
 C1481 C 0.37074 0.73702 0.77959
 C1482 C 0.41335 0.74729 0.75155
 C1483 C 0.43335 0.72220 0.70505
 C1484 C 0.48330 0.72382 0.73040
 H1485 H 0.42567 0.72807 0.89822
 H1486 H 0.35114 0.72768 0.86239
 H1487 H 0.43036 0.74527 0.67026
 H1488 H 0.41943 0.68477 0.70035
 H1489 H 0.50922 0.74734 0.70976
 H1490 H 0.49791 0.68706 0.73995
 C1491 C 0.91762 0.21392 0.34863
 C1492 C 0.95481 0.24628 0.33838
 C1493 C 0.94646 0.27420 0.29265
 C1494 C 0.90315 0.27096 0.26244
 C1495 C 0.86514 0.24015 0.27675
 C1496 C 0.87538 0.21188 0.32092
 C1497 C 0.85021 0.18430 0.36271
 C1498 C 0.89742 0.18692 0.39298
 H1499 H 0.97291 0.30032 0.28059
 H1500 H 0.89850 0.29470 0.22972
 H1501 H 0.84121 0.14648 0.35195
 H1502 H 0.82042 0.20521 0.38243
 H1503 H 0.91536 0.15076 0.39847
 H1504 H 0.89294 0.20995 0.42781
 C1505 C 0.09428 0.25015 0.36429
 C1506 C 0.04862 0.25228 0.34064
 C1507 C 0.05205 0.24746 0.28514
 C1508 C 0.09719 0.24996 0.25764
 C1509 C 0.14185 0.25065 0.28417
 C1510 C 0.13708 0.24536 0.33784
 C1511 C 0.16588 0.23402 0.38503
 C1512 C 0.11819 0.23933 0.41464
 H1513 H 0.02146 0.23837 0.26148
 H1514 H 0.09708 0.24891 0.21597
 H1515 H 0.19220 0.26260 0.39559
 H1516 H 0.18095 0.19632 0.38463
 H1517 H 0.12010 0.27118 0.44089
 H1518 H 0.10647 0.20479 0.43208
 C1519 C 0.58052 0.79779 0.81945
 C1520 C 0.55995 0.75197 0.82721
 C1521 C 0.58100 0.71370 0.79736
 C1522 C 0.62074 0.72085 0.76395
 C1523 C 0.64499 0.76576 0.76134
 C1524 C 0.62176 0.80470 0.78748
 C1525 C 0.59501 0.84650 0.76284
 C1526 C 0.55342 0.84057 0.79921
 H1527 H 0.56774 0.67742 0.79902
 H1528 H 0.63583 0.68904 0.74441
 H1529 H 0.58358 0.83883 0.72267
 H1530 H 0.61344 0.88126 0.76832
 H1531 H 0.51965 0.83087 0.77842
 H1532 H 0.54960 0.87043 0.82809
 C1533 C 0.54718 0.28933 0.70212
 C1534 C 0.53720 0.25833 0.65945
 C1535 C 0.57550 0.22479 0.64734
 C1536 C 0.61854 0.22166 0.67583
 C1537 C 0.62701 0.25053 0.72055
 C1538 C 0.58981 0.28455 0.73241
 C1539 C 0.59412 0.33779 0.74004
 C1540 C 0.54958 0.34379 0.70635
 H1541 H 0.57421 0.20159 0.61367
 H1542 H 0.64578 0.19609 0.66128
 H1543 H 0.62719 0.35308 0.72226
 H1544 H 0.58782 0.34852 0.78084
 H1545 H 0.55828 0.36248 0.67007
 H1546 H 0.51929 0.36092 0.72799
 C1547 C 0.04213 0.77529 0.20552
 C1548 C 0.03465 0.74401 0.16229
 C1549 C 0.07272 0.70933 0.15615
 C1550 C 0.11830 0.71479 0.18072
 C1551 C 0.12586 0.74739 0.22349
 C1552 C 0.08457 0.77592 0.23495
 C1553 C 0.07417 0.82472 0.25708
 C1554 C 0.02670 0.82417 0.22584
 H1555 H 0.06911 0.67838 0.13118
 H1556 H 0.14726 0.69113 0.16642
 H1557 H 0.10034 0.85216 0.24353
 H1558 H 0.06830 0.82353 0.29936
 H1559 H 0.02510 0.85262 0.19587
 H1560 H -0.00595 0.82204 0.25097
   
