data_POSCAR
  _audit_creation_date              2014-09-24
  _audit_creation_method            'ToBaCCo'
  _symmetry_space_group_name_H-M    'P1'
  _symmetry_Int_Tables_number       1
  _symmetry_cell_setting            triclinic
  loop_
  _symmetry_equiv_pos_as_xyz
 x,y,z
_cell_length_a 55.6654
_cell_length_b 55.4826
_cell_length_c 54.8327
_cell_angle_alpha 89.893800
_cell_angle_beta 89.990500
_cell_angle_gamma 90.006900
loop_
  _atom_site_label
  _atom_site_type_symbol
  _atom_site_fract_x
  _atom_site_fract_y
  _atom_site_fract_z
O1 O 0.31692 0.34797 0.02267
 O2 O 0.34844 0.31678 -0.02670
 O3 O 0.31489 0.34943 -0.02444
 O4 O 0.34947 0.31439 0.02040
 O5 O 0.32141 0.28617 0.02037
 O6 O 0.28679 0.32126 -0.02479
 O7 O 0.32062 0.28833 -0.02703
 O8 O 0.28859 0.32001 0.02264
 Cu9 Cu 0.33523 0.33496 -0.00201
 Cu10 Cu 0.30149 0.30108 -0.00224
 C11 C 0.29737 0.33951 0.03085
 C12 C 0.34015 0.29719 -0.03501
 C13 C 0.29490 0.34142 -0.03202
 C14 C 0.34141 0.29428 0.02781
 O15 O 0.68487 0.65261 0.02405
 O16 O 0.65059 0.68329 -0.02408
 O17 O 0.68313 0.64993 -0.02298
 O18 O 0.65152 0.68587 0.02302
 O19 O 0.67951 0.71407 0.02070
 O20 O 0.71147 0.67775 -0.02560
 O21 O 0.67871 0.71136 -0.02667
 O22 O 0.71314 0.68053 0.02175
 Cu23 Cu 0.66470 0.66514 0.00037
 Cu24 Cu 0.69858 0.69878 -0.00258
 C25 C 0.70498 0.66108 0.03072
 C26 C 0.65880 0.70250 -0.03348
 C27 C 0.70262 0.65764 -0.03203
 C28 C 0.65984 0.70619 0.02933
 O29 O 0.68603 0.34618 0.98202
 O30 O 0.65138 0.31599 1.03010
 O31 O 0.68420 0.34911 1.02903
 O32 O 0.65261 0.31310 0.98303
 O33 O 0.68045 0.28480 0.98561
 O34 O 0.71235 0.32112 1.03193
 O35 O 0.67928 0.28775 1.03298
 O36 O 0.71417 0.31816 0.98460
 Cu37 Cu 0.66575 0.33390 1.00568
 Cu38 Cu 0.69941 0.30008 1.00897
 C39 C 0.70611 0.33757 0.97546
 C40 C 0.65938 0.29677 1.03962
 C41 C 0.70361 0.34133 1.03820
 C42 C 0.66089 0.29275 0.97681
 O43 O 0.34761 0.68314 1.02100
 O44 O 0.31713 0.65218 0.97082
 O45 O 0.34959 0.68587 0.97396
 O46 O 0.31429 0.65037 1.01790
 O47 O 0.28609 0.67843 1.01792
 O48 O 0.32144 0.71398 0.97365
 O49 O 0.28871 0.68003 0.97053
 O50 O 0.31967 0.71147 1.02101
 Cu51 Cu 0.33497 0.66507 0.99592
 Cu52 Cu 0.30111 0.69883 0.99575
 C53 C 0.33906 0.70261 1.02932
 C54 C 0.29768 0.66060 0.96237
 C55 C 0.34163 0.70602 0.96657
 C56 C 0.29416 0.65828 1.02520
 O57 O -0.02135 0.33917 0.30218
 O58 O 0.02437 0.30479 0.33550
 O59 O 0.02493 0.33880 0.30259
 O60 O -0.02197 0.30499 0.33484
 O61 O -0.02200 0.27739 0.30579
 O62 O 0.02526 0.31150 0.27325
 O63 O 0.02470 0.27715 0.30650
 O64 O -0.02137 0.31192 0.27279
 Cu65 Cu 0.00149 0.32466 0.32170
 Cu66 Cu 0.00167 0.29168 0.28662
 C67 C -0.02882 0.33165 0.28172
 C68 C 0.03200 0.28503 0.32692
 C69 C 0.03273 0.33116 0.28230
 C70 C -0.02968 0.28535 0.32603
 O71 O 0.01985 0.69205 0.66230
 O72 O -0.02499 0.65694 0.69622
 O73 O -0.02654 0.68935 0.66204
 O74 O 0.02123 0.65898 0.69617
 O75 O 0.01988 0.68718 0.72459
 O76 O -0.02823 0.71801 0.68996
 O77 O -0.02668 0.68530 0.72447
 O78 O 0.01856 0.72059 0.69036
 Cu79 Cu -0.00241 0.67152 0.67634
 Cu80 Cu -0.00421 0.70572 0.71017
 C81 C 0.02659 0.71235 0.67038
 C82 C -0.03321 0.66499 0.71617
 C83 C -0.03538 0.70883 0.67005
 C84 C 0.02829 0.66755 0.71633
 O85 O 1.02553 0.64587 0.32269
 O86 O 0.98013 0.68118 0.35576
 O87 O 0.97894 0.64735 0.32277
 O88 O 1.02654 0.67907 0.35605
 O89 O 1.02778 0.70713 0.32738
 O90 O 0.97993 0.67507 0.29377
 O91 O 0.98112 0.70912 0.32696
 O92 O 1.02677 0.67371 0.29380
 Cu93 Cu 1.00263 0.66055 0.34218
 Cu94 Cu 1.00398 0.69406 0.30753
 C95 C 1.03379 0.65377 0.30265
 C96 C 0.97318 0.70124 0.34716
 C97 C 0.97153 0.65564 0.30258
 C98 C 1.03506 0.69852 0.34754
 O99 O 0.97477 0.32442 0.63962
 O100 O 1.02063 0.35742 0.67430
 O101 O 1.02134 0.32481 0.64028
 O102 O 0.97402 0.35684 0.67385
 O103 O 0.97388 0.32822 0.70197
 O104 O 1.02141 0.29603 0.66824
 O105 O 1.02072 0.32883 0.70245
 O106 O 0.97461 0.29561 0.66755
 Cu107 Cu 0.99769 0.34376 0.65421
 Cu108 Cu 0.99765 0.30927 0.68790
 C109 C 0.96705 0.30440 0.64759
 C110 C 1.02837 0.34882 0.69424
 C111 C 1.02928 0.30496 0.64847
 C112 C 0.96603 0.34806 0.69362
 O113 O 0.34524 0.01994 0.31533
 O114 O 0.31039 -0.02669 0.34701
 O115 O 0.34373 -0.02661 0.31333
 O116 O 0.31248 0.01981 0.34880
 O117 O 0.28430 0.02223 0.32046
 O118 O 0.31584 -0.02451 0.28469
 O119 O 0.28219 -0.02459 0.31869
 O120 O 0.31730 0.02235 0.28675
 Cu121 Cu 0.33077 -0.00375 0.33396
 Cu122 Cu 0.29705 -0.00104 0.29974
 C123 C 0.33722 0.02904 0.29574
 C124 C 0.29021 -0.03318 0.33855
 C125 C 0.33540 -0.03308 0.29285
 C126 C 0.29315 0.02886 0.34070
 O127 O 0.65880 0.02843 0.68676
 O128 O 0.69285 -0.01975 0.65684
 O129 O 0.65886 -0.01813 0.68960
 O130 O 0.69297 0.02664 0.65442
 O131 O 0.72036 0.02835 0.68358
 O132 O 0.68602 -0.01677 0.71899
 O133 O 0.72033 -0.01835 0.68593
 O134 O 0.68590 0.03013 0.71620
 Cu135 Cu 0.67312 0.00411 0.66901
 Cu136 Cu 0.70589 0.00596 0.70419
 C137 C 0.66641 0.03730 0.70659
 C138 C 0.71253 -0.02687 0.66597
 C139 C 0.66646 -0.02481 0.71034
 C140 C 0.71255 0.03482 0.66283
 O141 O 0.31385 1.02710 0.65334
 O142 O 0.34992 0.98052 0.68372
 O143 O 0.31569 0.98052 0.65172
 O144 O 0.34850 1.02703 0.68566
 O145 O 0.32175 1.02508 0.71542
 O146 O 0.28869 0.97828 0.68123
 O147 O 0.32315 0.97829 0.71346
 O148 O 0.28681 1.02516 0.68283
 Cu149 Cu 0.33466 1.00412 0.66563
 Cu150 Cu 0.30235 1.00161 0.70124
 C151 C 0.29407 1.03370 0.66263
 C152 C 0.34273 0.97158 0.70372
 C153 C 0.29668 0.97154 0.66066
 C154 C 0.34101 1.03356 0.70646
 O155 O 0.68047 1.01976 0.35011
 O156 O 0.64735 0.97156 0.31909
 O157 O 0.68063 0.97304 0.35225
 O158 O 0.64747 1.01807 0.31644
 O159 O 0.67538 1.01687 0.28777
 O160 O 0.70870 0.97156 0.32375
 O161 O 0.67519 0.97007 0.29035
 O162 O 0.70862 1.01856 0.32168
 Cu163 Cu 0.66120 0.99578 0.33736
 Cu164 Cu 0.69485 0.99416 0.30301
 C165 C 0.70020 1.02720 0.34133
 C166 C 0.65548 0.96281 0.29942
 C167 C 0.70027 0.96472 0.34412
 C168 C 0.65561 1.02486 0.29595
 C169 C 0.87384 0.78102 0.50499
 C170 C 0.86750 0.79199 0.48301
 C171 C 0.85026 0.81041 0.48272
 C172 C 0.83831 0.81734 0.50443
 C173 C 0.84458 0.80534 0.52633
 C174 C 0.86267 0.78787 0.52664
 C175 C 0.81979 0.83708 0.50442
 C176 C 0.81418 0.84973 0.52611
 C177 C 0.79652 0.86766 0.52626
 C178 C 0.78507 0.87417 0.50464
 C179 C 0.79077 0.86253 0.48288
 C180 C 0.80755 0.84371 0.48278
 H181 H 0.88771 0.76728 0.50528
 H182 H 0.84668 0.81934 0.46557
 H183 H 0.83566 0.80938 0.54335
 H184 H 0.82349 0.84608 0.54301
 H185 H 0.77177 0.88848 0.50471
 H186 H 0.81077 0.83443 0.46578
 C187 C 0.12459 0.21725 0.49404
 C188 C 0.13170 0.20473 0.47325
 C189 C 0.14928 0.18677 0.47497
 C190 C 0.16098 0.18194 0.49742
 C191 C 0.15377 0.19531 0.51814
 C192 C 0.13529 0.21236 0.51649
 C193 C 0.18033 0.16307 0.49916
 C194 C 0.18638 0.15222 0.52177
 C195 C 0.20452 0.13475 0.52315
 C196 C 0.21605 0.12703 0.50198
 C197 C 0.21005 0.13705 0.47948
 C198 C 0.19287 0.15539 0.47809
 H199 H 0.11052 0.23074 0.49277
 H200 H 0.15339 0.17663 0.45869
 H201 H 0.16231 0.19275 0.53565
 H202 H 0.17702 0.15685 0.53838
 H203 H 0.22959 0.11299 0.50300
 H204 H 0.18953 0.16340 0.46045
 C205 C 0.12467 0.78275 0.50727
 C206 C 0.13101 0.79506 0.52846
 C207 C 0.14846 0.81324 0.52756
 C208 C 0.16067 0.81856 0.50552
 C209 C 0.15432 0.80532 0.48443
 C210 C 0.13602 0.78805 0.48525
 C211 C 0.17960 0.83787 0.50443
 C212 C 0.18559 0.84923 0.48207
 C213 C 0.20351 0.86691 0.48108
 C214 C 0.21487 0.87438 0.50242
 C215 C 0.20886 0.86393 0.52474
 C216 C 0.19182 0.84539 0.52574
 H217 H 0.11068 0.76913 0.50789
 H218 H 0.15205 0.82320 0.54408
 H219 H 0.16337 0.80820 0.46723
 H220 H 0.17636 0.84478 0.46534
 H221 H 0.22833 0.88851 0.50168
 H222 H 0.18837 0.83704 0.54322
 C223 C 0.87445 0.21694 0.48888
 C224 C 0.86363 0.21171 0.51119
 C225 C 0.84528 0.19447 0.51246
 C226 C 0.83838 0.18125 0.49152
 C227 C 0.85011 0.18651 0.46921
 C228 C 0.86757 0.20462 0.46788
 C229 C 0.81942 0.16196 0.49298
 C230 C 0.80690 0.15428 0.47187
 C231 C 0.78995 0.13567 0.47320
 C232 C 0.78429 0.12534 0.49567
 C233 C 0.79591 0.13298 0.51680
 C234 C 0.81375 0.15072 0.51547
 H235 H 0.88845 0.23053 0.48789
 H236 H 0.83663 0.19164 0.52987
 H237 H 0.84616 0.17653 0.45278
 H238 H 0.81006 0.16254 0.45430
 H239 H 0.77089 0.11115 0.49669
 H240 H 0.82318 0.15528 0.53205
 C241 C 0.50444 0.87851 0.78218
 C242 C 0.48276 0.86712 0.78763
 C243 C 0.48222 0.84794 0.80422
 C244 C 0.50330 0.84066 0.81666
 C245 C 0.52500 0.85293 0.81126
 C246 C 0.52558 0.87130 0.79371
 C247 C 0.50259 0.82064 0.83519
 C248 C 0.52371 0.80789 0.84158
 C249 C 0.52317 0.78991 0.85950
 C250 C 0.50148 0.78346 0.87039
 C251 C 0.48031 0.79531 0.86403
 C252 C 0.48086 0.81416 0.84700
 H253 H 0.50483 0.89316 0.76904
 H254 H 0.46527 0.83891 0.80718
 H255 H 0.54151 0.84866 0.82066
 H256 H 0.54071 0.81169 0.83286
 H257 H 0.50111 0.76933 0.88410
 H258 H 0.46432 0.82372 0.84345
 C259 C 0.49735 0.12365 0.21908
 C260 C 0.47598 0.13527 0.21297
 C261 C 0.47614 0.15445 0.19637
 C262 C 0.49767 0.16149 0.18463
 C263 C 0.51906 0.14899 0.19068
 C264 C 0.51890 0.13062 0.20821
 C265 C 0.49778 0.18148 0.16609
 C266 C 0.51918 0.19414 0.16059
 C267 C 0.51946 0.21203 0.14258
 C268 C 0.49827 0.21849 0.13073
 C269 C 0.47681 0.20674 0.13625
 C270 C 0.47658 0.18798 0.15338
 H271 H 0.49719 0.10900 0.23222
 H272 H 0.45938 0.16366 0.19286
 H273 H 0.53589 0.15309 0.18177
 H274 H 0.53579 0.19029 0.17004
 H275 H 0.49853 0.23253 0.11692
 H276 H 0.45988 0.17846 0.15628
 C277 C 0.50320 0.12836 0.78244
 C278 C 0.52464 0.13948 0.78928
 C279 C 0.52449 0.15770 0.80691
 C280 C 0.50296 0.16419 0.81896
 C281 C 0.48154 0.15216 0.81214
 C282 C 0.48164 0.13483 0.79360
 C283 C 0.50286 0.18310 0.83860
 C284 C 0.48144 0.19536 0.84489
 C285 C 0.48118 0.21226 0.86381
 C286 C 0.50243 0.21818 0.87585
 C287 C 0.52392 0.20686 0.86957
 C288 C 0.52411 0.18903 0.85151
 H289 H 0.50334 0.11446 0.76854
 H290 H 0.54129 0.16658 0.81099
 H291 H 0.46469 0.15579 0.82121
 H292 H 0.46482 0.19202 0.83531
 H293 H 0.50221 0.23154 0.89029
 H294 H 0.54085 0.17982 0.84799
 C295 C 0.49575 0.87064 0.21805
 C296 C 0.51740 0.85954 0.21197
 C297 C 0.51789 0.84134 0.19434
 C298 C 0.49679 0.83484 0.18153
 C299 C 0.47513 0.84683 0.18761
 C300 C 0.47459 0.86415 0.20615
 C301 C 0.49742 0.81595 0.16188
 C302 C 0.47625 0.80370 0.15476
 C303 C 0.47671 0.78681 0.13584
 C304 C 0.49840 0.78087 0.12464
 C305 C 0.51964 0.79219 0.13175
 C306 C 0.51913 0.81002 0.14979
 H307 H 0.49540 0.88453 0.23195
 H308 H 0.53483 0.83248 0.19087
 H309 H 0.45860 0.84319 0.17796
 H310 H 0.45927 0.80705 0.16368
 H311 H 0.49872 0.76751 0.11021
 H312 H 0.53573 0.81924 0.15394
 C313 C 0.77980 0.49597 0.87550
 C314 C 0.79133 0.47480 0.86841
 C315 C 0.80936 0.47553 0.85061
 C316 C 0.81535 0.49746 0.83883
 C317 C 0.80286 0.51855 0.84586
 C318 C 0.78573 0.51785 0.86452
 C319 C 0.83469 0.49846 0.81973
 C320 C 0.84688 0.52030 0.81464
 C321 C 0.86458 0.52135 0.79655
 C322 C 0.87124 0.50051 0.78413
 C323 C 0.85999 0.47864 0.78927
 C324 C 0.84143 0.47763 0.80650
 H325 H 0.76632 0.49546 0.88980
 H326 H 0.81875 0.45899 0.84644
 H327 H 0.80626 0.53568 0.83710
 H328 H 0.84306 0.53658 0.82471
 H329 H 0.88538 0.50129 0.77052
 H330 H 0.83246 0.46057 0.80934
 C331 C 0.21911 0.50024 0.12423
 C332 C 0.21295 0.47861 0.13556
 C333 C 0.19564 0.47836 0.15404
 C334 C 0.18314 0.49963 0.16052
 C335 C 0.18940 0.52133 0.14841
 C336 C 0.20765 0.52162 0.13078
 C337 C 0.16352 0.49900 0.17937
 C338 C 0.15651 0.52006 0.19209
 C339 C 0.13782 0.51929 0.20921
 C340 C 0.12667 0.49743 0.21473
 C341 C 0.13356 0.47639 0.20278
 C342 C 0.15137 0.47721 0.18480
 H343 H 0.23274 0.50040 0.11006
 H344 H 0.19210 0.46141 0.16310
 H345 H 0.18008 0.53800 0.15218
 H346 H 0.16540 0.53711 0.18897
 H347 H 0.11247 0.49681 0.22827
 H348 H 0.15532 0.46076 0.17509
 C349 C 0.78210 0.50300 0.12918
 C350 C 0.79382 0.52426 0.13566
 C351 C 0.81275 0.52365 0.15249
 C352 C 0.81948 0.50176 0.16395
 C353 C 0.80678 0.48058 0.15756
 C354 C 0.78873 0.48116 0.13981
 C355 C 0.83976 0.50087 0.18207
 C356 C 0.85209 0.47904 0.18686
 C357 C 0.87058 0.47809 0.20412
 C358 C 0.87793 0.49906 0.21594
 C359 C 0.86656 0.52094 0.21104
 C360 C 0.84723 0.52181 0.19471
 H361 H 0.76793 0.50342 0.11559
 H362 H 0.82223 0.54026 0.15613
 H363 H 0.81070 0.46346 0.16610
 H364 H 0.84773 0.46265 0.17721
 H365 H 0.89263 0.49836 0.22892
 H366 H 0.83820 0.53887 0.19215
 C367 C 0.21976 0.49962 0.86928
 C368 C 0.21315 0.52129 0.85828
 C369 C 0.19499 0.52162 0.84067
 C370 C 0.18212 0.50039 0.83481
 C371 C 0.18885 0.47867 0.84656
 C372 C 0.20789 0.47829 0.86328
 C373 C 0.16157 0.50113 0.81703
 C374 C 0.15395 0.48016 0.80455
 C375 C 0.13442 0.48104 0.78842
 C376 C 0.12301 0.50293 0.78367
 C377 C 0.13048 0.52388 0.79541
 C378 C 0.14916 0.52294 0.81242
 H379 H 0.23397 0.49940 0.88282
 H380 H 0.19106 0.53860 0.83184
 H381 H 0.17926 0.46205 0.84325
 H382 H 0.16302 0.46311 0.80706
 H383 H 0.10818 0.50365 0.77083
 H384 H 0.15363 0.53934 0.82202
 C385 C 0.25926 0.39857 0.11553
 C386 C 0.24538 0.37971 0.10003
 C387 C 0.26306 0.38404 0.07895
 C388 C 0.27711 0.40251 0.09417
 C389 C 0.24320 0.41852 0.10493
 C390 C 0.26088 0.42271 0.08383
 C391 C 0.22913 0.40006 0.08972
 C392 C 0.24699 0.40404 0.06846
 C393 C 0.27460 0.36622 0.06314
 C394 C 0.28467 0.35312 0.04893
 C395 C 0.23235 0.43887 0.11786
 C396 C 0.22351 0.45657 0.12684
 H397 H 0.26418 0.39657 0.13504
 H398 H 0.23914 0.36181 0.10649
 H399 H 0.29696 0.40334 0.09584
 H400 H 0.26718 0.44057 0.07729
 H401 H 0.20927 0.39927 0.08804
 H402 H 0.24203 0.40613 0.04896
 C403 C 0.77802 0.59876 0.08065
 C404 C 0.75517 0.59460 0.06513
 C405 C 0.74402 0.61745 0.07616
 C406 C 0.76669 0.62196 0.09149
 C407 C 0.76662 0.58401 0.10137
 C408 C 0.75548 0.60683 0.11249
 C409 C 0.74395 0.57964 0.08600
 C410 C 0.73264 0.60268 0.09688
 C411 C 0.73067 0.63475 0.06115
 C412 C 0.71913 0.64756 0.04779
 C413 C 0.77803 0.56408 0.11457
 C414 C 0.78605 0.54649 0.12462
 H415 H 0.79681 0.59694 0.07413
 H416 H 0.75490 0.58971 0.04551
 H417 H 0.77586 0.63959 0.09359
 H418 H 0.75578 0.61165 0.13213
 H419 H 0.73469 0.56204 0.08383
 H420 H 0.71385 0.60446 0.10341
 C421 C 0.75254 0.39316 0.89259
 C422 C 0.76510 0.37629 0.91130
 C423 C 0.74453 0.38101 0.92937
 C424 C 0.73183 0.39753 0.91093
 C425 C 0.76608 0.41471 0.90357
 C426 C 0.74551 0.41928 0.92168
 C427 C 0.77884 0.39823 0.92201
 C428 C 0.75808 0.40258 0.94028
 C429 C 0.73163 0.36365 0.94469
 C430 C 0.72026 0.35089 0.95824
 C431 C 0.77681 0.43479 0.89005
 C432 C 0.78424 0.45249 0.87976
 H433 H 0.75042 0.38951 0.87281
 H434 H 0.77299 0.35837 0.90721
 H435 H 0.71237 0.39708 0.90652
 H436 H 0.73754 0.43715 0.92585
 H437 H 0.79830 0.39874 0.92640
 H438 H 0.76022 0.40631 0.96005
 C439 C 0.25038 0.57943 0.91537
 C440 C 0.27501 0.59103 0.90988
 C441 C 0.26383 0.61602 0.91402
 C442 C 0.23931 0.60460 0.91968
 C443 C 0.24393 0.58144 0.88820
 C444 C 0.23267 0.60640 0.89229
 C445 C 0.26846 0.59282 0.88250
 C446 C 0.25744 0.61817 0.88684
 C447 C 0.27532 0.63388 0.92982
 C448 C 0.28526 0.64700 0.94410
 C449 C 0.23297 0.56104 0.87545
 C450 C 0.22398 0.54331 0.86668
 H451 H 0.24740 0.56330 0.92701
 H452 H 0.29253 0.58487 0.91728
 H453 H 0.22743 0.60962 0.93512
 H454 H 0.21514 0.61248 0.88487
 H455 H 0.28032 0.58775 0.86706
 H456 H 0.26046 0.63435 0.87530
 C457 C 0.08104 0.24851 0.41320
 C458 C 0.09270 0.26105 0.39098
 C459 C 0.07511 0.24768 0.37417
 C460 C 0.06330 0.23526 0.39621
 C461 C 0.09882 0.22752 0.41038
 C462 C 0.08124 0.21408 0.39362
 C463 C 0.11069 0.23992 0.38838
 C464 C 0.09286 0.22668 0.37121
 C465 C 0.06094 0.25999 0.35537
 C466 C 0.04828 0.27103 0.34146
 C467 C 0.11130 0.21762 0.43170
 C468 C 0.12090 0.21092 0.45021
 H469 H 0.07626 0.25741 0.43066
 H470 H 0.09729 0.28049 0.38971
 H471 H 0.04367 0.23347 0.39926
 H472 H 0.07667 0.19465 0.39495
 H473 H 0.13034 0.24170 0.38540
 H474 H 0.09757 0.21786 0.35370
 C475 C 0.07789 0.75037 0.58548
 C476 C 0.08863 0.73716 0.60778
 C477 C 0.07056 0.75025 0.62427
 C478 C 0.05965 0.76334 0.60217
 C479 C 0.09573 0.77113 0.58951
 C480 C 0.07766 0.78428 0.60596
 C481 C 0.10669 0.75805 0.61159
 C482 C 0.08837 0.77100 0.62844
 C483 C 0.05579 0.73764 0.64238
 C484 C 0.04287 0.72644 0.65592
 C485 C 0.10909 0.78145 0.56897
 C486 C 0.11943 0.78850 0.55100
 H487 H 0.07367 0.74198 0.56762
 H488 H 0.09301 0.71765 0.60869
 H489 H 0.04015 0.76538 0.59845
 H490 H 0.07331 0.80378 0.60500
 H491 H 0.12620 0.75602 0.61525
 H492 H 0.09251 0.77933 0.64634
 C493 C 0.89645 0.76225 0.39692
 C494 C 0.92300 0.76792 0.39027
 C495 C 0.92864 0.74081 0.39118
 C496 C 0.90239 0.73492 0.39750
 C497 C 0.90305 0.76389 0.42408
 C498 C 0.90874 0.73679 0.42491
 C499 C 0.92930 0.76976 0.41775
 C500 C 0.93513 0.74251 0.41836
 C501 C 0.94364 0.72723 0.37405
 C502 C 0.95673 0.71554 0.36115
 C503 C 0.88948 0.77561 0.44366
 C504 C 0.87905 0.78390 0.46099
 H505 H 0.88040 0.77053 0.38832
 H506 H 0.92903 0.78056 0.37580
 H507 H 0.89148 0.72045 0.38900
 H508 H 0.90277 0.72408 0.43935
 H509 H 0.94023 0.78421 0.42626
 H510 H 0.95116 0.73425 0.42705
 C511 C 0.90660 0.23313 0.59158
 C512 C 0.93005 0.24727 0.58644
 C513 C 0.92086 0.26786 0.60264
 C514 C 0.89759 0.25395 0.60811
 C515 C 0.89488 0.24557 0.56952
 C516 C 0.88562 0.26616 0.58568
 C517 C 0.91817 0.25951 0.56417
 C518 C 0.90913 0.28025 0.58057
 C519 C 0.93636 0.28053 0.62001
 C520 C 0.94998 0.29126 0.63319
 C521 C 0.88179 0.23332 0.54994
 C522 C 0.87259 0.22339 0.53278
 H523 H 0.90538 0.21362 0.59591
 H524 H 0.94847 0.23961 0.58691
 H525 H 0.88931 0.25180 0.62640
 H526 H 0.86719 0.27378 0.58515
 H527 H 0.92652 0.26170 0.54591
 H528 H 0.91035 0.29976 0.57620
 C529 C 0.41854 0.09037 0.26689
 C530 C 0.39320 0.09941 0.27403
 C531 C 0.38233 0.07688 0.26208
 C532 C 0.40743 0.06770 0.25510
 C533 C 0.41621 0.10360 0.24237
 C534 C 0.40532 0.08107 0.23045
 C535 C 0.39114 0.11291 0.24930
 C536 C 0.37991 0.09008 0.23754
 C537 C 0.36472 0.06085 0.27348
 C538 C 0.35149 0.04672 0.28336
 C539 C 0.43626 0.11698 0.23167
 C540 C 0.45387 0.12628 0.22306
 H541 H 0.43462 0.09063 0.27886
 H542 H 0.38799 0.10676 0.29209
 H543 H 0.41397 0.04895 0.25758
 H544 H 0.41051 0.07367 0.21241
 H545 H 0.38470 0.13169 0.24678
 H546 H 0.36380 0.08975 0.22562
 C547 C 0.58840 0.10563 0.73190
 C548 C 0.61559 0.11109 0.73467
 C549 C 0.62010 0.08423 0.73978
 C550 C 0.59322 0.07862 0.73684
 C551 C 0.58516 0.10955 0.75943
 C552 C 0.58976 0.08269 0.76447
 C553 C 0.61201 0.11526 0.76245
 C554 C 0.61688 0.08813 0.76731
 C555 C 0.63830 0.06882 0.72844
 C556 C 0.65192 0.05497 0.71870
 C557 C 0.56464 0.12217 0.77020
 C558 C 0.54682 0.13095 0.77893
 H559 H 0.57649 0.11296 0.71745
 H560 H 0.62645 0.12259 0.72229
 H561 H 0.58564 0.06339 0.72622
 H562 H 0.57893 0.07111 0.77682
 H563 H 0.61949 0.13052 0.77310
 H564 H 0.62879 0.08077 0.78175
 C565 C 0.40517 0.91372 0.77129
 C566 C 0.40923 0.93483 0.75328
 C567 C 0.38923 0.92471 0.73693
 C568 C 0.38484 0.90378 0.75476
 C569 C 0.42347 0.89865 0.75690
 C570 C 0.40352 0.88844 0.74056
 C571 C 0.42775 0.91960 0.73906
 C572 C 0.40754 0.90965 0.72255
 C573 C 0.37126 0.94034 0.72552
 C574 C 0.35761 0.95417 0.71577
 C575 C 0.44356 0.88553 0.76790
 C576 C 0.46101 0.87627 0.77689
 H577 H 0.40441 0.91522 0.79146
 H578 H 0.41141 0.95405 0.75841
 H579 H 0.36696 0.89748 0.76109
 H580 H 0.40141 0.86920 0.73547
 H581 H 0.44559 0.92598 0.73269
 H582 H 0.40832 0.90816 0.70238
 C583 C 0.59621 0.90377 0.23002
 C584 C 0.59187 0.92565 0.24690
 C585 C 0.61058 0.91555 0.26479
 C586 C 0.61526 0.89384 0.24810
 C587 C 0.57665 0.88983 0.24390
 C588 C 0.59531 0.87963 0.26179
 C589 C 0.57210 0.91156 0.26062
 C590 C 0.59100 0.90160 0.27866
 C591 C 0.62823 0.93114 0.27672
 C592 C 0.64142 0.94509 0.28689
 C593 C 0.55664 0.87703 0.23243
 C594 C 0.53919 0.86814 0.22307
 H595 H 0.59813 0.90450 0.20988
 H596 H 0.59061 0.94473 0.24089
 H597 H 0.63324 0.88675 0.24309
 H598 H 0.59649 0.86054 0.26777
 H599 H 0.55416 0.91873 0.26568
 H600 H 0.58905 0.90088 0.29880
 C601 C 0.42414 0.26081 0.91369
 C602 C 0.40406 0.27669 0.90268
 C603 C 0.38550 0.26271 0.91788
 C604 C 0.40539 0.24698 0.92904
 C605 C 0.42053 0.24263 0.89291
 C606 C 0.40197 0.22863 0.90811
 C607 C 0.40069 0.25835 0.88165
 C608 C 0.38174 0.24454 0.89712
 C609 C 0.36736 0.27436 0.93321
 C610 C 0.35401 0.28449 0.94712
 C611 C 0.44113 0.23169 0.88056
 C612 C 0.45900 0.22281 0.87204
 H613 H 0.44177 0.26742 0.92040
 H614 H 0.40472 0.29659 0.90060
 H615 H 0.40716 0.24239 0.94867
 H616 H 0.40134 0.20874 0.91020
 H617 H 0.39901 0.26290 0.86200
 H618 H 0.36408 0.23799 0.89049
 C619 C 0.57763 0.74857 0.91694
 C620 C 0.59081 0.72500 0.91023
 C621 C 0.61465 0.73673 0.91784
 C622 C 0.60166 0.76017 0.92472
 C623 C 0.58173 0.75783 0.89084
 C624 C 0.60555 0.76962 0.89842
 C625 C 0.59468 0.73438 0.88390
 C626 C 0.61889 0.74594 0.89174
 C627 C 0.63180 0.72477 0.93407
 C628 C 0.64474 0.71472 0.94845
 C629 C 0.56215 0.76944 0.87744
 C630 C 0.54490 0.77886 0.86822
 H631 H 0.56047 0.74975 0.92719
 H632 H 0.58490 0.70654 0.91528
 H633 H 0.60469 0.77064 0.94168
 H634 H 0.61140 0.78809 0.89336
 H635 H 0.59160 0.72393 0.86694
 H636 H 0.63610 0.74470 0.88159
 C637 C 0.39867 0.77076 0.08922
 C638 C 0.40283 0.75312 0.06781
 C639 C 0.38299 0.73671 0.07806
 C640 C 0.37849 0.75418 0.09928
 C641 C 0.41714 0.75662 0.10438
 C642 C 0.39734 0.74023 0.11473
 C643 C 0.42150 0.73914 0.08313
 C644 C 0.40147 0.72260 0.09322
 C645 C 0.36537 0.72518 0.06205
 C646 C 0.35244 0.71517 0.04766
 C647 C 0.43730 0.76747 0.11753
 C648 C 0.45485 0.77630 0.12675
 H649 H 0.39773 0.79069 0.08773
 H650 H 0.40492 0.75832 0.04837
 H651 H 0.36058 0.76022 0.10573
 H652 H 0.39534 0.73506 0.13419
 H653 H 0.43937 0.73304 0.07660
 H654 H 0.40243 0.70266 0.09470
 C655 C 0.58397 0.27039 0.11184
 C656 C 0.61127 0.26589 0.11527
 C657 C 0.61388 0.26334 0.08749
 C658 C 0.58691 0.26803 0.08390
 C659 C 0.57960 0.24310 0.11341
 C660 C 0.58232 0.24064 0.08564
 C661 C 0.60655 0.23833 0.11710
 C662 C 0.60951 0.23605 0.08906
 C663 C 0.63168 0.27490 0.07171
 C664 C 0.64503 0.28471 0.05755
 C665 C 0.55934 0.23193 0.12612
 C666 C 0.54161 0.22283 0.13468
 H667 H 0.57326 0.28439 0.12136
 H668 H 0.62343 0.27641 0.12725
 H669 H 0.57899 0.28033 0.07008
 H670 H 0.57021 0.23016 0.07357
 H671 H 0.61436 0.22600 0.13094
 H672 H 0.62021 0.22207 0.07951
 C673 C 0.25098 0.08363 0.57982
 C674 C 0.26596 0.09494 0.60057
 C675 C 0.25378 0.07776 0.61877
 C676 C 0.23893 0.06630 0.59819
 C677 C 0.23102 0.10216 0.58463
 C678 C 0.21877 0.08499 0.60279
 C679 C 0.24585 0.11369 0.60518
 C680 C 0.23382 0.09626 0.62374
 C681 C 0.26738 0.06320 0.63632
 C682 C 0.27929 0.05025 0.64921
 C683 C 0.21966 0.11486 0.56420
 C684 C 0.21185 0.12441 0.54609
 H685 H 0.25795 0.07852 0.56158
 H686 H 0.28549 0.09891 0.59980
 H687 H 0.23623 0.04667 0.59546
 H688 H 0.19923 0.08104 0.60350
 H689 H 0.24853 0.13333 0.60784
 H690 H 0.22694 0.10129 0.64203
 C691 C 0.74122 0.11180 0.39487
 C692 C 0.75403 0.09482 0.37649
 C693 C 0.73596 0.07485 0.38288
 C694 C 0.72296 0.09154 0.40092
 C695 C 0.75768 0.10227 0.41521
 C696 C 0.73958 0.08227 0.42148
 C697 C 0.77069 0.08558 0.39719
 C698 C 0.75242 0.06542 0.40326
 C699 C 0.72346 0.05850 0.36619
 C700 C 0.71273 0.04414 0.35383
 C701 C 0.76948 0.11615 0.43451
 C702 C 0.77893 0.12598 0.45158
 H703 H 0.73675 0.13104 0.39164
 H704 H 0.75983 0.09978 0.35777
 H705 H 0.70319 0.09381 0.40229
 H706 H 0.73373 0.07722 0.44016
 H707 H 0.79046 0.08330 0.39585
 H708 H 0.75692 0.04620 0.40657
 C709 C 0.75796 0.89173 0.60850
 C710 C 0.77082 0.90960 0.62594
 C711 C 0.75055 0.92790 0.62155
 C712 C 0.73754 0.91028 0.60446
 C713 C 0.77166 0.90287 0.58691
 C714 C 0.75139 0.92120 0.58266
 C715 C 0.78473 0.92048 0.60395
 C716 C 0.76426 0.93897 0.59993
 C717 C 0.73784 0.94279 0.63942
 C718 C 0.72660 0.95608 0.65250
 C719 C 0.78217 0.88964 0.56643
 C720 C 0.78948 0.87935 0.54856
 H721 H 0.75551 0.87214 0.61180
 H722 H 0.77865 0.90499 0.64397
 H723 H 0.71802 0.90622 0.60485
 H724 H 0.74349 0.92588 0.56467
 H725 H 0.80426 0.92452 0.60350
 H726 H 0.76673 0.95856 0.59657
 C727 C 0.24406 0.88771 0.39882
 C728 C 0.23151 0.90449 0.38003
 C729 C 0.25127 0.92339 0.38421
 C730 C 0.26397 0.90684 0.40263
 C731 C 0.22939 0.89953 0.41930
 C732 C 0.24915 0.91845 0.42333
 C733 C 0.21662 0.91607 0.40092
 C734 C 0.23658 0.93515 0.40472
 C735 C 0.26436 0.93765 0.36604
 C736 C 0.27588 0.95041 0.35261
 C737 C 0.21845 0.88705 0.44008
 C738 C 0.21084 0.87751 0.45827
 H739 H 0.24700 0.86804 0.39661
 H740 H 0.22443 0.89891 0.36198
 H741 H 0.28357 0.90318 0.40317
 H742 H 0.25631 0.92411 0.44133
 H743 H 0.19702 0.91972 0.40044
 H744 H 0.23364 0.95481 0.40699
 C745 C 0.11194 0.40417 0.73766
 C746 C 0.09539 0.38534 0.75026
 C747 C 0.07535 0.39167 0.73207
 C748 C 0.09163 0.41015 0.71928
 C749 C 0.10208 0.42365 0.75484
 C750 C 0.08202 0.42986 0.73663
 C751 C 0.08580 0.40518 0.76765
 C752 C 0.06558 0.41119 0.74925
 C753 C 0.05947 0.37501 0.71903
 C754 C 0.04561 0.36246 0.70792
 C755 C 0.11561 0.44271 0.76720
 C756 C 0.12514 0.45959 0.77706
 H757 H 0.13117 0.40149 0.73305
 H758 H 0.10070 0.36681 0.75572
 H759 H 0.09385 0.41204 0.69924
 H760 H 0.07663 0.44835 0.73111
 H761 H 0.08358 0.40332 0.78768
 H762 H 0.04636 0.41394 0.75390
 C763 C 0.11161 0.58641 0.26891
 C764 C 0.10699 0.61251 0.25980
 C765 C 0.08019 0.60942 0.26582
 C766 C 0.08461 0.58366 0.27511
 C767 C 0.10647 0.57705 0.24308
 C768 C 0.07967 0.57408 0.24915
 C769 C 0.10209 0.60280 0.23372
 C770 C 0.07507 0.60004 0.23999
 C771 C 0.06455 0.62641 0.27871
 C772 C 0.05087 0.63940 0.28953
 C773 C 0.11969 0.55783 0.23064
 C774 C 0.12893 0.54084 0.22069
 H775 H 0.12679 0.58063 0.28066
 H776 H 0.11803 0.62855 0.26434
 H777 H 0.07725 0.57593 0.29224
 H778 H 0.06854 0.55808 0.24467
 H779 H 0.10946 0.61046 0.21656
 H780 H 0.05988 0.60579 0.22823
 C781 C 0.92093 0.39916 0.21204
 C782 C 0.93991 0.40130 0.23258
 C783 C 0.92819 0.37983 0.24574
 C784 C 0.90940 0.37731 0.22537
 C785 C 0.90441 0.41615 0.22644
 C786 C 0.89263 0.39470 0.23958
 C787 C 0.92322 0.41854 0.24679
 C788 C 0.91165 0.39686 0.26007
 C789 C 0.94233 0.36083 0.25754
 C790 C 0.95496 0.34664 0.26817
 C791 C 0.89179 0.43735 0.21691
 C792 C 0.88191 0.45558 0.21037
 H793 H 0.92461 0.40036 0.19218
 H794 H 0.95951 0.40384 0.22982
 H795 H 0.90387 0.36011 0.21672
 H796 H 0.87303 0.39222 0.24233
 H797 H 0.92882 0.43569 0.25552
 H798 H 0.90795 0.39573 0.27993
 C799 C 0.92607 0.58649 0.77653
 C800 C 0.92827 0.59096 0.74878
 C801 C 0.92336 0.61788 0.75304
 C802 C 0.92136 0.61371 0.78068
 C803 C 0.89895 0.58252 0.77331
 C804 C 0.89394 0.60941 0.77765
 C805 C 0.90101 0.58677 0.74569
 C806 C 0.89623 0.61394 0.74979
 C807 C 0.93780 0.63632 0.74077
 C808 C 0.95056 0.65016 0.72987
 C809 C 0.88600 0.56178 0.78332
 C810 C 0.87595 0.54377 0.79014
 H811 H 0.93821 0.57499 0.78762
 H812 H 0.94251 0.58353 0.73678
 H813 H 0.92988 0.62503 0.79492
 H814 H 0.87967 0.61674 0.78968
 H815 H 0.89253 0.57547 0.73139
 H816 H 0.88413 0.62544 0.73867
 C817 C 0.73836 0.57322 0.91778
 C818 C 0.75235 0.59232 0.93253
 C819 C 0.73569 0.61191 0.92221
 C820 C 0.72155 0.59301 0.90762
 C821 C 0.75542 0.57742 0.89615
 C822 C 0.73877 0.59697 0.88574
 C823 C 0.76958 0.59630 0.91074
 C824 C 0.75274 0.61623 0.90060
 C825 C 0.72428 0.62997 0.93783
 C826 C 0.71437 0.64361 0.95163
 C827 C 0.76625 0.55719 0.88302
 C828 C 0.77510 0.53966 0.87373
 H829 H 0.73253 0.55534 0.92471
 H830 H 0.75784 0.59058 0.95192
 H831 H 0.70167 0.59186 0.90651
 H832 H 0.73331 0.59864 0.86634
 H833 H 0.78946 0.59743 0.91185
 H834 H 0.75852 0.63415 0.89374
 C835 C 0.24889 0.39796 0.88766
 C836 C 0.26946 0.40274 0.90605
 C837 C 0.25714 0.38580 0.92438
 C838 C 0.23673 0.38068 0.90624
 C839 C 0.23480 0.41909 0.89874
 C840 C 0.22243 0.40218 0.91707
 C841 C 0.25522 0.42408 0.91691
 C842 C 0.24305 0.40695 0.93540
 C843 C 0.27032 0.36838 0.93939
 C844 C 0.28171 0.35518 0.95249
 C845 C 0.22351 0.43885 0.88519
 C846 C 0.21558 0.45626 0.87478
 H847 H 0.25113 0.39447 0.86786
 H848 H 0.28893 0.40280 0.90167
 H849 H 0.22929 0.36259 0.90203
 H850 H 0.20295 0.40216 0.92143
 H851 H 0.26273 0.44213 0.92119
 H852 H 0.24079 0.41049 0.95519
 C853 C 0.26144 0.58269 0.09196
 C854 C 0.25820 0.58663 0.06425
 C855 C 0.25623 0.61389 0.06873
 C856 C 0.25963 0.61020 0.09629
 C857 C 0.23402 0.58071 0.09466
 C858 C 0.23198 0.60794 0.09923
 C859 C 0.23065 0.58443 0.06709
 C860 C 0.22881 0.61198 0.07137
 C861 C 0.26940 0.63126 0.05363
 C862 C 0.28084 0.64446 0.04056
 C863 C 0.22285 0.56102 0.10844
 C864 C 0.21507 0.54364 0.11905
 H865 H 0.27476 0.57046 0.10056
 H866 H 0.26912 0.57801 0.04975
 H867 H 0.27169 0.62097 0.10814
 H868 H 0.22104 0.61648 0.11377
 H869 H 0.21861 0.57365 0.05522
 H870 H 0.21554 0.62424 0.06273
 C871 C 0.73905 0.42572 0.08886
 C872 C 0.75261 0.40742 0.07272
 C873 C 0.73720 0.38708 0.08357
 C874 C 0.72349 0.40517 0.09956
 C875 C 0.75757 0.42152 0.10921
 C876 C 0.74217 0.40122 0.12016
 C877 C 0.77129 0.40343 0.09323
 C878 C 0.75571 0.38276 0.10390
 C879 C 0.72551 0.36904 0.06814
 C880 C 0.71544 0.35540 0.05445
 C881 C 0.76875 0.44173 0.12206
 C882 C 0.77786 0.45929 0.13105
 H883 H 0.73229 0.44357 0.08280
 H884 H 0.75680 0.40980 0.05307
 H885 H 0.70369 0.40569 0.10199
 H886 H 0.73801 0.39891 0.13982
 H887 H 0.79108 0.40293 0.09078
 H888 H 0.76242 0.36487 0.10989
 C889 C 0.91361 0.74169 0.58497
 C890 C 0.92862 0.75631 0.60344
 C891 C 0.91831 0.74078 0.62417
 C892 C 0.90345 0.72602 0.60591
 C893 C 0.89272 0.75944 0.58850
 C894 C 0.88231 0.74392 0.60919
 C895 C 0.90758 0.77423 0.60675
 C896 C 0.89744 0.75853 0.62784
 C897 C 0.93388 0.72989 0.64265
 C898 C 0.94788 0.72030 0.65633
 C899 C 0.88002 0.76961 0.56751
 C900 C 0.87121 0.77791 0.54928
 H901 H 0.92014 0.73484 0.56715
 H902 H 0.94781 0.76132 0.60125
 H903 H 0.90192 0.70607 0.60576
 H904 H 0.86310 0.73895 0.61129
 H905 H 0.90912 0.79417 0.60686
 H906 H 0.89099 0.76533 0.64570
 C907 C 0.92847 0.22396 0.40137
 C908 C 0.92320 0.22136 0.37375
 C909 C 0.92636 0.24872 0.37077
 C910 C 0.93182 0.25143 0.39811
 C911 C 0.90158 0.22815 0.40598
 C912 C 0.90479 0.25550 0.40293
 C913 C 0.89600 0.22535 0.37868
 C914 C 0.89946 0.25294 0.37535
 C915 C 0.94118 0.26119 0.35264
 C916 C 0.95440 0.27226 0.33931
 C917 C 0.88857 0.21799 0.42682
 C918 C 0.87863 0.21108 0.44506
 H919 H 0.94027 0.21195 0.41228
 H920 H 0.93093 0.20746 0.36150
 H921 H 0.94667 0.26229 0.40596
 H922 H 0.89712 0.26945 0.41514
 H923 H 0.88111 0.21447 0.37095
 H924 H 0.88770 0.26498 0.36444
 C925 C 0.08833 0.23427 0.59380
 C926 C 0.09753 0.25311 0.61248
 C927 C 0.07617 0.26942 0.60591
 C928 C 0.06679 0.25079 0.58755
 C929 C 0.10308 0.24684 0.57380
 C930 C 0.08171 0.26318 0.56735
 C931 C 0.11256 0.26547 0.59212
 C932 C 0.09093 0.28199 0.58590
 C933 C 0.06010 0.28215 0.62265
 C934 C 0.04596 0.29279 0.63531
 C935 C 0.11661 0.23439 0.55470
 C936 C 0.12609 0.22427 0.53783
 H937 H 0.08743 0.21450 0.59685
 H938 H 0.10383 0.24912 0.63127
 H939 H 0.04781 0.24487 0.58581
 H940 H 0.07533 0.26723 0.54860
 H941 H 0.13155 0.27135 0.59378
 H942 H 0.09181 0.30175 0.58282
 C943 C 0.09239 0.76816 0.40552
 C944 C 0.10244 0.74991 0.38668
 C945 C 0.08083 0.73340 0.39175
 C946 C 0.07061 0.75146 0.41025
 C947 C 0.10623 0.75496 0.42578
 C948 C 0.08461 0.73844 0.43071
 C949 C 0.11655 0.73691 0.40732
 C950 C 0.09468 0.72023 0.41201
 C951 C 0.06541 0.72111 0.37408
 C952 C 0.05159 0.71066 0.36091
 C953 C 0.11886 0.76682 0.44586
 C954 C 0.12760 0.77651 0.46338
 H955 H 0.09161 0.78801 0.40307
 H956 H 0.10957 0.75448 0.36834
 H957 H 0.05157 0.75733 0.41130
 H958 H 0.07740 0.73381 0.44901
 H959 H 0.13560 0.73108 0.40635
 H960 H 0.09545 0.70038 0.41450
 C961 C 0.58191 0.92535 0.74918
 C962 C 0.59933 0.94250 0.76260
 C963 C 0.62034 0.93143 0.74830
 C964 C 0.60313 0.91445 0.73476
 C965 C 0.58584 0.90642 0.76928
 C966 C 0.60684 0.89530 0.75499
 C967 C 0.60302 0.92339 0.78290
 C968 C 0.62440 0.91252 0.76840
 C969 C 0.63838 0.94611 0.73566
 C970 C 0.65193 0.95896 0.72445
 C971 C 0.56551 0.89314 0.77971
 C972 C 0.54778 0.88285 0.78690
 H973 H 0.56425 0.93054 0.74137
 H974 H 0.59640 0.96206 0.76560
 H975 H 0.60333 0.91090 0.71484
 H976 H 0.60972 0.87573 0.75200
 H977 H 0.60276 0.92691 0.80282
 H978 H 0.64211 0.90740 0.77615
 C979 C 0.41866 0.91738 0.25195
 C980 C 0.40076 0.93434 0.23892
 C981 C 0.38020 0.92301 0.25373
 C982 C 0.39791 0.90620 0.26689
 C983 C 0.41448 0.89844 0.23197
 C984 C 0.39395 0.88705 0.24677
 C985 C 0.39680 0.91524 0.21875
 C986 C 0.37588 0.90410 0.23376
 C987 C 0.36240 0.93756 0.26681
 C988 C 0.34923 0.95046 0.27837
 C989 C 0.43474 0.88546 0.22108
 C990 C 0.45243 0.87543 0.21349
 H991 H 0.43644 0.92275 0.25933
 H992 H 0.40340 0.95395 0.23583
 H993 H 0.39821 0.90260 0.28681
 H994 H 0.39136 0.86744 0.24985
 H995 H 0.39657 0.91881 0.19882
 H996 H 0.35806 0.89880 0.22645
 C997 C 0.57657 0.08652 0.26134
 C998 C 0.58491 0.06114 0.25348
 C999 C 0.61113 0.06919 0.25675
 C1000 C 0.60301 0.09442 0.26476
 C1001 C 0.57779 0.09471 0.23457
 C1002 C 0.60398 0.10284 0.23778
 C1003 C 0.58590 0.06947 0.22656
 C1004 C 0.61244 0.07731 0.22997
 C1005 C 0.62850 0.05424 0.26997
 C1006 C 0.64155 0.04121 0.28155
 C1007 C 0.55805 0.10829 0.22345
 C1008 C 0.54072 0.11882 0.21569
 H1009 H 0.56162 0.09042 0.27414
 H1010 H 0.57721 0.04386 0.26008
 H1011 H 0.61022 0.10452 0.28061
 H1012 H 0.61159 0.12015 0.23116
 H1013 H 0.57867 0.05936 0.21073
 H1014 H 0.62743 0.07336 0.21723
 C1015 C 0.41007 0.07796 0.77671
 C1016 C 0.38501 0.08832 0.77007
 C1017 C 0.38718 0.07690 0.74466
 C1018 C 0.41190 0.06635 0.75114
 C1019 C 0.42181 0.10091 0.76649
 C1020 C 0.42388 0.08944 0.74108
 C1021 C 0.39712 0.11154 0.76004
 C1022 C 0.39894 0.09984 0.73444
 C1023 C 0.36906 0.06262 0.73172
 C1024 C 0.35548 0.04990 0.72044
 C1025 C 0.44212 0.11365 0.77760
 C1026 C 0.45971 0.12356 0.78557
 H1027 H 0.41485 0.06908 0.79421
 H1028 H 0.36879 0.08772 0.78184
 H1029 H 0.41784 0.04762 0.74734
 H1030 H 0.44006 0.08999 0.72925
 H1031 H 0.39126 0.13028 0.76386
 H1032 H 0.39418 0.10871 0.71693
 C1033 C 0.58290 0.76776 0.06957
 C1034 C 0.61012 0.77260 0.07291
 C1035 C 0.61462 0.74526 0.07297
 C1036 C 0.58767 0.74032 0.06944
 C1037 C 0.58001 0.76672 0.09742
 C1038 C 0.58457 0.73940 0.09742
 C1039 C 0.60692 0.77176 0.10105
 C1040 C 0.61177 0.74419 0.10082
 C1041 C 0.63258 0.73229 0.05847
 C1042 C 0.64589 0.72076 0.04565
 C1043 C 0.55961 0.77745 0.11039
 C1044 C 0.54185 0.78494 0.12043
 H1045 H 0.57084 0.77754 0.05684
 H1046 H 0.62086 0.78611 0.06269
 H1047 H 0.57989 0.72725 0.05631
 H1048 H 0.57386 0.72583 0.10760
 H1049 H 0.61460 0.78485 0.11421
 H1050 H 0.62384 0.73437 0.11352
 C1051 C 0.42406 0.24866 0.07627
 C1052 C 0.40295 0.23616 0.06302
 C1053 C 0.38594 0.25570 0.07281
 C1054 C 0.40685 0.26832 0.08587
 C1055 C 0.41873 0.23346 0.09909
 C1056 C 0.40173 0.25299 0.10890
 C1057 C 0.39785 0.22074 0.08607
 C1058 C 0.38049 0.24052 0.09562
 C1059 C 0.36877 0.26885 0.05754
 C1060 C 0.35572 0.28025 0.04432
 C1061 C 0.43814 0.22223 0.11311
 C1062 C 0.45523 0.21435 0.12401
 H1063 H 0.44217 0.25189 0.06842
 H1064 H 0.40328 0.22939 0.04399
 H1065 H 0.41040 0.28801 0.08564
 H1066 H 0.40143 0.25977 0.12793
 H1067 H 0.39437 0.20105 0.08632
 H1068 H 0.36236 0.23734 0.10341
 C1069 C 0.60414 0.24638 0.89526
 C1070 C 0.59977 0.26675 0.91402
 C1071 C 0.61657 0.25384 0.93202
 C1072 C 0.62128 0.23361 0.91352
 C1073 C 0.58291 0.23236 0.90626
 C1074 C 0.59968 0.21938 0.92426
 C1075 C 0.57833 0.25260 0.92479
 C1076 C 0.59533 0.23981 0.94297
 C1077 C 0.63409 0.26678 0.94709
 C1078 C 0.64712 0.27826 0.96025
 C1079 C 0.56303 0.22161 0.89251
 C1080 C 0.54568 0.21412 0.88176
 H1081 H 0.60756 0.24894 0.87549
 H1082 H 0.59996 0.28636 0.90994
 H1083 H 0.63917 0.22595 0.90905
 H1084 H 0.59943 0.19977 0.92831
 H1085 H 0.56049 0.26032 0.92934
 H1086 H 0.59185 0.23724 0.96274
 C1087 C 0.42560 0.74782 0.91703
 C1088 C 0.40783 0.75989 0.93489
 C1089 C 0.38727 0.74536 0.92335
 C1090 C 0.40484 0.73315 0.90565
 C1091 C 0.42083 0.76812 0.89854
 C1092 C 0.40030 0.75360 0.88695
 C1093 C 0.40330 0.78039 0.91623
 C1094 C 0.38238 0.76565 0.90488
 C1095 C 0.36967 0.73192 0.93789
 C1096 C 0.35629 0.72030 0.95059
 C1097 C 0.44072 0.77959 0.88539
 C1098 C 0.45821 0.78762 0.87527
 H1099 H 0.44356 0.74059 0.92193
 H1100 H 0.41077 0.76233 0.95476
 H1101 H 0.40532 0.71359 0.90144
 H1102 H 0.39740 0.75117 0.86707
 H1103 H 0.40286 0.79995 0.92042
 H1104 H 0.36438 0.77281 0.90005
 C1105 C 0.74219 0.91467 0.42848
 C1106 C 0.75491 0.92876 0.40786
 C1107 C 0.73652 0.91873 0.38963
 C1108 C 0.72365 0.90480 0.41005
 C1109 C 0.75843 0.89289 0.42321
 C1110 C 0.74004 0.88277 0.40501
 C1111 C 0.77133 0.90681 0.40280
 C1112 C 0.75273 0.89696 0.38422
 C1113 C 0.72400 0.93417 0.37207
 C1114 C 0.71335 0.94775 0.35873
 C1115 C 0.77033 0.87996 0.44313
 C1116 C 0.77982 0.87102 0.46070
 H1117 H 0.73795 0.92184 0.44688
 H1118 H 0.76090 0.94781 0.40889
 H1119 H 0.70391 0.90415 0.41287
 H1120 H 0.73408 0.86371 0.40406
 H1121 H 0.79107 0.90747 0.40002
 H1122 H 0.75691 0.88987 0.36579
 C1123 C 0.24577 0.88845 0.60968
 C1124 C 0.27127 0.89958 0.60732
 C1125 C 0.26132 0.92371 0.61661
 C1126 C 0.23605 0.91290 0.61931
 C1127 C 0.24026 0.89672 0.58352
 C1128 C 0.23036 0.92086 0.59283
 C1129 C 0.26552 0.90758 0.58089
 C1130 C 0.25576 0.93187 0.59042
 C1131 C 0.27343 0.93981 0.63381
 C1132 C 0.28382 0.95392 0.64673
 C1133 C 0.22879 0.88308 0.56388
 C1134 C 0.21959 0.87343 0.54657
 H1135 H 0.24153 0.87042 0.61735
 H1136 H 0.28824 0.89101 0.61349
 H1137 H 0.22408 0.91528 0.63531
 H1138 H 0.21341 0.92948 0.58667
 H1139 H 0.27754 0.90525 0.56491
 H1140 H 0.25996 0.94987 0.58265
 C1141 C 0.25714 0.08226 0.42542
 C1142 C 0.24308 0.06721 0.40652
 C1143 C 0.25993 0.07662 0.38645
 C1144 C 0.27414 0.09149 0.40515
 C1145 C 0.24033 0.10365 0.42041
 C1146 C 0.25717 0.11315 0.40038
 C1147 C 0.22610 0.08879 0.40172
 C1148 C 0.24312 0.09800 0.38132
 C1149 C 0.27121 0.06055 0.36868
 C1150 C 0.28095 0.04645 0.35525
 C1151 C 0.22954 0.11738 0.44038
 C1152 C 0.22069 0.12719 0.45777
 H1153 H 0.26283 0.07592 0.44375
 H1154 H 0.23740 0.04817 0.40886
 H1155 H 0.29403 0.09242 0.40637
 H1156 H 0.26282 0.13221 0.39810
 H1157 H 0.20621 0.08785 0.40053
 H1158 H 0.23749 0.10426 0.36296
 C1159 C 0.75182 0.08135 0.57590
 C1160 C 0.76491 0.06536 0.59479
 C1161 C 0.75017 0.07731 0.61515
 C1162 C 0.73695 0.09313 0.59646
 C1163 C 0.77121 0.10077 0.57928
 C1164 C 0.75648 0.11276 0.59962
 C1165 C 0.78450 0.08495 0.59793
 C1166 C 0.76956 0.09671 0.61867
 C1167 C 0.73755 0.06332 0.63386
 C1168 C 0.72642 0.05083 0.64787
 C1169 C 0.78170 0.11307 0.55816
 C1170 C 0.78896 0.12249 0.53977
 H1171 H 0.74462 0.07511 0.55811
 H1172 H 0.76824 0.04572 0.59298
 H1173 H 0.71727 0.09637 0.59604
 H1174 H 0.75315 0.13241 0.60137
 H1175 H 0.80418 0.08173 0.59829
 H1176 H 0.77669 0.10287 0.63651
 C1177 C 0.91430 0.59750 0.23062
 C1178 C 0.90436 0.61769 0.24737
 C1179 C 0.92439 0.61216 0.26583
 C1180 C 0.93451 0.59229 0.24927
 C1181 C 0.89823 0.57916 0.24390
 C1182 C 0.91828 0.57376 0.26236
 C1183 C 0.88801 0.59899 0.26044
 C1184 C 0.90832 0.59381 0.27908
 C1185 C 0.94010 0.62929 0.27843
 C1186 C 0.95400 0.64206 0.28922
 C1187 C 0.88504 0.55962 0.23194
 C1188 C 0.87573 0.54248 0.22232
 H1189 H 0.91660 0.59881 0.21055
 H1190 H 0.89882 0.63597 0.24135
 H1191 H 0.95379 0.58968 0.24478
 H1192 H 0.92390 0.55551 0.26844
 H1193 H 0.86872 0.60152 0.26489
 H1194 H 0.90602 0.59247 0.29915
 C1195 C 0.88810 0.41465 0.72752
 C1196 C 0.91561 0.41661 0.72393
 C1197 C 0.91816 0.38999 0.73123
 C1198 C 0.89085 0.38769 0.73462
 C1199 C 0.89135 0.42155 0.75443
 C1200 C 0.89385 0.39494 0.76181
 C1201 C 0.91867 0.42373 0.75097
 C1202 C 0.92140 0.39691 0.75814
 C1203 C 0.93421 0.37363 0.71807
 C1204 C 0.94835 0.36135 0.70702
 C1205 C 0.87797 0.44045 0.76717
 C1206 C 0.86874 0.45726 0.77740
 H1207 H 0.87424 0.42213 0.71507
 H1208 H 0.92473 0.42538 0.70825
 H1209 H 0.87961 0.37265 0.72773
 H1210 H 0.88471 0.38625 0.77752
 H1211 H 0.93000 0.43873 0.75781
 H1212 H 0.93527 0.38946 0.77059
 C1213 C 0.07935 0.60221 0.78721
 C1214 C 0.09074 0.62443 0.77436
 C1215 C 0.07255 0.62166 0.75348
 C1216 C 0.06097 0.59982 0.76615
 C1217 C 0.09660 0.58571 0.77311
 C1218 C 0.07838 0.58309 0.75225
 C1219 C 0.10825 0.60752 0.76046
 C1220 C 0.08981 0.60511 0.73946
 C1221 C 0.05811 0.64021 0.74138
 C1222 C 0.04509 0.65374 0.73038
 C1223 C 0.10929 0.56462 0.78271
 C1224 C 0.11917 0.54640 0.78924
 H1225 H 0.07519 0.60077 0.80695
 H1226 H 0.09566 0.64168 0.78329
 H1227 H 0.04137 0.59683 0.76837
 H1228 H 0.07338 0.56589 0.74324
 H1229 H 0.12786 0.61044 0.75825
 H1230 H 0.09399 0.60649 0.71971
 C1231 C 0.10894 0.40005 0.24842
 C1232 C 0.08358 0.40192 0.25979
 C1233 C 0.07631 0.37878 0.24633
 C1234 C 0.10150 0.37656 0.23509
 C1235 C 0.10008 0.41478 0.22643
 C1236 C 0.09287 0.39167 0.21287
 C1237 C 0.07490 0.41688 0.23770
 C1238 C 0.06746 0.39351 0.22434
 C1239 C 0.06209 0.35998 0.25834
 C1240 C 0.04929 0.34596 0.26898
 C1241 C 0.11262 0.43582 0.21649
 C1242 C 0.12239 0.45396 0.20955
 H1243 H 0.12615 0.40298 0.25821
 H1244 H 0.07965 0.40596 0.27921
 H1245 H 0.11227 0.35975 0.23417
 H1246 H 0.09683 0.38772 0.19345
 H1247 H 0.06406 0.43365 0.23867
 H1248 H 0.05024 0.39061 0.21456
   
