data_POSCAR
  _audit_creation_date              2014-09-24
  _audit_creation_method            'ToBaCCo'
  _symmetry_space_group_name_H-M    'P1'
  _symmetry_Int_Tables_number       1
  _symmetry_cell_setting            triclinic
  loop_
  _symmetry_equiv_pos_as_xyz
 x,y,z
_cell_length_a 37.4295
_cell_length_b 37.4435
_cell_length_c 33.6322
_cell_angle_alpha 90.684500
_cell_angle_beta 91.678500
_cell_angle_gamma 89.834100
loop_
  _atom_site_label
  _atom_site_type_symbol
  _atom_site_fract_x
  _atom_site_fract_y
  _atom_site_fract_z
C1 C 0.33612 -0.03961 0.24789
 C2 C 0.34432 -0.00394 0.23936
 C3 C 0.35938 0.00417 0.20306
 C4 C 0.36956 -0.02297 0.17694
 C5 C 0.36276 -0.05864 0.18619
 C6 C 0.34492 -0.06736 0.22107
 C7 C 0.34556 0.02365 0.27107
 C8 C 0.36717 0.01706 0.30480
 C9 C 0.37766 0.04493 0.33104
 C10 C 0.36277 0.07893 0.32511
 C11 C 0.34100 0.08613 0.29132
 C12 C 0.33258 0.05829 0.26423
 H13 H 0.32524 -0.04541 0.27653
 H14 H 0.36640 0.03158 0.19679
 H15 H 0.37677 -0.00989 0.30922
 H16 H 0.31788 0.06363 0.23675
 H17 H 0.37071 -0.07955 0.16571
 H18 H 0.37032 0.10064 0.34527
 C19 C 0.16777 -0.05756 0.75612
 C20 C 0.15931 -0.02202 0.76598
 C21 C 0.14775 -0.01360 0.80420
 C22 C 0.14240 -0.04070 0.83173
 C23 C 0.15096 -0.07604 0.82177
 C24 C 0.16389 -0.08466 0.78419
 C25 C 0.15552 0.00487 0.73452
 C26 C 0.12915 -0.00018 0.70475
 C27 C 0.12223 0.02571 0.67560
 C28 C 0.14394 0.05648 0.67564
 C29 C 0.17060 0.06181 0.70563
 C30 C 0.17579 0.03620 0.73546
 H31 H 0.17536 -0.06421 0.72609
 H32 H 0.13990 0.01359 0.81128
 H33 H 0.11306 -0.02423 0.70531
 H34 H 0.19619 0.04007 0.75864
 H35 H 0.14715 -0.09703 0.84317
 H36 H 0.14032 0.07655 0.65300
 C37 C 0.66609 0.44154 0.27137
 C38 C 0.65731 0.47775 0.27848
 C39 C 0.64436 0.48807 0.31550
 C40 C 0.63653 0.46255 0.34371
 C41 C 0.64510 0.42672 0.33674
 C42 C 0.66069 0.41592 0.30108
 C43 C 0.65130 0.50314 0.24568
 C44 C 0.62300 0.49587 0.21864
 C45 C 0.60790 0.52294 0.19521
 C46 C 0.62341 0.55695 0.19647
 C47 C 0.65214 0.56491 0.22285
 C48 C 0.66584 0.53782 0.24786
 H49 H 0.67471 0.43320 0.24223
 H50 H 0.63597 0.51550 0.32039
 H51 H 0.61049 0.46977 0.21855
 H52 H 0.68623 0.54373 0.27041
 H53 H 0.63876 0.40708 0.35884
 H54 H 0.61280 0.57771 0.17734
 C55 C 0.83943 0.44764 0.73886
 C56 C 0.84776 0.48370 0.73235
 C57 C 0.86343 0.49317 0.69670
 C58 C 0.87325 0.46722 0.66887
 C59 C 0.86519 0.43129 0.67566
 C60 C 0.84765 0.42128 0.71024
 C61 C 0.84783 0.51057 0.76505
 C62 C 0.86675 0.50271 0.80037
 C63 C 0.87897 0.53001 0.82626
 C64 C 0.86908 0.56561 0.81804
 C65 C 0.84721 0.57359 0.78454
 C66 C 0.83708 0.54596 0.75789
 H67 H 0.82829 0.44017 0.76690
 H68 H 0.87101 0.52072 0.69215
 H69 H 0.87559 0.47546 0.80533
 H70 H 0.82298 0.55221 0.73024
 H71 H 0.87237 0.41105 0.65404
 H72 H 0.87753 0.58716 0.83788
 C73 C 0.24830 0.36673 1.04483
 C74 C 0.26316 0.38242 1.01157
 C75 C 0.29405 0.40306 1.01585
 C76 C 0.31077 0.40825 1.05345
 C77 C 0.29578 0.39213 1.08665
 C78 C 0.26473 0.37084 1.08289
 C79 C 0.24503 0.37922 0.97231
 C80 C 0.21190 0.39577 0.96615
 C81 C 0.19456 0.39466 0.92860
 C82 C 0.21005 0.37504 0.89774
 C83 C 0.24318 0.35767 0.90368
 C84 C 0.26097 0.36062 0.94103
 H85 H 0.22400 0.35160 1.04016
 H86 H 0.30377 0.41586 0.98969
 H87 H 0.19975 0.40947 0.99091
 H88 H 0.28698 0.34853 0.94612
 H89 H 0.30879 0.39586 1.11565
 H90 H 0.19618 0.37323 0.86903
 C91 C 0.74519 0.13581 1.02643
 C92 C 0.73681 0.11108 0.99621
 C93 C 0.70957 0.08631 1.00116
 C94 C 0.69123 0.08502 1.03688
 C95 C 0.70179 0.10830 1.06851
 C96 C 0.72875 0.13415 1.06319
 C97 C 0.76047 0.10754 0.96241
 C98 C 0.79599 0.09766 0.97006
 C99 C 0.81924 0.09218 0.93901
 C100 C 0.80715 0.09789 0.89971
 C101 C 0.77188 0.10983 0.89170
 C102 C 0.74824 0.11352 0.92329
 H103 H 0.76648 0.15485 1.02206
 H104 H 0.70319 0.06746 0.97728
 H105 H 0.80540 0.09348 1.00048
 H106 H 0.72069 0.12139 0.91783
 H107 H 0.68846 0.10723 1.09651
 H108 H 0.82569 0.09488 0.87573
 C109 C 0.25612 0.62469 0.54826
 C110 C 0.23834 0.61013 0.51457
 C111 C 0.20379 0.59634 0.51768
 C112 C 0.18694 0.59647 0.55460
 C113 C 0.20473 0.61206 0.58787
 C114 C 0.23915 0.62671 0.58495
 C115 C 0.25555 0.61149 0.47573
 C116 C 0.28710 0.59206 0.46969
 C117 C 0.30718 0.59757 0.43557
 C118 C 0.29569 0.62352 0.40833
 C119 C 0.26402 0.64284 0.41383
 C120 C 0.24351 0.63617 0.44718
 H121 H 0.28285 0.63509 0.54532
 H122 H 0.19004 0.58624 0.49112
 H123 H 0.29675 0.57427 0.49278
 H124 H 0.22009 0.65235 0.45277
 H125 H 0.19139 0.61340 0.61604
 H126 H 0.31204 0.62949 0.38315
 C127 C 0.74983 0.87119 0.55209
 C128 C 0.75936 0.89579 0.52322
 C129 C 0.79076 0.91575 0.52820
 C130 C 0.81389 0.91054 0.56162
 C131 C 0.80444 0.88479 0.58961
 C132 C 0.77246 0.86535 0.58529
 C133 C 0.73853 0.89760 0.48560
 C134 C 0.70931 0.92089 0.48194
 C135 C 0.68693 0.91988 0.44754
 C136 C 0.69509 0.89600 0.41663
 C137 C 0.72462 0.87293 0.41985
 C138 C 0.74646 0.87399 0.45440
 H139 H 0.72607 0.85505 0.54729
 H140 H 0.79748 0.93347 0.50447
 H141 H 0.70403 0.93912 0.50628
 H142 H 0.76835 0.85519 0.45807
 H143 H 0.82233 0.87933 0.61479
 H144 H 0.67746 0.89428 0.39051
 C145 C -0.04056 0.24409 0.34914
 C146 C -0.01031 0.23619 0.37283
 C147 C -0.00586 0.20194 0.38850
 C148 C -0.03133 0.17512 0.37984
 C149 C -0.06057 0.18303 0.35399
 C150 C -0.06577 0.21772 0.33889
 C151 C 0.01809 0.26315 0.37764
 C152 C 0.01001 0.29796 0.39040
 C153 C 0.03581 0.32499 0.38896
 C154 C 0.06945 0.31712 0.37345
 C155 C 0.07791 0.28213 0.36152
 C156 C 0.05242 0.25516 0.36459
 H157 H -0.04363 0.27078 0.33725
 H158 H 0.01802 0.19642 0.40627
 H159 H -0.01672 0.30412 0.39998
 H160 H 0.05862 0.22830 0.35448
 H161 H -0.08012 0.16237 0.34767
 H162 H 0.08930 0.33801 0.37156
 C163 C -0.04874 0.77218 0.15950
 C164 C -0.01655 0.77088 0.13910
 C165 C -0.00525 0.80074 0.11827
 C166 C -0.02562 0.83197 0.11777
 C167 C -0.05751 0.83345 0.13843
 C168 C -0.06970 0.80370 0.15932
 C169 C 0.00505 0.73805 0.13685
 C170 C -0.00864 0.70799 0.11653
 C171 C 0.01441 0.68082 0.10368
 C172 C 0.05114 0.68282 0.11463
 C173 C 0.06440 0.71123 0.13835
 C174 C 0.04127 0.73919 0.14848
 H175 H -0.05747 0.74826 0.17403
 H176 H 0.01958 0.79962 0.10246
 H177 H -0.03667 0.70751 0.10738
 H178 H 0.05164 0.76285 0.16362
 H179 H -0.07306 0.85796 0.13787
 H180 H 0.06933 0.66163 0.10637
 C181 C 0.44852 0.26361 0.63473
 C182 C 0.48291 0.26389 0.61912
 C183 C 0.49622 0.29553 0.60328
 C184 C 0.47563 0.32675 0.60369
 C185 C 0.44155 0.32637 0.61973
 C186 C 0.42768 0.29487 0.63508
 C187 C 0.50504 0.23123 0.61941
 C188 C 0.49069 0.19863 0.60557
 C189 C 0.51191 0.16778 0.60558
 C190 C 0.54765 0.16954 0.61896
 C191 C 0.56227 0.20194 0.63257
 C192 C 0.54083 0.23268 0.63308
 H193 H 0.43799 0.23897 0.64613
 H194 H 0.52265 0.29598 0.59096
 H195 H 0.46310 0.19719 0.59496
 H196 H 0.55221 0.25787 0.64327
 H197 H 0.42563 0.35062 0.61986
 H198 H 0.56420 0.14572 0.61840
 C199 C 0.45376 0.74237 0.86498
 C200 C 0.48916 0.74562 0.87923
 C201 C 0.50395 0.71934 0.90402
 C202 C 0.48287 0.69147 0.91799
 C203 C 0.44678 0.68909 0.90438
 C204 C 0.43261 0.71360 0.87658
 C205 C 0.50972 0.77835 0.87224
 C206 C 0.49766 0.81103 0.88791
 C207 C 0.51881 0.84170 0.88567
 C208 C 0.55192 0.83964 0.86737
 C209 C 0.56441 0.80719 0.85187
 C210 C 0.54310 0.77649 0.85423
 H211 H 0.44242 0.76286 0.84590
 H212 H 0.53147 0.72209 0.91466
 H213 H 0.47220 0.81242 0.90240
 H214 H 0.55309 0.75094 0.84387
 H215 H 0.43003 0.66733 0.91353
 H216 H 0.56856 0.86326 0.86621
 C217 C -0.28073 0.58155 0.99523
 C218 C -0.24747 0.59588 1.00742
 C219 C -0.24302 0.61019 1.04575
 C220 C -0.27172 0.61231 1.07119
 C221 C -0.30512 0.59845 1.05897
 C222 C -0.30994 0.58211 1.02088
 C223 C -0.21837 0.60037 0.97917
 C224 C -0.22464 0.62136 0.94538
 C225 C -0.19623 0.63311 0.92248
 C226 C -0.16145 0.62124 0.93265
 C227 C -0.15479 0.59958 0.96577
 C228 C -0.18335 0.58936 0.98924
 H229 H -0.28386 0.57041 0.96542
 H230 H -0.21750 0.62165 1.05510
 H231 H -0.25159 0.63074 0.93875
 H232 H -0.17838 0.57433 1.01615
 H233 H -0.32621 0.59948 1.08016
 H234 H -0.13889 0.62855 0.91526
 C235 C -0.30482 0.41600 0.49069
 C236 C -0.27027 0.40238 0.48452
 C237 C -0.26485 0.37697 0.45439
 C238 C -0.29375 0.36425 0.43070
 C239 C -0.32785 0.37853 0.43652
 C240 C -0.33410 0.40420 0.46661
 C241 C -0.24108 0.40948 0.51394
 C242 C -0.24015 0.38971 0.54902
 C243 C -0.21339 0.39561 0.57824
 C244 C -0.18774 0.42204 0.57262
 C245 C -0.18708 0.44083 0.53673
 C246 C -0.21387 0.43439 0.50716
 H247 H -0.30857 0.43444 0.51520
 H248 H -0.23815 0.36660 0.45040
 H249 H -0.26070 0.36998 0.55382
 H250 H -0.21405 0.44913 0.47964
 H251 H -0.35000 0.36851 0.41812
 H252 H -0.16747 0.42709 0.59561
 C253 C 0.20580 -0.09786 0.00004
 C254 C 0.24125 -0.10481 -0.01032
 C255 C 0.24815 -0.12196 -0.04640
 C256 C 0.22019 -0.13479 -0.07133
 C257 C 0.18465 -0.12784 -0.06062
 C258 C 0.17727 -0.10848 -0.02554
 C259 C 0.27128 -0.09739 0.01792
 C260 C 0.27290 -0.11497 0.05444
 C261 C 0.30134 -0.10874 0.08194
 C262 C 0.32790 -0.08404 0.07233
 C263 C 0.32824 -0.06865 0.03436
 C264 C 0.29949 -0.07511 0.00741
 H265 H 0.20068 -0.08484 0.02822
 H266 H 0.27572 -0.12734 -0.05372
 H267 H 0.25128 -0.13274 0.06166
 H268 H 0.29871 -0.06262 -0.02149
 H269 H 0.16256 -0.13628 -0.07994
 H270 H 0.34985 -0.07880 0.09332
 C271 C 0.19589 1.08803 0.50287
 C272 C 0.22856 1.10264 0.51645
 C273 C 0.23048 1.12073 0.55322
 C274 C 0.19977 1.12582 0.57578
 C275 C 0.16732 1.11097 0.56177
 C276 C 0.16520 1.09234 0.52540
 C277 C 0.25750 1.10762 0.48818
 C278 C 0.25154 1.13184 0.45734
 C279 C 0.27905 1.14186 0.43235
 C280 C 0.31275 1.12556 0.43765
 C281 C 0.31902 1.10031 0.46783
 C282 C 0.29133 1.09186 0.49364
 H283 H 0.19382 1.07601 0.47342
 H284 H 0.25536 1.13347 0.56260
 H285 H 0.22538 1.14426 0.45413
 H286 H 0.29605 1.07397 0.51828
 H287 H 0.14312 1.11457 0.57811
 H288 H 0.33441 1.13208 0.41848
 C289 C 0.13733 0.50475 0.20157
 C290 C 0.15307 0.51741 0.23725
 C291 C 0.16896 0.55104 0.23898
 C292 C 0.16944 0.57246 0.20522
 C293 C 0.15283 0.56011 0.16958
 C294 C 0.13638 0.52633 0.16767
 C295 C 0.14921 0.49727 0.27394
 C296 C 0.16880 0.46593 0.28012
 C297 C 0.16329 0.44514 0.31396
 C298 C 0.13679 0.45559 0.34041
 C299 C 0.11707 0.48711 0.33436
 C300 C 0.12390 0.50825 0.30137
 H301 H 0.12336 0.47945 0.20141
 H302 H 0.18039 0.56081 0.26705
 H303 H 0.18721 0.45746 0.25764
 H304 H 0.10798 0.53191 0.29543
 H305 H 0.15087 0.57742 0.14403
 H306 H 0.13106 0.43882 0.36550
 C307 C -0.13769 0.99718 0.16972
 C308 C -0.15184 0.98478 0.20517
 C309 C -0.17210 0.95350 0.20513
 C310 C -0.17873 0.93367 0.16983
 C311 C -0.16494 0.94680 0.13431
 C312 C -0.14389 0.97813 0.13369
 C313 C -0.14326 1.00226 0.24373
 C314 C -0.16377 1.03111 0.25728
 C315 C -0.15757 1.04577 0.29589
 C316 C -0.13084 1.03011 0.32051
 C317 C -0.11080 1.00072 0.30717
 C318 C -0.11672 0.98740 0.26861
 H319 H -0.12173 1.02120 0.17095
 H320 H -0.18127 0.94478 0.23352
 H321 H -0.18365 1.04216 0.23693
 H322 H -0.10117 0.96485 0.25818
 H323 H -0.16959 0.93166 0.10694
 H324 H -0.12519 1.04101 0.35004
 C325 C 0.37537 0.50079 -0.30402
 C326 C 0.37255 0.49047 -0.26432
 C327 C 0.36177 0.45594 -0.25535
 C328 C 0.35181 0.43203 -0.28571
 C329 C 0.35414 0.44235 -0.32556
 C330 C 0.36740 0.47633 -0.33523
 C331 C 0.38097 0.51567 -0.23174
 C332 C 0.35928 0.54566 -0.22600
 C333 C 0.36644 0.56968 -0.19411
 C334 C 0.39684 0.56356 -0.16949
 C335 C 0.41810 0.53301 -0.17466
 C336 C 0.40988 0.50897 -0.20568
 H337 H 0.38408 0.52768 -0.30980
 H338 H 0.36022 0.44801 -0.22453
 H339 H 0.33737 0.54979 -0.24707
 H340 H 0.42639 0.48553 -0.21024
 H341 H 0.34766 0.42304 -0.34893
 H342 H 0.40341 0.58198 -0.14523
 C343 C 0.61945 0.00061 -0.29170
 C344 C 0.64181 0.01223 -0.26004
 C345 C 0.66142 0.04371 -0.26317
 C346 C 0.65885 0.06420 -0.29777
 C347 C 0.63518 0.05315 -0.32881
 C348 C 0.61512 0.02146 -0.32607
 C349 C 0.64195 -0.00704 -0.22224
 C350 C 0.65932 -0.04007 -0.21908
 C351 C 0.65624 -0.06077 -0.18464
 C352 C 0.63443 -0.04807 -0.15419
 C353 C 0.61675 -0.01499 -0.15722
 C354 C 0.62128 0.00580 -0.19107
 H355 H 0.60368 -0.02319 -0.28776
 H356 H 0.67834 0.05251 -0.23823
 H357 H 0.67385 -0.04968 -0.24436
 H358 H 0.60654 0.03056 -0.19474
 H359 H 0.63122 0.06975 -0.35468
 H360 H 0.63030 -0.06452 -0.12841
 C361 C -0.00257 0.19173 0.87245
 C362 C -0.01097 0.22521 0.85618
 C363 C -0.04280 0.22983 0.83373
 C364 C -0.06601 0.20091 0.82707
 C365 C -0.05711 0.16751 0.84296
 C366 C -0.02577 0.16287 0.86592
 C367 C 0.01391 0.25521 0.86196
 C368 C 0.04813 0.25290 0.84648
 C369 C 0.07207 0.28147 0.85116
 C370 C 0.06204 0.31168 0.87355
 C371 C 0.02763 0.31426 0.88912
 C372 C 0.00343 0.28619 0.88236
 H373 H 0.02211 0.18809 0.88963
 H374 H -0.04960 0.25596 0.82222
 H375 H 0.05584 0.22878 0.83081
 H376 H -0.02334 0.28808 0.89368
 H377 H -0.07506 0.14508 0.83812
 H378 H 0.08053 0.33376 0.87739
 C379 C 0.51678 0.21243 0.10953
 C380 C 0.51394 0.24820 0.12170
 C381 C 0.54100 0.26369 0.14563
 C382 C 0.56958 0.24290 0.15976
 C383 C 0.57205 0.20675 0.14817
 C384 C 0.54623 0.19165 0.12194
 C385 C 0.48060 0.26789 0.11379
 C386 C 0.44901 0.25505 0.12963
 C387 C 0.41723 0.27436 0.12520
 C388 C 0.41692 0.30624 0.10380
 C389 C 0.44854 0.31988 0.08834
 C390 C 0.48054 0.30046 0.09358
 H391 H 0.49531 0.20058 0.09158
 H392 H 0.53878 0.29138 0.15507
 H393 H 0.44938 0.23032 0.14609
 H394 H 0.50555 0.31085 0.08332
 H395 H 0.59452 0.19075 0.15866
 H396 H 0.39222 0.32131 0.10076
 C397 C -0.00557 0.71423 0.61758
 C398 C 0.00651 0.74560 0.63661
 C399 C 0.04273 0.74904 0.64792
 C400 C 0.06688 0.72123 0.63982
 C401 C 0.05471 0.69074 0.61878
 C402 C 0.01837 0.68698 0.60796
 C403 C -0.01916 0.77467 0.64389
 C404 C -0.05000 0.76780 0.66528
 C405 C -0.07697 0.79388 0.66840
 C406 C -0.07188 0.82729 0.65077
 C407 C -0.04108 0.83443 0.62970
 C408 C -0.01470 0.80806 0.62624
 H409 H -0.03366 0.71140 0.60931
 H410 H 0.05194 0.77325 0.66286
 H411 H -0.05344 0.74139 0.67728
 H412 H 0.00902 0.81335 0.60955
 H413 H 0.07325 0.66927 0.61247
 H414 H -0.09226 0.84786 0.65288
 C415 C 0.49787 0.70761 0.39013
 C416 C 0.49056 0.74069 0.37276
 C417 C 0.45585 0.74852 0.35856
 C418 C 0.42840 0.72325 0.36223
 C419 C 0.43582 0.69079 0.38172
 C420 C 0.47076 0.68271 0.39514
 C421 C 0.52011 0.76619 0.36931
 C422 C 0.55026 0.75584 0.34817
 C423 C 0.58117 0.77677 0.34980
 C424 C 0.58155 0.80853 0.37235
 C425 C 0.55148 0.81950 0.39340
 C426 C 0.52054 0.79820 0.39153
 H427 H 0.52495 0.70134 0.40021
 H428 H 0.45037 0.77403 0.34477
 H429 H 0.55024 0.73040 0.33245
 H430 H 0.49713 0.80593 0.40775
 H431 H 0.41484 0.67117 0.38457
 H432 H 0.60568 0.82451 0.37410
 B433 B -0.02770 0.00924 1.01606
 B434 B -0.04056 -0.00045 0.96890
 B435 B -0.00790 0.02937 0.97809
 B436 B 0.01718 0.01600 1.01775
 B437 B -0.00051 -0.02312 1.03300
 B438 B -0.03671 -0.03341 1.00258
 B439 B 0.02218 -0.03308 0.95717
 B440 B 0.03558 -0.02341 1.00395
 B441 B 0.00268 -0.05307 0.99527
 B442 B -0.02230 -0.03979 0.95550
 B443 B -0.00458 -0.00059 0.94018
 B444 B 0.03148 0.00966 0.97052
 B445 B 0.45856 0.51068 0.52369
 B446 B 0.44165 0.50183 0.47799
 B447 B 0.47204 0.53423 0.48496
 B448 B 0.50222 0.52159 0.52044
 B449 B 0.48983 0.48022 0.53534
 B450 B 0.45196 0.46798 0.50887
 B451 B 0.50514 0.47596 0.45642
 B452 B 0.52236 0.48466 0.50214
 B453 B 0.49161 0.45252 0.49534
 B454 B 0.46162 0.46521 0.45971
 B455 B 0.47404 0.50671 0.44474
 B456 B 0.51205 0.51869 0.47130
 B457 B 0.51524 0.97621 0.54133
 B458 B 0.53884 0.98370 0.50073
 B459 B 0.50727 0.95209 0.49967
 B460 B 0.47271 0.96622 0.52730
 B461 B 0.48362 1.00777 0.54487
 B462 B 0.52518 1.01836 0.52841
 B463 B 0.48038 1.01046 0.46383
 B464 B 0.45664 1.00321 0.50443
 B465 B 0.48867 1.03453 0.50535
 B466 B 0.52294 1.02031 0.47780
 B467 B 0.51179 0.97886 0.46004
 B468 B 0.47031 0.96820 0.47670
 B469 B 0.05061 0.48499 1.02251
 B470 B 0.06598 0.49260 0.97710
 B471 B 0.03401 0.46225 0.98308
 B472 B 0.00630 0.47688 1.01860
 B473 B 0.02181 0.51770 1.03430
 B474 B 0.05950 0.52690 1.00870
 B475 B 0.00344 0.52259 0.95548
 B476 B -0.01219 0.51491 1.00077
 B477 B 0.02039 0.54513 0.99507
 B478 B 0.04778 0.53033 0.95944
 B479 B 0.03190 0.48973 0.94340
 B480 B -0.00549 0.48026 0.96936
 B481 B 0.02269 0.52418 0.46310
 B482 B 0.04352 0.51272 0.50588
 B483 B 0.01128 0.54370 0.50571
 B484 B -0.02088 0.53227 0.47144
 B485 B -0.00770 0.49282 0.45059
 B486 B 0.03281 0.48123 0.47187
 B487 B -0.01658 0.48158 0.52960
 B488 B -0.03745 0.49299 0.48689
 B489 B -0.00480 0.46226 0.48678
 B490 B 0.02698 0.47375 0.52119
 B491 B 0.01371 0.51314 0.54245
 B492 B -0.02664 0.52505 0.52088
 B493 B 0.52603 0.02984 -0.02263
 B494 B 0.54690 0.01769 0.02001
 B495 B 0.51627 0.05016 0.02025
 B496 B 0.48309 0.04023 -0.01317
 B497 B 0.49374 0.00017 -0.03417
 B498 B 0.53409 -0.01358 -0.01373
 B499 B 0.48577 -0.01035 0.04500
 B500 B 0.46476 0.00207 0.00287
 B501 B 0.49575 -0.03055 0.00206
 B502 B 0.52874 -0.02044 0.03576
 B503 B 0.51758 0.01959 0.05711
 B504 B 0.47792 0.03360 0.03639
 B505 B 0.48284 0.49306 -0.02343
 B506 B 0.45361 0.49244 0.01350
 B507 B 0.49214 0.46975 0.01762
 B508 B 0.52477 0.49353 -0.00384
 B509 B 0.50518 0.53196 -0.02091
 B510 B 0.46070 0.53058 -0.01059
 B511 B 0.49893 0.53098 0.05959
 B512 B 0.52793 0.53202 0.02277
 B513 B 0.48911 0.55429 0.01848
 B514 B 0.45696 0.53058 0.04000
 B515 B 0.47663 0.49240 0.05735
 B516 B 0.52104 0.49329 0.04648
 B517 B -0.03476 0.98050 0.46747
 B518 B -0.05124 0.99527 0.51052
 B519 B -0.02072 0.96253 0.51054
 B520 B 0.00888 0.97040 0.47466
 B521 B -0.00376 1.00946 0.45255
 B522 B -0.04176 1.02437 0.47485
 B523 B 0.01244 1.02412 0.53061
 B524 B 0.02893 1.00922 0.48776
 B525 B -0.00208 1.04202 0.48760
 B526 B -0.03136 1.03408 0.52353
 B527 B -0.01847 0.99527 0.54582
 B528 B 0.01921 0.97987 0.52338
 B529 B 0.74893 0.19952 0.23440
 B530 B 0.74626 0.18206 0.27982
 B531 B 0.77870 0.21112 0.27008
 B532 B 0.76245 0.24247 0.23877
 B533 B 0.71865 0.23227 0.22928
 B534 B 0.70886 0.19435 0.25465
 B535 B 0.72719 0.24605 0.30906
 B536 B 0.72989 0.26377 0.26360
 B537 B 0.69748 0.23434 0.27286
 B538 B 0.71388 0.20312 0.30445
 B539 B 0.75787 0.21337 0.31405
 B540 B 0.76742 0.25143 0.28857
 B541 B 0.72914 0.77387 0.72296
 B542 B 0.73705 0.79636 0.76572
 B543 B 0.70649 0.76388 0.76354
 B544 B 0.72080 0.73072 0.73340
 B545 B 0.76151 0.74328 0.71715
 B546 B 0.77111 0.78474 0.73717
 B547 B 0.76688 0.73768 0.79782
 B548 B 0.75884 0.71505 0.75524
 B549 B 0.78947 0.74816 0.75707
 B550 B 0.77489 0.78093 0.78758
 B551 B 0.73432 0.76797 0.80400
 B552 B 0.72442 0.72694 0.78392
 B553 B 0.26920 0.27222 0.76893
 B554 B 0.25957 0.29067 0.72460
 B555 B 0.28785 0.25600 0.72780
 B556 B 0.27368 0.22754 0.76257
 B557 B 0.23548 0.24538 0.78084
 B558 B 0.22720 0.28512 0.75733
 B559 B 0.22367 0.23178 0.70168
 B560 B 0.23344 0.21302 0.74568
 B561 B 0.20516 0.24794 0.74309
 B562 B 0.21928 0.27615 0.70808
 B563 B 0.25754 0.25836 0.68968
 B564 B 0.26614 0.21889 0.71296
 B565 B 0.22966 0.73400 0.27580
 B566 B 0.23847 0.71487 0.23184
 B567 B 0.20946 0.74879 0.23424
 B568 B 0.22405 0.77830 0.26947
 B569 B 0.26323 0.76179 0.28870
 B570 B 0.27168 0.72178 0.26545
 B571 B 0.27220 0.77426 0.20978
 B572 B 0.26373 0.79337 0.25388
 B573 B 0.29258 0.75890 0.25172
 B574 B 0.27780 0.72984 0.21625
 B575 B 0.23859 0.74663 0.19681
 B576 B 0.22983 0.78635 0.22023
 B577 B 0.27082 0.70990 0.72343
 B578 B 0.26019 0.69172 0.76680
 B579 B 0.29102 0.72404 0.76592
 B580 B 0.27868 0.75387 0.73072
 B581 B 0.23903 0.73947 0.70999
 B582 B 0.22795 0.70032 0.73235
 B583 B 0.22894 0.75308 0.78884
 B584 B 0.23962 0.77133 0.74553
 B585 B 0.20892 0.73874 0.74625
 B586 B 0.22120 0.70903 0.78150
 B587 B 0.26073 0.72369 0.80248
 B588 B 0.27215 0.76259 0.77986
 B589 B 0.24127 0.29511 0.22396
 B590 B 0.25510 0.31296 0.26759
 B591 B 0.22160 0.28344 0.26579
 B592 B 0.22988 0.25201 0.23081
 B593 B 0.26974 0.26274 0.21097
 B594 B 0.28518 0.30109 0.23370
 B595 B 0.28168 0.24973 0.29011
 B596 B 0.26796 0.23153 0.24648
 B597 B 0.30130 0.26142 0.24787
 B598 B 0.29294 0.29270 0.28303
 B599 B 0.25292 0.28187 0.30301
 B600 B 0.23760 0.24358 0.27996
 B601 B 0.76524 0.77158 0.28199
 B602 B 0.75837 0.79078 0.23759
 B603 B 0.78972 0.75912 0.24329
 B604 B 0.77512 0.72801 0.27485
 B605 B 0.73358 0.74092 0.28831
 B606 B 0.72335 0.78041 0.26522
 B607 B 0.73139 0.72920 0.20811
 B608 B 0.73836 0.71001 0.25248
 B609 B 0.70707 0.74196 0.24691
 B610 B 0.72180 0.77290 0.21514
 B611 B 0.76346 0.75965 0.20136
 B612 B 0.77364 0.72038 0.22469
 B613 B 0.73557 0.21519 0.75638
 B614 B 0.74019 0.20015 0.70963
 B615 B 0.71122 0.23310 0.71919
 B616 B 0.72855 0.25986 0.75544
 B617 B 0.76926 0.24280 0.76842
 B618 B 0.77638 0.20536 0.73974
 B619 B 0.77073 0.26220 0.69038
 B620 B 0.76607 0.27735 0.73710
 B621 B 0.79500 0.24408 0.72798
 B622 B 0.77758 0.21759 0.69126
 B623 B 0.73661 0.23481 0.67826
 B624 B 0.72952 0.27219 0.70678
 C625 C 0.40359 1.04008 0.36173
 C626 C 0.42723 1.01296 0.36171
 C627 C 0.45165 1.00394 0.39504
 C628 C 0.46180 1.02603 0.42488
 H629 H 0.42807 0.99429 0.33704
 H630 H 0.46042 0.97634 0.39529
 H631 H 0.40520 1.05986 0.38546
 H632 H 0.45526 1.05414 0.42405
 C633 C -0.09818 0.52012 0.85817
 C634 C -0.07524 0.54174 0.87812
 C635 C -0.05146 0.52596 0.90885
 C636 C -0.02101 0.54122 0.92224
 H637 H -0.07232 0.56958 0.87062
 H638 H -0.05919 0.50027 0.92028
 H639 H -0.09695 0.49187 0.86514
 H640 H -0.01285 0.56675 0.91081
 C641 C 0.12510 -0.03180 0.86930
 C642 C 0.09941 -0.05221 0.88396
 C643 C 0.07871 -0.03878 0.91728
 C644 C 0.04709 -0.05268 0.92647
 H645 H 0.09160 -0.07702 0.86930
 H646 H 0.08876 -0.01525 0.93293
 H647 H 0.13050 -0.00575 0.88257
 H648 H 0.03678 -0.07593 0.91052
 C649 C 0.61514 0.47356 0.37761
 C650 C 0.58429 0.45746 0.38520
 C651 C 0.56033 0.47355 0.41409
 C652 C 0.52893 0.45903 0.42288
 H653 H 0.57599 0.43372 0.36868
 H654 H 0.56929 0.49777 0.42923
 H655 H 0.62206 0.49848 0.39266
 H656 H 0.51997 0.43465 0.40812
 C657 C 0.57536 0.51475 0.17081
 C658 C 0.55181 0.53923 0.15748
 C659 C 0.52254 0.52768 0.13042
 C660 C 0.51021 0.54866 0.10108
 H661 H 0.55536 0.56742 0.16376
 H662 H 0.51676 0.49930 0.12926
 H663 H 0.57038 0.48680 0.16379
 H664 H 0.51658 0.57687 0.10157
 C665 C 0.09359 1.01902 0.64842
 C666 C 0.08088 1.04069 0.61971
 C667 C 0.05077 1.02764 0.59416
 C668 C 0.03828 1.04448 0.56169
 H669 H 0.09238 1.06659 0.61435
 H670 H 0.03995 1.00164 0.60093
 H671 H 0.08004 0.99361 0.65140
 H672 H 0.04895 1.07024 0.55396
 C673 C -0.10668 0.47927 0.63435
 C674 C -0.08195 0.45990 0.61574
 C675 C -0.05987 0.47777 0.58649
 C676 C -0.03728 0.46061 0.56268
 H677 H -0.07687 0.43226 0.62318
 H678 H -0.06288 0.50646 0.58420
 H679 H -0.11008 0.50709 0.62631
 H680 H -0.03400 0.43195 0.56466
 C681 C 0.38844 -0.01264 0.14114
 C682 C 0.41593 -0.03095 0.12649
 C683 C 0.43642 -0.01463 0.09497
 C684 C 0.46474 -0.03011 0.07852
 H685 H 0.42438 -0.05622 0.13903
 H686 H 0.42793 0.01164 0.08537
 H687 H 0.38185 0.01334 0.12892
 H688 H 0.47362 -0.05631 0.08793
 C689 C 0.34329 0.43075 0.05944
 C690 C 0.36323 0.44235 0.02976
 C691 C 0.39561 0.46388 0.03750
 C692 C 0.41636 0.47287 0.00749
 H693 H 0.35683 0.43509 -0.00078
 H694 H 0.40330 0.47102 0.06789
 H695 H 0.35159 0.43751 0.08976
 H696 H 0.40794 0.46575 -0.02261
 C697 C -0.15272 0.92779 0.56656
 C698 C -0.14142 0.95446 0.54382
 C699 C -0.10390 0.96637 0.54588
 C700 C -0.09206 0.98872 0.51858
 H701 H -0.15889 0.96666 0.52173
 H702 H -0.08548 0.95441 0.56726
 H703 H -0.13446 0.91820 0.58976
 H704 H -0.11101 1.00031 0.49737
 C705 C -0.14342 0.08316 0.94938
 C706 C -0.12824 0.05244 0.93836
 C707 C -0.09348 0.04220 0.95654
 C708 C -0.07819 0.01051 0.94962
 H709 H -0.14232 0.03422 0.91815
 H710 H -0.08072 0.06091 0.97715
 H711 H -0.12991 0.10000 0.97154
 H712 H -0.09138 -0.00848 0.92961
 C713 C 0.34240 0.58025 0.42997
 C714 C 0.35215 0.54935 0.44670
 C715 C 0.38948 0.53690 0.44545
 C716 C 0.40077 0.50992 0.46824
 H717 H 0.33330 0.53431 0.46362
 H718 H 0.40841 0.55210 0.42880
 H719 H 0.36151 0.59412 0.41210
 H720 H 0.38132 0.49471 0.48410
 C721 C 0.14996 0.58282 0.55866
 C722 C 0.13604 0.55681 0.53538
 C723 C 0.09822 0.54599 0.53756
 C724 C 0.08474 0.52166 0.51186
 H725 H 0.15245 0.54377 0.51349
 H726 H 0.08106 0.55936 0.55847
 H727 H 0.13380 0.59444 0.58174
 H728 H 0.10246 0.50877 0.49113
 C729 C 0.66112 0.05932 0.03875
 C730 C 0.63495 0.06146 0.06507
 C731 C 0.60112 0.04106 0.06138
 C732 C 0.58786 0.02735 0.02691
 H733 H 0.63657 0.08062 0.08930
 H734 H 0.58447 0.04186 0.08713
 H735 H 0.65926 0.03939 0.01526
 H736 H 0.60365 0.02716 0.00056
 C737 C 0.65360 0.94129 0.44362
 C738 C 0.63561 0.95313 0.47491
 C739 C 0.59943 0.96833 0.47012
 C740 C 0.57988 0.97379 0.50217
 H741 H 0.64596 0.94869 0.50481
 H742 H 0.58791 0.97241 0.44056
 H743 H 0.64157 0.94429 0.41411
 H744 H 0.59206 0.96946 0.53133
 C745 C 0.15952 0.41243 0.92208
 C746 C 0.15108 0.44253 0.94153
 C747 C 0.11436 0.45651 0.94140
 C748 C 0.10567 0.48194 0.96765
 H749 H 0.17109 0.45584 0.96030
 H750 H 0.09395 0.44377 0.92266
 H751 H 0.14005 0.39998 0.90187
 H752 H 0.12643 0.49393 0.98655
 C753 C 0.02770 0.36212 0.40083
 C754 C 0.00550 0.37116 0.42992
 C755 C 0.00093 0.40917 0.43981
 C756 C -0.01026 0.42132 0.47508
 H757 H -0.00738 0.35102 0.44734
 H758 H 0.01037 0.42794 0.41819
 H759 H 0.04220 0.38301 0.38613
 H760 H -0.01891 0.40287 0.49736
 C761 C 0.50702 -0.12348 -0.09864
 C762 C 0.49406 -0.11849 -0.06220
 C763 C 0.48827 -0.08156 -0.04830
 C764 C 0.48861 -0.07138 -0.00979
 H765 H 0.49086 -0.14072 -0.04230
 H766 H 0.48782 -0.06144 -0.07118
 H767 H 0.51285 -0.10037 -0.11649
 H768 H 0.49003 -0.09123 0.01335
 C769 C -0.01291 -0.13602 1.09770
 C770 C 0.00088 -0.13684 1.06141
 C771 C 0.01259 -0.10315 1.04448
 C772 C 0.00489 -0.09404 1.00676
 H773 H 0.00155 -0.16134 1.04397
 H774 H 0.02281 -0.08329 1.06556
 H775 H -0.01652 -0.11053 1.11277
 H776 H -0.00656 -0.11356 0.98609
 C777 C 0.48973 0.36045 0.58903
 C778 C 0.50125 0.36393 0.55205
 C779 C 0.50960 0.39984 0.53833
 C780 C 0.49835 0.41128 0.50254
 H781 H 0.50059 0.34151 0.53135
 H782 H 0.51942 0.41880 0.56065
 H783 H 0.48690 0.38398 0.60784
 H784 H 0.48718 0.39248 0.48086
 C785 C 0.49691 1.13315 0.59329
 C786 C 0.48305 1.12704 0.55680
 C787 C 0.47381 1.09023 0.54553
 C788 C 0.48259 1.07623 0.51033
 H789 H 0.48235 1.14793 0.53475
 H790 H 0.46561 1.07299 0.56922
 H791 H 0.50096 1.11105 0.61352
 H792 H 0.49222 1.09344 0.48731
 C793 C 0.00007 0.65239 1.08072
 C794 C 0.01901 0.63338 1.05473
 C795 C 0.00483 0.60026 1.03661
 C796 C 0.01869 0.58676 1.00340
 H797 H 0.04586 0.64136 1.04756
 H798 H -0.01307 0.58442 1.05397
 H799 H -0.02820 0.64656 1.08275
 H800 H 0.03644 0.60319 0.98653
 C801 C 0.49917 0.66649 -0.05618
 C802 C 0.48156 0.64517 -0.03181
 C803 C 0.50010 0.61519 -0.01187
 C804 C 0.48383 0.59616 0.01572
 H805 H 0.45308 0.64825 -0.02808
 H806 H 0.52431 0.60505 -0.02496
 H807 H 0.52815 0.66491 -0.05528
 H808 H 0.45978 0.60682 0.02863
 C809 C -0.02866 1.14046 0.39533
 C810 C -0.00705 1.13043 0.42584
 C811 C -0.00779 1.09302 0.43845
 C812 C 0.00349 1.08222 0.47459
 H813 H 0.00955 1.14923 0.44253
 H814 H -0.01983 1.07390 0.41766
 H815 H -0.04675 1.12047 0.38261
 H816 H 0.01461 1.10125 0.49602
 C817 C 0.79629 0.65732 0.89149
 C818 C 0.82104 0.67423 0.87039
 C819 C 0.81172 0.69866 0.83767
 C820 C 0.78196 0.71848 0.83640
 H821 H 0.84923 0.66915 0.87470
 H822 H 0.83017 0.69945 0.81383
 H823 H 0.76838 0.66296 0.88465
 H824 H 0.76484 0.71916 0.86179
 C825 C 0.27123 0.16819 0.40382
 C826 C 0.29436 0.18353 0.37942
 C827 C 0.28047 0.21036 0.35121
 C828 C 0.30031 0.22621 0.32399
 H829 H 0.32241 0.17665 0.37946
 H830 H 0.25211 0.21619 0.35187
 H831 H 0.24370 0.17742 0.40184
 H832 H 0.32876 0.22108 0.32313
 C833 C 0.71049 0.33574 0.40007
 C834 C 0.73588 0.31046 0.40277
 C835 C 0.74235 0.28360 0.37130
 C836 C 0.71708 0.27029 0.34615
 H837 H 0.75474 0.31059 0.42776
 H838 H 0.76976 0.27463 0.36900
 H839 H 0.69170 0.33539 0.37495
 H840 H 0.68929 0.27728 0.34971
 C841 C 0.22954 0.84579 0.89441
 C842 C 0.20786 0.82461 0.87210
 C843 C 0.22333 0.80480 0.83857
 C844 C 0.20877 0.77523 0.82217
 H845 H 0.18031 0.82009 0.87945
 H846 H 0.24869 0.81429 0.82816
 H847 H 0.25752 0.84634 0.88671
 H848 H 0.18365 0.76522 0.83261
 C849 C 0.30294 0.87428 0.11902
 C850 C 0.28978 0.84151 0.12478
 C851 C 0.28499 0.82769 0.16496
 C852 C 0.29055 0.79321 0.17360
 H853 H 0.28077 0.82499 0.09980
 H854 H 0.27207 0.84539 0.18572
 H855 H 0.31665 0.88765 0.14372
 H856 H 0.30293 0.77600 0.15181
 C857 C 0.78632 0.37534 0.61545
 C858 C 0.78702 0.33961 0.61525
 C859 C 0.77827 0.31982 0.65110
 C860 C 0.78663 0.28526 0.65577
 H861 H 0.79158 0.32500 0.58783
 H862 H 0.76253 0.33366 0.67298
 H863 H 0.78383 0.39004 0.64319
 H864 H 0.80215 0.27155 0.63356
 C865 C 0.20242 0.14951 0.61147
 C866 C 0.17469 0.16176 0.63248
 C867 C 0.18055 0.18666 0.66645
 C868 C 0.20495 0.21249 0.66480
 H869 H 0.14778 0.15243 0.62676
 H870 H 0.16646 0.18195 0.69351
 H871 H 0.22911 0.15815 0.62044
 H872 H 0.21680 0.21775 0.63642
 C873 C 0.73459 0.62883 0.11065
 C874 C 0.71572 0.65679 0.12361
 C875 C 0.72840 0.67623 0.15958
 C876 C 0.71486 0.70777 0.17095
 H877 H 0.69298 0.66667 0.10629
 H878 H 0.75055 0.66469 0.17653
 H879 H 0.75873 0.62098 0.12696
 H880 H 0.69292 0.71967 0.15405
 C881 C 0.18437 0.60875 0.21002
 C882 C 0.19937 0.62700 0.18083
 C883 C 0.21467 0.66309 0.18724
 C884 C 0.22610 0.67527 0.22305
 H885 H 0.19970 0.61588 0.15100
 H886 H 0.21662 0.67985 0.16141
 H887 H 0.18338 0.62035 0.23958
 H888 H 0.22717 0.65767 0.24828
 C889 C 0.67912 0.09820 0.70149
 C890 C 0.68513 0.11722 0.66867
 C891 C 0.70297 0.15245 0.67068
 C892 C 0.72761 0.16080 0.69887
 H893 H 0.67469 0.10853 0.63989
 H894 H 0.69473 0.17199 0.64890
 H895 H 0.68902 0.10832 0.73003
 H896 H 0.73824 0.13983 0.71751
 C897 C 0.82454 0.07657 0.30991
 C898 C 0.79491 0.09058 0.29279
 C899 C 0.78210 0.12670 0.30357
 C900 C 0.75359 0.14050 0.28431
 H901 H 0.78076 0.07660 0.26885
 H902 H 0.79868 0.14350 0.32297
 H903 H 0.83575 0.09013 0.33608
 H904 H 0.73728 0.12312 0.26528
 C905 C 0.34510 0.59993 0.81352
 C906 C 0.31319 0.60639 0.79581
 C907 C 0.29570 0.64129 0.80044
 C908 C 0.27037 0.65139 0.77420
 H909 H 0.30057 0.58729 0.77565
 H910 H 0.30647 0.66007 0.82222
 H911 H 0.35530 0.61953 0.83500
 H912 H 0.25984 0.63211 0.75262
 C913 C 0.34108 0.39578 0.72522
 C914 C 0.31302 0.37921 0.70819
 C915 C 0.30272 0.34379 0.72206
 C916 C 0.27111 0.32945 0.71196
 H917 H 0.29712 0.39221 0.68508
 H918 H 0.32162 0.32932 0.74080
 H919 H 0.35511 0.38349 0.75024
 H920 H 0.25242 0.34440 0.69335
 C921 C 0.80339 0.90029 0.16898
 C922 C 0.78904 0.88487 0.20071
 C923 C 0.77559 0.84781 0.19943
 C924 C 0.76817 0.83165 0.23350
 H925 H 0.78834 0.89845 0.22912
 H926 H 0.77407 0.83318 0.17144
 H927 H 0.80224 0.88544 0.14107
 H928 H 0.77017 0.84692 0.26105
 C929 C 0.67261 0.90311 0.81934
 C930 C 0.69699 0.88977 0.79480
 C931 C 0.70929 0.85249 0.79788
 C932 C 0.72674 0.83728 0.76799
 H933 H 0.70731 0.90565 0.77114
 H934 H 0.70269 0.83719 0.82371
 H935 H 0.66352 0.88637 0.84310
 H936 H 0.73298 0.85317 0.74237
 C937 C 0.18198 0.41069 0.32027
 C938 C 0.21272 0.40219 0.30318
 C939 C 0.22590 0.36528 0.30382
 C940 C 0.24847 0.35385 0.27639
 H941 H 0.22678 0.42152 0.28585
 H942 H 0.21389 0.34653 0.32374
 H943 H 0.16906 0.39097 0.33831
 H944 H 0.25976 0.37275 0.25611
 C945 C 0.10797 0.28023 0.83402
 C946 C 0.11625 0.26104 0.80150
 C947 C 0.15318 0.26161 0.78789
 C948 C 0.16422 0.24553 0.75439
 H949 H 0.09629 0.24555 0.78505
 H950 H 0.17227 0.27605 0.80681
 H951 H 0.12838 0.29689 0.84831
 H952 H 0.14552 0.23110 0.73511
 C953 C 0.61477 0.76364 0.33296
 C954 C 0.61679 0.74464 0.29905
 C955 C 0.65206 0.73148 0.28762
 C956 C 0.66518 0.73705 0.25154
 H957 H 0.59350 0.74019 0.27977
 H958 H 0.66977 0.72346 0.31197
 H959 H 0.63931 0.77029 0.34939
 H960 H 0.64764 0.74652 0.22773
 C961 C 0.59763 0.25978 0.18490
 C962 C 0.60778 0.24671 0.22022
 C963 C 0.64142 0.25890 0.23933
 C964 C 0.65584 0.24181 0.27065
 H965 H 0.59370 0.22423 0.23236
 H966 H 0.65793 0.27638 0.22217
 H967 H 0.61092 0.28297 0.17330
 H968 H 0.63930 0.22399 0.28733
 C969 C 0.10498 0.72322 0.65239
 C970 C 0.11660 0.73805 0.68685
 C971 C 0.15488 0.73626 0.69806
 C972 C 0.16774 0.74405 0.73481
 H973 H 0.09797 0.74988 0.70728
 H974 H 0.17291 0.72682 0.67555
 H975 H 0.12398 0.70946 0.63383
 H976 H 0.14975 0.75247 0.75777
 C977 C 0.88980 0.78684 0.68492
 C978 C 0.88213 0.75878 0.70762
 C979 C 0.84441 0.75158 0.71462
 C980 C 0.83141 0.74517 0.75060
 H981 H 0.90245 0.74119 0.71994
 H982 H 0.82634 0.75605 0.68940
 H983 H 0.86820 0.80543 0.67801
 H984 H 0.84960 0.74364 0.77610
 C985 C 0.38423 0.26207 0.14336
 C986 C 0.38338 0.25125 0.18117
 C987 C 0.34865 0.24398 0.19841
 C988 C 0.34130 0.25344 0.23591
 H989 H 0.40741 0.25131 0.19995
 H990 H 0.32729 0.23597 0.17780
 H991 H 0.35937 0.26539 0.12640
 H992 H 0.36259 0.26255 0.25602
 C993 C 0.39160 0.73005 0.34693
 C994 C 0.38348 0.74777 0.31331
 C995 C 0.34563 0.75103 0.30045
 C996 C 0.33415 0.76096 0.26386
 H997 H 0.40425 0.75831 0.29504
 H998 H 0.32628 0.74304 0.32196
 H999 H 0.37020 0.71778 0.36297
 H1000 H 0.35315 0.76807 0.24163
 C1001 C 0.89834 0.20518 0.80818
 C1002 C 0.88925 0.22925 0.78046
 C1003 C 0.85112 0.23235 0.76972
 C1004 C 0.83720 0.24628 0.73602
 H1005 H 0.90884 0.24626 0.76716
 H1006 H 0.83339 0.22089 0.79101
 H1007 H 0.87793 0.18719 0.81844
 H1008 H 0.85435 0.25687 0.71367
 C1009 C 0.58892 1.01412 0.64413
 C1010 C 0.56971 0.98392 0.63988
 C1011 C 0.53881 0.98458 0.61204
 C1012 C 0.53511 0.96224 0.58069
 H1013 H 0.57583 0.95991 0.65630
 H1014 H 0.52318 1.00899 0.61290
 H1015 H 0.58301 1.03531 0.62311
 H1016 H 0.55199 0.93879 0.57861
 C1017 C 0.11281 0.51733 1.13297
 C1018 C 0.10321 0.48407 1.12205
 C1019 C 0.07252 0.47990 1.09433
 C1020 C 0.07624 0.46921 1.05654
 H1021 H 0.11578 0.46074 1.13508
 H1022 H 0.04846 0.49374 1.10296
 H1023 H 0.10073 0.53959 1.11709
 H1024 H 0.10113 0.45702 1.04782
 C1025 C -0.12887 -0.01238 1.09718
 C1026 C -0.10379 0.01276 1.09167
 C1027 C -0.08635 0.01395 1.05274
 C1028 C -0.05308 0.02656 1.04848
 H1029 H -0.09321 0.02912 1.11591
 H1030 H -0.09855 -0.00180 1.02878
 H1031 H -0.13660 -0.02868 1.07145
 H1032 H -0.04029 0.04152 1.07268
 C1033 C 0.37409 0.48325 0.62459
 C1034 C 0.39360 0.51056 0.61130
 C1035 C 0.40606 0.50890 0.57021
 C1036 C 0.43563 0.52586 0.55917
 H1037 H 0.40454 0.53098 0.63104
 H1038 H 0.39428 0.48855 0.55089
 H1039 H 0.36577 0.46290 0.60301
 H1040 H 0.44821 0.54535 0.57907
 C1041 C 0.44873 0.52690 -0.14719
 C1042 C 0.45683 0.49470 -0.13255
 C1043 C 0.48221 0.49287 -0.09870
 C1044 C 0.47319 0.47596 -0.06567
 H1045 H 0.44102 0.47147 -0.14099
 H1046 H 0.50303 0.51294 -0.09734
 H1047 H 0.46232 0.55030 -0.13491
 H1048 H 0.45191 0.45645 -0.06737
 C1049 C -0.08179 0.98542 0.33222
 C1050 C -0.08698 0.97439 0.36925
 C1051 C -0.05617 0.96759 0.39639
 C1052 C -0.06082 0.96232 0.43521
 H1053 H -0.11374 0.97444 0.38078
 H1054 H -0.02991 0.97445 0.38608
 H1055 H -0.05528 0.98425 0.32010
 H1056 H -0.08715 0.95517 0.44497
 C1057 C 0.08649 0.49466 0.35972
 C1058 C 0.07471 0.52751 0.36859
 C1059 C 0.04268 0.53049 0.39233
 C1060 C 0.04481 0.54293 0.42975
 H1061 H 0.08904 0.55120 0.36017
 H1062 H 0.02066 0.51336 0.38291
 H1063 H 0.07302 0.47181 0.37200
 H1064 H 0.06797 0.55839 0.43943
 C1065 C 0.58911 -0.00608 -0.12824
 C1066 C 0.57892 0.02710 -0.11809
 C1067 C 0.54733 0.03075 -0.09346
 C1068 C 0.54863 0.04639 -0.05734
 H1069 H 0.59324 0.05045 -0.12755
 H1070 H 0.52573 0.01256 -0.10129
 H1071 H 0.57559 -0.02852 -0.11515
 H1072 H 0.57107 0.06335 -0.04898
 C1073 C 0.65775 0.56567 0.00767
 C1074 C 0.62679 0.56771 0.02672
 C1075 C 0.59465 0.54770 0.01297
 C1076 C 0.56364 0.55390 0.03050
 H1077 H 0.62432 0.58433 0.05296
 H1078 H 0.59658 0.52738 -0.01009
 H1079 H 0.65785 0.55044 -0.01998
 H1080 H 0.56258 0.57493 0.05283
 C1081 C 0.12952 1.08288 0.50920
 C1082 C 0.12224 1.05341 0.48775
 C1083 C 0.08474 1.04663 0.47633
 C1084 C 0.07017 1.01440 0.47966
 H1085 H 0.14268 1.03358 0.48216
 H1086 H 0.06812 1.06980 0.47230
 H1087 H 0.10762 1.10031 0.51739
 H1088 H 0.08750 0.99163 0.48512
 C1089 C 0.13939 -0.10106 0.98364
 C1090 C 0.12795 -0.07357 1.00608
 C1091 C 0.08915 -0.06655 1.00761
 C1092 C 0.07516 -0.03482 1.01817
 H1093 H 0.14662 -0.05482 1.01985
 H1094 H 0.07198 -0.08664 0.99403
 H1095 H 0.11955 -0.11773 0.96836
 H1096 H 0.09255 -0.01416 1.03046
 C1097 C 0.63019 0.41500 0.47209
 C1098 C 0.61823 0.43984 0.49788
 C1099 C 0.57919 0.44591 0.49906
 C1100 C 0.56365 0.47600 0.51234
 H1101 H 0.63610 0.45589 0.51647
 H1102 H 0.56277 0.42587 0.48426
 H1103 H 0.61012 0.40179 0.45317
 H1104 H 0.57998 0.49683 0.52605
 C1105 C -0.15823 0.46720 0.53180
 C1106 C -0.13820 0.46824 0.49949
 C1107 C -0.10463 0.48898 0.50073
 C1108 C -0.07736 0.48022 0.47759
 H1109 H -0.14423 0.45065 0.47437
 H1110 H -0.10076 0.50881 0.52414
 H1111 H -0.14993 0.48268 0.55790
 H1112 H -0.08119 0.45978 0.45479
 C1113 C 0.35965 -0.04716 0.02351
 C1114 C 0.37273 -0.04707 -0.01334
 C1115 C 0.40863 -0.03282 -0.02152
 C1116 C 0.42305 -0.00519 -0.00132
 H1117 H 0.35963 -0.06264 -0.03680
 H1118 H 0.42415 -0.04722 -0.04305
 H1119 H 0.37501 -0.03489 0.04772
 H1120 H 0.40628 0.01056 0.01788
 C1121 C 0.35566 1.08560 0.47237
 C1122 C 0.36480 1.05517 0.49076
 C1123 C 0.40271 1.04433 0.49130
 C1124 C 0.41525 1.01347 0.50598
 H1125 H 0.34504 1.03841 0.50409
 H1126 H 0.42097 1.06275 0.47834
 H1127 H 0.37651 1.10050 0.45818
 H1128 H 0.39709 0.99469 0.51887
 C1129 C -0.11705 0.59104 0.97585
 C1130 C -0.10550 0.56290 0.99683
 C1131 C -0.06675 0.55605 0.99902
 C1132 C -0.05233 0.52505 1.01065
 H1133 H -0.12397 0.54401 1.00900
 H1134 H -0.04984 0.57594 0.98618
 H1135 H -0.09724 0.60801 0.96267
 H1136 H -0.06922 0.50446 1.02235
 C1137 C 0.00416 0.65394 0.58924
 C1138 C 0.02125 0.63562 0.56124
 C1139 C 0.00669 0.60143 0.54624
 C1140 C 0.02113 0.58389 0.51581
 H1141 H 0.04628 0.64536 0.55015
 H1142 H -0.01495 0.58945 0.56214
 H1143 H -0.02186 0.64489 0.59823
 H1144 H 0.04279 0.59589 0.50003
 C1145 C 0.54877 0.15359 0.10999
 C1146 C 0.53719 0.14160 0.07421
 C1147 C 0.53474 0.10310 0.06543
 C1148 C 0.52553 0.09080 0.02900
 H1149 H 0.52794 0.16027 0.05175
 H1150 H 0.53834 0.08481 0.08992
 H1151 H 0.56006 0.13494 0.13138
 H1152 H 0.52166 0.10937 0.00478
 C1153 C -0.01697 0.12704 0.88057
 C1154 C -0.01314 0.11963 0.91926
 C1155 C -0.00743 0.08231 0.93103
 C1156 C -0.01184 0.07060 0.96809
 H1157 H -0.01574 0.14048 0.94163
 H1158 H -0.00052 0.06358 0.90767
 H1159 H -0.01700 0.10546 0.85877
 H1160 H -0.01911 0.08907 0.99154
 C1161 C 0.48101 0.64727 0.41046
 C1162 C 0.46242 0.62900 0.43676
 C1163 C 0.47544 0.59345 0.44885
 C1164 C 0.46144 0.57487 0.47836
 H1165 H 0.43813 0.63994 0.44881
 H1166 H 0.49651 0.58154 0.43159
 H1167 H 0.50631 0.63649 0.40082
 H1168 H 0.44032 0.58639 0.49579
 C1169 C 0.55319 0.85400 0.41540
 C1170 C 0.53427 0.86217 0.44758
 C1171 C 0.53520 0.89911 0.46332
 C1172 C 0.51539 0.91061 0.49360
 H1173 H 0.51703 0.84265 0.46071
 H1174 H 0.54991 0.91826 0.44647
 H1175 H 0.57129 0.87387 0.40425
 H1176 H 0.50005 0.89169 0.51017
 C1177 C 0.01527 0.34705 0.90955
 C1178 C 0.03621 0.36690 0.93398
 C1179 C 0.02325 0.40151 0.94925
 C1180 C 0.04245 0.42121 0.97556
 H1181 H 0.06329 0.35841 0.94132
 H1182 H -0.00126 0.41222 0.93614
 H1183 H -0.01235 0.35499 0.90438
 H1184 H 0.06697 0.41049 0.98858
 C1185 C 0.44753 0.35636 0.07185
 C1186 C 0.47294 0.37102 0.04999
 C1187 C 0.47113 0.40965 0.04274
 C1188 C 0.49297 0.42727 0.01894
 H1189 H 0.49533 0.35559 0.03950
 H1190 H 0.45196 0.42448 0.05980
 H1191 H 0.42482 0.37279 0.07980
 H1192 H 0.51275 0.41291 0.00214
 C1193 C -0.03623 0.87026 0.61329
 C1194 C -0.03094 0.87601 0.57473
 C1195 C -0.02550 0.91278 0.56130
 C1196 C -0.02868 0.92261 0.52311
 H1197 H -0.03076 0.85395 0.55358
 H1198 H -0.01877 0.93256 0.58407
 H1199 H -0.03896 0.89281 0.63353
 H1200 H -0.03579 0.90314 0.50019
 C1201 C 0.25235 0.35380 0.11714
 C1202 C 0.22537 0.32999 0.11782
 C1203 C 0.22009 0.30741 0.15287
 C1204 C 0.22475 0.31969 0.19020
 H1205 H 0.21078 0.32201 0.09108
 H1206 H 0.21760 0.27897 0.14722
 H1207 H 0.26751 0.35848 0.14468
 H1208 H 0.22598 0.34826 0.19546
 C1209 C 0.76622 0.83566 0.61271
 C1210 C 0.73405 0.82537 0.62488
 C1211 C 0.73278 0.79464 0.65165
 C1212 C 0.71388 0.79474 0.68501
 H1213 H 0.71003 0.84022 0.61709
 H1214 H 0.75366 0.77491 0.64781
 H1215 H 0.78985 0.82200 0.62434
 H1216 H 0.69402 0.81534 0.68966
 C1217 C 0.25561 0.64527 0.62029
 C1218 C 0.27965 0.67181 0.61795
 C1219 C 0.28696 0.69657 0.65177
 C1220 C 0.28787 0.68596 0.68970
 H1221 H 0.28860 0.68020 0.58927
 H1222 H 0.28544 0.72479 0.64515
 H1223 H 0.24403 0.64002 0.64879
 H1224 H 0.29073 0.65775 0.69572
 C1225 C 0.73962 0.15889 0.09285
 C1226 C 0.73758 0.15313 0.13181
 C1227 C 0.74628 0.18169 0.16086
 C1228 C 0.75669 0.17377 0.19803
 H1229 H 0.72941 0.12739 0.14274
 H1230 H 0.73984 0.20898 0.15290
 H1231 H 0.75258 0.18325 0.08373
 H1232 H 0.76386 0.14640 0.20471
 C1233 C 0.76162 0.11989 0.85048
 C1234 C 0.73746 0.14532 0.84115
 C1235 C 0.73711 0.16035 0.80088
 C1236 C 0.72120 0.19153 0.79161
 H1237 H 0.72186 0.15818 0.86385
 H1238 H 0.75545 0.14827 0.78042
 H1239 H 0.77811 0.10919 0.82713
 H1240 H 0.70377 0.20429 0.81267
 C1241 C 0.25683 0.67393 0.38838
 C1242 C 0.22468 0.68282 0.37301
 C1243 C 0.22274 0.71421 0.34720
 C1244 C 0.21083 0.71170 0.30932
 H1245 H 0.20154 0.66605 0.37689
 H1246 H 0.23949 0.73653 0.35649
 H1247 H 0.27991 0.68951 0.38036
 H1248 H 0.19522 0.68864 0.29990
 C1249 C 0.72812 0.84430 0.38975
 C1250 C 0.75904 0.82995 0.37815
 C1251 C 0.75688 0.79964 0.35003
 C1252 C 0.77886 0.79470 0.31957
 H1253 H 0.78462 0.84067 0.38824
 H1254 H 0.73269 0.78390 0.35131
 H1255 H 0.70331 0.83454 0.37610
 H1256 H 0.80236 0.81121 0.31704
 C1257 C 0.25784 0.33663 0.87025
 C1258 C 0.28091 0.30922 0.87467
 C1259 C 0.28746 0.28407 0.84142
 C1260 C 0.28788 0.29489 0.80362
 H1261 H 0.29005 0.30123 0.90404
 H1262 H 0.28547 0.25588 0.84790
 H1263 H 0.24598 0.34154 0.84102
 H1264 H 0.29064 0.32315 0.79832
 C1265 C 0.84076 0.38279 0.71613
 C1266 C 0.81562 0.36960 0.73942
 C1267 C 0.80883 0.33084 0.73840
 C1268 C 0.77817 0.31661 0.75018
 H1269 H 0.79837 0.38710 0.75612
 H1270 H 0.82755 0.31437 0.72258
 H1271 H 0.85581 0.36423 0.69803
 H1272 H 0.75873 0.33346 0.76461
 C1273 C 0.33779 0.89644 0.22801
 C1274 C 0.31528 0.88407 0.25495
 C1275 C 0.30776 0.84557 0.25529
 C1276 C 0.27587 0.83288 0.26508
 H1277 H 0.29983 0.90178 0.27343
 H1278 H 0.32692 0.82802 0.24158
 H1279 H 0.34977 0.87699 0.20820
 H1280 H 0.25601 0.85088 0.27692
 C1281 C 0.16950 0.87735 0.77445
 C1282 C 0.19410 0.86518 0.74963
 C1283 C 0.19938 0.82641 0.74640
 C1284 C 0.23043 0.81180 0.73621
 H1285 H 0.21183 0.88327 0.73494
 H1286 H 0.17862 0.80978 0.75783
 H1287 H 0.15420 0.85822 0.79094
 H1288 H 0.25174 0.82871 0.72623
 C1289 C 0.66661 0.37712 0.29521
 C1290 C 0.69139 0.36218 0.27229
 C1291 C 0.69610 0.32300 0.27362
 C1292 C 0.72292 0.30537 0.25654
 H1293 H 0.70890 0.37843 0.25498
 H1294 H 0.67742 0.30831 0.29098
 H1295 H 0.65092 0.35966 0.31338
 H1296 H 0.74198 0.31993 0.23938
 C1297 C 0.66415 0.60264 0.22480
 C1298 C 0.69175 0.61570 0.24660
 C1299 C 0.69912 0.65430 0.24479
 C1300 C 0.72900 0.66927 0.25991
 H1301 H 0.70892 0.59865 0.26454
 H1302 H 0.68001 0.67063 0.22844
 H1303 H 0.64878 0.62131 0.20666
 H1304 H 0.74856 0.65299 0.27572
 C1305 C 0.19383 0.09349 0.70421
 C1306 C 0.20273 0.11329 0.73639
 C1307 C 0.22347 0.14628 0.73194
 C1308 C 0.21918 0.17450 0.75617
 H1309 H 0.19235 0.10675 0.76516
 H1310 H 0.23913 0.14888 0.70552
 H1311 H 0.20208 0.10196 0.67524
 H1312 H 0.20235 0.17226 0.78168
 C1313 C 0.33244 0.12389 0.28280
 C1314 C 0.30770 0.13536 0.25628
 C1315 C 0.30434 0.17402 0.25036
 C1316 C 0.27391 0.19001 0.23860
 H1317 H 0.28966 0.11716 0.24063
 H1318 H 0.32681 0.19002 0.26058
 H1319 H 0.34795 0.14373 0.29955
 H1320 H 0.25101 0.17401 0.22938
 C1321 C 0.83838 0.61136 0.77599
 C1322 C 0.80780 0.62179 0.75784
 C1323 C 0.80079 0.66008 0.75159
 C1324 C 0.76764 0.67353 0.75151
 H1325 H 0.78722 0.60248 0.74989
 H1326 H 0.82357 0.67751 0.75051
 H1327 H 0.85712 0.63156 0.78678
 H1328 H 0.74526 0.65538 0.75325
 C1329 C 0.89660 0.80616 0.17667
 C1330 C 0.88330 0.78271 0.20214
 C1331 C 0.84520 0.78455 0.21156
 C1332 C 0.83137 0.76557 0.24075
 H1333 H 0.89944 0.76139 0.21464
 H1334 H 0.82775 0.79932 0.19153
 H1335 H 0.87978 0.82874 0.16841
 H1336 H 0.84894 0.75042 0.26043
 C1337 C 0.39054 0.29493 0.64859
 C1338 C 0.37922 0.27428 0.67778
 C1339 C 0.34115 0.27396 0.68703
 C1340 C 0.32916 0.25873 0.71980
 H1341 H 0.39777 0.25757 0.69453
 H1342 H 0.32249 0.28635 0.66612
 H1343 H 0.37184 0.31316 0.63415
 H1344 H 0.34780 0.24661 0.74092
 C1345 C 0.39484 0.71049 0.86245
 C1346 C 0.38376 0.71784 0.82507
 C1347 C 0.34524 0.71855 0.81436
 C1348 C 0.33249 0.71851 0.77654
 H1349 H 0.40296 0.72432 0.80278
 H1350 H 0.32686 0.72007 0.83862
 H1351 H 0.37552 0.70165 0.88360
 H1352 H 0.35082 0.71685 0.75226
 C1353 C 0.90398 0.22790 0.31584
 C1354 C 0.87948 0.20561 0.29970
 C1355 C 0.84519 0.22013 0.28473
 C1356 C 0.81920 0.19887 0.27023
 H1357 H 0.88300 0.17694 0.30002
 H1358 H 0.83973 0.24813 0.29052
 H1359 H 0.89965 0.25632 0.31161
 H1360 H 0.82504 0.17113 0.26371
 C1361 C 0.11335 0.27262 0.34664
 C1362 C 0.13042 0.29209 0.32008
 C1363 C 0.16559 0.28012 0.30674
 C1364 C 0.18204 0.29474 0.27607
 H1365 H 0.11845 0.31623 0.30815
 H1366 H 0.17867 0.25892 0.32338
 H1367 H 0.12476 0.24734 0.35612
 H1368 H 0.16920 0.31594 0.25925
 C1369 C 0.60171 0.80517 0.83900
 C1370 C 0.61254 0.78531 0.80828
 C1371 C 0.65110 0.78147 0.80204
 C1372 C 0.66484 0.77101 0.76745
 H1373 H 0.59342 0.77134 0.78898
 H1374 H 0.66866 0.78665 0.82757
 H1375 H 0.62128 0.82085 0.85599
 H1376 H 0.64733 0.76576 0.74186
 C1377 C 0.60074 0.20409 0.64229
 C1378 C 0.61385 0.22096 0.67471
 C1379 C 0.65256 0.22589 0.67950
 C1380 C 0.66929 0.22805 0.71510
 H1381 H 0.59620 0.23142 0.69705
 H1382 H 0.66764 0.22724 0.65257
 H1383 H 0.61888 0.19127 0.62194
 H1384 H 0.65416 0.22629 0.74197
 C1385 C 0.10296 0.71260 0.14952
 C1386 C 0.11564 0.72863 0.18287
 C1387 C 0.15440 0.73157 0.19090
 C1388 C 0.16787 0.74357 0.22590
 H1389 H 0.09748 0.73985 0.20422
 H1390 H 0.17208 0.72452 0.16716
 H1391 H 0.12150 0.69954 0.12983
 H1392 H 0.15002 0.75072 0.24951
   
