data_POSCAR
  _audit_creation_date              2014-09-24
  _audit_creation_method            'ToBaCCo'
  _symmetry_space_group_name_H-M    'P1'
  _symmetry_Int_Tables_number       1
  _symmetry_cell_setting            triclinic
  loop_
  _symmetry_equiv_pos_as_xyz
 x,y,z
_cell_length_a 60.5297
_cell_length_b 63.9801
_cell_length_c 64.8251
_cell_angle_alpha 89.631900
_cell_angle_beta 91.507800
_cell_angle_gamma 92.285700
loop_
  _atom_site_label
  _atom_site_type_symbol
  _atom_site_fract_x
  _atom_site_fract_y
  _atom_site_fract_z
C1 C 0.72140 0.64208 0.96316
 H2 H 0.72647 0.62925 0.95391
 C3 C 0.70552 0.65526 0.95513
 H4 H 0.69899 0.65271 0.93959
 C5 C 0.72250 0.66023 0.99493
 H6 H 0.72842 0.66148 1.01078
 C7 C 0.70666 0.67391 0.98742
 H8 H 0.70072 0.68579 0.99747
 N9 N 0.72948 0.64460 0.98281
 C10 C 0.79054 0.62235 1.01170
 H11 H 0.78806 0.60591 1.00835
 C12 C 0.81015 0.62949 1.02151
 H13 H 0.82249 0.61835 1.02579
 C14 C 0.77809 0.65689 1.00897
 H15 H 0.76582 0.66762 1.00376
 C16 C 0.79750 0.66473 1.01882
 H17 H 0.79958 0.68138 1.02153
 Zn18 Zn 0.74831 0.62382 0.99395
 N19 N 0.77469 0.63593 1.00613
 C20 C 0.76824 0.61624 0.95691
 N21 N 0.75698 0.60647 0.97230
 C22 C 0.75252 0.58548 0.97197
 C23 C 0.75948 0.57347 0.95556
 C24 C 0.77488 0.60500 0.93998
 C25 C 0.71128 0.61298 1.01783
 C26 C 0.69951 0.60335 1.03371
 C27 C 0.73088 0.58238 1.04136
 C28 C 0.74214 0.59272 1.02546
 N29 N 0.73242 0.60803 1.01428
 H30 H 0.77157 0.63296 0.95760
 H31 H 0.74364 0.57800 0.98443
 H32 H 0.75620 0.55673 0.95592
 H33 H 0.78286 0.61349 0.92757
 H34 H 0.70345 0.62483 1.00864
 H35 H 0.68345 0.60939 1.03631
 H36 H 0.73940 0.56988 1.04897
 H37 H 0.75868 0.58836 1.02206
 C38 C 0.81369 0.65090 1.02552
 C39 C 0.69767 0.67118 0.96742
 C40 C 0.70915 0.58781 1.04638
 C41 C 0.77072 0.58322 0.93911
 C42 C 0.75583 0.36519 0.51928
 H43 H 0.77224 0.36691 0.52623
 C44 C 0.74001 0.35160 0.52809
 H45 H 0.74430 0.34276 0.54182
 C46 C 0.72989 0.37522 0.49338
 H47 H 0.72594 0.38445 0.47988
 C48 C 0.71352 0.36214 0.50189
 H49 H 0.69709 0.36137 0.49483
 N50 N 0.75052 0.37669 0.50225
 C51 C 0.80979 0.39545 0.46873
 H52 H 0.80648 0.41176 0.46609
 C53 C 0.82818 0.38691 0.46000
 H54 H 0.83848 0.39678 0.45027
 C55 C 0.79959 0.36288 0.48396
 H56 H 0.78838 0.35353 0.49325
 C57 C 0.81817 0.35381 0.47598
 H58 H 0.82111 0.33763 0.47967
 Zn59 Zn 0.77130 0.39664 0.49167
 N60 N 0.79585 0.38342 0.48037
 C61 C 0.80348 0.41819 0.51693
 N62 N 0.78142 0.41418 0.51377
 C63 C 0.76647 0.42130 0.52710
 C64 C 0.77352 0.43314 0.54427
 C65 C 0.81124 0.42993 0.53386
 C66 C 0.76006 0.40748 0.45053
 C67 C 0.74849 0.41755 0.43472
 C68 C 0.73020 0.43730 0.46042
 C69 C 0.74242 0.42709 0.47575
 N70 N 0.75696 0.41241 0.47062
 H71 H 0.81521 0.41200 0.50657
 H72 H 0.74906 0.41737 0.52468
 H73 H 0.76137 0.43870 0.55467
 H74 H 0.82890 0.43251 0.53628
 H75 H 0.77097 0.39521 0.44670
 H76 H 0.75084 0.41312 0.41885
 H77 H 0.71845 0.44871 0.46474
 H78 H 0.73982 0.43053 0.49176
 C79 C 0.83281 0.36582 0.46372
 C80 C 0.71847 0.35027 0.51953
 C81 C 0.73315 0.43248 0.43962
 C82 C 0.79621 0.43754 0.54786
 C83 C 0.24882 -0.14040 0.01593
 H84 H 0.26535 -0.14097 0.02262
 C85 C 0.23190 -0.15359 0.02344
 H86 H 0.23548 -0.16439 0.03591
 C87 C 0.22380 -0.12495 -0.00784
 H88 H 0.22064 -0.11355 -0.01981
 C89 C 0.20634 -0.13761 -0.00057
 H90 H 0.18987 -0.13605 -0.00720
 N91 N 0.24453 -0.12652 0.00049
 C92 C 0.30725 -0.10986 -0.02816
 H93 H 0.30596 -0.09305 -0.02869
 C94 C 0.32558 -0.11902 -0.03636
 H95 H 0.33826 -0.10914 -0.04339
 C96 C 0.29193 -0.14312 -0.01874
 H97 H 0.27872 -0.15247 -0.01201
 C98 C 0.31000 -0.15295 -0.02678
 H99 H 0.31065 -0.16981 -0.02581
 Zn100 Zn 0.26746 -0.10766 -0.00790
 N101 N 0.29111 -0.12190 -0.01921
 C102 C 0.29955 -0.09087 0.02067
 N103 N 0.27760 -0.09233 0.01561
 C104 C 0.26240 -0.08362 0.02766
 C105 C 0.26914 -0.07273 0.04551
 C106 C 0.30702 -0.07991 0.03818
 C107 C 0.25309 -0.09775 -0.04768
 C108 C 0.24555 -0.08533 -0.06395
 C109 C 0.24509 -0.05620 -0.04049
 C110 C 0.25306 -0.06916 -0.02479
 N111 N 0.25665 -0.08956 -0.02859
 H112 H 0.31137 -0.09832 0.01128
 H113 H 0.24500 -0.08528 0.02345
 H114 H 0.25689 -0.06584 0.05496
 H115 H 0.32455 -0.07903 0.04204
 H116 H 0.25603 -0.11409 -0.05024
 H117 H 0.24206 -0.09308 -0.07850
 H118 H 0.24331 -0.03994 -0.03671
 H119 H 0.25646 -0.06282 -0.00958
 C120 C 0.32724 -0.14083 -0.03554
 C121 C 0.21031 -0.15208 0.01531
 C122 C 0.24112 -0.06403 -0.06073
 C123 C 0.29174 -0.07071 0.05084
 C124 C 0.23108 0.16458 0.47618
 H125 H 0.24692 0.16729 0.46917
 C126 C 0.21358 0.17727 0.47063
 H127 H 0.21635 0.18970 0.45948
 C128 C 0.20849 0.14556 0.49951
 H129 H 0.20640 0.13330 0.51083
 C130 C 0.19048 0.15760 0.49416
 H131 H 0.17476 0.15382 0.50113
 N132 N 0.22808 0.14858 0.48988
 C133 C 0.29552 0.12942 0.50253
 H134 H 0.29361 0.11365 0.49664
 C135 C 0.31579 0.13652 0.51104
 H136 H 0.32957 0.12621 0.51140
 C137 C 0.27953 0.16170 0.50987
 H138 H 0.26514 0.17118 0.50985
 C139 C 0.29967 0.16953 0.51841
 H140 H 0.30069 0.18509 0.52493
 Zn141 Zn 0.25056 0.12870 0.49395
 N142 N 0.27779 0.14180 0.50255
 C143 C 0.26493 0.12724 0.45355
 N144 N 0.25537 0.11525 0.46851
 C145 C 0.25030 0.09458 0.46537
 C146 C 0.25427 0.08540 0.44636
 C147 C 0.26922 0.11873 0.43440
 C148 C 0.25404 0.10896 0.53274
 C149 C 0.24727 0.09662 0.54936
 C150 C 0.21582 0.08390 0.52877
 C151 C 0.22333 0.09638 0.51239
 N152 N 0.24191 0.10897 0.51477
 H153 H 0.26972 0.14337 0.45662
 H154 H 0.24331 0.08508 0.47755
 H155 H 0.24982 0.06901 0.44405
 H156 H 0.27720 0.12853 0.42290
 H157 H 0.26862 0.11908 0.53459
 H158 H 0.25709 0.09713 0.56357
 H159 H 0.20043 0.07481 0.52691
 H160 H 0.21373 0.09680 0.49809
 C161 C 0.31792 0.15662 0.51953
 C162 C 0.19263 0.17338 0.47909
 C163 C 0.22759 0.08434 0.54774
 C164 C 0.26377 0.09756 0.43053
 C165 C 0.16242 0.48290 0.22526
 H166 H 0.16338 0.47515 0.24012
 C167 C 0.17468 0.47584 0.20892
 H168 H 0.18499 0.46255 0.21134
 C169 C 0.14663 0.50876 0.20379
 H170 H 0.13525 0.52122 0.20167
 C171 C 0.15860 0.50223 0.18705
 H172 H 0.15664 0.51010 0.17232
 N173 N 0.14863 0.49899 0.22241
 C174 C 0.13529 0.52004 0.28441
 H175 H 0.11742 0.51868 0.28359
 C176 C 0.14609 0.52690 0.30251
 H177 H 0.13639 0.53102 0.31557
 C178 C 0.16956 0.51671 0.26807
 H179 H 0.17857 0.51284 0.25453
 C180 C 0.18106 0.52372 0.28587
 H181 H 0.19896 0.52500 0.28600
 Zn182 Zn 0.13023 0.50566 0.24438
 N183 N 0.14709 0.51485 0.26777
 C184 C 0.11971 0.47061 0.26888
 N185 N 0.11390 0.48074 0.25115
 C186 C 0.09911 0.47182 0.23730
 C187 C 0.08955 0.45192 0.24112
 C188 C 0.11089 0.45065 0.27310
 C189 C 0.12354 0.54645 0.23325
 C190 C 0.11245 0.56420 0.22715
 C191 C 0.07790 0.54406 0.22865
 C192 C 0.08973 0.52658 0.23478
 N193 N 0.11219 0.52803 0.23658
 H194 H 0.13208 0.47749 0.27934
 H195 H 0.09535 0.47983 0.22297
 H196 H 0.07819 0.44471 0.22984
 H197 H 0.11621 0.44250 0.28695
 H198 H 0.14136 0.54724 0.23518
 H199 H 0.12190 0.57867 0.22461
 H200 H 0.06008 0.54257 0.22679
 H201 H 0.08097 0.51192 0.23797
 C202 C 0.16926 0.52875 0.30342
 C203 C 0.17260 0.48534 0.18940
 C204 C 0.08935 0.56312 0.22448
 C205 C 0.09585 0.44105 0.25902
 C206 C -0.16145 0.01038 0.24236
 H207 H -0.16289 0.01522 0.25821
 C208 C -0.17478 0.01914 0.22690
 H209 H -0.18620 0.03080 0.23129
 C210 C -0.14352 -0.00955 0.21768
 H211 H -0.13115 -0.02057 0.21406
 C212 C -0.15600 -0.00079 0.20169
 H213 H -0.15345 -0.00612 0.18616
 N214 N -0.14655 -0.00405 0.23758
 C215 C -0.13201 -0.03798 0.29459
 H216 H -0.11438 -0.03885 0.29257
 C217 C -0.14184 -0.04805 0.31129
 H218 H -0.13163 -0.05648 0.32222
 C219 C -0.16665 -0.02604 0.28263
 H220 H -0.17636 -0.01792 0.27115
 C221 C -0.17719 -0.03575 0.29934
 H222 H -0.19492 -0.03488 0.30068
 Zn223 Zn -0.12809 -0.01553 0.25850
 N224 N -0.14437 -0.02714 0.28072
 C225 C -0.10692 0.01084 0.28863
 N226 N -0.10821 0.00605 0.26820
 C227 C -0.09642 0.01741 0.25415
 C228 C -0.08284 0.03451 0.26046
 C229 C -0.09326 0.02753 0.29563
 C230 C -0.12594 -0.05430 0.24050
 C231 C -0.11665 -0.07254 0.23383
 C232 C -0.08040 -0.05725 0.24221
 C233 C -0.09044 -0.03909 0.24854
 N234 N -0.11285 -0.03806 0.24768
 H235 H -0.11678 0.00202 0.29953
 H236 H -0.09794 0.01342 0.23796
 H237 H -0.07375 0.04359 0.24910
 H238 H -0.09268 0.03130 0.31191
 H239 H -0.14372 -0.05310 0.24020
 H240 H -0.12749 -0.08511 0.22794
 H241 H -0.06260 -0.05807 0.24358
 H242 H -0.08040 -0.02612 0.25470
 C243 C -0.16471 -0.04705 0.31381
 C244 C -0.17214 0.01376 0.20604
 C245 C -0.09360 -0.07442 0.23496
 C246 C -0.08119 0.03971 0.28146
 C247 C 0.34341 0.50116 0.72728
 H248 H 0.34221 0.51085 0.74079
 C249 C 0.33347 0.50715 0.70858
 H250 H 0.32454 0.52148 0.70775
 C251 C 0.35767 0.47134 0.71159
 H252 H 0.36724 0.45748 0.71275
 C253 C 0.34834 0.47694 0.69254
 H254 H 0.35080 0.46735 0.67915
 N255 N 0.35561 0.48376 0.72833
 C256 C 0.36363 0.46999 0.79416
 H257 H 0.38145 0.47150 0.79584
 C258 C 0.35097 0.46509 0.81130
 H259 H 0.35932 0.46354 0.82616
 C260 C 0.33146 0.47065 0.77262
 H261 H 0.32398 0.47258 0.75744
 C262 C 0.31815 0.46524 0.78932
 H263 H 0.30050 0.46291 0.78664
 Zn264 Zn 0.37250 0.47899 0.75276
 N265 N 0.35378 0.47294 0.77533
 C266 C 0.38839 0.51443 0.77598
 N267 N 0.38990 0.50404 0.75785
 C268 C 0.40213 0.51237 0.74224
 C269 C 0.41385 0.53150 0.74474
 C270 C 0.39988 0.53351 0.77916
 C271 C 0.38505 0.43739 0.75879
 C272 C 0.39537 0.41896 0.75413
 C273 C 0.41721 0.43814 0.72921
 C274 C 0.40660 0.45629 0.73449
 N275 N 0.39044 0.45555 0.74872
 H276 H 0.37776 0.50841 0.78787
 H277 H 0.40219 0.50455 0.72753
 H278 H 0.42347 0.53784 0.73215
 H279 H 0.39805 0.54164 0.79358
 H280 H 0.37196 0.43684 0.76979
 H281 H 0.39045 0.40465 0.76208
 H282 H 0.42910 0.43890 0.71701
 H283 H 0.41046 0.47064 0.72633
 C284 C 0.32786 0.46239 0.80906
 C285 C 0.33647 0.49527 0.69083
 C286 C 0.41122 0.41902 0.73871
 C287 C 0.41282 0.54231 0.76344
 C288 C 0.66631 0.99510 0.72923
 H289 H 0.67481 1.00207 0.74249
 C290 C 0.67850 0.98835 0.71265
 H291 H 0.69637 0.99015 0.71335
 C292 C 0.63281 0.98370 0.71235
 H293 H 0.61496 0.98204 0.71234
 C294 C 0.64430 0.97674 0.69553
 H295 H 0.63508 0.96993 0.68253
 N296 N 0.64384 0.99296 0.72861
 C297 C 0.63821 1.00277 0.79212
 H298 H 0.62598 0.99008 0.79327
 C299 C 0.64831 1.01086 0.81011
 H300 H 0.64292 1.00411 0.82452
 C301 C 0.65738 1.02793 0.77179
 H302 H 0.66046 1.03478 0.75678
 C303 C 0.66817 1.03636 0.78935
 H304 H 0.68022 1.04900 0.78701
 Zn305 Zn 0.62585 1.00227 0.74993
 N306 N 0.64270 1.01145 0.77346
 C307 C 0.61712 0.96098 0.76123
 N308 N 0.60707 0.97930 0.75746
 C309 C 0.58486 0.98082 0.75930
 C310 C 0.57195 0.96354 0.76585
 C311 C 0.60483 0.94329 0.76753
 C312 C 0.61120 1.03176 0.72039
 C313 C 0.60057 1.04951 0.71347
 C314 C 0.58660 1.05381 0.74767
 C315 C 0.59738 1.03580 0.75391
 N316 N 0.60944 1.02521 0.74030
 H317 H 0.63481 0.96024 0.75961
 H318 H 0.57719 0.99548 0.75603
 H319 H 0.55434 0.96500 0.76758
 H320 H 0.61319 0.92897 0.77091
 H321 H 0.62116 1.02349 0.70984
 H322 H 0.60206 1.05424 0.69749
 H323 H 0.57759 1.06233 0.75887
 H324 H 0.59659 1.03051 0.76977
 C325 C 0.66347 1.02823 0.80920
 C326 C 0.66745 0.97911 0.69547
 C327 C 0.58831 1.06102 0.72722
 C328 C 0.58199 0.94451 0.77015
 C329 C 0.00080 0.22271 -0.15627
 H330 H 0.00869 0.23812 -0.15648
 C331 C 0.01057 0.20635 -0.16635
 H332 H 0.02577 0.20932 -0.17451
 C333 C -0.02796 0.19965 -0.14475
 H334 H -0.04251 0.19678 -0.13577
 C335 C -0.01905 0.18298 -0.15503
 H336 H -0.02701 0.16754 -0.15413
 N337 N -0.01821 0.21918 -0.14580
 C338 C -0.05943 0.26826 -0.15481
 H339 H -0.07253 0.26005 -0.14682
 C340 C -0.06485 0.28449 -0.16821
 H341 H -0.08202 0.28830 -0.17045
 C342 C -0.02129 0.27455 -0.16064
 H343 H -0.00428 0.27107 -0.15715
 C344 C -0.02596 0.29121 -0.17392
 H345 H -0.01253 0.30014 -0.18092
 Zn346 Zn -0.03062 0.24201 -0.13200
 N347 N -0.03795 0.26336 -0.15142
 C348 C -0.01138 0.27411 -0.10769
 N349 N -0.00924 0.25386 -0.11326
 C350 C 0.00922 0.24337 -0.10800
 C351 C 0.02704 0.25369 -0.09773
 C352 C 0.00608 0.28506 -0.09758
 C353 C -0.07324 0.22367 -0.12976
 C354 C -0.09301 0.21709 -0.12086
 C355 C -0.07793 0.22839 -0.08777
 C356 C -0.05841 0.23493 -0.09747
 N357 N -0.05650 0.23261 -0.11814
 H358 H -0.02620 0.28209 -0.11215
 H359 H 0.01056 0.22728 -0.11262
 H360 H 0.04205 0.24545 -0.09460
 H361 H 0.00447 0.30143 -0.09401
 H362 H -0.07120 0.22167 -0.14615
 H363 H -0.10513 0.20926 -0.13095
 H364 H -0.07881 0.23157 -0.07148
 H365 H -0.04491 0.24217 -0.08849
 C366 C -0.04801 0.29625 -0.17785
 C367 C 0.00044 0.18629 -0.16592
 C368 C -0.09607 0.21944 -0.09942
 C369 C 0.02585 0.27501 -0.09305
 C370 C 0.46587 0.23208 0.17264
 H371 H 0.46291 0.24797 0.17709
 C372 C 0.45698 0.21543 0.18417
 H373 H 0.44748 0.21876 0.19759
 C374 C 0.48215 0.20861 0.14999
 H375 H 0.49177 0.20594 0.13655
 C376 C 0.47334 0.19149 0.16093
 H377 H 0.47612 0.17587 0.15549
 N378 N 0.47810 0.22846 0.15581
 C379 C 0.49970 0.29342 0.14780
 H380 H 0.49427 0.29547 0.13192
 C381 C 0.50883 0.31045 0.15887
 H382 H 0.51044 0.32553 0.15127
 C383 C 0.50557 0.27086 0.17639
 H384 H 0.50490 0.25527 0.18291
 C385 C 0.51473 0.28749 0.18806
 H386 H 0.52047 0.28458 0.20373
 Zn387 Zn 0.48851 0.25151 0.13956
 N388 N 0.49830 0.27410 0.15664
 C389 C 0.44474 0.26206 0.13057
 N390 N 0.46493 0.26048 0.12214
 C391 C 0.46815 0.26533 0.10194
 C392 C 0.45050 0.27159 0.08930
 C393 C 0.42667 0.26816 0.11851
 C394 C 0.53350 0.24969 0.13057
 C395 C 0.55206 0.24316 0.12046
 C396 C 0.52785 0.22424 0.09630
 C397 C 0.50972 0.23095 0.10703
 N398 N 0.51283 0.24342 0.12387
 H399 H 0.44254 0.25841 0.14668
 H400 H 0.48444 0.26458 0.09563
 H401 H 0.45344 0.27557 0.07332
 H402 H 0.41066 0.26879 0.12549
 H403 H 0.53571 0.25934 0.14413
 H404 H 0.56831 0.24778 0.12661
 H405 H 0.52496 0.21448 0.08284
 H406 H 0.49313 0.22604 0.10205
 C407 C 0.51671 0.30758 0.17923
 C408 C 0.46038 0.19475 0.17820
 C409 C 0.54945 0.23016 0.10311
 C410 C 0.42937 0.27298 0.09754
 C411 C 0.98069 0.74056 0.66566
 H412 H 0.97349 0.75575 0.66462
 C413 C 0.96941 0.72408 0.67554
 H414 H 0.95370 0.72682 0.68246
 C415 C 1.00950 0.71840 0.65712
 H416 H 1.02473 0.71604 0.64931
 C417 C 0.99878 0.70147 0.66686
 H418 H 1.00596 0.68626 0.66646
 N419 N 1.00027 0.73744 0.65658
 C420 C 1.03275 0.79865 0.64758
 H421 H 1.03664 0.79733 0.63145
 C422 C 1.03965 0.81651 0.65856
 H423 H 1.04922 0.82870 0.65079
 C424 C 1.01621 0.78386 0.67730
 H425 H 1.00720 0.77104 0.68458
 C426 C 1.02258 0.80157 0.68883
 H427 H 1.01801 0.80227 0.70484
 Zn428 Zn 1.01231 0.75962 0.64047
 N429 N 1.02111 0.78287 0.65698
 C430 C 0.98207 0.78678 0.62130
 N431 N 0.98961 0.76705 0.62161
 C432 C 0.97944 0.75153 0.61018
 C433 C 0.96056 0.75548 0.59816
 C434 C 0.96332 0.79143 0.60945
 C435 C 1.05546 0.74617 0.63827
 C436 C 1.07444 0.73943 0.62900
 C437 C 1.05627 0.74359 0.59567
 C438 C 1.03759 0.75019 0.60560
 N439 N 1.03741 0.75103 0.62655
 H440 H 0.99004 0.79877 0.63086
 H441 H 0.98559 0.73589 0.61099
 H442 H 0.95246 0.74286 0.58943
 H443 H 0.95709 0.80705 0.61002
 H444 H 1.05493 0.74724 0.65490
 H445 H 1.08835 0.73499 0.63867
 H446 H 1.05611 0.74302 0.57898
 H447 H 1.02325 0.75460 0.59655
 C448 C 1.03441 0.81826 0.67946
 C449 C 0.97826 0.70413 0.67592
 C450 C 1.07496 0.73790 0.60741
 C451 C 0.95208 0.77558 0.59796
 C452 C 0.51227 0.71976 0.34675
 H453 H 0.51820 0.73539 0.34269
 C454 C 0.51838 0.70269 0.33511
 H455 H 0.52878 0.70542 0.32195
 C456 C 0.49128 0.69735 0.36864
 H457 H 0.48095 0.69527 0.38190
 C458 C 0.49711 0.67987 0.35757
 H459 H 0.49128 0.66452 0.36263
 N460 N 0.49884 0.71683 0.36311
 C461 C 0.48028 0.78130 0.37162
 H462 H 0.48397 0.78287 0.38790
 C463 C 0.47397 0.79878 0.36038
 H464 H 0.47408 0.81347 0.36851
 C465 C 0.47712 0.76025 0.34182
 H466 H 0.47783 0.74505 0.33475
 C467 C 0.47052 0.77735 0.32991
 H468 H 0.46599 0.77453 0.31390
 Zn469 Zn 0.49045 0.73971 0.37929
 N470 N 0.48198 0.76253 0.36229
 C471 C 0.51042 0.76110 0.41347
 N472 N 0.51452 0.74912 0.39685
 C473 C 0.53562 0.74572 0.39137
 C474 C 0.55353 0.75523 0.40225
 C475 C 0.52779 0.77062 0.42494
 C476 C 0.44641 0.72789 0.38297
 C477 C 0.42676 0.72152 0.39227
 C478 C 0.44629 0.72139 0.42523
 C479 C 0.46573 0.72743 0.41520
 N480 N 0.46534 0.73095 0.39447
 H481 H 0.49359 0.76389 0.41752
 H482 H 0.53865 0.73636 0.37803
 H483 H 0.57010 0.75314 0.39695
 H484 H 0.52401 0.78015 0.43803
 H485 H 0.44666 0.73033 0.36645
 H486 H 0.41209 0.71880 0.38261
 H487 H 0.44688 0.71926 0.44180
 H488 H 0.48108 0.72914 0.42401
 C489 C 0.46871 0.79720 0.33907
 C490 C 0.51080 0.68237 0.34049
 C491 C 0.42636 0.71844 0.41375
 C492 C 0.54971 0.76828 0.41904
 C493 C 0.39961 -0.02592 0.28840
 H494 H 0.40061 -0.01033 0.29482
 C495 C 0.40991 -0.04225 0.29875
 H496 H 0.41922 -0.03899 0.31293
 C497 C 0.38552 -0.04919 0.26252
 H498 H 0.37538 -0.05202 0.24880
 C499 C 0.39553 -0.06596 0.27236
 H500 H 0.39296 -0.08150 0.26600
 N501 N 0.38760 -0.02966 0.27070
 C502 C 0.37881 0.02984 0.23906
 H503 H 0.36119 0.02808 0.23595
 C504 C 0.39061 0.04730 0.23159
 H505 H 0.38192 0.05873 0.22245
 C506 C 0.41145 0.01648 0.25415
 H507 H 0.41950 0.00435 0.26283
 C508 C 0.42392 0.03386 0.24710
 H509 H 0.44148 0.03504 0.25076
 Zn510 Zn 0.37096 -0.00771 0.25941
 N511 N 0.38925 0.01498 0.25026
 C512 C 0.35367 0.02163 0.28652
 N513 N 0.35256 0.00131 0.28043
 C514 C 0.33978 -0.01330 0.29039
 C515 C 0.32767 -0.00772 0.30742
 C516 C 0.34173 0.02791 0.30335
 C517 C 0.36556 -0.02267 0.21952
 C518 C 0.35448 -0.02920 0.20145
 C519 C 0.31974 -0.02432 0.21798
 C520 C 0.33153 -0.01790 0.23582
 N521 N 0.35403 -0.01731 0.23626
 H522 H 0.36430 0.03292 0.27875
 H523 H 0.33945 -0.02941 0.28538
 H524 H 0.31777 -0.01957 0.31534
 H525 H 0.34335 0.04403 0.30833
 H526 H 0.38345 -0.02184 0.22027
 H527 H 0.36402 -0.03375 0.18843
 H528 H 0.30184 -0.02446 0.21775
 H529 H 0.32272 -0.01317 0.24918
 C530 C 0.41347 0.04964 0.23574
 C531 C 0.40762 -0.06267 0.29091
 C532 C 0.33125 -0.03000 0.20045
 C533 C 0.32874 0.01311 0.31420
 C534 C 0.09980 1.03909 0.76718
 H535 H 0.09020 1.02558 0.76165
 C536 C 0.08940 1.05480 0.77771
 H537 H 0.07180 1.05312 0.78017
 C538 C 0.13456 1.05700 0.77184
 H539 H 0.15223 1.05761 0.76962
 C540 C 0.12484 1.07317 0.78214
 H541 H 0.13518 1.08638 0.78737
 N542 N 0.12197 1.04062 0.76423
 C543 C 0.12272 0.97769 0.74632
 H544 H 0.13670 0.97461 0.75642
 C545 C 0.11023 0.96096 0.73783
 H546 H 0.11497 0.94521 0.74153
 C547 C 0.10107 1.00191 0.72783
 H548 H 0.09797 1.01796 0.72368
 C549 C 0.08787 0.98562 0.71923
 H550 H 0.07431 0.98936 0.70881
 Zn551 Zn 0.13732 1.01969 0.75075
 N552 N 0.11804 0.99769 0.74117
 C553 C 0.14822 1.00295 0.78866
 N554 N 0.15739 1.00907 0.77058
 C555 C 0.17942 1.00756 0.76748
 C556 C 0.19304 0.99902 0.78286
 C557 C 0.16123 0.99464 0.80448
 C558 C 0.14974 1.05152 0.72230
 C559 C 0.16019 1.05994 0.70506
 C560 C 0.17447 1.02600 0.69830
 C561 C 0.16382 1.01824 0.71580
 N562 N 0.15202 1.03109 0.72756
 H563 H 0.13067 1.00439 0.79068
 H564 H 0.18643 1.01281 0.75311
 H565 H 0.21052 0.99768 0.78022
 H566 H 0.15355 0.98952 0.81864
 H567 H 0.13957 1.06133 0.73125
 H568 H 0.15808 1.07622 0.70109
 H569 H 0.18407 1.01566 0.68926
 H570 H 0.16495 1.00192 0.72004
 C571 C 0.09256 0.96474 0.72398
 C572 C 0.10193 1.07225 0.78524
 C573 C 0.17285 1.04717 0.69288
 C574 C 0.18390 0.99246 0.80163
 C575 C 0.60018 0.53140 0.27029
 H576 H 0.59796 0.51683 0.27869
 C577 C 0.59105 0.54956 0.27759
 H578 H 0.58174 0.54888 0.29164
 C579 C 0.61611 0.55023 0.24241
 H580 H 0.62625 0.55050 0.22893
 C581 C 0.60751 0.56879 0.24930
 H582 H 0.61083 0.58319 0.24087
 N583 N 0.61249 0.53206 0.25304
 C584 C 0.61571 0.46780 0.23160
 H585 H 0.63346 0.46715 0.23030
 C586 C 0.60209 0.45073 0.22554
 H587 H 0.60954 0.43705 0.21940
 C588 C 0.58459 0.48693 0.24031
 H589 H 0.57785 0.50119 0.24579
 C590 C 0.57031 0.47016 0.23442
 H591 H 0.55265 0.47158 0.23579
 Zn592 Zn 0.62714 0.50781 0.24550
 N593 N 0.60685 0.48539 0.23890
 C594 C 0.64222 0.48153 0.27781
 N595 N 0.64554 0.50037 0.26829
 C596 C 0.66104 0.51464 0.27561
 C597 C 0.67462 0.50982 0.29260
 C598 C 0.65514 0.47624 0.29507
 C599 C 0.63198 0.51403 0.20343
 C600 C 0.64254 0.51843 0.18495
 C601 C 0.67726 0.52197 0.20403
 C602 C 0.66608 0.51693 0.22211
 N603 N 0.64376 0.51349 0.22155
 H604 H 0.62938 0.47064 0.27223
 H605 H 0.66279 0.52983 0.26827
 H606 H 0.68701 0.52124 0.29817
 H607 H 0.65239 0.46114 0.30242
 H608 H 0.61426 0.51099 0.20337
 H609 H 0.63272 0.51828 0.17076
 H610 H 0.69487 0.52553 0.20509
 H611 H 0.67529 0.51616 0.23654
 C612 C 0.57904 0.45174 0.22690
 C613 C 0.59501 0.56863 0.26723
 C614 C 0.66549 0.52291 0.18505
 C615 C 0.67167 0.49041 0.30252
 C616 C 0.88560 0.46251 0.76636
 H617 H 0.86773 0.46239 0.76517
 C618 C 0.89619 0.44449 0.77261
 H619 H 0.88627 0.43068 0.77663
 C620 C 0.92007 0.48087 0.76279
 H621 H 0.92932 0.49497 0.75862
 C622 C 0.93137 0.46316 0.76894
 H623 H 0.94927 0.46385 0.76948
 N624 N 0.89756 0.48032 0.76194
 C625 C 0.89900 0.53470 0.72644
 H626 H 0.88729 0.52799 0.71527
 C627 C 0.91168 0.55249 0.72114
 H628 H 0.90993 0.55898 0.70574
 C629 C 0.91494 0.53502 0.76024
 H630 H 0.91565 0.52836 0.77561
 C631 C 0.92807 0.55279 0.75553
 H632 H 0.93893 0.55976 0.76735
 Zn633 Zn 0.88151 0.50378 0.75348
 N634 N 0.90081 0.52633 0.74572
 C635 C 0.85657 0.53301 0.77297
 N636 N 0.86458 0.51355 0.77533
 C637 C 0.86276 0.50288 0.79349
 C638 C 0.85297 0.51201 0.81033
 C639 C 0.84716 0.54289 0.78954
 C640 C 0.87396 0.48703 0.71460
 C641 C 0.86215 0.48060 0.69689
 C642 C 0.82849 0.49071 0.71271
 C643 C 0.84105 0.49719 0.73014
 N644 N 0.86338 0.49541 0.73063
 H645 H 0.85849 0.54125 0.75846
 H646 H 0.86960 0.48764 0.79526
 H647 H 0.85224 0.50366 0.82489
 H648 H 0.84168 0.55872 0.78773
 H649 H 0.89170 0.48555 0.71557
 H650 H 0.87089 0.47398 0.68428
 H651 H 0.81076 0.49238 0.71237
 H652 H 0.83299 0.50368 0.74320
 C653 C 0.92628 0.56187 0.73582
 C654 C 0.91939 0.44467 0.77405
 C655 C 0.83913 0.48249 0.69574
 C656 C 0.84562 0.53245 0.80856
 C657 C 0.26536 0.39653 -0.01723
 H658 H 0.27251 0.39740 -0.00182
 C659 C 0.27720 0.40513 -0.03364
 H660 H 0.29312 0.41301 -0.03063
 C661 C 0.23695 0.38383 -0.04023
 H662 H 0.22166 0.37493 -0.04295
 C663 C 0.24807 0.39253 -0.05705
 H664 H 0.24114 0.39027 -0.07249
 N665 N 0.24576 0.38579 -0.02075
 C666 C 0.20045 0.38777 0.02789
 H667 H 0.18987 0.37511 0.02201
 C668 C 0.19236 0.40088 0.04276
 H669 H 0.17554 0.39830 0.04780
 C670 C 0.23553 0.40547 0.02990
 H671 H 0.25247 0.40698 0.02521
 C672 C 0.22815 0.41884 0.04505
 H673 H 0.23940 0.43075 0.05158
 Zn674 Zn 0.23211 0.37132 0.00175
 N675 N 0.22162 0.39042 0.02144
 C676 C 0.24933 0.34876 0.03522
 N677 N 0.25333 0.35487 0.01550
 C678 C 0.27282 0.35097 0.00657
 C679 C 0.28974 0.34169 0.01798
 C680 C 0.26573 0.33932 0.04715
 C681 C 0.19012 0.36365 -0.01665
 C682 C 0.17144 0.35194 -0.02338
 C683 C 0.19007 0.32046 -0.01394
 C684 C 0.20830 0.33286 -0.00698
 N685 N 0.20795 0.35406 -0.00836
 H686 H 0.23364 0.35194 0.04192
 H687 H 0.27557 0.35565 -0.00923
 H688 H 0.30549 0.33972 0.01086
 H689 H 0.26233 0.33493 0.06294
 H690 H 0.19023 0.38055 -0.01754
 H691 H 0.15720 0.36013 -0.02908
 H692 H 0.19086 0.30361 -0.01299
 H693 H 0.22272 0.32554 -0.00049
 C694 C 0.20624 0.41667 0.05153
 C695 C 0.26868 0.40293 -0.05387
 C696 C 0.17116 0.32998 -0.02214
 C697 C 0.28652 0.33620 0.03874
 C698 C 0.76038 0.08007 1.03276
 H699 H 0.76454 0.07788 1.01681
 C700 C 0.77222 0.06996 1.04839
 H701 H 0.78480 0.05940 1.04409
 C702 C 0.73903 0.09673 1.05740
 H703 H 0.72655 0.10770 1.06089
 C704 C 0.75088 0.08743 1.07355
 H705 H 0.74723 0.09152 1.08922
 N706 N 0.74384 0.09284 1.03745
 C707 C 0.70769 0.10007 0.97865
 H708 H 0.70487 0.11659 0.97996
 C709 C 0.70056 0.08933 0.96091
 H710 H 0.69186 0.09768 0.94883
 C711 C 0.72221 0.06925 0.99310
 H712 H 0.73046 0.06141 1.00573
 C713 C 0.71552 0.05790 0.97548
 H714 H 0.71919 0.04151 0.97464
 Zn715 Zn 0.72961 0.10774 1.01586
 N716 N 0.71882 0.09012 0.99406
 C717 C 0.75815 0.12493 0.98593
 N718 N 0.75104 0.12713 1.00549
 C719 C 0.76048 0.14182 1.01838
 C720 C 0.77782 0.15508 1.01168
 C721 C 0.77535 0.13781 0.97862
 C722 C 0.68928 0.10917 1.03524
 C723 C 0.67012 0.11781 1.04229
 C724 C 0.68309 0.15145 1.02930
 C725 C 0.70225 0.14219 1.02279
 N726 N 0.70496 0.12140 1.02589
 H727 H 0.75104 0.11271 0.97613
 H728 H 0.75479 0.14297 1.03400
 H729 H 0.78519 0.16666 1.02214
 H730 H 0.78115 0.13533 0.96321
 H731 H 0.69177 0.09262 1.03726
 H732 H 0.65821 0.10777 1.05018
 H733 H 0.68101 0.16790 1.02617
 H734 H 0.71467 0.15152 1.01482
 C735 C 0.70492 0.06805 0.95888
 C736 C 0.76777 0.07374 1.06922
 C737 C 0.66664 0.13922 1.03921
 C738 C 0.78554 0.15307 0.99157
 C739 C 0.25864 0.57287 0.53285
 H740 H 0.26636 0.57009 0.51831
 C741 C 0.26387 0.56068 0.55014
 H742 H 0.27530 0.54824 0.54858
 C743 C 0.23438 0.59252 0.55239
 H744 H 0.22329 0.60525 0.55339
 C745 C 0.23940 0.58098 0.57010
 H746 H 0.23209 0.58518 0.58448
 N747 N 0.24390 0.58827 0.53420
 C748 C 0.21981 0.60076 0.47140
 H749 H 0.22084 0.61767 0.47185
 C750 C 0.21198 0.59060 0.45356
 H751 H 0.20685 0.59980 0.44032
 C752 C 0.22489 0.56829 0.48832
 H753 H 0.22972 0.55966 0.50196
 C754 C 0.21690 0.55746 0.47081
 H755 H 0.21596 0.54053 0.47102
 Zn756 Zn 0.23778 0.60543 0.51098
 N757 N 0.22662 0.58957 0.48813
 C758 C 0.27158 0.61968 0.48429
 N759 N 0.26432 0.62027 0.50396
 C760 C 0.27624 0.63073 0.51901
 C761 C 0.29622 0.64132 0.51444
 C762 C 0.29111 0.63039 0.47898
 C763 C 0.19511 0.61486 0.52033
 C764 C 0.17743 0.62697 0.52533
 C765 C 0.20193 0.65772 0.52440
 C766 C 0.21920 0.64497 0.51927
 N767 N 0.21551 0.62393 0.51757
 H768 H 0.26240 0.61080 0.47263
 H769 H 0.27028 0.63071 0.53460
 H770 H 0.30563 0.64956 0.52651
 H771 H 0.29663 0.62981 0.46324
 H772 H 0.19268 0.59809 0.51881
 H773 H 0.16143 0.61935 0.52789
 H774 H 0.20506 0.67444 0.52577
 H775 H 0.23551 0.65186 0.51676
 C776 C 0.21065 0.56868 0.45305
 C777 C 0.25429 0.56474 0.56918
 C778 C 0.18072 0.64868 0.52751
 C779 C 0.30366 0.64133 0.49414
 C780 C 0.77805 0.89329 0.48093
 H781 H 0.79111 0.88497 0.48857
 C782 C 0.78263 0.90438 0.46292
 H783 H 0.79931 0.90485 0.45724
 C784 C 0.74036 0.90193 0.47832
 H785 H 0.72378 0.90030 0.48413
 C786 C 0.74427 0.91331 0.46015
 H787 H 0.73064 0.92051 0.45205
 N788 N 0.75714 0.89198 0.48815
 C789 C 0.73645 0.87338 0.54986
 H790 H 0.74101 0.85722 0.54914
 C791 C 0.72692 0.88080 0.56755
 H792 H 0.72429 0.87031 0.58050
 C793 C 0.73432 0.90661 0.53368
 H794 H 0.73719 0.91651 0.52037
 C795 C 0.72490 0.91479 0.55126
 H796 H 0.72032 0.93098 0.55133
 Zn797 Zn 0.75104 0.87300 0.51003
 N798 N 0.73946 0.88610 0.53322
 C799 C 0.79241 0.87437 0.52895
 N800 N 0.77769 0.86105 0.51908
 C801 C 0.78241 0.84075 0.51574
 C802 C 0.80311 0.83343 0.52171
 C803 C 0.81319 0.86773 0.53517
 C804 C 0.70991 0.85067 0.50826
 C805 C 0.69351 0.83720 0.49976
 C806 C 0.71899 0.82756 0.47372
 C807 C 0.73494 0.84133 0.48271
 N808 N 0.73016 0.85254 0.49968
 H809 H 0.78810 0.89036 0.53159
 H810 H 0.77036 0.83032 0.50815
 H811 H 0.80689 0.81741 0.51843
 H812 H 0.82466 0.87866 0.54296
 H813 H 0.70610 0.86008 0.52136
 H814 H 0.67745 0.83608 0.50675
 H815 H 0.72284 0.81912 0.45993
 H816 H 0.75097 0.84350 0.47584
 C817 C 0.72072 0.90166 0.56829
 C818 C 0.76555 0.91411 0.45199
 C819 C 0.69784 0.82565 0.48211
 C820 C 0.81892 0.84711 0.53128
 C821 C -0.01737 0.27361 0.38391
 H822 H -0.00099 0.28099 0.38476
 C823 C -0.03408 0.28110 0.39601
 H824 H -0.03001 0.29371 0.40666
 C825 C -0.04241 0.24851 0.36867
 H826 H -0.04582 0.23624 0.35755
 C827 C -0.05971 0.25583 0.38007
 H828 H -0.07615 0.24898 0.37739
 N829 N -0.02167 0.25734 0.37083
 C830 C 0.04142 0.23045 0.35699
 H831 H 0.03766 0.22706 0.34093
 C832 C 0.06139 0.22441 0.36592
 H833 H 0.07251 0.21590 0.35659
 C834 C 0.03077 0.24487 0.38858
 H835 H 0.01876 0.25265 0.39746
 C836 C 0.05087 0.23959 0.39803
 H837 H 0.05408 0.24392 0.41396
 Zn838 Zn 0.00086 0.24860 0.35335
 N839 N 0.02664 0.24063 0.36827
 C840 C 0.02885 0.28054 0.33700
 N841 N 0.00814 0.27152 0.33590
 C842 C -0.00806 0.27981 0.32385
 C843 C -0.00371 0.29799 0.31232
 C844 C 0.03386 0.29879 0.32590
 C845 C -0.01519 0.20751 0.34896
 C846 C -0.02300 0.18936 0.33894
 C847 C -0.01823 0.20712 0.30627
 C848 C -0.01066 0.22505 0.31696
 N849 N -0.00953 0.22497 0.33794
 H850 H 0.04135 0.27403 0.34706
 H851 H -0.02449 0.27249 0.32350
 H852 H -0.01683 0.30432 0.30281
 H853 H 0.05023 0.30609 0.32769
 H854 H -0.01390 0.20784 0.36563
 H855 H -0.02807 0.17591 0.34812
 H856 H -0.01882 0.20742 0.28956
 H857 H -0.00556 0.23892 0.30847
 C858 C 0.06664 0.22930 0.38665
 C859 C -0.05574 0.27234 0.39407
 C860 C -0.02464 0.18895 0.31728
 C861 C 0.01744 0.30790 0.31345
 C862 C 1.02927 0.78843 0.09397
 H863 H 1.01223 0.79295 0.09321
 C864 C 1.04522 0.79970 0.08281
 H865 H 1.04011 0.81255 0.07310
 C866 C 1.05640 0.76616 0.10765
 H867 H 1.06083 0.75346 0.11780
 C868 C 1.07294 0.77722 0.09706
 H869 H 1.08991 0.77279 0.09931
 N870 N 1.03502 0.77182 0.10585
 C871 C 0.97205 0.73759 0.11472
 H872 H 0.97299 0.73547 0.13129
 C873 C 0.95350 0.72994 0.10352
 H874 H 0.94006 0.72226 0.11170
 C875 C 0.98841 0.75053 0.08414
 H876 H 1.00223 0.75816 0.07658
 C877 C 0.97020 0.74301 0.07231
 H878 H 0.97025 0.74502 0.05571
 Zn879 Zn 1.01305 0.75799 0.12182
 N880 N 0.98882 0.74804 0.10501
 C881 C 0.98235 0.78345 0.14119
 N882 N 1.00380 0.77786 0.14102
 C883 C 1.01968 0.78810 0.15278
 C884 C 1.01431 0.80506 0.16493
 C885 C 0.97623 0.80007 0.15334
 C886 C 1.03179 0.71947 0.12191
 C887 C 1.04138 0.70153 0.12969
 C888 C 1.03583 0.71391 0.16425
 C889 C 1.02652 0.73185 0.15576
 N890 N 1.02498 0.73435 0.13491
 H891 H 0.97006 0.77565 0.13129
 H892 H 1.03667 0.78359 0.15208
 H893 H 1.02721 0.81340 0.17381
 H894 H 0.95920 0.80470 0.15277
 H895 H 1.03005 0.72176 0.10541
 H896 H 1.04694 0.68997 0.11907
 H897 H 1.03736 0.71219 0.18085
 H898 H 1.02068 0.74377 0.16578
 C899 C 0.95233 0.73269 0.08200
 C900 C 1.06749 0.79425 0.08437
 C901 C 1.04369 0.69866 0.15109
 C902 C 0.99237 0.81135 0.16509
 C903 C 0.53638 0.28655 0.59313
 H904 H 0.51932 0.29085 0.59156
 C905 C 0.55278 0.29809 0.58280
 H906 H 0.54792 0.31081 0.57280
 C907 C 0.56315 0.26474 0.60818
 H908 H 0.56722 0.25212 0.61857
 C909 C 0.58013 0.27616 0.59854
 H910 H 0.59705 0.27207 0.60177
 N911 N 0.54174 0.26999 0.60525
 C912 C 0.47811 0.23610 0.61215
 H913 H 0.47905 0.23336 0.62863
 C914 C 0.45934 0.22928 0.60077
 H915 H 0.44579 0.22143 0.60864
 C916 C 0.49457 0.25004 0.58202
 H917 H 0.50848 0.25777 0.57468
 C918 C 0.47602 0.24360 0.57004
 H919 H 0.47581 0.24654 0.55357
 Zn920 Zn 0.51908 0.25595 0.62023
 N921 N 0.49507 0.24662 0.60277
 C922 C 0.48842 0.28223 0.63834
 N923 N 0.50942 0.27544 0.63952
 C924 C 0.52461 0.28383 0.65325
 C925 C 0.51890 0.29976 0.66652
 C926 C 0.48202 0.29811 0.65129
 C927 C 0.53882 0.21753 0.62123
 C928 C 0.54822 0.19981 0.62977
 C929 C 0.53886 0.21172 0.66363
 C930 C 0.52985 0.22942 0.65443
 N931 N 0.53032 0.23211 0.63361
 H932 H 0.47678 0.27589 0.62689
 H933 H 0.54131 0.27840 0.65360
 H934 H 0.53123 0.30628 0.67731
 H935 H 0.46542 0.30372 0.64964
 H936 H 0.53864 0.21993 0.60470
 H937 H 0.55520 0.18850 0.61970
 H938 H 0.53877 0.20992 0.68025
 H939 H 0.52259 0.24099 0.66394
 C940 C 0.45803 0.23321 0.57945
 C941 C 0.57511 0.29313 0.58557
 C942 C 0.54851 0.19685 0.65124
 C943 C 0.49739 0.30723 0.66550
 C944 C 0.47458 0.76005 0.88941
 H945 H 0.49043 0.75944 0.89743
 C946 C 0.45644 0.76759 0.89953
 H947 H 0.45842 0.77255 0.91543
 C948 C 0.45268 0.75428 0.85897
 H949 H 0.45145 0.74916 0.84309
 C950 C 0.43414 0.76162 0.86849
 H951 H 0.41869 0.76233 0.85975
 N952 N 0.47239 0.75370 0.86947
 C953 C 0.51473 0.72105 0.88816
 H954 H 0.49805 0.71453 0.88885
 C955 C 0.53136 0.71235 0.90030
 H956 H 0.52725 0.69921 0.91029
 C957 C 0.54037 0.74583 0.87415
 H958 H 0.54388 0.75880 0.86387
 C959 C 0.55760 0.73755 0.88605
 H960 H 0.57428 0.74401 0.88446
 Zn961 Zn 0.49676 0.74365 0.85540
 N962 N 0.51959 0.73691 0.87476
 C963 C 0.52582 0.76206 0.82577
 N964 N 0.50690 0.76441 0.83625
 C965 C 0.49548 0.78223 0.83434
 C966 C 0.50332 0.79878 0.82212
 C967 C 0.53456 0.77847 0.81372
 C968 C 0.47290 0.70589 0.85296
 C969 C 0.46725 0.68571 0.84633
 C970 C 0.49033 0.69157 0.81684
 C971 C 0.49575 0.71174 0.82419
 N972 N 0.48730 0.71833 0.84219
 H973 H 0.53475 0.74783 0.82756
 H974 H 0.48046 0.78395 0.84265
 H975 H 0.49378 0.81270 0.82088
 H976 H 0.55028 0.77662 0.80650
 H977 H 0.46625 0.71143 0.86714
 H978 H 0.45613 0.67593 0.85540
 H979 H 0.49765 0.68621 0.80286
 H980 H 0.50720 0.72179 0.81586
 C981 C 0.55328 0.72005 0.89871
 C982 C 0.43590 0.76848 0.88901
 C983 C 0.47637 0.67816 0.82833
 C984 C 0.52349 0.79736 0.81209
 C985 C 0.45248 -0.16793 0.33733
 C986 C 0.44606 -0.15025 0.32616
 C987 C 0.44848 -0.14946 0.30459
 C988 C 0.45741 -0.16638 0.29459
 C989 C 0.46397 -0.18392 0.30582
 C990 C 0.46177 -0.18509 0.32748
 C991 C 0.44186 -0.13180 0.29339
 C992 C 0.43281 -0.11495 0.30357
 C993 C 0.43055 -0.11575 0.32522
 C994 C 0.43713 -0.13338 0.33635
 C995 C 0.42156 -0.09895 0.33541
 C996 C 0.41455 -0.08160 0.32425
 C997 C 0.41643 -0.08065 0.30269
 C998 C 0.42577 -0.09739 0.29246
 H999 H 0.44930 -0.16837 0.35367
 H1000 H 0.45953 -0.16599 0.27804
 H1001 H 0.47157 -0.19611 0.29736
 H1002 H 0.44363 -0.13123 0.27679
 H1003 H 0.43529 -0.13398 0.35295
 H1004 H 0.41968 -0.09934 0.35198
 H1005 H 0.40709 -0.06913 0.33249
 H1006 H 0.42752 -0.09677 0.27587
 C1007 C 0.95693 0.33408 0.81264
 C1008 C 0.94950 0.35192 0.80229
 C1009 C 0.93164 0.34996 0.78781
 C1010 C 0.92184 0.33018 0.78362
 C1011 C 0.92900 0.31260 0.79432
 C1012 C 0.94633 0.31444 0.80912
 C1013 C 0.92334 0.36785 0.77830
 C1014 C 0.93223 0.38775 0.78351
 C1015 C 0.95030 0.38973 0.79772
 C1016 C 0.95902 0.37178 0.80682
 C1017 C 0.95893 0.40969 0.80303
 C1018 C 0.94924 0.42754 0.79494
 C1019 C 0.93086 0.42576 0.78125
 C1020 C 0.92281 0.40574 0.77524
 H1021 H 0.97014 0.33562 0.82422
 H1022 H 0.90820 0.32839 0.77253
 H1023 H 0.92075 0.29755 0.79131
 H1024 H 0.90946 0.36635 0.76740
 H1025 H 0.97269 0.37331 0.81794
 H1026 H 0.97279 0.41151 0.81388
 H1027 H 0.95569 0.44276 0.79995
 H1028 H 0.90892 0.40414 0.76438
 C1029 C 0.03205 1.16323 0.82904
 C1030 C 0.04148 1.14622 0.81954
 C1031 C 0.02933 1.13492 0.80402
 C1032 C 0.00776 1.14055 0.79865
 C1033 C -0.00169 1.15720 0.80856
 C1034 C 0.01045 1.16873 0.82365
 C1035 C 0.03890 1.11815 0.79422
 C1036 C 0.06027 1.11226 0.80003
 C1037 C 0.07214 1.12320 0.81593
 C1038 C 0.06276 1.14022 0.82545
 C1039 C 0.09322 1.11694 0.82207
 C1040 C 0.10264 1.10016 0.81239
 C1041 C 0.09131 1.08946 0.79615
 C1042 C 0.06999 1.09560 0.79016
 H1043 H 0.04131 1.17199 0.84090
 H1044 H -0.00183 1.13200 0.78689
 H1045 H -0.01840 1.16128 0.80430
 H1046 H 0.02968 1.10963 0.78217
 H1047 H 0.07197 1.14873 0.83752
 H1048 H 0.10244 1.12500 0.83440
 H1049 H 0.11882 1.09553 0.81775
 H1050 H 0.06109 1.08771 0.77754
 C1051 C 0.53882 0.66277 0.32103
 C1052 C 0.54534 0.64479 0.31086
 C1053 C 0.53026 0.62748 0.30841
 C1054 C 0.50876 0.62866 0.31567
 C1055 C 0.50236 0.64664 0.32566
 C1056 C 0.51736 0.66378 0.32873
 C1057 C 0.53697 0.60920 0.29894
 C1058 C 0.55857 0.60802 0.29182
 C1059 C 0.57348 0.62553 0.29381
 C1060 C 0.56680 0.64377 0.30336
 C1061 C 0.59494 0.62442 0.28639
 C1062 C 0.60171 0.60605 0.27739
 C1063 C 0.58721 0.58840 0.27575
 C1064 C 0.56557 0.58954 0.28290
 H1065 H 0.55068 0.67572 0.32344
 H1066 H 0.49691 0.61562 0.31375
 H1067 H 0.48559 0.64710 0.33098
 H1068 H 0.52545 0.59585 0.29728
 H1069 H 0.57835 0.65709 0.30510
 H1070 H 0.60657 0.63769 0.28775
 H1071 H 0.61852 0.60546 0.27215
 H1072 H 0.55422 0.57605 0.28151
 C1073 C 0.52068 0.34571 0.18858
 C1074 C 0.53247 0.36255 0.19806
 C1075 C 0.55178 0.35883 0.21006
 C1076 C 0.55876 0.33834 0.21262
 C1077 C 0.54708 0.32171 0.20296
 C1078 C 0.52807 0.32519 0.19067
 C1079 C 0.56406 0.37567 0.21895
 C1080 C 0.55749 0.39623 0.21573
 C1081 C 0.53803 0.39997 0.20398
 C1082 C 0.52555 0.38309 0.19534
 C1083 C 0.53164 0.42058 0.20071
 C1084 C 0.54470 0.43737 0.20853
 C1085 C 0.56434 0.43387 0.21988
 C1086 C 0.57039 0.41317 0.22371
 H1087 H 0.50589 0.34860 0.17939
 H1088 H 0.57354 0.33521 0.22174
 H1089 H 0.55337 0.30616 0.20462
 H1090 H 0.57898 0.37279 0.22799
 H1091 H 0.51073 0.38598 0.18616
 H1092 H 0.51677 0.42374 0.19173
 H1093 H 0.53974 0.45313 0.20517
 H1094 H 0.58529 0.41022 0.23272
 C1095 C 0.04185 0.85712 0.68178
 C1096 C 0.04967 0.87497 0.69257
 C1097 C 0.05675 0.87315 0.71343
 C1098 C 0.05582 0.85352 0.72314
 C1099 C 0.04840 0.83575 0.71218
 C1100 C 0.04148 0.83730 0.69136
 C1101 C 0.06509 0.89089 0.72410
 C1102 C 0.06705 0.91030 0.71399
 C1103 C 0.05997 0.91212 0.69313
 C1104 C 0.05102 0.89451 0.68264
 C1105 C 0.06249 0.93141 0.68294
 C1106 C 0.07262 0.94859 0.69309
 C1107 C 0.08005 0.94696 0.71377
 C1108 C 0.07665 0.92778 0.72424
 H1109 H 0.03617 0.85868 0.66588
 H1110 H 0.06125 0.85182 0.73911
 H1111 H 0.04860 0.82071 0.71991
 H1112 H 0.07063 0.88946 0.74008
 H1113 H 0.04568 0.89590 0.66659
 H1114 H 0.05723 0.93306 0.66692
 H1115 H 0.07527 0.96296 0.68445
 H1116 H 0.08183 0.92630 0.74029
 C1117 C 0.97609 0.67027 0.69579
 C1118 C 0.96412 0.65236 0.70253
 C1119 C 0.94121 0.65008 0.69779
 C1120 C 0.93060 0.66584 0.68675
 C1121 C 0.94261 0.68355 0.68007
 C1122 C 0.96547 0.68589 0.68434
 C1123 C 0.92930 0.63196 0.70389
 C1124 C 0.94000 0.61602 0.71461
 C1125 C 0.96281 0.61838 0.71972
 C1126 C 0.97474 0.63657 0.71366
 C1127 C 0.97332 0.60239 0.73062
 C1128 C 0.96141 0.58411 0.73612
 C1129 C 0.93885 0.58148 0.73071
 C1130 C 0.92822 0.59763 0.72013
 H1131 H 0.99366 0.67200 0.69935
 H1132 H 0.91306 0.66433 0.68298
 H1133 H 0.93409 0.69518 0.67102
 H1134 H 0.91177 0.63017 0.70007
 H1135 H 0.99229 0.63832 0.71739
 H1136 H 0.99078 0.60395 0.73471
 H1137 H 0.96993 0.57183 0.74424
 H1138 H 0.91072 0.59588 0.71624
 C1139 C 0.46047 0.15769 0.19170
 C1140 C 0.44986 0.14037 0.20119
 C1141 C 0.42837 0.14221 0.20884
 C1142 C 0.41788 0.16127 0.20689
 C1143 C 0.42839 0.17830 0.19715
 C1144 C 0.44975 0.17674 0.18936
 C1145 C 0.41752 0.12489 0.21799
 C1146 C 0.42769 0.10560 0.21922
 C1147 C 0.44918 0.10370 0.21160
 C1148 C 0.46023 0.12116 0.20281
 C1149 C 0.45909 0.08426 0.21261
 C1150 C 0.44765 0.06677 0.22069
 C1151 C 0.42615 0.06841 0.22810
 C1152 C 0.41647 0.08806 0.22759
 H1153 H 0.47704 0.15627 0.18607
 H1154 H 0.40136 0.16291 0.21257
 H1155 H 0.41950 0.19256 0.19527
 H1156 H 0.40100 0.12632 0.22378
 H1157 H 0.47669 0.11969 0.19690
 H1158 H 0.47553 0.08250 0.20681
 H1159 H 0.45545 0.05184 0.22066
 H1160 H 0.40011 0.08971 0.23363
 C1161 C 0.32287 0.44369 -0.15696
 C1162 C 0.31041 0.43837 -0.13962
 C1163 C 0.28857 0.44515 -0.13829
 C1164 C 0.27977 0.45754 -0.15417
 C1165 C 0.29250 0.46322 -0.17117
 C1166 C 0.31418 0.45633 -0.17285
 C1167 C 0.27595 0.43950 -0.12109
 C1168 C 0.28509 0.42747 -0.10505
 C1169 C 0.30717 0.42119 -0.10620
 C1170 C 0.31958 0.42648 -0.12356
 C1171 C 0.31651 0.40967 -0.08996
 C1172 C 0.30407 0.40421 -0.07279
 C1173 C 0.28198 0.40994 -0.07165
 C1174 C 0.27256 0.42161 -0.08785
 H1175 H 0.33931 0.43777 -0.15807
 H1176 H 0.26312 0.46304 -0.15334
 H1177 H 0.28539 0.47327 -0.18285
 H1178 H 0.25910 0.44452 -0.12016
 H1179 H 0.33644 0.42146 -0.12449
 H1180 H 0.33343 0.40479 -0.09057
 H1181 H 0.31155 0.39504 -0.06057
 H1182 H 0.25555 0.42619 -0.08697
 C1183 C 0.81001 0.95195 0.34400
 C1184 C 0.80196 0.94196 0.36185
 C1185 C 0.80847 0.92147 0.36676
 C1186 C 0.82243 0.91118 0.35364
 C1187 C 0.83057 0.92131 0.33617
 C1188 C 0.82478 0.94185 0.33136
 C1189 C 0.80144 0.91175 0.38497
 C1190 C 0.78830 0.92233 0.39861
 C1191 C 0.78134 0.94262 0.39365
 C1192 C 0.78810 0.95228 0.37519
 C1193 C 0.76811 0.95300 0.40748
 C1194 C 0.76243 0.94361 0.42630
 C1195 C 0.76996 0.92374 0.43157
 C1196 C 0.78249 0.91305 0.41741
 H1197 H 0.80557 0.96784 0.34043
 H1198 H 0.82744 0.89544 0.35713
 H1199 H 0.84166 0.91315 0.32647
 H1200 H 0.80670 0.89615 0.38881
 H1201 H 0.78303 0.96796 0.37147
 H1202 H 0.76252 0.96853 0.40393
 H1203 H 0.75271 0.95209 0.43699
 H1204 H 0.78797 0.89751 0.42117
 C1205 C 0.82339 0.02555 1.16996
 C1206 C 0.81062 0.03422 1.15394
 C1207 C 0.78870 0.03972 1.15754
 C1208 C 0.78018 0.03706 1.17731
 C1209 C 0.79318 0.02892 1.19336
 C1210 C 0.81491 0.02270 1.18994
 C1211 C 0.77573 0.04793 1.14138
 C1212 C 0.78468 0.05132 1.12182
 C1213 C 0.80686 0.04646 1.11845
 C1214 C 0.81959 0.03770 1.13443
 C1215 C 0.81604 0.05061 1.09918
 C1216 C 0.80342 0.05956 1.08336
 C1217 C 0.78112 0.06410 1.08624
 C1218 C 0.77188 0.05973 1.10563
 H1219 H 0.84032 0.02193 1.16692
 H1220 H 0.76342 0.04124 1.18037
 H1221 H 0.78566 0.02665 1.20820
 H1222 H 0.75881 0.05193 1.14411
 H1223 H 0.83654 0.03378 1.13172
 H1224 H 0.83311 0.04723 1.09642
 H1225 H 0.81139 0.06323 1.06897
 H1226 H 0.75470 0.06275 1.10821
 C1227 C 0.30711 0.50921 0.66709
 C1228 C 0.30045 0.51757 0.64793
 C1229 C 0.31592 0.52001 0.63201
 C1230 C 0.33752 0.51336 0.63526
 C1231 C 0.34390 0.50477 0.65423
 C1232 C 0.32889 0.50290 0.67036
 C1233 C 0.30966 0.52928 0.61320
 C1234 C 0.28804 0.53594 0.60998
 C1235 C 0.27235 0.53280 0.62559
 C1236 C 0.27867 0.52373 0.64450
 C1237 C 0.25064 0.53904 0.62210
 C1238 C 0.24466 0.54879 0.60356
 C1239 C 0.26032 0.55278 0.58819
 C1240 C 0.28198 0.54600 0.59149
 H1241 H 0.29544 0.50765 0.67946
 H1242 H 0.34955 0.51501 0.62321
 H1243 H 0.36080 0.50012 0.65654
 H1244 H 0.32165 0.53147 0.60115
 H1245 H 0.26671 0.52165 0.65659
 H1246 H 0.23831 0.53651 0.63377
 H1247 H 0.22771 0.55328 0.60133
 H1248 H 0.29437 0.54910 0.57999
 C1249 C 0.17406 0.52877 0.34189
 C1250 C 0.18380 0.53694 0.36014
 C1251 C 0.20060 0.55288 0.35905
 C1252 C 0.20778 0.55993 0.33973
 C1253 C 0.19800 0.55168 0.32162
 C1254 C 0.18084 0.53629 0.32254
 C1255 C 0.20968 0.56174 0.37726
 C1256 C 0.20211 0.55491 0.39653
 C1257 C 0.18573 0.53858 0.39764
 C1258 C 0.17670 0.52968 0.37943
 C1259 C 0.17842 0.53165 0.41696
 C1260 C 0.18688 0.54113 0.43502
 C1261 C 0.20269 0.55775 0.43405
 C1262 C 0.21044 0.56438 0.41473
 H1263 H 0.16104 0.51667 0.34272
 H1264 H 0.22069 0.57208 0.33861
 H1265 H 0.20339 0.55779 0.30689
 H1266 H 0.22235 0.57417 0.37642
 H1267 H 0.16391 0.51735 0.38026
 H1268 H 0.16594 0.51911 0.41809
 H1269 H 0.18063 0.53584 0.44974
 H1270 H 0.22289 0.57700 0.41388
 C1271 C 0.67318 0.02667 0.84665
 C1272 C 0.68062 0.03650 0.86502
 C1273 C 0.68862 0.05750 0.86451
 C1274 C 0.68911 0.06829 0.84570
 C1275 C 0.68122 0.05862 0.82756
 C1276 C 0.67279 0.03764 0.82757
 C1277 C 0.69566 0.06752 0.88285
 C1278 C 0.69439 0.05690 0.90180
 C1279 C 0.68641 0.03585 0.90237
 C1280 C 0.67981 0.02570 0.88395
 C1281 C 0.68489 0.02541 0.92141
 C1282 C 0.69093 0.03580 0.93974
 C1283 C 0.69880 0.05679 0.93939
 C1284 C 0.70070 0.06712 0.92023
 H1285 H 0.66807 0.01032 0.84752
 H1286 H 0.69507 0.08447 0.84507
 H1287 H 0.68085 0.06828 0.81386
 H1288 H 0.70175 0.08369 0.88241
 H1289 H 0.67362 0.00956 0.88441
 H1290 H 0.67874 0.00930 0.92214
 H1291 H 0.68906 0.02750 0.95423
 H1292 H 0.70717 0.08314 0.91962
 C1293 C 0.67329 0.95323 0.66748
 C1294 C 0.68401 0.94691 0.64980
 C1295 C 0.70167 0.95942 0.64193
 C1296 C 0.70841 0.97799 0.65210
 C1297 C 0.69758 0.98422 0.66970
 C1298 C 0.67979 0.97201 0.67745
 C1299 C 0.71220 0.95320 0.62404
 C1300 C 0.70533 0.93457 0.61400
 C1301 C 0.68775 0.92203 0.62205
 C1302 C 0.67721 0.92829 0.63983
 C1303 C 0.68101 0.90333 0.61223
 C1304 C 0.69169 0.89694 0.59470
 C1305 C 0.70920 0.90917 0.58654
 C1306 C 0.71583 0.92813 0.59615
 H1307 H 0.65986 0.94349 0.67350
 H1308 H 0.72192 0.98779 0.64632
 H1309 H 0.70277 0.99885 0.67698
 H1310 H 0.72572 0.96281 0.61797
 H1311 H 0.66369 0.91867 0.64592
 H1312 H 0.66755 0.89358 0.61817
 H1313 H 0.68617 0.88240 0.58739
 H1314 H 0.72944 0.93756 0.59002
 C1315 C 0.17245 0.47491 0.15220
 C1316 C 0.18228 0.46558 0.13540
 C1317 C 0.20389 0.45812 0.13764
 C1318 C 0.21541 0.46047 0.15658
 C1319 C 0.20544 0.46967 0.17330
 C1320 C 0.18381 0.47681 0.17134
 C1321 C 0.21341 0.44806 0.12106
 C1322 C 0.20143 0.44509 0.10239
 C1323 C 0.17992 0.45281 0.10013
 C1324 C 0.17056 0.46313 0.11657
 C1325 C 0.16786 0.44963 0.08159
 C1326 C 0.17671 0.43834 0.06565
 C1327 C 0.19787 0.43018 0.06785
 C1328 C 0.21035 0.43399 0.08614
 H1329 H 0.15563 0.48002 0.15055
 H1330 H 0.23203 0.45494 0.15857
 H1331 H 0.21464 0.47117 0.18780
 H1332 H 0.22990 0.44215 0.12284
 H1333 H 0.15397 0.46886 0.11486
 H1334 H 0.15140 0.45553 0.07957
 H1335 H 0.16693 0.43580 0.05160
 H1336 H 0.22659 0.42757 0.08805
 C1337 C -0.14747 0.33526 0.44929
 C1338 C -0.12895 0.32675 0.44037
 C1339 C -0.11016 0.33978 0.43627
 C1340 C -0.10983 0.36086 0.44196
 C1341 C -0.12807 0.36909 0.45130
 C1342 C -0.14731 0.35656 0.45475
 C1343 C -0.09203 0.33157 0.42651
 C1344 C -0.09223 0.31035 0.42118
 C1345 C -0.11064 0.29712 0.42603
 C1346 C -0.12898 0.30543 0.43540
 C1347 C -0.11043 0.27579 0.42135
 C1348 C -0.09236 0.26770 0.41157
 C1349 C -0.07427 0.28082 0.40585
 C1350 C -0.07436 0.30220 0.41092
 H1351 H -0.16210 0.32530 0.45155
 H1352 H -0.09541 0.37100 0.43925
 H1353 H -0.12696 0.38533 0.45589
 H1354 H -0.07778 0.34169 0.42306
 H1355 H -0.14325 0.29532 0.43879
 H1356 H -0.12424 0.26535 0.42524
 H1357 H -0.09264 0.25109 0.40850
 H1358 H -0.06083 0.31272 0.40647
 C1359 C 0.34456 0.83055 0.94495
 C1360 C 0.36312 0.82137 0.93686
 C1361 C 0.38438 0.83094 0.94020
 C1362 C 0.38671 0.84941 0.95169
 C1363 C 0.36815 0.85845 0.95963
 C1364 C 0.34690 0.84921 0.95627
 C1365 C 0.40293 0.82202 0.93187
 C1366 C 0.40050 0.80371 0.92012
 C1367 C 0.37927 0.79406 0.91688
 C1368 C 0.36073 0.80291 0.92532
 C1369 C 0.37692 0.77582 0.90504
 C1370 C 0.39536 0.76737 0.89622
 C1371 C 0.41651 0.77696 0.89915
 C1372 C 0.41895 0.79505 0.91131
 H1373 H 0.32824 0.82340 0.94205
 H1374 H 0.40287 0.85689 0.95447
 H1375 H 0.37045 0.87264 0.96859
 H1376 H 0.41920 0.82943 0.93436
 H1377 H 0.34444 0.79555 0.92275
 H1378 H 0.36080 0.76817 0.90246
 H1379 H 0.39310 0.75327 0.88713
 H1380 H 0.43514 0.80273 0.91345
 C1381 C 1.17237 0.84455 0.02956
 C1382 C 1.15505 0.83265 0.03837
 C1383 C 1.15703 0.81086 0.04120
 C1384 C 1.17640 0.80141 0.03534
 C1385 C 1.19374 0.81347 0.02693
 C1386 C 1.19184 0.83508 0.02391
 C1387 C 1.13975 0.79894 0.05007
 C1388 C 1.12075 0.80861 0.05661
 C1389 C 1.11893 0.83043 0.05401
 C1390 C 1.13597 0.84228 0.04472
 C1391 C 1.10020 0.84011 0.06102
 C1392 C 1.08352 0.82836 0.07076
 C1393 C 1.08503 0.80660 0.07340
 C1394 C 1.10369 0.79684 0.06601
 H1395 H 1.17094 0.86129 0.02754
 H1396 H 1.17823 0.78475 0.03744
 H1397 H 1.20861 0.80589 0.02261
 H1398 H 1.14124 0.78222 0.05219
 H1399 H 1.13453 0.85902 0.04270
 H1400 H 1.09861 0.85685 0.05929
 H1401 H 1.06966 0.83647 0.07661
 H1402 H 1.10502 0.78006 0.06758
 C1403 C 0.68075 0.34600 0.53393
 C1404 C 0.66383 0.33380 0.54300
 C1405 C 0.66692 0.31237 0.54712
 C1406 C 0.68714 0.30367 0.54255
 C1407 C 0.70408 0.31607 0.53387
 C1408 C 0.70091 0.33722 0.52929
 C1409 C 0.64982 0.30005 0.55581
 C1410 C 0.62987 0.30902 0.56088
 C1411 C 0.62707 0.33057 0.55722
 C1412 C 0.64395 0.34277 0.54811
 C1413 C 0.60745 0.33962 0.56287
 C1414 C 0.59074 0.32750 0.57213
 C1415 C 0.59304 0.30593 0.57556
 C1416 C 0.61275 0.29682 0.56972
 H1417 H 0.67837 0.36242 0.53068
 H1418 H 0.68985 0.28731 0.54570
 H1419 H 0.71953 0.30906 0.53036
 H1420 H 0.65210 0.28357 0.55882
 H1421 H 0.64169 0.35926 0.54515
 H1422 H 0.60514 0.35617 0.56039
 H1423 H 0.57615 0.33522 0.57690
 H1424 H 0.61481 0.28021 0.57192
 C1425 C 0.34871 0.18323 0.52733
 C1426 C 0.36849 0.18926 0.53795
 C1427 C 0.37806 0.17533 0.55235
 C1428 C 0.36789 0.15561 0.55575
 C1429 C 0.34843 0.14967 0.54498
 C1430 C 0.33865 0.16335 0.53070
 C1431 C 0.39764 0.18128 0.56316
 C1432 C 0.40795 0.20094 0.55968
 C1433 C 0.39863 0.21479 0.54508
 C1434 C 0.37891 0.20890 0.53436
 C1435 C 0.40922 0.23433 0.54152
 C1436 C 0.42869 0.24018 0.55245
 C1437 C 0.43788 0.22664 0.56722
 C1438 C 0.42743 0.20696 0.57065
 H1439 H 0.34132 0.19381 0.51625
 H1440 H 0.37499 0.14477 0.56673
 H1441 H 0.34082 0.13439 0.54800
 H1442 H 0.40485 0.17061 0.57428
 H1443 H 0.37170 0.21957 0.52325
 H1444 H 0.40236 0.24516 0.53038
 H1445 H 0.43633 0.25550 0.54967
 H1446 H 0.43455 0.19628 0.58179
 C1447 C 0.84508 0.67743 0.03117
 C1448 C 0.86430 0.68457 0.04200
 C1449 C 0.87262 0.67270 0.05875
 C1450 C 0.86158 0.65397 0.06442
 C1451 C 0.84247 0.64701 0.05363
 C1452 C 0.83403 0.65858 0.03688
 C1453 C 0.89179 0.67974 0.06962
 C1454 C 0.90271 0.69860 0.06406
 C1455 C 0.89442 0.71051 0.04734
 C1456 C 0.87530 0.70340 0.03637
 C1457 C 0.90536 0.72941 0.04196
 C1458 C 0.92422 0.73653 0.05312
 C1459 C 0.93258 0.72485 0.06983
 C1460 C 0.92174 0.70577 0.07508
 H1461 H 0.83890 0.68639 0.01816
 H1462 H 0.86767 0.64474 0.07728
 H1463 H 0.83411 0.63264 0.05859
 H1464 H 0.89813 0.67061 0.08247
 H1465 H 0.86895 0.71254 0.02354
 H1466 H 0.89921 0.73879 0.02923
 H1467 H 0.93203 0.75141 0.04889
 H1468 H 0.92819 0.69640 0.08769
 C1469 C 0.66052 0.67347 0.95025
 C1470 C 0.64275 0.68487 0.94268
 C1471 C 0.64337 0.70688 0.94456
 C1472 C 0.66173 0.71704 0.95439
 C1473 C 0.67936 0.70549 0.96206
 C1474 C 0.67899 0.68365 0.95982
 C1475 C 0.62570 0.71830 0.93654
 C1476 C 0.60742 0.70790 0.92676
 C1477 C 0.60679 0.68582 0.92530
 C1478 C 0.62443 0.67449 0.93322
 C1479 C 0.58857 0.67536 0.91576
 C1480 C 0.57118 0.68660 0.90750
 C1481 C 0.57159 0.70855 0.90859
 C1482 C 0.58981 0.71915 0.91830
 H1483 H 0.65990 0.65657 0.94884
 H1484 H 0.66249 0.73389 0.95606
 H1485 H 0.69345 0.71362 0.96942
 H1486 H 0.62621 0.73521 0.93781
 H1487 H 0.62394 0.65758 0.93190
 H1488 H 0.58787 0.65846 0.91449
 H1489 H 0.55755 0.67808 0.89979
 H1490 H 0.59024 0.73607 0.91930
 C1491 C 0.17083 0.19018 0.45027
 C1492 C 0.15124 0.19847 0.44227
 C1493 C 0.13316 0.20090 0.45528
 C1494 C 0.13541 0.19600 0.47631
 C1495 C 0.15507 0.18802 0.48423
 C1496 C 0.17283 0.18447 0.47125
 C1497 C 0.11305 0.20782 0.44699
 C1498 C 0.11089 0.21260 0.42588
 C1499 C 0.12932 0.21108 0.41310
 C1500 C 0.14931 0.20391 0.42132
 C1501 C 0.12739 0.21656 0.39222
 C1502 C 0.10727 0.22299 0.38389
 C1503 C 0.08841 0.22366 0.39612
 C1504 C 0.09053 0.21864 0.41728
 H1505 H 0.18411 0.18739 0.43990
 H1506 H 0.12185 0.19808 0.48659
 H1507 H 0.15622 0.18438 0.50054
 H1508 H 0.09903 0.20926 0.45691
 H1509 H 0.16328 0.20233 0.41138
 H1510 H 0.14146 0.21584 0.38228
 H1511 H 0.10659 0.22746 0.36777
 H1512 H 0.07629 0.21887 0.42702
 C1513 C 0.58901 0.09418 0.70636
 C1514 C 0.57917 0.11235 0.69902
 C1515 C 0.55810 0.11743 0.70591
 C1516 C 0.54728 0.10420 0.72010
 C1517 C 0.55711 0.08596 0.72716
 C1518 C 0.57800 0.08067 0.72026
 C1519 C 0.54815 0.13552 0.69835
 C1520 C 0.55890 0.14837 0.68376
 C1521 C 0.57997 0.14316 0.67688
 C1522 C 0.59003 0.12532 0.68469
 C1523 C 0.59056 0.15575 0.66208
 C1524 C 0.58029 0.17320 0.65390
 C1525 C 0.55935 0.17855 0.66052
 C1526 C 0.54881 0.16618 0.67566
 H1527 H 0.60533 0.09060 0.70123
 H1528 H 0.53110 0.10781 0.72553
 H1529 H 0.54815 0.07578 0.73771
 H1530 H 0.53196 0.13942 0.70360
 H1531 H 0.60618 0.12136 0.67936
 H1532 H 0.60671 0.15198 0.65667
 H1533 H 0.58880 0.18265 0.64243
 H1534 H 0.53257 0.17013 0.68072
 C1535 C 1.08684 0.59469 0.20165
 C1536 C 1.07649 0.61285 0.19505
 C1537 C 1.05640 0.61829 0.20384
 C1538 C 1.04696 0.60528 0.21904
 C1539 C 1.05745 0.58718 0.22558
 C1540 C 1.07757 0.58181 0.21709
 C1541 C 1.04615 0.63661 0.19729
 C1542 C 1.05571 0.64945 0.18198
 C1543 C 1.07577 0.64383 0.17318
 C1544 C 1.08603 0.62563 0.17980
 C1545 C 1.08524 0.65642 0.15776
 C1546 C 1.07484 0.67431 0.15086
 C1547 C 1.05486 0.68007 0.15935
 C1548 C 1.04547 0.66769 0.17512
 H1549 H 1.10212 0.59051 0.19467
 H1550 H 1.03157 0.60917 0.22596
 H1551 H 1.05005 0.57762 0.23760
 H1552 H 1.03074 0.64082 0.20403
 H1553 H 1.10143 0.62140 0.17303
 H1554 H 1.10062 0.65236 0.15091
 H1555 H 1.08246 0.68375 0.13886
 H1556 H 1.02997 0.67196 0.18162
 C1557 C 0.93645 0.90562 0.21855
 C1558 C 0.94491 0.88674 0.21180
 C1559 C 0.93302 0.86764 0.21543
 C1560 C 0.91337 0.86763 0.22634
 C1561 C 0.90517 0.88639 0.23308
 C1562 C 0.91629 0.90564 0.22891
 C1563 C 0.94071 0.84889 0.20780
 C1564 C 0.96016 0.84893 0.19655
 C1565 C 0.97251 0.86789 0.19351
 C1566 C 0.96480 0.88668 0.20115
 C1567 C 0.99213 0.86775 0.18248
 C1568 C 0.99904 0.84917 0.17394
 C1569 C 0.98641 0.83043 0.17620
 C1570 C 0.96717 0.83037 0.18785
 H1571 H 0.94521 0.92028 0.21514
 H1572 H 0.90421 0.85311 0.22949
 H1573 H 0.88999 0.88580 0.24157
 H1574 H 0.93134 0.83432 0.21030
 H1575 H 0.97408 0.90127 0.19849
 H1576 H 1.00188 0.88210 0.18007
 H1577 H 1.01384 0.84960 0.16489
 H1578 H 0.95746 0.81592 0.18983
 C1579 C 0.44195 0.39800 0.72508
 C1580 C 0.44946 0.37958 0.71643
 C1581 C 0.43484 0.36188 0.71424
 C1582 C 0.41313 0.36277 0.72102
 C1583 C 0.40573 0.38119 0.72938
 C1584 C 0.41993 0.39906 0.73133
 C1585 C 0.44193 0.34375 0.70485
 C1586 C 0.46337 0.34316 0.69727
 C1587 C 0.47815 0.36069 0.69974
 C1588 C 0.47117 0.37873 0.70946
 C1589 C 0.49953 0.36003 0.69201
 C1590 C 0.50596 0.34244 0.68136
 C1591 C 0.49120 0.32512 0.67836
 C1592 C 0.47004 0.32548 0.68675
 H1593 H 0.45315 0.41157 0.72669
 H1594 H 0.40170 0.34938 0.71941
 H1595 H 0.38860 0.38161 0.73369
 H1596 H 0.43059 0.33029 0.70297
 H1597 H 0.48244 0.39226 0.71115
 H1598 H 0.51109 0.37330 0.69376
 H1599 H 0.52228 0.34268 0.67488
 H1600 H 0.45862 0.31210 0.68483
 C1601 C 0.43449 0.56818 0.78553
 C1602 C 0.44329 0.58843 0.78928
 C1603 C 0.44223 0.60385 0.77361
 C1604 C 0.43286 0.59851 0.75424
 C1605 C 0.42390 0.57832 0.75069
 C1606 C 0.42426 0.56308 0.76641
 C1607 C 0.44999 0.62443 0.77775
 C1608 C 0.45839 0.62982 0.79750
 C1609 C 0.45978 0.61421 0.81300
 C1610 C 0.45248 0.59361 0.80872
 C1611 C 0.46786 0.61954 0.83278
 C1612 C 0.47374 0.64028 0.83745
 C1613 C 0.47189 0.65606 0.82240
 C1614 C 0.46472 0.65067 0.80225
 H1615 H 0.43520 0.55645 0.79766
 H1616 H 0.43193 0.61010 0.74201
 H1617 H 0.41598 0.57485 0.73587
 H1618 H 0.44890 0.63634 0.76582
 H1619 H 0.45331 0.58175 0.82073
 H1620 H 0.46915 0.60775 0.84478
 H1621 H 0.47954 0.64409 0.85298
 H1622 H 0.46319 0.66280 0.79061
 C1623 C -0.07019 0.07780 0.27910
 C1624 C -0.05907 0.09575 0.28718
 C1625 C -0.04484 0.09396 0.30471
 C1626 C -0.04186 0.07428 0.31375
 C1627 C -0.05335 0.05660 0.30589
 C1628 C -0.06772 0.05821 0.28864
 C1629 C -0.03428 0.11192 0.31327
 C1630 C -0.03822 0.13173 0.30487
 C1631 C -0.05236 0.13354 0.28731
 C1632 C -0.06250 0.11552 0.27842
 C1633 C -0.05652 0.15341 0.27921
 C1634 C -0.04723 0.17136 0.28872
 C1635 C -0.03339 0.16980 0.30640
 C1636 C -0.02865 0.14981 0.31412
 H1637 H -0.08148 0.07918 0.26593
 H1638 H -0.03101 0.07262 0.32718
 H1639 H -0.05115 0.04161 0.31338
 H1640 H -0.02348 0.11053 0.32679
 H1641 H -0.07348 0.11693 0.26503
 H1642 H -0.06736 0.15511 0.26578
 H1643 H -0.05140 0.18650 0.28254
 H1644 H -0.01769 0.14828 0.32748
 C1645 C 0.06626 0.41399 0.26707
 C1646 C 0.05997 0.39340 0.27278
 C1647 C 0.07590 0.37778 0.27327
 C1648 C 0.09772 0.38291 0.26787
 C1649 C 0.10393 0.40348 0.26276
 C1650 C 0.08836 0.41914 0.26251
 C1651 C 0.07001 0.35745 0.27983
 C1652 C 0.04859 0.35263 0.28657
 C1653 C 0.03257 0.36813 0.28595
 C1654 C 0.03827 0.38835 0.27877
 C1655 C 0.01132 0.36329 0.29312
 C1656 C 0.00622 0.34356 0.30154
 C1657 C 0.02218 0.32816 0.30269
 C1658 C 0.04319 0.33273 0.29463
 H1659 H 0.05431 0.42617 0.26707
 H1660 H 0.11012 0.37115 0.26817
 H1661 H 0.12104 0.40730 0.25926
 H1662 H 0.08232 0.34557 0.28037
 H1663 H 0.02604 0.40030 0.27850
 H1664 H -0.00118 0.37497 0.29280
 H1665 H -0.01002 0.34065 0.30781
 H1666 H 0.05556 0.32093 0.29503
 C1667 C 0.57194 0.90609 0.77060
 C1668 C 0.56094 0.88861 0.77941
 C1669 C 0.54700 0.89137 0.79628
 C1670 C 0.54377 0.91156 0.80360
 C1671 C 0.55464 0.92886 0.79464
 C1672 C 0.56906 0.92627 0.77831
 C1673 C 0.53675 0.87391 0.80573
 C1674 C 0.54007 0.85371 0.79844
 C1675 C 0.55344 0.85095 0.78120
 C1676 C 0.56386 0.86842 0.77182
 C1677 C 0.55632 0.83072 0.77379
 C1678 C 0.54630 0.81335 0.78353
 C1679 C 0.53337 0.81584 0.80101
 C1680 C 0.53036 0.83621 0.80829
 H1681 H 0.58287 0.90400 0.75785
 H1682 H 0.53308 0.91395 0.81645
 H1683 H 0.55232 0.94424 0.80091
 H1684 H 0.52633 0.87603 0.81885
 H1685 H 0.57439 0.86629 0.75878
 H1686 H 0.56635 0.82831 0.76048
 H1687 H 0.54864 0.79798 0.77728
 H1688 H 0.52089 0.83852 0.82198
 C1689 C 0.70937 0.56768 0.07870
 C1690 C 0.69833 0.55994 0.09616
 C1691 C 0.67568 0.56349 0.09831
 C1692 C 0.66419 0.57380 0.08262
 C1693 C 0.67507 0.58118 0.06518
 C1694 C 0.69816 0.57897 0.06286
 C1695 C 0.66483 0.55677 0.11615
 C1696 C 0.67633 0.54624 0.13184
 C1697 C 0.69882 0.54197 0.12944
 C1698 C 0.70975 0.54898 0.11170
 C1699 C 0.71002 0.53087 0.14492
 C1700 C 0.69912 0.52431 0.16273
 C1701 C 0.67688 0.52904 0.16564
 C1702 C 0.66565 0.54004 0.14994
 H1703 H 0.72697 0.56567 0.07851
 H1704 H 0.64663 0.57615 0.08379
 H1705 H 0.66467 0.58802 0.05341
 H1706 H 0.64747 0.55982 0.11786
 H1707 H 0.72712 0.54600 0.11003
 H1708 H 0.72720 0.52722 0.14325
 H1709 H 0.70817 0.51543 0.17417
 H1710 H 0.64868 0.54424 0.15191
 C1711 C 0.22024 1.08336 0.58551
 C1712 C 0.21149 1.07365 0.60308
 C1713 C 0.20088 1.05363 0.60149
 C1714 C 0.19940 1.04362 0.58227
 C1715 C 0.20819 1.05345 0.56477
 C1716 C 0.21869 1.07341 0.56623
 C1717 C 0.19176 1.04409 0.61908
 C1718 C 0.19302 1.05445 0.63815
 C1719 C 0.20378 1.07444 0.63965
 C1720 C 0.21300 1.08386 0.62215
 C1721 C 0.20493 1.08486 0.65860
 C1722 C 0.19516 1.07578 0.67589
 C1723 C 0.18413 1.05607 0.67460
 C1724 C 0.18337 1.04533 0.65571
 H1725 H 0.22783 1.09895 0.58681
 H1726 H 0.19137 1.02825 0.58074
 H1727 H 0.20691 1.04539 0.55013
 H1728 H 0.18351 1.02877 0.61787
 H1729 H 0.22115 1.09923 0.62332
 H1730 H 0.21321 1.10014 0.66000
 H1731 H 0.19621 1.08420 0.69034
 H1732 H 0.17473 1.03020 0.65453
 C1733 C 0.23604 0.94327 0.90258
 C1734 C 0.22689 0.95526 0.88654
 C1735 C 0.21432 0.97261 0.89122
 C1736 C 0.21181 0.97817 0.91181
 C1737 C 0.22114 0.96636 0.92774
 C1738 C 0.23308 0.94828 0.92361
 C1739 C 0.20421 0.98399 0.87526
 C1740 C 0.20663 0.97824 0.85463
 C1741 C 0.21996 0.96136 0.84986
 C1742 C 0.23001 0.94998 0.86585
 C1743 C 0.22261 0.95589 0.82918
 C1744 C 0.21153 0.96656 0.81340
 C1745 C 0.19757 0.98279 0.81807
 C1746 C 0.19553 0.98881 0.83871
 H1747 H 0.24622 0.93055 0.89832
 H1748 H 0.20221 0.99148 0.91567
 H1749 H 0.21747 0.97092 0.94325
 H1750 H 0.19420 0.99709 0.87891
 H1751 H 0.23991 0.93680 0.86219
 H1752 H 0.23285 0.94307 0.82524
 H1753 H 0.21323 0.96163 0.79759
 H1754 H 0.18499 1.00151 0.84238
 C1755 C 0.72922 0.44998 0.40513
 C1756 C 0.71606 0.45763 0.38882
 C1757 C 0.69278 0.45702 0.39043
 C1758 C 0.68313 0.44944 0.40857
 C1759 C 0.69637 0.44207 0.42480
 C1760 C 0.71944 0.44197 0.42310
 C1761 C 0.67951 0.46372 0.37380
 C1762 C 0.68922 0.47120 0.35564
 C1763 C 0.71253 0.47250 0.35429
 C1764 C 0.72580 0.46562 0.37086
 C1765 C 0.72216 0.48048 0.33628
 C1766 C 0.70883 0.48676 0.31962
 C1767 C 0.68570 0.48490 0.32060
 C1768 C 0.67598 0.47724 0.33872
 H1769 H 0.74705 0.45012 0.40382
 H1770 H 0.66533 0.44895 0.41010
 H1771 H 0.68852 0.43583 0.43848
 H1772 H 0.66165 0.46293 0.37492
 H1773 H 0.74366 0.46630 0.36970
 H1774 H 0.73998 0.48170 0.33502
 H1775 H 0.71658 0.49259 0.30574
 H1776 H 0.65811 0.47604 0.33961
 C1777 C 0.79492 0.44548 0.58576
 C1778 C 0.80396 0.45522 0.60361
 C1779 C 0.82267 0.46905 0.60208
 C1780 C 0.83159 0.47339 0.58272
 C1781 C 0.82256 0.46359 0.56509
 C1782 C 0.80441 0.44927 0.56643
 C1783 C 0.83249 0.47796 0.61994
 C1784 C 0.82398 0.47309 0.63936
 C1785 C 0.80491 0.45973 0.64092
 C1786 C 0.79497 0.45092 0.62301
 C1787 C 0.79642 0.45507 0.66043
 C1788 C 0.80713 0.46302 0.67826
 C1789 C 0.82654 0.47568 0.67688
 C1790 C 0.83461 0.48097 0.65732
 H1791 H 0.78106 0.43433 0.58707
 H1792 H 0.84580 0.48410 0.58126
 H1793 H 0.82992 0.46712 0.55036
 H1794 H 0.84704 0.48831 0.61875
 H1795 H 0.78054 0.44041 0.62422
 H1796 H 0.78176 0.44495 0.66192
 H1797 H 0.80067 0.45869 0.69318
 H1798 H 0.84940 0.49100 0.65611
 C1799 C 0.28945 -0.06386 0.08872
 C1800 C 0.29816 -0.05476 0.10699
 C1801 C 0.31687 -0.04083 0.10620
 C1802 C 0.32636 -0.03603 0.08717
 C1803 C 0.31784 -0.04544 0.06915
 C1804 C 0.29952 -0.05958 0.06978
 C1805 C 0.32617 -0.03233 0.12445
 C1806 C 0.31734 -0.03795 0.14357
 C1807 C 0.29850 -0.05169 0.14441
 C1808 C 0.28889 -0.05986 0.12609
 C1809 C 0.28992 -0.05738 0.16363
 C1810 C 0.30027 -0.05000 0.18185
 C1811 C 0.31931 -0.03672 0.18118
 C1812 C 0.32745 -0.03044 0.16190
 H1813 H 0.27544 -0.07493 0.08933
 H1814 H 0.34065 -0.02534 0.08629
 H1815 H 0.32568 -0.04178 0.05466
 H1816 H 0.34064 -0.02180 0.12383
 H1817 H 0.27456 -0.07056 0.12674
 H1818 H 0.27549 -0.06788 0.16459
 H1819 H 0.29374 -0.05518 0.19650
 H1820 H 0.34186 -0.01986 0.16115
 C1821 C 0.27720 0.06818 0.40920
 C1822 C 0.28346 0.06011 0.39022
 C1823 C 0.28105 0.07223 0.37204
 C1824 C 0.27183 0.09193 0.37305
 C1825 C 0.26571 0.09986 0.39198
 C1826 C 0.26866 0.08827 0.41029
 C1827 C 0.28833 0.06471 0.35324
 C1828 C 0.29825 0.04532 0.35240
 C1829 C 0.30014 0.03292 0.37045
 C1830 C 0.29264 0.04036 0.38924
 C1831 C 0.31001 0.01351 0.36950
 C1832 C 0.31863 0.00675 0.35102
 C1833 C 0.31751 0.01928 0.33315
 C1834 C 0.30687 0.03838 0.33389
 H1835 H 0.27976 0.05914 0.42320
 H1836 H 0.26968 0.10135 0.35925
 H1837 H 0.25875 0.11518 0.39231
 H1838 H 0.28677 0.07417 0.33936
 H1839 H 0.29441 0.03099 0.40315
 H1840 H 0.31153 0.00377 0.38316
 H1841 H 0.32690 -0.00794 0.35088
 H1842 H 0.30566 0.04802 0.32012
 C1843 C 0.79666 0.57768 0.91001
 C1844 C 0.80277 0.56707 0.89232
 C1845 C 0.79067 0.54880 0.88594
 C1846 C 0.77234 0.54175 0.89718
 C1847 C 0.76587 0.55285 0.91440
 C1848 C 0.77792 0.57097 0.92108
 C1849 C 0.79696 0.53807 0.86833
 C1850 C 0.81479 0.54577 0.85669
 C1851 C 0.82645 0.56442 0.86281
 C1852 C 0.82060 0.57473 0.88074
 C1853 C 0.84371 0.57256 0.85080
 C1854 C 0.84949 0.56231 0.83293
 C1855 C 0.83840 0.54355 0.82695
 C1856 C 0.82109 0.53526 0.83892
 H1857 H 0.80660 0.59122 0.91506
 H1858 H 0.76273 0.52788 0.89243
 H1859 H 0.75112 0.54738 0.92218
 H1860 H 0.78781 0.52392 0.86354
 H1861 H 0.82971 0.58892 0.88549
 H1862 H 0.85272 0.58688 0.85522
 H1863 H 0.86298 0.56879 0.82393
 H1864 H 0.81244 0.52082 0.83425
 C1865 C 0.09191 0.71597 0.58054
 C1866 C 0.11030 0.70704 0.57186
 C1867 C 0.13176 0.71199 0.57999
 C1868 C 0.13449 0.72617 0.59633
 C1869 C 0.11609 0.73494 0.60493
 C1870 C 0.09460 0.72973 0.59732
 C1871 C 0.15008 0.70235 0.57195
 C1872 C 0.14715 0.68762 0.55606
 C1873 C 0.12571 0.68301 0.54768
 C1874 C 0.10745 0.69284 0.55553
 C1875 C 0.12280 0.66824 0.53189
 C1876 C 0.14081 0.65757 0.52494
 C1877 C 0.16211 0.66155 0.53356
 C1878 C 0.16523 0.67696 0.54884
 H1879 H 0.07545 0.71159 0.57468
 H1880 H 0.15083 0.73027 0.60266
 H1881 H 0.11867 0.74578 0.61760
 H1882 H 0.16651 0.70594 0.57838
 H1883 H 0.09099 0.68908 0.54926
 H1884 H 0.10651 0.66463 0.52518
 H1885 H 0.13806 0.64600 0.51293
 H1886 H 0.18155 0.68002 0.55572
 C1887 C 0.56890 0.20180 1.08491
 C1888 C 0.58792 0.19387 1.07638
 C1889 C 0.60762 0.20646 1.07586
 C1890 C 0.60776 0.22700 1.08325
 C1891 C 0.58872 0.23484 1.09154
 C1892 C 0.56917 0.22227 1.09280
 C1893 C 0.62692 0.19827 1.06816
 C1894 C 0.62671 0.17768 1.06081
 C1895 C 0.60682 0.16531 1.06078
 C1896 C 0.58759 0.17344 1.06864
 C1897 C 0.60653 0.14493 1.05301
 C1898 C 0.62581 0.13670 1.04567
 C1899 C 0.64594 0.14854 1.04619
 C1900 C 0.64613 0.16918 1.05366
 H1901 H 0.55412 0.19177 1.08596
 H1902 H 0.62264 0.23696 1.08276
 H1903 H 0.58935 0.25080 1.09702
 H1904 H 0.64210 0.20786 1.06803
 H1905 H 0.57243 0.16382 1.06886
 H1906 H 0.59137 0.13533 1.05263
 H1907 H 0.62488 0.12101 1.03950
 H1908 H 0.66146 0.17852 1.05439
 C1909 C 0.88308 0.20864 0.93091
 C1910 C 0.86328 0.20086 0.93953
 C1911 C 0.84413 0.19786 0.92684
 C1912 C 0.84488 0.20306 0.90594
 C1913 C 0.86455 0.21052 0.89739
 C1914 C 0.88438 0.21313 0.90946
 C1915 C 0.82461 0.18928 0.93509
 C1916 C 0.82409 0.18316 0.95585
 C1917 C 0.84309 0.18639 0.96875
 C1918 C 0.86253 0.19540 0.96055
 C1919 C 0.84246 0.18004 0.98948
 C1920 C 0.82348 0.16984 0.99714
 C1921 C 0.80475 0.16596 0.98423
 C1922 C 0.80504 0.17320 0.96372
 H1923 H 0.89761 0.20964 0.94095
 H1924 H 0.83019 0.20124 0.89608
 H1925 H 0.86357 0.21499 0.88131
 H1926 H 0.81000 0.18680 0.92521
 H1927 H 0.87719 0.19766 0.97039
 H1928 H 0.85684 0.18242 0.99963
 H1929 H 0.82377 0.16430 1.01295
 H1930 H 0.79057 0.17063 0.95370
 C1931 C 0.40522 0.69833 0.44104
 C1932 C 0.38519 0.69130 0.44969
 C1933 C 0.36493 0.69773 0.44088
 C1934 C 0.36504 0.71175 0.42423
 C1935 C 0.38499 0.71890 0.41592
 C1936 C 0.40531 0.71194 0.42385
 C1937 C 0.34487 0.68980 0.44862
 C1938 C 0.34476 0.67559 0.46516
 C1939 C 0.36497 0.66983 0.47461
 C1940 C 0.38507 0.67766 0.46676
 C1941 C 0.36467 0.65599 0.49151
 C1942 C 0.34459 0.64738 0.49849
 C1943 C 0.32459 0.65232 0.48854
 C1944 C 0.32475 0.66670 0.47211
 H1945 H 0.42063 0.69266 0.44733
 H1946 H 0.34967 0.71709 0.41751
 H1947 H 0.38444 0.72988 0.40317
 H1948 H 0.32935 0.69441 0.44155
 H1949 H 0.40059 0.67290 0.47372
 H1950 H 0.37997 0.65151 0.49905
 H1951 H 0.34472 0.63626 0.51115
 H1952 H 0.30927 0.67065 0.46453
 C1953 C 0.58925 0.77207 0.43235
 C1954 C 0.60676 0.78404 0.44160
 C1955 C 0.60309 0.80458 0.44831
 C1956 C 0.58218 0.81287 0.44552
 C1957 C 0.56498 0.80100 0.43610
 C1958 C 0.56821 0.78046 0.42948
 C1959 C 0.62040 0.81661 0.45759
 C1960 C 0.64144 0.80847 0.46015
 C1961 C 0.64530 0.78804 0.45330
 C1962 C 0.62789 0.77589 0.44415
 C1963 C 0.66655 0.78019 0.45569
 C1964 C 0.68375 0.79243 0.46488
 C1965 C 0.67992 0.81264 0.47199
 C1966 C 0.65870 0.82056 0.46944
 H1967 H 0.59200 0.75623 0.42749
 H1968 H 0.57916 0.82864 0.45042
 H1969 H 0.54921 0.80814 0.43365
 H1970 H 0.61750 0.83233 0.46277
 H1971 H 0.63080 0.76019 0.43894
 H1972 H 0.66986 0.76459 0.45049
 H1973 H 0.69996 0.78599 0.46674
 H1974 H 0.65569 0.83629 0.47451
 C1975 C 0.05960 0.27927 -0.06970
 C1976 C 0.07906 0.29048 -0.06343
 C1977 C 0.08486 0.30966 -0.07326
 C1978 C 0.07096 0.31751 -0.08882
 C1979 C 0.05158 0.30641 -0.09479
 C1980 C 0.04576 0.28716 -0.08544
 C1981 C 0.10446 0.32071 -0.06742
 C1982 C 0.11820 0.31308 -0.05159
 C1983 C 0.11227 0.29415 -0.04145
 C1984 C 0.09282 0.28286 -0.04754
 C1985 C 0.12586 0.28692 -0.02529
 C1986 C 0.14499 0.29844 -0.01909
 C1987 C 0.15116 0.31728 -0.02914
 C1988 C 0.13769 0.32428 -0.04562
 H1989 H 0.05518 0.26449 -0.06233
 H1990 H 0.07515 0.33219 -0.09648
 H1991 H 0.04137 0.31263 -0.10717
 H1992 H 0.10893 0.33534 -0.07509
 H1993 H 0.08835 0.26824 -0.03985
 H1994 H 0.12152 0.27251 -0.01722
 H1995 H 0.15469 0.29276 -0.00612
 H1996 H 0.14233 0.33847 -0.05391
 C1997 C 0.39428 0.29231 0.09249
 C1998 C 0.37587 0.29798 0.08042
 C1999 C 0.37331 0.29078 0.05989
 C2000 C 0.38926 0.27802 0.05182
 C2001 C 0.40751 0.27237 0.06398
 C2002 C 0.41021 0.27939 0.08445
 C2003 C 0.35490 0.29647 0.04778
 C2004 C 0.33906 0.30934 0.05594
 C2005 C 0.34165 0.31647 0.07650
 C2006 C 0.36000 0.31075 0.08859
 C2007 C 0.32590 0.32938 0.08460
 C2008 C 0.30789 0.33544 0.07241
 C2009 C 0.30512 0.32861 0.05188
 C2010 C 0.32078 0.31537 0.04381
 H2011 H 0.39631 0.29814 0.10812
 H2012 H 0.38755 0.27230 0.03614
 H2013 H 0.41934 0.26219 0.05747
 H2014 H 0.35297 0.29098 0.03202
 H2015 H 0.36196 0.31628 0.10435
 H2016 H 0.32767 0.33505 0.10030
 H2017 H 0.29641 0.34596 0.07895
 H2018 H 0.31877 0.30978 0.02810
 C2019 C 0.92823 0.79875 0.57633
 C2020 C 0.90756 0.80371 0.56776
 C2021 C 0.88927 0.78945 0.56971
 C2022 C 0.89213 0.77023 0.57972
 C2023 C 0.91274 0.76546 0.58832
 C2024 C 0.93088 0.77980 0.58701
 C2025 C 0.86834 0.79483 0.56205
 C2026 C 0.86544 0.81438 0.55265
 C2027 C 0.88386 0.82842 0.55031
 C2028 C 0.90481 0.82295 0.55776
 C2029 C 0.88097 0.84792 0.54092
 C2030 C 0.85993 0.85373 0.53440
 C2031 C 0.84136 0.84018 0.53713
 C2032 C 0.84432 0.82032 0.54598
 H2033 H 0.94218 0.80980 0.57500
 H2034 H 0.87832 0.75908 0.58132
 H2035 H 0.91429 0.75084 0.59664
 H2036 H 0.85425 0.78400 0.56380
 H2037 H 0.91886 0.83387 0.55619
 H2038 H 0.89493 0.85880 0.53884
 H2039 H 0.85818 0.86893 0.52722
 H2040 H 0.83013 0.80978 0.54831
   
