data_POSCAR
  _audit_creation_date              2014-09-24
  _audit_creation_method            'ToBaCCo'
  _symmetry_space_group_name_H-M    'P1'
  _symmetry_Int_Tables_number       1
  _symmetry_cell_setting            triclinic
  loop_
  _symmetry_equiv_pos_as_xyz
 x,y,z
_cell_length_a 64.1856
_cell_length_b 64.1392
_cell_length_c 65.6496
_cell_angle_alpha 90.338100
_cell_angle_beta 89.457500
_cell_angle_gamma 90.033700
loop_
  _atom_site_label
  _atom_site_type_symbol
  _atom_site_fract_x
  _atom_site_fract_y
  _atom_site_fract_z
C1 C 0.41500 0.01642 0.27822
 H2 H 0.41600 0.02879 0.26713
 C3 C 0.42751 0.01705 0.29559
 H4 H 0.43812 0.02997 0.29791
 C5 C 0.40000 -0.01553 0.28888
 H6 H 0.38915 -0.02814 0.28644
 C7 C 0.41218 -0.01549 0.30640
 H8 H 0.41069 -0.02810 0.31722
 N9 N 0.40186 0.00006 0.27498
 C10 C 0.39530 -0.00598 0.20890
 H11 H 0.37855 -0.00740 0.20786
 C12 C 0.40754 -0.00616 0.19118
 H13 H 0.40020 -0.00778 0.17646
 C14 C 0.42533 -0.00175 0.22927
 H15 H 0.43226 -0.00012 0.24410
 C16 C 0.43815 -0.00185 0.21191
 H17 H 0.45485 -0.00014 0.21347
 Zn18 Zn 0.38605 -0.00119 0.25050
 N19 N 0.40425 -0.00331 0.22745
 C20 C 0.37346 0.03677 0.23226
 N21 N 0.36986 0.02386 0.24834
 C22 C 0.35581 0.02916 0.26318
 C23 C 0.34453 0.04785 0.26195
 C24 C 0.36255 0.05551 0.23046
 C25 C 0.37947 -0.04423 0.24958
 C26 C 0.36871 -0.06313 0.25103
 C27 C 0.33654 -0.04381 0.25444
 C28 C 0.34797 -0.02521 0.25292
 N29 N 0.36911 -0.02575 0.25089
 H30 H 0.38506 0.03281 0.22090
 H31 H 0.35349 0.01896 0.27607
 H32 H 0.33344 0.05193 0.27385
 H33 H 0.36568 0.06561 0.21761
 H34 H 0.39625 -0.04426 0.24786
 H35 H 0.37731 -0.07766 0.25029
 H36 H 0.31976 -0.04315 0.25636
 H37 H 0.33994 -0.01043 0.25367
 C38 C 0.42915 -0.00379 0.19267
 C39 C 0.42623 0.00081 0.30971
 C40 C 0.34703 -0.06300 0.25370
 C41 C 0.34793 0.06117 0.24539
 C42 C 0.08400 0.01463 0.72087
 H43 H 0.08281 0.02737 0.73169
 C44 C 0.07146 0.01444 0.70351
 H45 H 0.06066 0.02709 0.70092
 C46 C 0.09949 -0.01742 0.71089
 H47 H 0.11054 -0.02974 0.71358
 C48 C 0.08730 -0.01820 0.69340
 H49 H 0.08898 -0.03116 0.68284
 N50 N 0.09738 -0.00139 0.72445
 C51 C 0.10409 -0.00507 0.79060
 H52 H 0.12085 -0.00634 0.79162
 C53 C 0.09190 -0.00455 0.80834
 H54 H 0.09929 -0.00553 0.82307
 C55 C 0.07398 -0.00177 0.77021
 H56 H 0.06700 -0.00073 0.75537
 C57 C 0.06122 -0.00120 0.78760
 H58 H 0.04451 0.00040 0.78605
 Zn59 Zn 0.11319 -0.00152 0.74892
 N60 N 0.09507 -0.00314 0.77202
 C61 C 0.12542 0.03708 0.76649
 N62 N 0.12900 0.02379 0.75056
 C63 C 0.14297 0.02876 0.73559
 C64 C 0.15431 0.04744 0.73662
 C65 C 0.13638 0.05583 0.76809
 C66 C 0.12075 -0.04439 0.75054
 C67 C 0.13203 -0.06300 0.74925
 C68 C 0.16364 -0.04287 0.74566
 C69 C 0.15175 -0.02458 0.74702
 N70 N 0.13062 -0.02566 0.74901
 H71 H 0.11386 0.03337 0.77793
 H72 H 0.14527 0.01824 0.72283
 H73 H 0.16541 0.05123 0.72468
 H74 H 0.13333 0.06621 0.78085
 H75 H 0.10398 -0.04486 0.75224
 H76 H 0.12392 -0.07779 0.75008
 H77 H 0.18039 -0.04188 0.74371
 H78 H 0.15939 -0.00961 0.74613
 C79 C 0.07030 -0.00229 0.80685
 C80 C 0.07299 -0.00227 0.68976
 C81 C 0.15366 -0.06228 0.74654
 C82 C 0.15101 0.06109 0.75309
 C83 C 0.58433 0.51356 0.22084
 H84 H 0.58310 0.52629 0.23167
 C85 C 0.57186 0.51337 0.20344
 H86 H 0.56106 0.52602 0.20083
 C87 C 0.59988 0.48153 0.21089
 H88 H 0.61093 0.46921 0.21362
 C89 C 0.58776 0.48076 0.19335
 H90 H 0.58949 0.46781 0.18279
 N91 N 0.59771 0.49755 0.22446
 C92 C 0.60414 0.49376 0.29061
 H93 H 0.62090 0.49247 0.29168
 C94 C 0.59190 0.49426 0.30831
 H95 H 0.59924 0.49326 0.32307
 C96 C 0.57411 0.49712 0.27013
 H97 H 0.56718 0.49819 0.25527
 C98 C 0.56128 0.49768 0.28748
 H99 H 0.54458 0.49931 0.28588
 Zn100 Zn 0.61340 0.49739 0.24900
 N101 N 0.59518 0.49573 0.27200
 C102 C 0.62547 0.53597 0.26667
 N103 N 0.62918 0.52271 0.25075
 C104 C 0.64324 0.52771 0.23588
 C105 C 0.65455 0.54640 0.23700
 C106 C 0.63640 0.55473 0.26836
 C107 C 0.62096 0.45454 0.25061
 C108 C 0.63224 0.43594 0.24941
 C109 C 0.66388 0.45607 0.24601
 C110 C 0.65197 0.47435 0.24729
 N111 N 0.63084 0.47327 0.24915
 H112 H 0.61384 0.53224 0.27804
 H113 H 0.64563 0.51721 0.22311
 H114 H 0.66572 0.55022 0.22513
 H115 H 0.63326 0.56509 0.28112
 H116 H 0.60417 0.45407 0.25222
 H117 H 0.62413 0.42115 0.25020
 H118 H 0.68064 0.45706 0.24418
 H119 H 0.65962 0.48933 0.24645
 C120 C 0.57030 0.49656 0.30675
 C121 C 0.57345 0.49668 0.18968
 C122 C 0.65389 0.43666 0.24684
 C123 C 0.65113 0.56003 0.25346
 C124 C 0.91670 0.51739 0.77908
 H125 H 0.91774 0.52973 0.76795
 C126 C 0.92914 0.51809 0.79650
 H127 H 0.93972 0.53105 0.79878
 C128 C 0.90164 0.48550 0.78980
 H129 H 0.89078 0.47290 0.78736
 C130 C 0.91373 0.48559 0.80737
 H131 H 0.91214 0.47300 0.81821
 N132 N 0.90355 0.50104 0.77585
 C133 C 0.89662 0.49493 0.70979
 H134 H 0.87986 0.49343 0.70890
 C135 C 0.90870 0.49475 0.69197
 H136 H 0.90123 0.49305 0.67732
 C137 C 0.92681 0.49937 0.72989
 H138 H 0.93386 0.50110 0.74466
 C139 C 0.93948 0.49927 0.71242
 H140 H 0.95619 0.50106 0.71383
 Zn141 Zn 0.88765 0.49980 0.75141
 N142 N 0.90572 0.49769 0.72825
 C143 C 0.87495 0.53774 0.73322
 N144 N 0.87145 0.52484 0.74932
 C145 C 0.85746 0.53013 0.76422
 C146 C 0.84613 0.54879 0.76302
 C147 C 0.86399 0.55646 0.73144
 C148 C 0.88101 0.45675 0.75054
 C149 C 0.87019 0.43788 0.75197
 C150 C 0.83809 0.45726 0.75534
 C151 C 0.84954 0.47584 0.75385
 N152 N 0.87069 0.47526 0.75184
 H153 H 0.88650 0.53379 0.72180
 H154 H 0.85521 0.51993 0.77713
 H155 H 0.83508 0.55286 0.77496
 H156 H 0.86703 0.56655 0.71857
 H157 H 0.89779 0.45667 0.74883
 H158 H 0.87866 0.42329 0.75125
 H159 H 0.82132 0.45786 0.75724
 H160 H 0.84155 0.49064 0.75459
 C161 C 0.93031 0.49722 0.69326
 C162 C 0.92778 0.50192 0.81071
 C163 C 0.84854 0.43808 0.75460
 C164 C 0.84942 0.56210 0.74643
 C165 C 0.22125 0.39481 0.98320
 H166 H 0.23301 0.39526 0.97129
 C167 C 0.20280 0.40620 0.98111
 H168 H 0.20046 0.41558 0.96766
 C169 C 0.20955 0.38139 1.01486
 H170 H 0.21197 0.37130 1.02774
 C171 C 0.19087 0.39254 1.01336
 H172 H 0.17913 0.39117 1.02524
 N173 N 0.22430 0.38268 0.99986
 C174 C 0.29168 0.37070 1.00163
 H175 H 0.29134 0.35383 1.00179
 C176 C 0.31069 0.38119 1.00320
 H177 H 0.32501 0.37238 1.00441
 C178 C 0.27339 0.40276 1.00041
 H179 H 0.25879 0.41109 0.99971
 C180 C 0.29212 0.41389 1.00197
 H181 H 0.29188 0.43077 1.00224
 Zn182 Zn 0.24852 0.36544 1.00007
 N183 N 0.27351 0.38152 1.00021
 C184 C 0.26259 0.34840 0.96200
 N185 N 0.24721 0.34827 0.97643
 C186 C 0.22973 0.33651 0.97400
 C187 C 0.22730 0.32406 0.95664
 C188 C 0.26076 0.33617 0.94439
 C189 C 0.25103 0.35844 1.04212
 C190 C 0.25360 0.34692 1.05993
 C191 C 0.25254 0.31529 1.03981
 C192 C 0.24998 0.32740 1.02235
 N193 N 0.24926 0.34859 1.02379
 H194 H 0.27614 0.35817 0.96396
 H195 H 0.21761 0.33692 0.98556
 H196 H 0.21328 0.31485 0.95481
 H197 H 0.27300 0.33647 0.93292
 H198 H 0.25084 0.37529 1.04281
 H199 H 0.25517 0.35493 1.07441
 H200 H 0.25331 0.29846 1.03850
 H201 H 0.24913 0.31984 1.00764
 C202 C 0.31096 0.40300 1.00347
 C203 C 0.18736 0.40494 0.99625
 C204 C 0.25450 0.32515 1.05876
 C205 C 0.24294 0.32390 0.94167
 C206 C 0.77760 0.10465 0.98262
 H207 H 0.76629 0.10409 0.97052
 C208 C 0.79613 0.09325 0.98080
 H209 H 0.79893 0.08377 0.96733
 C210 C 0.78813 0.11834 1.01453
 H211 H 0.78524 0.12854 1.02739
 C212 C 0.80686 0.10720 1.01331
 H213 H 0.81813 0.10870 1.02543
 N214 N 0.77395 0.11691 0.99928
 C215 C 0.70643 0.12834 1.00015
 H216 H 0.70649 0.14520 1.00016
 C217 C 0.68755 0.11754 1.00168
 H218 H 0.67305 0.12613 1.00269
 C219 C 0.72528 0.09656 0.99947
 H220 H 0.74003 0.08845 0.99905
 C221 C 0.70670 0.08515 1.00100
 H222 H 0.70723 0.06828 1.00150
 Zn223 Zn 0.74970 0.13407 0.99926
 N224 N 0.72482 0.11779 0.99904
 C225 C 0.73711 0.15062 0.96088
 N226 N 0.75183 0.15106 0.97567
 C227 C 0.76944 0.16273 0.97351
 C228 C 0.77275 0.17464 0.95600
 C229 C 0.73981 0.16231 0.94311
 C230 C 0.74592 0.14090 1.04128
 C231 C 0.74355 0.15226 1.05938
 C232 C 0.74593 0.18409 1.04001
 C233 C 0.74827 0.17213 1.02223
 N234 N 0.74832 0.15091 1.02318
 H235 H 0.72345 0.14092 0.96264
 H236 H 0.78106 0.16255 0.98534
 H237 H 0.78690 0.18371 0.95438
 H238 H 0.72812 0.16170 0.93133
 H239 H 0.74564 0.12404 1.04158
 H240 H 0.74162 0.14413 1.07369
 H241 H 0.74585 0.20095 1.03912
 H242 H 0.74969 0.17982 1.00769
 C243 C 0.68765 0.09574 1.00223
 C244 C 0.81100 0.09465 0.99622
 C245 C 0.74350 0.17406 1.05876
 C246 C 0.75784 0.17438 0.94061
 C247 C 0.27708 0.60529 0.48198
 H248 H 0.26579 0.60475 0.46985
 C249 C 0.29556 0.59380 0.48024
 H250 H 0.29840 0.58427 0.46682
 C251 C 0.28759 0.61900 0.51388
 H252 H 0.28471 0.62924 0.52673
 C253 C 0.30626 0.60777 0.51274
 H254 H 0.31753 0.60921 0.52484
 N255 N 0.27343 0.61760 0.49861
 C256 C 0.20593 0.62910 0.49941
 H257 H 0.20600 0.64597 0.49939
 C258 C 0.18704 0.61832 0.50095
 H259 H 0.17254 0.62691 0.50193
 C260 C 0.22477 0.59732 0.49880
 H261 H 0.23951 0.58921 0.49840
 C262 C 0.20619 0.58592 0.50034
 H263 H 0.20671 0.56905 0.50086
 Zn264 Zn 0.24921 0.63481 0.49853
 N265 N 0.22432 0.61855 0.49834
 C266 C 0.23663 0.65130 0.46012
 N267 N 0.25137 0.65174 0.47490
 C268 C 0.26899 0.66339 0.47271
 C269 C 0.27229 0.67529 0.45519
 C270 C 0.23933 0.66298 0.44234
 C271 C 0.24541 0.64174 0.54053
 C272 C 0.24307 0.65315 0.55861
 C273 C 0.24553 0.68493 0.53917
 C274 C 0.24784 0.67292 0.52142
 N275 N 0.24785 0.65170 0.52242
 H276 H 0.22297 0.64162 0.46190
 H277 H 0.28062 0.66321 0.48453
 H278 H 0.28644 0.68435 0.45355
 H279 H 0.22762 0.66237 0.43058
 H280 H 0.24510 0.62488 0.54088
 H281 H 0.24112 0.64505 0.57294
 H282 H 0.24549 0.70179 0.53824
 H283 H 0.24929 0.68057 0.50686
 C284 C 0.18713 0.59651 0.50153
 C285 C 0.31038 0.59516 0.49569
 C286 C 0.24307 0.67495 0.55794
 C287 C 0.25736 0.67503 0.43981
 C288 C 0.72123 0.89403 0.48343
 H289 H 0.73299 0.89445 0.47152
 C290 C 0.70274 0.90532 0.48127
 H291 H 0.70036 0.91461 0.46777
 C292 C 0.70959 0.88076 0.51518
 H293 H 0.71205 0.87076 0.52812
 C294 C 0.69086 0.89181 0.51361
 H295 H 0.67912 0.89048 0.52550
 N296 N 0.72433 0.88201 0.50017
 C297 C 0.79178 0.87042 0.50197
 H298 H 0.79154 0.85355 0.50221
 C299 C 0.81073 0.88104 0.50349
 H300 H 0.82510 0.87232 0.50473
 C301 C 0.77329 0.90236 0.50063
 H302 H 0.75864 0.91060 0.49991
 C303 C 0.79195 0.91361 0.50213
 H304 H 0.79161 0.93050 0.50233
 Zn305 Zn 0.74864 0.86490 0.50048
 N306 N 0.77354 0.88112 0.50052
 C307 C 0.76275 0.84777 0.46246
 N308 N 0.74741 0.84760 0.47692
 C309 C 0.72999 0.83572 0.47456
 C310 C 0.72757 0.82323 0.45722
 C311 C 0.76095 0.83549 0.44488
 C312 C 0.75120 0.85818 0.54257
 C313 C 0.75383 0.84680 0.56046
 C314 C 0.75292 0.81503 0.54055
 C315 C 0.75030 0.82700 0.52301
 N316 N 0.74947 0.84820 0.52431
 H317 H 0.77626 0.85762 0.46437
 H318 H 0.71789 0.83611 0.48614
 H319 H 0.71360 0.81395 0.45545
 H320 H 0.77315 0.83583 0.43337
 H321 H 0.75092 0.87504 0.54315
 H322 H 0.75536 0.85491 0.57489
 H323 H 0.75377 0.79820 0.53934
 H324 H 0.74948 0.81934 0.50834
 C325 C 0.81086 0.90285 0.50366
 C326 C 0.68730 0.90409 0.49642
 C327 C 0.75484 0.82502 0.55944
 C328 C 0.74318 0.82313 0.44222
 C329 C 0.01385 0.27756 0.39314
 H330 H 0.02802 0.26846 0.39339
 C331 C 0.01241 0.29600 0.40432
 H332 H 0.02551 0.30123 0.41332
 C333 C -0.02046 0.28220 0.38066
 H334 H -0.03303 0.27694 0.37110
 C335 C -0.02254 0.30076 0.39161
 H336 H -0.03677 0.30975 0.39064
 N337 N -0.00251 0.27100 0.38178
 C338 C 0.00580 0.20475 0.37476
 H339 H 0.00546 0.20354 0.35833
 C340 C 0.00736 0.18687 0.38651
 H341 H 0.00824 0.17173 0.37914
 C342 C 0.00443 0.22601 0.40451
 H343 H 0.00283 0.24124 0.41142
 C344 C 0.00594 0.20850 0.41687
 H345 H 0.00567 0.21028 0.43330
 Zn346 Zn 0.00137 0.24657 0.36664
 N347 N 0.00455 0.22378 0.38389
 C348 C 0.04185 0.23740 0.35308
 N349 N 0.02529 0.25032 0.35067
 C350 C 0.02627 0.26718 0.33820
 C351 C 0.04456 0.27153 0.32741
 C352 C 0.06034 0.24115 0.34258
 C353 C -0.03957 0.23609 0.36108
 C354 C -0.05788 0.23213 0.35063
 C355 C -0.03925 0.23769 0.31888
 C356 C -0.02119 0.24150 0.32996
 N357 N -0.02187 0.24107 0.35067
 H358 H 0.04098 0.22451 0.36353
 H359 H 0.01296 0.27742 0.33701
 H360 H 0.04544 0.28508 0.31767
 H361 H 0.07358 0.23094 0.34474
 H362 H -0.03945 0.23559 0.37754
 H363 H -0.07210 0.22876 0.35902
 H364 H -0.03891 0.23864 0.30241
 H365 H -0.00680 0.24504 0.32206
 C366 C 0.00739 0.18882 0.40772
 C367 C -0.00593 0.30764 0.40350
 C368 C -0.05772 0.23319 0.32941
 C369 C 0.06171 0.25841 0.32979
 C370 C 0.01729 0.72361 0.11365
 H371 H 0.03100 0.73336 0.11478
 C372 C 0.01806 0.70511 0.10247
 H373 H 0.03238 0.70048 0.09486
 C374 C -0.01821 0.71759 0.12235
 H375 H -0.03219 0.72237 0.13035
 C376 C -0.01811 0.69897 0.11135
 H377 H -0.03207 0.68949 0.11071
 N378 N -0.00075 0.72959 0.12301
 C379 C 0.00233 0.79647 0.12835
 H380 H -0.00045 0.79823 0.14455
 C381 C 0.00423 0.81399 0.11610
 H382 H 0.00296 0.82942 0.12280
 C383 C 0.00668 0.77416 0.09960
 H384 H 0.00714 0.75863 0.09321
 C385 C 0.00865 0.79130 0.08678
 H386 H 0.01079 0.78898 0.07054
 Zn387 Zn -0.00039 0.75468 0.13762
 N388 N 0.00374 0.77709 0.11997
 C389 C 0.03697 0.76725 0.15571
 N390 N 0.02129 0.75301 0.15631
 C391 C 0.02193 0.73619 0.16883
 C392 C 0.03917 0.73298 0.18120
 C393 C 0.05436 0.76470 0.16787
 C394 C -0.04239 0.76277 0.13831
 C395 C -0.06214 0.76592 0.14663
 C396 C -0.04746 0.76223 0.18029
 C397 C -0.02794 0.75917 0.17129
 N398 N -0.02593 0.75910 0.15066
 H399 H 0.03645 0.78015 0.14527
 H400 H 0.00938 0.72493 0.16861
 H401 H 0.04000 0.71923 0.19066
 H402 H 0.06710 0.77576 0.16689
 H403 H -0.04014 0.76291 0.12196
 H404 H -0.07527 0.76833 0.13663
 H405 H -0.04910 0.76177 0.19674
 H406 H -0.01450 0.75665 0.18075
 C407 C 0.00737 0.81131 0.09518
 C408 C 0.00015 0.69281 0.10127
 C409 C -0.06469 0.76543 0.16778
 C410 C 0.05557 0.74728 0.18044
 C411 C 0.51867 0.22277 0.61238
 H412 H 0.53254 0.23228 0.61358
 C413 C 0.51913 0.20437 0.60103
 H414 H 0.53337 0.19957 0.59337
 C415 C 0.48310 0.21723 0.62109
 H416 H 0.46921 0.22216 0.62917
 C417 C 0.48288 0.19872 0.60992
 H418 H 0.46877 0.18947 0.60923
 N419 N 0.50076 0.22894 0.62184
 C420 C 0.50495 0.29569 0.62787
 H421 H 0.50229 0.29730 0.64411
 C422 C 0.50696 0.31332 0.61580
 H423 H 0.50587 0.32869 0.62268
 C424 C 0.50884 0.27365 0.59887
 H425 H 0.50904 0.25819 0.59231
 C426 C 0.51089 0.29091 0.58622
 H427 H 0.51284 0.28875 0.56993
 Zn428 Zn 0.50155 0.25386 0.63670
 N429 N 0.50605 0.27638 0.61928
 C430 C 0.53912 0.26560 0.65487
 N431 N 0.52320 0.25163 0.65537
 C432 C 0.52351 0.23475 0.66783
 C433 C 0.54061 0.23125 0.68031
 C434 C 0.55638 0.26276 0.66713
 C435 C 0.45970 0.26267 0.63749
 C436 C 0.44004 0.26618 0.64585
 C437 C 0.45465 0.26203 0.67945
 C438 C 0.47411 0.25861 0.67043
 N439 N 0.47610 0.25861 0.64979
 H440 H 0.53885 0.27855 0.64446
 H441 H 0.51077 0.22371 0.66753
 H442 H 0.54116 0.21749 0.68978
 H443 H 0.56928 0.27364 0.66627
 H444 H 0.46193 0.26285 0.62113
 H445 H 0.42690 0.26890 0.63598
 H446 H 0.45292 0.26153 0.69588
 H447 H 0.48750 0.25578 0.67987
 C448 C 0.50987 0.31084 0.59483
 C449 C 0.50103 0.19237 0.59976
 C450 C 0.43752 0.26566 0.66698
 C451 C 0.55722 0.24531 0.67970
 C452 C 0.51345 0.77847 0.89175
 H453 H 0.52760 0.76933 0.89217
 C454 C 0.51201 0.79702 0.90275
 H455 H 0.52506 0.80230 0.91177
 C456 C 0.47921 0.78305 0.87909
 H457 H 0.46665 0.77770 0.86955
 C458 C 0.47712 0.80172 0.88986
 H459 H 0.46290 0.81071 0.88877
 N460 N 0.49711 0.77181 0.88041
 C461 C 0.50516 0.70543 0.87455
 H462 H 0.50493 0.70392 0.85813
 C463 C 0.50657 0.68778 0.88663
 H464 H 0.50747 0.67248 0.87958
 C465 C 0.50365 0.72723 0.90392
 H466 H 0.50205 0.74259 0.91055
 C467 C 0.50502 0.70994 0.91658
 H468 H 0.50465 0.71196 0.93298
 Zn469 Zn 0.50098 0.74712 0.86567
 N470 N 0.50392 0.72463 0.88333
 C471 C 0.54153 0.73757 0.85256
 N472 N 0.52504 0.75051 0.84983
 C473 C 0.52622 0.76722 0.83719
 C474 C 0.54467 0.77142 0.82659
 C475 C 0.56017 0.74117 0.84227
 C476 C 0.46006 0.73671 0.86000
 C477 C 0.44179 0.73271 0.84951
 C478 C 0.46062 0.73781 0.81779
 C479 C 0.47863 0.74166 0.82892
 N480 N 0.47784 0.74148 0.84963
 H481 H 0.54049 0.72480 0.86315
 H482 H 0.51296 0.77749 0.83574
 H483 H 0.54572 0.78488 0.81674
 H484 H 0.57336 0.73097 0.84471
 H485 H 0.46009 0.73642 0.87648
 H486 H 0.42751 0.72952 0.85786
 H487 H 0.46105 0.73856 0.80131
 H488 H 0.49308 0.74506 0.82105
 C489 C 0.50648 0.69012 0.90778
 C490 C 0.49368 0.80867 0.90176
 C491 C 0.44207 0.73352 0.82827
 C492 C 0.56176 0.75830 0.82934
 C493 C -0.23389 0.66698 0.97275
 H494 H -0.22170 0.66807 0.98398
 C495 C -0.23323 0.67972 0.95550
 H496 H -0.22048 0.69058 0.95339
 C497 C -0.26540 0.65155 0.96166
 H498 H -0.27785 0.64046 0.96391
 C499 C -0.26533 0.66395 0.94425
 H500 H -0.27776 0.66238 0.93329
 N501 N -0.25005 0.65353 0.97573
 C502 C -0.25694 0.64641 1.04169
 H503 H -0.25802 0.62961 1.04269
 C504 C -0.25754 0.65856 1.05942
 H505 H -0.25916 0.65106 1.07410
 C506 C -0.25310 0.67664 1.02138
 H507 H -0.25145 0.68368 1.00656
 C508 C -0.25363 0.68939 1.03874
 H509 H -0.25223 0.70614 1.03716
 Zn510 Zn -0.25138 0.63749 1.00012
 N511 N -0.25423 0.65551 1.02317
 C512 C -0.21348 0.62557 1.01875
 N513 N -0.22606 0.62182 1.00251
 C514 C -0.22026 0.60800 0.98767
 C515 C -0.20139 0.59708 0.98907
 C516 C -0.19457 0.61502 1.02072
 C517 C -0.29424 0.62997 1.00049
 C518 C -0.31284 0.61878 0.99879
 C519 C -0.29279 0.58708 0.99553
 C520 C -0.27449 0.59890 0.99731
 N521 N -0.27552 0.62003 0.99938
 H522 H -0.21784 0.63701 1.03011
 H523 H -0.23021 0.60557 0.97466
 H524 H -0.19691 0.58615 0.97718
 H525 H -0.18473 0.61825 1.03369
 H526 H -0.29468 0.64675 1.00226
 H527 H -0.32760 0.62696 0.99935
 H528 H -0.29183 0.57033 0.99357
 H529 H -0.25954 0.59120 0.99672
 C530 C -0.25558 0.68025 1.05797
 C531 C -0.24925 0.67833 0.94121
 C532 C -0.31217 0.59715 0.99606
 C533 C -0.18840 0.60062 1.00579
 C534 C -0.23527 0.33344 0.52938
 H535 H -0.22237 0.33227 0.51870
 C536 C -0.23562 0.32159 0.54615
 H537 H -0.22297 0.31085 0.54901
 C538 C -0.26752 0.34981 0.53826
 H539 H -0.27984 0.36080 0.53538
 C540 C -0.26852 0.33714 0.55693
 H541 H -0.28164 0.33905 0.56731
 N542 N -0.25212 0.34762 0.52532
 C543 C -0.25503 0.35409 0.45904
 H544 H -0.25649 0.37085 0.45794
 C545 C -0.25425 0.34189 0.44134
 H546 H -0.25520 0.34927 0.42658
 C547 C -0.25154 0.32403 0.47956
 H548 H -0.25052 0.31708 0.49445
 C549 C -0.25069 0.31125 0.46222
 H550 H -0.24891 0.29455 0.46385
 Zn551 Zn -0.25198 0.36333 0.50068
 N552 N -0.25317 0.34511 0.47767
 C553 C -0.21326 0.37573 0.48335
 N554 N -0.22674 0.37928 0.49916
 C555 C -0.22202 0.39335 0.51407
 C556 C -0.20340 0.40480 0.51310
 C557 C -0.19456 0.38680 0.48182
 C558 C -0.29484 0.37067 0.49853
 C559 C -0.31352 0.38183 0.49963
 C560 C -0.29364 0.41360 0.50333
 C561 C -0.27528 0.40180 0.50216
 N562 N -0.27620 0.38066 0.50021
 H563 H -0.21677 0.36411 0.47195
 H564 H -0.23269 0.39564 0.52673
 H565 H -0.19982 0.41598 0.52499
 H566 H -0.18403 0.38377 0.46915
 H567 H -0.29518 0.35388 0.49686
 H568 H -0.32822 0.37357 0.49868
 H569 H -0.29272 0.43036 0.50527
 H570 H -0.26038 0.40953 0.50318
 C571 C -0.25175 0.32030 0.44292
 C572 C -0.25334 0.32339 0.56066
 C573 C -0.31298 0.40349 0.50231
 C574 C -0.18956 0.40153 0.49676
 C575 C 0.26452 -0.16588 0.02866
 H576 H 0.27744 -0.16709 0.01800
 C577 C 0.26410 -0.17773 0.04544
 H578 H 0.27670 -0.18850 0.04833
 C579 C 0.23231 -0.14940 0.03748
 H580 H 0.22003 -0.13837 0.03458
 C581 C 0.23123 -0.16206 0.05615
 H582 H 0.21810 -0.16011 0.06650
 N583 N 0.24772 -0.15165 0.02457
 C584 C 0.24489 -0.14513 -0.04172
 H585 H 0.24342 -0.12837 -0.04279
 C586 C 0.24567 -0.15730 -0.05943
 H587 H 0.24471 -0.14990 -0.07418
 C588 C 0.24839 -0.17522 -0.02123
 H589 H 0.24941 -0.18218 -0.00635
 C590 C 0.24924 -0.18798 -0.03859
 H591 H 0.25103 -0.20468 -0.03698
 Zn592 Zn 0.24791 -0.13593 -0.00007
 N593 N 0.24675 -0.15413 -0.02310
 C594 C 0.28664 -0.12350 -0.01736
 N595 N 0.27314 -0.11996 -0.00155
 C596 C 0.27784 -0.10590 0.01336
 C597 C 0.29645 -0.09443 0.01240
 C598 C 0.30532 -0.11241 -0.01888
 C599 C 0.20506 -0.12867 -0.00232
 C600 C 0.18635 -0.11757 -0.00115
 C601 C 0.20613 -0.08577 0.00278
 C602 C 0.22453 -0.09751 0.00153
 N603 N 0.22367 -0.11864 -0.00056
 H604 H 0.28314 -0.13511 -0.02877
 H605 H 0.26716 -0.10363 0.02603
 H606 H 0.30002 -0.08326 0.02431
 H607 H 0.31586 -0.11543 -0.03155
 H608 H 0.20478 -0.14545 -0.00408
 H609 H 0.17168 -0.12587 -0.00215
 H610 H 0.20700 -0.06902 0.00485
 H611 H 0.23941 -0.08974 0.00263
 C612 C 0.24817 -0.17890 -0.05787
 C613 C 0.24635 -0.17586 0.05991
 C614 C 0.18683 -0.09593 0.00169
 C615 C 0.31031 -0.09769 -0.00393
 C616 C 0.26612 1.16636 0.47161
 H617 H 0.27835 1.16749 0.48279
 C618 C 0.26669 1.17907 0.45433
 H619 H 0.27943 1.18994 0.45216
 C620 C 0.23456 1.15090 0.46068
 H621 H 0.22213 1.13981 0.46300
 C622 C 0.23455 1.16326 0.44324
 H623 H 0.22207 1.16167 0.43234
 N624 N 0.24997 1.15291 0.47468
 C625 C 0.24331 1.14622 0.54070
 H626 H 0.24228 1.12943 0.54184
 C627 C 0.24275 1.15852 0.55833
 H628 H 0.24122 1.15119 0.57310
 C629 C 0.24697 1.17630 0.52014
 H630 H 0.24853 1.18323 0.50527
 C631 C 0.24647 1.18918 0.53741
 H632 H 0.24781 1.20592 0.53575
 Zn633 Zn 0.24872 1.13701 0.49915
 N634 N 0.24591 1.15518 0.52210
 C635 C 0.28668 1.12521 0.51775
 N636 N 0.27405 1.12137 0.50157
 C637 C 0.27980 1.10744 0.48680
 C638 C 0.29866 1.09651 0.48823
 C639 C 0.30558 1.11465 0.51975
 C640 C 0.20585 1.12945 0.49966
 C641 C 0.18727 1.11822 0.49808
 C642 C 0.20735 1.08652 0.49500
 C643 C 0.22564 1.09838 0.49666
 N644 N 0.22458 1.11952 0.49858
 H645 H 0.28236 1.13673 0.52905
 H646 H 0.26981 1.10494 0.47383
 H647 H 0.30309 1.08550 0.47640
 H648 H 0.31545 1.11795 0.53267
 H649 H 0.20540 1.14624 0.50132
 H650 H 0.17250 1.12639 0.49862
 H651 H 0.20833 1.06976 0.49316
 H652 H 0.24060 1.09069 0.49609
 C653 C 0.24464 1.18018 0.55670
 C654 C 0.25062 1.17765 0.44012
 C655 C 0.18797 1.09657 0.49550
 C656 C 0.31168 1.10014 0.50490
 C657 C 0.14402 0.47255 0.26558
 H658 H 0.14424 0.48422 0.27754
 C659 C 0.15558 0.45419 0.26764
 H660 H 0.16487 0.45184 0.28113
 C661 C 0.13102 0.46096 0.23380
 H662 H 0.12103 0.46338 0.22087
 C663 C 0.14235 0.44237 0.23527
 H664 H 0.14123 0.43071 0.22332
 N665 N 0.13200 0.47560 0.24887
 C666 C 0.11958 0.54300 0.24729
 H667 H 0.10274 0.54258 0.24707
 C668 C 0.12999 0.56210 0.24582
 H669 H 0.12113 0.57640 0.24464
 C670 C 0.15170 0.52485 0.24853
 H671 H 0.16010 0.51028 0.24920
 C672 C 0.16274 0.54366 0.24708
 H673 H 0.17962 0.54351 0.24687
 Zn674 Zn 0.11456 0.49972 0.24865
 N675 N 0.13047 0.52486 0.24867
 C676 C 0.09729 0.51336 0.28679
 N677 N 0.09724 0.49812 0.27226
 C678 C 0.08555 0.48055 0.27462
 C679 C 0.07317 0.47786 0.29205
 C680 C 0.08512 0.51127 0.30446
 C681 C 0.10801 0.50249 0.20656
 C682 C 0.09672 0.50504 0.18863
 C683 C 0.06484 0.50349 0.20847
 C684 C 0.07676 0.50096 0.22604
 N685 N 0.09795 0.50049 0.22479
 H686 H 0.10699 0.52699 0.28488
 H687 H 0.08603 0.46854 0.26299
 H688 H 0.06406 0.46376 0.29383
 H689 H 0.08539 0.52339 0.31602
 H690 H 0.12486 0.50248 0.20602
 H691 H 0.10499 0.50676 0.17426
 H692 H 0.04799 0.50403 0.20973
 H693 H 0.06903 0.49991 0.24068
 C694 C 0.15179 0.56248 0.24563
 C695 C 0.15464 0.43885 0.25242
 C696 C 0.07491 0.50568 0.18957
 C697 C 0.07298 0.49334 0.30715
 C698 C -0.14340 1.02580 0.26699
 H699 H -0.14402 1.01435 0.27902
 C700 C -0.15462 1.04441 0.26900
 H701 H -0.16404 1.04720 0.28252
 C702 C -0.12974 1.03654 0.23506
 H703 H -0.11961 1.03369 0.22211
 C704 C -0.14071 1.05536 0.23647
 H705 H -0.13919 1.06678 0.22446
 N706 N -0.13124 1.02220 0.25023
 C707 C -0.12059 0.95456 0.24886
 H708 H -0.10373 0.95442 0.24875
 C709 C -0.13160 0.93581 0.24727
 H710 H -0.12319 0.92120 0.24613
 C711 C -0.15211 0.97379 0.24983
 H712 H -0.16004 0.98864 0.25039
 C713 C -0.16374 0.95536 0.24825
 H714 H -0.18059 0.95609 0.24786
 Zn715 Zn -0.11436 0.99776 0.24999
 N716 N -0.13091 0.97307 0.25013
 C717 C -0.09784 0.98454 0.28815
 N718 N -0.09733 0.99945 0.27348
 C719 C -0.08548 1.01693 0.27566
 C720 C -0.07344 1.01990 0.29307
 C721 C -0.08602 0.98691 0.30582
 C722 C -0.10756 0.99435 0.20793
 C723 C -0.09621 0.99195 0.18980
 C724 C -0.06440 0.99363 0.20915
 C725 C -0.07637 0.99601 0.22694
 N726 N -0.09756 0.99642 0.22602
 H727 H -0.10768 0.97099 0.28637
 H728 H -0.08561 1.02870 0.26392
 H729 H -0.06422 1.03395 0.29473
 H730 H -0.08668 0.97508 0.31752
 H731 H -0.12441 0.99435 0.20765
 H732 H -0.10439 0.99028 0.17551
 H733 H -0.04756 0.99325 0.21007
 H734 H -0.06870 0.99715 0.24148
 C735 C -0.15338 0.93618 0.24686
 C736 C -0.15316 1.05942 0.25367
 C737 C -0.07442 0.99151 0.19039
 C738 C -0.07376 1.00479 0.30834
 C739 C 0.35567 0.52659 -0.23279
 H740 H 0.35496 0.51524 -0.22068
 C741 C 0.34449 0.54525 -0.23097
 H742 H 0.33502 0.54817 -0.21751
 C743 C 0.36952 0.53706 -0.26474
 H744 H 0.37970 0.53409 -0.27762
 C745 C 0.35860 0.55592 -0.26351
 H746 H 0.36022 0.56724 -0.27560
 N747 N 0.36790 0.52284 -0.24947
 C748 C 0.37914 0.45410 -0.25044
 H749 H 0.39599 0.45401 -0.25017
 C750 C 0.36864 0.43613 -0.25216
 H751 H 0.37706 0.42152 -0.25318
 C752 C 0.34788 0.47431 -0.24974
 H753 H 0.33991 0.48914 -0.24950
 C754 C 0.33564 0.45480 -0.25150
 H755 H 0.31879 0.45564 -0.25202
 Zn756 Zn 0.38473 0.49836 -0.24946
 N757 N 0.36818 0.47367 -0.24924
 C758 C 0.40116 0.48531 -0.21121
 N759 N 0.40167 0.50018 -0.22592
 C760 C 0.41348 0.51768 -0.22378
 C761 C 0.42552 0.52072 -0.20637
 C762 C 0.41299 0.48774 -0.19355
 C763 C 0.39178 0.49465 -0.29147
 C764 C 0.40325 0.49217 -0.30952
 C765 C 0.43492 0.49398 -0.29000
 C766 C 0.42285 0.49644 -0.27228
 N767 N 0.40166 0.49684 -0.27334
 H768 H 0.39136 0.47173 -0.21298
 H769 H 0.41335 0.52941 -0.23555
 H770 H 0.43473 0.53478 -0.20476
 H771 H 0.41235 0.47593 -0.18183
 H772 H 0.37493 0.49464 -0.29186
 H773 H 0.39522 0.49042 -0.32387
 H774 H 0.45176 0.49362 -0.28902
 H775 H 0.43043 0.49767 -0.25771
 C776 C 0.34562 0.43644 -0.25284
 C777 C 0.34608 0.56014 -0.24640
 C778 C 0.42502 0.49177 -0.30879
 C779 C 0.42523 0.50564 -0.19107
 C780 C 0.64640 -0.02761 -0.23288
 H781 H 0.64687 -0.01578 -0.22107
 C782 C 0.65729 -0.04529 -0.23082
 H783 H 0.66665 -0.04766 -0.21739
 C784 C 0.63268 -0.03838 -0.26495
 H785 H 0.62252 -0.03607 -0.27776
 C786 C 0.64458 -0.05808 -0.26339
 H787 H 0.64330 -0.06967 -0.27540
 N788 N 0.63369 -0.02434 -0.25054
 C789 C 0.62133 0.04305 -0.25206
 H790 H 0.60448 0.04266 -0.25227
 C791 C 0.63177 0.06213 -0.25354
 H792 H 0.62288 0.07642 -0.25473
 C793 C 0.65341 0.02483 -0.25081
 H794 H 0.66177 0.01024 -0.25013
 C795 C 0.66450 0.04362 -0.25228
 H796 H 0.68138 0.04337 -0.25249
 Zn797 Zn 0.61625 -0.00022 -0.25069
 N798 N 0.63219 0.02489 -0.25067
 C799 C 0.59893 0.01345 -0.21257
 N800 N 0.59896 -0.00184 -0.22706
 C801 C 0.58730 -0.01941 -0.22470
 C802 C 0.57480 -0.02205 -0.20734
 C803 C 0.58664 0.01142 -0.19498
 C804 C 0.60952 0.00266 -0.29276
 C805 C 0.59812 0.00521 -0.31062
 C806 C 0.56637 0.00360 -0.29064
 C807 C 0.57836 0.00107 -0.27314
 N808 N 0.59955 0.00061 -0.27449
 H809 H 0.60862 0.02709 -0.21449
 H810 H 0.58783 -0.03146 -0.23630
 H811 H 0.56566 -0.03614 -0.20558
 H812 H 0.58682 0.02359 -0.18347
 H813 H 0.62636 0.00267 -0.29339
 H814 H 0.60622 0.00698 -0.32506
 H815 H 0.54954 0.00413 -0.28940
 H816 H 0.57070 -0.00002 -0.25846
 C817 C 0.65358 0.06247 -0.25375
 C818 C 0.65624 -0.06154 -0.24688
 C819 C 0.57634 0.00582 -0.30955
 C820 C 0.57448 -0.00650 -0.19232
 C821 C 0.02844 0.26510 0.86092
 H822 H 0.01888 0.27896 0.86028
 C823 C 0.04734 0.26431 0.85041
 H824 H 0.05247 0.27757 0.84152
 C825 C 0.03360 0.23084 0.87349
 H826 H 0.02829 0.21799 0.88274
 C827 C 0.05263 0.22940 0.86320
 H828 H 0.06192 0.21537 0.86435
 N829 N 0.02187 0.24841 0.87191
 C830 C -0.04491 0.25375 0.87470
 H831 H -0.04726 0.25331 0.89104
 C832 C -0.06195 0.25456 0.86183
 H833 H -0.07759 0.25481 0.86817
 C834 C -0.02162 0.25338 0.84636
 H835 H -0.00590 0.25246 0.84043
 C836 C -0.03826 0.25417 0.83291
 H837 H -0.03539 0.25407 0.81662
 Zn838 Zn -0.00366 0.25114 0.88552
 N839 N -0.02527 0.25337 0.86681
 C840 C -0.01547 0.29117 0.89845
 N841 N -0.00207 0.27514 0.90165
 C842 C 0.01395 0.27682 0.91498
 C843 C 0.01705 0.29536 0.92572
 C844 C -0.01297 0.30991 0.90888
 C845 C -0.01281 0.20977 0.89038
 C846 C -0.01677 0.19122 0.90051
 C847 C -0.01401 0.20978 0.93260
 C848 C -0.01016 0.22808 0.92182
 N849 N -0.00922 0.22756 0.90112
 H850 H -0.02768 0.28976 0.88735
 H851 H 0.02461 0.26392 0.91681
 H852 H 0.03005 0.29685 0.93603
 H853 H -0.02344 0.32278 0.90599
 H854 H -0.01223 0.21002 0.87391
 H855 H -0.01906 0.17696 0.89189
 H856 H -0.01419 0.21000 0.94911
 H857 H -0.00768 0.24253 0.92996
 C858 C -0.05853 0.25476 0.84080
 C859 C 0.05943 0.24627 0.85153
 C860 C -0.01714 0.19123 0.92177
 C861 C 0.00353 0.31204 0.92242
 C862 C 0.47366 0.26502 0.14150
 H863 H 0.48288 0.27913 0.14099
 C864 C 0.45511 0.26455 0.15263
 H865 H 0.44991 0.27834 0.16083
 C866 C 0.46889 0.22982 0.13105
 H867 H 0.47414 0.21648 0.12232
 C868 C 0.45023 0.22870 0.14198
 H869 H 0.44118 0.21443 0.14183
 N870 N 0.48023 0.24775 0.13120
 C871 C 0.54668 0.25461 0.12455
 H872 H 0.54816 0.25297 0.10819
 C873 C 0.56438 0.25659 0.13645
 H874 H 0.57967 0.25650 0.12931
 C875 C 0.52493 0.25595 0.15402
 H876 H 0.50957 0.25518 0.16080
 C877 C 0.54226 0.25793 0.16651
 H878 H 0.54027 0.25884 0.18289
 Zn879 Zn 0.50495 0.25012 0.11617
 N880 N 0.52749 0.25445 0.13347
 C881 C 0.51505 0.28913 0.09979
 N882 N 0.50178 0.27266 0.09859
 C883 C 0.48498 0.27284 0.08611
 C884 C 0.48095 0.29025 0.07416
 C885 C 0.51164 0.30675 0.08809
 C886 C 0.51488 0.20857 0.11326
 C887 C 0.51864 0.18942 0.10393
 C888 C 0.51394 0.20574 0.07113
 C889 C 0.51029 0.22466 0.08110
 N890 N 0.51038 0.22554 0.10180
 H891 H 0.52792 0.28893 0.11024
 H892 H 0.47447 0.25964 0.08586
 H893 H 0.46735 0.29058 0.06451
 H894 H 0.52205 0.32000 0.08938
 H895 H 0.51513 0.20993 0.12969
 H896 H 0.52161 0.17580 0.11314
 H897 H 0.51326 0.20487 0.05466
 H898 H 0.50713 0.23848 0.07234
 C899 C 0.56209 0.25818 0.15756
 C900 C 0.44338 0.24622 0.15285
 C901 C 0.51791 0.18801 0.08272
 C902 C 0.49437 0.30735 0.07536
 C903 C -0.02718 0.76575 0.64264
 H904 H -0.01792 0.77984 0.64203
 C905 C -0.04480 0.76531 0.65355
 H906 H -0.04990 0.77907 0.66185
 C907 C -0.03127 0.73035 0.63161
 H908 H -0.02622 0.71704 0.62274
 C909 C -0.05080 0.72914 0.64345
 H910 H -0.05977 0.71480 0.64333
 N911 N -0.02041 0.74751 0.63162
 C912 C 0.04589 0.75468 0.62407
 H913 H 0.04718 0.75312 0.60769
 C914 C 0.06372 0.75676 0.63577
 H915 H 0.07892 0.75681 0.62845
 C916 C 0.02449 0.75577 0.65379
 H917 H 0.00920 0.75489 0.66073
 C918 C 0.04195 0.75784 0.66608
 H919 H 0.04015 0.75871 0.68248
 Zn920 Zn 0.00404 0.75009 0.61620
 N921 N 0.02680 0.75437 0.63321
 C922 C 0.01372 0.78930 0.60012
 N923 N 0.00049 0.77280 0.59893
 C924 C -0.01651 0.77307 0.58669
 C925 C -0.02076 0.79060 0.57497
 C926 C 0.01009 0.80704 0.58865
 C927 C 0.01417 0.70863 0.61272
 C928 C 0.01791 0.68960 0.60315
 C929 C 0.01252 0.70622 0.57060
 C930 C 0.00891 0.72500 0.58081
 N931 N 0.00936 0.72568 0.60151
 H932 H 0.02674 0.78904 0.61038
 H933 H -0.02697 0.75984 0.58644
 H934 H -0.03448 0.79097 0.56549
 H935 H 0.02049 0.82029 0.58992
 H936 H 0.01470 0.70982 0.62915
 H937 H 0.02114 0.67591 0.61217
 H938 H 0.01157 0.70550 0.55414
 H939 H 0.00551 0.73889 0.57224
 C940 C 0.06167 0.75828 0.65691
 C941 C -0.05723 0.74595 0.65394
 C942 C 0.01683 0.68840 0.58195
 C943 C -0.00736 0.80771 0.57615
 C944 C 0.52767 0.76423 0.36033
 H945 H 0.51816 0.77812 0.35963
 C946 C 0.54668 0.76341 0.35001
 H947 H 0.55193 0.77668 0.34120
 C948 C 0.53262 0.72994 0.37290
 H949 H 0.52719 0.71710 0.38209
 C950 C 0.55175 0.72848 0.36280
 H951 H 0.56100 0.71442 0.36403
 N952 N 0.52095 0.74755 0.37125
 C953 C 0.45418 0.75320 0.37373
 H954 H 0.45176 0.75271 0.39005
 C955 C 0.43720 0.75417 0.36079
 H956 H 0.42153 0.75447 0.36707
 C957 C 0.47759 0.75284 0.34548
 H958 H 0.49333 0.75188 0.33962
 C959 C 0.46101 0.75378 0.33196
 H960 H 0.46395 0.75373 0.31568
 Zn961 Zn 0.49535 0.75035 0.38472
 N962 N 0.47385 0.75276 0.36592
 C963 C 0.48366 0.79038 0.39781
 N964 N 0.49698 0.77428 0.40096
 C965 C 0.51295 0.77580 0.41437
 C966 C 0.51606 0.79425 0.42525
 C967 C 0.48618 0.80903 0.40838
 C968 C 0.48603 0.70898 0.38944
 C969 C 0.48206 0.69040 0.39953
 C970 C 0.48473 0.70889 0.43166
 C971 C 0.48860 0.72721 0.42092
 N972 N 0.48961 0.72674 0.40022
 H973 H 0.47149 0.78908 0.38665
 H974 H 0.52355 0.76285 0.41616
 H975 H 0.52902 0.79561 0.43563
 H976 H 0.47576 0.82197 0.40554
 H977 H 0.48667 0.70925 0.37297
 H978 H 0.47982 0.67615 0.39087
 H979 H 0.48454 0.70908 0.44816
 H980 H 0.49106 0.74165 0.42910
 C981 C 0.44071 0.75444 0.33977
 C982 C 0.55872 0.74535 0.35123
 C983 C 0.48166 0.69036 0.42078
 C984 C 0.50262 0.81100 0.42202
 Zr985 Zr 0.01562 -0.01814 1.02629
 O986 O 0.03582 -0.00685 1.04916
 O987 O 0.01335 -0.04976 1.03365
 O988 O 0.00179 -0.01990 1.05568
 O989 O 0.05417 -0.02323 0.98915
 O990 O -0.03012 -0.00476 1.05170
 O991 O 0.04635 -0.02973 1.02255
 O992 O -0.00966 -0.06272 1.01043
 O993 O -0.01584 -0.02461 1.02072
 O994 O 0.01441 -0.03205 0.99742
 O995 O 0.00023 0.01077 1.02816
 O996 O 0.02968 0.00337 1.00616
 Zr997 Zr -0.01980 0.01215 0.97196
 Zr998 Zr -0.03089 0.00435 1.02104
 Zr999 Zr 0.02675 -0.01031 0.97720
 Zr1000 Zr -0.01688 -0.03741 0.99145
 O1001 O 0.05253 0.00855 0.96902
 O1002 O -0.04543 -0.04933 1.00301
 O1003 O -0.00435 -0.01684 0.96977
 O1004 O -0.03349 -0.00934 0.99214
 O1005 O -0.01869 0.02628 1.00076
 O1006 O 0.01161 0.01846 0.97769
 C1007 C 0.00246 -0.06447 1.02578
 C1008 C 0.05871 -0.03007 1.00694
 C1009 C -0.01611 -0.01370 1.06242
 O1010 O -0.05801 -0.01335 1.02726
 O1011 O -0.05697 0.02043 1.00989
 O1012 O -0.04968 0.02559 0.97616
 C1013 C -0.06143 0.02735 0.99212
 O1014 O 0.03530 0.03581 1.02991
 Zr1015 Zr 0.01275 0.03141 1.00677
 O1016 O -0.01811 0.04392 0.96498
 O1017 O -0.03683 0.03052 1.04001
 O1018 O 0.00060 0.05377 1.02763
 O1019 O 0.03975 0.04545 0.99397
 O1020 O 0.00254 0.05729 0.99004
 C1021 C -0.00920 0.05902 0.97441
 O1022 O -0.04111 0.00111 0.94995
 O1023 O 0.03428 -0.03739 0.96008
 O1024 O -0.00688 0.01201 0.94213
 O1025 O 0.02444 -0.00440 0.94588
 O1026 O -0.00414 -0.06131 0.97267
 O1027 O -0.03635 -0.04276 0.96593
 C1028 C 0.01037 0.00439 0.93513
 H1029 H 0.02237 -0.04523 0.99647
 H1030 H -0.04822 -0.01203 0.98862
 H1031 H 0.01788 0.02803 0.96756
 H1032 H 0.00152 0.01696 1.04194
 H1033 H -0.04568 -0.06450 1.00006
 H1034 H -0.06634 -0.00529 1.03736
 H1035 H -0.05050 0.02809 1.04673
 H1036 H 0.00803 0.06708 1.02518
 H1037 H -0.01215 -0.07423 0.97539
 H1038 H 0.04787 -0.03471 0.95329
 H1039 H 0.06090 0.00043 0.95899
 H1040 H 0.03932 0.06046 0.99759
 H1041 H -0.04203 -0.05710 0.96652
 H1042 H -0.04487 0.01313 0.94128
 H1043 H 0.03971 -0.01892 1.05772
 H1044 H 0.03864 0.05083 1.03118
 Zr1045 Zr 0.51600 0.48175 0.52630
 O1046 O 0.53619 0.49329 0.54907
 O1047 O 0.51391 0.45017 0.53385
 O1048 O 0.50222 0.48009 0.55572
 O1049 O 0.55450 0.47650 0.48913
 O1050 O 0.47024 0.49508 0.55170
 O1051 O 0.54676 0.47022 0.52259
 O1052 O 0.49092 0.43695 0.51074
 O1053 O 0.48455 0.47512 0.52084
 O1054 O 0.51479 0.46765 0.49753
 O1055 O 0.50050 0.51060 0.52802
 O1056 O 0.52995 0.50317 0.50601
 Zr1057 Zr 0.48038 0.51153 0.47185
 Zr1058 Zr 0.46940 0.50402 0.52100
 Zr1059 Zr 0.52702 0.48929 0.47715
 Zr1060 Zr 0.48350 0.46212 0.49166
 O1061 O 0.55272 0.50819 0.46883
 O1062 O 0.45505 0.45016 0.50339
 O1063 O 0.49593 0.48258 0.46982
 O1064 O 0.46680 0.49013 0.49219
 O1065 O 0.48148 0.52586 0.50056
 O1066 O 0.51177 0.51800 0.47748
 C1067 C 0.50311 0.43535 0.52606
 C1068 C 0.55908 0.46980 0.50696
 C1069 C 0.48429 0.48624 0.56244
 O1070 O 0.44232 0.48629 0.52735
 O1071 O 0.44326 0.51998 0.50979
 O1072 O 0.45048 0.52493 0.47602
 C1073 C 0.43875 0.52677 0.49199
 O1074 O 0.53549 0.53579 0.52955
 Zr1075 Zr 0.51291 0.53115 0.50648
 O1076 O 0.48194 0.54325 0.46465
 O1077 O 0.46341 0.53027 0.53984
 O1078 O 0.50072 0.55360 0.52722
 O1079 O 0.53983 0.54522 0.49354
 O1080 O 0.50255 0.55688 0.48960
 C1081 C 0.49078 0.55845 0.47398
 O1082 O 0.45905 0.50025 0.44997
 O1083 O 0.53463 0.46214 0.46017
 O1084 O 0.49323 0.51123 0.44200
 O1085 O 0.52463 0.49499 0.44580
 O1086 O 0.49627 0.43816 0.47297
 O1087 O 0.46398 0.45653 0.46623
 C1088 C 0.51049 0.50365 0.43502
 H1089 H 0.52279 0.45449 0.49663
 H1090 H 0.45207 0.48737 0.48872
 H1091 H 0.51798 0.52752 0.46728
 H1092 H 0.50180 0.51689 0.54176
 H1093 H 0.45486 0.43497 0.50055
 H1094 H 0.43400 0.49439 0.53742
 H1095 H 0.44976 0.52785 0.54660
 H1096 H 0.50809 0.56692 0.52467
 H1097 H 0.48831 0.42523 0.47578
 H1098 H 0.54819 0.46483 0.45334
 H1099 H 0.56110 0.50005 0.45884
 H1100 H 0.53934 0.56025 0.49706
 H1101 H 0.45832 0.44218 0.46695
 H1102 H 0.45523 0.51219 0.44122
 H1103 H 0.54015 0.48130 0.55770
 H1104 H 0.53878 0.55084 0.53071
 Zr1105 Zr 0.48464 1.02205 0.52793
 O1106 O 0.46379 1.01152 0.55085
 O1107 O 0.48871 1.05332 0.53626
 O1108 O 0.49845 1.02256 0.55717
 O1109 O 0.44655 1.02945 0.49144
 O1110 O 0.52962 1.00601 0.55220
 O1111 O 0.45441 1.03506 0.52491
 O1112 O 0.51266 1.06536 0.51319
 O1113 O 0.51641 1.02700 0.52198
 O1114 O 0.48665 1.03637 0.49943
 O1115 O 0.49860 0.99240 0.52880
 O1116 O 0.46968 1.00158 0.50743
 Zr1117 Zr 0.51878 0.99083 0.47220
 Zr1118 Zr 0.53002 0.99736 0.52131
 Zr1119 Zr 0.47341 1.01554 0.47879
 Zr1120 Zr 0.51820 1.04022 0.49305
 O1121 O 0.44670 0.99821 0.47049
 O1122 O 0.54746 1.05046 0.50405
 O1123 O 0.50481 1.02061 0.47100
 O1124 O 0.53339 1.01135 0.49273
 O1125 O 0.51686 0.97634 0.50067
 O1126 O 0.48708 0.98605 0.47834
 C1127 C 0.50068 1.06745 0.52885
 C1128 C 0.44215 1.03611 0.50947
 C1129 C 0.51605 1.01542 0.56341
 O1130 O 0.55791 1.01368 0.52760
 O1131 O 0.55540 0.98034 0.50936
 O1132 O 0.54808 0.97602 0.47561
 C1133 C 0.55969 0.97354 0.49135
 O1134 O 0.46240 0.96908 0.53050
 Zr1135 Zr 0.48518 0.97274 0.50708
 O1136 O 0.51559 0.95926 0.46451
 O1137 O 0.53461 0.97062 0.53945
 O1138 O 0.49622 0.94948 0.52712
 O1139 O 0.45750 0.96030 0.49445
 O1140 O 0.49403 0.94666 0.48946
 C1141 C 0.50576 0.94453 0.47363
 O1142 O 0.54057 1.00116 0.45004
 O1143 O 0.46748 1.04327 0.46251
 O1144 O 0.50578 0.99178 0.44263
 O1145 O 0.47538 1.00980 0.44730
 O1146 O 0.50650 1.06515 0.47544
 O1147 O 0.53774 1.04507 0.46719
 C1148 C 0.48889 1.00025 0.43612
 H1149 H 0.47937 1.04996 0.49903
 H1150 H 0.54824 1.01338 0.48904
 H1151 H 0.48034 0.97694 0.46811
 H1152 H 0.49697 0.98605 0.54243
 H1153 H 0.54847 1.06564 0.50149
 H1154 H 0.56582 1.00508 0.53733
 H1155 H 0.54835 0.97227 0.54604
 H1156 H 0.48816 0.93658 0.52445
 H1157 H 0.51511 1.07761 0.47844
 H1158 H 0.45380 1.04145 0.45586
 H1159 H 0.43881 1.00690 0.46080
 H1160 H 0.45715 0.94522 0.49767
 H1161 H 0.54390 1.05921 0.46789
 H1162 H 0.54376 0.98908 0.44102
 H1163 H 0.46052 1.02366 0.55976
 H1164 H 0.45840 0.95421 0.53150
 Zr1165 Zr -0.01529 0.52273 1.02855
 O1166 O -0.03618 0.51197 1.05133
 O1167 O -0.01126 0.55392 1.03718
 O1168 O -0.00154 0.52295 1.05783
 O1169 O -0.05332 0.53043 0.99206
 O1170 O 0.02966 0.50648 1.05276
 O1171 O -0.04553 0.53573 1.02559
 O1172 O 0.01273 0.56619 1.01427
 O1173 O 0.01648 0.52777 1.02270
 O1174 O -0.01324 0.53732 1.00018
 O1175 O -0.00130 0.49308 1.02918
 O1176 O -0.03019 0.50244 1.00783
 Zr1177 Zr 0.01898 0.49207 0.97260
 Zr1178 Zr 0.03012 0.49815 1.02179
 Zr1179 Zr -0.02642 0.51667 0.97932
 Zr1180 Zr 0.01831 0.54126 0.99390
 O1181 O -0.05311 0.49940 0.97083
 O1182 O 0.04755 0.55142 1.00502
 O1183 O 0.00498 0.52185 0.97164
 O1184 O 0.03353 0.51241 0.99334
 O1185 O 0.01703 0.47732 1.00094
 O1186 O -0.01272 0.48719 0.97864
 C1187 C 0.00072 0.56813 1.02993
 C1188 C -0.05777 0.53691 1.01014
 C1189 C 0.01606 0.51577 1.06404
 O1190 O 0.05798 0.51444 1.02827
 O1191 O 0.05554 0.48126 1.00972
 O1192 O 0.04829 0.47726 0.97592
 C1193 C 0.05987 0.47464 0.99166
 O1194 O -0.03750 0.46973 1.03059
 Zr1195 Zr -0.01466 0.47361 1.00726
 O1196 O 0.01587 0.46056 0.96464
 O1197 O 0.03472 0.47123 1.03968
 O1198 O -0.00366 0.45018 1.02712
 O1199 O -0.04228 0.46125 0.99445
 O1200 O -0.00572 0.44771 0.98944
 C1201 C 0.00606 0.44574 0.97363
 O1202 O 0.04078 0.50265 0.95057
 O1203 O -0.03233 0.54455 0.96328
 O1204 O 0.00602 0.49324 0.94302
 O1205 O -0.02441 0.51119 0.94779
 O1206 O 0.00660 0.56636 0.97651
 O1207 O 0.03788 0.54638 0.96811
 C1208 C -0.01088 0.50173 0.93655
 H1209 H -0.02054 0.55090 0.99990
 H1210 H 0.04839 0.51449 0.98970
 H1211 H -0.01943 0.47816 0.96832
 H1212 H -0.00296 0.48660 1.04275
 H1213 H 0.04855 0.56662 1.00260
 H1214 H 0.06589 0.50574 1.03794
 H1215 H 0.04844 0.47283 1.04632
 H1216 H -0.01170 0.43730 1.02432
 H1217 H 0.01520 0.57879 0.97965
 H1218 H -0.04600 0.54279 0.95659
 H1219 H -0.06099 0.50818 0.96121
 H1220 H -0.04262 0.44614 0.99754
 H1221 H 0.04401 0.56052 0.96894
 H1222 H 0.04401 0.49067 0.94145
 H1223 H -0.03948 0.52401 1.06035
 H1224 H -0.04150 0.45485 1.03145
 Zr1225 Zr -0.01742 0.48076 0.47234
 O1226 O -0.03818 0.49269 0.45041
 O1227 O -0.01503 0.44949 0.46342
 O1228 O -0.00411 0.48006 0.44264
 O1229 O -0.05509 0.47389 0.51004
 O1230 O 0.02777 0.49532 0.44673
 O1231 O -0.04799 0.46872 0.47620
 O1232 O 0.00871 0.43602 0.48548
 O1233 O 0.01421 0.47445 0.47702
 O1234 O -0.01547 0.46585 0.50052
 O1235 O -0.00231 0.50986 0.47146
 O1236 O -0.03122 0.50139 0.49372
 Zr1237 Zr 0.01889 0.50949 0.52729
 Zr1238 Zr 0.02901 0.50353 0.47770
 Zr1239 Zr -0.02756 0.48674 0.52197
 Zr1240 Zr 0.01599 0.46062 0.50562
 O1241 O -0.05343 0.50494 0.53141
 O1242 O 0.04446 0.44944 0.49309
 O1243 O 0.00375 0.48027 0.52850
 O1244 O 0.03234 0.48886 0.50589
 O1245 O 0.01705 0.52461 0.49919
 O1246 O -0.01269 0.51566 0.52243
 C1247 C -0.00372 0.43467 0.47030
 C1248 C -0.05998 0.46767 0.49205
 C1249 C 0.01367 0.48656 0.43589
 O1250 O 0.05622 0.48640 0.47025
 O1251 O 0.05512 0.51958 0.48902
 O1252 O 0.04855 0.52344 0.52310
 C1253 C 0.05991 0.52593 0.50699
 O1254 O -0.03759 0.53463 0.47151
 Zr1255 Zr -0.01455 0.52961 0.49401
 O1256 O 0.01708 0.54094 0.53575
 O1257 O 0.03426 0.53034 0.45972
 O1258 O -0.00294 0.55280 0.47399
 O1259 O -0.04145 0.54291 0.50788
 O1260 O -0.00428 0.55497 0.51179
 C1261 C 0.00778 0.55626 0.52725
 O1262 O 0.04070 0.49781 0.54836
 O1263 O -0.03432 0.45902 0.53807
 O1264 O 0.00648 0.50844 0.55731
 O1265 O -0.02477 0.49184 0.55347
 O1266 O 0.00380 0.43587 0.52342
 O1267 O 0.03597 0.45452 0.53053
 C1268 C -0.01063 0.50056 0.56430
 H1269 H -0.02328 0.45255 0.50101
 H1270 H 0.04716 0.48622 0.50900
 H1271 H -0.01886 0.52482 0.53307
 H1272 H -0.00393 0.51650 0.45799
 H1273 H 0.04488 0.43418 0.49529
 H1274 H 0.06426 0.49488 0.46035
 H1275 H 0.04783 0.52830 0.45265
 H1276 H -0.01040 0.56596 0.47721
 H1277 H 0.01185 0.42315 0.51989
 H1278 H -0.04780 0.46126 0.54524
 H1279 H -0.06149 0.49641 0.54124
 H1280 H -0.04121 0.55805 0.50494
 H1281 H 0.04170 0.44024 0.52921
 H1282 H 0.04456 0.50955 0.55749
 H1283 H -0.04214 0.48090 0.44139
 H1284 H -0.04099 0.54966 0.47092
 Zr1285 Zr 0.48268 -0.01878 -0.02783
 O1286 O 0.46207 -0.00645 -0.04968
 O1287 O 0.48487 -0.04997 -0.03706
 O1288 O 0.49608 -0.01934 -0.05749
 O1289 O 0.44489 -0.02578 0.00972
 O1290 O 0.52806 -0.00436 -0.05319
 O1291 O 0.45203 -0.03066 -0.02415
 O1292 O 0.50847 -0.06383 -0.01510
 O1293 O 0.51426 -0.02537 -0.02314
 O1294 O 0.48446 -0.03399 0.00020
 O1295 O 0.49801 0.01021 -0.02842
 O1296 O 0.46898 0.00174 -0.00630
 Zr1297 Zr 0.51907 0.00913 0.02746
 Zr1298 Zr 0.52926 0.00359 -0.02215
 Zr1299 Zr 0.47248 -0.01322 0.02182
 Zr1300 Zr 0.51587 -0.03950 0.00533
 O1301 O 0.44671 0.00507 0.03136
 O1302 O 0.54430 -0.05076 -0.00724
 O1303 O 0.50371 -0.01999 0.02836
 O1304 O 0.53242 -0.01138 0.00590
 O1305 O 0.51741 0.02455 -0.00050
 O1306 O 0.48755 0.01558 0.02259
 C1307 C 0.49607 -0.06493 -0.03032
 C1308 C 0.44000 -0.03180 -0.00833
 C1309 C 0.51394 -0.01294 -0.06414
 O1310 O 0.55639 -0.01364 -0.02968
 O1311 O 0.55545 0.01937 -0.01064
 O1312 O 0.54883 0.02292 0.02346
 C1313 C 0.56024 0.02551 0.00739
 O1314 O 0.46292 0.03526 -0.02820
 Zr1315 Zr 0.48586 0.02983 -0.00570
 O1316 O 0.51747 0.04051 0.03623
 O1317 O 0.53474 0.03052 -0.03991
 O1318 O 0.49770 0.05313 -0.02546
 O1319 O 0.45903 0.04320 0.00822
 O1320 O 0.49627 0.05493 0.01236
 C1321 C 0.50830 0.05597 0.02786
 O1322 O 0.54074 -0.00293 0.04846
 O1323 O 0.46549 -0.04105 0.03766
 O1324 O 0.50657 0.00789 0.05744
 O1325 O 0.47521 -0.00843 0.05336
 O1326 O 0.50345 -0.06435 0.02283
 O1327 O 0.53573 -0.04601 0.03023
 C1328 C 0.48939 0.00008 0.06431
 H1329 H 0.47656 -0.04724 0.00055
 H1330 H 0.54722 -0.01416 0.00901
 H1331 H 0.48141 0.02468 0.03329
 H1332 H 0.49648 0.01699 -0.04183
 H1333 H 0.54460 -0.06605 -0.00519
 H1334 H 0.56450 -0.00512 -0.03949
 H1335 H 0.54830 0.02845 -0.04696
 H1336 H 0.49034 0.06632 -0.02213
 H1337 H 0.51141 -0.07710 0.01919
 H1338 H 0.45201 -0.03878 0.04482
 H1339 H 0.43856 -0.00351 0.04110
 H1340 H 0.45938 0.05836 0.00544
 H1341 H 0.54135 -0.06031 0.02878
 H1342 H 0.54468 0.00868 0.05771
 H1343 H 0.45804 -0.01812 -0.05883
 H1344 H 0.45964 0.05033 -0.02866
 Zr1345 Zr 0.51588 0.51796 -0.02775
 O1346 O 0.53606 0.50751 -0.05138
 O1347 O 0.51310 0.54970 -0.03438
 O1348 O 0.50182 0.51998 -0.05678
 O1349 O 0.55470 0.52268 0.00848
 O1350 O 0.47010 0.50439 -0.05222
 O1351 O 0.54653 0.52986 -0.02455
 O1352 O 0.49021 0.56185 -0.01023
 O1353 O 0.48439 0.52392 -0.02119
 O1354 O 0.51477 0.53120 0.00144
 O1355 O 0.50078 0.48891 -0.02979
 O1356 O 0.53033 0.49617 -0.00845
 Zr1357 Zr 0.48125 0.48602 0.02691
 Zr1358 Zr 0.46967 0.49479 -0.02170
 Zr1359 Zr 0.52752 0.50917 0.02086
 Zr1360 Zr 0.48348 0.53604 0.00838
 O1361 O 0.55356 0.49043 0.02794
 O1362 O 0.45469 0.54787 -0.00212
 O1363 O 0.49642 0.51514 0.02927
 O1364 O 0.46718 0.50780 0.00755
 O1365 O 0.48226 0.47255 -0.00222
 O1366 O 0.51268 0.48023 0.02019
 C1367 C 0.50214 0.56410 -0.02587
 C1368 C 0.55902 0.52998 -0.00926
 C1369 C 0.48394 0.51362 -0.06316
 O1370 O 0.44238 0.51238 -0.02691
 O1371 O 0.44379 0.47828 -0.01019
 O1372 O 0.45141 0.47242 0.02321
 C1373 C 0.43952 0.47095 0.00754
 O1374 O 0.53610 0.46433 -0.03299
 Zr1375 Zr 0.51370 0.46795 -0.00918
 O1376 O 0.48331 0.45410 0.03311
 O1377 O 0.46378 0.46890 -0.04094
 O1378 O 0.50164 0.44591 -0.03021
 O1379 O 0.54094 0.45396 0.00262
 O1380 O 0.50388 0.44157 0.00721
 C1381 C 0.49230 0.43933 0.02310
 O1382 O 0.46006 0.49626 0.04976
 O1383 O 0.53491 0.53596 0.03834
 O1384 O 0.49449 0.48570 0.05639
 O1385 O 0.52558 0.50258 0.05210
 O1386 O 0.49616 0.55966 0.02732
 O1387 O 0.46420 0.54058 0.03454
 C1388 C 0.51172 0.49339 0.06306
 H1389 H 0.52259 0.54447 0.00246
 H1390 H 0.45245 0.51025 0.01151
 H1391 H 0.51913 0.47051 0.02995
 H1392 H 0.50203 0.48299 -0.04371
 H1393 H 0.45430 0.56296 0.00118
 H1394 H 0.43403 0.50443 -0.03692
 H1395 H 0.45004 0.47131 -0.04728
 H1396 H 0.50924 0.43264 -0.02825
 H1397 H 0.48799 0.57254 0.02511
 H1398 H 0.54859 0.53331 0.04470
 H1399 H 0.56194 0.49842 0.03791
 H1400 H 0.54065 0.43902 -0.00129
 H1401 H 0.45839 0.55487 0.03443
 H1402 H 0.45652 0.48399 0.05826
 H1403 H 0.53971 0.51983 -0.05976
 H1404 H 0.53963 0.44938 -0.03464
 Zr1405 Zr 0.01601 1.01741 0.47211
 O1406 O 0.03624 1.00652 0.44872
 O1407 O 0.01350 1.04908 0.46508
 O1408 O 0.00211 1.01920 0.44299
 O1409 O 0.05466 1.02236 0.50847
 O1410 O -0.02973 1.00388 0.44757
 O1411 O 0.04670 1.02918 0.47531
 O1412 O -0.00945 1.06167 0.48897
 O1413 O -0.01546 1.02365 0.47843
 O1414 O 0.01483 1.03102 0.50114
 O1415 O 0.00073 0.98844 0.47033
 O1416 O 0.03022 0.99577 0.49173
 Zr1417 Zr -0.01911 0.98638 0.52696
 Zr1418 Zr -0.03039 0.99462 0.47819
 Zr1419 Zr 0.02734 1.00914 0.52088
 Zr1420 Zr -0.01646 1.03614 0.50786
 O1421 O 0.05323 0.99033 0.52828
 O1422 O -0.04511 1.04802 0.49707
 O1423 O -0.00376 1.01543 0.52906
 O1424 O -0.03294 1.00800 0.50727
 O1425 O -0.01804 0.97255 0.49800
 O1426 O 0.01231 0.98030 0.52047
 C1427 C 0.00258 1.06365 0.47336
 C1428 C 0.05911 1.02943 0.49067
 C1429 C -0.01578 1.01291 0.43659
 O1430 O -0.05754 1.01230 0.47267
 O1431 O -0.05640 0.97837 0.48975
 O1432 O -0.04900 0.97289 0.52327
 C1433 C -0.06081 0.97127 0.50755
 O1434 O 0.03592 0.96360 0.46761
 Zr1435 Zr 0.01340 0.96765 0.49125
 O1436 O -0.01733 0.95453 0.53355
 O1437 O -0.03633 0.96856 0.45919
 O1438 O 0.00132 0.94545 0.47040
 O1439 O 0.04046 0.95360 0.50338
 O1440 O 0.00325 0.94155 0.50788
 C1441 C -0.00843 0.93958 0.52374
 O1442 O -0.04035 0.99707 0.54958
 O1443 O 0.03481 1.03609 0.53809
 O1444 O -0.00602 0.98630 0.55651
 O1445 O 0.02522 1.00292 0.55218
 O1446 O -0.00373 1.05992 0.52657
 O1447 O -0.03584 1.04113 0.53386
 C1448 C 0.01125 0.99394 0.56317
 H1449 H 0.02273 1.04424 0.50204
 H1450 H -0.04767 1.01059 0.51113
 H1451 H 0.01864 0.97065 0.53037
 H1452 H 0.00201 0.98235 0.45648
 H1453 H -0.04541 1.06316 0.50018
 H1454 H -0.06590 1.00429 0.46270
 H1455 H -0.05002 0.97098 0.45276
 H1456 H 0.00882 0.93215 0.47256
 H1457 H -0.01180 1.07283 0.52416
 H1458 H 0.04844 1.03343 0.54455
 H1459 H 0.06161 0.99838 0.53819
 H1460 H 0.04006 0.93861 0.49964
 H1461 H -0.04157 1.05545 0.53355
 H1462 H -0.04402 0.98493 0.55821
 H1463 H 0.04002 1.01870 0.44019
 H1464 H 0.03936 0.94861 0.46616
 Zr1465 Zr 0.73372 0.26494 0.22357
 O1466 O 0.74498 0.28507 0.20050
 O1467 O 0.70214 0.26255 0.21631
 O1468 O 0.73207 0.25093 0.19429
 O1469 O 0.72836 0.30369 0.26038
 O1470 O 0.74736 0.21911 0.19851
 O1471 O 0.72199 0.29565 0.22705
 O1472 O 0.68921 0.23962 0.23977
 O1473 O 0.72736 0.23346 0.22941
 O1474 O 0.71977 0.26382 0.25247
 O1475 O 0.76268 0.24967 0.22179
 O1476 O 0.75510 0.27921 0.24356
 Zr1477 Zr 0.76400 0.22993 0.27818
 Zr1478 Zr 0.75637 0.21854 0.22918
 Zr1479 Zr 0.74139 0.27638 0.27256
 Zr1480 Zr 0.71452 0.23252 0.25871
 O1481 O 0.76010 0.30231 0.28049
 O1482 O 0.70274 0.20388 0.24735
 O1483 O 0.73496 0.24528 0.28026
 O1484 O 0.74264 0.21604 0.25813
 O1485 O 0.77819 0.23095 0.24934
 O1486 O 0.77019 0.26136 0.27217
 C1487 C 0.68744 0.25170 0.22435
 C1488 C 0.72155 0.30809 0.24256
 C1489 C 0.73837 0.23301 0.18769
 O1490 O 0.73882 0.19130 0.22321
 O1491 O 0.77251 0.19258 0.24054
 O1492 O 0.77757 0.20006 0.27420
 C1493 C 0.77939 0.18823 0.25834
 O1494 O 0.78756 0.28484 0.21972
 Zr1495 Zr 0.78320 0.26240 0.24306
 O1496 O 0.79572 0.23182 0.28511
 O1497 O 0.78260 0.21261 0.21025
 O1498 O 0.80565 0.25020 0.22229
 O1499 O 0.79706 0.28955 0.25559
 O1500 O 0.80907 0.25240 0.25986
 C1501 C 0.81080 0.24076 0.27560
 O1502 O 0.75303 0.20866 0.30038
 O1503 O 0.71425 0.28391 0.28965
 O1504 O 0.76369 0.24301 0.30791
 O1505 O 0.74721 0.27428 0.30391
 O1506 O 0.69057 0.24524 0.27747
 O1507 O 0.70921 0.21310 0.28436
 C1508 C 0.75600 0.26028 0.31477
 H1509 H 0.70656 0.27174 0.25339
 H1510 H 0.74001 0.20130 0.26177
 H1511 H 0.77970 0.26772 0.28224
 H1512 H 0.76889 0.25091 0.20799
 H1513 H 0.68758 0.20359 0.25031
 H1514 H 0.74693 0.18295 0.21317
 H1515 H 0.78025 0.19888 0.20364
 H1516 H 0.81891 0.25771 0.22466
 H1517 H 0.67770 0.23716 0.27485
 H1518 H 0.71685 0.29756 0.29631
 H1519 H 0.75194 0.31070 0.29044
 H1520 H 0.81208 0.28918 0.25197
 H1521 H 0.69491 0.20734 0.28382
 H1522 H 0.76504 0.20501 0.30907
 H1523 H 0.73292 0.28887 0.19192
 H1524 H 0.80257 0.28823 0.21839
 Zr1525 Zr 0.77129 0.73486 0.72293
 O1526 O 0.75993 0.71398 0.70053
 O1527 O 0.80261 0.73774 0.71428
 O1528 O 0.77201 0.74822 0.69344
 O1529 O 0.77794 0.69708 0.76001
 O1530 O 0.75648 0.77998 0.69804
 O1531 O 0.78353 0.70434 0.72636
 O1532 O 0.81556 0.76153 0.73692
 O1533 O 0.77726 0.76656 0.72826
 O1534 O 0.78581 0.73685 0.75127
 O1535 O 0.74209 0.74972 0.72211
 O1536 O 0.75051 0.72078 0.74387
 Zr1537 Zr 0.74154 0.77073 0.77835
 Zr1538 Zr 0.74806 0.78109 0.72900
 Zr1539 Zr 0.76476 0.72449 0.77231
 Zr1540 Zr 0.79068 0.76837 0.75704
 O1541 O 0.74667 0.69841 0.78112
 O1542 O 0.80175 0.79706 0.74523
 O1543 O 0.77085 0.75585 0.77950
 O1544 O 0.76232 0.78445 0.75738
 O1545 O 0.72683 0.76885 0.75006
 O1546 O 0.73573 0.73909 0.77282
 C1547 C 0.81720 0.74922 0.72148
 C1548 C 0.78443 0.69228 0.74200
 C1549 C 0.76536 0.76595 0.68697
 O1550 O 0.76512 0.80843 0.72212
 O1551 O 0.73176 0.80709 0.74066
 O1552 O 0.72749 0.80037 0.77458
 C1553 C 0.72516 0.81179 0.75865
 O1554 O 0.71769 0.71413 0.72132
 Zr1555 Zr 0.72218 0.73720 0.74424
 O1556 O 0.70996 0.76870 0.78640
 O1557 O 0.72140 0.78623 0.71099
 O1558 O 0.69918 0.74857 0.72416
 O1559 O 0.70891 0.71017 0.75757
 O1560 O 0.69652 0.74729 0.76187
 C1561 C 0.69487 0.75932 0.77751
 O1562 O 0.75273 0.79252 0.79999
 O1563 O 0.79233 0.71794 0.78851
 O1564 O 0.74228 0.75812 0.80814
 O1565 O 0.75926 0.72707 0.80380
 O1566 O 0.81530 0.75627 0.77476
 O1567 O 0.79630 0.78825 0.78242
 C1568 C 0.75024 0.74104 0.81484
 H1569 H 0.79917 0.72917 0.75171
 H1570 H 0.76481 0.79930 0.76078
 H1571 H 0.72647 0.73280 0.78326
 H1572 H 0.73561 0.74807 0.70857
 H1573 H 0.81696 0.79763 0.74759
 H1574 H 0.75670 0.81646 0.71232
 H1575 H 0.72341 0.79983 0.70415
 H1576 H 0.68607 0.74095 0.72712
 H1577 H 0.82799 0.76446 0.77150
 H1578 H 0.79012 0.70440 0.79541
 H1579 H 0.75514 0.69038 0.79088
 H1580 H 0.69382 0.71029 0.75452
 H1581 H 0.81055 0.79408 0.78137
 H1582 H 0.74084 0.79624 0.80907
 H1583 H 0.77188 0.71019 0.69154
 H1584 H 0.70272 0.71051 0.72059
 Zr1585 Zr 0.23018 0.23336 0.77701
 O1586 O 0.24253 0.21237 0.79853
 O1587 O 0.19920 0.23596 0.78684
 O1588 O 0.23015 0.24648 0.80672
 O1589 O 0.22218 0.19602 0.73939
 O1590 O 0.24549 0.27832 0.80237
 O1591 O 0.21789 0.20287 0.77337
 O1592 O 0.18542 0.26012 0.76536
 O1593 O 0.22399 0.26510 0.77261
 O1594 O 0.21458 0.23564 0.74927
 O1595 O 0.25937 0.24828 0.77720
 O1596 O 0.25018 0.21959 0.75504
 Zr1597 Zr 0.25780 0.26994 0.72148
 Zr1598 Zr 0.25312 0.27971 0.77123
 Zr1599 Zr 0.23487 0.22359 0.72723
 Zr1600 Zr 0.20947 0.26720 0.74441
 O1601 O 0.25260 0.19762 0.71718
 O1602 O 0.19882 0.29576 0.75719
 O1603 O 0.22847 0.25501 0.72098
 O1604 O 0.23780 0.28336 0.74346
 O1605 O 0.27359 0.26777 0.74916
 O1606 O 0.26385 0.23825 0.72607
 C1607 C 0.18438 0.24759 0.78054
 C1608 C 0.21641 0.19100 0.75751
 C1609 C 0.23683 0.26421 0.81335
 O1610 O 0.23640 0.30704 0.77918
 O1611 O 0.26909 0.30580 0.75961
 O1612 O 0.27206 0.29949 0.72542
 C1613 C 0.27503 0.31070 0.74151
 O1614 O 0.28392 0.21287 0.77639
 Zr1615 Zr 0.27848 0.23607 0.75408
 O1616 O 0.28900 0.26795 0.71212
 O1617 O 0.28032 0.28461 0.78858
 O1618 O 0.30222 0.24747 0.77345
 O1619 O 0.29123 0.20913 0.73985
 O1620 O 0.30342 0.24622 0.73557
 C1621 C 0.30442 0.25840 0.72013
 O1622 O 0.24574 0.29199 0.70082
 O1623 O 0.20672 0.21719 0.71186
 O1624 O 0.25605 0.25773 0.69148
 O1625 O 0.23930 0.22656 0.69564
 O1626 O 0.18416 0.25523 0.72740
 O1627 O 0.20288 0.28732 0.71968
 C1628 C 0.24794 0.24070 0.68465
 H1629 H 0.20122 0.22793 0.74914
 H1630 H 0.23519 0.29824 0.74048
 H1631 H 0.27271 0.23207 0.71519
 H1632 H 0.26630 0.24652 0.79049
 H1633 H 0.18352 0.29630 0.75540
 H1634 H 0.24516 0.31493 0.78891
 H1635 H 0.27854 0.29814 0.79575
 H1636 H 0.31525 0.23997 0.76984
 H1637 H 0.17160 0.26335 0.73134
 H1638 H 0.20868 0.20374 0.70458
 H1639 H 0.24376 0.18970 0.70755
 H1640 H 0.30643 0.20923 0.74237
 H1641 H 0.18865 0.29307 0.72134
 H1642 H 0.25727 0.29586 0.69140
 H1643 H 0.23096 0.20841 0.80786
 H1644 H 0.29895 0.20943 0.77661
 Zr1645 Zr 0.26987 0.76587 0.27622
 O1646 O 0.26058 0.78594 0.30037
 O1647 O 0.30172 0.76234 0.28182
 O1648 O 0.27227 0.75138 0.30508
 O1649 O 0.27421 0.80518 0.24025
 O1650 O 0.25590 0.72005 0.30070
 O1651 O 0.28214 0.79641 0.27297
 O1652 O 0.31274 0.73953 0.25712
 O1653 O 0.27500 0.73434 0.26921
 O1654 O 0.28228 0.76491 0.24665
 O1655 O 0.24058 0.75134 0.27896
 O1656 O 0.24788 0.78104 0.25769
 Zr1657 Zr 0.23575 0.73262 0.22222
 Zr1658 Zr 0.24560 0.72019 0.27044
 Zr1659 Zr 0.26000 0.77836 0.22799
 Zr1660 Zr 0.28628 0.73359 0.23929
 O1661 O 0.24158 0.80483 0.22158
 O1662 O 0.29781 0.70440 0.24917
 O1663 O 0.26510 0.74724 0.21915
 O1664 O 0.25776 0.71785 0.24080
 O1665 O 0.22312 0.73352 0.25174
 O1666 O 0.23080 0.76410 0.22937
 C1667 C 0.31565 0.75121 0.27279
 C1668 C 0.28200 0.80915 0.25783
 C1669 C 0.26565 0.73358 0.31151
 O1670 O 0.26282 0.69251 0.27494
 O1671 O 0.22836 0.69475 0.25918
 O1672 O 0.22172 0.70295 0.22606
 C1673 C 0.22048 0.69084 0.24164
 O1674 O 0.21691 0.78717 0.28318
 Zr1675 Zr 0.21937 0.76498 0.25910
 O1676 O 0.20371 0.73543 0.21704
 O1677 O 0.22008 0.71454 0.29030
 O1678 O 0.19767 0.75315 0.28069
 O1679 O 0.20566 0.79268 0.24792
 O1680 O 0.19236 0.75591 0.24350
 C1681 C 0.18943 0.74458 0.22760
 O1682 O 0.24485 0.71149 0.19888
 O1683 O 0.28651 0.78552 0.20991
 O1684 O 0.23505 0.74623 0.19286
 O1685 O 0.25270 0.77692 0.19691
 O1686 O 0.30958 0.74608 0.21974
 O1687 O 0.28971 0.71456 0.21285
 C1688 C 0.24300 0.76336 0.18610
 H1689 H 0.29565 0.77251 0.24532
 H1690 H 0.25981 0.70312 0.23664
 H1691 H 0.22098 0.77087 0.21994
 H1692 H 0.23506 0.75253 0.29304
 H1693 H 0.31278 0.70374 0.24540
 H1694 H 0.25498 0.68416 0.28509
 H1695 H 0.22238 0.70067 0.29645
 H1696 H 0.18454 0.76110 0.27922
 H1697 H 0.32236 0.73762 0.22147
 H1698 H 0.28396 0.79935 0.20374
 H1699 H 0.24948 0.81319 0.21148
 H1700 H 0.19084 0.79266 0.25228
 H1701 H 0.30388 0.70847 0.21247
 H1702 H 0.23228 0.70836 0.19074
 H1703 H 0.27321 0.78921 0.30839
 H1704 H 0.20211 0.79105 0.28527
 Zr1705 Zr 0.23353 0.76604 0.72267
 O1706 O 0.24482 0.78618 0.69963
 O1707 O 0.20196 0.76367 0.71539
 O1708 O 0.23187 0.75205 0.69339
 O1709 O 0.22820 0.80477 0.75951
 O1710 O 0.24711 0.72020 0.69760
 O1711 O 0.22181 0.79676 0.72618
 O1712 O 0.18902 0.74074 0.73883
 O1713 O 0.22714 0.73457 0.72850
 O1714 O 0.21958 0.76493 0.75157
 O1715 O 0.26247 0.75073 0.72089
 O1716 O 0.25493 0.78028 0.74267
 Zr1717 Zr 0.26377 0.73097 0.77726
 Zr1718 Zr 0.25613 0.71961 0.72827
 Zr1719 Zr 0.24121 0.77745 0.77167
 Zr1720 Zr 0.21429 0.73363 0.75780
 O1721 O 0.25996 0.80335 0.77960
 O1722 O 0.20249 0.70499 0.74645
 O1723 O 0.23475 0.74635 0.77936
 O1724 O 0.24239 0.71711 0.75721
 O1725 O 0.27796 0.73198 0.74843
 O1726 O 0.27001 0.76239 0.77127
 C1727 C 0.18726 0.75281 0.72340
 C1728 C 0.22138 0.80919 0.74170
 C1729 C 0.23815 0.73412 0.68678
 O1730 O 0.23854 0.69239 0.72227
 O1731 O 0.27222 0.69361 0.73962
 O1732 O 0.27727 0.70107 0.77328
 C1733 C 0.27908 0.68923 0.75742
 O1734 O 0.28738 0.78590 0.71884
 Zr1735 Zr 0.28300 0.76343 0.74216
 O1736 O 0.29550 0.73279 0.78417
 O1737 O 0.28235 0.71365 0.70934
 O1738 O 0.30543 0.75124 0.72136
 O1739 O 0.29693 0.79054 0.75473
 O1740 O 0.30887 0.75335 0.75893
 C1741 C 0.31059 0.74169 0.77465
 O1742 O 0.25277 0.70972 0.79947
 O1743 O 0.21410 0.78499 0.78877
 O1744 O 0.26350 0.74404 0.80700
 O1745 O 0.24704 0.77532 0.80301
 O1746 O 0.19034 0.74638 0.77654
 O1747 O 0.20895 0.71423 0.78346
 C1748 C 0.25582 0.76131 0.81387
 H1749 H 0.20638 0.77285 0.75249
 H1750 H 0.23974 0.70238 0.76085
 H1751 H 0.27952 0.76873 0.78134
 H1752 H 0.26869 0.75198 0.70709
 H1753 H 0.18732 0.70472 0.74942
 H1754 H 0.24664 0.68403 0.71223
 H1755 H 0.27999 0.69993 0.70272
 H1756 H 0.31870 0.75874 0.72373
 H1757 H 0.17746 0.73831 0.77390
 H1758 H 0.21671 0.79864 0.79544
 H1759 H 0.25181 0.81175 0.78956
 H1760 H 0.31194 0.79014 0.75109
 H1761 H 0.19465 0.70849 0.78292
 H1762 H 0.26478 0.70604 0.80816
 H1763 H 0.23277 0.79000 0.69105
 H1764 H 0.30239 0.78928 0.71752
 Zr1765 Zr 0.27049 0.23427 0.22190
 O1766 O 0.25904 0.21344 0.19951
 O1767 O 0.30180 0.23707 0.21320
 O1768 O 0.27123 0.24765 0.19243
 O1769 O 0.27707 0.19646 0.25896
 O1770 O 0.25580 0.27945 0.19705
 O1771 O 0.28265 0.20371 0.22531
 O1772 O 0.31483 0.26084 0.23582
 O1773 O 0.27654 0.26596 0.22724
 O1774 O 0.28506 0.23622 0.25022
 O1775 O 0.24133 0.24921 0.22112
 O1776 O 0.24970 0.22025 0.24286
 Zr1777 Zr 0.24090 0.27022 0.27737
 Zr1778 Zr 0.24739 0.28057 0.22801
 Zr1779 Zr 0.26399 0.22391 0.27128
 Zr1780 Zr 0.29001 0.26772 0.25599
 O1781 O 0.24584 0.19788 0.28012
 O1782 O 0.30114 0.29640 0.24419
 O1783 O 0.27018 0.25525 0.27847
 O1784 O 0.26170 0.28389 0.25637
 O1785 O 0.22615 0.26838 0.24910
 O1786 O 0.23500 0.23859 0.27184
 C1787 C 0.31643 0.24853 0.22037
 C1788 C 0.28352 0.19164 0.24095
 C1789 C 0.26464 0.26540 0.18597
 O1790 O 0.26450 0.30788 0.22114
 O1791 O 0.23114 0.30659 0.23969
 O1792 O 0.22691 0.29988 0.27361
 C1793 C 0.22456 0.31130 0.25768
 O1794 O 0.21682 0.21369 0.22036
 Zr1795 Zr 0.22141 0.23674 0.24328
 O1796 O 0.20934 0.26827 0.28546
 O1797 O 0.22073 0.28577 0.21000
 O1798 O 0.19842 0.24818 0.22322
 O1799 O 0.20807 0.20976 0.25663
 O1800 O 0.19579 0.24693 0.26093
 C1801 C 0.19421 0.25896 0.27657
 O1802 O 0.25219 0.29198 0.29899
 O1803 O 0.29157 0.21727 0.28744
 O1804 O 0.24166 0.25760 0.30715
 O1805 O 0.25855 0.22651 0.30278
 O1806 O 0.31463 0.25555 0.27366
 O1807 O 0.29571 0.28756 0.28138
 C1808 C 0.24959 0.24050 0.31384
 H1809 H 0.29839 0.22850 0.25064
 H1810 H 0.26422 0.29873 0.25978
 H1811 H 0.22574 0.23232 0.28229
 H1812 H 0.23483 0.24759 0.20759
 H1813 H 0.31636 0.29693 0.24654
 H1814 H 0.25609 0.31592 0.21134
 H1815 H 0.22278 0.29936 0.20317
 H1816 H 0.18529 0.24060 0.22619
 H1817 H 0.32733 0.26370 0.27038
 H1818 H 0.28933 0.20374 0.29434
 H1819 H 0.25430 0.18983 0.28987
 H1820 H 0.19298 0.20993 0.25360
 H1821 H 0.30998 0.29335 0.28032
 H1822 H 0.24032 0.29573 0.30808
 H1823 H 0.27096 0.20962 0.19051
 H1824 H 0.20184 0.21010 0.21966
 Zr1825 Zr 0.73004 0.73242 0.27764
 O1826 O 0.74243 0.71146 0.29917
 O1827 O 0.69909 0.73504 0.28753
 O1828 O 0.73010 0.74559 0.30734
 O1829 O 0.72196 0.69503 0.24007
 O1830 O 0.74546 0.77741 0.30290
 O1831 O 0.71775 0.70192 0.27406
 O1832 O 0.68527 0.75917 0.26604
 O1833 O 0.72387 0.76415 0.27321
 O1834 O 0.71439 0.73467 0.24993
 O1835 O 0.75925 0.74732 0.27775
 O1836 O 0.74999 0.71861 0.25564
 Zr1837 Zr 0.75757 0.76890 0.22200
 Zr1838 Zr 0.75301 0.77874 0.27175
 Zr1839 Zr 0.73461 0.72258 0.22785
 Zr1840 Zr 0.70928 0.76623 0.24505
 O1841 O 0.75230 0.69659 0.21778
 O1842 O 0.69868 0.79480 0.25782
 O1843 O 0.72822 0.75399 0.22158
 O1844 O 0.73763 0.78237 0.24401
 O1845 O 0.77342 0.76676 0.24964
 O1846 O 0.76360 0.73722 0.22662
 C1847 C 0.68425 0.74666 0.28123
 C1848 C 0.71624 0.69003 0.25821
 C1849 C 0.73681 0.76332 0.31393
 O1850 O 0.73633 0.80610 0.27970
 O1851 O 0.76897 0.80480 0.26005
 O1852 O 0.77186 0.79843 0.22586
 C1853 C 0.77487 0.80967 0.24193
 O1854 O 0.78377 0.71189 0.27692
 Zr1855 Zr 0.77830 0.73507 0.25460
 O1856 O 0.78874 0.76687 0.21257
 O1857 O 0.78026 0.78365 0.28903
 O1858 O 0.80210 0.74648 0.27389
 O1859 O 0.79099 0.70808 0.24038
 O1860 O 0.80320 0.74516 0.23601
 C1861 C 0.80417 0.75731 0.22055
 O1862 O 0.74547 0.79094 0.20135
 O1863 O 0.70642 0.71618 0.21256
 O1864 O 0.75574 0.75666 0.19201
 O1865 O 0.73897 0.72551 0.19624
 O1866 O 0.68393 0.75426 0.22809
 O1867 O 0.70266 0.78633 0.22031
 C1868 C 0.74760 0.73963 0.18522
 H1869 H 0.70103 0.72696 0.24984
 H1870 H 0.73503 0.79725 0.24101
 H1871 H 0.77243 0.73102 0.21572
 H1872 H 0.76621 0.74557 0.29102
 H1873 H 0.68338 0.79535 0.25607
 H1874 H 0.74512 0.81400 0.28939
 H1875 H 0.77851 0.79719 0.29618
 H1876 H 0.81511 0.73896 0.27027
 H1877 H 0.67139 0.76239 0.23205
 H1878 H 0.70835 0.70272 0.20529
 H1879 H 0.74343 0.68867 0.20819
 H1880 H 0.80619 0.70818 0.24286
 H1881 H 0.68843 0.79210 0.22200
 H1882 H 0.75698 0.79479 0.19189
 H1883 H 0.73087 0.70751 0.30852
 H1884 H 0.79880 0.70844 0.27712
 Zr1885 Zr 0.77059 0.26504 0.77696
 O1886 O 0.76110 0.28508 0.80106
 O1887 O 0.80244 0.26169 0.78268
 O1888 O 0.77298 0.25059 0.80584
 O1889 O 0.77487 0.30436 0.74100
 O1890 O 0.75682 0.21915 0.80142
 O1891 O 0.78273 0.29563 0.77374
 O1892 O 0.81368 0.23895 0.75801
 O1893 O 0.77594 0.23354 0.76998
 O1894 O 0.78311 0.26414 0.74743
 O1895 O 0.74139 0.25033 0.77962
 O1896 O 0.74858 0.28007 0.75837
 Zr1897 Zr 0.73686 0.23158 0.72287
 Zr1898 Zr 0.74662 0.21922 0.77112
 Zr1899 Zr 0.76081 0.27746 0.72870
 Zr1900 Zr 0.78732 0.23285 0.74009
 O1901 O 0.74226 0.30384 0.72227
 O1902 O 0.79898 0.20373 0.75000
 O1903 O 0.76612 0.24637 0.71988
 O1904 O 0.75889 0.21693 0.74152
 O1905 O 0.72413 0.23240 0.75235
 O1906 O 0.73169 0.26302 0.73000
 C1907 C 0.81647 0.25063 0.77370
 C1908 C 0.78259 0.30836 0.75859
 C1909 C 0.76645 0.23274 0.81226
 O1910 O 0.76399 0.19164 0.77567
 O1911 O 0.72955 0.19368 0.75982
 O1912 O 0.72297 0.20183 0.72667
 C1913 C 0.72174 0.18973 0.74226
 O1914 O 0.71749 0.28605 0.78374
 Zr1915 Zr 0.72016 0.26384 0.75970
 O1916 O 0.70482 0.23416 0.71761
 O1917 O 0.72108 0.21342 0.79091
 O1918 O 0.69847 0.25191 0.78125
 O1919 O 0.70628 0.29143 0.74844
 O1920 O 0.69325 0.25454 0.74404
 C1921 C 0.69044 0.24318 0.72814
 O1922 O 0.74618 0.21051 0.69956
 O1923 O 0.78731 0.28476 0.71068
 O1924 O 0.73612 0.24520 0.69351
 O1925 O 0.75357 0.27599 0.69761
 O1926 O 0.81062 0.24547 0.72062
 O1927 O 0.79094 0.21384 0.71366
 C1928 C 0.74396 0.26239 0.68677
 H1929 H 0.79644 0.27181 0.74614
 H1930 H 0.76104 0.20222 0.73737
 H1931 H 0.72184 0.26973 0.72055
 H1932 H 0.73581 0.25149 0.79369
 H1933 H 0.81397 0.20316 0.74628
 H1934 H 0.75616 0.18324 0.78580
 H1935 H 0.72344 0.19956 0.79708
 H1936 H 0.68530 0.25978 0.77973
 H1937 H 0.82343 0.23708 0.72239
 H1938 H 0.78470 0.29857 0.70450
 H1939 H 0.75013 0.31224 0.71219
 H1940 H 0.69145 0.29130 0.75276
 H1941 H 0.80514 0.20783 0.71332
 H1942 H 0.73365 0.20729 0.69138
 H1943 H 0.77368 0.28842 0.80913
 H1944 H 0.70267 0.28985 0.78578
 C1945 C 0.43900 1.00079 0.32771
 C1946 C 0.44920 1.00032 0.34308
 C1947 C 0.46040 0.99954 0.36154
 C1948 C 0.46908 0.99895 0.37778
 C1949 C 0.47794 0.99860 0.39745
 C1950 C 0.48399 0.99889 0.41482
 C1951 C -0.06028 0.50202 0.82784
 C1952 C -0.05018 0.50169 0.84328
 C1953 C -0.03910 0.50104 0.86183
 C1954 C -0.03051 0.50052 0.87812
 C1955 C -0.02176 0.50021 0.89784
 C1956 C -0.01576 0.50047 0.91523
 C1957 C 0.05770 -0.00047 0.82508
 C1958 C 0.04775 0.00123 0.84071
 C1959 C 0.03697 0.00318 0.85951
 C1960 C 0.02872 0.00455 0.87606
 C1961 C 0.02042 0.00555 0.89608
 C1962 C 0.01483 0.00560 0.91369
 C1963 C 0.55766 0.49839 0.32495
 C1964 C 0.54770 0.50012 0.34056
 C1965 C 0.53692 0.50212 0.35936
 C1966 C 0.52870 0.50354 0.37592
 C1967 C 0.52045 0.50461 0.39595
 C1968 C 0.51490 0.50474 0.41356
 C1969 C 0.56077 0.49583 0.17166
 C1970 C 0.55065 0.49473 0.15627
 C1971 C 0.53959 0.49329 0.13777
 C1972 C 0.53104 0.49226 0.12148
 C1973 C 0.52237 0.49158 0.10175
 C1974 C 0.51647 0.49180 0.08435
 C1975 C 0.06025 0.99688 0.67178
 C1976 C 0.05010 0.99576 0.65641
 C1977 C 0.03900 0.99428 0.63792
 C1978 C 0.03044 0.99319 0.62165
 C1979 C 0.02178 0.99242 0.60192
 C1980 C 0.01591 0.99253 0.58450
 C1981 C -0.05720 0.49821 0.67489
 C1982 C -0.04736 0.49921 0.65914
 C1983 C -0.03672 0.50040 0.64020
 C1984 C -0.02859 0.50122 0.62356
 C1985 C -0.02042 0.50175 0.60346
 C1986 C -0.01494 0.50164 0.58582
 C1987 C 0.44182 -0.00277 0.17442
 C1988 C 0.45183 -0.00173 0.15879
 C1989 C 0.46270 -0.00048 0.13998
 C1990 C 0.47102 0.00040 0.12343
 C1991 C 0.47938 0.00104 0.10342
 C1992 C 0.48498 0.00102 0.08581
 C1993 C 0.33052 0.41400 0.00549
 C1994 C 0.34707 0.42287 0.00713
 C1995 C 0.36663 0.43303 0.00879
 C1996 C 0.38339 0.44160 0.00978
 C1997 C 0.40307 0.45167 0.01021
 C1998 C 0.41980 0.46037 0.00966
 C1999 C -0.16965 0.91399 0.50564
 C2000 C -0.15315 0.92296 0.50724
 C2001 C -0.13364 0.93323 0.50887
 C2002 C -0.11692 0.94189 0.50984
 C2003 C -0.09727 0.95202 0.51024
 C2004 C -0.08055 0.96073 0.50967
 C2005 C -0.17038 0.08440 0.99434
 C2006 C -0.15379 0.07555 0.99276
 C2007 C -0.13424 0.06533 0.99118
 C2008 C -0.11751 0.05669 0.99023
 C2009 C -0.09787 0.04655 0.98980
 C2010 C -0.08117 0.03784 0.99026
 C2011 C 0.33000 0.58421 0.49380
 C2012 C 0.34654 0.57527 0.49230
 C2013 C 0.36605 0.56496 0.49081
 C2014 C 0.38274 0.55623 0.48994
 C2015 C 0.40234 0.54601 0.48959
 C2016 C 0.41902 0.53727 0.49010
 C2017 C 0.16774 0.58517 0.50367
 C2018 C 0.15139 0.57593 0.50545
 C2019 C 0.13209 0.56526 0.50731
 C2020 C 0.11555 0.55624 0.50849
 C2021 C 0.09611 0.54570 0.50916
 C2022 C 0.07954 0.53670 0.50883
 C2023 C 0.66825 0.08440 0.00437
 C2024 C 0.65189 0.07516 0.00614
 C2025 C 0.63257 0.06453 0.00798
 C2026 C 0.61601 0.05556 0.00913
 C2027 C 0.59653 0.04509 0.00975
 C2028 C 0.57992 0.03616 0.00936
 C2029 C 0.66766 0.91487 0.49407
 C2030 C 0.65115 0.92373 0.49217
 C2031 C 0.63170 0.93404 0.49023
 C2032 C 0.61509 0.94285 0.48905
 C2033 C 0.59562 0.95332 0.48849
 C2034 C 0.57910 0.96242 0.48904
 C2035 C 0.16777 0.41580 0.99396
 C2036 C 0.15128 0.42472 0.99212
 C2037 C 0.13185 0.43509 0.99026
 C2038 C 0.11526 0.44394 0.98914
 C2039 C 0.09580 0.45444 0.98866
 C2040 C 0.07929 0.46354 0.98928
 C2041 C -0.00731 0.32698 0.41428
 C2042 C -0.00789 0.34333 0.42319
 C2043 C -0.00792 0.36254 0.43342
 C2044 C -0.00743 0.37905 0.44203
 C2045 C -0.00638 0.39840 0.45195
 C2046 C -0.00523 0.41498 0.46036
 C2047 C 0.49225 -0.17197 -0.08748
 C2048 C 0.49164 -0.15566 -0.07851
 C2049 C 0.49163 -0.13654 -0.06812
 C2050 C 0.49215 -0.12014 -0.05931
 C2051 C 0.49326 -0.10094 -0.04913
 C2052 C 0.49448 -0.08449 -0.04049
 C2053 C 0.00822 -0.17081 1.08237
 C2054 C 0.00835 -0.15536 1.07220
 C2055 C 0.00786 -0.13683 1.06109
 C2056 C 0.00698 -0.12059 1.05223
 C2057 C 0.00554 -0.10126 1.04257
 C2058 C 0.00414 -0.08451 1.03474
 C2059 C 0.51056 0.32885 0.58219
 C2060 C 0.51048 0.34438 0.57215
 C2061 C 0.50967 0.36299 0.56118
 C2062 C 0.50848 0.37927 0.55243
 C2063 C 0.50669 0.39860 0.54285
 C2064 C 0.50502 0.41534 0.53505
 C2065 C 0.50109 1.17346 0.58817
 C2066 C 0.50106 1.15753 0.57853
 C2067 C 0.50097 1.13881 0.56745
 C2068 C 0.50087 1.12266 0.55819
 C2069 C 0.50075 1.10361 0.54766
 C2070 C 0.50069 1.08716 0.53891
 C2071 C 0.00049 0.67386 1.08976
 C2072 C 0.00066 0.65791 1.08014
 C2073 C 0.00075 0.63920 1.06904
 C2074 C 0.00076 0.62309 1.05971
 C2075 C 0.00072 0.60411 1.04906
 C2076 C 0.00070 0.58773 1.04018
 C2077 C 0.50696 0.67201 -0.07973
 C2078 C 0.50696 0.65633 -0.06991
 C2079 C 0.50649 0.63750 -0.05930
 C2080 C 0.50576 0.62099 -0.05090
 C2081 C 0.50460 0.60136 -0.04179
 C2082 C 0.50348 0.58437 -0.03440
 C2083 C 0.00791 1.17146 0.41927
 C2084 C 0.00794 1.15569 0.42895
 C2085 C 0.00746 1.13680 0.43948
 C2086 C 0.00666 1.12030 0.44788
 C2087 C 0.00538 1.10072 0.45708
 C2088 C 0.00412 1.08380 0.46461
 C2089 C 0.75075 0.69132 0.92333
 C2090 C 0.75030 0.70168 0.90803
 C2091 C 0.74954 0.71301 0.88961
 C2092 C 0.74895 0.72174 0.87338
 C2093 C 0.74861 0.73055 0.85366
 C2094 C 0.74890 0.73646 0.83623
 C2095 C 0.25050 0.19065 0.42225
 C2096 C 0.24997 0.20103 0.40697
 C2097 C 0.24912 0.21240 0.38857
 C2098 C 0.24847 0.22115 0.37235
 C2099 C 0.24805 0.22999 0.35265
 C2100 C 0.24829 0.23592 0.33522
 C2101 C 0.75029 0.30771 0.42472
 C2102 C 0.75215 0.29779 0.40911
 C2103 C 0.75427 0.28705 0.39031
 C2104 C 0.75577 0.27881 0.37378
 C2105 C 0.75691 0.27049 0.35378
 C2106 C 0.75708 0.26485 0.33620
 C2107 C 0.25020 0.80854 0.92391
 C2108 C 0.25205 0.79865 0.90828
 C2109 C 0.25415 0.78795 0.88946
 C2110 C 0.25563 0.77975 0.87290
 C2111 C 0.25676 0.77147 0.85289
 C2112 C 0.25692 0.76586 0.83531
 C2113 C 0.24547 0.81227 0.07711
 C2114 C 0.24430 0.80226 0.09263
 C2115 C 0.24276 0.79133 0.11126
 C2116 C 0.24166 0.78288 0.12763
 C2117 C 0.24095 0.77424 0.14742
 C2118 C 0.24121 0.76829 0.16484
 C2119 C 0.74586 0.31151 0.57786
 C2120 C 0.74479 0.30148 0.59337
 C2121 C 0.74338 0.29051 0.61199
 C2122 C 0.74239 0.28201 0.62834
 C2123 C 0.74179 0.27333 0.64812
 C2124 C 0.74213 0.26734 0.66552
 C2125 C 0.24536 0.19294 0.57485
 C2126 C 0.24621 0.20305 0.59040
 C2127 C 0.24730 0.21402 0.60912
 C2128 C 0.24811 0.22241 0.62560
 C2129 C 0.24871 0.23080 0.64556
 C2130 C 0.24873 0.23639 0.66315
 C2131 C 0.74507 0.69219 0.07524
 C2132 C 0.74588 0.70222 0.09084
 C2133 C 0.74693 0.71310 0.10962
 C2134 C 0.74771 0.72141 0.12613
 C2135 C 0.74831 0.72974 0.14612
 C2136 C 0.74835 0.73530 0.16372
 C2137 C 0.16272 0.58212 0.24370
 C2138 C 0.17158 0.59871 0.24213
 C2139 C 0.18178 0.61829 0.24053
 C2140 C 0.19044 0.63502 0.23956
 C2141 C 0.20068 0.65465 0.23912
 C2142 C 0.20957 0.67128 0.23963
 C2143 C 0.66398 0.08102 0.74441
 C2144 C 0.67289 0.09758 0.74282
 C2145 C 0.68312 0.11714 0.74118
 C2146 C 0.69180 0.13386 0.74019
 C2147 C 0.70203 0.15349 0.73974
 C2148 C 0.71090 0.17014 0.74023
 C2149 C 0.83616 0.07916 0.25584
 C2150 C 0.82742 0.09580 0.25756
 C2151 C 0.81731 0.11539 0.25928
 C2152 C 0.80872 0.13215 0.26032
 C2153 C 0.79862 0.15181 0.26080
 C2154 C 0.78991 0.16851 0.26031
 C2155 C 0.33546 0.57994 0.75558
 C2156 C 0.32678 0.59662 0.75714
 C2157 C 0.31674 0.61626 0.75870
 C2158 C 0.30821 0.63306 0.75962
 C2159 C 0.29818 0.65275 0.75998
 C2160 C 0.28953 0.66949 0.75943
 C2161 C 0.33482 0.41817 0.74495
 C2162 C 0.32549 0.40188 0.74304
 C2163 C 0.31472 0.38266 0.74105
 C2164 C 0.30561 0.36619 0.73980
 C2165 C 0.29497 0.34680 0.73911
 C2166 C 0.28588 0.33028 0.73950
 C2167 C 0.83505 0.91694 0.24469
 C2168 C 0.82562 0.90070 0.24292
 C2169 C 0.81475 0.88152 0.24108
 C2170 C 0.80558 0.86508 0.23995
 C2171 C 0.79487 0.84572 0.23938
 C2172 C 0.78575 0.82922 0.23985
 C2173 C 0.66660 0.91996 0.75539
 C2174 C 0.67561 0.90351 0.75733
 C2175 C 0.68604 0.88411 0.75929
 C2176 C 0.69491 0.86752 0.76051
 C2177 C 0.70536 0.84801 0.76115
 C2178 C 0.71434 0.83142 0.76073
 C2179 C 0.16571 0.41934 0.25468
 C2180 C 0.17478 0.40291 0.25651
 C2181 C 0.18529 0.38355 0.25841
 C2182 C 0.19422 0.36698 0.25958
 C2183 C 0.20471 0.34750 0.26020
 C2184 C 0.21373 0.33092 0.25977
 C2185 C 0.07880 0.24520 0.84072
 C2186 C 0.09501 0.24470 0.83151
 C2187 C 0.11388 0.24460 0.82065
 C2188 C 0.13002 0.24489 0.81134
 C2189 C 0.14889 0.24561 0.80049
 C2190 C 0.16508 0.24645 0.79129
 C2191 C 0.57822 0.74427 0.34065
 C2192 C 0.59454 0.74376 0.33164
 C2193 C 0.61355 0.74366 0.32100
 C2194 C 0.62977 0.74394 0.31184
 C2195 C 0.64872 0.74466 0.30111
 C2196 C 0.66494 0.74551 0.29198
 C2197 C 0.58022 0.25879 0.16994
 C2198 C 0.59589 0.25868 0.17971
 C2199 C 0.61466 0.25787 0.19033
 C2200 C 0.63107 0.25672 0.19878
 C2201 C 0.65054 0.25502 0.20802
 C2202 C 0.66737 0.25346 0.21557
 C2203 C 0.07993 0.75907 0.66910
 C2204 C 0.09567 0.75913 0.67875
 C2205 C 0.11449 0.75852 0.68929
 C2206 C 0.13092 0.75753 0.69773
 C2207 C 0.15039 0.75599 0.70699
 C2208 C 0.16721 0.75451 0.71458
 C2209 C 0.92459 0.74555 0.66450
 C2210 C 0.90837 0.74550 0.67370
 C2211 C 0.88930 0.74580 0.68422
 C2212 C 0.87287 0.74633 0.69302
 C2213 C 0.85356 0.74721 0.70309
 C2214 C 0.83697 0.74810 0.71156
 C2215 C 0.42405 0.24561 0.16378
 C2216 C 0.40774 0.24540 0.17281
 C2217 C 0.38858 0.24550 0.18318
 C2218 C 0.37210 0.24588 0.19190
 C2219 C 0.35277 0.24661 0.20193
 C2220 C 0.33617 0.24743 0.21040
 C2221 C 0.42329 0.75468 0.32644
 C2222 C 0.40801 0.75458 0.31611
 C2223 C 0.38943 0.75416 0.30515
 C2224 C 0.37299 0.75359 0.29669
 C2225 C 0.35329 0.75277 0.28778
 C2226 C 0.33616 0.75203 0.28074
 C2227 C 0.92400 0.25485 0.82753
 C2228 C 0.90870 0.25463 0.81723
 C2229 C 0.89013 0.25406 0.80626
 C2230 C 0.87370 0.25337 0.79778
 C2231 C 0.85404 0.25242 0.78881
 C2232 C 0.83693 0.25157 0.78172
 C2233 C 0.56439 1.00903 0.67220
 C2234 C 0.55480 1.01166 0.65667
 C2235 C 0.54420 1.01443 0.63806
 C2236 C 0.53591 1.01624 0.62172
 C2237 C 0.52731 1.01743 0.60198
 C2238 C 0.52125 1.01731 0.58461
 C2239 C 0.06413 0.50861 1.17295
 C2240 C 0.05458 0.51129 1.15740
 C2241 C 0.04403 0.51415 1.13876
 C2242 C 0.03578 0.51607 1.12241
 C2243 C 0.02723 0.51741 1.10265
 C2244 C 0.02122 0.51745 1.08526
 C2245 C -0.06317 -0.01103 1.17278
 C2246 C -0.05369 -0.01314 1.15692
 C2247 C -0.04331 -0.01521 1.13789
 C2248 C -0.03526 -0.01641 1.12123
 C2249 C -0.02696 -0.01687 1.10118
 C2250 C -0.02115 -0.01617 1.08365
 C2251 C 0.43703 0.48903 0.67269
 C2252 C 0.44656 0.48690 0.65687
 C2253 C 0.45700 0.48481 0.63788
 C2254 C 0.46511 0.48361 0.62124
 C2255 C 0.47344 0.48314 0.60121
 C2256 C 0.47927 0.48381 0.58368
 C2257 C 0.43684 0.50885 -0.17258
 C2258 C 0.44615 0.51143 -0.15686
 C2259 C 0.45644 0.51406 -0.13803
 C2260 C 0.46451 0.51569 -0.12155
 C2261 C 0.47288 0.51657 -0.10169
 C2262 C 0.47880 0.51609 -0.08429
 C2263 C -0.06221 1.00797 0.32687
 C2264 C -0.05298 1.01051 0.34265
 C2265 C -0.04280 1.01311 0.36153
 C2266 C -0.03484 1.01474 0.37807
 C2267 C -0.02660 1.01564 0.39798
 C2268 C -0.02080 1.01522 0.41542
 C2269 C 0.06101 0.49053 0.32567
 C2270 C 0.05145 0.48834 0.34146
 C2271 C 0.04093 0.48615 0.36039
 C2272 C 0.03275 0.48481 0.37698
 C2273 C 0.02435 0.48411 0.39698
 C2274 C 0.01853 0.48452 0.41453
 C2275 C 0.56230 -0.00920 -0.17391
 C2276 C 0.55255 -0.01131 -0.15822
 C2277 C 0.54181 -0.01342 -0.13941
 C2278 C 0.53344 -0.01469 -0.12290
 C2279 C 0.52484 -0.01535 -0.10298
 C2280 C 0.51889 -0.01493 -0.08547
 C2281 C 0.66864 0.58556 -0.00635
 C2282 C 0.65230 0.57637 -0.00831
 C2283 C 0.63284 0.56604 -0.01032
 C2284 C 0.61607 0.55751 -0.01155
 C2285 C 0.59623 0.54773 -0.01215
 C2286 C 0.57924 0.53955 -0.01161
 C2287 C 0.16879 1.08494 0.49320
 C2288 C 0.15245 1.07571 0.49133
 C2289 C 0.13300 1.06535 0.48942
 C2290 C 0.11624 1.05680 0.48826
 C2291 C 0.09639 1.04704 0.48773
 C2292 C 0.07938 1.03890 0.48831
 C2293 C 0.16858 -0.08505 1.00373
 C2294 C 0.15219 -0.07588 1.00555
 C2295 C 0.13271 -0.06558 1.00748
 C2296 C 0.11592 -0.05709 1.00871
 C2297 C 0.09605 -0.04742 1.00939
 C2298 C 0.07901 -0.03938 1.00899
 C2299 C 0.66881 0.41445 0.50423
 C2300 C 0.65245 0.42370 0.50595
 C2301 C 0.63301 0.43411 0.50776
 C2302 C 0.61625 0.44267 0.50890
 C2303 C 0.59641 0.45242 0.50949
 C2304 C 0.57939 0.46049 0.50904
 C2305 C -0.17006 0.41280 0.49533
 C2306 C -0.15355 0.42182 0.49380
 C2307 C -0.13400 0.43203 0.49194
 C2308 C -0.11719 0.44049 0.49064
 C2309 C -0.09731 0.45018 0.48979
 C2310 C -0.08028 0.45827 0.49006
 C2311 C 0.32981 -0.08641 -0.00534
 C2312 C 0.34631 -0.07739 -0.00686
 C2313 C 0.36587 -0.06720 -0.00869
 C2314 C 0.38270 -0.05876 -0.00997
 C2315 C 0.40260 -0.04912 -0.01076
 C2316 C 0.41966 -0.04109 -0.01043
 C2317 C 0.33149 1.08954 0.50668
 C2318 C 0.34822 1.08106 0.50843
 C2319 C 0.36801 1.07141 0.51044
 C2320 C 0.38497 1.06332 0.51177
 C2321 C 0.40496 1.05389 0.51250
 C2322 C 0.42200 1.04581 0.51200
 C2323 C -0.16857 0.59005 1.00754
 C2324 C -0.15182 0.58161 1.00927
 C2325 C -0.13201 0.57200 1.01124
 C2326 C -0.11502 0.56395 1.01255
 C2327 C -0.09500 0.55457 1.01325
 C2328 C -0.07794 0.54654 1.01271
 C2329 C 0.01842 0.66852 0.57219
 C2330 C 0.01877 0.65148 0.56463
 C2331 C 0.01803 0.63131 0.55643
 C2332 C 0.01651 0.61396 0.54975
 C2333 C 0.01389 0.59372 0.54214
 C2334 C 0.01119 0.57650 0.53551
 C2335 C 0.51950 0.16803 0.07317
 C2336 C 0.51981 0.15094 0.06571
 C2337 C 0.51899 0.13076 0.05754
 C2338 C 0.51739 0.11343 0.05083
 C2339 C 0.51464 0.09325 0.04309
 C2340 C 0.51184 0.07611 0.03632
 C2341 C -0.01904 0.17183 0.93214
 C2342 C -0.01964 0.15498 0.93991
 C2343 C -0.01915 0.13484 0.94799
 C2344 C -0.01780 0.11740 0.95427
 C2345 C -0.01531 0.09696 0.96117
 C2346 C -0.01265 0.07953 0.96706
 C2347 C 0.47988 0.67093 0.43113
 C2348 C 0.47943 0.65409 0.43892
 C2349 C 0.48013 0.63400 0.44708
 C2350 C 0.48168 0.61662 0.45346
 C2351 C 0.48438 0.59625 0.46050
 C2352 C 0.48720 0.57888 0.46650
 C2353 C 0.50610 0.83068 0.43165
 C2354 C 0.50824 0.84774 0.43886
 C2355 C 0.50968 0.86812 0.44646
 C2356 C 0.50997 0.88575 0.45255
 C2357 C 0.50927 0.90641 0.45950
 C2358 C 0.50794 0.92398 0.46568
 C2359 C 0.00699 0.33181 0.93188
 C2360 C 0.00907 0.34893 0.93896
 C2361 C 0.01042 0.36936 0.94642
 C2362 C 0.01061 0.38703 0.95243
 C2363 C 0.00979 0.40769 0.95936
 C2364 C 0.00836 0.42524 0.96557
 C2365 C 0.49009 0.32616 0.06468
 C2366 C 0.48760 0.34274 0.05678
 C2367 C 0.48613 0.36281 0.04867
 C2368 C 0.48610 0.38034 0.04248
 C2369 C 0.48738 0.40098 0.03580
 C2370 C 0.48933 0.41861 0.03015
 C2371 C -0.01174 0.82658 0.56561
 C2372 C -0.01422 0.84320 0.55778
 C2373 C -0.01557 0.86329 0.54970
 C2374 C -0.01541 0.88080 0.54348
 C2375 C -0.01386 0.90140 0.53671
 C2376 C -0.01167 0.91896 0.53095
 C2377 C 0.25780 0.31309 0.07695
 C2378 C 0.26051 0.30344 0.09245
 C2379 C 0.26337 0.29282 0.11105
 C2380 C 0.26526 0.28456 0.12741
 C2381 C 0.26653 0.27609 0.14722
 C2382 C 0.26648 0.27024 0.16468
 C2383 C 0.75820 0.81311 0.57770
 C2384 C 0.76097 0.80357 0.59326
 C2385 C 0.76389 0.79308 0.61193
 C2386 C 0.76584 0.78492 0.62834
 C2387 C 0.76717 0.77655 0.64819
 C2388 C 0.76716 0.77076 0.66566
 C2389 C 0.24049 0.68688 0.57652
 C2390 C 0.23849 0.69634 0.59239
 C2391 C 0.23652 0.70670 0.61142
 C2392 C 0.23540 0.71476 0.62807
 C2393 C 0.23499 0.72309 0.64809
 C2394 C 0.23570 0.72897 0.66559
 C2395 C 0.74088 0.18595 0.07736
 C2396 C 0.73885 0.19537 0.09325
 C2397 C 0.73685 0.20568 0.11230
 C2398 C 0.73570 0.21371 0.12896
 C2399 C 0.73526 0.22200 0.14899
 C2400 C 0.73594 0.22787 0.16649
 C2401 C 0.76133 0.18581 0.92199
 C2402 C 0.76411 0.19497 0.90616
 C2403 C 0.76692 0.20511 0.88721
 C2404 C 0.76865 0.21309 0.87066
 C2405 C 0.76958 0.22144 0.85074
 C2406 C 0.76907 0.22741 0.83333
 C2407 C 0.26083 0.68647 0.42120
 C2408 C 0.26357 0.69564 0.40536
 C2409 C 0.26633 0.70580 0.38642
 C2410 C 0.26802 0.71381 0.36987
 C2411 C 0.26890 0.72219 0.34997
 C2412 C 0.26834 0.72820 0.33257
 C2413 C 0.74066 0.81102 0.42380
 C2414 C 0.73866 0.80135 0.40810
 C2415 C 0.73664 0.79071 0.38927
 C2416 C 0.73539 0.78245 0.37275
 C2417 C 0.73471 0.77400 0.35280
 C2418 C 0.73504 0.76817 0.33528
 C2419 C 0.24043 0.31182 0.92325
 C2420 C 0.23845 0.30215 0.90754
 C2421 C 0.23646 0.29152 0.88871
 C2422 C 0.23524 0.28328 0.87218
 C2423 C 0.23461 0.27484 0.85223
 C2424 C 0.23499 0.26903 0.83470
 C2425 C 0.83731 0.41861 0.75672
 C2426 C 0.82840 0.40206 0.75843
 C2427 C 0.81835 0.38241 0.76017
 C2428 C 0.81001 0.36551 0.76119
 C2429 C 0.80038 0.34557 0.76161
 C2430 C 0.79224 0.32855 0.76097
 C2431 C 0.33686 0.91932 0.25566
 C2432 C 0.32792 0.90279 0.25742
 C2433 C 0.31786 0.88315 0.25923
 C2434 C 0.30951 0.86626 0.26031
 C2435 C 0.29987 0.84632 0.26078
 C2436 C 0.29171 0.82931 0.26018
 C2437 C 0.16535 0.91855 0.74438
 C2438 C 0.17467 0.90225 0.74259
 C2439 C 0.18518 0.88287 0.74072
 C2440 C 0.19385 0.86616 0.73956
 C2441 C 0.20373 0.84638 0.73900
 C2442 C 0.21193 0.82942 0.73951
 C2443 C 0.66559 0.41749 0.24479
 C2444 C 0.67491 0.40118 0.24309
 C2445 C 0.68542 0.38179 0.24132
 C2446 C 0.69408 0.36507 0.24025
 C2447 C 0.70394 0.34529 0.23977
 C2448 C 0.71212 0.32832 0.24033
 C2449 C 0.66223 0.57960 0.25503
 C2450 C 0.67109 0.59617 0.25667
 C2451 C 0.68112 0.61579 0.25861
 C2452 C 0.68943 0.63267 0.25995
 C2453 C 0.69896 0.65261 0.26077
 C2454 C 0.70694 0.66970 0.26041
 C2455 C 0.16214 0.08065 0.75456
 C2456 C 0.17105 0.09721 0.75612
 C2457 C 0.18113 0.11681 0.75798
 C2458 C 0.18949 0.13368 0.75926
 C2459 C 0.19907 0.15360 0.76004
 C2460 C 0.20708 0.17067 0.75967
 C2461 C 0.33701 0.08085 0.24382
 C2462 C 0.32831 0.09751 0.24222
 C2463 C 0.31846 0.11723 0.24033
 C2464 C 0.31028 0.13417 0.23904
 C2465 C 0.30084 0.15418 0.23828
 C2466 C 0.29289 0.17130 0.23868
 C2467 C 0.83842 0.58173 0.74488
 C2468 C 0.82965 0.59835 0.74328
 C2469 C 0.81971 0.61802 0.74140
 C2470 C 0.81145 0.63493 0.74012
 C2471 C 0.80192 0.65489 0.73935
 C2472 C 0.79388 0.67197 0.73975
 C2473 C 0.91670 0.76667 0.17565
 C2474 C 0.89935 0.76708 0.18255
 C2475 C 0.87897 0.76653 0.19029
 C2476 C 0.86155 0.76525 0.19685
 C2477 C 0.84132 0.76294 0.20466
 C2478 C 0.82420 0.76049 0.21166
 C2479 C 0.41711 0.26739 0.67562
 C2480 C 0.39975 0.26794 0.68246
 C2481 C 0.37933 0.26753 0.69012
 C2482 C 0.36188 0.26631 0.69661
 C2483 C 0.34161 0.26404 0.70435
 C2484 C 0.32447 0.26160 0.71129
 C2485 C 0.42287 0.73172 0.81762
 C2486 C 0.40616 0.73121 0.80965
 C2487 C 0.38617 0.73178 0.80136
 C2488 C 0.36882 0.73317 0.79494
 C2489 C 0.34846 0.73568 0.78794
 C2490 C 0.33107 0.73831 0.78200
 C2491 C 0.92304 0.23137 0.31882
 C2492 C 0.90633 0.23081 0.31086
 C2493 C 0.88634 0.23128 0.30255
 C2494 C 0.86901 0.23257 0.29609
 C2495 C 0.84865 0.23496 0.28901
 C2496 C 0.83127 0.23749 0.28301
 C2497 C 0.08111 0.26270 0.31989
 C2498 C 0.09803 0.26508 0.31240
 C2499 C 0.11829 0.26631 0.30445
 C2500 C 0.13584 0.26606 0.29810
 C2501 C 0.15637 0.26443 0.29090
 C2502 C 0.17381 0.26220 0.28459
 C2503 C 0.58133 0.76254 0.81974
 C2504 C 0.59836 0.76493 0.81251
 C2505 C 0.61873 0.76624 0.80485
 C2506 C 0.63636 0.76610 0.79871
 C2507 C 0.65696 0.76461 0.79170
 C2508 C 0.67444 0.76248 0.78549
 C2509 C 0.57605 0.24126 0.69035
 C2510 C 0.59276 0.23890 0.69798
 C2511 C 0.61304 0.23750 0.70550
 C2512 C 0.63076 0.23746 0.71104
 C2513 C 0.65165 0.23863 0.71687
 C2514 C 0.66949 0.24043 0.72181
 C2515 C 0.07460 0.74341 0.19083
 C2516 C 0.09143 0.74109 0.19822
 C2517 C 0.11180 0.73963 0.20548
 C2518 C 0.12960 0.73947 0.21082
 C2519 C 0.15055 0.74043 0.21647
 C2520 C 0.16843 0.74203 0.22132
   
