data_POSCAR
  _audit_creation_date              2014-09-24
  _audit_creation_method            'ToBaCCo'
  _symmetry_space_group_name_H-M    'P1'
  _symmetry_Int_Tables_number       1
  _symmetry_cell_setting            triclinic
  loop_
  _symmetry_equiv_pos_as_xyz
 x,y,z
_cell_length_a 68.4157
_cell_length_b 68.4026
_cell_length_c 68.4260
_cell_angle_alpha 89.960000
_cell_angle_beta 89.971000
_cell_angle_gamma 89.992600
loop_
  _atom_site_label
  _atom_site_type_symbol
  _atom_site_fract_x
  _atom_site_fract_y
  _atom_site_fract_z
C1 C 0.20544 0.19605 0.22457
 C2 C 0.18961 0.19930 0.23718
 C3 C 0.17682 0.21511 0.23411
 C4 C 0.18007 0.22773 0.21821
 C5 C 0.19586 0.22469 0.20549
 C6 C 0.20860 0.20879 0.20866
 C7 C 0.21816 0.18026 0.22761
 C8 C 0.23406 0.17701 0.21498
 C9 C 0.23712 0.18979 0.19916
 C10 C 0.22450 0.20563 0.19591
 C11 C 0.22754 0.21834 0.18011
 C12 C 0.21491 0.23424 0.17685
 C13 C 0.19910 0.23731 0.18964
 H14 H 0.18706 0.18934 0.24925
 H15 H 0.17044 0.24010 0.21588
 H16 H 0.21584 0.17063 0.23998
 H17 H 0.24918 0.18725 0.18921
 H18 H 0.23991 0.21602 0.17048
 H19 H 0.18914 0.24937 0.18710
 C20 C 0.70552 0.69611 0.72462
 C21 C 0.68970 0.69934 0.73726
 C22 C 0.67689 0.71514 0.73421
 C23 C 0.68012 0.72778 0.71830
 C24 C 0.69590 0.72475 0.70556
 C25 C 0.70865 0.70885 0.70871
 C26 C 0.71825 0.68032 0.72765
 C27 C 0.73413 0.67708 0.71500
 C28 C 0.73716 0.68987 0.69918
 C29 C 0.72454 0.70570 0.69595
 C30 C 0.72755 0.71842 0.68014
 C31 C 0.71490 0.73431 0.67691
 C32 C 0.69911 0.73737 0.68972
 H33 H 0.68718 0.68938 0.74933
 H34 H 0.67047 0.74014 0.71599
 H35 H 0.71595 0.67069 0.74002
 H36 H 0.74921 0.68733 0.68920
 H37 H 0.73990 0.71610 0.67050
 H38 H 0.68914 0.74942 0.68718
 C39 C 0.29433 0.80415 0.72453
 C40 C 0.31015 0.80090 0.73718
 C41 C 0.32293 0.78507 0.73418
 C42 C 0.31970 0.77243 0.71831
 C43 C 0.30394 0.77548 0.70558
 C44 C 0.29117 0.79137 0.70873
 C45 C 0.28163 0.81996 0.72755
 C46 C 0.26555 0.82339 0.71499
 C47 C 0.26264 0.81033 0.69923
 C48 C 0.27525 0.79447 0.69606
 C49 C 0.27224 0.78173 0.68027
 C50 C 0.28490 0.76586 0.67701
 C51 C 0.30071 0.76284 0.68977
 H52 H 0.31269 0.81087 0.74922
 H53 H 0.32933 0.76006 0.71602
 H54 H 0.28399 0.82904 0.74027
 H55 H 0.25104 0.81278 0.68876
 H56 H 0.26016 0.78431 0.67035
 H57 H 0.31039 0.75049 0.68754
 C58 C 0.79449 0.30423 0.22451
 C59 C 0.81032 0.30106 0.23715
 C60 C 0.82327 0.28516 0.23439
 C61 C 0.81979 0.27249 0.21842
 C62 C 0.80402 0.27552 0.20568
 C63 C 0.79130 0.29142 0.20873
 C64 C 0.78171 0.31999 0.22752
 C65 C 0.76581 0.32319 0.21490
 C66 C 0.76277 0.31035 0.19915
 C67 C 0.77538 0.29451 0.19599
 C68 C 0.77237 0.28175 0.18024
 C69 C 0.78505 0.26589 0.17703
 C70 C 0.80085 0.26290 0.18983
 H71 H 0.81188 0.31067 0.24960
 H72 H 0.82975 0.26063 0.21521
 H73 H 0.78401 0.32967 0.23984
 H74 H 0.75071 0.31285 0.18918
 H75 H 0.76030 0.28431 0.17031
 H76 H 0.81052 0.25055 0.18762
 C77 C 0.79459 0.69602 0.27529
 C78 C 0.81044 0.69919 0.26267
 C79 C 0.82341 0.71506 0.26547
 C80 C 0.81990 0.72773 0.28144
 C81 C 0.80408 0.72472 0.29415
 C82 C 0.79138 0.70881 0.29108
 C83 C 0.78180 0.68028 0.27225
 C84 C 0.76586 0.67708 0.28485
 C85 C 0.76281 0.68989 0.30062
 C86 C 0.77546 0.70570 0.30383
 C87 C 0.77243 0.71844 0.31959
 C88 C 0.78508 0.73431 0.32281
 C89 C 0.80088 0.73733 0.31000
 H90 H 0.81202 0.68959 0.25021
 H91 H 0.82985 0.73958 0.28467
 H92 H 0.78411 0.67061 0.25991
 H93 H 0.75074 0.68739 0.31057
 H94 H 0.76005 0.71615 0.32923
 H95 H 0.81085 0.74938 0.31252
 C96 C 0.29461 0.19620 -0.22474
 C97 C 0.31048 0.19936 -0.23734
 C98 C 0.32355 0.21514 -0.23442
 C99 C 0.32011 0.22770 -0.21835
 C100 C 0.30429 0.22468 -0.20566
 C101 C 0.29150 0.20887 -0.20883
 C102 C 0.28187 0.18040 -0.22776
 C103 C 0.26599 0.17714 -0.21512
 C104 C 0.26295 0.18991 -0.19931
 C105 C 0.27559 0.20572 -0.19608
 C106 C 0.27254 0.21846 -0.18032
 C107 C 0.28518 0.23433 -0.17709
 C108 C 0.30102 0.23733 -0.18985
 H109 H 0.31295 0.18889 -0.24893
 H110 H 0.32920 0.24042 -0.21598
 H111 H 0.28446 0.17048 -0.23983
 H112 H 0.25060 0.18767 -0.18964
 H113 H 0.26015 0.21617 -0.17070
 H114 H 0.31100 0.24937 -0.18730
 C115 C 0.70571 0.30354 -0.22464
 C116 C 0.68991 0.30031 -0.23729
 C117 C 0.67689 0.28450 -0.23439
 C118 C 0.68029 0.27196 -0.21828
 C119 C 0.69605 0.27503 -0.20554
 C120 C 0.70883 0.29085 -0.20872
 C121 C 0.71842 0.31937 -0.22764
 C122 C 0.73427 0.32265 -0.21498
 C123 C 0.73732 0.30985 -0.19918
 C124 C 0.72473 0.29400 -0.19598
 C125 C 0.72774 0.28128 -0.18018
 C126 C 0.71509 0.26541 -0.17692
 C127 C 0.69928 0.26239 -0.18970
 H128 H 0.68746 0.31077 -0.24890
 H129 H 0.67123 0.25921 -0.21592
 H130 H 0.71613 0.32901 -0.24001
 H131 H 0.74936 0.31240 -0.18921
 H132 H 0.73981 0.28388 -0.17026
 H133 H 0.68961 0.25005 -0.18744
 C134 C 0.20555 0.80398 0.27531
 C135 C 0.18974 0.80073 0.26265
 C136 C 0.17698 0.78488 0.26564
 C137 C 0.18021 0.77222 0.28151
 C138 C 0.19596 0.77527 0.29426
 C139 C 0.20871 0.79118 0.29112
 C140 C 0.21827 0.81977 0.27226
 C141 C 0.23434 0.82319 0.28482
 C142 C 0.23723 0.81014 0.30062
 C143 C 0.22461 0.79429 0.30380
 C144 C 0.22760 0.78156 0.31962
 C145 C 0.21494 0.76570 0.32290
 C146 C 0.19914 0.76266 0.31011
 H147 H 0.18750 0.81041 0.25031
 H148 H 0.17030 0.76013 0.28409
 H149 H 0.21592 0.82884 0.25951
 H150 H 0.24881 0.81259 0.31109
 H151 H 0.23966 0.78414 0.32955
 H152 H 0.18946 0.75032 0.31236
 C153 C 0.44610 0.45552 0.47490
 C154 C 0.44933 0.43968 0.48753
 C155 C 0.46516 0.42691 0.48451
 C156 C 0.47782 0.43017 0.46863
 C157 C 0.47478 0.44596 0.45589
 C158 C 0.45886 0.45868 0.45902
 C159 C 0.43033 0.46826 0.47794
 C160 C 0.42709 0.48416 0.46530
 C161 C 0.43988 0.48720 0.44949
 C162 C 0.45571 0.47458 0.44626
 C163 C 0.46842 0.47760 0.43045
 C164 C 0.48431 0.46495 0.42721
 C165 C 0.48738 0.44916 0.44003
 H166 H 0.43966 0.43743 0.49988
 H167 H 0.48990 0.42025 0.46603
 H168 H 0.42069 0.46595 0.49031
 H169 H 0.43734 0.49926 0.43952
 H170 H 0.46610 0.48996 0.42081
 H171 H 0.49944 0.43920 0.43750
 C172 C -0.05371 -0.04438 0.97463
 C173 C -0.05054 -0.06029 0.98721
 C174 C -0.03476 -0.07311 0.98415
 C175 C -0.02210 -0.06985 0.96829
 C176 C -0.02511 -0.05404 0.95558
 C177 C -0.04101 -0.04128 0.95873
 C178 C -0.06947 -0.03162 0.97772
 C179 C -0.07295 -0.01559 0.96510
 C180 C -0.06001 -0.01278 0.94920
 C181 C -0.04420 -0.02544 0.94597
 C182 C -0.03143 -0.02239 0.93020
 C183 C -0.01555 -0.03503 0.92695
 C184 C -0.01251 -0.05084 0.93973
 H185 H -0.06021 -0.06254 0.99956
 H186 H -0.01004 -0.07980 0.96568
 H187 H -0.07941 -0.03486 0.98959
 H188 H -0.06157 -0.00029 0.93962
 H189 H -0.03373 -0.01002 0.92056
 H190 H -0.00046 -0.06082 0.93719
 C191 C 1.05382 0.54427 0.97463
 C192 C 1.05059 0.56009 0.98729
 C193 C 1.03478 0.57312 0.98443
 C194 C 1.02224 0.56972 0.96835
 C195 C 1.02530 0.55395 0.95563
 C196 C 1.04111 0.54114 0.95881
 C197 C 1.06965 0.53156 0.97764
 C198 C 1.07309 0.51549 0.96509
 C199 C 1.06004 0.51259 0.94931
 C200 C 1.04420 0.52522 0.94614
 C201 C 1.03149 0.52222 0.93034
 C202 C 1.01564 0.53489 0.92707
 C203 C 1.01264 0.55071 0.93982
 H204 H 1.06106 0.56256 0.99887
 H205 H 1.00949 0.57880 0.96600
 H206 H 1.07872 0.53390 0.99037
 H207 H 1.06250 0.50099 0.93885
 H208 H 1.03406 0.51013 0.92042
 H209 H 1.00031 0.56040 0.93756
 C210 C 0.55398 0.04417 0.47459
 C211 C 0.55079 0.06003 0.48720
 C212 C 0.53499 0.07284 0.48420
 C213 C 0.52234 0.06964 0.46834
 C214 C 0.52538 0.05389 0.45557
 C215 C 0.54128 0.04112 0.45870
 C216 C 0.56979 0.03146 0.47759
 C217 C 0.57330 0.01549 0.46492
 C218 C 0.56032 0.01269 0.44906
 C219 C 0.54446 0.02530 0.44592
 C220 C 0.53166 0.02226 0.43019
 C221 C 0.51576 0.03489 0.42699
 C222 C 0.51274 0.05069 0.43977
 H223 H 0.56075 0.06254 0.49925
 H224 H 0.50997 0.07928 0.46606
 H225 H 0.57975 0.03469 0.48943
 H226 H 0.56190 0.00023 0.43946
 H227 H 0.53425 0.01021 0.42024
 H228 H 0.50038 0.06036 0.43756
 C229 C -0.05405 0.04460 0.52535
 C230 C -0.05086 0.06047 0.51276
 C231 C -0.03509 0.07329 0.51581
 C232 C -0.02244 0.07005 0.53169
 C233 C -0.02544 0.05424 0.54441
 C234 C -0.04132 0.04147 0.54126
 C235 C -0.06982 0.03185 0.52233
 C236 C -0.07305 0.01596 0.53498
 C237 C -0.06028 0.01293 0.55080
 C238 C -0.04446 0.02557 0.55402
 C239 C -0.03171 0.02252 0.56978
 C240 C -0.01583 0.03517 0.57300
 C241 C -0.01281 0.05100 0.56022
 H242 H -0.06083 0.06300 0.50071
 H243 H -0.01010 0.07971 0.53400
 H244 H -0.07974 0.03445 0.51026
 H245 H -0.06251 0.00057 0.56047
 H246 H -0.03400 0.01014 0.57941
 H247 H -0.00076 0.06098 0.56275
 C248 C 0.44593 0.54461 0.02528
 C249 C 0.44916 0.56045 0.01265
 C250 C 0.46494 0.57349 0.01557
 C251 C 0.47747 0.57006 0.03166
 C252 C 0.47442 0.55425 0.04437
 C253 C 0.45860 0.54148 0.04120
 C254 C 0.43013 0.53189 0.02226
 C255 C 0.42686 0.51599 0.03490
 C256 C 0.43963 0.51293 0.05071
 C257 C 0.45544 0.52557 0.05395
 C258 C 0.46814 0.52253 0.06974
 C259 C 0.48401 0.53517 0.07299
 C260 C 0.48704 0.55099 0.06020
 H261 H 0.43871 0.56291 0.00104
 H262 H 0.49021 0.57914 0.03404
 H263 H 0.42051 0.53419 0.00989
 H264 H 0.43708 0.50087 0.06067
 H265 H 0.46582 0.51016 0.07937
 H266 H 0.49909 0.56096 0.06276
 C267 C 0.55411 -0.04444 0.02563
 C268 C 0.55086 -0.06023 0.01298
 C269 C 0.53502 -0.07300 0.01600
 C270 C 0.52239 -0.06978 0.03190
 C271 C 0.52546 -0.05405 0.04468
 C272 C 0.54136 -0.04130 0.04153
 C273 C 0.56993 -0.03174 0.02264
 C274 C 0.57320 -0.01589 0.03531
 C275 C 0.56039 -0.01284 0.05110
 C276 C 0.54451 -0.02542 0.05428
 C277 C 0.53178 -0.02240 0.07007
 C278 C 0.51589 -0.03504 0.07331
 C279 C 0.51284 -0.05083 0.06051
 H280 H 0.56082 -0.06275 0.00092
 H281 H 0.51001 -0.07940 0.03420
 H282 H 0.57957 -0.03404 0.01027
 H283 H 0.56294 -0.00081 0.06108
 H284 H 0.53439 -0.01035 0.08001
 H285 H 0.50048 -0.06049 0.06274
 C286 C 1.05375 0.45562 0.52522
 C287 C 1.05052 0.43984 0.51255
 C288 C 1.03472 0.42680 0.51543
 C289 C 1.02219 0.43016 0.53155
 C290 C 1.02526 0.44590 0.54431
 C291 C 1.04107 0.45870 0.54114
 C292 C 1.06956 0.46835 0.52223
 C293 C 1.07284 0.48419 0.53491
 C294 C 1.06005 0.48720 0.55072
 C295 C 1.04421 0.47459 0.55391
 C296 C 1.03150 0.47757 0.56971
 C297 C 1.01564 0.46490 0.57296
 C298 C 1.01263 0.44911 0.56016
 H299 H 1.06098 0.43741 0.50093
 H300 H 1.00945 0.42109 0.53391
 H301 H 1.07919 0.46608 0.50985
 H302 H 1.06259 0.49923 0.56070
 H303 H 1.03409 0.48963 0.57965
 H304 H 1.00029 0.43942 0.56241
 C305 C 0.40472 0.00908 0.22389
 H306 H 0.40549 0.02233 0.23249
 C307 C 0.41750 0.00636 0.20820
 H308 H 0.42811 0.01755 0.20462
 C309 C 0.39015 -0.02186 0.21817
 H310 H 0.37970 -0.03296 0.22228
 C311 C 0.40266 -0.02517 0.20238
 H312 H 0.40167 -0.03872 0.19425
 N313 N 0.39124 -0.00484 0.22842
 C314 C 0.34490 0.02621 0.25935
 H315 H 0.34410 0.01761 0.27261
 C316 C 0.33216 0.04193 0.25660
 H317 H 0.32154 0.04553 0.26779
 C318 C 0.35952 0.03191 0.22842
 H319 H 0.36997 0.02778 0.21734
 C320 C 0.34705 0.04773 0.22509
 H321 H 0.34807 0.05586 0.21153
 Zn322 Zn 0.37479 -0.00014 0.25018
 N323 N 0.35838 0.02165 0.24545
 C324 C 0.39007 0.02158 0.28221
 N325 N 0.39118 0.00455 0.27197
 C326 C 0.40464 -0.00938 0.27653
 C327 C 0.41738 -0.00665 0.29224
 C328 C 0.40254 0.02489 0.29803
 C329 C 0.34492 -0.02646 0.24093
 C330 C 0.33217 -0.04217 0.24364
 C331 C 0.34695 -0.04801 0.27518
 C332 C 0.35944 -0.03219 0.27189
 N333 N 0.35836 -0.02192 0.25487
 H334 H 0.37964 0.03268 0.27809
 H335 H 0.40542 -0.02262 0.26794
 H336 H 0.42799 -0.01785 0.29583
 H337 H 0.40154 0.03844 0.30614
 H338 H 0.34416 -0.01785 0.22769
 H339 H 0.32158 -0.04575 0.23243
 H340 H 0.34793 -0.05616 0.28873
 H341 H 0.36985 -0.02808 0.28300
 C342 C 0.33329 0.05281 0.23933
 C343 C 0.41641 -0.01091 0.19732
 C344 C 0.33324 -0.05307 0.26090
 C345 C 0.41628 0.01062 0.30310
 C346 C 0.09532 -0.00911 0.72350
 H347 H 0.09456 -0.02237 0.73209
 C348 C 0.08256 -0.00637 0.70781
 H349 H 0.07196 -0.01758 0.70423
 C350 C 0.10985 0.02186 0.71780
 H351 H 0.12028 0.03297 0.72191
 C352 C 0.09736 0.02518 0.70200
 H353 H 0.09834 0.03875 0.69388
 N354 N 0.10877 0.00482 0.72804
 C355 C 0.15511 -0.02623 0.75897
 H356 H 0.15589 -0.01765 0.77222
 C357 C 0.16786 -0.04194 0.75622
 H358 H 0.17847 -0.04555 0.76741
 C359 C 0.14054 -0.03189 0.72804
 H360 H 0.13010 -0.02776 0.71695
 C361 C 0.15302 -0.04771 0.72470
 H362 H 0.15202 -0.05582 0.71115
 Zn363 Zn 0.12521 0.00010 0.74980
 N364 N 0.14165 -0.02167 0.74506
 C365 C 0.10993 -0.02169 0.78182
 N366 N 0.10880 -0.00465 0.77159
 C367 C 0.09533 0.00926 0.77617
 C368 C 0.08259 0.00649 0.79188
 C369 C 0.09745 -0.02504 0.79764
 C370 C 0.15506 0.02648 0.74058
 C371 C 0.16780 0.04220 0.74331
 C372 C 0.15298 0.04793 0.77486
 C373 C 0.14051 0.03211 0.77154
 N374 N 0.14161 0.02189 0.75451
 H375 H 0.12037 -0.03278 0.77768
 H376 H 0.09454 0.02252 0.76758
 H377 H 0.07198 0.01768 0.79549
 H378 H 0.09847 -0.03861 0.80576
 H379 H 0.15584 0.01791 0.72732
 H380 H 0.17839 0.04582 0.73210
 H381 H 0.15198 0.05603 0.78842
 H382 H 0.13008 0.02796 0.78264
 C383 C 0.16676 -0.05280 0.73895
 C384 C 0.08363 0.01091 0.69694
 C385 C 0.16670 0.05304 0.76059
 C386 C 0.08371 -0.01080 0.80274
 C387 C 0.59496 0.49097 0.22366
 H388 H 0.59421 0.47771 0.23225
 C389 C 0.58220 0.49371 0.20796
 H390 H 0.57161 0.48250 0.20438
 C391 C 0.60950 0.52194 0.21795
 H392 H 0.61993 0.53304 0.22206
 C393 C 0.59700 0.52526 0.20216
 H394 H 0.59799 0.53883 0.19403
 N395 N 0.60842 0.50490 0.22820
 C396 C 0.65480 0.47385 0.25906
 H397 H 0.65559 0.48242 0.27232
 C398 C 0.66755 0.45815 0.25629
 H399 H 0.67818 0.45454 0.26746
 C400 C 0.64019 0.46820 0.22814
 H401 H 0.62974 0.47233 0.21707
 C402 C 0.65268 0.45239 0.22479
 H403 H 0.65167 0.44429 0.21123
 Zn404 Zn 0.62487 0.50017 0.24994
 N405 N 0.64131 0.47841 0.24517
 C406 C 0.60964 0.47836 0.28196
 N407 N 0.60849 0.49541 0.27174
 C408 C 0.59502 0.50931 0.27634
 C409 C 0.58230 0.50653 0.29207
 C410 C 0.59718 0.47500 0.29780
 C411 C 0.65472 0.52654 0.24069
 C412 C 0.66747 0.54225 0.24341
 C413 C 0.65267 0.54801 0.27496
 C414 C 0.64019 0.53219 0.27166
 N415 N 0.64128 0.52197 0.25463
 H416 H 0.62007 0.46728 0.27781
 H417 H 0.59421 0.52258 0.26777
 H418 H 0.57169 0.51772 0.29570
 H419 H 0.59821 0.46143 0.30590
 H420 H 0.65549 0.51796 0.22744
 H421 H 0.67806 0.54586 0.23220
 H422 H 0.65168 0.55612 0.28852
 H423 H 0.62977 0.52806 0.28277
 C424 C 0.66644 0.44730 0.23901
 C425 C 0.58328 0.51099 0.19709
 C426 C 0.66639 0.55311 0.26069
 C427 C 0.58344 0.48924 0.30292
 C428 C 0.90478 0.50909 0.72371
 H429 H 0.90556 0.52236 0.73228
 C430 C 0.91752 0.50633 0.70800
 H431 H 0.92813 0.51752 0.70438
 C432 C 0.89019 0.47814 0.71810
 H433 H 0.87976 0.46705 0.72225
 C434 C 0.90267 0.47480 0.70228
 H435 H 0.90166 0.46123 0.69418
 N436 N 0.89131 0.49518 0.72830
 C437 C 0.84502 0.52631 0.75925
 H438 H 0.84423 0.51773 0.77251
 C439 C 0.83229 0.54203 0.75650
 H440 H 0.82168 0.54564 0.76769
 C441 C 0.85960 0.53196 0.72829
 H442 H 0.87004 0.52781 0.71720
 C443 C 0.84713 0.54778 0.72496
 H444 H 0.84814 0.55590 0.71139
 Zn445 Zn 0.87489 0.49993 0.75008
 N446 N 0.85848 0.52173 0.74534
 C447 C 0.89021 0.52168 0.78206
 N448 N 0.89131 0.50465 0.77184
 C449 C 0.90475 0.49071 0.77642
 C450 C 0.91750 0.49344 0.79212
 C451 C 0.90268 0.52500 0.79787
 C452 C 0.84499 0.47361 0.74091
 C453 C 0.83225 0.45789 0.74365
 C454 C 0.84708 0.45209 0.77518
 C455 C 0.85955 0.46791 0.77185
 N456 N 0.85845 0.47816 0.75482
 H457 H 0.87978 0.53279 0.77793
 H458 H 0.90553 0.47745 0.76784
 H459 H 0.92809 0.48224 0.79573
 H460 H 0.90169 0.53856 0.80598
 H461 H 0.84422 0.48221 0.72766
 H462 H 0.82165 0.45430 0.73246
 H463 H 0.84808 0.44396 0.78873
 H464 H 0.86999 0.47203 0.78294
 C465 C 0.83340 0.55289 0.73921
 C466 C 0.91641 0.48905 0.69717
 C467 C 0.83335 0.44701 0.76092
 C468 C 0.91641 0.51073 0.80297
 C469 C 0.22348 0.40505 0.00900
 H470 H 0.23206 0.40581 0.02225
 C471 C 0.20776 0.41779 0.00627
 H472 H 0.20415 0.42837 0.01747
 C473 C 0.21784 0.39051 -0.02195
 H474 H 0.22198 0.38010 -0.03305
 C475 C 0.20201 0.40299 -0.02527
 H476 H 0.19390 0.40200 -0.03883
 N477 N 0.22807 0.39161 -0.00493
 C478 C 0.25906 0.34527 0.02610
 H479 H 0.27232 0.34451 0.01751
 C480 C 0.25633 0.33250 0.04180
 H481 H 0.26754 0.32190 0.04539
 C482 C 0.22810 0.35981 0.03179
 H483 H 0.21700 0.37025 0.02767
 C484 C 0.22478 0.34731 0.04760
 H485 H 0.21122 0.34829 0.05572
 Zn486 Zn 0.24985 0.37519 -0.00021
 N487 N 0.24513 0.35873 0.02155
 C488 C 0.28185 0.39050 0.02154
 N489 N 0.27162 0.39162 0.00452
 C490 C 0.27618 0.40510 -0.00939
 C491 C 0.29188 0.41785 -0.00665
 C492 C 0.29766 0.40298 0.02487
 C493 C 0.24070 0.34533 -0.02657
 C494 C 0.24346 0.33260 -0.04228
 C495 C 0.27499 0.34746 -0.04805
 C496 C 0.27164 0.35993 -0.03223
 N497 N 0.25460 0.35880 -0.02200
 H498 H 0.27772 0.38004 0.03263
 H499 H 0.26759 0.40590 -0.02264
 H500 H 0.29548 0.42847 -0.01784
 H501 H 0.30577 0.40196 0.03843
 H502 H 0.22744 0.34453 -0.01799
 H503 H 0.23228 0.32199 -0.04588
 H504 H 0.28855 0.34848 -0.05616
 H505 H 0.28272 0.37037 -0.02810
 C506 C 0.23905 0.33357 0.05267
 C507 C 0.19691 0.41670 -0.01100
 C508 C 0.26075 0.33372 -0.05314
 C509 C 0.30274 0.41673 0.01062
 C510 C 0.72413 0.09482 -0.00884
 H511 H 0.73272 0.09404 -0.02210
 C512 C 0.70843 0.08207 -0.00608
 H513 H 0.70483 0.07145 -0.01726
 C514 C 0.71844 0.10941 0.02208
 H515 H 0.72256 0.11986 0.03316
 C516 C 0.70263 0.09692 0.02543
 H517 H 0.69451 0.09793 0.03899
 N518 N 0.72868 0.10830 0.00505
 C519 C 0.75953 0.15464 -0.02614
 H520 H 0.77279 0.15545 -0.01758
 C521 C 0.75674 0.16736 -0.04186
 H522 H 0.76791 0.17798 -0.04550
 C523 C 0.72860 0.14000 -0.03173
 H524 H 0.71753 0.12955 -0.02756
 C525 C 0.72523 0.15246 -0.04756
 H526 H 0.71166 0.15142 -0.05565
 Zn527 Zn 0.75042 0.12476 0.00028
 N528 N 0.74564 0.14115 -0.02152
 C529 C 0.78244 0.10948 -0.02150
 N530 N 0.77223 0.10838 -0.00445
 C531 C 0.77686 0.09495 0.00949
 C532 C 0.79259 0.08223 0.00675
 C533 C 0.79828 0.09703 -0.02483
 C534 C 0.74116 0.15466 0.02655
 C535 C 0.74386 0.16743 0.04223
 C536 C 0.77543 0.15268 0.04804
 C537 C 0.77214 0.14017 0.03225
 N538 N 0.75511 0.14122 0.02201
 H539 H 0.77826 0.11989 -0.03261
 H540 H 0.76829 0.09417 0.02277
 H541 H 0.79623 0.07165 0.01796
 H542 H 0.80636 0.09802 -0.03841
 H543 H 0.72790 0.15540 0.01797
 H544 H 0.73264 0.17802 0.04581
 H545 H 0.78899 0.15172 0.05616
 H546 H 0.78326 0.12975 0.02814
 C547 C 0.73945 0.16621 -0.05269
 C548 C 0.69756 0.08318 0.01119
 C549 C 0.76113 0.16639 0.05310
 C550 C 0.80342 0.08333 -0.01056
 C551 C 0.22368 0.59508 0.49092
 H552 H 0.23230 0.59430 0.47768
 C553 C 0.20798 0.58232 0.49365
 H554 H 0.20441 0.57171 0.48246
 C555 C 0.21795 0.60965 0.52185
 H556 H 0.22204 0.62009 0.53294
 C557 C 0.20213 0.59715 0.52516
 H558 H 0.19399 0.59815 0.53871
 N559 N 0.22821 0.60855 0.50484
 C560 C 0.25916 0.65487 0.47373
 H561 H 0.27241 0.65567 0.48232
 C562 C 0.25641 0.66761 0.45801
 H563 H 0.26760 0.67823 0.45440
 C564 C 0.22822 0.64028 0.46809
 H565 H 0.21713 0.62984 0.47224
 C566 C 0.22489 0.65276 0.45227
 H567 H 0.21133 0.65174 0.44416
 Zn568 Zn 0.24998 0.62499 0.50011
 N569 N 0.24525 0.64140 0.47832
 C570 C 0.28202 0.60969 0.47838
 N571 N 0.27177 0.60859 0.49541
 C572 C 0.27634 0.59513 0.50934
 C573 C 0.29206 0.58239 0.50662
 C574 C 0.29785 0.59722 0.47508
 C575 C 0.24072 0.65487 0.52643
 C576 C 0.24344 0.66762 0.54212
 C577 C 0.27499 0.65282 0.54791
 C578 C 0.27169 0.64033 0.53211
 N579 N 0.25466 0.64142 0.52187
 H580 H 0.27790 0.62012 0.46728
 H581 H 0.26774 0.59435 0.52259
 H582 H 0.29565 0.57179 0.51783
 H583 H 0.30598 0.59822 0.46152
 H584 H 0.22747 0.65563 0.51784
 H585 H 0.23223 0.67822 0.54571
 H586 H 0.28855 0.65184 0.55603
 H587 H 0.28280 0.62991 0.52799
 C588 C 0.23914 0.66650 0.44716
 C589 C 0.19708 0.58342 0.51091
 C590 C 0.26071 0.66654 0.55298
 C591 C 0.30293 0.58349 0.48935
 C592 C 0.72364 0.90502 0.50892
 H593 H 0.73220 0.90580 0.52218
 C594 C 0.70793 0.91777 0.50616
 H595 H 0.70431 0.92837 0.51735
 C596 C 0.71801 0.89047 0.47797
 H597 H 0.72216 0.88004 0.46688
 C598 C 0.70220 0.90295 0.47462
 H599 H 0.69410 0.90195 0.46106
 N600 N 0.72822 0.89156 0.49501
 C601 C 0.75913 0.84523 0.52612
 H602 H 0.77240 0.84445 0.51755
 C603 C 0.75636 0.83248 0.54183
 H604 H 0.76754 0.82187 0.54545
 C605 C 0.72817 0.85981 0.53175
 H606 H 0.71709 0.87025 0.52761
 C607 C 0.72482 0.84733 0.54757
 H608 H 0.71124 0.84833 0.55567
 Zn609 Zn 0.74999 0.87513 0.49976
 N610 N 0.74522 0.85870 0.52154
 C611 C 0.78197 0.89042 0.52155
 N612 N 0.77176 0.89154 0.50451
 C613 C 0.77636 0.90500 0.49059
 C614 C 0.79206 0.91775 0.49334
 C615 C 0.79778 0.90290 0.52489
 C616 C 0.74082 0.84526 0.47343
 C617 C 0.74357 0.83252 0.45772
 C618 C 0.77512 0.84734 0.45197
 C619 C 0.77178 0.85981 0.46778
 N620 N 0.75474 0.85871 0.47800
 H621 H 0.77781 0.87999 0.53264
 H622 H 0.76779 0.90579 0.47732
 H623 H 0.79569 0.92835 0.48215
 H624 H 0.80587 0.90189 0.53846
 H625 H 0.72755 0.84448 0.48200
 H626 H 0.73237 0.82192 0.45412
 H627 H 0.78869 0.84833 0.44386
 H628 H 0.78288 0.87024 0.47191
 C629 C 0.73906 0.83358 0.55267
 C630 C 0.69709 0.91668 0.48887
 C631 C 0.76086 0.83361 0.44687
 C632 C 0.80289 0.91664 0.51063
 C633 C 0.00894 0.22412 0.40483
 H634 H 0.02219 0.23271 0.40559
 C635 C 0.00621 0.20842 0.41760
 H636 H 0.01740 0.20484 0.42821
 C637 C -0.02200 0.21841 0.39027
 H638 H -0.03309 0.22253 0.37983
 C639 C -0.02532 0.20261 0.40278
 H640 H -0.03887 0.19448 0.40179
 N641 N -0.00497 0.22866 0.39136
 C642 C 0.02613 0.25957 0.34500
 H643 H 0.01755 0.27283 0.34420
 C644 C 0.04184 0.25680 0.33226
 H645 H 0.04545 0.26798 0.32164
 C646 C 0.03177 0.22863 0.35963
 H647 H 0.02763 0.21754 0.37008
 C648 C 0.04759 0.22527 0.34715
 H649 H 0.05570 0.21170 0.34817
 Zn650 Zn -0.00024 0.25042 0.37489
 N651 N 0.02155 0.24567 0.35849
 C652 C 0.02150 0.28246 0.39015
 N653 N 0.00447 0.27222 0.39127
 C654 C -0.00946 0.27680 0.40472
 C655 C -0.00673 0.29251 0.41745
 C656 C 0.02482 0.29828 0.40261
 C657 C -0.02656 0.24118 0.34503
 C658 C -0.04226 0.24390 0.33228
 C659 C -0.04806 0.27546 0.34705
 C660 C -0.03225 0.27215 0.35954
 N661 N -0.02201 0.25512 0.35846
 H662 H 0.03260 0.27832 0.37973
 H663 H -0.02272 0.26821 0.40551
 H664 H -0.01793 0.29612 0.42804
 H665 H 0.03838 0.30639 0.40161
 H666 H -0.01797 0.22792 0.34428
 H667 H -0.04585 0.23268 0.32170
 H668 H -0.05618 0.28902 0.34802
 H669 H -0.02813 0.28326 0.36995
 C670 C 0.05269 0.23951 0.33339
 C671 C -0.01106 0.19754 0.41652
 C672 C -0.05313 0.26118 0.33335
 C673 C 0.01055 0.30337 0.41634
 C674 C -0.00924 0.72328 0.09508
 H675 H -0.02248 0.73188 0.09431
 C676 C -0.00653 0.70756 0.08235
 H677 H -0.01774 0.70397 0.07177
 C678 C 0.02173 0.71758 0.10960
 H679 H 0.03284 0.72170 0.12001
 C680 C 0.02502 0.70175 0.09713
 H681 H 0.03857 0.69362 0.09811
 N682 N 0.00470 0.72783 0.10851
 C683 C -0.02627 0.75889 0.15481
 H684 H -0.01767 0.77214 0.15555
 C685 C -0.04197 0.75619 0.16758
 H686 H -0.04555 0.76740 0.17817
 C687 C -0.03200 0.72793 0.14030
 H688 H -0.02789 0.71682 0.12988
 C689 C -0.04780 0.72464 0.15281
 H690 H -0.05594 0.71109 0.15185
 Zn691 Zn 0.00002 0.74963 0.12490
 N692 N -0.02174 0.74495 0.14137
 C693 C -0.02172 0.78167 0.10958
 N694 N -0.00470 0.77141 0.10846
 C695 C 0.00921 0.77595 0.09497
 C696 C 0.00648 0.79166 0.08221
 C697 C -0.02504 0.79749 0.09709
 C698 C 0.02641 0.74044 0.15474
 C699 C 0.04213 0.74319 0.16746
 C700 C 0.04788 0.77473 0.15258
 C701 C 0.03206 0.77139 0.14013
 N702 N 0.02183 0.75436 0.14127
 H703 H -0.03281 0.77756 0.12003
 H704 H 0.02245 0.76734 0.09418
 H705 H 0.01767 0.79524 0.07159
 H706 H -0.03858 0.80563 0.09810
 H707 H 0.01782 0.72718 0.15555
 H708 H 0.04574 0.73200 0.17807
 H709 H 0.05599 0.78829 0.15156
 H710 H 0.02791 0.78248 0.12969
 C711 C -0.05286 0.73892 0.16653
 C712 C 0.01074 0.69668 0.08343
 C713 C 0.05298 0.76047 0.16633
 C714 C -0.01079 0.80255 0.08333
 C715 C 0.49106 0.22343 0.59537
 H716 H 0.47782 0.23204 0.59463
 C717 C 0.49376 0.20773 0.58261
 H718 H 0.48254 0.20416 0.57203
 C719 C 0.52203 0.21769 0.60986
 H720 H 0.53315 0.22179 0.62027
 C721 C 0.52531 0.20188 0.59736
 H722 H 0.53886 0.19374 0.59833
 N723 N 0.50501 0.22796 0.60880
 C724 C 0.47406 0.25893 0.65517
 H725 H 0.48267 0.27217 0.65595
 C726 C 0.45835 0.25621 0.66793
 H727 H 0.45477 0.26740 0.67854
 C728 C 0.46832 0.22800 0.64060
 H729 H 0.47241 0.21690 0.63016
 C730 C 0.45250 0.22469 0.65310
 H731 H 0.44435 0.21115 0.65209
 Zn732 Zn 0.50035 0.24972 0.62524
 N733 N 0.47858 0.24501 0.64170
 C734 C 0.47860 0.28178 0.60999
 N735 N 0.49562 0.27153 0.60885
 C736 C 0.50953 0.27610 0.59537
 C737 C 0.50678 0.29183 0.58263
 C738 C 0.47527 0.29762 0.59752
 C739 C 0.52672 0.24045 0.65506
 C740 C 0.54245 0.24315 0.66778
 C741 C 0.54824 0.27471 0.65296
 C742 C 0.53241 0.27142 0.64051
 N743 N 0.52215 0.25439 0.64162
 H744 H 0.46752 0.27765 0.62044
 H745 H 0.52278 0.26750 0.59456
 H746 H 0.51797 0.29543 0.57201
 H747 H 0.46172 0.30574 0.59855
 H748 H 0.51812 0.22720 0.65584
 H749 H 0.54605 0.23193 0.67837
 H750 H 0.55637 0.28826 0.65196
 H751 H 0.52828 0.28253 0.63009
 C752 C 0.44745 0.23895 0.66684
 C753 C 0.51102 0.19684 0.58366
 C754 C 0.55332 0.26042 0.66668
 C755 C 0.48951 0.30270 0.58376
 C756 C 0.50905 0.72383 0.90500
 H757 H 0.52231 0.73242 0.90576
 C758 C 0.50632 0.70812 0.91776
 H759 H 0.51752 0.70452 0.92836
 C760 C 0.47811 0.71815 0.89045
 H761 H 0.46701 0.72227 0.88002
 C762 C 0.47479 0.70233 0.90295
 H763 H 0.46123 0.69421 0.90196
 N764 N 0.49514 0.72839 0.89154
 C765 C 0.52620 0.75934 0.84519
 H766 H 0.51761 0.77259 0.84440
 C767 C 0.54191 0.75659 0.83244
 H768 H 0.54551 0.76778 0.82182
 C769 C 0.53188 0.72839 0.85980
 H770 H 0.52775 0.71730 0.87025
 C771 C 0.54769 0.72506 0.84732
 H772 H 0.55581 0.71149 0.84833
 Zn773 Zn 0.49986 0.75016 0.87509
 N774 N 0.52164 0.74543 0.85867
 C775 C 0.52161 0.78219 0.89036
 N776 N 0.50458 0.77195 0.89148
 C777 C 0.49065 0.77653 0.90493
 C778 C 0.49339 0.79224 0.91766
 C779 C 0.52494 0.79800 0.90282
 C780 C 0.47353 0.74094 0.84523
 C781 C 0.45783 0.74366 0.83249
 C782 C 0.45202 0.77521 0.84728
 C783 C 0.46783 0.77190 0.85976
 N784 N 0.47808 0.75487 0.85867
 H785 H 0.53271 0.77805 0.87993
 H786 H 0.47739 0.76795 0.90572
 H787 H 0.48220 0.79585 0.92827
 H788 H 0.53850 0.80611 0.90182
 H789 H 0.48213 0.72768 0.84447
 H790 H 0.45424 0.73245 0.82190
 H791 H 0.44389 0.78876 0.84826
 H792 H 0.47195 0.78300 0.87018
 C793 C 0.55278 0.73931 0.83356
 C794 C 0.48905 0.69725 0.91667
 C795 C 0.44695 0.76093 0.83357
 C796 C 0.51068 0.80310 0.91656
 C797 C 0.12589 0.22692 0.25273
 C798 C 0.12830 0.22468 0.27291
 C799 C 0.14655 0.21933 0.28044
 C800 C 0.16233 0.21621 0.26784
 C801 C 0.16006 0.21842 0.24752
 C802 C 0.14165 0.22382 0.24010
 C803 C 0.11205 0.22786 0.28590
 C804 C 0.09844 0.23053 0.29677
 C805 C 0.08252 0.23367 0.30951
 C806 C 0.06892 0.23634 0.32039
 H807 H 0.11181 0.23101 0.24674
 H808 H 0.14859 0.21761 0.29604
 H809 H 0.17638 0.21231 0.27400
 H810 H 0.13939 0.22540 0.22452
 C811 C 0.62596 0.72689 0.75287
 C812 C 0.62840 0.72465 0.77306
 C813 C 0.64666 0.71932 0.78056
 C814 C 0.66244 0.71622 0.76795
 C815 C 0.66015 0.71844 0.74763
 C816 C 0.64173 0.72382 0.74023
 C817 C 0.61215 0.72779 0.78606
 C818 C 0.59855 0.73043 0.79694
 C819 C 0.58261 0.73352 0.80967
 C820 C 0.56901 0.73615 0.82056
 H821 H 0.61187 0.73096 0.74690
 H822 H 0.64872 0.71759 0.79617
 H823 H 0.67650 0.71234 0.77410
 H824 H 0.63944 0.72539 0.72465
 C825 C 0.35312 0.78093 0.78054
 C826 C 0.37138 0.77556 0.77304
 C827 C 0.37383 0.77328 0.75287
 C828 C 0.35808 0.77636 0.74022
 C829 C 0.33966 0.78177 0.74761
 C830 C 0.33736 0.78403 0.76792
 C831 C 0.38761 0.77239 0.78605
 C832 C 0.40120 0.76975 0.79694
 C833 C 0.41712 0.76667 0.80968
 C834 C 0.43072 0.76405 0.82057
 H835 H 0.35106 0.78268 0.79614
 H836 H 0.38791 0.76918 0.74691
 H837 H 0.36037 0.77475 0.72464
 H838 H 0.32330 0.78794 0.77406
 C839 C -0.13638 0.29455 0.27037
 C840 C -0.12872 0.27579 0.27285
 C841 C -0.13689 0.26012 0.26266
 C842 C -0.15264 0.26314 0.25002
 C843 C -0.16067 0.28203 0.24726
 C844 C -0.15215 0.29768 0.25778
 C845 C -0.11248 0.27263 0.28584
 C846 C -0.09888 0.26999 0.29672
 C847 C -0.08296 0.26691 0.30946
 C848 C -0.06936 0.26429 0.32034
 H849 H -0.13004 0.30685 0.27808
 H850 H -0.13117 0.24547 0.26461
 H851 H -0.15889 0.25038 0.24311
 H852 H -0.15697 0.31260 0.25581
 C853 C -0.13617 0.70563 0.22952
 C854 C -0.12850 0.72439 0.22706
 C855 C -0.13666 0.74007 0.23725
 C856 C -0.15244 0.73706 0.24988
 C857 C -0.16050 0.71818 0.25262
 C858 C -0.15197 0.70252 0.24211
 C859 C -0.11224 0.72753 0.21407
 C860 C -0.09863 0.73016 0.20319
 C861 C -0.08270 0.73321 0.19044
 C862 C -0.06909 0.73582 0.17955
 H863 H -0.12984 0.69333 0.22182
 H864 H -0.13093 0.75471 0.23532
 H865 H -0.15869 0.74982 0.25679
 H866 H -0.15682 0.68761 0.24406
 C867 C 0.35501 0.21479 0.72058
 C868 C 0.37170 0.22445 0.72724
 C869 C 0.37252 0.23106 0.74652
 C870 C 0.35673 0.22805 0.75914
 C871 C 0.33965 0.21826 0.75275
 C872 C 0.33918 0.21170 0.73313
 C873 C 0.38798 0.22758 0.71428
 C874 C 0.40162 0.23019 0.70343
 C875 C 0.41757 0.23324 0.69071
 C876 C 0.43119 0.23584 0.67983
 H877 H 0.35415 0.20975 0.70560
 H878 H 0.38547 0.23843 0.75189
 H879 H 0.35846 0.23276 0.77412
 H880 H 0.32634 0.20484 0.72700
 C881 C 0.62804 0.26843 0.74643
 C882 C 0.62893 0.27503 0.72714
 C883 C 0.64562 0.28474 0.72051
 C884 C 0.66139 0.28787 0.73310
 C885 C 0.66085 0.28132 0.75273
 C886 C 0.64377 0.27149 0.75909
 C887 C 0.61270 0.27187 0.71415
 C888 C 0.59910 0.26923 0.70327
 C889 C 0.58317 0.26615 0.69054
 C890 C 0.56957 0.26353 0.67966
 H891 H 0.61509 0.26103 0.75177
 H892 H 0.64652 0.28977 0.70552
 H893 H 0.67423 0.29476 0.72700
 H894 H 0.64199 0.26678 0.77407
 C895 C 0.13321 0.79426 0.23286
 C896 C 0.12856 0.77530 0.22677
 C897 C 0.13972 0.75947 0.23335
 C898 C 0.15547 0.76256 0.24599
 C899 C 0.16027 0.78158 0.25220
 C900 C 0.14896 0.79740 0.24549
 C901 C 0.11233 0.77209 0.21378
 C902 C 0.09874 0.76942 0.20291
 C903 C 0.08282 0.76629 0.19018
 C904 C 0.06922 0.76363 0.17931
 H905 H 0.12463 0.80662 0.22790
 H906 H 0.13628 0.74473 0.22868
 H907 H 0.16405 0.75012 0.25070
 H908 H 0.15213 0.81217 0.25021
 C909 C 0.25266 0.12606 0.22682
 C910 C 0.27285 0.12847 0.22457
 C911 C 0.28038 0.14673 0.21920
 C912 C 0.26778 0.16252 0.21608
 C913 C 0.24746 0.16025 0.21830
 C914 C 0.24004 0.14184 0.22372
 C915 C 0.28583 0.11222 0.22775
 C916 C 0.29669 0.09860 0.23041
 C917 C 0.30942 0.08267 0.23353
 C918 C 0.32030 0.06906 0.23618
 H919 H 0.24667 0.11198 0.23091
 H920 H 0.29599 0.14877 0.21747
 H921 H 0.27395 0.17656 0.21217
 H922 H 0.22445 0.13957 0.22530
 C923 C 0.75277 0.62614 0.72679
 C924 C 0.77295 0.62855 0.72451
 C925 C 0.78047 0.64681 0.71914
 C926 C 0.76786 0.66260 0.71604
 C927 C 0.74754 0.66032 0.71830
 C928 C 0.74013 0.64191 0.72371
 C929 C 0.78594 0.61231 0.72767
 C930 C 0.79681 0.59869 0.73032
 C931 C 0.80954 0.58275 0.73341
 C932 C 0.82041 0.56913 0.73605
 H933 H 0.74679 0.61205 0.73090
 H934 H 0.79607 0.64886 0.71739
 H935 H 0.77402 0.67665 0.71213
 H936 H 0.72455 0.63963 0.72532
 C937 C 0.75279 0.37364 0.77326
 C938 C 0.77298 0.37127 0.77554
 C939 C 0.78054 0.35302 0.78090
 C940 C 0.76797 0.33721 0.78398
 C941 C 0.74764 0.33944 0.78173
 C942 C 0.74020 0.35784 0.77633
 C943 C 0.78594 0.38754 0.77238
 C944 C 0.79679 0.40118 0.76975
 C945 C 0.80950 0.41713 0.76667
 C946 C 0.82037 0.43076 0.76405
 H947 H 0.74678 0.38771 0.76917
 H948 H 0.79615 0.35101 0.78265
 H949 H 0.77416 0.32317 0.78789
 H950 H 0.72461 0.36008 0.77472
 C951 C 0.25349 -0.12790 0.26881
 C952 C 0.27277 -0.12875 0.27544
 C953 C 0.27939 -0.14544 0.28514
 C954 C 0.26682 -0.16125 0.28825
 C955 C 0.24720 -0.16074 0.28166
 C956 C 0.24084 -0.14366 0.27184
 C957 C 0.28575 -0.11249 0.27229
 C958 C 0.29662 -0.09887 0.26967
 C959 C 0.30936 -0.08293 0.26661
 C960 C 0.32024 -0.06932 0.26401
 H961 H 0.24815 -0.11494 0.26141
 H962 H 0.29438 -0.14633 0.29019
 H963 H 0.27293 -0.17409 0.29514
 H964 H 0.22587 -0.14190 0.26711
 C965 C 0.24647 -0.12765 0.73092
 C966 C 0.22719 -0.12849 0.72432
 C967 C 0.22053 -0.14518 0.71465
 C968 C 0.23309 -0.16100 0.71156
 C969 C 0.25271 -0.16052 0.71812
 C970 C 0.25910 -0.14343 0.72790
 C971 C 0.21422 -0.11222 0.72745
 C972 C 0.20336 -0.09860 0.73009
 C973 C 0.19063 -0.08265 0.73317
 C974 C 0.17976 -0.06904 0.73581
 H975 H 0.25184 -0.11470 0.73828
 H976 H 0.20554 -0.14605 0.70962
 H977 H 0.22696 -0.17384 0.70470
 H978 H 0.27408 -0.14169 0.73261
 C979 C 0.74715 0.37415 0.22652
 C980 C 0.72696 0.37170 0.22431
 C981 C 0.71945 0.35343 0.21904
 C982 C 0.73207 0.33764 0.21597
 C983 C 0.75239 0.33994 0.21816
 C984 C 0.75979 0.35838 0.22347
 C985 C 0.71396 0.38795 0.22745
 C986 C 0.70308 0.40155 0.23009
 C987 C 0.69034 0.41748 0.23319
 C988 C 0.67945 0.43108 0.23584
 H989 H 0.75312 0.38825 0.23054
 H990 H 0.70384 0.35136 0.21734
 H991 H 0.72592 0.32357 0.21213
 H992 H 0.77537 0.36067 0.22502
 C993 C 0.74715 0.62618 0.27311
 C994 C 0.72696 0.62865 0.27532
 C995 C 0.71947 0.64693 0.28063
 C996 C 0.73211 0.66269 0.28373
 C997 C 0.75243 0.66036 0.28155
 C998 C 0.75981 0.64192 0.27619
 C999 C 0.71395 0.61243 0.27216
 C1000 C 0.70305 0.59884 0.26951
 C1001 C 0.69029 0.58293 0.26643
 C1002 C 0.67939 0.56934 0.26381
 H1003 H 0.75311 0.61207 0.26906
 H1004 H 0.70386 0.64902 0.28233
 H1005 H 0.72597 0.67676 0.28760
 H1006 H 0.77539 0.63961 0.27465
 C1007 C 0.23375 0.13981 0.75949
 C1008 C 0.22717 0.12865 0.77533
 C1009 C 0.23325 0.13332 0.79428
 C1010 C 0.24586 0.14909 0.79741
 C1011 C 0.25257 0.16040 0.78158
 C1012 C 0.24638 0.15558 0.76258
 C1013 C 0.21418 0.11241 0.77213
 C1014 C 0.20331 0.09881 0.76947
 C1015 C 0.19057 0.08288 0.76637
 C1016 C 0.17970 0.06928 0.76373
 H1017 H 0.22910 0.13635 0.74476
 H1018 H 0.22828 0.12475 0.80664
 H1019 H 0.25057 0.15228 0.81217
 H1020 H 0.25110 0.16416 0.75013
 C1021 C 0.21909 0.28057 0.14655
 C1022 C 0.22444 0.27304 0.12830
 C1023 C 0.22669 0.25285 0.12591
 C1024 C 0.22361 0.24022 0.14168
 C1025 C 0.21822 0.24764 0.16009
 C1026 C 0.21599 0.26797 0.16235
 C1027 C 0.22759 0.28603 0.11205
 C1028 C 0.23023 0.29691 0.09843
 C1029 C 0.23330 0.30966 0.08250
 C1030 C 0.23593 0.32056 0.06890
 H1031 H 0.21736 0.29618 0.14858
 H1032 H 0.23077 0.24686 0.11183
 H1033 H 0.22520 0.22464 0.13943
 H1034 H 0.21210 0.27414 0.17639
 C1035 C 0.71903 0.78064 0.64659
 C1036 C 0.72437 0.77311 0.62834
 C1037 C 0.72663 0.75292 0.62594
 C1038 C 0.72357 0.74029 0.64173
 C1039 C 0.71819 0.74771 0.66014
 C1040 C 0.71595 0.76804 0.66239
 C1041 C 0.72751 0.78609 0.61208
 C1042 C 0.73014 0.79696 0.59846
 C1043 C 0.73324 0.80970 0.58252
 C1044 C 0.73590 0.82058 0.56891
 H1045 H 0.71730 0.79625 0.64862
 H1046 H 0.73070 0.74693 0.61186
 H1047 H 0.72515 0.72471 0.63947
 H1048 H 0.71207 0.77421 0.67644
 C1049 C 0.78096 0.78066 0.35303
 C1050 C 0.77559 0.77315 0.37129
 C1051 C 0.77333 0.75296 0.37372
 C1052 C 0.77640 0.74032 0.35797
 C1053 C 0.78181 0.74772 0.33955
 C1054 C 0.78406 0.76805 0.33726
 C1055 C 0.77241 0.78614 0.38751
 C1056 C 0.76975 0.79702 0.40111
 C1057 C 0.76665 0.80975 0.41704
 C1058 C 0.76401 0.82062 0.43064
 H1059 H 0.78270 0.79627 0.35097
 H1060 H 0.76923 0.74698 0.38781
 H1061 H 0.77480 0.72473 0.36026
 H1062 H 0.78796 0.77420 0.32320
 C1063 C 0.27331 0.25303 -0.12622
 C1064 C 0.27559 0.27321 -0.12867
 C1065 C 0.28100 0.28071 -0.14692
 C1066 C 0.28413 0.26808 -0.16267
 C1067 C 0.28187 0.24776 -0.16037
 C1068 C 0.27641 0.24037 -0.14195
 C1069 C 0.27238 0.28622 -0.11246
 C1070 C 0.26970 0.29711 -0.09887
 C1071 C 0.26658 0.30985 -0.08296
 C1072 C 0.26391 0.32073 -0.06937
 H1073 H 0.26917 0.24706 -0.11214
 H1074 H 0.28275 0.29632 -0.14899
 H1075 H 0.28807 0.27423 -0.17672
 H1076 H 0.27480 0.22479 -0.13966
 C1077 C 0.70564 0.23269 -0.13309
 C1078 C 0.72460 0.22660 -0.12839
 C1079 C 0.74045 0.23316 -0.13954
 C1080 C 0.73737 0.24578 -0.15532
 C1081 C 0.71837 0.25199 -0.16017
 C1082 C 0.70253 0.24530 -0.14887
 C1083 C 0.72778 0.21362 -0.11213
 C1084 C 0.73045 0.20276 -0.09851
 C1085 C 0.73358 0.19005 -0.08256
 C1086 C 0.73626 0.17919 -0.06895
 H1087 H 0.69327 0.22773 -0.12452
 H1088 H 0.75517 0.22849 -0.13606
 H1089 H 0.74983 0.25049 -0.16389
 H1090 H 0.68777 0.25001 -0.15208
 C1091 C 0.24026 0.73348 0.36034
 C1092 C 0.22440 0.72693 0.37148
 C1093 C 0.20545 0.73303 0.36677
 C1094 C 0.20236 0.74562 0.35097
 C1095 C 0.21821 0.75230 0.33967
 C1096 C 0.23720 0.74609 0.34454
 C1097 C 0.22756 0.71396 0.38775
 C1098 C 0.23022 0.70310 0.40137
 C1099 C 0.23334 0.69037 0.41730
 C1100 C 0.23598 0.67949 0.43091
 H1101 H 0.25498 0.72881 0.36383
 H1102 H 0.19307 0.72809 0.37533
 H1103 H 0.18760 0.75034 0.34774
 H1104 H 0.24966 0.75078 0.33597
 C1105 C 0.29433 0.73316 0.63320
 C1106 C 0.27538 0.72706 0.62853
 C1107 C 0.25953 0.73362 0.63968
 C1108 C 0.26261 0.74624 0.65544
 C1109 C 0.28161 0.75246 0.66027
 C1110 C 0.29744 0.74577 0.64897
 C1111 C 0.27220 0.71407 0.61230
 C1112 C 0.26955 0.70319 0.59871
 C1113 C 0.26646 0.69044 0.58280
 C1114 C 0.26383 0.67955 0.56921
 H1115 H 0.30669 0.72821 0.62464
 H1116 H 0.24480 0.72894 0.63622
 H1117 H 0.25016 0.75094 0.66401
 H1118 H 0.31220 0.75049 0.65216
 C1119 C 0.75978 0.23356 0.13970
 C1120 C 0.77565 0.22700 0.12859
 C1121 C 0.79459 0.23312 0.13329
 C1122 C 0.79766 0.24576 0.14904
 C1123 C 0.78180 0.25245 0.16030
 C1124 C 0.76282 0.24621 0.15545
 C1125 C 0.77251 0.21398 0.11238
 C1126 C 0.76989 0.20308 0.09879
 C1127 C 0.76683 0.19032 0.08289
 C1128 C 0.76423 0.17941 0.06931
 H1129 H 0.74506 0.22887 0.13622
 H1130 H 0.80698 0.22816 0.12476
 H1131 H 0.81241 0.25049 0.15226
 H1132 H 0.75034 0.25092 0.16399
 C1133 C 0.49056 0.38954 0.51674
 C1134 C 0.47473 0.37838 0.52332
 C1135 C 0.45577 0.38306 0.51724
 C1136 C 0.45264 0.39885 0.50463
 C1137 C 0.46847 0.41015 0.49792
 C1138 C 0.48747 0.40532 0.50412
 C1139 C 0.47792 0.36212 0.53630
 C1140 C 0.48059 0.34851 0.54717
 C1141 C 0.48371 0.33257 0.55990
 C1142 C 0.48636 0.31896 0.57077
 H1143 H 0.50529 0.38607 0.52140
 H1144 H 0.44341 0.37449 0.52220
 H1145 H 0.43787 0.40205 0.49992
 H1146 H 0.49992 0.41390 0.49941
 C1147 C -0.00950 0.88938 0.01633
 C1148 C -0.02537 0.87826 0.02288
 C1149 C -0.04431 0.88301 0.01680
 C1150 C -0.04738 0.89883 0.00421
 C1151 C -0.03152 0.91010 -0.00247
 C1152 C -0.01253 0.90519 0.00373
 C1153 C -0.02223 0.86198 0.03585
 C1154 C -0.01960 0.84835 0.04671
 C1155 C -0.01653 0.83241 0.05944
 C1156 C -0.01391 0.81879 0.07033
 H1157 H 0.00522 0.88586 0.02099
 H1158 H -0.05670 0.87447 0.02174
 H1159 H -0.06213 0.90208 -0.00050
 H1160 H -0.00006 0.91374 -0.00096
 C1161 C 0.01873 0.62198 0.00364
 C1162 C 0.02535 0.62109 0.02292
 C1163 C 0.03506 0.60440 0.02952
 C1164 C 0.03819 0.58863 0.01692
 C1165 C 0.03161 0.58917 -0.00269
 C1166 C 0.02178 0.60625 -0.00903
 C1167 C 0.02219 0.63732 0.03592
 C1168 C 0.01955 0.65092 0.04680
 C1169 C 0.01647 0.66684 0.05955
 C1170 C 0.01385 0.68044 0.07043
 H1171 H 0.01132 0.63494 -0.00169
 H1172 H 0.04011 0.60349 0.04450
 H1173 H 0.04508 0.57578 0.02301
 H1174 H 0.01706 0.60804 -0.02400
 C1175 C 0.53088 0.10302 0.53057
 C1176 C 0.52554 0.12129 0.52308
 C1177 C 0.52326 0.12375 0.50291
 C1178 C 0.52632 0.10801 0.49025
 C1179 C 0.53171 0.08957 0.49763
 C1180 C 0.53396 0.08725 0.51794
 C1181 C 0.52239 0.13752 0.53609
 C1182 C 0.51977 0.15111 0.54699
 C1183 C 0.51672 0.16702 0.55975
 C1184 C 0.51412 0.18061 0.57064
 H1185 H 0.53263 0.10094 0.54617
 H1186 H 0.51918 0.13785 0.49695
 H1187 H 0.52472 0.11031 0.47468
 H1188 H 0.53786 0.07319 0.52408
 C1189 C -0.03097 0.10363 0.46951
 C1190 C -0.02566 0.12188 0.47704
 C1191 C -0.02341 0.12428 0.49722
 C1192 C -0.02646 0.10849 0.50984
 C1193 C -0.03182 0.09007 0.50242
 C1194 C -0.03404 0.08782 0.48210
 C1195 C -0.02252 0.13815 0.46406
 C1196 C -0.01989 0.15177 0.45318
 C1197 C -0.01682 0.16770 0.44043
 C1198 C -0.01419 0.18131 0.42954
 H1199 H -0.03269 0.10159 0.45390
 H1200 H -0.01936 0.13837 0.50321
 H1201 H -0.02489 0.11075 0.52542
 H1202 H -0.03790 0.07377 0.47593
 C1203 C 0.46471 0.60489 0.97051
 C1204 C 0.47439 0.62157 0.97716
 C1205 C 0.48097 0.62242 0.99645
 C1206 C 0.47792 0.60665 1.00909
 C1207 C 0.46812 0.58957 1.00271
 C1208 C 0.46158 0.58908 0.98308
 C1209 C 0.47755 0.63784 0.96418
 C1210 C 0.48020 0.65146 0.95331
 C1211 C 0.48328 0.66740 0.94057
 C1212 C 0.48591 0.68101 0.92968
 H1213 H 0.45969 0.60401 0.95552
 H1214 H 0.48835 0.63537 1.00180
 H1215 H 0.48261 0.60840 1.02407
 H1216 H 0.45471 0.57624 0.97696
 C1217 C 0.52317 0.87614 0.99728
 C1218 C 0.52542 0.87861 0.97710
 C1219 C 0.53080 0.89688 0.96961
 C1220 C 0.53392 0.91263 0.98225
 C1221 C 0.53170 0.91029 1.00256
 C1222 C 0.52627 0.89186 1.00994
 C1223 C 0.52224 0.86240 0.96408
 C1224 C 0.51958 0.84882 0.95319
 C1225 C 0.51647 0.83292 0.94044
 C1226 C 0.51382 0.81933 0.92955
 H1227 H 0.51907 0.86204 1.00323
 H1228 H 0.53253 0.89897 0.95401
 H1229 H 0.53784 0.92669 0.97612
 H1230 H 0.52469 0.88955 1.02552
 C1231 C 0.01866 0.37797 0.49618
 C1232 C 0.02525 0.37889 0.47689
 C1233 C 0.03495 0.39560 0.47029
 C1234 C 0.03809 0.41135 0.48290
 C1235 C 0.03154 0.41077 0.50253
 C1236 C 0.02172 0.39368 0.50887
 C1237 C 0.02208 0.36268 0.46387
 C1238 C 0.01943 0.34910 0.45297
 C1239 C 0.01633 0.33320 0.44022
 C1240 C 0.01369 0.31960 0.42933
 H1241 H 0.01127 0.36500 0.50150
 H1242 H 0.03998 0.39653 0.45529
 H1243 H 0.04498 0.42421 0.47682
 H1244 H 0.01702 0.39187 0.52384
 C1245 C 0.39684 0.53051 0.46944
 C1246 C 0.37858 0.52300 0.47480
 C1247 C 0.37616 0.50281 0.47708
 C1248 C 0.39193 0.49017 0.47401
 C1249 C 0.41034 0.49758 0.46860
 C1250 C 0.41262 0.51790 0.46636
 C1251 C 0.36234 0.53599 0.47794
 C1252 C 0.34873 0.54687 0.48056
 C1253 C 0.33279 0.55961 0.48362
 C1254 C 0.31918 0.57049 0.48623
 H1255 H 0.39889 0.54612 0.46769
 H1256 H 0.36207 0.49683 0.48117
 H1257 H 0.38965 0.47458 0.47561
 H1258 H 0.42668 0.52406 0.46245
 C1259 C 0.88670 0.02048 -0.04415
 C1260 C 0.87907 0.02290 -0.02538
 C1261 C 0.88725 0.01265 -0.00974
 C1262 C 0.90300 -0.00001 -0.01281
 C1263 C 0.91101 -0.00270 -0.03171
 C1264 C 0.90247 0.00788 -0.04732
 C1265 C 0.86282 0.03588 -0.02217
 C1266 C 0.84922 0.04675 -0.01949
 C1267 C 0.83328 0.05948 -0.01637
 C1268 C 0.81967 0.07035 -0.01371
 H1269 H 0.88035 0.02824 -0.05642
 H1270 H 0.88155 0.01454 0.00491
 H1271 H 0.90926 -0.00697 -0.00008
 H1272 H 0.90728 0.00597 -0.06225
 C1273 C 0.60359 0.03037 0.03122
 C1274 C 0.62183 0.02281 0.02586
 C1275 C 0.62419 0.00262 0.02358
 C1276 C 0.60839 -0.00998 0.02664
 C1277 C 0.58999 -0.00252 0.03204
 C1278 C 0.58777 0.01780 0.03430
 C1279 C 0.63810 0.03576 0.02270
 C1280 C 0.65173 0.04661 0.02006
 C1281 C 0.66769 0.05932 0.01698
 C1282 C 0.68131 0.07019 0.01434
 H1283 H 0.60158 0.04599 0.03297
 H1284 H 0.63826 -0.00340 0.01949
 H1285 H 0.61062 -0.02557 0.02504
 H1286 H 0.57374 0.02400 0.03820
 C1287 C 0.12379 0.50277 0.52315
 C1288 C 0.12141 0.52296 0.52546
 C1289 C 0.10316 0.53049 0.53084
 C1290 C 0.08736 0.51790 0.53392
 C1291 C 0.08961 0.49758 0.53163
 C1292 C 0.10801 0.49015 0.52621
 C1293 C 0.13767 0.53593 0.52232
 C1294 C 0.15129 0.54680 0.51970
 C1295 C 0.16723 0.55953 0.51663
 C1296 C 0.18084 0.57041 0.51403
 H1297 H 0.13787 0.49678 0.51904
 H1298 H 0.10114 0.54610 0.53262
 H1299 H 0.07332 0.52407 0.53784
 H1300 H 0.11026 0.47457 0.52458
 C1301 C 0.10452 0.47047 -0.03525
 C1302 C 0.12120 0.47712 -0.02558
 C1303 C 0.12203 0.49640 -0.01896
 C1304 C 0.10625 0.50903 -0.02198
 C1305 C 0.08918 0.50265 -0.03178
 C1306 C 0.08870 0.48302 -0.03835
 C1307 C 0.13747 0.46415 -0.02244
 C1308 C 0.15110 0.45329 -0.01983
 C1309 C 0.16705 0.44057 -0.01676
 C1310 C 0.18066 0.42970 -0.01413
 H1311 H 0.10365 0.45548 -0.04029
 H1312 H 0.13497 0.50177 -0.01159
 H1313 H 0.10799 0.52401 -0.01727
 H1314 H 0.07586 0.47690 -0.04522
 C1315 C 0.61372 0.97956 0.45546
 C1316 C 0.62141 0.97711 0.47421
 C1317 C 0.61324 0.98729 0.48989
 C1318 C 0.59745 0.99991 0.48689
 C1319 C 0.58939 1.00264 0.46803
 C1320 C 0.59792 0.99213 0.45237
 C1321 C 0.63768 0.96414 0.47734
 C1322 C 0.65130 0.95328 0.47998
 C1323 C 0.66724 0.94055 0.48307
 C1324 C 0.68085 0.92967 0.48572
 H1325 H 0.62006 0.97186 0.44316
 H1326 H 0.61898 0.98536 0.50452
 H1327 H 0.59121 1.00681 0.49966
 H1328 H 0.59307 0.99408 0.43746
 C1329 C 0.88964 0.98370 0.50959
 C1330 C 0.87848 0.97711 0.52542
 C1331 C 0.88316 0.98318 0.54438
 C1332 C 0.89892 0.99581 0.54751
 C1333 C 0.91022 1.00253 0.53168
 C1334 C 0.90540 0.99634 0.51268
 C1335 C 0.86225 0.96412 0.52222
 C1336 C 0.84865 0.95325 0.51955
 C1337 C 0.83273 0.94051 0.51644
 C1338 C 0.81913 0.92963 0.51379
 H1339 H 0.88618 0.97905 0.49486
 H1340 H 0.87458 0.97821 0.55674
 H1341 H 0.90211 1.00051 0.56227
 H1342 H 0.91397 1.00106 0.50023
 C1343 C 0.37594 0.49739 0.02308
 C1344 C 0.37835 0.47720 0.02533
 C1345 C 0.39660 0.46967 0.03070
 C1346 C 0.41238 0.48226 0.03382
 C1347 C 0.41011 0.50259 0.03158
 C1348 C 0.39171 0.51002 0.02617
 C1349 C 0.36211 0.46422 0.02215
 C1350 C 0.34851 0.45334 0.01949
 C1351 C 0.33258 0.44061 0.01640
 C1352 C 0.31898 0.42973 0.01376
 H1353 H 0.36187 0.50338 0.01897
 H1354 H 0.39863 0.45405 0.03244
 H1355 H 0.42642 0.47609 0.03773
 H1356 H 0.38944 0.52560 0.02458
 C1357 C 0.53061 0.46912 0.39688
 C1358 C 0.52307 0.47445 0.37863
 C1359 C 0.50288 0.47669 0.37624
 C1360 C 0.49026 0.47362 0.39203
 C1361 C 0.49770 0.46824 0.41044
 C1362 C 0.51802 0.46602 0.41269
 C1363 C 0.53604 0.47761 0.36237
 C1364 C 0.54689 0.48027 0.34874
 C1365 C 0.55960 0.48339 0.33279
 C1366 C 0.57046 0.48606 0.31917
 H1367 H 0.54622 0.46739 0.39891
 H1368 H 0.49688 0.48076 0.36216
 H1369 H 0.47468 0.47520 0.38978
 H1370 H 0.52420 0.46214 0.42673
 C1371 C 0.00307 -0.02324 0.87601
 C1372 C 0.02326 -0.02551 0.87841
 C1373 C 0.03078 -0.03088 0.89665
 C1374 C 0.01818 -0.03397 0.91245
 C1375 C -0.00214 -0.03172 0.91019
 C1376 C -0.00956 -0.02631 0.89178
 C1377 C 0.03624 -0.02236 0.86215
 C1378 C 0.04711 -0.01972 0.84853
 C1379 C 0.05983 -0.01662 0.83259
 C1380 C 0.07071 -0.01396 0.81898
 H1381 H -0.00291 -0.01914 0.86193
 H1382 H 0.04639 -0.03263 0.89869
 H1383 H 0.02434 -0.03788 0.92649
 H1384 H -0.02514 -0.02471 0.88952
 C1385 C 0.03054 0.03100 0.60318
 C1386 C 0.02305 0.02561 0.62144
 C1387 C 0.00286 0.02334 0.62389
 C1388 C -0.00979 0.02643 0.60815
 C1389 C -0.00240 0.03186 0.58973
 C1390 C 0.01792 0.03411 0.58742
 C1391 C 0.03606 0.02243 0.63766
 C1392 C 0.04695 0.01978 0.65124
 C1393 C 0.05971 0.01668 0.66714
 C1394 C 0.07061 0.01405 0.68073
 H1395 H 0.04614 0.03275 0.60111
 H1396 H -0.00310 0.01923 0.63798
 H1397 H -0.02537 0.02483 0.61044
 H1398 H 0.02406 0.03803 0.57337
 C1399 C 0.53033 0.53101 0.10325
 C1400 C 0.52280 0.52564 0.12150
 C1401 C 0.50261 0.52336 0.12391
 C1402 C 0.48999 0.52645 0.10815
 C1403 C 0.49741 0.53187 0.08974
 C1404 C 0.51773 0.53412 0.08747
 C1405 C 0.53578 0.52247 0.13774
 C1406 C 0.54665 0.51983 0.15134
 C1407 C 0.55939 0.51674 0.16727
 C1408 C 0.57028 0.51412 0.18087
 H1409 H 0.54593 0.53276 0.10120
 H1410 H 0.49663 0.51926 0.13799
 H1411 H 0.47441 0.52485 0.11042
 H1412 H 0.52390 0.53803 0.07342
 C1413 C 0.48312 -0.04451 0.11710
 C1414 C 0.47704 -0.02555 0.12180
 C1415 C 0.48364 -0.00969 0.11068
 C1416 C 0.49628 -0.01276 0.09492
 C1417 C 0.50247 -0.03176 0.09006
 C1418 C 0.49575 -0.04761 0.10133
 C1419 C 0.46402 -0.02238 0.13803
 C1420 C 0.45312 -0.01974 0.15162
 C1421 C 0.44036 -0.01666 0.16753
 C1422 C 0.42945 -0.01404 0.18111
 H1423 H 0.47814 -0.05688 0.12564
 H1424 H 0.47898 0.00504 0.11417
 H1425 H 0.50101 -0.00029 0.08637
 H1426 H 0.50045 -0.06237 0.09811
 C1427 C 0.98339 0.49019 0.61038
 C1428 C 0.97684 0.47432 0.62151
 C1429 C 0.98295 0.45537 0.61679
 C1430 C 0.99555 0.45229 0.60100
 C1431 C 1.00223 0.46815 0.58972
 C1432 C 0.99601 0.48715 0.59459
 C1433 C 0.96386 0.47747 0.63776
 C1434 C 0.95300 0.48012 0.65138
 C1435 C 0.94028 0.48323 0.66732
 C1436 C 0.92940 0.48588 0.68093
 H1437 H 0.97871 0.50491 0.61387
 H1438 H 0.97800 0.44299 0.62534
 H1439 H 1.00028 0.43754 0.59777
 H1440 H 1.00070 0.49962 0.58603
 C1441 C 0.98296 0.54434 0.88324
 C1442 C 0.97685 0.52539 0.87857
 C1443 C 0.98338 0.50954 0.88973
 C1444 C 0.99600 0.51261 0.90550
 C1445 C 1.00223 0.53161 0.91032
 C1446 C 0.99557 0.54745 0.89901
 C1447 C 0.96387 0.52222 0.86233
 C1448 C 0.95300 0.51957 0.84873
 C1449 C 0.94027 0.51648 0.83280
 C1450 C 0.92940 0.51386 0.81920
 H1451 H 0.97803 0.55672 0.87466
 H1452 H 0.97870 0.49482 0.88628
 H1453 H 1.00068 0.50015 0.91408
 H1454 H 1.00031 0.56221 0.90220
 C1455 C 0.48293 0.04430 0.38326
 C1456 C 0.47685 0.02534 0.37858
 C1457 C 0.48348 0.00949 0.38970
 C1458 C 0.49613 0.01258 0.40544
 C1459 C 0.50232 0.03159 0.41027
 C1460 C 0.49557 0.04743 0.39900
 C1461 C 0.46384 0.02215 0.36238
 C1462 C 0.45294 0.01949 0.34880
 C1463 C 0.44018 0.01639 0.33290
 C1464 C 0.42929 0.01376 0.31932
 H1465 H 0.47793 0.05667 0.37472
 H1466 H 0.47882 -0.00524 0.38624
 H1467 H 0.50087 0.00013 0.41399
 H1468 H 0.50027 0.06220 0.40220
   
