data_POSCAR
  _audit_creation_date              2014-09-24
  _audit_creation_method            'ToBaCCo'
  _symmetry_space_group_name_H-M    'P1'
  _symmetry_Int_Tables_number       1
  _symmetry_cell_setting            triclinic
  loop_
  _symmetry_equiv_pos_as_xyz
 x,y,z
_cell_length_a 42.5763
_cell_length_b 42.9458
_cell_length_c 43.9687
_cell_angle_alpha 89.910300
_cell_angle_beta 89.968800
_cell_angle_gamma 90.038900
loop_
  _atom_site_label
  _atom_site_type_symbol
  _atom_site_fract_x
  _atom_site_fract_y
  _atom_site_fract_z
Zr1 Zr 0.24381 0.24738 0.30214
 O2 O 0.26521 0.26918 0.34003
 O3 O 0.21153 0.21758 0.32327
 O4 O 0.21128 0.27471 0.32661
 O5 O 0.30504 0.19528 0.29201
 O6 O 0.19044 0.30739 0.29091
 O7 O 0.27176 0.21608 0.32733
 O8 O 0.18579 0.19500 0.28353
 O9 O 0.20455 0.25056 0.27372
 O10 O 0.24576 0.20848 0.27367
 O11 O 0.24846 0.29030 0.27954
 O12 O 0.28781 0.24980 0.28009
 Zr13 Zr 0.25436 0.25700 0.19720
 Zr14 Zr 0.21031 0.29222 0.24949
 Zr15 Zr 0.28799 0.21196 0.24986
 Zr16 Zr 0.20782 0.21263 0.24424
 O17 O 0.33763 0.21445 0.25052
 O18 O 0.15895 0.22112 0.23995
 O19 O 0.25000 0.21359 0.21943
 O20 O 0.21084 0.25420 0.21964
 O21 O 0.25262 0.29615 0.22541
 O22 O 0.29332 0.25357 0.22592
 C23 C 0.19059 0.19940 0.31207
 C24 C 0.29513 0.19882 0.31952
 C25 C 0.19346 0.29746 0.31843
 O26 O 0.16086 0.28921 0.24582
 O27 O 0.19589 0.31220 0.20789
 O28 O 0.22819 0.29022 0.17243
 C29 C 0.20583 0.30868 0.18043
 O30 O 0.30834 0.30476 0.29838
 Zr31 Zr 0.29058 0.29146 0.25513
 O32 O 0.28609 0.28744 0.17610
 O33 O 0.21541 0.34109 0.25291
 O34 O 0.28399 0.34025 0.25900
 O35 O 0.33988 0.28456 0.25648
 O36 O 0.30959 0.31226 0.21587
 C37 C 0.30529 0.30742 0.18732
 O38 O 0.23166 0.23662 0.15927
 O39 O 0.28334 0.16289 0.24942
 O40 O 0.28480 0.22787 0.17230
 O41 O 0.30435 0.19424 0.20788
 O42 O 0.21274 0.16350 0.24333
 O43 O 0.19394 0.19530 0.20102
 C44 C 0.30127 0.20408 0.18030
 H45 H 0.24482 0.18855 0.28497
 H46 H 0.19317 0.25496 0.20503
 H47 H 0.31352 0.25360 0.21476
 H48 H 0.24832 0.30789 0.29406
 H49 H 0.14796 0.20101 0.24302
 H50 H 0.15270 0.31078 0.24700
 H51 H 0.19401 0.35005 0.25162
 H52 H 0.30473 0.35029 0.25603
 H53 H 0.19151 0.15438 0.24590
 H54 H 0.30485 0.15422 0.25072
 H55 H 0.34545 0.19276 0.24941
 H56 H 0.34998 0.30519 0.25387
 H57 H 0.17567 0.18124 0.20351
 H58 H 0.24133 0.24564 0.14070
 H59 H 0.25562 0.26009 0.35861
 H60 H 0.32324 0.32229 0.29588
 Zr61 Zr 0.75316 0.75661 0.30282
 O62 O 0.73070 0.73429 0.33992
 O63 O 0.78402 0.78703 0.32506
 O64 O 0.78529 0.72993 0.32851
 O65 O 0.69124 0.80732 0.29038
 O66 O 0.80817 0.69782 0.29360
 O67 O 0.72363 0.78726 0.32690
 O68 O 0.81092 0.80992 0.28612
 O69 O 0.79353 0.75423 0.27582
 O70 O 0.75158 0.79550 0.27422
 O71 O 0.75015 0.71367 0.28013
 O72 O 0.71016 0.75330 0.27913
 Zr73 Zr 0.74721 0.74711 0.19731
 Zr74 Zr 0.78945 0.71253 0.25153
 Zr75 Zr 0.71043 0.79118 0.24890
 Zr76 Zr 0.79071 0.79216 0.24616
 O77 O 0.66087 0.78754 0.24762
 O78 O 0.83990 0.78483 0.24360
 O79 O 0.74964 0.79046 0.21984
 O80 O 0.78959 0.75059 0.22162
 O81 O 0.74842 0.70789 0.22568
 O82 O 0.70701 0.74961 0.22461
 C83 C 0.80517 0.80545 0.31449
 C84 C 0.70019 0.80398 0.31823
 C85 C 0.80393 0.70762 0.32098
 O86 O 0.83893 0.71632 0.24918
 O87 O 0.80514 0.69227 0.21070
 O88 O 0.77659 0.71583 0.17329
 C89 C 0.79791 0.69674 0.18259
 O90 O 0.68964 0.69797 0.29643
 Zr91 Zr 0.70921 0.71174 0.25400
 O92 O 0.71753 0.71550 0.17512
 O93 O 0.78512 0.66360 0.25543
 O94 O 0.71661 0.66311 0.25840
 O95 O 0.65978 0.71779 0.25317
 O96 O 0.69260 0.69049 0.21407
 C97 C 0.69828 0.69513 0.18570
 O98 O 0.77040 0.76853 0.16012
 O99 O 0.71396 0.84034 0.24869
 O100 O 0.71697 0.77578 0.17150
 O101 O 0.69551 0.80884 0.20648
 O102 O 0.78477 0.84118 0.24512
 O103 O 0.80590 0.80982 0.20342
 C104 C 0.69979 0.79924 0.17902
 H105 H 0.75167 0.81543 0.28551
 H106 H 0.80798 0.75021 0.20785
 H107 H 0.68732 0.74916 0.21265
 H108 H 0.75005 0.69606 0.29469
 H109 H 0.85029 0.80521 0.24686
 H110 H 0.84739 0.69488 0.25072
 H111 H 0.80669 0.65496 0.25470
 H112 H 0.69625 0.65263 0.25454
 H113 H 0.80568 0.85073 0.24847
 H114 H 0.69222 0.84853 0.24924
 H115 H 0.65259 0.80906 0.24629
 H116 H 0.65018 0.69701 0.25004
 H117 H 0.82354 0.82450 0.20654
 H118 H 0.76164 0.75938 0.14122
 H119 H 0.73937 0.74349 0.35883
 H120 H 0.67507 0.68028 0.29326
 Zr121 Zr 0.75576 0.24309 -0.30390
 O122 O 0.73480 0.26511 -0.34195
 O123 O 0.78735 0.21246 -0.32481
 O124 O 0.78875 0.26966 -0.32866
 O125 O 0.69338 0.19238 -0.29332
 O126 O 0.81030 0.30212 -0.29323
 O127 O 0.72711 0.21225 -0.32882
 O128 O 0.81279 0.18976 -0.28489
 O129 O 0.79513 0.24571 -0.27557
 O130 O 0.75307 0.20441 -0.27513
 O131 O 0.75200 0.28620 -0.28160
 O132 O 0.71185 0.24654 -0.28183
 Zr133 Zr 0.74562 0.25345 -0.19903
 Zr134 Zr 0.79026 0.28758 -0.25164
 Zr135 Zr 0.71094 0.20886 -0.25134
 Zr136 Zr 0.79115 0.20801 -0.24577
 O137 O 0.66136 0.21237 -0.25178
 O138 O 0.84019 0.21556 -0.24159
 O139 O 0.74902 0.20989 -0.22098
 O140 O 0.78905 0.24976 -0.22149
 O141 O 0.74809 0.29240 -0.22755
 O142 O 0.70649 0.25065 -0.22760
 C143 C 0.80800 0.19402 -0.31347
 C144 C 0.70335 0.19555 -0.32086
 C145 C 0.80697 0.29215 -0.32067
 O146 O 0.83963 0.28361 -0.24792
 O147 O 0.80498 0.30774 -0.21026
 O148 O 0.77240 0.28637 -0.17459
 C149 C 0.79495 0.30457 -0.18276
 O150 O 0.69224 0.30166 -0.30041
 Zr151 Zr 0.70995 0.28833 -0.25712
 O152 O 0.71484 0.28478 -0.17807
 O153 O 0.78622 0.33651 -0.25561
 O154 O 0.71751 0.33694 -0.26162
 O155 O 0.66051 0.28234 -0.25805
 O156 O 0.69175 0.30994 -0.21793
 C157 C 0.69625 0.30529 -0.18936
 O158 O 0.76799 0.23282 -0.16101
 O159 O 0.71442 0.15970 -0.25069
 O160 O 0.71469 0.22496 -0.17388
 O161 O 0.69456 0.19151 -0.20924
 O162 O 0.78518 0.15898 -0.24446
 O163 O 0.80468 0.19067 -0.20241
 C164 C 0.69790 0.20136 -0.18173
 H165 H 0.75356 0.18440 -0.28626
 H166 H 0.80674 0.25031 -0.20690
 H167 H 0.68636 0.25114 -0.21634
 H168 H 0.75245 0.30371 -0.29626
 H169 H 0.85074 0.19521 -0.24443
 H170 H 0.84824 0.30501 -0.24933
 H171 H 0.80781 0.34507 -0.25440
 H172 H 0.69699 0.34740 -0.25865
 H173 H 0.80621 0.14944 -0.24697
 H174 H 0.69270 0.15150 -0.25182
 H175 H 0.65307 0.19085 -0.25048
 H176 H 0.65086 0.30317 -0.25552
 H177 H 0.82261 0.17620 -0.20479
 H178 H 0.75858 0.24214 -0.14248
 H179 H 0.74413 0.25573 -0.36047
 H180 H 0.67755 0.31935 -0.29799
 Zr181 Zr 0.24537 0.75381 -0.30118
 O182 O 0.26582 0.73078 -0.33886
 O183 O 0.21519 0.78539 -0.32273
 O184 O 0.21168 0.72794 -0.32582
 O185 O 0.30996 0.80173 -0.29070
 O186 O 0.18872 0.69662 -0.29011
 O187 O 0.27548 0.78348 -0.32615
 O188 O 0.19042 0.80947 -0.28334
 O189 O 0.20566 0.75298 -0.27311
 O190 O 0.24936 0.79264 -0.27286
 O191 O 0.24720 0.71084 -0.27823
 O192 O 0.28890 0.74888 -0.27870
 Zr193 Zr 0.25420 0.74402 -0.19602
 Zr194 Zr 0.20863 0.71122 -0.24853
 Zr195 Zr 0.29104 0.78678 -0.24864
 Zr196 Zr 0.21092 0.79081 -0.24377
 O197 O 0.34046 0.78145 -0.24821
 O198 O 0.16158 0.78517 -0.23992
 O199 O 0.25267 0.78745 -0.21858
 O200 O 0.21116 0.74930 -0.21888
 O201 O 0.25039 0.70492 -0.22409
 O202 O 0.29364 0.74509 -0.22434
 C203 C 0.19518 0.80484 -0.31190
 C204 C 0.30009 0.79908 -0.31836
 C205 C 0.19268 0.70608 -0.31768
 O206 O 0.15940 0.71718 -0.24584
 O207 O 0.19211 0.69277 -0.20687
 O208 O 0.22586 0.71232 -0.17146
 C209 C 0.20209 0.69550 -0.17927
 O210 O 0.30635 0.69278 -0.29647
 Zr211 Zr 0.28891 0.70731 -0.25346
 O212 O 0.28368 0.71173 -0.17448
 O213 O 0.21085 0.66211 -0.25119
 O214 O 0.27955 0.65897 -0.25737
 O215 O 0.33855 0.71151 -0.25422
 O216 O 0.30606 0.68547 -0.21397
 C217 C 0.30164 0.69052 -0.18548
 O218 O 0.23235 0.76570 -0.15831
 O219 O 0.28953 0.83604 -0.24902
 O220 O 0.28586 0.77176 -0.17098
 O221 O 0.30730 0.80427 -0.20658
 O222 O 0.21886 0.83956 -0.24300
 O223 O 0.19762 0.80922 -0.20081
 C224 C 0.30336 0.79486 -0.17896
 H225 H 0.24977 0.81253 -0.28426
 H226 H 0.19333 0.74971 -0.20443
 H227 H 0.31363 0.74398 -0.21290
 H228 H 0.24624 0.69318 -0.29264
 H229 H 0.15185 0.80586 -0.24319
 H230 H 0.14996 0.69611 -0.24687
 H231 H 0.18892 0.65441 -0.25011
 H232 H 0.29963 0.64778 -0.25417
 H233 H 0.19828 0.84992 -0.24592
 H234 H 0.31158 0.84337 -0.25009
 H235 H 0.34952 0.80268 -0.24720
 H236 H 0.34742 0.69038 -0.25137
 H237 H 0.18026 0.82429 -0.20357
 H238 H 0.24127 0.75614 -0.13965
 H239 H 0.25701 0.74041 -0.35752
 H240 H 0.32044 0.67466 -0.29371
 Zr241 Zr 1.25405 1.25587 0.80257
 O242 O 1.23259 1.23347 0.84017
 O243 O 1.28526 1.28634 0.82415
 O244 O 1.28681 1.22913 0.82738
 O245 O 1.19220 1.30697 0.79165
 O246 O 1.30860 1.19684 0.79195
 O247 O 1.22519 1.28652 0.82744
 O248 O 1.31139 1.30927 0.78473
 O249 O 1.29377 1.25330 0.77464
 O250 O 1.25196 1.29480 0.77406
 O251 O 1.25031 1.21297 0.77991
 O252 O 1.21039 1.25291 0.78001
 Zr253 Zr 1.24502 1.24658 0.69754
 Zr254 Zr 1.28889 1.21167 0.75030
 Zr255 Zr 1.21011 1.29082 0.74978
 Zr256 Zr 1.29040 1.29128 0.74513
 O257 O 1.16051 1.28761 0.74969
 O258 O 1.33943 1.28335 0.74167
 O259 O 1.24856 1.28991 0.71985
 O260 O 1.28825 1.24976 0.72044
 O261 O 1.24695 1.20738 0.72580
 O262 O 1.20559 1.24926 0.72572
 C263 C 1.30605 1.30492 0.81321
 C264 C 1.20169 1.30343 0.81928
 C265 C 1.30511 1.20671 0.81941
 O266 O 1.33830 1.21532 0.74676
 O267 O 1.30354 1.19159 0.70884
 O268 O 1.27154 1.21359 0.67309
 C269 C 1.29370 1.19503 0.68132
 O270 O 1.19011 1.19797 0.79805
 Zr271 Zr 1.20852 1.21134 0.75501
 O272 O 1.21436 1.21554 0.67598
 O273 O 1.28446 1.16275 0.75407
 O274 O 1.21559 1.16266 0.75945
 O275 O 1.15909 1.21747 0.75524
 O276 O 1.19103 1.18993 0.71547
 C277 C 1.19584 1.19478 0.68698
 O278 O 1.26811 1.26743 0.66000
 O279 O 1.21395 1.33997 0.74961
 O280 O 1.21455 1.27542 0.67228
 O281 O 1.19430 1.30868 0.70771
 O282 O 1.28481 1.34034 0.74395
 O283 O 1.30490 1.30885 0.70212
 C284 C 1.19783 1.29906 0.68016
 H285 H 1.25239 1.31473 0.78534
 H286 H 1.30609 1.24919 0.70600
 H287 H 1.18560 1.24894 0.71424
 H288 H 1.25053 1.19536 0.79446
 H289 H 1.35013 1.30358 0.74494
 H290 H 1.34672 1.19385 0.74807
 H291 H 1.30598 1.15407 0.75287
 H292 H 1.19502 1.15236 0.75624
 H293 H 1.30586 1.34976 0.74685
 H294 H 1.19228 1.34829 0.75063
 H295 H 1.15238 1.30919 0.74853
 H296 H 1.14942 1.19668 0.75243
 H297 H 1.32297 1.32308 0.70489
 H298 H 1.25886 1.25839 0.64128
 H299 H 1.24173 1.24266 0.85888
 H300 H 1.17524 1.18044 0.79538
 Zr301 Zr 0.74358 0.74694 0.80190
 O302 O 0.76467 0.76888 0.83987
 O303 O 0.71200 0.71634 0.82290
 O304 O 0.71067 0.77369 0.82651
 O305 O 0.80538 0.69562 0.79157
 O306 O 0.68948 0.80630 0.79095
 O307 O 0.77182 0.71588 0.82695
 O308 O 0.68662 0.69352 0.78306
 O309 O 0.70425 0.74969 0.77354
 O310 O 0.74613 0.70826 0.77320
 O311 O 0.74765 0.79002 0.77951
 O312 O 0.78758 0.75008 0.77992
 Zr313 Zr 0.75403 0.75719 0.69703
 Zr314 Zr 0.70947 0.79152 0.74948
 Zr315 Zr 0.78833 0.71243 0.74948
 Zr316 Zr 0.70810 0.71197 0.74384
 O317 O 0.83791 0.71579 0.75021
 O318 O 0.65911 0.71987 0.73988
 O319 O 0.75029 0.71364 0.71908
 O320 O 0.71053 0.75369 0.71944
 O321 O 0.75172 0.79614 0.72546
 O322 O 0.79308 0.75423 0.72568
 C323 C 0.69153 0.69769 0.81162
 C324 C 0.79532 0.69886 0.81907
 C325 C 0.69264 0.79631 0.81843
 O326 O 0.66007 0.78785 0.74583
 O327 O 0.69481 0.81150 0.70799
 O328 O 0.72728 0.79001 0.67239
 C329 C 0.70473 0.80816 0.68050
 O330 O 0.80751 0.80493 0.79846
 Zr331 Zr 0.78977 0.79188 0.75513
 O332 O 0.78486 0.78862 0.67607
 O333 O 0.71388 0.84044 0.75308
 O334 O 0.78260 0.84053 0.75963
 O335 O 0.83918 0.78571 0.75605
 O336 O 0.80802 0.81353 0.71598
 C337 C 0.80350 0.80906 0.68741
 O338 O 0.73173 0.73654 0.65902
 O339 O 0.78457 0.66329 0.74877
 O340 O 0.78495 0.72870 0.67201
 O341 O 0.80482 0.69509 0.70743
 O342 O 0.71376 0.66293 0.74243
 O343 O 0.69428 0.69478 0.70056
 C344 C 0.80162 0.70502 0.67990
 H345 H 0.74552 0.68821 0.78433
 H346 H 0.69285 0.75426 0.70485
 H347 H 0.81324 0.75468 0.71445
 H348 H 0.74728 0.80752 0.79411
 H349 H 0.64840 0.69960 0.74288
 H350 H 0.65161 0.80931 0.74707
 H351 H 0.69236 0.84912 0.75183
 H352 H 0.80321 0.85086 0.75673
 H353 H 0.69268 0.65346 0.74496
 H354 H 0.80624 0.65499 0.75002
 H355 H 0.84610 0.69424 0.74899
 H356 H 0.84893 0.80652 0.75354
 H357 H 0.67612 0.68058 0.70300
 H358 H 0.74120 0.74584 0.64048
 H359 H 0.75523 0.75958 0.85842
 H360 H 0.82235 0.82254 0.79607
 Zr361 Zr 1.25595 0.74323 0.19598
 O362 O 1.23483 0.76526 0.15803
 O363 O 1.28807 0.71322 0.17494
 O364 O 1.28872 0.77023 0.17146
 O365 O 1.19405 0.69192 0.20619
 O366 O 1.30983 0.80276 0.20706
 O367 O 1.22762 0.71232 0.17083
 O368 O 1.31376 0.69067 0.21479
 O369 O 1.29520 0.74618 0.22442
 O370 O 1.25371 0.70432 0.22450
 O371 O 1.25159 0.78618 0.21850
 O372 O 1.21198 0.74601 0.21804
 Zr373 Zr 1.24550 0.75284 0.30086
 Zr374 Zr 1.28976 0.78786 0.24852
 Zr375 Zr 1.21150 0.70811 0.24828
 Zr376 Zr 1.29167 0.70824 0.25397
 O377 O 1.16187 0.71079 0.24785
 O378 O 1.34059 0.71636 0.25842
 O379 O 1.24949 0.70944 0.27872
 O380 O 1.28900 0.74984 0.27846
 O381 O 1.24750 0.79204 0.27261
 O382 O 1.20649 0.74970 0.27218
 C383 C 1.30906 0.69510 0.18622
 C384 C 1.20394 0.69546 0.17866
 C385 C 1.30672 0.79282 0.17959
 O386 O 1.33916 0.78453 0.25241
 O387 O 1.30406 0.80798 0.29004
 O388 O 1.27163 0.78608 0.32552
 C389 C 1.29398 0.80457 0.31748
 O390 O 1.19184 0.80132 0.19974
 Zr391 Zr 1.20948 0.78765 0.24296
 O392 O 1.21396 0.78328 0.32200
 O393 O 1.28513 0.83675 0.24470
 O394 O 1.21654 0.83639 0.23918
 O395 O 1.16014 0.78098 0.24149
 O396 O 1.19050 0.80836 0.28230
 C397 C 1.19482 0.80336 0.31084
 O398 O 1.26821 0.73234 0.33876
 O399 O 1.21579 0.65902 0.24861
 O400 O 1.21494 0.72387 0.32582
 O401 O 1.19517 0.69041 0.29028
 O402 O 1.28637 0.65914 0.25484
 O403 O 1.30524 0.69077 0.29726
 C404 C 1.19833 0.70019 0.31783
 H405 H 1.25449 0.68441 0.21320
 H406 H 1.30665 0.75055 0.29309
 H407 H 1.18629 0.74980 0.28335
 H408 H 1.25188 0.80377 0.20392
 H409 H 1.35141 0.69616 0.25551
 H410 H 1.34750 0.80604 0.25113
 H411 H 1.30660 0.84557 0.24606
 H412 H 1.19591 0.84658 0.24223
 H413 H 1.30754 0.64990 0.25234
 H414 H 1.19420 0.65049 0.24733
 H415 H 1.15393 0.68912 0.24898
 H416 H 1.15017 0.80165 0.24416
 H417 H 1.32330 0.67647 0.29485
 H418 H 1.25861 0.74136 0.35734
 H419 H 1.24432 0.75611 0.13946
 H420 H 1.17713 0.81897 0.20228
 Zr421 Zr 0.74664 1.25243 0.19859
 O422 O 0.76804 1.23007 0.16102
 O423 O 0.71513 1.28263 0.17696
 O424 O 0.71387 1.22549 0.17398
 O425 O 0.80870 1.30361 0.20913
 O426 O 0.69211 1.19333 0.20966
 O427 O 0.77555 1.28310 0.17354
 O428 O 0.68916 1.30565 0.21633
 O429 O 0.70702 1.24991 0.22666
 O430 O 0.74884 1.29145 0.22687
 O431 O 0.75036 1.20957 0.22148
 O432 O 0.79032 1.24951 0.22111
 Zr433 Zr 0.75584 1.24320 0.30372
 Zr434 Zr 0.71185 1.20831 0.25119
 Zr435 Zr 0.79072 1.28751 0.25114
 Zr436 Zr 0.71049 1.28796 0.25595
 O437 O 0.84033 1.28437 0.25115
 O438 O 0.66146 1.28016 0.25980
 O439 O 0.75236 1.28653 0.28119
 O440 O 0.71262 1.24648 0.28083
 O441 O 0.75383 1.20392 0.27569
 O442 O 0.79517 1.24597 0.27536
 C443 C 0.69425 1.30108 0.18785
 C444 C 0.79914 1.30003 0.18152
 C445 C 0.69556 1.20309 0.18213
 O446 O 0.66243 1.21206 0.25452
 O447 O 0.69675 1.18860 0.29274
 O448 O 0.72901 1.21034 0.32837
 C449 C 0.70651 1.19207 0.32027
 O450 O 0.81018 1.19408 0.20332
 Zr451 Zr 0.79218 1.20795 0.24631
 O452 O 0.78701 1.21255 0.32531
 O453 O 0.71620 1.15938 0.24787
 O454 O 0.78483 1.15924 0.24276
 O455 O 0.84159 1.21420 0.24529
 O456 O 0.81057 1.18723 0.28587
 C457 C 0.80611 1.19232 0.31436
 O458 O 0.73293 1.26399 0.34132
 O459 O 0.78682 1.33664 0.25114
 O460 O 0.78630 1.27217 0.32877
 O461 O 0.80665 1.30537 0.29319
 O462 O 0.71623 1.33702 0.25667
 O463 O 0.69631 1.30572 0.29892
 C464 C 0.80309 1.29576 0.32080
 H465 H 0.74836 1.31133 0.21545
 H466 H 0.69479 1.24600 0.29528
 H467 H 0.81524 1.24578 0.28671
 H468 H 0.75009 1.19191 0.20705
 H469 H 0.65081 1.30040 0.25652
 H470 H 0.65393 1.19060 0.25331
 H471 H 0.69466 1.15071 0.24907
 H472 H 0.80537 1.14892 0.24601
 H473 H 0.69520 1.34644 0.25374
 H474 H 0.80848 1.34501 0.25007
 H475 H 0.84845 1.30597 0.25227
 H476 H 0.85136 1.19345 0.24809
 H477 H 0.67838 1.32012 0.29613
 H478 H 0.74227 1.25496 0.36003
 H479 H 0.75883 1.23923 0.14230
 H480 H 0.82470 1.17630 0.20607
 O481 O 0.45522 1.05822 0.05261
 O482 O 0.41999 1.02753 0.02681
 C483 C 0.42683 1.04972 0.04577
 O484 O 0.54234 1.05605 -0.05492
 O485 O 0.57758 1.02699 -0.02737
 C486 C 0.57070 1.04776 -0.04780
 O487 O 0.45513 1.05914 -0.05149
 O488 O 0.41992 1.02811 -0.02593
 C489 C 0.42676 1.05064 -0.04459
 O490 O 0.54231 1.05561 0.05543
 O491 O 0.57758 1.02767 0.02681
 C492 C 0.57070 1.04800 0.04768
 Zr493 Zr 0.49882 1.03954 0.03865
 O494 O 0.50096 1.08870 0.04079
 O495 O 0.49760 1.03513 0.08651
 Zr496 Zr 0.49870 1.04052 -0.03765
 O497 O 0.50025 1.08962 -0.03447
 O498 O 0.49544 1.04177 -0.08568
 O499 O 0.47050 1.04599 0.00057
 O500 O 0.52635 1.04573 0.00043
 O501 O 0.54256 0.94558 0.05493
 O502 O 0.57767 0.97475 0.02719
 C503 C 0.57090 0.95389 0.04761
 O504 O 0.45518 0.94340 -0.05235
 O505 O 0.41993 0.97380 -0.02632
 C506 C 0.42680 0.95167 -0.04531
 O507 O 0.54239 0.94594 -0.05498
 O508 O 0.57769 0.97423 -0.02677
 C509 C 0.57077 0.95367 -0.04738
 O510 O 0.45533 0.94258 0.05190
 O511 O 0.41997 0.97317 0.02614
 C512 C 0.42693 0.95078 0.04486
 Zr513 Zr 0.49890 0.96131 0.03802
 O514 O 0.50250 0.91214 0.03855
 O515 O 0.49587 0.96223 0.08608
 Zr516 Zr 0.49877 0.96213 -0.03852
 O517 O 0.50208 0.91303 -0.04087
 O518 O 0.49534 0.96492 -0.08652
 Zr519 Zr 0.45141 1.00070 0.00016
 Zr520 Zr 0.54618 1.00088 -0.00001
 O521 O 0.52624 0.95600 -0.00030
 O522 O 0.47070 0.95544 -0.00025
 O523 O 0.52715 1.00046 0.04424
 O524 O 0.47124 1.00134 -0.04370
 O525 O 0.47125 1.00034 0.04400
 O526 O 0.52695 1.00139 -0.04422
 H527 H 0.54027 1.06423 0.00042
 H528 H 0.45712 1.00155 -0.06160
 H529 H 0.54009 0.93748 -0.00026
 H530 H 0.45712 1.00014 0.06191
 H531 H 0.51188 1.02779 -0.09378
 H532 H 0.51508 0.97418 -0.09426
 H533 H 0.48712 0.90436 -0.02589
 H534 H 0.48593 0.90381 0.02508
 H535 H 0.51258 0.97632 0.09353
 H536 H 0.49718 1.05665 0.09462
 H537 H 0.48979 1.09671 0.02267
 H538 H 0.50021 1.09761 -0.05563
 O539 O 1.04185 0.55644 0.55538
 O540 O 1.07728 0.52812 0.52732
 C541 C 1.07028 0.54876 0.54788
 O542 O 0.95511 0.44265 0.55191
 O543 O 0.91975 0.47341 0.52632
 C544 C 0.92671 0.45088 0.54490
 O545 O 1.04224 0.44585 0.55515
 O546 O 1.07742 0.47522 0.52769
 C547 C 1.07060 0.45427 0.54802
 O548 O 0.95479 0.55873 0.55238
 O549 O 0.91962 0.52773 0.52690
 C550 C 0.92642 0.55011 0.54564
 Zr551 Zr 0.99840 0.53974 0.53903
 O552 O 0.99750 0.53373 0.58673
 O553 O 0.99826 0.58874 0.54403
 Zr554 Zr 0.99862 0.46157 0.53818
 O555 O 0.99547 0.46209 0.58624
 O556 O 1.00165 0.41237 0.53805
 O557 O 1.02681 0.50074 0.54462
 O558 O 0.97084 0.50055 0.54421
 O559 O 0.95490 0.55942 0.44865
 O560 O 0.91967 0.52846 0.47426
 C561 C 0.92653 0.55098 0.45561
 O562 O 1.04224 0.44627 0.44533
 O563 O 1.07748 0.47470 0.47352
 C564 C 1.07061 0.45410 0.45289
 O565 O 0.95518 0.44333 0.44828
 O566 O 0.91980 0.47414 0.47369
 C567 C 0.92675 0.45180 0.45496
 O568 O 1.04210 0.55652 0.44545
 O569 O 1.07733 0.52746 0.47306
 C570 C 1.07046 0.54820 0.45258
 Zr571 Zr 0.99850 0.54079 0.46253
 O572 O 0.99542 0.54046 0.41446
 O573 O 1.00137 0.59001 0.46285
 Zr574 Zr 0.99866 0.46261 0.46167
 O575 O 0.99781 0.46857 0.41397
 O576 O 0.99878 0.41360 0.45666
 Zr577 Zr 1.04595 0.50131 0.50038
 Zr578 Zr 0.95115 0.50103 0.50032
 O579 O 0.97093 0.50164 0.45645
 O580 O 1.02687 0.50178 0.45613
 O581 O 0.97033 0.54634 0.50082
 O582 O 1.02615 0.45642 0.49995
 O583 O 1.02596 0.54609 0.50077
 O584 O 0.97056 0.45584 0.49986
 H585 H 0.95662 0.50032 0.56206
 H586 H 1.04028 0.43811 0.50009
 H587 H 0.95676 0.50177 0.43858
 H588 H 1.04002 0.56446 0.50060
 H589 H 0.98612 0.40459 0.52313
 H590 H 1.00805 0.40466 0.47531
 H591 H 0.99692 0.44734 0.40522
 H592 H 1.01222 0.52662 0.40680
 H593 H 0.98552 0.59768 0.47751
 H594 H 1.00746 0.59774 0.52536
 H595 H 0.99647 0.55495 0.59548
 H596 H 1.01251 0.47567 0.59389
 O597 O 0.94174 0.45724 -0.05480
 O598 O 0.97161 0.42243 -0.02760
 C599 C 0.95025 0.42914 -0.04769
 O600 O 1.05638 0.54492 -0.05250
 O601 O 1.02451 0.57936 -0.02715
 C602 C 1.04736 0.57292 -0.04578
 O603 O 1.05370 0.45865 -0.05669
 O604 O 1.02503 0.42315 -0.02904
 C605 C 1.04576 0.43037 -0.04956
 O606 O 0.93810 0.54369 -0.05125
 O607 O 0.96947 0.57882 -0.02620
 C608 C 0.94669 0.57189 -0.04462
 Zr609 Zr 0.95832 0.50060 -0.03879
 O610 O 0.96146 0.50388 -0.08679
 O611 O 0.90884 0.49909 -0.04256
 Zr612 Zr 1.03690 0.50160 -0.03986
 O613 O 1.03046 0.50327 -0.08748
 O614 O 1.08623 0.50125 -0.04554
 O615 O 0.99791 0.47296 -0.04543
 O616 O 0.99723 0.52873 -0.04469
 O617 O 0.94131 0.54238 0.05354
 O618 O 0.96889 0.57834 0.02551
 C619 C 0.94817 0.57078 0.04604
 O620 O 1.05530 0.45801 0.05301
 O621 O 1.02681 0.42283 0.02493
 C622 C 1.04775 0.42982 0.04536
 O623 O 1.05628 0.54447 0.05090
 O624 O 1.02459 0.57918 0.02565
 C625 C 1.04735 0.57254 0.04422
 O626 O 0.94443 0.45621 0.05497
 O627 O 0.97358 0.42194 0.02649
 C628 C 0.95295 0.42826 0.04741
 Zr629 Zr 0.95932 0.49974 0.03781
 O630 O 0.96061 0.50179 0.08590
 O631 O 0.90969 0.49641 0.03833
 Zr632 Zr 1.03816 0.50100 0.03675
 O633 O 1.03501 0.50171 0.08472
 O634 O 1.08785 0.49929 0.03763
 Zr635 Zr 0.99882 0.45376 -0.00122
 Zr636 Zr 0.99751 0.54776 -0.00058
 O637 O 0.99845 0.52769 0.04309
 O638 O 0.99929 0.47231 0.04308
 O639 O 0.95212 0.52791 -0.00013
 O640 O 1.04374 0.47420 -0.00181
 O641 O 0.95333 0.47289 -0.00053
 O642 O 1.04339 0.52921 -0.00142
 H643 H 0.99689 0.54314 -0.06231
 H644 H 1.06256 0.46066 -0.00213
 H645 H 0.99854 0.54148 0.06115
 H646 H 0.93497 0.45872 -0.00002
 H647 H 1.09547 0.49636 -0.02550
 H648 H 1.09563 0.51489 0.02284
 H649 H 1.05691 0.50224 0.09232
 H650 H 0.97633 0.48640 0.09289
 H651 H 0.90132 0.51380 0.02596
 H652 H 0.90051 0.49385 -0.02223
 H653 H 0.97147 0.48457 -0.09434
 H654 H 1.05179 0.50438 -0.09642
 O655 O 0.55327 0.95646 0.55438
 O656 O 0.52414 0.92153 0.52658
 C657 C 0.54526 0.92834 0.54688
 O658 O 0.43853 1.04307 0.55164
 O659 O 0.47009 1.07797 0.52637
 C660 C 0.44732 1.07120 0.54493
 O661 O 0.44131 0.95670 0.55539
 O662 O 0.47069 0.92174 0.52793
 C663 C 0.44974 0.92855 0.54842
 O664 O 0.55630 1.04279 0.55141
 O665 O 0.52503 1.07785 0.52612
 C666 C 0.54773 1.07098 0.54469
 Zr667 Zr 0.53653 0.99970 0.53837
 O668 O 0.53080 1.00039 0.58610
 O669 O 0.58599 0.99941 0.54308
 Zr670 Zr 0.45804 0.99988 0.53876
 O671 O 0.46418 1.00087 0.58644
 O672 O 0.40865 0.99940 0.54398
 O673 O 0.49722 0.97158 0.54446
 O674 O 0.49741 1.02744 0.54406
 O675 O 0.55547 1.04267 0.44763
 O676 O 0.52476 1.07778 0.47340
 C677 C 0.54723 1.07085 0.45456
 O678 O 0.44084 0.95680 0.44562
 O679 O 0.46954 0.92171 0.47363
 C680 C 0.44870 0.92863 0.45311
 O681 O 0.43915 1.04335 0.44787
 O682 O 0.47024 1.07810 0.47372
 C683 C 0.44783 1.07144 0.45477
 O684 O 0.55228 0.95634 0.44494
 O685 O 0.52358 0.92149 0.47329
 C686 C 0.54419 0.92823 0.45247
 Zr687 Zr 0.53647 0.99960 0.46179
 O688 O 0.53510 1.00301 0.41375
 O689 O 0.58610 0.99651 0.46113
 Zr690 Zr 0.45740 0.99994 0.46213
 O691 O 0.45833 1.00313 0.41406
 O692 O 0.40774 0.99743 0.46201
 Zr693 Zr 0.49685 0.95277 0.50012
 Zr694 Zr 0.49735 1.04676 0.50005
 O695 O 0.49707 1.02699 0.45627
 O696 O 0.49676 0.97175 0.45586
 O697 O 0.54289 1.02745 0.49998
 O698 O 0.45175 0.97271 0.50051
 O699 O 0.54216 0.97245 0.50004
 O700 O 0.45161 1.02777 0.50041
 H701 H 0.49753 1.04166 0.56180
 H702 H 0.43313 0.95887 0.50067
 H703 H 0.49713 1.04094 0.43829
 H704 H 0.56075 0.95861 0.49975
 H705 H 0.39963 0.99342 0.52415
 H706 H 0.39989 1.01366 0.47605
 H707 H 0.46947 0.98457 0.40627
 H708 H 0.52360 0.98464 0.40600
 H709 H 0.59424 1.01195 0.47584
 H710 H 0.59482 0.99122 0.52392
 H711 H 0.55226 1.00144 0.59473
 H712 H 0.44280 1.00215 0.59525
 O713 O 1.05868 0.94260 0.54221
 O714 O 1.02967 0.97078 0.57647
 C715 C 1.05093 0.95033 0.56971
 O716 O 1.05864 1.05373 0.45769
 O717 O 1.02965 1.02510 0.42383
 C718 C 1.05012 1.04642 0.43033
 O719 O 1.06336 1.04948 0.54203
 O720 O 1.03192 1.02402 0.57641
 C721 C 1.05490 1.04254 0.56955
 O722 O 1.05442 0.93936 0.45777
 O723 O 1.02756 0.97004 0.42387
 C724 C 1.04667 0.94753 0.43037
 Zr725 Zr 1.04092 0.95783 0.50012
 O726 O 1.09049 0.95619 0.49662
 O727 O 1.03909 0.90869 0.50378
 Zr728 Zr 1.04451 1.03559 0.49999
 O729 O 1.09372 1.02963 0.49766
 O730 O 1.04947 1.08451 0.50311
 O731 O 1.04903 0.99650 0.52740
 O732 O 1.04824 0.99653 0.47315
 O733 O 0.94653 0.94355 0.45896
 O734 O 0.97511 0.97191 0.42444
 C735 C 0.95448 0.95087 0.43142
 O736 O 0.94893 1.05498 0.54289
 O737 O 0.97787 1.02641 0.57690
 C738 C 0.95686 1.04718 0.57031
 O739 O 0.95127 1.05769 0.45842
 O740 O 0.97730 1.02684 0.42416
 C741 C 0.95837 1.04941 0.43093
 O742 O 0.94376 0.94761 0.54336
 O743 O 0.97549 0.97338 0.57712
 C744 C 0.95241 0.95485 0.57071
 Zr745 Zr 0.96187 0.96130 0.50089
 O746 O 0.91233 0.96411 0.49746
 O747 O 0.95880 0.91225 0.50478
 Zr748 Zr 0.96539 1.03922 0.50057
 O749 O 0.91577 1.04072 0.49743
 O750 O 0.96697 1.08838 0.50388
 Zr751 Zr 1.00348 0.99859 0.54608
 Zr752 Zr 1.00272 0.99847 0.45466
 O753 O 0.95759 1.00044 0.47407
 O754 O 0.95760 1.00060 0.52812
 O755 O 1.00088 0.95325 0.47340
 O756 O 1.00545 1.04336 0.52667
 O757 O 1.00136 0.95372 0.52700
 O758 O 1.00498 1.04368 0.47320
 H759 H 1.06648 0.99587 0.45915
 H760 H 1.00650 1.06188 0.54004
 H761 H 0.93905 1.00113 0.46046
 H762 H 1.00064 0.93532 0.54061
 H763 H 1.03309 1.09384 0.49005
 H764 H 0.98029 1.09618 0.48707
 H765 H 0.90712 1.02950 0.51523
 H766 H 0.90465 0.97636 0.51498
 H767 H 0.97261 0.90319 0.48903
 H768 H 1.02572 0.90089 0.48705
 H769 H 1.09906 0.97120 0.51152
 H770 H 1.10286 1.05086 0.49746
 O771 O 0.44373 0.44601 -0.04131
 O772 O 0.47400 0.47237 -0.07603
 C773 C 0.45171 0.45312 -0.06893
 O774 O 0.44980 0.55673 0.04246
 O775 O 0.47704 0.52641 0.07635
 C776 C 0.45762 0.54868 0.06985
 O777 O 0.44437 0.55272 -0.04172
 O778 O 0.47424 0.52586 -0.07626
 C779 C 0.45206 0.54525 -0.06928
 O780 O 0.44890 0.44252 0.04297
 O781 O 0.47672 0.47262 0.07657
 C782 C 0.45684 0.45067 0.07027
 Zr783 Zr 0.46302 0.46012 0.00052
 O784 O 0.41346 0.45895 0.00393
 O785 O 0.46578 0.41100 -0.00098
 Zr786 Zr 0.46322 0.53829 0.00013
 O787 O 0.41372 0.53545 0.00277
 O788 O 0.46171 0.58743 -0.00338
 O789 O 0.45642 0.49918 -0.02683
 O790 O 0.45769 0.49935 0.02706
 O791 O 0.55663 0.44160 0.04119
 O792 O 0.53068 0.47238 0.07560
 C793 C 0.54982 0.45001 0.06873
 O794 O 0.55972 0.55208 -0.04367
 O795 O 0.52906 0.52479 -0.07721
 C796 C 0.55127 0.54439 -0.07095
 O797 O 0.55805 0.55549 0.04079
 O798 O 0.53078 0.52612 0.07552
 C799 C 0.55087 0.54762 0.06840
 O800 O 0.55866 0.44496 -0.04332
 O801 O 0.52812 0.47222 -0.07707
 C802 C 0.55021 0.45253 -0.07068
 Zr803 Zr 0.54169 0.45981 -0.00080
 O804 O 0.59135 0.45973 0.00198
 O805 O 0.54144 0.41062 -0.00361
 Zr806 Zr 0.54210 0.53807 -0.00113
 O807 O 0.59175 0.53868 0.00153
 O808 O 0.54158 0.58725 -0.00492
 Zr809 Zr 0.50173 0.49903 -0.04606
 Zr810 Zr 0.50329 0.49930 0.04544
 O811 O 0.54824 0.49897 0.02547
 O812 O 0.54775 0.49883 -0.02828
 O813 O 0.50275 0.45395 0.02722
 O814 O 0.50225 0.54397 -0.02711
 O815 O 0.50182 0.45414 -0.02680
 O816 O 0.50317 0.54455 0.02673
 H817 H 0.43933 0.49948 0.04091
 H818 H 0.50211 0.56233 -0.04081
 H819 H 0.56710 0.49881 0.03867
 H820 H 0.50145 0.43567 -0.04029
 H821 H 0.47733 0.59583 0.01108
 H822 H 0.53064 0.59561 0.01316
 H823 H 0.59981 0.52452 -0.01437
 H824 H 0.59951 0.47172 -0.01554
 H825 H 0.52497 0.40301 0.01044
 H826 H 0.44383 0.40332 -0.00070
 H827 H 0.40540 0.47679 -0.00800
 H828 H 0.40595 0.55720 0.00289
 C829 C 0.31840 1.18772 0.15599
 C830 C 0.32611 1.15620 0.15783
 C831 C 0.34504 1.14066 0.13420
 N832 N 0.34437 1.10917 0.13133
 N833 N 0.36254 1.09485 0.11095
 C834 C 0.38229 1.11152 0.09289
 N835 N 0.38301 1.14296 0.09585
 N836 N 0.36459 1.15729 0.11594
 C837 C 0.40486 1.09609 0.07249
 C838 C 0.40089 1.06590 0.06138
 H839 H 0.31762 1.14245 0.17681
 H840 H 0.42583 1.10897 0.06635
 H841 H 0.32416 1.20063 0.13554
 H842 H 0.37877 1.05388 0.06460
 C843 C 0.81876 0.68879 0.65554
 C844 C 0.82625 0.65722 0.65727
 C845 C 0.84502 0.64161 0.63360
 N846 N 0.84425 0.61012 0.63080
 N847 N 0.86229 0.59572 0.61039
 C848 C 0.88199 0.61229 0.59221
 N849 N 0.88282 0.64374 0.59509
 N850 N 0.86452 0.65816 0.61523
 C851 C 0.90444 0.59675 0.57180
 C852 C 0.90048 0.56643 0.56106
 H853 H 0.81767 0.64347 0.67621
 H854 H 0.92535 0.60960 0.56543
 H855 H 0.82456 0.70176 0.63514
 H856 H 0.87840 0.55439 0.56451
 C857 C 0.68325 0.81570 0.15437
 C858 C 0.67491 0.84703 0.15670
 C859 C 0.65554 0.86277 0.13356
 N860 N 0.65534 0.89434 0.13165
 N861 N 0.63649 0.90887 0.11200
 C862 C 0.61688 0.89233 0.09378
 N863 N 0.61704 0.86078 0.09577
 N864 N 0.63615 0.84625 0.11513
 C865 C 0.59368 0.90787 0.07416
 C866 C 0.59693 0.93841 0.06369
 H867 H 0.68289 0.86047 0.17605
 H868 H 0.57302 0.89466 0.06775
 H869 H 0.67809 0.80307 0.13365
 H870 H 0.61881 0.95082 0.06698
 C871 C 1.18099 0.31565 0.65581
 C872 C 1.17313 0.34709 0.65810
 C873 C 1.15396 0.36296 0.63490
 N874 N 1.13453 0.34654 0.61641
 N875 N 1.11574 0.36115 0.59683
 C876 C 1.11596 0.39267 0.59464
 N877 N 1.13559 0.40913 0.61291
 N878 N 1.15413 0.39452 0.63279
 C879 C 1.09306 0.40829 0.57476
 C880 C 1.09653 0.43877 0.56422
 H881 H 1.18146 0.36052 0.67732
 H882 H 1.07240 0.39515 0.56823
 H883 H 1.17543 0.30304 0.63518
 H884 H 1.11842 0.45114 0.56763
 C885 C 0.68076 1.18506 -0.15739
 C886 C 0.67293 1.15360 -0.15939
 C887 C 0.65370 1.13802 -0.13604
 N888 N 0.65397 1.10650 -0.13344
 N889 N 0.63546 1.09215 -0.11334
 C890 C 0.61576 1.10883 -0.09532
 N891 N 0.61544 1.14031 -0.09802
 N892 N 0.63420 1.15466 -0.11783
 C893 C 0.59296 1.09345 -0.07516
 C894 C 0.59657 1.06317 -0.06420
 H895 H 0.68142 1.13994 -0.17839
 H896 H 0.57224 1.10659 -0.06881
 H897 H 0.67504 1.19791 -0.13694
 H898 H 0.61851 1.05086 -0.06748
 C899 C 1.18114 0.68387 0.34208
 C900 C 1.17303 0.65249 0.34002
 C901 C 1.15363 0.63719 0.36339
 N902 N 1.15377 0.60570 0.36629
 N903 N 1.13517 0.59164 0.38653
 C904 C 1.11555 0.60860 0.40437
 N905 N 1.11535 0.64004 0.40136
 N906 N 1.13419 0.65410 0.38142
 C907 C 1.09271 0.59355 0.42470
 C908 C 1.09635 0.56345 0.43611
 H909 H 1.18139 0.63876 0.32102
 H910 H 1.07198 0.60676 0.43083
 H911 H 1.17550 0.69670 0.36257
 H912 H 1.11831 0.55112 0.43302
 C913 C 0.32044 0.81116 -0.15459
 C914 C 0.32792 0.84275 -0.15649
 C915 C 0.34634 0.85871 -0.13277
 N916 N 0.34541 0.89024 -0.13035
 N917 N 0.36318 0.90500 -0.10995
 C918 C 0.38275 0.88876 -0.09140
 N919 N 0.38372 0.85727 -0.09390
 N920 N 0.36569 0.84250 -0.11402
 C921 C 0.40501 0.90468 -0.07104
 C922 C 0.40093 0.93513 -0.06066
 H923 H 0.31951 0.85631 -0.17563
 H924 H 0.42592 0.89200 -0.06443
 H925 H 0.32596 0.79836 -0.13403
 H926 H 0.37882 0.94704 -0.06427
 C927 C 0.81995 0.31226 0.34517
 C928 C 0.82755 0.34381 0.34322
 C929 C 0.84612 0.35961 0.36693
 N930 N 0.84532 0.39112 0.36951
 N931 N 0.86319 0.40569 0.38997
 C932 C 0.88273 0.38927 0.40840
 N933 N 0.88357 0.35780 0.40572
 N934 N 0.86545 0.34322 0.38555
 C935 C 0.90502 0.40498 0.42885
 C936 C 0.90093 0.43532 0.43950
 H937 H 0.81924 0.35738 0.32406
 H938 H 0.92594 0.39223 0.43534
 H939 H 0.82548 0.29950 0.36576
 H940 H 0.87882 0.44725 0.43595
 C941 C 1.19030 0.32671 0.15624
 C942 C 1.15817 0.33305 0.15728
 C943 C 1.14201 0.35121 0.13352
 N944 N 1.11030 0.34936 0.13053
 N945 N 1.09521 0.36681 0.11011
 C946 C 1.11131 0.38698 0.09208
 N947 N 1.14299 0.38885 0.09511
 N948 N 1.15810 0.37115 0.11527
 C949 C 1.09496 0.40885 0.07174
 C950 C 1.06439 0.40436 0.06106
 H951 H 1.14418 0.32360 0.17571
 H952 H 1.10745 0.42986 0.06531
 H953 H 1.20379 0.33313 0.13629
 H954 H 1.05265 0.38223 0.06438
 C955 C 0.68890 0.82598 0.65640
 C956 C 0.65675 0.83209 0.65771
 C957 C 0.64032 0.85000 0.63400
 N958 N 0.60857 0.84826 0.63151
 N959 N 0.59328 0.86551 0.61107
 C960 C 0.60922 0.88531 0.59254
 N961 N 0.64095 0.88705 0.59508
 N962 N 0.65625 0.86957 0.61526
 C963 C 0.59271 0.90699 0.57219
 C964 C 0.56180 0.90279 0.56244
 H965 H 0.64299 0.82268 0.67633
 H966 H 0.60534 0.92769 0.56511
 H967 H 0.70217 0.83239 0.63632
 H968 H 0.54980 0.88091 0.56636
 C969 C 1.18680 0.68038 -0.15686
 C970 C 1.15783 0.66544 -0.16098
 C971 C 1.14144 0.64925 -0.13591
 N972 N 1.10964 0.64659 -0.13620
 N973 N 1.09466 0.63071 -0.11447
 C974 C 1.11098 0.61661 -0.09178
 N975 N 1.14278 0.61916 -0.09157
 N976 N 1.15772 0.63542 -0.11303
 C977 C 1.09526 0.59572 -0.06989
 C978 C 1.06380 0.59873 -0.06127
 H979 H 1.14578 0.66708 -0.18263
 H980 H 1.10882 0.57642 -0.06096
 H981 H 1.19647 0.68122 -0.13405
 H982 H 1.05086 0.61964 -0.06700
 C983 C 0.69073 1.17411 0.34444
 C984 C 0.65864 1.16750 0.34320
 C985 C 0.64236 1.14943 0.36701
 N986 N 0.61061 1.15107 0.36974
 N987 N 0.59544 1.13371 0.39021
 C988 C 0.61148 1.11385 0.40857
 N989 N 0.64320 1.11218 0.40580
 N990 N 0.65839 1.12979 0.38558
 C991 C 0.59502 1.09205 0.42901
 C992 C 0.56425 1.09637 0.43922
 H993 H 0.64478 1.17669 0.32457
 H994 H 0.60755 1.07118 0.43575
 H995 H 0.70404 1.16791 0.36454
 H996 H 0.55244 1.11837 0.43547
 C997 C 0.81619 0.67947 0.15945
 C998 C 0.83937 0.65828 0.16825
 C999 C 0.86019 0.64130 0.14729
 N1000 N 0.86323 0.64883 0.11733
 N1001 N 0.88283 0.63283 0.09940
 C1002 C 0.90001 0.60885 0.11092
 N1003 N 0.89686 0.60155 0.14076
 N1004 N 0.87758 0.61757 0.15861
 C1005 C 0.91980 0.58859 0.09196
 C1006 C 0.93138 0.59546 0.06293
 H1007 H 0.84238 0.65323 0.19222
 H1008 H 0.92595 0.56639 0.10209
 H1009 H 0.81208 0.68404 0.13555
 H1010 H 0.92852 0.61843 0.05314
 C1011 C 0.30879 1.17658 0.65727
 C1012 C 0.34064 1.16913 0.65831
 C1013 C 0.35592 1.15065 0.63432
 N1014 N 0.38759 1.15171 0.63078
 N1015 N 0.40178 1.13413 0.60992
 C1016 C 0.38480 1.11465 0.59200
 N1017 N 0.35316 1.11353 0.59562
 N1018 N 0.33894 1.13136 0.61622
 C1019 C 0.40021 1.09276 0.57110
 C1020 C 0.43073 1.09686 0.56021
 H1021 H 0.35500 1.17799 0.67670
 H1022 H 0.38726 1.07204 0.56474
 H1023 H 0.29513 1.17065 0.63731
 H1024 H 0.44285 1.11875 0.56372
 C1025 C 0.81039 0.32287 -0.15874
 C1026 C 0.84237 0.32994 -0.15992
 C1027 C 0.85810 0.34857 -0.13626
 N1028 N 0.88984 0.34747 -0.13319
 N1029 N 0.90447 0.36529 -0.11279
 C1030 C 0.88787 0.38509 -0.09488
 N1031 N 0.85617 0.38622 -0.09801
 N1032 N 0.84152 0.36816 -0.11814
 C1033 C 0.90364 0.40729 -0.07447
 C1034 C 0.93424 0.40344 -0.06362
 H1035 H 0.85652 0.32078 -0.17833
 H1036 H 0.89064 0.42795 -0.06807
 H1037 H 0.79686 0.32911 -0.13879
 H1038 H 0.94648 0.38163 -0.06700
 C1039 C 0.30917 0.82289 0.34159
 C1040 C 0.34116 0.82991 0.34055
 C1041 C 0.35677 0.84855 0.36424
 N1042 N 0.38846 0.84729 0.36753
 N1043 N 0.40302 0.86512 0.38795
 C1044 C 0.38638 0.88509 0.40565
 N1045 N 0.35471 0.88638 0.40229
 N1046 N 0.34014 0.86830 0.38213
 C1047 C 0.40214 0.90723 0.42607
 C1048 C 0.43259 0.90309 0.43713
 H1049 H 0.35540 0.82070 0.32223
 H1050 H 0.38929 0.92805 0.43229
 H1051 H 0.29552 0.82912 0.36146
 H1052 H 0.44460 0.88111 0.43396
 C1053 C 1.17115 1.18224 0.33375
 C1054 C 1.14939 1.15994 0.32454
 C1055 C 1.13159 1.14188 0.34693
 N1056 N 1.11247 1.11835 0.33789
 N1057 N 1.09694 1.10137 0.35836
 C1058 C 1.10008 1.10746 0.38850
 N1059 N 1.11900 1.13107 0.39745
 N1060 N 1.13449 1.14796 0.37704
 C1061 C 1.08409 1.08905 0.41171
 C1062 C 1.06465 1.06382 0.40529
 H1063 H 1.14603 1.15496 0.30062
 H1064 H 1.08821 1.09577 0.43511
 H1065 H 1.17475 1.18675 0.35773
 H1066 H 1.05983 1.05715 0.38201
 C1067 C 0.67320 0.67928 -0.16680
 C1068 C 0.65149 0.65702 -0.17617
 C1069 C 0.63612 0.63657 -0.15408
 N1070 N 0.61366 0.61614 -0.16310
 N1071 N 0.59987 0.59739 -0.14294
 C1072 C 0.60831 0.59839 -0.11317
 N1073 N 0.63084 0.61866 -0.10427
 N1074 N 0.64451 0.63740 -0.12434
 C1075 C 0.59314 0.57904 -0.09020
 C1076 C 0.56781 0.55950 -0.09622
 H1077 H 0.64621 0.65403 -0.20009
 H1078 H 0.60158 0.58159 -0.06709
 H1079 H 0.67793 0.68251 -0.14280
 H1080 H 0.55948 0.55620 -0.11927
 C1081 C 0.82716 1.17638 0.66503
 C1082 C 0.84963 1.15489 0.67453
 C1083 C 0.86791 1.13700 0.65244
 N1084 N 0.88926 1.11562 0.66193
 N1085 N 0.90570 1.09917 0.64176
 C1086 C 0.90123 1.10364 0.61149
 N1087 N 0.87996 1.12500 0.60210
 N1088 N 0.86359 1.14138 0.62219
 C1089 C 0.91855 1.08612 0.58859
 C1090 C 0.94091 1.06345 0.59526
 H1091 H 0.85367 1.15085 0.69854
 H1092 H 0.91311 1.09155 0.56510
 H1093 H 0.82314 1.18022 0.64098
 H1094 H 0.94665 1.05773 0.61861
 C1095 C 0.32892 0.67824 0.16469
 C1096 C 0.35135 0.65671 0.17419
 C1097 C 0.37097 0.64012 0.15220
 N1098 N 0.39046 0.61699 0.16151
 N1099 N 0.40788 0.60149 0.14141
 C1100 C 0.40642 0.60878 0.11138
 N1101 N 0.38714 0.63202 0.10218
 N1102 N 0.36972 0.64741 0.12221
 C1103 C 0.42428 0.59175 0.08848
 C1104 C 0.44304 0.56600 0.09489
 H1105 H 0.35428 0.65153 0.19814
 H1106 H 0.42147 0.59946 0.06516
 H1107 H 0.32561 0.68282 0.14066
 H1108 H 0.44659 0.55833 0.11811
 C1109 C 1.17860 0.82139 0.66804
 C1110 C 1.15625 0.84356 0.67659
 C1111 C 1.13907 0.86165 0.65378
 N1112 N 1.11719 0.88281 0.66250
 N1113 N 1.10155 0.89933 0.64178
 C1114 C 1.10736 0.89521 0.61169
 N1115 N 1.12923 0.87411 0.60304
 N1116 N 1.14480 0.85764 0.62370
 C1117 C 1.09057 0.91268 0.58830
 C1118 C 1.06729 0.93448 0.59467
 H1119 H 1.15122 0.84797 0.70037
 H1120 H 1.09681 0.90774 0.56491
 H1121 H 1.18292 0.81745 0.64403
 H1122 H 1.06093 0.93975 0.61795
 C1123 C 0.67516 0.31825 0.16586
 C1124 C 0.65309 0.34037 0.17474
 C1125 C 0.63483 0.35776 0.15219
 N1126 N 0.61506 0.38079 0.16108
 N1127 N 0.59883 0.39696 0.14052
 C1128 C 0.60185 0.39053 0.11043
 N1129 N 0.62147 0.36743 0.10163
 N1130 N 0.63768 0.35134 0.12212
 C1131 C 0.58488 0.40804 0.08718
 C1132 C 0.56511 0.43300 0.09361
 H1133 H 0.64950 0.34547 0.19862
 H1134 H 0.58867 0.40103 0.06380
 H1135 H 0.67900 0.31361 0.14193
 H1136 H 0.56096 0.44012 0.11688
 C1137 C 0.82396 0.82272 0.33657
 C1138 C 0.84680 0.84402 0.32747
 C1139 C 0.86556 0.86112 0.34971
 N1140 N 0.88651 0.88295 0.34035
 N1141 N 0.90346 0.89876 0.36058
 C1142 C 0.89999 0.89313 0.39078
 N1143 N 0.87916 0.87124 0.40006
 N1144 N 0.86223 0.85552 0.37989
 C1145 C 0.91771 0.91026 0.41364
 C1146 C 0.93877 0.93407 0.40674
 H1147 H 0.85091 0.84850 0.30354
 H1148 H 0.91340 0.90394 0.43715
 H1149 H 0.81963 0.81858 0.36053
 H1150 H 0.94356 0.94043 0.38335
 C1151 C 0.32445 0.32279 -0.16486
 C1152 C 0.34671 0.34471 -0.17388
 C1153 C 0.36336 0.36369 -0.15147
 N1154 N 0.38556 0.38442 -0.16051
 N1155 N 0.40064 0.40180 -0.14011
 C1156 C 0.39386 0.39903 -0.11004
 N1157 N 0.37164 0.37840 -0.10108
 N1158 N 0.35665 0.36105 -0.12141
 C1159 C 0.41029 0.41718 -0.08697
 C1160 C 0.43459 0.43779 -0.09364
 H1161 H 0.35173 0.34837 -0.19778
 H1162 H 0.40336 0.41330 -0.06355
 H1163 H 0.31971 0.31909 -0.14092
 H1164 H 0.44159 0.44205 -0.11696
 C1165 C 1.18507 0.32047 -0.15663
 C1166 C 1.15346 0.32851 -0.15921
 C1167 C 1.13759 0.34788 -0.13632
 N1168 N 1.10577 0.34770 -0.13411
 N1169 N 1.09113 0.36634 -0.11445
 C1170 C 1.10781 0.38608 -0.09653
 N1171 N 1.13959 0.38633 -0.09885
 N1172 N 1.15423 0.36744 -0.11821
 C1173 C 1.09209 0.40882 -0.07679
 C1174 C 1.06156 0.40496 -0.06592
 H1175 H 1.13992 0.32013 -0.17839
 H1176 H 1.10515 0.42952 -0.07056
 H1177 H 1.19775 0.32607 -0.13599
 H1178 H 1.04940 0.38305 -0.06908
 C1179 C 0.68319 0.82105 0.34212
 C1180 C 0.65145 0.82872 0.33973
 C1181 C 0.63548 0.84744 0.36319
 N1182 N 0.60368 0.84681 0.36581
 N1183 N 0.58907 0.86473 0.38616
 C1184 C 0.60576 0.88414 0.40442
 N1185 N 0.63749 0.88482 0.40169
 N1186 N 0.65210 0.86667 0.38164
 C1187 C 0.59015 0.90645 0.42479
 C1188 C 0.55977 0.90256 0.43616
 H1189 H 0.63792 0.82036 0.32055
 H1190 H 0.60326 0.92713 0.43100
 H1191 H 0.69577 0.82667 0.36281
 H1192 H 0.54750 0.88069 0.43310
 C1193 C 0.81101 0.68125 -0.15657
 C1194 C 0.84258 0.67283 -0.15811
 C1195 C 0.85739 0.65358 -0.13436
 N1196 N 0.88904 0.65397 -0.13060
 N1197 N 0.90271 0.63563 -0.10999
 C1198 C 0.88522 0.61601 -0.09259
 N1199 N 0.85361 0.61553 -0.09648
 N1200 N 0.83992 0.63413 -0.11679
 C1201 C 0.90008 0.59349 -0.07189
 C1202 C 0.93016 0.59759 -0.05998
 H1203 H 0.85693 0.68108 -0.17682
 H1204 H 0.88707 0.57254 -0.06634
 H1205 H 0.79761 0.67574 -0.13631
 H1206 H 0.94212 0.61968 -0.06278
 C1207 C 0.31096 1.18136 0.34394
 C1208 C 0.34257 1.17300 0.34228
 C1209 C 0.35772 1.15387 0.36596
 N1210 N 0.38946 1.15405 0.36910
 N1211 N 0.40346 1.13571 0.38952
 C1212 C 0.38622 1.11627 0.40733
 N1213 N 0.35452 1.11602 0.40409
 N1214 N 0.34050 1.13462 0.38397
 C1215 C 0.40134 1.09363 0.42779
 C1216 C 0.43173 1.09729 0.43914
 H1217 H 0.35673 1.18118 0.32341
 H1218 H 0.38812 1.07293 0.43375
 H1219 H 0.29768 1.17594 0.36430
 H1220 H 0.44402 1.11915 0.43606
 C1221 C 1.18757 0.67862 0.15423
 C1222 C 1.15574 0.67112 0.15598
 C1223 C 1.13992 0.65280 0.13217
 N1224 N 1.10813 0.65342 0.12958
 N1225 N 1.09353 0.63576 0.10903
 C1226 C 1.11021 0.61662 0.09050
 N1227 N 1.14195 0.61596 0.09317
 N1228 N 1.15656 0.63387 0.11344
 C1229 C 1.09449 0.59454 0.06997
 C1230 C 1.06374 0.59830 0.05963
 H1231 H 1.14194 0.67933 0.17506
 H1232 H 1.10754 0.57401 0.06327
 H1233 H 1.20058 0.67318 0.13373
 H1234 H 1.05145 0.62003 0.06337
 C1235 C 0.68709 1.17834 0.65484
 C1236 C 0.65530 1.17065 0.65654
 C1237 C 0.63970 1.15185 0.63291
 N1238 N 0.60796 1.15260 0.62985
 N1239 N 0.59356 1.13459 0.60946
 C1240 C 0.61038 1.11492 0.59159
 N1241 N 0.64208 1.11411 0.59475
 N1242 N 0.65650 1.13238 0.61484
 C1243 C 0.59479 1.09258 0.57119
 C1244 C 0.56437 1.09665 0.56003
 H1245 H 0.64134 1.17913 0.67540
 H1246 H 0.60766 1.07171 0.56518
 H1247 H 0.70023 1.17262 0.63449
 H1248 H 0.55241 1.11866 0.56318
 C1249 C 0.81565 0.31708 0.15718
 C1250 C 0.84729 0.32533 0.15930
 C1251 C 0.86292 0.34451 0.13589
 N1252 N 0.89474 0.34467 0.13347
 N1253 N 0.90910 0.36316 0.11337
 C1254 C 0.89212 0.38240 0.09515
 N1255 N 0.86034 0.38228 0.09767
 N1256 N 0.84599 0.36355 0.11747
 C1257 C 0.90740 0.40532 0.07505
 C1258 C 0.93794 0.40224 0.06384
 H1259 H 0.86105 0.31724 0.17846
 H1260 H 0.89386 0.42572 0.06883
 H1261 H 0.80278 0.32243 0.13658
 H1262 H 0.95067 0.38064 0.06690
 C1263 C 0.31593 0.81367 0.65925
 C1264 C 0.34487 0.82861 0.66354
 C1265 C 0.36035 0.84658 0.63909
 N1266 N 0.39208 0.85000 0.63888
 N1267 N 0.40615 0.86770 0.61793
 C1268 C 0.38893 0.88300 0.59663
 N1269 N 0.35720 0.87971 0.59695
 N1270 N 0.34319 0.86163 0.61759
 C1271 C 0.40366 0.90540 0.57552
 C1272 C 0.43461 0.90283 0.56525
 H1273 H 0.35709 0.82647 0.68505
 H1274 H 0.38955 0.92488 0.56786
 H1275 H 0.30617 0.81327 0.63646
 H1276 H 0.44785 0.88178 0.56968
 C1277 C 0.32312 1.19125 -0.15631
 C1278 C 0.32979 1.15946 -0.15727
 C1279 C 0.34787 1.14366 -0.13320
 N1280 N 0.34630 1.11221 -0.13011
 N1281 N 0.36363 1.09751 -0.10930
 C1282 C 0.38337 1.11375 -0.09095
 N1283 N 0.38497 1.14516 -0.09409
 N1284 N 0.36739 1.15988 -0.11465
 C1285 C 0.40520 1.09782 -0.07017
 C1286 C 0.40093 1.06733 -0.05983
 H1287 H 0.32065 1.14552 -0.17579
 H1288 H 0.42612 1.11042 -0.06343
 H1289 H 0.32928 1.20461 -0.13631
 H1290 H 0.37884 1.05544 -0.06363
 C1291 C 0.82144 0.69214 0.34559
 C1292 C 0.82857 0.66045 0.34440
 C1293 C 0.84671 0.64457 0.36836
 N1294 N 0.84550 0.61307 0.37101
 N1295 N 0.86305 0.59826 0.39156
 C1296 C 0.88269 0.61443 0.41006
 N1297 N 0.88393 0.64591 0.40737
 N1298 N 0.86612 0.66074 0.38708
 C1299 C 0.90475 0.59838 0.43054
 C1300 C 0.90066 0.56775 0.44052
 H1301 H 0.81988 0.64663 0.32560
 H1302 H 0.92562 0.61101 0.43737
 H1303 H 0.82709 0.70539 0.36581
 H1304 H 0.87860 0.55583 0.43666
 C1305 C 0.67740 1.18752 0.15805
 C1306 C 0.67046 1.15578 0.15941
 C1307 C 0.65170 1.13997 0.13587
 N1308 N 0.65302 1.10850 0.13295
 N1309 N 0.63501 1.09379 0.11271
 C1310 C 0.61480 1.11004 0.09483
 N1311 N 0.61345 1.14147 0.09782
 N1312 N 0.63170 1.15620 0.11778
 C1313 C 0.59237 1.09416 0.07465
 C1314 C 0.59652 1.06394 0.06367
 H1315 H 0.67973 1.14192 0.17795
 H1316 H 0.57132 1.10684 0.06842
 H1317 H 0.67111 1.20079 0.13799
 H1318 H 0.61872 1.05206 0.06676
 C1319 C 1.17455 0.69055 0.65817
 C1320 C 1.16785 0.65873 0.65949
 C1321 C 1.14964 0.64254 0.63577
 N1322 N 1.15128 0.61105 0.63318
 N1323 N 1.13374 0.59596 0.61283
 C1324 C 1.11369 0.61182 0.59447
 N1325 N 1.11203 0.64328 0.59710
 N1326 N 1.12981 0.65840 0.61719
 C1327 C 1.09164 0.59551 0.57417
 C1328 C 1.09597 0.56507 0.56376
 H1329 H 1.17708 0.64501 0.67815
 H1330 H 1.07064 0.60800 0.56747
 H1331 H 1.16840 0.70375 0.63803
 H1332 H 1.11814 0.55328 0.56731
 C1333 C 0.67467 0.81203 -0.15747
 C1334 C 0.66851 0.84392 -0.15870
 C1335 C 0.65024 0.86011 -0.13505
 N1336 N 0.65202 0.89157 -0.13236
 N1337 N 0.63445 0.90664 -0.11202
 C1338 C 0.61425 0.89075 -0.09379
 N1339 N 0.61246 0.85932 -0.09653
 N1340 N 0.63027 0.84424 -0.11661
 C1341 C 0.59222 0.90701 -0.07351
 C1342 C 0.59651 0.93747 -0.06322
 H1343 H 0.67810 0.85764 -0.17721
 H1344 H 0.57123 0.89447 -0.06677
 H1345 H 0.66807 0.79879 -0.13747
 H1346 H 0.61867 0.94933 -0.06680
 C1347 C 1.17545 0.31326 0.34247
 C1348 C 1.16906 0.34512 0.34118
 C1349 C 1.15062 0.36119 0.36481
 N1350 N 1.15227 0.39266 0.36762
 N1351 N 1.13456 0.40759 0.38795
 C1352 C 1.11435 0.39156 0.40607
 N1353 N 1.11269 0.36013 0.40320
 N1354 N 1.13063 0.34519 0.38313
 C1355 C 1.09218 0.40767 0.42635
 C1356 C 1.09641 0.43802 0.43699
 H1357 H 1.17858 0.35887 0.32266
 H1358 H 1.07115 0.39506 0.43287
 H1359 H 1.16887 0.30006 0.36250
 H1360 H 1.11859 0.44991 0.43361
 C1361 C 0.32476 0.80851 0.15550
 C1362 C 0.33095 0.84038 0.15660
 C1363 C 0.34889 0.85648 0.13265
 N1364 N 0.34699 0.88791 0.12972
 N1365 N 0.36417 0.90289 0.10896
 C1366 C 0.38406 0.88696 0.09053
 N1367 N 0.38599 0.85556 0.09351
 N1368 N 0.36857 0.84055 0.11402
 C1369 C 0.40569 0.90322 0.06982
 C1370 C 0.40121 0.93379 0.05992
 H1371 H 0.32150 0.85413 0.17511
 H1372 H 0.42666 0.89084 0.06285
 H1373 H 0.33124 0.79528 0.13550
 H1374 H 0.37906 0.94549 0.06390
 C1375 C 0.82491 0.30778 0.65512
 C1376 C 0.83103 0.33968 0.65617
 C1377 C 0.84882 0.35590 0.63218
 N1378 N 0.84688 0.38734 0.62942
 N1379 N 0.86399 0.40247 0.60870
 C1380 C 0.88385 0.38667 0.59012
 N1381 N 0.88580 0.35525 0.59292
 N1382 N 0.86846 0.34010 0.61339
 C1383 C 0.90544 0.40309 0.56948
 C1384 C 0.90098 0.43377 0.55985
 H1385 H 0.82162 0.35339 0.67472
 H1386 H 0.92639 0.39076 0.56237
 H1387 H 0.83131 0.29454 0.63511
 H1388 H 0.87886 0.44546 0.56397
 C1389 C 1.17918 1.17518 0.66515
 C1390 C 1.15814 1.15218 0.67436
 C1391 C 1.14276 1.13194 0.65217
 N1392 N 1.12013 1.11166 0.66117
 N1393 N 1.10585 1.09347 0.64092
 C1394 C 1.11391 1.09490 0.61107
 N1395 N 1.13668 1.11498 0.60218
 N1396 N 1.15086 1.13317 0.62235
 C1397 C 1.09796 1.07626 0.58808
 C1398 C 1.07226 1.05728 0.59444
 H1399 H 1.15273 1.14897 0.69824
 H1400 H 1.10603 1.07890 0.56484
 H1401 H 1.18396 1.17873 0.64119
 H1402 H 1.06422 1.05411 0.61762
 C1403 C 0.68128 0.67614 0.16357
 C1404 C 0.65930 0.65389 0.17254
 C1405 C 0.64131 0.63607 0.15020
 N1406 N 0.61975 0.61480 0.15951
 N1407 N 0.60305 0.59879 0.13923
 C1408 C 0.60741 0.60362 0.10900
 N1409 N 0.62896 0.62484 0.09976
 N1410 N 0.64561 0.64079 0.11998
 C1411 C 0.58957 0.58661 0.08608
 C1412 C 0.56717 0.56402 0.09301
 H1413 H 0.65476 0.64975 0.19645
 H1414 H 0.59467 0.59219 0.06255
 H1415 H 0.68582 0.68018 0.13964
 H1416 H 0.56189 0.55816 0.11643
 C1417 C 1.17625 0.82124 0.33264
 C1418 C 1.15392 0.84306 0.32364
 C1419 C 1.13455 0.85922 0.34617
 N1420 N 1.11416 0.88180 0.33742
 N1421 N 1.09666 0.89657 0.35798
 C1422 C 1.09893 0.88907 0.38792
 N1423 N 1.11916 0.86642 0.39657
 N1424 N 1.13663 0.85176 0.37608
 C1425 C 1.08090 0.90529 0.41127
 C1426 C 1.06115 0.93036 0.40520
 H1427 H 1.15041 0.84823 0.29976
 H1428 H 1.08444 0.89770 0.43453
 H1429 H 1.17989 0.81651 0.35659
 H1430 H 1.05707 0.93795 0.38203
 C1431 C 0.67895 0.32457 -0.16772
 C1432 C 0.65705 0.34674 -0.17692
 C1433 C 0.64025 0.36568 -0.15454
 N1434 N 0.61723 0.38555 -0.16347
 N1435 N 0.60169 0.40246 -0.14300
 C1436 C 0.60880 0.40005 -0.11298
 N1437 N 0.63188 0.38035 -0.10416
 N1438 N 0.64732 0.36347 -0.12455
 C1439 C 0.59196 0.41759 -0.08973
 C1440 C 0.56681 0.43734 -0.09586
 H1441 H 0.65187 0.35004 -0.20083
 H1442 H 0.59955 0.41406 -0.06646
 H1443 H 0.68359 0.32102 -0.14373
 H1444 H 0.55920 0.44144 -0.11902
 C1445 C 0.82464 1.17434 0.33619
 C1446 C 0.84683 1.15248 0.32694
 C1447 C 0.86693 1.13654 0.34901
 N1448 N 0.88734 1.11422 0.33974
 N1449 N 0.90574 1.09977 0.35980
 C1450 C 0.90440 1.10736 0.38974
 N1451 N 0.88412 1.12975 0.39891
 N1452 N 0.86573 1.14410 0.37893
 C1453 C 0.92347 1.09148 0.41255
 C1454 C 0.94321 1.06651 0.40604
 H1455 H 0.84990 1.14724 0.30303
 H1456 H 0.92065 1.09917 0.43585
 H1457 H 0.82133 1.17915 0.36016
 H1458 H 0.94660 1.05882 0.38282
 C1459 C 0.31851 0.67092 -0.16371
 C1460 C 0.34032 0.64870 -0.17302
 C1461 C 0.35778 0.62999 -0.15092
 N1462 N 0.38095 0.61056 -0.16032
 N1463 N 0.39734 0.59400 -0.14018
 C1464 C 0.39098 0.59633 -0.11001
 N1465 N 0.36770 0.61558 -0.10070
 N1466 N 0.35140 0.63213 -0.12077
 C1467 C 0.40889 0.57922 -0.08717
 C1468 C 0.43436 0.56010 -0.09398
 H1469 H 0.34529 0.64544 -0.19697
 H1470 H 0.40189 0.58255 -0.06370
 H1471 H 0.31404 0.67452 -0.13971
 H1472 H 0.44137 0.55618 -0.11735
 C1473 C 0.82076 0.82861 0.66592
 C1474 C 0.84289 0.85041 0.67544
 C1475 C 0.85953 0.87001 0.65347
 N1476 N 0.88355 0.88857 0.66259
 N1477 N 0.89908 0.90598 0.64246
 C1478 C 0.89090 0.90545 0.61262
 N1479 N 0.86675 0.88712 0.60363
 N1480 N 0.85134 0.86971 0.62367
 C1481 C 0.90800 0.92321 0.58967
 C1482 C 0.93484 0.94064 0.59584
 H1483 H 0.84847 0.85288 0.69935
 H1484 H 0.89955 0.92131 0.56650
 H1485 H 0.81591 0.82567 0.64190
 H1486 H 0.94322 0.94333 0.61895
 C1487 C 0.32406 0.32542 0.16572
 C1488 C 0.34617 0.34731 0.17514
 C1489 C 0.36620 0.36338 0.15308
 N1490 N 0.38632 0.38602 0.16226
 N1491 N 0.40454 0.40063 0.14212
 C1492 C 0.40327 0.39290 0.11222
 N1493 N 0.38330 0.37020 0.10315
 N1494 N 0.36510 0.35570 0.12321
 C1495 C 0.42210 0.40885 0.08928
 C1496 C 0.44169 0.43404 0.09548
 H1497 H 0.34911 0.35251 0.19907
 H1498 H 0.41930 0.40089 0.06606
 H1499 H 0.32088 0.32071 0.14172
 H1500 H 0.44525 0.44192 0.11861
   
