data_POSCAR
  _audit_creation_date              2014-09-24
  _audit_creation_method            'ToBaCCo'
  _symmetry_space_group_name_H-M    'P1'
  _symmetry_Int_Tables_number       1
  _symmetry_cell_setting            triclinic
  loop_
  _symmetry_equiv_pos_as_xyz
 x,y,z
_cell_length_a 54.0291
_cell_length_b 53.4180
_cell_length_c 47.6258
_cell_angle_alpha 92.544200
_cell_angle_beta 88.467900
_cell_angle_gamma 89.286800
loop_
  _atom_site_label
  _atom_site_type_symbol
  _atom_site_fract_x
  _atom_site_fract_y
  _atom_site_fract_z
C1 C 0.32851 -0.03710 0.26083
 C2 C 0.33545 -0.01260 0.25486
 C3 C 0.34498 -0.00758 0.22811
 C4 C 0.34877 -0.02691 0.20764
 C5 C 0.34149 -0.05125 0.21352
 C6 C 0.33109 -0.05663 0.23994
 C7 C 0.33559 0.00745 0.27715
 C8 C 0.35127 0.00521 0.29984
 C9 C 0.35522 0.02565 0.31879
 C10 C 0.34216 0.04828 0.31525
 C11 C 0.32599 0.05048 0.29278
 C12 C 0.32279 0.03002 0.27388
 H13 H 0.32180 -0.04063 0.28185
 H14 H 0.35095 0.01122 0.22382
 H15 H 0.36148 -0.01223 0.30174
 H16 H 0.31092 0.03186 0.25607
 H17 H 0.34372 -0.06606 0.19733
 H18 H 0.34397 0.06407 0.32996
 C19 C 0.15917 -0.02553 0.73906
 C20 C 0.14419 -0.00423 0.74476
 C21 C 0.12720 -0.00366 0.76745
 C22 C 0.12445 -0.02439 0.78424
 C23 C 0.13967 -0.04567 0.77849
 C24 C 0.15732 -0.04626 0.75610
 C25 C 0.14296 0.01580 0.72459
 C26 C 0.12648 0.01314 0.70248
 C27 C 0.12153 0.03310 0.68517
 C28 C 0.13395 0.05579 0.69019
 C29 C 0.15067 0.05869 0.71213
 C30 C 0.15516 0.03856 0.72943
 H31 H 0.17176 -0.02620 0.72092
 H32 H 0.11507 0.01258 0.77101
 H33 H 0.11667 -0.00436 0.69960
 H34 H 0.16703 0.04081 0.74730
 H35 H 0.13690 -0.06225 0.79027
 H36 H 0.13025 0.07183 0.67786
 C37 C 0.66892 0.46698 0.23740
 C38 C 0.65776 0.49085 0.24135
 C39 C 0.64395 0.49690 0.26617
 C40 C 0.64049 0.47923 0.28677
 C41 C 0.65219 0.45570 0.28283
 C42 C 0.66629 0.44939 0.25833
 C43 C 0.65743 0.50858 0.21843
 C44 C 0.64442 0.50228 0.19404
 C45 C 0.63908 0.52044 0.17457
 C46 C 0.64765 0.54492 0.17947
 C47 C 0.66120 0.55136 0.20335
 C48 C 0.66603 0.53312 0.22290
 H49 H 0.67881 0.46198 0.21783
 H50 H 0.63467 0.51501 0.26867
 H51 H 0.63693 0.48362 0.19126
 H52 H 0.67505 0.53823 0.24233
 H53 H 0.65050 0.44192 0.29868
 H54 H 0.64293 0.55956 0.16552
 C55 C 0.84183 0.45442 0.76573
 C56 C 0.84983 0.47902 0.76222
 C57 C 0.86520 0.48423 0.73907
 C58 C 0.87333 0.46507 0.71986
 C59 C 0.86542 0.44051 0.72374
 C60 C 0.84946 0.43511 0.74630
 C61 C 0.84542 0.49878 0.78449
 C62 C 0.85574 0.49588 0.81081
 C63 C 0.85732 0.51630 0.83029
 C64 C 0.84623 0.53930 0.82388
 C65 C 0.83524 0.54235 0.79782
 C66 C 0.83520 0.52199 0.77803
 H67 H 0.83062 0.45031 0.78410
 H68 H 0.87197 0.50310 0.73692
 H69 H 0.86468 0.47816 0.81495
 H70 H 0.82845 0.52418 0.75711
 H71 H 0.87208 0.42524 0.70978
 H72 H 0.84704 0.55541 0.83835
 C73 C 0.25471 0.38304 1.04916
 C74 C 0.26404 0.39318 1.02435
 C75 C 0.28829 0.40214 1.02331
 C76 C 0.30330 0.40112 1.04685
 C77 C 0.29411 0.39007 1.07108
 C78 C 0.26979 0.38105 1.07268
 C79 C 0.24866 0.39363 0.99914
 C80 C 0.22432 0.40299 1.00136
 C81 C 0.20923 0.40279 0.97788
 C82 C 0.21840 0.39215 0.95207
 C83 C 0.24266 0.38222 0.94972
 C84 C 0.25790 0.38373 0.97308
 H85 H 0.23621 0.37556 1.04921
 H86 H 0.29537 0.40958 1.00396
 H87 H 0.21716 0.41066 1.02147
 H88 H 0.27649 0.37585 0.97142
 H89 H 0.30601 0.38874 1.08896
 H90 H 0.20657 0.39095 0.93408
 C91 C 0.74638 0.10855 1.03946
 C92 C 0.73635 0.10086 1.01370
 C93 C 0.71234 0.09154 1.01300
 C94 C 0.69802 0.08989 1.03768
 C95 C 0.70776 0.09833 1.06342
 C96 C 0.73188 0.10812 1.06457
 C97 C 0.74968 0.10506 0.98699
 C98 C 0.77226 0.09285 0.98024
 C99 C 0.78420 0.09606 0.95402
 C100 C 0.77364 0.11242 0.93520
 C101 C 0.75106 0.12494 0.94201
 C102 C 0.73927 0.12111 0.96792
 H103 H 0.76457 0.11676 1.03913
 H104 H 0.70461 0.08596 0.99291
 H105 H 0.78031 0.08101 0.99553
 H106 H 0.72187 0.13069 0.97337
 H107 H 0.69617 0.09838 1.08235
 H108 H 0.78326 0.11559 0.91546
 C109 C 0.26316 0.61209 0.54257
 C110 C 0.25273 0.60262 0.51776
 C111 C 0.22872 0.59316 0.51853
 C112 C 0.21486 0.59323 0.54377
 C113 C 0.22510 0.60350 0.56847
 C114 C 0.24913 0.61342 0.56778
 C115 C 0.26554 0.60535 0.49044
 C116 C 0.28919 0.59505 0.48505
 C117 C 0.30124 0.59775 0.45882
 C118 C 0.28968 0.61187 0.43853
 C119 C 0.26597 0.62253 0.44398
 C120 C 0.25406 0.61898 0.46989
 H121 H 0.28138 0.62036 0.54175
 H122 H 0.22062 0.58617 0.49917
 H123 H 0.29808 0.58527 0.50154
 H124 H 0.23591 0.62735 0.47440
 H125 H 0.21412 0.60488 0.58784
 H126 H 0.29946 0.61488 0.41887
 C127 C 0.75225 0.86988 0.53514
 C128 C 0.76060 0.88654 0.51544
 C129 C 0.78343 0.89820 0.51809
 C130 C 0.79870 0.89437 0.54111
 C131 C 0.79104 0.87772 0.56160
 C132 C 0.76684 0.86379 0.56000
 C133 C 0.74477 0.89188 0.49172
 C134 C 0.72272 0.90553 0.49670
 C135 C 0.70597 0.90859 0.47514
 C136 C 0.71140 0.89734 0.44836
 C137 C 0.73354 0.88358 0.44310
 C138 C 0.75036 0.88125 0.46488
 H139 H 0.73455 0.86090 0.53238
 H140 H 0.78896 0.91017 0.50143
 H141 H 0.71837 0.91327 0.51771
 H142 H 0.76693 0.86975 0.46175
 H143 H 0.80274 0.87434 0.57922
 H144 H 0.69805 0.89824 0.43187
 C145 C -0.02049 0.24721 0.35619
 C146 C 0.00165 0.24394 0.37008
 C147 C 0.00746 0.22120 0.38170
 C148 C -0.01016 0.19956 0.38139
 C149 C -0.03374 0.20503 0.36542
 C150 C -0.03791 0.22807 0.35293
 C151 C 0.01902 0.26488 0.37288
 C152 C 0.01392 0.28483 0.39238
 C153 C 0.03101 0.30414 0.39634
 C154 C 0.05290 0.30382 0.37959
 C155 C 0.05824 0.28383 0.35994
 C156 C 0.04111 0.26445 0.35679
 H157 H -0.02395 0.26523 0.34728
 H158 H 0.02480 0.21921 0.39237
 H159 H -0.00307 0.28491 0.40503
 H160 H 0.04501 0.24884 0.34193
 H161 H -0.04731 0.19040 0.36428
 H162 H 0.06539 0.31941 0.38145
 C163 C -0.03861 0.76262 0.13077
 C164 C -0.01404 0.76260 0.12047
 C165 C -0.00570 0.78244 0.10458
 C166 C -0.02194 0.80173 0.09781
 C167 C -0.04657 0.80158 0.10809
 C168 C -0.05500 0.78255 0.12542
 C169 C 0.00339 0.74239 0.12726
 C170 C -0.00044 0.71754 0.11769
 C171 C 0.01694 0.69849 0.12316
 C172 C 0.03751 0.70480 0.13954
 C173 C 0.04133 0.72963 0.14938
 C174 C 0.02433 0.74829 0.14275
 H175 H -0.04448 0.74705 0.14296
 H176 H 0.01343 0.78263 0.09711
 H177 H -0.01685 0.71357 0.10589
 H178 H 0.02730 0.76758 0.14980
 H179 H -0.05887 0.81704 0.10377
 H180 H 0.05114 0.69045 0.14353
 C181 C 0.46031 0.27517 0.62413
 C182 C 0.48422 0.27668 0.61207
 C183 C 0.49152 0.29880 0.59941
 C184 C 0.47499 0.31927 0.59857
 C185 C 0.45120 0.31746 0.61080
 C186 C 0.44380 0.29568 0.62388
 C187 C 0.50212 0.25579 0.61459
 C188 C 0.49651 0.23134 0.60487
 C189 C 0.51319 0.21141 0.60863
 C190 C 0.53512 0.21605 0.62309
 C191 C 0.54093 0.24045 0.63282
 C192 C 0.52452 0.26023 0.62800
 H193 H 0.45475 0.25814 0.63395
 H194 H 0.51022 0.30015 0.59090
 H195 H 0.47911 0.22791 0.59467
 H196 H 0.52882 0.27909 0.63554
 H197 H 0.43846 0.33329 0.61053
 H198 H 0.54796 0.20069 0.62589
 C199 C 0.46887 0.74261 0.86874
 C200 C 0.49171 0.73737 0.88062
 C201 C 0.49699 0.71300 0.88887
 C202 C 0.47945 0.69381 0.88545
 C203 C 0.45698 0.69935 0.87257
 C204 C 0.45156 0.72366 0.86417
 C205 C 0.51018 0.75742 0.88393
 C206 C 0.50350 0.78044 0.89766
 C207 C 0.52068 0.79988 0.89982
 C208 C 0.54454 0.79620 0.88800
 C209 C 0.55151 0.77336 0.87425
 C210 C 0.53428 0.75390 0.87245
 H211 H 0.46481 0.76143 0.86239
 H212 H 0.51482 0.70940 0.89773
 H213 H 0.48483 0.78331 0.90616
 H214 H 0.53946 0.73606 0.86211
 H215 H 0.44328 0.68485 0.87010
 H216 H 0.55776 0.81128 0.88943
 C217 C -0.28119 0.57739 1.00325
 C218 C -0.25821 0.58828 1.00874
 C219 C -0.25533 0.60308 1.03341
 C220 C -0.27538 0.60802 1.05215
 C221 C -0.29816 0.59660 1.04688
 C222 C -0.30138 0.58115 1.02251
 C223 C -0.23798 0.58722 0.98721
 C224 C -0.24155 0.59859 0.96166
 C225 C -0.22159 0.60230 0.94282
 C226 C -0.19808 0.59274 0.94925
 C227 C -0.19432 0.58071 0.97447
 C228 C -0.21435 0.57837 0.99361
 H229 H -0.28310 0.56678 0.98360
 H230 H -0.23779 0.61215 1.03705
 H231 H -0.25973 0.60622 0.95750
 H232 H -0.21165 0.57065 1.01394
 H233 H -0.31354 0.59979 1.06170
 H234 H -0.18225 0.59521 0.93537
 C235 C -0.27251 0.41498 0.49915
 C236 C -0.24986 0.40340 0.49113
 C237 C -0.24637 0.39281 0.46395
 C238 C -0.26568 0.39282 0.44497
 C239 C -0.28826 0.40481 0.45287
 C240 C -0.29183 0.41642 0.47998
 C241 C -0.23045 0.40028 0.51180
 C242 C -0.23303 0.38157 0.53110
 C243 C -0.21355 0.37586 0.55134
 C244 C -0.19113 0.39248 0.54888
 C245 C -0.18960 0.41105 0.52900
 C246 C -0.20917 0.41482 0.51093
 H247 H -0.27493 0.42297 0.52040
 H248 H -0.22895 0.38346 0.45805
 H249 H -0.24965 0.37042 0.53116
 H250 H -0.20769 0.42912 0.49552
 H251 H -0.30276 0.40465 0.43773
 H252 H -0.17618 0.38989 0.56321
 C253 C 0.21025 -0.08286 0.00218
 C254 C 0.23179 -0.09695 -0.00464
 C255 C 0.23285 -0.11269 -0.02899
 C256 C 0.21223 -0.11502 -0.04640
 C257 C 0.19130 -0.09973 -0.04004
 C258 C 0.19008 -0.08372 -0.01574
 C259 C 0.25200 -0.09827 0.01543
 C260 C 0.24781 -0.11056 0.04048
 C261 C 0.26749 -0.11658 0.05780
 C262 C 0.29146 -0.10893 0.05005
 C263 C 0.29574 -0.09578 0.02558
 C264 C 0.27599 -0.09066 0.00808
 H265 H 0.20915 -0.07142 0.02157
 H266 H 0.24969 -0.12342 -0.03350
 H267 H 0.22925 -0.11684 0.04549
 H268 H 0.27933 -0.08175 -0.01163
 H269 H 0.17524 -0.10167 -0.05305
 H270 H 0.30719 -0.11307 0.06265
 C271 C 0.21429 1.09748 0.48721
 C272 C 0.23773 1.10581 0.49523
 C273 C 0.24102 1.11498 0.52286
 C274 C 0.22104 1.11687 0.54221
 C275 C 0.19786 1.10770 0.53437
 C276 C 0.19446 1.09759 0.50696
 C277 C 0.25843 1.10735 0.47447
 C278 C 0.25616 1.12319 0.45191
 C279 C 0.27674 1.12844 0.43451
 C280 C 0.29954 1.11661 0.43960
 C281 C 0.30206 1.10047 0.46183
 C282 C 0.28142 1.09595 0.47934
 H283 H 0.21160 1.09061 0.46577
 H284 H 0.25891 1.12221 0.52878
 H285 H 0.23856 1.13257 0.44898
 H286 H 0.28328 1.08461 0.49746
 H287 H 0.18243 1.10880 0.54938
 H288 H 0.31596 1.12051 0.42725
 C289 C 0.13157 0.49366 0.20917
 C290 C 0.13554 0.50616 0.23513
 C291 C 0.14204 0.53144 0.23599
 C292 C 0.14550 0.54411 0.21115
 C293 C 0.14140 0.53157 0.18520
 C294 C 0.13372 0.50650 0.18410
 C295 C 0.13332 0.49283 0.26150
 C296 C 0.14672 0.47057 0.26450
 C297 C 0.14560 0.45818 0.28993
 C298 C 0.13122 0.46872 0.31254
 C299 C 0.11777 0.49118 0.30976
 C300 C 0.11874 0.50293 0.28408
 H301 H 0.12659 0.47408 0.20872
 H302 H 0.14516 0.54107 0.25608
 H303 H 0.15869 0.46368 0.24722
 H304 H 0.10831 0.52015 0.28170
 H305 H 0.14311 0.54159 0.16597
 H306 H 0.13014 0.45905 0.33203
 C307 C -0.13090 1.00309 0.21184
 C308 C -0.14221 0.99264 0.23524
 C309 C -0.15498 0.97014 0.23205
 C310 C -0.15690 0.95795 0.20529
 C311 C -0.14494 0.96853 0.18200
 C312 C -0.13188 0.99122 0.18502
 C313 C -0.14037 1.00547 0.26316
 C314 C -0.15000 1.02980 0.26768
 C315 C -0.14695 1.04324 0.29350
 C316 C -0.13270 1.03215 0.31411
 C317 C -0.12314 1.00758 0.30977
 C318 C -0.12765 0.99414 0.28454
 H319 H -0.12090 1.02046 0.21480
 H320 H -0.16288 0.96236 0.25077
 H321 H -0.15911 1.03819 0.25040
 H322 H -0.12006 0.97535 0.28089
 H323 H -0.14571 0.95866 0.16174
 H324 H -0.12964 1.04234 0.33389
 C325 C 0.37471 0.50180 -0.29728
 C326 C 0.36203 0.49272 -0.27381
 C327 C 0.35079 0.46925 -0.27572
 C328 C 0.35206 0.45463 -0.30099
 C329 C 0.36583 0.46336 -0.32390
 C330 C 0.37725 0.48693 -0.32244
 C331 C 0.36202 0.50700 -0.24658
 C332 C 0.35027 0.53052 -0.24347
 C333 C 0.35008 0.54422 -0.21741
 C334 C 0.36303 0.53421 -0.19506
 C335 C 0.37536 0.51088 -0.19814
 C336 C 0.37415 0.49709 -0.22386
 H337 H 0.38387 0.51962 -0.29489
 H338 H 0.34161 0.46234 -0.25719
 H339 H 0.34159 0.53772 -0.26167
 H340 H 0.38272 0.47870 -0.22658
 H341 H 0.36757 0.45167 -0.34308
 H342 H 0.36362 0.54467 -0.17504
 C343 C 0.62109 -0.00833 -0.27658
 C344 C 0.63395 0.00038 -0.25294
 C345 C 0.64205 0.02516 -0.25131
 C346 C 0.63772 0.04119 -0.27309
 C347 C 0.62406 0.03270 -0.29621
 C348 C 0.61504 0.00798 -0.29783
 C349 C 0.63769 -0.01588 -0.22909
 C350 C 0.64736 -0.04020 -0.23362
 C351 C 0.65113 -0.05554 -0.21097
 C352 C 0.64413 -0.04669 -0.18361
 C353 C 0.63362 -0.02264 -0.17885
 C354 C 0.63115 -0.00709 -0.20167
 H355 H 0.61435 -0.02738 -0.27741
 H356 H 0.65210 0.03190 -0.23313
 H357 H 0.65240 -0.04701 -0.25482
 H358 H 0.62384 0.01178 -0.19842
 H359 H 0.62058 0.04548 -0.31267
 H360 H 0.64586 -0.05880 -0.16611
 C361 C -0.01211 0.20952 0.86948
 C362 C -0.01449 0.23431 0.86128
 C363 C -0.03702 0.24254 0.85068
 C364 C -0.05687 0.22602 0.84754
 C365 C -0.05449 0.20144 0.85678
 C366 C -0.03219 0.19320 0.86807
 C367 C 0.00645 0.25168 0.86467
 C368 C 0.03001 0.24514 0.85320
 C369 C 0.05026 0.26082 0.85808
 C370 C 0.04684 0.28289 0.87484
 C371 C 0.02320 0.29023 0.88555
 C372 C 0.00313 0.27437 0.88049
 H373 H 0.00520 0.20321 0.87797
 H374 H -0.03886 0.26165 0.84416
 H375 H 0.03262 0.22765 0.84101
 H376 H -0.01506 0.27946 0.88927
 H377 H -0.06990 0.18876 0.85518
 H378 H 0.06281 0.29422 0.87942
 C379 C 0.52452 0.22059 0.11698
 C380 C 0.52713 0.24502 0.12854
 C381 C 0.54992 0.25238 0.13961
 C382 C 0.57007 0.23550 0.13888
 C383 C 0.56739 0.21141 0.12658
 C384 C 0.54475 0.20373 0.11561
 C385 C 0.50630 0.26314 0.12785
 C386 C 0.48332 0.25801 0.14053
 C387 C 0.46364 0.27539 0.14011
 C388 C 0.46670 0.29744 0.12520
 C389 C 0.48955 0.30241 0.11176
 C390 C 0.50934 0.28543 0.11386
 H391 H 0.50676 0.21499 0.10902
 H392 H 0.55200 0.27129 0.14836
 H393 H 0.48105 0.24084 0.15157
 H394 H 0.52710 0.28923 0.10388
 H395 H 0.58304 0.19846 0.12576
 H396 H 0.45150 0.31073 0.12428
 C397 C 0.00703 0.72931 0.62862
 C398 C 0.01252 0.75336 0.63961
 C399 C 0.03673 0.75858 0.64809
 C400 C 0.05530 0.73983 0.64555
 C401 C 0.04962 0.71615 0.63359
 C402 C 0.02548 0.71071 0.62516
 C403 C -0.00735 0.77273 0.64237
 C404 C -0.02974 0.76747 0.65653
 C405 C -0.04937 0.78515 0.65831
 C406 C -0.04602 0.80821 0.64570
 C407 C -0.02399 0.81356 0.63110
 C408 C -0.00455 0.79581 0.62967
 H409 H -0.01166 0.72521 0.62224
 H410 H 0.04096 0.77710 0.65667
 H411 H -0.03164 0.74934 0.66551
 H412 H 0.01262 0.79981 0.61859
 H413 H 0.06389 0.70171 0.63195
 H414 H -0.06091 0.82208 0.64671
 C415 C 0.48758 0.72124 0.38031
 C416 C 0.48743 0.74541 0.36991
 C417 C 0.46694 0.75372 0.35522
 C418 C 0.44707 0.73771 0.34983
 C419 C 0.44736 0.71358 0.36053
 C420 C 0.46728 0.70538 0.37627
 C421 C 0.50872 0.76203 0.37443
 C422 C 0.53206 0.75549 0.36248
 C423 C 0.55233 0.77132 0.36667
 C424 C 0.54918 0.79334 0.38368
 C425 C 0.52588 0.80007 0.39597
 C426 C 0.50568 0.78442 0.39075
 H427 H 0.50355 0.71494 0.39146
 H428 H 0.46679 0.77246 0.34737
 H429 H 0.53433 0.73811 0.35003
 H430 H 0.48757 0.78942 0.39981
 H431 H 0.43172 0.70136 0.35745
 H432 H 0.56488 0.80548 0.38632
 B433 B -0.03683 0.00739 0.99624
 B434 B -0.04995 -0.00481 0.96741
 B435 B -0.03021 0.01889 0.96489
 B436 B -0.00752 0.01541 0.98810
 B437 B -0.01345 -0.01152 1.00509
 B438 B -0.04025 -0.02385 0.99224
 B439 B -0.00605 -0.02385 0.94923
 B440 B 0.00713 -0.01159 0.97794
 B441 B -0.01269 -0.03536 0.98055
 B442 B -0.03541 -0.03180 0.95736
 B443 B -0.02934 -0.00497 0.94033
 B444 B -0.00267 0.00743 0.95323
 B445 B 0.49074 0.52391 0.51513
 B446 B 0.47575 0.51366 0.48662
 B447 B 0.49594 0.53698 0.48429
 B448 B 0.51987 0.53154 0.50543
 B449 B 0.51410 0.50383 0.52082
 B450 B 0.48625 0.49297 0.50925
 B451 B 0.51815 0.49443 0.46412
 B452 B 0.53319 0.50463 0.49245
 B453 B 0.51284 0.48130 0.49490
 B454 B 0.48903 0.48681 0.47378
 B455 B 0.49495 0.51439 0.45830
 B456 B 0.52258 0.52545 0.46999
 B457 B 0.51552 0.99533 0.52407
 B458 B 0.52975 0.99990 0.49300
 B459 B 0.50724 0.97869 0.49521
 B460 B 0.48532 0.98961 0.51881
 B461 B 0.49463 1.01846 0.53098
 B462 B 0.52257 1.02462 0.51502
 B463 B 0.48799 1.02034 0.47444
 B464 B 0.47375 1.01585 0.50542
 B465 B 0.49635 1.03702 0.50328
 B466 B 0.51816 1.02609 0.47971
 B467 B 0.50880 0.99731 0.46747
 B468 B 0.48102 0.99097 0.48363
 B469 B 0.02067 0.47987 1.02224
 B470 B 0.03213 0.48828 0.99101
 B471 B 0.00898 0.46770 0.99238
 B472 B -0.01016 0.47587 1.01985
 B473 B 0.00137 0.50243 1.03562
 B474 B 0.02797 0.51006 1.01759
 B475 B -0.01041 0.51269 0.98186
 B476 B -0.02191 0.50415 1.01290
 B477 B 0.00124 0.52482 1.01164
 B478 B 0.02041 0.51665 0.98410
 B479 B 0.00884 0.49010 0.96846
 B480 B -0.01767 0.48249 0.98636
 B481 B 0.03120 0.51073 0.50641
 B482 B 0.04274 0.50646 0.53821
 B483 B 0.01803 0.52533 0.53494
 B484 B 0.00004 0.51317 0.50946
 B485 B 0.01412 0.48584 0.49701
 B486 B 0.04093 0.48204 0.51480
 B487 B 0.00217 0.48113 0.55247
 B488 B -0.00936 0.48553 0.52089
 B489 B 0.01527 0.46662 0.52395
 B490 B 0.03322 0.47865 0.54947
 B491 B 0.01928 0.50597 0.56201
 B492 B -0.00750 0.51002 0.54423
 B493 B 0.51395 0.00929 -0.00753
 B494 B 0.52347 0.00502 0.02515
 B495 B 0.50136 0.02640 0.01964
 B496 B 0.48319 0.01547 -0.00631
 B497 B 0.49441 -0.01355 -0.01677
 B498 B 0.51970 -0.01998 0.00281
 B499 B 0.47955 -0.01464 0.03852
 B500 B 0.46990 -0.01038 0.00594
 B501 B 0.49209 -0.03177 0.01124
 B502 B 0.51021 -0.02085 0.03723
 B503 B 0.49898 0.00818 0.04768
 B504 B 0.47379 0.01467 0.02805
 B505 B 0.48576 0.47901 -0.03682
 B506 B 0.47182 0.48875 -0.00647
 B507 B 0.49426 0.46688 -0.00671
 B508 B 0.51603 0.47349 -0.03131
 B509 B 0.50662 0.50042 -0.04620
 B510 B 0.47876 0.50962 -0.03079
 B511 B 0.51350 0.51107 0.00969
 B512 B 0.52762 0.50147 -0.02071
 B513 B 0.50490 0.52325 -0.02046
 B514 B 0.48324 0.51655 0.00408
 B515 B 0.49274 0.48968 0.01895
 B516 B 0.52059 0.48050 0.00346
 B517 B -0.01774 0.98280 0.47447
 B518 B -0.03557 0.99166 0.50249
 B519 B -0.01090 0.97301 0.50629
 B520 B 0.01204 0.98160 0.48410
 B521 B 0.00110 1.00651 0.46654
 B522 B -0.02883 1.01243 0.47790
 B523 B 0.00109 1.02002 0.52248
 B524 B 0.01908 1.01118 0.49456
 B525 B -0.00578 1.02978 0.49068
 B526 B -0.02868 1.02115 0.51283
 B527 B -0.01764 0.99641 0.53044
 B528 B 0.01227 0.99039 0.51900
 B529 B 0.77360 0.22669 0.22614
 B530 B 0.76681 0.21607 0.25791
 B531 B 0.78914 0.23714 0.25408
 B532 B 0.78077 0.25730 0.22958
 B533 B 0.75228 0.24832 0.21848
 B534 B 0.74382 0.22234 0.23596
 B535 B 0.74812 0.26110 0.27460
 B536 B 0.75482 0.27189 0.24276
 B537 B 0.73255 0.25062 0.24655
 B538 B 0.74100 0.23049 0.27101
 B539 B 0.76945 0.23962 0.28227
 B540 B 0.77788 0.26556 0.26457
 B541 B 0.73699 0.75574 0.73615
 B542 B 0.74272 0.76837 0.76812
 B543 B 0.72347 0.74408 0.76476
 B544 B 0.73410 0.72446 0.73835
 B545 B 0.76083 0.73686 0.72544
 B546 B 0.76593 0.76452 0.74395
 B547 B 0.76758 0.72665 0.78041
 B548 B 0.76182 0.71398 0.74853
 B549 B 0.78110 0.73828 0.75180
 B550 B 0.77046 0.75791 0.77820
 B551 B 0.74380 0.74549 0.79110
 B552 B 0.73859 0.71791 0.77264
 B553 B 0.25920 0.27458 0.76588
 B554 B 0.25246 0.28871 0.73632
 B555 B 0.27431 0.26619 0.73574
 B556 B 0.26563 0.24403 0.75808
 B557 B 0.23742 0.25322 0.77234
 B558 B 0.22945 0.28133 0.75896
 B559 B 0.23266 0.24628 0.71554
 B560 B 0.23935 0.23200 0.74512
 B561 B 0.21750 0.25463 0.74576
 B562 B 0.22620 0.27682 0.72351
 B563 B 0.25428 0.26752 0.70914
 B564 B 0.26241 0.23945 0.72271
 B565 B 0.23350 0.72451 0.26789
 B566 B 0.23706 0.71525 0.23395
 B567 B 0.21725 0.73873 0.24357
 B568 B 0.22921 0.75589 0.27035
 B569 B 0.25732 0.74275 0.27704
 B570 B 0.26198 0.71718 0.25445
 B571 B 0.25899 0.75867 0.22328
 B572 B 0.25545 0.76803 0.25719
 B573 B 0.27529 0.74455 0.24775
 B574 B 0.26333 0.72735 0.22097
 B575 B 0.23525 0.74041 0.21425
 B576 B 0.23053 0.76603 0.23688
 B577 B 0.26553 0.73308 0.73561
 B578 B 0.25524 0.71641 0.76233
 B579 B 0.27712 0.73788 0.76749
 B580 B 0.27136 0.76254 0.74762
 B581 B 0.24489 0.75599 0.72999
 B582 B 0.23509 0.72694 0.73905
 B583 B 0.23355 0.75765 0.78624
 B584 B 0.24386 0.77435 0.75959
 B585 B 0.22192 0.75288 0.75429
 B586 B 0.22774 0.72820 0.77422
 B587 B 0.25423 0.73481 0.79187
 B588 B 0.26399 0.76379 0.78277
 B589 B 0.24727 0.27259 0.23036
 B590 B 0.25467 0.29228 0.25726
 B591 B 0.23561 0.26837 0.26263
 B592 B 0.24517 0.24336 0.24198
 B593 B 0.27100 0.25239 0.22364
 B594 B 0.27649 0.28305 0.23296
 B595 B 0.28092 0.25557 0.27951
 B596 B 0.27361 0.23609 0.25278
 B597 B 0.29259 0.26007 0.24730
 B598 B 0.28305 0.28492 0.26802
 B599 B 0.25741 0.27589 0.28637
 B600 B 0.25159 0.24533 0.27689
 B601 B 0.75821 0.77307 0.26436
 B602 B 0.75018 0.78857 0.23617
 B603 B 0.77202 0.76608 0.23316
 B604 B 0.76431 0.74289 0.25457
 B605 B 0.73674 0.75143 0.27079
 B606 B 0.72818 0.78017 0.25948
 B607 B 0.72955 0.74700 0.21423
 B608 B 0.73748 0.73144 0.24249
 B609 B 0.71564 0.75409 0.24555
 B610 B 0.72341 0.77725 0.22414
 B611 B 0.75092 0.76858 0.20783
 B612 B 0.75962 0.73989 0.21933
 B613 B 0.72504 0.22524 0.76525
 B614 B 0.72984 0.21217 0.73290
 B615 B 0.71237 0.23829 0.73755
 B616 B 0.72435 0.25669 0.76330
 B617 B 0.75015 0.24161 0.77438
 B618 B 0.75330 0.21364 0.75554
 B619 B 0.75750 0.25128 0.71896
 B620 B 0.75269 0.26443 0.75126
 B621 B 0.77018 0.23835 0.74669
 B622 B 0.75819 0.21987 0.72099
 B623 B 0.73246 0.23493 0.70985
 B624 B 0.72925 0.26294 0.72874
 C625 C 0.37248 1.02253 0.33998
 C626 C 0.38135 1.04154 0.35817
 C627 C 0.40056 1.03609 0.37874
 C628 C 0.41838 1.05413 0.38565
 C629 C 0.43794 1.04829 0.40313
 C630 C 0.43972 1.02432 0.41399
 C631 C 0.42130 1.00679 0.40802
 C632 C 0.40179 1.01265 0.39090
 C633 C 0.46043 1.01626 0.43111
 C634 C 0.47350 1.03198 0.44947
 H635 H 0.37627 1.06094 0.35577
 H636 H 0.41762 1.07244 0.37678
 H637 H 0.45190 1.06219 0.40739
 H638 H 0.42202 0.98836 0.41664
 H639 H 0.38779 0.99868 0.38710
 H640 H 0.46331 0.99620 0.43184
 H641 H 0.38067 1.00401 0.34127
 H642 H 0.47110 1.05210 0.44934
 C643 C -0.12744 0.51358 0.85347
 C644 C -0.12065 0.53291 0.87245
 C645 C -0.09774 0.53071 0.88847
 C646 C -0.09626 0.54174 0.91565
 C647 C -0.07466 0.53898 0.93098
 C648 C -0.05409 0.52556 0.91896
 C649 C -0.05536 0.51561 0.89132
 C650 C -0.07686 0.51818 0.87622
 C651 C -0.03210 0.51892 0.93500
 C652 C -0.02708 0.52832 0.96201
 H653 H -0.13124 0.55018 0.87508
 H654 H -0.11205 0.55179 0.92533
 H655 H -0.07457 0.54664 0.95236
 H656 H -0.03980 0.50526 0.88153
 H657 H -0.07709 0.51030 0.85489
 H658 H -0.02053 0.50377 0.92594
 H659 H -0.11814 0.49562 0.85521
 H660 H -0.03697 0.54458 0.97096
 C661 C 0.10383 -0.02372 0.80546
 C662 C 0.09936 -0.04198 0.82506
 C663 C 0.07678 -0.04105 0.84340
 C664 C 0.07754 -0.05027 0.87049
 C665 C 0.05676 -0.04807 0.88870
 C666 C 0.03472 -0.03685 0.87986
 C667 C 0.03371 -0.02881 0.85228
 C668 C 0.05442 -0.03099 0.83419
 C669 C 0.01337 -0.03069 0.89918
 C670 C 0.01080 -0.03885 0.92651
 H671 H 0.11303 -0.05645 0.82824
 H672 H 0.09451 -0.05837 0.87793
 H673 H 0.05848 -0.05433 0.90982
 H674 H 0.01696 -0.02025 0.84485
 H675 H 0.05287 -0.02461 0.81304
 H676 H 0.00009 -0.01705 0.89228
 H677 H 0.09117 -0.00783 0.80543
 H678 H 0.02281 -0.05336 0.93384
 C679 C 0.62355 0.48566 0.31118
 C680 C 0.61337 0.46798 0.32888
 C681 C 0.59398 0.47434 0.35062
 C682 C 0.59149 0.45933 0.37398
 C683 C 0.57299 0.46453 0.39461
 C684 C 0.55636 0.48473 0.39199
 C685 C 0.55861 0.49936 0.36830
 C686 C 0.57714 0.49425 0.34782
 C687 C 0.53726 0.49225 0.41372
 C688 C 0.53308 0.48043 0.43899
 H689 H 0.61938 0.44862 0.32697
 H690 H 0.60410 0.44370 0.37642
 H691 H 0.57210 0.45281 0.41250
 H692 H 0.54602 0.51498 0.36565
 H693 H 0.57787 0.50566 0.32962
 H694 H 0.52705 0.50943 0.41045
 H695 H 0.61786 0.50510 0.31438
 H696 H 0.54233 0.46303 0.44323
 C697 C 0.62173 0.51419 0.15175
 C698 C 0.61661 0.52995 0.12985
 C699 C 0.59489 0.52663 0.11183
 C700 C 0.59493 0.53705 0.08526
 C701 C 0.57449 0.53434 0.06796
 C702 C 0.55348 0.52140 0.07722
 C703 C 0.55324 0.51164 0.10408
 C704 C 0.57360 0.51432 0.12127
 C705 C 0.53271 0.51514 0.05873
 C706 C 0.52846 0.52590 0.03305
 H707 H 0.62879 0.54530 0.12554
 H708 H 0.61102 0.54689 0.07764
 H709 H 0.57561 0.54166 0.04718
 H710 H 0.53730 0.50158 0.11168
 H711 H 0.57243 0.50690 0.14203
 H712 H 0.52152 0.49942 0.06462
 H713 H 0.61163 0.49689 0.15313
 H714 H 0.53786 0.54277 0.02753
 C715 C 0.10318 1.03010 0.66491
 C716 C 0.09659 1.04799 0.64568
 C717 C 0.07484 1.04483 0.62780
 C718 C 0.07507 1.05471 0.60099
 C719 C 0.05507 1.05094 0.58330
 C720 C 0.03429 1.03753 0.59243
 C721 C 0.03369 1.02870 0.61973
 C722 C 0.05368 1.03236 0.63729
 C723 C 0.01451 1.02950 0.57333
 C724 C 0.01185 1.03793 0.54626
 H725 H 0.10798 1.06411 0.64231
 H726 H 0.09111 1.06460 0.59336
 H727 H 0.05653 1.05766 0.56225
 H728 H 0.01794 1.01832 0.62727
 H729 H 0.05255 1.02531 0.65824
 H730 H 0.00360 1.01371 0.57965
 H731 H 0.09315 1.01264 0.66428
 H732 H 0.02072 1.05489 0.54002
 C733 C -0.10797 0.47099 0.69796
 C734 C -0.10113 0.45482 0.67511
 C735 C -0.07962 0.45974 0.65647
 C736 C -0.07916 0.45026 0.62850
 C737 C -0.05916 0.45515 0.61039
 C738 C -0.03910 0.46931 0.62020
 C739 C -0.03931 0.47812 0.64836
 C740 C -0.05924 0.47327 0.66638
 C741 C -0.01886 0.47738 0.60140
 C742 C -0.01345 0.46658 0.57474
 H743 H -0.11213 0.43854 0.67006
 H744 H -0.09458 0.43961 0.62048
 H745 H -0.05997 0.44855 0.58864
 H746 H -0.02407 0.48905 0.65641
 H747 H -0.05854 0.48006 0.68809
 H748 H -0.00867 0.49374 0.60844
 H749 H -0.09888 0.48889 0.70021
 H750 H -0.02217 0.44939 0.56770
 C751 C 0.36136 -0.02120 0.18086
 C752 C 0.37782 -0.03805 0.16657
 C753 C 0.39455 -0.03088 0.14323
 C754 C 0.40579 -0.04972 0.12551
 C755 C 0.42252 -0.04356 0.10400
 C756 C 0.42833 -0.01837 0.10005
 C757 C 0.41712 0.00036 0.11779
 C758 C 0.40062 -0.00575 0.13926
 C759 C 0.44532 -0.01035 0.07752
 C760 C 0.46235 -0.02579 0.06217
 H761 H 0.37946 -0.05701 0.17349
 H762 H 0.40159 -0.06924 0.12829
 H763 H 0.43053 -0.05848 0.09048
 H764 H 0.42140 0.01992 0.11527
 H765 H 0.39326 0.00934 0.15298
 H766 H 0.44477 0.00944 0.07350
 H767 H 0.35931 -0.00232 0.17391
 H768 H 0.46436 -0.04543 0.06634
 C769 C 0.32889 0.41068 0.04655
 C770 C 0.33671 0.42954 0.02912
 C771 C 0.36222 0.43934 0.02840
 C772 C 0.36637 0.46247 0.01637
 C773 C 0.39022 0.47211 0.01436
 C774 C 0.41049 0.45860 0.02414
 C775 C 0.40637 0.43566 0.03656
 C776 C 0.38251 0.42596 0.03848
 C777 C 0.43610 0.46765 0.02131
 C778 C 0.44381 0.48254 -0.00049
 H779 H 0.32328 0.43853 0.01629
 H780 H 0.35107 0.47317 0.00850
 H781 H 0.39263 0.49018 0.00535
 H782 H 0.42175 0.42490 0.04416
 H783 H 0.38028 0.40778 0.04724
 H784 H 0.44972 0.46050 0.03530
 H785 H 0.34133 0.40374 0.06193
 H786 H 0.43070 0.48869 -0.01560
 C787 C -0.17822 0.90623 0.54415
 C788 C -0.16953 0.92534 0.52733
 C789 C -0.14451 0.93630 0.52916
 C790 C -0.14029 0.95926 0.51672
 C791 C -0.11674 0.96971 0.51627
 C792 C -0.09673 0.95725 0.52805
 C793 C -0.10097 0.93461 0.54112
 C794 C -0.12457 0.92407 0.54149
 C795 C -0.07136 0.96732 0.52688
 C796 C -0.06303 0.98227 0.50536
 H797 H -0.18166 0.93375 0.51267
 H798 H -0.15530 0.96914 0.50715
 H799 H -0.11438 0.98759 0.50681
 H800 H -0.08582 0.92470 0.55039
 H801 H -0.12682 0.90610 0.55073
 H802 H -0.05845 0.96147 0.54240
 H803 H -0.16678 0.90063 0.56116
 H804 H -0.07531 0.98699 0.48877
 C805 C -0.19199 0.08330 0.94604
 C806 C -0.18439 0.06093 0.95754
 C807 C -0.16001 0.04850 0.95149
 C808 C -0.15609 0.02435 0.96119
 C809 C -0.13296 0.01247 0.95772
 C810 C -0.11321 0.02459 0.94450
 C811 C -0.11726 0.04835 0.93397
 C812 C -0.14032 0.06033 0.93761
 C813 C -0.08796 0.01369 0.94259
 C814 C -0.07861 -0.00098 0.96347
 H815 H -0.19709 0.05164 0.97148
 H816 H -0.17091 0.01475 0.97186
 H817 H -0.13061 -0.00611 0.96551
 H818 H -0.10224 0.05808 0.92381
 H819 H -0.14221 0.07906 0.93022
 H820 H -0.07536 0.02048 0.92667
 H821 H -0.18084 0.09133 0.92964
 H822 H -0.09071 -0.00704 0.98024
 C823 C 0.32634 0.58715 0.45263
 C824 C 0.33557 0.56649 0.46625
 C825 C 0.36138 0.55680 0.46323
 C826 C 0.36762 0.53513 0.47729
 C827 C 0.39196 0.52603 0.47670
 C828 C 0.41063 0.53850 0.46202
 C829 C 0.40437 0.55969 0.44724
 C830 C 0.38005 0.56893 0.44798
 C831 C 0.43676 0.53019 0.46199
 C832 C 0.44704 0.51841 0.48457
 H833 H 0.32322 0.55673 0.48015
 H834 H 0.35363 0.52532 0.48908
 H835 H 0.39604 0.50922 0.48767
 H836 H 0.41851 0.56956 0.43573
 H837 H 0.37633 0.58578 0.43704
 H838 H 0.44872 0.53566 0.44480
 H839 H 0.33728 0.59557 0.43635
 H840 H 0.43558 0.51398 0.50260
 C841 C 0.18901 0.58483 0.54259
 C842 C 0.17549 0.57595 0.56532
 C843 C 0.14974 0.56771 0.56174
 C844 C 0.14108 0.54663 0.57530
 C845 C 0.11743 0.53741 0.56995
 C846 C 0.10207 0.54939 0.55108
 C847 C 0.11033 0.57128 0.53885
 C848 C 0.13389 0.58035 0.54407
 C849 C 0.07738 0.54012 0.54351
 C850 C 0.06905 0.51591 0.54765
 H851 H 0.18444 0.57293 0.58498
 H852 H 0.15289 0.53687 0.58937
 H853 H 0.11140 0.52100 0.58056
 H854 H 0.09868 0.58119 0.52472
 H855 H 0.13976 0.59718 0.53407
 H856 H 0.06595 0.55270 0.53223
 H857 H 0.18055 0.58440 0.52220
 H858 H 0.08087 0.50243 0.55721
 C859 C 0.67219 0.08162 0.03508
 C860 C 0.65867 0.06999 0.05605
 C861 C 0.63318 0.06152 0.05090
 C862 C 0.62498 0.03878 0.06120
 C863 C 0.60168 0.02953 0.05413
 C864 C 0.58612 0.04318 0.03692
 C865 C 0.59402 0.06647 0.02781
 C866 C 0.61721 0.07558 0.03475
 C867 C 0.56192 0.03409 0.02718
 C868 C 0.55010 0.01248 0.03569
 H869 H 0.66756 0.06497 0.07516
 H870 H 0.63695 0.02775 0.07388
 H871 H 0.59634 0.01156 0.06171
 H872 H 0.58231 0.07758 0.01491
 H873 H 0.62271 0.09357 0.02723
 H874 H 0.55278 0.04547 0.01226
 H875 H 0.66394 0.08329 0.01474
 H876 H 0.55847 0.00057 0.05062
 C877 C 0.68207 0.92145 0.48234
 C878 C 0.66623 0.93115 0.46271
 C879 C 0.64152 0.94171 0.47110
 C880 C 0.63079 0.96032 0.45525
 C881 C 0.60733 0.97033 0.46277
 C882 C 0.59414 0.96165 0.48620
 C883 C 0.60470 0.94268 0.50161
 C884 C 0.62810 0.93281 0.49421
 C885 C 0.56882 0.97046 0.49437
 C886 C 0.55787 0.99261 0.48592
 H887 H 0.67233 0.93198 0.44095
 H888 H 0.64061 0.96716 0.43706
 H889 H 0.59946 0.98435 0.44982
 H890 H 0.59472 0.93530 0.51940
 H891 H 0.63534 0.91781 0.50628
 H892 H 0.55819 0.95844 0.50764
 H893 H 0.67698 0.92387 0.50445
 H894 H 0.56846 1.00543 0.47360
 C895 C 0.18351 0.41221 0.98176
 C896 C 0.16976 0.42229 0.96047
 C897 C 0.14389 0.43100 0.96576
 C898 C 0.13449 0.45139 0.95154
 C899 C 0.11023 0.46024 0.95718
 C900 C 0.09498 0.44851 0.97690
 C901 C 0.10421 0.42764 0.99033
 C902 C 0.12834 0.41898 0.98488
 C903 C 0.06927 0.45669 0.98397
 C904 C 0.05917 0.48037 0.97957
 H905 H 0.17852 0.42532 0.94021
 H906 H 0.14606 0.46071 0.93641
 H907 H 0.10351 0.47598 0.94592
 H908 H 0.09273 0.41805 1.00533
 H909 H 0.13468 0.40267 0.99548
 H910 H 0.05828 0.44368 0.99555
 H911 H 0.17554 0.41255 1.00290
 H912 H 0.07008 0.49434 0.96938
 C913 C 0.02551 0.32443 0.41797
 C914 C 0.04419 0.33679 0.43265
 C915 C 0.03982 0.35741 0.45424
 C916 C 0.05935 0.36429 0.47170
 C917 C 0.05695 0.38486 0.49077
 C918 C 0.03495 0.39913 0.49291
 C919 C 0.01508 0.39195 0.47591
 C920 C 0.01750 0.37131 0.45677
 C921 C 0.03472 0.42286 0.51035
 C922 C 0.01353 0.43743 0.51697
 H923 H 0.06316 0.33051 0.42878
 H924 H 0.07679 0.35402 0.47016
 H925 H 0.07264 0.39009 0.50335
 H926 H -0.00194 0.40282 0.47626
 H927 H 0.00219 0.36706 0.44328
 H928 H 0.05254 0.43034 0.51604
 H929 H 0.00631 0.32826 0.42382
 H930 H -0.00462 0.42974 0.51369
 C931 C 0.51388 -0.17525 -0.08739
 C932 C 0.49779 -0.17168 -0.06410
 C933 C 0.49180 -0.14622 -0.05229
 C934 C 0.48971 -0.14159 -0.02307
 C935 C 0.48558 -0.11714 -0.01180
 C936 C 0.48300 -0.09712 -0.02976
 C937 C 0.48388 -0.10208 -0.05894
 C938 C 0.48839 -0.12631 -0.07011
 C939 C 0.47977 -0.07078 -0.01938
 C940 C 0.48875 -0.06104 0.00606
 H941 H 0.49106 -0.18773 -0.05321
 H942 H 0.49194 -0.15678 -0.00898
 H943 H 0.48437 -0.11401 0.01079
 H944 H 0.48166 -0.08702 -0.07321
 H945 H 0.48923 -0.12945 -0.09274
 H946 H 0.47260 -0.05784 -0.03415
 H947 H 0.52322 -0.15915 -0.09554
 H948 H 0.49679 -0.07332 0.02091
 C949 C -0.01233 -0.17724 1.08171
 C950 C -0.02678 -0.16431 1.06314
 C951 C -0.01828 -0.14146 1.04948
 C952 C -0.02835 -0.13519 1.02382
 C953 C -0.02252 -0.11248 1.01181
 C954 C -0.00679 -0.09543 1.02557
 C955 C 0.00357 -0.10189 1.05100
 C956 C -0.00193 -0.12475 1.06277
 C957 C -0.00370 -0.06966 1.01611
 C958 C -0.00580 -0.06306 0.98821
 H959 H -0.04491 -0.17137 1.05807
 H960 H -0.04122 -0.14763 1.01337
 H961 H -0.03140 -0.10777 0.99260
 H962 H 0.01539 -0.08886 1.06222
 H963 H 0.00567 -0.12869 1.08293
 H964 H -0.00138 -0.05504 1.03229
 H965 H 0.00696 -0.17242 1.08385
 H966 H -0.00662 -0.07755 0.97166
 C967 C 0.48238 0.34346 0.58710
 C968 C 0.50073 0.34605 0.56622
 C969 C 0.50757 0.37106 0.55646
 C970 C 0.51436 0.37411 0.52814
 C971 C 0.51939 0.39802 0.51847
 C972 C 0.51806 0.41918 0.53718
 C973 C 0.51253 0.41577 0.56572
 C974 C 0.50730 0.39206 0.57525
 C975 C 0.52115 0.44522 0.52830
 C976 C 0.51958 0.45300 0.50070
 H977 H 0.50900 0.32955 0.55559
 H978 H 0.51509 0.35809 0.51337
 H979 H 0.52411 0.39978 0.49645
 H980 H 0.51165 0.43165 0.58070
 H981 H 0.50298 0.39024 0.59739
 H982 H 0.52168 0.45953 0.54510
 H983 H 0.47200 0.36000 0.59468
 H984 H 0.51865 0.43943 0.48326
 C985 C 0.50798 1.18546 0.59850
 C986 C 0.49532 1.17972 0.57385
 C987 C 0.49140 1.15352 0.56351
 C988 C 0.49071 1.14773 0.53447
 C989 C 0.48787 1.12291 0.52431
 C990 C 0.48525 1.10351 0.54315
 C991 C 0.48495 1.10953 0.57216
 C992 C 0.48811 1.13419 0.58225
 C993 C 0.48300 1.07682 0.53384
 C994 C 0.49235 1.06641 0.50815
 H995 H 0.48990 1.19474 0.56065
 H996 H 0.49283 1.16239 0.51962
 H997 H 0.48755 1.11905 0.50183
 H998 H 0.48268 1.09499 0.58714
 H999 H 0.48776 1.13809 0.60476
 H1000 H 0.47600 1.06429 0.54937
 H1001 H 0.51629 1.17034 0.60956
 H1002 H 0.50011 1.07829 0.49247
 C1003 C 0.01501 0.67350 1.11265
 C1004 C -0.00197 0.66482 1.09279
 C1005 C -0.00206 0.63834 1.08193
 C1006 C -0.01019 0.63265 1.05463
 C1007 C -0.00987 0.60788 1.04361
 C1008 C -0.00153 0.58825 1.05988
 C1009 C 0.00579 0.59391 1.08747
 C1010 C 0.00554 0.61860 1.09841
 C1011 C -0.00056 0.56168 1.04944
 C1012 C -0.00139 0.55356 1.02114
 H1013 H -0.01414 0.67779 1.08294
 H1014 H -0.01653 0.64747 1.04167
 H1015 H -0.01638 0.60427 1.02257
 H1016 H 0.01188 0.57913 1.10066
 H1017 H 0.01103 0.62208 1.11990
 H1018 H 0.00204 0.54778 1.06501
 H1019 H 0.02871 0.66018 1.11928
 H1020 H -0.00291 0.56687 1.00482
 C1021 C 0.48336 0.66927 -0.10577
 C1022 C 0.50263 0.66165 -0.08882
 C1023 C 0.50512 0.63539 -0.08049
 C1024 C 0.51443 0.63029 -0.05407
 C1025 C 0.51607 0.60559 -0.04544
 C1026 C 0.50867 0.58559 -0.06337
 C1027 C 0.50035 0.59070 -0.09020
 C1028 C 0.49852 0.61530 -0.09868
 C1029 C 0.50937 0.55919 -0.05526
 C1030 C 0.50844 0.55167 -0.02751
 H1031 H 0.51486 0.67523 -0.07929
 H1032 H 0.52004 0.64546 -0.03989
 H1033 H 0.52329 0.60229 -0.02495
 H1034 H 0.49491 0.57559 -0.10457
 H1035 H 0.49210 0.61851 -0.11957
 H1036 H 0.50846 0.54501 -0.07215
 H1037 H 0.46965 0.65541 -0.11139
 H1038 H 0.50812 0.56540 -0.01012
 C1039 C -0.00349 1.17459 0.39678
 C1040 C -0.02046 1.15603 0.40242
 C1041 C -0.01330 1.13351 0.41738
 C1042 C -0.03144 1.12075 0.43250
 C1043 C -0.02526 1.09918 0.44649
 C1044 C -0.00085 1.08970 0.44511
 C1045 C 0.01726 1.10227 0.42975
 C1046 C 0.01120 1.12421 0.41631
 C1047 C 0.00542 1.06561 0.45737
 C1048 C -0.00552 1.05807 0.48243
 H1049 H -0.03977 1.15879 0.39755
 H1050 H -0.05046 1.12749 0.43347
 H1051 H -0.03975 1.08945 0.45755
 H1052 H 0.03610 1.09505 0.42812
 H1053 H 0.02553 1.13352 0.40453
 H1054 H 0.01848 1.05319 0.44585
 H1055 H -0.00827 1.18670 0.38845
 H1056 H -0.01713 1.07119 0.49494
 C1057 C 0.77434 0.61740 0.91985
 C1058 C 0.79250 0.62497 0.90053
 C1059 C 0.78789 0.64605 0.88212
 C1060 C 0.79989 0.64669 0.85564
 C1061 C 0.79521 0.66642 0.83796
 C1062 C 0.77873 0.68600 0.84681
 C1063 C 0.76753 0.68570 0.87368
 C1064 C 0.77213 0.66608 0.89120
 C1065 C 0.77064 0.70573 0.82814
 C1066 C 0.78202 0.71109 0.80246
 H1067 H 0.81042 0.61577 0.89863
 H1068 H 0.81236 0.63160 0.84835
 H1069 H 0.80390 0.66579 0.81723
 H1070 H 0.75484 0.70058 0.88105
 H1071 H 0.76337 0.66675 0.91193
 H1072 H 0.75360 0.71558 0.83442
 H1073 H 0.75583 0.62506 0.91785
 H1074 H 0.79980 0.70285 0.79627
 C1075 C 0.27429 0.14685 0.41439
 C1076 C 0.29313 0.15374 0.39550
 C1077 C 0.29171 0.17663 0.37915
 C1078 C 0.30601 0.17800 0.35424
 C1079 C 0.30534 0.19953 0.33859
 C1080 C 0.29040 0.22026 0.34771
 C1081 C 0.27673 0.21910 0.37310
 C1082 C 0.27742 0.19761 0.38871
 C1083 C 0.28618 0.24212 0.33026
 C1084 C 0.29697 0.24490 0.30360
 H1085 H 0.30944 0.14206 0.39182
 H1086 H 0.31744 0.16218 0.34661
 H1087 H 0.31607 0.19945 0.31914
 H1088 H 0.26508 0.23475 0.38067
 H1089 H 0.26688 0.19764 0.40836
 H1090 H 0.27060 0.25426 0.33660
 H1091 H 0.25675 0.15685 0.41396
 H1092 H 0.31364 0.23463 0.29708
 C1093 C 0.73824 0.37983 0.41718
 C1094 C 0.71964 0.36642 0.40362
 C1095 C 0.72496 0.35063 0.37785
 C1096 C 0.71213 0.32819 0.37332
 C1097 C 0.71843 0.31190 0.35033
 C1098 C 0.73752 0.31805 0.33127
 C1099 C 0.74941 0.34112 0.33515
 C1100 C 0.74322 0.35726 0.35812
 C1101 C 0.74655 0.30098 0.30780
 C1102 C 0.73592 0.27820 0.29937
 H1103 H 0.70158 0.36512 0.41384
 H1104 H 0.69781 0.32285 0.38816
 H1105 H 0.70874 0.29439 0.34813
 H1106 H 0.76391 0.34654 0.32056
 H1107 H 0.75287 0.37483 0.36049
 H1108 H 0.76280 0.30697 0.29626
 H1109 H 0.75707 0.37825 0.40885
 H1110 H 0.71928 0.27162 0.30955
 C1111 C 0.21118 0.86716 0.93096
 C1112 C 0.22751 0.84670 0.92683
 C1113 C 0.22461 0.82691 0.90450
 C1114 C 0.23395 0.80285 0.90888
 C1115 C 0.23285 0.78392 0.88786
 C1116 C 0.22266 0.78863 0.86178
 C1117 C 0.21280 0.81266 0.85752
 C1118 C 0.21377 0.83162 0.87870
 C1119 C 0.22547 0.76885 0.83907
 C1120 C 0.21848 0.77153 0.81134
 H1121 H 0.24153 0.84331 0.94201
 H1122 H 0.24241 0.79875 0.92856
 H1123 H 0.24075 0.76569 0.89172
 H1124 H 0.20506 0.81733 0.83772
 H1125 H 0.20688 0.85013 0.87438
 H1126 H 0.23677 0.75270 0.84362
 H1127 H 0.19542 0.86798 0.91742
 H1128 H 0.20599 0.78641 0.80599
 C1129 C 0.26250 0.86868 0.08103
 C1130 C 0.28028 0.85917 0.09884
 C1131 C 0.27427 0.84015 0.11958
 C1132 C 0.28939 0.83753 0.14288
 C1133 C 0.28397 0.81971 0.16278
 C1134 C 0.26340 0.80414 0.15946
 C1135 C 0.24873 0.80636 0.13587
 C1136 C 0.25422 0.82391 0.11597
 C1137 C 0.25529 0.78670 0.18084
 C1138 C 0.27059 0.77597 0.20037
 H1139 H 0.29917 0.86548 0.09807
 H1140 H 0.30514 0.84961 0.14593
 H1141 H 0.29539 0.81871 0.18104
 H1142 H 0.23286 0.79442 0.13281
 H1143 H 0.24280 0.82443 0.09770
 H1144 H 0.23589 0.78180 0.18079
 H1145 H 0.24340 0.86365 0.08484
 H1146 H 0.29033 0.77904 0.19975
 C1147 C 0.78154 0.35279 0.57334
 C1148 C 0.79701 0.34578 0.59452
 C1149 C 0.78949 0.32575 0.61335
 C1150 C 0.80251 0.32191 0.63797
 C1151 C 0.79424 0.30441 0.65709
 C1152 C 0.77285 0.29044 0.65169
 C1153 C 0.76045 0.29368 0.62662
 C1154 C 0.76867 0.31101 0.60762
 C1155 C 0.76125 0.27428 0.67250
 C1156 C 0.77306 0.26465 0.69547
 H1157 H 0.81404 0.35580 0.59817
 H1158 H 0.81860 0.33301 0.64285
 H1159 H 0.80400 0.30267 0.67644
 H1160 H 0.74392 0.28316 0.62200
 H1161 H 0.75830 0.31318 0.58872
 H1162 H 0.74179 0.27036 0.66984
 H1163 H 0.78621 0.36479 0.56340
 H1164 H 0.79281 0.26652 0.69767
 C1165 C 0.22496 0.12979 0.56973
 C1166 C 0.20754 0.14641 0.58272
 C1167 C 0.21434 0.16527 0.60486
 C1168 C 0.19611 0.17551 0.62375
 C1169 C 0.20219 0.19387 0.64432
 C1170 C 0.22667 0.20240 0.64611
 C1171 C 0.24463 0.19255 0.62673
 C1172 C 0.23859 0.17436 0.60631
 C1173 C 0.23500 0.22057 0.66815
 C1174 C 0.22022 0.23193 0.68979
 H1175 H 0.18875 0.14676 0.57537
 H1176 H 0.17719 0.16914 0.62273
 H1177 H 0.18775 0.20103 0.65874
 H1178 H 0.26358 0.19892 0.62739
 H1179 H 0.25296 0.16791 0.59138
 H1180 H 0.25469 0.22423 0.66807
 H1181 H 0.24346 0.12893 0.57782
 H1182 H 0.20034 0.23007 0.69017
 C1183 C 0.72802 0.62628 0.07600
 C1184 C 0.70891 0.64136 0.08825
 C1185 C 0.71382 0.66316 0.10751
 C1186 C 0.69576 0.67142 0.12770
 C1187 C 0.70019 0.69199 0.14612
 C1188 C 0.72276 0.70479 0.14440
 C1189 C 0.74032 0.69704 0.12345
 C1190 C 0.73593 0.67657 0.10520
 C1191 C 0.72988 0.72503 0.16475
 C1192 C 0.71615 0.73319 0.18882
 H1193 H 0.68987 0.63778 0.08311
 H1194 H 0.67837 0.66166 0.12953
 H1195 H 0.68603 0.69750 0.16168
 H1196 H 0.75777 0.70665 0.12142
 H1197 H 0.74984 0.67152 0.08911
 H1198 H 0.74848 0.73208 0.16212
 H1199 H 0.74684 0.62966 0.08227
 H1200 H 0.69705 0.72804 0.19176
 C1201 C 0.15244 0.57068 0.21336
 C1202 C 0.16808 0.58184 0.19395
 C1203 C 0.17710 0.60750 0.19957
 C1204 C 0.20167 0.61337 0.19258
 C1205 C 0.21129 0.63670 0.20087
 C1206 C 0.19623 0.65461 0.21597
 C1207 C 0.17131 0.64908 0.22154
 C1208 C 0.16180 0.62585 0.21337
 C1209 C 0.20556 0.67871 0.22760
 C1210 C 0.22860 0.68888 0.22122
 H1211 H 0.17618 0.57065 0.17644
 H1212 H 0.21373 0.59949 0.18181
 H1213 H 0.23059 0.64012 0.19621
 H1214 H 0.15920 0.66261 0.23282
 H1215 H 0.14255 0.62212 0.21829
 H1216 H 0.19334 0.68880 0.24245
 H1217 H 0.14725 0.58108 0.23272
 H1218 H 0.24120 0.67929 0.20627
 C1219 C 0.64652 0.06713 0.72978
 C1220 C 0.65514 0.08046 0.70708
 C1221 C 0.66474 0.10603 0.71136
 C1222 C 0.68505 0.11377 0.69510
 C1223 C 0.69519 0.13749 0.70018
 C1224 C 0.68482 0.15388 0.72137
 C1225 C 0.66384 0.14647 0.73668
 C1226 C 0.65394 0.12277 0.73184
 C1227 C 0.69477 0.17895 0.72801
 C1228 C 0.71930 0.18573 0.72306
 H1229 H 0.65689 0.07126 0.68638
 H1230 H 0.69340 0.10124 0.67892
 H1231 H 0.71090 0.14294 0.68741
 H1232 H 0.65527 0.15894 0.75278
 H1233 H 0.63779 0.11759 0.74410
 H1234 H 0.68246 0.19184 0.73965
 H1235 H 0.64820 0.07527 0.75088
 H1236 H 0.73227 0.17234 0.71306
 C1237 C 0.84289 0.06750 0.29886
 C1238 C 0.82411 0.07762 0.28287
 C1239 C 0.81463 0.10371 0.28637
 C1240 C 0.79100 0.10914 0.27656
 C1241 C 0.78214 0.13379 0.27667
 C1242 C 0.79698 0.15372 0.28611
 C1243 C 0.82026 0.14825 0.29699
 C1244 C 0.82910 0.12347 0.29704
 C1245 C 0.78907 0.18023 0.28401
 C1246 C 0.77245 0.18780 0.26397
 H1247 H 0.81471 0.06565 0.26780
 H1248 H 0.77942 0.09423 0.26842
 H1249 H 0.76372 0.13705 0.26915
 H1250 H 0.83200 0.16326 0.30455
 H1251 H 0.84756 0.12001 0.30436
 H1252 H 0.79827 0.19437 0.29680
 H1253 H 0.84894 0.07836 0.31710
 H1254 H 0.76422 0.17406 0.24986
 C1255 C 0.33786 0.56762 0.78712
 C1256 C 0.32183 0.57835 0.76818
 C1257 C 0.30984 0.60334 0.77319
 C1258 C 0.28808 0.60872 0.75903
 C1259 C 0.27669 0.63235 0.76223
 C1260 C 0.28708 0.65132 0.77944
 C1261 C 0.30869 0.64587 0.79387
 C1262 C 0.32006 0.62221 0.79070
 C1263 C 0.27640 0.67701 0.78244
 C1264 C 0.26134 0.68739 0.76245
 H1265 H 0.31641 0.56776 0.74956
 H1266 H 0.27981 0.59453 0.74543
 H1267 H 0.25974 0.63553 0.75129
 H1268 H 0.31716 0.66019 0.80713
 H1269 H 0.33717 0.61908 0.80137
 H1270 H 0.28261 0.68901 0.79972
 H1271 H 0.34028 0.57754 0.80717
 H1272 H 0.25561 0.67618 0.74439
 C1273 C 0.34032 0.42971 0.69627
 C1274 C 0.32029 0.42272 0.71330
 C1275 C 0.30872 0.39766 0.71157
 C1276 C 0.28554 0.39463 0.72497
 C1277 C 0.27429 0.37120 0.72487
 C1278 C 0.28613 0.35017 0.71146
 C1279 C 0.30912 0.35321 0.69770
 C1280 C 0.32043 0.37662 0.69791
 C1281 C 0.27541 0.32483 0.71169
 C1282 C 0.25927 0.31712 0.73293
 H1283 H 0.31196 0.43653 0.72808
 H1284 H 0.27608 0.41049 0.73563
 H1285 H 0.25629 0.36974 0.73511
 H1286 H 0.31866 0.33725 0.68732
 H1287 H 0.33853 0.37785 0.68790
 H1288 H 0.28234 0.31107 0.69595
 H1289 H 0.34694 0.41711 0.67924
 H1290 H 0.25281 0.33029 0.74948
 C1291 C 0.83027 0.93530 0.20105
 C1292 C 0.81464 0.92483 0.22123
 C1293 C 0.80262 0.90022 0.21707
 C1294 C 0.78121 0.89537 0.23313
 C1295 C 0.77014 0.87189 0.23129
 C1296 C 0.78056 0.85253 0.21360
 C1297 C 0.80165 0.85753 0.19702
 C1298 C 0.81268 0.88109 0.19880
 C1299 C 0.77042 0.82687 0.21247
 C1300 C 0.75664 0.81721 0.23461
 H1301 H 0.80965 0.93540 0.24045
 H1302 H 0.77305 0.90981 0.24729
 H1303 H 0.75347 0.86911 0.24375
 H1304 H 0.81005 0.84292 0.18326
 H1305 H 0.82949 0.88391 0.18656
 H1306 H 0.77590 0.81451 0.19472
 H1307 H 0.83183 0.92585 0.18047
 H1308 H 0.75186 0.82890 0.25310
 C1309 C 0.66108 0.91885 0.78311
 C1310 C 0.67404 0.90537 0.80256
 C1311 C 0.68317 0.87953 0.79595
 C1312 C 0.70457 0.87080 0.80864
 C1313 C 0.71370 0.84651 0.80222
 C1314 C 0.70133 0.83053 0.78314
 C1315 C 0.67951 0.83908 0.77121
 C1316 C 0.67051 0.86329 0.77749
 C1317 C 0.70989 0.80471 0.77549
 C1318 C 0.73403 0.79579 0.77841
 H1319 H 0.67893 0.91441 0.82240
 H1320 H 0.71437 0.88288 0.82331
 H1321 H 0.73015 0.84032 0.81249
 H1322 H 0.66940 0.82699 0.75682
 H1323 H 0.65345 0.86907 0.76813
 H1324 H 0.69666 0.79277 0.76516
 H1325 H 0.65929 0.91087 0.76197
 H1326 H 0.74797 0.80797 0.78714
 C1327 C 0.15998 0.43488 0.29385
 C1328 C 0.16817 0.41890 0.27139
 C1329 C 0.18417 0.39658 0.27439
 C1330 C 0.19756 0.38694 0.25061
 C1331 C 0.21259 0.36565 0.25208
 C1332 C 0.21448 0.35341 0.27752
 C1333 C 0.20091 0.36291 0.30126
 C1334 C 0.18592 0.38431 0.29980
 C1335 C 0.22863 0.32972 0.27953
 C1336 C 0.24557 0.32042 0.25893
 H1337 H 0.16328 0.42314 0.25023
 H1338 H 0.19631 0.39587 0.23070
 H1339 H 0.22205 0.35863 0.23301
 H1340 H 0.20163 0.35354 0.32094
 H1341 H 0.17534 0.39064 0.31840
 H1342 H 0.22460 0.31854 0.29747
 H1343 H 0.16422 0.43045 0.31514
 H1344 H 0.25173 0.33197 0.24211
 C1345 C 0.07541 0.25440 0.84687
 C1346 C 0.08003 0.24325 0.82013
 C1347 C 0.10555 0.24018 0.80822
 C1348 C 0.11007 0.24275 0.77932
 C1349 C 0.13433 0.24174 0.76808
 C1350 C 0.15444 0.23778 0.78560
 C1351 C 0.14970 0.23392 0.81419
 C1352 C 0.12557 0.23520 0.82543
 C1353 C 0.18056 0.23786 0.77538
 C1354 C 0.18894 0.24982 0.75144
 H1355 H 0.06464 0.23929 0.80659
 H1356 H 0.09487 0.24623 0.76558
 H1357 H 0.13720 0.24405 0.74579
 H1358 H 0.16481 0.23046 0.82808
 H1359 H 0.12265 0.23233 0.84763
 H1360 H 0.19418 0.23008 0.78896
 H1361 H 0.09088 0.26141 0.85877
 H1362 H 0.17597 0.25851 0.73785
 C1363 C 0.57716 0.76524 0.35408
 C1364 C 0.58087 0.75270 0.32787
 C1365 C 0.60593 0.74836 0.31500
 C1366 C 0.60926 0.74799 0.28563
 C1367 C 0.63299 0.74501 0.27314
 C1368 C 0.65376 0.74199 0.28992
 C1369 C 0.65020 0.74126 0.31918
 C1370 C 0.62661 0.74451 0.33162
 C1371 C 0.67942 0.73994 0.27819
 C1372 C 0.68722 0.74959 0.25262
 H1373 H 0.56498 0.74791 0.31541
 H1374 H 0.59354 0.75052 0.27235
 H1375 H 0.63491 0.74500 0.25048
 H1376 H 0.66584 0.73865 0.33258
 H1377 H 0.62462 0.74386 0.35425
 H1378 H 0.69335 0.73295 0.29191
 H1379 H 0.59301 0.77295 0.36472
 H1380 H 0.67390 0.75734 0.23874
 C1381 C 0.59448 0.24264 0.14959
 C1382 C 0.59748 0.25709 0.17438
 C1383 C 0.62237 0.26138 0.18576
 C1384 C 0.62585 0.26140 0.21488
 C1385 C 0.64969 0.26337 0.22566
 C1386 C 0.67034 0.26577 0.20740
 C1387 C 0.66657 0.26711 0.17846
 C1388 C 0.64291 0.26481 0.16771
 C1389 C 0.69611 0.26642 0.21714
 C1390 C 0.70407 0.25615 0.24192
 H1391 H 0.58132 0.26301 0.18703
 H1392 H 0.61021 0.25912 0.22919
 H1393 H 0.65183 0.26296 0.24815
 H1394 H 0.68212 0.26928 0.16396
 H1395 H 0.64071 0.26559 0.14524
 H1396 H 0.70998 0.27292 0.20241
 H1397 H 0.61067 0.23387 0.13922
 H1398 H 0.69086 0.24878 0.25675
 C1399 C 0.08088 0.74422 0.65482
 C1400 C 0.08666 0.75967 0.67816
 C1401 C 0.11225 0.76130 0.68864
 C1402 C 0.11612 0.76566 0.71750
 C1403 C 0.14016 0.76565 0.72799
 C1404 C 0.16080 0.76154 0.70962
 C1405 C 0.15685 0.75831 0.68066
 C1406 C 0.13294 0.75821 0.67027
 C1407 C 0.18667 0.75969 0.71918
 C1408 C 0.19411 0.75958 0.74715
 H1409 H 0.07181 0.76879 0.69062
 H1410 H 0.10047 0.76841 0.73205
 H1411 H 0.14232 0.76859 0.75038
 H1412 H 0.17236 0.75544 0.66593
 H1413 H 0.13075 0.75570 0.64780
 H1414 H 0.20080 0.75679 0.70275
 H1415 H 0.09540 0.73263 0.64470
 H1416 H 0.18085 0.76219 0.76443
 C1417 C 0.92735 0.78042 0.67086
 C1418 C 0.92115 0.75917 0.68565
 C1419 C 0.89518 0.75422 0.69422
 C1420 C 0.88990 0.74170 0.71896
 C1421 C 0.86533 0.73699 0.72720
 C1422 C 0.84571 0.74444 0.71047
 C1423 C 0.85115 0.75621 0.68533
 C1424 C 0.87554 0.76111 0.67731
 C1425 C 0.81938 0.74023 0.71788
 C1426 C 0.80999 0.73706 0.74512
 H1427 H 0.93529 0.74630 0.69205
 H1428 H 0.90479 0.73580 0.73205
 H1429 H 0.86185 0.72730 0.74634
 H1430 H 0.83640 0.76184 0.67188
 H1431 H 0.87898 0.76997 0.65760
 H1432 H 0.80641 0.74207 0.70112
 H1433 H 0.91285 0.79440 0.66883
 H1434 H 0.82227 0.73621 0.76262
 C1435 C 0.44033 0.27003 0.15572
 C1436 C 0.42556 0.28893 0.16895
 C1437 C 0.40355 0.28417 0.18717
 C1438 C 0.39533 0.30317 0.20657
 C1439 C 0.37419 0.30002 0.22348
 C1440 C 0.36052 0.27786 0.22132
 C1441 C 0.36884 0.25861 0.20206
 C1442 C 0.39015 0.26174 0.18515
 C1443 C 0.33681 0.27690 0.23775
 C1444 C 0.32090 0.25642 0.23809
 H1445 H 0.43143 0.30817 0.16770
 H1446 H 0.40521 0.32066 0.20854
 H1447 H 0.36819 0.31527 0.23794
 H1448 H 0.35872 0.24141 0.19925
 H1449 H 0.39553 0.24688 0.16998
 H1450 H 0.33057 0.29427 0.24840
 H1451 H 0.43635 0.25065 0.15949
 H1452 H 0.32662 0.23849 0.22861
 C1453 C 0.42572 0.74698 0.33419
 C1454 C 0.41106 0.73111 0.31769
 C1455 C 0.38785 0.73930 0.30468
 C1456 C 0.37827 0.72457 0.28246
 C1457 C 0.35511 0.73021 0.27164
 C1458 C 0.34098 0.75065 0.28309
 C1459 C 0.35082 0.76571 0.30485
 C1460 C 0.37401 0.76019 0.31551
 C1461 C 0.31494 0.75496 0.27554
 C1462 C 0.30440 0.74596 0.25062
 H1463 H 0.41687 0.71174 0.31396
 H1464 H 0.38844 0.70823 0.27394
 H1465 H 0.34789 0.71780 0.25537
 H1466 H 0.34015 0.78137 0.31426
 H1467 H 0.38041 0.77164 0.33309
 H1468 H 0.30314 0.76478 0.29127
 H1469 H 0.42210 0.76697 0.33495
 H1470 H 0.31591 0.73732 0.23387
 C1471 C 0.92000 0.23502 0.83509
 C1472 C 0.90475 0.21921 0.81927
 C1473 C 0.88119 0.22751 0.80713
 C1474 C 0.87132 0.21314 0.78482
 C1475 C 0.84833 0.21938 0.77400
 C1476 C 0.83465 0.24013 0.78548
 C1477 C 0.84462 0.25461 0.80763
 C1478 C 0.86765 0.24846 0.81834
 C1479 C 0.80910 0.24575 0.77694
 C1480 C 0.79901 0.23711 0.75163
 H1481 H 0.91075 0.20002 0.81461
 H1482 H 0.88124 0.19675 0.77602
 H1483 H 0.84101 0.20732 0.75748
 H1484 H 0.83428 0.27047 0.81711
 H1485 H 0.87427 0.25962 0.83603
 H1486 H 0.79741 0.25670 0.79183
 H1487 H 0.91593 0.25492 0.83680
 H1488 H 0.81055 0.22756 0.73553
 C1489 C 0.59958 0.99929 0.68063
 C1490 C 0.58579 1.01514 0.66428
 C1491 C 0.56824 1.00550 0.64339
 C1492 C 0.54558 1.01814 0.64082
 C1493 C 0.52923 1.01053 0.62003
 C1494 C 0.53564 0.99069 0.60087
 C1495 C 0.55812 0.97763 0.60371
 C1496 C 0.57423 0.98485 0.62504
 C1497 C 0.51970 0.98583 0.57668
 C1498 C 0.52989 0.98451 0.54945
 H1499 H 0.58531 1.03512 0.66906
 H1500 H 0.54065 1.03410 0.65476
 H1501 H 0.51207 1.02094 0.61803
 H1502 H 0.56338 0.96222 0.58914
 H1503 H 0.59175 0.97499 0.62647
 H1504 H 0.50006 0.98977 0.57972
 H1505 H 0.59616 0.97934 0.67840
 H1506 H 0.54977 0.98277 0.54699
 C1507 C 0.12718 0.49471 1.15667
 C1508 C 0.10938 0.47600 1.15398
 C1509 C 0.09807 0.46958 1.12673
 C1510 C 0.07285 0.46358 1.12627
 C1511 C 0.06051 0.46197 1.10082
 C1512 C 0.07340 0.46604 1.07544
 C1513 C 0.09905 0.46976 1.07579
 C1514 C 0.11134 0.47141 1.10117
 C1515 C 0.06051 0.47093 1.04930
 C1516 C 0.03597 0.46474 1.04392
 H1517 H 0.10053 0.46903 1.17267
 H1518 H 0.06232 0.46184 1.14574
 H1519 H 0.04069 0.45934 1.10141
 H1520 H 0.10941 0.47273 1.05644
 H1521 H 0.13100 0.47509 1.10078
 H1522 H 0.07023 0.48278 1.03495
 H1523 H 0.13387 0.50360 1.13799
 H1524 H 0.02601 0.45222 1.05727
 C1525 C -0.11888 0.00215 1.16273
 C1526 C -0.11946 -0.00593 1.13440
 C1527 C -0.10236 0.00383 1.11276
 C1528 C -0.10909 0.00251 1.08449
 C1529 C -0.09235 0.00916 1.06327
 C1530 C -0.06837 0.01710 1.06995
 C1531 C -0.06186 0.01897 1.09827
 C1532 C -0.07864 0.01246 1.11948
 C1533 C -0.04873 0.01965 1.04804
 C1534 C -0.05359 0.02168 1.01962
 H1535 H -0.13298 -0.01938 1.12735
 H1536 H -0.12713 -0.00437 1.07874
 H1537 H -0.09786 0.00669 1.04167
 H1538 H -0.04337 0.02452 1.10392
 H1539 H -0.07247 0.01302 1.14091
 H1540 H -0.02987 0.01590 1.05401
 H1541 H -0.10760 0.01826 1.16787
 H1542 H -0.07168 0.02804 1.01352
 C1543 C 0.39224 0.49382 0.65462
 C1544 C 0.40240 0.51755 0.65138
 C1545 C 0.42215 0.52135 0.63000
 C1546 C 0.42214 0.54279 0.61396
 C1547 C 0.44093 0.54617 0.59360
 C1548 C 0.46035 0.52850 0.58980
 C1549 C 0.46070 0.50757 0.60656
 C1550 C 0.44168 0.50387 0.62623
 C1551 C 0.48028 0.53056 0.56827
 C1552 C 0.47572 0.53722 0.54083
 H1553 H 0.39559 0.53369 0.66392
 H1554 H 0.40738 0.55665 0.61684
 H1555 H 0.44042 0.56262 0.58112
 H1556 H 0.47551 0.49372 0.60400
 H1557 H 0.44241 0.48747 0.63878
 H1558 H 0.49755 0.52104 0.57232
 H1559 H 0.39659 0.47960 0.63819
 H1560 H 0.45838 0.54637 0.53634
 C1561 C 0.38931 0.50156 -0.17416
 C1562 C 0.40895 0.48423 -0.17743
 C1563 C 0.42489 0.47726 -0.15406
 C1564 C 0.44935 0.46930 -0.16035
 C1565 C 0.46562 0.46451 -0.13884
 C1566 C 0.45767 0.46707 -0.11057
 C1567 C 0.43280 0.47384 -0.10425
 C1568 C 0.41656 0.47882 -0.12580
 C1569 C 0.47642 0.46609 -0.08849
 C1570 C 0.47045 0.46434 -0.05996
 H1571 H 0.41471 0.47749 -0.19837
 H1572 H 0.45618 0.46772 -0.18196
 H1573 H 0.48470 0.45953 -0.14428
 H1574 H 0.42604 0.47649 -0.08273
 H1575 H 0.39764 0.48420 -0.12018
 H1576 H 0.49530 0.47042 -0.09460
 H1577 H 0.38542 0.51044 -0.15362
 H1578 H 0.45244 0.45763 -0.05362
 C1579 C -0.10796 0.99566 0.33096
 C1580 C -0.08997 1.00891 0.34561
 C1581 C -0.07226 0.99683 0.36409
 C1582 C -0.04847 1.00675 0.36633
 C1583 C -0.03147 0.99649 0.38430
 C1584 C -0.03810 0.97652 0.40099
 C1585 C -0.06184 0.96628 0.39858
 C1586 C -0.07876 0.97628 0.38013
 C1587 C -0.02059 0.96866 0.42234
 C1588 C -0.02870 0.96559 0.45002
 H1589 H -0.08715 1.02842 0.34121
 H1590 H -0.04306 1.02259 0.35423
 H1591 H -0.01338 1.00488 0.38600
 H1592 H -0.06742 0.95083 0.41115
 H1593 H -0.09711 0.96845 0.37911
 H1594 H -0.00144 0.97384 0.41892
 H1595 H -0.10873 0.97550 0.33234
 H1596 H -0.04731 0.95908 0.45381
 C1597 C 0.10189 0.50236 0.33287
 C1598 C 0.10675 0.49931 0.36113
 C1599 C 0.09000 0.50853 0.38452
 C1600 C 0.09916 0.51007 0.41179
 C1601 C 0.08342 0.51608 0.43489
 C1602 C 0.05802 0.52069 0.43117
 C1603 C 0.04903 0.51997 0.40379
 C1604 C 0.06478 0.51392 0.38068
 C1605 C 0.03991 0.52264 0.45510
 C1606 C 0.04671 0.52422 0.48314
 H1607 H 0.12380 0.49002 0.36649
 H1608 H 0.11846 0.50582 0.41534
 H1609 H 0.09119 0.51577 0.45553
 H1610 H 0.02951 0.52305 0.40033
 H1611 H 0.05679 0.51234 0.36012
 H1612 H 0.02073 0.51883 0.45051
 H1613 H 0.08671 0.51440 0.32730
 H1614 H 0.06515 0.52991 0.48837
 C1615 C 0.62476 -0.01471 -0.15007
 C1616 C 0.60612 0.00345 -0.14469
 C1617 C 0.59421 0.00824 -0.11660
 C1618 C 0.56971 0.01735 -0.11487
 C1619 C 0.55689 0.01959 -0.08899
 C1620 C 0.56853 0.01304 -0.06424
 C1621 C 0.59349 0.00539 -0.06582
 C1622 C 0.60629 0.00311 -0.09169
 C1623 C 0.55474 0.01090 -0.03725
 C1624 C 0.53078 0.02028 -0.03153
 H1625 H 0.59769 0.01230 -0.16211
 H1626 H 0.56008 0.02165 -0.13376
 H1627 H 0.53761 0.02524 -0.08883
 H1628 H 0.60293 0.00038 -0.04703
 H1629 H 0.62545 -0.00304 -0.09207
 H1630 H 0.56322 -0.00066 -0.02195
 H1631 H 0.63120 -0.02551 -0.13296
 H1632 H 0.52217 0.03304 -0.04543
 C1633 C 0.67492 0.57141 0.01780
 C1634 C 0.66858 0.55503 -0.00459
 C1635 C 0.64246 0.54866 -0.00981
 C1636 C 0.63659 0.52520 -0.02218
 C1637 C 0.61187 0.51891 -0.02691
 C1638 C 0.59267 0.53624 -0.01962
 C1639 C 0.59876 0.55996 -0.00818
 C1640 C 0.62329 0.56613 -0.00332
 C1641 C 0.56610 0.53073 -0.02286
 C1642 C 0.55614 0.50684 -0.02651
 H1643 H 0.68270 0.54587 -0.01803
 H1644 H 0.65112 0.51160 -0.02782
 H1645 H 0.60802 0.50064 -0.03631
 H1646 H 0.58439 0.57378 -0.00262
 H1647 H 0.62717 0.58473 0.00521
 H1648 H 0.55365 0.54645 -0.01897
 H1649 H 0.66025 0.57706 0.03282
 H1650 H 0.56823 0.49065 -0.02981
 C1651 C 0.17006 1.08817 0.49835
 C1652 C 0.15468 1.07524 0.51657
 C1653 C 0.12977 1.06649 0.50900
 C1654 C 0.12038 1.04496 0.52109
 C1655 C 0.09639 1.03697 0.51551
 C1656 C 0.08116 1.05075 0.49819
 C1657 C 0.09040 1.07245 0.48638
 C1658 C 0.11461 1.08012 0.49143
 C1659 C 0.05500 1.04412 0.49438
 C1660 C 0.04713 1.01936 0.49209
 H1661 H 0.16161 1.07034 0.53679
 H1662 H 0.13159 1.03440 0.53505
 H1663 H 0.08943 1.02061 0.52562
 H1664 H 0.07877 1.08357 0.47340
 H1665 H 0.12110 1.09718 0.48242
 H1666 H 0.04176 1.05937 0.49433
 H1667 H 0.16479 1.09010 0.47676
 H1668 H 0.06091 1.00444 0.49089
 C1669 C 0.16700 -0.06977 0.99263
 C1670 C 0.14989 -0.06256 0.97298
 C1671 C 0.12467 -0.05287 0.98035
 C1672 C 0.11145 -0.04102 0.95966
 C1673 C 0.08687 -0.03349 0.96467
 C1674 C 0.07488 -0.03767 0.99061
 C1675 C 0.08806 -0.04955 1.01134
 C1676 C 0.11277 -0.05702 1.00636
 C1677 C 0.04826 -0.03165 0.99554
 C1678 C 0.03608 -0.01372 0.98050
 H1679 H 0.15513 -0.06422 0.95086
 H1680 H 0.12001 -0.03804 0.93927
 H1681 H 0.07715 -0.02527 0.94771
 H1682 H 0.07909 -0.05340 1.03128
 H1683 H 0.12209 -0.06680 1.02253
 H1684 H 0.03801 -0.04206 1.01079
 H1685 H 0.16357 -0.06509 1.01474
 H1686 H 0.04681 -0.00144 0.96758
 C1687 C 0.68604 0.42896 0.48892
 C1688 C 0.66643 0.43434 0.47140
 C1689 C 0.64329 0.44727 0.48155
 C1690 C 0.62913 0.45978 0.46213
 C1691 C 0.60675 0.47150 0.47045
 C1692 C 0.59796 0.47094 0.49849
 C1693 C 0.61188 0.45810 0.51786
 C1694 C 0.63440 0.44644 0.50955
 C1695 C 0.57341 0.48158 0.50723
 C1696 C 0.56206 0.50040 0.49267
 H1697 H 0.66830 0.43059 0.44898
 H1698 H 0.63530 0.46029 0.44033
 H1699 H 0.59605 0.48023 0.45458
 H1700 H 0.60517 0.45688 0.53939
 H1701 H 0.64434 0.43622 0.52489
 H1702 H 0.56353 0.47340 0.52453
 H1703 H 0.68452 0.43581 0.51065
 H1704 H 0.57283 0.51047 0.47747
 C1705 C -0.16773 0.42726 0.52698
 C1706 C -0.14383 0.41864 0.53190
 C1707 C -0.12190 0.43475 0.52981
 C1708 C -0.09880 0.42375 0.52244
 C1709 C -0.07759 0.43839 0.52103
 C1710 C -0.07911 0.46434 0.52732
 C1711 C -0.10214 0.47528 0.53515
 C1712 C -0.12340 0.46069 0.53620
 C1713 C -0.05676 0.47990 0.52851
 C1714 C -0.03510 0.47397 0.51290
 H1715 H -0.14086 0.39900 0.53570
 H1716 H -0.09715 0.40374 0.51788
 H1717 H -0.05997 0.42920 0.51597
 H1718 H -0.10362 0.49514 0.54072
 H1719 H -0.14081 0.46962 0.54281
 H1720 H -0.05709 0.49590 0.54332
 H1721 H -0.17034 0.44589 0.51938
 H1722 H -0.03514 0.45929 0.49651
 C1723 C 0.32149 -0.08927 0.01844
 C1724 C 0.32846 -0.06679 0.00682
 C1725 C 0.35458 -0.05861 0.00712
 C1726 C 0.36389 -0.04285 -0.01343
 C1727 C 0.38883 -0.03570 -0.01349
 C1728 C 0.40463 -0.04422 0.00715
 C1729 C 0.39504 -0.05927 0.02806
 C1730 C 0.37032 -0.06609 0.02832
 C1731 C 0.43129 -0.03883 0.00776
 C1732 C 0.44256 -0.01762 -0.00260
 H1733 H 0.31460 -0.05465 -0.00168
 H1734 H 0.35200 -0.03652 -0.02972
 H1735 H 0.39578 -0.02415 -0.02997
 H1736 H 0.40675 -0.06573 0.04446
 H1737 H 0.36364 -0.07709 0.04541
 H1738 H 0.44217 -0.05136 0.01980
 H1739 H 0.33573 -0.10175 0.02555
 H1740 H 0.43190 -0.00426 -0.01386
 C1741 C 0.32725 1.09095 0.46727
 C1742 C 0.33283 1.06980 0.48233
 C1743 C 0.35885 1.06148 0.48595
 C1744 C 0.36512 1.04781 0.50938
 C1745 C 0.38993 1.04149 0.51410
 C1746 C 0.40872 1.04893 0.49544
 C1747 C 0.40233 1.06164 0.47155
 C1748 C 0.37772 1.06740 0.46651
 C1749 C 0.43525 1.04491 0.50028
 C1750 C 0.44530 1.02307 0.51057
 H1751 H 0.31812 1.05961 0.49237
 H1752 H 0.35090 1.04268 0.52446
 H1753 H 0.39445 1.03167 0.53273
 H1754 H 0.41652 1.06720 0.45667
 H1755 H 0.37371 1.07659 0.44734
 H1756 H 0.44750 1.05842 0.49137
 H1757 H 0.34234 1.10149 0.45853
 H1758 H 0.43312 1.00892 0.51848
 C1759 C -0.16872 0.57314 0.98107
 C1760 C -0.16260 0.55698 1.00217
 C1761 C -0.13654 0.55159 1.00891
 C1762 C -0.13010 0.52839 1.01956
 C1763 C -0.10537 0.52260 1.02495
 C1764 C -0.08669 0.54012 1.01997
 C1765 C -0.09341 0.56375 1.01067
 C1766 C -0.11800 0.56945 1.00518
 C1767 C -0.05998 0.53453 1.02276
 C1768 C -0.04978 0.51038 1.02229
 H1769 H -0.17699 0.54693 1.01297
 H1770 H -0.14417 0.51452 1.02315
 H1771 H -0.10111 0.50444 1.03286
 H1772 H -0.07947 0.57773 1.00697
 H1773 H -0.12241 0.58791 0.99808
 H1774 H -0.04778 0.55018 1.02092
 H1775 H -0.15389 0.58033 0.96811
 H1776 H -0.06176 0.49442 1.02371
 C1777 C 0.01864 0.68545 0.61412
 C1778 C 0.03538 0.66893 0.59986
 C1779 C 0.02875 0.64313 0.59045
 C1780 C 0.04201 0.63121 0.56778
 C1781 C 0.03686 0.60647 0.55917
 C1782 C 0.01847 0.59309 0.57336
 C1783 C 0.00542 0.60493 0.59619
 C1784 C 0.01038 0.62971 0.60461
 C1785 C 0.01384 0.56632 0.56645
 C1786 C 0.01906 0.55471 0.54009
 H1787 H 0.05372 0.67539 0.59436
 H1788 H 0.05652 0.64102 0.55682
 H1789 H 0.04785 0.59770 0.54205
 H1790 H -0.00851 0.59486 0.60777
 H1791 H 0.00034 0.63799 0.62274
 H1792 H 0.00614 0.55527 0.58302
 H1793 H -0.00058 0.68019 0.61624
 H1794 H 0.02475 0.56574 0.52259
 C1795 C 0.54287 0.17770 0.10398
 C1796 C 0.52486 0.16964 0.08521
 C1797 C 0.52260 0.14302 0.07567
 C1798 C 0.51101 0.13690 0.05027
 C1799 C 0.50801 0.11181 0.04128
 C1800 C 0.51646 0.09242 0.05777
 C1801 C 0.52792 0.09861 0.08317
 C1802 C 0.53088 0.12355 0.09211
 C1803 C 0.51274 0.06557 0.05049
 C1804 C 0.50544 0.05557 0.02441
 H1805 H 0.51262 0.18323 0.07640
 H1806 H 0.50418 0.15158 0.03741
 H1807 H 0.49864 0.10783 0.02185
 H1808 H 0.53434 0.08405 0.09646
 H1809 H 0.53907 0.12737 0.11231
 H1810 H 0.51657 0.05275 0.06687
 H1811 H 0.55707 0.16454 0.10967
 H1812 H 0.50244 0.06744 0.00699
 C1813 C -0.02905 0.16752 0.87792
 C1814 C -0.04825 0.15414 0.89023
 C1815 C -0.04440 0.12862 0.90043
 C1816 C -0.05893 0.12042 0.92306
 C1817 C -0.05523 0.09645 0.93322
 C1818 C -0.03708 0.08021 0.92058
 C1819 C -0.02315 0.08821 0.89745
 C1820 C -0.02668 0.11211 0.88750
 C1821 C -0.03235 0.05461 0.92996
 C1822 C -0.03850 0.04610 0.95659
 H1823 H -0.06612 0.16320 0.89423
 H1824 H -0.07299 0.13268 0.93307
 H1825 H -0.06679 0.09064 0.95059
 H1826 H -0.00931 0.07591 0.88704
 H1827 H -0.01575 0.11744 0.86941
 H1828 H -0.02205 0.04206 0.91529
 H1829 H -0.01043 0.15973 0.87751
 H1830 H -0.04799 0.05821 0.97229
 C1831 C 0.46652 0.67997 0.38751
 C1832 C 0.47883 0.67339 0.41165
 C1833 C 0.47887 0.64764 0.42218
 C1834 C 0.48474 0.64397 0.45030
 C1835 C 0.48637 0.61976 0.46040
 C1836 C 0.48230 0.59873 0.44238
 C1837 C 0.47619 0.60247 0.41440
 C1838 C 0.47452 0.62656 0.40436
 C1839 C 0.48631 0.57266 0.45075
 C1840 C 0.48804 0.56493 0.47835
 H1841 H 0.48816 0.68779 0.42390
 H1842 H 0.48843 0.65988 0.46440
 H1843 H 0.49162 0.61765 0.48192
 H1844 H 0.47325 0.58659 0.39997
 H1845 H 0.47070 0.62841 0.38238
 H1846 H 0.48854 0.55868 0.43367
 H1847 H 0.45452 0.66651 0.37731
 H1848 H 0.48508 0.57806 0.49608
 C1849 C 0.52166 0.82375 0.41314
 C1850 C 0.54065 0.83779 0.42516
 C1851 C 0.53664 0.86320 0.43831
 C1852 C 0.55564 0.88068 0.43589
 C1853 C 0.55206 0.90540 0.44603
 C1854 C 0.52967 0.91298 0.45956
 C1855 C 0.51100 0.89528 0.46332
 C1856 C 0.51440 0.87056 0.45262
 C1857 C 0.52563 0.93987 0.46673
 C1858 C 0.51184 0.94942 0.49014
 H1859 H 0.55959 0.83110 0.42292
 H1860 H 0.57299 0.87543 0.42516
 H1861 H 0.56669 0.91878 0.44292
 H1862 H 0.49345 0.90076 0.47343
 H1863 H 0.49962 0.85734 0.45542
 H1864 H 0.53489 0.95279 0.45320
 H1865 H 0.50277 0.83065 0.41575
 H1866 H 0.50345 0.93683 0.50471
 C1867 C 0.01905 0.31400 0.90247
 C1868 C 0.03476 0.33448 0.90035
 C1869 C 0.03083 0.35899 0.91572
 C1870 C 0.04324 0.37976 0.90554
 C1871 C 0.04002 0.40340 0.91878
 C1872 C 0.02456 0.40686 0.94279
 C1873 C 0.01246 0.38604 0.95354
 C1874 C 0.01559 0.36225 0.94012
 C1875 C 0.02084 0.43269 0.95471
 C1876 C 0.01209 0.43918 0.98200
 H1877 H 0.04989 0.33331 0.88499
 H1878 H 0.05524 0.37779 0.88696
 H1879 H 0.04960 0.41912 0.91009
 H1880 H 0.00019 0.38808 0.97184
 H1881 H 0.00616 0.34658 0.94900
 H1882 H 0.02641 0.44756 0.94125
 H1883 H 0.00227 0.31592 0.91534
 H1884 H 0.00754 0.42492 0.99663
 C1885 C 0.49403 0.32550 0.09639
 C1886 C 0.47569 0.33924 0.08340
 C1887 C 0.48156 0.36223 0.06823
 C1888 C 0.46666 0.36962 0.04620
 C1889 C 0.47216 0.39124 0.03161
 C1890 C 0.49262 0.40591 0.03906
 C1891 C 0.50715 0.39867 0.06138
 C1892 C 0.50169 0.37723 0.07584
 C1893 C 0.49896 0.42967 0.02583
 C1894 C 0.48864 0.43901 0.00166
 H1895 H 0.45697 0.33228 0.08289
 H1896 H 0.45082 0.35857 0.04019
 H1897 H 0.46016 0.39653 0.01499
 H1898 H 0.52275 0.40984 0.06794
 H1899 H 0.51304 0.37283 0.09337
 H1900 H 0.51246 0.44106 0.03671
 H1901 H 0.51315 0.33086 0.09351
 H1902 H 0.47547 0.42827 -0.01040
 C1903 C -0.02190 0.83813 0.61820
 C1904 C -0.01017 0.84146 0.59215
 C1905 C -0.00985 0.86622 0.57920
 C1906 C -0.00942 0.86767 0.54979
 C1907 C -0.00938 0.89103 0.53734
 C1908 C -0.00942 0.91330 0.55425
 C1909 C -0.00941 0.91170 0.58359
 C1910 C -0.00964 0.88853 0.59594
 C1911 C -0.00817 0.93859 0.54277
 C1912 C -0.01302 0.94476 0.51512
 H1913 H -0.00271 0.82528 0.58011
 H1914 H -0.00932 0.85072 0.53644
 H1915 H -0.00887 0.89151 0.51466
 H1916 H -0.00911 0.92854 0.59714
 H1917 H -0.00917 0.88817 0.61862
 H1918 H -0.00356 0.95364 0.55765
 H1919 H -0.03228 0.85366 0.62830
 H1920 H -0.01854 0.93066 0.49964
 C1921 C 0.26212 0.36923 0.09718
 C1922 C 0.23798 0.36160 0.10350
 C1923 C 0.23293 0.34592 0.12773
 C1924 C 0.21165 0.35018 0.14493
 C1925 C 0.20757 0.33597 0.16865
 C1926 C 0.22426 0.31677 0.17487
 C1927 C 0.24521 0.31219 0.15711
 C1928 C 0.24946 0.32657 0.13383
 C1929 C 0.22124 0.30337 0.20124
 C1930 C 0.23209 0.27987 0.20401
 H1931 H 0.22244 0.36796 0.09174
 H1932 H 0.19864 0.36498 0.14050
 H1933 H 0.19153 0.34010 0.18228
 H1934 H 0.25891 0.29809 0.16167
 H1935 H 0.26580 0.32260 0.12064
 H1936 H 0.21296 0.31335 0.21944
 H1937 H 0.27603 0.36572 0.11259
 H1938 H 0.23625 0.26851 0.18502
 C1939 C 0.75595 0.84301 0.58244
 C1940 C 0.76108 0.84352 0.61082
 C1941 C 0.75075 0.82473 0.62961
 C1942 C 0.75173 0.82909 0.65879
 C1943 C 0.74327 0.81112 0.67706
 C1944 C 0.73381 0.78825 0.66645
 C1945 C 0.73258 0.78399 0.63727
 C1946 C 0.74072 0.80214 0.61898
 C1947 C 0.72854 0.76746 0.68515
 C1948 C 0.72335 0.77161 0.71382
 H1949 H 0.77236 0.85844 0.61959
 H1950 H 0.75949 0.84627 0.66748
 H1951 H 0.74531 0.81474 0.69942
 H1952 H 0.72580 0.76636 0.62861
 H1953 H 0.73987 0.79811 0.59655
 H1954 H 0.73315 0.74864 0.67710
 H1955 H 0.76290 0.85378 0.57240
 H1956 H 0.71630 0.78986 0.72091
 C1957 C 0.25871 0.62811 0.59197
 C1958 C 0.24381 0.64640 0.60597
 C1959 C 0.25367 0.66634 0.62478
 C1960 C 0.24172 0.68981 0.62608
 C1961 C 0.24996 0.70910 0.64399
 C1962 C 0.26994 0.70514 0.66152
 C1963 C 0.28228 0.68175 0.65998
 C1964 C 0.27425 0.66249 0.64163
 C1965 C 0.27557 0.72503 0.68279
 C1966 C 0.28048 0.71929 0.71036
 H1967 H 0.22468 0.64825 0.59995
 H1968 H 0.22587 0.69321 0.61324
 H1969 H 0.24003 0.72688 0.64498
 H1970 H 0.29787 0.67824 0.67312
 H1971 H 0.28366 0.64448 0.64126
 H1972 H 0.26854 0.74364 0.67904
 H1973 H 0.27850 0.62805 0.59504
 H1974 H 0.28819 0.70109 0.71449
 C1975 C 0.73943 0.11986 0.08988
 C1976 C 0.76313 0.12923 0.09452
 C1977 C 0.76709 0.14946 0.11598
 C1978 C 0.78874 0.15001 0.13167
 C1979 C 0.79286 0.16997 0.15106
 C1980 C 0.77575 0.18999 0.15412
 C1981 C 0.75446 0.18962 0.13795
 C1982 C 0.75000 0.16945 0.11932
 C1983 C 0.77903 0.21149 0.17405
 C1984 C 0.78514 0.20844 0.20197
 H1985 H 0.77892 0.12255 0.08177
 H1986 H 0.80232 0.13494 0.12904
 H1987 H 0.80953 0.17003 0.16319
 H1988 H 0.74105 0.20489 0.14001
 H1989 H 0.73348 0.16980 0.10694
 H1990 H 0.77087 0.22913 0.16839
 H1991 H 0.72553 0.12336 0.10651
 H1992 H 0.79273 0.19067 0.20798
 C1993 C 0.73978 0.14288 0.92318
 C1994 C 0.74301 0.14108 0.89402
 C1995 C 0.73287 0.15980 0.87524
 C1996 C 0.73008 0.15296 0.84676
 C1997 C 0.72273 0.17066 0.82783
 C1998 C 0.71808 0.19575 0.83703
 C1999 C 0.72031 0.20245 0.86565
 C2000 C 0.72761 0.18471 0.88461
 C2001 C 0.71475 0.21587 0.81699
 C2002 C 0.71024 0.21101 0.78859
 H2003 H 0.75274 0.12492 0.88438
 H2004 H 0.73426 0.13397 0.83897
 H2005 H 0.72206 0.16476 0.80586
 H2006 H 0.71734 0.22171 0.87319
 H2007 H 0.73019 0.19092 0.90624
 H2008 H 0.72045 0.23452 0.82374
 H2009 H 0.72737 0.15711 0.93264
 H2010 H 0.70210 0.19339 0.78230
 C2011 C 0.25364 0.63878 0.42412
 C2012 C 0.25898 0.63811 0.39531
 C2013 C 0.24787 0.65605 0.37631
 C2014 C 0.24733 0.64967 0.34748
 C2015 C 0.23882 0.66689 0.32861
 C2016 C 0.23070 0.69101 0.33827
 C2017 C 0.23084 0.69721 0.36717
 C2018 C 0.23933 0.67997 0.38604
 C2019 C 0.22550 0.71108 0.31872
 C2020 C 0.22227 0.70643 0.29005
 H2021 H 0.27116 0.62355 0.38610
 H2022 H 0.25408 0.63149 0.33943
 H2023 H 0.23987 0.66153 0.30646
 H2024 H 0.22520 0.71580 0.37509
 H2025 H 0.24017 0.68594 0.40798
 H2026 H 0.22811 0.73024 0.32643
 H2027 H 0.23904 0.65121 0.43259
 H2028 H 0.21760 0.68779 0.28251
 C2029 C 0.73691 0.86894 0.41616
 C2030 C 0.75986 0.86004 0.40551
 C2031 C 0.76169 0.84026 0.38287
 C2032 C 0.78121 0.84013 0.36280
 C2033 C 0.78292 0.82133 0.34132
 C2034 C 0.76542 0.80206 0.34016
 C2035 C 0.74656 0.80173 0.36093
 C2036 C 0.74458 0.82070 0.38193
 C2037 C 0.76532 0.78253 0.31726
 C2038 C 0.77159 0.78732 0.28942
 H2039 H 0.77678 0.86752 0.41397
 H2040 H 0.79487 0.85481 0.36350
 H2041 H 0.79793 0.82180 0.32585
 H2042 H 0.73293 0.78701 0.36055
 H2043 H 0.72979 0.81987 0.39766
 H2044 H 0.75525 0.76564 0.32152
 H2045 H 0.72043 0.86396 0.40482
 H2046 H 0.78133 0.80424 0.28465
 C2047 C 0.25192 0.36866 0.92374
 C2048 C 0.23716 0.35131 0.90954
 C2049 C 0.24680 0.33374 0.88688
 C2050 C 0.23648 0.30984 0.88433
 C2051 C 0.24443 0.29286 0.86278
 C2052 C 0.26236 0.29965 0.84279
 C2053 C 0.27299 0.32352 0.84539
 C2054 C 0.26537 0.34041 0.86743
 C2055 C 0.26796 0.28190 0.81870
 C2056 C 0.27108 0.28983 0.79131
 H2057 H 0.21850 0.34845 0.91756
 H2058 H 0.22217 0.30429 0.89907
 H2059 H 0.23586 0.27464 0.86113
 H2060 H 0.28701 0.32919 0.83040
 H2061 H 0.27347 0.35884 0.86875
 H2062 H 0.26337 0.26246 0.82152
 H2063 H 0.27150 0.36935 0.91838
 H2064 H 0.27553 0.30917 0.78800
 C2065 C 0.84260 0.40876 0.74956
 C2066 C 0.81978 0.40140 0.76060
 C2067 C 0.81173 0.37495 0.75904
 C2068 C 0.79264 0.36734 0.77721
 C2069 C 0.78424 0.34264 0.77564
 C2070 C 0.79475 0.32517 0.75564
 C2071 C 0.81385 0.33277 0.73762
 C2072 C 0.82205 0.35738 0.73899
 C2073 C 0.78641 0.29902 0.75245
 C2074 C 0.76284 0.29115 0.76029
 H2075 H 0.80710 0.41542 0.77000
 H2076 H 0.78428 0.38053 0.79272
 H2077 H 0.76979 0.33731 0.79026
 H2078 H 0.82214 0.31970 0.72193
 H2079 H 0.83603 0.36252 0.72374
 H2080 H 0.79881 0.28597 0.74107
 H2081 H 0.85560 0.39471 0.74096
 H2082 H 0.74978 0.30424 0.77066
 C2083 C 0.32454 0.91846 0.24435
 C2084 C 0.31167 0.90996 0.26787
 C2085 C 0.30571 0.88313 0.26929
 C2086 C 0.28221 0.87593 0.27889
 C2087 C 0.27534 0.85073 0.27676
 C2088 C 0.29215 0.83238 0.26538
 C2089 C 0.31612 0.83955 0.25745
 C2090 C 0.32289 0.86462 0.25946
 C2091 C 0.28518 0.80611 0.25903
 C2092 C 0.26356 0.79490 0.26860
 H2093 H 0.30360 0.92292 0.28373
 H2094 H 0.26876 0.88994 0.28669
 H2095 H 0.25663 0.84604 0.28289
 H2096 H 0.32950 0.82578 0.24888
 H2097 H 0.34141 0.86960 0.25269
 H2098 H 0.29774 0.79525 0.24517
 H2099 H 0.32905 0.90466 0.22753
 H2100 H 0.25107 0.80486 0.28339
 C2101 C 0.17235 0.93090 0.74855
 C2102 C 0.17809 0.91310 0.76808
 C2103 C 0.19063 0.88879 0.76070
 C2104 C 0.20112 0.87553 0.78229
 C2105 C 0.21175 0.85182 0.77677
 C2106 C 0.21214 0.84076 0.74937
 C2107 C 0.20151 0.85392 0.72777
 C2108 C 0.19092 0.87774 0.73329
 C2109 C 0.22175 0.81494 0.74330
 C2110 C 0.23851 0.80345 0.76053
 H2111 H 0.17363 0.91731 0.79009
 H2112 H 0.20075 0.88339 0.80367
 H2113 H 0.21883 0.84196 0.79426
 H2114 H 0.20114 0.84561 0.70662
 H2115 H 0.18233 0.88699 0.71624
 H2116 H 0.21491 0.80451 0.72518
 H2117 H 0.17955 0.92849 0.72718
 H2118 H 0.24720 0.81435 0.77712
 C2119 C 0.67615 0.42351 0.25509
 C2120 C 0.69804 0.41618 0.24056
 C2121 C 0.70814 0.39038 0.24261
 C2122 C 0.72165 0.37862 0.21997
 C2123 C 0.72929 0.35345 0.22110
 C2124 C 0.72343 0.33990 0.24496
 C2125 C 0.71109 0.35205 0.26800
 C2126 C 0.70392 0.37708 0.26708
 C2127 C 0.72796 0.31277 0.24625
 C2128 C 0.74905 0.30008 0.23534
 H2129 H 0.70774 0.42924 0.22761
 H2130 H 0.72548 0.38861 0.20107
 H2131 H 0.73874 0.34437 0.20301
 H2132 H 0.70673 0.34204 0.28676
 H2133 H 0.69480 0.38582 0.28557
 H2134 H 0.71489 0.30288 0.25909
 H2135 H 0.66613 0.40961 0.26655
 H2136 H 0.76284 0.31000 0.22344
 C2137 C 0.66714 0.57802 0.20851
 C2138 C 0.68790 0.58662 0.22271
 C2139 C 0.69395 0.61367 0.22592
 C2140 C 0.71146 0.62158 0.24565
 C2141 C 0.71713 0.64704 0.24951
 C2142 C 0.70521 0.66498 0.23372
 C2143 C 0.68802 0.65708 0.21387
 C2144 C 0.68276 0.63179 0.20959
 C2145 C 0.70955 0.69211 0.23736
 C2146 C 0.73199 0.70254 0.24522
 H2147 H 0.70012 0.57315 0.23183
 H2148 H 0.72054 0.60806 0.25835
 H2149 H 0.73030 0.65263 0.26524
 H2150 H 0.67872 0.67056 0.20133
 H2151 H 0.67006 0.62687 0.19321
 H2152 H 0.69495 0.70426 0.23071
 H2153 H 0.65457 0.59124 0.19973
 H2154 H 0.74716 0.69049 0.25079
 C2155 C 0.16114 0.08383 0.71722
 C2156 C 0.18342 0.08904 0.73037
 C2157 C 0.19322 0.11486 0.73140
 C2158 C 0.20722 0.12359 0.75421
 C2159 C 0.21450 0.14875 0.75638
 C2160 C 0.20776 0.16533 0.73572
 C2161 C 0.19488 0.15626 0.71239
 C2162 C 0.18810 0.13127 0.70994
 C2163 C 0.21217 0.19245 0.73818
 C2164 C 0.23338 0.20331 0.74909
 H2165 H 0.19351 0.07439 0.74034
 H2166 H 0.21172 0.11121 0.77079
 H2167 H 0.22439 0.15540 0.77467
 H2168 H 0.18982 0.16865 0.69604
 H2169 H 0.17856 0.12500 0.69127
 H2170 H 0.19878 0.20413 0.72836
 H2171 H 0.15082 0.09924 0.70897
 H2172 H 0.24733 0.19166 0.75813
 C2173 C 0.31246 0.07406 0.28833
 C2174 C 0.32298 0.09747 0.29339
 C2175 C 0.31024 0.12096 0.28667
 C2176 C 0.32430 0.14123 0.27797
 C2177 C 0.31271 0.16360 0.27121
 C2178 C 0.28679 0.16620 0.27351
 C2179 C 0.27279 0.14613 0.28292
 C2180 C 0.28436 0.12363 0.28926
 C2181 C 0.27406 0.19015 0.26861
 C2182 C 0.28391 0.20827 0.25146
 H2183 H 0.34199 0.09850 0.30001
 H2184 H 0.34430 0.13968 0.27626
 H2185 H 0.32415 0.17903 0.26508
 H2186 H 0.25285 0.14791 0.28546
 H2187 H 0.27308 0.10855 0.29672
 H2188 H 0.25657 0.19389 0.27975
 H2189 H 0.29483 0.07289 0.27806
 H2190 H 0.30030 0.20404 0.23852
 C2191 C 0.82678 0.56784 0.79109
 C2192 C 0.81420 0.57362 0.76691
 C2193 C 0.80947 0.59983 0.75961
 C2194 C 0.78883 0.60562 0.74375
 C2195 C 0.78363 0.63044 0.73740
 C2196 C 0.79923 0.64985 0.74669
 C2197 C 0.82056 0.64379 0.76123
 C2198 C 0.82565 0.61910 0.76767
 C2199 C 0.79357 0.67663 0.74307
 C2200 C 0.76967 0.68602 0.73991
 H2201 H 0.80678 0.55887 0.75347
 H2202 H 0.77643 0.59097 0.73674
 H2203 H 0.76745 0.63423 0.72535
 H2204 H 0.83305 0.65834 0.76831
 H2205 H 0.84233 0.61520 0.77887
 H2206 H 0.80826 0.68955 0.74757
 H2207 H 0.83108 0.58301 0.80593
 H2208 H 0.75462 0.67329 0.73611
 C2209 C 0.92066 0.78444 0.13684
 C2210 C 0.91120 0.76988 0.15834
 C2211 C 0.88528 0.77235 0.16930
 C2212 C 0.87949 0.76520 0.19672
 C2213 C 0.85499 0.76613 0.20717
 C2214 C 0.83577 0.77404 0.19018
 C2215 C 0.84161 0.78130 0.16284
 C2216 C 0.86604 0.78048 0.15248
 C2217 C 0.80933 0.77284 0.19887
 C2218 C 0.80034 0.77143 0.22659
 H2219 H 0.92326 0.75733 0.16897
 H2220 H 0.89395 0.75860 0.21000
 H2221 H 0.85117 0.75980 0.22808
 H2222 H 0.82710 0.78715 0.14919
 H2223 H 0.86958 0.78540 0.13097
 H2224 H 0.79620 0.77256 0.18209
 H2225 H 0.90887 0.79924 0.12962
 H2226 H 0.81274 0.77273 0.24401
 C2227 C 0.41852 0.29474 0.63641
 C2228 C 0.41268 0.28154 0.66035
 C2229 C 0.38697 0.27977 0.67164
 C2230 C 0.38258 0.27593 0.70036
 C2231 C 0.35838 0.27303 0.71106
 C2232 C 0.33827 0.27353 0.69299
 C2233 C 0.34272 0.27742 0.66437
 C2234 C 0.36672 0.28056 0.65379
 C2235 C 0.31263 0.26815 0.70217
 C2236 C 0.30274 0.27162 0.72957
 H2237 H 0.42744 0.27297 0.67168
 H2238 H 0.39793 0.27498 0.71447
 H2239 H 0.35559 0.26957 0.73313
 H2240 H 0.32754 0.27763 0.64996
 H2241 H 0.36938 0.28273 0.63144
 H2242 H 0.30045 0.26190 0.68565
 H2243 H 0.40435 0.30621 0.62745
 H2244 H 0.31397 0.27875 0.74652
 C2245 C 0.42753 0.73021 0.85196
 C2246 C 0.41262 0.71287 0.83778
 C2247 C 0.38780 0.71948 0.82763
 C2248 C 0.37773 0.70521 0.80533
 C2249 C 0.35406 0.71077 0.79581
 C2250 C 0.33997 0.73063 0.80868
 C2251 C 0.34989 0.74453 0.83129
 C2252 C 0.37351 0.73909 0.84066
 C2253 C 0.31454 0.73682 0.80036
 C2254 C 0.30466 0.73034 0.77425
 H2255 H 0.41965 0.69405 0.83297
 H2256 H 0.38821 0.68971 0.79528
 H2257 H 0.34671 0.69914 0.77891
 H2258 H 0.33924 0.75966 0.84187
 H2259 H 0.38019 0.74992 0.85857
 H2260 H 0.30319 0.74785 0.81553
 H2261 H 0.42190 0.74975 0.85329
 H2262 H 0.31568 0.72022 0.75812
 C2263 C 0.94077 0.23322 0.33758
 C2264 C 0.92253 0.21592 0.32990
 C2265 C 0.89979 0.22339 0.31537
 C2266 C 0.88699 0.20543 0.29913
 C2267 C 0.86502 0.21187 0.28599
 C2268 C 0.85540 0.23647 0.28906
 C2269 C 0.86819 0.25431 0.30536
 C2270 C 0.89001 0.24790 0.31845
 C2271 C 0.83125 0.24411 0.27791
 C2272 C 0.81721 0.22994 0.25891
 H2273 H 0.92512 0.19621 0.33329
 H2274 H 0.89391 0.18631 0.29676
 H2275 H 0.85543 0.19740 0.27419
 H2276 H 0.86099 0.27328 0.30852
 H2277 H 0.89866 0.26208 0.33164
 H2278 H 0.82356 0.26178 0.28638
 H2279 H 0.93871 0.25203 0.33030
 H2280 H 0.82447 0.21268 0.24904
 C2281 C 0.08148 0.28237 0.34257
 C2282 C 0.10320 0.29432 0.35056
 C2283 C 0.12743 0.28979 0.33582
 C2284 C 0.14892 0.29281 0.35136
 C2285 C 0.17214 0.28742 0.33898
 C2286 C 0.17452 0.27937 0.31060
 C2287 C 0.15313 0.27717 0.29455
 C2288 C 0.12971 0.28230 0.30710
 C2289 C 0.19951 0.27235 0.29939
 C2290 C 0.20726 0.27273 0.27114
 H2291 H 0.10327 0.30513 0.37031
 H2292 H 0.14771 0.29872 0.37342
 H2293 H 0.18836 0.28937 0.35176
 H2294 H 0.15435 0.27084 0.27266
 H2295 H 0.11354 0.28038 0.29432
 H2296 H 0.21315 0.26824 0.31488
 H2297 H 0.08212 0.26941 0.32443
 H2298 H 0.19450 0.27777 0.25515
 C2299 C 0.57713 0.77034 0.86288
 C2300 C 0.58377 0.75481 0.83945
 C2301 C 0.60976 0.75227 0.82896
 C2302 C 0.61493 0.74706 0.80022
 C2303 C 0.63947 0.74478 0.78999
 C2304 C 0.65921 0.74738 0.80853
 C2305 C 0.65391 0.75203 0.83730
 C2306 C 0.62952 0.75446 0.84743
 C2307 C 0.68552 0.74457 0.79940
 C2308 C 0.69465 0.74585 0.77174
 H2309 H 0.56948 0.74552 0.82753
 H2310 H 0.59996 0.74496 0.78565
 H2311 H 0.64279 0.74061 0.76778
 H2312 H 0.66874 0.75377 0.85210
 H2313 H 0.62624 0.75762 0.86983
 H2314 H 0.69861 0.74226 0.81594
 H2315 H 0.59106 0.78220 0.87228
 H2316 H 0.68233 0.74880 0.75465
 C2317 C 0.56435 0.24619 0.64704
 C2318 C 0.57737 0.22890 0.66239
 C2319 C 0.60159 0.23458 0.67495
 C2320 C 0.60949 0.22103 0.69777
 C2321 C 0.63284 0.22517 0.70910
 C2322 C 0.64877 0.24286 0.69754
 C2323 C 0.64084 0.25636 0.67476
 C2324 C 0.61755 0.25233 0.66359
 C2325 C 0.67456 0.24605 0.70652
 C2326 C 0.68356 0.23897 0.73229
 H2327 H 0.56924 0.21090 0.66618
 H2328 H 0.59768 0.20699 0.70664
 H2329 H 0.63863 0.21389 0.72612
 H2330 H 0.65296 0.26975 0.66516
 H2331 H 0.61255 0.26254 0.64542
 H2332 H 0.68734 0.25392 0.69148
 H2333 H 0.57086 0.26525 0.64652
 H2334 H 0.67101 0.23320 0.74877
 C2335 C 0.06376 0.73720 0.16466
 C2336 C 0.07885 0.72072 0.17875
 C2337 C 0.10300 0.72826 0.19028
 C2338 C 0.11347 0.71443 0.21151
 C2339 C 0.13699 0.72022 0.22145
 C2340 C 0.15052 0.73987 0.21008
 C2341 C 0.13997 0.75371 0.18900
 C2342 C 0.11654 0.74802 0.17917
 C2343 C 0.17644 0.74507 0.21731
 C2344 C 0.18821 0.73659 0.24094
 H2345 H 0.07278 0.70178 0.18180
 H2346 H 0.10357 0.69888 0.22012
 H2347 H 0.14477 0.70874 0.23723
 H2348 H 0.15018 0.76867 0.17955
 H2349 H 0.10961 0.75857 0.16212
 H2350 H 0.18712 0.75566 0.20246
 H2351 H 0.06830 0.75689 0.16513
 H2352 H 0.17779 0.72785 0.25745
   
