data_POSCAR
  _audit_creation_date              2014-09-24
  _audit_creation_method            'ToBaCCo'
  _symmetry_space_group_name_H-M    'P1'
  _symmetry_Int_Tables_number       1
  _symmetry_cell_setting            triclinic
  loop_
  _symmetry_equiv_pos_as_xyz
 x,y,z
_cell_length_a 66.8274
_cell_length_b 65.9612
_cell_length_c 69.5232
_cell_angle_alpha 90.275000
_cell_angle_beta 89.530900
_cell_angle_gamma 89.741900
loop_
  _atom_site_label
  _atom_site_type_symbol
  _atom_site_fract_x
  _atom_site_fract_y
  _atom_site_fract_z
C1 C 0.42663 0.00187 0.27155
 H2 H 0.43345 -0.00197 0.25787
 C3 C 0.43762 -0.00072 0.28842
 H4 H 0.45286 -0.00628 0.28746
 C5 C 0.39803 0.01193 0.28957
 H6 H 0.38246 0.01634 0.29003
 C7 C 0.40845 0.00955 0.30675
 H8 H 0.40082 0.01266 0.32025
 N9 N 0.40712 0.00796 0.27238
 C10 C 0.40283 -0.00759 0.21329
 H11 H 0.39041 -0.01781 0.21539
 C12 C 0.41297 -0.00739 0.19565
 H13 H 0.40840 -0.01768 0.18434
 C14 C 0.42333 0.01884 0.22508
 H15 H 0.42689 0.02944 0.23646
 C16 C 0.43401 0.01942 0.20770
 H17 H 0.44575 0.03051 0.20579
 Zn18 Zn 0.39111 0.00760 0.24974
 N19 N 0.40781 0.00574 0.22743
 C20 C 0.37939 0.04589 0.23436
 N21 N 0.37488 0.03173 0.24791
 C22 C 0.35876 0.03432 0.25977
 C23 C 0.34663 0.05163 0.25834
 C24 C 0.36786 0.06354 0.23264
 C25 C 0.38376 -0.03299 0.25827
 C26 C 0.37286 -0.05075 0.26114
 C27 C 0.34359 -0.03362 0.24915
 C28 C 0.35511 -0.01609 0.24672
 N29 N 0.37479 -0.01602 0.25143
 H30 H 0.39203 0.04369 0.22484
 H31 H 0.35500 0.02276 0.27013
 H32 H 0.33366 0.05298 0.26769
 H33 H 0.37224 0.07472 0.22209
 H34 H 0.39953 -0.03271 0.26163
 H35 H 0.38120 -0.06382 0.26592
 H36 H 0.32785 -0.03231 0.24601
 H37 H 0.34821 -0.00247 0.24121
 C38 C 0.42847 0.00657 0.19253
 C39 C 0.42842 0.00274 0.30637
 C40 C 0.35218 -0.05161 0.25676
 C41 C 0.35117 0.06671 0.24472
 C42 C 0.08044 0.01343 0.72757
 H43 H 0.08091 0.02608 0.73751
 C44 C 0.06797 0.01437 0.71153
 H45 H 0.05881 0.02772 0.70934
 C46 C 0.09185 -0.01922 0.71826
 H47 H 0.10134 -0.03222 0.72065
 C48 C 0.07952 -0.01898 0.70214
 H49 H 0.07982 -0.03176 0.69231
 N50 N 0.09196 -0.00328 0.73077
 C51 C 0.10028 -0.01160 0.79245
 H52 H 0.11569 -0.01668 0.79247
 C53 C 0.08922 -0.01147 0.80960
 H54 H 0.09637 -0.01620 0.82277
 C55 C 0.07232 0.00075 0.77533
 H56 H 0.06561 0.00537 0.76201
 C57 C 0.06077 0.00128 0.79218
 H58 H 0.04531 0.00622 0.79154
 Zn59 Zn 0.10837 -0.00447 0.75322
 N60 N 0.09184 -0.00527 0.77576
 C61 C 0.13525 0.02278 0.77117
 N62 N 0.12513 0.01898 0.75463
 C63 C 0.12648 0.03187 0.73944
 C64 C 0.13791 0.04954 0.74073
 C65 C 0.14682 0.04030 0.77309
 C66 C 0.11538 -0.04679 0.75372
 C67 C 0.12638 -0.06473 0.75126
 C68 C 0.15612 -0.04469 0.74637
 C69 C 0.14451 -0.02712 0.74869
 N70 N 0.12447 -0.02844 0.75206
 H71 H 0.13427 0.01228 0.78300
 H72 H 0.11868 0.02853 0.72627
 H73 H 0.13839 0.05974 0.72859
 H74 H 0.15475 0.04296 0.78638
 H75 H 0.09944 -0.04746 0.75647
 H76 H 0.11883 -0.07917 0.75242
 H77 H 0.17197 -0.04332 0.74330
 H78 H 0.15145 -0.01241 0.74734
 C79 C 0.06923 -0.00477 0.80965
 C80 C 0.06732 -0.00205 0.69861
 C81 C 0.14702 -0.06383 0.74736
 C82 C 0.14819 0.05406 0.75778
 C83 C 0.58070 0.51076 0.22251
 H84 H 0.58060 0.52324 0.23266
 C85 C 0.56878 0.51173 0.20610
 H86 H 0.55944 0.52494 0.20383
 C87 C 0.59311 0.47852 0.21305
 H88 H 0.60281 0.46571 0.21552
 C89 C 0.58135 0.47881 0.19654
 H90 H 0.58228 0.46623 0.18650
 N91 N 0.59244 0.49423 0.22582
 C92 C 0.59914 0.48602 0.28768
 H93 H 0.61466 0.48137 0.28811
 C94 C 0.58759 0.48576 0.30452
 H95 H 0.59448 0.48121 0.31788
 C96 C 0.57133 0.49748 0.26981
 H97 H 0.56486 0.50183 0.25630
 C98 C 0.55927 0.49760 0.28634
 H99 H 0.54370 0.50201 0.28529
 Zn100 Zn 0.60815 0.49308 0.24870
 N101 N 0.59100 0.49208 0.27078
 C102 C 0.63430 0.52070 0.26728
 N103 N 0.62467 0.51666 0.25051
 C104 C 0.62620 0.52949 0.23530
 C105 C 0.63722 0.54739 0.23680
 C106 C 0.64548 0.53845 0.26940
 C107 C 0.61507 0.45086 0.24914
 C108 C 0.62610 0.43289 0.24716
 C109 C 0.65617 0.45279 0.24398
 C110 C 0.64452 0.47042 0.24575
 N111 N 0.62432 0.46917 0.24803
 H112 H 0.63320 0.51025 0.27913
 H113 H 0.61880 0.52595 0.22196
 H114 H 0.63779 0.55756 0.22464
 H115 H 0.65300 0.54133 0.28287
 H116 H 0.59901 0.45026 0.25106
 H117 H 0.61843 0.41848 0.24784
 H118 H 0.67218 0.45407 0.24181
 H119 H 0.65159 0.48511 0.24488
 C120 C 0.56741 0.49177 0.30402
 C121 C 0.56894 0.49554 0.19290
 C122 C 0.64692 0.43371 0.24439
 C123 C 0.64694 0.55219 0.25408
 C124 C 0.92418 0.51124 0.77316
 H125 H 0.92456 0.52318 0.76255
 C126 C 0.93634 0.51251 0.78941
 H127 H 0.94628 0.52534 0.79047
 C128 C 0.91112 0.47995 0.78369
 H129 H 0.90086 0.46754 0.78181
 C130 C 0.92311 0.48049 0.80007
 H131 H 0.92128 0.46845 0.81043
 N132 N 0.91206 0.49502 0.77043
 C133 C 0.90221 0.49175 0.70840
 H134 H 0.88622 0.48925 0.70868
 C135 C 0.91217 0.49405 0.69086
 H136 H 0.90374 0.49282 0.67768
 C137 C 0.93241 0.49662 0.72538
 H138 H 0.94021 0.49784 0.73887
 C139 C 0.94300 0.49913 0.70807
 H140 H 0.95884 0.50243 0.70848
 Zn141 Zn 0.89601 0.49420 0.74779
 N142 N 0.91226 0.49364 0.72522
 C143 C 0.88419 0.53269 0.73361
 N144 N 0.88003 0.51834 0.74707
 C145 C 0.86503 0.52126 0.76014
 C146 C 0.85292 0.53860 0.75935
 C147 C 0.87282 0.55050 0.73263
 C148 C 0.88904 0.45204 0.74845
 C149 C 0.87794 0.43415 0.74969
 C150 C 0.84767 0.45409 0.74783
 C151 C 0.85935 0.47161 0.74682
 N152 N 0.87967 0.47038 0.74767
 H153 H 0.89660 0.53056 0.72375
 H154 H 0.86221 0.50990 0.77099
 H155 H 0.84059 0.53998 0.76945
 H156 H 0.87692 0.56178 0.72210
 H157 H 0.90522 0.45135 0.74859
 H158 H 0.88571 0.41975 0.75062
 H159 H 0.83152 0.45547 0.74763
 H160 H 0.85207 0.48615 0.74542
 C161 C 0.93274 0.49843 0.69052
 C162 C 0.93613 0.49694 0.80334
 C163 C 0.85694 0.43504 0.74963
 C164 C 0.85671 0.55366 0.74547
 C165 C 0.22916 0.38647 0.98173
 H166 H 0.24064 0.38713 0.97069
 C167 C 0.21111 0.39706 0.97932
 H168 H 0.20906 0.40617 0.96656
 C169 C 0.21787 0.37364 1.01161
 H170 H 0.22022 0.36405 1.02394
 C171 C 0.19966 0.38394 1.00978
 H172 H 0.18834 0.38216 1.02087
 N173 N 0.23231 0.37518 0.99779
 C174 C 0.29732 0.36642 1.00296
 H175 H 0.29733 0.35018 1.00505
 C176 C 0.31521 0.37719 1.00432
 H177 H 0.32897 0.36907 1.00720
 C178 C 0.27926 0.39666 0.99685
 H179 H 0.26516 0.40424 0.99435
 C180 C 0.29692 0.40802 0.99783
 H181 H 0.29625 0.42429 0.99597
 Zn182 Zn 0.25647 0.35960 0.99976
 N183 N 0.27979 0.37620 0.99935
 C184 C 0.27091 0.34328 0.96450
 N185 N 0.25691 0.34126 0.97865
 C186 C 0.24211 0.32726 0.97724
 C187 C 0.24109 0.31443 0.96120
 C188 C 0.27029 0.33098 0.94810
 C189 C 0.25697 0.35732 1.03965
 C190 C 0.25741 0.34859 1.05786
 C191 C 0.25941 0.31552 1.04292
 C192 C 0.25875 0.32492 1.02488
 N193 N 0.25715 0.34547 1.02360
 H194 H 0.28222 0.35487 0.96562
 H195 H 0.23094 0.32619 0.98855
 H196 H 0.22931 0.30325 0.96056
 H197 H 0.28118 0.33347 0.93675
 H198 H 0.25622 0.37363 1.03824
 H199 H 0.25691 0.35833 1.07045
 H200 H 0.26018 0.29914 1.04377
 H201 H 0.25951 0.31576 1.01196
 C202 C 0.31519 0.39829 1.00180
 C203 C 0.19603 0.39594 0.99350
 C204 C 0.25837 0.32742 1.05970
 C205 C 0.25521 0.31629 0.94620
 C206 C 0.77452 0.10694 1.00758
 H207 H 0.76353 0.10374 1.01859
 C208 C 0.79252 0.09587 1.00710
 H209 H 0.79433 0.08386 1.01747
 C210 C 0.78503 0.12623 0.98088
 H211 H 0.78269 0.13862 0.97108
 C212 C 0.80304 0.11549 0.97974
 H213 H 0.81386 0.12036 0.96910
 N214 N 0.77105 0.12188 0.99458
 C215 C 0.70869 0.12638 0.98388
 H216 H 0.71113 0.13648 0.97195
 C217 C 0.69033 0.11644 0.98546
 H218 H 0.67916 0.11886 0.97451
 C219 C 0.71943 0.11226 1.01326
 H220 H 0.73053 0.11119 1.02441
 C221 C 0.70116 0.10211 1.01548
 H222 H 0.69870 0.09279 1.02805
 Zn223 Zn 0.74757 0.13904 0.99569
 N224 N 0.72305 0.12390 0.99747
 C225 C 0.74613 0.14467 0.95589
 N226 N 0.74788 0.15494 0.97281
 C227 C 0.75217 0.17509 0.97307
 C228 C 0.75547 0.18553 0.95581
 C229 C 0.74899 0.15452 0.93840
 C230 C 0.76455 0.15476 1.02987
 C231 C 0.76419 0.16491 1.04755
 C232 C 0.73149 0.17819 1.03990
 C233 C 0.73244 0.16769 1.02235
 N234 N 0.74862 0.15593 1.01788
 H235 H 0.74317 0.12856 0.95603
 H236 H 0.75395 0.18288 0.98667
 H237 H 0.75969 0.20134 0.95636
 H238 H 0.74738 0.14592 0.92522
 H239 H 0.77733 0.14546 1.02603
 H240 H 0.77682 0.16339 1.05711
 H241 H 0.71814 0.18676 1.04359
 H242 H 0.71992 0.16826 1.01261
 C243 C 0.68633 0.10401 1.00137
 C244 C 0.80738 0.10004 0.99306
 C245 C 0.74729 0.17640 1.05299
 C246 C 0.75428 0.17512 0.93813
 C247 C 0.27211 0.61181 0.47900
 H248 H 0.26163 0.61281 0.46727
 C249 C 0.28951 0.60011 0.47690
 H250 H 0.29212 0.59185 0.46361
 C251 C 0.28150 0.62167 0.51045
 H252 H 0.27859 0.63050 0.52331
 C253 C 0.29903 0.61004 0.50900
 H254 H 0.30939 0.61001 0.52089
 N255 N 0.26846 0.62236 0.49555
 C256 C 0.20416 0.63530 0.49193
 H257 H 0.20450 0.65164 0.49067
 C258 C 0.18583 0.62516 0.49182
 H259 H 0.17208 0.63376 0.49035
 C260 C 0.22162 0.60430 0.49606
 H261 H 0.23559 0.59628 0.49805
 C262 C 0.20355 0.59361 0.49651
 H263 H 0.20374 0.57735 0.49856
 Zn264 Zn 0.24574 0.63993 0.49600
 N265 N 0.22161 0.62480 0.49385
 C266 C 0.23747 0.65518 0.45891
 N267 N 0.24911 0.65763 0.47471
 C268 C 0.26490 0.67062 0.47453
 C269 C 0.26942 0.68186 0.45804
 C270 C 0.24171 0.66577 0.44204
 C271 C 0.23947 0.64255 0.53533
 C272 C 0.23714 0.65125 0.55354
 C273 C 0.24391 0.68403 0.53974
 C274 C 0.24578 0.67469 0.52164
 N275 N 0.24390 0.65422 0.51984
 H276 H 0.22551 0.64422 0.45900
 H277 H 0.27445 0.67171 0.48698
 H278 H 0.28231 0.69176 0.45790
 H279 H 0.23274 0.66314 0.42936
 H280 H 0.23760 0.62638 0.53348
 H281 H 0.23324 0.64153 0.56549
 H282 H 0.24607 0.70024 0.54092
 H283 H 0.24875 0.68386 0.50913
 C284 C 0.18538 0.60409 0.49437
 C285 C 0.30333 0.59917 0.49199
 C286 C 0.23968 0.67225 0.55609
 C287 C 0.25797 0.67912 0.44145
 C288 C 0.72331 0.88279 0.48245
 H289 H 0.73377 0.88181 0.47052
 C290 C 0.70524 0.89333 0.48031
 H291 H 0.70211 0.90070 0.46678
 C292 C 0.71481 0.87429 0.51453
 H293 H 0.71849 0.86663 0.52775
 C294 C 0.69659 0.88473 0.51304
 H295 H 0.68639 0.88489 0.52521
 N296 N 0.72773 0.87347 0.49932
 C297 C 0.79309 0.86560 0.49824
 H298 H 0.79393 0.84922 0.49778
 C299 C 0.81062 0.87687 0.50005
 H300 H 0.82489 0.86907 0.50050
 C301 C 0.77337 0.89553 0.49913
 H302 H 0.75879 0.90269 0.49938
 C303 C 0.79063 0.90744 0.50068
 H304 H 0.78917 0.92375 0.50194
 Zn305 Zn 0.75177 0.85783 0.50023
 N306 N 0.77486 0.87495 0.49828
 C307 C 0.76495 0.84143 0.46436
 N308 N 0.75117 0.83958 0.47876
 C309 C 0.73592 0.82605 0.47726
 C310 C 0.73448 0.81333 0.46116
 C311 C 0.76395 0.82919 0.44795
 C312 C 0.76870 0.84928 0.53630
 C313 C 0.77211 0.83915 0.55350
 C314 C 0.74407 0.81753 0.54669
 C315 C 0.74138 0.82793 0.52931
 N316 N 0.75383 0.84339 0.52425
 H317 H 0.77641 0.85285 0.46521
 H318 H 0.72451 0.82544 0.48830
 H319 H 0.72234 0.80255 0.46047
 H320 H 0.77479 0.83147 0.43652
 H321 H 0.77804 0.86202 0.53279
 H322 H 0.78452 0.84395 0.56230
 H323 H 0.73379 0.80554 0.55052
 H324 H 0.72923 0.82370 0.52004
 C325 C 0.80953 0.89806 0.50166
 C326 C 0.69151 0.89437 0.49571
 C327 C 0.75969 0.82308 0.55908
 C328 C 0.74860 0.81480 0.44615
 C329 C 0.00158 0.28045 0.40437
 H330 H 0.01645 0.27392 0.40470
 C331 C -0.00315 0.29689 0.41611
 H332 H 0.00828 0.30317 0.42532
 C333 C -0.03110 0.28065 0.39126
 H334 H -0.04189 0.27425 0.38150
 C335 C -0.03642 0.29731 0.40266
 H336 H -0.05131 0.30375 0.40161
 N337 N -0.01224 0.27285 0.39209
 C338 C 0.01261 0.21282 0.38148
 H339 H 0.01363 0.21234 0.36602
 C340 C 0.01758 0.19557 0.39192
 H341 H 0.02201 0.18220 0.38387
 C342 C 0.00325 0.23019 0.41001
 H343 H -0.00293 0.24340 0.41708
 C344 C 0.00820 0.21340 0.42103
 H345 H 0.00670 0.21480 0.43648
 Zn346 Zn -0.00423 0.25149 0.37577
 N347 N 0.00528 0.22958 0.39057
 C348 C 0.02104 0.24813 0.34378
 N349 N 0.01565 0.26061 0.35855
 C350 C 0.02403 0.27925 0.36064
 C351 C 0.03968 0.28518 0.34861
 C352 C 0.03665 0.25341 0.33146
 C353 C -0.03586 0.22553 0.36610
 C354 C -0.05250 0.21956 0.35557
 C355 C -0.04809 0.24906 0.33541
 C356 C -0.03164 0.25450 0.34635
 N357 N -0.02599 0.24281 0.36139
 H358 H 0.01335 0.23396 0.34162
 H359 H 0.01891 0.28948 0.37177
 H360 H 0.04664 0.29979 0.35084
 H361 H 0.04147 0.24274 0.32046
 H362 H -0.03106 0.21660 0.37822
 H363 H -0.06043 0.20591 0.35954
 H364 H -0.05277 0.25884 0.32380
 H365 H -0.02349 0.26821 0.34309
 C366 C 0.01480 0.19532 0.41205
 C367 C -0.02225 0.30567 0.41512
 C368 C -0.05881 0.23150 0.34010
 C369 C 0.04655 0.27190 0.33420
 C370 C 0.02487 0.72705 0.10814
 H371 H 0.03756 0.73707 0.10953
 C372 C 0.02546 0.71117 0.09486
 H373 H 0.03857 0.70927 0.08578
 C374 C -0.00777 0.71769 0.11822
 H375 H -0.02052 0.72004 0.12760
 C376 C -0.00767 0.70142 0.10546
 H377 H -0.02040 0.69132 0.10533
 N378 N 0.00822 0.73028 0.11909
 C379 C 0.00920 0.79391 0.13450
 H380 H 0.00643 0.79285 0.14982
 C381 C 0.01017 0.81282 0.12576
 H382 H 0.00812 0.82639 0.13440
 C383 C 0.01397 0.77740 0.10441
 H384 H 0.01482 0.76362 0.09603
 C385 C 0.01499 0.79597 0.09508
 H386 H 0.01713 0.79631 0.07962
 Zn387 Zn 0.00773 0.75201 0.13649
 N388 N 0.01127 0.77672 0.12379
 C389 C 0.04096 0.76228 0.15908
 N390 N 0.02768 0.74750 0.15461
 C391 C 0.02840 0.72892 0.16299
 C392 C 0.04298 0.72462 0.17661
 C393 C 0.05550 0.75876 0.17283
 C394 C -0.03305 0.75832 0.13767
 C395 C -0.05211 0.75960 0.14575
 C396 C -0.03783 0.75156 0.17665
 C397 C -0.01906 0.75053 0.16790
 N398 N -0.01714 0.75351 0.14872
 H399 H 0.04042 0.77674 0.15193
 H400 H 0.01768 0.71745 0.15898
 H401 H 0.04366 0.70974 0.18309
 H402 H 0.06620 0.77056 0.17610
 H403 H -0.03092 0.76075 0.12241
 H404 H -0.06432 0.76222 0.13597
 H405 H -0.03833 0.74990 0.19210
 H406 H -0.00603 0.74750 0.17653
 C407 C 0.01292 0.81393 0.10579
 C408 C 0.00897 0.69814 0.09335
 C409 C -0.05506 0.75588 0.16562
 C410 C 0.05660 0.73975 0.18169
 C411 C 0.51822 0.21725 0.60488
 H412 H 0.53312 0.22259 0.60809
 C413 C 0.51569 0.20042 0.59303
 H414 H 0.52877 0.19265 0.58731
 C415 C 0.48309 0.22041 0.60925
 H416 H 0.47045 0.22829 0.61562
 C417 C 0.47987 0.20366 0.59743
 H418 H 0.46470 0.19877 0.59474
 N419 N 0.50204 0.22668 0.61291
 C420 C 0.51446 0.28971 0.62494
 H421 H 0.50950 0.29104 0.63972
 C422 C 0.51831 0.30719 0.61443
 H423 H 0.51636 0.32184 0.62131
 C424 C 0.52059 0.26921 0.59740
 H425 H 0.52096 0.25448 0.59062
 C426 C 0.52470 0.28628 0.58639
 H427 H 0.52838 0.28445 0.57128
 Zn428 Zn 0.50606 0.24844 0.62994
 N429 N 0.51517 0.27122 0.61621
 C430 C 0.53352 0.25531 0.65954
 N431 N 0.52455 0.24076 0.64880
 C432 C 0.52860 0.22074 0.65149
 C433 C 0.54317 0.21478 0.66455
 C434 C 0.54814 0.25005 0.67275
 C435 C 0.46990 0.27006 0.63650
 C436 C 0.45139 0.27333 0.64540
 C437 C 0.45766 0.24422 0.66556
 C438 C 0.47603 0.24160 0.65638
 N439 N 0.48176 0.25444 0.64220
 H440 H 0.52982 0.27106 0.65752
 H441 H 0.52069 0.20935 0.64337
 H442 H 0.54669 0.19884 0.66613
 H443 H 0.55591 0.26196 0.68038
 H444 H 0.47456 0.27970 0.62478
 H445 H 0.44207 0.28583 0.64077
 H446 H 0.45311 0.23346 0.67645
 H447 H 0.48561 0.22904 0.66027
 C448 C 0.52290 0.30559 0.59476
 C449 C 0.49632 0.19330 0.58939
 C450 C 0.44507 0.26024 0.66007
 C451 C 0.55345 0.22960 0.67500
 C452 C 0.51282 0.78225 0.89365
 H453 H 0.52776 0.77619 0.89222
 C454 C 0.50934 0.79862 0.90587
 H455 H 0.52180 0.80536 0.91341
 C456 C 0.47843 0.78099 0.88556
 H457 H 0.46636 0.77379 0.87795
 C458 C 0.47431 0.79753 0.89752
 H459 H 0.45912 0.80320 0.89883
 N460 N 0.49752 0.77395 0.88360
 C461 C 0.51848 0.71300 0.87288
 H462 H 0.52054 0.71308 0.85743
 C463 C 0.52247 0.69549 0.88331
 H464 H 0.52735 0.68193 0.87575
 C465 C 0.50831 0.73033 0.90133
 H466 H 0.50240 0.74382 0.90822
 C467 C 0.51230 0.71327 0.91233
 H468 H 0.50969 0.71387 0.92772
 Zn469 Zn 0.50346 0.75200 0.86716
 N470 N 0.51102 0.72972 0.88196
 C471 C 0.54352 0.75831 0.85879
 N472 N 0.52500 0.75873 0.85089
 C473 C 0.52237 0.76313 0.83197
 C474 C 0.53875 0.76780 0.82033
 C475 C 0.56028 0.76284 0.84769
 C476 C 0.47280 0.72651 0.85347
 C477 C 0.45593 0.72180 0.84271
 C478 C 0.45579 0.75613 0.83062
 C479 C 0.47251 0.76021 0.84170
 N480 N 0.48079 0.74543 0.85264
 H481 H 0.54535 0.75386 0.87361
 H482 H 0.50771 0.76284 0.82570
 H483 H 0.53645 0.77128 0.80530
 H484 H 0.57497 0.76189 0.85411
 H485 H 0.47933 0.71509 0.86257
 H486 H 0.44966 0.70671 0.84344
 H487 H 0.44921 0.76816 0.82218
 H488 H 0.47884 0.77528 0.84175
 C489 C 0.51888 0.69538 0.90323
 C490 C 0.48994 0.80654 0.90773
 C491 C 0.44736 0.73672 0.83106
 C492 C 0.55797 0.76765 0.82821
 C493 C -0.23405 0.67121 0.97140
 H494 H -0.22135 0.67391 0.98054
 C495 C -0.23571 0.68181 0.95400
 H496 H -0.22427 0.69262 0.95003
 C497 C -0.26350 0.65290 0.96456
 H498 H -0.27408 0.64123 0.96808
 C499 C -0.26581 0.66318 0.94728
 H500 H -0.27852 0.65960 0.93835
 N501 N -0.24803 0.65720 0.97652
 C502 C -0.26046 0.65485 1.03675
 H503 H -0.26952 0.64140 1.03569
 C504 C -0.26123 0.66630 1.05366
 H505 H -0.27087 0.66090 1.06508
 C506 C -0.23549 0.67617 1.02387
 H507 H -0.22517 0.67980 1.01241
 C508 C -0.23560 0.68800 1.04067
 H509 H -0.22582 0.70099 1.04117
 Zn510 Zn -0.24638 0.64222 1.00017
 N511 N -0.24782 0.65991 1.02216
 C512 C -0.20941 0.63009 1.01632
 N513 N -0.22157 0.62762 1.00087
 C514 C -0.21607 0.61529 0.98598
 C515 C -0.19771 0.60490 0.98629
 C516 C -0.19090 0.62017 1.01712
 C517 C -0.28730 0.63284 1.00183
 C518 C -0.30451 0.62102 1.00049
 C519 C -0.28358 0.59113 0.99889
 C520 C -0.26667 0.60359 1.00005
 N521 N -0.26879 0.62411 1.00113
 H522 H -0.21396 0.63985 1.02808
 H523 H -0.22595 0.61352 0.97385
 H524 H -0.19384 0.59495 0.97439
 H525 H -0.18139 0.62288 1.02938
 H526 H -0.28866 0.64917 1.00277
 H527 H -0.31904 0.62836 1.00077
 H528 H -0.28164 0.57488 0.99758
 H529 H -0.25189 0.59688 0.99963
 C530 C -0.24862 0.68324 1.05610
 C531 C -0.25176 0.67776 0.94163
 C532 C -0.30280 0.59990 0.99872
 C533 C -0.18472 0.60734 1.00199
 C534 C -0.24163 0.33092 0.52756
 H535 H -0.22927 0.32760 0.51789
 C536 C -0.24316 0.32110 0.54442
 H537 H -0.23164 0.31023 0.54800
 C538 C -0.27035 0.35119 0.53437
 H539 H -0.28067 0.36320 0.53096
 C540 C -0.27271 0.34081 0.55291
 H541 H -0.28574 0.34493 0.56138
 N542 N -0.25613 0.34610 0.52238
 C543 C -0.25790 0.35098 0.45955
 H544 H -0.26015 0.36722 0.45884
 C545 C -0.25805 0.33941 0.44272
 H546 H -0.26049 0.34681 0.42906
 C547 C -0.25205 0.32164 0.47824
 H548 H -0.24998 0.31471 0.49211
 C549 C -0.25172 0.30948 0.46163
 H550 H -0.24944 0.29328 0.46285
 Zn551 Zn -0.25499 0.36018 0.49830
 N552 N -0.25496 0.34204 0.47688
 C553 C -0.21700 0.37225 0.48366
 N554 N -0.23121 0.37615 0.49736
 C555 C -0.22852 0.39106 0.51065
 C556 C -0.21130 0.40307 0.51017
 C557 C -0.19942 0.38368 0.48284
 C558 C -0.29641 0.36718 0.49676
 C559 C -0.31430 0.37820 0.49796
 C560 C -0.29517 0.40907 0.49623
 C561 C -0.27761 0.39739 0.49546
 N562 N -0.27848 0.37683 0.49631
 H563 H -0.21912 0.36007 0.47346
 H564 H -0.23988 0.39377 0.52154
 H565 H -0.20987 0.41517 0.52062
 H566 H -0.18821 0.37988 0.47208
 H567 H -0.29677 0.35078 0.49700
 H568 H -0.32817 0.36982 0.49833
 H569 H -0.29362 0.42537 0.49653
 H570 H -0.26330 0.40488 0.49468
 C571 C -0.25490 0.31840 0.44362
 C572 C -0.25976 0.32612 0.55826
 C573 C -0.31404 0.39961 0.49810
 C574 C -0.19633 0.39944 0.49617
 C575 C 0.25039 -0.17573 0.02820
 H576 H 0.25426 -0.18533 0.01607
 C577 C 0.24881 -0.18379 0.04588
 H578 H 0.25206 -0.19974 0.04738
 C579 C 0.24272 -0.14258 0.03975
 H580 H 0.24013 -0.12660 0.03730
 C581 C 0.24031 -0.15076 0.05925
 H582 H 0.23509 -0.14012 0.07002
 N583 N 0.24731 -0.15437 0.02536
 C584 C 0.23301 -0.15865 -0.03313
 H585 H 0.22061 -0.14831 -0.03093
 C586 C 0.23444 -0.16966 -0.05028
 H587 H 0.22292 -0.16789 -0.06102
 C588 C 0.26373 -0.17254 -0.02249
 H589 H 0.27547 -0.17295 -0.01188
 C590 C 0.26565 -0.18400 -0.03943
 H591 H 0.27887 -0.19328 -0.04174
 Zn592 Zn 0.24773 -0.14121 0.00108
 N593 N 0.24773 -0.15994 -0.01979
 C594 C 0.27518 -0.11657 -0.01893
 N595 N 0.27124 -0.12512 -0.00153
 C596 C 0.28417 -0.12300 0.01335
 C597 C 0.30167 -0.11166 0.01112
 C598 C 0.29261 -0.10524 -0.02184
 C599 C 0.20657 -0.13335 0.00496
 C600 C 0.18913 -0.12168 0.00688
 C601 C 0.20845 -0.09193 -0.00072
 C602 C 0.22555 -0.10418 -0.00226
 N603 N 0.22434 -0.12450 0.00057
 H604 H 0.26478 -0.11864 -0.03062
 H605 H 0.28100 -0.13018 0.02697
 H606 H 0.31180 -0.11027 0.02313
 H607 H 0.29537 -0.09842 -0.03574
 H608 H 0.20600 -0.14954 0.00730
 H609 H 0.17530 -0.12953 0.00993
 H610 H 0.21037 -0.07577 -0.00233
 H611 H 0.23988 -0.09730 -0.00524
 C612 C 0.25115 -0.18214 -0.05381
 C613 C 0.24339 -0.17070 0.06286
 C614 C 0.18970 -0.10047 0.00416
 C615 C 0.30611 -0.10259 -0.00666
 C616 C 0.26142 1.16707 0.47320
 H617 H 0.27410 1.16963 0.48246
 C618 C 0.25976 1.17780 0.45587
 H619 H 0.27134 1.18844 0.45186
 C620 C 0.23139 1.14955 0.46673
 H621 H 0.22048 1.13827 0.47057
 C622 C 0.22909 1.15996 0.44952
 H623 H 0.21609 1.15681 0.44082
 N624 N 0.24717 1.15339 0.47843
 C625 C 0.24451 1.14783 0.54105
 H626 H 0.24244 1.13159 0.54176
 C627 C 0.24402 1.15940 0.55788
 H628 H 0.24159 1.15195 0.57154
 C629 C 0.25046 1.17717 0.52235
 H630 H 0.25281 1.18407 0.50848
 C631 C 0.25040 1.18932 0.53895
 H632 H 0.25264 1.20551 0.53770
 Zn633 Zn 0.24857 1.13882 0.50220
 N634 N 0.24775 1.15676 0.52372
 C635 C 0.28637 1.12737 0.51717
 N636 N 0.27295 1.12341 0.50302
 C637 C 0.27683 1.10888 0.48952
 C638 C 0.29441 1.09725 0.49034
 C639 C 0.30421 1.11630 0.51839
 C640 C 0.20744 1.13113 0.50544
 C641 C 0.18974 1.11994 0.50485
 C642 C 0.20950 1.08926 0.50319
 C643 C 0.22688 1.10107 0.50357
 N644 N 0.22556 1.12167 0.50417
 H645 H 0.28337 1.13927 0.52754
 H646 H 0.26612 1.10612 0.47823
 H647 H 0.29680 1.08540 0.47974
 H648 H 0.31469 1.12007 0.52962
 H649 H 0.20676 1.14750 0.50618
 H650 H 0.17549 1.12781 0.50545
 H651 H 0.21084 1.07293 0.50217
 H652 H 0.24134 1.09373 0.50299
 C653 C 0.24707 1.18042 0.55698
 C654 C 0.24339 1.17425 0.44373
 C655 C 0.19061 1.09872 0.50341
 C656 C 0.30846 1.10083 0.50497
 C657 C 0.14065 0.48609 0.25522
 H658 H 0.14800 0.50051 0.25680
 C659 C 0.15164 0.46822 0.25808
 H660 H 0.16725 0.46920 0.26204
 C661 C 0.11170 0.46712 0.24803
 H662 H 0.09632 0.46663 0.24346
 C663 C 0.12204 0.44893 0.25097
 H664 H 0.11436 0.43468 0.24886
 N665 N 0.12084 0.48531 0.25078
 C666 C 0.11813 0.54679 0.23407
 H667 H 0.10746 0.54364 0.22288
 C668 C 0.12936 0.56460 0.23308
 H669 H 0.12688 0.57482 0.22121
 C670 C 0.13329 0.53793 0.26347
 H671 H 0.13458 0.52764 0.27547
 C672 C 0.14509 0.55546 0.26290
 H673 H 0.15568 0.55804 0.27432
 Zn674 Zn 0.10446 0.50932 0.24900
 N675 N 0.12035 0.53367 0.24898
 C676 C 0.08604 0.52467 0.28355
 N677 N 0.08601 0.50942 0.27026
 C678 C 0.07354 0.49329 0.27233
 C679 C 0.06145 0.49139 0.28870
 C680 C 0.07387 0.52355 0.30002
 C681 C 0.10114 0.50403 0.20934
 C682 C 0.09248 0.50528 0.19119
 C683 C 0.06117 0.51461 0.20637
 C684 C 0.07055 0.51320 0.22429
 N685 N 0.09028 0.50832 0.22540
 H686 H 0.09578 0.53754 0.28163
 H687 H 0.07308 0.48167 0.26141
 H688 H 0.05201 0.47818 0.29028
 H689 H 0.07447 0.53553 0.31071
 H690 H 0.11677 0.49997 0.21063
 H691 H 0.10186 0.50086 0.17915
 H692 H 0.04580 0.51971 0.20645
 H693 H 0.06223 0.51683 0.23727
 C694 C 0.14330 0.56915 0.24749
 C695 C 0.14221 0.44931 0.25635
 C696 C 0.07217 0.51125 0.18907
 C697 C 0.06175 0.50648 0.30293
 C698 C -0.14219 1.01573 0.25505
 H699 H -0.14865 1.00124 0.25142
 C700 C -0.15459 1.03277 0.25703
 H701 H -0.17056 1.03101 0.25521
 C702 C -0.11364 1.03554 0.26186
 H703 H -0.09760 1.03649 0.26368
 C704 C -0.12546 1.05298 0.26387
 H705 H -0.11829 1.06732 0.26690
 N706 N -0.12209 1.01739 0.25749
 C707 C -0.11570 0.95690 0.23816
 H708 H -0.10457 0.96070 0.22748
 C709 C -0.12605 0.93861 0.23634
 H710 H -0.12232 0.92850 0.22451
 C711 C -0.13403 0.96525 0.26634
 H712 H -0.13767 0.97590 0.27768
 C713 C -0.14478 0.94714 0.26503
 H714 H -0.15637 0.94408 0.27559
 Zn715 Zn -0.10458 0.99461 0.25537
 N716 N -0.11953 0.96975 0.25317
 C717 C -0.09695 0.99039 0.29508
 N718 N -0.08832 0.99477 0.27783
 C719 C -0.06888 1.00090 0.27675
 C720 C -0.05732 1.00249 0.29340
 C721 C -0.08591 0.99152 0.31199
 C722 C -0.09204 1.01243 0.22035
 C723 C -0.08071 1.01430 0.20351
 C724 C -0.06097 0.98543 0.21320
 C725 C -0.07263 0.98425 0.22995
 N726 N -0.08796 0.99752 0.23314
 H727 H -0.11252 0.98633 0.29589
 H728 H -0.06241 1.00506 0.26305
 H729 H -0.04190 1.00734 0.29231
 H730 H -0.09313 0.98804 0.32557
 H731 H -0.10448 1.02263 0.22294
 H732 H -0.08525 1.02581 0.19341
 H733 H -0.04870 0.97483 0.21152
 H734 H -0.06959 0.97256 0.24040
 C735 C -0.14074 0.93339 0.24997
 C736 C -0.14627 1.05179 0.26141
 C737 C -0.06487 1.00060 0.19943
 C738 C -0.06582 0.99761 0.31129
 C739 C 0.36861 0.52311 -0.22738
 H740 H 0.36986 0.51238 -0.21572
 C741 C 0.35742 0.54094 -0.22480
 H742 H 0.34979 0.54367 -0.21122
 C743 C 0.37731 0.53273 -0.25912
 H744 H 0.38550 0.52985 -0.27230
 C745 C 0.36611 0.55059 -0.25724
 H746 H 0.36569 0.56113 -0.26912
 N747 N 0.37821 0.51927 -0.24438
 C748 C 0.38968 0.45291 -0.25010
 H749 H 0.40575 0.45324 -0.25215
 C750 C 0.37979 0.43542 -0.25193
 H751 H 0.38834 0.42178 -0.25487
 C752 C 0.35993 0.47145 -0.24261
 H753 H 0.35216 0.48555 -0.23975
 C754 C 0.34842 0.45236 -0.24391
 H755 H 0.33237 0.45338 -0.24205
 Zn756 Zn 0.39464 0.49555 -0.24631
 N757 N 0.37918 0.47140 -0.24557
 C758 C 0.41255 0.48183 -0.21183
 N759 N 0.41265 0.49652 -0.22547
 C760 C 0.42464 0.51303 -0.22388
 C761 C 0.43728 0.51523 -0.20810
 C762 C 0.42481 0.48350 -0.19573
 C763 C 0.39787 0.49345 -0.28630
 C764 C 0.40719 0.49236 -0.30429
 C765 C 0.43929 0.49310 -0.28860
 C766 C 0.42932 0.49436 -0.27084
 N767 N 0.40894 0.49484 -0.27004
 H768 H 0.40259 0.46904 -0.21317
 H769 H 0.42423 0.52462 -0.23483
 H770 H 0.44681 0.52842 -0.20724
 H771 H 0.42396 0.47194 -0.18476
 H772 H 0.38171 0.49325 -0.28524
 H773 H 0.39808 0.49141 -0.31707
 H774 H 0.45549 0.49309 -0.28904
 H775 H 0.43788 0.49482 -0.25774
 C776 C 0.35768 0.43475 -0.24883
 C777 C 0.35598 0.55492 -0.23990
 C778 C 0.42817 0.49236 -0.30562
 C779 C 0.43736 0.50044 -0.19362
 C780 C 0.63996 -0.03137 -0.26554
 H781 H 0.64281 -0.02039 -0.27674
 C782 C 0.65122 -0.04824 -0.26451
 H783 H 0.66333 -0.04999 -0.27478
 C784 C 0.62067 -0.04050 -0.23805
 H785 H 0.60868 -0.03774 -0.22787
 C786 C 0.63253 -0.05932 -0.23640
 H787 H 0.62799 -0.06977 -0.22530
 N788 N 0.62443 -0.02745 -0.25158
 C789 C 0.61524 0.03861 -0.25013
 H790 H 0.59906 0.03885 -0.24973
 C791 C 0.62578 0.05681 -0.25116
 H792 H 0.61727 0.07079 -0.25078
 C793 C 0.64540 0.01975 -0.25059
 H794 H 0.65301 0.00528 -0.25063
 C795 C 0.65662 0.03765 -0.25121
 H796 H 0.67273 0.03627 -0.25217
 Zn797 Zn 0.60873 -0.00315 -0.25265
 N798 N 0.62506 0.02052 -0.25064
 C799 C 0.59942 0.00045 -0.21392
 N800 N 0.59074 -0.00277 -0.23127
 C801 C 0.57070 -0.00613 -0.23267
 C802 C 0.55868 -0.00683 -0.21607
 C803 C 0.58797 0.00016 -0.19707
 C804 C 0.59874 0.01361 -0.28856
 C805 C 0.58846 0.01581 -0.30576
 C806 C 0.57048 -0.01495 -0.29877
 C807 C 0.58113 -0.01653 -0.28151
 N808 N 0.59470 -0.00211 -0.27655
 H809 H 0.61538 0.00300 -0.21318
 H810 H 0.56398 -0.00845 -0.24656
 H811 H 0.54278 -0.00957 -0.21733
 H812 H 0.59522 0.00258 -0.18338
 H813 H 0.61003 0.02456 -0.28497
 H814 H 0.59170 0.02879 -0.31472
 H815 H 0.55980 -0.02657 -0.30252
 H816 H 0.57850 -0.02923 -0.27205
 C817 C 0.64690 0.05671 -0.25216
 C818 C 0.64758 -0.06349 -0.24896
 C819 C 0.57409 0.00147 -0.31115
 C820 C 0.56735 -0.00360 -0.19801
 C821 C 0.02872 0.26041 0.84791
 H822 H 0.01925 0.27310 0.84413
 C823 C 0.04805 0.25903 0.84049
 H824 H 0.05312 0.27044 0.83046
 C825 C 0.03341 0.23022 0.86575
 H826 H 0.02781 0.21941 0.87607
 C827 C 0.05301 0.22844 0.85895
 H828 H 0.06230 0.21614 0.86407
 N829 N 0.02177 0.24603 0.86011
 C830 C -0.04191 0.25633 0.85921
 H831 H -0.04460 0.25658 0.87458
 C832 C -0.05760 0.25958 0.84665
 H833 H -0.07253 0.26213 0.85236
 C834 C -0.01914 0.25220 0.83308
 H835 H -0.00417 0.24904 0.82792
 C836 C -0.03453 0.25513 0.81992
 H837 H -0.03135 0.25444 0.80463
 Zn838 Zn -0.00347 0.25051 0.87104
 N839 N -0.02308 0.25333 0.85229
 C840 C -0.01363 0.29043 0.88257
 N841 N -0.00148 0.27423 0.88576
 C842 C 0.01331 0.27488 0.89907
 C843 C 0.01618 0.29234 0.91004
 C844 C -0.01152 0.30802 0.89345
 C845 C -0.01222 0.21031 0.87788
 C846 C -0.01645 0.19321 0.88879
 C847 C -0.01946 0.21472 0.91697
 C848 C -0.01499 0.23139 0.90553
 N849 N -0.01091 0.22875 0.88651
 H850 H -0.02478 0.28992 0.87146
 H851 H 0.02292 0.26183 0.90103
 H852 H 0.02798 0.29279 0.92062
 H853 H -0.02125 0.32087 0.89081
 H854 H -0.00922 0.20884 0.86262
 H855 H -0.01623 0.17847 0.88187
 H856 H -0.02226 0.21695 0.93220
 H857 H -0.01449 0.24634 0.91191
 C858 C -0.05389 0.25924 0.82679
 C859 C 0.06059 0.24306 0.84624
 C860 C -0.01966 0.19527 0.90868
 C861 C 0.00354 0.30903 0.90730
 C862 C 0.46952 0.26506 0.15708
 H863 H 0.47856 0.27862 0.15712
 C864 C 0.45251 0.26396 0.16868
 H865 H 0.44837 0.27685 0.17758
 C866 C 0.46328 0.23225 0.14437
 H867 H 0.46725 0.22016 0.13454
 C868 C 0.44619 0.23047 0.15578
 H869 H 0.43732 0.21681 0.15489
 N870 N 0.47447 0.24937 0.14523
 C871 C 0.53711 0.25458 0.13165
 H872 H 0.53627 0.25392 0.11613
 C873 C 0.55561 0.25539 0.14056
 H874 H 0.56911 0.25515 0.13183
 C875 C 0.52039 0.25494 0.16191
 H876 H 0.50661 0.25451 0.17011
 C877 C 0.53861 0.25571 0.17145
 H878 H 0.53878 0.25617 0.18702
 Zn879 Zn 0.49622 0.25313 0.12870
 N880 N 0.52003 0.25463 0.14237
 C881 C 0.50625 0.29155 0.11466
 N882 N 0.49185 0.27710 0.11517
 C883 C 0.47421 0.27942 0.10578
 C884 C 0.47089 0.29656 0.09456
 C885 C 0.50369 0.30868 0.10345
 C886 C 0.50367 0.21309 0.11904
 C887 C 0.50621 0.19638 0.10700
 C888 C 0.49996 0.21802 0.07967
 C889 C 0.49742 0.23431 0.09226
 N890 N 0.49896 0.23146 0.11154
 H891 H 0.51989 0.28970 0.12267
 H892 H 0.46295 0.26772 0.10670
 H893 H 0.45703 0.29817 0.08672
 H894 H 0.51544 0.31993 0.10276
 H895 H 0.50520 0.21146 0.13443
 H896 H 0.50924 0.18170 0.11326
 H897 H 0.49865 0.22047 0.06434
 H898 H 0.49434 0.24920 0.08660
 C899 C 0.55646 0.25600 0.16068
 C900 C 0.44050 0.24659 0.16789
 C901 C 0.50421 0.19874 0.08705
 C902 C 0.48600 0.31109 0.09306
 C903 C -0.02289 0.75260 0.65982
 H904 H -0.01403 0.76581 0.66323
 C905 C -0.03789 0.74715 0.67136
 H906 H -0.04114 0.75663 0.68373
 C907 C -0.02881 0.72526 0.63801
 H908 H -0.02527 0.71701 0.62494
 C909 C -0.04569 0.71875 0.65018
 H910 H -0.05368 0.70530 0.64582
 N911 N -0.01865 0.74129 0.64263
 C912 C 0.02860 0.74168 0.65668
 H913 H 0.02010 0.72783 0.65731
 C914 C 0.04459 0.74440 0.66904
 H915 H 0.04889 0.73213 0.67846
 C916 C 0.03306 0.77462 0.64389
 H917 H 0.02830 0.78654 0.63441
 C918 C 0.04916 0.77801 0.65605
 H919 H 0.05685 0.79242 0.65558
 Zn920 Zn 0.00227 0.75082 0.62738
 N921 N 0.02361 0.75639 0.64394
 C922 C 0.00747 0.78347 0.60272
 N923 N -0.00588 0.77453 0.61479
 C924 C -0.02466 0.78216 0.61746
 C925 C -0.03055 0.79969 0.60787
 C926 C 0.00217 0.80084 0.59276
 C927 C 0.01636 0.71264 0.61521
 C928 C 0.02015 0.69702 0.60215
 C929 C 0.01086 0.71951 0.57636
 C930 C 0.00698 0.73461 0.58995
 N931 N 0.00963 0.73093 0.60900
 H932 H 0.02224 0.77697 0.60079
 H933 H -0.03508 0.77466 0.62698
 H934 H -0.04549 0.80573 0.61010
 H935 H 0.01309 0.80795 0.58341
 H936 H 0.01787 0.70976 0.63036
 H937 H 0.02438 0.68226 0.60755
 H938 H 0.00837 0.72266 0.56130
 H939 H 0.00108 0.74895 0.58519
 C940 C 0.05534 0.76258 0.66850
 C941 C -0.05061 0.72941 0.66621
 C942 C 0.01705 0.70026 0.58246
 C943 C -0.01703 0.80912 0.59531
 C944 C 0.52551 0.74969 0.34477
 H945 H 0.51592 0.76207 0.34046
 C946 C 0.54338 0.74615 0.33501
 H947 H 0.54752 0.75605 0.32326
 C948 C 0.53225 0.72263 0.36618
 H949 H 0.52789 0.71384 0.37861
 C950 C 0.55034 0.71851 0.35677
 H951 H 0.55978 0.70629 0.36180
 N952 N 0.52031 0.73796 0.35997
 C953 C 0.46972 0.74054 0.34245
 H954 H 0.47326 0.72467 0.34379
 C955 C 0.45557 0.74661 0.32910
 H956 H 0.44794 0.73515 0.32077
 C957 C 0.47473 0.77459 0.35224
 H958 H 0.48251 0.78545 0.36109
 C959 C 0.46070 0.78138 0.33898
 H960 H 0.45749 0.79744 0.33797
 Zn961 Zn 0.49662 0.74510 0.37266
 N962 N 0.47849 0.75440 0.35411
 C963 C 0.48650 0.77573 0.39901
 N964 N 0.50206 0.76598 0.39026
 C965 C 0.52134 0.77153 0.39338
 C966 C 0.52554 0.78789 0.40542
 C967 C 0.49000 0.79212 0.41117
 C968 C 0.48629 0.70433 0.37606
 C969 C 0.48002 0.68681 0.38536
 C970 C 0.47298 0.70687 0.41382
 C971 C 0.47945 0.72401 0.40399
 N972 N 0.48609 0.72242 0.38550
 H973 H 0.47131 0.77110 0.39608
 H974 H 0.53348 0.76350 0.38632
 H975 H 0.54093 0.79235 0.40759
 H976 H 0.47740 0.80020 0.41745
 H977 H 0.49225 0.70329 0.36160
 H978 H 0.48123 0.67240 0.37791
 H979 H 0.46808 0.70831 0.42865
 H980 H 0.47960 0.73841 0.41137
 C981 C 0.45059 0.76723 0.32754
 C982 C 0.55606 0.73043 0.34100
 C983 C 0.47360 0.68794 0.40458
 C984 C 0.50972 0.79853 0.41425
 Zr985 Zr 0.01935 -0.00866 1.03074
 O986 O 0.04031 0.00391 1.05005
 O987 O 0.01649 -0.03813 1.04123
 O988 O 0.00745 -0.00681 1.05909
 O989 O 0.05441 -0.01773 0.99484
 O990 O -0.02223 0.00991 1.05514
 O991 O 0.04822 -0.02178 1.02693
 O992 O -0.00715 -0.05215 1.02191
 O993 O -0.01132 -0.01418 1.02761
 O994 O 0.01626 -0.02518 1.00521
 O995 O 0.00561 0.02010 1.03010
 O996 O 0.03232 0.00941 1.00900
 Zr997 Zr -0.01667 0.01625 0.97811
 Zr998 Zr -0.02478 0.01442 1.02544
 Zr999 Zr 0.02749 -0.00677 0.98345
 Zr1000 Zr -0.01422 -0.02970 1.00157
 O1001 O 0.05192 0.00952 0.97178
 O1002 O -0.04139 -0.03884 1.01483
 O1003 O -0.00288 -0.01264 0.97852
 O1004 O -0.02922 -0.00186 0.99992
 O1005 O -0.01364 0.03296 1.00361
 O1006 O 0.01394 0.02166 0.98145
 C1007 C 0.00514 -0.05280 1.03606
 C1008 C 0.05956 -0.02322 1.01183
 C1009 C -0.00879 0.00151 1.06559
 O1010 O -0.05058 -0.00118 1.03499
 O1011 O -0.05030 0.02889 1.01450
 O1012 O -0.04510 0.03024 0.98209
 C1013 C -0.05574 0.03366 0.99739
 O1014 O 0.04004 0.04323 1.02744
 Zr1015 Zr 0.01700 0.03719 1.00733
 O1016 O -0.01471 0.04627 0.96849
 O1017 O -0.02909 0.04229 1.04012
 O1018 O 0.00721 0.06154 1.02515
 O1019 O 0.04263 0.04813 0.99254
 O1020 O 0.00701 0.06072 0.98954
 C1021 C -0.00518 0.06155 0.97535
 O1022 O -0.03832 0.00415 0.95923
 O1023 O 0.03363 -0.03526 0.97050
 O1024 O -0.00553 0.01268 0.94955
 O1025 O 0.02334 -0.00534 0.95370
 O1026 O -0.00345 -0.05523 0.98591
 O1027 O -0.03444 -0.03716 0.97921
 C1028 C 0.01002 0.00302 0.94308
 H1029 H 0.02352 -0.03830 1.00537
 H1030 H -0.04359 -0.00438 0.99762
 H1031 H 0.01968 0.02952 0.97065
 H1032 H 0.00780 0.02759 1.04226
 H1033 H -0.04214 -0.05381 1.01381
 H1034 H -0.05784 0.00810 1.04389
 H1035 H -0.04181 0.04118 1.04746
 H1036 H 0.01454 0.07384 1.02107
 H1037 H -0.01104 -0.06721 0.99041
 H1038 H 0.04632 -0.03385 0.96316
 H1039 H 0.05920 0.00011 0.96302
 H1040 H 0.04281 0.06306 0.99418
 H1041 H -0.03987 -0.05090 0.98141
 H1042 H -0.04202 0.01507 0.95014
 H1043 H 0.04411 -0.00698 1.05913
 H1044 H 0.04382 0.05771 1.02674
 Zr1045 Zr 0.51149 0.48317 0.52351
 O1046 O 0.53087 0.49656 0.54382
 O1047 O 0.51066 0.45309 0.53288
 O1048 O 0.49854 0.48376 0.55159
 O1049 O 0.54837 0.47767 0.48860
 O1050 O 0.46760 0.49729 0.54652
 O1051 O 0.54124 0.47213 0.52032
 O1052 O 0.48918 0.43789 0.51206
 O1053 O 0.48146 0.47545 0.51913
 O1054 O 0.51048 0.46732 0.49740
 O1055 O 0.49580 0.51090 0.52295
 O1056 O 0.52390 0.50281 0.50265
 Zr1057 Zr 0.47567 0.50691 0.47016
 Zr1058 Zr 0.46615 0.50308 0.51706
 Zr1059 Zr 0.52118 0.48709 0.47654
 Zr1060 Zr 0.48059 0.46062 0.49258
 O1061 O 0.54469 0.50556 0.46619
 O1062 O 0.45397 0.44912 0.50515
 O1063 O 0.49152 0.47913 0.47040
 O1064 O 0.46365 0.48733 0.49104
 O1065 O 0.47667 0.52304 0.49614
 O1066 O 0.50567 0.51448 0.47465
 C1067 C 0.50113 0.43761 0.52649
 C1068 C 0.55316 0.47185 0.50559
 C1069 C 0.48127 0.49024 0.55754
 O1070 O 0.44083 0.48570 0.52481
 O1071 O 0.44049 0.51678 0.50578
 O1072 O 0.44661 0.51979 0.47364
 C1073 C 0.43547 0.52230 0.48878
 O1074 O 0.52844 0.53684 0.52202
 Zr1075 Zr 0.50670 0.52948 0.50098
 O1076 O 0.47614 0.53704 0.46094
 O1077 O 0.45964 0.52989 0.53281
 O1078 O 0.49457 0.55257 0.51901
 O1079 O 0.53195 0.54258 0.48726
 O1080 O 0.49547 0.55270 0.48336
 C1081 C 0.48402 0.55287 0.46856
 O1082 O 0.45522 0.49378 0.45068
 O1083 O 0.52998 0.45954 0.46311
 O1084 O 0.48785 0.50455 0.44190
 O1085 O 0.51790 0.48884 0.44670
 O1086 O 0.49344 0.43658 0.47623
 O1087 O 0.46144 0.45238 0.46959
 C1088 C 0.50426 0.49621 0.43580
 H1089 H 0.51867 0.45478 0.49735
 H1090 H 0.44954 0.48400 0.48820
 H1091 H 0.51121 0.52298 0.46420
 H1092 H 0.49695 0.51818 0.53537
 H1093 H 0.45435 0.43416 0.50376
 H1094 H 0.43271 0.49412 0.53381
 H1095 H 0.44662 0.52778 0.53943
 H1096 H 0.50107 0.56550 0.51542
 H1097 H 0.48660 0.42390 0.48005
 H1098 H 0.54277 0.46215 0.45626
 H1099 H 0.55293 0.49701 0.45741
 H1100 H 0.53087 0.55747 0.48897
 H1101 H 0.45672 0.43831 0.47147
 H1102 H 0.45112 0.50461 0.44166
 H1103 H 0.53511 0.48567 0.55273
 H1104 H 0.53137 0.55153 0.52151
 Zr1105 Zr 0.48229 1.01256 0.52366
 O1106 O 0.46283 1.00203 0.54558
 O1107 O 0.48401 1.04349 0.53012
 O1108 O 0.49543 1.01502 0.55132
 O1109 O 0.44565 1.01620 0.48892
 O1110 O 0.52692 1.00238 0.54646
 O1111 O 0.45264 1.02373 0.52018
 O1112 O 0.50566 1.05580 0.50755
 O1113 O 0.51232 1.01938 0.51761
 O1114 O 0.48321 1.02513 0.49609
 O1115 O 0.49792 0.98488 0.52568
 O1116 O 0.46943 0.99061 0.50537
 Zr1117 Zr 0.51729 0.98202 0.47222
 Zr1118 Zr 0.52753 0.99164 0.51812
 Zr1119 Zr 0.47198 1.00300 0.47774
 Zr1120 Zr 0.51305 1.03085 0.48973
 O1121 O 0.44727 0.98415 0.47161
 O1122 O 0.54026 1.04330 0.49978
 O1123 O 0.50161 1.00980 0.46991
 O1124 O 0.52978 1.00397 0.49054
 O1125 O 0.51656 0.96926 0.49973
 O1126 O 0.48730 0.97542 0.47845
 C1127 C 0.49413 1.05788 0.52238
 C1128 C 0.44095 1.02380 0.50545
 C1129 C 0.51324 1.01051 0.55707
 O1130 O 0.55341 1.00932 0.52279
 O1131 O 0.55275 0.97595 0.50774
 O1132 O 0.54631 0.96935 0.47621
 C1133 C 0.55756 0.96841 0.49124
 O1134 O 0.46529 0.95941 0.52863
 Zr1135 Zr 0.48655 0.96377 0.50614
 O1136 O 0.51616 0.95095 0.46615
 O1137 O 0.53384 0.96738 0.53697
 O1138 O 0.49928 0.94303 0.52585
 O1139 O 0.46085 0.94918 0.49505
 O1140 O 0.49677 0.93835 0.49038
 C1141 C 0.50790 0.93626 0.47530
 O1142 O 0.53768 0.99222 0.45094
 O1143 O 0.46450 1.02824 0.46049
 O1144 O 0.50482 0.98129 0.44418
 O1145 O 0.47373 0.99519 0.44855
 O1146 O 0.50010 1.05333 0.47196
 O1147 O 0.53137 1.03579 0.46507
 C1148 C 0.48752 0.98708 0.43803
 H1149 H 0.47535 1.03782 0.49501
 H1150 H 0.54387 1.00672 0.48693
 H1151 H 0.48143 0.96564 0.46926
 H1152 H 0.49695 0.97930 0.53885
 H1153 H 0.54007 1.05798 0.49681
 H1154 H 0.56153 1.00213 0.53250
 H1155 H 0.54694 0.97030 0.54294
 H1156 H 0.49268 0.92976 0.52389
 H1157 H 0.50740 1.06615 0.47427
 H1158 H 0.45143 1.02523 0.45450
 H1159 H 0.43905 0.99138 0.46200
 H1160 H 0.46172 0.93468 0.49863
 H1161 H 0.53650 1.04985 0.46532
 H1162 H 0.54147 0.98025 0.44298
 H1163 H 0.45890 1.01397 0.55350
 H1164 H 0.46277 0.94473 0.53024
 Zr1165 Zr -0.00836 0.52350 1.01952
 O1166 O -0.02958 0.51476 1.04065
 O1167 O -0.00396 0.55401 1.02653
 O1168 O 0.00384 0.52408 1.04769
 O1169 O -0.04251 0.53248 0.98321
 O1170 O 0.03319 0.50658 1.04415
 O1171 O -0.03680 0.53718 1.01521
 O1172 O 0.02180 0.56353 1.00679
 O1173 O 0.02260 0.52633 1.01531
 O1174 O -0.00416 0.53700 0.99260
 O1175 O 0.00331 0.49391 1.02126
 O1176 O -0.02276 0.50436 0.99957
 Zr1177 Zr 0.02540 0.49038 0.96876
 Zr1178 Zr 0.03396 0.49675 1.01548
 Zr1179 Zr -0.01687 0.51742 0.97265
 Zr1180 Zr 0.02658 0.53872 0.98805
 O1181 O -0.04276 0.50209 0.96316
 O1182 O 0.05464 0.54679 0.99981
 O1183 O 0.01385 0.52021 0.96677
 O1184 O 0.03946 0.50975 0.98859
 O1185 O 0.02129 0.47678 0.99565
 O1186 O -0.00554 0.48792 0.97309
 C1187 C 0.00895 0.56685 1.02034
 C1188 C -0.04766 0.53905 1.00001
 C1189 C 0.02047 0.51688 1.05420
 O1190 O 0.06164 0.51040 1.02231
 O1191 O 0.05768 0.47845 1.00564
 O1192 O 0.05269 0.47446 0.97348
 C1193 C 0.06283 0.47151 0.98900
 O1194 O -0.03240 0.47326 1.02159
 Zr1195 Zr -0.00957 0.47542 1.00024
 O1196 O 0.02092 0.45982 0.96179
 O1197 O 0.03571 0.47108 1.03354
 O1198 O -0.00081 0.45218 1.01944
 O1199 O -0.03650 0.46531 0.98751
 O1200 O -0.00250 0.44957 0.98368
 C1201 C 0.00956 0.44636 0.96946
 O1202 O 0.04776 0.49873 0.94859
 O1203 O -0.02051 0.54469 0.95709
 O1204 O 0.01418 0.49145 0.94027
 O1205 O -0.01310 0.51230 0.94305
 O1206 O 0.01760 0.56349 0.97076
 O1207 O 0.04686 0.54222 0.96460
 C1208 C -0.00062 0.50154 0.93317
 H1209 H -0.01045 0.55057 0.99170
 H1210 H 0.05397 0.51076 0.98582
 H1211 H -0.01208 0.47949 0.96316
 H1212 H 0.00084 0.48809 1.03416
 H1213 H 0.05662 0.56146 0.99748
 H1214 H 0.06812 0.50174 1.03208
 H1215 H 0.04871 0.47187 1.04026
 H1216 H -0.00908 0.44011 1.01661
 H1217 H 0.02625 0.57514 0.97408
 H1218 H -0.03331 0.54361 0.95006
 H1219 H -0.04925 0.51100 0.95359
 H1220 H -0.03800 0.45075 0.99063
 H1221 H 0.05345 0.55560 0.96554
 H1222 H 0.05053 0.48666 0.94041
 H1223 H -0.03259 0.52693 1.04864
 H1224 H -0.03683 0.45900 1.02263
 Zr1225 Zr -0.02618 0.48996 0.47081
 O1226 O -0.04751 0.50032 0.45072
 O1227 O -0.02458 0.45896 0.46416
 O1228 O -0.01526 0.48831 0.44208
 O1229 O -0.06005 0.48588 0.50847
 O1230 O 0.01597 0.50220 0.44377
 O1231 O -0.05527 0.47847 0.47670
 O1232 O -0.00152 0.44686 0.48524
 O1233 O 0.00442 0.48361 0.47401
 O1234 O -0.02286 0.47731 0.49814
 O1235 O -0.01145 0.51795 0.46773
 O1236 O -0.03812 0.51158 0.49034
 Zr1237 Zr 0.01182 0.52047 0.51931
 Zr1238 Zr 0.01890 0.51171 0.47246
 Zr1239 Zr -0.03320 0.49908 0.51758
 Zr1240 Zr 0.00751 0.47198 0.50170
 O1241 O -0.05769 0.51759 0.52611
 O1242 O 0.03367 0.45979 0.48851
 O1243 O -0.00295 0.49252 0.52272
 O1244 O 0.02347 0.49906 0.49963
 O1245 O 0.00875 0.53358 0.49210
 O1246 O -0.01863 0.52686 0.51581
 C1247 C -0.01422 0.44456 0.47161
 C1248 C -0.06586 0.47835 0.49235
 C1249 C 0.00150 0.49402 0.43453
 O1250 O 0.04456 0.49432 0.46517
 O1251 O 0.04444 0.52799 0.48104
 O1252 O 0.04039 0.53271 0.51337
 C1253 C 0.05033 0.53460 0.49751
 O1254 O -0.04497 0.54281 0.46798
 Zr1255 Zr -0.02178 0.53868 0.48836
 O1256 O 0.01094 0.55157 0.52539
 O1257 O 0.02324 0.53651 0.45369
 O1258 O -0.01138 0.55979 0.46770
 O1259 O -0.04675 0.55284 0.50195
 O1260 O -0.01073 0.56409 0.50319
 C1261 C 0.00173 0.56622 0.51706
 O1262 O 0.03368 0.51021 0.53895
 O1263 O -0.03889 0.47354 0.53509
 O1264 O 0.00157 0.52098 0.54830
 O1265 O -0.02940 0.50659 0.54663
 O1266 O -0.00296 0.44939 0.52087
 O1267 O 0.02833 0.46723 0.52422
 C1268 C -0.01501 0.51485 0.55592
 H1269 H -0.03041 0.46457 0.49992
 H1270 H 0.03784 0.49641 0.50196
 H1271 H -0.02391 0.53652 0.52557
 H1272 H -0.01367 0.52374 0.45481
 H1273 H 0.03402 0.44509 0.49138
 H1274 H 0.05184 0.50194 0.45508
 H1275 H 0.03597 0.53399 0.44664
 H1276 H -0.01816 0.57291 0.47036
 H1277 H 0.00456 0.43673 0.51801
 H1278 H -0.05156 0.47631 0.54215
 H1279 H -0.06504 0.51012 0.53626
 H1280 H -0.04646 0.56739 0.49846
 H1281 H 0.03409 0.45342 0.52307
 H1282 H 0.03791 0.52210 0.54669
 H1283 H -0.05179 0.48837 0.44308
 H1284 H -0.04809 0.55744 0.46683
 Zr1285 Zr 0.47775 -0.01189 -0.03026
 O1286 O 0.45807 -0.00201 -0.05205
 O1287 O 0.48088 -0.04274 -0.03690
 O1288 O 0.49123 -0.01306 -0.05811
 O1289 O 0.44063 -0.01665 0.00439
 O1290 O 0.52124 0.00255 -0.05355
 O1291 O 0.44853 -0.02405 -0.02683
 O1292 O 0.50234 -0.05441 -0.01412
 O1293 O 0.50803 -0.01753 -0.02445
 O1294 O 0.47885 -0.02468 -0.00280
 O1295 O 0.49191 0.01652 -0.03182
 O1296 O 0.46363 0.00932 -0.01164
 Zr1297 Zr 0.51054 0.01941 0.02156
 Zr1298 Zr 0.52175 0.01093 -0.02454
 Zr1299 Zr 0.46639 -0.00326 0.01585
 Zr1300 Zr 0.50887 -0.02925 0.00340
 O1301 O 0.44088 0.01459 0.02269
 O1302 O 0.53650 -0.04074 -0.00729
 O1303 O 0.49619 -0.00899 0.02355
 O1304 O 0.52425 -0.00173 0.00286
 O1305 O 0.50952 0.03256 -0.00578
 O1306 O 0.48034 0.02490 0.01550
 C1307 C 0.49109 -0.05689 -0.02887
 C1308 C 0.43645 -0.02418 -0.01220
 C1309 C 0.50809 -0.00594 -0.06426
 O1310 O 0.54790 -0.00630 -0.03035
 O1311 O 0.54644 0.02672 -0.01377
 O1312 O 0.53929 0.03268 0.01785
 C1313 C 0.55080 0.03401 0.00285
 O1314 O 0.45816 0.04081 -0.03437
 Zr1315 Zr 0.47933 0.03687 -0.01203
 O1316 O 0.50817 0.05042 0.02768
 O1317 O 0.52770 0.03634 -0.04213
 O1318 O 0.49132 0.05841 -0.03149
 O1319 O 0.45271 0.05003 -0.00065
 O1320 O 0.48800 0.06245 0.00399
 C1321 C 0.49910 0.06482 0.01886
 O1322 O 0.53075 0.00957 0.04291
 O1323 O 0.45965 -0.02917 0.03250
 O1324 O 0.49742 0.01982 0.04955
 O1325 O 0.46755 0.00387 0.04517
 O1326 O 0.49681 -0.05202 0.02149
 O1327 O 0.52765 -0.03385 0.02753
 C1328 C 0.48047 0.01292 0.05573
 H1329 H 0.47146 -0.03760 -0.00178
 H1330 H 0.53840 -0.00410 0.00633
 H1331 H 0.47389 0.03432 0.02481
 H1332 H 0.49071 0.02246 -0.04480
 H1333 H 0.53692 -0.05545 -0.00449
 H1334 H 0.55598 0.00156 -0.03970
 H1335 H 0.54097 0.03403 -0.04827
 H1336 H 0.48407 0.07137 -0.02934
 H1337 H 0.50451 -0.06467 0.01905
 H1338 H 0.44634 -0.02675 0.03851
 H1339 H 0.43284 0.00680 0.03211
 H1340 H 0.45287 0.06464 -0.00393
 H1341 H 0.53315 -0.04782 0.02714
 H1342 H 0.53395 0.02156 0.05098
 H1343 H 0.45482 -0.01404 -0.06005
 H1344 H 0.45497 0.05540 -0.03573
 Zr1345 Zr 0.52427 0.51554 -0.02663
 O1346 O 0.54543 0.50315 -0.04629
 O1347 O 0.52288 0.54575 -0.03556
 O1348 O 0.51329 0.51574 -0.05513
 O1349 O 0.55837 0.52160 0.01010
 O1350 O 0.48305 0.49987 -0.05259
 O1351 O 0.55338 0.52712 -0.02189
 O1352 O 0.49864 0.55944 -0.01620
 O1353 O 0.49363 0.52198 -0.02378
 O1354 O 0.52070 0.53087 -0.00044
 O1355 O 0.50978 0.48728 -0.02759
 O1356 O 0.53604 0.49594 -0.00559
 Zr1357 Zr 0.48590 0.48938 0.02405
 Zr1358 Zr 0.47936 0.49378 -0.02319
 Zr1359 Zr 0.53076 0.51103 0.02059
 Zr1360 Zr 0.49019 0.53625 0.00287
 O1361 O 0.55434 0.49331 0.03191
 O1362 O 0.46377 0.54693 -0.01049
 O1363 O 0.50038 0.51773 0.02528
 O1364 O 0.47443 0.50891 0.00297
 O1365 O 0.48936 0.47381 -0.00208
 O1366 O 0.51646 0.48302 0.02099
 C1367 C 0.51165 0.56051 -0.02991
 C1368 C 0.56426 0.52753 -0.00662
 C1369 C 0.49709 0.50844 -0.06228
 O1370 O 0.45418 0.51066 -0.03225
 O1371 O 0.45321 0.47936 -0.01325
 O1372 O 0.45774 0.47582 0.01904
 C1373 C 0.44749 0.47344 0.00354
 O1374 O 0.54349 0.46282 -0.02557
 Zr1375 Zr 0.51999 0.46863 -0.00549
 O1376 O 0.48680 0.45903 0.03251
 O1377 O 0.47498 0.46694 -0.03938
 O1378 O 0.51006 0.44555 -0.02444
 O1379 O 0.54486 0.45597 0.00901
 O1380 O 0.50890 0.44465 0.01129
 C1381 C 0.49624 0.44373 0.02531
 O1382 O 0.46377 0.50152 0.04284
 O1383 O 0.53719 0.53863 0.03489
 O1384 O 0.49607 0.49083 0.05284
 O1385 O 0.52541 0.50825 0.05019
 O1386 O 0.50085 0.56068 0.01984
 O1387 O 0.46935 0.54329 0.02521
 C1388 C 0.51155 0.49959 0.06007
 H1389 H 0.52830 0.54370 0.00013
 H1390 H 0.46003 0.51171 0.00520
 H1391 H 0.52164 0.47443 0.03149
 H1392 H 0.51223 0.48037 -0.04006
 H1393 H 0.46335 0.56186 -0.00887
 H1394 H 0.44705 0.50211 -0.04171
 H1395 H 0.46250 0.46885 -0.04677
 H1396 H 0.51688 0.43279 -0.02078
 H1397 H 0.49363 0.57308 0.01578
 H1398 H 0.54954 0.53636 0.04239
 H1399 H 0.56148 0.50200 0.04125
 H1400 H 0.54473 0.44115 0.00660
 H1401 H 0.46413 0.55722 0.02340
 H1402 H 0.45943 0.49037 0.05143
 H1403 H 0.54988 0.51435 -0.05477
 H1404 H 0.54673 0.44815 -0.02567
 Zr1405 Zr 0.01657 1.01529 0.48044
 O1406 O 0.03721 1.00216 0.46070
 O1407 O 0.01569 1.04542 0.47114
 O1408 O 0.00520 1.01460 0.45197
 O1409 O 0.05160 1.02091 0.51648
 O1410 O -0.02563 1.00034 0.45580
 O1411 O 0.04602 1.02636 0.48457
 O1412 O -0.00706 1.06025 0.49142
 O1413 O -0.01378 1.02283 0.48393
 O1414 O 0.01406 1.03095 0.50660
 O1415 O 0.00120 0.98749 0.48034
 O1416 O 0.02820 0.99555 0.50152
 Zr1417 Zr -0.02148 0.99094 0.53243
 Zr1418 Zr -0.02886 0.99512 0.48530
 Zr1419 Zr 0.02401 1.01107 0.52764
 Zr1420 Zr -0.01614 1.03741 0.51057
 O1421 O 0.04734 0.99266 0.53843
 O1422 O -0.04235 1.04896 0.49748
 O1423 O -0.00604 1.01881 0.53296
 O1424 O -0.03278 1.01063 0.51138
 O1425 O -0.01907 0.97505 0.50639
 O1426 O 0.00882 0.98357 0.52878
 C1427 C 0.00550 1.06074 0.47730
 C1428 C 0.05721 1.02671 0.49964
 C1429 C -0.01140 1.00753 0.44538
 O1430 O -0.05354 1.01289 0.47649
 O1431 O -0.05526 0.98188 0.49582
 O1432 O -0.05007 0.97788 0.52798
 C1433 C -0.06072 0.97594 0.51265
 O1434 O 0.03421 0.96185 0.48203
 Zr1435 Zr 0.01128 0.96877 0.50242
 O1436 O -0.02113 0.96078 0.54149
 O1437 O -0.03469 0.96819 0.46968
 O1438 O 0.00037 0.94582 0.48383
 O1439 O 0.03592 0.95546 0.51675
 O1440 O -0.00063 0.94536 0.51947
 C1441 C -0.01276 0.94505 0.53394
 O1442 O -0.04294 1.00396 0.55140
 O1443 O 0.03163 1.03853 0.54162
 O1444 O -0.01061 0.99265 0.56099
 O1445 O 0.01933 1.00882 0.55738
 O1446 O -0.00441 1.06147 0.52732
 O1447 O -0.03641 1.04531 0.53314
 C1448 C 0.00539 1.00092 0.56771
 H1449 H 0.02205 1.04354 0.50694
 H1450 H -0.04704 1.01393 0.51386
 H1451 H 0.01397 0.97495 0.53928
 H1452 H 0.00313 0.98023 0.46797
 H1453 H -0.04221 1.06390 0.49901
 H1454 H -0.06124 1.00450 0.46732
 H1455 H -0.04723 0.97048 0.46247
 H1456 H 0.00686 0.93289 0.48751
 H1457 H -0.01131 1.07411 0.52340
 H1458 H 0.04410 1.03594 0.54884
 H1459 H 0.05497 1.00115 0.54757
 H1460 H 0.03512 0.94061 0.51470
 H1461 H -0.04125 1.05937 0.53129
 H1462 H -0.04741 0.99305 0.56019
 H1463 H 0.04174 1.01312 0.45199
 H1464 H 0.03716 0.94713 0.48229
 Zr1465 Zr 0.73624 0.25880 0.22406
 O1466 O 0.74844 0.27770 0.20246
 O1467 O 0.70639 0.25659 0.21561
 O1468 O 0.73609 0.24436 0.19665
 O1469 O 0.73062 0.29776 0.25722
 O1470 O 0.74987 0.21342 0.20271
 O1471 O 0.72456 0.28870 0.22608
 O1472 O 0.69253 0.23546 0.23783
 O1473 O 0.72933 0.22855 0.23022
 O1474 O 0.72141 0.25883 0.25067
 O1475 O 0.76388 0.24344 0.22438
 O1476 O 0.75599 0.27287 0.24356
 Zr1477 Zr 0.76208 0.22586 0.27830
 Zr1478 Zr 0.75690 0.21365 0.23201
 Zr1479 Zr 0.74135 0.27120 0.27028
 Zr1480 Zr 0.71559 0.22875 0.25726
 O1481 O 0.75952 0.29585 0.27866
 O1482 O 0.70449 0.20074 0.24683
 O1483 O 0.73435 0.24136 0.27816
 O1484 O 0.74232 0.21225 0.25871
 O1485 O 0.77708 0.22574 0.25172
 O1486 O 0.76877 0.25612 0.27204
 C1487 C 0.69162 0.24665 0.22275
 C1488 C 0.72412 0.30150 0.24021
 C1489 C 0.74213 0.22654 0.19132
 O1490 O 0.73993 0.18739 0.22601
 O1491 O 0.77070 0.18830 0.24423
 O1492 O 0.77503 0.19643 0.27585
 C1493 C 0.77665 0.18422 0.26132
 O1494 O 0.78854 0.27718 0.22289
 Zr1495 Zr 0.78267 0.25600 0.24515
 O1496 O 0.79211 0.22755 0.28649
 O1497 O 0.78302 0.20666 0.21583
 O1498 O 0.80505 0.24335 0.22684
 O1499 O 0.79581 0.28231 0.25721
 O1500 O 0.80643 0.24578 0.26229
 C1501 C 0.80732 0.23516 0.27774
 O1502 O 0.75037 0.20585 0.29924
 O1503 O 0.71449 0.28038 0.28424
 O1504 O 0.75986 0.23939 0.30608
 O1505 O 0.74384 0.26934 0.30020
 O1506 O 0.69196 0.24228 0.27340
 O1507 O 0.70863 0.21078 0.28170
 C1508 C 0.75128 0.25605 0.31159
 H1509 H 0.70881 0.26678 0.25067
 H1510 H 0.73933 0.19810 0.26241
 H1511 H 0.77735 0.26240 0.28195
 H1512 H 0.77059 0.24407 0.21165
 H1513 H 0.68977 0.20088 0.24871
 H1514 H 0.74807 0.17886 0.21712
 H1515 H 0.78080 0.19324 0.20974
 H1516 H 0.81777 0.25043 0.22958
 H1517 H 0.67953 0.23482 0.27034
 H1518 H 0.71708 0.29369 0.29040
 H1519 H 0.75123 0.30449 0.28731
 H1520 H 0.81042 0.28142 0.25475
 H1521 H 0.69479 0.20562 0.28062
 H1522 H 0.76146 0.20244 0.30808
 H1523 H 0.73737 0.28131 0.19368
 H1524 H 0.80300 0.28039 0.22256
 Zr1525 Zr 0.76931 0.72777 0.72246
 O1526 O 0.75919 0.70869 0.70002
 O1527 O 0.80019 0.72794 0.71757
 O1528 O 0.77374 0.74120 0.69499
 O1529 O 0.76899 0.69033 0.75702
 O1530 O 0.76259 0.77367 0.69956
 O1531 O 0.77904 0.69727 0.72635
 O1532 O 0.81213 0.74865 0.74114
 O1533 O 0.77699 0.75785 0.72893
 O1534 O 0.78018 0.72801 0.75061
 O1535 O 0.74283 0.74481 0.71930
 O1536 O 0.74617 0.71554 0.73969
 Zr1537 Zr 0.73809 0.76403 0.77271
 Zr1538 Zr 0.75031 0.77447 0.72732
 Zr1539 Zr 0.75696 0.71747 0.76787
 Zr1540 Zr 0.78684 0.75792 0.75730
 O1541 O 0.73684 0.69346 0.77337
 O1542 O 0.80096 0.78463 0.74730
 O1543 O 0.76464 0.74704 0.77614
 O1544 O 0.76111 0.77601 0.75542
 O1545 O 0.72695 0.76404 0.74465
 O1546 O 0.73050 0.73407 0.76607
 C1547 C 0.81446 0.73692 0.72642
 C1548 C 0.77747 0.68534 0.74101
 C1549 C 0.77046 0.75951 0.68921
 O1550 O 0.76879 0.80019 0.72386
 O1551 O 0.73467 0.80034 0.73706
 O1552 O 0.72667 0.79364 0.76830
 C1553 C 0.72645 0.80509 0.75329
 O1554 O 0.71662 0.71266 0.71517
 Zr1555 Zr 0.72054 0.73400 0.73781
 O1556 O 0.70715 0.76416 0.77738
 O1557 O 0.72785 0.78185 0.70719
 O1558 O 0.70173 0.74764 0.71707
 O1559 O 0.70435 0.70873 0.74832
 O1560 O 0.69516 0.74576 0.75218
 C1561 C 0.69280 0.75692 0.76727
 O1562 O 0.74787 0.78429 0.79436
 O1563 O 0.78068 0.70831 0.78592
 O1564 O 0.73568 0.75149 0.80074
 O1565 O 0.74838 0.71955 0.79681
 O1566 O 0.80720 0.74406 0.77650
 O1567 O 0.79126 0.77659 0.78189
 C1568 C 0.74059 0.73380 0.80711
 H1569 H 0.79221 0.71943 0.75234
 H1570 H 0.76416 0.79014 0.75922
 H1571 H 0.72016 0.72854 0.77485
 H1572 H 0.73800 0.74416 0.70589
 H1573 H 0.81526 0.78375 0.75086
 H1574 H 0.76252 0.80875 0.71387
 H1575 H 0.73155 0.79507 0.70149
 H1576 H 0.68830 0.74147 0.71839
 H1577 H 0.82030 0.75086 0.77486
 H1578 H 0.77677 0.69518 0.79168
 H1579 H 0.74316 0.68471 0.78318
 H1580 H 0.69030 0.71034 0.74411
 H1581 H 0.80528 0.78137 0.78204
 H1582 H 0.73585 0.78856 0.80185
 H1583 H 0.77120 0.70421 0.69263
 H1584 H 0.70215 0.71053 0.71302
 Zr1585 Zr 0.24041 0.22669 0.77891
 O1586 O 0.25291 0.20491 0.79762
 O1587 O 0.21136 0.22968 0.78997
 O1588 O 0.24231 0.23836 0.80730
 O1589 O 0.22904 0.19274 0.74263
 O1590 O 0.25995 0.26770 0.80366
 O1591 O 0.22707 0.19782 0.77505
 O1592 O 0.19854 0.25595 0.77265
 O1593 O 0.23570 0.25802 0.77655
 O1594 O 0.22368 0.23110 0.75398
 O1595 O 0.26910 0.23969 0.77776
 O1596 O 0.25752 0.21352 0.75639
 Zr1597 Zr 0.26482 0.26365 0.72633
 Zr1598 Zr 0.26417 0.27077 0.77387
 Zr1599 Zr 0.24111 0.21961 0.73148
 Zr1600 Zr 0.21997 0.26222 0.75112
 O1601 O 0.25619 0.19429 0.71931
 O1602 O 0.21205 0.29006 0.76461
 O1603 O 0.23598 0.25068 0.72730
 O1604 O 0.24777 0.27648 0.74893
 O1605 O 0.28175 0.25945 0.75124
 O1606 O 0.26947 0.23240 0.72895
 C1607 C 0.19755 0.24258 0.78605
 C1608 C 0.22430 0.18703 0.75974
 C1609 C 0.25093 0.25436 0.81395
 O1610 O 0.24967 0.29720 0.78443
 O1611 O 0.27863 0.29652 0.76293
 O1612 O 0.28012 0.29146 0.73044
 C1613 C 0.28362 0.30192 0.74580
 O1614 O 0.29115 0.20412 0.77361
 Zr1615 Zr 0.28531 0.22821 0.75423
 O1616 O 0.29388 0.26061 0.71527
 O1617 O 0.29207 0.27374 0.78776
 O1618 O 0.30979 0.23692 0.77159
 O1619 O 0.29542 0.20240 0.73858
 O1620 O 0.30844 0.23835 0.73595
 C1621 C 0.30899 0.25070 0.72168
 O1622 O 0.25287 0.28664 0.70859
 O1623 O 0.21271 0.21515 0.71891
 O1624 O 0.26060 0.25326 0.69767
 O1625 O 0.24263 0.22424 0.70173
 O1626 O 0.19378 0.25251 0.73678
 O1627 O 0.21267 0.28303 0.72898
 C1628 C 0.25095 0.23778 0.69114
 H1629 H 0.21054 0.22424 0.75442
 H1630 H 0.24564 0.29118 0.74692
 H1631 H 0.27689 0.22655 0.71784
 H1632 H 0.27658 0.23693 0.78971
 H1633 H 0.19729 0.29139 0.76408
 H1634 H 0.25921 0.30403 0.79314
 H1635 H 0.29144 0.28647 0.79538
 H1636 H 0.32175 0.22937 0.76693
 H1637 H 0.18246 0.26073 0.74188
 H1638 H 0.21353 0.20239 0.71137
 H1639 H 0.24659 0.18753 0.71060
 H1640 H 0.31019 0.20185 0.73975
 H1641 H 0.19931 0.28903 0.73160
 H1642 H 0.26347 0.29030 0.69917
 H1643 H 0.24226 0.20114 0.80695
 H1644 H 0.30536 0.19995 0.77247
 Zr1645 Zr 0.26924 0.77365 0.28019
 O1646 O 0.26010 0.79080 0.30456
 O1647 O 0.30030 0.77338 0.28310
 O1648 O 0.27504 0.75815 0.30628
 O1649 O 0.26710 0.81418 0.24877
 O1650 O 0.26399 0.72611 0.30011
 O1651 O 0.27860 0.80424 0.27807
 O1652 O 0.31143 0.75473 0.25744
 O1653 O 0.27689 0.74421 0.27117
 O1654 O 0.27881 0.77580 0.25156
 O1655 O 0.24304 0.75645 0.28365
 O1656 O 0.24528 0.78734 0.26537
 Zr1657 Zr 0.23602 0.74161 0.22939
 Zr1658 Zr 0.25038 0.72753 0.27313
 Zr1659 Zr 0.25478 0.78782 0.23657
 Zr1660 Zr 0.28538 0.74651 0.24233
 O1661 O 0.23416 0.81208 0.23404
 O1662 O 0.30013 0.71914 0.24972
 O1663 O 0.26225 0.75895 0.22573
 O1664 O 0.25987 0.72825 0.24439
 O1665 O 0.22625 0.73940 0.25797
 O1666 O 0.22854 0.77099 0.23861
 C1667 C 0.31429 0.76542 0.27272
 C1668 C 0.27627 0.81754 0.26468
 C1669 C 0.27209 0.73948 0.31102
 O1670 O 0.26896 0.70148 0.27328
 O1671 O 0.23375 0.70289 0.26274
 O1672 O 0.22476 0.71172 0.23234
 C1673 C 0.22477 0.69942 0.24676
 O1674 O 0.21691 0.78829 0.29158
 Zr1675 Zr 0.21987 0.76876 0.26731
 O1676 O 0.20490 0.74150 0.22671
 O1677 O 0.22923 0.71851 0.29421
 O1678 O 0.20217 0.75352 0.28812
 O1679 O 0.20300 0.79473 0.25954
 O1680 O 0.19391 0.75804 0.25372
 C1681 C 0.19101 0.74783 0.23817
 O1682 O 0.24510 0.72323 0.20582
 O1683 O 0.27755 0.79864 0.21797
 O1684 O 0.23205 0.75646 0.20257
 O1685 O 0.24501 0.78789 0.20808
 O1686 O 0.30467 0.76178 0.22290
 O1687 O 0.28876 0.72976 0.21631
 C1688 C 0.23671 0.77459 0.19722
 H1689 H 0.29065 0.78455 0.24974
 H1690 H 0.26277 0.71445 0.23940
 H1691 H 0.21776 0.77715 0.23087
 H1692 H 0.23885 0.75603 0.29733
 H1693 H 0.31425 0.72033 0.24543
 H1694 H 0.26329 0.69217 0.28303
 H1695 H 0.23327 0.70483 0.29862
 H1696 H 0.18867 0.75981 0.28808
 H1697 H 0.31787 0.75487 0.22324
 H1698 H 0.27316 0.81215 0.21337
 H1699 H 0.23992 0.82163 0.22455
 H1700 H 0.18919 0.79278 0.26445
 H1701 H 0.30274 0.72487 0.21510
 H1702 H 0.23282 0.71946 0.19876
 H1703 H 0.27240 0.79473 0.31152
 H1704 H 0.20255 0.79029 0.29469
 Zr1705 Zr 0.23568 0.76129 0.72448
 O1706 O 0.24587 0.77888 0.70100
 O1707 O 0.20506 0.75939 0.71910
 O1708 O 0.23284 0.74554 0.69786
 O1709 O 0.23366 0.80190 0.75619
 O1710 O 0.24617 0.71451 0.70435
 O1711 O 0.22464 0.79147 0.72615
 O1712 O 0.19289 0.74036 0.74381
 O1713 O 0.22879 0.73159 0.73276
 O1714 O 0.22371 0.76308 0.75235
 O1715 O 0.26293 0.74527 0.72299
 O1716 O 0.25764 0.77589 0.74125
 Zr1717 Zr 0.26629 0.73062 0.77759
 Zr1718 Zr 0.25617 0.71613 0.73275
 Zr1719 Zr 0.24582 0.77599 0.76927
 Zr1720 Zr 0.21791 0.73358 0.76094
 O1721 O 0.26494 0.80101 0.77385
 O1722 O 0.20514 0.70552 0.75266
 O1723 O 0.23899 0.74684 0.77934
 O1724 O 0.24435 0.71646 0.76069
 O1725 O 0.27850 0.72876 0.74979
 O1726 O 0.27294 0.76029 0.76913
 C1727 C 0.19075 0.75072 0.72831
 C1728 C 0.22557 0.80491 0.73970
 C1729 C 0.23800 0.72731 0.69293
 O1730 O 0.23827 0.68990 0.73003
 O1731 O 0.27142 0.69147 0.74467
 O1732 O 0.27863 0.70089 0.77540
 C1733 C 0.27916 0.68812 0.76123
 O1734 O 0.28817 0.77792 0.71721
 Zr1735 Zr 0.28403 0.75843 0.74116
 O1736 O 0.29705 0.73202 0.78279
 O1737 O 0.28012 0.70758 0.71427
 O1738 O 0.30424 0.74390 0.72180
 O1739 O 0.29866 0.78524 0.75028
 O1740 O 0.30923 0.74902 0.75677
 C1741 C 0.31146 0.73915 0.77253
 O1742 O 0.25629 0.71204 0.80044
 O1743 O 0.22095 0.78593 0.78592
 O1744 O 0.26736 0.74571 0.80467
 O1745 O 0.25287 0.77634 0.79854
 O1746 O 0.19641 0.74832 0.77881
 O1747 O 0.21320 0.71686 0.78663
 C1748 C 0.26106 0.76349 0.80991
 H1749 H 0.21132 0.77132 0.75325
 H1750 H 0.24157 0.70257 0.76533
 H1751 H 0.28269 0.76694 0.77773
 H1752 H 0.26836 0.74505 0.70970
 H1753 H 0.19069 0.70615 0.75591
 H1754 H 0.24529 0.68071 0.72087
 H1755 H 0.27705 0.69386 0.70924
 H1756 H 0.31735 0.75075 0.72295
 H1757 H 0.18359 0.74097 0.77743
 H1758 H 0.22425 0.79959 0.79094
 H1759 H 0.25784 0.81031 0.78285
 H1760 H 0.31297 0.78388 0.74661
 H1761 H 0.19929 0.71176 0.78698
 H1762 H 0.26815 0.70883 0.80840
 H1763 H 0.23399 0.78224 0.69314
 H1764 H 0.30263 0.78058 0.71534
 Zr1765 Zr 0.26005 0.24166 0.22850
 O1766 O 0.25033 0.22279 0.20573
 O1767 O 0.29052 0.24461 0.22215
 O1768 O 0.26159 0.25644 0.20128
 O1769 O 0.26374 0.20256 0.26133
 O1770 O 0.24751 0.28735 0.20762
 O1771 O 0.27181 0.21164 0.23065
 O1772 O 0.30230 0.26468 0.24629
 O1773 O 0.26634 0.27178 0.23614
 O1774 O 0.27220 0.24106 0.25616
 O1775 O 0.23246 0.25716 0.22745
 O1776 O 0.23845 0.22723 0.24607
 Zr1777 Zr 0.22908 0.27341 0.28178
 Zr1778 Zr 0.23871 0.28677 0.23651
 Zr1779 Zr 0.25041 0.22830 0.27384
 Zr1780 Zr 0.27740 0.27091 0.26414
 O1781 O 0.23210 0.20267 0.27856
 O1782 O 0.28944 0.29917 0.25553
 O1783 O 0.25671 0.25783 0.28330
 O1784 O 0.25067 0.28747 0.26420
 O1785 O 0.21671 0.27423 0.25422
 O1786 O 0.22295 0.24340 0.27394
 C1787 C 0.30458 0.25419 0.23077
 C1788 C 0.27173 0.19892 0.24478
 C1789 C 0.25532 0.27417 0.19610
 O1790 O 0.25663 0.31274 0.23221
 O1791 O 0.22411 0.31208 0.24857
 O1792 O 0.21634 0.30287 0.27933
 C1793 C 0.21622 0.31555 0.26520
 O1794 O 0.20799 0.22360 0.22291
 Zr1795 Zr 0.21170 0.24418 0.24622
 O1796 O 0.19831 0.27185 0.28739
 O1797 O 0.21394 0.29460 0.21924
 O1798 O 0.19125 0.25747 0.22675
 O1799 O 0.19741 0.21759 0.25634
 O1800 O 0.18633 0.25399 0.26184
 C1801 C 0.18397 0.26443 0.27739
 O1802 O 0.23882 0.29265 0.30426
 O1803 O 0.27533 0.21995 0.29071
 O1804 O 0.22802 0.25889 0.30904
 O1805 O 0.24254 0.22806 0.30302
 O1806 O 0.29950 0.25694 0.28143
 O1807 O 0.28197 0.28812 0.28965
 C1808 C 0.23401 0.24108 0.31421
 H1809 H 0.28483 0.23323 0.25690
 H1810 H 0.25331 0.30151 0.26857
 H1811 H 0.21326 0.23683 0.28275
 H1812 H 0.22677 0.25679 0.21435
 H1813 H 0.30392 0.29896 0.25848
 H1814 H 0.24929 0.32166 0.22323
 H1815 H 0.21667 0.30822 0.21386
 H1816 H 0.17828 0.25039 0.22826
 H1817 H 0.31212 0.26454 0.27961
 H1818 H 0.27251 0.20630 0.29595
 H1819 H 0.23929 0.19382 0.28772
 H1820 H 0.18309 0.21861 0.25283
 H1821 H 0.29583 0.29339 0.28972
 H1822 H 0.22690 0.29592 0.31232
 H1823 H 0.26226 0.21956 0.19767
 H1824 H 0.19359 0.22057 0.22134
 Zr1825 Zr 0.73586 0.72607 0.27809
 O1826 O 0.74643 0.70395 0.29755
 O1827 O 0.70621 0.72987 0.28738
 O1828 O 0.73643 0.73750 0.30666
 O1829 O 0.72622 0.69238 0.24105
 O1830 O 0.75485 0.76646 0.30406
 O1831 O 0.72234 0.69746 0.27334
 O1832 O 0.69428 0.75471 0.26776
 O1833 O 0.73209 0.75750 0.27559
 O1834 O 0.72098 0.73090 0.25215
 O1835 O 0.76492 0.73820 0.27863
 O1836 O 0.75399 0.71250 0.25652
 Zr1837 Zr 0.76450 0.76248 0.22718
 Zr1838 Zr 0.76109 0.76940 0.27460
 Zr1839 Zr 0.73945 0.71904 0.23064
 Zr1840 Zr 0.71818 0.76212 0.24921
 O1841 O 0.75474 0.69348 0.21918
 O1842 O 0.70968 0.78919 0.26374
 O1843 O 0.73538 0.75026 0.22633
 O1844 O 0.74643 0.77568 0.24880
 O1845 O 0.77975 0.75767 0.25298
 O1846 O 0.76818 0.73110 0.22987
 C1847 C 0.69229 0.74170 0.28137
 C1848 C 0.72040 0.68671 0.25788
 C1849 C 0.74507 0.75326 0.31383
 O1850 O 0.74688 0.79645 0.28399
 O1851 O 0.77786 0.79419 0.26470
 O1852 O 0.78003 0.78996 0.23219
 C1853 C 0.78374 0.79979 0.24787
 O1854 O 0.78634 0.70224 0.27582
 Zr1855 Zr 0.78225 0.72634 0.25602
 O1856 O 0.79409 0.75865 0.21789
 O1857 O 0.78783 0.77144 0.29059
 O1858 O 0.80593 0.73472 0.27451
 O1859 O 0.79235 0.69999 0.24120
 O1860 O 0.80658 0.73521 0.23862
 C1861 C 0.80837 0.74772 0.22457
 O1862 O 0.75429 0.78580 0.20884
 O1863 O 0.71180 0.71511 0.21646
 O1864 O 0.76197 0.75234 0.19830
 O1865 O 0.74281 0.72392 0.20100
 O1866 O 0.69361 0.75372 0.23182
 O1867 O 0.71308 0.78435 0.22774
 C1868 C 0.75226 0.73727 0.19107
 H1869 H 0.70776 0.72423 0.25158
 H1870 H 0.74490 0.79046 0.24684
 H1871 H 0.77607 0.72505 0.21917
 H1872 H 0.77156 0.73520 0.29097
 H1873 H 0.69502 0.79084 0.26226
 H1874 H 0.75599 0.80294 0.29334
 H1875 H 0.78713 0.78428 0.29804
 H1876 H 0.81794 0.72685 0.27051
 H1877 H 0.68193 0.76200 0.23597
 H1878 H 0.71288 0.70237 0.20890
 H1879 H 0.74559 0.68702 0.20986
 H1880 H 0.80699 0.69889 0.24320
 H1881 H 0.69985 0.79080 0.22994
 H1882 H 0.76553 0.78921 0.20004
 H1883 H 0.73506 0.70042 0.30615
 H1884 H 0.80056 0.69794 0.27568
 Zr1885 Zr 0.76752 0.26248 0.77144
 O1886 O 0.75789 0.28097 0.79476
 O1887 O 0.79849 0.26174 0.77537
 O1888 O 0.77175 0.24834 0.79840
 O1889 O 0.76726 0.30182 0.73861
 O1890 O 0.76042 0.21614 0.79352
 O1891 O 0.77751 0.29272 0.76858
 O1892 O 0.81015 0.24194 0.75070
 O1893 O 0.77531 0.23269 0.76370
 O1894 O 0.77800 0.26352 0.74305
 O1895 O 0.74113 0.24557 0.77477
 O1896 O 0.74414 0.27582 0.75556
 Zr1897 Zr 0.73567 0.22894 0.72097
 Zr1898 Zr 0.74868 0.21621 0.76556
 Zr1899 Zr 0.75456 0.27528 0.72703
 Zr1900 Zr 0.78456 0.23388 0.73497
 O1901 O 0.73437 0.29977 0.72358
 O1902 O 0.79879 0.20649 0.74318
 O1903 O 0.76209 0.24595 0.71735
 O1904 O 0.75894 0.21592 0.73702
 O1905 O 0.72503 0.22764 0.74932
 O1906 O 0.72815 0.25866 0.72898
 C1907 C 0.81265 0.25306 0.76573
 C1908 C 0.77602 0.30554 0.75468
 C1909 C 0.76802 0.23014 0.80410
 O1910 O 0.76787 0.19076 0.76792
 O1911 O 0.73381 0.19051 0.75488
 O1912 O 0.72403 0.19938 0.72467
 C1913 C 0.72483 0.18692 0.73892
 O1914 O 0.71512 0.27777 0.78103
 Zr1915 Zr 0.71856 0.25741 0.75743
 O1916 O 0.70470 0.22907 0.71715
 O1917 O 0.72613 0.20761 0.78541
 O1918 O 0.69999 0.24317 0.77819
 O1919 O 0.70206 0.28315 0.74839
 O1920 O 0.69296 0.24629 0.74343
 C1921 C 0.69046 0.23576 0.72801
 O1922 O 0.74529 0.20963 0.69828
 O1923 O 0.77780 0.28497 0.70840
 O1924 O 0.73256 0.24283 0.69364
 O1925 O 0.74505 0.27465 0.69839
 O1926 O 0.80482 0.24838 0.71590
 O1927 O 0.78833 0.21654 0.70933
 C1928 C 0.73707 0.26085 0.68788
 H1929 H 0.79005 0.27199 0.74131
 H1930 H 0.76196 0.20197 0.73251
 H1931 H 0.71760 0.26460 0.72079
 H1932 H 0.73637 0.24574 0.78828
 H1933 H 0.81302 0.20739 0.73915
 H1934 H 0.76176 0.18169 0.77764
 H1935 H 0.73007 0.19421 0.79057
 H1936 H 0.68659 0.24962 0.77754
 H1937 H 0.81782 0.24116 0.71672
 H1938 H 0.77375 0.29839 0.70335
 H1939 H 0.74043 0.30894 0.71394
 H1940 H 0.68810 0.28142 0.75300
 H1941 H 0.80227 0.21143 0.70852
 H1942 H 0.73319 0.20569 0.69101
 H1943 H 0.76999 0.28498 0.80201
 H1944 H 0.70070 0.28013 0.78362
 C1945 C 0.45872 0.99058 0.36000
 C1946 C 0.43839 0.98524 0.35744
 C1947 C 0.42889 0.98893 0.33987
 C1948 C 0.43910 0.99830 0.32463
 C1949 C 0.45934 1.00330 0.32701
 C1950 C 0.46905 0.99952 0.34444
 C1951 C 0.46793 0.98725 0.37944
 C1952 C 0.48799 0.99208 0.38381
 C1953 C 0.49507 0.99061 0.40272
 C1954 C 0.48229 0.98434 0.41759
 C1955 C 0.46283 0.97818 0.41312
 C1956 C 0.45558 0.97957 0.39433
 C1957 C 0.42742 0.97668 0.37256
 C1958 C 0.43578 0.97405 0.39063
 H1959 H 0.41192 0.97247 0.37054
 H1960 H 0.42644 0.96795 0.40202
 H1961 H 0.41340 0.98456 0.33810
 H1962 H 0.46758 1.01058 0.31551
 H1963 H 0.51015 0.99548 0.40591
 H1964 H 0.45295 0.97312 0.42458
 H1965 H 0.48450 1.00401 0.34557
 H1966 H 0.49821 0.99760 0.37296
 C1967 C -0.02999 0.50051 0.85531
 C1968 C -0.03542 0.48147 0.84763
 C1969 C -0.04624 0.48034 0.83036
 C1970 C -0.05190 0.49800 0.82024
 C1971 C -0.04557 0.51682 0.82773
 C1972 C -0.03489 0.51806 0.84488
 C1973 C -0.01981 0.50116 0.87451
 C1974 C -0.01540 0.51945 0.88409
 C1975 C -0.00796 0.51932 0.90277
 C1976 C -0.00422 0.50103 0.91227
 C1977 C -0.00738 0.48267 0.90255
 C1978 C -0.01552 0.48261 0.88389
 C1979 C -0.03022 0.46364 0.85735
 C1980 C -0.02039 0.46419 0.87500
 H1981 H -0.03412 0.44899 0.85138
 H1982 H -0.01708 0.44997 0.88207
 H1983 H -0.04978 0.46548 0.82470
 H1984 H -0.04972 0.53097 0.82105
 H1985 H -0.00574 0.53364 0.91013
 H1986 H -0.00491 0.46849 0.91002
 H1987 H -0.03093 0.53300 0.84985
 H1988 H -0.01835 0.53404 0.87778
 C1989 C 0.03683 -0.00166 0.86371
 C1990 C 0.04863 -0.01888 0.85884
 C1991 C 0.05869 -0.01993 0.84106
 C1992 C 0.05741 -0.00401 0.82786
 C1993 C 0.04527 0.01281 0.83240
 C1994 C 0.03512 0.01402 0.85009
 C1995 C 0.02740 -0.00066 0.88343
 C1996 C 0.01585 0.01599 0.89018
 C1997 C 0.00903 0.01684 0.90933
 C1998 C 0.01360 0.00114 0.92211
 C1999 C 0.02396 -0.01597 0.91515
 C2000 C 0.03095 -0.01694 0.89614
 C2001 C 0.05076 -0.03480 0.87188
 C2002 C 0.04213 -0.03385 0.89013
 H2003 H 0.05963 -0.04805 0.86808
 H2004 H 0.04466 -0.04637 0.89987
 H2005 H 0.06773 -0.03316 0.83755
 H2006 H 0.04408 0.02535 0.82247
 H2007 H 0.00105 0.03019 0.91439
 H2008 H 0.02730 -0.02833 0.92486
 H2009 H 0.02633 0.02746 0.85295
 H2010 H 0.01244 0.02871 0.88107
 C2011 C 0.53335 0.49321 0.35715
 C2012 C 0.54582 0.47643 0.35243
 C2013 C 0.55640 0.47590 0.33493
 C2014 C 0.55502 0.49194 0.32187
 C2015 C 0.54225 0.50832 0.32624
 C2016 C 0.53156 0.50899 0.34365
 C2017 C 0.52335 0.49369 0.37662
 C2018 C 0.51106 0.50987 0.38319
 C2019 C 0.50370 0.51030 0.40217
 C2020 C 0.50847 0.49467 0.41493
 C2021 C 0.51959 0.47799 0.40813
 C2022 C 0.52710 0.47741 0.38929
 C2023 C 0.54809 0.46044 0.36538
 C2024 C 0.53896 0.46094 0.38342
 H2025 H 0.55747 0.44752 0.36170
 H2026 H 0.54162 0.44840 0.39311
 H2027 H 0.56595 0.46301 0.33153
 H2028 H 0.54096 0.52093 0.31641
 H2029 H 0.49512 0.52331 0.40713
 H2030 H 0.52308 0.46567 0.41785
 H2031 H 0.52228 0.52213 0.34641
 H2032 H 0.50747 0.52255 0.37409
 C2033 C 0.53658 0.49720 0.13937
 C2034 C 0.54656 0.51465 0.14632
 C2035 C 0.55635 0.51420 0.16411
 C2036 C 0.55693 0.49639 0.17502
 C2037 C 0.54684 0.47918 0.16827
 C2038 C 0.53671 0.47956 0.15074
 C2039 C 0.52736 0.49801 0.11974
 C2040 C 0.51694 0.48162 0.11137
 C2041 C 0.51051 0.48252 0.09224
 C2042 C 0.51440 0.49971 0.08110
 C2043 C 0.52350 0.51655 0.08970
 C2044 C 0.52992 0.51587 0.10881
 C2045 C 0.54745 0.53223 0.13516
 C2046 C 0.53949 0.53276 0.11674
 H2047 H 0.55500 0.54560 0.14051
 H2048 H 0.54118 0.54651 0.10842
 H2049 H 0.56435 0.52749 0.16903
 H2050 H 0.54690 0.46530 0.17653
 H2051 H 0.50346 0.46937 0.08587
 H2052 H 0.52627 0.53002 0.08120
 H2053 H 0.52951 0.46579 0.14616
 H2054 H 0.51410 0.46782 0.11917
 C2055 C 0.03300 0.99937 0.64620
 C2056 C 0.04359 1.01672 0.65252
 C2057 C 0.05404 1.01635 0.66995
 C2058 C 0.05468 0.99873 0.68113
 C2059 C 0.04401 0.98162 0.67500
 C2060 C 0.03323 0.98193 0.65783
 C2061 C 0.02305 1.00006 0.62688
 C2062 C 0.01203 0.98374 0.61912
 C2063 C 0.00495 0.98445 0.60020
 C2064 C 0.00877 1.00137 0.58867
 C2065 C 0.01846 1.01817 0.59672
 C2066 C 0.02555 1.01768 0.61561
 C2067 C 0.04439 1.03409 0.64107
 C2068 C 0.03573 1.03449 0.62294
 H2069 H 0.05241 1.04738 0.64594
 H2070 H 0.03738 1.04807 0.61436
 H2071 H 0.06249 1.02955 0.67438
 H2072 H 0.04411 0.96789 0.68347
 H2073 H -0.00254 0.97133 0.59424
 H2074 H 0.02119 1.03143 0.58792
 H2075 H 0.02557 0.96824 0.65372
 H2076 H 0.00922 0.97013 0.62723
 C2077 C -0.03886 0.51100 0.63567
 C2078 C -0.05832 0.51838 0.64003
 C2079 C -0.06705 0.51470 0.65807
 C2080 C -0.05704 0.50319 0.67196
 C2081 C -0.03759 0.49618 0.66783
 C2082 C -0.02858 0.50004 0.64994
 C2083 C -0.03063 0.51436 0.61572
 C2084 C -0.01143 0.50775 0.60965
 C2085 C -0.00549 0.50933 0.59030
 C2086 C -0.01858 0.51747 0.57672
 C2087 C -0.03706 0.52534 0.58285
 C2088 C -0.04313 0.52394 0.60212
 C2089 C -0.06933 0.52884 0.62618
 C2090 C -0.06199 0.53137 0.60758
 H2091 H -0.08418 0.53458 0.62958
 H2092 H -0.07141 0.53894 0.59719
 H2093 H -0.08188 0.52063 0.66122
 H2094 H -0.02952 0.48723 0.67825
 H2095 H 0.00882 0.50310 0.58577
 H2096 H -0.04715 0.53176 0.57233
 H2097 H -0.01379 0.49393 0.64739
 H2098 H -0.00109 0.50077 0.61948
 C2099 C 0.45393 0.01340 0.13557
 C2100 C 0.43295 0.01221 0.13847
 C2101 C 0.42498 0.00990 0.15703
 C2102 C 0.43748 0.00886 0.17307
 C2103 C 0.45824 0.01052 0.17035
 C2104 C 0.46642 0.01264 0.15183
 C2105 C 0.46175 0.01506 0.11525
 C2106 C 0.48234 0.01570 0.11041
 C2107 C 0.48868 0.01593 0.09108
 C2108 C 0.47462 0.01549 0.07622
 C2109 C 0.45417 0.01587 0.08100
 C2110 C 0.44768 0.01548 0.10016
 C2111 C 0.41993 0.01324 0.12286
 C2112 C 0.42713 0.01490 0.10414
 H2113 H 0.40388 0.01253 0.12514
 H2114 H 0.41641 0.01536 0.09253
 H2115 H 0.40889 0.00911 0.15905
 H2116 H 0.46817 0.00986 0.18257
 H2117 H 0.50454 0.01566 0.08775
 H2118 H 0.44313 0.01591 0.06964
 H2119 H 0.48248 0.01360 0.15052
 H2120 H 0.49374 0.01555 0.12131
 C2121 C 0.37110 0.43096 0.00586
 C2122 C 0.35764 0.43490 -0.00935
 C2123 C 0.33925 0.42462 -0.01030
 C2124 C 0.33415 0.40994 0.00342
 C2125 C 0.34756 0.40597 0.01839
 C2126 C 0.36571 0.41636 0.01969
 C2127 C 0.39068 0.44218 0.00621
 C2128 C 0.40483 0.44005 0.02105
 C2129 C 0.42305 0.45046 0.02039
 C2130 C 0.42776 0.46314 0.00486
 C2131 C 0.41358 0.46565 -0.00978
 C2132 C 0.39514 0.45549 -0.00913
 C2133 C 0.36279 0.44873 -0.02376
 C2134 C 0.38118 0.45863 -0.02376
 H2135 H 0.35254 0.45173 -0.03543
 H2136 H 0.38453 0.46894 -0.03543
 H2137 H 0.32914 0.42760 -0.02208
 H2138 H 0.34394 0.39480 0.02923
 H2139 H 0.43366 0.44826 0.03190
 H2140 H 0.41685 0.47562 -0.02174
 H2141 H 0.37541 0.41255 0.03147
 H2142 H 0.40213 0.43040 0.03327
 C2143 C -0.13615 0.93223 0.51084
 C2144 C -0.15025 0.93854 0.49693
 C2145 C -0.16813 0.92767 0.49434
 C2146 C -0.17200 0.91009 0.50498
 C2147 C -0.15794 0.90375 0.51862
 C2148 C -0.14032 0.91468 0.52161
 C2149 C -0.11709 0.94413 0.51291
 C2150 C -0.10238 0.93975 0.52680
 C2151 C -0.08439 0.95064 0.52733
 C2152 C -0.08059 0.96602 0.51395
 C2153 C -0.09550 0.97100 0.50063
 C2154 C -0.11365 0.96038 0.50011
 C2155 C -0.14621 0.95533 0.48530
 C2156 C -0.12822 0.96583 0.48669
 H2157 H -0.15694 0.96015 0.47464
 H2158 H -0.12566 0.97843 0.47703
 H2159 H -0.17876 0.93253 0.48359
 H2160 H -0.16064 0.89030 0.52712
 H2161 H -0.07315 0.94652 0.53777
 H2162 H -0.09286 0.98310 0.49042
 H2163 H -0.13005 0.90898 0.53220
 H2164 H -0.10438 0.92785 0.53722
 C2165 C -0.13499 0.07100 0.99201
 C2166 C -0.14654 0.07181 1.00916
 C2167 C -0.16565 0.08090 1.00932
 C2168 C -0.17375 0.08971 0.99261
 C2169 C -0.16215 0.08845 0.97553
 C2170 C -0.14323 0.07928 0.97523
 C2171 C -0.11445 0.06149 0.99261
 C2172 C -0.10161 0.05990 0.97641
 C2173 C -0.08260 0.05095 0.97787
 C2174 C -0.07581 0.04341 0.99552
 C2175 C -0.08854 0.04500 1.01169
 C2176 C -0.10762 0.05385 1.01038
 C2177 C -0.13884 0.06382 1.02622
 C2178 C -0.11985 0.05507 1.02681
 H2179 H -0.14762 0.06443 1.03939
 H2180 H -0.11462 0.04919 1.04042
 H2181 H -0.17359 0.08195 1.02291
 H2182 H -0.16780 0.09398 0.96200
 H2183 H -0.07318 0.05000 0.96515
 H2184 H -0.08368 0.03920 1.02546
 H2185 H -0.13530 0.07886 0.96166
 H2186 H -0.10596 0.06546 0.96249
 C2187 C 0.35881 0.56514 0.48679
 C2188 C 0.34724 0.56461 0.50396
 C2189 C 0.32919 0.57554 0.50542
 C2190 C 0.32220 0.58715 0.49000
 C2191 C 0.33348 0.58740 0.47285
 C2192 C 0.35155 0.57661 0.47124
 C2193 C 0.37836 0.55361 0.48613
 C2194 C 0.39142 0.55337 0.47002
 C2195 C 0.40977 0.54288 0.47056
 C2196 C 0.41553 0.53236 0.48714
 C2197 C 0.40234 0.53220 0.50301
 C2198 C 0.38407 0.54271 0.50269
 C2199 C 0.35375 0.55327 0.51969
 C2200 C 0.37171 0.54255 0.51905
 H2201 H 0.34486 0.55279 0.53279
 H2202 H 0.37611 0.53414 0.53170
 H2203 H 0.32047 0.57492 0.51862
 H2204 H 0.32853 0.59634 0.46074
 H2205 H 0.41961 0.54335 0.45811
 H2206 H 0.40638 0.52407 0.51593
 H2207 H 0.35965 0.57754 0.45779
 H2208 H 0.38787 0.56139 0.45700
 C2209 C 0.12834 0.57369 0.49784
 C2210 C 0.13347 0.58534 0.48146
 C2211 C 0.15199 0.59535 0.48052
 C2212 C 0.16598 0.59327 0.49532
 C2213 C 0.16125 0.58106 0.51116
 C2214 C 0.14263 0.57150 0.51251
 C2215 C 0.10808 0.56384 0.49854
 C2216 C 0.10064 0.55365 0.51489
 C2217 C 0.08176 0.54452 0.51467
 C2218 C 0.06995 0.54503 0.49809
 C2219 C 0.07707 0.55549 0.48189
 C2220 C 0.09575 0.56519 0.48213
 C2221 C 0.12024 0.58664 0.46599
 C2222 C 0.10200 0.57646 0.46615
 H2223 H 0.12422 0.59539 0.45338
 H2224 H 0.09247 0.57768 0.45366
 H2225 H 0.15573 0.60449 0.46809
 H2226 H 0.17188 0.57922 0.52271
 H2227 H 0.07654 0.53670 0.52741
 H2228 H 0.06787 0.55637 0.46914
 H2229 H 0.13979 0.56233 0.52504
 H2230 H 0.10911 0.55270 0.52800
 C2231 C 0.62877 0.07400 0.00546
 C2232 C 0.63942 0.07490 -0.01223
 C2233 C 0.65814 0.08444 -0.01328
 C2234 C 0.66677 0.09326 0.00306
 C2235 C 0.65642 0.09206 0.02069
 C2236 C 0.63766 0.08261 0.02191
 C2237 C 0.60854 0.06389 0.00571
 C2238 C 0.59628 0.06237 0.02232
 C2239 C 0.57753 0.05278 0.02157
 C2240 C 0.57054 0.04444 0.00426
 C2241 C 0.58271 0.04602 -0.01227
 C2242 C 0.60139 0.05558 -0.01171
 C2243 C 0.63137 0.06634 -0.02889
 C2244 C 0.61282 0.05685 -0.02862
 H2245 H 0.63954 0.06699 -0.04240
 H2246 H 0.60730 0.05047 -0.04195
 H2247 H 0.66611 0.08489 -0.02691
 H2248 H 0.66264 0.09883 0.03353
 H2249 H 0.56853 0.05189 0.03456
 H2250 H 0.57768 0.03978 -0.02584
 H2251 H 0.63033 0.08230 0.03578
 H2252 H 0.60090 0.06852 0.03598
 C2253 C 0.63468 0.92602 0.49040
 C2254 C 0.64602 0.92741 0.50750
 C2255 C 0.66444 0.91717 0.50903
 C2256 C 0.67204 0.90539 0.49375
 C2257 C 0.66090 0.90419 0.47671
 C2258 C 0.64249 0.91431 0.47503
 C2259 C 0.61486 0.93705 0.48958
 C2260 C 0.60207 0.93658 0.47347
 C2261 C 0.58360 0.94690 0.47376
 C2262 C 0.57741 0.95795 0.49008
 C2263 C 0.59025 0.95863 0.50602
 C2264 C 0.60866 0.94834 0.50593
 C2265 C 0.63896 0.93899 0.52306
 C2266 C 0.62073 0.94922 0.52229
 H2267 H 0.64764 0.94011 0.53612
 H2268 H 0.61595 0.95791 0.53479
 H2269 H 0.67300 0.91856 0.52214
 H2270 H 0.66627 0.89510 0.46472
 H2271 H 0.57407 0.94601 0.46126
 H2272 H 0.58588 0.96711 0.51879
 H2273 H 0.63457 0.91271 0.46166
 H2274 H 0.60600 0.92823 0.46060
 C2275 C 0.13914 0.42756 0.98833
 C2276 C 0.14896 0.42614 1.00627
 C2277 C 0.16747 0.41609 1.00768
 C2278 C 0.17664 0.40713 0.99150
 C2279 C 0.16701 0.40870 0.97365
 C2280 C 0.14853 0.41874 0.97206
 C2281 C 0.11923 0.43844 0.98763
 C2282 C 0.10795 0.44087 0.97066
 C2283 C 0.08958 0.45137 0.97095
 C2284 C 0.08195 0.45970 0.98817
 C2285 C 0.09308 0.45710 1.00508
 C2286 C 0.11143 0.44672 1.00496
 C2287 C 0.14030 0.43471 1.02281
 C2288 C 0.12197 0.44475 1.02217
 H2289 H 0.14781 0.43363 1.03653
 H2290 H 0.11596 0.45111 1.03542
 H2291 H 0.17485 0.41540 1.02149
 H2292 H 0.17359 0.40180 0.96092
 H2293 H 0.08140 0.45306 0.95767
 H2294 H 0.08755 0.46334 1.01858
 H2295 H 0.14179 0.41935 0.95803
 H2296 H 0.11311 0.43483 0.95704
 C2297 C -0.02625 0.36274 0.44393
 C2298 C -0.03438 0.36049 0.42532
 C2299 C -0.03450 0.34136 0.41646
 C2300 C -0.02643 0.32450 0.42589
 C2301 C -0.02001 0.32646 0.44492
 C2302 C -0.02005 0.34532 0.45393
 C2303 C -0.02374 0.38365 0.45180
 C2304 C -0.01355 0.38751 0.46906
 C2305 C -0.01045 0.40728 0.47528
 C2306 C -0.01751 0.42375 0.46459
 C2307 C -0.02792 0.42011 0.44748
 C2308 C -0.03079 0.40023 0.44087
 C2309 C -0.04151 0.37743 0.41538
 C2310 C -0.04001 0.39688 0.42313
 H2311 H -0.04803 0.37566 0.40125
 H2312 H -0.04549 0.40956 0.41478
 H2313 H -0.03958 0.33987 0.40175
 H2314 H -0.01423 0.31346 0.45258
 H2315 H -0.00249 0.40962 0.48862
 H2316 H -0.03334 0.43275 0.43904
 H2317 H -0.01462 0.34594 0.46848
 H2318 H -0.00747 0.37557 0.47780
 C2319 C 0.48563 -0.13789 -0.06066
 C2320 C 0.47562 -0.14001 -0.07842
 C2321 C 0.47601 -0.15865 -0.08815
 C2322 C 0.48651 -0.17515 -0.08053
 C2323 C 0.49537 -0.17339 -0.06244
 C2324 C 0.49485 -0.15504 -0.05251
 C2325 C 0.48667 -0.11731 -0.05171
 C2326 C 0.49759 -0.11340 -0.03488
 C2327 C 0.49899 -0.09381 -0.02759
 C2328 C 0.48951 -0.07757 -0.03682
 C2329 C 0.47836 -0.08133 -0.05346
 C2330 C 0.47702 -0.10099 -0.06104
 C2331 C 0.46594 -0.12338 -0.08669
 C2332 C 0.46651 -0.10428 -0.07810
 H2333 H 0.45810 -0.12507 -0.10019
 H2334 H 0.45903 -0.09179 -0.08519
 H2335 H 0.46915 -0.15999 -0.10217
 H2336 H 0.50318 -0.18616 -0.05618
 H2337 H 0.50761 -0.09141 -0.01466
 H2338 H 0.47096 -0.06892 -0.06074
 H2339 H 0.50216 -0.15457 -0.03877
 H2340 H 0.50541 -0.12513 -0.02722
 C2341 C 0.01114 -0.12836 1.07765
 C2342 C 0.00056 -0.14509 1.07006
 C2343 C 0.00139 -0.16387 1.07926
 C2344 C 0.01259 -0.16632 1.09602
 C2345 C 0.02306 -0.14982 1.10358
 C2346 C 0.02242 -0.13104 1.09451
 C2347 C 0.00980 -0.10855 1.06741
 C2348 C 0.01979 -0.09102 1.07374
 C2349 C 0.01816 -0.07294 1.06360
 C2350 C 0.00652 -0.07186 1.04694
 C2351 C -0.00359 -0.08919 1.04060
 C2352 C -0.00201 -0.10745 1.05063
 C2353 C -0.01087 -0.14301 1.05341
 C2354 C -0.01213 -0.12456 1.04389
 H2355 H -0.01897 -0.15584 1.04764
 H2356 H -0.02116 -0.12369 1.03104
 H2357 H -0.00702 -0.17655 1.07355
 H2358 H 0.03191 -0.15149 1.11647
 H2359 H 0.02608 -0.05977 1.06888
 H2360 H -0.01260 -0.08858 1.02771
 H2361 H 0.03082 -0.11892 1.10097
 H2362 H 0.02897 -0.09087 1.08641
 C2363 C 0.51696 0.36008 0.56204
 C2364 C 0.52847 0.36012 0.57904
 C2365 C 0.53137 0.34204 0.58920
 C2366 C 0.52292 0.32389 0.58263
 C2367 C 0.51256 0.32372 0.56519
 C2368 C 0.50970 0.34152 0.55494
 C2369 C 0.51261 0.37985 0.55257
 C2370 C 0.49983 0.38152 0.53665
 C2371 C 0.49592 0.40030 0.52847
 C2372 C 0.50464 0.41794 0.53590
 C2373 C 0.51725 0.41649 0.55190
 C2374 C 0.52114 0.39765 0.56036
 C2375 C 0.53661 0.37822 0.58599
 C2376 C 0.53321 0.39658 0.57670
 H2377 H 0.54562 0.37823 0.59888
 H2378 H 0.53977 0.41022 0.58266
 H2379 H 0.53974 0.34218 0.60250
 H2380 H 0.50579 0.30993 0.55985
 H2381 H 0.48611 0.40092 0.51616
 H2382 H 0.52401 0.43002 0.55786
 H2383 H 0.50139 0.34040 0.54177
 H2384 H 0.49251 0.36860 0.53035
 C2385 C 0.49030 1.13679 0.55912
 C2386 C 0.50377 1.15169 0.55232
 C2387 C 0.50515 1.17039 0.56183
 C2388 C 0.49342 1.17447 0.57821
 C2389 C 0.47966 1.15996 0.58457
 C2390 C 0.47803 1.14139 0.57514
 C2391 C 0.49016 1.11657 0.54933
 C2392 C 0.47787 1.10053 0.55548
 C2393 C 0.47903 1.08164 0.54654
 C2394 C 0.49238 1.07822 0.53118
 C2395 C 0.50430 1.09426 0.52460
 C2396 C 0.50338 1.11329 0.53360
 C2397 C 0.51610 1.14767 0.53637
 C2398 C 0.51589 1.12887 0.52718
 H2399 H 0.52632 1.15913 0.53110
 H2400 H 0.52594 1.12638 0.51507
 H2401 H 0.51560 1.18170 0.55665
 H2402 H 0.47057 1.16269 0.59730
 H2403 H 0.46951 1.06961 0.55185
 H2404 H 0.51466 1.09185 0.51271
 H2405 H 0.46737 1.13078 0.58092
 H2406 H 0.46744 1.10209 0.56730
 C2407 C 0.00810 0.64521 1.05724
 C2408 C 0.02646 0.65226 1.06464
 C2409 C 0.02681 0.66979 1.07609
 C2410 C 0.00914 0.68081 1.07975
 C2411 C -0.00865 0.67472 1.07088
 C2412 C -0.00922 0.65712 1.05983
 C2413 C 0.00787 0.62526 1.04710
 C2414 C -0.01005 0.61537 1.04229
 C2415 C -0.00958 0.59634 1.03361
 C2416 C 0.00871 0.58697 1.02921
 C2417 C 0.02666 0.59663 1.03382
 C2418 C 0.02636 0.61542 1.04329
 C2419 C 0.04426 0.64170 1.06066
 C2420 C 0.04427 0.62393 1.04974
 H2421 H 0.05840 0.64731 1.06601
 H2422 H 0.05841 0.61632 1.04695
 H2423 H 0.04073 0.67440 1.08264
 H2424 H -0.02229 0.68347 1.07268
 H2425 H -0.02357 0.58893 1.03021
 H2426 H 0.04080 0.58907 1.03080
 H2427 H -0.02334 0.65311 1.05346
 H2428 H -0.02456 0.62178 1.04561
 C2429 C 0.51981 0.63833 -0.06730
 C2430 C 0.50477 0.65292 -0.06317
 C2431 C 0.50498 0.67165 -0.07247
 C2432 C 0.52004 0.67627 -0.08587
 C2433 C 0.53528 0.66209 -0.08956
 C2434 C 0.53523 0.64334 -0.08038
 C2435 C 0.51840 0.61811 -0.05778
 C2436 C 0.53204 0.60220 -0.06151
 C2437 C 0.52981 0.58349 -0.05253
 C2438 C 0.51396 0.58020 -0.03958
 C2439 C 0.50034 0.59596 -0.03575
 C2440 C 0.50236 0.61473 -0.04477
 C2441 C 0.48938 0.64867 -0.05007
 C2442 C 0.48826 0.63000 -0.04097
 H2443 H 0.47794 0.65993 -0.04686
 H2444 H 0.47600 0.62738 -0.03098
 H2445 H 0.49294 0.68238 -0.06974
 H2446 H 0.54720 0.66547 -0.09969
 H2447 H 0.54059 0.57160 -0.05569
 H2448 H 0.48795 0.59359 -0.02585
 H2449 H 0.54728 0.63300 -0.08386
 H2450 H 0.54447 0.60379 -0.07137
 C2451 C 0.01678 1.13881 0.44106
 C2452 C 0.00542 1.15513 0.44867
 C2453 C 0.00563 1.17398 0.43956
 C2454 C 0.01687 1.17710 0.42259
 C2455 C 0.02904 1.16104 0.41580
 C2456 C 0.02904 1.14224 0.42488
 C2457 C 0.01476 1.11847 0.45029
 C2458 C 0.02453 1.10095 0.44320
 C2459 C 0.02151 1.08221 0.45192
 C2460 C 0.00868 1.08047 0.46789
 C2461 C -0.00094 1.09786 0.47513
 C2462 C 0.00191 1.11670 0.46646
 C2463 C -0.00669 1.15245 0.46497
 C2464 C -0.00833 1.13365 0.47375
 H2465 H -0.01528 1.16502 0.47089
 H2466 H -0.01808 1.13227 0.48621
 H2467 H -0.00436 1.18560 0.44511
 H2468 H 0.03888 1.16288 0.40350
 H2469 H 0.02919 1.06904 0.44606
 H2470 H -0.01083 1.09679 0.48752
 H2471 H 0.03858 1.13059 0.41883
 H2472 H 0.03439 1.10131 0.43085
 C2473 C 0.74152 0.70621 0.88596
 C2474 C 0.73738 0.68536 0.88860
 C2475 C 0.73990 0.67638 0.90664
 C2476 C 0.74639 0.68772 0.92251
 C2477 C 0.75065 0.70837 0.91994
 C2478 C 0.74825 0.71753 0.90192
 C2479 C 0.73909 0.71496 0.86613
 C2480 C 0.74297 0.73546 0.86157
 C2481 C 0.74211 0.74223 0.84245
 C2482 C 0.73737 0.72870 0.82758
 C2483 C 0.73224 0.70872 0.83219
 C2484 C 0.73317 0.70175 0.85113
 C2485 C 0.73094 0.67340 0.87320
 C2486 C 0.72891 0.68140 0.85488
 H2487 H 0.72768 0.65747 0.87528
 H2488 H 0.72426 0.67138 0.84336
 H2489 H 0.73703 0.66030 0.90823
 H2490 H 0.75557 0.71753 0.93196
 H2491 H 0.74620 0.75771 0.83918
 H2492 H 0.72835 0.69824 0.82075
 H2493 H 0.75173 0.73344 0.90075
 H2494 H 0.74726 0.74628 0.87245
 C2495 C 0.23499 0.20385 0.38890
 C2496 C 0.24330 0.21478 0.40445
 C2497 C 0.24619 0.20518 0.42234
 C2498 C 0.24125 0.18461 0.42481
 C2499 C 0.23381 0.17376 0.40902
 C2500 C 0.23064 0.18316 0.39142
 C2501 C 0.23201 0.21449 0.37012
 C2502 C 0.22298 0.20504 0.35423
 C2503 C 0.22248 0.21461 0.33646
 C2504 C 0.23055 0.23399 0.33403
 C2505 C 0.23811 0.24435 0.35008
 C2506 C 0.23891 0.23466 0.36815
 C2507 C 0.24894 0.23506 0.40189
 C2508 C 0.24708 0.24468 0.38408
 H2509 H 0.25536 0.24350 0.41373
 H2510 H 0.25222 0.26017 0.38274
 H2511 H 0.25208 0.21376 0.43433
 H2512 H 0.23051 0.15775 0.41020
 H2513 H 0.21643 0.20646 0.32426
 H2514 H 0.24442 0.25933 0.34825
 H2515 H 0.22507 0.17381 0.37991
 H2516 H 0.21666 0.19006 0.35504
 C2517 C 0.74365 0.28577 0.38978
 C2518 C 0.76012 0.28328 0.40224
 C2519 C 0.76019 0.29315 0.42030
 C2520 C 0.74432 0.30606 0.42577
 C2521 C 0.72798 0.30823 0.41349
 C2522 C 0.72752 0.29817 0.39583
 C2523 C 0.74455 0.27601 0.37025
 C2524 C 0.72889 0.27776 0.35697
 C2525 C 0.73112 0.27036 0.33833
 C2526 C 0.74884 0.26070 0.33232
 C2527 C 0.76409 0.25748 0.34577
 C2528 C 0.76210 0.26525 0.36469
 C2529 C 0.77667 0.27161 0.39627
 C2530 C 0.77770 0.26293 0.37787
 H2531 H 0.78929 0.26962 0.40578
 H2532 H 0.79108 0.25456 0.37380
 H2533 H 0.77297 0.29158 0.42969
 H2534 H 0.71554 0.31800 0.41750
 H2535 H 0.71896 0.27264 0.32832
 H2536 H 0.77780 0.24993 0.34126
 H2537 H 0.71460 0.30079 0.38701
 H2538 H 0.71493 0.28519 0.36047
 C2539 C 0.25973 0.79197 0.88942
 C2540 C 0.25484 0.81274 0.89201
 C2541 C 0.25208 0.82081 0.91052
 C2542 C 0.25430 0.80868 0.92684
 C2543 C 0.25973 0.78824 0.92444
 C2544 C 0.26230 0.77990 0.90596
 C2545 C 0.26171 0.78390 0.86916
 C2546 C 0.26567 0.76333 0.86463
 C2547 C 0.26621 0.75659 0.84540
 C2548 C 0.26289 0.77021 0.83029
 C2549 C 0.25980 0.79079 0.83477
 C2550 C 0.25895 0.79763 0.85383
 C2551 C 0.25264 0.82546 0.87613
 C2552 C 0.25476 0.81810 0.85748
 H2553 H 0.24909 0.84139 0.87815
 H2554 H 0.25272 0.82857 0.84568
 H2555 H 0.24835 0.83674 0.91227
 H2556 H 0.26164 0.77863 0.93689
 H2557 H 0.26866 0.74064 0.84240
 H2558 H 0.25747 0.80164 0.82332
 H2559 H 0.26623 0.76406 0.90489
 H2560 H 0.26793 0.75220 0.87572
 C2561 C 0.23597 0.80618 0.12005
 C2562 C 0.23705 0.79265 0.10431
 C2563 C 0.23924 0.80022 0.08543
 C2564 C 0.24133 0.82129 0.08191
 C2565 C 0.24163 0.83425 0.09819
 C2566 C 0.23881 0.82692 0.11672
 C2567 C 0.23320 0.79780 0.13986
 C2568 C 0.22972 0.81033 0.15594
 C2569 C 0.22954 0.80226 0.17435
 C2570 C 0.23263 0.78146 0.17736
 C2571 C 0.23408 0.76846 0.16130
 C2572 C 0.23423 0.77657 0.14250
 C2573 C 0.23652 0.77166 0.10764
 C2574 C 0.23572 0.76380 0.12634
 H2575 H 0.23750 0.76113 0.09566
 H2576 H 0.23617 0.74750 0.12816
 H2577 H 0.23893 0.78945 0.07369
 H2578 H 0.24483 0.85022 0.09709
 H2579 H 0.22766 0.81256 0.18643
 H2580 H 0.23609 0.75231 0.16342
 H2581 H 0.23959 0.83777 0.12836
 H2582 H 0.22743 0.82647 0.15465
 C2583 C 0.73331 0.29636 0.61258
 C2584 C 0.74423 0.28689 0.59751
 C2585 C 0.74650 0.29668 0.57961
 C2586 C 0.73814 0.31609 0.57634
 C2587 C 0.72765 0.32538 0.59179
 C2588 C 0.72522 0.31573 0.60942
 C2589 C 0.73161 0.28577 0.63159
 C2590 C 0.72103 0.29412 0.64737
 C2591 C 0.72177 0.28496 0.66536
 C2592 C 0.73261 0.26702 0.66805
 C2593 C 0.74195 0.25763 0.65219
 C2594 C 0.74165 0.26700 0.63397
 C2595 C 0.75306 0.26783 0.60051
 C2596 C 0.75194 0.25819 0.61837
 H2597 H 0.76138 0.26044 0.58900
 H2598 H 0.75950 0.24375 0.62006
 H2599 H 0.75437 0.28872 0.56818
 H2600 H 0.72187 0.34066 0.59085
 H2601 H 0.71449 0.29240 0.67748
 H2602 H 0.75054 0.24384 0.65430
 H2603 H 0.71729 0.32403 0.62050
 H2604 H 0.71261 0.30804 0.64637
 C2605 C 0.24756 0.21286 0.61107
 C2606 C 0.23161 0.19969 0.60634
 C2607 C 0.23128 0.18983 0.58844
 C2608 C 0.24665 0.19272 0.57492
 C2609 C 0.26200 0.20643 0.57917
 C2610 C 0.26252 0.21637 0.59704
 C2611 C 0.24808 0.22175 0.63106
 C2612 C 0.26371 0.23422 0.63782
 C2613 C 0.26426 0.24049 0.65715
 C2614 C 0.24925 0.23448 0.67011
 C2615 C 0.23311 0.22311 0.66318
 C2616 C 0.23249 0.21660 0.64401
 C2617 C 0.21629 0.19595 0.61966
 C2618 C 0.21670 0.20425 0.63807
 H2619 H 0.20399 0.18606 0.61595
 H2620 H 0.20470 0.20048 0.64799
 H2621 H 0.21918 0.17952 0.58510
 H2622 H 0.27402 0.20890 0.56891
 H2623 H 0.27688 0.24926 0.66215
 H2624 H 0.22126 0.21860 0.67300
 H2625 H 0.27492 0.22638 0.59973
 H2626 H 0.27592 0.23875 0.62857
 C2627 C 0.75214 0.71382 0.11059
 C2628 C 0.73472 0.70385 0.10414
 C2629 C 0.73437 0.69462 0.08593
 C2630 C 0.75134 0.69446 0.07371
 C2631 C 0.76837 0.70518 0.07997
 C2632 C 0.76879 0.71463 0.09807
 C2633 C 0.75222 0.72232 0.13074
 C2634 C 0.76883 0.73228 0.13890
 C2635 C 0.76858 0.73828 0.15831
 C2636 C 0.75183 0.73437 0.16997
 C2637 C 0.73490 0.72553 0.16167
 C2638 C 0.73494 0.71952 0.14233
 C2639 C 0.71781 0.70260 0.11609
 C2640 C 0.71796 0.71015 0.13479
 H2641 H 0.70440 0.69512 0.11109
 H2642 H 0.70467 0.70825 0.14363
 H2643 H 0.72053 0.68772 0.08133
 H2644 H 0.78201 0.70540 0.07151
 H2645 H 0.78182 0.74509 0.16443
 H2646 H 0.72177 0.72273 0.17053
 H2647 H 0.78248 0.72201 0.10219
 H2648 H 0.78228 0.73512 0.13069
 C2649 C 0.17855 0.62442 0.24438
 C2650 C 0.17300 0.61610 0.26239
 C2651 C 0.16146 0.59832 0.26329
 C2652 C 0.15565 0.58808 0.24646
 C2653 C 0.16170 0.59612 0.22862
 C2654 C 0.17285 0.61403 0.22756
 C2655 C 0.19049 0.64377 0.24415
 C2656 C 0.19572 0.65419 0.22712
 C2657 C 0.20681 0.67222 0.22784
 C2658 C 0.21321 0.68019 0.24550
 C2659 C 0.20790 0.66993 0.26247
 C2660 C 0.19648 0.65212 0.26196
 C2661 C 0.17911 0.62545 0.27947
 C2662 C 0.19080 0.64288 0.27925
 H2663 H 0.17498 0.61905 0.29326
 H2664 H 0.19528 0.64937 0.29289
 H2665 H 0.15683 0.59262 0.27721
 H2666 H 0.15802 0.58845 0.21533
 H2667 H 0.21046 0.67989 0.21453
 H2668 H 0.21231 0.67605 0.27630
 H2669 H 0.17706 0.61936 0.21346
 H2670 H 0.19121 0.64878 0.21315
 C2671 C 0.67964 0.11187 0.74048
 C2672 C 0.68826 0.09527 0.75027
 C2673 C 0.67760 0.07703 0.75236
 C2674 C 0.65783 0.07508 0.74557
 C2675 C 0.64925 0.09201 0.73634
 C2676 C 0.65996 0.10996 0.73372
 C2677 C 0.69160 0.13102 0.73843
 C2678 C 0.68509 0.14788 0.72768
 C2679 C 0.69636 0.16572 0.72710
 C2680 C 0.71426 0.16728 0.73737
 C2681 C 0.72127 0.15030 0.74744
 C2682 C 0.71029 0.13218 0.74780
 C2683 C 0.70726 0.09715 0.75845
 C2684 C 0.71786 0.11530 0.75754
 H2685 H 0.71388 0.08453 0.76607
 H2686 H 0.73228 0.11610 0.76453
 H2687 H 0.68449 0.06478 0.76027
 H2688 H 0.63441 0.09132 0.73029
 H2689 H 0.69066 0.17860 0.71920
 H2690 H 0.73528 0.15125 0.75516
 H2691 H 0.65247 0.12224 0.72649
 H2692 H 0.67129 0.14764 0.71974
 C2693 C 0.81706 0.10615 0.26351
 C2694 C 0.83320 0.10384 0.27636
 C2695 C 0.84487 0.08598 0.27593
 C2696 C 0.84089 0.07036 0.26263
 C2697 C 0.82482 0.07280 0.24998
 C2698 C 0.81306 0.09032 0.25041
 C2699 C 0.80535 0.12564 0.26397
 C2700 C 0.78912 0.12929 0.25169
 C2701 C 0.77959 0.14808 0.25156
 C2702 C 0.78570 0.16383 0.26379
 C2703 C 0.80116 0.16010 0.27690
 C2704 C 0.81112 0.14115 0.27695
 C2705 C 0.83778 0.11950 0.28930
 C2706 C 0.82706 0.13776 0.28953
 H2707 H 0.85010 0.11775 0.29921
 H2708 H 0.83148 0.14950 0.29957
 H2709 H 0.85710 0.08428 0.28595
 H2710 H 0.82157 0.06131 0.23929
 H2711 H 0.76747 0.15040 0.24154
 H2712 H 0.80599 0.17216 0.28642
 H2713 H 0.80114 0.09124 0.24011
 H2714 H 0.78369 0.11800 0.24179
 C2715 C 0.32206 0.61087 0.76496
 C2716 C 0.32042 0.59820 0.74852
 C2717 C 0.33135 0.58001 0.74723
 C2718 C 0.34392 0.57386 0.76218
 C2719 C 0.34509 0.58604 0.77875
 C2720 C 0.33438 0.60435 0.78013
 C2721 C 0.31065 0.63066 0.76525
 C2722 C 0.31182 0.64506 0.78034
 C2723 C 0.30135 0.66358 0.77940
 C2724 C 0.28943 0.66815 0.76344
 C2725 C 0.28793 0.65364 0.74864
 C2726 C 0.29847 0.63527 0.74930
 C2727 C 0.30795 0.60371 0.73335
 C2728 C 0.29711 0.62174 0.73379
 H2729 H 0.30658 0.59394 0.72085
 H2730 H 0.28774 0.62532 0.72161
 H2731 H 0.33002 0.57052 0.73453
 H2732 H 0.35468 0.58163 0.79051
 H2733 H 0.30290 0.67446 0.79101
 H2734 H 0.27876 0.65675 0.73620
 H2735 H 0.33600 0.61322 0.79310
 H2736 H 0.32097 0.64243 0.79281
 C2737 C 0.32619 0.37867 0.74498
 C2738 C 0.31895 0.39396 0.75762
 C2739 C 0.32904 0.41256 0.75924
 C2740 C 0.34698 0.41623 0.74900
 C2741 C 0.35421 0.40069 0.73671
 C2742 C 0.34395 0.38237 0.73460
 C2743 C 0.31493 0.35898 0.74377
 C2744 C 0.32003 0.34315 0.73082
 C2745 C 0.30946 0.32481 0.73092
 C2746 C 0.29378 0.32175 0.74408
 C2747 C 0.28822 0.33763 0.75656
 C2748 C 0.29841 0.35618 0.75633
 C2749 C 0.30199 0.39042 0.76907
 C2750 C 0.29214 0.37186 0.76865
 H2751 H 0.29646 0.40206 0.77883
 H2752 H 0.27935 0.36977 0.77811
 H2753 H 0.32335 0.42366 0.76945
 H2754 H 0.36752 0.40280 0.72801
 H2755 H 0.31397 0.31277 0.72113
 H2756 H 0.27585 0.33551 0.76654
 H2757 H 0.35030 0.37121 0.72491
 H2758 H 0.33216 0.34462 0.72059
 C2759 C 0.82773 0.87613 0.24617
 C2760 C 0.83336 0.88425 0.26423
 C2761 C 0.84362 0.90277 0.26529
 C2762 C 0.84835 0.91372 0.24860
 C2763 C 0.84270 0.90568 0.23070
 C2764 C 0.83255 0.88718 0.22946
 C2765 C 0.81674 0.85622 0.24578
 C2766 C 0.81062 0.84653 0.22866
 C2767 C 0.80016 0.82813 0.22923
 C2768 C 0.79545 0.81894 0.24687
 C2769 C 0.80178 0.82840 0.26393
 C2770 C 0.81231 0.84676 0.26353
 C2771 C 0.82870 0.87390 0.28120
 C2772 C 0.81835 0.85563 0.28086
 H2773 H 0.83301 0.88009 0.29502
 H2774 H 0.81501 0.84833 0.29444
 H2775 H 0.84814 0.90857 0.27920
 H2776 H 0.84589 0.91385 0.21757
 H2777 H 0.79555 0.82122 0.21582
 H2778 H 0.79849 0.82149 0.27771
 H2779 H 0.82852 0.88186 0.21532
 H2780 H 0.81371 0.85293 0.21471
 C2781 C 0.68195 0.88150 0.75495
 C2782 C 0.68115 0.89245 0.73752
 C2783 C 0.66992 0.91052 0.73637
 C2784 C 0.65925 0.91833 0.75241
 C2785 C 0.66062 0.90739 0.76983
 C2786 C 0.67166 0.88939 0.77105
 C2787 C 0.69372 0.86198 0.75539
 C2788 C 0.69498 0.84951 0.77180
 C2789 C 0.70578 0.83125 0.77125
 C2790 C 0.71572 0.82493 0.75436
 C2791 C 0.71468 0.83740 0.73804
 C2792 C 0.70374 0.85564 0.73838
 C2793 C 0.69145 0.88527 0.72122
 C2794 C 0.70257 0.86735 0.72167
 H2795 H 0.69093 0.89364 0.70786
 H2796 H 0.71024 0.86249 0.70863
 H2797 H 0.66899 0.91785 0.72253
 H2798 H 0.65376 0.91290 0.78298
 H2799 H 0.70618 0.82197 0.78405
 H2800 H 0.72214 0.83279 0.72481
 H2801 H 0.67207 0.88198 0.78484
 H2802 H 0.68754 0.85345 0.78513
 C2803 C 0.17395 0.39278 0.26552
 C2804 C 0.18278 0.40858 0.25466
 C2805 C 0.17260 0.42708 0.25218
 C2806 C 0.15333 0.43006 0.25986
 C2807 C 0.14453 0.41435 0.27051
 C2808 C 0.15469 0.39601 0.27342
 C2809 C 0.18523 0.37305 0.26741
 C2810 C 0.17828 0.35650 0.27842
 C2811 C 0.18882 0.33803 0.27858
 C2812 C 0.20641 0.33562 0.26766
 C2813 C 0.21389 0.35230 0.25745
 C2814 C 0.20361 0.37089 0.25735
 C2815 C 0.20148 0.40566 0.24583
 C2816 C 0.21154 0.38717 0.24695
 H2817 H 0.20824 0.41771 0.23751
 H2818 H 0.22573 0.38554 0.23943
 H2819 H 0.17941 0.43897 0.24366
 H2820 H 0.12971 0.41630 0.27670
 H2821 H 0.18277 0.32538 0.28660
 H2822 H 0.22766 0.35068 0.24921
 H2823 H 0.14711 0.38446 0.28160
 H2824 H 0.16461 0.35743 0.28675
 C2825 C 0.12110 0.24039 0.82479
 C2826 C 0.11189 0.25927 0.82899
 C2827 C 0.09250 0.25991 0.83666
 C2828 C 0.08157 0.24203 0.83936
 C2829 C 0.09063 0.22333 0.83503
 C2830 C 0.11019 0.22247 0.82794
 C2831 C 0.14167 0.24041 0.81625
 C2832 C 0.15273 0.22250 0.81277
 C2833 C 0.17129 0.22328 0.80350
 C2834 C 0.17904 0.24187 0.79741
 C2835 C 0.16868 0.25983 0.80162
 C2836 C 0.15025 0.25927 0.81125
 C2837 C 0.12173 0.27743 0.82484
 C2838 C 0.14036 0.27743 0.81578
 H2839 H 0.11463 0.29188 0.82804
 H2840 H 0.14712 0.29187 0.81224
 H2841 H 0.08581 0.27446 0.84026
 H2842 H 0.08243 0.20931 0.83666
 H2843 H 0.17928 0.20927 0.80052
 H2844 H 0.17497 0.27427 0.79733
 H2845 H 0.11623 0.20770 0.82449
 H2846 H 0.14730 0.20778 0.81695
 C2847 C 0.61338 0.72962 0.31337
 C2848 C 0.61189 0.72532 0.33324
 C2849 C 0.59302 0.72450 0.34214
 C2850 C 0.57562 0.72760 0.33136
 C2851 C 0.57717 0.72984 0.31137
 C2852 C 0.59580 0.73081 0.30244
 C2853 C 0.63361 0.73300 0.30486
 C2854 C 0.63631 0.74058 0.28614
 C2855 C 0.65542 0.74384 0.27884
 C2856 C 0.67229 0.73947 0.28991
 C2857 C 0.66983 0.73226 0.30872
 C2858 C 0.65059 0.72948 0.31642
 C2859 C 0.62923 0.72228 0.34407
 C2860 C 0.64820 0.72382 0.33570
 H2861 H 0.62811 0.71864 0.35923
 H2862 H 0.66119 0.72124 0.34462
 H2863 H 0.59195 0.72248 0.35758
 H2864 H 0.56388 0.73144 0.30268
 H2865 H 0.65699 0.74943 0.26428
 H2866 H 0.68286 0.72923 0.31746
 H2867 H 0.59609 0.73276 0.28705
 H2868 H 0.62390 0.74440 0.27700
 C2869 C 0.61423 0.25494 0.18693
 C2870 C 0.59857 0.24275 0.19426
 C2871 C 0.57960 0.24354 0.18592
 C2872 C 0.57598 0.25630 0.17029
 C2873 C 0.59130 0.26876 0.16336
 C2874 C 0.61020 0.26816 0.17157
 C2875 C 0.63444 0.25311 0.19574
 C2876 C 0.65113 0.26405 0.18905
 C2877 C 0.66969 0.26177 0.19771
 C2878 C 0.67209 0.24854 0.21324
 C2879 C 0.65560 0.23745 0.21992
 C2880 C 0.63689 0.23959 0.21129
 C2881 C 0.60196 0.22967 0.20970
 C2882 C 0.62072 0.22819 0.21810
 H2883 H 0.58993 0.22040 0.21534
 H2884 H 0.62263 0.21785 0.23002
 H2885 H 0.56780 0.23376 0.19123
 H2886 H 0.58865 0.27897 0.15148
 H2887 H 0.68215 0.27054 0.19225
 H2888 H 0.65727 0.22711 0.23189
 H2889 H 0.62137 0.27807 0.16557
 H2890 H 0.65027 0.27442 0.17715
 C2891 C 0.11101 0.76221 0.69838
 C2892 C 0.10957 0.77136 0.68007
 C2893 C 0.09107 0.77251 0.67089
 C2894 C 0.07388 0.76458 0.67966
 C2895 C 0.07506 0.75678 0.69832
 C2896 C 0.09338 0.75565 0.70764
 C2897 C 0.13130 0.75933 0.70677
 C2898 C 0.13450 0.74876 0.72405
 C2899 C 0.15380 0.74582 0.73092
 C2900 C 0.17037 0.75336 0.72079
 C2901 C 0.16732 0.76392 0.70359
 C2902 C 0.14803 0.76679 0.69645
 C2903 C 0.12667 0.77872 0.67073
 C2904 C 0.14550 0.77666 0.67887
 H2905 H 0.12550 0.78594 0.65681
 H2906 H 0.15834 0.78243 0.67102
 H2907 H 0.09029 0.77853 0.65643
 H2908 H 0.06182 0.75105 0.70553
 H2909 H 0.15570 0.73764 0.74427
 H2910 H 0.18000 0.76979 0.69557
 H2911 H 0.09342 0.74924 0.72188
 H2912 H 0.12239 0.74243 0.73237
 C2913 C 0.89473 0.72462 0.69682
 C2914 C 0.89648 0.71621 0.67815
 C2915 C 0.91496 0.71639 0.66851
 C2916 C 0.93191 0.72525 0.67708
 C2917 C 0.93035 0.73157 0.69641
 C2918 C 0.91210 0.73123 0.70615
 C2919 C 0.87433 0.72693 0.70549
 C2920 C 0.87084 0.73740 0.72291
 C2921 C 0.85142 0.74052 0.72970
 C2922 C 0.83501 0.73322 0.71937
 C2923 C 0.83836 0.72238 0.70222
 C2924 C 0.85780 0.71947 0.69509
 C2925 C 0.87961 0.70853 0.66884
 C2926 C 0.86068 0.70988 0.67726
 H2927 H 0.88098 0.70176 0.65465
 H2928 H 0.84801 0.70406 0.66936
 H2929 H 0.91539 0.71129 0.65370
 H2930 H 0.94324 0.73694 0.70421
 H2931 H 0.84929 0.74883 0.74304
 H2932 H 0.82579 0.71670 0.69406
 H2933 H 0.91190 0.73659 0.72082
 H2934 H 0.88279 0.74375 0.73128
 C2935 C 0.38405 0.24802 0.19760
 C2936 C 0.38557 0.23971 0.17884
 C2937 C 0.40415 0.23879 0.16948
 C2938 C 0.42138 0.24600 0.17855
 C2939 C 0.42000 0.25362 0.19734
 C2940 C 0.40159 0.25459 0.20682
 C2941 C 0.36378 0.24971 0.20668
 C2942 C 0.36055 0.25871 0.22486
 C2943 C 0.34133 0.26023 0.23258
 C2944 C 0.32486 0.25279 0.22242
 C2945 C 0.32791 0.24383 0.20430
 C2946 C 0.34714 0.24236 0.19633
 C2947 C 0.36854 0.23265 0.16938
 C2948 C 0.34972 0.23383 0.17801
 H2949 H 0.36977 0.22620 0.15505
 H2950 H 0.33696 0.22821 0.17011
 H2951 H 0.40507 0.23309 0.15485
 H2952 H 0.43322 0.25896 0.20469
 H2953 H 0.33941 0.26719 0.24662
 H2954 H 0.31527 0.23815 0.19624
 H2955 H 0.40147 0.26067 0.22123
 H2956 H 0.37257 0.26478 0.23333
 C2957 C 0.39539 0.77712 0.29873
 C2958 C 0.41035 0.76482 0.29002
 C2959 C 0.42926 0.76330 0.29842
 C2960 C 0.43326 0.77330 0.31581
 C2961 C 0.41904 0.78684 0.32345
 C2962 C 0.40038 0.78891 0.31492
 C2963 C 0.37456 0.77583 0.29123
 C2964 C 0.35834 0.78600 0.30006
 C2965 C 0.33889 0.78269 0.29388
 C2966 C 0.33507 0.76926 0.27865
 C2967 C 0.35119 0.75974 0.26917
 C2968 C 0.37083 0.76276 0.27546
 C2969 C 0.40597 0.75312 0.27375
 C2970 C 0.38661 0.75217 0.26657
 H2971 H 0.41753 0.74395 0.26691
 H2972 H 0.38380 0.74237 0.25433
 H2973 H 0.44044 0.75324 0.29213
 H2974 H 0.42176 0.79482 0.33682
 H2975 H 0.32680 0.79057 0.30124
 H2976 H 0.34845 0.74947 0.25727
 H2977 H 0.38985 0.79904 0.32185
 H2978 H 0.36019 0.79622 0.31204
 C2979 C 0.89278 0.26414 0.79413
 C2980 C 0.90688 0.24870 0.78967
 C2981 C 0.92519 0.24805 0.79933
 C2982 C 0.92937 0.26241 0.81360
 C2983 C 0.91618 0.27862 0.81681
 C2984 C 0.89815 0.27964 0.80707
 C2985 C 0.87233 0.26261 0.78585
 C2986 C 0.85663 0.27577 0.79135
 C2987 C 0.83735 0.27266 0.78468
 C2988 C 0.83324 0.25649 0.77221
 C2989 C 0.84886 0.24368 0.76608
 C2990 C 0.86827 0.24640 0.77307
 C2991 C 0.90222 0.23350 0.77634
 C2992 C 0.88335 0.23251 0.76803
 H2993 H 0.91314 0.22188 0.77267
 H2994 H 0.88027 0.22019 0.75813
 H2995 H 0.93552 0.23558 0.79676
 H2996 H 0.91952 0.29012 0.82749
 H2997 H 0.82559 0.28293 0.78940
 H2998 H 0.84579 0.23111 0.75646
 H2999 H 0.88843 0.29227 0.81040
 H3000 H 0.85871 0.28825 0.80118
 C3001 C 0.54372 1.00930 0.63454
 C3002 C 0.56441 1.01344 0.63634
 C3003 C 0.57405 1.01055 0.65394
 C3004 C 0.56354 1.00361 0.67016
 C3005 C 0.54307 0.99931 0.66840
 C3006 C 0.53325 1.00211 0.65084
 C3007 C 0.53422 1.01213 0.61516
 C3008 C 0.51379 1.00832 0.61147
 C3009 C 0.50630 1.00933 0.59267
 C3010 C 0.51902 1.01419 0.57726
 C3011 C 0.53891 1.01942 0.58104
 C3012 C 0.54660 1.01831 0.59966
 C3013 C 0.57553 1.02024 0.62053
 C3014 C 0.56684 1.02256 0.60259
 H3015 H 0.59134 1.02350 0.62197
 H3016 H 0.57624 1.02743 0.59070
 H3017 H 0.58996 1.01347 0.65493
 H3018 H 0.53454 0.99408 0.68070
 H3019 H 0.49091 1.00515 0.59004
 H3020 H 0.54878 1.02338 0.56918
 H3021 H 0.51752 0.99857 0.65030
 H3022 H 0.50358 1.00390 0.62277
 C3023 C 0.04687 0.51860 1.13357
 C3024 C 0.06781 0.51893 1.13621
 C3025 C 0.07597 0.51674 1.15462
 C3026 C 0.06382 0.51386 1.17117
 C3027 C 0.04282 0.51404 1.16828
 C3028 C 0.03456 0.51630 1.14991
 C3029 C 0.03893 0.52025 1.11338
 C3030 C 0.01833 0.51983 1.10884
 C3031 C 0.01200 0.51989 1.08959
 C3032 C 0.02608 0.52030 1.07453
 C3033 C 0.04644 0.52186 1.07900
 C3034 C 0.05293 0.52177 1.09809
 C3035 C 0.08072 0.52128 1.12041
 C3036 C 0.07345 0.52258 1.10179
 H3037 H 0.09678 0.52170 1.12243
 H3038 H 0.08413 0.52392 1.09005
 H3039 H 0.09201 0.51827 1.15577
 H3040 H 0.03236 0.51137 1.17991
 H3041 H -0.00380 0.51869 1.08648
 H3042 H 0.05743 0.52250 1.06744
 H3043 H 0.01848 0.51582 1.14877
 H3044 H 0.00695 0.51896 1.11990
 C3045 C -0.03449 0.00413 1.14519
 C3046 C -0.03481 -0.01434 1.15539
 C3047 C -0.04421 -0.01535 1.17358
 C3048 C -0.05373 0.00184 1.18188
 C3049 C -0.05232 0.02032 1.17187
 C3050 C -0.04288 0.02147 1.15397
 C3051 C -0.02585 0.00426 1.12520
 C3052 C -0.02634 0.02159 1.11346
 C3053 C -0.01993 0.02057 1.09439
 C3054 C -0.01251 0.00244 1.08651
 C3055 C -0.01092 -0.01473 1.09824
 C3056 C -0.01790 -0.01402 1.11745
 C3057 C -0.02621 -0.03181 1.14714
 C3058 C -0.01784 -0.03163 1.12865
 H3059 H -0.02625 -0.04597 1.15499
 H3060 H -0.01173 -0.04564 1.12283
 H3061 H -0.04509 -0.02997 1.18052
 H3062 H -0.05811 0.03431 1.17794
 H3063 H -0.02120 0.03400 1.08556
 H3064 H -0.00540 -0.02885 1.09210
 H3065 H -0.04245 0.03616 1.14726
 H3066 H -0.03222 0.03593 1.11844
 C3067 C 0.45556 0.49120 0.63783
 C3068 C 0.43939 0.50448 0.64223
 C3069 C 0.43091 0.50486 0.66071
 C3070 C 0.43816 0.49222 0.67522
 C3071 C 0.45453 0.47945 0.67114
 C3072 C 0.46311 0.47886 0.65265
 C3073 C 0.46359 0.49083 0.61752
 C3074 C 0.47924 0.47786 0.61113
 C3075 C 0.48551 0.47776 0.59176
 C3076 C 0.47625 0.49053 0.57839
 C3077 C 0.46111 0.50379 0.58486
 C3078 C 0.45468 0.50396 0.60402
 C3079 C 0.43157 0.51726 0.62816
 C3080 C 0.43909 0.51706 0.60949
 H3081 H 0.41930 0.52750 0.63159
 H3082 H 0.43237 0.52714 0.59908
 H3083 H 0.41854 0.51509 0.66385
 H3084 H 0.46039 0.46955 0.68214
 H3085 H 0.49725 0.46741 0.58716
 H3086 H 0.45401 0.51405 0.57483
 H3087 H 0.47549 0.46859 0.65020
 H3088 H 0.48659 0.46753 0.62080
 C3089 C 0.47046 0.50742 -0.14077
 C3090 C 0.46817 0.48806 -0.14937
 C3091 C 0.45825 0.48606 -0.16699
 C3092 C 0.44975 0.50299 -0.17604
 C3093 C 0.45229 0.52220 -0.16762
 C3094 C 0.46258 0.52444 -0.15031
 C3095 C 0.48009 0.50870 -0.12135
 C3096 C 0.48332 0.52719 -0.11151
 C3097 C 0.49031 0.52730 -0.09257
 C3098 C 0.49418 0.50902 -0.08315
 C3099 C 0.49223 0.49069 -0.09314
 C3100 C 0.48540 0.49037 -0.11214
 C3101 C 0.47503 0.47067 -0.13997
 C3102 C 0.48321 0.47178 -0.12165
 H3103 H 0.47336 0.45587 -0.14658
 H3104 H 0.48757 0.45779 -0.11468
 H3105 H 0.45674 0.47116 -0.17344
 H3106 H 0.44570 0.53554 -0.17405
 H3107 H 0.49167 0.54157 -0.08493
 H3108 H 0.49528 0.47656 -0.08577
 H3109 H 0.46363 0.53952 -0.14435
 H3110 H 0.48003 0.54164 -0.11798
 C3111 C -0.03505 1.00216 0.36548
 C3112 C -0.04595 0.98452 0.36052
 C3113 C -0.05523 0.98298 0.34259
 C3114 C -0.05409 0.99881 0.32929
 C3115 C -0.04268 1.01598 0.33379
 C3116 C -0.03328 1.01769 0.35169
 C3117 C -0.02664 1.00369 0.38547
 C3118 C -0.01608 1.02075 0.39241
 C3119 C -0.01008 1.02189 0.41173
 C3120 C -0.01461 1.00609 0.42442
 C3121 C -0.02409 0.98872 0.41735
 C3122 C -0.03018 0.98741 0.39822
 C3123 C -0.04809 0.96868 0.37365
 C3124 C -0.04038 0.97010 0.39209
 H3125 H -0.05627 0.95513 0.36976
 H3126 H -0.04288 0.95760 0.40188
 H3127 H -0.06374 0.96952 0.33906
 H3128 H -0.04161 1.02840 0.32371
 H3129 H -0.00270 1.03541 0.41693
 H3130 H -0.02731 0.97628 0.42705
 H3131 H -0.02509 1.03141 0.35461
 H3132 H -0.01277 1.03351 0.38329
 C3133 C 0.02898 0.49941 0.35629
 C3134 C 0.04170 0.48376 0.34932
 C3135 C 0.05174 0.48595 0.33161
 C3136 C 0.05010 0.50395 0.32103
 C3137 C 0.03784 0.51962 0.32813
 C3138 C 0.02725 0.51735 0.34543
 C3139 C 0.01894 0.49667 0.37552
 C3140 C 0.00513 0.51077 0.38330
 C3141 C -0.00198 0.50872 0.40215
 C3142 C 0.00437 0.49257 0.41360
 C3143 C 0.01698 0.47769 0.40565
 C3144 C 0.02407 0.47947 0.38661
 C3145 C 0.04502 0.46642 0.36044
 C3146 C 0.03674 0.46451 0.37883
 H3147 H 0.05479 0.45445 0.35513
 H3148 H 0.04043 0.45118 0.38715
 H3149 H 0.06154 0.47394 0.32639
 H3150 H 0.03641 0.53365 0.32022
 H3151 H -0.01158 0.52045 0.40820
 H3152 H 0.02202 0.46527 0.41458
 H3153 H 0.01822 0.53000 0.35028
 H3154 H 0.00010 0.52375 0.37526
 C3155 C 0.53526 -0.00494 -0.14391
 C3156 C 0.54773 0.01162 -0.14885
 C3157 C 0.55747 0.01213 -0.16674
 C3158 C 0.55517 -0.00362 -0.18008
 C3159 C 0.54218 -0.01962 -0.17566
 C3160 C 0.53235 -0.02034 -0.15776
 C3161 C 0.52634 -0.00546 -0.12394
 C3162 C 0.51433 -0.02149 -0.11691
 C3163 C 0.50762 -0.02164 -0.09766
 C3164 C 0.51288 -0.00589 -0.08510
 C3165 C 0.52399 0.01044 -0.09228
 C3166 C 0.53080 0.01075 -0.11131
 C3167 C 0.55087 0.02742 -0.13578
 C3168 C 0.54256 0.02702 -0.11744
 H3169 H 0.56024 0.04016 -0.13968
 H3170 H 0.54577 0.03947 -0.10772
 H3171 H 0.56723 0.02471 -0.17023
 H3172 H 0.54016 -0.03193 -0.18582
 H3173 H 0.49892 -0.03433 -0.09246
 H3174 H 0.52774 0.02295 -0.08281
 H3175 H 0.52287 -0.03320 -0.15488
 H3176 H 0.51034 -0.03416 -0.12594
 C3177 C 0.64307 0.56452 -0.00573
 C3178 C 0.64582 0.58194 -0.01724
 C3179 C 0.66358 0.59320 -0.01589
 C3180 C 0.67894 0.58727 -0.00338
 C3181 C 0.67652 0.56953 0.00740
 C3182 C 0.65884 0.55832 0.00631
 C3183 C 0.62333 0.55369 -0.00668
 C3184 C 0.61849 0.53727 0.00534
 C3185 C 0.59951 0.52856 0.00483
 C3186 C 0.58487 0.53567 -0.00786
 C3187 C 0.58971 0.55155 -0.02040
 C3188 C 0.60865 0.56084 -0.01964
 C3189 C 0.63078 0.58811 -0.02990
 C3190 C 0.61270 0.57768 -0.03122
 H3191 H 0.63296 0.60132 -0.03888
 H3192 H 0.60152 0.58320 -0.04113
 H3193 H 0.66549 0.60666 -0.02461
 H3194 H 0.68814 0.56461 0.01711
 H3195 H 0.59618 0.51628 0.01463
 H3196 H 0.57840 0.55735 -0.03006
 H3197 H 0.65781 0.54494 0.01511
 H3198 H 0.62894 0.53126 0.01560
 C3199 C 0.13586 1.06405 0.50011
 C3200 C 0.13847 1.08157 0.48872
 C3201 C 0.15632 1.09276 0.48985
 C3202 C 0.17190 1.08662 0.50201
 C3203 C 0.16950 1.06891 0.51284
 C3204 C 0.15176 1.05779 0.51197
 C3205 C 0.11618 1.05311 0.49920
 C3206 C 0.11157 1.03644 0.51099
 C3207 C 0.09266 1.02758 0.51052
 C3208 C 0.07783 1.03479 0.49808
 C3209 C 0.08244 1.05092 0.48572
 C3210 C 0.10133 1.06034 0.48645
 C3211 C 0.12325 1.08785 0.47630
 C3212 C 0.10519 1.07737 0.47506
 H3213 H 0.12530 1.10116 0.46742
 H3214 H 0.09388 1.08297 0.46532
 H3215 H 0.15817 1.10621 0.48112
 H3216 H 0.18127 1.06383 0.52232
 H3217 H 0.08949 1.01515 0.52020
 H3218 H 0.07099 1.05681 0.47627
 H3219 H 0.15081 1.04439 0.52075
 H3220 H 0.12215 1.03033 0.52108
 C3221 C 0.13676 -0.06389 1.00979
 C3222 C 0.13848 -0.08227 1.02000
 C3223 C 0.15590 -0.09426 1.01811
 C3224 C 0.17214 -0.08821 1.00630
 C3225 C 0.17034 -0.06952 0.99667
 C3226 C 0.15304 -0.05765 0.99833
 C3227 C 0.11753 -0.05204 1.01143
 C3228 C 0.11387 -0.03434 1.00075
 C3229 C 0.09528 -0.02467 1.00167
 C3230 C 0.07987 -0.03208 1.01347
 C3231 C 0.08355 -0.04919 1.02486
 C3232 C 0.10213 -0.05941 1.02364
 C3233 C 0.12279 -0.08861 1.03205
 C3234 C 0.10510 -0.07737 1.03394
 H3235 H 0.12414 -0.10259 1.04007
 H3236 H 0.09339 -0.08308 1.04330
 H3237 H 0.15690 -0.10799 1.02653
 H3238 H 0.18189 -0.06422 0.98698
 H3239 H 0.09278 -0.01149 0.99274
 H3240 H 0.07161 -0.05519 1.03379
 H3241 H 0.15272 -0.04369 0.99033
 H3242 H 0.12491 -0.02800 0.99116
 C3243 C 0.63171 0.43407 0.50412
 C3244 C 0.63329 0.41455 0.51224
 C3245 C 0.65109 0.40323 0.51007
 C3246 C 0.66793 0.41114 0.50024
 C3247 C 0.66632 0.43096 0.49285
 C3248 C 0.64858 0.44215 0.49465
 C3249 C 0.61206 0.44518 0.50581
 C3250 C 0.60839 0.46382 0.49663
 C3251 C 0.58945 0.47281 0.49741
 C3252 C 0.57372 0.46378 0.50767
 C3253 C 0.57735 0.44566 0.51757
 C3254 C 0.59624 0.43609 0.51634
 C3255 C 0.61712 0.40645 0.52260
 C3256 C 0.59911 0.41707 0.52480
 H3257 H 0.61837 0.39159 0.52907
 H3258 H 0.58705 0.41003 0.53282
 H3259 H 0.65192 0.38850 0.51684
 H3260 H 0.67845 0.43775 0.48481
 H3261 H 0.58693 0.48672 0.48955
 H3262 H 0.56513 0.43836 0.52517
 H3263 H 0.64840 0.45709 0.48844
 H3264 H 0.61971 0.47137 0.48821
 C3265 C -0.14155 0.43468 0.49566
 C3266 C -0.14945 0.42713 0.47825
 C3267 C -0.16741 0.41597 0.47840
 C3268 C -0.17747 0.41165 0.49581
 C3269 C -0.16916 0.41877 0.51304
 C3270 C -0.15159 0.43014 0.51301
 C3271 C -0.12253 0.44675 0.49491
 C3272 C -0.11427 0.45592 0.51130
 C3273 C -0.09627 0.46643 0.51012
 C3274 C -0.08579 0.46822 0.49258
 C3275 C -0.09422 0.45963 0.47596
 C3276 C -0.11258 0.44911 0.47700
 C3277 C -0.13922 0.43051 0.46087
 C3278 C -0.12107 0.44098 0.46029
 H3279 H -0.14517 0.42466 0.44750
 H3280 H -0.11363 0.44286 0.44651
 H3281 H -0.17355 0.41074 0.46490
 H3282 H -0.17604 0.41525 0.52677
 H3283 H -0.09044 0.47295 0.52324
 H3284 H -0.08648 0.46101 0.46227
 H3285 H -0.14598 0.43492 0.52679
 H3286 H -0.12143 0.45519 0.52523
 C3287 C 0.36063 -0.06782 -0.01330
 C3288 C 0.34835 -0.06559 0.00331
 C3289 C 0.33064 -0.07682 0.00522
 C3290 C 0.32465 -0.09037 -0.00921
 C3291 C 0.33656 -0.09227 -0.02587
 C3292 C 0.35433 -0.08122 -0.02790
 C3293 C 0.37986 -0.05597 -0.01434
 C3294 C 0.39364 -0.05742 -0.02983
 C3295 C 0.41175 -0.04668 -0.02955
 C3296 C 0.41657 -0.03419 -0.01385
 C3297 C 0.40259 -0.03225 0.00130
 C3298 C 0.38456 -0.04303 0.00125
 C3299 C 0.35383 -0.05225 0.01804
 C3300 C 0.37148 -0.04119 0.01701
 H3301 H 0.34438 -0.05044 0.03069
 H3302 H 0.37509 -0.03121 0.02891
 H3303 H 0.32139 -0.07492 0.01800
 H3304 H 0.33234 -0.10267 -0.03722
 H3305 H 0.42220 -0.04857 -0.04142
 H3306 H 0.40592 -0.02260 0.01352
 H3307 H 0.36297 -0.08347 -0.04092
 H3308 H 0.39086 -0.06702 -0.04212
 C3309 C 0.36418 1.06667 0.50820
 C3310 C 0.35529 1.07090 0.49021
 C3311 C 0.33730 1.08200 0.48929
 C3312 C 0.32750 1.08881 0.50610
 C3313 C 0.33614 1.08416 0.52395
 C3314 C 0.35420 1.07335 0.52502
 C3315 C 0.38378 1.05524 0.50840
 C3316 C 0.39460 1.05112 0.52534
 C3317 C 0.41302 1.04077 0.52455
 C3318 C 0.42103 1.03404 0.50689
 C3319 C 0.41020 1.03799 0.49003
 C3320 C 0.39197 1.04863 0.49061
 C3321 C 0.36437 1.06402 0.47316
 C3322 C 0.38217 1.05297 0.47338
 H3323 H 0.35754 1.06714 0.45940
 H3324 H 0.38850 1.04796 0.45975
 H3325 H 0.33112 1.08560 0.47536
 H3326 H 0.32883 1.08873 0.53724
 H3327 H 0.42103 1.03810 0.53779
 H3328 H 0.41619 1.03321 0.47619
 H3329 H 0.36003 1.07025 0.53913
 H3330 H 0.38922 1.05601 0.53929
 C3331 C -0.12630 0.57810 1.00379
 C3332 C -0.13456 0.58440 0.98608
 C3333 C -0.15348 0.59383 0.98560
 C3334 C -0.16476 0.59690 1.00253
 C3335 C -0.15668 0.59021 1.02003
 C3336 C -0.13776 0.58102 1.02069
 C3337 C -0.10583 0.56838 1.00363
 C3338 C -0.09574 0.56234 1.02046
 C3339 C -0.07679 0.55312 1.01939
 C3340 C -0.06743 0.54954 1.00154
 C3341 C -0.07727 0.55586 0.98477
 C3342 C -0.09614 0.56529 0.98568
 C3343 C -0.12393 0.58119 0.96888
 C3344 C -0.10526 0.57169 0.96867
 H3345 H -0.13024 0.58594 0.95530
 H3346 H -0.09779 0.56942 0.95492
 H3347 H -0.15928 0.59906 0.97198
 H3348 H -0.16508 0.59188 1.03332
 H3349 H -0.06957 0.54853 1.03258
 H3350 H -0.07018 0.55352 0.97084
 H3351 H -0.13244 0.57619 1.03455
 H3352 H -0.10223 0.56461 1.03457
 C3353 C 0.01445 0.64683 0.54737
 C3354 C 0.03012 0.64921 0.56075
 C3355 C 0.03190 0.66737 0.57112
 C3356 C 0.01782 0.68299 0.56885
 C3357 C 0.00293 0.68096 0.55490
 C3358 C 0.00134 0.66321 0.54417
 C3359 C 0.01172 0.62656 0.53813
 C3360 C -0.00391 0.62249 0.52522
 C3361 C -0.00691 0.60296 0.51825
 C3362 C 0.00559 0.58699 0.52390
 C3363 C 0.02170 0.59101 0.53613
 C3364 C 0.02482 0.61061 0.54329
 C3365 C 0.04328 0.63315 0.56443
 C3366 C 0.04065 0.61420 0.55591
 H3367 H 0.05540 0.63504 0.57454
 H3368 H 0.05085 0.60205 0.55965
 H3369 H 0.04369 0.66898 0.58163
 H3370 H -0.00828 0.69266 0.55295
 H3371 H -0.01934 0.60034 0.50867
 H3372 H 0.03169 0.57882 0.54031
 H3373 H -0.01078 0.66242 0.53408
 H3374 H -0.01421 0.63403 0.52052
 C3375 C 0.50496 0.14487 0.05234
 C3376 C 0.51938 0.14760 0.06692
 C3377 C 0.51973 0.16567 0.07753
 C3378 C 0.50555 0.18094 0.07420
 C3379 C 0.49171 0.17851 0.05936
 C3380 C 0.49145 0.16077 0.04848
 C3381 C 0.50404 0.12481 0.04237
 C3382 C 0.48999 0.12049 0.02795
 C3383 C 0.48868 0.10111 0.02013
 C3384 C 0.50135 0.08555 0.02644
 C3385 C 0.51598 0.08989 0.04019
 C3386 C 0.51740 0.10934 0.04818
 C3387 C 0.53284 0.13201 0.07133
 C3388 C 0.53181 0.11323 0.06221
 H3389 H 0.54398 0.13418 0.08239
 H3390 H 0.54221 0.10144 0.06646
 H3391 H 0.53070 0.16762 0.08879
 H3392 H 0.48050 0.19003 0.05663
 H3393 H 0.47739 0.09823 0.00938
 H3394 H 0.52611 0.07806 0.04490
 H3395 H 0.48013 0.15964 0.03758
 H3396 H 0.47967 0.13171 0.02266
 C3397 C -0.01776 0.14051 0.94146
 C3398 C -0.02941 0.14141 0.92459
 C3399 C -0.03104 0.15968 0.91450
 C3400 C -0.02099 0.17705 0.92088
 C3401 C -0.01042 0.17636 0.93819
 C3402 C -0.00893 0.15840 0.94845
 C3403 C -0.01473 0.12040 0.95079
 C3404 C -0.00211 0.11780 0.96668
 C3405 C 0.00096 0.09869 0.97444
 C3406 C -0.00849 0.08162 0.96665
 C3407 C -0.02125 0.08403 0.95088
 C3408 C -0.02428 0.10324 0.94281
 C3409 C -0.03883 0.12397 0.91760
 C3410 C -0.03644 0.10529 0.92661
 H3411 H -0.04793 0.12470 0.90478
 H3412 H -0.04383 0.09218 0.92054
 H3413 H -0.03962 0.16022 0.90134
 H3414 H -0.00243 0.18951 0.94341
 H3415 H 0.01084 0.09738 0.98665
 H3416 H -0.02865 0.07095 0.94472
 H3417 H -0.00035 0.15884 0.96149
 H3418 H 0.00579 0.13019 0.97326
 C3419 C 0.46973 0.63105 0.43365
 C3420 C 0.47868 0.64796 0.44272
 C3421 C 0.47864 0.66683 0.43366
 C3422 C 0.47008 0.66915 0.41548
 C3423 C 0.46021 0.65273 0.40700
 C3424 C 0.45991 0.63390 0.41600
 C3425 C 0.47205 0.61071 0.44278
 C3426 C 0.46483 0.59273 0.43435
 C3427 C 0.46860 0.57399 0.44278
 C3428 C 0.47963 0.57270 0.45981
 C3429 C 0.48638 0.59056 0.46859
 C3430 C 0.48279 0.60944 0.46020
 C3431 C 0.48841 0.64579 0.46033
 C3432 C 0.49037 0.62691 0.46893
 H3433 H 0.49506 0.65880 0.46734
 H3434 H 0.49843 0.62592 0.48237
 H3435 H 0.48647 0.67941 0.44025
 H3436 H 0.45319 0.65434 0.39309
 H3437 H 0.46304 0.56045 0.43578
 H3438 H 0.49474 0.58982 0.48187
 H3439 H 0.45243 0.62173 0.40861
 H3440 H 0.45653 0.59272 0.42113
 C3441 C 0.51636 0.85549 0.44330
 C3442 C 0.50381 0.84035 0.45117
 C3443 C 0.50257 0.82133 0.44223
 C3444 C 0.51347 0.81721 0.42536
 C3445 C 0.52671 0.83180 0.41818
 C3446 C 0.52823 0.85069 0.42706
 C3447 C 0.51570 0.87621 0.45208
 C3448 C 0.52659 0.89265 0.44455
 C3449 C 0.52428 0.91203 0.45230
 C3450 C 0.51116 0.91552 0.46781
 C3451 C 0.50083 0.89912 0.47589
 C3452 C 0.50285 0.87962 0.46806
 C3453 C 0.49202 0.84448 0.46746
 C3454 C 0.49161 0.86371 0.47578
 H3455 H 0.48260 0.83280 0.47360
 H3456 H 0.48191 0.86630 0.48813
 H3457 H 0.49259 0.80993 0.44804
 H3458 H 0.53524 0.82895 0.40512
 H3459 H 0.53265 0.92435 0.44592
 H3460 H 0.49070 0.90157 0.48795
 H3461 H 0.53833 0.86143 0.42060
 H3462 H 0.53667 0.89102 0.43245
 C3463 C 0.00986 0.36567 0.93668
 C3464 C -0.00842 0.35493 0.93764
 C3465 C -0.01019 0.33618 0.92837
 C3466 C 0.00614 0.32772 0.91848
 C3467 C 0.02458 0.33767 0.91847
 C3468 C 0.02646 0.35650 0.92744
 C3469 C 0.01059 0.38641 0.94535
 C3470 C 0.02727 0.39927 0.94331
 C3471 C 0.02693 0.41877 0.95112
 C3472 C 0.01008 0.42578 0.96130
 C3473 C -0.00653 0.41310 0.96350
 C3474 C -0.00655 0.39369 0.95534
 C3475 C -0.02486 0.36300 0.94770
 C3476 C -0.02383 0.38186 0.95664
 H3477 H -0.03874 0.35461 0.94864
 H3478 H -0.03695 0.38750 0.96425
 H3479 H -0.02435 0.32820 0.92864
 H3480 H 0.03736 0.33116 0.91096
 H3481 H 0.03993 0.42835 0.94928
 H3482 H -0.01974 0.41855 0.97111
 H3483 H 0.04093 0.36365 0.92683
 H3484 H 0.04055 0.39472 0.93549
 C3485 C 0.48377 0.36530 0.06004
 C3486 C 0.49871 0.35047 0.05631
 C3487 C 0.49865 0.33232 0.06654
 C3488 C 0.48387 0.32863 0.08040
 C3489 C 0.46825 0.34251 0.08316
 C3490 C 0.46814 0.36073 0.07306
 C3491 C 0.48578 0.38544 0.05052
 C3492 C 0.47299 0.40193 0.05478
 C3493 C 0.47634 0.42082 0.04651
 C3494 C 0.49238 0.42368 0.03370
 C3495 C 0.50489 0.40724 0.02902
 C3496 C 0.50190 0.38832 0.03750
 C3497 C 0.51398 0.35408 0.04290
 C3498 C 0.51541 0.37256 0.03351
 H3499 H 0.52520 0.34256 0.03988
 H3500 H 0.52767 0.37478 0.02345
 H3501 H 0.51052 0.32127 0.06422
 H3502 H 0.45664 0.33965 0.09376
 H3503 H 0.46636 0.43323 0.05024
 H3504 H 0.51739 0.40929 0.01919
 H3505 H 0.45602 0.37115 0.07601
 H3506 H 0.46061 0.40072 0.06474
 C3507 C -0.02534 0.86642 0.56815
 C3508 C -0.01830 0.84952 0.55740
 C3509 C -0.01707 0.83047 0.56602
 C3510 C -0.02231 0.82803 0.58539
 C3511 C -0.03054 0.84437 0.59570
 C3512 C -0.03213 0.86339 0.58717
 C3513 C -0.02400 0.88693 0.55919
 C3514 C -0.02945 0.90488 0.56904
 C3515 C -0.02613 0.92376 0.56070
 C3516 C -0.01731 0.92517 0.54240
 C3517 C -0.01269 0.90739 0.53215
 C3518 C -0.01587 0.88838 0.54039
 C3519 C -0.01152 0.85186 0.53846
 C3520 C -0.01034 0.87093 0.53011
 H3521 H -0.00641 0.83884 0.53018
 H3522 H -0.00440 0.87207 0.51560
 H3523 H -0.01107 0.81768 0.55794
 H3524 H -0.03473 0.84271 0.61069
 H3525 H -0.03004 0.93728 0.56882
 H3526 H -0.00623 0.90831 0.51782
 H3527 H -0.03797 0.87558 0.59597
 H3528 H -0.03590 0.90475 0.58329
 C3529 C 0.25465 0.30258 0.11698
 C3530 C 0.26922 0.29499 0.10391
 C3531 C 0.27019 0.30264 0.08497
 C3532 C 0.25704 0.31811 0.07910
 C3533 C 0.24254 0.32532 0.09210
 C3534 C 0.24129 0.31771 0.11069
 C3535 C 0.25431 0.29455 0.13713
 C3536 C 0.24026 0.30126 0.15089
 C3537 C 0.24088 0.29423 0.16963
 C3538 C 0.25540 0.28015 0.17551
 C3539 C 0.26914 0.27264 0.16175
 C3540 C 0.26875 0.27989 0.14259
 C3541 C 0.28289 0.28016 0.11000
 C3542 C 0.28270 0.27284 0.12890
 H3543 H 0.29408 0.27429 0.10006
 H3544 H 0.29375 0.26158 0.13289
 H3545 H 0.28151 0.29703 0.07502
 H3546 H 0.23204 0.33699 0.08784
 H3547 H 0.22969 0.29996 0.17964
 H3548 H 0.28033 0.26163 0.16602
 H3549 H 0.22985 0.32416 0.11987
 H3550 H 0.22864 0.31204 0.14764
 C3551 C 0.77071 0.79414 0.61386
 C3552 C 0.76284 0.78269 0.59845
 C3553 C 0.75936 0.79200 0.58053
 C3554 C 0.76291 0.81286 0.57797
 C3555 C 0.76976 0.82421 0.59374
 C3556 C 0.77374 0.81505 0.61130
 C3557 C 0.77424 0.78384 0.63271
 C3558 C 0.78334 0.79371 0.64832
 C3559 C 0.78372 0.78468 0.66637
 C3560 C 0.77539 0.76548 0.66931
 C3561 C 0.76825 0.75452 0.65342
 C3562 C 0.76765 0.76363 0.63508
 C3563 C 0.75796 0.76223 0.60126
 C3564 C 0.75988 0.75305 0.61928
 H3565 H 0.75186 0.75338 0.58954
 H3566 H 0.75510 0.73747 0.62090
 H3567 H 0.75390 0.78298 0.56863
 H3568 H 0.77184 0.84043 0.59265
 H3569 H 0.78957 0.79326 0.67840
 H3570 H 0.76184 0.73963 0.65559
 H3571 H 0.77870 0.82475 0.62282
 H3572 H 0.78968 0.80866 0.64708
 C3573 C 0.23561 0.69826 0.61352
 C3574 C 0.24343 0.67851 0.61040
 C3575 C 0.24497 0.67050 0.59173
 C3576 C 0.23833 0.68148 0.57575
 C3577 C 0.23039 0.70103 0.57883
 C3578 C 0.22909 0.70936 0.59743
 C3579 C 0.23478 0.70633 0.63385
 C3580 C 0.22827 0.72613 0.63880
 C3581 C 0.22867 0.73297 0.65799
 C3582 C 0.23539 0.72018 0.67272
 C3583 C 0.24124 0.70029 0.66785
 C3584 C 0.24130 0.69345 0.64878
 C3585 C 0.24964 0.66668 0.62590
 C3586 C 0.24841 0.67391 0.64467
 H3587 H 0.25550 0.65152 0.62350
 H3588 H 0.25344 0.66411 0.65615
 H3589 H 0.25160 0.65561 0.58969
 H3590 H 0.22486 0.70984 0.56688
 H3591 H 0.22411 0.74840 0.66124
 H3592 H 0.24646 0.69006 0.67891
 H3593 H 0.22281 0.72438 0.59894
 H3594 H 0.22323 0.73664 0.62801
 C3595 C 0.74225 0.20043 0.11093
 C3596 C 0.74952 0.18053 0.10738
 C3597 C 0.75119 0.17307 0.08851
 C3598 C 0.74559 0.18497 0.07279
 C3599 C 0.73802 0.20456 0.07623
 C3600 C 0.73645 0.21227 0.09504
 C3601 C 0.74112 0.20782 0.13147
 C3602 C 0.73472 0.22751 0.13686
 C3603 C 0.73458 0.23365 0.15627
 C3604 C 0.74076 0.22028 0.17074
 C3605 C 0.74672 0.20056 0.16540
 C3606 C 0.74710 0.19434 0.14613
 C3607 C 0.75507 0.16803 0.12264
 C3608 C 0.75380 0.17475 0.14158
 H3609 H 0.76052 0.15278 0.11991
 H3610 H 0.75836 0.16447 0.15287
 H3611 H 0.75659 0.15774 0.08608
 H3612 H 0.73355 0.21403 0.06432
 H3613 H 0.72993 0.24895 0.15989
 H3614 H 0.75148 0.18990 0.17629
 H3615 H 0.73067 0.22746 0.09685
 H3616 H 0.73002 0.23844 0.12631
 C3617 C 0.76641 0.20348 0.88312
 C3618 C 0.77186 0.18305 0.88647
 C3619 C 0.76860 0.17433 0.90459
 C3620 C 0.75908 0.18527 0.91949
 C3621 C 0.75380 0.20559 0.91620
 C3622 C 0.75748 0.21463 0.89832
 C3623 C 0.76940 0.21188 0.86322
 C3624 C 0.76518 0.23220 0.85836
 C3625 C 0.76625 0.23861 0.83919
 C3626 C 0.77139 0.22489 0.82447
 C3627 C 0.77695 0.20506 0.82933
 C3628 C 0.77619 0.19854 0.84851
 C3629 C 0.77983 0.17112 0.87152
 C3630 C 0.78163 0.17859 0.85290
 H3631 H 0.78405 0.15549 0.87411
 H3632 H 0.78715 0.16849 0.84169
 H3633 H 0.77324 0.15878 0.90695
 H3634 H 0.74628 0.21441 0.92729
 H3635 H 0.76190 0.25400 0.83575
 H3636 H 0.78118 0.19446 0.81803
 H3637 H 0.75270 0.23014 0.89651
 H3638 H 0.76056 0.24319 0.86906
 C3639 C 0.27355 0.70525 0.38675
 C3640 C 0.26857 0.71803 0.40252
 C3641 C 0.26433 0.70955 0.42067
 C3642 C 0.26401 0.68843 0.42301
 C3643 C 0.26879 0.67587 0.40735
 C3644 C 0.27366 0.68409 0.38951
 C3645 C 0.27699 0.71468 0.36743
 C3646 C 0.28263 0.70325 0.35112
 C3647 C 0.28262 0.71199 0.33294
 C3648 C 0.27733 0.73241 0.33050
 C3649 C 0.27383 0.74454 0.34685
 C3650 C 0.27355 0.73576 0.36533
 C3651 C 0.26693 0.73903 0.39981
 C3652 C 0.26902 0.74766 0.38157
 H3653 H 0.26316 0.74887 0.41185
 H3654 H 0.26671 0.76385 0.38010
 H3655 H 0.26037 0.71928 0.43275
 H3656 H 0.26862 0.65953 0.40894
 H3657 H 0.28582 0.70243 0.32056
 H3658 H 0.26987 0.76038 0.34511
 H3659 H 0.27683 0.67357 0.37796
 H3660 H 0.28644 0.68738 0.35196
 C3661 C 0.74434 0.78087 0.39280
 C3662 C 0.76321 0.78550 0.40081
 C3663 C 0.76439 0.79559 0.41859
 C3664 C 0.74704 0.80208 0.42839
 C3665 C 0.72832 0.79723 0.42055
 C3666 C 0.72696 0.78668 0.40308
 C3667 C 0.74382 0.77108 0.37321
 C3668 C 0.72594 0.76536 0.36394
 C3669 C 0.72630 0.75819 0.34490
 C3670 C 0.74444 0.75673 0.33477
 C3671 C 0.76233 0.76117 0.34422
 C3672 C 0.76220 0.76810 0.36331
 C3673 C 0.78085 0.78083 0.39070
 C3674 C 0.78034 0.77260 0.37225
 H3675 H 0.79529 0.78431 0.39686
 H3676 H 0.79441 0.76999 0.36474
 H3677 H 0.77897 0.79883 0.42457
 H3678 H 0.71463 0.80220 0.42757
 H3679 H 0.71234 0.75480 0.33778
 H3680 H 0.77641 0.75983 0.33642
 H3681 H 0.71219 0.78380 0.39758
 H3682 H 0.71155 0.76677 0.37098
 C3683 C 0.25123 0.28243 0.89277
 C3684 C 0.27007 0.28776 0.90044
 C3685 C 0.27124 0.29778 0.91826
 C3686 C 0.25384 0.30364 0.92837
 C3687 C 0.23516 0.29826 0.92075
 C3688 C 0.23385 0.28770 0.90330
 C3689 C 0.25067 0.27259 0.87323
 C3690 C 0.23284 0.26588 0.86448
 C3691 C 0.23302 0.25863 0.84549
 C3692 C 0.25089 0.25811 0.83485
 C3693 C 0.26881 0.26358 0.84377
 C3694 C 0.26888 0.27050 0.86286
 C3695 C 0.28764 0.28387 0.88993
 C3696 C 0.28703 0.27578 0.87141
 H3697 H 0.30207 0.28789 0.89581
 H3698 H 0.30100 0.27383 0.86357
 H3699 H 0.28580 0.30146 0.92402
 H3700 H 0.22142 0.30281 0.92793
 H3701 H 0.21905 0.25441 0.83879
 H3702 H 0.28269 0.26293 0.83559
 H3703 H 0.21909 0.28442 0.89798
 H3704 H 0.21863 0.26648 0.87194
 C3705 C 0.82165 0.38048 0.75568
 C3706 C 0.81640 0.39540 0.74200
 C3707 C 0.82782 0.41318 0.74023
 C3708 C 0.84478 0.41628 0.75164
 C3709 C 0.85008 0.40137 0.76504
 C3710 C 0.83869 0.38376 0.76710
 C3711 C 0.80913 0.36161 0.75696
 C3712 C 0.81261 0.34611 0.77045
 C3713 C 0.80124 0.32834 0.77028
 C3714 C 0.78612 0.32548 0.75664
 C3715 C 0.78198 0.34124 0.74370
 C3716 C 0.79323 0.35919 0.74382
 C3717 C 0.80004 0.39233 0.72989
 C3718 C 0.78884 0.37456 0.73065
 H3719 H 0.79601 0.40372 0.71940
 H3720 H 0.77657 0.37279 0.72069
 H3721 H 0.82375 0.42443 0.72962
 H3722 H 0.86300 0.40344 0.77414
 H3723 H 0.80480 0.31650 0.78046
 H3724 H 0.77020 0.33938 0.73321
 H3725 H 0.84358 0.37285 0.77759
 H3726 H 0.82421 0.34728 0.78109
 C3727 C 0.31894 0.89426 0.26514
 C3728 C 0.31200 0.90944 0.25253
 C3729 C 0.32283 0.92754 0.25009
 C3730 C 0.34117 0.93101 0.25967
 C3731 C 0.34774 0.91556 0.27229
 C3732 C 0.33688 0.89770 0.27500
 C3733 C 0.30720 0.87489 0.26688
 C3734 C 0.31259 0.85890 0.27928
 C3735 C 0.30193 0.84064 0.27929
 C3736 C 0.28566 0.83781 0.26695
 C3737 C 0.27962 0.85403 0.25526
 C3738 C 0.29016 0.87242 0.25517
 C3739 C 0.29453 0.90627 0.24192
 C3740 C 0.28396 0.88814 0.24310
 H3741 H 0.28913 0.91786 0.23223
 H3742 H 0.27080 0.88633 0.23425
 H3743 H 0.31729 0.93816 0.23959
 H3744 H 0.36091 0.91728 0.28104
 H3745 H 0.30696 0.82843 0.28845
 H3746 H 0.26693 0.85218 0.24580
 H3747 H 0.34289 0.88673 0.28488
 H3748 H 0.32519 0.86003 0.28880
 C3749 C 0.18133 0.88091 0.73877
 C3750 C 0.18874 0.89679 0.75049
 C3751 C 0.17769 0.91485 0.75290
 C3752 C 0.15894 0.91727 0.74424
 C3753 C 0.15152 0.90145 0.73278
 C3754 C 0.16256 0.88357 0.72998
 C3755 C 0.19347 0.86169 0.73694
 C3756 C 0.18791 0.84516 0.72518
 C3757 C 0.19899 0.82705 0.72518
 C3758 C 0.21583 0.82495 0.73695
 C3759 C 0.22207 0.84172 0.74786
 C3760 C 0.21117 0.85997 0.74786
 C3761 C 0.20687 0.89439 0.76018
 C3762 C 0.21771 0.87631 0.75908
 H3763 H 0.21256 0.90651 0.76915
 H3764 H 0.23138 0.87506 0.76728
 H3765 H 0.18342 0.92682 0.76203
 H3766 H 0.13716 0.90299 0.72582
 H3767 H 0.19385 0.81437 0.71662
 H3768 H 0.23523 0.84039 0.75680
 H3769 H 0.15603 0.87192 0.72112
 H3770 H 0.17486 0.84578 0.71617
 C3771 C 0.68104 0.37814 0.23754
 C3772 C 0.68771 0.39372 0.25001
 C3773 C 0.67680 0.41193 0.25181
 C3774 C 0.65884 0.41475 0.24182
 C3775 C 0.65215 0.39923 0.22962
 C3776 C 0.66310 0.38122 0.22740
 C3777 C 0.69298 0.35875 0.23635
 C3778 C 0.68819 0.34255 0.22387
 C3779 C 0.69900 0.32429 0.22435
 C3780 C 0.71474 0.32169 0.23734
 C3781 C 0.72023 0.33809 0.24910
 C3782 C 0.70965 0.35653 0.24860
 C3783 C 0.70491 0.39084 0.26105
 C3784 C 0.71548 0.37257 0.26055
 H3785 H 0.71003 0.40273 0.27061
 H3786 H 0.72838 0.37094 0.26977
 H3787 H 0.68194 0.42370 0.26150
 H3788 H 0.63840 0.40108 0.22166
 H3789 H 0.69446 0.31188 0.21512
 H3790 H 0.73257 0.33636 0.25901
 H3791 H 0.65711 0.36980 0.21792
 H3792 H 0.67598 0.34356 0.21387
 C3793 C 0.67932 0.60878 0.25922
 C3794 C 0.68028 0.59716 0.24204
 C3795 C 0.66998 0.57870 0.24063
 C3796 C 0.65844 0.57143 0.25605
 C3797 C 0.65766 0.58284 0.27317
 C3798 C 0.66793 0.60124 0.27477
 C3799 C 0.69027 0.62869 0.25989
 C3800 C 0.69033 0.64160 0.27616
 C3801 C 0.70035 0.66025 0.27573
 C3802 C 0.71055 0.66653 0.25907
 C3803 C 0.71085 0.65353 0.24298
 C3804 C 0.70089 0.63487 0.24324
 C3805 C 0.69135 0.60408 0.22623
 C3806 C 0.70139 0.62251 0.22681
 H3807 H 0.69213 0.59517 0.21310
 H3808 H 0.70959 0.62724 0.21409
 H3809 H 0.67103 0.56991 0.22744
 H3810 H 0.64872 0.57776 0.28526
 H3811 H 0.69984 0.66990 0.28837
 H3812 H 0.71878 0.65799 0.23001
 H3813 H 0.66660 0.60941 0.28820
 H3814 H 0.68261 0.63766 0.28929
 C3815 C 0.18218 0.10973 0.76232
 C3816 C 0.18252 0.09808 0.74514
 C3817 C 0.17166 0.07993 0.74391
 C3818 C 0.16020 0.07299 0.75953
 C3819 C 0.16008 0.08441 0.77665
 C3820 C 0.17088 0.10251 0.77806
 C3821 C 0.19365 0.12936 0.76277
 C3822 C 0.19420 0.14238 0.77896
 C3823 C 0.20453 0.16085 0.77826
 C3824 C 0.21457 0.16683 0.76141
 C3825 C 0.21449 0.15366 0.74544
 C3826 C 0.20417 0.13520 0.74596
 C3827 C 0.19356 0.10464 0.72918
 C3828 C 0.20413 0.12277 0.72957
 H3829 H 0.19390 0.09569 0.71606
 H3830 H 0.21226 0.12724 0.71673
 H3831 H 0.17221 0.07112 0.73071
 H3832 H 0.15125 0.07955 0.78890
 H3833 H 0.20428 0.17066 0.79079
 H3834 H 0.22230 0.15788 0.73234
 H3835 H 0.17003 0.11071 0.79151
 H3836 H 0.18655 0.13869 0.79221
 C3837 C 0.31616 0.12234 0.24118
 C3838 C 0.31864 0.11221 0.25894
 C3839 C 0.33004 0.09429 0.25993
 C3840 C 0.33886 0.08570 0.24337
 C3841 C 0.33599 0.09555 0.22567
 C3842 C 0.32489 0.11361 0.22457
 C3843 C 0.30432 0.14188 0.24102
 C3844 C 0.30176 0.15399 0.22447
 C3845 C 0.29098 0.17235 0.22540
 C3846 C 0.28228 0.17899 0.24280
 C3847 C 0.28463 0.16679 0.25920
 C3848 C 0.29564 0.14867 0.25852
 C3849 C 0.30973 0.11996 0.27572
 C3850 C 0.29833 0.13765 0.27548
 H3851 H 0.31152 0.11216 0.28929
 H3852 H 0.29172 0.14294 0.28889
 H3853 H 0.33228 0.08722 0.27378
 H3854 H 0.34217 0.08919 0.21251
 H3855 H 0.28960 0.18143 0.21254
 H3856 H 0.27828 0.17162 0.27288
 H3857 H 0.32321 0.12043 0.21060
 H3858 H 0.30824 0.14969 0.21077
 C3859 C 0.82058 0.60856 0.74382
 C3860 C 0.83011 0.60135 0.72691
 C3861 C 0.84143 0.58326 0.72734
 C3862 C 0.84429 0.57265 0.74471
 C3863 C 0.83551 0.58060 0.76158
 C3864 C 0.82376 0.59811 0.76116
 C3865 C 0.80816 0.62752 0.74273
 C3866 C 0.79638 0.63445 0.75824
 C3867 C 0.78594 0.65268 0.75710
 C3868 C 0.78687 0.66477 0.74048
 C3869 C 0.79774 0.65742 0.72445
 C3870 C 0.80811 0.63871 0.72540
 C3871 C 0.82868 0.61255 0.70984
 C3872 C 0.81835 0.63105 0.70923
 H3873 H 0.83612 0.60719 0.69686
 H3874 H 0.81819 0.63937 0.69582
 H3875 H 0.84799 0.57755 0.71409
 H3876 H 0.83799 0.57352 0.77537
 H3877 H 0.77744 0.65750 0.76965
 H3878 H 0.79836 0.66631 0.71139
 H3879 H 0.81771 0.60349 0.77469
 H3880 H 0.79501 0.62603 0.77144
 C3881 C 0.88691 0.75514 0.18974
 C3882 C 0.90280 0.74490 0.19884
 C3883 C 0.92212 0.74552 0.19096
 C3884 C 0.92624 0.75608 0.17372
 C3885 C 0.91015 0.76647 0.16502
 C3886 C 0.89095 0.76604 0.17287
 C3887 C 0.86643 0.75369 0.19837
 C3888 C 0.84959 0.76330 0.19036
 C3889 C 0.83078 0.76130 0.19885
 C3890 C 0.82825 0.74966 0.21550
 C3891 C 0.84491 0.74006 0.22361
 C3892 C 0.86389 0.74200 0.21522
 C3893 C 0.89932 0.73372 0.21561
 C3894 C 0.88026 0.73229 0.22362
 H3895 H 0.91152 0.72584 0.22260
 H3896 H 0.87830 0.72338 0.23656
 H3897 H 0.93348 0.73643 0.19785
 H3898 H 0.91223 0.77589 0.15249
 H3899 H 0.81817 0.76889 0.19228
 H3900 H 0.84318 0.73110 0.23654
 H3901 H 0.87954 0.77446 0.16545
 H3902 H 0.85054 0.77240 0.17755
 C3903 C 0.38628 0.26187 0.68538
 C3904 C 0.40326 0.25800 0.69687
 C3905 C 0.42244 0.25867 0.68871
 C3906 C 0.42506 0.26243 0.66904
 C3907 C 0.40831 0.26676 0.65775
 C3908 C 0.38914 0.26659 0.66581
 C3909 C 0.36601 0.25990 0.69441
 C3910 C 0.34815 0.26370 0.68436
 C3911 C 0.32961 0.26079 0.69324
 C3912 C 0.32847 0.25390 0.71224
 C3913 C 0.34611 0.25051 0.72249
 C3914 C 0.36479 0.25362 0.71382
 C3915 C 0.40102 0.25273 0.71623
 C3916 C 0.38217 0.25040 0.72449
 H3917 H 0.41405 0.24984 0.72501
 H3918 H 0.38118 0.24584 0.73943
 H3919 H 0.43536 0.25564 0.69760
 H3920 H 0.40993 0.26949 0.64247
 H3921 H 0.31613 0.26368 0.68512
 H3922 H 0.34532 0.24562 0.73735
 H3923 H 0.37681 0.26956 0.65631
 H3924 H 0.34812 0.26888 0.66968
 C3925 C 0.39198 0.73083 0.80132
 C3926 C 0.39406 0.72270 0.82001
 C3927 C 0.41259 0.72351 0.82923
 C3928 C 0.42901 0.73266 0.82020
 C3929 C 0.42725 0.73959 0.80129
 C3930 C 0.40902 0.73858 0.79187
 C3931 C 0.37155 0.73182 0.79284
 C3932 C 0.36777 0.74101 0.77500
 C3933 C 0.34830 0.74310 0.76839
 C3934 C 0.33208 0.73600 0.77932
 C3935 C 0.33572 0.72614 0.79679
 C3936 C 0.35526 0.72418 0.80370
 C3937 C 0.37749 0.71462 0.82968
 C3938 C 0.35848 0.71527 0.82165
 H3939 H 0.37914 0.70817 0.84389
 H3940 H 0.34602 0.70925 0.82987
 H3941 H 0.41392 0.71813 0.84389
 H3942 H 0.43995 0.74631 0.79397
 H3943 H 0.34599 0.75057 0.75475
 H3944 H 0.32332 0.72046 0.80532
 H3945 H 0.40854 0.74447 0.77745
 H3946 H 0.37951 0.74709 0.76605
 C3947 C 0.88593 0.22455 0.31032
 C3948 C 0.88682 0.22074 0.33031
 C3949 C 0.90519 0.22174 0.33981
 C3950 C 0.92270 0.22668 0.32966
 C3951 C 0.92202 0.22893 0.30966
 C3952 C 0.90389 0.22776 0.30005
 C3953 C 0.86586 0.22601 0.30117
 C3954 C 0.86339 0.23196 0.28192
 C3955 C 0.84437 0.23473 0.27441
 C3956 C 0.82730 0.23148 0.28580
 C3957 C 0.82952 0.22492 0.30483
 C3958 C 0.84864 0.22250 0.31267
 C3959 C 0.86930 0.21678 0.34079
 C3960 C 0.85060 0.21742 0.33210
 H3961 H 0.87002 0.21355 0.35605
 H3962 H 0.83744 0.21462 0.34088
 H3963 H 0.90566 0.21992 0.35529
 H3964 H 0.93550 0.23220 0.30152
 H3965 H 0.84308 0.23955 0.25960
 H3966 H 0.81640 0.22242 0.31376
 H3967 H 0.90428 0.22993 0.28469
 H3968 H 0.87588 0.23505 0.27249
 C3969 C 0.10295 0.27663 0.30518
 C3970 C 0.10075 0.28371 0.32433
 C3971 C 0.08193 0.28350 0.33327
 C3972 C 0.06519 0.27613 0.32346
 C3973 C 0.06710 0.27064 0.30404
 C3974 C 0.08573 0.27097 0.29493
 C3975 C 0.12362 0.27448 0.29706
 C3976 C 0.12751 0.26559 0.27896
 C3977 C 0.14708 0.26245 0.27263
 C3978 C 0.16330 0.26818 0.28409
 C3979 C 0.15959 0.27756 0.30192
 C3980 C 0.13995 0.28049 0.30857
 C3981 C 0.11745 0.29008 0.33473
 C3982 C 0.13665 0.28869 0.32693
 H3983 H 0.11569 0.29578 0.34930
 H3984 H 0.14915 0.29343 0.33568
 H3985 H 0.08060 0.28776 0.34830
 H3986 H 0.05424 0.26543 0.29606
 H3987 H 0.14948 0.25537 0.25870
 H3988 H 0.17199 0.28210 0.31091
 H3989 H 0.08635 0.26620 0.28009
 H3990 H 0.11573 0.26055 0.26961
 C3991 C 0.61235 0.77033 0.79562
 C3992 C 0.61039 0.78143 0.81301
 C3993 C 0.59209 0.78171 0.82292
 C3994 C 0.57578 0.77069 0.81597
 C3995 C 0.57732 0.76085 0.79813
 C3996 C 0.59535 0.76076 0.78797
 C3997 C 0.63270 0.76816 0.78682
 C3998 C 0.63645 0.75609 0.77041
 C3999 C 0.65593 0.75280 0.76390
 C4000 C 0.67216 0.76154 0.77349
 C4001 C 0.66851 0.77441 0.78926
 C4002 C 0.64899 0.77761 0.79609
 C4003 C 0.62690 0.79135 0.82089
 C4004 C 0.64582 0.78953 0.81255
 H4005 H 0.62530 0.80009 0.83406
 H4006 H 0.65828 0.79697 0.81949
 H4007 H 0.59078 0.78972 0.83654
 H4008 H 0.56489 0.75227 0.79248
 H4009 H 0.65827 0.74301 0.75153
 H4010 H 0.68091 0.78150 0.79663
 H4011 H 0.59576 0.75246 0.77459
 H4012 H 0.62469 0.74861 0.76264
 C4013 C 0.60948 0.22157 0.70284
 C4014 C 0.59432 0.23344 0.71177
 C4015 C 0.57527 0.23451 0.70360
 C4016 C 0.57126 0.22429 0.68635
 C4017 C 0.58571 0.21114 0.67850
 C4018 C 0.60457 0.20964 0.68671
 C4019 C 0.63038 0.22340 0.71008
 C4020 C 0.64682 0.21399 0.70084
 C4021 C 0.66624 0.21786 0.70685
 C4022 C 0.66979 0.23105 0.72231
 C4023 C 0.65348 0.23979 0.73216
 C4024 C 0.63389 0.23630 0.72602
 C4025 C 0.59855 0.24505 0.72813
 C4026 C 0.61794 0.24634 0.73519
 H4027 H 0.58685 0.25384 0.73517
 H4028 H 0.62061 0.25602 0.74754
 H4029 H 0.56393 0.24431 0.70998
 H4030 H 0.58293 0.20301 0.66522
 H4031 H 0.67852 0.21067 0.69913
 H4032 H 0.65602 0.24994 0.74420
 H4033 H 0.61527 0.19978 0.67967
 H4034 H 0.64513 0.20404 0.68863
 C4035 C 0.11004 0.73352 0.21370
 C4036 C 0.09580 0.74852 0.21901
 C4037 C 0.07741 0.74939 0.20960
 C4038 C 0.07310 0.73557 0.19490
 C4039 C 0.08624 0.71948 0.19105
 C4040 C 0.10454 0.71835 0.20043
 C4041 C 0.13077 0.73540 0.22133
 C4042 C 0.14672 0.72316 0.21466
 C4043 C 0.16622 0.72707 0.22039
 C4044 C 0.17026 0.74307 0.23308
 C4045 C 0.15441 0.75471 0.24057
 C4046 C 0.13480 0.75129 0.23449
 C4047 C 0.10042 0.76323 0.23283
 C4048 C 0.11949 0.76440 0.24063
 H4049 H 0.08933 0.77441 0.23720
 H4050 H 0.12255 0.77642 0.25086
 H4051 H 0.06695 0.76159 0.21282
 H4052 H 0.08297 0.70855 0.17984
 H4053 H 0.17822 0.71765 0.21469
 H4054 H 0.15744 0.76713 0.25039
 H4055 H 0.11443 0.70604 0.19647
 H4056 H 0.14462 0.71096 0.20452
   
