data_POSCAR
  _audit_creation_date              2014-09-24
  _audit_creation_method            'ToBaCCo'
  _symmetry_space_group_name_H-M    'P1'
  _symmetry_Int_Tables_number       1
  _symmetry_cell_setting            triclinic
  loop_
  _symmetry_equiv_pos_as_xyz
 x,y,z
_cell_length_a 53.1271
_cell_length_b 53.1910
_cell_length_c 53.1201
_cell_angle_alpha 89.948000
_cell_angle_beta 90.000700
_cell_angle_gamma 90.053700
loop_
  _atom_site_label
  _atom_site_type_symbol
  _atom_site_fract_x
  _atom_site_fract_y
  _atom_site_fract_z
C1 C 0.24061 0.98777 0.07805
 C2 C 0.24083 1.01357 0.07817
 C3 C 0.24661 1.02114 0.05383
 N4 N 0.25011 1.00081 0.03898
 C5 C 0.24628 0.98040 0.05367
 C6 C 0.25015 1.04634 0.04609
 C7 C 0.25391 1.05369 0.02073
 C8 C 0.26174 1.07741 0.01309
 C9 C 0.26153 1.07748 -0.01278
 C10 C 0.25361 1.05378 -0.02036
 N11 N 0.24887 1.03948 0.00020
 C12 C 0.24952 1.04652 -0.04568
 C13 C 0.24636 1.02132 -0.05352
 C14 C 0.24075 1.01380 -0.07790
 C15 C 0.24104 0.98800 -0.07793
 C16 C 0.24676 0.98058 -0.05357
 N17 N 0.25019 1.00096 -0.03877
 C18 C 0.25026 0.95544 -0.04580
 C19 C 0.25387 0.94809 -0.02048
 C20 C 0.26151 0.92433 -0.01286
 C21 C 0.26125 0.92427 0.01302
 C22 C 0.25348 0.94799 0.02056
 N23 N 0.24885 0.96232 0.00002
 C24 C 0.24944 0.95526 0.04582
 H25 H 0.23699 0.97582 0.09416
 H26 H 0.23740 1.02540 0.09437
 H27 H 0.24000 0.97969 -0.00001
 H28 H 0.26682 1.09316 0.02495
 H29 H 0.26643 1.09328 -0.02467
 H30 H 0.23716 1.02567 -0.09407
 H31 H 0.23767 0.97609 -0.09409
 H32 H 0.26604 0.90846 0.02494
 H33 H 0.23992 1.02213 0.00021
 H34 H 0.26652 0.90857 -0.02472
 C35 C 0.75036 0.48697 0.57918
 C36 C 0.74951 0.51273 0.57916
 C37 C 0.74936 0.52023 0.55414
 N38 N 0.75005 0.49987 0.53898
 C39 C 0.75067 0.47950 0.55417
 C40 C 0.74941 0.54552 0.54594
 C41 C 0.74994 0.55339 0.52044
 C42 C 0.75346 0.57811 0.51281
 C43 C 0.75323 0.57817 0.48697
 C44 C 0.74960 0.55349 0.47934
 N45 N 0.74717 0.53858 0.49990
 C46 C 0.74878 0.54571 0.45385
 C47 C 0.74921 0.52043 0.44568
 C48 C 0.74960 0.51295 0.42068
 C49 C 0.75101 0.48722 0.42070
 C50 C 0.75134 0.47973 0.44572
 N51 N 0.75026 0.50007 0.46088
 C52 C 0.75177 0.45443 0.45391
 C53 C 0.75086 0.44654 0.47938
 C54 C 0.74731 0.42180 0.48694
 C55 C 0.74699 0.42175 0.51278
 C56 C 0.75037 0.44645 0.52048
 N57 N 0.75314 0.46137 0.49997
 C58 C 0.75076 0.45421 0.54599
 H59 H 0.75060 0.47512 0.59575
 H60 H 0.74919 0.52456 0.59572
 H61 H 0.75816 0.48017 0.50001
 H62 H 0.75624 0.59445 0.52462
 H63 H 0.75583 0.59456 0.47516
 H64 H 0.74911 0.52479 0.40410
 H65 H 0.75154 0.47539 0.40414
 H66 H 0.74424 0.40535 0.52454
 H67 H 0.74205 0.51980 0.49992
 H68 H 0.74483 0.40545 0.47508
 C69 C 0.75092 0.92084 0.98716
 C70 C 0.74952 0.92079 1.01291
 C71 C 0.74932 0.94577 1.02047
 N72 N 0.75046 0.96096 1.00009
 C73 C 0.75141 0.94583 0.97969
 C74 C 0.74896 0.95392 1.04584
 C75 C 0.74995 0.97944 1.05358
 C76 C 0.75372 0.98716 1.07827
 C77 C 0.75395 1.01295 1.07814
 C78 C 0.75029 1.02050 1.05340
 N79 N 0.74747 0.99994 1.03862
 C80 C 0.74962 1.04595 1.04550
 C81 C 0.74950 1.05413 1.02017
 C82 C 0.74956 1.07912 1.01270
 C83 C 0.75038 1.07918 0.98692
 C84 C 0.75074 1.05419 0.97936
 N85 N 0.75021 1.03900 0.99977
 C86 C 0.75084 1.04602 0.95399
 C87 C 0.75049 1.02048 0.94624
 C88 C 0.74719 1.01268 0.92150
 C89 C 0.74754 0.98689 0.92162
 C90 C 0.75100 0.97942 0.94642
 N91 N 0.75321 1.00002 0.96123
 C92 C 0.75188 0.95399 0.95436
 H93 H 0.75132 0.90431 0.97530
 H94 H 0.74893 0.90421 1.02473
 H95 H 0.75811 1.00009 0.98008
 H96 H 0.75638 0.97541 1.09471
 H97 H 0.75680 1.02478 1.09446
 H98 H 0.74922 1.09564 1.02457
 H99 H 0.75056 1.09575 0.97509
 H100 H 0.74513 0.97500 0.90527
 H101 H 0.74222 0.99994 1.01985
 H102 H 0.74450 1.02437 0.90503
 C103 C 0.24981 0.42072 0.48751
 C104 C 0.24842 0.42082 0.51328
 C105 C 0.24816 0.44584 0.52066
 N106 N 0.24926 0.46091 0.50021
 C107 C 0.25026 0.44567 0.47989
 C108 C 0.24776 0.45409 0.54596
 C109 C 0.24874 0.47956 0.55373
 C110 C 0.25228 0.48719 0.57846
 C111 C 0.25266 0.51300 0.57838
 C112 C 0.24932 0.52062 0.55362
 N113 N 0.24652 0.50009 0.53878
 C114 C 0.24900 0.54608 0.54571
 C115 C 0.24913 0.55416 0.52035
 C116 C 0.24952 0.57911 0.51273
 C117 C 0.25038 0.57901 0.48693
 C118 C 0.25045 0.55400 0.47955
 N119 N 0.24970 0.53893 0.50002
 C120 C 0.25038 0.54573 0.45425
 C121 C 0.24976 0.52024 0.44650
 C122 C 0.24623 0.51254 0.42179
 C123 C 0.24638 0.48673 0.42186
 C124 C 0.24997 0.47918 0.44661
 N125 N 0.25245 0.49975 0.46144
 C126 C 0.25071 0.45373 0.45453
 H127 H 0.25025 0.40413 0.47573
 H128 H 0.24785 0.40432 0.52521
 H129 H 0.25755 0.49982 0.48025
 H130 H 0.25471 0.47539 0.59489
 H131 H 0.25542 0.52479 0.59475
 H132 H 0.24933 0.59570 0.52451
 H133 H 0.25076 0.59551 0.47500
 H134 H 0.24376 0.47489 0.40551
 H135 H 0.24152 0.50007 0.51995
 H136 H 0.24351 0.52428 0.40537
 C137 C 0.98740 0.24007 0.07774
 C138 C 1.01322 0.24033 0.07771
 C139 C 1.02064 0.24621 0.05335
 N140 N 1.00019 0.24973 0.03862
 C141 C 0.97986 0.24582 0.05341
 C142 C 1.04579 0.24987 0.04549
 C143 C 1.05295 0.25370 0.02010
 C144 C 1.07660 0.26170 0.01232
 C145 C 1.07648 0.26148 -0.01355
 C146 C 1.05276 0.25338 -0.02097
 N147 N 1.03862 0.24856 -0.00034
 C148 C 1.04537 0.24915 -0.04622
 C149 C 1.02011 0.24578 -0.05390
 C150 C 1.01250 0.23987 -0.07818
 C151 C 0.98668 0.24007 -0.07812
 C152 C 0.97931 0.24606 -0.05379
 N153 N 0.99978 0.24971 -0.03912
 C154 C 0.95415 0.24967 -0.04593
 C155 C 0.94699 0.25348 -0.02055
 C156 C 0.92332 0.26133 -0.01274
 C157 C 0.92347 0.26110 0.01314
 C158 C 0.94722 0.25317 0.02050
 N159 N 0.96137 0.24842 -0.00013
 C160 C 0.95465 0.24906 0.04571
 H161 H 0.97554 0.23641 0.09390
 H162 H 1.02518 0.23688 0.09385
 H163 H 0.97870 0.23945 -0.00025
 H164 H 1.09241 0.26689 0.02408
 H165 H 1.09219 0.26648 -0.02554
 H166 H 1.02433 0.23614 -0.09435
 H167 H 0.97470 0.23650 -0.09421
 H168 H 0.90778 0.26601 0.02516
 H169 H 1.02132 0.23948 -0.00022
 H170 H 0.90747 0.26641 -0.02449
 C171 C 0.48774 0.75004 0.57919
 C172 C 0.51353 0.74911 0.57907
 C173 C 0.52091 0.74886 0.55402
 N174 N 0.50045 0.74956 0.53894
 C175 C 0.48013 0.75028 0.55421
 C176 C 0.54620 0.74878 0.54572
 C177 C 0.55396 0.74926 0.52019
 C178 C 0.57869 0.75267 0.51246
 C179 C 0.57862 0.75243 0.48662
 C180 C 0.55386 0.74891 0.47909
 N181 N 0.53902 0.74656 0.49970
 C182 C 0.54595 0.74812 0.45362
 C183 C 0.52059 0.74859 0.44556
 C184 C 0.51299 0.74900 0.42058
 C185 C 0.48722 0.75041 0.42070
 C186 C 0.47984 0.75073 0.44575
 N187 N 0.50028 0.74964 0.46083
 C188 C 0.45455 0.75117 0.45404
 C189 C 0.44678 0.75030 0.47955
 C190 C 0.42205 0.74678 0.48722
 C191 C 0.42212 0.74653 0.51306
 C192 C 0.44688 0.74994 0.52065
 N193 N 0.46172 0.75264 0.50007
 C194 C 0.45477 0.75041 0.54614
 H195 H 0.47595 0.75037 0.59581
 H196 H 0.52546 0.74880 0.59558
 H197 H 0.48054 0.75767 0.50002
 H198 H 0.59512 0.75538 0.52420
 H199 H 0.59499 0.75495 0.47474
 H200 H 0.52476 0.74851 0.40396
 H201 H 0.47530 0.75095 0.40419
 H202 H 0.40575 0.74383 0.52489
 H203 H 0.52019 0.74154 0.49981
 H204 H 0.40562 0.74428 0.47543
 C205 C 0.07776 0.76021 0.01249
 C206 C 0.07791 0.75998 -0.01333
 C207 C 0.05360 0.75411 -0.02091
 N208 N 0.03873 0.75057 -0.00056
 C209 C 0.05339 0.75446 0.01987
 C210 C 0.04592 0.75048 -0.04612
 C211 C 0.02058 0.74662 -0.05346
 C212 C 0.01298 0.73865 -0.07716
 C213 C -0.01288 0.73879 -0.07722
 C214 C -0.02049 0.74683 -0.05355
 N215 N 0.00004 0.75168 -0.03926
 C216 C -0.04580 0.75095 -0.04632
 C217 C -0.05365 0.75429 -0.02111
 C218 C -0.07801 0.76010 -0.01367
 C219 C -0.07812 0.75992 0.01215
 C220 C -0.05382 0.75404 0.01970
 N221 N -0.03899 0.75044 -0.00067
 C222 C -0.04612 0.75050 0.04493
 C223 C -0.02078 0.74678 0.05228
 C224 C -0.01312 0.73900 0.07604
 C225 C 0.01275 0.73925 0.07606
 C226 C 0.02027 0.74714 0.05232
 N227 N -0.00028 0.75184 0.03802
 C228 C 0.04552 0.75122 0.04504
 H229 H 0.09384 0.76387 0.02446
 H230 H 0.09412 0.76344 -0.02518
 H231 H -0.00029 0.76076 0.02064
 H232 H 0.02486 0.73352 -0.09289
 H233 H -0.02476 0.73379 -0.09300
 H234 H -0.09411 0.76375 -0.02562
 H235 H -0.09430 0.76344 0.02401
 H236 H 0.02467 0.73439 0.09186
 H237 H 0.00001 0.76072 -0.02196
 H238 H -0.02496 0.73393 0.09184
 C239 C 0.48682 0.25082 0.42096
 C240 C 0.51259 0.24940 0.42107
 C241 C 0.51999 0.24903 0.44612
 N242 N 0.49955 0.25009 0.46121
 C243 C 0.47923 0.25117 0.44594
 C244 C 0.54528 0.24856 0.45439
 C245 C 0.55307 0.24941 0.47989
 C246 C 0.57781 0.25287 0.48754
 C247 C 0.57776 0.25314 0.51338
 C248 C 0.55299 0.24981 0.52100
 N249 N 0.53813 0.24713 0.50044
 C250 C 0.54511 0.24940 0.54649
 C251 C 0.51976 0.24956 0.55458
 C252 C 0.51217 0.24990 0.57956
 C253 C 0.48638 0.25082 0.57946
 C254 C 0.47898 0.25099 0.55441
 N255 N 0.49942 0.25023 0.53932
 C256 C 0.45368 0.25101 0.54613
 C257 C 0.44591 0.25046 0.52060
 C258 C 0.42119 0.24697 0.51289
 C259 C 0.42124 0.24719 0.48705
 C260 C 0.44599 0.25078 0.47950
 N261 N 0.46084 0.25319 0.50010
 C262 C 0.45388 0.25160 0.45402
 H263 H 0.47504 0.25134 0.40435
 H264 H 0.52450 0.24890 0.40455
 H265 H 0.47964 0.25829 0.50018
 H266 H 0.59424 0.25532 0.47574
 H267 H 0.59414 0.25582 0.52520
 H268 H 0.52396 0.24963 0.59618
 H269 H 0.47446 0.25118 0.59598
 H270 H 0.40488 0.24461 0.47519
 H271 H 0.51929 0.24216 0.50041
 H272 H 0.40478 0.24423 0.52465
 C273 C 0.98673 0.07906 0.25132
 C274 C 1.01250 0.07928 0.25051
 C275 C 1.02022 0.05434 0.25010
 N276 N 0.99991 0.03903 0.25061
 C277 C 0.97941 0.05402 0.25134
 C278 C 1.04563 0.04633 0.24998
 C279 C 1.05354 0.02084 0.25029
 C280 C 1.07831 0.01318 0.25361
 C281 C 1.07835 -0.01261 0.25319
 C282 C 1.05361 -0.02023 0.24967
 N283 N 1.03868 0.00029 0.24750
 C284 C 1.04584 -0.04570 0.24868
 C285 C 1.02055 -0.05403 0.24908
 C286 C 1.01324 -0.07907 0.24941
 C287 C 0.98748 -0.07928 0.25079
 C288 C 0.97978 -0.05435 0.25115
 N289 N 1.00006 -0.03903 0.25011
 C290 C 0.95436 -0.04635 0.25157
 C291 C 0.94646 -0.02087 0.25070
 C292 C 0.92171 -0.01329 0.24700
 C293 C 0.92169 0.01250 0.24684
 C294 C 0.94639 0.02019 0.25048
 N295 N 0.96130 -0.00028 0.25322
 C296 C 0.95413 0.04569 0.25119
 H297 H 0.97476 0.09551 0.25170
 H298 H 1.02423 0.09593 0.25036
 H299 H 0.98007 -0.00019 0.25841
 H300 H 1.09471 0.02496 0.25636
 H301 H 1.09477 -0.02440 0.25559
 H302 H 1.02520 -0.09552 0.24891
 H303 H 0.97577 -0.09593 0.25128
 H304 H 0.90529 0.02424 0.24406
 H305 H 1.01984 0.00025 0.24254
 H306 H 0.90535 -0.02513 0.24433
 C307 C 0.48691 0.57916 0.75143
 C308 C 0.51271 0.57917 0.75058
 C309 C 0.52020 0.55420 0.75044
 N310 N 0.49980 0.53903 0.75114
 C311 C 0.47941 0.55418 0.75174
 C312 C 0.54553 0.54604 0.75049
 C313 C 0.55338 0.52058 0.75100
 C314 C 0.57811 0.51297 0.75452
 C315 C 0.57816 0.48716 0.75422
 C316 C 0.55345 0.47953 0.75056
 N317 N 0.53853 0.50005 0.74817
 C318 C 0.54565 0.45405 0.74964
 C319 C 0.52032 0.44587 0.75005
 C320 C 0.51282 0.42089 0.75034
 C321 C 0.48705 0.42087 0.75178
 C322 C 0.47957 0.44585 0.75223
 N323 N 0.49995 0.46102 0.75119
 C324 C 0.45424 0.45400 0.75275
 C325 C 0.44636 0.47943 0.75190
 C326 C 0.42159 0.48696 0.74844
 C327 C 0.42155 0.51277 0.74814
 C328 C 0.44629 0.52048 0.75146
 N329 N 0.46122 0.50001 0.75415
 C330 C 0.45408 0.54598 0.75185
 H331 H 0.47506 0.59570 0.75166
 H332 H 0.52457 0.59573 0.75025
 H333 H 0.48006 0.50006 0.75910
 H334 H 0.59448 0.52477 0.75734
 H335 H 0.59456 0.47537 0.75680
 H336 H 0.52466 0.40435 0.74977
 H337 H 0.47520 0.40432 0.75225
 H338 H 0.40513 0.52450 0.74546
 H339 H 0.51974 0.50006 0.74302
 H340 H 0.40520 0.47511 0.74600
 C341 C 0.92161 0.98721 0.75020
 C342 C 0.92162 1.01294 0.74878
 C343 C 0.94664 1.02042 0.74837
 N344 N 0.96181 1.00007 0.74939
 C345 C 0.94662 0.97973 0.75048
 C346 C 0.95482 1.04571 0.74791
 C347 C 0.98032 1.05353 0.74883
 C348 C 0.98789 1.07823 0.75244
 C349 C 1.01371 1.07824 0.75279
 C350 C 1.02143 1.05353 0.74934
 N351 N 1.00089 1.03866 0.74653
 C352 C 1.04698 1.04571 0.74888
 C353 C 1.05515 1.02036 0.74881
 C354 C 1.08017 1.01283 0.74905
 C355 C 1.08015 0.98709 0.74979
 C356 C 1.05512 0.97956 0.74994
 N357 N 1.03997 0.99996 0.74934
 C358 C 1.04690 0.95422 0.74985
 C359 C 1.02133 0.94646 0.74935
 C360 C 1.01351 0.92178 0.74582
 C361 C 0.98769 0.92186 0.74617
 C362 C 0.98021 0.94657 0.74986
 N363 N 1.00085 0.96138 0.75219
 C364 C 0.95476 0.95444 0.75087
 H365 H 0.90503 0.97537 0.75074
 H366 H 0.90507 1.02477 0.74832
 H367 H 1.00093 0.98014 0.75733
 H368 H 0.97605 1.09459 0.75495
 H369 H 1.02547 1.09464 0.75558
 H370 H 1.09676 1.02467 0.74885
 H371 H 1.09672 0.97526 0.75006
 H372 H 0.97578 0.90553 0.74363
 H373 H 1.00093 1.01988 0.74148
 H374 H 1.02520 0.90537 0.74300
 C375 C 0.42068 0.48746 0.24992
 C376 C 0.42085 0.51319 0.24840
 C377 C 0.44590 0.52054 0.24795
 N378 N 0.46095 0.50011 0.24906
 C379 C 0.44564 0.47984 0.25024
 C380 C 0.45423 0.54580 0.24737
 C381 C 0.47975 0.55355 0.24819
 C382 C 0.48746 0.57825 0.25159
 C383 C 0.51329 0.57816 0.25188
 C384 C 0.52085 0.55340 0.24863
 N385 N 0.50025 0.53859 0.24597
 C386 C 0.54632 0.54549 0.24826
 C387 C 0.55435 0.52015 0.24843
 C388 C 0.57931 0.51254 0.24876
 C389 C 0.57915 0.48678 0.24968
 C390 C 0.55409 0.47942 0.24986
 N391 N 0.53905 0.49986 0.24911
 C392 C 0.54575 0.45416 0.24989
 C393 C 0.52021 0.44644 0.24942
 C394 C 0.51242 0.42177 0.24598
 C395 C 0.48659 0.42185 0.24628
 C396 C 0.47911 0.44658 0.24986
 N397 N 0.49975 0.46138 0.25219
 C398 C 0.45366 0.45451 0.25074
 H399 H 0.40405 0.47571 0.25051
 H400 H 0.40435 0.52511 0.24789
 H401 H 0.49989 0.48016 0.25727
 H402 H 0.47570 0.59468 0.25399
 H403 H 0.52515 0.59450 0.25452
 H404 H 0.59595 0.52429 0.24848
 H405 H 0.59564 0.47485 0.25004
 H406 H 0.47467 0.40553 0.24376
 H407 H 0.50017 0.51977 0.24107
 H408 H 0.52412 0.40535 0.24322
 O409 O 0.24976 0.18486 0.21454
 O410 O 0.27698 0.17752 0.24959
 O411 O 0.18395 0.21513 0.25045
 O412 O 0.17446 0.24770 0.27494
 O413 O 0.21465 0.25050 0.18394
 O414 O 0.24958 0.27791 0.17692
 O415 O 0.25007 0.28439 0.31475
 O416 O 0.22068 0.25158 0.32149
 O417 O 0.31414 0.25087 0.28440
 O418 O 0.32222 0.22263 0.24855
 O419 O 0.28382 0.31498 0.25058
 O420 O 0.24810 0.32295 0.22222
 O421 O 0.25008 0.31465 0.28456
 O422 O 0.22105 0.32226 0.24856
 O423 O 0.31410 0.28490 0.25062
 O424 O 0.32182 0.24901 0.22164
 O425 O 0.28393 0.25105 0.31464
 O426 O 0.24931 0.22178 0.32221
 O427 O 0.24998 0.21507 0.18425
 O428 O 0.27770 0.25024 0.17729
 O429 O 0.18428 0.25011 0.21406
 O430 O 0.17841 0.27953 0.24920
 O431 O 0.21416 0.18490 0.24989
 O432 O 0.24919 0.17774 0.27757
 Zr433 Zr 0.24828 0.20501 0.24861
 O434 O 0.27186 0.22648 0.27209
 Zr435 Zr 0.20412 0.24913 0.24839
 O436 O 0.22561 0.27239 0.27230
 Zr437 Zr 0.24856 0.24913 0.20437
 O438 O 0.27188 0.27274 0.22605
 Zr439 Zr 0.24989 0.25050 0.29446
 O440 O 0.22599 0.22692 0.27297
 Zr441 Zr 0.29410 0.25075 0.25023
 O442 O 0.27280 0.22692 0.22644
 Zr443 Zr 0.24978 0.29476 0.25032
 O444 O 0.22623 0.27342 0.22622
 O445 O 0.22501 0.22579 0.22508
 O446 O 0.27343 0.27420 0.27387
 C447 C 0.25045 0.19196 0.19139
 C448 C 0.19105 0.19202 0.25077
 C449 C 0.19148 0.25083 0.19095
 C450 C 0.25021 0.30751 0.30769
 C451 C 0.30705 0.25109 0.30753
 C452 C 0.30696 0.30797 0.25075
 H453 H 0.28234 0.21506 0.28235
 H454 H 0.28225 0.28320 0.21469
 H455 H 0.21428 0.21498 0.21435
 H456 H 0.21430 0.28260 0.28295
 H457 H 0.20777 0.23931 0.31597
 H458 H 0.17995 0.25729 0.28991
 H459 H 0.31858 0.26286 0.20964
 H460 H 0.29087 0.23849 0.18321
 H461 H 0.26265 0.20948 0.31819
 H462 H 0.23755 0.18368 0.29084
 H463 H 0.26122 0.31919 0.20957
 H464 H 0.23826 0.29138 0.18299
 H465 H 0.29056 0.18366 0.23840
 H466 H 0.31847 0.21002 0.26172
 H467 H 0.18357 0.29139 0.23578
 H468 H 0.20914 0.31900 0.26250
 O469 O 0.75020 0.81530 0.21441
 O470 O 0.72298 0.82254 0.24942
 O471 O 0.81598 0.78491 0.25036
 O472 O 0.82543 0.75226 0.27481
 O473 O 0.78541 0.74980 0.18374
 O474 O 0.75051 0.72239 0.17660
 O475 O 0.74972 0.71547 0.31442
 O476 O 0.77910 0.74823 0.32129
 O477 O 0.68573 0.74905 0.28401
 O478 O 0.67770 0.77741 0.24818
 O479 O 0.71611 0.68506 0.25011
 O480 O 0.75190 0.67718 0.22185
 O481 O 0.74976 0.68531 0.28420
 O482 O 0.77890 0.67780 0.24825
 O483 O 0.68583 0.71514 0.25014
 O484 O 0.67817 0.75114 0.22124
 O485 O 0.71588 0.74880 0.31430
 O486 O 0.75051 0.77807 0.32195
 O487 O 0.75004 0.78520 0.18406
 O488 O 0.72238 0.75003 0.17697
 O489 O 0.81573 0.75007 0.21391
 O490 O 0.82152 0.72052 0.24902
 O491 O 0.78577 0.81514 0.24977
 O492 O 0.75070 0.82219 0.27745
 Zr493 Zr 0.75165 0.79504 0.24843
 O494 O 0.72802 0.77350 0.27182
 Zr495 Zr 0.79582 0.75093 0.24821
 O496 O 0.77428 0.72759 0.27205
 Zr497 Zr 0.75146 0.75107 0.20411
 O498 O 0.72810 0.72739 0.22570
 Zr499 Zr 0.74996 0.74941 0.29418
 O500 O 0.77391 0.77306 0.27279
 Zr501 Zr 0.70583 0.74929 0.24987
 O502 O 0.72718 0.77321 0.22618
 Zr503 Zr 0.75016 0.70529 0.24999
 O504 O 0.77375 0.72671 0.22596
 O505 O 0.77497 0.77435 0.22490
 O506 O 0.72646 0.72577 0.27352
 C507 C 0.74953 0.80828 0.19125
 C508 C 0.80888 0.80803 0.25069
 C509 C 0.80856 0.74943 0.19079
 C510 C 0.74958 0.69238 0.30733
 C511 C 0.69278 0.74877 0.30716
 C512 C 0.69297 0.69207 0.25022
 H513 H 0.71752 0.78488 0.28207
 H514 H 0.71776 0.71697 0.21430
 H515 H 0.78571 0.78519 0.21421
 H516 H 0.78556 0.71735 0.28271
 H517 H 0.79204 0.76048 0.31581
 H518 H 0.81991 0.74263 0.28976
 H519 H 0.68144 0.73734 0.20921
 H520 H 0.70919 0.76176 0.18287
 H521 H 0.73715 0.79036 0.31796
 H522 H 0.76237 0.81623 0.29070
 H523 H 0.73884 0.68101 0.20915
 H524 H 0.76182 0.70891 0.18268
 H525 H 0.70938 0.81642 0.23825
 H526 H 0.68141 0.78997 0.26140
 H527 H 0.81639 0.70871 0.23557
 H528 H 0.79076 0.68101 0.26224
 O529 O 0.74977 0.18468 0.78545
 O530 O 0.72247 0.17735 0.75051
 O531 O 0.81543 0.21526 0.74939
 O532 O 0.82486 0.24797 0.72501
 O533 O 0.78489 0.25028 0.81608
 O534 O 0.74998 0.27759 0.82325
 O535 O 0.74908 0.28448 0.68541
 O536 O 0.77843 0.25179 0.67852
 O537 O 0.68510 0.25071 0.71591
 O538 O 0.67710 0.22243 0.75175
 O539 O 0.71552 0.31484 0.74970
 O540 O 0.75126 0.32284 0.77793
 O541 O 0.74917 0.31465 0.71562
 O542 O 0.77831 0.32221 0.75161
 O543 O 0.68524 0.28471 0.74972
 O544 O 0.67765 0.24868 0.77872
 O545 O 0.71522 0.25105 0.68559
 O546 O 0.74986 0.22188 0.67791
 O547 O 0.74959 0.21478 0.81580
 O548 O 0.72185 0.24986 0.82289
 O549 O 0.81518 0.25007 0.78588
 O550 O 0.82089 0.27968 0.75075
 O551 O 0.78526 0.18494 0.75001
 O552 O 0.75011 0.17779 0.72241
 Zr553 Zr 0.75112 0.20494 0.75143
 O554 O 0.72743 0.22642 0.72807
 Zr555 Zr 0.79524 0.24918 0.75160
 O556 O 0.77366 0.27244 0.72777
 Zr557 Zr 0.75093 0.24892 0.79574
 O558 O 0.72754 0.27254 0.77416
 Zr559 Zr 0.74932 0.25055 0.70566
 O560 O 0.77332 0.22698 0.72704
 Zr561 Zr 0.70525 0.25059 0.75002
 O562 O 0.72664 0.22671 0.77370
 Zr563 Zr 0.74956 0.29468 0.74985
 O564 O 0.77318 0.27333 0.77386
 O565 O 0.77444 0.22570 0.77492
 O566 O 0.72584 0.27415 0.72634
 C567 C 0.74914 0.19169 0.80861
 C568 C 0.80836 0.19213 0.74905
 C569 C 0.80804 0.25070 0.80901
 C570 C 0.74898 0.30757 0.69249
 C571 C 0.69212 0.25099 0.69276
 C572 C 0.69238 0.30779 0.74960
 H573 H 0.71692 0.21501 0.71783
 H574 H 0.71720 0.28295 0.78557
 H575 H 0.78521 0.21489 0.78559
 H576 H 0.78493 0.28271 0.71709
 H577 H 0.79138 0.23957 0.68398
 H578 H 0.81927 0.25747 0.71001
 H579 H 0.68087 0.26256 0.79068
 H580 H 0.70868 0.23808 0.81699
 H581 H 0.73650 0.20957 0.68192
 H582 H 0.76177 0.18376 0.70914
 H583 H 0.73827 0.31894 0.79069
 H584 H 0.76127 0.29111 0.81716
 H585 H 0.70889 0.18343 0.76172
 H586 H 0.68089 0.20980 0.73864
 H587 H 0.81584 0.29142 0.76429
 H588 H 0.79015 0.31905 0.73759
 O589 O 0.25034 0.81547 0.78508
 O590 O 0.27770 0.82270 0.75010
 O591 O 0.18458 0.78513 0.74902
 O592 O 0.17516 0.75253 0.72449
 O593 O 0.21491 0.74993 0.81569
 O594 O 0.24978 0.72251 0.82293
 O595 O 0.25080 0.71567 0.68514
 O596 O 0.22149 0.74850 0.67820
 O597 O 0.31483 0.74928 0.71563
 O598 O 0.32282 0.77759 0.75147
 O599 O 0.28423 0.68524 0.74955
 O600 O 0.24837 0.67737 0.77776
 O601 O 0.25062 0.68550 0.71540
 O602 O 0.22144 0.67798 0.75131
 O603 O 0.31457 0.71531 0.74953
 O604 O 0.32228 0.75127 0.77841
 O605 O 0.28473 0.74905 0.68528
 O606 O 0.25024 0.77823 0.67747
 O607 O 0.25035 0.78534 0.81545
 O608 O 0.27794 0.75019 0.82262
 O609 O 0.18468 0.75023 0.78543
 O610 O 0.17888 0.72076 0.75036
 O611 O 0.21486 0.81535 0.74964
 O612 O 0.24999 0.82243 0.72203
 Zr613 Zr 0.24893 0.79523 0.75106
 O614 O 0.27255 0.77370 0.72772
 Zr615 Zr 0.20467 0.75114 0.75120
 O616 O 0.22621 0.72779 0.72744
 Zr617 Zr 0.24892 0.75122 0.79541
 O618 O 0.27228 0.72756 0.77389
 Zr619 Zr 0.25062 0.74962 0.70533
 O620 O 0.22669 0.77328 0.72665
 Zr621 Zr 0.29465 0.74946 0.74973
 O622 O 0.27330 0.77337 0.77337
 Zr623 Zr 0.25023 0.70548 0.74958
 O624 O 0.22663 0.72690 0.77352
 O625 O 0.22551 0.77452 0.77454
 O626 O 0.27403 0.72596 0.72607
 C627 C 0.25092 0.80843 0.80824
 C628 C 0.19173 0.80824 0.74870
 C629 C 0.19177 0.74957 0.80857
 C630 C 0.25084 0.69257 0.69226
 C631 C 0.30782 0.74904 0.69247
 C632 C 0.30739 0.69224 0.74947
 H633 H 0.28310 0.78508 0.71748
 H634 H 0.28258 0.71713 0.78532
 H635 H 0.21477 0.78536 0.78520
 H636 H 0.21492 0.71756 0.71678
 H637 H 0.20862 0.76082 0.68362
 H638 H 0.18067 0.74285 0.70959
 H639 H 0.31894 0.73747 0.79045
 H640 H 0.29118 0.76189 0.81670
 H641 H 0.26346 0.79064 0.68161
 H642 H 0.23835 0.81649 0.70875
 H643 H 0.26142 0.68118 0.79048
 H644 H 0.23840 0.70906 0.81688
 H645 H 0.29122 0.81659 0.76136
 H646 H 0.31917 0.79016 0.73824
 H647 H 0.18396 0.70892 0.76382
 H648 H 0.20957 0.68124 0.73734
 O649 O 0.24872 0.31507 0.71601
 O650 O 0.22149 0.32235 0.75101
 O651 O 0.31451 0.28478 0.75204
 O652 O 0.32407 0.25218 0.77645
 O653 O 0.28394 0.24955 0.68546
 O654 O 0.24909 0.22211 0.67836
 O655 O 0.24843 0.21542 0.81620
 O656 O 0.27772 0.24826 0.82301
 O657 O 0.18435 0.24888 0.78572
 O658 O 0.17620 0.27707 0.74992
 O659 O 0.21486 0.18486 0.75195
 O660 O 0.25059 0.17693 0.72375
 O661 O 0.24852 0.18522 0.78603
 O662 O 0.27765 0.17771 0.75005
 O663 O 0.18452 0.21488 0.75192
 O664 O 0.17682 0.25087 0.72292
 O665 O 0.21450 0.24871 0.81602
 O666 O 0.24907 0.27802 0.82364
 O667 O 0.24857 0.28490 0.68573
 O668 O 0.22091 0.24970 0.67873
 O669 O 0.31427 0.24992 0.71562
 O670 O 0.32013 0.22041 0.75080
 O671 O 0.28429 0.31500 0.75138
 O672 O 0.24920 0.32207 0.77904
 Zr673 Zr 0.25019 0.29487 0.75007
 O674 O 0.22660 0.27334 0.77350
 Zr675 Zr 0.29440 0.25080 0.74992
 O676 O 0.27292 0.22749 0.77381
 Zr677 Zr 0.25002 0.25082 0.70584
 O678 O 0.22673 0.22714 0.72747
 Zr679 Zr 0.24857 0.24933 0.79591
 O680 O 0.27248 0.27296 0.77446
 Zr681 Zr 0.20444 0.24906 0.75160
 O682 O 0.22574 0.27298 0.72787
 Zr683 Zr 0.24884 0.20513 0.75179
 O684 O 0.27237 0.22653 0.72771
 O685 O 0.27352 0.27416 0.72658
 O686 O 0.22511 0.22561 0.77529
 C687 C 0.24806 0.30799 0.69287
 C688 C 0.30740 0.30789 0.75232
 C689 C 0.30708 0.24924 0.69251
 C690 C 0.24837 0.19233 0.80915
 C691 C 0.19140 0.24867 0.80886
 C692 C 0.19171 0.19183 0.75202
 H693 H 0.21608 0.28473 0.78373
 H694 H 0.21640 0.21668 0.71609
 H695 H 0.28425 0.28500 0.71587
 H696 H 0.28423 0.21729 0.78449
 H697 H 0.29063 0.26053 0.81751
 H698 H 0.31853 0.24269 0.79148
 H699 H 0.18003 0.23698 0.71099
 H700 H 0.20773 0.26146 0.68460
 H701 H 0.23572 0.29032 0.81958
 H702 H 0.26090 0.31617 0.79229
 H703 H 0.23760 0.18078 0.71098
 H704 H 0.26043 0.20865 0.68444
 H705 H 0.20791 0.31622 0.73982
 H706 H 0.18003 0.28978 0.76294
 H707 H 0.31508 0.20862 0.73730
 H708 H 0.28950 0.18094 0.76405
 O709 O 0.75114 0.68465 0.71544
 O710 O 0.77843 0.67727 0.75043
 O711 O 0.68550 0.71508 0.75149
 O712 O 0.67610 0.74769 0.77593
 O713 O 0.71608 0.75025 0.68485
 O714 O 0.75102 0.77763 0.67768
 O715 O 0.75190 0.78429 0.81543
 O716 O 0.72248 0.75153 0.82236
 O717 O 0.81581 0.75059 0.78496
 O718 O 0.82381 0.72236 0.74918
 O719 O 0.78546 0.81471 0.75117
 O720 O 0.74967 0.82267 0.72284
 O721 O 0.75183 0.81447 0.78517
 O722 O 0.72274 0.82212 0.74929
 O723 O 0.81570 0.78460 0.75119
 O724 O 0.82327 0.74861 0.72217
 O725 O 0.78570 0.75089 0.81529
 O726 O 0.75107 0.72170 0.82305
 O727 O 0.75134 0.71484 0.68512
 O728 O 0.77908 0.74991 0.67800
 O729 O 0.68579 0.74995 0.71505
 O730 O 0.68005 0.77946 0.75017
 O731 O 0.71564 0.68478 0.75086
 O732 O 0.75073 0.67759 0.77848
 Zr733 Zr 0.74979 0.70482 0.74948
 O734 O 0.77348 0.72627 0.77285
 Zr735 Zr 0.70571 0.74901 0.74932
 O736 O 0.72729 0.77227 0.77312
 Zr737 Zr 0.75003 0.74889 0.70518
 O738 O 0.77344 0.77248 0.72673
 Zr739 Zr 0.75160 0.75036 0.79523
 O740 O 0.72760 0.72679 0.77387
 Zr741 Zr 0.79568 0.75048 0.75087
 O742 O 0.77428 0.72664 0.72720
 Zr743 Zr 0.75141 0.79454 0.75101
 O744 O 0.72776 0.77322 0.72703
 O745 O 0.72650 0.72561 0.72599
 O746 O 0.77510 0.77400 0.77452
 C747 C 0.75177 0.69174 0.69229
 C748 C 0.69255 0.69195 0.75180
 C749 C 0.69295 0.75062 0.69193
 C750 C 0.75202 0.80738 0.80830
 C751 C 0.80879 0.75086 0.80811
 C752 C 0.80858 0.80767 0.75130
 H753 H 0.78397 0.71486 0.78309
 H754 H 0.78379 0.78291 0.71532
 H755 H 0.71572 0.71480 0.71531
 H756 H 0.71603 0.78251 0.78379
 H757 H 0.70954 0.73927 0.81691
 H758 H 0.68167 0.75723 0.79090
 H759 H 0.82011 0.76256 0.71024
 H760 H 0.79226 0.73817 0.68390
 H761 H 0.76434 0.70934 0.81898
 H762 H 0.73912 0.68355 0.79176
 H763 H 0.76281 0.81893 0.71021
 H764 H 0.73970 0.79110 0.68374
 H765 H 0.79199 0.68336 0.73919
 H766 H 0.81999 0.70970 0.76228
 H767 H 0.68513 0.79125 0.73666
 H768 H 0.71082 0.81884 0.76322
 O769 O 0.24946 0.68488 0.28428
 O770 O 0.22215 0.67762 0.24930
 O771 O 0.31516 0.71542 0.24826
 O772 O 0.32465 0.74809 0.22388
 O773 O 0.28462 0.75046 0.31492
 O774 O 0.24973 0.77776 0.32212
 O775 O 0.24893 0.78477 0.18431
 O776 O 0.27826 0.75202 0.17739
 O777 O 0.18492 0.75102 0.21478
 O778 O 0.17684 0.72276 0.25054
 O779 O 0.21543 0.81508 0.24859
 O780 O 0.25117 0.82300 0.27688
 O781 O 0.24905 0.81489 0.21457
 O782 O 0.27820 0.82240 0.25053
 O783 O 0.18511 0.78498 0.24856
 O784 O 0.17747 0.74892 0.27759
 O785 O 0.21504 0.75136 0.18446
 O786 O 0.24962 0.72220 0.17670
 O787 O 0.24931 0.71499 0.31462
 O788 O 0.22160 0.75007 0.32173
 O789 O 0.31492 0.75023 0.28473
 O790 O 0.32072 0.77980 0.24961
 O791 O 0.28496 0.68512 0.24886
 O792 O 0.24985 0.67800 0.22124
 Zr793 Zr 0.25085 0.70516 0.25026
 O794 O 0.22721 0.72667 0.22690
 Zr795 Zr 0.29501 0.74935 0.25045
 O796 O 0.27349 0.77265 0.22664
 Zr797 Zr 0.25068 0.74911 0.29458
 O798 O 0.22734 0.77278 0.27303
 Zr799 Zr 0.24914 0.75080 0.20452
 O800 O 0.27309 0.72718 0.22588
 Zr801 Zr 0.20505 0.75085 0.24888
 O802 O 0.22639 0.72693 0.27253
 Zr803 Zr 0.24942 0.79489 0.24875
 O804 O 0.27299 0.77350 0.27275
 O805 O 0.27418 0.72589 0.27377
 O806 O 0.22568 0.77440 0.22522
 C807 C 0.24883 0.69191 0.30743
 C808 C 0.30806 0.69230 0.24792
 C809 C 0.30776 0.75087 0.30785
 C810 C 0.24885 0.80785 0.19144
 C811 C 0.19195 0.75131 0.19164
 C812 C 0.19229 0.80805 0.24845
 H813 H 0.21669 0.71528 0.21665
 H814 H 0.21701 0.78319 0.28444
 H815 H 0.28493 0.71506 0.28444
 H816 H 0.28478 0.78291 0.21598
 H817 H 0.29118 0.73976 0.18284
 H818 H 0.31909 0.75761 0.20888
 H819 H 0.18064 0.76285 0.28950
 H820 H 0.20842 0.73830 0.31583
 H821 H 0.23633 0.70982 0.18077
 H822 H 0.26149 0.68399 0.20797
 H823 H 0.23810 0.81917 0.28958
 H824 H 0.26102 0.79128 0.31606
 H825 H 0.20861 0.68368 0.26055
 H826 H 0.18068 0.71007 0.23750
 H827 H 0.31567 0.79156 0.26313
 H828 H 0.29003 0.81924 0.23651
 O829 O 0.75056 0.31493 0.28473
 O830 O 0.77775 0.32231 0.24969
 O831 O 0.68476 0.28450 0.24880
 O832 O 0.67528 0.25191 0.22434
 O833 O 0.71534 0.24933 0.31538
 O834 O 0.75024 0.22197 0.32253
 O835 O 0.75098 0.21530 0.18476
 O836 O 0.72159 0.24804 0.17787
 O837 O 0.81496 0.24894 0.21514
 O838 O 0.82306 0.27720 0.25092
 O839 O 0.78451 0.18485 0.24904
 O840 O 0.74873 0.17689 0.27733
 O841 O 0.75090 0.18511 0.21500
 O842 O 0.72177 0.17748 0.25092
 O843 O 0.81482 0.21495 0.24898
 O844 O 0.82252 0.25094 0.27792
 O845 O 0.78480 0.24872 0.18486
 O846 O 0.75023 0.27788 0.17715
 O847 O 0.75071 0.28476 0.31506
 O848 O 0.77835 0.24966 0.32217
 O849 O 0.68502 0.24960 0.28521
 O850 O 0.67919 0.22012 0.25009
 O851 O 0.71497 0.31479 0.24940
 O852 O 0.75003 0.32197 0.22170
 Zr853 Zr 0.74908 0.29475 0.25071
 O854 O 0.77270 0.27329 0.22732
 Zr855 Zr 0.70491 0.25057 0.25092
 O856 O 0.72642 0.22731 0.22709
 Zr857 Zr 0.74927 0.25069 0.29502
 O858 O 0.77261 0.22710 0.27344
 Zr859 Zr 0.75074 0.24922 0.20496
 O860 O 0.72681 0.27279 0.22635
 Zr861 Zr 0.79488 0.24908 0.24927
 O862 O 0.77355 0.27292 0.27296
 Zr863 Zr 0.75051 0.20503 0.24918
 O864 O 0.72694 0.22636 0.27319
 O865 O 0.72577 0.27397 0.27423
 O866 O 0.77422 0.22557 0.22564
 C867 C 0.75123 0.30785 0.30788
 C868 C 0.69186 0.30762 0.24849
 C869 C 0.69220 0.24892 0.30832
 C870 C 0.75109 0.19221 0.19188
 C871 C 0.80791 0.24873 0.19200
 C872 C 0.80765 0.19188 0.24892
 H873 H 0.78320 0.28471 0.21707
 H874 H 0.78295 0.21667 0.28485
 H875 H 0.71503 0.28478 0.28493
 H876 H 0.71512 0.21707 0.21644
 H877 H 0.70868 0.26031 0.18332
 H878 H 0.68080 0.24236 0.20937
 H879 H 0.81931 0.23705 0.28989
 H880 H 0.79156 0.26140 0.31624
 H881 H 0.76350 0.29026 0.18123
 H882 H 0.73834 0.31604 0.20846
 H883 H 0.76183 0.18068 0.29001
 H884 H 0.73888 0.20850 0.31649
 H885 H 0.79135 0.31621 0.26087
 H886 H 0.81929 0.28983 0.23778
 H887 H 0.68428 0.20831 0.26356
 H888 H 0.70989 0.18071 0.23695
 C889 C 0.25144 0.12801 0.15965
 C890 C 0.25161 0.13476 0.13418
 C891 C 0.25170 0.16018 0.12739
 C892 C 0.25150 0.17880 0.14596
 C893 C 0.25058 0.06466 0.06427
 C894 C 0.25124 0.14658 0.17827
 C895 C 0.25148 0.11560 0.11503
 C896 C 0.25127 0.09955 0.09901
 C897 C 0.25093 0.08075 0.08027
 C898 C 0.25120 0.17223 0.17166
 H899 H 0.25136 0.10838 0.16512
 H900 H 0.25181 0.16562 0.10773
 H901 H 0.25145 0.19832 0.14016
 H902 H 0.25099 0.14081 0.19782
 C903 C 0.75223 0.62786 0.66055
 C904 C 0.75227 0.63466 0.63511
 C905 C 0.75251 0.66007 0.62832
 C906 C 0.75256 0.67866 0.64690
 C907 C 0.75009 0.56487 0.56513
 C908 C 0.75228 0.64639 0.67918
 C909 C 0.75182 0.61558 0.61595
 C910 C 0.75132 0.59961 0.59990
 C911 C 0.75066 0.58090 0.58114
 C912 C 0.75236 0.67204 0.67258
 H913 H 0.75203 0.60822 0.66599
 H914 H 0.75253 0.66553 0.60867
 H915 H 0.75260 0.69818 0.64112
 H916 H 0.75210 0.64061 0.69873
 C917 C 0.74835 0.87236 0.15972
 C918 C 0.74823 0.86572 0.13424
 C919 C 0.74826 0.84033 0.12736
 C920 C 0.74852 0.82163 0.14588
 C921 C 0.74876 0.93579 0.06426
 C922 C 0.74861 0.85371 0.17827
 C923 C 0.74827 0.88495 0.11515
 C924 C 0.74838 0.90103 0.09915
 C925 C 0.74857 0.91980 0.08037
 C926 C 0.74875 0.82809 0.17158
 H927 H 0.74834 0.89196 0.16524
 H928 H 0.74818 0.83499 0.10769
 H929 H 0.74865 0.80214 0.14002
 H930 H 0.74881 0.85939 0.19784
 C931 C 0.24688 0.37195 0.66114
 C932 C 0.24680 0.36522 0.63569
 C933 C 0.24685 0.33981 0.62890
 C934 C 0.24708 0.32118 0.64747
 C935 C 0.24750 0.43497 0.56545
 C936 C 0.24711 0.35337 0.67976
 C937 C 0.24688 0.38436 0.61653
 C938 C 0.24703 0.40036 0.60046
 C939 C 0.24727 0.41905 0.58161
 C940 C 0.24728 0.32773 0.67315
 H941 H 0.24685 0.39157 0.66659
 H942 H 0.24680 0.33440 0.60924
 H943 H 0.24723 0.30167 0.64168
 H944 H 0.24728 0.35911 0.69931
 C945 C 0.74845 0.12761 0.84015
 C946 C 0.74847 0.13424 0.86563
 C947 C 0.74838 0.15963 0.87250
 C948 C 0.74840 0.17833 0.85399
 C949 C 0.75028 0.06416 0.93558
 C950 C 0.74846 0.14626 0.82159
 C951 C 0.74883 0.11501 0.88471
 C952 C 0.74923 0.09893 0.90071
 C953 C 0.74978 0.08015 0.91948
 C954 C 0.74851 0.17188 0.82828
 H955 H 0.74853 0.10801 0.83462
 H956 H 0.74841 0.16497 0.89218
 H957 H 0.74846 0.19783 0.85985
 H958 H 0.74858 0.14058 0.80202
 C959 C 0.24817 0.62789 0.33908
 C960 C 0.24806 0.63460 0.36454
 C961 C 0.24788 0.65999 0.37136
 C962 C 0.24792 0.67865 0.35281
 C963 C 0.24981 0.56484 0.43476
 C964 C 0.24822 0.64650 0.32048
 C965 C 0.24840 0.61544 0.38368
 C966 C 0.24879 0.59944 0.39975
 C967 C 0.24933 0.58076 0.41860
 C968 C 0.24817 0.67213 0.32712
 H969 H 0.24833 0.60828 0.33360
 H970 H 0.24781 0.66538 0.39103
 H971 H 0.24791 0.69815 0.35863
 H972 H 0.24843 0.64078 0.30093
 C973 C 0.25199 0.84041 0.87215
 C974 C 0.25202 0.86581 0.86528
 C975 C 0.25199 0.87248 0.83979
 C976 C 0.25182 0.85385 0.82123
 C977 C 0.25079 0.93607 0.93500
 C978 C 0.25182 0.82173 0.85363
 C979 C 0.25185 0.88502 0.88437
 C980 C 0.25160 0.90111 0.90034
 C981 C 0.25120 0.91996 0.91904
 C982 C 0.25166 0.82822 0.82792
 H983 H 0.25200 0.83502 0.89182
 H984 H 0.25199 0.89209 0.83426
 H985 H 0.25167 0.85956 0.80166
 H986 H 0.25168 0.80223 0.85949
 C987 C 0.75258 0.33964 0.37179
 C988 C 0.75259 0.36504 0.36495
 C989 C 0.75243 0.37179 0.33949
 C990 C 0.75216 0.35321 0.32090
 C991 C 0.75200 0.43506 0.43472
 C992 C 0.75231 0.32102 0.35325
 C993 C 0.75254 0.38418 0.38405
 C994 C 0.75242 0.40021 0.40004
 C995 C 0.75221 0.41899 0.41875
 C996 C 0.75203 0.32758 0.32756
 H997 H 0.75269 0.33423 0.39146
 H998 H 0.75242 0.39141 0.33400
 H999 H 0.75192 0.35896 0.30134
 H1000 H 0.75220 0.30150 0.35907
 C1001 C 0.15990 0.25192 0.12681
 C1002 C 0.13443 0.25171 0.13349
 C1003 C 0.12758 0.25148 0.15892
 C1004 C 0.14610 0.25136 0.17762
 C1005 C 0.06424 0.25038 0.06358
 C1006 C 0.17848 0.25180 0.14546
 C1007 C 0.11531 0.25150 0.11428
 C1008 C 0.09926 0.25123 0.09824
 C1009 C 0.08040 0.25080 0.07952
 C1010 C 0.17181 0.25146 0.17113
 H1011 H 0.16542 0.25208 0.10717
 H1012 H 0.10791 0.25130 0.16431
 H1013 H 0.14026 0.25107 0.19715
 H1014 H 0.19804 0.25185 0.13975
 C1015 C 0.62901 0.75109 0.66006
 C1016 C 0.63583 0.75116 0.63463
 C1017 C 0.66128 0.75136 0.62788
 C1018 C 0.67988 0.75137 0.64649
 C1019 C 0.56568 0.74936 0.56484
 C1020 C 0.64756 0.75110 0.67872
 C1021 C 0.61671 0.75079 0.61547
 C1022 C 0.60066 0.75039 0.59946
 C1023 C 0.58182 0.74985 0.58077
 C1024 C 0.67325 0.75117 0.67216
 H1025 H 0.60935 0.75092 0.66548
 H1026 H 0.66676 0.75140 0.60823
 H1027 H 0.69944 0.75140 0.64074
 H1028 H 0.64175 0.75092 0.69826
 C1029 C 0.12769 0.74883 0.84023
 C1030 C 0.13438 0.74879 0.86570
 C1031 C 0.15982 0.74876 0.87254
 C1032 C 0.17851 0.74885 0.85400
 C1033 C 0.06413 0.75002 0.93556
 C1034 C 0.14632 0.74892 0.82165
 C1035 C 0.11516 0.74900 0.88481
 C1036 C 0.09905 0.74926 0.90079
 C1037 C 0.08020 0.74965 0.91952
 C1038 C 0.17199 0.74899 0.82829
 H1039 H 0.10805 0.74887 0.83473
 H1040 H 0.16522 0.74874 0.89221
 H1041 H 0.19804 0.74893 0.85982
 H1042 H 0.14059 0.74905 0.80209
 C1043 C 0.66049 0.24785 0.37235
 C1044 C 0.63505 0.24786 0.36558
 C1045 C 0.62825 0.24798 0.34014
 C1046 C 0.64681 0.24818 0.32150
 C1047 C 0.56476 0.24838 0.43527
 C1048 C 0.67911 0.24805 0.35375
 C1049 C 0.61590 0.24791 0.38472
 C1050 C 0.59981 0.24802 0.40070
 C1051 C 0.58093 0.24821 0.41935
 C1052 C 0.67250 0.24826 0.32808
 H1053 H 0.66595 0.24777 0.39200
 H1054 H 0.60859 0.24799 0.33471
 H1055 H 0.64101 0.24836 0.30196
 H1056 H 0.69866 0.24814 0.35952
 C1057 C 0.87253 0.74880 0.15888
 C1058 C 0.86573 0.74872 0.13344
 C1059 C 0.84026 0.74861 0.12671
 C1060 C 0.82166 0.74868 0.14533
 C1061 C 0.93568 0.75003 0.06327
 C1062 C 0.85397 0.74888 0.17755
 C1063 C 0.88487 0.74894 0.11424
 C1064 C 0.90090 0.74923 0.09818
 C1065 C 0.91967 0.74964 0.07937
 C1066 C 0.82828 0.74888 0.17100
 H1067 H 0.89219 0.74890 0.16430
 H1068 H 0.83478 0.74856 0.10706
 H1069 H 0.80210 0.74871 0.13958
 H1070 H 0.85978 0.74905 0.19708
 C1071 C 0.33867 0.24854 0.62842
 C1072 C 0.36413 0.24872 0.63514
 C1073 C 0.37098 0.24878 0.66057
 C1074 C 0.35245 0.24877 0.67924
 C1075 C 0.43421 0.25045 0.56526
 C1076 C 0.32009 0.24852 0.64706
 C1077 C 0.38323 0.24907 0.61595
 C1078 C 0.39927 0.24946 0.59992
 C1079 C 0.41808 0.24998 0.58120
 C1080 C 0.32676 0.24871 0.67272
 H1081 H 0.33317 0.24850 0.60878
 H1082 H 0.39065 0.24894 0.66596
 H1083 H 0.35829 0.24894 0.69878
 H1084 H 0.30053 0.24850 0.64133
 C1085 C 0.87204 0.25143 0.84083
 C1086 C 0.86528 0.25144 0.86629
 C1087 C 0.83982 0.25147 0.87305
 C1088 C 0.82119 0.25140 0.85446
 C1089 C 0.93568 0.25012 0.93600
 C1090 C 0.85346 0.25136 0.82219
 C1091 C 0.88446 0.25119 0.88544
 C1092 C 0.90057 0.25090 0.90142
 C1093 C 0.91949 0.25050 0.92009
 C1094 C 0.82777 0.25128 0.82877
 H1095 H 0.89170 0.25140 0.83538
 H1096 H 0.83437 0.25146 0.89271
 H1097 H 0.80164 0.25132 0.86023
 H1098 H 0.85924 0.25125 0.80265
 C1099 C 0.37169 0.75176 0.33971
 C1100 C 0.36487 0.75187 0.36514
 C1101 C 0.33942 0.75188 0.37189
 C1102 C 0.32082 0.75170 0.35328
 C1103 C 0.43506 0.75135 0.43492
 C1104 C 0.35314 0.75157 0.32105
 C1105 C 0.38400 0.75181 0.38430
 C1106 C 0.40006 0.75170 0.40031
 C1107 C 0.41891 0.75152 0.41899
 C1108 C 0.32745 0.75149 0.32761
 H1109 H 0.39135 0.75173 0.33429
 H1110 H 0.33395 0.75195 0.39154
 H1111 H 0.30126 0.75161 0.35904
 H1112 H 0.35895 0.75139 0.30152
 C1113 C 0.15931 0.12803 0.25190
 C1114 C 0.13385 0.13473 0.25200
 C1115 C 0.12705 0.16014 0.25204
 C1116 C 0.14562 0.17880 0.25185
 C1117 C 0.06394 0.06457 0.25053
 C1118 C 0.17792 0.14663 0.25171
 C1119 C 0.11472 0.11554 0.25178
 C1120 C 0.09872 0.09946 0.25147
 C1121 C 0.07999 0.08063 0.25099
 C1122 C 0.17131 0.17227 0.25160
 H1123 H 0.16478 0.10841 0.25186
 H1124 H 0.10739 0.16554 0.25210
 H1125 H 0.13982 0.19831 0.25174
 H1126 H 0.19747 0.14089 0.25150
 C1127 C 0.66060 0.62810 0.75273
 C1128 C 0.63518 0.63492 0.75294
 C1129 C 0.62848 0.66035 0.75316
 C1130 C 0.64711 0.67892 0.75302
 C1131 C 0.56494 0.56522 0.75113
 C1132 C 0.67928 0.64662 0.75259
 C1133 C 0.61598 0.61584 0.75263
 C1134 C 0.59989 0.59986 0.75223
 C1135 C 0.58105 0.58118 0.75166
 C1136 C 0.67277 0.67228 0.75264
 H1137 H 0.66599 0.60846 0.75254
 H1138 H 0.60884 0.66583 0.75330
 H1139 H 0.64139 0.69845 0.75303
 H1140 H 0.69881 0.64081 0.75227
 C1141 C 0.84027 0.12829 0.74770
 C1142 C 0.86570 0.13512 0.74737
 C1143 C 0.87242 0.16056 0.74729
 C1144 C 0.85381 0.17912 0.74765
 C1145 C 0.93564 0.06512 0.74773
 C1146 C 0.82160 0.14680 0.74806
 C1147 C 0.88489 0.11602 0.74734
 C1148 C 0.90093 0.10000 0.74741
 C1149 C 0.91966 0.08121 0.74757
 C1150 C 0.82814 0.17247 0.74810
 H1151 H 0.83485 0.10865 0.74778
 H1152 H 0.89207 0.16606 0.74705
 H1153 H 0.85955 0.19866 0.74770
 H1154 H 0.80207 0.14097 0.74843
 C1155 C 0.37208 0.66072 0.24627
 C1156 C 0.36534 0.63530 0.24639
 C1157 C 0.33991 0.62847 0.24668
 C1158 C 0.32126 0.64698 0.24698
 C1159 C 0.43514 0.56527 0.24710
 C1160 C 0.35348 0.67929 0.24657
 C1161 C 0.38450 0.61621 0.24645
 C1162 C 0.40052 0.60019 0.24660
 C1163 C 0.41921 0.58139 0.24685
 C1164 C 0.32781 0.67264 0.24700
 H1165 H 0.39173 0.66621 0.24606
 H1166 H 0.33449 0.60882 0.24679
 H1167 H 0.30172 0.64116 0.24734
 H1168 H 0.35924 0.69882 0.24660
 C1169 C 0.16009 0.87222 0.74782
 C1170 C 0.13463 0.86551 0.74757
 C1171 C 0.12779 0.84010 0.74731
 C1172 C 0.14633 0.82145 0.74745
 C1173 C 0.06502 0.93582 0.74927
 C1174 C 0.17868 0.85363 0.74796
 C1175 C 0.11553 0.88469 0.74787
 C1176 C 0.09958 0.90079 0.74824
 C1177 C 0.08093 0.91967 0.74877
 C1178 C 0.17203 0.82799 0.74786
 H1179 H 0.16560 0.89184 0.74804
 H1180 H 0.10813 0.83469 0.74713
 H1181 H 0.14050 0.80194 0.74739
 H1182 H 0.19823 0.85937 0.74831
 C1183 C 0.66003 0.37147 0.24770
 C1184 C 0.63459 0.36465 0.24746
 C1185 C 0.62784 0.33923 0.24717
 C1186 C 0.64644 0.32066 0.24728
 C1187 C 0.56483 0.43469 0.24927
 C1188 C 0.67867 0.35295 0.24781
 C1189 C 0.61544 0.38374 0.24779
 C1190 C 0.59943 0.39976 0.24819
 C1191 C 0.58074 0.41857 0.24875
 C1192 C 0.67211 0.32729 0.24769
 H1193 H 0.66545 0.39111 0.24793
 H1194 H 0.60819 0.33375 0.24700
 H1195 H 0.64068 0.30112 0.24722
 H1196 H 0.69821 0.35876 0.24815
 C1197 C 0.84064 0.87200 0.25190
 C1198 C 0.86609 0.86528 0.25217
 C1199 C 0.87288 0.83987 0.25227
 C1200 C 0.85431 0.82123 0.25197
 C1201 C 0.93604 0.93541 0.25173
 C1202 C 0.82202 0.85341 0.25161
 C1203 C 0.88523 0.88447 0.25216
 C1204 C 0.90124 0.90054 0.25206
 C1205 C 0.91999 0.91935 0.25189
 C1206 C 0.82862 0.82776 0.25157
 H1207 H 0.83517 0.89162 0.25182
 H1208 H 0.89254 0.83446 0.25246
 H1209 H 0.86010 0.80172 0.25192
 H1210 H 0.80248 0.85915 0.25128
 C1211 C 0.33921 0.37180 0.75339
 C1212 C 0.36465 0.36503 0.75370
 C1213 C 0.37140 0.33962 0.75387
 C1214 C 0.35281 0.32101 0.75362
 C1215 C 0.43483 0.43480 0.75299
 C1216 C 0.32057 0.35324 0.75314
 C1217 C 0.38382 0.38414 0.75362
 C1218 C 0.39989 0.40014 0.75347
 C1219 C 0.41872 0.41884 0.75322
 C1220 C 0.32714 0.32760 0.75318
 H1221 H 0.33379 0.39143 0.75324
 H1222 H 0.39105 0.33417 0.75409
 H1223 H 0.35857 0.30149 0.75362
 H1224 H 0.30103 0.35902 0.75278
 C1225 C 0.12732 0.24835 0.84045
 C1226 C 0.13402 0.24820 0.86592
 C1227 C 0.15945 0.24803 0.87277
 C1228 C 0.17813 0.24810 0.85424
 C1229 C 0.06373 0.24897 0.93563
 C1230 C 0.14595 0.24842 0.82187
 C1231 C 0.11481 0.24836 0.88501
 C1232 C 0.09871 0.24854 0.90098
 C1233 C 0.07985 0.24878 0.91966
 C1234 C 0.17161 0.24837 0.82854
 H1235 H 0.10768 0.24846 0.83494
 H1236 H 0.16483 0.24789 0.89244
 H1237 H 0.19766 0.24801 0.86008
 H1238 H 0.14023 0.24858 0.80231
 C1239 C 0.66089 0.74777 0.37114
 C1240 C 0.63545 0.74787 0.36434
 C1241 C 0.62871 0.74813 0.33888
 C1242 C 0.64732 0.74837 0.32026
 C1243 C 0.56532 0.74802 0.43434
 C1244 C 0.67955 0.74801 0.35257
 C1245 C 0.61626 0.74783 0.38350
 C1246 C 0.60020 0.74786 0.39954
 C1247 C 0.58140 0.74794 0.41831
 C1248 C 0.67300 0.74837 0.32688
 H1249 H 0.66632 0.74755 0.39080
 H1250 H 0.60906 0.74820 0.33341
 H1251 H 0.64157 0.74860 0.30071
 H1252 H 0.69908 0.74795 0.35838
 C1253 C 0.87291 0.75124 0.83965
 C1254 C 0.86623 0.75141 0.86512
 C1255 C 0.84081 0.75153 0.87199
 C1256 C 0.82211 0.75141 0.85348
 C1257 C 0.93614 0.75101 0.93523
 C1258 C 0.85426 0.75112 0.82109
 C1259 C 0.88544 0.75134 0.88421
 C1260 C 0.90148 0.75125 0.90025
 C1261 C 0.92021 0.75111 0.91907
 C1262 C 0.82860 0.75114 0.82777
 H1263 H 0.89254 0.75116 0.83413
 H1264 H 0.83543 0.75168 0.89167
 H1265 H 0.80258 0.75148 0.85933
 H1266 H 0.85997 0.75096 0.80152
 C1267 C 0.37109 0.25170 0.33932
 C1268 C 0.36433 0.25187 0.36478
 C1269 C 0.33888 0.25190 0.37155
 C1270 C 0.32024 0.25170 0.35297
 C1271 C 0.43449 0.25169 0.43476
 C1272 C 0.35249 0.25149 0.32069
 C1273 C 0.38351 0.25189 0.38394
 C1274 C 0.39957 0.25186 0.39998
 C1275 C 0.41840 0.25178 0.41874
 C1276 C 0.32681 0.25143 0.32728
 H1277 H 0.39074 0.25168 0.33386
 H1278 H 0.33344 0.25205 0.39121
 H1279 H 0.30069 0.25171 0.35876
 H1280 H 0.35826 0.25134 0.30114
 C1281 C 0.12784 0.75168 0.16009
 C1282 C 0.13453 0.75185 0.13462
 C1283 C 0.15995 0.75200 0.12775
 C1284 C 0.17864 0.75189 0.14627
 C1285 C 0.06462 0.75132 0.06453
 C1286 C 0.14648 0.75157 0.17866
 C1287 C 0.11532 0.75175 0.11553
 C1288 C 0.09928 0.75162 0.09949
 C1289 C 0.08056 0.75145 0.08067
 C1290 C 0.17214 0.75162 0.17197
 H1291 H 0.10820 0.75158 0.16561
 H1292 H 0.16533 0.75215 0.10808
 H1293 H 0.19817 0.75198 0.14042
 H1294 H 0.14077 0.75141 0.19823
 C1295 C 0.62801 0.25110 0.66113
 C1296 C 0.63470 0.25130 0.63565
 C1297 C 0.66014 0.25158 0.62882
 C1298 C 0.67882 0.25156 0.64736
 C1299 C 0.56450 0.24991 0.56575
 C1300 C 0.64665 0.25108 0.67972
 C1301 C 0.61549 0.25104 0.61653
 C1302 C 0.59941 0.25074 0.60051
 C1303 C 0.58059 0.25031 0.58176
 C1304 C 0.67231 0.25124 0.67306
 H1305 H 0.60837 0.25089 0.66663
 H1306 H 0.66554 0.25175 0.60915
 H1307 H 0.69835 0.25174 0.64152
 H1308 H 0.64092 0.25088 0.69928
 C1309 C 0.87194 0.24845 0.16030
 C1310 C 0.86519 0.24830 0.13484
 C1311 C 0.83975 0.24815 0.12804
 C1312 C 0.82110 0.24822 0.14660
 C1313 C 0.93528 0.24892 0.06492
 C1314 C 0.85334 0.24852 0.17891
 C1315 C 0.88435 0.24842 0.11571
 C1316 C 0.90040 0.24857 0.09968
 C1317 C 0.91919 0.24877 0.08092
 C1318 C 0.82767 0.24847 0.17229
 H1319 H 0.89159 0.24856 0.16577
 H1320 H 0.83432 0.24802 0.10838
 H1321 H 0.80156 0.24813 0.14080
 H1322 H 0.85910 0.24868 0.19847
 C1323 C 0.33982 0.74847 0.62854
 C1324 C 0.36525 0.74863 0.63538
 C1325 C 0.37195 0.74874 0.66085
 C1326 C 0.35331 0.74879 0.67944
 C1327 C 0.43540 0.74992 0.56541
 C1328 C 0.32113 0.74853 0.64708
 C1329 C 0.38446 0.74885 0.61625
 C1330 C 0.40052 0.74913 0.60022
 C1331 C 0.41933 0.74954 0.58144
 C1332 C 0.32764 0.74876 0.67279
 H1333 H 0.33442 0.74838 0.60887
 H1334 H 0.39158 0.74884 0.66636
 H1335 H 0.35903 0.74892 0.69901
 H1336 H 0.30160 0.74845 0.64124
 C1337 C 0.24843 0.12841 0.84101
 C1338 C 0.24822 0.13518 0.86646
 C1339 C 0.24787 0.16060 0.87320
 C1340 C 0.24784 0.17921 0.85459
 C1341 C 0.24930 0.06496 0.93625
 C1342 C 0.24840 0.14697 0.82236
 C1343 C 0.24847 0.11605 0.88562
 C1344 C 0.24873 0.09998 0.90163
 C1345 C 0.24905 0.08112 0.92032
 C1346 C 0.24817 0.17262 0.82892
 H1347 H 0.24868 0.10879 0.83559
 H1348 H 0.24768 0.16605 0.89285
 H1349 H 0.24760 0.19873 0.86035
 H1350 H 0.24861 0.14119 0.80282
 C1351 C 0.74897 0.62844 0.33919
 C1352 C 0.74869 0.63521 0.36463
 C1353 C 0.74858 0.66062 0.37138
 C1354 C 0.74882 0.67923 0.35277
 C1355 C 0.74872 0.56514 0.43464
 C1356 C 0.74921 0.64701 0.32053
 C1357 C 0.74862 0.61607 0.38382
 C1358 C 0.74862 0.60004 0.39987
 C1359 C 0.74867 0.58124 0.41864
 C1360 C 0.74920 0.67266 0.32709
 H1361 H 0.74904 0.60881 0.33376
 H1362 H 0.74834 0.66607 0.39103
 H1363 H 0.74874 0.69876 0.35853
 H1364 H 0.74945 0.64123 0.30099
 C1365 C 0.75176 0.16044 0.12794
 C1366 C 0.75161 0.13503 0.13477
 C1367 C 0.75148 0.12828 0.16023
 C1368 C 0.75140 0.14686 0.17882
 C1369 C 0.75017 0.06513 0.06488
 C1370 C 0.75168 0.17906 0.14648
 C1371 C 0.75137 0.11589 0.11567
 C1372 C 0.75106 0.09986 0.09967
 C1373 C 0.75060 0.08111 0.08093
 C1374 C 0.75141 0.17250 0.17217
 H1375 H 0.75187 0.16585 0.10827
 H1376 H 0.75137 0.10866 0.16571
 H1377 H 0.75125 0.14110 0.19838
 H1378 H 0.75176 0.19858 0.14067
 C1379 C 0.25097 0.62859 0.66056
 C1380 C 0.25116 0.63531 0.63509
 C1381 C 0.25144 0.66073 0.62828
 C1382 C 0.25143 0.67937 0.64683
 C1383 C 0.24959 0.56532 0.56509
 C1384 C 0.25096 0.64717 0.67916
 C1385 C 0.25088 0.61614 0.61595
 C1386 C 0.25054 0.60010 0.59993
 C1387 C 0.25006 0.58133 0.58115
 C1388 C 0.25110 0.67282 0.67253
 H1389 H 0.25077 0.60896 0.66605
 H1390 H 0.25161 0.66615 0.60861
 H1391 H 0.25160 0.69888 0.64102
 H1392 H 0.25075 0.64142 0.69872
 C1393 C 0.75282 0.83927 0.87219
 C1394 C 0.75270 0.86467 0.86530
 C1395 C 0.75253 0.87136 0.83984
 C1396 C 0.75238 0.85275 0.82129
 C1397 C 0.75209 0.93479 0.93500
 C1398 C 0.75266 0.82061 0.85368
 C1399 C 0.75263 0.88386 0.88436
 C1400 C 0.75249 0.89995 0.90030
 C1401 C 0.75228 0.91876 0.91898
 C1402 C 0.75238 0.82712 0.82798
 H1403 H 0.75297 0.83389 0.89187
 H1404 H 0.75246 0.89098 0.83431
 H1405 H 0.75221 0.85847 0.80172
 H1406 H 0.75272 0.80110 0.85953
 C1407 C 0.25098 0.33918 0.37175
 C1408 C 0.25089 0.36462 0.36501
 C1409 C 0.25070 0.37141 0.33956
 C1410 C 0.25052 0.35287 0.32090
 C1411 C 0.25075 0.43449 0.43515
 C1412 C 0.25081 0.32060 0.35315
 C1413 C 0.25091 0.38374 0.38419
 C1414 C 0.25088 0.39975 0.40026
 C1415 C 0.25081 0.41849 0.41907
 C1416 C 0.25052 0.32721 0.32746
 H1417 H 0.25115 0.33371 0.39140
 H1418 H 0.25065 0.39105 0.33412
 H1419 H 0.25035 0.35868 0.30136
 H1420 H 0.25087 0.30106 0.35891
 C1421 C 0.24841 0.87188 0.15984
 C1422 C 0.24841 0.86522 0.13437
 C1423 C 0.24837 0.83984 0.12751
 C1424 C 0.24844 0.82115 0.14603
 C1425 C 0.24925 0.93576 0.06490
 C1426 C 0.24848 0.85325 0.17841
 C1427 C 0.24858 0.88446 0.11530
 C1428 C 0.24878 0.90061 0.09938
 C1429 C 0.24904 0.91955 0.08077
 C1430 C 0.24856 0.82762 0.17174
 H1431 H 0.24842 0.89149 0.16536
 H1432 H 0.24834 0.83448 0.10783
 H1433 H 0.24844 0.80165 0.14020
 H1434 H 0.24853 0.85894 0.19798
 C1435 C 0.74875 0.37150 0.66063
 C1436 C 0.74862 0.36473 0.63518
 C1437 C 0.74840 0.33931 0.62844
 C1438 C 0.74842 0.32071 0.64705
 C1439 C 0.75018 0.43478 0.56519
 C1440 C 0.74878 0.35294 0.67928
 C1441 C 0.74890 0.38386 0.61599
 C1442 C 0.74924 0.39989 0.59994
 C1443 C 0.74972 0.41869 0.58118
 C1444 C 0.74869 0.32729 0.67273
 H1445 H 0.74891 0.39113 0.66605
 H1446 H 0.74828 0.33386 0.60879
 H1447 H 0.74830 0.30118 0.64129
 H1448 H 0.74894 0.35872 0.69883
 C1449 C 0.12786 0.15975 0.75196
 C1450 C 0.13476 0.13438 0.75181
 C1451 C 0.16023 0.12774 0.75196
 C1452 C 0.17878 0.14640 0.75214
 C1453 C 0.06514 0.06407 0.74953
 C1454 C 0.14636 0.17846 0.75214
 C1455 C 0.11571 0.11515 0.75130
 C1456 C 0.09975 0.09905 0.75079
 C1457 C 0.08109 0.08019 0.75012
 C1458 C 0.17207 0.17201 0.75215
 H1459 H 0.10819 0.16508 0.75186
 H1460 H 0.16577 0.10814 0.75185
 H1461 H 0.19835 0.14073 0.75219
 H1462 H 0.14049 0.19795 0.75219
 C1463 C 0.66121 0.62806 0.25039
 C1464 C 0.63575 0.63478 0.25034
 C1465 C 0.62898 0.66019 0.25043
 C1466 C 0.64756 0.67883 0.25047
 C1467 C 0.56563 0.56482 0.24879
 C1468 C 0.67984 0.64665 0.25044
 C1469 C 0.61658 0.61562 0.25003
 C1470 C 0.60051 0.59960 0.24968
 C1471 C 0.58169 0.58085 0.24922
 C1472 C 0.67324 0.67230 0.25040
 H1473 H 0.66667 0.60844 0.25034
 H1474 H 0.60932 0.66561 0.25040
 H1475 H 0.64176 0.69834 0.25049
 H1476 H 0.69939 0.64092 0.25043
 C1477 C 0.16079 0.87207 0.24786
 C1478 C 0.13532 0.86537 0.24787
 C1479 C 0.12843 0.83998 0.24794
 C1480 C 0.14693 0.82132 0.24807
 C1481 C 0.06532 0.93521 0.24846
 C1482 C 0.17934 0.85345 0.24800
 C1483 C 0.11624 0.88455 0.24794
 C1484 C 0.10023 0.90058 0.24807
 C1485 C 0.08144 0.91929 0.24827
 C1486 C 0.17263 0.82782 0.24816
 H1487 H 0.16631 0.89168 0.24780
 H1488 H 0.10875 0.83460 0.24793
 H1489 H 0.14107 0.80181 0.24815
 H1490 H 0.19891 0.85916 0.24801
 C1491 C 0.66070 0.37178 0.74901
 C1492 C 0.63524 0.36505 0.74903
 C1493 C 0.62842 0.33964 0.74910
 C1494 C 0.64697 0.32100 0.74924
 C1495 C 0.56510 0.43490 0.74948
 C1496 C 0.67930 0.35319 0.74914
 C1497 C 0.61610 0.38421 0.74908
 C1498 C 0.60005 0.40023 0.74917
 C1499 C 0.58122 0.41894 0.74933
 C1500 C 0.67267 0.32755 0.74932
 H1501 H 0.66619 0.39140 0.74893
 H1502 H 0.60876 0.33421 0.74910
 H1503 H 0.64115 0.30149 0.74932
 H1504 H 0.69886 0.35894 0.74915
 C1505 C 0.83917 0.12787 0.24876
 C1506 C 0.86464 0.13457 0.24887
 C1507 C 0.87151 0.15997 0.24879
 C1508 C 0.85301 0.17862 0.24872
 C1509 C 0.93464 0.06476 0.25064
 C1510 C 0.82061 0.14648 0.24868
 C1511 C 0.88372 0.11540 0.24924
 C1512 C 0.89973 0.09938 0.24964
 C1513 C 0.91852 0.08068 0.25017
 C1514 C 0.82731 0.17211 0.24874
 H1515 H 0.83365 0.10826 0.24880
 H1516 H 0.89119 0.16535 0.24886
 H1517 H 0.85886 0.19813 0.24871
 H1518 H 0.80105 0.14077 0.24865
 C1519 C 0.37130 0.66032 0.74934
 C1520 C 0.36446 0.63491 0.74950
 C1521 C 0.33898 0.62820 0.74946
 C1522 C 0.32040 0.64681 0.74937
 C1523 C 0.43463 0.56512 0.75126
 C1524 C 0.35277 0.67897 0.74925
 C1525 C 0.38359 0.61574 0.74986
 C1526 C 0.39965 0.59974 0.75025
 C1527 C 0.41849 0.58106 0.75078
 C1528 C 0.32706 0.67245 0.74934
 H1529 H 0.39097 0.66572 0.74935
 H1530 H 0.33347 0.60859 0.74957
 H1531 H 0.30084 0.64109 0.74940
 H1532 H 0.35861 0.69848 0.74918
 C1533 C 0.84026 0.87165 0.75181
 C1534 C 0.86571 0.86493 0.75183
 C1535 C 0.87253 0.83953 0.75183
 C1536 C 0.85397 0.82089 0.75171
 C1537 C 0.93554 0.93506 0.75111
 C1538 C 0.82166 0.85305 0.75169
 C1539 C 0.88483 0.88410 0.75172
 C1540 C 0.90083 0.90016 0.75156
 C1541 C 0.91955 0.91897 0.75133
 C1542 C 0.82829 0.82742 0.75158
 H1543 H 0.83479 0.89127 0.75183
 H1544 H 0.89219 0.83414 0.75186
 H1545 H 0.85977 0.80138 0.75168
 H1546 H 0.80210 0.85878 0.75164
 C1547 C 0.33873 0.37197 0.25135
 C1548 C 0.36419 0.36524 0.25145
 C1549 C 0.37096 0.33982 0.25146
 C1550 C 0.35238 0.32119 0.25129
 C1551 C 0.43435 0.43518 0.25094
 C1552 C 0.32010 0.35338 0.25118
 C1553 C 0.38337 0.38439 0.25140
 C1554 C 0.39944 0.40040 0.25129
 C1555 C 0.41827 0.41915 0.25111
 C1556 C 0.32669 0.32773 0.25109
 H1557 H 0.33328 0.39159 0.25135
 H1558 H 0.39061 0.33440 0.25155
 H1559 H 0.35817 0.30168 0.25128
 H1560 H 0.30055 0.35912 0.25108
   
