data_POSCAR
  _audit_creation_date              2014-09-24
  _audit_creation_method            'ToBaCCo'
  _symmetry_space_group_name_H-M    'P1'
  _symmetry_Int_Tables_number       1
  _symmetry_cell_setting            triclinic
  loop_
  _symmetry_equiv_pos_as_xyz
 x,y,z
_cell_length_a 107.5519
_cell_length_b 107.5104
_cell_length_c 108.1044
_cell_angle_alpha 90.010400
_cell_angle_beta 90.005200
_cell_angle_gamma 89.963500
loop_
  _atom_site_label
  _atom_site_type_symbol
  _atom_site_fract_x
  _atom_site_fract_y
  _atom_site_fract_z
N1 N 0.35317 0.31868 0.32758
 N2 N 0.35304 0.32751 0.31918
 C3 C 0.36296 0.32608 0.31168
 C4 C 0.36966 0.31576 0.31559
 C5 C 0.36311 0.31132 0.32570
 H6 H 0.36518 0.33211 0.30400
 H7 H 0.36557 0.30352 0.33151
 Cu8 Cu 0.34012 0.34022 0.31935
 Cu9 Cu 0.34083 0.31770 0.34077
 Cu10 Cu 0.31782 0.34035 0.34108
 N11 N 0.32725 0.35297 0.31954
 N12 N 0.31855 0.35289 0.32807
 C13 C 0.31111 0.36282 0.32649
 C14 C 0.31536 0.36959 0.31643
 C15 C 0.32563 0.36300 0.31224
 H16 H 0.30328 0.36500 0.33236
 H17 H 0.33165 0.36548 0.30462
 N18 N 0.31876 0.32687 0.35344
 N19 N 0.32754 0.31830 0.35334
 C20 C 0.32597 0.31076 0.36316
 C21 C 0.31570 0.31475 0.36983
 C22 C 0.31137 0.32500 0.36333
 H23 H 0.33200 0.30305 0.36537
 H24 H 0.30353 0.33080 0.36571
 H25 H 0.32663 0.32647 0.33125
 H26 H 0.33657 0.33647 0.34129
 N27 N 0.35226 0.81789 -0.17358
 N28 N 0.35256 0.82727 -0.18135
 C29 C 0.36297 0.82651 -0.18822
 C30 C 0.36950 0.81593 -0.18472
 C31 C 0.36229 0.81064 -0.17546
 H32 H 0.36551 0.83313 -0.19530
 H33 H 0.36454 0.80257 -0.16993
 Cu34 Cu 0.33939 0.83964 -0.18186
 Cu35 Cu 0.34005 0.81690 -0.16032
 Cu36 Cu 0.31946 0.84159 -0.15797
 N37 N 0.32780 0.85343 -0.18025
 N38 N 0.32058 0.85454 -0.17051
 C39 C 0.31408 0.86520 -0.17139
 C40 C 0.31721 0.87105 -0.18241
 C41 C 0.32593 0.86321 -0.18781
 H42 H 0.30726 0.86820 -0.16468
 H43 H 0.33085 0.86465 -0.19641
 N44 N 0.31961 0.82757 -0.14624
 N45 N 0.32722 0.81801 -0.14735
 C46 C 0.32524 0.81012 -0.13788
 C47 C 0.31593 0.81493 -0.13040
 C48 C 0.31256 0.82599 -0.13606
 H49 H 0.33038 0.80162 -0.13643
 H50 H 0.30567 0.83256 -0.13287
 H51 H 0.32598 0.82694 -0.16869
 H52 H 0.33785 0.83590 -0.15973
 N53 N 0.85230 0.31860 -0.17286
 N54 N 0.85115 0.32636 -0.18218
 C55 C 0.86092 0.32492 -0.18984
 C56 C 0.86866 0.31575 -0.18506
 C57 C 0.86281 0.31197 -0.17427
 H58 H 0.86231 0.33027 -0.19819
 H59 H 0.86605 0.30509 -0.16773
 Cu60 Cu 0.83727 0.33798 -0.18321
 Cu61 Cu 0.84039 0.31798 -0.15934
 Cu62 Cu 0.81915 0.34195 -0.15802
 N63 N 0.82662 0.35250 -0.18125
 N64 N 0.82015 0.35432 -0.17110
 C65 C 0.81421 0.36529 -0.17187
 C66 C 0.81690 0.37066 -0.18324
 C67 C 0.82480 0.36218 -0.18896
 H68 H 0.80804 0.36884 -0.16482
 H69 H 0.82920 0.36307 -0.19791
 N70 N 0.81957 0.32840 -0.14578
 N71 N 0.82759 0.31915 -0.14640
 C72 C 0.82563 0.31141 -0.13681
 C73 C 0.81590 0.31601 -0.12975
 C74 C 0.81228 0.32680 -0.13578
 H75 H 0.83098 0.30308 -0.13510
 H76 H 0.80495 0.33311 -0.13306
 H77 H 0.82528 0.32661 -0.16781
 H78 H 0.83745 0.33698 -0.16082
 N79 N 0.85227 0.81841 0.32630
 N80 N 0.85184 0.82708 0.31775
 C81 C 0.86162 0.82569 0.31010
 C82 C 0.86860 0.81560 0.31406
 C83 C 0.86231 0.81119 0.32435
 H84 H 0.86372 0.83179 0.30244
 H85 H 0.86513 0.80366 0.33036
 Cu86 Cu 0.83940 0.84023 0.31835
 Cu87 Cu 0.84053 0.81783 0.34004
 Cu88 Cu 0.81905 0.84179 0.34189
 N89 N 0.82686 0.85327 0.31918
 N90 N 0.81956 0.85428 0.32887
 C91 C 0.81275 0.86472 0.32787
 C92 C 0.81579 0.87058 0.31684
 C93 C 0.82475 0.86294 0.31154
 H94 H 0.80594 0.86765 0.33461
 H95 H 0.82977 0.86456 0.30303
 N96 N 0.81990 0.82819 0.35407
 N97 N 0.82792 0.81894 0.35325
 C98 C 0.82610 0.81114 0.36283
 C99 C 0.81647 0.81568 0.37008
 C100 C 0.81278 0.82652 0.36418
 H101 H 0.83145 0.80279 0.36442
 H102 H 0.80549 0.83279 0.36706
 H103 H 0.82624 0.82737 0.33149
 H104 H 0.83759 0.83678 0.34059
 N105 N 0.64622 0.68043 0.32846
 N106 N 0.64730 0.67294 0.31891
 C107 C 0.63749 0.67464 0.31133
 C108 C 0.62979 0.68355 0.31652
 C109 C 0.63563 0.68701 0.32738
 H110 H 0.63589 0.66957 0.30284
 H111 H 0.63248 0.69393 0.33393
 Cu112 Cu 0.66104 0.66119 0.31749
 Cu113 Cu 0.65872 0.68142 0.34141
 Cu114 Cu 0.68225 0.65966 0.34047
 N115 N 0.67334 0.64787 0.31838
 N116 N 0.68158 0.64741 0.32733
 C117 C 0.68858 0.63714 0.32601
 C118 C 0.68454 0.63068 0.31568
 C119 C 0.67484 0.63784 0.31103
 H120 H 0.69597 0.63451 0.33226
 H121 H 0.66909 0.63576 0.30310
 N122 N 0.68138 0.67274 0.35312
 N123 N 0.67231 0.68096 0.35362
 C124 C 0.67401 0.68826 0.36362
 C125 C 0.68468 0.68441 0.36975
 C126 C 0.68909 0.67456 0.36274
 H127 H 0.66781 0.69569 0.36632
 H128 H 0.69723 0.66898 0.36458
 H129 H 0.67336 0.67423 0.33136
 H130 H 0.66324 0.66287 0.33982
 N131 N 0.64729 0.18104 -0.17217
 N132 N 0.64774 0.17269 -0.18102
 C133 C 0.63781 0.17418 -0.18846
 C134 C 0.63072 0.18401 -0.18404
 C135 C 0.63709 0.18813 -0.17367
 H136 H 0.63583 0.16841 -0.19640
 H137 H 0.63449 0.19563 -0.16755
 Cu138 Cu 0.66092 0.16030 -0.18183
 Cu139 Cu 0.65973 0.18188 -0.15916
 Cu140 Cu 0.68260 0.15928 -0.15925
 N141 N 0.67341 0.14721 -0.18108
 N142 N 0.68179 0.14683 -0.17226
 C143 C 0.68891 0.13665 -0.17375
 C144 C 0.68480 0.13018 -0.18410
 C145 C 0.67492 0.13726 -0.18851
 H146 H 0.69642 0.13416 -0.16760
 H147 H 0.66909 0.13528 -0.19640
 N148 N 0.68188 0.17265 -0.14683
 N149 N 0.67311 0.18123 -0.14676
 C150 C 0.67476 0.18865 -0.13687
 C151 C 0.68505 0.18456 -0.13034
 C152 C 0.68935 0.17441 -0.13699
 H153 H 0.66881 0.19640 -0.13452
 H154 H 0.69712 0.16850 -0.13461
 H155 H 0.67405 0.17353 -0.16889
 H156 H 0.66375 0.16306 -0.15962
 N157 N 0.14673 0.68123 -0.17196
 N158 N 0.14668 0.67239 -0.18035
 C159 C 0.13683 0.67403 -0.18786
 C160 C 0.13030 0.68442 -0.18394
 C161 C 0.13690 0.68875 -0.17380
 H162 H 0.13443 0.66795 -0.19546
 H163 H 0.13473 0.69677 -0.16817
 Cu164 Cu 0.15924 0.65938 -0.18034
 Cu165 Cu 0.15938 0.68216 -0.15908
 Cu166 Cu 0.18250 0.65963 -0.15957
 N167 N 0.17212 0.64668 -0.18041
 N168 N 0.18145 0.64709 -0.17256
 C169 C 0.18898 0.63729 -0.17458
 C170 C 0.18401 0.63027 -0.18409
 C171 C 0.17331 0.63650 -0.18757
 H172 H 0.19719 0.63515 -0.16922
 H173 H 0.16690 0.63378 -0.19478
 N174 N 0.18184 0.67303 -0.14713
 N175 N 0.17297 0.68152 -0.14687
 C176 C 0.17467 0.68887 -0.13693
 C177 C 0.18510 0.68482 -0.13057
 C178 C 0.18941 0.67478 -0.13736
 H179 H 0.16866 0.69651 -0.13442
 H180 H 0.19724 0.66889 -0.13512
 H181 H 0.17311 0.67336 -0.16917
 H182 H 0.16368 0.66340 -0.15860
 N183 N 0.14700 0.18153 0.32801
 N184 N 0.14740 0.17327 0.31908
 C185 C 0.13745 0.17487 0.31167
 C186 C 0.13041 0.18468 0.31621
 C187 C 0.13682 0.18867 0.32660
 H188 H 0.13545 0.16921 0.30366
 H189 H 0.13426 0.19610 0.33282
 Cu190 Cu 0.16055 0.16086 0.31818
 Cu191 Cu 0.15945 0.18228 0.34100
 Cu192 Cu 0.18234 0.15971 0.34070
 N193 N 0.17306 0.14779 0.31880
 N194 N 0.18149 0.14738 0.32758
 C195 C 0.18858 0.13719 0.32602
 C196 C 0.18438 0.13078 0.31571
 C197 C 0.17451 0.13784 0.31135
 H198 H 0.19611 0.13459 0.33211
 H199 H 0.16865 0.13581 0.30350
 N200 N 0.18162 0.17299 0.35324
 N201 N 0.17284 0.18156 0.35337
 C202 C 0.17449 0.18895 0.36329
 C203 C 0.18480 0.18484 0.36979
 C204 C 0.18910 0.17472 0.36309
 H205 H 0.16854 0.19668 0.36566
 H206 H 0.19689 0.16881 0.36541
 H207 H 0.17375 0.17400 0.33115
 H208 H 0.16350 0.16346 0.34039
 N209 N 0.64637 0.31911 0.67224
 N210 N 0.64652 0.32799 0.68060
 C211 C 0.63652 0.32675 0.68799
 C212 C 0.62984 0.31648 0.68413
 C213 C 0.63638 0.31182 0.67414
 H214 H 0.63426 0.33282 0.69565
 H215 H 0.63385 0.30394 0.66846
 Cu216 Cu 0.65970 0.34035 0.68096
 Cu217 Cu 0.65860 0.31821 0.65901
 Cu218 Cu 0.68209 0.34030 0.65923
 N219 N 0.67271 0.35290 0.68073
 N220 N 0.68147 0.35279 0.67227
 C221 C 0.68890 0.36272 0.67390
 C222 C 0.68457 0.36946 0.68395
 C223 C 0.67429 0.36290 0.68806
 H224 H 0.69676 0.36494 0.66808
 H225 H 0.66818 0.36543 0.69559
 N226 N 0.68103 0.32696 0.64676
 N227 N 0.67183 0.31884 0.64643
 C228 C 0.67305 0.31171 0.63625
 C229 C 0.68359 0.31543 0.62996
 C230 C 0.68847 0.32505 0.63691
 H231 H 0.66673 0.30439 0.63356
 H232 H 0.69656 0.33057 0.63464
 H233 H 0.67289 0.32646 0.66881
 H234 H 0.66318 0.33691 0.65895
 N235 N 0.64663 0.81910 1.17149
 N236 N 0.64706 0.82743 1.18038
 C237 C 0.63719 0.82581 1.18788
 C238 C 0.63017 0.81595 1.18342
 C239 C 0.63651 0.81193 1.17301
 H240 H 0.63511 0.83157 1.19581
 H241 H 0.63395 0.80440 1.16690
 Cu242 Cu 0.66015 0.83992 1.18068
 Cu243 Cu 0.65896 0.81839 1.15833
 Cu244 Cu 0.68277 0.84016 1.15926
 N245 N 0.67325 0.85239 1.18099
 N246 N 0.68209 0.85237 1.17259
 C247 C 0.68947 0.86232 1.17436
 C248 C 0.68503 0.86900 1.18440
 C249 C 0.67473 0.86235 1.18840
 H250 H 0.69719 0.86473 1.16844
 H251 H 0.66860 0.86472 1.19595
 N252 N 0.68164 0.82707 1.14650
 N253 N 0.67230 0.81913 1.14590
 C254 C 0.67353 0.81216 1.13563
 C255 C 0.68420 0.81579 1.12953
 C256 C 0.68917 0.82521 1.13670
 H257 H 0.66713 0.80497 1.13275
 H258 H 0.69739 0.83061 1.13464
 H259 H 0.67333 0.82626 1.16840
 H260 H 0.66389 0.83704 1.15865
 N261 N 0.14659 0.31964 1.17228
 N262 N 0.14761 0.32751 1.18151
 C263 C 0.13788 0.32595 1.18921
 C264 C 0.13034 0.31659 1.18452
 C265 C 0.13623 0.31281 1.17377
 H266 H 0.13631 0.33139 1.19747
 H267 H 0.13325 0.30562 1.16745
 Cu268 Cu 0.16133 0.33929 1.18250
 Cu269 Cu 0.15858 0.31888 1.15891
 Cu270 Cu 0.18183 0.34096 1.15877
 N271 N 0.17353 0.35261 1.18121
 N272 N 0.18127 0.35334 1.17183
 C273 C 0.18808 0.36377 1.17290
 C274 C 0.18449 0.36989 1.18356
 C275 C 0.17527 0.36251 1.18865
 H276 H 0.19512 0.36671 1.16639
 H277 H 0.16996 0.36444 1.19693
 N278 N 0.18070 0.32766 1.14634
 N279 N 0.17156 0.31949 1.14616
 C280 C 0.17278 0.31223 1.13609
 C281 C 0.18325 0.31594 1.12968
 C282 C 0.18810 0.32570 1.13647
 H283 H 0.16653 0.30477 1.13357
 H284 H 0.19617 0.33121 1.13415
 H285 H 0.17363 0.32656 1.16834
 H286 H 0.16305 0.33768 1.16012
 N287 N 0.14671 0.81862 0.67163
 N288 N 0.14634 0.82769 0.67976
 C289 C 0.13652 0.82596 0.68730
 C290 C 0.13034 0.81524 0.68365
 C291 C 0.13715 0.81084 0.67368
 H292 H 0.13394 0.83218 0.69472
 H293 H 0.13523 0.80271 0.66814
 Cu294 Cu 0.15852 0.84107 0.67931
 Cu295 Cu 0.15910 0.81785 0.65854
 Cu296 Cu 0.18112 0.84137 0.65783
 N297 N 0.17102 0.85414 0.67893
 N298 N 0.18011 0.85391 0.67079
 C299 C 0.18753 0.86381 0.67261
 C300 C 0.18274 0.87072 0.68229
 C301 C 0.17225 0.86433 0.68608
 H302 H 0.19559 0.86606 0.66707
 H303 H 0.16605 0.86692 0.69352
 N304 N 0.18052 0.82786 0.64553
 N305 N 0.17234 0.81873 0.64599
 C306 C 0.17421 0.81108 0.63629
 C307 C 0.18391 0.81573 0.62931
 C308 C 0.18769 0.82636 0.63543
 H309 H 0.16866 0.80298 0.63419
 H310 H 0.19511 0.83256 0.63267
 H311 H 0.17269 0.82751 0.66799
 H312 H 0.16246 0.83679 0.65752
 N313 N 0.35380 0.68047 0.67132
 N314 N 0.35307 0.67248 0.68049
 C315 C 0.36282 0.67417 0.68812
 C316 C 0.37014 0.68360 0.68336
 C317 C 0.36414 0.68739 0.67269
 H318 H 0.36472 0.66871 0.69630
 H319 H 0.36707 0.69465 0.66643
 Cu320 Cu 0.33999 0.66000 0.68106
 Cu321 Cu 0.34131 0.68133 0.65830
 Cu322 Cu 0.31776 0.65934 0.65920
 N323 N 0.32711 0.64731 0.68103
 N324 N 0.31844 0.64714 0.67248
 C325 C 0.31112 0.63716 0.67422
 C326 C 0.31542 0.63061 0.68441
 C327 C 0.32558 0.63741 0.68852
 H328 H 0.30342 0.63474 0.66828
 H329 H 0.33159 0.63519 0.69621
 N330 N 0.31873 0.67241 0.64646
 N331 N 0.32777 0.68068 0.64602
 C332 C 0.32613 0.68795 0.63600
 C333 C 0.31554 0.68406 0.62981
 C334 C 0.31110 0.67420 0.63675
 H335 H 0.33221 0.69550 0.63340
 H336 H 0.30308 0.66852 0.63471
 H337 H 0.32695 0.67356 0.66840
 H338 H 0.33663 0.66276 0.65891
 N339 N 0.35539 0.17881 1.17079
 N340 N 0.35402 0.17148 1.18041
 C341 C 0.36360 0.17325 1.18824
 C342 C 0.37143 0.18211 1.18320
 C343 C 0.36593 0.18541 1.17210
 H344 H 0.36481 0.16842 1.19693
 H345 H 0.36915 0.19239 1.16566
 Cu346 Cu 0.33989 0.16034 1.18183
 Cu347 Cu 0.34295 0.17991 1.15779
 Cu348 Cu 0.31782 0.15983 1.15956
 N349 N 0.32738 0.14737 1.18106
 N350 N 0.31845 0.14752 1.17276
 C351 C 0.31108 0.13754 1.17446
 C352 C 0.31578 0.13068 1.18422
 C353 C 0.32613 0.13718 1.18819
 H354 H 0.30321 0.13517 1.16870
 H355 H 0.33231 0.13465 1.19567
 N356 N 0.31957 0.17252 1.14652
 N357 N 0.32942 0.17977 1.14554
 C358 C 0.32838 0.18668 1.13521
 C359 C 0.31731 0.18370 1.12943
 C360 C 0.31193 0.17474 1.13689
 H361 H 0.33514 0.19342 1.13211
 H362 H 0.30329 0.16990 1.13518
 H363 H 0.32781 0.17378 1.16807
 H364 H 0.33684 0.16161 1.15958
 N365 N 0.85301 0.68130 1.17315
 N366 N 0.85336 0.67194 1.18097
 C367 C 0.86358 0.67300 1.18811
 C368 C 0.86987 0.68366 1.18466
 C369 C 0.86287 0.68874 1.17519
 H370 H 0.86630 0.66648 1.19523
 H371 H 0.86509 0.69693 1.16982
 Cu372 Cu 0.84060 0.65913 1.18064
 Cu373 Cu 0.84067 0.68240 1.15995
 Cu374 Cu 0.81864 0.65882 1.15863
 N375 N 0.82787 0.64630 1.18032
 N376 N 0.81960 0.64601 1.17136
 C377 C 0.81239 0.63588 1.17274
 C378 C 0.81627 0.62954 1.18317
 C379 C 0.82607 0.63644 1.18781
 H380 H 0.80482 0.63335 1.16665
 H381 H 0.83165 0.63424 1.19583
 N382 N 0.81921 0.67266 1.14667
 N383 N 0.82749 0.68170 1.14724
 C384 C 0.82580 0.68938 1.13754
 C385 C 0.81597 0.68499 1.13050
 C386 C 0.81200 0.67440 1.13663
 H387 H 0.83143 0.69747 1.13563
 H388 H 0.80466 0.66818 1.13375
 H389 H 0.82673 0.67276 1.16901
 H390 H 0.83725 0.66356 1.15879
 N391 N 0.85391 0.18045 0.67149
 N392 N 0.85321 0.17253 0.68072
 C393 C 0.86305 0.17424 0.68825
 C394 C 0.87035 0.18361 0.68336
 C395 C 0.86428 0.18733 0.67272
 H396 H 0.86497 0.16884 0.69647
 H397 H 0.86716 0.19458 0.66640
 Cu398 Cu 0.84006 0.16016 0.68159
 Cu399 Cu 0.84133 0.18130 0.65863
 Cu400 Cu 0.81761 0.15960 0.65968
 N401 N 0.82742 0.14725 0.68113
 N402 N 0.81841 0.14736 0.67292
 C403 C 0.81109 0.13736 0.67470
 C404 C 0.81588 0.13053 0.68444
 C405 C 0.82625 0.13707 0.68830
 H406 H 0.80319 0.13494 0.66901
 H407 H 0.83249 0.13455 0.69572
 N408 N 0.81861 0.17268 0.64694
 N409 N 0.82777 0.18081 0.64645
 C410 C 0.82631 0.18798 0.63634
 C411 C 0.81574 0.18416 0.63008
 C412 C 0.81108 0.17445 0.63713
 H413 H 0.83259 0.19534 0.63367
 H414 H 0.80303 0.16882 0.63508
 H415 H 0.82691 0.17358 0.66887
 H416 H 0.83649 0.16258 0.65945
 N417 N 0.31893 0.35274 0.67227
 N418 N 0.32837 0.35337 0.67997
 C419 C 0.32728 0.36374 0.68688
 C420 C 0.31653 0.36986 0.68341
 C421 C 0.31142 0.36259 0.67415
 H422 H 0.33378 0.36662 0.69395
 H423 H 0.30310 0.36456 0.66888
 Cu424 Cu 0.34116 0.34062 0.68016
 Cu425 Cu 0.31774 0.33985 0.65963
 Cu426 Cu 0.34074 0.31714 0.65966
 N427 N 0.35402 0.32793 0.68007
 N428 N 0.35354 0.31848 0.67237
 C429 C 0.36345 0.31107 0.67433
 C430 C 0.37058 0.31625 0.68366
 C431 C 0.36432 0.32694 0.68708
 H432 H 0.36555 0.30276 0.66909
 H433 H 0.36706 0.33347 0.69418
 N434 N 0.32704 0.31752 0.64751
 N435 N 0.31827 0.32611 0.64753
 C436 C 0.31093 0.32444 0.63757
 C437 C 0.31531 0.31434 0.63088
 C438 C 0.32550 0.31017 0.63754
 H439 H 0.30332 0.33049 0.63505
 H440 H 0.33158 0.30255 0.63511
 H441 H 0.32713 0.32635 0.66951
 H442 H 0.33657 0.33592 0.65860
 N443 N 0.31870 0.85347 0.17231
 N444 N 0.32743 0.85329 0.18082
 C445 C 0.32589 0.86313 0.18838
 C446 C 0.31569 0.86989 0.18435
 C447 C 0.31136 0.86343 0.17414
 H448 H 0.33195 0.86541 0.19603
 H449 H 0.30350 0.86582 0.16838
 Cu450 Cu 0.34029 0.84055 0.18068
 Cu451 Cu 0.31776 0.84112 0.15915
 Cu452 Cu 0.34050 0.81824 0.15897
 N453 N 0.35298 0.82765 0.18056
 N454 N 0.35295 0.81895 0.17203
 C455 C 0.36276 0.81140 0.17377
 C456 C 0.36940 0.81556 0.18396
 C457 C 0.36286 0.82592 0.18804
 H458 H 0.36494 0.80356 0.16791
 H459 H 0.36518 0.83185 0.19576
 N460 N 0.32711 0.81912 0.14655
 N461 N 0.31844 0.82780 0.14663
 C462 C 0.31093 0.82612 0.13680
 C463 C 0.31510 0.81591 0.13016
 C464 C 0.32537 0.81171 0.13667
 H465 H 0.30320 0.83209 0.13445
 H466 H 0.33120 0.80387 0.13433
 H467 H 0.32656 0.82708 0.16878
 H468 H 0.33651 0.83705 0.15872
 N469 N 0.81863 0.35327 0.17223
 N470 N 0.82746 0.35322 0.18063
 C471 C 0.82603 0.36319 0.18804
 C472 C 0.81576 0.36990 0.18406
 C473 C 0.81130 0.36325 0.17401
 H474 H 0.83213 0.36547 0.19565
 H475 H 0.80351 0.36564 0.16816
 Cu476 Cu 0.84030 0.34046 0.18051
 Cu477 Cu 0.81771 0.34089 0.15913
 Cu478 Cu 0.84051 0.31806 0.15885
 N479 N 0.85302 0.32758 0.18041
 N480 N 0.85301 0.31886 0.17190
 C481 C 0.86288 0.31138 0.17362
 C482 C 0.86953 0.31562 0.18378
 C483 C 0.86293 0.32593 0.18786
 H484 H 0.86510 0.30355 0.16777
 H485 H 0.86525 0.33191 0.19555
 N486 N 0.82705 0.31890 0.14647
 N487 N 0.81838 0.32759 0.14661
 C488 C 0.81092 0.32606 0.13673
 C489 C 0.81509 0.31593 0.12998
 C490 C 0.82531 0.31160 0.13649
 H491 H 0.80313 0.33199 0.13452
 H492 H 0.83128 0.30393 0.13394
 H493 H 0.82665 0.32681 0.16872
 H494 H 0.83651 0.33681 0.15858
 N495 N 0.81877 0.85343 0.67212
 N496 N 0.82826 0.85404 0.67976
 C497 C 0.82721 0.86437 0.68673
 C498 C 0.81644 0.87051 0.68334
 C499 C 0.81127 0.86327 0.67409
 H500 H 0.83377 0.86723 0.69375
 H501 H 0.80293 0.86527 0.66886
 Cu502 Cu 0.84105 0.84128 0.67985
 Cu503 Cu 0.81756 0.84061 0.65939
 Cu504 Cu 0.84054 0.81788 0.65931
 N505 N 0.85389 0.82858 0.67972
 N506 N 0.85335 0.81912 0.67204
 C507 C 0.86316 0.81160 0.67405
 C508 C 0.87032 0.81673 0.68339
 C509 C 0.86416 0.82750 0.68676
 H510 H 0.86517 0.80324 0.66886
 H511 H 0.86694 0.83400 0.69387
 N512 N 0.82686 0.81833 0.64716
 N513 N 0.81809 0.82692 0.64723
 C514 C 0.81065 0.82519 0.63735
 C515 C 0.81497 0.81507 0.63067
 C516 C 0.82524 0.81094 0.63723
 H517 H 0.80298 0.83119 0.63489
 H518 H 0.83128 0.80328 0.63480
 H519 H 0.82693 0.82711 0.66921
 H520 H 0.83635 0.83670 0.65830
 N521 N 0.68129 0.64700 0.67241
 N522 N 0.67197 0.64651 0.68027
 C523 C 0.67322 0.63631 0.68739
 C524 C 0.68393 0.63014 0.68385
 C525 C 0.68885 0.63721 0.67436
 H526 H 0.66685 0.63355 0.69462
 H527 H 0.69708 0.63515 0.66899
 Cu528 Cu 0.65906 0.65918 0.68032
 Cu529 Cu 0.68234 0.65960 0.65950
 Cu530 Cu 0.65940 0.68226 0.65941
 N531 N 0.64656 0.67226 0.68048
 N532 N 0.64680 0.68128 0.67229
 C533 C 0.63703 0.68885 0.67417
 C534 C 0.63021 0.68437 0.68409
 C535 C 0.63660 0.67382 0.68788
 H536 H 0.63501 0.69693 0.66859
 H537 H 0.63409 0.66760 0.69532
 N538 N 0.67291 0.68168 0.64713
 N539 N 0.68168 0.67310 0.64717
 C540 C 0.68911 0.67486 0.63729
 C541 C 0.68480 0.68503 0.63065
 C542 C 0.67453 0.68911 0.63725
 H543 H 0.69689 0.66897 0.63495
 H544 H 0.66846 0.69676 0.63490
 H545 H 0.67309 0.67317 0.66938
 H546 H 0.66357 0.66345 0.65864
 N547 N 0.67997 0.14576 0.17108
 N548 N 0.67218 0.14669 0.18041
 C549 C 0.67398 0.13699 0.18811
 C550 C 0.68327 0.12955 0.18321
 C551 C 0.68685 0.13541 0.17242
 H552 H 0.66870 0.13525 0.19644
 H553 H 0.69401 0.13240 0.16606
 Cu554 Cu 0.65992 0.16003 0.18077
 Cu555 Cu 0.68085 0.15803 0.15790
 Cu556 Cu 0.65996 0.18258 0.15931
 N557 N 0.64765 0.17335 0.18113
 N558 N 0.64784 0.18217 0.17272
 C559 C 0.63793 0.18962 0.17431
 C560 C 0.63103 0.18523 0.18421
 C561 C 0.63756 0.17491 0.18837
 H562 H 0.63571 0.19740 0.16838
 H563 H 0.63487 0.16867 0.19572
 N564 N 0.67283 0.18111 0.14639
 N565 N 0.68037 0.17145 0.14555
 C566 C 0.68730 0.17258 0.13524
 C567 C 0.68404 0.18350 0.12936
 C568 C 0.67490 0.18872 0.13670
 H569 H 0.69424 0.16597 0.13222
 H570 H 0.66982 0.19720 0.13486
 H571 H 0.67376 0.17263 0.16816
 H572 H 0.66243 0.16360 0.15866
 N573 N 0.18049 0.64622 0.17148
 N574 N 0.17296 0.64720 0.18101
 C575 C 0.17473 0.63739 0.18857
 C576 C 0.18375 0.62980 0.18340
 C577 C 0.18719 0.63571 0.17257
 H578 H 0.16962 0.63570 0.19701
 H579 H 0.19413 0.63263 0.16602
 Cu580 Cu 0.16104 0.66078 0.18239
 Cu581 Cu 0.18122 0.65866 0.15848
 Cu582 Cu 0.15916 0.68195 0.15935
 N583 N 0.14772 0.67305 0.18163
 N584 N 0.14704 0.68124 0.17264
 C585 C 0.13677 0.68822 0.17416
 C586 C 0.13059 0.68420 0.18467
 C587 C 0.13787 0.67456 0.18920
 H588 H 0.13398 0.69560 0.16798
 H589 H 0.13599 0.66886 0.19721
 N590 N 0.17218 0.68109 0.14660
 N591 N 0.18053 0.67213 0.14618
 C592 C 0.18785 0.67387 0.13622
 C593 C 0.18391 0.68445 0.13001
 C594 C 0.17395 0.68877 0.13694
 H595 H 0.19541 0.66778 0.13362
 H596 H 0.16829 0.69684 0.13504
 H597 H 0.17380 0.67333 0.16846
 H598 H 0.16258 0.66304 0.16004
 N599 N 0.18210 0.14765 0.67263
 N600 N 0.17268 0.14684 0.68032
 C601 C 0.17370 0.13624 0.68687
 C602 C 0.18437 0.13004 0.68314
 C603 C 0.18947 0.13763 0.67408
 H604 H 0.16719 0.13335 0.69391
 H605 H 0.19787 0.13601 0.66883
 Cu606 Cu 0.16006 0.15975 0.68135
 Cu607 Cu 0.18411 0.16168 0.66144
 Cu608 Cu 0.15867 0.18129 0.65877
 N609 N 0.14680 0.17203 0.68065
 N610 N 0.14645 0.18059 0.67198
 C611 C 0.13638 0.18782 0.67369
 C612 C 0.12996 0.18343 0.68387
 C613 C 0.13681 0.17339 0.68805
 H614 H 0.13372 0.19549 0.66779
 H615 H 0.13467 0.16754 0.69590
 N616 N 0.17209 0.18067 0.64647
 N617 N 0.18207 0.17365 0.64777
 C618 C 0.18962 0.17546 0.63799
 C619 C 0.18403 0.18392 0.63009
 C620 C 0.17295 0.18702 0.63577
 H621 H 0.19832 0.17065 0.63649
 H622 H 0.16606 0.19350 0.63238
 H623 H 0.17264 0.17491 0.66987
 H624 H 0.16515 0.16297 0.65974
 N625 N 0.31867 0.64712 0.32761
 N626 N 0.32742 0.64715 0.31913
 C627 C 0.32593 0.63718 0.31174
 C628 C 0.31568 0.63048 0.31581
 C629 C 0.31132 0.63715 0.32590
 H630 H 0.33198 0.63488 0.30411
 H631 H 0.30352 0.63484 0.33176
 Cu632 Cu 0.34020 0.65996 0.31906
 Cu633 Cu 0.31785 0.65956 0.34069
 Cu634 Cu 0.34076 0.68232 0.34069
 N635 N 0.35294 0.67281 0.31898
 N636 N 0.35312 0.68151 0.32751
 C637 C 0.36305 0.68889 0.32567
 C638 C 0.36953 0.68460 0.31542
 C639 C 0.36276 0.67437 0.31141
 H640 H 0.36547 0.69666 0.33153
 H641 H 0.36491 0.66837 0.30369
 N642 N 0.32743 0.68152 0.35320
 N643 N 0.31868 0.67292 0.35315
 C644 C 0.31127 0.67462 0.36304
 C645 C 0.31554 0.68477 0.36970
 C646 C 0.32580 0.68891 0.36312
 H647 H 0.30348 0.66872 0.36533
 H648 H 0.33178 0.69661 0.36547
 H649 H 0.32668 0.67359 0.33102
 H650 H 0.33663 0.66354 0.34103
 N651 N 0.31842 0.14690 0.82773
 N652 N 0.32671 0.14738 0.81883
 C653 C 0.32517 0.13752 0.81132
 C654 C 0.31539 0.13039 0.81572
 C655 C 0.31131 0.13670 0.82617
 H656 H 0.33088 0.13562 0.80332
 H657 H 0.30388 0.13399 0.83233
 Cu658 Cu 0.33925 0.16038 0.81807
 Cu659 Cu 0.31779 0.15934 0.84084
 Cu660 Cu 0.34052 0.18216 0.84049
 N661 N 0.35234 0.17284 0.81858
 N662 N 0.35280 0.18135 0.82729
 C663 C 0.36301 0.18840 0.82562
 C664 C 0.36936 0.18404 0.81533
 C665 C 0.36226 0.17416 0.81111
 H666 H 0.36577 0.19591 0.83167
 H667 H 0.36423 0.16828 0.80324
 N668 N 0.32733 0.18144 0.85312
 N669 N 0.31868 0.17274 0.85329
 C670 C 0.31136 0.17452 0.86326
 C671 C 0.31561 0.18481 0.86972
 C672 C 0.32573 0.18896 0.86296
 H673 H 0.30367 0.16857 0.86578
 H674 H 0.33160 0.19683 0.86509
 H675 H 0.32611 0.17359 0.83104
 H676 H 0.33659 0.16331 0.84029
 N677 N 0.81860 0.64689 0.82752
 N678 N 0.82695 0.64727 0.81867
 C679 C 0.82543 0.63734 0.81123
 C680 C 0.81558 0.63031 0.81565
 C681 C 0.81147 0.63672 0.82601
 H682 H 0.83126 0.63524 0.80337
 H683 H 0.80394 0.63414 0.83211
 Cu684 Cu 0.83952 0.66025 0.81798
 Cu685 Cu 0.81797 0.65925 0.84068
 Cu686 Cu 0.84072 0.68202 0.84037
 N687 N 0.85254 0.67280 0.81842
 N688 N 0.85294 0.68130 0.82713
 C689 C 0.86309 0.68843 0.82547
 C690 C 0.86947 0.68413 0.81518
 C691 C 0.86245 0.67421 0.81094
 H692 H 0.86582 0.69593 0.83155
 H693 H 0.86446 0.66834 0.80307
 N694 N 0.82758 0.68124 0.85302
 N695 N 0.81891 0.67257 0.85318
 C696 C 0.81159 0.67436 0.86315
 C697 C 0.81587 0.68466 0.86962
 C698 C 0.82602 0.68875 0.86285
 H699 H 0.80381 0.66850 0.86558
 H700 H 0.83197 0.69654 0.86499
 H701 H 0.82631 0.67345 0.83089
 H702 H 0.83674 0.66315 0.84018
 N703 N 0.81850 0.14688 0.32788
 N704 N 0.82722 0.14672 0.31938
 C705 C 0.82552 0.13673 0.31204
 C706 C 0.81522 0.13021 0.31622
 C707 C 0.81099 0.13700 0.32627
 H708 H 0.83156 0.13419 0.30446
 H709 H 0.80315 0.13485 0.33213
 Cu710 Cu 0.84036 0.15917 0.31916
 Cu711 Cu 0.81797 0.15936 0.34092
 Cu712 Cu 0.84102 0.18188 0.34057
 N713 N 0.85297 0.17214 0.31887
 N714 N 0.85322 0.18095 0.32729
 C715 C 0.86307 0.18838 0.32521
 C716 C 0.86941 0.18401 0.31491
 C717 C 0.86266 0.17369 0.31113
 H718 H 0.86549 0.19626 0.33091
 H719 H 0.86472 0.16762 0.30344
 N720 N 0.82785 0.18127 0.35325
 N721 N 0.81903 0.17275 0.35335
 C722 C 0.81167 0.17464 0.36326
 C723 C 0.81605 0.18485 0.36977
 C724 C 0.82633 0.18880 0.36309
 H725 H 0.80379 0.16889 0.36562
 H726 H 0.83238 0.19649 0.36529
 H727 H 0.82688 0.17315 0.33086
 H728 H 0.83674 0.16318 0.34107
 N729 N 0.68067 0.35324 0.32803
 N730 N 0.67315 0.35214 0.31851
 C731 C 0.67485 0.36191 0.31088
 C732 C 0.68383 0.36959 0.31599
 C733 C 0.68731 0.36377 0.32686
 H734 H 0.66972 0.36349 0.30241
 H735 H 0.69424 0.36692 0.33339
 Cu736 Cu 0.66143 0.33838 0.31721
 Cu737 Cu 0.68145 0.34096 0.34119
 Cu738 Cu 0.65875 0.31836 0.34117
 N739 N 0.64763 0.32672 0.31849
 N740 N 0.64650 0.31918 0.32800
 C741 C 0.63594 0.31261 0.32685
 C742 C 0.63012 0.31614 0.31601
 C743 C 0.63783 0.32508 0.31088
 H744 H 0.63276 0.30569 0.33338
 H745 H 0.63626 0.33023 0.30243
 N746 N 0.67199 0.31905 0.35369
 N747 N 0.68069 0.32768 0.35369
 C748 C 0.68822 0.32585 0.36348
 C749 C 0.68403 0.31559 0.37001
 C750 C 0.67372 0.31152 0.36348
 H751 H 0.69601 0.33173 0.36582
 H752 H 0.66788 0.30366 0.36570
 H753 H 0.67368 0.32607 0.33176
 H754 H 0.66269 0.33710 0.33960
 N755 N 0.68039 0.85372 0.82875
 N756 N 0.67211 0.85327 0.81982
 C757 C 0.67378 0.86307 0.81224
 C758 C 0.68349 0.87014 0.81679
 C759 C 0.68747 0.86394 0.82728
 H760 H 0.66813 0.86517 0.80423
 H761 H 0.69498 0.86665 0.83337
 Cu762 Cu 0.65942 0.84041 0.81963
 Cu763 Cu 0.68143 0.84100 0.84158
 Cu764 Cu 0.65933 0.81748 0.84068
 N765 N 0.64674 0.82756 0.81945
 N766 N 0.64698 0.81839 0.82749
 C767 C 0.63714 0.81092 0.82552
 C768 C 0.63028 0.81576 0.81583
 C769 C 0.63664 0.82632 0.81219
 H770 H 0.63484 0.80286 0.83105
 H771 H 0.63404 0.83264 0.80485
 N772 N 0.67256 0.81829 0.85329
 N773 N 0.68093 0.82725 0.85367
 C774 C 0.68831 0.82549 0.86358
 C775 C 0.68435 0.81496 0.86983
 C776 C 0.67435 0.81064 0.86299
 H777 H 0.69578 0.83163 0.86628
 H778 H 0.66871 0.80259 0.86501
 H779 H 0.67325 0.82688 0.83139
 H780 H 0.66281 0.83629 0.84152
 N781 N 0.18059 0.35367 0.82881
 N782 N 0.17312 0.35256 0.81924
 C783 C 0.17477 0.36238 0.81168
 C784 C 0.18361 0.37013 0.81688
 C785 C 0.18710 0.36431 0.82775
 H786 H 0.16966 0.36398 0.80321
 H787 H 0.19394 0.36753 0.83434
 Cu788 Cu 0.16136 0.33886 0.81783
 Cu789 Cu 0.18148 0.34116 0.84180
 Cu790 Cu 0.15951 0.31780 0.84089
 N791 N 0.14792 0.32674 0.81869
 N792 N 0.14732 0.31854 0.82767
 C793 C 0.13706 0.31156 0.82622
 C794 C 0.13078 0.31556 0.81576
 C795 C 0.13802 0.32523 0.81120
 H796 H 0.13433 0.30422 0.83248
 H797 H 0.13616 0.33089 0.80315
 N798 N 0.17256 0.31862 0.85357
 N799 N 0.18090 0.32759 0.85405
 C800 C 0.18821 0.32578 0.86402
 C801 C 0.18427 0.31515 0.87015
 C802 C 0.17434 0.31087 0.86318
 H803 H 0.19574 0.33186 0.86668
 H804 H 0.16867 0.30280 0.86502
 H805 H 0.17419 0.32646 0.83183
 H806 H 0.16290 0.33675 0.84017
 N807 N 0.18060 0.85387 0.32852
 N808 N 0.17258 0.85312 0.31940
 C809 C 0.17431 0.86283 0.31171
 C810 C 0.18397 0.87007 0.31627
 C811 C 0.18770 0.86404 0.32697
 H812 H 0.16893 0.86448 0.30344
 H813 H 0.19500 0.86681 0.33325
 Cu814 Cu 0.16045 0.83970 0.31853
 Cu815 Cu 0.18142 0.84160 0.34165
 Cu816 Cu 0.15976 0.81789 0.34108
 N817 N 0.14759 0.82698 0.31923
 N818 N 0.14741 0.81850 0.32796
 C819 C 0.13738 0.81120 0.32643
 C820 C 0.13082 0.81531 0.31616
 C821 C 0.13764 0.82536 0.31183
 H822 H 0.13495 0.80362 0.33252
 H823 H 0.13547 0.83119 0.30399
 N824 N 0.17296 0.81899 0.35365
 N825 N 0.18090 0.82832 0.35412
 C826 C 0.18808 0.82705 0.36424
 C827 C 0.18454 0.81637 0.37041
 C828 C 0.17498 0.81144 0.36340
 H829 H 0.19534 0.83343 0.36697
 H830 H 0.16960 0.80322 0.36553
 H831 H 0.17380 0.82695 0.33172
 H832 H 0.16273 0.83682 0.34078
 C833 C 0.25926 0.97405 0.24300
 C834 C 0.25090 0.96760 0.25052
 C835 C 0.24228 0.97384 0.25790
 C836 C 0.24186 0.98696 0.25782
 C837 C 0.25031 0.99366 0.25025
 C838 C 0.25908 0.98719 0.24284
 C839 C 0.26761 0.99402 0.23572
 C840 C 0.26744 1.00698 0.23575
 C841 C 0.25864 1.01359 0.24277
 C842 C 0.25005 1.00686 0.25019
 C843 C 0.23329 0.99352 0.26514
 C844 C 0.23302 1.00647 0.26507
 C845 C 0.24133 1.01329 0.25770
 C846 C 0.24117 1.02641 0.25761
 C847 C 0.24957 1.03291 0.25020
 C848 C 0.25834 1.02676 0.24287
 H849 H 0.27459 0.98940 0.23017
 H850 H 0.27437 1.01175 0.23027
 H851 H 0.22671 0.98868 0.27100
 H852 H 0.22623 1.01109 0.27086
 H853 H 0.25110 0.95750 0.25062
 H854 H 0.24934 1.04301 0.25025
 C855 C 0.25934 0.47325 0.74379
 C856 C 0.25124 0.46711 0.75184
 C857 C 0.24269 0.47356 0.75917
 C858 C 0.24207 0.48669 0.75841
 C859 C 0.25035 0.49312 0.75041
 C860 C 0.25905 0.48640 0.74310
 C861 C 0.26742 0.49301 0.73557
 C862 C 0.26708 0.50595 0.73499
 C863 C 0.25846 0.51276 0.74201
 C864 C 0.25004 0.50632 0.74985
 C865 C 0.23359 0.49356 0.76557
 C866 C 0.23310 0.50648 0.76479
 C867 C 0.24135 0.51307 0.75714
 C868 C 0.24110 0.52623 0.75645
 C869 C 0.24944 0.53237 0.74863
 C870 C 0.25808 0.52587 0.74150
 H871 H 0.27441 0.48827 0.73015
 H872 H 0.27370 0.51058 0.72902
 H873 H 0.22723 0.48904 0.77187
 H874 H 0.22619 0.51125 0.77030
 H875 H 0.25148 0.45703 0.75231
 H876 H 0.24930 0.54245 0.74817
 C877 C 0.75617 -0.02671 0.25814
 C878 C 0.74870 -0.03264 0.24933
 C879 C 0.74181 -0.02593 0.24067
 C880 C 0.74240 -0.01282 0.24059
 C881 C 0.74997 -0.00660 0.24940
 C882 C 0.75683 -0.01355 0.25827
 C883 C 0.76397 -0.00713 0.26711
 C884 C 0.76487 0.00579 0.26688
 C885 C 0.75837 0.01281 0.25804
 C886 C 0.75068 0.00659 0.24933
 C887 C 0.73577 -0.00580 0.23184
 C888 C 0.73651 0.00713 0.23175
 C889 C 0.74380 0.01352 0.24048
 C890 C 0.74465 0.02666 0.24045
 C891 C 0.75256 0.03258 0.24885
 C892 C 0.75941 0.02590 0.25757
 H893 H 0.76895 -0.01201 0.27431
 H894 H 0.77071 0.01023 0.27373
 H895 H 0.73004 -0.01026 0.22492
 H896 H 0.73141 0.01205 0.22464
 H897 H 0.74825 -0.04272 0.24918
 H898 H 0.75322 0.04265 0.24878
 C899 C 0.75611 0.47312 0.75864
 C900 C 0.74768 0.46720 0.75075
 C901 C 0.74005 0.47388 0.74268
 C902 C 0.74072 0.48700 0.74246
 C903 C 0.74930 0.49321 0.75030
 C904 C 0.75704 0.48627 0.75844
 C905 C 0.76521 0.49268 0.76634
 C906 C 0.76611 0.50560 0.76598
 C907 C 0.75858 0.51263 0.75799
 C908 C 0.75000 0.50641 0.75015
 C909 C 0.73281 0.49406 0.73487
 C910 C 0.73334 0.50700 0.73489
 C911 C 0.74198 0.51336 0.74232
 C912 C 0.74262 0.52651 0.74242
 C913 C 0.75139 0.53244 0.74991
 C914 C 0.75934 0.52574 0.75765
 H915 H 0.77097 0.48781 0.77295
 H916 H 0.77269 0.51004 0.77213
 H917 H 0.72599 0.48964 0.72896
 H918 H 0.72685 0.51194 0.72904
 H919 H 0.74712 0.45712 0.75077
 H920 H 0.75192 0.54252 0.74987
 C921 C 0.25834 0.47361 0.25769
 C922 C 0.25122 0.46729 0.24892
 C923 C 0.24362 0.47360 0.24052
 C924 C 0.24320 0.48676 0.24075
 C925 C 0.25033 0.49333 0.24969
 C926 C 0.25788 0.48673 0.25824
 C927 C 0.26497 0.49340 0.26691
 C928 C 0.26474 0.50635 0.26713
 C929 C 0.25745 0.51308 0.25867
 C930 C 0.25011 0.50653 0.24991
 C931 C 0.23620 0.49353 0.23207
 C932 C 0.23601 0.50648 0.23228
 C933 C 0.24279 0.51317 0.24118
 C934 C 0.24279 0.52634 0.24138
 C935 C 0.25003 0.53260 0.25013
 C936 C 0.25737 0.52620 0.25866
 H937 H 0.27083 0.48866 0.27355
 H938 H 0.27038 0.51107 0.27398
 H939 H 0.23096 0.48889 0.22489
 H940 H 0.23061 0.51119 0.22525
 H941 H 0.25154 0.45720 0.24871
 H942 H 0.25008 0.54270 0.25022
 C943 C 0.75941 0.97387 0.74311
 C944 C 0.75132 0.96741 0.75092
 C945 C 0.74278 0.97356 0.75851
 C946 C 0.74208 0.98670 0.75818
 C947 C 0.75026 0.99344 0.75032
 C948 C 0.75904 0.98702 0.74285
 C949 C 0.76747 0.99393 0.73568
 C950 C 0.76714 1.00688 0.73561
 C951 C 0.75832 1.01343 0.74266
 C952 C 0.74987 1.00665 0.75018
 C953 C 0.73372 0.99329 0.76574
 C954 C 0.73322 1.00623 0.76547
 C955 C 0.74124 1.01307 0.75781
 C956 C 0.74096 1.02619 0.75765
 C957 C 0.74921 1.03272 0.75012
 C958 C 0.75795 1.02660 0.74273
 H959 H 0.77457 0.98940 0.73020
 H960 H 0.77399 1.01169 0.73007
 H961 H 0.72751 0.98852 0.77202
 H962 H 0.72656 1.01084 0.77141
 H963 H 0.75164 0.95733 0.75108
 H964 H 0.74895 1.04281 0.75016
 C965 C 0.75825 0.47403 0.24151
 C966 C 0.75137 0.46740 0.25023
 C967 C 0.74379 0.47341 0.25888
 C968 C 0.74312 0.48657 0.25889
 C969 C 0.75002 0.49343 0.25000
 C970 C 0.75759 0.48713 0.24126
 C971 C 0.76416 0.49407 0.23241
 C972 C 0.76338 0.50699 0.23215
 C973 C 0.75613 0.51347 0.24085
 C974 C 0.74930 0.50662 0.24981
 C975 C 0.73591 0.49304 0.26762
 C976 C 0.73508 0.50597 0.26734
 C977 C 0.74163 0.51292 0.25848
 C978 C 0.74062 0.52601 0.25792
 C979 C 0.74742 0.53261 0.24910
 C980 C 0.75527 0.52661 0.24068
 H981 H 0.76989 0.48953 0.22551
 H982 H 0.76841 0.51182 0.22495
 H983 H 0.73083 0.48818 0.27478
 H984 H 0.72923 0.51047 0.27415
 H985 H 0.75185 0.45731 0.25020
 H986 H 0.74675 0.54268 0.24894
 C987 C 0.24295 0.02606 0.74080
 C988 C 0.25113 0.03234 0.74864
 C989 C 0.25866 0.02596 0.75703
 C990 C 0.25823 0.01284 0.75754
 C991 C 0.25006 0.00629 0.74955
 C992 C 0.24228 0.01293 0.74123
 C993 C 0.23410 0.00628 0.73357
 C994 C 0.23351 -0.00664 0.73406
 C995 C 0.24130 -0.01344 0.74204
 C996 C 0.24962 -0.00692 0.74993
 C997 C 0.26565 0.00613 0.76590
 C998 C 0.26513 -0.00681 0.76637
 C999 C 0.25733 -0.01355 0.75836
 C1000 C 0.25673 -0.02671 0.75873
 C1001 C 0.24855 -0.03293 0.75082
 C1002 C 0.24080 -0.02658 0.74258
 H1003 H 0.22802 0.01103 0.72713
 H1004 H 0.22683 -0.01124 0.72814
 H1005 H 0.27188 0.01085 0.77220
 H1006 H 0.27086 -0.01145 0.77317
 H1007 H 0.25153 0.04242 0.74834
 H1008 H 0.24822 -0.04302 0.75103
 C1009 C 0.25797 0.24180 0.97421
 C1010 C 0.24920 0.24905 0.96797
 C1011 C 0.24088 0.25668 0.97433
 C1012 C 0.24099 0.25689 0.98739
 C1013 C 0.24997 0.24974 0.99388
 C1014 C 0.25863 0.24230 0.98726
 C1015 C 0.26759 0.23550 0.99386
 C1016 C 0.26804 0.23595 1.00673
 C1017 C 0.25932 0.24293 1.01350
 C1018 C 0.25024 0.24999 1.00701
 C1019 C 0.23231 0.26395 0.99409
 C1020 C 0.23241 0.26399 1.00697
 C1021 C 0.24139 0.25722 1.01362
 C1022 C 0.24163 0.25727 1.02670
 C1023 C 0.25067 0.25033 1.03292
 C1024 C 0.25948 0.24319 1.02659
 H1025 H 0.27440 0.22982 0.98912
 H1026 H 0.27530 0.23073 1.01132
 H1027 H 0.22525 0.26937 0.98941
 H1028 H 0.22532 0.26936 1.01165
 H1029 H 0.24891 0.24881 0.95793
 H1030 H 0.25079 0.25041 1.04296
 C1031 C 0.25800 0.74176 0.47392
 C1032 C 0.25104 0.75064 0.46755
 C1033 C 0.24374 0.75940 0.47378
 C1034 C 0.24344 0.75935 0.48687
 C1035 C 0.25029 0.75019 0.49346
 C1036 C 0.25759 0.74134 0.48695
 C1037 C 0.26430 0.73235 0.49361
 C1038 C 0.26392 0.73207 0.50648
 C1039 C 0.25690 0.74084 0.51313
 C1040 C 0.24998 0.74997 0.50658
 C1041 C 0.23681 0.76840 0.49355
 C1042 C 0.23658 0.76824 0.50644
 C1043 C 0.24291 0.75899 0.51313
 C1044 C 0.24270 0.75869 0.52621
 C1045 C 0.24940 0.74949 0.53248
 C1046 C 0.25655 0.74070 0.52618
 H1047 H 0.26987 0.72542 0.48891
 H1048 H 0.26917 0.72489 0.51117
 H1049 H 0.23187 0.77580 0.48889
 H1050 H 0.23146 0.77553 0.51109
 H1051 H 0.25134 0.75073 0.45752
 H1052 H 0.24923 0.74929 0.54251
 C1053 C 0.25911 0.75712 -0.02611
 C1054 C 0.25157 0.74868 -0.03244
 C1055 C 0.24335 0.74084 -0.02619
 C1056 C 0.24262 0.74135 -0.01313
 C1057 C 0.25034 0.74980 -0.00657
 C1058 C 0.25861 0.75773 -0.01308
 C1059 C 0.26614 0.76604 -0.00642
 C1060 C 0.26558 0.76657 0.00645
 C1061 C 0.25752 0.75876 0.01310
 C1062 C 0.24979 0.75031 0.00654
 C1063 C 0.23455 0.73355 -0.00647
 C1064 C 0.23399 0.73408 0.00639
 C1065 C 0.24152 0.74238 0.01306
 C1066 C 0.24103 0.74300 0.02609
 C1067 C 0.24858 0.75143 0.03241
 C1068 C 0.25680 0.75927 0.02615
 H1069 H 0.27253 0.77222 -0.01111
 H1070 H 0.27151 0.77320 0.01113
 H1071 H 0.22861 0.72692 -0.01115
 H1072 H 0.22758 0.72792 0.01109
 H1073 H 0.25202 0.74832 -0.04247
 H1074 H 0.24814 0.75179 0.04244
 C1075 C 0.25890 0.25649 0.47423
 C1076 C 0.25115 0.24816 0.46803
 C1077 C 0.24268 0.24068 0.47439
 C1078 C 0.24189 0.24149 0.48743
 C1079 C 0.24991 0.24974 0.49389
 C1080 C 0.25846 0.25727 0.48726
 C1081 C 0.26632 0.26536 0.49381
 C1082 C 0.26579 0.26609 0.50667
 C1083 C 0.25739 0.25874 0.51343
 C1084 C 0.24934 0.25050 0.50699
 C1085 C 0.23340 0.23424 0.49416
 C1086 C 0.23269 0.23514 0.50699
 C1087 C 0.24067 0.24309 0.51362
 C1088 C 0.24006 0.24403 0.52667
 C1089 C 0.24797 0.25230 0.53282
 C1090 C 0.25663 0.25955 0.52646
 H1091 H 0.27296 0.27121 0.48903
 H1092 H 0.27198 0.27254 0.51126
 H1093 H 0.22717 0.22784 0.48956
 H1094 H 0.22577 0.22956 0.51166
 H1095 H 0.25157 0.24764 0.45801
 H1096 H 0.24758 0.25289 0.54284
 C1097 C 0.75947 0.74366 0.97381
 C1098 C 0.75167 0.75200 0.96767
 C1099 C 0.74307 0.75932 0.97408
 C1100 C 0.74227 0.75836 0.98711
 C1101 C 0.75036 0.75012 0.99351
 C1102 C 0.75899 0.74273 0.98683
 C1103 C 0.76689 0.73461 0.99331
 C1104 C 0.76635 0.73375 1.00616
 C1105 C 0.75789 0.74098 1.01298
 C1106 C 0.74977 0.74921 1.00660
 C1107 C 0.73368 0.76545 0.99390
 C1108 C 0.73296 0.76441 1.00672
 C1109 C 0.74102 0.75649 1.01328
 C1110 C 0.74044 0.75545 1.02632
 C1111 C 0.74841 0.74720 1.03241
 C1112 C 0.75714 0.74005 1.02601
 H1113 H 0.77359 0.72886 0.98848
 H1114 H 0.77258 0.72728 1.01069
 H1115 H 0.72739 0.77185 0.98936
 H1116 H 0.72595 0.76986 1.01142
 H1117 H 0.75211 0.75261 0.95766
 H1118 H 0.74804 0.74656 1.04242
 C1119 C 0.74018 0.25577 0.52643
 C1120 C 0.74808 0.24747 0.53254
 C1121 C 0.75671 0.24019 0.52614
 C1122 C 0.75747 0.24108 0.51312
 C1123 C 0.74942 0.24936 0.50672
 C1124 C 0.74075 0.25676 0.51338
 C1125 C 0.73275 0.26472 0.50680
 C1126 C 0.73342 0.26564 0.49397
 C1127 C 0.74191 0.25842 0.48720
 C1128 C 0.74996 0.25016 0.49362
 C1129 C 0.76588 0.23376 0.50631
 C1130 C 0.76640 0.23454 0.49346
 C1131 C 0.75851 0.24265 0.48695
 C1132 C 0.75893 0.24346 0.47392
 C1133 C 0.75114 0.25180 0.46776
 C1134 C 0.74267 0.25926 0.47416
 H1135 H 0.72582 0.27027 0.51149
 H1136 H 0.72716 0.27205 0.48939
 H1137 H 0.77209 0.22730 0.51087
 H1138 H 0.77305 0.22873 0.48865
 H1139 H 0.74770 0.24683 0.54255
 H1140 H 0.75154 0.25233 0.45774
 C1141 C 0.74353 0.24099 0.02633
 C1142 C 0.75145 0.24925 0.03246
 C1143 C 0.75879 0.25777 0.02604
 C1144 C 0.75831 0.25815 0.01299
 C1145 C 0.75042 0.24975 0.00657
 C1146 C 0.74299 0.24113 0.01324
 C1147 C 0.73553 0.23268 0.00664
 C1148 C 0.73521 0.23281 -0.00624
 C1149 C 0.74243 0.24129 -0.01301
 C1150 C 0.75015 0.24981 -0.00655
 C1151 C 0.76571 0.26649 0.00621
 C1152 C 0.76543 0.26655 -0.00667
 C1153 C 0.75779 0.25825 -0.01321
 C1154 C 0.75765 0.25805 -0.02627
 C1155 C 0.75000 0.24964 -0.03249
 C1156 C 0.74241 0.24130 -0.02609
 H1157 H 0.72999 0.22576 0.01135
 H1158 H 0.72936 0.22606 -0.01086
 H1159 H 0.77186 0.27297 0.01080
 H1160 H 0.77132 0.27313 -0.01147
 H1161 H 0.75183 0.24913 0.04250
 H1162 H 0.75000 0.24955 -0.04253
 C1163 C 0.74120 0.74289 0.52615
 C1164 C 0.74884 0.75123 0.53248
 C1165 C 0.75696 0.75918 0.52622
 C1166 C 0.75749 0.75885 0.51315
 C1167 C 0.74964 0.75053 0.50658
 C1168 C 0.74145 0.74251 0.51310
 C1169 C 0.73373 0.73439 0.50642
 C1170 C 0.73399 0.73416 0.49354
 C1171 C 0.74201 0.74202 0.48690
 C1172 C 0.74993 0.75027 0.49346
 C1173 C 0.76548 0.76673 0.50648
 C1174 C 0.76583 0.76641 0.49360
 C1175 C 0.75812 0.75827 0.48693
 C1176 C 0.75831 0.75794 0.47386
 C1177 C 0.75043 0.74982 0.46754
 C1178 C 0.74232 0.74190 0.47384
 H1179 H 0.72738 0.72817 0.51112
 H1180 H 0.72783 0.72778 0.48881
 H1181 H 0.77151 0.77326 0.51118
 H1182 H 0.77216 0.77264 0.48890
 H1183 H 0.74854 0.75145 0.54252
 H1184 H 0.75063 0.74963 0.45750
 C1185 C 0.97382 0.25803 0.24161
 C1186 C 0.96743 0.24985 0.24935
 C1187 C 0.97374 0.24183 0.25734
 C1188 C 0.98687 0.24193 0.25768
 C1189 C 0.99348 0.25025 0.24988
 C1190 C 0.98694 0.25833 0.24180
 C1191 C 0.99366 0.26653 0.23420
 C1192 C 1.00660 0.26686 0.23459
 C1193 C 1.01328 0.25892 0.24251
 C1194 C 1.00666 0.25051 0.25021
 C1195 C 0.99353 0.23399 0.26560
 C1196 C 1.00647 0.23421 0.26589
 C1197 C 1.01320 0.24242 0.25830
 C1198 C 1.02631 0.24281 0.25860
 C1199 C 1.03269 0.25124 0.25112
 C1200 C 1.02640 0.25927 0.24311
 H1201 H 0.98894 0.27281 0.22793
 H1202 H 1.01132 0.27344 0.22866
 H1203 H 0.98876 0.22755 0.27166
 H1204 H 1.01118 0.22793 0.27216
 H1205 H 0.95734 0.24969 0.24914
 H1206 H 1.04277 0.25148 0.25148
 C1207 C 0.47384 0.25945 0.74406
 C1208 C 0.46750 0.25096 0.75155
 C1209 C 0.47377 0.24200 0.75851
 C1210 C 0.48688 0.24134 0.75799
 C1211 C 0.49352 0.24999 0.75056
 C1212 C 0.48699 0.25913 0.74363
 C1213 C 0.49380 0.26792 0.73680
 C1214 C 0.50674 0.26761 0.73654
 C1215 C 0.51339 0.25847 0.74307
 C1216 C 0.50671 0.24965 0.75027
 C1217 C 0.49353 0.23249 0.76490
 C1218 C 0.50647 0.23213 0.76457
 C1219 C 0.51322 0.24066 0.75739
 C1220 C 0.52635 0.24052 0.75719
 C1221 C 0.53277 0.24912 0.74995
 C1222 C 0.52655 0.25812 0.74297
 H1223 H 0.48919 0.27528 0.73174
 H1224 H 0.51147 0.27473 0.73128
 H1225 H 0.48878 0.22579 0.77068
 H1226 H 0.51116 0.22511 0.77005
 H1227 H 0.45741 0.25124 0.75188
 H1228 H 0.54286 0.24892 0.74992
 C1229 C -0.02640 0.24280 0.74155
 C1230 C -0.03268 0.25094 0.74947
 C1231 C -0.02632 0.25869 0.75766
 C1232 C -0.01320 0.25849 0.75796
 C1233 C -0.00664 0.25019 0.75009
 C1234 C -0.01325 0.24222 0.74193
 C1235 C -0.00652 0.23407 0.73426
 C1236 C 0.00641 0.23356 0.73475
 C1237 C 0.01316 0.24152 0.74258
 C1238 C 0.00656 0.24993 0.75032
 C1239 C -0.00649 0.26639 0.76587
 C1240 C 0.00646 0.26623 0.76601
 C1241 C 0.01314 0.25807 0.75832
 C1242 C 0.02626 0.25785 0.75838
 C1243 C 0.03261 0.24945 0.75084
 C1244 C 0.02632 0.24123 0.74302
 H1245 H -0.01118 0.22796 0.72780
 H1246 H 0.01105 0.22687 0.72887
 H1247 H -0.01122 0.27283 0.77198
 H1248 H 0.01120 0.27255 0.77221
 H1249 H -0.04277 0.25126 0.74926
 H1250 H 0.04270 0.24934 0.75105
 C1251 C 0.52619 0.24083 0.24190
 C1252 C 0.53277 0.24765 0.25073
 C1253 C 0.52674 0.25543 0.25918
 C1254 C 0.51360 0.25615 0.25911
 C1255 C 0.50676 0.24928 0.25017
 C1256 C 0.51309 0.24174 0.24141
 C1257 C 0.50616 0.23522 0.23250
 C1258 C 0.49323 0.23596 0.23228
 C1259 C 0.48672 0.24297 0.24115
 C1260 C 0.49357 0.24985 0.25008
 C1261 C 0.50711 0.26330 0.26788
 C1262 C 0.49418 0.26389 0.26777
 C1263 C 0.48725 0.25728 0.25894
 C1264 C 0.47413 0.25772 0.25886
 C1265 C 0.46754 0.25080 0.25014
 C1266 C 0.47356 0.24348 0.24127
 H1267 H 0.51068 0.22949 0.22561
 H1268 H 0.48839 0.23095 0.22506
 H1269 H 0.51196 0.26839 0.27504
 H1270 H 0.48963 0.26949 0.27477
 H1271 H 0.54284 0.24708 0.25085
 H1272 H 0.45745 0.25112 0.25028
 C1273 C 1.02624 0.74063 0.75615
 C1274 C 1.03239 0.74859 0.74798
 C1275 C 1.02593 0.75731 0.74090
 C1276 C 1.01287 0.75813 0.74183
 C1277 C 1.00643 0.74992 0.74986
 C1278 C 1.01313 0.74115 0.75709
 C1279 C 1.00656 0.73306 0.76492
 C1280 C 0.99365 0.73364 0.76576
 C1281 C 0.98683 0.74227 0.75873
 C1282 C 0.99327 0.75051 0.75071
 C1283 C 1.00611 0.76694 0.73499
 C1284 C 0.99322 0.76763 0.73594
 C1285 C 0.98658 0.75939 0.74358
 C1286 C 0.97345 0.75991 0.74451
 C1287 C 0.96731 0.75182 0.75258
 C1288 C 0.97375 0.74303 0.75962
 H1289 H 1.01135 0.72615 0.77044
 H1290 H 0.98905 0.72727 0.77202
 H1291 H 1.01076 0.77343 0.72889
 H1292 H 0.98852 0.77478 0.73067
 H1293 H 1.04246 0.74819 0.74731
 H1294 H 0.95725 0.75215 0.75319
 C1295 C 0.52664 0.74437 0.25943
 C1296 C 0.53277 0.75258 0.25148
 C1297 C 0.52631 0.75990 0.24296
 C1298 C 0.51322 0.75916 0.24235
 C1299 C 0.50679 0.75101 0.25047
 C1300 C 0.51351 0.74355 0.25903
 C1301 C 0.50689 0.73575 0.26713
 C1302 C 0.49396 0.73509 0.26671
 C1303 C 0.48716 0.74237 0.25831
 C1304 C 0.49361 0.75043 0.25014
 C1305 C 0.50637 0.76652 0.23403
 C1306 C 0.49344 0.76595 0.23371
 C1307 C 0.48689 0.75803 0.24172
 C1308 C 0.47377 0.75753 0.24163
 C1309 C 0.46756 0.74950 0.24967
 C1310 C 0.47404 0.74192 0.25794
 H1311 H 0.51162 0.73016 0.27399
 H1312 H 0.48932 0.72891 0.27312
 H1313 H 0.51096 0.77288 0.22775
 H1314 H 0.48859 0.77183 0.22715
 H1315 H 0.54285 0.75313 0.25175
 H1316 H 0.45748 0.74917 0.24952
 C1317 C -0.02641 0.74096 0.24388
 C1318 C -0.03258 0.74924 0.25174
 C1319 C -0.02613 0.75788 0.25895
 C1320 C -0.01301 0.75831 0.25841
 C1321 C -0.00656 0.74989 0.25057
 C1322 C -0.01326 0.74119 0.24325
 C1323 C -0.00662 0.73274 0.23583
 C1324 C 0.00632 0.73294 0.23542
 C1325 C 0.01313 0.74149 0.24252
 C1326 C 0.00664 0.75002 0.25022
 C1327 C -0.00619 0.76670 0.26570
 C1328 C 0.00676 0.76681 0.26537
 C1329 C 0.01334 0.75851 0.25775
 C1330 C 0.02647 0.75837 0.25753
 C1331 C 0.03271 0.74998 0.24989
 C1332 C 0.02627 0.74156 0.24243
 H1333 H -0.01135 0.72576 0.23038
 H1334 H 0.01097 0.72620 0.22959
 H1335 H -0.01080 0.77319 0.27183
 H1336 H 0.01160 0.77343 0.27119
 H1337 H -0.04266 0.74908 0.25216
 H1338 H 0.04280 0.74991 0.24984
 C1339 C 0.47350 0.75923 0.75744
 C1340 C 0.46708 0.75087 0.74987
 C1341 C 0.47325 0.74238 0.74226
 C1342 C 0.48639 0.74188 0.74242
 C1343 C 0.49311 0.75022 0.75013
 C1344 C 0.48666 0.75902 0.75758
 C1345 C 0.49356 0.76763 0.76456
 C1346 C 0.50650 0.76742 0.76452
 C1347 C 0.51307 0.75861 0.75749
 C1348 C 0.50632 0.75002 0.75010
 C1349 C 0.49300 0.73357 0.73481
 C1350 C 0.50594 0.73328 0.73490
 C1351 C 0.51276 0.74145 0.74242
 C1352 C 0.52587 0.74139 0.74237
 C1353 C 0.53238 0.74975 0.74980
 C1354 C 0.52624 0.75840 0.75727
 H1355 H 0.48903 0.77477 0.76998
 H1356 H 0.51130 0.77438 0.76995
 H1357 H 0.48825 0.72725 0.72863
 H1358 H 0.51057 0.72667 0.72891
 H1359 H 0.45699 0.75105 0.74980
 H1360 H 0.54247 0.74962 0.74964
 C1361 C 0.40430 0.30154 0.30120
 C1362 C 0.39691 0.29428 0.30912
 C1363 C 0.38566 0.29887 0.31371
 C1364 C 0.38150 0.31084 0.31049
 C1365 C 0.38885 0.31808 0.30251
 C1366 C 0.40012 0.31348 0.29792
 C1367 C 0.41615 0.29652 0.29618
 C1368 C 0.41937 0.29844 0.28373
 C1369 C 0.43014 0.29311 0.27880
 C1370 C 0.43794 0.28572 0.28621
 C1371 C 0.43491 0.28405 0.29874
 C1372 C 0.42414 0.28941 0.30368
 C1373 C 0.44865 0.27905 0.28060
 C1374 C 0.45062 0.26639 0.28321
 C1375 C 0.45953 0.25960 0.27664
 C1376 C 0.46672 0.26539 0.26750
 C1377 C 0.46527 0.27816 0.26532
 C1378 C 0.45628 0.28494 0.27181
 H1379 H 0.39973 0.28494 0.31161
 H1380 H 0.38018 0.29293 0.31966
 H1381 H 0.38603 0.32738 0.29992
 H1382 H 0.40566 0.31935 0.29193
 H1383 H 0.41332 0.30371 0.27766
 H1384 H 0.43211 0.29437 0.26906
 H1385 H 0.44083 0.27852 0.30470
 H1386 H 0.42204 0.28796 0.31337
 H1387 H 0.44479 0.26157 0.28981
 H1388 H 0.46042 0.24970 0.27828
 H1389 H 0.47064 0.28271 0.25816
 H1390 H 0.45504 0.29471 0.26969
 C1391 C 0.40449 0.80345 0.80175
 C1392 C 0.39670 0.79545 0.80856
 C1393 C 0.38530 0.79961 0.81321
 C1394 C 0.38110 0.81178 0.81082
 C1395 C 0.38883 0.81975 0.80392
 C1396 C 0.40043 0.81573 0.79969
 C1397 C 0.41651 0.79887 0.79643
 C1398 C 0.42127 0.80398 0.78542
 C1399 C 0.43199 0.79915 0.77995
 C1400 C 0.43807 0.78875 0.78504
 C1401 C 0.43362 0.78393 0.79630
 C1402 C 0.42311 0.78903 0.80200
 C1403 C 0.44829 0.78238 0.77812
 C1404 C 0.45762 0.77555 0.78430
 C1405 C 0.46620 0.76838 0.77763
 C1406 C 0.46586 0.76818 0.76466
 C1407 C 0.45698 0.77543 0.75848
 C1408 C 0.44826 0.78233 0.76509
 H1409 H 0.39920 0.78583 0.81008
 H1410 H 0.37961 0.79306 0.81827
 H1411 H 0.38617 0.82927 0.80207
 H1412 H 0.40622 0.82237 0.79487
 H1413 H 0.41653 0.81146 0.78068
 H1414 H 0.43531 0.80343 0.77152
 H1415 H 0.43792 0.77590 0.80054
 H1416 H 0.42007 0.78505 0.81068
 H1417 H 0.45815 0.77550 0.79429
 H1418 H 0.47285 0.76270 0.78260
 H1419 H 0.45647 0.77532 0.74847
 H1420 H 0.44113 0.78714 0.75990
 C1421 C -0.09654 0.30229 0.80005
 C1422 C -0.10196 0.29657 0.81041
 C1423 C -0.11320 0.30094 0.81524
 C1424 C -0.11932 0.31117 0.80985
 C1425 C -0.11381 0.31697 0.79956
 C1426 C -0.10257 0.31259 0.79473
 C1427 C -0.08486 0.29729 0.79457
 C1428 C -0.08344 0.29668 0.78167
 C1429 C -0.07273 0.29152 0.77645
 C1430 C -0.06320 0.28680 0.78399
 C1431 C -0.06452 0.28754 0.79691
 C1432 C -0.07522 0.29277 0.80214
 C1433 C -0.05231 0.28049 0.77831
 C1434 C -0.04812 0.26901 0.78295
 C1435 C -0.03905 0.26222 0.77660
 C1436 C -0.03394 0.26687 0.76561
 C1437 C -0.03762 0.27858 0.76127
 C1438 C -0.04673 0.28536 0.76758
 H1439 H -0.09766 0.28850 0.81462
 H1440 H -0.11711 0.29615 0.82312
 H1441 H -0.11813 0.32492 0.79520
 H1442 H -0.09856 0.31732 0.78685
 H1443 H -0.09077 0.29984 0.77557
 H1444 H -0.07211 0.29084 0.76647
 H1445 H -0.05727 0.28407 0.80295
 H1446 H -0.07595 0.29327 0.81212
 H1447 H -0.05234 0.26496 0.79110
 H1448 H -0.03642 0.25308 0.77993
 H1449 H -0.03384 0.28221 0.75272
 H1450 H -0.04968 0.29424 0.76388
 C1451 C -0.09620 0.80266 0.29980
 C1452 C -0.10307 0.79536 0.30814
 C1453 C -0.11449 0.79953 0.31269
 C1454 C -0.11934 0.81111 0.30904
 C1455 C -0.11245 0.81841 0.30069
 C1456 C -0.10103 0.81422 0.29611
 C1457 C -0.08421 0.79803 0.29476
 C1458 C -0.08145 0.79926 0.28212
 C1459 C -0.07063 0.79401 0.27720
 C1460 C -0.06232 0.78743 0.28482
 C1461 C -0.06485 0.78662 0.29755
 C1462 C -0.07567 0.79186 0.30247
 C1463 C -0.05169 0.78055 0.27932
 C1464 C -0.04924 0.76825 0.28302
 C1465 C -0.04036 0.76111 0.27681
 C1466 C -0.03367 0.76617 0.26689
 C1467 C -0.03564 0.77861 0.26352
 C1468 C -0.04459 0.78576 0.26969
 H1469 H -0.09971 0.78630 0.31097
 H1470 H -0.11957 0.79357 0.31897
 H1471 H -0.11578 0.82744 0.29777
 H1472 H -0.09589 0.82010 0.28979
 H1473 H -0.08791 0.80384 0.27593
 H1474 H -0.06904 0.79462 0.26732
 H1475 H -0.05853 0.78177 0.30368
 H1476 H -0.07744 0.79097 0.31229
 H1477 H -0.05465 0.76392 0.29028
 H1478 H -0.03907 0.75147 0.27940
 H1479 H -0.03064 0.78259 0.25578
 H1480 H -0.04621 0.79524 0.26671
 C1481 C 0.59527 0.69808 0.30236
 C1482 C 0.59740 0.69728 0.31519
 C1483 C 0.60861 0.69259 0.31976
 C1484 C 0.61787 0.68834 0.31164
 C1485 C 0.61571 0.68885 0.29886
 C1486 C 0.60460 0.69378 0.29426
 C1487 C 0.58360 0.70372 0.29744
 C1488 C 0.57838 0.69955 0.28625
 C1489 C 0.56802 0.70551 0.28115
 C1490 C 0.56247 0.71568 0.28720
 C1491 C 0.56733 0.71947 0.29867
 C1492 C 0.57781 0.71366 0.30367
 C1493 C 0.55225 0.72281 0.28117
 C1494 C 0.55175 0.73584 0.28230
 C1495 C 0.54296 0.74274 0.27574
 C1496 C 0.53451 0.73680 0.26782
 C1497 C 0.53474 0.72379 0.26686
 C1498 C 0.54344 0.71684 0.27357
 H1499 H 0.59038 0.70023 0.32173
 H1500 H 0.60998 0.69215 0.32967
 H1501 H 0.62276 0.68577 0.29239
 H1502 H 0.60347 0.69448 0.28434
 H1503 H 0.58238 0.69176 0.28131
 H1504 H 0.56465 0.70237 0.27225
 H1505 H 0.56316 0.72710 0.30373
 H1506 H 0.58157 0.71724 0.31224
 H1507 H 0.55850 0.74082 0.28784
 H1508 H 0.54304 0.75279 0.27647
 H1509 H 0.52844 0.71905 0.26063
 H1510 H 0.54342 0.70682 0.27260
 C1511 C 0.59628 0.19834 0.80111
 C1512 C 0.60250 0.18848 0.79524
 C1513 C 0.61363 0.18381 0.80005
 C1514 C 0.61883 0.18890 0.81087
 C1515 C 0.61254 0.19872 0.81678
 C1516 C 0.60141 0.20337 0.81197
 C1517 C 0.58469 0.20359 0.79575
 C1518 C 0.58268 0.21651 0.79575
 C1519 C 0.57199 0.22153 0.79039
 C1520 C 0.56310 0.21377 0.78483
 C1521 C 0.56502 0.20085 0.78490
 C1522 C 0.57568 0.19580 0.79036
 C1523 C 0.55226 0.21930 0.77842
 C1524 C 0.54926 0.21563 0.76630
 C1525 C 0.54021 0.22208 0.75957
 C1526 C 0.53391 0.23214 0.76495
 C1527 C 0.53640 0.23540 0.77725
 C1528 C 0.54553 0.22905 0.78394
 H1529 H 0.59890 0.18451 0.78675
 H1530 H 0.61815 0.17629 0.79518
 H1531 H 0.61615 0.20288 0.82514
 H1532 H 0.59677 0.21087 0.81680
 H1533 H 0.58954 0.22278 0.79959
 H1534 H 0.57086 0.23154 0.79023
 H1535 H 0.55825 0.19468 0.78074
 H1536 H 0.57686 0.18580 0.79039
 H1537 H 0.55439 0.20824 0.76180
 H1538 H 0.53852 0.21961 0.75001
 H1539 H 0.53172 0.24327 0.78145
 H1540 H 0.54763 0.23200 0.79329
 C1541 C 1.09622 0.69899 0.80083
 C1542 C 1.10359 0.69066 0.79400
 C1543 C 1.11465 0.68597 0.79892
 C1544 C 1.11863 0.68952 0.81079
 C1545 C 1.11129 0.69790 0.81761
 C1546 C 1.10020 0.70257 0.81269
 C1547 C 1.08454 0.70408 0.79549
 C1548 C 1.08137 0.71665 0.79719
 C1549 C 1.07071 0.72159 0.79167
 C1550 C 1.06300 0.71408 0.78430
 C1551 C 1.06600 0.70145 0.78282
 C1552 C 1.07664 0.69650 0.78838
 C1553 C 1.05237 0.71965 0.77754
 C1554 C 1.05061 0.71700 0.76493
 C1555 C 1.04160 0.72336 0.75811
 C1556 C 1.03408 0.73235 0.76381
 C1557 C 1.03543 0.73464 0.77651
 C1558 C 1.04452 0.72834 0.78333
 H1559 H 1.10091 0.68791 0.78474
 H1560 H 1.12014 0.67969 0.79333
 H1561 H 1.11398 0.70075 0.82682
 H1562 H 1.09467 0.70886 0.81825
 H1563 H 1.08735 0.72278 0.80245
 H1564 H 1.06874 0.73140 0.79280
 H1565 H 1.06015 0.69543 0.77729
 H1566 H 1.07870 0.68672 0.78709
 H1567 H 1.05663 0.71047 0.76019
 H1568 H 1.04080 0.72163 0.74827
 H1569 H 1.02983 0.74169 0.78100
 H1570 H 1.04563 0.73049 0.79305
 C1571 C 1.09611 0.19955 0.30165
 C1572 C 1.10169 0.20483 0.31215
 C1573 C 1.11276 0.19998 0.31687
 C1574 C 1.11854 0.18971 0.31123
 C1575 C 1.11287 0.18435 0.30078
 C1576 C 1.10178 0.18920 0.29606
 C1577 C 1.08463 0.20508 0.29637
 C1578 C 1.07497 0.19750 0.29190
 C1579 C 1.06430 0.20283 0.28671
 C1580 C 1.06309 0.21582 0.28593
 C1581 C 1.07272 0.22337 0.29048
 C1582 C 1.08337 0.21806 0.29562
 C1583 C 1.05219 0.22161 0.27983
 C1584 C 1.04669 0.23235 0.28487
 C1585 C 1.03761 0.23884 0.27827
 C1586 C 1.03388 0.23467 0.26657
 C1587 C 1.03888 0.22365 0.26177
 C1588 C 1.04793 0.21711 0.26838
 H1589 H 1.09746 0.21271 0.31676
 H1590 H 1.11674 0.20440 0.32493
 H1591 H 1.11699 0.17644 0.29615
 H1592 H 1.09777 0.18502 0.28786
 H1593 H 1.07562 0.18747 0.29251
 H1594 H 1.05698 0.19681 0.28333
 H1595 H 1.07218 0.23340 0.28973
 H1596 H 1.09076 0.22413 0.29874
 H1597 H 1.04971 0.23593 0.29374
 H1598 H 1.03389 0.24742 0.28201
 H1599 H 1.03619 0.22045 0.25265
 H1600 H 1.05210 0.20894 0.26423
 C1601 C 0.59543 0.30271 0.69914
 C1602 C 0.60414 0.29453 0.69378
 C1603 C 0.61524 0.29902 0.68879
 C1604 C 0.61804 0.31175 0.68929
 C1605 C 0.60946 0.31994 0.69471
 C1606 C 0.59823 0.31550 0.69946
 C1607 C 0.58367 0.29786 0.70461
 C1608 C 0.57844 0.30344 0.71518
 C1609 C 0.56786 0.29841 0.72075
 C1610 C 0.56234 0.28753 0.71606
 C1611 C 0.56733 0.28218 0.70528
 C1612 C 0.57778 0.28734 0.69957
 C1613 C 0.55206 0.28126 0.72287
 C1614 C 0.54283 0.27449 0.71652
 C1615 C 0.53413 0.26736 0.72304
 C1616 C 0.53435 0.26706 0.73600
 C1617 C 0.54317 0.27423 0.74236
 C1618 C 0.55194 0.28121 0.73588
 H1619 H 0.60252 0.28460 0.69364
 H1620 H 0.62178 0.29249 0.68479
 H1621 H 0.61134 0.32983 0.69506
 H1622 H 0.59170 0.32213 0.70327
 H1623 H 0.58273 0.31149 0.71942
 H1624 H 0.56414 0.30295 0.72889
 H1625 H 0.56346 0.27372 0.70145
 H1626 H 0.58132 0.28294 0.69128
 H1627 H 0.54249 0.27445 0.70652
 H1628 H 0.52750 0.26175 0.71796
 H1629 H 0.54356 0.27401 0.75237
 H1630 H 0.55900 0.28609 0.74112
 C1631 C 0.59562 0.80170 0.19786
 C1632 C 0.60275 0.81015 0.20478
 C1633 C 0.61395 0.81477 0.20011
 C1634 C 0.61827 0.81106 0.18840
 C1635 C 0.61108 0.80263 0.18147
 C1636 C 0.59990 0.79799 0.18616
 C1637 C 0.58392 0.79653 0.20300
 C1638 C 0.58125 0.78379 0.20185
 C1639 C 0.57059 0.77877 0.20728
 C1640 C 0.56237 0.78638 0.21398
 C1641 C 0.56486 0.79918 0.21485
 C1642 C 0.57553 0.80420 0.20941
 C1643 C 0.55178 0.78078 0.22078
 C1644 C 0.54942 0.78426 0.23309
 C1645 C 0.54057 0.77790 0.24010
 C1646 C 0.53382 0.76805 0.23488
 C1647 C 0.53570 0.76493 0.22243
 C1648 C 0.54462 0.77125 0.21542
 H1649 H 0.59979 0.81301 0.21392
 H1650 H 0.61927 0.82112 0.20578
 H1651 H 0.61399 0.79964 0.17237
 H1652 H 0.59453 0.79159 0.18057
 H1653 H 0.58764 0.77762 0.19711
 H1654 H 0.56905 0.76884 0.20665
 H1655 H 0.55860 0.80528 0.21983
 H1656 H 0.57724 0.81409 0.21026
 H1657 H 0.55489 0.79145 0.23752
 H1658 H 0.53934 0.78030 0.24976
 H1659 H 0.53066 0.75725 0.21833
 H1660 H 0.54617 0.76846 0.20592
 C1661 C 1.09598 0.30240 0.19948
 C1662 C 1.09976 0.29924 0.18745
 C1663 C 1.11087 0.30386 0.18261
 C1664 C 1.11849 0.31177 0.18968
 C1665 C 1.11467 0.31498 0.20170
 C1666 C 1.10354 0.31035 0.20654
 C1667 C 1.08434 0.29719 0.20474
 C1668 C 1.07652 0.30453 0.21218
 C1669 C 1.06585 0.29943 0.21755
 C1670 C 1.06277 0.28688 0.21558
 C1671 C 1.07044 0.27963 0.20791
 C1672 C 1.08110 0.28471 0.20256
 C1673 C 1.05215 0.28108 0.22215
 C1674 C 1.04453 0.27230 0.21619
 C1675 C 1.03558 0.26567 0.22286
 C1676 C 1.03410 0.26776 0.23557
 C1677 C 1.04131 0.27688 0.24144
 C1678 C 1.05022 0.28353 0.23478
 H1679 H 1.09407 0.29326 0.18172
 H1680 H 1.11339 0.30126 0.17328
 H1681 H 1.12032 0.32094 0.20747
 H1682 H 1.10099 0.31279 0.21592
 H1683 H 1.07865 0.31423 0.21385
 H1684 H 1.06005 0.30527 0.22331
 H1685 H 1.06844 0.26987 0.20641
 H1686 H 1.08702 0.27875 0.19704
 H1687 H 1.04573 0.27032 0.20644
 H1688 H 1.03017 0.25856 0.21824
 H1689 H 1.04038 0.27848 0.25129
 H1690 H 1.05604 0.29012 0.23967
 C1691 C 1.09641 0.79987 0.69851
 C1692 C 1.10217 0.79446 0.68817
 C1693 C 1.11317 0.79940 0.68342
 C1694 C 1.11872 0.80990 0.68887
 C1695 C 1.11295 0.81530 0.69926
 C1696 C 1.10192 0.81034 0.70401
 C1697 C 1.08480 0.79444 0.70362
 C1698 C 1.07507 0.80212 0.70778
 C1699 C 1.06424 0.79692 0.71274
 C1700 C 1.06292 0.78395 0.71359
 C1701 C 1.07261 0.77630 0.70934
 C1702 C 1.08342 0.78148 0.70443
 C1703 C 1.05186 0.77830 0.71955
 C1704 C 1.04655 0.76739 0.71468
 C1705 C 1.03743 0.76097 0.72129
 C1706 C 1.03341 0.76541 0.73279
 C1707 C 1.03814 0.77665 0.73736
 C1708 C 1.04727 0.78309 0.73076
 H1709 H 1.09808 0.78646 0.68364
 H1710 H 1.11723 0.79495 0.67541
 H1711 H 1.11693 0.82332 0.70379
 H1712 H 1.09780 0.81460 0.71211
 H1713 H 1.07580 0.81214 0.70711
 H1714 H 1.05687 0.80303 0.71587
 H1715 H 1.07198 0.76628 0.71014
 H1716 H 1.09084 0.77532 0.70152
 H1717 H 1.04979 0.76359 0.70598
 H1718 H 1.03392 0.75223 0.71772
 H1719 H 1.03524 0.78007 0.74634
 H1720 H 1.05125 0.79140 0.73478
 C1721 C 0.40482 0.69721 0.69794
 C1722 C 0.40265 0.69692 0.68509
 C1723 C 0.39133 0.69264 0.68038
 C1724 C 0.38204 0.68825 0.68836
 C1725 C 0.38422 0.68827 0.70115
 C1726 C 0.39541 0.69284 0.70590
 C1727 C 0.41660 0.70245 0.70307
 C1728 C 0.42150 0.69809 0.71434
 C1729 C 0.43185 0.70381 0.71972
 C1730 C 0.43776 0.71386 0.71385
 C1731 C 0.43331 0.71774 0.70224
 C1732 C 0.42280 0.71222 0.69700
 C1733 C 0.44789 0.72086 0.72020
 C1734 C 0.44879 0.73384 0.71878
 C1735 C 0.45749 0.74065 0.72552
 C1736 C 0.46543 0.73471 0.73394
 C1737 C 0.46479 0.72175 0.73526
 C1738 C 0.45620 0.71486 0.72835
 H1739 H 0.40971 0.69991 0.67862
 H1740 H 0.38993 0.69256 0.67046
 H1741 H 0.37715 0.68504 0.70751
 H1742 H 0.39652 0.69317 0.71584
 H1743 H 0.41725 0.69037 0.71916
 H1744 H 0.43489 0.70059 0.72871
 H1745 H 0.43778 0.72524 0.69726
 H1746 H 0.41933 0.71595 0.68837
 H1747 H 0.44243 0.73887 0.71286
 H1748 H 0.45774 0.75067 0.72450
 H1749 H 0.47072 0.71702 0.74185
 H1750 H 0.45592 0.70487 0.72957
 C1751 C 0.40444 0.19797 0.19910
 C1752 C 0.39522 0.19282 0.20672
 C1753 C 0.38460 0.18744 0.20155
 C1754 C 0.38290 0.18733 0.18866
 C1755 C 0.39215 0.19248 0.18104
 C1756 C 0.40288 0.19766 0.18621
 C1757 C 0.41542 0.20412 0.20458
 C1758 C 0.42749 0.20114 0.20056
 C1759 C 0.43781 0.20720 0.20564
 C1760 C 0.43616 0.21651 0.21458
 C1761 C 0.42411 0.21947 0.21859
 C1762 C 0.41383 0.21325 0.21372
 C1763 C 0.44689 0.22326 0.21981
 C1764 C 0.44698 0.23631 0.21970
 C1765 C 0.45625 0.24284 0.22595
 C1766 C 0.46549 0.23646 0.23259
 C1767 C 0.46568 0.22339 0.23231
 C1768 C 0.45652 0.21683 0.22581
 H1769 H 0.39625 0.19296 0.21669
 H1770 H 0.37759 0.18364 0.20765
 H1771 H 0.39112 0.19248 0.17108
 H1772 H 0.40982 0.20169 0.18017
 H1773 H 0.42890 0.19408 0.19355
 H1774 H 0.44705 0.20479 0.20245
 H1775 H 0.42266 0.22656 0.22557
 H1776 H 0.40461 0.21575 0.21690
 H1777 H 0.43966 0.24142 0.21507
 H1778 H 0.45588 0.25291 0.22611
 H1779 H 0.47257 0.21829 0.23757
 H1780 H 0.45655 0.20676 0.22605
 C1781 C -0.09529 0.69724 0.19894
 C1782 C -0.10439 0.70553 0.19446
 C1783 C -0.11562 0.70110 0.18970
 C1784 C -0.11817 0.68831 0.18956
 C1785 C -0.10917 0.68000 0.19406
 C1786 C -0.09781 0.68440 0.19858
 C1787 C -0.08345 0.70204 0.20432
 C1788 C -0.07778 0.69599 0.21439
 C1789 C -0.06722 0.70101 0.22003
 C1790 C -0.06215 0.71234 0.21590
 C1791 C -0.06754 0.71814 0.20554
 C1792 C -0.07798 0.71301 0.19977
 C1793 C -0.05192 0.71853 0.22288
 C1794 C -0.04305 0.72598 0.21679
 C1795 C -0.03438 0.73291 0.22356
 C1796 C -0.03425 0.73233 0.23653
 C1797 C -0.04275 0.72455 0.24260
 C1798 C -0.05150 0.71776 0.23587
 H1799 H -0.10296 0.71548 0.19485
 H1800 H -0.12246 0.70771 0.18640
 H1801 H -0.11083 0.67006 0.19388
 H1802 H -0.09098 0.67770 0.20169
 H1803 H -0.08171 0.68758 0.21823
 H1804 H -0.06317 0.69612 0.22779
 H1805 H -0.06401 0.72692 0.20213
 H1806 H -0.08186 0.71778 0.19185
 H1807 H -0.04295 0.72668 0.20681
 H1808 H -0.02803 0.73902 0.21872
 H1809 H -0.04290 0.72409 0.25261
 H1810 H -0.05829 0.71236 0.24093
 C1811 C -0.09515 0.19792 0.69764
 C1812 C -0.10446 0.19351 0.70569
 C1813 C -0.11558 0.18868 0.70104
 C1814 C -0.11778 0.18843 0.68827
 C1815 C -0.10859 0.19286 0.68019
 C1816 C -0.09734 0.19742 0.68481
 C1817 C -0.08341 0.20333 0.70264
 C1818 C -0.07738 0.21316 0.69649
 C1819 C -0.06679 0.21871 0.70156
 C1820 C -0.06208 0.21477 0.71305
 C1821 C -0.06789 0.20472 0.71902
 C1822 C -0.07832 0.19900 0.71383
 C1823 C -0.05178 0.22167 0.71921
 C1824 C -0.04334 0.21555 0.72712
 C1825 C -0.03470 0.22232 0.73405
 C1826 C -0.03412 0.23531 0.73299
 C1827 C -0.04211 0.24138 0.72472
 C1828 C -0.05087 0.23467 0.71794
 H1829 H -0.10332 0.19401 0.71562
 H1830 H -0.12259 0.18544 0.70747
 H1831 H -0.11001 0.19261 0.67028
 H1832 H -0.09035 0.20045 0.67828
 H1833 H -0.08102 0.21688 0.68793
 H1834 H -0.06243 0.22624 0.69653
 H1835 H -0.06468 0.20149 0.72795
 H1836 H -0.08247 0.19126 0.71871
 H1837 H -0.04359 0.20554 0.72817
 H1838 H -0.02872 0.21749 0.74053
 H1839 H -0.04189 0.25142 0.72388
 H1840 H -0.05730 0.23979 0.71216
 C1841 C 0.30060 0.40415 0.30238
 C1842 C 0.29641 0.39929 0.31369
 C1843 C 0.30121 0.38811 0.31824
 C1844 C 0.31031 0.38150 0.31158
 C1845 C 0.31452 0.38641 0.30028
 C1846 C 0.30974 0.39761 0.29575
 C1847 C 0.29519 0.41580 0.29735
 C1848 C 0.30280 0.42474 0.29163
 C1849 C 0.29758 0.43539 0.28632
 C1850 C 0.28466 0.43733 0.28662
 C1851 C 0.27710 0.42854 0.29261
 C1852 C 0.28231 0.41790 0.29792
 C1853 C 0.27894 0.44795 0.27994
 C1854 C 0.26877 0.45442 0.28501
 C1855 C 0.26246 0.46338 0.27802
 C1856 C 0.26624 0.46598 0.26589
 C1857 C 0.27666 0.45991 0.26098
 C1858 C 0.28301 0.45101 0.26796
 H1859 H 0.28948 0.40419 0.31908
 H1860 H 0.29780 0.38475 0.32703
 H1861 H 0.32141 0.38156 0.29481
 H1862 H 0.31300 0.40103 0.28690
 H1863 H 0.31278 0.42347 0.29124
 H1864 H 0.30365 0.44209 0.28190
 H1865 H 0.26710 0.42965 0.29278
 H1866 H 0.27620 0.41110 0.30211
 H1867 H 0.26551 0.45232 0.29425
 H1868 H 0.25433 0.46790 0.28187
 H1869 H 0.27956 0.46170 0.25155
 H1870 H 0.29069 0.44608 0.26374
 C1871 C 0.30258 -0.09505 0.80336
 C1872 C 0.30929 -0.10327 0.79572
 C1873 C 0.31434 -0.11427 0.80045
 C1874 C 0.31249 -0.11765 0.81290
 C1875 C 0.30574 -0.10946 0.82054
 C1876 C 0.30107 -0.09825 0.81590
 C1877 C 0.29685 -0.08346 0.79820
 C1878 C 0.28587 -0.07853 0.80333
 C1879 C 0.28015 -0.06810 0.79816
 C1880 C 0.28493 -0.06248 0.78741
 C1881 C 0.29607 -0.06720 0.78244
 C1882 C 0.30203 -0.07741 0.78786
 C1883 C 0.27790 -0.05233 0.78101
 C1884 C 0.28403 -0.04330 0.77377
 C1885 C 0.27723 -0.03462 0.76684
 C1886 C 0.26419 -0.03455 0.76730
 C1887 C 0.25809 -0.04320 0.77487
 C1888 C 0.26482 -0.05203 0.78153
 H1889 H 0.31042 -0.10143 0.78595
 H1890 H 0.31928 -0.12032 0.79414
 H1891 H 0.30429 -0.11147 0.83023
 H1892 H 0.29634 -0.09209 0.82225
 H1893 H 0.28141 -0.08290 0.81117
 H1894 H 0.27181 -0.06459 0.80254
 H1895 H 0.30007 -0.06328 0.77413
 H1896 H 0.31064 -0.08062 0.78379
 H1897 H 0.29407 -0.04303 0.77326
 H1898 H 0.28213 -0.02820 0.76087
 H1899 H 0.24803 -0.04342 0.77524
 H1900 H 0.25965 -0.05894 0.78666
 C1901 C 0.80247 0.40461 0.80250
 C1902 C 0.80159 0.40178 0.81518
 C1903 C 0.80628 0.39060 0.81984
 C1904 C 0.81237 0.38204 0.81206
 C1905 C 0.81366 0.38507 0.79946
 C1906 C 0.80861 0.39607 0.79472
 C1907 C 0.79665 0.41614 0.79735
 C1908 C 0.80145 0.42188 0.78666
 C1909 C 0.79539 0.43204 0.78128
 C1910 C 0.78453 0.43701 0.78662
 C1911 C 0.78012 0.43169 0.79766
 C1912 C 0.78596 0.42132 0.80284
 C1913 C 0.77744 0.44714 0.78032
 C1914 C 0.76438 0.44754 0.78112
 C1915 C 0.75759 0.45641 0.77456
 C1916 C 0.76362 0.46501 0.76688
 C1917 C 0.77664 0.46478 0.76612
 C1918 C 0.78350 0.45607 0.77291
 H1919 H 0.79732 0.40820 0.82160
 H1920 H 0.80530 0.38889 0.82965
 H1921 H 0.81813 0.37876 0.79305
 H1922 H 0.80926 0.39767 0.78487
 H1923 H 0.80983 0.41846 0.78230
 H1924 H 0.79907 0.43573 0.77272
 H1925 H 0.77200 0.43541 0.80228
 H1926 H 0.78181 0.41719 0.81097
 H1927 H 0.75928 0.44070 0.78642
 H1928 H 0.74753 0.45631 0.77515
 H1929 H 0.78148 0.47117 0.76005
 H1930 H 0.79353 0.45623 0.77218
 C1931 C 0.80087 -0.09562 0.30282
 C1932 C 0.79910 -0.09904 0.31525
 C1933 C 0.80390 -0.11020 0.31982
 C1934 C 0.81097 -0.11814 0.31221
 C1935 C 0.81308 -0.11453 0.29987
 C1936 C 0.80794 -0.10355 0.29520
 C1937 C 0.79506 -0.08407 0.29774
 C1938 C 0.80059 -0.07758 0.28786
 C1939 C 0.79466 -0.06734 0.28250
 C1940 C 0.78318 -0.06307 0.28707
 C1941 C 0.77797 -0.06917 0.29734
 C1942 C 0.78371 -0.07961 0.30247
 C1943 C 0.77631 -0.05283 0.28070
 C1944 C 0.76322 -0.05287 0.28035
 C1945 C 0.75674 -0.04392 0.27359
 C1946 C 0.76314 -0.03483 0.26682
 C1947 C 0.77617 -0.03459 0.26725
 C1948 C 0.78269 -0.04337 0.27428
 H1949 H 0.79405 -0.09307 0.32156
 H1950 H 0.80224 -0.11237 0.32945
 H1951 H 0.81830 -0.12037 0.29359
 H1952 H 0.80929 -0.10148 0.28550
 H1953 H 0.80948 -0.08046 0.28413
 H1954 H 0.79897 -0.06305 0.27453
 H1955 H 0.76932 -0.06601 0.30138
 H1956 H 0.77900 -0.08436 0.30994
 H1957 H 0.75791 -0.06010 0.28487
 H1958 H 0.74668 -0.04437 0.27325
 H1959 H 0.78131 -0.02781 0.26190
 H1960 H 0.79273 -0.04283 0.27449
 C1961 C 0.30120 0.59596 0.69884
 C1962 C 0.31134 0.60187 0.70454
 C1963 C 0.31597 0.61309 0.69989
 C1964 C 0.31058 0.61867 0.68939
 C1965 C 0.30052 0.61264 0.68363
 C1966 C 0.29592 0.60144 0.68827
 C1967 C 0.29583 0.58436 0.70407
 C1968 C 0.28288 0.58274 0.70440
 C1969 C 0.27770 0.57201 0.70950
 C1970 C 0.28534 0.56265 0.71444
 C1971 C 0.29830 0.56421 0.71411
 C1972 C 0.30351 0.57495 0.70893
 C1973 C 0.27962 0.55168 0.72051
 C1974 C 0.28375 0.54776 0.73222
 C1975 C 0.27715 0.53870 0.73877
 C1976 C 0.26645 0.53335 0.73365
 C1977 C 0.26269 0.53672 0.72171
 C1978 C 0.26924 0.54581 0.71517
 H1979 H 0.31553 0.59796 0.71278
 H1980 H 0.32370 0.61740 0.70462
 H1981 H 0.29612 0.61651 0.67551
 H1982 H 0.28823 0.59702 0.68353
 H1983 H 0.27670 0.58991 0.70100
 H1984 H 0.26767 0.57119 0.70990
 H1985 H 0.30440 0.55711 0.71781
 H1986 H 0.31353 0.57586 0.70867
 H1987 H 0.29164 0.55221 0.73660
 H1988 H 0.28002 0.53631 0.74808
 H1989 H 0.25435 0.53275 0.71771
 H1990 H 0.26595 0.54857 0.70611
 C1991 C 0.30213 1.09587 0.19843
 C1992 C 0.29391 1.10470 0.19333
 C1993 C 0.29837 1.11592 0.18855
 C1994 C 0.31110 1.11870 0.18901
 C1995 C 0.31933 1.10996 0.19409
 C1996 C 0.31493 1.09862 0.19862
 C1997 C 0.29732 1.08409 0.20389
 C1998 C 0.30300 1.07883 0.21438
 C1999 C 0.29801 1.06825 0.21999
 C2000 C 0.28705 1.06277 0.21544
 C2001 C 0.28159 1.06780 0.20473
 C2002 C 0.28671 1.07824 0.19897
 C2003 C 0.28085 1.05249 0.22233
 C2004 C 0.27394 1.04329 0.21610
 C2005 C 0.26699 1.03453 0.22273
 C2006 C 0.26704 1.03465 0.23570
 C2007 C 0.27432 1.04347 0.24193
 C2008 C 0.28110 1.05231 0.23534
 H2009 H 0.28398 1.10309 0.19326
 H2010 H 0.29181 1.12257 0.18479
 H2011 H 0.32922 1.11180 0.19437
 H2012 H 0.32158 1.09199 0.20221
 H2013 H 0.31110 1.08308 0.21853
 H2014 H 0.30264 1.06451 0.22807
 H2015 H 0.27308 1.06395 0.20099
 H2016 H 0.28223 1.08182 0.19074
 H2017 H 0.27366 1.04300 0.20609
 H2018 H 0.26128 1.02792 0.21776
 H2019 H 0.27436 1.04380 0.25195
 H2020 H 0.28607 1.05935 0.24051
 C2021 C 0.80104 0.59541 0.19743
 C2022 C 0.80123 0.59779 0.18463
 C2023 C 0.80611 0.60890 0.18003
 C2024 C 0.81119 0.61778 0.18808
 C2025 C 0.81130 0.61536 0.20083
 C2026 C 0.80616 0.60437 0.20547
 C2027 C 0.79523 0.58385 0.20240
 C2028 C 0.79977 0.57823 0.21324
 C2029 C 0.79378 0.56791 0.21836
 C2030 C 0.78321 0.56278 0.21265
 C2031 C 0.77898 0.56808 0.20153
 C2032 C 0.78483 0.57854 0.19654
 C2033 C 0.77617 0.55251 0.21869
 C2034 C 0.76310 0.55226 0.21813
 C2035 C 0.75637 0.54338 0.22476
 C2036 C 0.76253 0.53461 0.23216
 C2037 C 0.77557 0.53460 0.23250
 C2038 C 0.78233 0.54337 0.22573
 H2039 H 0.79767 0.59103 0.17810
 H2040 H 0.80608 0.61047 0.17013
 H2041 H 0.81505 0.62212 0.20725
 H2042 H 0.80596 0.60304 0.21539
 H2043 H 0.80791 0.58186 0.21790
 H2044 H 0.79725 0.56420 0.22700
 H2045 H 0.77101 0.56426 0.19673
 H2046 H 0.78094 0.58263 0.18825
 H2047 H 0.75799 0.55924 0.21302
 H2048 H 0.74631 0.54364 0.22448
 H2049 H 0.78049 0.52803 0.23832
 H2050 H 0.79238 0.54314 0.22622
 C2051 C 0.80220 1.09575 0.69872
 C2052 C 0.81500 1.09851 0.69898
 C2053 C 0.81943 1.10985 0.69445
 C2054 C 0.81122 1.11858 0.68930
 C2055 C 0.79849 1.11579 0.68881
 C2056 C 0.79402 1.10458 0.69358
 C2057 C 0.79733 1.08394 0.70410
 C2058 C 0.78664 1.07824 0.69919
 C2059 C 0.78142 1.06782 0.70490
 C2060 C 0.78688 1.06264 0.71554
 C2061 C 0.79793 1.06795 0.72007
 C2062 C 0.80302 1.07852 0.71451
 C2063 C 0.78060 1.05235 0.72235
 C2064 C 0.78095 1.05201 0.73536
 C2065 C 0.77409 1.04317 0.74189
 C2066 C 0.76666 1.03452 0.73560
 C2067 C 0.76651 1.03457 0.72263
 C2068 C 0.77352 1.04332 0.71606
 H2069 H 0.82164 1.09188 0.70261
 H2070 H 0.82932 1.11170 0.69478
 H2071 H 0.79194 1.12242 0.68500
 H2072 H 0.78408 1.10300 0.69348
 H2073 H 0.78216 1.08191 0.69101
 H2074 H 0.77284 1.06412 0.70118
 H2075 H 0.80257 1.06408 0.72808
 H2076 H 0.81118 1.08265 0.71866
 H2077 H 0.78605 1.05891 0.74058
 H2078 H 0.77421 1.04336 0.75191
 H2079 H 0.76069 1.02808 0.71762
 H2080 H 0.77317 1.04316 0.70606
 C2081 C 0.69851 0.59554 0.30225
 C2082 C 0.68996 0.60244 0.29520
 C2083 C 0.68542 0.61384 0.29953
 C2084 C 0.68929 0.61856 0.31104
 C2085 C 0.69776 0.61156 0.31811
 C2086 C 0.70232 0.60021 0.31376
 C2087 C 0.70371 0.58370 0.29745
 C2088 C 0.71649 0.58119 0.29851
 C2089 C 0.72157 0.57040 0.29337
 C2090 C 0.71397 0.56186 0.28707
 C2091 C 0.70112 0.56417 0.28636
 C2092 C 0.69605 0.57498 0.29148
 C2093 C 0.71964 0.55120 0.28038
 C2094 C 0.71578 0.54838 0.26828
 C2095 C 0.72220 0.53959 0.26124
 C2096 C 0.73251 0.53336 0.26620
 C2097 C 0.73604 0.53567 0.27847
 C2098 C 0.72964 0.54451 0.28553
 H2099 H 0.68700 0.59916 0.28620
 H2100 H 0.67901 0.61898 0.29376
 H2101 H 0.70088 0.61475 0.32707
 H2102 H 0.70879 0.59502 0.31945
 H2103 H 0.72265 0.58780 0.30293
 H2104 H 0.73153 0.56902 0.29388
 H2105 H 0.69502 0.55766 0.28172
 H2106 H 0.68613 0.57657 0.29073
 H2107 H 0.70824 0.55347 0.26399
 H2108 H 0.71948 0.53803 0.25172
 H2109 H 0.74408 0.53104 0.28238
 H2110 H 0.73274 0.54640 0.29487
 C2111 C 0.69893 1.09621 0.80147
 C2112 C 0.70405 1.10149 0.81219
 C2113 C 0.69942 1.11265 0.81694
 C2114 C 0.68947 1.11888 0.81111
 C2115 C 0.68431 1.11347 0.80038
 C2116 C 0.68898 1.10230 0.79564
 C2117 C 0.70418 1.08457 0.79622
 C2118 C 0.69638 1.07536 0.79119
 C2119 C 0.70143 1.06462 0.78588
 C2120 C 0.71436 1.06284 0.78556
 C2121 C 0.72213 1.07195 0.79075
 C2122 C 0.71711 1.08270 0.79598
 C2123 C 0.71989 1.05194 0.77921
 C2124 C 0.73004 1.04562 0.78446
 C2125 C 0.73639 1.03653 0.77772
 C2126 C 0.73269 1.03366 0.76563
 C2127 C 0.72222 1.03951 0.76055
 C2128 C 0.71579 1.04852 0.76734
 H2129 H 0.71163 1.09694 0.81699
 H2130 H 0.70373 1.11628 0.82521
 H2131 H 0.67671 1.11782 0.79547
 H2132 H 0.68495 1.09857 0.78725
 H2133 H 0.68637 1.07645 0.79141
 H2134 H 0.69524 1.05769 0.78202
 H2135 H 0.73215 1.07094 0.79039
 H2136 H 0.72338 1.08971 0.79955
 H2137 H 0.73331 1.04801 0.79364
 H2138 H 0.74457 1.03219 0.78167
 H2139 H 0.71939 1.03750 0.75114
 H2140 H 0.70807 1.05333 0.76303
 C2141 C 0.19791 0.59572 0.80121
 C2142 C 0.20611 0.60477 0.80592
 C2143 C 0.20158 0.61592 0.81084
 C2144 C 0.18878 0.61840 0.81091
 C2145 C 0.18056 0.60945 0.80618
 C2146 C 0.18505 0.59819 0.80152
 C2147 C 0.20277 0.58394 0.79572
 C2148 C 0.19669 0.57828 0.78566
 C2149 C 0.20164 0.56766 0.78006
 C2150 C 0.21295 0.56254 0.78416
 C2151 C 0.21885 0.56799 0.79443
 C2152 C 0.21377 0.57847 0.80020
 C2153 C 0.21900 0.55215 0.77727
 C2154 C 0.22645 0.54331 0.78342
 C2155 C 0.23324 0.53448 0.77671
 C2156 C 0.23250 0.53414 0.76376
 C2157 C 0.22469 0.54258 0.75764
 C2158 C 0.21805 0.55150 0.76430
 H2159 H 0.21607 0.60340 0.80559
 H2160 H 0.20813 0.62272 0.81431
 H2161 H 0.17062 0.61107 0.80629
 H2162 H 0.17840 0.59139 0.79825
 H2163 H 0.18827 0.58223 0.78184
 H2164 H 0.19667 0.56359 0.77235
 H2165 H 0.22764 0.56445 0.79781
 H2166 H 0.21859 0.58234 0.80809
 H2167 H 0.22727 0.54338 0.79339
 H2168 H 0.23938 0.52818 0.78159
 H2169 H 0.22412 0.54257 0.74764
 H2170 H 0.21264 0.55825 0.75918
 C2171 C 0.19847 1.09613 0.30113
 C2172 C 0.20351 1.10131 0.31195
 C2173 C 0.19894 1.11250 0.31666
 C2174 C 0.18917 1.11882 0.31069
 C2175 C 0.18405 1.11355 0.29992
 C2176 C 0.18864 1.10234 0.29520
 C2177 C 0.20374 1.08450 0.29586
 C2178 C 0.19598 1.07539 0.29060
 C2179 C 0.20108 1.06467 0.28528
 C2180 C 0.21401 1.06282 0.28522
 C2181 C 0.22173 1.07183 0.29063
 C2182 C 0.21666 1.08257 0.29585
 C2183 C 0.21961 1.05199 0.27887
 C2184 C 0.22943 1.04538 0.28441
 C2185 C 0.23593 1.03636 0.27771
 C2186 C 0.23274 1.03388 0.26540
 C2187 C 0.22260 1.04003 0.26002
 C2188 C 0.21600 1.04896 0.26675
 H2189 H 0.21097 1.09666 0.31683
 H2190 H 0.20312 1.11614 0.32500
 H2191 H 0.17656 1.11809 0.29501
 H2192 H 0.18466 1.09868 0.28675
 H2193 H 0.18598 1.07653 0.29063
 H2194 H 0.19494 1.05781 0.28122
 H2195 H 0.23174 1.07077 0.29046
 H2196 H 0.22290 1.08952 0.29958
 H2197 H 0.23232 1.04749 0.29377
 H2198 H 0.24384 1.03177 0.28192
 H2199 H 0.22017 1.03832 0.25045
 H2200 H 0.20856 1.05401 0.26224
 C2201 C 0.69836 0.40443 0.69791
 C2202 C 0.70202 0.40006 0.68620
 C2203 C 0.69762 0.38869 0.68172
 C2204 C 0.68942 0.38143 0.68880
 C2205 C 0.68577 0.38578 0.70051
 C2206 C 0.69021 0.39713 0.70502
 C2207 C 0.70326 0.41638 0.70284
 C2208 C 0.69566 0.42426 0.70996
 C2209 C 0.70051 0.43507 0.71529
 C2210 C 0.71306 0.43827 0.71360
 C2211 C 0.72054 0.43063 0.70610
 C2212 C 0.71570 0.41982 0.70080
 C2213 C 0.71865 0.44885 0.72046
 C2214 C 0.72779 0.45642 0.71497
 C2215 C 0.73425 0.46521 0.72202
 C2216 C 0.73165 0.46658 0.73466
 C2217 C 0.72214 0.45949 0.74002
 C2218 C 0.71566 0.45074 0.73299
 H2219 H 0.70817 0.40551 0.68042
 H2220 H 0.70055 0.38571 0.67261
 H2221 H 0.67960 0.38038 0.70630
 H2222 H 0.68741 0.40008 0.71418
 H2223 H 0.68597 0.42203 0.71150
 H2224 H 0.69447 0.44086 0.72087
 H2225 H 0.73030 0.43272 0.70476
 H2226 H 0.72186 0.41390 0.69549
 H2227 H 0.73021 0.45526 0.70531
 H2228 H 0.74166 0.47053 0.71779
 H2229 H 0.72014 0.46034 0.74981
 H2230 H 0.70880 0.44498 0.73754
 C2231 C 0.69869 -0.09593 0.19833
 C2232 C 0.70553 -0.10269 0.18953
 C2233 C 0.70113 -0.11407 0.18506
 C2234 C 0.68976 -0.11897 0.18926
 C2235 C 0.68291 -0.11216 0.19804
 C2236 C 0.68732 -0.10079 0.20252
 C2237 C 0.70358 -0.08405 0.20339
 C2238 C 0.70252 -0.08140 0.21608
 C2239 C 0.70766 -0.07056 0.22100
 C2240 C 0.71403 -0.06212 0.21336
 C2241 C 0.71490 -0.06462 0.20064
 C2242 C 0.70969 -0.07546 0.19569
 C2243 C 0.72047 -0.05127 0.21891
 C2244 C 0.73287 -0.04866 0.21572
 C2245 C 0.73963 -0.03975 0.22231
 C2246 C 0.73403 -0.03320 0.23205
 C2247 C 0.72147 -0.03525 0.23478
 C2248 C 0.71473 -0.04423 0.22826
 H2249 H 0.71443 -0.09931 0.18628
 H2250 H 0.70675 -0.11904 0.17840
 H2251 H 0.67407 -0.11552 0.20144
 H2252 H 0.68175 -0.09574 0.20918
 H2253 H 0.69807 -0.08793 0.22229
 H2254 H 0.70708 -0.06900 0.23088
 H2255 H 0.71967 -0.05822 0.19453
 H2256 H 0.71047 -0.07714 0.18585
 H2257 H 0.73757 -0.05403 0.20865
 H2258 H 0.74939 -0.03839 0.22024
 H2259 H 0.71708 -0.03035 0.24238
 H2260 H 0.70515 -0.04598 0.23082
 C2261 C 0.19870 0.40473 0.19712
 C2262 C 0.19833 0.40222 0.18435
 C2263 C 0.19377 0.39088 0.17997
 C2264 C 0.18923 0.38189 0.18823
 C2265 C 0.18935 0.38443 0.20095
 C2266 C 0.19415 0.39566 0.20536
 C2267 C 0.20415 0.41655 0.20186
 C2268 C 0.19954 0.42213 0.21271
 C2269 C 0.20530 0.43263 0.21771
 C2270 C 0.21571 0.43797 0.21191
 C2271 C 0.21993 0.43277 0.20073
 C2272 C 0.21430 0.42214 0.19584
 C2273 C 0.22269 0.44826 0.21798
 C2274 C 0.23575 0.44858 0.21737
 C2275 C 0.24248 0.45732 0.22416
 C2276 C 0.23632 0.46590 0.23176
 C2277 C 0.22329 0.46593 0.23211
 C2278 C 0.21652 0.45726 0.22519
 H2279 H 0.20150 0.40903 0.17769
 H2280 H 0.19362 0.38923 0.17009
 H2281 H 0.18604 0.37759 0.20752
 H2282 H 0.19454 0.39710 0.21526
 H2283 H 0.19156 0.41828 0.21746
 H2284 H 0.20184 0.43627 0.22639
 H2285 H 0.22776 0.43676 0.19586
 H2286 H 0.21821 0.41810 0.18753
 H2287 H 0.24087 0.44169 0.21212
 H2288 H 0.25254 0.45707 0.22387
 H2289 H 0.21837 0.47238 0.23807
 H2290 H 0.20647 0.45743 0.22574
 C2291 C 0.19695 -0.09479 0.69671
 C2292 C 0.20507 -0.10408 0.69229
 C2293 C 0.20043 -0.11520 0.68746
 C2294 C 0.18760 -0.11745 0.68723
 C2295 C 0.17945 -0.10831 0.69169
 C2296 C 0.18405 -0.09704 0.69623
 C2297 C 0.20195 -0.08305 0.70215
 C2298 C 0.19572 -0.07706 0.71193
 C2299 C 0.20083 -0.06656 0.71759
 C2300 C 0.21245 -0.06190 0.71384
 C2301 C 0.21849 -0.06763 0.70380
 C2302 C 0.21325 -0.07797 0.69796
 C2303 C 0.21866 -0.05176 0.72093
 C2304 C 0.22659 -0.04317 0.71505
 C2305 C 0.23345 -0.03458 0.72200
 C2306 C 0.23231 -0.03426 0.73492
 C2307 C 0.22406 -0.04247 0.74075
 C2308 C 0.21736 -0.05115 0.73387
 H2309 H 0.21505 -0.10291 0.69279
 H2310 H 0.20691 -0.12218 0.68419
 H2311 H 0.16949 -0.10978 0.69145
 H2312 H 0.17746 -0.09007 0.69926
 H2313 H 0.18707 -0.08068 0.71553
 H2314 H 0.19576 -0.06225 0.72510
 H2315 H 0.22750 -0.06442 0.70069
 H2316 H 0.21819 -0.08208 0.69026
 H2317 H 0.22771 -0.04324 0.70510
 H2318 H 0.23992 -0.02846 0.71734
 H2319 H 0.22317 -0.04248 0.75074
 H2320 H 0.21159 -0.05774 0.73879
 C2321 C 0.30138 0.29933 0.40389
 C2322 C 0.31171 0.29396 0.39799
 C2323 C 0.31631 0.29894 0.38697
 C2324 C 0.31073 0.30945 0.38155
 C2325 C 0.30040 0.31484 0.38749
 C2326 C 0.29580 0.30985 0.39854
 C2327 C 0.29632 0.29378 0.41542
 C2328 C 0.29219 0.30133 0.42522
 C2329 C 0.28721 0.29601 0.43595
 C2330 C 0.28627 0.28302 0.43710
 C2331 C 0.29050 0.27549 0.42733
 C2332 C 0.29545 0.28080 0.41663
 C2333 C 0.28029 0.27723 0.44807
 C2334 C 0.28497 0.26607 0.45303
 C2335 C 0.27836 0.25967 0.46216
 C2336 C 0.26705 0.26438 0.46654
 C2337 C 0.26266 0.27582 0.46212
 C2338 C 0.26925 0.28223 0.45297
 H2339 H 0.31631 0.28594 0.40195
 H2340 H 0.32427 0.29449 0.38277
 H2341 H 0.29578 0.32289 0.38365
 H2342 H 0.28771 0.31409 0.40277
 H2343 H 0.29289 0.31136 0.42462
 H2344 H 0.28412 0.30204 0.44336
 H2345 H 0.28963 0.26547 0.42780
 H2346 H 0.29832 0.27473 0.40917
 H2347 H 0.29355 0.26210 0.44958
 H2348 H 0.28180 0.25079 0.46544
 H2349 H 0.25383 0.27946 0.46530
 H2350 H 0.26534 0.29073 0.44926
 C2351 C 0.30201 0.79978 -0.09609
 C2352 C 0.29617 0.81006 -0.10162
 C2353 C 0.30064 0.81494 -0.11276
 C2354 C 0.31108 0.80968 -0.11862
 C2355 C 0.31692 0.79942 -0.11302
 C2356 C 0.31245 0.79454 -0.10190
 C2357 C 0.29706 0.79432 -0.08446
 C2358 C 0.29646 0.78135 -0.08303
 C2359 C 0.29149 0.77613 -0.07230
 C2360 C 0.28697 0.78374 -0.06274
 C2361 C 0.28770 0.79672 -0.06407
 C2362 C 0.29271 0.80196 -0.07482
 C2363 C 0.28081 0.77804 -0.05184
 C2364 C 0.26941 0.78275 -0.04751
 C2365 C 0.26266 0.77629 -0.03852
 C2366 C 0.26726 0.76512 -0.03366
 C2367 C 0.27892 0.76074 -0.03744
 C2368 C 0.28567 0.76716 -0.04645
 H2369 H 0.28798 0.81418 -0.09747
 H2370 H 0.29579 0.82276 -0.11680
 H2371 H 0.32504 0.79515 -0.11713
 H2372 H 0.31725 0.78671 -0.09779
 H2373 H 0.29951 0.77521 -0.09037
 H2374 H 0.29080 0.76610 -0.07167
 H2375 H 0.28438 0.80281 -0.05680
 H2376 H 0.29323 0.81199 -0.07558
 H2377 H 0.26537 0.79102 -0.05158
 H2378 H 0.25357 0.77967 -0.03579
 H2379 H 0.28252 0.75206 -0.03382
 H2380 H 0.29450 0.76342 -0.04949
 C2381 C 0.80116 0.30072 -0.09587
 C2382 C 0.79556 0.31113 -0.10140
 C2383 C 0.80029 0.31607 -0.11240
 C2384 C 0.81076 0.31072 -0.11812
 C2385 C 0.81633 0.30029 -0.11256
 C2386 C 0.81160 0.29537 -0.10158
 C2387 C 0.79598 0.29525 -0.08436
 C2388 C 0.79531 0.28228 -0.08296
 C2389 C 0.79018 0.27707 -0.07230
 C2390 C 0.78553 0.28470 -0.06282
 C2391 C 0.78629 0.29767 -0.06413
 C2392 C 0.79150 0.30290 -0.07478
 C2393 C 0.77927 0.27901 -0.05201
 C2394 C 0.76768 0.28353 -0.04799
 C2395 C 0.76089 0.27706 -0.03904
 C2396 C 0.76566 0.26609 -0.03390
 C2397 C 0.77749 0.26191 -0.03739
 C2398 C 0.78425 0.26833 -0.04637
 H2399 H 0.78737 0.31534 -0.09734
 H2400 H 0.79565 0.32403 -0.11640
 H2401 H 0.82442 0.29590 -0.11658
 H2402 H 0.81622 0.28742 -0.09748
 H2403 H 0.79846 0.27614 -0.09025
 H2404 H 0.78948 0.26704 -0.07166
 H2405 H 0.78287 0.30376 -0.05691
 H2406 H 0.79206 0.31293 -0.07552
 H2407 H 0.76357 0.29167 -0.05225
 H2408 H 0.75169 0.28028 -0.03652
 H2409 H 0.78122 0.25339 -0.03355
 H2410 H 0.79322 0.26473 -0.04921
 C2411 C 0.80191 0.80011 0.40396
 C2412 C 0.81228 0.79476 0.39811
 C2413 C 0.81696 0.79977 0.38713
 C2414 C 0.81139 0.81028 0.38170
 C2415 C 0.80097 0.81560 0.38755
 C2416 C 0.79631 0.81059 0.39855
 C2417 C 0.79684 0.79464 0.41552
 C2418 C 0.79259 0.80230 0.42520
 C2419 C 0.78747 0.79708 0.43591
 C2420 C 0.78653 0.78411 0.43717
 C2421 C 0.79095 0.77647 0.42759
 C2422 C 0.79602 0.78167 0.41689
 C2423 C 0.78026 0.77848 0.44804
 C2424 C 0.78500 0.76759 0.45351
 C2425 C 0.77818 0.76130 0.46256
 C2426 C 0.76656 0.76583 0.46630
 C2427 C 0.76207 0.77700 0.46134
 C2428 C 0.76890 0.78333 0.45232
 H2429 H 0.81688 0.78675 0.40211
 H2430 H 0.82499 0.79540 0.38300
 H2431 H 0.79631 0.82360 0.38365
 H2432 H 0.78817 0.81479 0.40271
 H2433 H 0.79327 0.81232 0.42451
 H2434 H 0.78424 0.80319 0.44320
 H2435 H 0.79011 0.76645 0.42819
 H2436 H 0.79900 0.77553 0.40952
 H2437 H 0.79380 0.76374 0.45049
 H2438 H 0.78170 0.75262 0.46625
 H2439 H 0.75301 0.78049 0.46402
 H2440 H 0.76496 0.79162 0.44819
 C2441 C 0.69726 0.30117 0.59531
 C2442 C 0.70553 0.30558 0.60442
 C2443 C 0.70108 0.31037 0.61560
 C2444 C 0.68828 0.31058 0.61806
 C2445 C 0.67999 0.30615 0.60907
 C2446 C 0.68440 0.30164 0.59777
 C2447 C 0.70205 0.29577 0.58352
 C2448 C 0.69576 0.28592 0.57766
 C2449 C 0.70068 0.28030 0.56708
 C2450 C 0.71217 0.28418 0.56221
 C2451 C 0.71825 0.29430 0.56781
 C2452 C 0.71320 0.30008 0.57824
 C2453 C 0.71821 0.27716 0.55196
 C2454 C 0.72595 0.28318 0.54332
 C2455 C 0.73274 0.27630 0.53465
 C2456 C 0.73170 0.26330 0.53425
 C2457 C 0.72362 0.25731 0.54250
 C2458 C 0.71699 0.26414 0.55128
 H2459 H 0.71548 0.30511 0.60307
 H2460 H 0.70767 0.31363 0.62244
 H2461 H 0.67005 0.30637 0.61069
 H2462 H 0.67771 0.29861 0.59094
 H2463 H 0.68721 0.28222 0.58143
 H2464 H 0.69557 0.27274 0.56287
 H2465 H 0.72716 0.29750 0.56444
 H2466 H 0.71818 0.30784 0.58226
 H2467 H 0.72699 0.29319 0.54343
 H2468 H 0.73909 0.28108 0.52850
 H2469 H 0.72282 0.24727 0.54245
 H2470 H 0.71136 0.25911 0.55788
 C2471 C 0.69785 0.80150 1.09492
 C2472 C 0.68499 0.80224 1.09726
 C2473 C 0.68059 0.80680 1.10854
 C2474 C 0.68890 0.81102 1.11762
 C2475 C 0.70171 0.81058 1.11525
 C2476 C 0.70614 0.80574 1.10409
 C2477 C 0.70261 0.79597 1.08318
 C2478 C 0.71384 0.80010 1.07794
 C2479 C 0.71885 0.79419 1.06757
 C2480 C 0.71264 0.78414 1.06199
 C2481 C 0.70110 0.78043 1.06684
 C2482 C 0.69621 0.78618 1.07736
 C2483 C 0.71862 0.77701 1.05178
 C2484 C 0.71733 0.76400 1.05117
 C2485 C 0.72392 0.75710 1.04243
 C2486 C 0.73201 0.76302 1.03414
 C2487 C 0.73310 0.77601 1.03446
 C2488 C 0.72637 0.78296 1.04311
 H2489 H 0.67829 0.79935 1.09037
 H2490 H 0.67065 0.80721 1.11008
 H2491 H 0.70831 0.81366 1.12217
 H2492 H 0.71610 0.80506 1.10280
 H2493 H 0.71891 0.80781 1.08195
 H2494 H 0.72781 0.79726 1.06420
 H2495 H 0.69591 0.77290 1.06265
 H2496 H 0.68759 0.78263 1.08112
 H2497 H 0.71166 0.75904 1.05781
 H2498 H 0.72307 0.74706 1.04242
 H2499 H 0.73946 0.78073 1.02828
 H2500 H 0.72745 0.79297 1.04316
 C2501 C 0.19703 0.30115 1.09533
 C2502 C 0.20523 0.30615 1.10418
 C2503 C 0.20074 0.31108 1.11527
 C2504 C 0.18798 0.31088 1.11789
 C2505 C 0.17975 0.30583 1.10915
 C2506 C 0.18421 0.30114 1.09794
 C2507 C 0.20189 0.29572 1.08360
 C2508 C 0.19615 0.28530 1.07818
 C2509 C 0.20119 0.27972 1.06764
 C2510 C 0.21222 0.28428 1.06233
 C2511 C 0.21774 0.29493 1.06751
 C2512 C 0.21259 0.30063 1.07793
 C2513 C 0.21847 0.27747 1.05208
 C2514 C 0.22533 0.28386 1.04298
 C2515 C 0.23245 0.27732 1.03432
 C2516 C 0.23266 0.26428 1.03444
 C2517 C 0.22541 0.25788 1.04314
 C2518 C 0.21841 0.26438 1.05187
 H2519 H 0.21518 0.30605 1.10268
 H2520 H 0.20729 0.31479 1.12193
 H2521 H 0.16984 0.30572 1.11089
 H2522 H 0.17757 0.29761 1.09129
 H2523 H 0.18796 0.28116 1.08230
 H2524 H 0.19654 0.27168 1.06377
 H2525 H 0.22631 0.29864 1.06380
 H2526 H 0.21712 0.30881 1.08163
 H2527 H 0.22544 0.29392 1.04273
 H2528 H 0.23813 0.28242 1.02778
 H2529 H 0.22557 0.24780 1.04347
 H2530 H 0.21346 0.25912 1.05883
 C2531 C 0.19854 0.80096 0.59540
 C2532 C 0.19335 0.79300 0.60430
 C2533 C 0.18842 0.79783 0.61525
 C2534 C 0.18884 0.81067 0.61759
 C2535 C 0.19401 0.81862 0.60866
 C2536 C 0.19871 0.81382 0.59760
 C2537 C 0.20442 0.79578 0.58418
 C2538 C 0.20133 0.80029 0.57236
 C2539 C 0.20719 0.79545 0.56183
 C2540 C 0.21641 0.78630 0.56306
 C2541 C 0.21946 0.78183 0.57487
 C2542 C 0.21345 0.78645 0.58533
 C2543 C 0.22298 0.78124 0.55219
 C2544 C 0.23602 0.78116 0.55204
 C2545 C 0.24241 0.77455 0.54296
 C2546 C 0.23587 0.76781 0.53394
 C2547 C 0.22283 0.76843 0.53367
 C2548 C 0.21641 0.77524 0.54269
 H2549 H 0.19314 0.78305 0.60277
 H2550 H 0.18455 0.79148 0.62201
 H2551 H 0.19435 0.82857 0.61020
 H2552 H 0.20277 0.82009 0.59088
 H2553 H 0.19433 0.80746 0.57130
 H2554 H 0.20470 0.79899 0.55278
 H2555 H 0.22648 0.77468 0.57599
 H2556 H 0.21602 0.78290 0.59435
 H2557 H 0.24123 0.78579 0.55927
 H2558 H 0.25246 0.77414 0.54334
 H2559 H 0.21763 0.76315 0.52689
 H2560 H 0.20634 0.77516 0.54271
 C2561 C 0.30050 0.69826 0.59563
 C2562 C 0.29341 0.69036 0.60319
 C2563 C 0.29826 0.68581 0.61429
 C2564 C 0.31034 0.68904 0.61810
 C2565 C 0.31742 0.69698 0.61054
 C2566 C 0.31255 0.70153 0.59944
 C2567 C 0.29522 0.70329 0.58397
 C2568 C 0.29712 0.71580 0.58072
 C2569 C 0.29168 0.72072 0.57006
 C2570 C 0.28419 0.71325 0.56244
 C2571 C 0.28247 0.70068 0.56553
 C2572 C 0.28796 0.69574 0.57618
 C2573 C 0.27753 0.71886 0.55181
 C2574 C 0.26478 0.71655 0.55008
 C2575 C 0.25806 0.72317 0.54120
 C2576 C 0.26401 0.73206 0.53379
 C2577 C 0.27684 0.73394 0.53504
 C2578 C 0.28356 0.72739 0.54399
 H2579 H 0.28399 0.68787 0.60064
 H2580 H 0.29245 0.67987 0.61994
 H2581 H 0.32678 0.69959 0.61308
 H2582 H 0.31829 0.70751 0.59375
 H2583 H 0.30250 0.72190 0.58663
 H2584 H 0.29296 0.73050 0.56803
 H2585 H 0.27684 0.69470 0.55974
 H2586 H 0.28651 0.68602 0.57834
 H2587 H 0.25988 0.71012 0.55605
 H2588 H 0.24812 0.72176 0.54045
 H2589 H 0.28152 0.74090 0.52949
 H2590 H 0.29339 0.72927 0.54507
 C2591 C 0.30347 0.19834 1.09499
 C2592 C 0.29523 0.19387 1.10408
 C2593 C 0.29973 0.18900 1.11520
 C2594 C 0.31255 0.18867 1.11759
 C2595 C 0.32080 0.19313 1.10856
 C2596 C 0.31633 0.19781 1.09735
 C2597 C 0.29864 0.20385 1.08328
 C2598 C 0.30467 0.21403 1.07772
 C2599 C 0.29968 0.21972 1.06721
 C2600 C 0.28843 0.21550 1.06207
 C2601 C 0.28262 0.20507 1.06738
 C2602 C 0.28770 0.19928 1.07779
 C2603 C 0.28231 0.22246 1.05184
 C2604 C 0.27522 0.21624 1.04280
 C2605 C 0.26825 0.22295 1.03414
 C2606 C 0.26840 0.23600 1.03423
 C2607 C 0.27586 0.24222 1.04288
 C2608 C 0.28273 0.23554 1.05160
 H2609 H 0.28527 0.19438 1.10275
 H2610 H 0.29315 0.18575 1.12206
 H2611 H 0.33074 0.19282 1.11007
 H2612 H 0.32297 0.20092 1.09050
 H2613 H 0.31305 0.21789 1.08170
 H2614 H 0.30453 0.22758 1.06324
 H2615 H 0.27389 0.20163 1.06378
 H2616 H 0.28294 0.19129 1.08162
 H2617 H 0.27482 0.20618 1.04259
 H2618 H 0.26238 0.21799 1.02767
 H2619 H 0.27597 0.25229 1.04320
 H2620 H 0.28787 0.24068 1.05852
 C2621 C 0.80226 0.69936 1.09580
 C2622 C 0.79515 0.69093 1.10276
 C2623 C 0.79956 0.68633 1.11403
 C2624 C 0.81119 0.69007 1.11864
 C2625 C 0.81829 0.69856 1.11170
 C2626 C 0.81387 0.70314 1.10041
 C2627 C 0.79744 0.70433 1.08389
 C2628 C 0.79888 0.71697 1.08088
 C2629 C 0.79358 0.72182 1.07009
 C2630 C 0.78670 0.71415 1.06210
 C2631 C 0.78565 0.70143 1.06487
 C2632 C 0.79097 0.69657 1.07564
 C2633 C 0.77976 0.71961 1.05153
 C2634 C 0.76731 0.71620 1.04947
 C2635 C 0.76018 0.72239 1.04060
 C2636 C 0.76537 0.73200 1.03353
 C2637 C 0.77794 0.73506 1.03514
 C2638 C 0.78509 0.72892 1.04408
 H2639 H 0.78605 0.68803 1.09959
 H2640 H 0.79375 0.67996 1.11919
 H2641 H 0.82735 0.70154 1.11487
 H2642 H 0.81964 0.70953 1.09521
 H2643 H 0.80370 0.72322 1.08710
 H2644 H 0.79440 0.73170 1.06830
 H2645 H 0.78056 0.69526 1.05878
 H2646 H 0.78993 0.68674 1.07756
 H2647 H 0.76288 0.70921 1.05517
 H2648 H 0.75043 0.72005 1.03962
 H2649 H 0.78205 0.74258 1.02987
 H2650 H 0.79468 0.73167 1.04541
 C2651 C 0.80160 0.19826 0.59543
 C2652 C 0.81336 0.20188 0.59975
 C2653 C 0.81794 0.19732 0.61097
 C2654 C 0.81086 0.18902 0.61816
 C2655 C 0.79910 0.18538 0.61379
 C2656 C 0.79453 0.18993 0.60256
 C2657 C 0.79655 0.20338 0.58369
 C2658 C 0.78989 0.19577 0.57546
 C2659 C 0.78449 0.20078 0.56480
 C2660 C 0.78566 0.21352 0.56214
 C2661 C 0.79263 0.22106 0.57018
 C2662 C 0.79801 0.21605 0.58084
 C2663 C 0.77885 0.21916 0.55158
 C2664 C 0.78434 0.22853 0.54432
 C2665 C 0.77734 0.23488 0.53542
 C2666 C 0.76476 0.23196 0.53365
 C2667 C 0.75941 0.22228 0.54051
 C2668 C 0.76639 0.21589 0.54935
 H2669 H 0.81909 0.20818 0.59440
 H2670 H 0.82709 0.20026 0.61390
 H2671 H 0.79330 0.17911 0.61908
 H2672 H 0.78534 0.18712 0.59957
 H2673 H 0.78881 0.18593 0.57730
 H2674 H 0.77931 0.19472 0.55870
 H2675 H 0.79350 0.23095 0.56850
 H2676 H 0.80295 0.22219 0.58708
 H2677 H 0.79395 0.23116 0.54577
 H2678 H 0.78157 0.24244 0.53031
 H2679 H 0.74965 0.22004 0.53938
 H2680 H 0.76185 0.20885 0.55490
 C2681 C 0.70003 0.69855 0.40389
 C2682 C 0.70530 0.68815 0.39804
 C2683 C 0.70035 0.68362 0.38698
 C2684 C 0.68998 0.68936 0.38147
 C2685 C 0.68471 0.69979 0.38734
 C2686 C 0.68967 0.70432 0.39842
 C2687 C 0.70550 0.70351 0.41550
 C2688 C 0.69786 0.70779 0.42516
 C2689 C 0.70309 0.71283 0.43590
 C2690 C 0.71607 0.71367 0.43720
 C2691 C 0.72369 0.70919 0.42762
 C2692 C 0.71847 0.70418 0.41690
 C2693 C 0.72173 0.71992 0.44806
 C2694 C 0.73270 0.71524 0.45341
 C2695 C 0.73903 0.72208 0.46242
 C2696 C 0.73445 0.73365 0.46626
 C2697 C 0.72320 0.73808 0.46143
 C2698 C 0.71684 0.73124 0.45244
 H2699 H 0.71321 0.68342 0.40208
 H2700 H 0.70469 0.67556 0.38286
 H2701 H 0.67679 0.70455 0.38338
 H2702 H 0.68552 0.71248 0.40260
 H2703 H 0.68784 0.70720 0.42443
 H2704 H 0.69700 0.71610 0.44318
 H2705 H 0.73371 0.70994 0.42824
 H2706 H 0.72461 0.70116 0.40955
 H2707 H 0.73659 0.70648 0.45033
 H2708 H 0.74777 0.71862 0.46602
 H2709 H 0.71965 0.74709 0.46421
 H2710 H 0.70848 0.73513 0.44842
 C2711 C 0.69917 0.19865 -0.09573
 C2712 C 0.68729 0.20207 -0.09994
 C2713 C 0.68275 0.19756 -0.11119
 C2714 C 0.68997 0.18950 -0.11849
 C2715 C 0.70187 0.18609 -0.11428
 C2716 C 0.70641 0.19062 -0.10303
 C2717 C 0.70411 0.20369 -0.08391
 C2718 C 0.71106 0.19613 -0.07586
 C2719 C 0.71627 0.20109 -0.06508
 C2720 C 0.71460 0.21371 -0.06212
 C2721 C 0.70736 0.22118 -0.07000
 C2722 C 0.70219 0.21623 -0.08077
 C2723 C 0.72118 0.21939 -0.05147
 C2724 C 0.71525 0.22830 -0.04397
 C2725 C 0.72201 0.23492 -0.03509
 C2726 C 0.73477 0.23273 -0.03360
 C2727 C 0.74058 0.22346 -0.04066
 C2728 C 0.73383 0.21678 -0.04946
 H2729 H 0.68143 0.20813 -0.09446
 H2730 H 0.67351 0.20029 -0.11403
 H2731 H 0.70777 0.18005 -0.11973
 H2732 H 0.71569 0.18800 -0.10015
 H2733 H 0.71251 0.18638 -0.07792
 H2734 H 0.72170 0.19510 -0.05911
 H2735 H 0.70611 0.23099 -0.06808
 H2736 H 0.69704 0.22234 -0.08687
 H2737 H 0.70549 0.23041 -0.04525
 H2738 H 0.71743 0.24214 -0.02979
 H2739 H 0.75047 0.22179 -0.03971
 H2740 H 0.73867 0.21008 -0.05519
 C2741 C 0.19964 0.69885 -0.09609
 C2742 C 0.18777 0.70240 -0.10022
 C2743 C 0.18309 0.69790 -0.11141
 C2744 C 0.19015 0.68972 -0.11875
 C2745 C 0.20202 0.68617 -0.11461
 C2746 C 0.20671 0.69068 -0.10341
 C2747 C 0.20474 0.70386 -0.08433
 C2748 C 0.21172 0.69624 -0.07634
 C2749 C 0.21703 0.70116 -0.06560
 C2750 C 0.21544 0.71378 -0.06259
 C2751 C 0.20821 0.72131 -0.07041
 C2752 C 0.20294 0.71641 -0.08117
 C2753 C 0.22205 0.71936 -0.05192
 C2754 C 0.21614 0.72820 -0.04432
 C2755 C 0.22291 0.73468 -0.03534
 C2756 C 0.23566 0.73242 -0.03384
 C2757 C 0.24145 0.72323 -0.04104
 C2758 C 0.23469 0.71671 -0.04995
 H2759 H 0.18204 0.70856 -0.09471
 H2760 H 0.17386 0.70075 -0.11419
 H2761 H 0.20781 0.68003 -0.12005
 H2762 H 0.21598 0.68795 -0.10060
 H2763 H 0.21309 0.68649 -0.07842
 H2764 H 0.22247 0.69513 -0.05967
 H2765 H 0.20703 0.73112 -0.06846
 H2766 H 0.19779 0.72256 -0.08722
 H2767 H 0.20638 0.73034 -0.04557
 H2768 H 0.21834 0.74185 -0.02996
 H2769 H 0.25133 0.72150 -0.04010
 H2770 H 0.23952 0.71007 -0.05576
 C2771 C 0.19896 0.19901 0.40439
 C2772 C 0.18721 0.20267 0.40002
 C2773 C 0.18266 0.19812 0.38879
 C2774 C 0.18975 0.18980 0.38163
 C2775 C 0.20152 0.18618 0.38599
 C2776 C 0.20607 0.19072 0.39724
 C2777 C 0.20388 0.20401 0.41622
 C2778 C 0.21041 0.19629 0.42447
 C2779 C 0.21558 0.20118 0.43531
 C2780 C 0.21431 0.21388 0.43813
 C2781 C 0.20748 0.22151 0.43005
 C2782 C 0.20233 0.21663 0.41922
 C2783 C 0.22091 0.21942 0.44885
 C2784 C 0.21528 0.22876 0.45606
 C2785 C 0.22216 0.23520 0.46499
 C2786 C 0.23475 0.23237 0.46685
 C2787 C 0.24023 0.22268 0.46010
 C2788 C 0.23336 0.21621 0.45123
 H2789 H 0.18146 0.20894 0.40538
 H2790 H 0.17351 0.20105 0.38584
 H2791 H 0.20733 0.17993 0.38068
 H2792 H 0.21526 0.18791 0.40024
 H2793 H 0.21156 0.18648 0.42252
 H2794 H 0.22066 0.19504 0.44144
 H2795 H 0.20654 0.23137 0.43184
 H2796 H 0.19750 0.22285 0.41297
 H2797 H 0.20567 0.23133 0.45452
 H2798 H 0.21783 0.24275 0.47004
 H2799 H 0.24998 0.22050 0.46132
 H2800 H 0.23799 0.20917 0.44574
 C2801 C 0.30261 0.40449 0.69792
 C2802 C 0.29441 0.39541 0.69324
 C2803 C 0.29895 0.38426 0.68836
 C2804 C 0.31175 0.38179 0.68828
 C2805 C 0.31997 0.39078 0.69294
 C2806 C 0.31547 0.40205 0.69758
 C2807 C 0.29771 0.41621 0.70349
 C2808 C 0.30376 0.42178 0.71361
 C2809 C 0.29874 0.43227 0.71937
 C2810 C 0.28738 0.43736 0.71535
 C2811 C 0.28152 0.43203 0.70499
 C2812 C 0.28668 0.42168 0.69908
 C2813 C 0.28125 0.44757 0.72244
 C2814 C 0.27378 0.45651 0.71646
 C2815 C 0.26704 0.46525 0.72334
 C2816 C 0.26781 0.46537 0.73630
 C2817 C 0.27560 0.45678 0.74224
 C2818 C 0.28220 0.44796 0.73542
 H2819 H 0.28445 0.39676 0.69360
 H2820 H 0.29240 0.37742 0.68495
 H2821 H 0.32991 0.38918 0.69283
 H2822 H 0.32210 0.40887 0.70083
 H2823 H 0.31221 0.41784 0.71738
 H2824 H 0.30367 0.43626 0.72714
 H2825 H 0.27271 0.43557 0.70167
 H2826 H 0.28189 0.41787 0.69113
 H2827 H 0.27295 0.45662 0.70649
 H2828 H 0.26091 0.47166 0.71858
 H2829 H 0.27621 0.45661 0.75225
 H2830 H 0.28759 0.44110 0.74040
 C2831 C 0.30172 0.90444 0.19909
 C2832 C 0.29821 0.90041 0.18724
 C2833 C 0.30269 0.88919 0.18249
 C2834 C 0.31083 0.88173 0.18947
 C2835 C 0.31435 0.88577 0.20133
 C2836 C 0.30984 0.89699 0.20609
 C2837 C 0.29670 0.91621 0.20426
 C2838 C 0.30427 0.92415 0.21134
 C2839 C 0.29933 0.93490 0.21673
 C2840 C 0.28674 0.93796 0.21508
 C2841 C 0.27926 0.93021 0.20773
 C2842 C 0.28417 0.91945 0.20240
 C2843 C 0.28111 0.94860 0.22175
 C2844 C 0.27246 0.95642 0.21586
 C2845 C 0.26589 0.96533 0.22264
 C2846 C 0.26785 0.96651 0.23541
 C2847 C 0.27685 0.95910 0.24121
 C2848 C 0.28350 0.95027 0.23443
 H2849 H 0.29208 0.90601 0.18156
 H2850 H 0.29987 0.88647 0.17327
 H2851 H 0.32046 0.88021 0.20704
 H2852 H 0.31254 0.89972 0.21535
 H2853 H 0.31401 0.92203 0.21275
 H2854 H 0.30532 0.94078 0.22226
 H2855 H 0.26947 0.93222 0.20651
 H2856 H 0.27805 0.91343 0.19717
 H2857 H 0.27053 0.95538 0.20608
 H2858 H 0.25885 0.97090 0.21807
 H2859 H 0.27834 0.95980 0.25110
 H2860 H 0.29000 0.94428 0.23923
 C2861 C 0.80179 0.40464 0.19846
 C2862 C 0.81307 0.39968 0.20277
 C2863 C 0.81758 0.38842 0.19813
 C2864 C 0.81093 0.38184 0.18905
 C2865 C 0.79965 0.38685 0.18471
 C2866 C 0.79515 0.39812 0.18935
 C2867 C 0.79678 0.41638 0.20370
 C2868 C 0.79090 0.42522 0.19609
 C2869 C 0.78562 0.43595 0.20119
 C2870 C 0.78619 0.43809 0.21400
 C2871 C 0.79230 0.42940 0.22156
 C2872 C 0.79751 0.41866 0.21648
 C2873 C 0.77971 0.44884 0.21967
 C2874 C 0.78535 0.45561 0.22929
 C2875 C 0.77857 0.46450 0.23589
 C2876 C 0.76607 0.46672 0.23297
 C2877 C 0.76059 0.46045 0.22300
 C2878 C 0.76739 0.45162 0.21633
 H2879 H 0.81847 0.40456 0.20969
 H2880 H 0.82634 0.38497 0.20166
 H2881 H 0.79418 0.38205 0.17781
 H2882 H 0.78633 0.40159 0.18598
 H2883 H 0.79036 0.42381 0.18618
 H2884 H 0.78105 0.44256 0.19515
 H2885 H 0.79264 0.43068 0.23149
 H2886 H 0.80176 0.41193 0.22262
 H2887 H 0.79487 0.45371 0.23196
 H2888 H 0.78286 0.46920 0.24365
 H2889 H 0.75089 0.46197 0.22077
 H2890 H 0.76279 0.44646 0.20905
 C2891 C 0.80294 0.90542 0.69758
 C2892 C 0.79462 0.89637 0.69307
 C2893 C 0.79901 0.88510 0.68832
 C2894 C 0.81179 0.88249 0.68820
 C2895 C 0.82012 0.89143 0.69275
 C2896 C 0.81577 0.90281 0.69727
 C2897 C 0.79822 0.91731 0.70293
 C2898 C 0.80433 0.92298 0.71296
 C2899 C 0.79940 0.93359 0.71857
 C2900 C 0.78807 0.93870 0.71450
 C2901 C 0.78222 0.93335 0.70415
 C2902 C 0.78728 0.92286 0.69839
 C2903 C 0.78190 0.94886 0.72161
 C2904 C 0.77441 0.95782 0.71568
 C2905 C 0.76750 0.96638 0.72261
 C2906 C 0.76812 0.96629 0.73558
 C2907 C 0.77597 0.95773 0.74148
 C2908 C 0.78274 0.94909 0.73460
 H2909 H 0.78468 0.89786 0.69344
 H2910 H 0.79237 0.87829 0.68502
 H2911 H 0.83004 0.88972 0.69264
 H2912 H 0.82250 0.90959 0.70042
 H2913 H 0.81273 0.91900 0.71680
 H2914 H 0.80434 0.93763 0.72631
 H2915 H 0.77345 0.93694 0.70077
 H2916 H 0.78247 0.91899 0.69048
 H2917 H 0.77366 0.95804 0.70570
 H2918 H 0.76134 0.97279 0.71789
 H2919 H 0.77646 0.95741 0.75148
 H2920 H 0.78815 0.94222 0.73954
 C2921 C 0.69824 0.59574 0.69842
 C2922 C 0.70631 0.60483 0.69359
 C2923 C 0.70165 0.61593 0.68873
 C2924 C 0.68883 0.61833 0.68883
 C2925 C 0.68073 0.60934 0.69368
 C2926 C 0.68537 0.59812 0.69832
 C2927 C 0.70328 0.58403 0.70384
 C2928 C 0.69755 0.57847 0.71415
 C2929 C 0.70274 0.56795 0.71971
 C2930 C 0.71392 0.56282 0.71526
 C2931 C 0.71944 0.56816 0.70473
 C2932 C 0.71413 0.57854 0.69904
 C2933 C 0.72024 0.55255 0.72205
 C2934 C 0.72743 0.54360 0.71573
 C2935 C 0.73440 0.53480 0.72229
 C2936 C 0.73411 0.53462 0.73526
 C2937 C 0.72663 0.54322 0.74156
 C2938 C 0.71981 0.55211 0.73505
 H2939 H 0.71629 0.60351 0.69378
 H2940 H 0.70811 0.62277 0.68516
 H2941 H 0.67078 0.61088 0.69370
 H2942 H 0.67883 0.59128 0.70172
 H2943 H 0.68926 0.58245 0.71820
 H2944 H 0.69807 0.56396 0.72764
 H2945 H 0.72811 0.56459 0.70110
 H2946 H 0.71866 0.58236 0.69095
 H2947 H 0.72785 0.54353 0.70573
 H2948 H 0.74027 0.52835 0.71728
 H2949 H 0.72641 0.54332 0.75158
 H2950 H 0.71464 0.55896 0.74027
 C2951 C 0.69834 0.09543 0.19762
 C2952 C 0.69785 0.09758 0.18479
 C2953 C 0.69295 0.10866 0.18014
 C2954 C 0.68820 0.11775 0.18819
 C2955 C 0.68839 0.11554 0.20097
 C2956 C 0.69351 0.10456 0.20565
 C2957 C 0.70421 0.08393 0.20262
 C2958 C 0.69978 0.07840 0.21355
 C2959 C 0.70583 0.06812 0.21868
 C2960 C 0.71636 0.06297 0.21291
 C2961 C 0.72048 0.06818 0.20171
 C2962 C 0.71456 0.07858 0.19669
 C2963 C 0.72347 0.05274 0.21893
 C2964 C 0.73653 0.05251 0.21825
 C2965 C 0.74334 0.04359 0.22472
 C2966 C 0.73728 0.03475 0.23210
 C2967 C 0.72424 0.03475 0.23262
 C2968 C 0.71739 0.04358 0.22600
 H2969 H 0.70120 0.09069 0.17830
 H2970 H 0.69276 0.11006 0.17023
 H2971 H 0.68491 0.12247 0.20737
 H2972 H 0.69396 0.10337 0.21558
 H2973 H 0.69168 0.08209 0.21824
 H2974 H 0.70245 0.06447 0.22738
 H2975 H 0.72840 0.06433 0.19687
 H2976 H 0.71835 0.08262 0.18834
 H2977 H 0.74157 0.05954 0.21314
 H2978 H 0.75341 0.04385 0.22434
 H2979 H 0.71940 0.02814 0.23845
 H2980 H 0.70735 0.04336 0.22661
 C2981 C 0.19822 0.59520 0.19740
 C2982 C 0.19789 0.59757 0.18461
 C2983 C 0.19322 0.60882 0.18009
 C2984 C 0.18856 0.61787 0.18823
 C2985 C 0.18865 0.61546 0.20098
 C2986 C 0.19352 0.60430 0.20553
 C2987 C 0.20374 0.58347 0.20228
 C2988 C 0.19902 0.57788 0.21306
 C2989 C 0.20479 0.56741 0.21815
 C2990 C 0.21532 0.56213 0.21250
 C2991 C 0.21971 0.56740 0.20142
 C2992 C 0.21406 0.57798 0.19643
 C2993 C 0.22223 0.55183 0.21864
 C2994 C 0.23531 0.55156 0.21831
 C2995 C 0.24192 0.54279 0.22518
 C2996 C 0.23563 0.53411 0.23257
 C2997 C 0.22260 0.53402 0.23261
 C2998 C 0.21595 0.54272 0.22562
 H2999 H 0.20117 0.59071 0.17805
 H3000 H 0.19311 0.61035 0.17019
 H3001 H 0.18525 0.62234 0.20747
 H3002 H 0.19385 0.60296 0.21544
 H3003 H 0.19094 0.58167 0.21769
 H3004 H 0.20121 0.56373 0.22676
 H3005 H 0.22766 0.56347 0.19668
 H3006 H 0.21805 0.58205 0.18819
 H3007 H 0.24050 0.55850 0.21323
 H3008 H 0.25199 0.54307 0.22512
 H3009 H 0.21759 0.52748 0.23838
 H3010 H 0.20589 0.54251 0.22593
 C3011 C 0.19879 0.09542 0.69746
 C3012 C 0.18685 0.09957 0.70077
 C3013 C 0.18215 0.11073 0.69606
 C3014 C 0.18928 0.11804 0.68793
 C3015 C 0.20118 0.11382 0.68453
 C3016 C 0.20587 0.10265 0.68924
 C3017 C 0.20397 0.08380 0.70282
 C3018 C 0.21106 0.07561 0.69553
 C3019 C 0.21648 0.06502 0.70076
 C3020 C 0.21491 0.06237 0.71339
 C3021 C 0.20757 0.07039 0.72061
 C3022 C 0.20217 0.08098 0.71539
 C3023 C 0.22157 0.05180 0.71927
 C3024 C 0.21578 0.04452 0.72842
 C3025 C 0.22256 0.03558 0.73497
 C3026 C 0.23522 0.03377 0.73246
 C3027 C 0.24090 0.04066 0.72302
 C3028 C 0.23413 0.04955 0.71643
 H3029 H 0.18110 0.09413 0.70697
 H3030 H 0.17291 0.11354 0.69881
 H3031 H 0.20700 0.11920 0.67838
 H3032 H 0.21517 0.09981 0.68666
 H3033 H 0.21244 0.07742 0.68577
 H3034 H 0.22197 0.05893 0.69494
 H3035 H 0.20639 0.06874 0.73042
 H3036 H 0.19692 0.08720 0.72130
 H3037 H 0.20608 0.04597 0.73071
 H3038 H 0.21808 0.03043 0.74234
 H3039 H 0.25072 0.03948 0.72110
 H3040 H 0.23890 0.05510 0.70955
 C3041 C 0.30126 0.59605 0.30105
 C3042 C 0.31181 0.60166 0.29582
 C3043 C 0.31648 0.61280 0.30059
 C3044 C 0.31073 0.61861 0.31075
 C3045 C 0.30022 0.61292 0.31605
 C3046 C 0.29555 0.60178 0.31126
 C3047 C 0.29602 0.58446 0.29567
 C3048 C 0.29110 0.57508 0.30332
 C3049 C 0.28570 0.56443 0.29816
 C3050 C 0.28522 0.56290 0.28527
 C3051 C 0.29031 0.57217 0.27765
 C3052 C 0.29561 0.58283 0.28278
 C3053 C 0.27885 0.55207 0.27966
 C3054 C 0.28413 0.54588 0.26948
 C3055 C 0.27740 0.53679 0.26314
 C3056 C 0.26529 0.53378 0.26686
 C3057 C 0.26018 0.53952 0.27732
 C3058 C 0.26695 0.54855 0.28375
 H3059 H 0.31653 0.59740 0.28805
 H3060 H 0.32460 0.61680 0.29625
 H3061 H 0.29549 0.61705 0.32386
 H3062 H 0.28730 0.59780 0.31540
 H3063 H 0.29145 0.57596 0.31329
 H3064 H 0.28192 0.55738 0.30424
 H3065 H 0.28983 0.57135 0.26767
 H3066 H 0.29907 0.58998 0.27662
 H3067 H 0.29331 0.54837 0.26621
 H3068 H 0.28138 0.53252 0.25497
 H3069 H 0.25075 0.53741 0.28016
 H3070 H 0.26262 0.55326 0.29149
 C3071 C 0.30161 0.09586 0.80051
 C3072 C 0.31234 0.10149 0.79568
 C3073 C 0.31679 0.11264 0.80062
 C3074 C 0.31064 0.11847 0.81054
 C3075 C 0.29994 0.11278 0.81543
 C3076 C 0.29549 0.10160 0.81048
 C3077 C 0.29663 0.08425 0.79491
 C3078 C 0.29168 0.07474 0.80236
 C3079 C 0.28658 0.06405 0.79698
 C3080 C 0.28636 0.06262 0.78406
 C3081 C 0.29152 0.07204 0.77665
 C3082 C 0.29658 0.08272 0.78200
 C3083 C 0.28012 0.05180 0.77820
 C3084 C 0.28523 0.04614 0.76761
 C3085 C 0.27854 0.03710 0.76112
 C3086 C 0.26668 0.03355 0.76514
 C3087 C 0.26178 0.03872 0.77600
 C3088 C 0.26848 0.04774 0.78252
 H3089 H 0.31737 0.09723 0.78811
 H3090 H 0.32511 0.11660 0.79663
 H3091 H 0.29488 0.11697 0.82300
 H3092 H 0.28709 0.09759 0.81430
 H3093 H 0.29176 0.07556 0.81234
 H3094 H 0.28278 0.05689 0.80293
 H3095 H 0.29126 0.07134 0.76666
 H3096 H 0.30012 0.08995 0.77599
 H3097 H 0.29424 0.04898 0.76415
 H3098 H 0.28237 0.03326 0.75267
 H3099 H 0.25254 0.03619 0.77908
 H3100 H 0.26423 0.05202 0.79055
 C3101 C 0.80184 0.59548 0.80123
 C3102 C 0.79775 0.59996 0.81274
 C3103 C 0.80219 0.61124 0.81740
 C3104 C 0.81085 0.61832 0.81067
 C3105 C 0.81499 0.61379 0.79918
 C3106 C 0.81055 0.60250 0.79452
 C3107 C 0.79677 0.58371 0.79609
 C3108 C 0.80448 0.57528 0.78974
 C3109 C 0.79951 0.56450 0.78445
 C3110 C 0.78675 0.56190 0.78545
 C3111 C 0.77910 0.57020 0.79199
 C3112 C 0.78404 0.58099 0.79723
 C3113 C 0.78117 0.55110 0.77897
 C3114 C 0.77190 0.54391 0.78471
 C3115 C 0.76534 0.53495 0.77798
 C3116 C 0.76796 0.53306 0.76541
 C3117 C 0.77760 0.53979 0.75982
 C3118 C 0.78422 0.54868 0.76656
 H3119 H 0.79117 0.59469 0.81821
 H3120 H 0.79885 0.61431 0.82632
 H3121 H 0.82155 0.61899 0.79365
 H3122 H 0.81374 0.59939 0.78554
 H3123 H 0.81435 0.57703 0.78887
 H3124 H 0.80562 0.55821 0.77952
 H3125 H 0.76918 0.56859 0.79267
 H3126 H 0.77781 0.58740 0.80185
 H3127 H 0.76945 0.54552 0.79429
 H3128 H 0.75781 0.52994 0.78238
 H3129 H 0.77959 0.53857 0.75007
 H3130 H 0.79121 0.55418 0.76186
 C3131 C 0.80102 0.09530 0.30251
 C3132 C 0.79704 0.10002 0.31396
 C3133 C 0.80162 0.11134 0.31838
 C3134 C 0.81027 0.11824 0.31145
 C3135 C 0.81425 0.11350 0.29999
 C3136 C 0.80969 0.10215 0.29558
 C3137 C 0.79588 0.08347 0.29763
 C3138 C 0.80362 0.07477 0.29172
 C3139 C 0.79862 0.06399 0.28646
 C3140 C 0.78576 0.06170 0.28698
 C3141 C 0.77808 0.07024 0.29321
 C3142 C 0.78309 0.08099 0.29848
 C3143 C 0.78019 0.05104 0.28022
 C3144 C 0.77014 0.04436 0.28527
 C3145 C 0.76383 0.03550 0.27816
 C3146 C 0.76749 0.03319 0.26593
 C3147 C 0.77784 0.03940 0.26107
 C3148 C 0.78418 0.04821 0.26816
 H3149 H 0.79047 0.09487 0.31956
 H3150 H 0.79843 0.11458 0.32731
 H3151 H 0.82077 0.11859 0.29431
 H3152 H 0.81277 0.09886 0.28662
 H3153 H 0.81355 0.07634 0.29111
 H3154 H 0.80478 0.05750 0.28187
 H3155 H 0.76811 0.06887 0.29357
 H3156 H 0.77687 0.08760 0.30284
 H3157 H 0.76694 0.04626 0.29457
 H3158 H 0.75575 0.03088 0.28198
 H3159 H 0.78065 0.03784 0.25157
 H3160 H 0.79176 0.05330 0.26395
 C3161 C 0.69855 0.40400 0.30175
 C3162 C 0.69359 0.39498 0.29370
 C3163 C 0.68859 0.38390 0.29832
 C3164 C 0.68864 0.38150 0.31107
 C3165 C 0.69351 0.39050 0.31914
 C3166 C 0.69830 0.40166 0.31455
 C3167 C 0.70429 0.41562 0.29681
 C3168 C 0.71465 0.42099 0.30270
 C3169 C 0.72041 0.43152 0.29777
 C3170 C 0.71613 0.43686 0.28668
 C3171 C 0.70560 0.43167 0.28094
 C3172 C 0.69971 0.42126 0.28599
 C3173 C 0.72308 0.44725 0.28072
 C3174 C 0.71685 0.45639 0.27372
 C3175 C 0.72354 0.46529 0.26705
 C3176 C 0.73658 0.46539 0.26742
 C3177 C 0.74280 0.45663 0.27477
 C3178 C 0.73615 0.44764 0.28132
 H3179 H 0.69383 0.39630 0.28378
 H3180 H 0.68501 0.37708 0.29187
 H3181 H 0.69351 0.38898 0.32904
 H3182 H 0.70175 0.40846 0.32108
 H3183 H 0.71857 0.41687 0.31096
 H3184 H 0.72834 0.43538 0.30259
 H3185 H 0.70210 0.43540 0.27232
 H3186 H 0.69160 0.41757 0.28132
 H3187 H 0.70680 0.45651 0.27319
 H3188 H 0.71858 0.47185 0.26126
 H3189 H 0.75287 0.45645 0.27505
 H3190 H 0.74131 0.44067 0.28639
 C3191 C 0.69756 0.90461 0.80215
 C3192 C 0.69295 0.89529 0.79421
 C3193 C 0.68821 0.88418 0.79898
 C3194 C 0.68827 0.88197 0.81177
 C3195 C 0.69289 0.89117 0.81973
 C3196 C 0.69731 0.90243 0.81500
 C3197 C 0.70294 0.91634 0.79703
 C3198 C 0.71271 0.92250 0.80317
 C3199 C 0.71823 0.93306 0.79804
 C3200 C 0.71441 0.93761 0.78645
 C3201 C 0.70443 0.93168 0.78045
 C3202 C 0.69869 0.92130 0.78573
 C3203 C 0.72135 0.94789 0.78027
 C3204 C 0.71535 0.95619 0.77213
 C3205 C 0.72220 0.96493 0.76536
 C3206 C 0.73513 0.96571 0.76682
 C3207 C 0.74107 0.95781 0.77527
 C3208 C 0.73430 0.94897 0.78187
 H3209 H 0.69322 0.89640 0.78427
 H3210 H 0.68479 0.87717 0.79264
 H3211 H 0.69286 0.88975 0.82964
 H3212 H 0.70045 0.90942 0.82148
 H3213 H 0.71640 0.91898 0.81180
 H3214 H 0.72567 0.93752 0.80311
 H3215 H 0.70127 0.93478 0.77146
 H3216 H 0.69100 0.91708 0.78083
 H3217 H 0.70539 0.95581 0.77079
 H3218 H 0.71748 0.97083 0.75874
 H3219 H 0.75108 0.95818 0.77641
 H3220 H 0.73935 0.94264 0.78781
 C3221 C 0.19696 0.40512 0.80270
 C3222 C 0.19609 0.40303 0.81554
 C3223 C 0.19188 0.39162 0.82013
 C3224 C 0.18814 0.38215 0.81202
 C3225 C 0.18875 0.38425 0.79923
 C3226 C 0.19324 0.39553 0.79462
 C3227 C 0.20213 0.41702 0.79774
 C3228 C 0.19818 0.42173 0.78624
 C3229 C 0.20389 0.43218 0.78103
 C3230 C 0.21354 0.43837 0.78728
 C3231 C 0.21697 0.43411 0.79910
 C3232 C 0.21145 0.42352 0.80420
 C3233 C 0.22064 0.44855 0.78111
 C3234 C 0.23355 0.44962 0.78298
 C3235 C 0.24052 0.45826 0.77632
 C3236 C 0.23482 0.46600 0.76756
 C3237 C 0.22191 0.46525 0.76585
 C3238 C 0.21486 0.45669 0.77265
 H3239 H 0.19859 0.41021 0.82209
 H3240 H 0.19136 0.39029 0.83004
 H3241 H 0.18606 0.37704 0.79277
 H3242 H 0.19406 0.39658 0.78470
 H3243 H 0.19080 0.41725 0.78111
 H3244 H 0.20102 0.43508 0.77188
 H3245 H 0.22413 0.43881 0.80436
 H3246 H 0.21484 0.42023 0.81303
 H3247 H 0.23842 0.44338 0.78917
 H3248 H 0.25051 0.45858 0.77764
 H3249 H 0.21736 0.47100 0.75898
 H3250 H 0.20493 0.45628 0.77108
 C3251 C 0.19922 0.90383 0.30091
 C3252 C 0.20460 0.89828 0.31137
 C3253 C 0.19966 0.88736 0.31632
 C3254 C 0.18918 0.88170 0.31096
 C3255 C 0.18376 0.88729 0.30050
 C3256 C 0.18872 0.89823 0.29554
 C3257 C 0.20471 0.91528 0.29551
 C3258 C 0.19710 0.92488 0.29095
 C3259 C 0.20237 0.93555 0.28572
 C3260 C 0.21534 0.93684 0.28501
 C3261 C 0.22293 0.92728 0.28964
 C3262 C 0.21768 0.91662 0.29480
 C3263 C 0.22109 0.94777 0.27893
 C3264 C 0.23173 0.95336 0.28404
 C3265 C 0.23821 0.96247 0.27748
 C3266 C 0.23413 0.96614 0.26574
 C3267 C 0.22318 0.96107 0.26084
 C3268 C 0.21665 0.95199 0.26743
 H3269 H 0.21261 0.90243 0.31582
 H3270 H 0.20417 0.88339 0.32434
 H3271 H 0.17570 0.88326 0.29608
 H3272 H 0.18447 0.90219 0.28735
 H3273 H 0.18707 0.92419 0.29152
 H3274 H 0.19631 0.94283 0.28228
 H3275 H 0.23296 0.92790 0.28897
 H3276 H 0.22380 0.90929 0.29799
 H3277 H 0.23525 0.95039 0.29295
 H3278 H 0.24671 0.96626 0.28130
 H3279 H 0.22004 0.96373 0.25170
 H3280 H 0.20854 0.94777 0.26323
 C3281 C 0.40518 0.30280 0.69860
 C3282 C 0.40259 0.31563 0.69821
 C3283 C 0.39134 0.31997 0.69340
 C3284 C 0.38250 0.31163 0.68867
 C3285 C 0.38512 0.29885 0.68883
 C3286 C 0.39627 0.29447 0.69385
 C3287 C 0.41693 0.29808 0.70423
 C3288 C 0.42266 0.28724 0.69970
 C3289 C 0.43309 0.28224 0.70560
 C3290 C 0.43821 0.28807 0.71608
 C3291 C 0.43284 0.29924 0.72025
 C3292 C 0.42228 0.30412 0.71448
 C3293 C 0.44849 0.28203 0.72312
 C3294 C 0.44868 0.28258 0.73612
 C3295 C 0.45743 0.27581 0.74287
 C3296 C 0.46616 0.26828 0.73679
 C3297 C 0.46632 0.26802 0.72382
 C3298 C 0.45764 0.27491 0.71704
 H3299 H 0.40929 0.32235 0.70153
 H3300 H 0.38962 0.32990 0.69323
 H3301 H 0.37840 0.29221 0.68537
 H3302 H 0.39776 0.28452 0.69426
 H3303 H 0.41900 0.28247 0.69167
 H3304 H 0.43685 0.27356 0.70218
 H3305 H 0.43665 0.30412 0.72814
 H3306 H 0.41812 0.31243 0.71832
 H3307 H 0.44168 0.28775 0.74116
 H3308 H 0.45707 0.27603 0.75288
 H3309 H 0.47286 0.26211 0.71897
 H3310 H 0.45791 0.27441 0.70704
 C3311 C 0.40336 0.80012 0.19874
 C3312 C 0.39758 0.79474 0.18840
 C3313 C 0.38659 0.79973 0.18364
 C3314 C 0.38108 0.81026 0.18910
 C3315 C 0.38689 0.81565 0.19946
 C3316 C 0.39791 0.81065 0.20421
 C3317 C 0.41489 0.79459 0.20391
 C3318 C 0.42469 0.80217 0.20807
 C3319 C 0.43544 0.79688 0.21311
 C3320 C 0.43661 0.78389 0.21407
 C3321 C 0.42686 0.77633 0.20981
 C3322 C 0.41613 0.78161 0.20481
 C3323 C 0.44759 0.77816 0.22014
 C3324 C 0.45278 0.76710 0.21546
 C3325 C 0.46191 0.76073 0.22212
 C3326 C 0.46603 0.76537 0.23351
 C3327 C 0.46137 0.77671 0.23792
 C3328 C 0.45224 0.78309 0.23126
 H3329 H 0.40163 0.78670 0.18389
 H3330 H 0.38249 0.79527 0.17567
 H3331 H 0.38296 0.82372 0.20397
 H3332 H 0.40205 0.81489 0.21231
 H3333 H 0.42406 0.81220 0.20734
 H3334 H 0.44285 0.80293 0.21623
 H3335 H 0.42737 0.76631 0.21069
 H3336 H 0.40866 0.77552 0.20191
 H3337 H 0.44949 0.76318 0.20683
 H3338 H 0.46539 0.75194 0.21867
 H3339 H 0.46438 0.78029 0.24679
 H3340 H 0.44835 0.79152 0.23515
 C3341 C 0.90372 0.30056 0.19845
 C3342 C 0.89813 0.31098 0.20399
 C3343 C 0.88704 0.31586 0.19927
 C3344 C 0.88130 0.31045 0.18888
 C3345 C 0.88696 0.30005 0.18335
 C3346 C 0.89802 0.29518 0.18807
 C3347 C 0.91530 0.29513 0.20361
 C3348 C 0.91666 0.28216 0.20445
 C3349 C 0.92743 0.27696 0.20946
 C3350 C 0.93708 0.28460 0.21379
 C3351 C 0.93580 0.29757 0.21289
 C3352 C 0.92502 0.30279 0.20782
 C3353 C 0.94803 0.27894 0.21994
 C3354 C 0.95230 0.28364 0.23131
 C3355 C 0.96131 0.27718 0.23807
 C3356 C 0.96626 0.26604 0.23348
 C3357 C 0.96256 0.26169 0.22184
 C3358 C 0.95352 0.26810 0.21509
 H3359 H 0.90221 0.31522 0.21212
 H3360 H 0.88299 0.32383 0.20385
 H3361 H 0.88293 0.29560 0.17533
 H3362 H 0.90218 0.28723 0.18351
 H3363 H 0.90925 0.27602 0.20151
 H3364 H 0.92804 0.26694 0.21030
 H3365 H 0.94314 0.30367 0.21609
 H3366 H 0.92430 0.31282 0.20713
 H3367 H 0.94816 0.29189 0.23531
 H3368 H 0.96398 0.28054 0.24713
 H3369 H 0.96627 0.25304 0.21825
 H3370 H 0.95051 0.26438 0.20628
 C3371 C 0.90471 0.80289 0.69845
 C3372 C 0.90230 0.81575 0.69796
 C3373 C 0.89110 0.82022 0.69314
 C3374 C 0.88215 0.81197 0.68847
 C3375 C 0.88458 0.79915 0.68874
 C3376 C 0.89567 0.79465 0.69379
 C3377 C 0.91641 0.79806 0.70411
 C3378 C 0.92195 0.78705 0.69973
 C3379 C 0.93234 0.78199 0.70567
 C3380 C 0.93760 0.78791 0.71603
 C3381 C 0.93243 0.79924 0.72002
 C3382 C 0.92191 0.80418 0.71422
 C3383 C 0.94783 0.78186 0.72313
 C3384 C 0.94819 0.78281 0.73612
 C3385 C 0.95699 0.77621 0.74296
 C3386 C 0.96559 0.76842 0.73703
 C3387 C 0.96549 0.76765 0.72407
 C3388 C 0.95680 0.77441 0.71718
 H3389 H 0.90909 0.82241 0.70121
 H3390 H 0.88952 0.83016 0.69290
 H3391 H 0.87776 0.79258 0.68533
 H3392 H 0.89701 0.78469 0.69428
 H3393 H 0.91819 0.78221 0.69179
 H3394 H 0.93595 0.77320 0.70236
 H3395 H 0.93637 0.80423 0.72778
 H3396 H 0.91790 0.81262 0.71796
 H3397 H 0.94132 0.78821 0.74109
 H3398 H 0.95680 0.77681 0.75297
 H3399 H 0.97190 0.76151 0.71932
 H3400 H 0.95694 0.77358 0.70720
 C3401 C 0.59560 0.30159 0.30190
 C3402 C 0.60466 0.30640 0.29380
 C3403 C 0.61577 0.31136 0.29838
 C3404 C 0.61817 0.31141 0.31114
 C3405 C 0.60913 0.30670 0.31925
 C3406 C 0.59794 0.30197 0.31471
 C3407 C 0.58398 0.29583 0.29700
 C3408 C 0.57851 0.28561 0.30305
 C3409 C 0.56804 0.27975 0.29810
 C3410 C 0.56288 0.28377 0.28684
 C3411 C 0.56813 0.29419 0.28096
 C3412 C 0.57847 0.30020 0.28603
 C3413 C 0.55261 0.27666 0.28087
 C3414 C 0.54357 0.28272 0.27361
 C3415 C 0.53477 0.27585 0.26697
 C3416 C 0.53470 0.26282 0.26762
 C3417 C 0.54338 0.25677 0.27520
 C3418 C 0.55225 0.26360 0.28173
 H3419 H 0.60336 0.30606 0.28389
 H3420 H 0.62263 0.31482 0.29191
 H3421 H 0.61065 0.30678 0.32915
 H3422 H 0.59111 0.29865 0.32127
 H3423 H 0.58251 0.28185 0.31144
 H3424 H 0.56412 0.27192 0.30304
 H3425 H 0.56452 0.29750 0.27222
 H3426 H 0.58220 0.30820 0.28124
 H3427 H 0.54343 0.29275 0.27285
 H3428 H 0.52827 0.28067 0.26100
 H3429 H 0.54357 0.24671 0.27571
 H3430 H 0.55917 0.25857 0.28701
 C3431 C 0.59565 0.80204 0.80131
 C3432 C 0.60457 0.79381 0.80623
 C3433 C 0.61574 0.79828 0.81109
 C3434 C 0.61839 0.81105 0.81087
 C3435 C 0.60958 0.81930 0.80593
 C3436 C 0.59829 0.81486 0.80132
 C3437 C 0.58385 0.79722 0.79589
 C3438 C 0.57836 0.80309 0.78562
 C3439 C 0.56772 0.79814 0.78008
 C3440 C 0.56241 0.78703 0.78449
 C3441 C 0.56770 0.78135 0.79496
 C3442 C 0.57819 0.78644 0.80066
 C3443 C 0.55203 0.78092 0.77769
 C3444 C 0.54305 0.77376 0.78397
 C3445 C 0.53425 0.76683 0.77738
 C3446 C 0.53412 0.76712 0.76441
 C3447 C 0.54268 0.77466 0.75815
 C3448 C 0.55156 0.78145 0.76469
 H3449 H 0.60305 0.78386 0.80613
 H3450 H 0.62244 0.79172 0.81474
 H3451 H 0.61133 0.82921 0.80582
 H3452 H 0.59159 0.82153 0.79787
 H3453 H 0.58247 0.81132 0.78158
 H3454 H 0.56379 0.80293 0.77219
 H3455 H 0.56401 0.77272 0.79856
 H3456 H 0.58194 0.78180 0.80871
 H3457 H 0.54299 0.77328 0.79397
 H3458 H 0.52783 0.76092 0.78237
 H3459 H 0.54279 0.77490 0.74813
 H3460 H 0.55841 0.78662 0.75948
 C3461 C 0.09624 0.30113 0.80127
 C3462 C 0.10228 0.31108 0.79537
 C3463 C 0.11345 0.31580 0.80007
 C3464 C 0.11884 0.31069 0.81078
 C3465 C 0.11268 0.30082 0.81673
 C3466 C 0.10153 0.29612 0.81205
 C3467 C 0.08468 0.29569 0.79602
 C3468 C 0.08296 0.28273 0.79600
 C3469 C 0.07228 0.27750 0.79085
 C3470 C 0.06308 0.28507 0.78553
 C3471 C 0.06473 0.29804 0.78559
 C3472 C 0.07541 0.30330 0.79081
 C3473 C 0.05220 0.27930 0.77936
 C3474 C 0.04850 0.28328 0.76753
 C3475 C 0.03946 0.27668 0.76096
 C3476 C 0.03388 0.26614 0.76618
 C3477 C 0.03706 0.26252 0.77821
 C3478 C 0.04614 0.26906 0.78477
 H3479 H 0.09852 0.31505 0.78696
 H3480 H 0.11787 0.32339 0.79520
 H3481 H 0.11641 0.29661 0.82502
 H3482 H 0.09702 0.28857 0.81692
 H3483 H 0.09002 0.27659 0.79969
 H3484 H 0.07140 0.26746 0.79068
 H3485 H 0.05774 0.30409 0.78162
 H3486 H 0.07639 0.31332 0.79084
 H3487 H 0.05309 0.29105 0.76309
 H3488 H 0.03721 0.27945 0.75159
 H3489 H 0.03291 0.25431 0.78229
 H3490 H 0.04873 0.26588 0.79392
 C3491 C 0.09653 0.80045 0.30154
 C3492 C 0.10216 0.81086 0.29604
 C3493 C 0.11325 0.81570 0.30078
 C3494 C 0.11899 0.81024 0.31114
 C3495 C 0.11328 0.79987 0.31668
 C3496 C 0.10220 0.79505 0.31195
 C3497 C 0.08499 0.79502 0.29626
 C3498 C 0.08349 0.78205 0.29563
 C3499 C 0.07285 0.77688 0.29034
 C3500 C 0.06346 0.78455 0.28549
 C3501 C 0.06486 0.79752 0.28622
 C3502 C 0.07549 0.80271 0.29159
 C3503 C 0.05262 0.77894 0.27912
 C3504 C 0.04876 0.78346 0.26753
 C3505 C 0.03966 0.77714 0.26075
 C3506 C 0.03420 0.76634 0.26554
 C3507 C 0.03758 0.76214 0.27734
 C3508 C 0.04673 0.76839 0.28408
 H3509 H 0.09813 0.81513 0.28790
 H3510 H 0.11730 0.82367 0.29622
 H3511 H 0.11733 0.79538 0.32467
 H3512 H 0.09802 0.78712 0.31651
 H3513 H 0.09072 0.77587 0.29893
 H3514 H 0.07213 0.76685 0.28969
 H3515 H 0.05770 0.80364 0.28264
 H3516 H 0.07627 0.81273 0.29212
 H3517 H 0.05324 0.79148 0.26343
 H3518 H 0.03727 0.78036 0.25156
 H3519 H 0.03353 0.75371 0.28106
 H3520 H 0.04946 0.76477 0.29303
 C3521 C 0.59596 0.69925 0.69879
 C3522 C 0.60177 0.68904 0.70447
 C3523 C 0.61288 0.68422 0.69974
 C3524 C 0.61844 0.68950 0.68920
 C3525 C 0.61258 0.69972 0.68352
 C3526 C 0.60149 0.70451 0.68825
 C3527 C 0.58433 0.70459 0.70397
 C3528 C 0.58260 0.71754 0.70435
 C3529 C 0.57184 0.72263 0.70951
 C3530 C 0.56258 0.71489 0.71447
 C3531 C 0.56422 0.70194 0.71400
 C3532 C 0.57496 0.69683 0.70876
 C3533 C 0.55168 0.72044 0.72078
 C3534 C 0.54805 0.71616 0.73253
 C3535 C 0.53901 0.72255 0.73930
 C3536 C 0.53335 0.73319 0.73434
 C3537 C 0.53644 0.73709 0.72237
 C3538 C 0.54555 0.73077 0.71563
 H3539 H 0.59786 0.68490 0.71273
 H3540 H 0.61710 0.67642 0.70445
 H3541 H 0.61647 0.70404 0.67537
 H3542 H 0.59717 0.71229 0.68355
 H3543 H 0.58972 0.72378 0.70096
 H3544 H 0.57094 0.73265 0.70998
 H3545 H 0.55717 0.69577 0.71769
 H3546 H 0.57593 0.68681 0.70843
 H3547 H 0.55272 0.70832 0.73676
 H3548 H 0.53684 0.71957 0.74862
 H3549 H 0.53224 0.74539 0.71851
 H3550 H 0.54810 0.73419 0.70656
 C3551 C 0.59564 0.19903 0.19713
 C3552 C 0.60229 0.19020 0.20407
 C3553 C 0.61377 0.18572 0.19990
 C3554 C 0.61885 0.18996 0.18868
 C3555 C 0.61210 0.19871 0.18169
 C3556 C 0.60065 0.20319 0.18587
 C3557 C 0.58377 0.20424 0.20185
 C3558 C 0.58140 0.21707 0.20106
 C3559 C 0.57064 0.22215 0.20626
 C3560 C 0.56201 0.21451 0.21238
 C3561 C 0.56416 0.20162 0.21280
 C3562 C 0.57493 0.19654 0.20760
 C3563 C 0.55141 0.22014 0.21918
 C3564 C 0.54866 0.21617 0.23126
 C3565 C 0.53987 0.22251 0.23839
 C3566 C 0.53359 0.23283 0.23354
 C3567 C 0.53587 0.23651 0.22130
 C3568 C 0.54472 0.23020 0.21417
 H3569 H 0.59876 0.18695 0.21287
 H3570 H 0.61871 0.17908 0.20559
 H3571 H 0.61556 0.20208 0.17293
 H3572 H 0.59566 0.20986 0.18025
 H3573 H 0.58810 0.22326 0.19683
 H3574 H 0.56935 0.23213 0.20596
 H3575 H 0.55758 0.19549 0.21731
 H3576 H 0.57640 0.18658 0.20814
 H3577 H 0.55379 0.20860 0.23546
 H3578 H 0.53836 0.21970 0.24789
 H3579 H 0.53120 0.24457 0.21749
 H3580 H 0.54659 0.23341 0.20485
 C3581 C 0.09588 0.69809 0.19921
 C3582 C 0.10338 0.69011 0.20631
 C3583 C 0.11462 0.68559 0.20160
 C3584 C 0.11863 0.68894 0.18968
 C3585 C 0.11107 0.69686 0.18256
 C3586 C 0.09984 0.70137 0.18726
 C3587 C 0.08415 0.70327 0.20436
 C3588 C 0.08095 0.71577 0.20225
 C3589 C 0.07022 0.72084 0.20751
 C3590 C 0.06247 0.71355 0.21504
 C3591 C 0.06551 0.70099 0.21696
 C3592 C 0.07623 0.69589 0.21165
 C3593 C 0.05180 0.71936 0.22157
 C3594 C 0.04990 0.71703 0.23422
 C3595 C 0.04104 0.72380 0.24085
 C3596 C 0.03383 0.73289 0.23493
 C3597 C 0.03523 0.73481 0.22218
 C3598 C 0.04416 0.72809 0.21554
 H3599 H 0.10070 0.68758 0.21563
 H3600 H 0.12023 0.67962 0.20741
 H3601 H 0.11372 0.69954 0.17329
 H3602 H 0.09419 0.70736 0.18149
 H3603 H 0.08694 0.72175 0.19685
 H3604 H 0.06826 0.73061 0.20607
 H3605 H 0.05964 0.69512 0.22262
 H3606 H 0.07834 0.68617 0.21327
 H3607 H 0.05574 0.71048 0.23914
 H3608 H 0.04017 0.72233 0.25073
 H3609 H 0.02982 0.74189 0.21752
 H3610 H 0.04535 0.72998 0.20578
 C3611 C 0.09540 0.19732 0.69845
 C3612 C 0.10429 0.20548 0.69337
 C3613 C 0.11544 0.20094 0.68850
 C3614 C 0.11812 0.18819 0.68889
 C3615 C 0.10939 0.18001 0.69403
 C3616 C 0.09809 0.18449 0.69860
 C3617 C 0.08357 0.20222 0.70383
 C3618 C 0.07788 0.19625 0.71394
 C3619 C 0.06725 0.20125 0.71946
 C3620 C 0.06215 0.21254 0.71525
 C3621 C 0.06762 0.21831 0.70491
 C3622 C 0.07807 0.21315 0.69920
 C3623 C 0.05182 0.21872 0.72212
 C3624 C 0.04314 0.22638 0.71599
 C3625 C 0.03444 0.23333 0.72270
 C3626 C 0.03406 0.23254 0.73564
 C3627 C 0.04231 0.22452 0.74174
 C3628 C 0.05111 0.21774 0.73509
 H3629 H 0.10280 0.21543 0.69336
 H3630 H 0.12210 0.20745 0.68470
 H3631 H 0.11120 0.17010 0.69429
 H3632 H 0.09143 0.17784 0.70214
 H3633 H 0.08182 0.18789 0.71790
 H3634 H 0.06316 0.19634 0.72719
 H3635 H 0.06411 0.22707 0.70144
 H3636 H 0.08192 0.21787 0.69124
 H3637 H 0.04323 0.22723 0.70601
 H3638 H 0.02828 0.23962 0.71783
 H3639 H 0.04225 0.22390 0.75174
 H3640 H 0.05773 0.21218 0.74022
 C3641 C 0.40397 0.69867 0.30035
 C3642 C 0.39834 0.70452 0.31054
 C3643 C 0.38716 0.70001 0.31539
 C3644 C 0.38135 0.68951 0.31020
 C3645 C 0.38702 0.68368 0.30001
 C3646 C 0.39818 0.68819 0.29516
 C3647 C 0.41565 0.70364 0.29495
 C3648 C 0.41715 0.70422 0.28206
 C3649 C 0.42794 0.70924 0.27690
 C3650 C 0.43748 0.71384 0.28451
 C3651 C 0.43608 0.71313 0.29741
 C3652 C 0.42528 0.70806 0.30259
 C3653 C 0.44840 0.72007 0.27887
 C3654 C 0.45255 0.73159 0.28345
 C3655 C 0.46152 0.73841 0.27701
 C3656 C 0.46657 0.73374 0.26599
 C3657 C 0.46299 0.72197 0.26176
 C3658 C 0.45399 0.71516 0.26816
 H3659 H 0.40247 0.71273 0.31463
 H3660 H 0.38311 0.70484 0.32319
 H3661 H 0.38292 0.67558 0.29572
 H3662 H 0.40234 0.68340 0.28738
 H3663 H 0.40982 0.70111 0.27593
 H3664 H 0.42863 0.70991 0.26693
 H3665 H 0.44334 0.71651 0.30349
 H3666 H 0.42448 0.70756 0.31256
 H3667 H 0.44834 0.73565 0.29160
 H3668 H 0.46410 0.74758 0.28028
 H3669 H 0.46675 0.71831 0.25320
 H3670 H 0.45108 0.70624 0.26451
 C3671 C 0.40416 0.19731 0.80051
 C3672 C 0.39747 0.20446 0.80912
 C3673 C 0.38619 0.20017 0.81392
 C3674 C 0.38134 0.18861 0.81023
 C3675 C 0.38808 0.18144 0.80165
 C3676 C 0.39935 0.18575 0.79684
 C3677 C 0.41596 0.20208 0.79517
 C3678 C 0.41844 0.20081 0.78247
 C3679 C 0.42911 0.20609 0.77728
 C3680 C 0.43754 0.21275 0.78468
 C3681 C 0.43528 0.21364 0.79746
 C3682 C 0.42461 0.20837 0.80264
 C3683 C 0.44806 0.21958 0.77894
 C3684 C 0.45069 0.23184 0.78265
 C3685 C 0.45958 0.23887 0.77638
 C3686 C 0.46608 0.23378 0.76635
 C3687 C 0.46387 0.22141 0.76288
 C3688 C 0.45492 0.21435 0.76914
 H3689 H 0.40082 0.21352 0.81196
 H3690 H 0.38122 0.20602 0.82040
 H3691 H 0.38475 0.17243 0.79869
 H3692 H 0.40437 0.17996 0.79033
 H3693 H 0.41188 0.19614 0.77644
 H3694 H 0.43047 0.20542 0.76738
 H3695 H 0.44170 0.21855 0.80342
 H3696 H 0.42308 0.20929 0.81250
 H3697 H 0.44544 0.23621 0.79000
 H3698 H 0.46106 0.24848 0.77903
 H3699 H 0.46871 0.21741 0.75505
 H3700 H 0.45315 0.20491 0.76613
 C3701 C 0.90441 0.69751 0.80082
 C3702 C 0.89758 0.70464 0.80934
 C3703 C 0.88624 0.70032 0.81396
 C3704 C 0.88146 0.68877 0.81017
 C3705 C 0.88831 0.68164 0.80164
 C3706 C 0.89964 0.68597 0.79701
 C3707 C 0.91628 0.70231 0.79569
 C3708 C 0.91890 0.70121 0.78300
 C3709 C 0.92960 0.70659 0.77800
 C3710 C 0.93792 0.71318 0.78558
 C3711 C 0.93555 0.71387 0.79834
 C3712 C 0.92485 0.70849 0.80334
 C3713 C 0.94842 0.72018 0.78001
 C3714 C 0.95077 0.73249 0.78373
 C3715 C 0.95955 0.73971 0.77749
 C3716 C 0.96622 0.73472 0.76753
 C3717 C 0.96432 0.72228 0.76411
 C3718 C 0.95548 0.71506 0.77031
 H3719 H 0.90090 0.71368 0.81226
 H3720 H 0.88118 0.70615 0.82038
 H3721 H 0.88502 0.67264 0.79861
 H3722 H 0.90476 0.68022 0.79054
 H3723 H 0.91241 0.69662 0.77685
 H3724 H 0.93107 0.70606 0.76810
 H3725 H 0.94190 0.71873 0.80443
 H3726 H 0.92320 0.70927 0.81320
 H3727 H 0.94537 0.73675 0.79104
 H3728 H 0.96078 0.74935 0.78011
 H3729 H 0.96930 0.71835 0.75632
 H3730 H 0.95392 0.70557 0.76731
 C3731 C 0.90365 0.19800 0.29930
 C3732 C 0.89837 0.20365 0.30978
 C3733 C 0.88725 0.19918 0.31479
 C3734 C 0.88113 0.18893 0.30946
 C3735 C 0.88643 0.18332 0.29895
 C3736 C 0.89754 0.18779 0.29395
 C3737 C 0.91532 0.20292 0.29381
 C3738 C 0.91663 0.20376 0.28090
 C3739 C 0.92736 0.20884 0.27570
 C3740 C 0.93704 0.21322 0.28326
 C3741 C 0.93585 0.21219 0.29616
 C3742 C 0.92511 0.20707 0.30138
 C3743 C 0.94790 0.21959 0.27763
 C3744 C 0.95229 0.23085 0.28261
 C3745 C 0.96129 0.23778 0.27633
 C3746 C 0.96611 0.23350 0.26507
 C3747 C 0.96225 0.22199 0.26039
 C3748 C 0.95323 0.21506 0.26663
 H3749 H 0.90274 0.21167 0.31400
 H3750 H 0.88350 0.20383 0.32284
 H3751 H 0.88206 0.17543 0.29452
 H3752 H 0.90142 0.18315 0.28593
 H3753 H 0.90919 0.20084 0.27482
 H3754 H 0.92790 0.20974 0.26574
 H3755 H 0.94321 0.21538 0.30222
 H3756 H 0.92446 0.20635 0.31135
 H3757 H 0.94827 0.23464 0.29099
 H3758 H 0.96408 0.24675 0.27996
 H3759 H 0.96585 0.21864 0.25164
 H3760 H 0.95014 0.20635 0.26267
 C3761 C 0.30199 0.30093 0.59564
 C3762 C 0.31361 0.29712 0.60022
 C3763 C 0.31791 0.30144 0.61165
 C3764 C 0.31070 0.30968 0.61878
 C3765 C 0.29911 0.31354 0.61414
 C3766 C 0.29481 0.30923 0.60271
 C3767 C 0.29715 0.29594 0.58376
 C3768 C 0.29063 0.30364 0.57549
 C3769 C 0.28523 0.29869 0.56481
 C3770 C 0.28625 0.28594 0.56215
 C3771 C 0.29316 0.27833 0.57018
 C3772 C 0.29855 0.28327 0.58087
 C3773 C 0.27926 0.28035 0.55169
 C3774 C 0.28458 0.27093 0.54437
 C3775 C 0.27740 0.26462 0.53558
 C3776 C 0.26481 0.26763 0.53400
 C3777 C 0.25961 0.27733 0.54096
 C3778 C 0.26678 0.28368 0.54967
 H3779 H 0.31942 0.29086 0.59492
 H3780 H 0.32696 0.29838 0.61478
 H3781 H 0.29323 0.31978 0.61939
 H3782 H 0.28573 0.31218 0.59953
 H3783 H 0.28961 0.31349 0.57735
 H3784 H 0.28010 0.30481 0.55869
 H3785 H 0.29394 0.26843 0.56849
 H3786 H 0.30338 0.27706 0.58712
 H3787 H 0.29419 0.26823 0.54567
 H3788 H 0.28151 0.25705 0.53038
 H3789 H 0.24985 0.27963 0.53998
 H3790 H 0.26237 0.29076 0.55530
 C3791 C 0.30051 0.80157 0.09584
 C3792 C 0.29344 0.80979 0.10310
 C3793 C 0.29814 0.81441 0.11425
 C3794 C 0.31003 0.81091 0.11840
 C3795 C 0.31708 0.80266 0.11113
 C3796 C 0.31238 0.79806 0.09999
 C3797 C 0.29543 0.79649 0.08411
 C3798 C 0.29718 0.78390 0.08107
 C3799 C 0.29194 0.77894 0.07032
 C3800 C 0.28481 0.78645 0.06240
 C3801 C 0.28329 0.79911 0.06528
 C3802 C 0.28856 0.80408 0.07602
 C3803 C 0.27818 0.78081 0.05176
 C3804 C 0.26556 0.78351 0.04976
 C3805 C 0.25877 0.77694 0.04091
 C3806 C 0.26452 0.76767 0.03380
 C3807 C 0.27726 0.76536 0.03531
 C3808 C 0.28405 0.77189 0.04424
 H3809 H 0.28416 0.81249 0.10027
 H3810 H 0.29237 0.82060 0.11966
 H3811 H 0.32632 0.79985 0.11393
 H3812 H 0.31811 0.79185 0.09454
 H3813 H 0.30225 0.77776 0.08720
 H3814 H 0.29306 0.76911 0.06846
 H3815 H 0.27793 0.80513 0.05926
 H3816 H 0.28725 0.81386 0.07800
 H3817 H 0.26076 0.79022 0.05552
 H3818 H 0.24890 0.77871 0.03995
 H3819 H 0.28179 0.75813 0.02998
 H3820 H 0.29380 0.76971 0.04551
 C3821 C 0.80070 0.30235 0.09528
 C3822 C 0.80902 0.29512 0.10225
 C3823 C 0.81366 0.29949 0.11352
 C3824 C 0.81009 0.31121 0.11807
 C3825 C 0.80176 0.31844 0.11106
 C3826 C 0.79711 0.31405 0.09981
 C3827 C 0.79553 0.29754 0.08349
 C3828 C 0.78280 0.29878 0.08086
 C3829 C 0.77776 0.29354 0.07015
 C3830 C 0.78535 0.28696 0.06183
 C3831 C 0.79816 0.28609 0.06425
 C3832 C 0.80319 0.29132 0.07497
 C3833 C 0.77971 0.28016 0.05128
 C3834 C 0.78326 0.26782 0.04885
 C3835 C 0.77686 0.26076 0.04008
 C3836 C 0.76690 0.26594 0.03351
 C3837 C 0.76368 0.27843 0.03546
 C3838 C 0.77004 0.28550 0.04430
 H3839 H 0.81177 0.28596 0.09909
 H3840 H 0.81991 0.29358 0.11872
 H3841 H 0.79891 0.32757 0.11415
 H3842 H 0.79080 0.31988 0.09457
 H3843 H 0.77664 0.30340 0.08733
 H3844 H 0.76782 0.29418 0.06866
 H3845 H 0.80425 0.28122 0.05791
 H3846 H 0.81308 0.29043 0.07665
 H3847 H 0.79055 0.26340 0.05419
 H3848 H 0.77933 0.25107 0.03879
 H3849 H 0.75591 0.28251 0.03054
 H3850 H 0.76718 0.29502 0.04592
 C3851 C 0.80105 0.80124 0.59584
 C3852 C 0.79385 0.80935 0.60310
 C3853 C 0.79835 0.81380 0.61439
 C3854 C 0.81016 0.81026 0.61871
 C3855 C 0.81738 0.80217 0.61142
 C3856 C 0.81288 0.79772 0.60012
 C3857 C 0.79609 0.79621 0.58403
 C3858 C 0.79781 0.78362 0.58096
 C3859 C 0.79250 0.77867 0.57025
 C3860 C 0.78532 0.78618 0.56237
 C3861 C 0.78387 0.79885 0.56524
 C3862 C 0.78921 0.80381 0.57595
 C3863 C 0.77859 0.78055 0.55178
 C3864 C 0.76598 0.78336 0.54981
 C3865 C 0.75911 0.77683 0.54098
 C3866 C 0.76475 0.76750 0.53386
 C3867 C 0.77747 0.76507 0.53537
 C3868 C 0.78434 0.77154 0.54427
 H3869 H 0.78461 0.81205 0.60016
 H3870 H 0.79246 0.81989 0.61980
 H3871 H 0.82658 0.79935 0.61432
 H3872 H 0.81871 0.79160 0.59467
 H3873 H 0.80290 0.77748 0.58708
 H3874 H 0.79359 0.76883 0.56839
 H3875 H 0.77850 0.80488 0.55925
 H3876 H 0.78791 0.81360 0.57795
 H3877 H 0.76126 0.79013 0.55555
 H3878 H 0.74925 0.77870 0.54003
 H3879 H 0.78192 0.75779 0.53003
 H3880 H 0.79407 0.76927 0.54552
 C3881 C 0.30110 0.69933 0.40406
 C3882 C 0.31172 0.70455 0.39858
 C3883 C 0.31637 0.69986 0.38745
 C3884 C 0.31054 0.68979 0.38152
 C3885 C 0.29993 0.68453 0.38705
 C3886 C 0.29527 0.68924 0.39818
 C3887 C 0.29595 0.70460 0.41568
 C3888 C 0.29102 0.69682 0.42492
 C3889 C 0.28580 0.70190 0.43565
 C3890 C 0.28550 0.71484 0.43738
 C3891 C 0.29058 0.72259 0.42823
 C3892 C 0.29571 0.71754 0.41749
 C3893 C 0.27928 0.72041 0.44827
 C3894 C 0.28466 0.73059 0.45441
 C3895 C 0.27799 0.73705 0.46344
 C3896 C 0.26586 0.73342 0.46644
 C3897 C 0.26068 0.72289 0.46081
 C3898 C 0.26738 0.71636 0.45183
 H3899 H 0.31652 0.71224 0.40295
 H3900 H 0.32456 0.70418 0.38358
 H3901 H 0.29511 0.67681 0.38281
 H3902 H 0.28695 0.68512 0.40206
 H3903 H 0.29123 0.68681 0.42387
 H3904 H 0.28200 0.69572 0.44260
 H3905 H 0.29023 0.73261 0.42920
 H3906 H 0.29918 0.72380 0.41045
 H3907 H 0.29387 0.73381 0.45191
 H3908 H 0.28204 0.74525 0.46765
 H3909 H 0.25124 0.72010 0.46295
 H3910 H 0.26298 0.70861 0.44717
 C3911 C 0.30159 0.19964 0.90416
 C3912 C 0.29468 0.19083 0.89745
 C3913 C 0.29919 0.18607 0.88627
 C3914 C 0.31073 0.18997 0.88154
 C3915 C 0.31762 0.19879 0.88828
 C3916 C 0.31310 0.20356 0.89944
 C3917 C 0.29668 0.20490 0.91590
 C3918 C 0.29778 0.21768 0.91841
 C3919 C 0.29267 0.22277 0.92916
 C3920 C 0.28632 0.21520 0.93768
 C3921 C 0.28549 0.20236 0.93533
 C3922 C 0.29061 0.19727 0.92456
 C3923 C 0.27981 0.22088 0.94841
 C3924 C 0.26766 0.21713 0.95142
 C3925 C 0.26083 0.22354 0.96036
 C3926 C 0.26604 0.23374 0.96655
 C3927 C 0.27835 0.23717 0.96404
 C3928 C 0.28520 0.23077 0.95505
 H3929 H 0.28567 0.18779 0.90073
 H3930 H 0.29352 0.17943 0.88130
 H3931 H 0.32659 0.20196 0.88505
 H3932 H 0.31870 0.21023 0.90446
 H3933 H 0.30225 0.22384 0.91184
 H3934 H 0.29326 0.23272 0.93057
 H3935 H 0.28080 0.19627 0.94180
 H3936 H 0.28980 0.18736 0.92300
 H3937 H 0.26318 0.20966 0.94639
 H3938 H 0.25127 0.22090 0.96209
 H3939 H 0.28246 0.24511 0.96866
 H3940 H 0.29459 0.23378 0.95303
 C3941 C 0.80169 0.70024 0.90367
 C3942 C 0.81194 0.70560 0.89766
 C3943 C 0.81650 0.70056 0.88666
 C3944 C 0.81094 0.68998 0.88135
 C3945 C 0.80070 0.68458 0.88741
 C3946 C 0.79613 0.68964 0.89844
 C3947 C 0.79667 0.70591 0.91517
 C3948 C 0.79262 0.69845 0.92506
 C3949 C 0.78772 0.70389 0.93577
 C3950 C 0.78679 0.71690 0.93680
 C3951 C 0.79095 0.72433 0.92695
 C3952 C 0.79582 0.71890 0.91627
 C3953 C 0.78082 0.72279 0.94771
 C3954 C 0.78550 0.73398 0.95259
 C3955 C 0.77889 0.74047 0.96166
 C3956 C 0.76758 0.73579 0.96608
 C3957 C 0.76318 0.72433 0.96173
 C3958 C 0.76977 0.71785 0.95263
 H3959 H 0.81652 0.71368 0.90153
 H3960 H 0.82439 0.70503 0.88238
 H3961 H 0.79611 0.67647 0.88365
 H3962 H 0.78811 0.68540 0.90277
 H3963 H 0.79331 0.68842 0.92455
 H3964 H 0.78467 0.69794 0.94326
 H3965 H 0.79010 0.73435 0.92733
 H3966 H 0.79863 0.72490 0.90872
 H3967 H 0.79408 0.73791 0.94911
 H3968 H 0.78233 0.74936 0.96490
 H3969 H 0.75435 0.72073 0.96494
 H3970 H 0.76586 0.70933 0.94897
 C3971 C 0.80167 0.20044 0.40374
 C3972 C 0.79618 0.18983 0.39849
 C3973 C 0.80081 0.18478 0.38749
 C3974 C 0.81107 0.19021 0.38147
 C3975 C 0.81656 0.20081 0.38679
 C3976 C 0.81193 0.20584 0.39778
 C3977 C 0.79656 0.20607 0.41523
 C3978 C 0.79569 0.21905 0.41640
 C3979 C 0.79068 0.22442 0.42704
 C3980 C 0.78637 0.21694 0.43680
 C3981 C 0.78732 0.20394 0.43571
 C3982 C 0.79237 0.19856 0.42504
 C3983 C 0.78034 0.22277 0.44772
 C3984 C 0.76932 0.21775 0.45264
 C3985 C 0.76272 0.22416 0.46179
 C3986 C 0.76707 0.23561 0.46620
 C3987 C 0.77834 0.24037 0.46177
 C3988 C 0.78496 0.23397 0.45265
 H3989 H 0.78815 0.18555 0.40277
 H3990 H 0.79628 0.17664 0.38373
 H3991 H 0.82445 0.20530 0.38252
 H3992 H 0.81647 0.21394 0.40166
 H3993 H 0.79861 0.22509 0.40893
 H3994 H 0.78982 0.23445 0.42746
 H3995 H 0.78417 0.19794 0.44312
 H3996 H 0.79306 0.18853 0.42449
 H3997 H 0.76545 0.20923 0.44895
 H3998 H 0.75392 0.22049 0.46500
 H3999 H 0.78174 0.24927 0.46503
 H4000 H 0.79352 0.23797 0.44918
 C4001 C 0.69878 0.30082 0.40409
 C4002 C 0.68698 0.29720 0.39985
 C4003 C 0.68223 0.30192 0.38877
 C4004 C 0.68917 0.31038 0.38166
 C4005 C 0.70103 0.31392 0.38586
 C4006 C 0.70577 0.30920 0.39694
 C4007 C 0.70386 0.29578 0.41585
 C4008 C 0.71057 0.30346 0.42399
 C4009 C 0.71580 0.29859 0.43479
 C4010 C 0.71442 0.28593 0.43771
 C4011 C 0.70745 0.27832 0.42973
 C4012 C 0.70224 0.28319 0.41892
 C4013 C 0.72100 0.28042 0.44847
 C4014 C 0.71532 0.27119 0.45577
 C4015 C 0.72215 0.26482 0.46478
 C4016 C 0.73475 0.26760 0.46664
 C4017 C 0.74027 0.27719 0.45979
 C4018 C 0.73345 0.28359 0.45083
 H4019 H 0.68132 0.29086 0.40521
 H4020 H 0.67303 0.29905 0.38592
 H4021 H 0.70673 0.32026 0.38055
 H4022 H 0.71501 0.31196 0.39982
 H4023 H 0.71179 0.31326 0.42198
 H4024 H 0.72100 0.30471 0.44083
 H4025 H 0.70643 0.26848 0.43159
 H4026 H 0.69727 0.27699 0.41277
 H4027 H 0.70569 0.26866 0.45424
 H4028 H 0.71779 0.25734 0.46989
 H4029 H 0.75004 0.27932 0.46101
 H4030 H 0.73814 0.29053 0.44528
 C4031 C 0.69851 0.80057 0.90433
 C4032 C 0.68682 0.79682 0.89988
 C4033 C 0.68228 0.80140 0.88864
 C4034 C 0.68931 0.80985 0.88160
 C4035 C 0.70104 0.81352 0.88601
 C4036 C 0.70559 0.80893 0.89724
 C4037 C 0.70342 0.79563 0.91621
 C4038 C 0.71007 0.80337 0.92435
 C4039 C 0.71533 0.79854 0.93516
 C4040 C 0.71404 0.78588 0.93809
 C4041 C 0.70704 0.77823 0.93017
 C4042 C 0.70180 0.78305 0.91935
 C4043 C 0.72084 0.78038 0.94872
 C4044 C 0.71533 0.77114 0.95612
 C4045 C 0.72237 0.76477 0.96498
 C4046 C 0.73501 0.76756 0.96659
 C4047 C 0.74037 0.77715 0.95961
 C4048 C 0.73335 0.78355 0.95081
 H4049 H 0.68109 0.79049 0.90517
 H4050 H 0.67316 0.79844 0.88562
 H4051 H 0.70680 0.81984 0.88076
 H4052 H 0.71475 0.81178 0.90027
 H4053 H 0.71126 0.81316 0.92232
 H4054 H 0.72054 0.80469 0.94117
 H4055 H 0.70605 0.76839 0.93207
 H4056 H 0.69687 0.77680 0.91322
 H4057 H 0.70568 0.76859 0.95480
 H4058 H 0.71812 0.75729 0.97020
 H4059 H 0.75016 0.77931 0.96062
 H4060 H 0.73790 0.79051 0.94515
 C4061 C 0.19836 0.29942 0.90415
 C4062 C 0.18811 0.29409 0.89811
 C4063 C 0.18360 0.29916 0.88710
 C4064 C 0.18922 0.30971 0.88181
 C4065 C 0.19952 0.31503 0.88786
 C4066 C 0.20402 0.30995 0.89891
 C4067 C 0.20322 0.29384 0.91576
 C4068 C 0.20722 0.30139 0.92561
 C4069 C 0.21202 0.29607 0.93641
 C4070 C 0.21293 0.28307 0.93758
 C4071 C 0.20877 0.27554 0.92780
 C4072 C 0.20399 0.28085 0.91702
 C4073 C 0.21896 0.27732 0.94854
 C4074 C 0.21445 0.26608 0.95349
 C4075 C 0.22121 0.25969 0.96252
 C4076 C 0.23252 0.26450 0.96681
 C4077 C 0.23672 0.27601 0.96243
 C4078 C 0.22998 0.28241 0.95339
 H4079 H 0.18346 0.28606 0.90198
 H4080 H 0.17566 0.29476 0.88283
 H4081 H 0.20417 0.32310 0.88409
 H4082 H 0.21207 0.31415 0.90324
 H4083 H 0.20657 0.31142 0.92498
 H4084 H 0.21504 0.30211 0.94384
 H4085 H 0.20959 0.26551 0.92829
 H4086 H 0.20119 0.27478 0.90953
 H4087 H 0.20589 0.26204 0.95007
 H4088 H 0.21792 0.25076 0.96578
 H4089 H 0.24553 0.27973 0.96556
 H4090 H 0.23377 0.29096 0.94970
 C4091 C 0.19903 0.80279 0.40499
 C4092 C 0.19418 0.79450 0.39613
 C4093 C 0.18934 0.79891 0.38496
 C4094 C 0.18947 0.81167 0.38228
 C4095 C 0.19433 0.81997 0.39106
 C4096 C 0.19893 0.81560 0.40233
 C4097 C 0.20449 0.79808 0.41677
 C4098 C 0.21482 0.80401 0.42214
 C4099 C 0.22043 0.79917 0.43275
 C4100 C 0.21603 0.78813 0.43815
 C4101 C 0.20545 0.78241 0.43304
 C4102 C 0.19970 0.78737 0.42254
 C4103 C 0.22300 0.78206 0.44842
 C4104 C 0.21679 0.77515 0.45760
 C4105 C 0.22352 0.76823 0.46628
 C4106 C 0.23656 0.76825 0.46607
 C4107 C 0.24277 0.77556 0.45729
 C4108 C 0.23608 0.78236 0.44855
 H4109 H 0.19434 0.78456 0.39769
 H4110 H 0.18577 0.79230 0.37828
 H4111 H 0.19438 0.82989 0.38930
 H4112 H 0.20232 0.82231 0.40899
 H4113 H 0.21887 0.81220 0.41795
 H4114 H 0.22840 0.80397 0.43657
 H4115 H 0.20184 0.77384 0.43685
 H4116 H 0.19160 0.78270 0.41886
 H4117 H 0.20674 0.77485 0.45790
 H4118 H 0.21856 0.76250 0.47288
 H4119 H 0.25283 0.77558 0.45689
 H4120 H 0.24121 0.78736 0.44152
 C4121 C 0.69886 0.69983 0.59624
 C4122 C 0.70449 0.68941 0.60174
 C4123 C 0.69997 0.68461 0.61289
 C4124 C 0.68967 0.69010 0.61880
 C4125 C 0.68400 0.70046 0.61321
 C4126 C 0.68852 0.70524 0.60208
 C4127 C 0.70392 0.70529 0.58467
 C4128 C 0.70466 0.71827 0.58333
 C4129 C 0.70961 0.72352 0.57262
 C4130 C 0.71398 0.71593 0.56297
 C4131 C 0.71321 0.70294 0.56424
 C4132 C 0.70820 0.69767 0.57498
 C4133 C 0.71996 0.72169 0.55201
 C4134 C 0.73130 0.71703 0.54747
 C4135 C 0.73789 0.72358 0.53842
 C4136 C 0.73317 0.73477 0.53370
 C4137 C 0.72156 0.73908 0.53768
 C4138 C 0.71497 0.73257 0.54674
 H4139 H 0.71257 0.68512 0.59754
 H4140 H 0.70462 0.67664 0.61685
 H4141 H 0.67605 0.70498 0.61736
 H4142 H 0.68387 0.71318 0.59800
 H4143 H 0.70169 0.72439 0.59072
 H4144 H 0.71036 0.73354 0.57204
 H4145 H 0.71645 0.69688 0.55692
 H4146 H 0.70761 0.68764 0.57568
 H4147 H 0.73542 0.70875 0.55143
 H4148 H 0.74694 0.72025 0.53553
 H4149 H 0.71787 0.74777 0.53418
 H4150 H 0.70617 0.73626 0.54994
 C4151 C 0.69849 0.19747 0.09494
 C4152 C 0.69788 0.18459 0.09720
 C4153 C 0.69328 0.18008 0.10842
 C4154 C 0.68896 0.18831 0.11753
 C4155 C 0.68937 0.20114 0.11527
 C4156 C 0.69419 0.20568 0.10415
 C4157 C 0.70390 0.20235 0.08322
 C4158 C 0.69938 0.21338 0.07788
 C4159 C 0.70513 0.21851 0.06747
 C4160 C 0.71544 0.21263 0.06201
 C4161 C 0.71957 0.20127 0.06699
 C4162 C 0.71395 0.19625 0.07751
 C4163 C 0.72243 0.21878 0.05182
 C4164 C 0.73548 0.21798 0.05141
 C4165 C 0.74223 0.22468 0.04265
 C4166 C 0.73613 0.23241 0.03414
 C4167 C 0.72310 0.23302 0.03427
 C4168 C 0.71630 0.22617 0.04295
 H4169 H 0.70087 0.17797 0.09027
 H4170 H 0.69291 0.17012 0.10987
 H4171 H 0.68625 0.20769 0.12222
 H4172 H 0.69479 0.21565 0.10290
 H4173 H 0.69148 0.21819 0.08183
 H4174 H 0.70173 0.22732 0.06399
 H4175 H 0.72732 0.19634 0.06290
 H4176 H 0.71778 0.18779 0.08138
 H4177 H 0.74057 0.21263 0.05821
 H4178 H 0.75230 0.22422 0.04280
 H4179 H 0.71823 0.23910 0.02791
 H4180 H 0.70626 0.22689 0.04288
 C4181 C 0.19840 0.69998 0.09610
 C4182 C 0.20398 0.68945 0.10146
 C4183 C 0.19932 0.68443 0.11246
 C4184 C 0.18896 0.68980 0.11836
 C4185 C 0.18340 0.70033 0.11295
 C4186 C 0.18806 0.70533 0.10197
 C4187 C 0.20348 0.70553 0.08457
 C4188 C 0.20423 0.71851 0.08330
 C4189 C 0.20918 0.72381 0.07260
 C4190 C 0.21355 0.71626 0.06291
 C4191 C 0.21272 0.70327 0.06412
 C4192 C 0.20772 0.69796 0.07483
 C4193 C 0.21959 0.72203 0.05199
 C4194 C 0.23086 0.71725 0.04740
 C4195 C 0.23750 0.72372 0.03834
 C4196 C 0.23291 0.73497 0.03366
 C4197 C 0.22138 0.73944 0.03771
 C4198 C 0.21474 0.73300 0.04678
 H4199 H 0.21208 0.68522 0.09725
 H4200 H 0.20393 0.67638 0.11632
 H4201 H 0.17541 0.70475 0.11711
 H4202 H 0.18346 0.71336 0.09801
 H4203 H 0.20127 0.72460 0.09072
 H4204 H 0.20994 0.73384 0.07206
 H4205 H 0.21593 0.69724 0.05676
 H4206 H 0.20710 0.68793 0.07547
 H4207 H 0.23488 0.70890 0.05132
 H4208 H 0.24650 0.72027 0.03541
 H4209 H 0.21780 0.74819 0.03424
 H4210 H 0.20600 0.73680 0.05001
 C4211 C 0.19761 0.19794 0.59530
 C4212 C 0.20593 0.19406 0.60460
 C4213 C 0.20152 0.18929 0.61580
 C4214 C 0.18871 0.18852 0.61808
 C4215 C 0.18037 0.19234 0.60883
 C4216 C 0.18476 0.19688 0.59753
 C4217 C 0.20234 0.20343 0.58353
 C4218 C 0.19580 0.21306 0.57757
 C4219 C 0.20067 0.21880 0.56703
 C4220 C 0.21231 0.21523 0.56228
 C4221 C 0.21865 0.20533 0.56799
 C4222 C 0.21368 0.19945 0.57840
 C4223 C 0.21824 0.22236 0.55204
 C4224 C 0.22611 0.21645 0.54344
 C4225 C 0.23284 0.22342 0.53481
 C4226 C 0.23163 0.23641 0.53443
 C4227 C 0.22341 0.24228 0.54264
 C4228 C 0.21681 0.23536 0.55136
 H4229 H 0.21587 0.19498 0.60339
 H4230 H 0.20816 0.18653 0.62282
 H4231 H 0.17043 0.19169 0.61027
 H4232 H 0.17806 0.19950 0.59054
 H4233 H 0.18709 0.21648 0.58124
 H4234 H 0.19539 0.22622 0.56274
 H4235 H 0.22769 0.20238 0.56471
 H4236 H 0.21886 0.19187 0.58252
 H4237 H 0.22731 0.20645 0.54356
 H4238 H 0.23929 0.21873 0.52869
 H4239 H 0.22247 0.25232 0.54259
 H4240 H 0.21104 0.24029 0.55793
   
