data_POSCAR
  _audit_creation_date              2014-09-24
  _audit_creation_method            'ToBaCCo'
  _symmetry_space_group_name_H-M    'P1'
  _symmetry_Int_Tables_number       1
  _symmetry_cell_setting            triclinic
  loop_
  _symmetry_equiv_pos_as_xyz
 x,y,z
_cell_length_a 62.6302
_cell_length_b 62.8818
_cell_length_c 61.9376
_cell_angle_alpha 90.448300
_cell_angle_beta 90.009500
_cell_angle_gamma 89.610800
loop_
  _atom_site_label
  _atom_site_type_symbol
  _atom_site_fract_x
  _atom_site_fract_y
  _atom_site_fract_z
C1 C 0.35963 1.35604 0.33245
 N2 N 0.34047 1.36394 0.33912
 C3 C 0.33090 1.35674 0.35737
 N4 N 0.34065 1.34098 0.36883
 C5 C 0.35979 1.33280 0.36227
 N6 N 0.36916 1.34054 0.34423
 C7 C 0.35642 0.85666 0.83290
 N8 N 0.36730 0.83994 0.84141
 C9 C 0.36008 0.83013 0.85943
 N10 N 0.34191 0.83735 0.86907
 C11 C 0.33083 0.85411 0.86085
 N12 N 0.33817 0.86354 0.84263
 C13 C 0.86184 1.35963 0.83443
 N14 N 0.84352 1.36749 0.84348
 C15 C 0.83419 1.35733 0.86043
 N16 N 0.84351 1.33934 0.86824
 C17 C 0.86190 1.33162 0.85963
 N18 N 0.87082 1.34180 0.84278
 C19 C 0.86586 0.86319 0.33632
 N20 N 0.84696 0.87138 0.34330
 C21 C 0.83647 0.86269 0.36026
 N22 N 0.84512 0.84550 0.37040
 C23 C 0.86416 0.83726 0.36365
 N24 N 0.87428 0.84615 0.34664
 C25 C 0.63431 0.63633 0.33921
 N26 N 0.65380 0.62886 0.34555
 C27 C 0.66450 0.63862 0.36192
 N28 N 0.65566 0.65586 0.37175
 C29 C 0.63631 0.66344 0.36571
 N30 N 0.62569 0.65361 0.34940
 C31 C 0.62904 0.12739 0.84339
 N32 N 0.64815 0.11969 0.85029
 C33 C 0.65919 0.12952 0.86639
 N34 N 0.65090 0.14757 0.87550
 C35 C 0.63164 0.15533 0.86896
 N36 N 0.62087 0.14512 0.85299
 C37 C 1.14030 0.64320 0.83743
 N38 N 1.13219 0.66046 0.84804
 C39 C 1.14318 0.66970 0.86446
 N40 N 1.16239 0.66151 0.87025
 C41 C 1.17067 0.64420 0.86002
 N42 N 1.15959 0.63510 0.84352
 C43 C 1.14741 0.14587 0.33325
 N44 N 1.16549 0.13806 0.34261
 C45 C 1.17525 0.14870 0.35898
 N46 N 1.16679 0.16743 0.36585
 C47 C 1.14873 0.17547 0.35697
 N48 N 1.13897 0.16459 0.34071
 C49 C 0.64255 1.35784 0.66053
 N50 N 0.66104 1.36591 0.65256
 C51 C 0.67161 1.35576 0.63621
 N52 N 0.66352 1.33736 0.62814
 C53 C 0.64508 1.32920 0.63583
 N54 N 0.63465 1.33954 0.65200
 C55 C 0.64152 0.85908 1.16510
 N56 N 0.63064 0.84228 1.15672
 C57 C 0.63843 0.83120 1.13944
 N58 N 0.65720 0.83724 1.13033
 C59 C 0.66815 0.85410 1.13844
 N60 N 0.66024 0.86474 1.15583
 C61 C 1.13787 1.36181 1.16382
 N62 N 1.15601 1.37032 1.15564
 C63 C 1.16626 1.36111 1.13852
 N64 N 1.15797 1.34309 1.12945
 C65 C 1.13952 1.33473 1.13721
 N66 N 1.12978 1.34412 1.15436
 C67 C 1.14196 0.86327 0.66538
 N68 N 1.13404 0.84497 0.65682
 C69 C 1.14352 0.83575 0.63926
 N70 N 1.16101 0.84500 0.63041
 C71 C 1.16887 0.86345 0.63864
 N72 N 1.15920 0.87236 0.65610
 C73 C 0.35894 0.63892 0.66240
 N74 N 0.36815 0.65708 0.65533
 C75 C 0.35925 0.66840 0.63902
 N76 N 0.34079 0.66150 0.62991
 C77 C 0.33137 0.64328 0.63667
 N78 N 0.34065 0.63207 0.65291
 C79 C 0.35575 0.14187 1.16913
 N80 N 0.36489 0.15986 1.16149
 C81 C 0.35635 0.17036 1.14446
 N82 N 0.33828 0.16284 1.13511
 C83 C 0.32889 0.14480 1.14234
 N84 N 0.33784 0.13435 1.15931
 C85 C 0.85584 0.64069 1.16206
 N86 N 0.83829 0.63222 1.15247
 C87 C 0.82931 0.64158 1.13497
 N88 N 0.83822 0.65945 1.12692
 C89 C 0.85581 0.66811 1.13619
 N90 N 0.86447 0.65876 1.15392
 C91 C 0.85946 0.14597 0.66842
 N92 N 0.84043 0.13895 0.66058
 C93 C 0.83048 0.14909 0.64396
 N94 N 0.83976 0.16666 0.63538
 C95 C 0.85884 0.17376 0.64289
 N96 N 0.86855 0.16327 0.65928
 C97 C 1.35957 0.36130 0.65945
 N98 N 1.36768 0.34284 0.65116
 C99 C 1.35980 0.33432 0.63254
 N100 N 1.34340 0.34441 0.62238
 C101 C 1.33488 0.36265 0.63061
 N102 N 1.34311 0.37100 0.64906
 C103 C 1.35873 0.85871 1.16502
 N104 N 1.36919 0.84161 1.15641
 C105 C 1.36114 0.83118 1.13886
 N106 N 1.34261 0.83830 1.12987
 C107 C 1.33214 0.85544 1.13825
 N108 N 1.34025 0.86542 1.15586
 C109 C 0.86347 0.36759 1.15731
 N110 N 0.84689 0.37722 1.14697
 C111 C 0.83781 0.36818 1.12930
 N112 N 0.84538 0.34926 1.12193
 C113 C 0.86188 0.33931 1.13193
 N114 N 0.87088 0.34852 1.14967
 C115 C 0.86832 0.86941 0.66020
 N116 N 0.87705 0.85152 0.65142
 C117 C 0.86743 0.84147 0.63454
 N118 N 0.84874 0.84937 0.62662
 C119 C 0.83983 0.86725 0.63537
 N120 N 0.84974 0.87710 0.65211
 C121 C 0.63192 0.63555 0.65918
 N122 N 0.62413 0.65315 0.64920
 C123 C 0.63366 0.66067 0.63109
 N124 N 0.65118 0.65049 0.62311
 C125 C 0.65915 0.63291 0.63292
 N126 N 0.64945 0.62556 0.65095
 C127 C 0.63495 1.13538 1.16562
 N128 N 0.65275 1.12742 1.15597
 C129 C 0.66181 1.13726 1.13894
 N130 N 0.65299 1.15561 1.13148
 C131 C 0.63489 1.16378 1.14069
 N132 N 0.62599 1.15347 1.15772
 C133 C 0.14650 0.64349 1.16926
 N134 N 0.13752 0.66219 1.16297
 C135 C 0.14426 0.67229 1.14490
 N136 N 0.16054 0.66356 1.13322
 C137 C 0.16988 0.64497 1.13934
 N138 N 0.16266 0.63499 1.15727
 C139 C 0.13956 1.14466 0.66760
 N140 N 0.13065 1.16270 0.65974
 C141 C 0.13962 1.17327 0.64306
 N142 N 0.15794 1.16543 0.63413
 C143 C 0.16722 1.14735 0.64186
 N144 N 0.15794 1.13707 0.65867
 C145 C 1.35559 0.64091 0.33299
 N146 N 1.36657 0.65762 0.34161
 C147 C 1.35980 0.66716 0.36022
 N148 N 1.34194 0.66000 0.37008
 C149 C 1.33081 0.64348 0.36173
 N150 N 1.33771 0.63403 0.34322
 C151 C 1.36411 1.13583 0.83927
 N152 N 1.34628 1.12645 0.84715
 C153 C 1.33603 1.13459 0.86471
 N154 N 1.34368 1.15248 0.87440
 C155 C 1.36149 1.16214 0.86673
 N156 N 1.37155 1.15362 0.84921
 C157 C 0.85758 0.63844 0.84159
 N158 N 0.86665 0.65633 0.84996
 C159 C 0.85894 0.66524 0.86849
 N160 N 0.84187 0.65638 0.87832
 C161 C 0.83251 0.63872 0.87008
 N162 N 0.84053 0.62974 0.85177
 C163 C 0.85976 1.14718 0.33662
 N164 N 0.84127 1.13893 0.34450
 C165 C 0.83199 1.14742 0.36252
 N166 N 0.84131 1.16422 0.37256
 C167 C 0.85963 1.17273 0.36493
 N168 N 0.86871 1.16408 0.34697
 C169 C 0.64658 0.35377 0.32960
 N170 N 0.66441 0.36137 0.33942
 C171 C 0.67249 0.35195 0.35733
 N172 N 0.66258 0.33460 0.36546
 C173 C 0.64473 0.32664 0.35589
 N174 N 0.63688 0.33638 0.33798
 C175 C 0.64067 0.85225 0.83209
 N176 N 0.63417 0.83406 0.84170
 C177 C 0.64483 0.82611 0.85899
 N178 N 0.66230 0.83648 0.86656
 C179 C 0.66893 0.85478 0.85722
 N180 N 0.65801 0.86258 0.84002
 C181 C 0.14236 0.35115 0.83145
 N182 N 0.13365 0.33405 0.84142
 C183 C 0.14309 0.32538 0.85910
 N184 N 0.16147 0.33400 0.86662
 C185 C 0.17053 0.35092 0.85682
 N186 N 0.16087 0.35949 0.83922
 C187 C 0.14822 0.85550 0.33025
 N188 N 0.13937 0.83741 0.33824
 C189 C 0.14919 0.82665 0.35454
 N190 N 0.16771 0.83421 0.36288
 C191 C 0.17649 0.85230 0.35534
 N192 N 0.16671 0.86276 0.33903
 O193 O 1.07533 1.02293 1.11134
 O194 O 1.10008 1.02328 1.13666
 C195 C 1.08263 1.03033 1.12899
 C196 C 1.07094 1.04773 1.14024
 C197 C 1.07735 1.05494 1.16077
 H198 H 1.09027 1.04685 1.16899
 O199 O 0.92198 0.98214 1.10769
 O200 O 0.89739 0.98239 1.13317
 C201 C 0.91478 0.97513 1.12539
 C202 C 0.92662 0.95820 1.13691
 C203 C 0.92045 0.95224 1.15776
 H204 H 0.90689 0.96007 1.16529
 O205 O 1.02032 1.10754 1.07995
 O206 O 1.02026 1.13294 1.10469
 C207 C 1.02772 1.12489 1.08734
 C208 C 1.04547 1.13542 1.07576
 C209 C 1.05408 1.15475 1.08332
 H210 H 1.04750 1.16233 1.09762
 O211 O 0.97898 0.89509 1.07994
 O212 O 0.97886 0.87096 1.10558
 C213 C 0.97166 0.87804 1.08786
 C214 C 0.95416 0.86667 1.07671
 C215 C 0.94687 0.84712 1.08451
 H216 H 0.95501 0.83977 1.09798
 O217 O 1.10508 1.07664 1.02239
 O218 O 1.12983 1.10142 1.02217
 C219 C 1.12233 1.08430 1.02981
 C220 C 1.13336 1.07346 1.04792
 C221 C 1.15365 1.08008 1.05491
 H222 H 1.16176 1.09257 1.04630
 O223 O 0.89299 0.92349 1.02367
 O224 O 0.86822 0.89874 1.02402
 C225 C 0.87570 0.91617 1.03117
 C226 C 0.86450 0.92783 1.04872
 C227 C 0.84515 0.92025 1.05698
 H228 H 0.83833 0.90587 1.05027
 O229 O 0.97780 1.07963 1.10898
 O230 O 0.97721 1.10499 1.13376
 C231 C 0.96999 1.08761 1.12618
 C232 C 0.95206 1.07668 1.13708
 C233 C 0.94360 1.08452 1.15667
 H234 H 0.95037 1.09864 1.16400
 O235 O 1.02053 0.92473 1.10925
 O236 O 1.02030 0.90053 1.13483
 C237 C 1.02760 0.91762 1.12704
 C238 C 1.04469 0.92913 1.13868
 C239 C 1.05154 0.92221 1.15902
 H240 H 1.04419 0.90838 1.16610
 O241 O 1.10498 0.98147 1.08153
 O242 O 1.12986 0.98173 1.10673
 C243 C 1.12245 0.97435 1.08912
 C244 C 1.13390 0.95691 1.07766
 C245 C 1.15363 0.94939 1.08534
 H246 H 1.16106 0.95724 1.09899
 O247 O 0.89184 1.02328 1.07874
 O248 O 0.86704 1.02365 1.10400
 C249 C 0.87456 1.03080 1.08646
 C250 C 0.86369 1.04852 1.07517
 C251 C 0.84412 1.05690 1.08263
 H252 H 0.83647 1.04998 1.09657
 O253 O 0.92263 1.10745 1.02154
 O254 O 0.89818 1.13286 1.02114
 C255 C 0.91552 1.12522 1.02848
 C256 C 0.92735 1.13678 1.04560
 C257 C 0.92146 1.15761 1.05172
 H258 H 0.90872 1.16567 1.04317
 O259 O 1.07790 0.89558 1.02469
 O260 O 1.10284 0.87064 1.02484
 C261 C 1.08543 0.87828 1.03210
 C262 C 1.07393 0.86710 1.04949
 C263 C 1.08094 0.84709 1.05654
 H264 H 1.09489 0.83986 1.04913
 O265 O 0.92146 1.02365 1.10787
 O266 O 0.89673 1.02384 1.13321
 C267 C 0.91398 1.03109 1.12546
 C268 C 0.92498 1.04881 1.13672
 C269 C 0.91708 1.05662 1.15646
 H270 H 0.90378 1.04869 1.16402
 O271 O 1.07561 0.98149 1.11096
 O272 O 1.10031 0.98172 1.13634
 C273 C 1.08306 0.97435 1.12856
 C274 C 1.07174 0.95692 1.13965
 C275 C 1.07825 0.94991 1.16017
 H276 H 1.09109 0.95803 1.16846
 O277 O 1.02068 0.89505 1.08005
 O278 O 1.02059 0.87075 1.10552
 C279 C 1.02800 0.87791 1.08793
 C280 C 1.04573 0.86668 1.07671
 C281 C 1.05283 0.84653 1.08346
 H282 H 1.04458 0.83858 1.09643
 O283 O 0.97876 1.10783 1.07883
 O284 O 0.97857 1.13339 1.10341
 C285 C 0.97161 1.12550 1.08584
 C286 C 0.95476 1.13681 1.07366
 C287 C 0.94857 1.15749 1.07965
 H288 H 0.95637 1.16519 1.09319
 O289 O 0.89332 1.07846 1.02234
 O290 O 0.86879 1.10379 1.02210
 C291 C 0.87608 1.08647 1.02963
 C292 C 0.86465 1.07580 1.04734
 C293 C 0.84507 1.08384 1.05484
 H294 H 0.83782 1.09733 1.04683
 O295 O 1.10633 0.92525 1.02427
 O296 O 1.13136 0.90043 1.02458
 C297 C 1.12363 0.91782 1.03184
 C298 C 1.13446 0.92924 1.04971
 C299 C 1.15402 0.92176 1.05783
 H300 H 1.16137 0.90775 1.05067
 O301 O 0.97897 0.92551 1.10845
 O302 O 0.97878 0.90152 1.13424
 C303 C 0.97169 0.91874 1.12622
 C304 C 0.95452 0.93083 1.13742
 C305 C 0.94838 0.92540 1.15846
 H306 H 0.95700 0.91299 1.16685
 O307 O 1.01948 1.07906 1.10992
 O308 O 1.01904 1.10430 1.13483
 C309 C 1.02639 1.08678 1.12757
 C310 C 1.04349 1.07546 1.13943
 C311 C 1.05031 1.08271 1.15977
 H312 H 1.04279 1.09665 1.16685
 O313 O 0.89210 0.98165 1.07878
 O314 O 0.86737 0.98195 1.10412
 C315 C 0.87489 0.97439 1.08660
 C316 C 0.86396 0.95646 1.07564
 C317 C 0.84445 0.94878 1.08352
 H318 H 0.83670 0.95690 1.09689
 O319 O 1.10412 1.02290 1.08128
 O320 O 1.12907 1.02327 1.10639
 C321 C 1.12146 1.03026 1.08875
 C322 C 1.13274 1.04723 1.07688
 C323 C 1.15286 1.05423 1.08376
 H324 H 1.16005 1.04720 1.09793
 O325 O 0.92206 0.89406 1.02389
 O326 O 0.89744 0.86916 1.02411
 C327 C 0.91472 0.87685 1.03143
 C328 C 0.92618 0.86607 1.04925
 C329 C 0.91890 0.84662 1.05746
 H330 H 0.90492 0.83924 1.05046
 O331 O 1.07559 1.10567 1.02180
 O332 O 1.10026 1.13051 1.02138
 C333 C 1.08305 1.12309 1.02899
 C334 C 1.07219 1.13448 1.04694
 C335 C 1.08038 1.15380 1.05461
 H336 H 1.09377 1.16096 1.04641
 Cu337 Cu 1.08751 1.00218 1.09379
 Cu338 Cu 1.11734 1.00255 1.12405
 Cu339 Cu 0.90926 1.00266 1.09067
 Cu340 Cu 0.87965 1.00294 1.12116
 Cu341 Cu 0.99915 1.09096 1.09198
 Cu342 Cu 0.99872 1.12145 1.12168
 Cu343 Cu 0.99981 0.91247 1.09181
 Cu344 Cu 0.99957 0.88349 1.12260
 C345 C 1.05381 1.05790 1.12989
 H346 H 1.04890 1.05253 1.11400
 C347 C 1.06713 1.07249 1.17071
 C348 C 0.94375 0.94746 1.12689
 H349 H 0.94835 0.95170 1.11063
 C350 C 0.93132 0.93599 1.16878
 C351 C 1.05462 1.12551 1.05748
 H352 H 1.04842 1.11044 1.05176
 C353 C 1.07169 1.16395 1.07288
 C354 C 0.94389 0.87587 1.05892
 H355 H 0.94933 0.89106 1.05298
 C356 C 0.92916 0.83700 1.07514
 C357 C 1.12318 1.05685 1.05887
 H358 H 1.10751 1.05174 1.05368
 C359 C 1.16359 1.07051 1.07281
 C360 C 0.87370 0.94603 1.05805
 H361 H 0.88885 0.95171 1.05204
 C362 C 0.83495 0.93059 1.07437
 C363 C 0.94263 1.05878 1.12729
 H364 H 0.94870 1.05290 1.11198
 C365 C 0.92603 1.07461 1.16648
 C366 C 1.05477 0.94657 1.12920
 H367 H 1.04975 0.95174 1.11334
 C368 C 1.06818 0.93254 1.17004
 C369 C 1.12459 0.94690 1.05965
 H370 H 1.10927 0.95247 1.05378
 C371 C 1.16376 0.93172 1.07564
 C372 C 0.87371 1.05802 1.05744
 H373 H 0.88896 1.05193 1.05182
 C374 C 0.83471 1.07464 1.07254
 C375 C 0.94420 1.12665 1.05650
 H376 H 0.94869 1.11054 1.05204
 C377 C 0.93208 1.16815 1.06871
 C378 C 1.05624 0.87667 1.05956
 H379 H 1.05098 0.89227 1.05438
 C380 C 1.07041 0.83652 1.07336
 O381 O 1.07703 0.97832 0.89481
 O382 O 1.10164 0.97744 0.86934
 C383 C 1.08422 0.97070 0.87719
 C384 C 1.07231 0.95356 0.86609
 C385 C 1.07806 0.94673 0.84521
 H386 H 1.09083 0.95472 0.83680
 O387 O 0.92022 1.01966 0.89466
 O388 O 0.89533 1.01907 0.86948
 C389 C 0.91273 1.02641 0.87690
 C390 C 0.92405 1.04336 0.86505
 C391 C 0.91622 1.05060 0.84517
 H392 H 0.90258 1.04280 0.83794
 O393 O 0.97778 1.10373 0.92100
 O394 O 0.97763 1.12827 0.89575
 C395 C 0.97044 1.12099 0.91337
 C396 C 0.95300 1.13236 0.92487
 C397 C 0.94482 1.15169 0.91699
 H398 H 0.95155 1.15856 0.90255
 O399 O 1.02030 0.89473 0.92648
 O400 O 1.02062 0.86952 0.90151
 C401 C 1.02768 0.87729 0.91909
 C402 C 1.04488 0.86612 0.93090
 C403 C 1.05124 0.84553 0.92472
 H404 H 1.04338 0.83777 0.91126
 O405 O 1.10696 0.92367 0.98201
 O406 O 1.13192 0.89877 0.98219
 C407 C 1.12424 0.91586 0.97452
 C408 C 1.13512 0.92647 0.95632
 C409 C 1.15433 0.91823 0.94783
 H410 H 1.16143 0.90417 0.95491
 O411 O 0.89272 1.07751 0.98028
 O412 O 0.86806 1.10272 0.98011
 C413 C 0.87531 1.08508 0.97300
 C414 C 0.86371 1.07359 0.95567
 C415 C 0.84381 1.08103 0.94843
 H416 H 0.83639 1.09448 0.95656
 O417 O 1.01952 1.07423 0.89147
 O418 O 1.01951 1.09866 0.86613
 C419 C 1.02700 1.08158 0.87399
 C420 C 1.04512 1.07046 0.86327
 C421 C 1.05362 1.07792 0.84372
 H422 H 1.04650 1.09167 0.83605
 O423 O 0.97853 0.92343 0.89672
 O424 O 0.97894 0.89837 0.87160
 C425 C 0.97145 0.91573 0.87914
 C426 C 0.95397 0.92676 0.86759
 C427 C 0.94762 0.91969 0.84708
 H428 H 0.95638 0.90686 0.83928
 O429 O 1.10664 1.01998 0.92338
 O430 O 1.13160 1.01929 0.89828
 C431 C 1.12402 1.02698 0.91572
 C432 C 1.13503 1.04458 0.92709
 C433 C 1.15463 1.05250 0.91961
 H434 H 1.16206 1.04541 0.90547
 O435 O 0.89114 0.97875 0.92480
 O436 O 0.86623 0.97811 0.89965
 C437 C 0.87394 0.97111 0.91721
 C438 C 0.86325 0.95343 0.92858
 C439 C 0.84409 0.94482 0.92062
 H440 H 0.83679 0.95150 0.90632
 O441 O 1.07574 1.10453 0.97943
 O442 O 1.10031 1.12946 0.97905
 C443 C 1.08311 1.12160 0.97164
 C444 C 1.07181 1.13206 0.95343
 C445 C 1.07925 1.15136 0.94496
 H446 H 1.09325 1.15873 0.95194
 O447 O 0.92203 0.89361 0.98176
 O448 O 0.89742 0.86870 0.98184
 C449 C 0.91467 0.87623 0.97440
 C450 C 0.92614 0.86513 0.95665
 C451 C 0.91892 0.84552 0.94844
 H452 H 0.90497 0.83819 0.95543
 O453 O 0.92067 0.97839 0.89564
 O454 O 0.89596 0.97766 0.87027
 C455 C 0.91343 0.97074 0.87810
 C456 C 0.92540 0.95342 0.86704
 C457 C 0.91909 0.94593 0.84658
 H458 H 0.90537 0.95298 0.83867
 O459 O 1.07711 1.01960 0.89412
 O460 O 1.10196 1.01879 0.86889
 C461 C 1.08457 1.02631 0.87638
 C462 C 1.07325 1.04339 0.86460
 C463 C 1.08131 1.05083 0.84496
 H464 H 1.09517 1.04313 0.83785
 O465 O 0.97867 0.89400 0.92576
 O466 O 0.97913 0.86893 0.90065
 C467 C 0.97165 0.87657 0.91812
 C468 C 0.95418 0.86537 0.92926
 C469 C 0.94694 0.84570 0.92145
 H470 H 0.95510 0.83815 0.90798
 O471 O 1.01933 1.10276 0.92179
 O472 O 1.01925 1.12736 0.89661
 C473 C 1.02654 1.11999 0.91424
 C474 C 1.04401 1.13127 0.92565
 C475 C 1.05138 1.15074 0.91782
 H476 H 1.04327 1.15805 0.90431
 O477 O 0.89274 0.92287 0.98164
 O478 O 0.86800 0.89809 0.98187
 C479 C 0.87539 0.91531 0.97438
 C480 C 0.86403 0.92625 0.95660
 C481 C 0.84475 0.91811 0.94861
 H482 H 0.83758 0.90458 0.95644
 O483 O 1.10566 1.07582 0.98020
 O484 O 1.13027 1.10073 0.98007
 C485 C 1.12301 1.08326 0.97288
 C486 C 1.13449 1.07192 0.95532
 C487 C 1.15416 1.07942 0.94784
 H488 H 1.16158 1.09277 0.95599
 O489 O 1.02021 0.92299 0.89623
 O490 O 1.02044 0.89785 0.87119
 C491 C 1.02751 0.91528 0.87867
 C492 C 1.04457 0.92649 0.86693
 C493 C 1.05070 0.91971 0.84619
 H494 H 1.04275 0.90624 0.83882
 O495 O 0.97762 1.07393 0.89196
 O496 O 0.97747 1.09836 0.86662
 C497 C 0.97006 1.08131 0.87450
 C498 C 0.95201 1.07027 0.86377
 C499 C 0.94365 1.07759 0.84406
 H500 H 0.95075 1.09125 0.83640
 O501 O 0.89110 1.02042 0.92438
 O502 O 0.86606 1.01999 0.89937
 C503 C 0.87374 1.02770 0.91673
 C504 C 0.86287 1.04567 0.92797
 C505 C 0.84311 1.05361 0.92068
 H506 H 0.83553 1.04630 0.90680
 O507 O 1.10634 0.97854 0.92434
 O508 O 1.13112 0.97771 0.89905
 C509 C 1.12364 0.97093 0.91675
 C510 C 1.13481 0.95355 0.92825
 C511 C 1.15419 0.94538 0.92029
 H512 H 1.16160 0.95286 0.90653
 O513 O 1.07712 0.89543 0.98278
 O514 O 1.10190 0.87033 0.98292
 C515 C 1.08442 0.87783 0.97570
 C516 C 1.07261 0.86631 0.95862
 C517 C 1.07863 0.84561 0.95238
 H518 H 1.09153 0.83765 0.96080
 O519 O 0.92272 1.10562 0.97941
 O520 O 0.89809 1.13086 0.97912
 C521 C 0.91527 1.12278 0.97172
 C522 C 0.92625 1.13319 0.95356
 C523 C 0.91849 1.15255 0.94562
 H524 H 0.90527 1.16044 0.95372
 Cu525 Cu 1.08933 0.99920 0.91172
 Cu526 Cu 1.11911 0.99819 0.88137
 Cu527 Cu 0.90819 0.99938 0.91245
 Cu528 Cu 0.87834 0.99866 0.88222
 Cu529 Cu 1.08804 1.08819 1.00096
 Cu530 Cu 1.11758 1.11806 1.00064
 Cu531 Cu 1.08965 0.91253 1.00341
 Cu532 Cu 1.11959 0.88261 1.00364
 Cu533 Cu 0.91033 1.08973 1.00098
 Cu534 Cu 0.88082 1.12011 1.00060
 Cu535 Cu 0.90997 0.91095 1.00272
 Cu536 Cu 0.88027 0.88119 1.00298
 Cu537 Cu 0.99854 1.08614 0.90899
 Cu538 Cu 0.99849 1.11558 0.87871
 Cu539 Cu 0.99941 0.91131 0.91383
 Cu540 Cu 0.99984 0.88115 0.88371
 C541 C 1.05535 0.94351 0.87668
 H542 H 1.05090 0.94856 0.89284
 C543 C 1.06730 0.92980 0.83509
 C544 C 0.94211 1.05310 0.87406
 H545 H 0.94811 1.04767 0.88948
 C546 C 0.92569 1.06786 0.83460
 C547 C 0.94366 1.12329 0.94325
 H548 H 0.94956 1.10820 0.94918
 C549 C 0.92746 1.16182 0.92724
 C550 C 1.05554 0.87632 0.94796
 H551 H 1.05091 0.89235 0.95256
 C552 C 1.06801 0.83507 0.93544
 C553 C 1.12555 0.94418 0.94645
 H554 H 1.11049 0.95030 0.95254
 C555 C 1.16399 0.92754 0.92973
 C556 C 0.87296 1.05575 0.94553
 H557 H 0.88840 1.05006 0.95096
 C558 C 0.83341 1.07133 0.93084
 C559 C 1.05501 1.05312 0.87348
 H560 H 1.04888 1.04756 0.88877
 C561 C 1.07181 1.06823 0.83448
 C562 C 0.94293 0.94378 0.87735
 H563 H 0.94768 0.94918 0.89328
 C564 C 0.93015 0.92904 0.83648
 C565 C 1.12521 1.05435 0.94503
 H566 H 1.10990 1.04866 0.95063
 C567 C 1.16430 1.07001 0.92988
 C568 C 0.87301 0.94407 0.94665
 H569 H 0.88802 0.95027 0.95258
 C570 C 0.83476 0.92707 0.93047
 C571 C 1.05414 1.12217 0.94364
 H572 H 1.04861 1.10706 0.94967
 C573 C 1.06916 1.16082 0.92709
 C574 C 0.94385 0.87482 0.94700
 H575 H 0.94926 0.89011 0.95293
 C576 C 0.92923 0.83570 0.93076
 O577 O 0.98125 0.42659 0.38979
 O578 O 0.98227 0.40127 0.36496
 C579 C 0.97458 0.41866 0.37211
 C580 C 0.95724 0.42942 0.36012
 C581 C 0.95045 0.42164 0.34000
 H582 H 0.95896 0.40843 0.33258
 O583 O 1.02115 0.57860 0.39278
 O584 O 1.02153 0.60337 0.36778
 C585 C 1.02896 0.58620 0.37560
 C586 C 1.04735 0.57540 0.36504
 C587 C 1.05570 0.58330 0.34571
 H588 H 1.04772 0.59646 0.33785
 O589 O 0.89558 0.48079 0.41773
 O590 O 0.87063 0.48057 0.39259
 C591 C 0.87821 0.47351 0.41020
 C592 C 0.86690 0.45654 0.42202
 C593 C 0.84701 0.44912 0.41479
 H594 H 0.83994 0.45586 0.40040
 O595 O 1.10730 0.52357 0.42531
 O596 O 1.13298 0.52364 0.40095
 C597 C 1.12482 0.53085 0.41834
 C598 C 1.13553 0.54819 0.43032
 C599 C 1.15604 0.55471 0.42437
 H600 H 1.16409 0.54676 0.41107
 O601 O 0.92406 0.39882 0.47776
 O602 O 0.89938 0.37399 0.47712
 C603 C 0.91680 0.38155 0.47006
 C604 C 0.92850 0.37050 0.45237
 C605 C 0.92166 0.35062 0.44460
 H606 H 0.90780 0.34325 0.45174
 O607 O 1.07491 0.60995 0.48031
 O608 O 1.09953 0.63485 0.48055
 C609 C 1.08236 0.62715 0.47292
 C610 C 1.07109 0.63793 0.45496
 C611 C 1.07784 0.65785 0.44749
 H612 H 1.09093 0.66586 0.45551
 O613 O 0.92411 0.52250 0.38852
 O614 O 0.89931 0.52257 0.36324
 C615 C 0.91653 0.52993 0.37109
 C616 C 0.92766 0.54767 0.36032
 C617 C 0.92010 0.55604 0.34072
 H618 H 0.90612 0.54919 0.33316
 O619 O 1.07925 0.48244 0.39433
 O620 O 1.10458 0.48265 0.36960
 C621 C 1.08706 0.47542 0.37674
 C622 C 1.07576 0.45850 0.36471
 C623 C 1.08253 0.45222 0.34403
 H624 H 1.09625 0.45987 0.33691
 O625 O 1.02239 0.39847 0.42116
 O626 O 1.02320 0.37320 0.39628
 C627 C 1.02985 0.38094 0.41400
 C628 C 1.04662 0.36954 0.42619
 C629 C 1.05338 0.34924 0.41948
 H630 H 1.04610 0.34191 0.40544
 O631 O 0.97815 0.60760 0.42090
 O632 O 0.97826 0.63247 0.39599
 C633 C 0.97069 0.62483 0.41329
 C634 C 0.95271 0.63565 0.42453
 C635 C 0.94459 0.65527 0.41727
 H636 H 0.95177 0.66288 0.40345
 O637 O 0.89292 0.57727 0.47711
 O638 O 0.86742 0.60162 0.47675
 C639 C 0.87544 0.58437 0.46952
 C640 C 0.86466 0.57269 0.45177
 C641 C 0.84398 0.57851 0.44504
 H642 H 0.83547 0.59110 0.45350
 O643 O 1.10630 0.42613 0.48026
 O644 O 1.13122 0.40119 0.48085
 C645 C 1.12382 0.41843 0.47325
 C646 C 1.13550 0.42941 0.45580
 C647 C 1.15541 0.42173 0.44868
 H648 H 1.16224 0.40774 0.45617
 O649 O 0.97942 0.57859 0.39093
 O650 O 0.97981 0.60338 0.36596
 C651 C 0.97252 0.58606 0.37322
 C652 C 0.95528 0.57493 0.36137
 C653 C 0.94774 0.58285 0.34164
 H654 H 0.95559 0.59633 0.33442
 O655 O 1.02280 0.42758 0.39171
 O656 O 1.02378 0.40243 0.36669
 C657 C 1.03057 0.41994 0.37436
 C658 C 1.04800 0.43143 0.36340
 C659 C 1.05475 0.42556 0.34255
 H660 H 1.04640 0.41307 0.33396
 O661 O 1.10835 0.48204 0.42402
 O662 O 1.13386 0.48203 0.39949
 C663 C 1.12590 0.47466 0.41673
 C664 C 1.13670 0.45694 0.42820
 C665 C 1.15676 0.44915 0.42141
 H666 H 1.16495 0.45685 0.40824
 O667 O 0.89531 0.52203 0.41840
 O668 O 0.87028 0.52193 0.39334
 C669 C 0.87772 0.52903 0.41107
 C670 C 0.86593 0.54573 0.42316
 C671 C 0.84535 0.55178 0.41666
 H672 H 0.83813 0.54409 0.40279
 O673 O 0.92174 0.60667 0.47743
 O674 O 0.89630 0.63109 0.47700
 C675 C 0.91392 0.62377 0.46991
 C676 C 0.92508 0.63500 0.45236
 C677 C 0.91731 0.65460 0.44501
 H678 H 0.90377 0.66199 0.45305
 O679 O 1.07690 0.39739 0.48001
 O680 O 1.10171 0.37234 0.48042
 C681 C 1.08447 0.37996 0.47278
 C682 C 1.07332 0.36888 0.45491
 C683 C 1.07990 0.34852 0.44796
 H684 H 1.09273 0.34041 0.45633
 O685 O 1.07941 0.52386 0.39452
 O686 O 1.10494 0.52417 0.37002
 C687 C 1.08732 0.53135 0.37730
 C688 C 1.07608 0.54886 0.36595
 C689 C 1.08438 0.55726 0.34674
 H690 H 1.09901 0.55072 0.34004
 O691 O 0.92455 0.48102 0.38793
 O692 O 0.89982 0.48081 0.36260
 C693 C 0.91721 0.47366 0.37030
 C694 C 0.92892 0.45622 0.35918
 C695 C 0.92204 0.44803 0.33918
 H696 H 0.90806 0.45481 0.33150
 O697 O 1.01980 0.60815 0.42208
 O698 O 1.01989 0.63300 0.39714
 C699 C 1.02690 0.62558 0.41481
 C700 C 1.04385 0.63709 0.42669
 C701 C 1.05084 0.65696 0.41946
 H702 H 1.04347 0.66399 0.40537
 O703 O 0.98084 0.39923 0.42087
 O704 O 0.98167 0.37383 0.39612
 C705 C 0.97397 0.38170 0.41347
 C706 C 0.95653 0.37060 0.42487
 C707 C 0.94975 0.35056 0.41768
 H708 H 0.95817 0.34277 0.40453
 O709 O 1.10473 0.58113 0.48132
 O710 O 1.12955 0.60584 0.48170
 C711 C 1.12236 0.58834 0.47447
 C712 C 1.13436 0.57637 0.45767
 C713 C 1.15503 0.58255 0.45163
 H714 H 1.16261 0.59570 0.45995
 O715 O 0.89418 0.42746 0.47714
 O716 O 0.86939 0.40272 0.47679
 C717 C 0.87700 0.41987 0.46943
 C718 C 0.86614 0.43066 0.45124
 C719 C 0.84613 0.42363 0.44392
 H720 H 0.83807 0.41108 0.45251
 Cu721 Cu 1.00175 0.41555 0.40833
 Cu722 Cu 1.00284 0.38512 0.37854
 Cu723 Cu 0.99956 0.59075 0.40916
 Cu724 Cu 0.99992 0.62050 0.37918
 Cu725 Cu 0.91245 0.50156 0.40557
 Cu726 Cu 0.88252 0.50148 0.37537
 Cu727 Cu 1.09106 0.50293 0.41201
 Cu728 Cu 1.12168 0.50314 0.38257
 C729 C 0.94660 0.44687 0.36939
 H730 H 0.95172 0.45279 0.38501
 C731 C 0.93275 0.43068 0.32941
 C732 C 1.05750 0.55801 0.37492
 H733 H 1.05126 0.55196 0.38996
 C734 C 1.07434 0.57455 0.33653
 C735 C 0.87626 0.44728 0.44033
 H736 H 0.89176 0.45265 0.44578
 C737 C 0.83641 0.43270 0.42567
 C738 C 1.12487 0.55900 0.44710
 H739 H 1.10887 0.55425 0.45152
 C740 C 1.16604 0.57176 0.43500
 C741 C 0.94600 0.38032 0.44242
 H742 H 0.95109 0.39586 0.44797
 C743 C 0.93220 0.34049 0.42724
 C744 C 1.05392 0.62780 0.44456
 H745 H 1.04879 0.61232 0.45000
 C746 C 1.06776 0.66752 0.42974
 C747 C 0.94533 0.55719 0.37041
 H748 H 0.95096 0.55116 0.38574
 C749 C 0.93002 0.57371 0.33126
 C750 C 1.05842 0.44810 0.37419
 H751 H 1.05337 0.45264 0.39032
 C752 C 1.07202 0.43592 0.33266
 C753 C 1.05651 0.37914 0.44405
 H754 H 1.05151 0.39494 0.44910
 C755 C 1.06992 0.33855 0.43027
 C756 C 0.94289 0.62575 0.44218
 H757 H 0.94878 0.61048 0.44767
 C758 C 0.92680 0.66481 0.42742
 C759 C 0.87539 0.55612 0.44085
 H760 H 0.89140 0.55168 0.44576
 C761 C 0.83417 0.56803 0.42755
 C762 C 1.12638 0.44709 0.44556
 H763 H 1.11086 0.45286 0.45078
 C764 C 1.16632 0.43152 0.43161
 O765 O 1.01987 0.42597 0.60870
 O766 O 1.01993 0.40107 0.63357
 C767 C 1.02736 0.41827 0.62605
 C768 C 1.04519 0.42928 0.63719
 C769 C 1.05406 0.42111 0.65631
 H770 H 1.04762 0.40671 0.66314
 O771 O 0.97659 0.58147 0.60855
 O772 O 0.97594 0.60667 0.63350
 C773 C 0.96904 0.58916 0.62600
 C774 C 0.95164 0.57796 0.63730
 C775 C 0.94392 0.58556 0.65720
 H776 H 0.95166 0.59897 0.66489
 O777 O 0.89312 0.52442 0.57831
 O778 O 0.86759 0.52447 0.60284
 C779 C 0.87538 0.53149 0.58537
 C780 C 0.86397 0.54825 0.57322
 C781 C 0.84377 0.55563 0.57991
 H782 H 0.83636 0.54887 0.59407
 O783 O 1.10367 0.48347 0.57925
 O784 O 1.12862 0.48385 0.60438
 C785 C 1.12125 0.47653 0.58673
 C786 C 1.13291 0.45934 0.57514
 C787 C 1.15326 0.45283 0.58205
 H788 H 1.16093 0.46132 0.59518
 O789 O 1.07621 0.39773 0.52214
 O790 O 1.10113 0.37279 0.52253
 C791 C 1.08361 0.38040 0.52958
 C792 C 1.07192 0.36907 0.54677
 C793 C 1.07880 0.34889 0.55342
 H794 H 1.09271 0.34173 0.54586
 O795 O 0.92125 0.60716 0.51961
 O796 O 0.89592 0.63169 0.51907
 C797 C 0.91334 0.62450 0.52674
 C798 C 0.92419 0.63617 0.54448
 C799 C 0.91672 0.65628 0.55111
 H800 H 0.90367 0.66369 0.54243
 O801 O 0.92259 0.48363 0.60839
 O802 O 0.89728 0.48368 0.63314
 C803 C 0.91488 0.47649 0.62582
 C804 C 0.92632 0.45939 0.63746
 C805 C 0.91947 0.45304 0.65795
 H806 H 0.90575 0.46086 0.66520
 O807 O 1.07340 0.52453 0.60911
 O808 O 1.09829 0.52483 0.63430
 C809 C 1.08086 0.53199 0.62665
 C810 C 1.06967 0.54975 0.63782
 C811 C 1.07742 0.55761 0.65752
 H812 H 1.09074 0.54964 0.66524
 O813 O 0.97762 0.39790 0.57899
 O814 O 0.97715 0.37301 0.60385
 C815 C 0.96998 0.38076 0.58636
 C816 C 0.95233 0.37008 0.57459
 C817 C 0.94373 0.35087 0.58210
 H818 H 0.95020 0.34366 0.59654
 O819 O 1.01801 0.61062 0.57911
 O820 O 1.01717 0.63596 0.60391
 C821 C 1.02481 0.62821 0.58655
 C822 C 1.04209 0.63950 0.57511
 C823 C 1.04893 0.65958 0.58228
 H824 H 1.04131 0.66692 0.59617
 O825 O 0.89384 0.42812 0.51945
 O826 O 0.86901 0.40343 0.51901
 C827 C 0.87643 0.42071 0.52661
 C828 C 0.86516 0.43198 0.54444
 C829 C 0.84495 0.42526 0.55140
 H830 H 0.83703 0.41245 0.54287
 O831 O 1.10328 0.58137 0.52324
 O832 O 1.12814 0.60605 0.52370
 C833 C 1.12053 0.58878 0.53088
 C834 C 1.13160 0.57729 0.54848
 C835 C 1.15205 0.58347 0.55531
 H836 H 1.16010 0.59621 0.54701
 O837 O 1.01816 0.58161 0.60860
 O838 O 1.01769 0.60679 0.63358
 C839 C 1.02524 0.58938 0.62615
 C840 C 1.04276 0.57813 0.63759
 C841 C 1.05094 0.58594 0.65727
 H842 H 1.04417 0.60021 0.66447
 O843 O 0.97827 0.42686 0.60900
 O844 O 0.97806 0.40223 0.63413
 C845 C 0.97103 0.41970 0.62664
 C846 C 0.95384 0.43164 0.63806
 C847 C 0.94695 0.42569 0.65876
 H848 H 0.95505 0.41282 0.66698
 O849 O 1.10298 0.52500 0.57989
 O850 O 1.12791 0.52523 0.60503
 C851 C 1.12025 0.53243 0.58754
 C852 C 1.13139 0.54979 0.57616
 C853 C 1.15171 0.55641 0.58296
 H854 H 1.15918 0.54871 0.59662
 O855 O 0.89396 0.48313 0.57824
 O856 O 0.86849 0.48310 0.60282
 C857 C 0.87647 0.47587 0.58535
 C858 C 0.86542 0.45872 0.57332
 C859 C 0.84536 0.45163 0.58015
 H860 H 0.83804 0.45878 0.59431
 O861 O 1.07433 0.61094 0.52245
 O862 O 1.09897 0.63583 0.52283
 C863 C 1.08153 0.62837 0.52988
 C864 C 1.06975 0.63967 0.54731
 C865 C 1.07624 0.65986 0.55454
 H866 H 1.08930 0.66773 0.54648
 O867 O 0.92296 0.39866 0.52006
 O868 O 0.89820 0.37390 0.51937
 C869 C 0.91530 0.38143 0.52726
 C870 C 0.92589 0.37039 0.54549
 C871 C 0.91773 0.35112 0.55311
 H872 H 0.90450 0.34374 0.54474
 O873 O 1.07464 0.48283 0.60911
 O874 O 1.09955 0.48318 0.63426
 C875 C 1.08242 0.47554 0.62653
 C876 C 1.07190 0.45749 0.63748
 C877 C 1.08033 0.44927 0.65672
 H878 H 1.09379 0.45707 0.66427
 O879 O 0.92150 0.52518 0.60871
 O880 O 0.89612 0.52529 0.63338
 C881 C 0.91349 0.53265 0.62605
 C882 C 0.92430 0.55043 0.63737
 C883 C 0.91658 0.55844 0.65719
 H884 H 0.90270 0.55129 0.66452
 O885 O 0.97638 0.60944 0.57810
 O886 O 0.97541 0.63481 0.60286
 C887 C 0.96854 0.62676 0.58529
 C888 C 0.95100 0.63730 0.57321
 C889 C 0.94311 0.65732 0.57974
 H890 H 0.95003 0.66522 0.59365
 O891 O 1.01927 0.39707 0.57879
 O892 O 1.01906 0.37195 0.60342
 C893 C 1.02640 0.37955 0.58598
 C894 C 1.04386 0.36839 0.57419
 C895 C 1.05082 0.34801 0.58043
 H896 H 1.04257 0.33988 0.59329
 O897 O 1.10529 0.42689 0.52237
 O898 O 1.13034 0.40208 0.52298
 C899 C 1.12260 0.41953 0.53006
 C900 C 1.13351 0.43127 0.54764
 C901 C 1.15373 0.42477 0.55500
 H902 H 1.16144 0.41106 0.54763
 O903 O 0.89248 0.57773 0.51932
 O904 O 0.86710 0.60221 0.51882
 C905 C 0.87488 0.58514 0.52641
 C906 C 0.86370 0.57422 0.54413
 C907 C 0.84342 0.58118 0.55083
 H908 H 0.83544 0.59375 0.54203
 Cu909 Cu 0.99875 0.41441 0.59141
 Cu910 Cu 0.99850 0.38455 0.62123
 Cu911 Cu 0.99738 0.59327 0.59111
 Cu912 Cu 0.99647 0.62361 0.62095
 Cu913 Cu 0.91122 0.41575 0.49865
 Cu914 Cu 0.88154 0.38602 0.49802
 Cu915 Cu 1.08869 0.41453 0.50115
 Cu916 Cu 1.11860 0.38459 0.50179
 Cu917 Cu 0.90963 0.58973 0.49840
 Cu918 Cu 0.87915 0.61911 0.49787
 Cu919 Cu 1.08681 0.59342 0.50176
 Cu920 Cu 1.11650 0.62317 0.50223
 Cu921 Cu 0.91039 0.50413 0.59100
 Cu922 Cu 0.87984 0.50409 0.62056
 Cu923 Cu 1.08615 0.50391 0.59185
 Cu924 Cu 1.11603 0.50430 0.62206
 C925 C 1.05419 0.44753 0.62800
 H926 H 1.04775 0.45368 0.61305
 C927 C 1.07171 0.43095 0.66620
 C928 C 0.94191 0.56025 0.62768
 H929 H 0.94768 0.55447 0.61221
 C930 C 0.92629 0.57605 0.66725
 C931 C 0.87373 0.55758 0.55524
 H932 H 0.88948 0.55229 0.55024
 C933 C 0.83337 0.57214 0.56881
 C934 C 1.12330 0.44865 0.55774
 H935 H 1.10753 0.45349 0.55245
 C936 C 1.16379 0.43549 0.57218
 C937 C 1.05435 0.37863 0.55713
 H938 H 1.04922 0.39438 0.55231
 C939 C 1.06829 0.33806 0.57007
 C940 C 0.94149 0.62692 0.55548
 H941 H 0.94721 0.61133 0.55056
 C942 C 0.92597 0.66698 0.56876
 C943 C 0.94360 0.44872 0.62773
 H944 H 0.94867 0.45332 0.61172
 C945 C 0.92976 0.43637 0.66890
 C946 C 1.05218 0.55995 0.62811
 H947 H 1.04632 0.55408 0.61274
 C948 C 1.06840 0.57581 0.66727
 C949 C 0.94332 0.37963 0.55621
 H950 H 0.94954 0.39462 0.55053
 C951 C 0.92634 0.34130 0.57150
 C952 C 1.05250 0.62977 0.55753
 H953 H 1.04755 0.61412 0.55218
 C954 C 1.06595 0.66998 0.57206
 C955 C 0.87513 0.44890 0.55536
 H956 H 0.89079 0.45407 0.55023
 C957 C 0.83489 0.43501 0.56927
 C958 C 1.12153 0.56027 0.55885
 H959 H 1.10573 0.55546 0.55373
 C960 C 1.16230 0.57311 0.57254
 O961 O 0.48086 0.92591 0.38985
 O962 O 0.48129 0.90195 0.36364
 C963 C 0.47405 0.91915 0.37177
 C964 C 0.45733 0.93131 0.36031
 C965 C 0.45080 0.92521 0.33954
 H966 H 0.45822 0.91153 0.33183
 O967 O 0.52182 1.08065 0.39879
 O968 O 0.52209 1.10603 0.37442
 C969 C 0.52913 1.08836 0.38145
 C970 C 0.54598 1.07667 0.36934
 C971 C 0.55163 1.08305 0.34848
 H972 H 0.54379 1.09677 0.34149
 O973 O 0.39791 0.98165 0.42035
 O974 O 0.37292 0.98246 0.39527
 C975 C 0.38063 0.97458 0.41246
 C976 C 0.36956 0.95681 0.42319
 C977 C 0.34973 0.94974 0.41548
 H978 H 0.34251 0.95742 0.40167
 O979 O 0.60811 1.02137 0.42324
 O980 O 0.63268 1.02192 0.39775
 C981 C 0.62545 1.02864 0.41572
 C982 C 0.63705 1.04539 0.42778
 C983 C 0.65707 1.05238 0.42070
 H984 H 0.66416 1.04522 0.40642
 O985 O 0.42510 0.89311 0.47495
 O986 O 0.39998 0.86872 0.47380
 C987 C 0.41743 0.87616 0.46684
 C988 C 0.42867 0.86554 0.44866
 C989 C 0.42167 0.84593 0.44025
 H990 H 0.40810 0.83814 0.44748
 O991 O 0.58052 1.10521 0.48285
 O992 O 0.60524 1.13000 0.48398
 C993 C 0.58789 1.12284 0.47633
 C994 C 0.57627 1.13495 0.45950
 C995 C 0.58387 1.15472 0.45249
 H996 H 0.59836 1.16107 0.45948
 O997 O 0.42607 1.02477 0.39293
 O998 O 0.40116 1.02574 0.36779
 C999 C 0.41837 1.03285 0.37588
 C1000 C 0.42932 1.05102 0.36573
 C1001 C 0.42210 1.05933 0.34602
 H1002 H 0.40843 1.05222 0.33814
 O1003 O 0.57828 0.98144 0.39204
 O1004 O 0.60282 0.98199 0.36652
 C1005 C 0.58549 0.97475 0.37402
 C1006 C 0.57386 0.95799 0.36205
 C1007 C 0.57990 0.95205 0.34095
 H1008 H 0.59261 0.96051 0.33294
 O1009 O 0.52160 0.89559 0.41907
 O1010 O 0.52199 0.87135 0.39312
 C1011 C 0.52875 0.87828 0.41117
 C1012 C 0.54514 0.86620 0.42312
 C1013 C 0.55046 0.84531 0.41702
 H1014 H 0.54252 0.83804 0.40332
 O1015 O 0.47982 1.10960 0.42855
 O1016 O 0.47995 1.13518 0.40442
 C1017 C 0.47237 1.12705 0.42150
 C1018 C 0.45427 1.13748 0.43300
 C1019 C 0.44581 1.15706 0.42599
 H1020 H 0.45291 1.16494 0.41229
 O1021 O 0.39451 1.07636 0.48295
 O1022 O 0.36920 1.10091 0.48350
 C1023 C 0.37713 1.08385 0.47563
 C1024 C 0.36642 1.07285 0.45742
 C1025 C 0.34603 1.07930 0.45055
 H1026 H 0.33765 1.09179 0.45929
 O1027 O 0.60592 0.92188 0.47671
 O1028 O 0.63067 0.89678 0.47559
 C1029 C 0.62315 0.91436 0.46887
 C1030 C 0.63448 0.92613 0.45172
 C1031 C 0.65492 0.91964 0.44506
 H1032 H 0.66228 0.90588 0.45247
 O1033 O 0.48037 1.08181 0.39735
 O1034 O 0.48064 1.10733 0.37314
 C1035 C 0.47340 1.08978 0.37989
 C1036 C 0.45635 1.07877 0.36765
 C1037 C 0.44923 1.08660 0.34770
 H1038 H 0.45715 1.10015 0.34069
 O1039 O 0.52230 0.92544 0.39053
 O1040 O 0.52272 0.90138 0.36442
 C1041 C 0.52973 0.91848 0.37274
 C1042 C 0.54675 0.93032 0.36166
 C1043 C 0.55309 0.92446 0.34074
 H1044 H 0.54546 0.91111 0.33282
 O1045 O 0.60699 0.97988 0.42209
 O1046 O 0.63175 0.98029 0.39679
 C1047 C 0.62423 0.97256 0.41412
 C1048 C 0.63523 0.95460 0.42501
 C1049 C 0.65580 0.94792 0.41865
 H1050 H 0.66409 0.95644 0.40609
 O1051 O 0.39702 1.02300 0.42253
 O1052 O 0.37198 1.02382 0.39750
 C1053 C 0.37943 1.03029 0.41545
 C1054 C 0.36768 1.04673 0.42800
 C1055 C 0.34740 1.05354 0.42127
 H1056 H 0.34036 1.04656 0.40693
 O1057 O 0.42269 1.10632 0.48431
 O1058 O 0.39752 1.13100 0.48505
 C1059 C 0.41505 1.12385 0.47758
 C1060 C 0.42632 1.13575 0.46050
 C1061 C 0.41829 1.15540 0.45345
 H1062 H 0.40452 1.16235 0.46146
 O1063 O 0.57675 0.89291 0.47683
 O1064 O 0.60129 0.86759 0.47588
 C1065 C 0.58384 0.87550 0.46910
 C1066 C 0.57189 0.86470 0.45168
 C1067 C 0.57686 0.84372 0.44559
 H1068 H 0.58894 0.83500 0.45446
 O1069 O 0.57758 1.02282 0.39507
 O1070 O 0.60191 1.02344 0.36934
 C1071 C 0.58467 1.03058 0.37766
 C1072 C 0.57289 1.04833 0.36728
 C1073 C 0.57804 1.05475 0.34624
 H1074 H 0.59012 1.04606 0.33724
 O1075 O 0.42646 0.98329 0.39023
 O1076 O 0.40162 0.98420 0.36501
 C1077 C 0.41904 0.97671 0.37230
 C1078 C 0.43050 0.95964 0.36035
 C1079 C 0.42416 0.95339 0.33947
 H1080 H 0.41135 0.96189 0.33146
 O1081 O 0.52177 1.10966 0.42862
 O1082 O 0.52199 1.13524 0.40448
 C1083 C 0.52930 1.12702 0.42165
 C1084 C 0.54733 1.13724 0.43314
 C1085 C 0.55497 1.15714 0.42659
 H1086 H 0.54662 1.16569 0.41401
 O1087 O 0.48022 0.89566 0.41799
 O1088 O 0.48063 0.87160 0.39188
 C1089 C 0.47319 0.87857 0.40966
 C1090 C 0.45594 0.86691 0.42059
 C1091 C 0.44894 0.84726 0.41251
 H1092 H 0.45696 0.84015 0.39872
 O1093 O 0.60939 1.07539 0.48189
 O1094 O 0.63423 1.10004 0.48289
 C1095 C 0.62675 1.08298 0.47485
 C1096 C 0.63782 1.07202 0.45672
 C1097 C 0.65795 1.07873 0.44951
 H1098 H 0.66601 1.09151 0.45795
 O1099 O 0.39731 0.92374 0.47562
 O1100 O 0.37206 0.89947 0.47432
 C1101 C 0.37996 0.91683 0.46772
 C1102 C 0.36916 0.92878 0.45031
 C1103 C 0.34922 0.92215 0.44254
 H1104 H 0.34128 0.90891 0.45012
 Cu1105 Cu 0.50120 0.91308 0.40700
 Cu1106 Cu 0.50173 0.88415 0.37560
 Cu1107 Cu 0.50086 1.09298 0.41584
 Cu1108 Cu 0.50124 1.12358 0.38677
 Cu1109 Cu 0.41443 1.00307 0.40896
 Cu1110 Cu 0.38441 1.00416 0.37886
 Cu1111 Cu 0.59031 1.00130 0.41065
 Cu1112 Cu 0.61976 1.00200 0.38007
 C1113 C 0.44727 0.94867 0.37047
 H1114 H 0.45206 0.95321 0.38666
 C1115 C 0.43433 0.93620 0.32889
 C1116 C 0.55663 1.05922 0.37858
 H1117 H 0.55255 1.05440 0.39481
 C1118 C 0.56741 1.07207 0.33664
 C1119 C 0.37911 0.94629 0.44069
 H1120 H 0.39458 0.95140 0.44649
 C1121 C 0.33943 0.93244 0.42506
 C1122 C 0.62767 1.05517 0.44589
 H1123 H 0.61206 1.05005 0.45118
 C1124 C 0.66776 1.06894 0.43149
 C1125 C 0.44589 0.87577 0.43878
 H1126 H 0.45113 0.89105 0.44492
 C1127 C 0.43176 0.83665 0.42213
 C1128 C 0.55793 1.12643 0.44980
 H1129 H 0.55224 1.11100 0.45481
 C1130 C 0.57332 1.16602 0.43606
 C1131 C 0.44649 1.06080 0.37634
 H1132 H 0.45183 1.05475 0.39177
 C1133 C 0.43200 1.07709 0.33676
 C1134 C 0.55709 0.94720 0.37213
 H1135 H 0.55244 0.95156 0.38843
 C1136 C 0.56949 0.93532 0.33012
 C1137 C 0.55581 0.87571 0.44055
 H1138 H 0.55200 0.89197 0.44509
 C1139 C 0.56618 0.83385 0.42827
 C1140 C 0.44444 1.12706 0.45035
 H1141 H 0.45054 1.11178 0.45558
 C1142 C 0.42773 1.16612 0.43610
 C1143 C 0.37701 1.05636 0.44620
 H1144 H 0.39283 1.05142 0.45125
 C1145 C 0.33639 1.06972 0.43246
 C1146 C 0.62484 0.94370 0.44172
 H1147 H 0.60896 0.94864 0.44666
 C1148 C 0.66586 0.93053 0.42875
 O1149 O 0.52119 0.92053 0.60539
 O1150 O 0.52137 0.89546 0.63010
 C1151 C 0.52863 0.91279 0.62274
 C1152 C 0.54626 0.92380 0.63411
 C1153 C 0.55279 0.91726 0.65475
 H1154 H 0.54419 0.90472 0.66281
 O1155 O 0.47961 1.07271 0.61005
 O1156 O 0.47983 1.09678 0.63613
 C1157 C 0.47228 1.07989 0.62781
 C1158 C 0.45443 1.06871 0.63850
 C1159 C 0.44644 1.07581 0.65854
 H1160 H 0.45357 1.08949 0.66635
 O1161 O 0.39270 1.01840 0.57920
 O1162 O 0.36765 1.01745 0.60417
 C1163 C 0.37520 1.02535 0.58701
 C1164 C 0.36390 1.04316 0.57627
 C1165 C 0.34392 1.05041 0.58376
 H1166 H 0.33657 1.04267 0.59739
 O1167 O 0.60875 0.97642 0.57610
 O1168 O 0.63352 0.97523 0.60138
 C1169 C 0.62610 0.96880 0.58339
 C1170 C 0.63729 0.95188 0.57099
 C1171 C 0.65801 0.94524 0.57658
 H1172 H 0.66636 0.95334 0.58953
 O1173 O 0.57768 0.89227 0.51884
 O1174 O 0.60242 0.86715 0.51797
 C1175 C 0.58521 0.87479 0.52577
 C1176 C 0.57397 0.86357 0.54335
 C1177 C 0.58138 0.84380 0.55092
 H1178 H 0.59538 0.83649 0.54367
 O1179 O 0.42283 1.10437 0.52632
 O1180 O 0.39786 1.12925 0.52714
 C1181 C 0.41529 1.12150 0.53425
 C1182 C 0.42689 1.13223 0.55208
 C1183 C 0.42015 1.15216 0.56001
 H1184 H 0.40624 1.15975 0.55301
 O1185 O 0.42255 0.97632 0.60724
 O1186 O 0.39771 0.97556 0.63246
 C1187 C 0.41522 0.96871 0.62468
 C1188 C 0.42700 0.95142 0.63569
 C1189 C 0.42058 0.94432 0.65613
 H1190 H 0.40747 0.95226 0.66433
 O1191 O 0.57866 1.01648 0.60709
 O1192 O 0.60312 1.01535 0.63269
 C1193 C 0.58573 1.02283 0.62520
 C1194 C 0.57387 1.03940 0.63743
 C1195 C 0.58029 1.04513 0.65834
 H1196 H 0.59324 1.03647 0.66591
 O1197 O 0.47938 0.89195 0.57555
 O1198 O 0.47936 0.86676 0.60011
 C1199 C 0.47204 0.87460 0.58275
 C1200 C 0.45448 0.86386 0.57098
 C1201 C 0.44578 0.84476 0.57858
 H1202 H 0.45221 0.83760 0.59306
 O1203 O 0.52168 1.10159 0.58130
 O1204 O 0.52202 1.12577 0.60727
 C1205 C 0.52916 1.11857 0.58942
 C1206 C 0.54654 1.12990 0.57816
 C1207 C 0.55299 1.15009 0.58533
 H1208 H 0.54512 1.15741 0.59909
 O1209 O 0.39607 0.92222 0.51765
 O1210 O 0.37083 0.89796 0.51630
 C1211 C 0.37846 0.91490 0.52440
 C1212 C 0.36701 0.92573 0.54232
 C1213 C 0.34714 0.91819 0.54916
 H1214 H 0.33964 0.90533 0.54030
 O1215 O 0.60990 1.07489 0.52407
 O1216 O 0.63459 1.09971 0.52522
 C1217 C 0.62712 1.08225 0.53194
 C1218 C 0.63811 1.07070 0.54958
 C1219 C 0.65766 1.07793 0.55792
 H1220 H 0.66540 1.09133 0.55043
 O1221 O 0.52136 1.07207 0.61022
 O1222 O 0.52167 1.09606 0.63638
 C1223 C 0.52877 1.07889 0.62805
 C1224 C 0.54615 1.06692 0.63887
 C1225 C 0.55311 1.07273 0.65967
 H1226 H 0.54552 1.08598 0.66797
 O1227 O 0.47947 0.92063 0.60579
 O1228 O 0.47968 0.89554 0.63047
 C1229 C 0.47231 0.91295 0.62325
 C1230 C 0.45493 0.92415 0.63496
 C1231 C 0.44817 0.91711 0.65529
 H1232 H 0.45596 0.90349 0.66252
 O1233 O 0.60914 1.01790 0.57888
 O1234 O 0.63373 1.01677 0.60434
 C1235 C 0.62636 1.02485 0.58713
 C1236 C 0.63762 1.04278 0.57678
 C1237 C 0.65701 1.05044 0.58515
 H1238 H 0.66385 1.04301 0.59928
 O1239 O 0.39424 0.97690 0.57672
 O1240 O 0.36925 0.97582 0.60176
 C1241 C 0.37703 0.96916 0.58395
 C1242 C 0.36631 0.95195 0.57167
 C1243 C 0.34660 0.94385 0.57854
 H1244 H 0.33905 0.95039 0.59287
 O1245 O 0.57926 1.10270 0.52474
 O1246 O 0.60374 1.12774 0.52596
 C1247 C 0.58633 1.11987 0.53278
 C1248 C 0.57437 1.13056 0.55047
 C1249 C 0.58038 1.15084 0.55772
 H1250 H 0.59324 1.15903 0.54964
 O1251 O 0.42529 0.89290 0.51719
 O1252 O 0.40010 0.86859 0.51608
 C1253 C 0.41737 0.87569 0.52405
 C1254 C 0.42793 0.86432 0.54204
 C1255 C 0.41964 0.84513 0.54969
 H1256 H 0.40627 0.83790 0.54140
 O1257 O 0.57937 0.97517 0.60561
 O1258 O 0.60398 0.97404 0.63106
 C1259 C 0.58659 0.96733 0.62302
 C1260 C 0.57473 0.95021 0.63403
 C1261 C 0.58113 0.94330 0.65456
 H1262 H 0.59488 0.95049 0.66221
 O1263 O 0.42298 1.01763 0.60759
 O1264 O 0.39811 1.01697 0.63278
 C1265 C 0.41548 1.02440 0.62540
 C1266 C 0.42678 1.04145 0.63731
 C1267 C 0.41934 1.04847 0.65750
 H1268 H 0.40600 1.04043 0.66489
 O1269 O 0.47999 1.10277 0.58180
 O1270 O 0.48034 1.12697 0.60776
 C1271 C 0.47290 1.12000 0.59000
 C1272 C 0.45534 1.13163 0.57908
 C1273 C 0.44861 1.15171 0.58658
 H1274 H 0.45720 1.15928 0.59969
 O1275 O 0.52101 0.89192 0.57518
 O1276 O 0.52109 0.86670 0.59973
 C1277 C 0.52834 0.87447 0.58235
 C1278 C 0.54593 0.86344 0.57078
 C1279 C 0.55337 0.84364 0.57792
 H1280 H 0.54528 0.83589 0.59113
 O1281 O 0.60701 0.92110 0.51871
 O1282 O 0.63189 0.89612 0.51761
 C1283 C 0.62458 0.91344 0.52541
 C1284 C 0.63640 0.92467 0.54268
 C1285 C 0.65701 0.91807 0.54859
 H1286 H 0.66432 0.90465 0.54031
 O1287 O 0.39296 1.07603 0.52503
 O1288 O 0.36782 1.10075 0.52566
 C1289 C 0.37538 1.08326 0.53244
 C1290 C 0.36398 1.07145 0.54949
 C1291 C 0.34388 1.07834 0.55698
 H1292 H 0.33614 1.09177 0.54935
 Cu1293 Cu 0.50021 0.90878 0.58803
 Cu1294 Cu 0.50041 0.87858 0.61757
 Cu1295 Cu 0.50063 1.08486 0.59326
 Cu1296 Cu 0.50104 1.11380 0.62451
 Cu1297 Cu 0.41353 0.91036 0.49645
 Cu1298 Cu 0.38322 0.88124 0.49501
 Cu1299 Cu 0.58934 0.90953 0.49789
 Cu1300 Cu 0.61906 0.87938 0.49662
 Cu1301 Cu 0.41074 1.08830 0.50463
 Cu1302 Cu 0.38058 1.11795 0.50540
 Cu1303 Cu 0.59239 1.08702 0.50322
 Cu1304 Cu 0.62194 1.11684 0.50464
 Cu1305 Cu 0.41055 0.99737 0.59014
 Cu1306 Cu 0.38065 0.99636 0.62029
 Cu1307 Cu 0.59160 0.99658 0.58930
 Cu1308 Cu 0.62107 0.99521 0.61991
 C1309 C 0.55718 0.94046 0.62400
 H1310 H 0.55234 0.94551 0.60804
 C1311 C 0.57018 0.92697 0.66516
 C1312 C 0.44451 1.05148 0.62807
 H1313 H 0.45025 1.04621 0.61242
 C1314 C 0.42886 1.06579 0.66818
 C1315 C 0.37368 1.05371 0.55906
 H1316 H 0.38925 1.04845 0.55349
 C1317 C 0.33367 1.06798 0.57417
 C1318 C 0.62677 0.94167 0.55384
 H1319 H 0.61071 0.94658 0.54957
 C1320 C 0.66806 0.92835 0.56540
 C1321 C 0.55616 0.87317 0.55335
 H1322 H 0.55059 0.88858 0.54792
 C1323 C 0.57120 0.83375 0.56830
 C1324 C 0.44455 1.12217 0.56167
 H1325 H 0.44959 1.10663 0.55591
 C1326 C 0.43099 1.16214 0.57720
 C1327 C 0.44435 0.94141 0.62538
 H1328 H 0.44926 0.94668 0.60954
 C1329 C 0.43107 0.92716 0.66610
 C1330 C 0.55659 1.05018 0.62793
 H1331 H 0.55165 1.04591 0.61172
 C1332 C 0.57018 1.06189 0.66957
 C1333 C 0.44550 0.87340 0.55263
 H1334 H 0.45182 0.88834 0.54694
 C1335 C 0.42828 0.83528 0.56807
 C1336 C 0.55725 1.12030 0.56063
 H1337 H 0.55259 1.10457 0.55523
 C1338 C 0.56983 1.16074 0.57515
 C1339 C 0.37636 0.94280 0.55349
 H1340 H 0.39179 0.94857 0.54838
 C1341 C 0.33689 0.92691 0.56737
 C1342 C 0.62841 1.05297 0.55895
 H1343 H 0.61327 1.04742 0.55269
 C1344 C 0.66728 1.06800 0.57581
 O1345 O 0.48332 0.41831 0.88961
 O1346 O 0.48412 0.39316 0.86460
 C1347 C 0.47655 0.41059 0.87189
 C1348 C 0.45928 0.42172 0.86002
 C1349 C 0.45211 0.41388 0.84004
 H1350 H 0.46017 0.40035 0.83273
 O1351 O 0.52193 0.57498 0.89157
 O1352 O 0.52230 0.59983 0.86664
 C1353 C 0.52953 0.58250 0.87425
 C1354 C 0.54715 0.57105 0.86314
 C1355 C 0.55492 0.57807 0.84316
 H1356 H 0.54787 0.59200 0.83578
 O1357 O 0.39729 0.47531 0.91582
 O1358 O 0.37286 0.47522 0.89016
 C1359 C 0.37999 0.46820 0.90796
 C1360 C 0.36821 0.45140 0.91949
 C1361 C 0.34815 0.44468 0.91209
 H1362 H 0.34128 0.45193 0.89787
 O1363 O 0.60517 0.51802 0.92270
 O1364 O 0.63093 0.51838 0.89842
 C1365 C 0.62274 0.52536 0.91589
 C1366 C 0.63366 0.54229 0.92827
 C1367 C 0.65439 0.54848 0.92263
 H1368 H 0.66231 0.54079 0.90910
 O1369 O 0.42408 0.39174 0.97436
 O1370 O 0.39925 0.36706 0.97345
 C1371 C 0.41684 0.37443 0.96668
 C1372 C 0.42884 0.36293 0.94950
 C1373 C 0.42188 0.34301 0.94196
 H1374 H 0.40763 0.33611 0.94878
 O1375 O 0.57495 0.60398 0.98001
 O1376 O 0.60006 0.62839 0.98068
 C1377 C 0.58277 0.62115 0.97291
 C1378 C 0.57183 0.63243 0.95510
 C1379 C 0.57878 0.65251 0.94829
 H1380 H 0.59169 0.66028 0.95681
 O1381 O 0.42674 0.51665 0.88684
 O1382 O 0.40245 0.51651 0.86107
 C1383 C 0.41943 0.52400 0.86924
 C1384 C 0.43043 0.54195 0.85870
 C1385 C 0.42301 0.55013 0.83897
 H1386 H 0.40942 0.54287 0.83110
 O1387 O 0.57784 0.47631 0.89162
 O1388 O 0.60347 0.47675 0.86723
 C1389 C 0.58609 0.46916 0.87429
 C1390 C 0.57577 0.45136 0.86264
 C1391 C 0.58370 0.44430 0.84266
 H1392 H 0.59665 0.45283 0.83514
 O1393 O 0.52457 0.38964 0.92019
 O1394 O 0.52550 0.36433 0.89536
 C1395 C 0.53230 0.37225 0.91298
 C1396 C 0.54973 0.36156 0.92504
 C1397 C 0.55759 0.34149 0.91858
 H1398 H 0.55061 0.33347 0.90478
 O1399 O 0.47903 0.60344 0.92021
 O1400 O 0.47918 0.62850 0.89550
 C1401 C 0.47156 0.62070 0.91270
 C1402 C 0.45351 0.63140 0.92392
 C1403 C 0.44542 0.65100 0.91664
 H1404 H 0.45265 0.65854 0.90281
 O1405 O 0.39399 0.57200 0.97521
 O1406 O 0.36826 0.59610 0.97454
 C1407 C 0.37664 0.57902 0.96726
 C1408 C 0.36646 0.56757 0.94898
 C1409 C 0.34641 0.57410 0.94120
 H1410 H 0.33788 0.58688 0.94933
 O1411 O 0.60753 0.42130 0.97923
 O1412 O 0.63338 0.39732 0.97992
 C1413 C 0.62538 0.41431 0.97231
 C1414 C 0.63654 0.42581 0.95483
 C1415 C 0.65715 0.41964 0.94804
 H1416 H 0.66542 0.40696 0.95639
 O1417 O 0.48052 0.57433 0.89040
 O1418 O 0.48077 0.59924 0.86553
 C1419 C 0.47371 0.58174 0.87265
 C1420 C 0.45700 0.57018 0.86048
 C1421 C 0.44965 0.57788 0.84061
 H1422 H 0.45722 0.59163 0.83360
 O1423 O 0.52477 0.41839 0.89050
 O1424 O 0.52579 0.39331 0.86543
 C1425 C 0.53253 0.41084 0.87309
 C1426 C 0.54981 0.42253 0.86207
 C1427 C 0.55811 0.41550 0.84212
 H1428 H 0.55168 0.40138 0.83449
 O1429 O 0.60631 0.47662 0.92195
 O1430 O 0.63199 0.47710 0.89759
 C1431 C 0.62413 0.46973 0.91487
 C1432 C 0.63570 0.45280 0.92666
 C1433 C 0.65614 0.44628 0.91998
 H1434 H 0.66335 0.45377 0.90611
 O1435 O 0.39760 0.51660 0.91642
 O1436 O 0.37314 0.51650 0.89079
 C1437 C 0.38024 0.52372 0.90861
 C1438 C 0.36835 0.54074 0.92022
 C1439 C 0.34838 0.54763 0.91261
 H1440 H 0.34166 0.54035 0.89826
 O1441 O 0.42209 0.60203 0.97629
 O1442 O 0.39643 0.62621 0.97565
 C1443 C 0.41425 0.61914 0.96879
 C1444 C 0.42564 0.63061 0.95151
 C1445 C 0.41799 0.65031 0.94423
 H1446 H 0.40443 0.65766 0.95225
 O1447 O 0.57894 0.39173 0.97847
 O1448 O 0.60463 0.36758 0.97920
 C1449 C 0.58719 0.37454 0.97141
 C1450 C 0.57657 0.36281 0.95365
 C1451 C 0.58413 0.34275 0.94709
 H1452 H 0.59723 0.33542 0.95577
 O1453 O 0.57728 0.51792 0.89180
 O1454 O 0.60293 0.51828 0.86742
 C1455 C 0.58524 0.52535 0.87459
 C1456 C 0.57416 0.54286 0.86319
 C1457 C 0.58153 0.54989 0.84309
 H1458 H 0.59465 0.54156 0.83530
 O1459 O 0.42745 0.47489 0.88717
 O1460 O 0.40312 0.47467 0.86144
 C1461 C 0.42027 0.46732 0.86957
 C1462 C 0.43169 0.44939 0.85886
 C1463 C 0.42448 0.44106 0.83905
 H1464 H 0.41061 0.44806 0.83139
 O1465 O 0.52071 0.60385 0.92152
 O1466 O 0.52099 0.62887 0.89677
 C1467 C 0.52795 0.62126 0.91439
 C1468 C 0.54498 0.63244 0.92648
 C1469 C 0.55222 0.65240 0.91978
 H1470 H 0.54506 0.65977 0.90577
 O1471 O 0.48284 0.38992 0.91961
 O1472 O 0.48361 0.36458 0.89480
 C1473 C 0.47579 0.37251 0.91205
 C1474 C 0.45786 0.36181 0.92309
 C1475 C 0.45089 0.34174 0.91607
 H1476 H 0.45958 0.33353 0.90336
 O1477 O 0.60376 0.57415 0.98065
 O1478 O 0.62902 0.59841 0.98138
 C1479 C 0.62148 0.58118 0.97385
 C1480 C 0.63318 0.56942 0.95670
 C1481 C 0.65406 0.57521 0.95102
 H1482 H 0.66198 0.58774 0.95996
 O1483 O 0.39459 0.42094 0.97398
 O1484 O 0.36966 0.39635 0.97306
 C1485 C 0.37741 0.41359 0.96605
 C1486 C 0.36678 0.42488 0.94805
 C1487 C 0.34661 0.41849 0.94055
 H1488 H 0.33825 0.40591 0.94879
 Cu1489 Cu 0.50384 0.40654 0.90749
 Cu1490 Cu 0.50482 0.37627 0.87758
 Cu1491 Cu 0.50052 0.58670 0.90845
 Cu1492 Cu 0.50082 0.61666 0.87864
 Cu1493 Cu 0.41481 0.49585 0.90403
 Cu1494 Cu 0.38552 0.49571 0.87322
 Cu1495 Cu 0.58902 0.49718 0.90941
 Cu1496 Cu 0.61988 0.49769 0.88018
 C1497 C 0.44916 0.43965 0.86914
 H1498 H 0.45452 0.44566 0.88465
 C1499 C 0.43460 0.42329 0.82946
 C1500 C 0.55681 0.55337 0.87294
 H1501 H 0.55117 0.54812 0.88854
 C1502 C 0.57209 0.56755 0.83294
 C1503 C 0.37731 0.44153 0.93757
 H1504 H 0.39294 0.44640 0.94312
 C1505 C 0.33712 0.42832 0.92256
 C1506 C 0.62323 0.55275 0.94542
 H1507 H 0.60709 0.54827 0.94961
 C1508 C 0.66483 0.56481 0.93399
 C1509 C 0.44690 0.37214 0.94002
 H1510 H 0.45210 0.38769 0.94545
 C1511 C 0.43282 0.33221 0.92529
 C1512 C 0.55477 0.62268 0.94425
 H1513 H 0.54947 0.60713 0.94928
 C1514 C 0.56903 0.66267 0.93064
 C1515 C 0.44750 0.55203 0.86923
 H1516 H 0.45297 0.54615 0.88468
 C1517 C 0.43249 0.56817 0.82981
 C1518 C 0.55868 0.44055 0.87207
 H1519 H 0.55266 0.44584 0.88762
 C1520 C 0.57513 0.42631 0.83231
 C1521 C 0.55925 0.37198 0.94269
 H1522 H 0.55352 0.38758 0.94757
 C1523 C 0.57482 0.33195 0.92955
 C1524 C 0.44355 0.62142 0.94144
 H1525 H 0.44939 0.60611 0.94687
 C1526 C 0.42761 0.66059 0.92669
 C1527 C 0.37721 0.55071 0.93851
 H1528 H 0.39277 0.54571 0.94426
 C1529 C 0.33725 0.56426 0.92299
 C1530 C 0.62611 0.44258 0.94418
 H1531 H 0.61019 0.44733 0.94917
 C1532 C 0.66715 0.42986 0.93062
 O1533 O 0.51881 0.41899 1.10583
 O1534 O 0.51847 0.39402 1.13062
 C1535 C 0.52569 0.41146 1.12350
 C1536 C 0.54252 0.42295 1.13559
 C1537 C 0.54983 0.41548 1.15559
 H1538 H 0.54296 0.40120 1.16224
 O1539 O 0.47522 0.57519 1.10601
 O1540 O 0.47409 0.60003 1.13133
 C1541 C 0.46740 0.58256 1.12345
 C1542 C 0.45021 0.57080 1.13457
 C1543 C 0.44316 0.57739 1.15505
 H1544 H 0.45037 0.59118 1.16259
 O1545 O 0.39241 0.51715 1.07489
 O1546 O 0.36691 0.51710 1.09944
 C1547 C 0.37473 0.52427 1.08202
 C1548 C 0.36341 0.54130 1.07010
 C1549 C 0.34306 0.54830 1.07668
 H1550 H 0.33558 0.54106 1.09054
 O1551 O 0.60157 0.47754 1.07955
 O1552 O 0.62616 0.47784 1.10506
 C1553 C 0.61913 0.47073 1.08718
 C1554 C 0.63139 0.45417 1.07539
 C1555 C 0.65200 0.44853 1.08222
 H1556 H 0.65924 0.45714 1.09551
 O1557 O 0.57784 0.39178 1.02049
 O1558 O 0.60360 0.36771 1.02126
 C1559 C 0.58570 0.37470 1.02804
 C1560 C 0.57419 0.36317 1.04526
 C1561 C 0.58189 0.34353 1.05268
 H1562 H 0.59558 0.33628 1.04482
 O1563 O 0.42098 0.60215 1.01837
 O1564 O 0.39537 0.62637 1.01767
 C1565 C 0.41280 0.61938 1.02547
 C1566 C 0.42343 0.63110 1.04330
 C1567 C 0.41580 0.65112 1.05006
 H1568 H 0.40275 0.65849 1.04135
 O1569 O 0.42168 0.47595 1.10479
 O1570 O 0.39630 0.47583 1.12946
 C1571 C 0.41386 0.46857 1.12207
 C1572 C 0.42486 0.45084 1.13323
 C1573 C 0.41694 0.44323 1.15286
 H1574 H 0.40362 0.45135 1.16051
 O1575 O 0.57111 0.51849 1.10929
 O1576 O 0.59566 0.51862 1.13482
 C1577 C 0.57837 0.52585 1.12695
 C1578 C 0.56711 0.54359 1.13803
 C1579 C 0.57453 0.55124 1.15794
 H1580 H 0.58764 0.54312 1.16587
 O1581 O 0.47827 0.39010 1.07459
 O1582 O 0.47773 0.36501 1.09925
 C1583 C 0.47072 0.37283 1.08174
 C1584 C 0.45312 0.36221 1.06991
 C1585 C 0.44433 0.34321 1.07763
 H1586 H 0.45081 0.33604 1.09207
 O1587 O 0.51724 0.60490 1.07819
 O1588 O 0.51620 0.62997 1.10326
 C1589 C 0.52415 0.62229 1.08598
 C1590 C 0.54203 0.63321 1.07502
 C1591 C 0.55012 0.65260 1.08297
 H1592 H 0.54293 0.66000 1.09707
 O1593 O 0.39378 0.42089 1.01632
 O1594 O 0.36892 0.39625 1.01531
 C1595 C 0.37631 0.41338 1.02325
 C1596 C 0.36487 0.42419 1.04127
 C1597 C 0.34524 0.41635 1.04859
 H1598 H 0.33785 0.40328 1.03999
 O1599 O 0.60261 0.57434 1.02274
 O1600 O 0.62791 0.59857 1.02342
 C1601 C 0.61994 0.58145 1.03052
 C1602 C 0.63065 0.56996 1.04832
 C1603 C 0.65107 0.57601 1.05530
 H1604 H 0.65941 0.58847 1.04685
 O1605 O 0.51665 0.57607 1.10782
 O1606 O 0.51572 0.60096 1.13308
 C1607 C 0.52334 0.58361 1.12565
 C1608 C 0.54048 0.57216 1.13742
 C1609 C 0.54829 0.57977 1.15734
 H1610 H 0.54148 0.59404 1.16450
 O1611 O 0.47729 0.41873 1.10481
 O1612 O 0.47681 0.39379 1.12962
 C1613 C 0.46960 0.41116 1.12208
 C1614 C 0.45183 0.42253 1.13316
 C1615 C 0.44342 0.41493 1.15268
 H1616 H 0.45015 0.40073 1.15984
 O1617 O 0.60093 0.51885 1.08034
 O1618 O 0.62554 0.51902 1.10582
 C1619 C 0.61818 0.52614 1.08815
 C1620 C 0.62968 0.54316 1.07665
 C1621 C 0.64999 0.54964 1.08359
 H1622 H 0.65720 0.54216 1.09751
 O1623 O 0.39246 0.47566 1.07520
 O1624 O 0.36698 0.47551 1.09976
 C1625 C 0.37501 0.46824 1.08234
 C1626 C 0.36429 0.45069 1.07041
 C1627 C 0.34481 0.44232 1.07773
 H1628 H 0.33747 0.44887 1.09216
 O1629 O 0.57375 0.60401 1.02212
 O1630 O 0.59894 0.62834 1.02283
 C1631 C 0.58132 0.62118 1.02976
 C1632 C 0.56987 0.63256 1.04735
 C1633 C 0.57755 0.65199 1.05532
 H1634 H 0.59116 0.65926 1.04760
 O1635 O 0.42308 0.39157 1.01647
 O1636 O 0.39823 0.36690 1.01551
 C1637 C 0.41541 0.37426 1.02342
 C1638 C 0.42617 0.36295 1.04134
 C1639 C 0.41784 0.34380 1.04910
 H1640 H 0.40431 0.33667 1.04100
 O1641 O 0.57225 0.47680 1.10911
 O1642 O 0.59673 0.47697 1.13470
 C1643 C 0.57970 0.46945 1.12664
 C1644 C 0.56877 0.45150 1.13728
 C1645 C 0.57568 0.44398 1.15745
 H1646 H 0.58835 0.45221 1.16589
 O1647 O 0.42052 0.51759 1.10565
 O1648 O 0.39522 0.51752 1.13039
 C1649 C 0.41260 0.52491 1.12311
 C1650 C 0.42354 0.54256 1.13465
 C1651 C 0.41682 0.54931 1.15531
 H1652 H 0.40407 0.54094 1.16336
 O1653 O 0.47555 0.60433 1.07682
 O1654 O 0.47427 0.62941 1.10187
 C1655 C 0.46761 0.62156 1.08414
 C1656 C 0.45014 0.63217 1.07208
 C1657 C 0.44204 0.65202 1.07885
 H1658 H 0.44880 0.65970 1.09296
 O1659 O 0.52011 0.39005 1.07592
 O1660 O 0.51976 0.36491 1.10052
 C1661 C 0.52756 0.37277 1.08342
 C1662 C 0.54587 0.36217 1.07242
 C1663 C 0.55408 0.34268 1.07989
 H1664 H 0.54674 0.33519 1.09368
 O1665 O 0.60587 0.42188 1.02139
 O1666 O 0.63178 0.39797 1.02213
 C1667 C 0.62330 0.41504 1.02927
 C1668 C 0.63350 0.42688 1.04719
 C1669 C 0.65400 0.42122 1.05449
 H1670 H 0.66247 0.40814 1.04679
 O1671 O 0.39243 0.57239 1.01748
 O1672 O 0.36673 0.59652 1.01675
 C1673 C 0.37461 0.57947 1.02434
 C1674 C 0.36326 0.56811 1.04174
 C1675 C 0.34279 0.57471 1.04837
 H1676 H 0.33480 0.58747 1.03987
 Cu1677 Cu 0.49867 0.40691 1.08778
 Cu1678 Cu 0.49816 0.37686 1.11743
 Cu1679 Cu 0.49633 0.58769 1.08966
 Cu1680 Cu 0.49490 0.61764 1.11988
 Cu1681 Cu 0.41133 0.40879 0.99534
 Cu1682 Cu 0.38151 0.37920 0.99422
 Cu1683 Cu 0.59001 0.40911 0.99981
 Cu1684 Cu 0.62094 0.38024 1.00072
 Cu1685 Cu 0.40991 0.58470 0.99694
 Cu1686 Cu 0.37910 0.61369 0.99609
 Cu1687 Cu 0.58623 0.58670 1.00127
 Cu1688 Cu 0.61650 0.61588 1.00214
 Cu1689 Cu 0.40931 0.49662 1.08771
 Cu1690 Cu 0.37884 0.49651 1.11726
 Cu1691 Cu 0.58392 0.49788 1.09209
 Cu1692 Cu 0.61342 0.49811 1.12274
 C1693 C 0.55200 0.44104 1.12666
 H1694 H 0.54671 0.44664 1.11104
 C1695 C 0.56634 0.42592 1.16677
 C1696 C 0.44042 0.55328 1.12457
 H1697 H 0.44561 0.54831 1.10862
 C1698 C 0.42668 0.56666 1.16574
 C1699 C 0.37330 0.55122 1.05254
 H1700 H 0.38916 0.54618 1.04763
 C1701 C 0.33253 0.56494 1.06587
 C1702 C 0.62237 0.44345 1.05769
 H1703 H 0.60640 0.44766 1.05244
 C1704 C 0.66342 0.43202 1.07198
 C1705 C 0.55602 0.37221 1.05504
 H1706 H 0.55010 0.38744 1.04948
 C1707 C 0.57212 0.33318 1.07013
 C1708 C 0.44078 0.62191 1.05423
 H1709 H 0.44665 0.60641 1.04919
 C1710 C 0.42489 0.66171 1.06790
 C1711 C 0.44247 0.44056 1.12364
 H1712 H 0.44852 0.44624 1.10837
 C1713 C 0.42592 0.42516 1.16265
 C1714 C 0.54993 0.55398 1.12803
 H1715 H 0.54434 0.54826 1.11250
 C1716 C 0.56546 0.56944 1.16763
 C1717 C 0.44398 0.37189 1.05169
 H1718 H 0.45032 0.38679 1.04594
 C1719 C 0.42661 0.33391 1.06738
 C1720 C 0.55197 0.62344 1.05713
 H1721 H 0.54615 0.60832 1.05117
 C1722 C 0.56799 0.66206 1.07326
 C1723 C 0.37412 0.44152 1.05213
 H1724 H 0.38935 0.44752 1.04666
 C1725 C 0.33513 0.42508 1.06695
 C1726 C 0.62019 0.55335 1.05894
 H1727 H 0.60438 0.54867 1.05371
 C1728 C 0.66090 0.56598 1.07295
 C1729 C 1.14824 1.11688 1.30664
 C1730 C 1.13990 1.10684 1.28835
 C1731 C 1.12111 1.11430 1.27884
 C1732 C 1.11054 1.13199 1.28793
 C1733 C 1.11904 1.14235 1.30606
 C1734 C 1.13815 1.13504 1.31562
 N1735 N 1.11368 1.10416 1.25950
 N1736 N 1.09510 1.10743 1.25186
 C1737 C 1.08834 1.09784 1.23196
 C1738 C 1.06667 1.09811 1.22659
 C1739 C 1.05970 1.08941 1.20700
 C1740 C 1.07442 1.08066 1.19213
 C1741 C 1.09622 1.08039 1.19767
 C1742 C 1.10310 1.08876 1.21744
 H1743 H 1.16294 1.11061 1.31337
 H1744 H 1.14820 1.09323 1.28146
 H1745 H 1.09600 1.13810 1.28074
 H1746 H 1.11067 1.15617 1.31242
 H1747 H 1.05513 1.10502 1.23767
 H1748 H 1.04276 1.08955 1.20353
 H1749 H 1.10808 1.07422 1.18652
 H1750 H 1.11999 1.08858 1.22113
 C1751 C 1.10720 0.63952 0.81495
 C1752 C 1.09670 0.63220 0.79643
 C1753 C 1.10758 0.61975 0.78115
 C1754 C 1.12899 0.61402 0.78496
 C1755 C 1.13943 0.62108 0.80360
 C1756 C 1.12876 0.63420 0.81863
 N1757 N 1.09679 0.61349 0.76173
 N1758 N 1.10691 0.60524 0.74591
 C1759 C 1.09672 0.59874 0.72628
 C1760 C 1.10951 0.59152 0.70925
 C1761 C 1.10030 0.58457 0.68997
 C1762 C 1.07798 0.58447 0.68743
 C1763 C 1.06510 0.59211 0.70445
 C1764 C 1.07440 0.59922 0.72376
 H1765 H 1.09849 0.64950 0.82628
 H1766 H 1.08019 0.63665 0.79373
 H1767 H 1.13771 0.60425 0.77345
 H1768 H 1.15603 0.61673 0.80592
 H1769 H 1.12672 0.59124 0.71095
 H1770 H 1.11071 0.57925 0.67702
 H1771 H 1.04787 0.59211 0.70302
 H1772 H 1.06419 0.60476 0.73676
 C1773 C 0.59841 1.12563 0.81883
 C1774 C 0.58889 1.11759 0.80009
 C1775 C 0.59934 1.10210 0.78765
 C1776 C 0.61896 1.09378 0.79477
 C1777 C 0.62834 1.10147 0.81370
 C1778 C 0.61852 1.11799 0.82569
 N1779 N 0.59031 1.09581 0.76737
 N1780 N 0.60150 1.08623 0.75313
 C1781 C 0.59312 1.08009 0.73255
 C1782 C 0.60736 1.07336 0.71653
 C1783 C 0.59994 1.06772 0.69605
 C1784 C 0.57796 1.06833 0.69133
 C1785 C 0.56363 1.07501 0.70756
 C1786 C 0.57115 1.08096 0.72799
 H1787 H 0.59012 1.13812 0.82766
 H1788 H 0.57369 1.12402 0.79482
 H1789 H 0.62720 1.08158 0.78551
 H1790 H 0.64369 1.09496 0.81842
 H1791 H 0.62434 1.07279 0.71984
 H1792 H 0.61150 1.06315 0.68385
 H1793 H 0.54660 1.07538 0.70458
 H1794 H 0.55984 1.08606 0.74022
 C1795 C 0.60146 0.63149 1.31663
 C1796 C 0.59132 0.62400 1.29798
 C1797 C 0.60268 0.61201 1.28269
 C1798 C 0.62420 0.60684 1.28665
 C1799 C 0.63430 0.61408 1.30543
 C1800 C 0.62314 0.62683 1.32043
 N1801 N 0.59225 0.60578 1.26306
 N1802 N 0.60269 0.59792 1.24726
 C1803 C 0.59282 0.59159 1.22740
 C1804 C 0.60589 0.58458 1.21049
 C1805 C 0.59699 0.57788 1.19097
 C1806 C 0.57471 0.57786 1.18805
 C1807 C 0.56156 0.58531 1.20493
 C1808 C 0.57054 0.59214 1.22450
 H1809 H 0.59237 0.64117 1.32793
 H1810 H 0.57471 0.62802 1.29517
 H1811 H 0.63329 0.59743 1.27513
 H1812 H 0.65101 0.61024 1.30784
 H1813 H 0.62307 0.58426 1.21248
 H1814 H 0.60759 0.57269 1.17814
 H1815 H 0.54436 0.58536 1.20320
 H1816 H 0.56012 0.59755 1.23738
 C1817 C 0.89458 0.86166 1.30957
 C1818 C 0.90408 0.86925 1.29079
 C1819 C 0.89583 0.88720 1.28052
 C1820 C 0.87795 0.89770 1.28929
 C1821 C 0.86814 0.88994 1.30786
 C1822 C 0.87621 0.87167 1.31820
 N1823 N 0.90521 0.89377 1.26065
 N1824 N 0.90127 0.91185 1.25245
 C1825 C 0.90977 0.91772 1.23193
 C1826 C 0.90921 0.93906 1.22585
 C1827 C 0.91668 0.94510 1.20557
 C1828 C 0.92442 0.92975 1.19080
 C1829 C 0.92498 0.90829 1.19706
 C1830 C 0.91788 0.90235 1.21749
 H1831 H 0.90140 0.84760 1.31693
 H1832 H 0.91783 0.86101 1.28410
 H1833 H 0.87123 0.91157 1.28149
 H1834 H 0.85413 0.89822 1.31396
 H1835 H 0.90300 0.95104 1.23687
 H1836 H 0.91639 0.96181 1.20149
 H1837 H 0.93039 0.89598 1.18601
 H1838 H 0.91820 0.88569 1.22177
 C1839 C 0.88910 0.35914 0.80627
 C1840 C 0.89797 0.36735 0.78753
 C1841 C 0.88969 0.38580 0.77836
 C1842 C 0.87227 0.39620 0.78824
 C1843 C 0.86301 0.38779 0.80694
 C1844 C 0.87125 0.36900 0.81617
 N1845 N 0.89891 0.39295 0.75861
 N1846 N 0.89554 0.41134 0.75087
 C1847 C 0.90475 0.41737 0.73066
 C1848 C 0.90507 0.43883 0.72501
 C1849 C 0.91377 0.44507 0.70528
 C1850 C 0.92190 0.42984 0.69056
 C1851 C 0.92162 0.40827 0.69639
 C1852 C 0.91327 0.40211 0.71629
 H1853 H 0.89612 0.34471 0.81265
 H1854 H 0.91137 0.35920 0.78002
 H1855 H 0.86556 0.41050 0.78127
 H1856 H 0.84937 0.39591 0.81401
 H1857 H 0.89868 0.45076 0.73598
 H1858 H 0.91410 0.46186 0.70157
 H1859 H 0.92735 0.39606 0.68538
 H1860 H 0.91305 0.38537 0.72022
 C1861 C 0.35054 0.88057 0.80118
 C1862 C 0.35756 0.88983 0.78203
 C1863 C 0.37824 0.88592 0.77441
 C1864 C 0.39193 0.87253 0.78617
 C1865 C 0.38486 0.86305 0.80520
 C1866 C 0.36407 0.86695 0.81292
 N1867 N 0.38476 0.89533 0.75450
 N1868 N 0.40398 0.89442 0.74787
 C1869 C 0.41037 0.90329 0.72767
 C1870 C 0.43211 0.90401 0.72260
 C1871 C 0.43887 0.91207 0.70280
 C1872 C 0.42392 0.91934 0.68752
 C1873 C 0.40206 0.91866 0.69274
 C1874 C 0.39534 0.91079 0.71265
 H1875 H 0.33440 0.88384 0.80661
 H1876 H 0.34683 0.90007 0.77308
 H1877 H 0.40798 0.86920 0.78055
 H1878 H 0.39570 0.85270 0.81388
 H1879 H 0.44385 0.89832 0.73406
 H1880 H 0.45583 0.91268 0.69949
 H1881 H 0.39009 0.92377 0.68125
 H1882 H 0.37842 0.91024 0.71613
 C1883 C 0.38981 0.35620 1.30725
 C1884 C 0.39936 0.36343 1.28831
 C1885 C 0.38865 0.37784 1.27501
 C1886 C 0.36833 0.38534 1.28108
 C1887 C 0.35885 0.37839 1.30018
 C1888 C 0.36936 0.36354 1.31349
 N1889 N 0.39869 0.38455 1.25545
 N1890 N 0.38845 0.39472 1.24105
 C1891 C 0.39826 0.40178 1.22152
 C1892 C 0.38527 0.41001 1.20522
 C1893 C 0.39422 0.41726 1.18602
 C1894 C 0.41648 0.41674 1.18289
 C1895 C 0.42952 0.40835 1.19930
 C1896 C 0.42049 0.40086 1.21844
 H1897 H 0.39858 0.34487 1.31698
 H1898 H 0.41506 0.35759 1.28383
 H1899 H 0.35979 0.39662 1.27111
 H1900 H 0.34315 0.38452 1.30430
 H1901 H 0.36812 0.41069 1.20737
 H1902 H 0.38363 0.42314 1.17357
 H1903 H 0.44671 0.40794 1.19753
 H1904 H 0.43086 0.39464 1.23090
 C1905 C 0.88983 1.14255 0.69311
 C1906 C 0.89941 1.13344 0.71122
 C1907 C 0.88878 1.11794 0.72304
 C1908 C 0.86861 1.11101 0.71609
 C1909 C 0.85912 1.11979 0.69768
 C1910 C 0.86943 1.13601 0.68612
 N1911 N 0.89864 1.10989 0.74223
 N1912 N 0.88832 1.09929 0.75613
 C1913 C 0.89812 1.09140 0.77542
 C1914 C 0.88509 1.08350 0.79178
 C1915 C 0.89400 1.07611 0.81101
 C1916 C 0.91629 1.07607 0.81413
 C1917 C 0.92937 1.08392 0.79755
 C1918 C 0.92037 1.09162 0.77842
 H1919 H 0.89850 1.15481 0.68469
 H1920 H 0.91499 1.13885 0.71636
 H1921 H 0.86016 1.09888 0.72491
 H1922 H 0.84349 1.11420 0.69291
 H1923 H 0.86792 1.08338 0.78973
 H1924 H 0.88335 1.07069 0.82354
 H1925 H 0.94657 1.08388 0.79923
 H1926 H 0.93079 1.09756 0.76593
 C1927 C 0.85978 0.60940 0.18659
 C1928 C 0.86796 0.59986 0.20517
 C1929 C 0.88132 0.61122 0.21912
 C1930 C 0.88683 0.63223 0.21401
 C1931 C 0.87889 0.64172 0.19526
 C1932 C 0.86508 0.63047 0.18145
 N1933 N 0.88885 0.60115 0.23839
 N1934 N 0.89838 0.61148 0.25323
 C1935 C 0.90601 0.60157 0.27254
 C1936 C 0.91381 0.61444 0.28922
 C1937 C 0.92134 0.60542 0.30831
 C1938 C 0.92152 0.58320 0.31101
 C1939 C 0.91363 0.57028 0.29419
 C1940 C 0.90587 0.57938 0.27514
 H1941 H 0.84930 0.60024 0.17624
 H1942 H 0.86365 0.58364 0.20888
 H1943 H 0.89724 0.64131 0.22450
 H1944 H 0.88325 0.65797 0.19179
 H1945 H 0.91388 0.63156 0.28746
 H1946 H 0.92683 0.61591 0.32106
 H1947 H 0.91375 0.55313 0.29561
 H1948 H 0.89999 0.56908 0.26241
 C1949 C 0.35588 1.11237 0.19492
 C1950 C 0.36420 1.10269 0.21342
 C1951 C 0.38090 1.11216 0.22492
 C1952 C 0.38970 1.13116 0.21733
 C1953 C 0.38172 1.14066 0.19867
 C1954 C 0.36444 1.13160 0.18731
 N1955 N 0.38850 1.10244 0.24434
 N1956 N 0.40001 1.11263 0.25778
 C1957 C 0.40801 1.10330 0.27721
 C1958 C 0.41635 1.11662 0.29325
 C1959 C 0.42404 1.10817 0.31257
 C1960 C 0.42394 1.08606 0.31605
 C1961 C 0.41580 1.07270 0.29968
 C1962 C 0.40776 1.08124 0.28051
 H1963 H 0.34270 1.10474 0.18668
 H1964 H 0.35733 1.08799 0.21906
 H1965 H 0.40277 1.13868 0.22583
 H1966 H 0.38891 1.15537 0.19346
 H1967 H 0.41657 1.13366 0.29090
 H1968 H 0.42971 1.11903 0.32489
 H1969 H 0.41583 1.05560 0.30157
 H1970 H 0.40158 1.07062 0.26821
 C1971 C 0.36178 0.60646 0.68566
 C1972 C 0.36985 0.59599 0.70380
 C1973 C 0.38412 0.60628 0.71771
 C1974 C 0.39079 0.62701 0.71290
 C1975 C 0.38300 0.63736 0.69463
 C1976 C 0.36818 0.62733 0.68095
 N1977 N 0.39132 0.59566 0.73680
 N1978 N 0.40085 0.60575 0.75181
 C1979 C 0.40839 0.59580 0.77109
 C1980 C 0.41565 0.60873 0.78796
 C1981 C 0.42319 0.59977 0.80704
 C1982 C 0.42398 0.57755 0.80952
 C1983 C 0.41662 0.56454 0.79251
 C1984 C 0.40880 0.57359 0.77346
 H1985 H 0.35047 0.59826 0.67538
 H1986 H 0.36463 0.58000 0.70729
 H1987 H 0.40194 0.63525 0.72332
 H1988 H 0.38824 0.65342 0.69152
 H1989 H 0.41528 0.62587 0.78635
 H1990 H 0.42820 0.61031 0.81995
 H1991 H 0.41721 0.54739 0.79378
 H1992 H 0.40334 0.56328 0.76055
 C1993 C 1.14500 0.88790 0.69698
 C1994 C 1.13733 0.89651 0.71628
 C1995 C 1.11746 0.89052 0.72428
 C1996 C 1.10516 0.87566 0.71272
 C1997 C 1.11296 0.86674 0.69344
 C1998 C 1.13301 0.87279 0.68539
 N1999 N 1.11064 0.89937 0.74448
 N2000 N 1.09178 0.89735 0.75176
 C2001 C 1.08589 0.90602 0.77238
 C2002 C 1.06435 0.90676 0.77824
 C2003 C 1.05824 0.91491 0.79839
 C2004 C 1.07368 0.92215 0.81322
 C2005 C 1.09532 0.92142 0.80721
 C2006 C 1.10137 0.91354 0.78696
 H2007 H 1.16056 0.89284 0.69138
 H2008 H 1.14696 0.90788 0.72511
 H2009 H 1.08975 0.87073 0.71874
 H2010 H 1.10337 0.85516 0.68488
 H2011 H 1.05228 0.90110 0.76713
 H2012 H 1.04141 0.91557 0.80233
 H2013 H 1.10766 0.92647 0.81832
 H2014 H 1.11817 0.91298 0.78287
 C2015 C 1.11028 0.36032 0.19167
 C2016 C 1.10116 0.36807 0.21072
 C2017 C 1.10905 0.38642 0.22061
 C2018 C 1.12621 0.39718 0.21113
 C2019 C 1.13565 0.38926 0.19219
 C2020 C 1.12793 0.37057 0.18226
 N2021 N 1.09993 0.39316 0.24071
 N2022 N 1.10357 0.41132 0.24905
 C2023 C 1.09495 0.41725 0.26965
 C2024 C 1.09527 0.43860 0.27605
 C2025 C 1.08739 0.44475 0.29628
 C2026 C 1.07944 0.42951 0.31071
 C2027 C 1.07915 0.40804 0.30415
 C2028 C 1.08669 0.40198 0.28378
 H2029 H 1.10371 0.34594 0.18468
 H2030 H 1.08796 0.35965 0.21793
 H2031 H 1.13262 0.41138 0.21861
 H2032 H 1.14910 0.39771 0.18551
 H2033 H 1.10155 0.45052 0.26528
 H2034 H 1.08748 0.46147 0.30056
 H2035 H 1.07356 0.39581 0.31493
 H2036 H 1.08650 0.38532 0.27927
 C2037 C 0.64636 0.88640 0.19297
 C2038 C 0.63933 0.89703 0.21153
 C2039 C 0.61962 0.89217 0.22068
 C2040 C 0.60686 0.87643 0.21108
 C2041 C 0.61400 0.86547 0.19267
 C2042 C 0.63392 0.87026 0.18335
 N2043 N 0.61334 0.90289 0.24015
 N2044 N 0.59439 0.90202 0.24746
 C2045 C 0.58849 0.91194 0.26748
 C2046 C 0.56690 0.91314 0.27304
 C2047 C 0.56068 0.92150 0.29304
 C2048 C 0.57605 0.92849 0.30805
 C2049 C 0.59774 0.92773 0.30218
 C2050 C 0.60391 0.91960 0.28203
 H2051 H 0.66178 0.89067 0.18646
 H2052 H 0.64931 0.90909 0.21886
 H2053 H 0.59158 0.87232 0.21801
 H2054 H 0.60388 0.85325 0.18582
 H2055 H 0.55487 0.90737 0.26192
 H2056 H 0.54382 0.92226 0.29684
 H2057 H 0.60999 0.93270 0.31342
 H2058 H 0.62074 0.91872 0.27812
 C2059 C 0.61026 0.36306 0.68383
 C2060 C 0.60042 0.37111 0.70244
 C2061 C 0.61179 0.38392 0.71688
 C2062 C 0.63299 0.38939 0.71204
 C2063 C 0.64278 0.38160 0.69325
 C2064 C 0.63164 0.36799 0.67918
 N2065 N 0.60173 0.39056 0.73660
 N2066 N 0.61223 0.39912 0.75191
 C2067 C 0.60247 0.40558 0.77183
 C2068 C 0.61553 0.41295 0.78853
 C2069 C 0.60668 0.41933 0.80824
 C2070 C 0.58446 0.41868 0.81155
 C2071 C 0.57135 0.41110 0.79476
 C2072 C 0.58028 0.40456 0.77506
 H2073 H 0.60120 0.35273 0.67323
 H2074 H 0.58406 0.36686 0.70594
 H2075 H 0.64207 0.39942 0.72291
 H2076 H 0.65927 0.38565 0.69014
 H2077 H 0.63266 0.41364 0.78629
 H2078 H 0.61729 0.42465 0.82096
 H2079 H 0.55418 0.41060 0.79671
 H2080 H 0.56986 0.39892 0.76233
 C2081 C 1.29984 1.14911 1.11617
 C2082 C 1.28086 1.14200 1.10682
 C2083 C 1.27179 1.12282 1.11323
 C2084 C 1.28189 1.11077 1.12933
 C2085 C 1.30072 1.11799 1.13899
 C2086 C 1.31003 1.13730 1.13255
 N2087 N 1.25214 1.11622 1.10351
 N2088 N 1.24478 1.09757 1.10591
 C2089 C 1.22481 1.09115 1.09674
 C2090 C 1.21938 1.06963 1.09701
 C2091 C 1.19977 1.06288 1.08879
 C2092 C 1.18497 1.07764 1.08044
 C2093 C 1.19059 1.09927 1.08003
 C2094 C 1.21036 1.10596 1.08801
 H2095 H 1.30631 1.16406 1.11069
 H2096 H 1.27319 1.15146 1.09447
 H2097 H 1.27508 1.09592 1.13465
 H2098 H 1.30795 1.10835 1.15147
 H2099 H 1.23041 1.05805 1.10362
 H2100 H 1.19621 1.04606 1.08897
 H2101 H 1.17950 1.11113 1.07406
 H2102 H 1.21415 1.12273 1.08777
 C2103 C 1.30138 0.64885 0.61183
 C2104 C 1.28188 0.64228 0.60312
 C2105 C 1.27283 0.62302 0.60934
 C2106 C 1.28348 0.61031 0.62451
 C2107 C 1.30281 0.61696 0.63350
 C2108 C 1.31208 0.63638 0.62734
 N2109 N 1.25262 0.61697 0.60044
 N2110 N 1.24511 0.59839 0.60284
 C2111 C 1.22461 0.59244 0.59461
 C2112 C 1.21893 0.57098 0.59458
 C2113 C 1.19888 0.56466 0.58711
 C2114 C 1.18392 0.57981 0.57984
 C2115 C 1.18972 0.60141 0.57990
 C2116 C 1.20991 0.60766 0.58710
 H2117 H 1.30782 0.66389 0.60659
 H2118 H 1.27379 0.65225 0.59147
 H2119 H 1.27672 0.59538 0.62965
 H2120 H 1.31043 0.60679 0.64530
 H2121 H 1.23014 0.55910 0.60028
 H2122 H 1.19517 0.54787 0.58691
 H2123 H 1.17852 0.61356 0.57481
 H2124 H 1.21387 0.62439 0.58718
 C2125 C 0.79986 1.15265 0.61944
 C2126 C 0.78066 1.14492 0.61102
 C2127 C 0.77227 1.12567 0.61818
 C2128 C 0.78314 1.11434 0.63431
 C2129 C 0.80217 1.12220 0.64306
 C2130 C 0.81097 1.14142 0.63563
 N2131 N 0.75271 1.11810 0.60891
 N2132 N 0.74613 1.09919 0.61163
 C2133 C 0.72641 1.09178 0.60255
 C2134 C 0.72208 1.06998 0.60257
 C2135 C 0.70306 1.06223 0.59374
 C2136 C 0.68774 1.07622 0.58499
 C2137 C 0.69210 1.09818 0.58523
 C2138 C 0.71128 1.10587 0.59377
 H2139 H 0.80588 1.16751 0.61326
 H2140 H 0.77240 1.15386 0.59866
 H2141 H 0.77688 1.09948 0.64023
 H2142 H 0.81007 1.11299 0.65546
 H2143 H 0.73361 1.05893 0.60923
 H2144 H 0.70050 1.04522 0.59356
 H2145 H 0.68057 1.10953 0.57913
 H2146 H 0.71415 1.12283 0.59377
 C2147 C 0.79756 0.64525 1.11066
 C2148 C 0.77830 0.63769 1.10236
 C2149 C 0.77074 0.61770 1.10825
 C2150 C 0.78276 0.60515 1.12252
 C2151 C 0.80195 0.61278 1.13105
 C2152 C 0.80951 0.63298 1.12529
 N2153 N 0.75053 0.61088 1.10003
 N2154 N 0.74354 0.59215 1.10278
 C2155 C 0.72297 0.58588 1.09500
 C2156 C 0.71739 0.56439 1.09542
 C2157 C 0.69734 0.55785 1.08810
 C2158 C 0.68236 0.57282 1.08049
 C2159 C 0.68802 0.59443 1.08026
 C2160 C 0.70815 0.60089 1.08733
 H2161 H 0.80284 0.66090 1.10594
 H2162 H 0.76913 0.64751 1.09141
 H2163 H 0.77717 0.58964 1.12736
 H2164 H 0.81079 0.60292 1.14223
 H2165 H 0.72868 0.55266 1.10129
 H2166 H 0.69366 0.54106 1.08821
 H2167 H 0.67676 0.60644 1.07495
 H2168 H 0.71200 0.61765 1.08708
 C2169 C 1.30506 0.85277 0.89064
 C2170 C 1.28635 0.86016 0.90060
 C2171 C 1.27393 0.87599 0.89093
 C2172 C 1.28061 0.88471 0.87127
 C2173 C 1.29948 0.87765 0.86146
 C2174 C 1.31196 0.86144 0.87090
 N2175 N 1.25468 0.88304 0.90134
 N2176 N 1.24077 0.89408 0.89137
 C2177 C 1.22161 0.90174 0.90143
 C2178 C 1.20550 0.91019 0.88839
 C2179 C 1.18671 0.91819 0.89754
 C2180 C 1.18382 0.91831 0.92009
 C2181 C 1.20005 0.90971 0.93318
 C2182 C 1.21876 0.90139 0.92392
 H2183 H 1.31413 0.84037 0.89857
 H2184 H 1.28140 0.85336 0.91579
 H2185 H 1.27134 0.89710 0.86356
 H2186 H 1.30410 0.88481 0.84633
 H2187 H 1.20749 0.91044 0.87102
 H2188 H 1.17439 0.92414 0.88688
 H2189 H 1.19850 0.90976 0.95059
 H2190 H 1.23110 0.89505 0.93434
 C2191 C 1.30068 0.38099 0.35144
 C2192 C 1.28149 0.39028 0.35830
 C2193 C 1.27260 0.38498 0.37820
 C2194 C 1.28293 0.36977 0.39111
 C2195 C 1.30199 0.36011 0.38413
 C2196 C 1.31131 0.36574 0.36425
 N2197 N 1.25311 0.39523 0.38480
 N2198 N 1.24603 0.39421 0.40403
 C2199 C 1.22638 0.40427 0.41048
 C2200 C 1.22120 0.40518 0.43243
 C2201 C 1.20202 0.41449 0.43930
 C2202 C 1.18737 0.42284 0.42426
 C2203 C 1.19274 0.42209 0.40219
 C2204 C 1.21210 0.41298 0.39537
 H2205 H 1.30707 0.38579 0.33600
 H2206 H 1.27365 0.40191 0.34815
 H2207 H 1.27625 0.36529 0.40652
 H2208 H 1.30952 0.34849 0.39451
 H2209 H 1.23211 0.39865 0.44426
 H2210 H 1.19867 0.41515 0.45644
 H2211 H 1.18177 0.42805 0.39013
 H2212 H 1.21569 0.41239 0.37828
 C2213 C 0.80418 0.88520 0.35312
 C2214 C 0.78454 0.89391 0.35934
 C2215 C 0.77605 0.88965 0.37969
 C2216 C 0.78734 0.87621 0.39379
 C2217 C 0.80691 0.86721 0.38746
 C2218 C 0.81560 0.87173 0.36709
 N2219 N 0.75590 0.89899 0.38548
 N2220 N 0.74855 0.89832 0.40461
 C2221 C 0.72820 0.90734 0.41023
 C2222 C 0.72220 0.90807 0.43195
 C2223 C 0.70222 0.91612 0.43798
 C2224 C 0.68767 0.92338 0.42230
 C2225 C 0.69390 0.92296 0.40048
 C2226 C 0.71401 0.91506 0.39448
 H2227 H 0.81032 0.88891 0.33726
 H2228 H 0.77596 0.90416 0.34831
 H2229 H 0.78101 0.87259 0.40959
 H2230 H 0.81533 0.85694 0.39859
 H2231 H 0.73304 0.90230 0.44425
 H2232 H 0.69814 0.91661 0.45497
 H2233 H 0.68302 0.92819 0.38798
 H2234 H 0.71827 0.91460 0.37755
 C2235 C 0.80469 0.35307 0.88592
 C2236 C 0.78552 0.36014 0.89502
 C2237 C 0.77630 0.37933 0.88860
 C2238 C 0.78641 0.39144 0.87264
 C2239 C 0.80549 0.38421 0.86316
 C2240 C 0.81499 0.36490 0.86972
 N2241 N 0.75651 0.38582 0.89830
 N2242 N 0.74886 0.40451 0.89640
 C2243 C 0.72879 0.41051 0.90586
 C2244 C 0.72292 0.43199 0.90642
 C2245 C 0.70323 0.43832 0.91504
 C2246 C 0.68877 0.42318 0.92295
 C2247 C 0.69485 0.40159 0.92259
 C2248 C 0.71470 0.39532 0.91422
 H2249 H 0.81123 0.33810 0.89151
 H2250 H 0.77784 0.35064 0.90725
 H2251 H 0.77945 0.40631 0.86732
 H2252 H 0.81280 0.39384 0.85080
 H2253 H 0.73365 0.44388 0.90016
 H2254 H 0.69932 0.45511 0.91545
 H2255 H 0.68406 0.38946 0.92821
 H2256 H 0.71883 0.37857 0.91387
 C2257 C 0.69454 0.85449 1.10780
 C2258 C 0.71336 0.86211 1.09849
 C2259 C 0.72653 0.87611 1.10999
 C2260 C 0.72073 0.88235 1.13101
 C2261 C 0.70190 0.87497 1.14021
 C2262 C 0.68851 0.86104 1.12870
 N2263 N 0.74545 0.88413 1.10000
 N2264 N 0.75883 0.89521 1.11062
 C2265 C 0.77761 0.90395 1.10110
 C2266 C 0.79286 0.91328 1.11459
 C2267 C 0.81141 0.92200 1.10595
 C2268 C 0.81492 0.92180 1.08351
 C2269 C 0.79937 0.91264 1.06997
 C2270 C 0.78092 0.90369 1.07868
 H2271 H 0.68453 0.84383 1.09850
 H2272 H 0.71765 0.85718 1.08226
 H2273 H 0.73059 0.89318 1.14025
 H2274 H 0.69782 0.88025 1.15638
 H2275 H 0.79046 0.91357 1.13191
 H2276 H 0.82318 0.92853 1.11691
 H2277 H 0.80137 0.91252 1.05261
 H2278 H 0.76921 0.89676 1.06792
 C2279 C 0.70228 0.35223 0.61198
 C2280 C 0.72124 0.36008 0.60346
 C2281 C 0.72898 0.37983 0.61007
 C2282 C 0.71767 0.39170 0.62568
 C2283 C 0.69880 0.38373 0.63456
 C2284 C 0.69074 0.36389 0.62773
 N2285 N 0.74847 0.38724 0.60082
 N2286 N 0.75486 0.40628 0.60308
 C2287 C 0.77464 0.41316 0.59397
 C2288 C 0.77934 0.43486 0.59394
 C2289 C 0.79865 0.44201 0.58546
 C2290 C 0.81382 0.42749 0.57713
 C2291 C 0.80896 0.40568 0.57709
 C2292 C 0.78953 0.39859 0.58533
 H2293 H 0.69684 0.33688 0.60625
 H2294 H 0.72988 0.35077 0.59150
 H2295 H 0.72349 0.40700 0.63112
 H2296 H 0.69049 0.39324 0.64660
 H2297 H 0.76796 0.44626 0.60045
 H2298 H 0.80168 0.45894 0.58541
 H2299 H 0.82038 0.39403 0.57118
 H2300 H 0.78632 0.38169 0.58531
 C2301 C 0.19416 0.89288 0.63761
 C2302 C 0.21262 0.90213 0.62944
 C2303 C 0.22467 0.89165 0.61363
 C2304 C 0.21770 0.87199 0.60544
 C2305 C 0.19897 0.86284 0.61328
 C2306 C 0.18710 0.87300 0.62978
 N2307 N 0.24410 0.90114 0.60651
 N2308 N 0.25796 0.89077 0.59566
 C2309 C 0.27745 0.90023 0.58868
 C2310 C 0.29356 0.88710 0.58032
 C2311 C 0.31293 0.89572 0.57370
 C2312 C 0.31640 0.91780 0.57495
 C2313 C 0.30011 0.93098 0.58331
 C2314 C 0.28083 0.92227 0.59022
 H2315 H 0.18550 0.90141 0.65014
 H2316 H 0.21783 0.91733 0.63580
 H2317 H 0.22673 0.86369 0.59304
 H2318 H 0.19413 0.84760 0.60673
 H2319 H 0.29118 0.87008 0.57921
 H2320 H 0.32527 0.88503 0.56781
 H2321 H 0.30214 0.94805 0.58423
 H2322 H 0.26852 0.93275 0.59655
 C2323 C 0.19280 0.38959 1.13906
 C2324 C 0.21165 0.39858 1.13141
 C2325 C 0.22371 0.38828 1.11546
 C2326 C 0.21645 0.36888 1.10685
 C2327 C 0.19735 0.35998 1.11420
 C2328 C 0.18528 0.37011 1.13059
 N2329 N 0.24318 0.39788 1.10838
 N2330 N 0.25690 0.38788 1.09695
 C2331 C 0.27629 0.39759 1.08979
 C2332 C 0.29229 0.38472 1.08075
 C2333 C 0.31143 0.39358 1.07366
 C2334 C 0.31485 0.41568 1.07508
 C2335 C 0.29868 0.42859 1.08417
 C2336 C 0.27962 0.41963 1.09156
 H2337 H 0.18410 0.39809 1.15158
 H2338 H 0.21703 0.41357 1.13814
 H2339 H 0.22547 0.36067 1.09438
 H2340 H 0.19224 0.34502 1.10718
 H2341 H 0.28999 0.36771 1.07941
 H2342 H 0.32364 0.38302 1.06727
 H2343 H 0.30058 0.44566 1.08527
 H2344 H 0.26743 0.42994 1.09838
 C2345 C 0.68669 1.10166 0.86475
 C2346 C 0.70630 1.09329 0.87143
 C2347 C 0.71892 1.10430 0.88629
 C2348 C 0.71153 1.12379 0.89480
 C2349 C 0.69171 1.13206 0.88845
 C2350 C 0.67902 1.12119 0.87318
 N2351 N 0.73906 1.09531 0.89251
 N2352 N 0.75306 1.10603 0.90266
 C2353 C 0.77308 1.09696 0.90914
 C2354 C 0.78914 1.11046 0.91662
 C2355 C 0.80880 1.10219 0.92325
 C2356 C 0.81268 1.08009 0.92293
 C2357 C 0.79648 1.06655 0.91532
 C2358 C 0.77689 1.07490 0.90839
 H2359 H 0.67752 1.09263 0.85307
 H2360 H 0.71179 1.07823 0.86481
 H2361 H 0.72099 1.13253 0.90645
 H2362 H 0.68650 1.14709 0.89538
 H2363 H 0.78644 1.12748 0.91716
 H2364 H 0.82102 1.11317 0.92849
 H2365 H 0.79876 1.04947 0.91511
 H2366 H 0.76464 1.06412 0.90278
 C2367 C 0.69930 0.64540 0.38010
 C2368 C 0.71909 0.63863 0.38777
 C2369 C 0.72578 0.61761 0.38472
 C2370 C 0.71262 0.60338 0.37330
 C2371 C 0.69282 0.61023 0.36530
 C2372 C 0.68586 0.63126 0.36892
 N2373 N 0.74589 0.61130 0.39361
 N2374 N 0.75219 0.59204 0.39410
 C2375 C 0.77246 0.58636 0.40315
 C2376 C 0.77808 0.56487 0.40462
 C2377 C 0.79791 0.55888 0.41303
 C2378 C 0.81256 0.57437 0.42001
 C2379 C 0.80674 0.59594 0.41880
 C2380 C 0.78686 0.60190 0.41048
 H2381 H 0.69451 0.66176 0.38299
 H2382 H 0.72915 0.64974 0.39645
 H2383 H 0.71759 0.58705 0.37065
 H2384 H 0.68278 0.59902 0.35676
 H2385 H 0.76708 0.55275 0.39916
 H2386 H 0.80179 0.54211 0.41405
 H2387 H 0.81776 0.60825 0.42375
 H2388 H 0.78290 0.61865 0.40950
 C2389 C 0.20463 1.15262 0.38465
 C2390 C 0.22313 1.14477 0.39434
 C2391 C 0.23113 1.12473 0.38870
 C2392 C 0.22056 1.11255 0.37295
 C2393 C 0.20218 1.12048 0.36293
 C2394 C 0.19387 1.14063 0.36872
 N2395 N 0.25022 1.11737 0.39893
 N2396 N 0.25671 1.09823 0.39725
 C2397 C 0.27621 1.09135 0.40708
 C2398 C 0.28119 1.06966 0.40722
 C2399 C 0.30046 1.06254 0.41602
 C2400 C 0.31524 1.07711 0.42457
 C2401 C 0.31004 1.09890 0.42464
 C2402 C 0.29066 1.10596 0.41605
 H2403 H 0.19895 1.16821 0.38960
 H2404 H 0.23124 1.15432 0.40641
 H2405 H 0.22660 1.09702 0.36824
 H2406 H 0.19445 1.11071 0.35079
 H2407 H 0.27013 1.05825 0.40043
 H2408 H 0.30382 1.04563 0.41605
 H2409 H 0.32119 1.11057 0.43075
 H2410 H 0.28721 1.12285 0.41600
 C2411 C 0.20544 0.64864 0.87917
 C2412 C 0.22504 0.64077 0.88631
 C2413 C 0.23124 0.61989 0.88154
 C2414 C 0.21776 0.60694 0.86901
 C2415 C 0.19817 0.61490 0.86156
 C2416 C 0.19172 0.63577 0.86680
 N2417 N 0.25119 0.61236 0.88984
 N2418 N 0.25706 0.59299 0.88864
 C2419 C 0.27715 0.58609 0.89724
 C2420 C 0.28198 0.56435 0.89764
 C2421 C 0.30138 0.55719 0.90619
 C2422 C 0.31639 0.57175 0.91435
 C2423 C 0.31150 0.59359 0.91383
 C2424 C 0.29206 0.60070 0.90543
 H2425 H 0.20105 0.66484 0.88334
 H2426 H 0.23535 0.65090 0.89588
 H2427 H 0.22233 0.59074 0.86504
 H2428 H 0.18793 0.60462 0.85210
 H2429 H 0.27060 0.55292 0.89146
 H2430 H 0.30455 0.54025 0.90659
 H2431 H 0.32285 0.60524 0.91960
 H2432 H 0.28877 0.61762 0.90520
 C2433 C 1.10785 1.31184 1.13047
 C2434 C 1.09852 1.29310 1.12305
 C2435 C 1.11090 1.27743 1.11289
 C2436 C 1.13280 1.28106 1.10948
 C2437 C 1.14216 1.30006 1.11665
 C2438 C 1.12981 1.31545 1.12760
 N2439 N 1.10081 1.25794 1.10668
 N2440 N 1.11127 1.24179 1.09996
 C2441 C 1.10093 1.22234 1.09399
 C2442 C 1.11350 1.20495 1.08766
 C2443 C 1.10399 1.18586 1.08136
 C2444 C 1.08161 1.18385 1.08111
 C2445 C 1.06899 1.20120 1.08792
 C2446 C 1.07856 1.22032 1.09430
 H2447 H 1.09784 1.32347 1.13866
 H2448 H 1.08163 1.29054 1.12566
 H2449 H 1.14267 1.26918 1.10151
 H2450 H 1.15911 1.30240 1.11426
 H2451 H 1.13073 1.20622 1.08753
 H2452 H 1.11418 1.17266 1.07662
 H2453 H 1.05174 1.20018 1.08776
 H2454 H 1.06848 1.23355 1.09919
 C2455 C 1.14810 0.80327 0.61600
 C2456 C 1.14061 0.78409 0.60749
 C2457 C 1.12017 0.77691 0.61261
 C2458 C 1.10724 0.78910 0.62661
 C2459 C 1.11482 0.80820 0.63539
 C2460 C 1.13533 0.81553 0.63012
 N2461 N 1.11315 0.75709 0.60363
 N2462 N 1.09395 0.75076 0.60520
 C2463 C 1.08729 0.73069 0.59647
 C2464 C 1.06552 0.72588 0.59603
 C2465 C 1.05854 0.70634 0.58783
 C2466 C 1.07330 0.69108 0.58014
 C2467 C 1.09519 0.69601 0.58062
 C2468 C 1.10211 0.71564 0.58861
 H2469 H 1.16401 0.80836 0.61169
 H2470 H 1.15074 0.77480 0.59678
 H2471 H 1.09140 0.78380 0.63089
 H2472 H 1.10458 0.81729 0.64617
 H2473 H 1.05393 0.73735 0.60199
 H2474 H 1.04157 0.70325 0.58740
 H2475 H 1.10704 0.68454 0.57524
 H2476 H 1.11906 0.71892 0.58894
 C2477 C 0.65000 1.29587 0.61402
 C2478 C 0.64260 1.27638 0.60629
 C2479 C 0.62198 1.26962 0.61122
 C2480 C 0.60868 1.28261 0.62405
 C2481 C 0.61613 1.30205 0.63201
 C2482 C 0.63690 1.30887 0.62710
 N2483 N 0.61518 1.24934 0.60335
 N2484 N 0.59605 1.24295 0.60527
 C2485 C 0.58977 1.22238 0.59768
 C2486 C 0.56809 1.21722 0.59728
 C2487 C 0.56154 1.19725 0.58987
 C2488 C 0.57667 1.18201 0.58296
 C2489 C 0.59846 1.18722 0.58362
 C2490 C 0.60495 1.20723 0.59080
 H2491 H 0.66611 1.30059 0.61001
 H2492 H 0.65299 1.26645 0.59645
 H2493 H 0.59267 1.27764 0.62812
 H2494 H 0.60564 1.31172 0.64199
 H2495 H 0.55626 1.22877 0.60253
 H2496 H 0.54462 1.19384 0.58931
 H2497 H 0.61054 1.17572 0.57885
 H2498 H 0.62184 1.21078 0.59118
 C2499 C 0.60580 0.80824 1.13740
 C2500 C 0.59546 0.78972 1.13052
 C2501 C 0.60622 0.77465 1.11776
 C2502 C 0.62737 0.77859 1.11141
 C2503 C 0.63763 0.79721 1.11801
 C2504 C 0.62706 0.81214 1.13131
 N2505 N 0.59555 0.75540 1.11166
 N2506 N 0.60573 0.73982 1.10328
 C2507 C 0.59571 0.72040 1.09673
 C2508 C 0.60868 0.70352 1.08983
 C2509 C 0.59967 0.68448 1.08272
 C2510 C 0.57736 0.68202 1.08208
 C2511 C 0.56431 0.69891 1.08939
 C2512 C 0.57341 0.71796 1.09669
 H2513 H 0.59717 0.81945 1.14754
 H2514 H 0.57914 0.78693 1.13546
 H2515 H 0.63601 0.76726 1.10141
 H2516 H 0.65401 0.79968 1.11307
 H2517 H 0.62589 0.70515 1.08993
 H2518 H 0.61023 0.67166 1.07772
 H2519 H 0.54709 0.69757 1.08896
 H2520 H 0.56306 0.73085 1.10194
 C2521 C 0.89331 1.30711 0.86276
 C2522 C 0.90274 1.28830 0.87000
 C2523 C 0.89100 1.27399 0.88231
 C2524 C 0.86975 1.27893 0.88783
 C2525 C 0.86036 1.29789 0.88084
 C2526 C 0.87199 1.31205 0.86802
 N2527 N 0.90093 1.25453 0.88883
 N2528 N 0.89028 1.23960 0.89727
 C2529 C 0.90003 1.22013 0.90400
 C2530 C 0.88693 1.20380 0.91127
 C2531 C 0.89584 1.18472 0.91838
 C2532 C 0.91813 1.18174 0.91857
 C2533 C 0.93127 1.19808 0.91096
 C2534 C 0.92229 1.21715 0.90369
 H2535 H 0.90274 1.31777 0.85304
 H2536 H 0.91915 1.28469 0.86573
 H2537 H 0.86040 1.26813 0.89747
 H2538 H 0.84391 1.30124 0.88511
 H2539 H 0.86975 1.20589 0.91144
 H2540 H 0.88525 1.17227 0.92371
 H2541 H 0.94848 1.19631 0.91108
 H2542 H 0.93274 1.22962 0.89814
 C2543 C 0.89565 0.81407 0.37152
 C2544 C 0.90460 0.79523 0.37921
 C2545 C 0.89178 0.78002 0.38904
 C2546 C 0.86987 0.78425 0.39195
 C2547 C 0.86091 0.80331 0.38452
 C2548 C 0.87366 0.81820 0.37381
 N2549 N 0.90133 0.76023 0.39525
 N2550 N 0.89028 0.74449 0.40136
 C2551 C 0.89988 0.72463 0.40727
 C2552 C 0.88663 0.70772 0.41274
 C2553 C 0.89538 0.68818 0.41879
 C2554 C 0.91767 0.68523 0.41964
 C2555 C 0.93098 0.70214 0.41379
 C2556 C 0.92217 0.72170 0.40765
 H2557 H 0.90593 0.82531 0.36349
 H2558 H 0.92150 0.79219 0.37698
 H2559 H 0.85966 0.77275 0.39966
 H2560 H 0.84392 0.80605 0.38645
 H2561 H 0.86945 0.70972 0.41233
 H2562 H 0.88468 0.67535 0.42281
 H2563 H 0.94818 0.70041 0.41446
 H2564 H 0.93276 0.73456 0.40344
 C2565 C 0.39213 1.31103 0.37110
 C2566 C 0.40176 1.29310 0.38017
 C2567 C 0.38963 1.27856 0.39181
 C2568 C 0.36775 1.28265 0.39512
 C2569 C 0.35812 1.30081 0.38631
 C2570 C 0.37015 1.31494 0.37381
 N2571 N 0.39979 1.25952 0.39937
 N2572 N 0.38926 1.24411 0.40709
 C2573 C 0.39936 1.22488 0.41425
 C2574 C 0.38654 1.20799 0.42073
 C2575 C 0.39574 1.18889 0.42754
 C2576 C 0.41809 1.18635 0.42822
 C2577 C 0.43098 1.20334 0.42160
 C2578 C 0.42171 1.22244 0.41464
 H2579 H 0.40187 1.32168 0.36168
 H2580 H 0.41864 1.29019 0.37758
 H2581 H 0.35806 1.27168 0.40419
 H2582 H 0.34115 1.30336 0.38861
 H2583 H 0.36931 1.20959 0.42034
 H2584 H 0.38531 1.17602 0.43208
 H2585 H 0.44821 1.20200 0.42212
 H2586 H 0.43198 1.23529 0.40970
 C2587 C 0.39214 0.80597 0.86112
 C2588 C 0.40220 0.78740 0.86836
 C2589 C 0.39148 0.77351 0.88210
 C2590 C 0.37074 0.77872 0.88911
 C2591 C 0.36079 0.79739 0.88216
 C2592 C 0.37126 0.81109 0.86786
 N2593 N 0.40172 0.75409 0.88846
 N2594 N 0.39129 0.73934 0.89753
 C2595 C 0.40090 0.71977 0.90426
 C2596 C 0.38762 0.70348 0.91133
 C2597 C 0.39628 0.68421 0.91827
 C2598 C 0.41853 0.68095 0.91860
 C2599 C 0.43187 0.69736 0.91135
 C2600 C 0.42313 0.71660 0.90416
 H2601 H 0.40067 0.81625 0.85020
 H2602 H 0.41821 0.78361 0.86290
 H2603 H 0.36217 0.76831 0.89987
 H2604 H 0.34470 0.80082 0.88762
 H2605 H 0.37046 0.70571 0.91135
 H2606 H 0.38549 0.67179 0.92324
 H2607 H 0.44907 0.69547 0.91160
 H2608 H 0.43371 0.72905 0.89884
 C2609 C 1.14829 0.70107 0.88894
 C2610 C 1.14087 0.71979 0.89865
 C2611 C 1.11990 0.72670 0.89530
 C2612 C 1.10624 0.71460 0.88213
 C2613 C 1.11371 0.69594 0.87219
 C2614 C 1.13486 0.68903 0.87543
 N2615 N 1.11321 0.74643 0.90480
 N2616 N 1.09392 0.75285 0.90424
 C2617 C 1.08772 0.77306 0.91307
 C2618 C 1.06604 0.77837 0.91413
 C2619 C 1.05957 0.79832 0.92185
 C2620 C 1.07478 0.81343 0.92842
 C2621 C 1.09656 0.80792 0.92754
 C2622 C 1.10298 0.78790 0.92002
 H2623 H 1.16470 0.69627 0.89172
 H2624 H 1.15154 0.72905 0.90871
 H2625 H 1.08996 0.71973 0.87924
 H2626 H 1.10296 0.68700 0.86193
 H2627 H 1.05414 0.76704 0.90886
 H2628 H 1.04266 0.80194 0.92265
 H2629 H 1.10869 0.81928 0.93213
 H2630 H 1.11987 0.78421 0.91920
 C2631 C 1.15389 0.20985 0.37647
 C2632 C 1.14612 0.22885 0.38521
 C2633 C 1.12461 0.23434 0.38305
 C2634 C 1.11087 0.22081 0.37146
 C2635 C 1.11872 0.20181 0.36240
 C2636 C 1.14027 0.19603 0.36510
 N2637 N 1.11732 0.25369 0.39293
 N2638 N 1.09769 0.25889 0.39407
 C2639 C 1.09106 0.27848 0.40404
 C2640 C 1.06926 0.28305 0.40582
 C2641 C 1.06235 0.30230 0.41491
 C2642 C 1.07721 0.31741 0.42227
 C2643 C 1.09911 0.31259 0.42083
 C2644 C 1.10599 0.29330 0.41182
 H2645 H 1.17062 0.20598 0.37867
 H2646 H 1.15685 0.23922 0.39399
 H2647 H 1.09416 0.22487 0.36949
 H2648 H 1.10787 0.19145 0.35375
 H2649 H 1.05761 0.27171 0.40002
 H2650 H 1.04537 0.30543 0.41608
 H2651 H 1.11094 0.32400 0.42607
 H2652 H 1.12296 0.29015 0.41062
 C2653 C 0.64052 0.69467 0.39046
 C2654 C 0.63317 0.71380 0.39927
 C2655 C 0.61288 0.72152 0.39409
 C2656 C 0.59971 0.70972 0.38015
 C2657 C 0.60711 0.69058 0.37113
 C2658 C 0.62770 0.68296 0.37604
 N2659 N 0.60661 0.74185 0.40242
 N2660 N 0.58793 0.74949 0.39999
 C2661 C 0.58264 0.77035 0.40776
 C2662 C 0.56134 0.77711 0.40754
 C2663 C 0.55588 0.79762 0.41452
 C2664 C 0.57178 0.81180 0.42158
 C2665 C 0.59316 0.80489 0.42178
 C2666 C 0.59854 0.78434 0.41504
 H2667 H 0.65646 0.68933 0.39461
 H2668 H 0.64344 0.72282 0.40996
 H2669 H 0.58396 0.71549 0.37588
 H2670 H 0.59684 0.68192 0.36014
 H2671 H 0.54895 0.76646 0.40198
 H2672 H 0.53923 0.80235 0.41447
 H2673 H 0.60583 0.81551 0.42670
 H2674 H 0.61517 0.77955 0.41515
 C2675 C 0.60103 0.18035 0.87523
 C2676 C 0.59276 0.19981 0.88247
 C2677 C 0.60600 0.21466 0.89255
 C2678 C 0.62763 0.20956 0.89602
 C2679 C 0.63590 0.18995 0.88901
 C2680 C 0.62274 0.17529 0.87819
 N2681 N 0.59718 0.23492 0.89856
 N2682 N 0.60871 0.25016 0.90531
 C2683 C 0.59982 0.27048 0.91107
 C2684 C 0.61361 0.28688 0.91704
 C2685 C 0.60552 0.30690 0.92273
 C2686 C 0.58337 0.31085 0.92269
 C2687 C 0.56954 0.29436 0.91652
 C2688 C 0.57768 0.27434 0.91073
 H2689 H 0.59043 0.16936 0.86709
 H2690 H 0.57607 0.20352 0.87978
 H2691 H 0.63815 0.22078 0.90391
 H2692 H 0.65268 0.18653 0.89149
 H2693 H 0.63070 0.28414 0.91721
 H2694 H 0.61664 0.31935 0.92702
 H2695 H 0.55241 0.29682 0.91656
 H2696 H 0.56668 0.26189 0.90618
 C2697 C 0.85992 0.69379 1.10584
 C2698 C 0.86818 0.71243 1.09716
 C2699 C 0.88150 0.72549 1.10948
 C2700 C 0.88692 0.71943 1.13061
 C2701 C 0.87890 0.70058 1.13925
 C2702 C 0.86512 0.68766 1.12701
 N2703 N 0.88909 0.74480 1.10018
 N2704 N 0.89870 0.75894 1.11125
 C2705 C 0.90622 0.77823 1.10181
 C2706 C 0.91403 0.79428 1.11534
 C2707 C 0.92128 0.81339 1.10672
 C2708 C 0.92112 0.81672 1.08426
 C2709 C 0.91330 0.80050 1.07069
 C2710 C 0.90584 0.78146 1.07937
 H2711 H 0.84949 0.68414 1.09591
 H2712 H 0.86395 0.71689 1.08085
 H2713 H 0.89730 0.72925 1.14042
 H2714 H 0.88317 0.69631 1.15560
 H2715 H 0.91429 0.79204 1.13266
 H2716 H 0.92676 0.82565 1.11771
 H2717 H 0.91321 0.80239 1.05333
 H2718 H 0.89996 0.76923 1.06855
 C2719 C 0.89048 0.19749 0.63827
 C2720 C 0.89994 0.21593 0.63039
 C2721 C 0.88810 0.23036 0.61811
 C2722 C 0.86662 0.22588 0.61333
 C2723 C 0.85717 0.20728 0.62100
 C2724 C 0.86894 0.19298 0.63376
 N2725 N 0.89821 0.24942 0.61091
 N2726 N 0.88784 0.26439 0.60189
 C2727 C 0.89791 0.28348 0.59469
 C2728 C 0.88513 0.29994 0.58669
 C2729 C 0.89434 0.31875 0.57945
 C2730 C 0.91664 0.32142 0.57985
 C2731 C 0.92946 0.30488 0.58804
 C2732 C 0.92019 0.28608 0.59543
 H2733 H 0.90006 0.18678 0.64793
 H2734 H 0.91651 0.21915 0.63413
 H2735 H 0.85715 0.23676 0.60376
 H2736 H 0.84056 0.20431 0.61727
 H2737 H 0.86795 0.29819 0.58615
 H2738 H 0.88393 0.33131 0.57368
 H2739 H 0.94667 0.30631 0.58838
 H2740 H 0.93042 0.27354 0.60151
 C2741 C 0.39057 0.69303 0.63747
 C2742 C 0.40028 0.71160 0.63017
 C2743 C 0.38909 0.72573 0.61693
 C2744 C 0.36802 0.72099 0.61084
 C2745 C 0.35836 0.70231 0.61793
 C2746 C 0.36950 0.68815 0.63139
 N2747 N 0.39947 0.74467 0.60980
 N2748 N 0.38937 0.75926 0.59989
 C2749 C 0.39954 0.77815 0.59239
 C2750 C 0.38685 0.79445 0.58394
 C2751 C 0.39616 0.81304 0.57627
 C2752 C 0.41847 0.81558 0.57664
 C2753 C 0.43120 0.79916 0.58521
 C2754 C 0.42182 0.78062 0.59308
 H2755 H 0.39964 0.68243 0.64773
 H2756 H 0.41654 0.71505 0.63493
 H2757 H 0.35906 0.73163 0.60054
 H2758 H 0.34212 0.69907 0.61298
 H2759 H 0.36966 0.79277 0.58341
 H2760 H 0.38582 0.82551 0.57024
 H2761 H 0.44842 0.80048 0.58552
 H2762 H 0.43197 0.76815 0.59945
 C2763 C 0.38765 0.19493 1.14229
 C2764 C 0.39749 0.21310 1.13421
 C2765 C 0.38651 0.22657 1.12012
 C2766 C 0.36550 0.22158 1.11401
 C2767 C 0.35572 0.20329 1.12187
 C2768 C 0.36667 0.18978 1.13616
 N2769 N 0.39702 0.24509 1.11215
 N2770 N 0.38704 0.25926 1.10152
 C2771 C 0.39737 0.27771 1.09321
 C2772 C 0.38481 0.29392 1.08442
 C2773 C 0.39428 0.31218 1.07617
 C2774 C 0.41663 0.31443 1.07626
 C2775 C 0.42923 0.29802 1.08505
 C2776 C 0.41969 0.27985 1.09354
 H2777 H 0.39657 0.18482 1.15318
 H2778 H 0.41370 0.21675 1.13900
 H2779 H 0.35670 0.23172 1.10306
 H2780 H 0.33955 0.19982 1.11686
 H2781 H 0.36759 0.29248 1.08417
 H2782 H 0.38403 0.32465 1.06999
 H2783 H 0.44648 0.29911 1.08513
 H2784 H 0.42975 0.26742 1.10013
 C2785 C 1.10766 1.13774 0.69065
 C2786 C 1.09808 1.12871 0.70871
 C2787 C 1.11000 1.11597 0.72269
 C2788 C 1.13159 1.11170 0.71800
 C2789 C 1.14115 1.12047 0.69970
 C2790 C 1.12934 1.13388 0.68604
 N2791 N 1.09989 1.10807 0.74173
 N2792 N 1.11041 1.09932 0.75687
 C2793 C 1.10030 1.09167 0.77602
 C2794 C 1.11310 1.08457 0.79300
 C2795 C 1.10386 1.07724 0.81203
 C2796 C 1.08150 1.07660 0.81434
 C2797 C 1.06865 1.08380 0.79723
 C2798 C 1.07795 1.09132 0.77824
 H2799 H 1.09808 1.14786 0.68035
 H2800 H 1.08143 1.13205 0.71210
 H2801 H 1.14110 1.10177 0.72855
 H2802 H 1.15788 1.11725 0.69658
 H2803 H 1.13033 1.08491 0.79155
 H2804 H 1.11427 1.07227 0.82503
 H2805 H 1.05141 1.08331 0.79839
 H2806 H 1.06771 1.09671 0.76528
 C2807 C 1.14764 0.61326 0.19409
 C2808 C 1.14048 0.60325 0.21281
 C2809 C 1.12520 0.61308 0.22605
 C2810 C 1.11679 0.63296 0.22015
 C2811 C 1.12364 0.64286 0.20131
 C2812 C 1.13931 0.63326 0.18803
 N2813 N 1.11840 0.60266 0.24533
 N2814 N 1.10749 0.61248 0.25964
 C2815 C 1.10001 0.60253 0.27888
 C2816 C 1.09095 0.61531 0.29504
 C2817 C 1.08299 0.60626 0.31386
 C2818 C 1.08360 0.58409 0.31674
 C2819 C 1.09289 0.57125 0.30050
 C2820 C 1.10111 0.58040 0.28174
 H2821 H 1.15962 0.60521 0.18436
 H2822 H 1.14703 0.58789 0.21715
 H2823 H 1.10483 0.64082 0.23005
 H2824 H 1.11674 0.65819 0.19736
 H2825 H 1.09012 0.63240 0.29304
 H2826 H 1.07645 0.61669 0.32621
 H2827 H 1.09342 0.55412 0.30210
 H2828 H 1.10795 0.57020 0.26937
 C2829 C 0.63742 1.10782 0.19314
 C2830 C 0.63031 1.09883 0.21231
 C2831 C 0.61216 1.10683 0.22269
 C2832 C 0.60086 1.12389 0.21351
 C2833 C 0.60811 1.13318 0.19442
 C2834 C 0.62668 1.12543 0.18407
 N2835 N 0.60624 1.09797 0.24300
 N2836 N 0.58837 1.10189 0.25197
 C2837 C 0.58333 1.09360 0.27280
 C2838 C 0.56220 1.09433 0.27999
 C2839 C 0.55694 1.08688 0.30049
 C2840 C 0.57287 1.07896 0.31439
 C2841 C 0.59411 1.07821 0.30702
 C2842 C 0.59928 1.08533 0.28638
 H2843 H 0.65171 1.10121 0.18580
 H2844 H 0.63914 1.08570 0.21928
 H2845 H 0.58678 1.13037 0.22136
 H2846 H 0.59929 1.14660 0.18801
 H2847 H 0.54977 1.10062 0.26965
 H2848 H 0.54035 1.08729 0.30541
 H2849 H 0.60685 1.07260 0.31738
 H2850 H 0.61579 1.08482 0.28124
 C2851 C 0.60168 0.63488 0.68584
 C2852 C 0.59270 0.62773 0.70514
 C2853 C 0.60401 0.61366 0.71838
 C2854 C 0.62431 0.60644 0.71189
 C2855 C 0.63318 0.61334 0.69251
 C2856 C 0.62205 0.62777 0.67934
 N2857 N 0.59472 0.60700 0.73833
 N2858 N 0.60564 0.59702 0.75237
 C2859 C 0.59679 0.58993 0.77234
 C2860 C 0.61059 0.58195 0.78809
 C2861 C 0.60262 0.57484 0.80779
 C2862 C 0.58054 0.57530 0.81199
 C2863 C 0.56668 0.58327 0.79603
 C2864 C 0.57473 0.59062 0.77640
 H2865 H 0.59267 0.64592 0.67601
 H2866 H 0.57702 0.63336 0.70993
 H2867 H 0.63333 0.59546 0.72177
 H2868 H 0.64891 0.60758 0.68804
 H2869 H 0.62764 0.58141 0.78515
 H2870 H 0.61381 0.56924 0.81983
 H2871 H 0.54958 0.58356 0.79857
 H2872 H 0.56374 0.59659 0.76436
 C2873 C 0.87238 0.90073 0.68493
 C2874 C 0.87987 0.90986 0.70408
 C2875 C 0.89270 0.89807 0.71811
 C2876 C 0.89887 0.87725 0.71230
 C2877 C 0.89167 0.86819 0.69298
 C2878 C 0.87795 0.87969 0.67935
 N2879 N 0.89853 0.90721 0.73847
 N2880 N 0.90648 0.89597 0.75347
 C2881 C 0.91210 0.90473 0.77406
 C2882 C 0.91845 0.89088 0.79040
 C2883 C 0.92393 0.89875 0.81075
 C2884 C 0.92341 0.92075 0.81506
 C2885 C 0.91688 0.93466 0.79862
 C2886 C 0.91121 0.92671 0.77827
 H2887 H 0.86196 0.91002 0.67467
 H2888 H 0.87510 0.92594 0.70835
 H2889 H 0.90894 0.86788 0.72284
 H2890 H 0.89620 0.85195 0.68912
 H2891 H 0.91902 0.87390 0.78737
 H2892 H 0.92846 0.88757 0.82317
 H2893 H 0.91653 0.95169 0.80136
 H2894 H 0.90635 0.93773 0.76582
 C2895 C 0.86514 0.39729 0.18304
 C2896 C 0.87304 0.40639 0.20203
 C2897 C 0.88781 0.39540 0.21471
 C2898 C 0.89519 0.37531 0.20782
 C2899 C 0.88760 0.36628 0.18858
 C2900 C 0.87216 0.37699 0.17605
 N2901 N 0.89473 0.40488 0.23459
 N2902 N 0.90487 0.39440 0.24883
 C2903 C 0.91168 0.40389 0.26876
 C2904 C 0.91958 0.39076 0.28504
 C2905 C 0.92613 0.39940 0.30478
 C2906 C 0.92523 0.42152 0.30851
 C2907 C 0.91729 0.43470 0.29205
 C2908 C 0.91049 0.42597 0.27238
 H2909 H 0.85344 0.40626 0.17393
 H2910 H 0.86731 0.42192 0.20713
 H2911 H 0.90676 0.36658 0.21732
 H2912 H 0.89351 0.35070 0.18385
 H2913 H 0.92044 0.37371 0.28250
 H2914 H 0.93168 0.38869 0.31720
 H2915 H 0.91663 0.45179 0.29423
 H2916 H 0.90451 0.43648 0.25997
 C2917 C 0.35335 0.88354 0.19629
 C2918 C 0.36067 0.89385 0.21485
 C2919 C 0.38164 0.89084 0.22192
 C2920 C 0.39533 0.87718 0.21023
 C2921 C 0.38795 0.86660 0.19173
 C2922 C 0.36687 0.86972 0.18454
 N2923 N 0.38834 0.90142 0.24127
 N2924 N 0.40772 0.90162 0.24742
 C2925 C 0.41403 0.91168 0.26722
 C2926 C 0.43575 0.91298 0.27218
 C2927 C 0.44238 0.92162 0.29188
 C2928 C 0.42732 0.92893 0.30714
 C2929 C 0.40550 0.92808 0.30188
 C2930 C 0.39890 0.91957 0.28208
 H2931 H 0.33699 0.88622 0.19131
 H2932 H 0.34996 0.90426 0.22379
 H2933 H 0.41161 0.87452 0.21550
 H2934 H 0.39874 0.85609 0.18302
 H2935 H 0.44756 0.90705 0.26082
 H2936 H 0.45932 0.92239 0.29528
 H2937 H 0.39349 0.93330 0.31336
 H2938 H 0.38198 0.91867 0.27864
 C2939 C 0.36044 0.39006 0.68636
 C2940 C 0.36865 0.39890 0.70535
 C2941 C 0.38414 0.38804 0.71726
 C2942 C 0.39169 0.36823 0.70976
 C2943 C 0.38378 0.35947 0.69057
 C2944 C 0.36788 0.37018 0.67862
 N2945 N 0.39190 0.39745 0.73684
 N2946 N 0.40298 0.38699 0.75037
 C2947 C 0.41088 0.39646 0.76988
 C2948 C 0.41917 0.38328 0.78594
 C2949 C 0.42672 0.39194 0.80530
 C2950 C 0.42649 0.41410 0.80881
 C2951 C 0.41833 0.42732 0.79248
 C2952 C 0.41048 0.41858 0.77324
 H2953 H 0.34832 0.39896 0.67774
 H2954 H 0.36275 0.41421 0.71095
 H2955 H 0.40379 0.35959 0.71867
 H2956 H 0.39001 0.34419 0.68527
 H2957 H 0.41948 0.36620 0.78356
 H2958 H 0.43242 0.38121 0.81763
 H2959 H 0.41823 0.44444 0.79444
 H2960 H 0.40430 0.42911 0.76095
 C2961 C 1.14956 0.88394 1.30362
 C2962 C 1.14124 0.89427 1.28562
 C2963 C 1.12199 0.88774 1.27649
 C2964 C 1.11095 0.87062 1.28563
 C2965 C 1.11944 0.85995 1.30352
 C2966 C 1.13898 0.86640 1.31273
 N2967 N 1.11457 0.89831 1.25751
 N2968 N 1.09573 0.89616 1.25019
 C2969 C 1.08910 0.90636 1.23067
 C2970 C 1.06739 0.90699 1.22547
 C2971 C 1.06053 0.91614 1.20616
 C2972 C 1.07537 0.92449 1.19142
 C2973 C 1.09717 0.92409 1.19688
 C2974 C 1.10396 0.91522 1.21636
 H2975 H 1.16460 0.88957 1.31004
 H2976 H 1.14989 0.90741 1.27868
 H2977 H 1.09605 0.86525 1.27870
 H2978 H 1.11073 0.84661 1.30999
 H2979 H 1.05577 0.90032 1.23639
 H2980 H 1.04359 0.91657 1.20274
 H2981 H 1.10907 0.93002 1.18583
 H2982 H 1.12087 0.91479 1.21997
 C2983 C 1.11074 0.35491 0.80679
 C2984 C 1.10086 0.36346 0.78852
 C2985 C 1.11190 0.37739 0.77510
 C2986 C 1.13299 0.38296 0.78035
 C2987 C 1.14282 0.37462 0.79877
 C2988 C 1.13185 0.36038 0.81214
 N2989 N 1.10139 0.38561 0.75631
 N2990 N 1.11132 0.39615 0.74206
 C2991 C 1.10097 0.40457 0.72329
 C2992 C 1.11349 0.41361 0.70714
 C2993 C 1.10403 0.42198 0.68860
 C2994 C 1.08170 0.42176 0.68593
 C2995 C 1.06913 0.41266 0.70225
 C2996 C 1.07867 0.40408 0.72073
 H2997 H 1.10178 0.34408 0.81677
 H2998 H 1.08459 0.35907 0.78470
 H2999 H 1.14185 0.39378 0.77028
 H3000 H 1.15909 0.37915 0.80238
 H3001 H 1.13069 0.41400 0.70886
 H3002 H 1.11428 0.42840 0.67622
 H3003 H 1.05190 0.41244 0.70088
 H3004 H 1.06862 0.39727 0.73306
 C3005 C 0.61510 0.84719 0.80133
 C3006 C 0.60536 0.85433 0.78240
 C3007 C 0.60950 0.87471 0.77462
 C3008 C 0.62349 0.88803 0.78611
 C3009 C 0.63345 0.88082 0.80492
 C3010 C 0.62945 0.86027 0.81269
 N3011 N 0.59994 0.88120 0.75470
 N3012 N 0.60124 0.90018 0.74788
 C3013 C 0.59244 0.90654 0.72756
 C3014 C 0.59230 0.92811 0.72228
 C3015 C 0.58466 0.93479 0.70224
 C3016 C 0.57725 0.91992 0.68692
 C3017 C 0.57720 0.89824 0.69240
 C3018 C 0.58465 0.89160 0.71256
 H3019 H 0.61172 0.83125 0.80680
 H3020 H 0.59466 0.84390 0.77365
 H3021 H 0.62702 0.90384 0.78037
 H3022 H 0.64435 0.89132 0.81331
 H3023 H 0.59821 0.93977 0.73372
 H3024 H 0.58457 0.95164 0.69874
 H3025 H 0.57191 0.88632 0.68091
 H3026 H 0.58475 0.87480 0.71623
 C3027 C 0.64945 0.38062 1.30127
 C3028 C 0.64161 0.39017 1.28255
 C3029 C 0.62247 0.38337 1.27328
 C3030 C 0.61123 0.36666 1.28286
 C3031 C 0.61920 0.35680 1.30140
 C3032 C 0.63845 0.36365 1.31095
 N3033 N 0.61506 0.39339 1.25395
 N3034 N 0.59626 0.39064 1.24668
 C3035 C 0.58909 0.40018 1.22701
 C3036 C 0.56736 0.39964 1.22188
 C3037 C 0.55990 0.40837 1.20259
 C3038 C 0.57417 0.41753 1.18780
 C3039 C 0.59603 0.41808 1.19308
 C3040 C 0.60341 0.40960 1.21254
 H3041 H 0.66431 0.38643 1.30794
 H3042 H 0.65045 0.40300 1.27527
 H3043 H 0.59644 0.36103 1.27588
 H3044 H 0.61016 0.34387 1.30823
 H3045 H 0.55615 0.39247 1.23293
 H3046 H 0.54293 0.40800 1.19930
 H3047 H 0.60755 0.42461 1.18196
 H3048 H 0.62033 0.41004 1.21606
 C3049 C 0.88928 1.14653 1.31067
 C3050 C 0.89873 1.13866 1.29179
 C3051 C 0.88846 1.12324 1.27930
 C3052 C 0.86872 1.11527 1.28622
 C3053 C 0.85937 1.12282 1.30536
 C3054 C 0.86938 1.13880 1.31777
 N3055 N 0.89836 1.11611 1.25965
 N3056 N 0.88828 1.10543 1.24545
 C3057 C 0.89815 1.09821 1.22582
 C3058 C 0.88525 1.08990 1.20944
 C3059 C 0.89426 1.08266 1.19009
 C3060 C 0.91651 1.08319 1.18686
 C3061 C 0.92945 1.09166 1.20336
 C3062 C 0.92035 1.09919 1.22264
 H3063 H 0.89771 1.15868 1.31968
 H3064 H 0.91399 1.14486 1.28667
 H3065 H 0.86055 1.10319 1.27687
 H3066 H 0.84411 1.11637 1.31017
 H3067 H 0.86812 1.08920 1.21163
 H3068 H 0.88370 1.07676 1.17760
 H3069 H 0.94663 1.09210 1.20156
 H3070 H 0.93067 1.10548 1.23514
 C3071 C 0.86014 0.60783 0.81549
 C3072 C 0.86745 0.59879 0.79614
 C3073 C 0.88024 0.61049 0.78211
 C3074 C 0.88605 0.63134 0.78788
 C3075 C 0.87899 0.64032 0.80737
 C3076 C 0.86579 0.62873 0.82131
 N3077 N 0.88701 0.60091 0.76215
 N3078 N 0.89595 0.61164 0.74739
 C3079 C 0.90298 0.60228 0.72743
 C3080 C 0.91027 0.61562 0.71111
 C3081 C 0.91749 0.60713 0.69151
 C3082 C 0.91784 0.58499 0.68792
 C3083 C 0.91035 0.57160 0.70434
 C3084 C 0.90292 0.58016 0.72391
 H3085 H 0.85011 0.59842 0.82590
 H3086 H 0.86292 0.58269 0.79193
 H3087 H 0.89603 0.64067 0.77735
 H3088 H 0.88359 0.65645 0.81135
 H3089 H 0.91028 0.63269 0.71358
 H3090 H 0.92267 0.61797 0.67909
 H3091 H 0.91061 0.55449 0.70222
 H3092 H 0.89743 0.56951 0.73635
 C3093 C 0.39357 1.13658 0.81324
 C3094 C 0.40331 1.12894 0.79439
 C3095 C 0.39389 1.11261 0.78237
 C3096 C 0.37493 1.10340 0.78980
 C3097 C 0.36537 1.11069 0.80887
 C3098 C 0.37434 1.12767 0.82071
 N3099 N 0.40361 1.10590 0.76252
 N3100 N 0.39335 1.09508 0.74858
 C3101 C 0.40269 1.08808 0.72867
 C3102 C 0.38930 1.08031 0.71244
 C3103 C 0.39776 1.07340 0.69274
 C3104 C 0.41994 1.07369 0.68905
 C3105 C 0.43339 1.08148 0.70549
 C3106 C 0.42483 1.08874 0.72509
 H3107 H 0.40117 1.14952 0.82187
 H3108 H 0.41798 1.13609 0.78885
 H3109 H 0.36747 1.09059 0.78086
 H3110 H 0.35068 1.10328 0.81399
 H3111 H 0.37221 1.07986 0.71499
 H3112 H 0.38684 1.06804 0.68033
 H3113 H 0.45054 1.08166 0.70335
 H3114 H 0.43550 1.09456 0.73752
 C3115 C 0.34992 0.61481 1.30399
 C3116 C 0.35644 0.60495 1.28479
 C3117 C 0.37569 0.61048 1.27504
 C3118 C 0.38836 0.62635 1.28459
 C3119 C 0.38170 0.63657 1.30362
 C3120 C 0.36239 0.63088 1.31371
 N3121 N 0.38181 0.60002 1.25532
 N3122 N 0.40066 0.60120 1.24778
 C3123 C 0.40674 0.59128 1.22777
 C3124 C 0.42836 0.59046 1.22226
 C3125 C 0.43485 0.58178 1.20248
 C3126 C 0.41973 0.57408 1.18756
 C3127 C 0.39800 0.57453 1.19334
 C3128 C 0.39155 0.58299 1.21331
 H3129 H 0.33493 0.60991 1.31103
 H3130 H 0.34650 0.59280 1.27755
 H3131 H 0.40327 0.63100 1.27722
 H3132 H 0.39182 0.64879 1.31046
 H3133 H 0.44022 0.59667 1.23331
 H3134 H 0.45174 0.58127 1.19882
 H3135 H 0.38592 0.56897 1.18218
 H3136 H 0.37470 0.58354 1.21719
 C3137 C 1.14333 1.29973 0.88864
 C3138 C 1.13516 1.28165 0.89853
 C3139 C 1.11823 1.27057 0.88917
 C3140 C 1.10899 1.27820 0.87003
 C3141 C 1.11681 1.29659 0.86032
 C3142 C 1.13436 1.30747 0.86929
 N3143 N 1.11098 1.25151 0.89922
 N3144 N 1.09951 1.23805 0.88920
 C3145 C 1.09221 1.21894 0.89912
 C3146 C 1.08383 1.20287 0.88603
 C3147 C 1.07673 1.18392 0.89506
 C3148 C 1.07742 1.18084 0.91756
 C3149 C 1.08584 1.19711 0.93071
 C3150 C 1.09330 1.21595 0.92157
 H3151 H 1.15671 1.30761 0.89628
 H3152 H 1.14235 1.27597 0.91332
 H3153 H 1.09573 1.26995 0.86261
 H3154 H 1.10937 1.30196 0.84552
 H3155 H 1.08306 1.20493 0.86870
 H3156 H 1.07089 1.17160 0.88433
 H3157 H 1.08637 1.19544 0.94808
 H3158 H 1.09962 1.22825 0.93203
 C3159 C 1.15356 0.79294 0.37509
 C3160 C 1.14545 0.77442 0.38407
 C3161 C 1.12393 0.76933 0.38166
 C3162 C 1.11051 0.78283 0.36966
 C3163 C 1.11870 0.80135 0.36037
 C3164 C 1.14029 0.80670 0.36322
 N3165 N 1.11633 0.75037 0.39163
 N3166 N 1.09667 0.74550 0.39244
 C3167 C 1.08976 0.72628 0.40250
 C3168 C 1.06789 0.72227 0.40421
 C3169 C 1.06071 0.70344 0.41353
 C3170 C 1.07535 0.68817 0.42120
 C3171 C 1.09731 0.69239 0.41972
 C3172 C 1.10446 0.71127 0.41050
 H3173 H 1.17031 0.79645 0.37745
 H3174 H 1.15595 0.76408 0.39318
 H3175 H 1.09379 0.77910 0.36749
 H3176 H 1.10809 0.81165 0.35134
 H3177 H 1.05640 0.73373 0.39824
 H3178 H 1.04369 0.70081 0.41471
 H3179 H 1.10901 0.68086 0.42516
 H3180 H 1.12147 0.71396 0.40933
 C3181 C 0.61729 1.29907 0.35333
 C3182 C 0.60776 1.28066 0.36126
 C3183 C 0.61504 1.27140 0.38035
 C3184 C 0.63216 1.28071 0.39150
 C3185 C 0.64199 1.29893 0.38345
 C3186 C 0.63471 1.30842 0.36420
 N3187 N 0.60514 1.25231 0.38777
 N3188 N 0.60849 1.24491 0.40655
 C3189 C 0.59909 1.22545 0.41364
 C3190 C 0.60018 1.22017 0.43551
 C3191 C 0.59152 1.20110 0.44288
 C3192 C 0.58188 1.18672 0.42837
 C3193 C 0.58087 1.19212 0.40636
 C3194 C 0.58926 1.21134 0.39909
 H3195 H 0.61114 1.30572 0.33848
 H3196 H 0.59460 1.27360 0.35248
 H3197 H 0.63816 1.27375 0.40626
 H3198 H 0.65527 1.30553 0.39240
 H3199 H 0.60768 1.23092 0.44690
 H3200 H 0.59228 1.19771 0.45997
 H3201 H 0.57401 1.18131 0.39463
 H3202 H 0.58842 1.21496 0.38205
 C3203 C 0.65095 0.79506 0.88355
 C3204 C 0.64404 0.77623 0.89310
 C3205 C 0.62355 0.76846 0.88893
 C3206 C 0.61001 0.77969 0.87489
 C3207 C 0.61698 0.79836 0.86512
 C3208 C 0.63752 0.80629 0.86936
 N3209 N 0.61698 0.74902 0.89878
 N3210 N 0.59774 0.74269 0.89783
 C3211 C 0.59099 0.72301 0.90701
 C3212 C 0.56919 0.71839 0.90738
 C3213 C 0.56203 0.69903 0.91547
 C3214 C 0.57664 0.68374 0.92312
 C3215 C 0.59856 0.68854 0.92293
 C3216 C 0.60568 0.70803 0.91501
 H3217 H 0.66688 0.80068 0.88709
 H3218 H 0.65465 0.76768 0.90383
 H3219 H 0.59413 0.77396 0.87131
 H3220 H 0.60621 0.80664 0.85434
 H3221 H 0.55771 0.72983 0.90132
 H3222 H 0.54503 0.69604 0.91573
 H3223 H 0.61027 0.67704 0.92838
 H3224 H 0.62264 0.71120 0.91475
 C3225 C 0.85579 1.30622 1.11033
 C3226 C 0.86244 1.28647 1.10236
 C3227 C 0.88270 1.27851 1.10733
 C3228 C 0.89627 1.29044 1.12079
 C3229 C 0.88950 1.31016 1.12910
 C3230 C 0.86923 1.31831 1.12379
 N3231 N 0.88887 1.25823 1.09864
 N3232 N 0.90792 1.25117 1.09961
 C3233 C 0.91361 1.23066 1.09108
 C3234 C 0.93516 1.22480 1.09017
 C3235 C 0.94119 1.20473 1.08238
 C3236 C 0.92569 1.18999 1.07560
 C3237 C 0.90404 1.19605 1.07631
 C3238 C 0.89805 1.21622 1.08390
 H3239 H 0.84001 1.31194 1.10607
 H3240 H 0.85182 1.27737 1.09210
 H3241 H 0.91199 1.28450 1.12496
 H3242 H 0.90020 1.31912 1.13940
 H3243 H 0.94730 1.23582 1.09553
 H3244 H 0.95802 1.20074 1.08170
 H3245 H 0.89168 1.18502 1.07153
 H3246 H 0.88126 1.22035 1.08453
 C3247 C 0.89800 0.81581 0.63055
 C3248 C 0.90660 0.79657 0.62302
 C3249 C 0.89416 0.78261 0.61075
 C3250 C 0.87306 0.78835 0.60554
 C3251 C 0.86451 0.80772 0.61283
 C3252 C 0.87680 0.82155 0.62565
 N3253 N 0.90321 0.76261 0.60412
 N3254 N 0.89197 0.74803 0.59553
 C3255 C 0.90091 0.72798 0.58896
 C3256 C 0.88717 0.71194 0.58187
 C3257 C 0.89527 0.69211 0.57551
 C3258 C 0.91739 0.68801 0.57589
 C3259 C 0.93117 0.70420 0.58301
 C3260 C 0.92301 0.72399 0.58955
 H3261 H 0.90795 0.82614 0.64028
 H3262 H 0.92290 0.79236 0.62708
 H3263 H 0.86316 0.77785 0.59596
 H3264 H 0.84813 0.81164 0.60881
 H3265 H 0.87011 0.71478 0.58146
 H3266 H 0.88416 0.67991 0.57052
 H3267 H 0.94829 0.70168 0.58323
 H3268 H 0.93397 0.73619 0.59489
 C3269 C 0.36082 1.30689 0.60422
 C3270 C 0.36881 1.28766 0.59605
 C3271 C 0.38395 1.27600 0.60766
 C3272 C 0.39147 1.28403 0.62744
 C3273 C 0.38378 1.30345 0.63552
 C3274 C 0.36814 1.31510 0.62414
 N3275 N 0.39128 1.25604 0.59907
 N3276 N 0.40206 1.24293 0.61029
 C3277 C 0.40943 1.22301 0.60163
 C3278 C 0.41764 1.20773 0.61570
 C3279 C 0.42455 1.18796 0.60783
 C3280 C 0.42368 1.18323 0.58559
 C3281 C 0.41567 1.19879 0.57146
 C3282 C 0.40849 1.21845 0.57941
 H3283 H 0.34892 1.31529 0.59481
 H3284 H 0.36295 1.28164 0.58074
 H3285 H 0.40330 1.27533 0.63663
 H3286 H 0.38992 1.30911 0.65085
 H3287 H 0.41838 1.21104 0.63286
 H3288 H 0.43024 1.17627 0.61925
 H3289 H 0.41513 1.19589 0.55422
 H3290 H 0.40237 1.23011 0.56818
 C3291 C 0.39098 0.80562 1.13911
 C3292 C 0.40058 0.78691 1.13134
 C3293 C 0.39069 0.77483 1.11518
 C3294 C 0.37136 0.78204 1.10630
 C3295 C 0.36191 0.80089 1.11375
 C3296 C 0.37138 0.81284 1.13054
 N3297 N 0.40031 0.75518 1.10828
 N3298 N 0.38999 0.74164 1.09711
 C3299 C 0.39918 0.72192 1.08989
 C3300 C 0.38573 0.70633 1.08136
 C3301 C 0.39402 0.68679 1.07437
 C3302 C 0.41610 0.68258 1.07542
 C3303 C 0.42962 0.69843 1.08384
 C3304 C 0.42123 0.71788 1.09114
 H3305 H 0.39895 0.81432 1.15191
 H3306 H 0.41554 0.78156 1.13825
 H3307 H 0.36350 0.77308 1.09364
 H3308 H 0.34691 0.80579 1.10657
 H3309 H 0.36870 0.70925 1.08040
 H3310 H 0.38304 0.67487 1.06844
 H3311 H 0.44672 0.69592 1.08456
 H3312 H 0.43196 0.72979 1.09752
 C3313 C 0.86451 0.69016 0.89957
 C3314 C 0.87261 0.70891 0.90842
 C3315 C 0.88462 0.72270 0.89578
 C3316 C 0.88900 0.71722 0.87415
 C3317 C 0.88113 0.69826 0.86532
 C3318 C 0.86854 0.68468 0.87788
 N3319 N 0.89181 0.74223 0.90524
 N3320 N 0.90024 0.75687 0.89412
 C3321 C 0.90725 0.77642 0.90370
 C3322 C 0.91438 0.79263 0.89026
 C3323 C 0.92124 0.81194 0.89902
 C3324 C 0.92131 0.81532 0.92152
 C3325 C 0.91403 0.79901 0.93501
 C3326 C 0.90702 0.77973 0.92619
 H3327 H 0.85501 0.67997 0.90975
 H3328 H 0.86920 0.71292 0.92511
 H3329 H 0.89837 0.72762 0.86409
 H3330 H 0.88447 0.69448 0.84856
 H3331 H 0.91450 0.79033 0.87291
 H3332 H 0.92631 0.82431 0.88813
 H3333 H 0.91410 0.80100 0.95239
 H3334 H 0.90161 0.76739 0.93693
 C3335 C 0.85985 0.19889 0.39444
 C3336 C 0.86811 0.21729 0.40396
 C3337 C 0.88488 0.22812 0.39419
 C3338 C 0.89398 0.21990 0.37513
 C3339 C 0.88607 0.20126 0.36579
 C3340 C 0.86858 0.19069 0.37506
 N3341 N 0.89202 0.24769 0.40357
 N3342 N 0.90325 0.26072 0.39292
 C3343 C 0.91046 0.28039 0.40198
 C3344 C 0.91859 0.29579 0.38815
 C3345 C 0.92539 0.31534 0.39631
 C3346 C 0.92461 0.31971 0.41863
 C3347 C 0.91657 0.30407 0.43252
 C3348 C 0.90942 0.28462 0.42426
 H3349 H 0.84654 0.19123 0.40228
 H3350 H 0.86104 0.22345 0.41871
 H3351 H 0.90713 0.22794 0.36741
 H3352 H 0.89336 0.19552 0.35098
 H3353 H 0.91933 0.29273 0.37094
 H3354 H 0.93100 0.32713 0.38504
 H3355 H 0.91604 0.30674 0.44980
 H3356 H 0.90331 0.27284 0.43527
 C3357 C 0.36864 0.69052 0.39167
 C3358 C 0.37761 0.70888 0.40047
 C3359 C 0.38890 0.72290 0.38741
 C3360 C 0.39194 0.71787 0.36544
 C3361 C 0.38323 0.69925 0.35664
 C3362 C 0.37110 0.68563 0.36960
 N3363 N 0.39638 0.74236 0.39678
 N3364 N 0.40388 0.75737 0.38548
 C3365 C 0.41087 0.77695 0.39506
 C3366 C 0.41711 0.79351 0.38159
 C3367 C 0.42364 0.81294 0.39036
 C3368 C 0.42423 0.81612 0.41288
 C3369 C 0.41790 0.79943 0.42639
 C3370 C 0.41124 0.78003 0.41757
 H3371 H 0.35952 0.68025 0.40211
 H3372 H 0.37524 0.71254 0.41742
 H3373 H 0.40075 0.72845 0.35505
 H3374 H 0.38533 0.69591 0.33959
 H3375 H 0.41674 0.79140 0.36422
 H3376 H 0.42803 0.82557 0.37947
 H3377 H 0.41842 0.80126 0.44378
 H3378 H 0.40650 0.76744 0.42835
 C3379 C 0.35961 0.18971 0.89503
 C3380 C 0.36705 0.20877 0.90402
 C3381 C 0.38385 0.21970 0.89433
 C3382 C 0.39359 0.21107 0.87581
 C3383 C 0.38647 0.19190 0.86699
 C3384 C 0.36916 0.18101 0.87628
 N3385 N 0.39069 0.23958 0.90336
 N3386 N 0.40256 0.25209 0.89275
 C3387 C 0.40993 0.27193 0.90134
 C3388 C 0.41914 0.28653 0.88730
 C3389 C 0.42644 0.30610 0.89501
 C3390 C 0.42503 0.31129 0.91712
 C3391 C 0.41595 0.29641 0.93124
 C3392 C 0.40833 0.27696 0.92341
 H3393 H 0.34635 0.18187 0.90280
 H3394 H 0.35946 0.21522 0.91837
 H3395 H 0.40675 0.21913 0.86813
 H3396 H 0.39440 0.18588 0.85264
 H3397 H 0.42040 0.28283 0.87024
 H3398 H 0.43288 0.31727 0.88355
 H3399 H 0.41494 0.29967 0.94840
 H3400 H 0.40145 0.26579 0.93461
 C3401 C 1.11866 0.70132 1.15140
 C3402 C 1.10893 0.72032 1.14499
 C3403 C 1.11439 0.72970 1.12540
 C3404 C 1.13007 0.72004 1.11233
 C3405 C 1.14013 0.70123 1.11886
 C3406 C 1.13448 0.69146 1.13845
 N3407 N 1.10400 0.74910 1.11925
 N3408 N 1.10528 0.75628 1.10014
 C3409 C 1.09548 0.77593 1.09388
 C3410 C 1.09489 0.78110 1.07199
 C3411 C 1.08620 0.80047 1.06530
 C3412 C 1.07823 0.81528 1.08050
 C3413 C 1.07857 0.80989 1.10251
 C3414 C 1.08704 0.79035 1.10915
 H3415 H 1.11383 0.69450 1.16663
 H3416 H 1.09692 0.72766 1.15525
 H3417 H 1.13469 0.72711 1.09717
 H3418 H 1.15217 0.69429 1.10836
 H3419 H 1.10125 0.77008 1.06006
 H3420 H 1.08580 0.80386 1.04820
 H3421 H 1.07284 0.82100 1.11467
 H3422 H 1.08744 0.78673 1.12621
 C3423 C 1.11231 0.20111 0.64642
 C3424 C 1.10295 0.22002 0.63939
 C3425 C 1.11063 0.23022 0.62108
 C3426 C 1.12814 0.22143 0.60987
 C3427 C 1.13789 0.20268 0.61714
 C3428 C 1.13005 0.19216 0.63551
 N3429 N 1.10060 0.24966 0.61452
 N3430 N 1.10333 0.25750 0.59587
 C3431 C 1.09362 0.27726 0.58974
 C3432 C 1.09339 0.28286 0.56796
 C3433 C 1.08455 0.30226 0.56151
 C3434 C 1.07616 0.31671 0.57686
 C3435 C 1.07622 0.31089 0.59876
 C3436 C 1.08476 0.29130 0.60513
 H3437 H 1.10572 0.19373 0.66066
 H3438 H 1.08951 0.22669 0.64819
 H3439 H 1.13444 0.22918 0.59572
 H3440 H 1.15146 0.19641 0.60824
 H3441 H 1.10005 0.27213 0.55593
 H3442 H 1.08436 0.30594 0.54447
 H3443 H 1.07024 0.32170 0.61106
 H3444 H 1.08489 0.28736 0.62211
 C3445 C 0.63218 0.68547 0.59962
 C3446 C 0.62559 0.70456 0.59020
 C3447 C 0.61283 0.71898 0.60177
 C3448 C 0.60614 0.71382 0.62274
 C3449 C 0.61245 0.69461 0.63207
 C3450 C 0.62578 0.68035 0.62072
 N3451 N 0.60712 0.73883 0.59207
 N3452 N 0.59878 0.75389 0.60309
 C3453 C 0.59274 0.77384 0.59387
 C3454 C 0.58588 0.79017 0.60768
 C3455 C 0.57937 0.80973 0.59939
 C3456 C 0.57933 0.81326 0.57698
 C3457 C 0.58655 0.79691 0.56310
 C3458 C 0.59325 0.77734 0.57148
 H3459 H 0.64235 0.67477 0.59041
 H3460 H 0.63078 0.70831 0.57401
 H3461 H 0.59612 0.72466 0.63196
 H3462 H 0.60728 0.69117 0.64835
 H3463 H 0.58556 0.78770 0.62496
 H3464 H 0.57438 0.82212 0.61057
 H3465 H 0.58654 0.79906 0.54578
 H3466 H 0.59847 0.76489 0.56049
 C3467 C 0.60608 0.19040 1.14146
 C3468 C 0.59697 0.20932 1.13399
 C3469 C 0.60730 0.22132 1.11828
 C3470 C 0.62677 0.21391 1.10969
 C3471 C 0.63574 0.19477 1.11682
 C3472 C 0.62564 0.18278 1.13300
 N3473 N 0.59775 0.24090 1.11136
 N3474 N 0.60814 0.25455 1.10062
 C3475 C 0.59870 0.27407 1.09340
 C3476 C 0.61201 0.29001 1.08559
 C3477 C 0.60344 0.30925 1.07837
 C3478 C 0.58120 0.31280 1.07839
 C3479 C 0.56784 0.29668 1.08624
 C3480 C 0.57651 0.27753 1.09379
 H3481 H 0.59763 0.18173 1.15381
 H3482 H 0.58193 0.21482 1.14068
 H3483 H 0.63498 0.22286 1.09739
 H3484 H 0.65076 0.18959 1.10982
 H3485 H 0.62915 0.28758 1.08530
 H3486 H 0.61431 0.32141 1.07297
 H3487 H 0.55066 0.29868 1.08622
 H3488 H 0.56587 0.26536 1.09963
 C3489 C 1.31127 1.10348 0.86631
 C3490 C 1.29233 1.09406 0.87318
 C3491 C 1.27793 1.10540 0.88621
 C3492 C 1.28296 1.12623 0.89280
 C3493 C 1.30205 1.13558 0.88619
 C3494 C 1.31631 1.12439 0.87267
 N3495 N 1.25831 1.09555 0.89237
 N3496 N 1.24323 1.10612 0.90120
 C3497 C 1.22355 1.09660 0.90764
 C3498 C 1.20698 1.10982 0.91488
 C3499 C 1.18766 1.10121 0.92166
 C3500 C 1.18461 1.07905 0.92164
 C3501 C 1.20123 1.06576 0.91411
 C3502 C 1.22054 1.07446 0.90712
 H3503 H 1.32197 1.09438 0.85601
 H3504 H 1.28868 1.07798 0.86807
 H3505 H 1.27214 1.13528 0.90299
 H3506 H 1.30544 1.15171 0.89133
 H3507 H 1.20906 1.12691 0.91521
 H3508 H 1.17507 1.11195 0.92686
 H3509 H 1.19948 1.04864 0.91407
 H3510 H 1.23317 1.06390 0.90163
 C3511 C 1.30050 0.64956 0.38738
 C3512 C 1.28173 0.64291 0.39734
 C3513 C 1.27351 0.62273 0.39299
 C3514 C 1.28419 0.60920 0.37833
 C3515 C 1.30280 0.61595 0.36807
 C3516 C 1.31117 0.63620 0.37253
 N3517 N 1.25403 0.61658 0.40317
 N3518 N 1.24751 0.59747 0.40270
 C3519 C 1.22761 0.59144 0.41211
 C3520 C 1.22278 0.56985 0.41362
 C3521 C 1.20305 0.56343 0.42169
 C3522 C 1.18763 0.57859 0.42810
 C3523 C 1.19271 0.60031 0.42692
 C3524 C 1.21256 0.60669 0.41908
 H3525 H 1.30647 0.66530 0.39106
 H3526 H 1.27356 0.65350 0.40853
 H3527 H 1.27802 0.59356 0.37459
 H3528 H 1.31069 0.60530 0.35676
 H3529 H 1.23429 0.55796 0.40837
 H3530 H 1.19982 0.54658 0.42277
 H3531 H 1.18112 0.61240 0.43142
 H3532 H 1.21591 0.62351 0.41793
 C3533 C 0.79925 1.15169 0.38519
 C3534 C 0.78020 1.14403 0.39369
 C3535 C 0.77327 1.12354 0.38859
 C3536 C 0.78550 1.11076 0.37445
 C3537 C 0.80451 1.11854 0.36564
 C3538 C 0.81166 1.13904 0.37108
 N3539 N 0.75374 1.11631 0.39793
 N3540 N 0.74766 1.09708 0.39668
 C3541 C 0.72789 1.09036 0.40601
 C3542 C 0.72314 1.06868 0.40638
 C3543 C 0.70386 1.06168 0.41508
 C3544 C 0.68880 1.07633 0.42338
 C3545 C 0.69372 1.09812 0.42314
 C3546 C 0.71310 1.10507 0.41461
 H3547 H 0.80418 1.16761 0.38960
 H3548 H 0.77086 1.15404 0.40447
 H3549 H 0.78036 1.09487 0.37019
 H3550 H 0.81373 1.10843 0.35485
 H3551 H 0.73444 1.05718 0.39991
 H3552 H 0.70076 1.04476 0.41533
 H3553 H 0.68239 1.10985 0.42907
 H3554 H 0.71636 1.12196 0.41443
 C3555 C 0.80189 0.64246 0.89578
 C3556 C 0.78297 0.63503 0.90478
 C3557 C 0.77507 0.61508 0.89894
 C3558 C 0.78642 0.60243 0.88398
 C3559 C 0.80526 0.60996 0.87472
 C3560 C 0.81314 0.63013 0.88045
 N3561 N 0.75509 0.60850 0.90775
 N3562 N 0.74804 0.58970 0.90539
 C3563 C 0.72758 0.58372 0.91354
 C3564 C 0.72195 0.56225 0.91343
 C3565 C 0.70178 0.55603 0.92054
 C3566 C 0.68671 0.57129 0.92760
 C3567 C 0.69253 0.59286 0.92784
 C3568 C 0.71280 0.59902 0.92098
 H3569 H 0.80743 0.65810 0.90049
 H3570 H 0.77431 0.64492 0.91623
 H3571 H 0.78052 0.58697 0.87915
 H3572 H 0.81357 0.60007 0.86301
 H3573 H 0.73322 0.55032 0.90778
 H3574 H 0.69799 0.53926 0.92050
 H3575 H 0.68124 0.60507 0.93279
 H3576 H 0.71672 0.61576 0.92104
 C3577 C 1.30586 0.85685 1.10763
 C3578 C 1.28701 0.86475 1.09846
 C3579 C 1.27388 0.87880 1.11012
 C3580 C 1.27984 0.88499 1.13110
 C3581 C 1.29874 0.87734 1.14016
 C3582 C 1.31198 0.86319 1.12854
 N3583 N 1.25472 0.88676 1.10038
 N3584 N 1.24104 0.89736 1.11128
 C3585 C 1.22197 0.90588 1.10192
 C3586 C 1.20627 0.91435 1.11559
 C3587 C 1.18740 0.92275 1.10709
 C3588 C 1.18404 0.92311 1.08463
 C3589 C 1.20001 0.91480 1.07092
 C3590 C 1.21878 0.90615 1.07948
 H3591 H 1.31576 0.84604 1.09824
 H3592 H 1.28259 0.85988 1.08226
 H3593 H 1.27000 0.89589 1.14043
 H3594 H 1.30293 0.88248 1.15634
 H3595 H 1.20858 0.91419 1.13292
 H3596 H 1.17531 0.92860 1.11816
 H3597 H 1.19810 0.91514 1.05355
 H3598 H 1.23083 0.89987 1.06860
 C3599 C 1.30963 0.36663 0.59939
 C3600 C 1.29101 0.37513 0.59033
 C3601 C 1.27831 0.38946 0.60212
 C3602 C 1.28484 0.39583 0.62287
 C3603 C 1.30358 0.38759 0.63183
 C3604 C 1.31601 0.37262 0.62033
 N3605 N 1.25860 0.39683 0.59303
 N3606 N 1.24478 0.40669 0.60445
 C3607 C 1.22488 0.41406 0.59587
 C3608 C 1.20935 0.42177 0.61016
 C3609 C 1.18953 0.42865 0.60251
 C3610 C 1.18498 0.42823 0.58025
 C3611 C 1.20076 0.42066 0.56589
 C3612 C 1.22051 0.41354 0.57363
 H3613 H 1.31891 0.35523 0.59007
 H3614 H 1.28617 0.37015 0.57429
 H3615 H 1.27537 0.40700 0.63226
 H3616 H 1.30800 0.39253 0.64800
 H3617 H 1.21251 0.42214 0.62735
 H3618 H 1.17765 0.43395 0.61409
 H3619 H 1.19792 0.42043 0.54864
 H3620 H 1.23236 0.40775 0.56226
 C3621 C 0.80720 0.88965 0.64079
 C3622 C 0.78743 0.89738 0.63399
 C3623 C 0.77922 0.89148 0.61388
 C3624 C 0.79097 0.87748 0.60055
 C3625 C 0.81070 0.86944 0.60749
 C3626 C 0.81905 0.87553 0.62767
 N3627 N 0.75880 0.89970 0.60769
 N3628 N 0.75141 0.89775 0.58866
 C3629 C 0.73070 0.90583 0.58314
 C3630 C 0.72461 0.90640 0.56144
 C3631 C 0.70444 0.91407 0.55562
 C3632 C 0.68984 0.92102 0.57151
 C3633 C 0.69606 0.92042 0.59332
 C3634 C 0.71632 0.91299 0.59908
 H3635 H 0.81306 0.89456 0.65650
 H3636 H 0.77846 0.90809 0.64441
 H3637 H 0.78482 0.87262 0.58496
 H3638 H 0.81947 0.85861 0.59704
 H3639 H 0.73558 0.90100 0.54901
 H3640 H 0.70033 0.91465 0.53866
 H3641 H 0.68512 0.92526 0.60599
 H3642 H 0.72061 0.91255 0.61600
 C3643 C 0.81279 0.37194 1.09804
 C3644 C 0.79392 0.37985 1.08903
 C3645 C 0.78073 0.39359 1.10094
 C3646 C 0.78708 0.40019 1.12169
 C3647 C 0.80612 0.39258 1.13059
 C3648 C 0.81892 0.37801 1.11904
 N3649 N 0.76059 0.39988 1.09206
 N3650 N 0.74615 0.40842 1.10374
 C3651 C 0.72577 0.41447 1.09530
 C3652 C 0.70969 0.42055 1.10974
 C3653 C 0.68942 0.42603 1.10220
 C3654 C 0.68495 0.42586 1.07993
 C3655 C 0.70124 0.41987 1.06542
 C3656 C 0.72147 0.41412 1.07304
 H3657 H 0.82241 0.36085 1.08870
 H3658 H 0.78922 0.37473 1.07300
 H3659 H 0.77720 0.41095 1.13114
 H3660 H 0.81041 0.39751 1.14680
 H3661 H 0.71281 0.42073 1.12694
 H3662 H 0.67716 0.43014 1.11386
 H3663 H 0.69844 0.41986 1.04817
 H3664 H 0.73374 0.40955 1.06156
 C3665 C 0.68607 1.10631 1.13221
 C3666 C 0.70508 1.09751 1.12440
 C3667 C 0.71988 1.11018 1.11374
 C3668 C 0.71513 1.13180 1.11025
 C3669 C 0.69589 1.14060 1.11780
 C3670 C 0.68135 1.12799 1.12920
 N3671 N 0.73970 1.10074 1.10711
 N3672 N 0.75519 1.11166 1.10007
 C3673 C 0.77500 1.10200 1.09368
 C3674 C 0.79188 1.11506 1.08759
 C3675 C 0.81138 1.10618 1.08115
 C3676 C 0.81430 1.08397 1.08050
 C3677 C 0.79738 1.07086 1.08690
 C3678 C 0.77788 1.07979 1.09345
 H3679 H 0.67511 1.09613 1.14076
 H3680 H 0.70852 1.08084 1.12709
 H3681 H 0.72633 1.14187 1.10190
 H3682 H 0.69269 1.15734 1.11528
 H3683 H 0.78991 1.13218 1.08787
 H3684 H 0.82422 1.11674 1.07674
 H3685 H 0.79905 1.05371 1.08637
 H3686 H 0.76504 1.06934 1.09810
 C3687 C 0.68496 0.60222 0.63190
 C3688 C 0.70415 0.59297 0.62495
 C3689 C 0.71770 0.60397 0.61106
 C3690 C 0.71153 0.62415 0.60360
 C3691 C 0.69224 0.63330 0.61029
 C3692 C 0.67888 0.62257 0.62475
 N3693 N 0.73776 0.59461 0.60505
 N3694 N 0.75208 0.60543 0.59570
 C3695 C 0.77227 0.59662 0.58942
 C3696 C 0.78798 0.61034 0.58184
 C3697 C 0.80787 0.60243 0.57545
 C3698 C 0.81233 0.58048 0.57623
 C3699 C 0.79650 0.56670 0.58395
 C3700 C 0.77664 0.57471 0.59056
 H3701 H 0.67496 0.59350 0.64296
 H3702 H 0.70870 0.57738 0.63074
 H3703 H 0.72167 0.63291 0.59271
 H3704 H 0.68805 0.64899 0.60450
 H3705 H 0.78482 0.62727 0.58101
 H3706 H 0.81983 0.61355 0.57006
 H3707 H 0.79934 0.54971 0.58452
 H3708 H 0.76465 0.56379 0.59630
 C3709 C 0.19974 1.15198 0.61864
 C3710 C 0.21902 1.14440 0.61002
 C3711 C 0.22627 1.12382 0.61460
 C3712 C 0.21397 1.11083 0.62807
 C3713 C 0.19480 1.11847 0.63692
 C3714 C 0.18744 1.13914 0.63230
 N3715 N 0.24624 1.11670 0.60568
 N3716 N 0.25262 1.09747 0.60701
 C3717 C 0.27280 1.09049 0.59847
 C3718 C 0.27750 1.06871 0.59778
 C3719 C 0.29710 1.06137 0.58972
 C3720 C 0.31259 1.07576 0.58241
 C3721 C 0.30781 1.09768 0.58324
 C3722 C 0.28810 1.10497 0.59108
 H3723 H 0.19462 1.16799 0.61481
 H3724 H 0.22836 1.15461 0.59972
 H3725 H 0.21926 1.09488 0.63192
 H3726 H 0.18572 1.10813 0.64732
 H3727 H 0.26585 1.05737 0.60339
 H3728 H 0.30003 1.04439 0.58904
 H3729 H 0.31945 1.10927 0.57818
 H3730 H 0.28494 1.12191 0.59162
 C3731 C 0.19946 0.64872 1.11233
 C3732 C 0.21779 0.64084 1.10205
 C3733 C 0.22519 0.62023 1.10620
 C3734 C 0.21385 0.60738 1.12063
 C3735 C 0.19566 0.61530 1.13110
 C3736 C 0.18836 0.63613 1.12722
 N3737 N 0.24468 0.61308 1.09635
 N3738 N 0.25124 0.59394 1.09785
 C3739 C 0.27121 0.58700 1.08886
 C3740 C 0.27620 0.56529 1.08877
 C3741 C 0.29592 0.55806 1.08095
 C3742 C 0.31117 0.57252 1.07331
 C3743 C 0.30600 0.59435 1.07331
 C3744 C 0.28618 0.60152 1.08092
 H3745 H 0.19433 0.66484 1.10902
 H3746 H 0.22642 0.65091 1.09101
 H3747 H 0.21929 0.59140 1.12416
 H3748 H 0.18744 0.60516 1.14240
 H3749 H 0.26479 0.55394 1.09484
 H3750 H 0.29920 0.54114 1.08087
 H3751 H 0.31745 0.60598 1.06793
 H3752 H 0.28276 0.61842 1.08102
 C3753 C 0.69247 0.88692 0.85932
 C3754 C 0.71074 0.89724 0.86692
 C3755 C 0.72512 0.88669 0.88048
 C3756 C 0.72083 0.86569 0.88669
 C3757 C 0.70246 0.85544 0.87934
 C3758 C 0.68813 0.86588 0.86544
 N3759 N 0.74392 0.89751 0.88770
 N3760 N 0.75888 0.88770 0.89743
 C3761 C 0.77774 0.89805 0.90510
 C3762 C 0.79438 0.88553 0.91318
 C3763 C 0.81294 0.89493 0.92111
 C3764 C 0.81512 0.91720 0.92142
 C3765 C 0.79839 0.92978 0.91314
 C3766 C 0.77986 0.92029 0.90499
 H3767 H 0.68171 0.89545 0.84872
 H3768 H 0.71382 0.91344 0.86206
 H3769 H 0.73164 0.85721 0.89726
 H3770 H 0.69963 0.83924 0.88433
 H3771 H 0.79298 0.86837 0.91324
 H3772 H 0.82567 0.88471 0.92686
 H3773 H 0.79945 0.94696 0.91332
 H3774 H 0.76712 0.93030 0.89889
 C3775 C 0.70361 0.34815 0.38265
 C3776 C 0.72248 0.35591 0.39178
 C3777 C 0.73004 0.37606 0.38631
 C3778 C 0.71848 0.38845 0.37152
 C3779 C 0.69976 0.38062 0.36219
 C3780 C 0.69211 0.36037 0.36761
 N3781 N 0.74967 0.38337 0.39558
 N3782 N 0.75613 0.40236 0.39320
 C3783 C 0.77603 0.40960 0.40188
 C3784 C 0.78076 0.43129 0.40111
 C3785 C 0.80021 0.43885 0.40905
 C3786 C 0.81546 0.42474 0.41769
 C3787 C 0.81062 0.40292 0.41840
 C3788 C 0.79106 0.39543 0.41067
 H3789 H 0.69822 0.33247 0.38712
 H3790 H 0.73127 0.34619 0.40312
 H3791 H 0.72403 0.40405 0.36696
 H3792 H 0.69127 0.39048 0.35072
 H3793 H 0.76929 0.44238 0.39440
 H3794 H 0.80322 0.45577 0.40855
 H3795 H 0.82211 0.39154 0.42455
 H3796 H 0.78785 0.37855 0.41125
 C3797 C 0.20935 0.84743 0.37783
 C3798 C 0.22838 0.85513 0.38655
 C3799 C 0.23479 0.87598 0.38253
 C3800 C 0.22206 0.88912 0.36949
 C3801 C 0.20315 0.88137 0.36055
 C3802 C 0.19657 0.86046 0.36468
 N3803 N 0.25439 0.88333 0.39166
 N3804 N 0.25993 0.90273 0.39082
 C3805 C 0.27977 0.90985 0.39961
 C3806 C 0.28377 0.93168 0.40081
 C3807 C 0.30306 0.93909 0.40924
 C3808 C 0.31877 0.92469 0.41641
 C3809 C 0.31471 0.90275 0.41503
 C3810 C 0.29536 0.89539 0.40681
 H3811 H 0.20478 0.83122 0.38123
 H3812 H 0.23813 0.84487 0.39653
 H3813 H 0.22677 0.90528 0.36609
 H3814 H 0.19362 0.89182 0.35054
 H3815 H 0.27185 0.94296 0.39531
 H3816 H 0.30558 0.95608 0.41033
 H3817 H 0.32663 0.89123 0.41999
 H3818 H 0.29270 0.87842 0.40585
 C3819 C 0.20346 0.34698 0.87926
 C3820 C 0.22277 0.35461 0.88731
 C3821 C 0.22992 0.37483 0.88174
 C3822 C 0.21759 0.38738 0.86769
 C3823 C 0.19832 0.37962 0.85934
 C3824 C 0.19099 0.35936 0.86517
 N3825 N 0.24979 0.38198 0.89050
 N3826 N 0.25631 0.40100 0.88866
 C3827 C 0.27643 0.40753 0.89745
 C3828 C 0.28163 0.42912 0.89757
 C3829 C 0.30117 0.43593 0.90600
 C3830 C 0.31601 0.42117 0.91426
 C3831 C 0.31070 0.39947 0.91408
 C3832 C 0.29109 0.39272 0.90585
 H3833 H 0.19841 0.33124 0.88398
 H3834 H 0.23216 0.34478 0.89805
 H3835 H 0.22290 0.40305 0.86308
 H3836 H 0.18908 0.38954 0.84855
 H3837 H 0.27046 0.44071 0.89123
 H3838 H 0.30457 0.45279 0.90618
 H3839 H 0.32187 0.38762 0.91992
 H3840 H 0.28751 0.37590 0.90581
   
