data_POSCAR
  _audit_creation_date              2014-09-24
  _audit_creation_method            'ToBaCCo'
  _symmetry_space_group_name_H-M    'P1'
  _symmetry_Int_Tables_number       1
  _symmetry_cell_setting            triclinic
  loop_
  _symmetry_equiv_pos_as_xyz
 x,y,z
_cell_length_a 55.1520
_cell_length_b 55.0309
_cell_length_c 55.0398
_cell_angle_alpha 89.905700
_cell_angle_beta 90.016600
_cell_angle_gamma 90.044100
loop_
  _atom_site_label
  _atom_site_type_symbol
  _atom_site_fract_x
  _atom_site_fract_y
  _atom_site_fract_z
C1 C 0.26108 0.94816 -0.02178
 C2 C 0.25786 0.93644 0.00072
 C3 C 0.26254 0.94818 0.02273
 C4 C 0.26957 0.97288 0.02271
 C5 C 0.27147 0.98567 0.00040
 C6 C 0.26724 0.97335 -0.02191
 C7 C 0.26798 0.98695 -0.04358
 C8 C 0.27441 1.01133 -0.04360
 C9 C 0.27863 1.02394 -0.02182
 C10 C 0.27736 1.01092 0.00044
 C11 C 0.27448 0.98520 0.04450
 C12 C 0.28117 1.00952 0.04445
 C13 C 0.28187 1.02306 0.02277
 C14 C 0.28825 1.04809 0.02272
 C15 C 0.29130 1.05996 0.00036
 C16 C 0.28517 1.04894 -0.02176
 H17 H 0.26329 0.97907 -0.06091
 H18 H 0.27623 1.02010 -0.06110
 H19 H 0.27333 0.97618 0.06192
 H20 H 0.28602 1.01751 0.06171
 H21 H 0.25334 0.91726 0.00125
 H22 H 0.29508 1.07931 0.00042
 C23 C 0.76927 0.45024 0.47952
 C24 C 0.76754 0.43773 0.50161
 C25 C 0.77007 0.44974 0.52386
 C26 C 0.77398 0.47516 0.52419
 C27 C 0.77537 0.48815 0.50194
 C28 C 0.77305 0.47568 0.47952
 C29 C 0.77400 0.48904 0.45773
 C30 C 0.77732 0.51410 0.45791
 C31 C 0.77942 0.52684 0.47989
 C32 C 0.77863 0.51376 0.50212
 C33 C 0.77597 0.48802 0.54618
 C34 C 0.77946 0.51306 0.54633
 C35 C 0.78055 0.52631 0.52454
 C36 C 0.78351 0.55183 0.52451
 C37 C 0.78478 0.56434 0.50247
 C38 C 0.78230 0.55237 0.48028
 H39 H 0.77196 0.48032 0.44025
 H40 H 0.77821 0.52341 0.44060
 H41 H 0.77469 0.47891 0.56355
 H42 H 0.78124 0.52194 0.56377
 H43 H 0.76452 0.41825 0.50148
 H44 H 0.78625 0.58401 0.50264
 C45 C 0.76353 1.02276 1.05378
 C46 C 0.76678 1.00103 1.06642
 C47 C 0.76767 0.97840 1.05456
 C48 C 0.76635 0.97795 1.02863
 C49 C 0.76311 1.00009 1.01560
 C50 C 0.76130 1.02244 1.02829
 C51 C 0.75703 1.04396 1.01520
 C52 C 0.75569 1.04381 0.99005
 C53 C 0.75873 1.02218 0.97693
 C54 C 0.76199 1.00001 0.98977
 C55 C 0.76982 0.95642 1.01521
 C56 C 0.76863 0.95635 0.98988
 C57 C 0.76444 0.97788 0.97680
 C58 C 0.76339 0.97811 0.95105
 C59 C 0.76035 1.00019 0.93877
 C60 C 0.75829 1.02214 0.95126
 H61 H 0.75462 1.06121 1.02428
 H62 H 0.75221 1.06093 0.98101
 H63 H 0.77416 0.93944 1.02407
 H64 H 0.77149 0.93927 0.98060
 H65 H 0.76745 1.00185 1.08610
 H66 H 0.75978 1.00034 0.91906
 C67 C 0.26224 0.47543 0.55176
 C68 C 0.26013 0.49760 0.56402
 C69 C 0.25789 0.51958 0.55150
 C70 C 0.25740 0.51958 0.52583
 C71 C 0.25983 0.49733 0.51303
 C72 C 0.26230 0.47514 0.52599
 C73 C 0.26520 0.45343 0.51285
 C74 C 0.26522 0.45344 0.48748
 C75 C 0.26232 0.47515 0.47427
 C76 C 0.25980 0.49733 0.48720
 C77 C 0.25405 0.54121 0.51267
 C78 C 0.25400 0.54120 0.48745
 C79 C 0.25729 0.51957 0.47435
 C80 C 0.25769 0.51958 0.44869
 C81 C 0.26002 0.49764 0.43620
 C82 C 0.26230 0.47546 0.44849
 H83 H 0.26769 0.43623 0.52207
 H84 H 0.26774 0.43625 0.47831
 H85 H 0.25125 0.55841 0.52173
 H86 H 0.25117 0.55841 0.47835
 H87 H 0.26018 0.49776 0.58373
 H88 H 0.26008 0.49785 0.41648
 C89 C 0.94089 0.25921 -0.01704
 C90 C 0.92975 0.26223 0.00570
 C91 C 0.94285 0.26197 0.02741
 C92 C 0.96836 0.25970 0.02669
 C93 C 0.98036 0.25681 0.00405
 C94 C 0.96663 0.25645 -0.01790
 C95 C 0.97926 0.25489 -0.04002
 C96 C 1.00431 0.25248 -0.04068
 C97 C 1.01838 0.25348 -0.01938
 C98 C 1.00621 0.25496 0.00336
 C99 C 0.98224 0.26143 0.04797
 C100 C 1.00734 0.25944 0.04731
 C101 C 1.01978 0.25503 0.02540
 C102 C 1.04550 0.25253 0.02470
 C103 C 1.05697 0.25117 0.00194
 C104 C 1.04417 0.25209 -0.02011
 H105 H 0.97012 0.25593 -0.05733
 H106 H 1.01238 0.24974 -0.05833
 H107 H 0.97386 0.26496 0.06538
 H108 H 1.01684 0.26217 0.06424
 H109 H 0.91014 0.26347 0.00677
 H110 H 1.07657 0.24961 0.00137
 C111 C 0.53998 0.75520 0.52493
 C112 C 0.55220 0.75493 0.50262
 C113 C 0.53967 0.75540 0.48050
 C114 C 0.51398 0.75576 0.48055
 C115 C 0.50127 0.75610 0.50299
 C116 C 0.51429 0.75605 0.52525
 C117 C 0.50130 0.75751 0.54719
 C118 C 0.47607 0.75825 0.54735
 C119 C 0.46275 0.75755 0.52559
 C120 C 0.47547 0.75673 0.50316
 C121 C 0.50067 0.75564 0.45876
 C122 C 0.47546 0.75654 0.45892
 C123 C 0.46246 0.75694 0.48087
 C124 C 0.43682 0.75810 0.48118
 C125 C 0.42463 0.75886 0.50344
 C126 C 0.43707 0.75841 0.52559
 H127 H 0.51051 0.75843 0.56451
 H128 H 0.46712 0.75970 0.56477
 H129 H 0.50957 0.75487 0.44128
 H130 H 0.46631 0.75705 0.44155
 H131 H 0.57186 0.75448 0.50248
 H132 H 0.40496 0.75948 0.50352
 C133 C -0.03340 0.72690 0.05392
 C134 C -0.01142 0.72647 0.06680
 C135 C 0.01084 0.73031 0.05526
 C136 C 0.01157 0.73445 0.02990
 C137 C -0.01021 0.73355 0.01630
 C138 C -0.03256 0.72887 0.02819
 C139 C -0.05319 0.72449 0.01387
 C140 C -0.05273 0.72815 -0.01103
 C141 C -0.03159 0.73630 -0.02279
 C142 C -0.00967 0.73714 -0.00932
 C143 C 0.03347 0.73915 0.01775
 C144 C 0.03395 0.74318 -0.00719
 C145 C 0.01273 0.74144 -0.02133
 C146 C 0.01303 0.74508 -0.04694
 C147 C -0.00913 0.74576 -0.05950
 C148 C -0.03145 0.74179 -0.04797
 H149 H -0.06988 0.71779 0.02175
 H150 H -0.06912 0.72404 -0.02099
 H151 H 0.05054 0.73991 0.02738
 H152 H 0.05121 0.74802 -0.01512
 H153 H -0.01154 0.72499 0.08645
 H154 H -0.00900 0.74927 -0.07890
 C155 C 0.51681 0.27383 0.45275
 C156 C 0.49471 0.27528 0.44037
 C157 C 0.47265 0.27417 0.45272
 C158 C 0.47240 0.27195 0.47825
 C159 C 0.49463 0.27055 0.49114
 C160 C 0.51696 0.27145 0.47837
 C161 C 0.53874 0.26985 0.49155
 C162 C 0.53861 0.26650 0.51664
 C163 C 0.51669 0.26532 0.52964
 C164 C 0.49450 0.26755 0.51676
 C165 C 0.45047 0.27037 0.49111
 C166 C 0.45033 0.26752 0.51617
 C167 C 0.47211 0.26612 0.52936
 C168 C 0.47206 0.26258 0.55476
 C169 C 0.49397 0.25997 0.56718
 C170 C 0.51624 0.26131 0.55507
 H171 H 0.55615 0.27098 0.48258
 H172 H 0.55592 0.26465 0.52567
 H173 H 0.43315 0.27111 0.48191
 H174 H 0.43288 0.26602 0.52502
 H175 H 0.49464 0.27642 0.42069
 H176 H 0.49369 0.25698 0.58667
 C177 C 0.94869 -0.01990 0.23832
 C178 C 0.93638 0.00218 0.24065
 C179 C 0.94884 0.02408 0.24350
 C180 C 0.97442 0.02406 0.24445
 C181 C 0.98727 0.00200 0.24128
 C182 C 0.97438 -0.02011 0.23817
 C183 C 0.98750 -0.04171 0.23470
 C184 C 1.01276 -0.04170 0.23499
 C185 C 1.02588 -0.02011 0.23878
 C186 C 1.01306 0.00205 0.24148
 C187 C 0.98741 0.04541 0.24939
 C188 C 1.01256 0.04541 0.24988
 C189 C 1.02589 0.02423 0.24466
 C190 C 1.05168 0.02431 0.24427
 C191 C 1.06390 0.00200 0.24256
 C192 C 1.05151 -0.02000 0.23972
 H193 H 0.97834 -0.05882 0.23156
 H194 H 1.02188 -0.05885 0.23209
 H195 H 0.97826 0.06232 0.25342
 H196 H 1.02133 0.06220 0.25498
 H197 H 0.91670 0.00232 0.24052
 H198 H 1.08357 0.00169 0.24237
 C199 C 0.45074 0.47680 0.73437
 C200 C 0.43790 0.49865 0.73619
 C201 C 0.44979 0.52102 0.73761
 C202 C 0.47540 0.52176 0.73754
 C203 C 0.48877 0.49983 0.73546
 C204 C 0.47643 0.47724 0.73379
 C205 C 0.49010 0.45585 0.73114
 C206 C 0.51538 0.45655 0.73075
 C207 C 0.52801 0.47865 0.73309
 C208 C 0.51453 0.50053 0.73511
 C209 C 0.48796 0.54384 0.73997
 C210 C 0.51312 0.54454 0.73955
 C211 C 0.52676 0.52316 0.73679
 C212 C 0.55235 0.52385 0.73610
 C213 C 0.56542 0.50219 0.73441
 C214 C 0.55372 0.47961 0.73301
 H215 H 0.48135 0.43836 0.72913
 H216 H 0.52492 0.43955 0.72837
 H217 H 0.47849 0.56087 0.74241
 H218 H 0.52176 0.56207 0.74160
 H219 H 0.41823 0.49825 0.73659
 H220 H 0.58508 0.50292 0.73429
 C221 C 1.02294 0.94977 0.73812
 C222 C 1.00028 0.93796 0.73854
 C223 C 0.97848 0.95073 0.73681
 C224 C 0.97883 0.97630 0.73474
 C225 C 1.00129 0.98885 0.73409
 C226 C 1.02342 0.97559 0.73520
 C227 C 1.04518 0.98832 0.73109
 C228 C 1.04549 1.01345 0.72843
 C229 C 1.02404 1.02719 0.72951
 C230 C 1.00156 1.01467 0.73143
 C231 C 0.95719 0.98956 0.73278
 C232 C 0.95747 1.01458 0.72976
 C233 C 0.97935 1.02774 0.72976
 C234 C 0.97969 1.05335 0.72617
 C235 C 1.00214 1.06508 0.72375
 C236 C 1.02431 1.05286 0.72635
 H237 H 1.06226 0.97899 0.72886
 H238 H 1.06278 1.02188 0.72451
 H239 H 0.93969 0.98069 0.73305
 H240 H 0.94019 1.02329 0.72668
 H241 H 0.99938 0.91841 0.74099
 H242 H 1.00230 1.08475 0.72241
 C243 C 0.52288 0.45265 0.24036
 C244 C 0.50087 0.43996 0.24069
 C245 C 0.47866 0.45204 0.23868
 C246 C 0.47824 0.47764 0.23644
 C247 C 0.50037 0.49080 0.23618
 C248 C 0.52279 0.47829 0.23798
 C249 C 0.54448 0.49169 0.23681
 C250 C 0.54419 0.51690 0.23472
 C251 C 0.52219 0.52971 0.23362
 C252 C 0.50006 0.51653 0.23398
 C253 C 0.45625 0.49043 0.23461
 C254 C 0.45596 0.51557 0.23216
 C255 C 0.47763 0.52901 0.23205
 C256 C 0.47751 0.55461 0.22967
 C257 C 0.49944 0.56729 0.22932
 C258 C 0.52167 0.55534 0.23158
 H259 H 0.56197 0.48282 0.23730
 H260 H 0.56143 0.52622 0.23368
 H261 H 0.43896 0.48114 0.23499
 H262 H 0.43851 0.52432 0.23026
 H263 H 0.50103 0.42032 0.24249
 H264 H 0.49916 0.58697 0.22804
 O265 O 0.25734 0.18611 0.21257
 O266 O 0.28287 0.17963 0.24671
 O267 O 0.19244 0.21388 0.24523
 O268 O 0.18208 0.24577 0.26823
 O269 O 0.22331 0.24805 0.18117
 O270 O 0.25405 0.27616 0.17551
 O271 O 0.25297 0.28254 0.30847
 O272 O 0.22577 0.24981 0.31429
 O273 O 0.31683 0.25072 0.27965
 O274 O 0.32639 0.22522 0.24749
 O275 O 0.28684 0.31298 0.24737
 O276 O 0.25289 0.31991 0.21906
 O277 O 0.25359 0.31193 0.27947
 O278 O 0.22581 0.31836 0.24370
 O279 O 0.31609 0.28402 0.24931
 O280 O 0.32114 0.25017 0.21635
 O281 O 0.28737 0.25213 0.30854
 O282 O 0.25833 0.22284 0.31589
 O283 O 0.25796 0.21496 0.18298
 O284 O 0.28588 0.25010 0.17873
 O285 O 0.19321 0.24780 0.20944
 O286 O 0.18583 0.27600 0.24377
 O287 O 0.22252 0.18573 0.24506
 O288 O 0.25693 0.17933 0.27301
 Zr289 Zr 0.25479 0.20573 0.24506
 O290 O 0.27641 0.22712 0.26786
 Zr291 Zr 0.21131 0.24726 0.24344
 O292 O 0.23106 0.27042 0.26688
 Zr293 Zr 0.25521 0.24819 0.20196
 O294 O 0.27649 0.27183 0.22331
 Zr295 Zr 0.25456 0.24997 0.28888
 O296 O 0.23228 0.22641 0.26803
 Zr297 Zr 0.29770 0.25080 0.24689
 O298 O 0.27832 0.22706 0.22391
 Zr299 Zr 0.25430 0.29271 0.24625
 O300 O 0.23274 0.27118 0.22265
 O301 O 0.23259 0.22521 0.22164
 O302 O 0.27696 0.27318 0.26924
 C303 C 0.25872 0.19272 0.19024
 C304 C 0.20007 0.19177 0.24562
 C305 C 0.20080 0.24823 0.18727
 C306 C 0.25305 0.30490 0.30178
 C307 C 0.30975 0.25176 0.30183
 C308 C 0.30911 0.30624 0.24912
 H309 H 0.28633 0.21639 0.27832
 H310 H 0.28679 0.28203 0.21268
 H311 H 0.22275 0.21449 0.21109
 H312 H 0.21968 0.27999 0.27690
 H313 H 0.21493 0.23620 0.30977
 H314 H 0.18789 0.25301 0.28359
 H315 H 0.33603 0.25944 0.22036
 H316 H 0.28103 0.24472 0.16222
 H317 H 0.24791 0.20912 0.31092
 H318 H 0.24214 0.18081 0.28307
 H319 H 0.26583 0.31640 0.20713
 H320 H 0.24346 0.28909 0.18207
 H321 H 0.29579 0.18533 0.23558
 H322 H 0.32086 0.21107 0.25710
 H323 H 0.19076 0.28755 0.23088
 H324 H 0.21446 0.31526 0.25726
 O325 O 0.74857 0.81654 0.22284
 O326 O 0.72187 0.82512 0.25765
 O327 O 0.81072 0.78684 0.25872
 O328 O 0.81894 0.75631 0.28375
 O329 O 0.78066 0.75118 0.19533
 O330 O 0.74777 0.72531 0.18958
 O331 O 0.74662 0.72236 0.32229
 O332 O 0.77474 0.75521 0.32789
 O333 O 0.68395 0.75429 0.29186
 O334 O 0.67786 0.78231 0.26207
 O335 O 0.71311 0.69215 0.26116
 O336 O 0.74729 0.68328 0.23398
 O337 O 0.74513 0.69268 0.29369
 O338 O 0.77354 0.68428 0.25932
 O339 O 0.68421 0.72153 0.26011
 O340 O 0.68065 0.75431 0.22850
 O341 O 0.71335 0.75435 0.32085
 O342 O 0.74557 0.78235 0.32890
 O343 O 0.74827 0.78650 0.19456
 O344 O 0.71770 0.75367 0.19117
 O345 O 0.80938 0.75164 0.22503
 O346 O 0.81505 0.72496 0.26013
 O347 O 0.78231 0.81668 0.25702
 O348 O 0.74877 0.82507 0.28363
 Zr349 Zr 0.74896 0.79795 0.25648
 O350 O 0.72589 0.77785 0.27950
 Zr351 Zr 0.79053 0.75450 0.25799
 O352 O 0.76955 0.73276 0.28139
 Zr353 Zr 0.74798 0.75417 0.21500
 O354 O 0.72522 0.73220 0.23654
 Zr355 Zr 0.74641 0.75483 0.30197
 O356 O 0.76978 0.77700 0.28087
 Zr357 Zr 0.70397 0.75429 0.25918
 O358 O 0.72489 0.77671 0.23565
 Zr359 Zr 0.74611 0.71115 0.26042
 O360 O 0.76904 0.73101 0.23698
 O361 O 0.77101 0.77670 0.23463
 O362 O 0.72362 0.73186 0.28250
 C363 C 0.74825 0.80902 0.20070
 C364 C 0.80442 0.80930 0.25807
 C365 C 0.80281 0.75007 0.20268
 C366 C 0.74578 0.69992 0.31581
 C367 C 0.69101 0.75401 0.31418
 C368 C 0.69092 0.69916 0.26079
 H369 H 0.71563 0.78914 0.28894
 H370 H 0.71494 0.72211 0.22581
 H371 H 0.78174 0.78647 0.22401
 H372 H 0.78033 0.72300 0.29191
 H373 H 0.78649 0.76777 0.32259
 H374 H 0.81319 0.74807 0.29866
 H375 H 0.66402 0.75059 0.23424
 H376 H 0.72323 0.75797 0.17456
 H377 H 0.73526 0.79574 0.32287
 H378 H 0.75983 0.81938 0.29662
 H379 H 0.73440 0.68658 0.22192
 H380 H 0.75785 0.71216 0.19655
 H381 H 0.71060 0.82191 0.24405
 H382 H 0.68140 0.79405 0.24893
 H383 H 0.80994 0.71297 0.24776
 H384 H 0.78455 0.68707 0.27324
 O385 O 0.74616 0.18375 0.78048
 O386 O 0.72472 0.17460 0.74776
 O387 O 0.81170 0.21348 0.74709
 O388 O 0.82192 0.24581 0.72544
 O389 O 0.78120 0.24575 0.81234
 O390 O 0.75006 0.27289 0.81884
 O391 O 0.74833 0.28064 0.68547
 O392 O 0.77562 0.24940 0.67806
 O393 O 0.68594 0.24956 0.71513
 O394 O 0.67905 0.22095 0.74512
 O395 O 0.71633 0.31048 0.74706
 O396 O 0.74992 0.31838 0.77421
 O397 O 0.74925 0.31000 0.71443
 O398 O 0.77773 0.31601 0.75040
 O399 O 0.68680 0.28169 0.74666
 O400 O 0.68222 0.24938 0.77816
 O401 O 0.71519 0.24999 0.68597
 O402 O 0.74888 0.21964 0.67899
 O403 O 0.74742 0.21199 0.81053
 O404 O 0.71839 0.24654 0.81509
 O405 O 0.81082 0.24618 0.78359
 O406 O 0.81686 0.27587 0.74942
 O407 O 0.78253 0.18432 0.74758
 O408 O 0.74804 0.17997 0.71812
 Zr409 Zr 0.74964 0.20376 0.74827
 O410 O 0.72676 0.22503 0.72635
 Zr411 Zr 0.79237 0.24622 0.74989
 O412 O 0.77203 0.26883 0.72650
 Zr413 Zr 0.74907 0.24554 0.79184
 O414 O 0.72749 0.26929 0.77092
 Zr415 Zr 0.74833 0.24805 0.70501
 O416 O 0.77156 0.22523 0.72550
 Zr417 Zr 0.70572 0.24853 0.74763
 O418 O 0.72585 0.22451 0.76989
 Zr419 Zr 0.74899 0.29063 0.74766
 O420 O 0.77089 0.26936 0.77120
 O421 O 0.77184 0.22326 0.77164
 O422 O 0.72610 0.27102 0.72502
 C423 C 0.74584 0.18992 0.80296
 C424 C 0.80480 0.19117 0.74666
 C425 C 0.80361 0.24618 0.80586
 C426 C 0.74860 0.30296 0.69215
 C427 C 0.69288 0.25042 0.69284
 C428 C 0.69394 0.30392 0.74658
 H429 H 0.71625 0.21437 0.71645
 H430 H 0.71743 0.27938 0.78184
 H431 H 0.78188 0.21245 0.78192
 H432 H 0.78309 0.27857 0.71624
 H433 H 0.78868 0.23833 0.68349
 H434 H 0.81596 0.25259 0.70991
 H435 H 0.66566 0.25322 0.77228
 H436 H 0.72329 0.24075 0.83145
 H437 H 0.73380 0.21005 0.68065
 H438 H 0.76203 0.18394 0.70757
 H439 H 0.73849 0.31375 0.78726
 H440 H 0.75993 0.28638 0.81218
 H441 H 0.70869 0.18174 0.74413
 H442 H 0.68219 0.20948 0.75864
 H443 H 0.81278 0.28630 0.76347
 H444 H 0.78823 0.31402 0.73596
 O445 O 0.24260 0.80396 0.79208
 O446 O 0.26848 0.81157 0.75785
 O447 O 0.17947 0.77383 0.75767
 O448 O 0.16973 0.74231 0.73507
 O449 O 0.21077 0.74026 0.82211
 O450 O 0.24276 0.71316 0.82751
 O451 O 0.24310 0.70754 0.69489
 O452 O 0.21470 0.73933 0.68853
 O453 O 0.30527 0.74057 0.72410
 O454 O 0.31476 0.76526 0.75524
 O455 O 0.27539 0.67797 0.75646
 O456 O 0.24190 0.67001 0.78396
 O457 O 0.24260 0.67853 0.72427
 O458 O 0.21489 0.67143 0.75959
 O459 O 0.30481 0.70681 0.75577
 O460 O 0.30838 0.74302 0.78788
 O461 O 0.27587 0.74050 0.69514
 O462 O 0.24218 0.76819 0.68777
 O463 O 0.24347 0.77432 0.82086
 O464 O 0.27324 0.74115 0.82497
 O465 O 0.18110 0.74010 0.79337
 O466 O 0.17477 0.71169 0.75873
 O467 O 0.20796 0.80367 0.75777
 O468 O 0.24193 0.81067 0.73074
 Zr469 Zr 0.24123 0.78455 0.75894
 O470 O 0.26395 0.76373 0.73626
 Zr471 Zr 0.19923 0.74137 0.75960
 O472 O 0.21962 0.71921 0.73608
 Zr473 Zr 0.24271 0.74155 0.80146
 O474 O 0.26474 0.71865 0.78026
 Zr475 Zr 0.24291 0.74043 0.71455
 O476 O 0.21984 0.76303 0.73557
 Zr477 Zr 0.28576 0.74013 0.75687
 O478 O 0.26543 0.76345 0.77977
 Zr479 Zr 0.24293 0.69762 0.75716
 O480 O 0.22081 0.71813 0.78072
 O481 O 0.21948 0.76400 0.78181
 O482 O 0.26558 0.71748 0.73427
 C483 C 0.24348 0.79673 0.81434
 C484 C 0.18580 0.79630 0.75706
 C485 C 0.18839 0.73956 0.81560
 C486 C 0.24277 0.68522 0.70193
 C487 C 0.29823 0.74061 0.70183
 C488 C 0.29769 0.68455 0.75590
 H489 H 0.27407 0.77481 0.72641
 H490 H 0.27507 0.70865 0.79105
 H491 H 0.20910 0.77432 0.79221
 H492 H 0.20858 0.70940 0.72587
 H493 H 0.20220 0.75102 0.69399
 H494 H 0.17536 0.73482 0.71976
 H495 H 0.32256 0.73223 0.78556
 H496 H 0.26792 0.74572 0.84157
 H497 H 0.25463 0.78042 0.69195
 H498 H 0.23030 0.80502 0.71825
 H499 H 0.25436 0.67388 0.79630
 H500 H 0.23185 0.70030 0.82129
 H501 H 0.28119 0.80647 0.76949
 H502 H 0.30775 0.78099 0.75015
 H503 H 0.17924 0.70070 0.77227
 H504 H 0.20372 0.67403 0.74576
 O505 O 0.25029 0.31310 0.72165
 O506 O 0.22453 0.32144 0.75696
 O507 O 0.31324 0.28293 0.75565
 O508 O 0.32214 0.25210 0.77995
 O509 O 0.28144 0.24875 0.69252
 O510 O 0.24882 0.22208 0.68754
 O511 O 0.25004 0.21799 0.82015
 O512 O 0.27849 0.25027 0.82559
 O513 O 0.18710 0.25037 0.79139
 O514 O 0.18014 0.27813 0.76189
 O515 O 0.21572 0.18813 0.75924
 O516 O 0.24927 0.17955 0.73160
 O517 O 0.24836 0.18852 0.79136
 O518 O 0.27614 0.18055 0.75626
 O519 O 0.18672 0.21741 0.75936
 O520 O 0.18246 0.25063 0.72808
 O521 O 0.21713 0.25056 0.81972
 O522 O 0.25012 0.27820 0.82696
 O523 O 0.24878 0.28334 0.69311
 O524 O 0.21853 0.25034 0.69001
 O525 O 0.31092 0.24784 0.72150
 O526 O 0.31740 0.22094 0.75645
 O527 O 0.28481 0.31280 0.75502
 O528 O 0.25175 0.32075 0.78265
 Zr529 Zr 0.25140 0.29410 0.75503
 O530 O 0.22877 0.27377 0.77827
 Zr531 Zr 0.29297 0.25060 0.75504
 O532 O 0.27249 0.22874 0.77880
 Zr533 Zr 0.24934 0.25077 0.71315
 O534 O 0.22716 0.22850 0.73498
 Zr535 Zr 0.24978 0.25060 0.80009
 O536 O 0.27278 0.27286 0.77867
 Zr537 Zr 0.20638 0.25031 0.75828
 O538 O 0.22678 0.27307 0.73460
 Zr539 Zr 0.24861 0.20728 0.75821
 O540 O 0.27094 0.22736 0.73434
 O541 O 0.27289 0.27308 0.73243
 O542 O 0.22656 0.22772 0.78099
 C543 C 0.24914 0.30580 0.69946
 C544 C 0.30695 0.30541 0.75546
 C545 C 0.30373 0.24714 0.69929
 C546 C 0.24923 0.19560 0.81354
 C547 C 0.19464 0.25039 0.81355
 C548 C 0.19350 0.19504 0.75946
 H549 H 0.21874 0.28501 0.78799
 H550 H 0.21667 0.21850 0.72437
 H551 H 0.28334 0.28301 0.72168
 H552 H 0.28348 0.21889 0.78904
 H553 H 0.29048 0.26250 0.82007
 H554 H 0.31671 0.24397 0.79504
 H555 H 0.16600 0.24655 0.73406
 H556 H 0.22372 0.25464 0.67328
 H557 H 0.23892 0.29121 0.82176
 H558 H 0.26334 0.31503 0.79515
 H559 H 0.23659 0.18331 0.71945
 H560 H 0.25954 0.20916 0.69396
 H561 H 0.21272 0.31812 0.74386
 H562 H 0.18363 0.29020 0.74904
 H563 H 0.31210 0.20914 0.74397
 H564 H 0.28729 0.18307 0.77011
 O565 O 0.74900 0.69109 0.71297
 O566 O 0.77551 0.68387 0.74602
 O567 O 0.68574 0.71994 0.74711
 O568 O 0.67657 0.75189 0.77054
 O569 O 0.71608 0.75427 0.68264
 O570 O 0.74726 0.78132 0.67637
 O571 O 0.74910 0.78690 0.80947
 O572 O 0.72139 0.75496 0.81572
 O573 O 0.81159 0.75483 0.77899
 O574 O 0.82000 0.72875 0.74682
 O575 O 0.78224 0.81724 0.74788
 O576 O 0.74770 0.82497 0.72030
 O577 O 0.74957 0.81654 0.78071
 O578 O 0.72124 0.82384 0.74560
 O579 O 0.81092 0.78768 0.74863
 O580 O 0.81451 0.75373 0.71562
 O581 O 0.78282 0.75567 0.80859
 O582 O 0.75325 0.72695 0.81623
 O583 O 0.74996 0.72012 0.68356
 O584 O 0.77859 0.75469 0.67896
 O585 O 0.68652 0.75415 0.71148
 O586 O 0.68037 0.78219 0.74611
 O587 O 0.71531 0.69123 0.74703
 O588 O 0.75091 0.68398 0.77331
 Zr589 Zr 0.74797 0.71058 0.74561
 O590 O 0.77054 0.73142 0.76799
 Zr591 Zr 0.70528 0.75295 0.74511
 O592 O 0.72600 0.77556 0.76826
 Zr593 Zr 0.74833 0.75329 0.70276
 O594 O 0.77049 0.77645 0.72373
 Zr595 Zr 0.74956 0.75450 0.78962
 O596 O 0.72635 0.73154 0.76914
 Zr597 Zr 0.79178 0.75485 0.74668
 O598 O 0.77146 0.73158 0.72406
 Zr599 Zr 0.74924 0.79759 0.74732
 O600 O 0.72677 0.77659 0.72407
 O601 O 0.72563 0.73060 0.72275
 O602 O 0.77197 0.77744 0.76965
 C603 C 0.75020 0.69782 0.69068
 C604 C 0.69300 0.69772 0.74800
 C605 C 0.69372 0.75490 0.68919
 C606 C 0.74940 0.80930 0.80297
 C607 C 0.80503 0.75558 0.80134
 C608 C 0.80441 0.81004 0.74891
 H609 H 0.78051 0.72048 0.77818
 H610 H 0.78074 0.78651 0.71292
 H611 H 0.71528 0.72015 0.71242
 H612 H 0.71504 0.78528 0.77859
 H613 H 0.70998 0.74181 0.81127
 H614 H 0.68277 0.75914 0.78574
 H615 H 0.82971 0.76261 0.71931
 H616 H 0.77336 0.74939 0.66254
 H617 H 0.74184 0.71386 0.81177
 H618 H 0.73656 0.68556 0.78397
 H619 H 0.76053 0.82149 0.70825
 H620 H 0.73750 0.79467 0.68337
 H621 H 0.78833 0.68957 0.73478
 H622 H 0.81431 0.71462 0.75635
 H623 H 0.68535 0.79378 0.73327
 H624 H 0.71006 0.82078 0.75932
 O625 O 0.24227 0.68239 0.27923
 O626 O 0.22022 0.67313 0.24686
 O627 O 0.30682 0.71272 0.24436
 O628 O 0.31646 0.74518 0.22284
 O629 O 0.27744 0.74492 0.31044
 O630 O 0.24610 0.77137 0.31779
 O631 O 0.24123 0.77951 0.18443
 O632 O 0.26889 0.74875 0.17628
 O633 O 0.18012 0.74724 0.21543
 O634 O 0.17410 0.71908 0.24576
 O635 O 0.21083 0.80884 0.24680
 O636 O 0.24495 0.81701 0.27315
 O637 O 0.24300 0.80876 0.21345
 O638 O 0.27218 0.81488 0.24878
 O639 O 0.18146 0.77988 0.24673
 O640 O 0.17779 0.74770 0.27848
 O641 O 0.20867 0.74792 0.18558
 O642 O 0.24276 0.71853 0.17773
 O643 O 0.24413 0.71053 0.30934
 O644 O 0.21468 0.74475 0.31452
 O645 O 0.30647 0.74541 0.28108
 O646 O 0.31147 0.77519 0.24672
 O647 O 0.27792 0.68333 0.24573
 O648 O 0.24298 0.67867 0.21692
 Zr649 Zr 0.24493 0.70249 0.24702
 O650 O 0.22142 0.72359 0.22567
 Zr651 Zr 0.28731 0.74528 0.24777
 O652 O 0.26630 0.76774 0.22485
 Zr653 Zr 0.24492 0.74414 0.29067
 O654 O 0.22274 0.76776 0.27028
 Zr655 Zr 0.24227 0.74683 0.20385
 O656 O 0.26615 0.72418 0.22378
 Zr657 Zr 0.20063 0.74686 0.24745
 O658 O 0.22142 0.72295 0.26921
 Zr659 Zr 0.24359 0.78928 0.24659
 O660 O 0.26612 0.76816 0.26962
 O661 O 0.26747 0.72212 0.26994
 O662 O 0.22030 0.76958 0.22441
 C663 C 0.24249 0.68847 0.30173
 C664 C 0.30009 0.69036 0.24422
 C665 C 0.29968 0.74555 0.30348
 C666 C 0.24169 0.80180 0.19118
 C667 C 0.18653 0.74781 0.19299
 C668 C 0.18849 0.80215 0.24668
 H669 H 0.21082 0.71278 0.21603
 H670 H 0.21286 0.77777 0.28143
 H671 H 0.27784 0.71141 0.28001
 H672 H 0.27705 0.77760 0.21436
 H673 H 0.28229 0.73792 0.18138
 H674 H 0.31011 0.75171 0.20736
 H675 H 0.16109 0.75145 0.27295
 H676 H 0.21993 0.73885 0.33073
 H677 H 0.22815 0.70836 0.18005
 H678 H 0.25673 0.68277 0.20610
 H679 H 0.23373 0.81237 0.28638
 H680 H 0.25547 0.78509 0.31091
 H681 H 0.20403 0.68020 0.24387
 H682 H 0.17769 0.70768 0.25922
 H683 H 0.30773 0.78550 0.26096
 H684 H 0.28236 0.81304 0.23410
 O685 O 0.74501 0.31072 0.28961
 O686 O 0.77182 0.31749 0.25602
 O687 O 0.68271 0.28025 0.25304
 O688 O 0.67290 0.24782 0.23214
 O689 O 0.71169 0.24798 0.31992
 O690 O 0.74333 0.22065 0.32682
 O691 O 0.74764 0.21241 0.19446
 O692 O 0.71961 0.24413 0.18656
 O693 O 0.80905 0.24566 0.22479
 O694 O 0.81788 0.27069 0.25575
 O695 O 0.77761 0.18384 0.25763
 O696 O 0.74337 0.17657 0.28406
 O697 O 0.74596 0.18400 0.22437
 O698 O 0.71696 0.17792 0.25900
 O699 O 0.80731 0.21239 0.25721
 O700 O 0.81027 0.24931 0.28860
 O701 O 0.78048 0.24533 0.19500
 O702 O 0.74706 0.27296 0.18616
 O703 O 0.74444 0.28166 0.31901
 O704 O 0.77402 0.24849 0.32467
 O705 O 0.68280 0.24802 0.29038
 O706 O 0.67759 0.21805 0.25637
 O707 O 0.71132 0.30995 0.25429
 O708 O 0.74614 0.31619 0.22816
 Zr709 Zr 0.74438 0.29065 0.25684
 O710 O 0.76758 0.26923 0.23528
 Zr711 Zr 0.70200 0.24777 0.25715
 O712 O 0.72289 0.22505 0.23464
 Zr713 Zr 0.74422 0.24854 0.30024
 O714 O 0.76667 0.22506 0.28017
 Zr715 Zr 0.74699 0.24567 0.21343
 O716 O 0.72349 0.26880 0.23331
 Zr717 Zr 0.78858 0.24589 0.25699
 O718 O 0.76777 0.26981 0.27881
 Zr719 Zr 0.74537 0.20374 0.25686
 O720 O 0.72274 0.22484 0.27940
 O721 O 0.72177 0.27075 0.27943
 O722 O 0.76887 0.22294 0.23427
 C723 C 0.74493 0.30391 0.31201
 C724 C 0.68921 0.30265 0.25240
 C725 C 0.68949 0.24783 0.31282
 C726 C 0.74694 0.19025 0.20192
 C727 C 0.80265 0.24550 0.20232
 C728 C 0.79997 0.19020 0.25763
 H729 H 0.77806 0.28007 0.22553
 H730 H 0.77658 0.21521 0.29147
 H731 H 0.71116 0.28145 0.28920
 H732 H 0.71208 0.21513 0.22430
 H733 H 0.70691 0.25584 0.19149
 H734 H 0.67910 0.24078 0.21685
 H735 H 0.82432 0.23821 0.28706
 H736 H 0.76821 0.25341 0.34100
 H737 H 0.75954 0.28514 0.19040
 H738 H 0.73477 0.31043 0.21548
 H739 H 0.75521 0.18080 0.29688
 H740 H 0.73231 0.20786 0.32066
 H741 H 0.78422 0.31248 0.26804
 H742 H 0.81117 0.28638 0.25017
 H743 H 0.68123 0.20778 0.27070
 H744 H 0.70637 0.18019 0.24466
 C745 C 0.30650 0.08088 0.04676
 C746 C 0.30489 0.09778 0.06556
 C747 C 0.28548 0.09710 0.08198
 C748 C 0.26790 0.07872 0.07951
 C749 C 0.26955 0.06172 0.06077
 C750 C 0.28877 0.06265 0.04393
 C751 C 0.28331 0.11688 0.10009
 C752 C 0.26947 0.11541 0.12004
 C753 C 0.26687 0.13566 0.13749
 C754 C 0.26111 0.13022 0.16168
 C755 C 0.25840 0.14875 0.17872
 C756 C 0.26109 0.17325 0.17186
 C757 C 0.26629 0.17877 0.14748
 C758 C 0.26915 0.16017 0.13044
 H759 H 0.32159 0.08221 0.03422
 H760 H 0.31863 0.11179 0.06697
 H761 H 0.25213 0.07802 0.09115
 H762 H 0.25481 0.04890 0.05851
 H763 H 0.29402 0.13309 0.09699
 H764 H 0.26054 0.09850 0.12456
 H765 H 0.25895 0.11152 0.16748
 H766 H 0.25417 0.14381 0.19730
 H767 H 0.26829 0.19744 0.14157
 H768 H 0.27275 0.16509 0.11175
 C769 C 0.80209 0.58240 0.55231
 C770 C 0.79984 0.59940 0.57096
 C771 C 0.77829 0.60102 0.58444
 C772 C 0.75915 0.58490 0.57918
 C773 C 0.76144 0.56791 0.56053
 C774 C 0.78282 0.56670 0.54683
 C775 C 0.77584 0.62084 0.60241
 C776 C 0.75968 0.62051 0.62056
 C777 C 0.75705 0.64077 0.63793
 C778 C 0.74910 0.63563 0.66155
 C779 C 0.74669 0.65421 0.67857
 C780 C 0.75180 0.67844 0.67219
 C781 C 0.75901 0.68372 0.64828
 C782 C 0.76165 0.66506 0.63130
 H783 H 0.81855 0.58200 0.54158
 H784 H 0.81475 0.61172 0.57450
 H785 H 0.74196 0.58604 0.58854
 H786 H 0.74613 0.55641 0.55604
 H787 H 0.78829 0.63600 0.60088
 H788 H 0.74882 0.60444 0.62375
 H789 H 0.74513 0.61711 0.66696
 H790 H 0.74083 0.64954 0.69677
 H791 H 0.76294 0.70221 0.64278
 H792 H 0.76702 0.66973 0.61297
 C793 C 0.78415 0.95694 0.08992
 C794 C 0.78313 0.93795 0.10669
 C795 C 0.76665 0.91877 0.10376
 C796 C 0.75160 0.91869 0.08305
 C797 C 0.75274 0.93770 0.06608
 C798 C 0.76884 0.95732 0.06941
 C799 C 0.76500 0.90039 0.12356
 C800 C 0.75270 0.87939 0.12216
 C801 C 0.75130 0.86187 0.14269
 C802 C 0.74767 0.83717 0.13763
 C803 C 0.74652 0.82009 0.15643
 C804 C 0.74867 0.82736 0.18085
 C805 C 0.75167 0.85220 0.18597
 C806 C 0.75293 0.86927 0.16714
 H807 H 0.79698 0.97151 0.09310
 H808 H 0.79499 0.93856 0.12238
 H809 H 0.73819 0.90465 0.08026
 H810 H 0.73988 0.93778 0.05120
 H811 H 0.77494 0.90434 0.14005
 H812 H 0.74428 0.87407 0.10525
 H813 H 0.74607 0.83101 0.11901
 H814 H 0.74403 0.80114 0.15176
 H815 H 0.75321 0.85848 0.20454
 H816 H 0.75485 0.88825 0.17185
 C817 C 0.28317 0.45074 0.58351
 C818 C 0.28316 0.43190 0.60054
 C819 C 0.26399 0.41511 0.60141
 C820 C 0.24500 0.41729 0.58437
 C821 C 0.24506 0.43619 0.56729
 C822 C 0.26401 0.45320 0.56693
 C823 C 0.26377 0.39688 0.62138
 C824 C 0.25023 0.37662 0.62131
 C825 C 0.25004 0.35898 0.64175
 C826 C 0.24450 0.33460 0.63692
 C827 C 0.24412 0.31741 0.65564
 C828 C 0.24892 0.32429 0.67979
 C829 C 0.25394 0.34884 0.68474
 C830 C 0.25450 0.36601 0.66594
 H831 H 0.29779 0.46391 0.58373
 H832 H 0.29792 0.43078 0.61348
 H833 H 0.22955 0.40521 0.58477
 H834 H 0.22983 0.43816 0.55502
 H835 H 0.27588 0.40014 0.63652
 H836 H 0.23977 0.37198 0.60535
 H837 H 0.24072 0.32875 0.61851
 H838 H 0.24003 0.29870 0.65115
 H839 H 0.25763 0.35479 0.70312
 H840 H 0.25807 0.38479 0.67051
 C841 C 0.77502 0.06203 0.93726
 C842 C 0.77341 0.08310 0.92315
 C843 C 0.75328 0.08708 0.90805
 C844 C 0.73436 0.06984 0.90793
 C845 C 0.73600 0.04878 0.92205
 C846 C 0.75632 0.04475 0.93678
 C847 C 0.75271 0.10923 0.89269
 C848 C 0.74050 0.11037 0.87165
 C849 C 0.74157 0.13141 0.85487
 C850 C 0.73697 0.12734 0.83018
 C851 C 0.73825 0.14636 0.81347
 C852 C 0.74388 0.17008 0.82109
 C853 C 0.74789 0.17436 0.84596
 C854 C 0.74676 0.15520 0.86271
 H855 H 0.79090 0.05910 0.94847
 H856 H 0.78815 0.09612 0.92368
 H857 H 0.71818 0.07261 0.89716
 H858 H 0.72136 0.03565 0.92159
 H859 H 0.76430 0.12421 0.89796
 H860 H 0.73083 0.09447 0.86531
 H861 H 0.73271 0.10925 0.82369
 H862 H 0.73484 0.14239 0.79451
 H863 H 0.75212 0.19244 0.85244
 H864 H 0.74972 0.15917 0.88173
 C865 C 0.27455 0.55941 0.43465
 C866 C 0.27284 0.58059 0.42071
 C867 C 0.25253 0.58475 0.40588
 C868 C 0.23357 0.56756 0.40585
 C869 C 0.23533 0.54638 0.41977
 C870 C 0.25580 0.54219 0.43423
 C871 C 0.25180 0.60704 0.39071
 C872 C 0.23920 0.60837 0.36991
 C873 C 0.23987 0.62957 0.35330
 C874 C 0.23455 0.62570 0.32872
 C875 C 0.23530 0.64485 0.31215
 C876 C 0.24112 0.66852 0.31979
 C877 C 0.24589 0.67260 0.34455
 C878 C 0.24529 0.65330 0.36118
 H879 H 0.29050 0.55638 0.44573
 H880 H 0.28760 0.59358 0.42118
 H881 H 0.21725 0.57044 0.39534
 H882 H 0.22063 0.53331 0.41941
 H883 H 0.26348 0.62196 0.39592
 H884 H 0.22941 0.59254 0.36361
 H885 H 0.23011 0.60766 0.32221
 H886 H 0.23131 0.64102 0.29327
 H887 H 0.25029 0.69064 0.35104
 H888 H 0.24882 0.65710 0.38013
 C889 C 0.27671 0.93506 0.93839
 C890 C 0.27494 0.92038 0.91775
 C891 C 0.25579 0.90382 0.91519
 C892 C 0.23805 0.90261 0.93353
 C893 C 0.23983 0.91723 0.95418
 C894 C 0.25898 0.93398 0.95682
 C895 C 0.25492 0.88808 0.89332
 C896 C 0.24425 0.86617 0.89336
 C897 C 0.24444 0.84921 0.87246
 C898 C 0.24093 0.82444 0.87719
 C899 C 0.24077 0.80758 0.85833
 C900 C 0.24385 0.81507 0.83407
 C901 C 0.24703 0.83997 0.82918
 C902 C 0.24735 0.85691 0.84820
 H903 H 0.29240 0.94675 0.94025
 H904 H 0.28894 0.92156 0.90399
 H905 H 0.22257 0.89065 0.93192
 H906 H 0.22572 0.91593 0.96782
 H907 H 0.26487 0.89402 0.87743
 H908 H 0.23636 0.85941 0.91006
 H909 H 0.23844 0.81803 0.89565
 H910 H 0.23805 0.78862 0.86285
 H911 H 0.24928 0.84635 0.81070
 H912 H 0.24945 0.87595 0.84377
 C913 C 0.78653 0.43334 0.44102
 C914 C 0.78414 0.41967 0.41976
 C915 C 0.76207 0.40824 0.41411
 C916 C 0.74216 0.41141 0.42983
 C917 C 0.74458 0.42507 0.45107
 C918 C 0.76676 0.43610 0.45680
 C919 C 0.76054 0.39303 0.39193
 C920 C 0.74529 0.37414 0.39009
 C921 C 0.74514 0.35704 0.36934
 C922 C 0.73712 0.33325 0.37355
 C923 C 0.73705 0.31619 0.35488
 C924 C 0.74466 0.32259 0.33134
 C925 C 0.75204 0.34663 0.32684
 C926 C 0.75238 0.36373 0.34571
 H927 H 0.80380 0.44171 0.44525
 H928 H 0.79969 0.41763 0.40792
 H929 H 0.72465 0.40357 0.42574
 H930 H 0.72911 0.42719 0.46299
 H931 H 0.77373 0.39626 0.37772
 H932 H 0.73381 0.36954 0.40537
 H933 H 0.73122 0.32769 0.39150
 H934 H 0.73093 0.29792 0.35893
 H935 H 0.75784 0.35213 0.30886
 H936 H 0.75805 0.38212 0.34169
 C937 C 0.05484 0.23613 0.06553
 C938 C 0.07022 0.23477 0.08577
 C939 C 0.09177 0.24836 0.08668
 C940 C 0.09731 0.26381 0.06706
 C941 C 0.08204 0.26512 0.04685
 C942 C 0.06038 0.25153 0.04579
 C943 C 0.10777 0.24640 0.10840
 C944 C 0.13168 0.25112 0.10759
 C945 C 0.14849 0.24953 0.12869
 C946 C 0.17349 0.24917 0.12397
 C947 C 0.19030 0.24860 0.14293
 C948 C 0.18260 0.24851 0.16730
 C949 C 0.15754 0.24885 0.17213
 C950 C 0.14064 0.24941 0.15306
 H951 H 0.03894 0.22457 0.06505
 H952 H 0.06549 0.22269 0.10060
 H953 H 0.11321 0.27532 0.06733
 H954 H 0.08687 0.27747 0.03228
 H955 H 0.09969 0.23984 0.12507
 H956 H 0.13984 0.25557 0.09027
 H957 H 0.18013 0.24939 0.10545
 H958 H 0.20940 0.24835 0.13840
 H959 H 0.15095 0.24890 0.19066
 H960 H 0.12159 0.25025 0.15757
 C961 C 0.55354 0.73521 0.56371
 C962 C 0.56843 0.73453 0.58430
 C963 C 0.58525 0.75319 0.58876
 C964 C 0.58623 0.77304 0.57258
 C965 C 0.57130 0.77373 0.55206
 C966 C 0.55487 0.75483 0.54742
 C967 C 0.60139 0.75147 0.61033
 C968 C 0.62351 0.76163 0.61093
 C969 C 0.64074 0.75925 0.63153
 C970 C 0.66550 0.76267 0.62685
 C971 C 0.68254 0.76108 0.64552
 C972 C 0.67527 0.75631 0.66956
 C973 C 0.65041 0.75312 0.67439
 C974 C 0.63329 0.75453 0.65557
 H975 H 0.54111 0.72034 0.56032
 H976 H 0.56719 0.71913 0.59652
 H977 H 0.59835 0.78817 0.57577
 H978 H 0.57253 0.78906 0.53974
 H979 H 0.59549 0.74012 0.62529
 H980 H 0.63014 0.77097 0.59492
 H981 H 0.67174 0.76649 0.60858
 H982 H 0.70147 0.76381 0.64107
 H983 H 0.64417 0.74952 0.69270
 H984 H 0.61431 0.75240 0.66001
 C985 C 0.03613 0.76515 0.92079
 C986 C 0.05600 0.76590 0.90518
 C987 C 0.07480 0.74894 0.90738
 C988 C 0.07353 0.73133 0.92591
 C989 C 0.05362 0.73060 0.94164
 C990 C 0.03454 0.74744 0.93924
 C991 C 0.09422 0.74924 0.88882
 C992 C 0.11573 0.73823 0.89135
 C993 C 0.13408 0.73829 0.87173
 C994 C 0.15874 0.73723 0.87778
 C995 C 0.17643 0.73758 0.85959
 C996 C 0.16975 0.73868 0.83494
 C997 C 0.14499 0.73912 0.82892
 C998 C 0.12735 0.73885 0.84708
 H999 H 0.02193 0.77855 0.91843
 H1000 H 0.05646 0.77960 0.89103
 H1001 H 0.08722 0.71740 0.92771
 H1002 H 0.05253 0.71598 0.95479
 H1003 H 0.09065 0.75955 0.87242
 H1004 H 0.12062 0.72986 0.90846
 H1005 H 0.16434 0.73649 0.89663
 H1006 H 0.19534 0.73706 0.86489
 H1007 H 0.13915 0.73972 0.81013
 H1008 H 0.10848 0.73875 0.84170
 C1009 C 0.54455 0.29271 0.42231
 C1010 C 0.56386 0.29106 0.40601
 C1011 C 0.57808 0.26995 0.40496
 C1012 C 0.57272 0.25050 0.42074
 C1013 C 0.55334 0.25215 0.43699
 C1014 C 0.53910 0.27324 0.43783
 C1015 C 0.59708 0.26826 0.38607
 C1016 C 0.61616 0.25327 0.38756
 C1017 C 0.63453 0.25156 0.36809
 C1018 C 0.65850 0.24576 0.37423
 C1019 C 0.67634 0.24437 0.35628
 C1020 C 0.67043 0.24834 0.33172
 C1021 C 0.64624 0.25343 0.32552
 C1022 C 0.62847 0.25503 0.34350
 H1023 H 0.53348 0.30896 0.42246
 H1024 H 0.56746 0.30617 0.39389
 H1025 H 0.58273 0.23363 0.41994
 H1026 H 0.54893 0.23669 0.44838
 H1027 H 0.59557 0.28043 0.37066
 H1028 H 0.61922 0.24283 0.40396
 H1029 H 0.66352 0.24271 0.39302
 H1030 H 0.69477 0.24023 0.36166
 H1031 H 0.64105 0.25647 0.30678
 H1032 H 0.60998 0.25873 0.33806
 C1033 C 0.92590 0.74374 0.06080
 C1034 C 0.90483 0.74541 0.07472
 C1035 C 0.90208 0.73132 0.09573
 C1036 C 0.92041 0.71471 0.10206
 C1037 C 0.94150 0.71300 0.08815
 C1038 C 0.94459 0.72743 0.06721
 C1039 C 0.88026 0.73484 0.11093
 C1040 C 0.88083 0.73199 0.13508
 C1041 C 0.86023 0.73747 0.15135
 C1042 C 0.86532 0.74204 0.17584
 C1043 C 0.84670 0.74667 0.19223
 C1044 C 0.82236 0.74664 0.18459
 C1045 C 0.81715 0.74224 0.15998
 C1046 C 0.83592 0.73763 0.14348
 H1047 H 0.92794 0.75603 0.04555
 H1048 H 0.89102 0.75842 0.06955
 H1049 H 0.91851 0.70294 0.11772
 H1050 H 0.95517 0.69993 0.09352
 H1051 H 0.86420 0.74207 0.10226
 H1052 H 0.89777 0.72704 0.14373
 H1053 H 0.88386 0.74198 0.18238
 H1054 H 0.85147 0.74999 0.21102
 H1055 H 0.79859 0.74188 0.15356
 H1056 H 0.83123 0.73361 0.12484
 C1057 C 0.43474 0.28147 0.57210
 C1058 C 0.41321 0.27975 0.58535
 C1059 C 0.40618 0.25756 0.59580
 C1060 C 0.42075 0.23688 0.59213
 C1061 C 0.44227 0.23863 0.57890
 C1062 C 0.44937 0.26091 0.56887
 C1063 C 0.38384 0.25672 0.61066
 C1064 C 0.38097 0.24098 0.62901
 C1065 C 0.36033 0.24192 0.64605
 C1066 C 0.36409 0.23396 0.66993
 C1067 C 0.34559 0.23551 0.68705
 C1068 C 0.32271 0.24469 0.68056
 C1069 C 0.31857 0.25183 0.65640
 C1070 C 0.33727 0.25055 0.63926
 H1071 H 0.44003 0.29879 0.56435
 H1072 H 0.40224 0.29588 0.58781
 H1073 H 0.41553 0.21929 0.59920
 H1074 H 0.45330 0.22257 0.57629
 H1075 H 0.37052 0.27090 0.60782
 H1076 H 0.39545 0.22843 0.63338
 H1077 H 0.38162 0.22703 0.67552
 H1078 H 0.34926 0.22954 0.70545
 H1079 H 0.30107 0.25884 0.65088
 H1080 H 0.33361 0.25620 0.62078
 C1081 C 0.90681 0.27619 0.96000
 C1082 C 0.89051 0.27536 0.94064
 C1083 C 0.89226 0.25724 0.92287
 C1084 C 0.91070 0.23968 0.92504
 C1085 C 0.92704 0.24044 0.94454
 C1086 C 0.92557 0.25893 0.96220
 C1087 C 0.87367 0.25666 0.90337
 C1088 C 0.87670 0.24577 0.88179
 C1089 C 0.85769 0.24590 0.86265
 C1090 C 0.86458 0.24424 0.83816
 C1091 C 0.84711 0.24448 0.81969
 C1092 C 0.82227 0.24609 0.82534
 C1093 C 0.81539 0.24727 0.84992
 C1094 C 0.83285 0.24712 0.86834
 H1095 H 0.90492 0.29068 0.97317
 H1096 H 0.87637 0.28898 0.93958
 H1097 H 0.91205 0.22484 0.91225
 H1098 H 0.94018 0.22593 0.94635
 H1099 H 0.85715 0.26674 0.90668
 H1100 H 0.89400 0.23765 0.87736
 H1101 H 0.88356 0.24301 0.83328
 H1102 H 0.85309 0.24333 0.80099
 H1103 H 0.79645 0.24825 0.85501
 H1104 H 0.82674 0.24756 0.88701
 C1105 C 0.40670 0.77891 0.45448
 C1106 C 0.39096 0.77906 0.43461
 C1107 C 0.39009 0.75928 0.41857
 C1108 C 0.40540 0.73922 0.42283
 C1109 C 0.42106 0.73903 0.44286
 C1110 C 0.42184 0.75890 0.45880
 C1111 C 0.37182 0.75959 0.39880
 C1112 C 0.37361 0.74649 0.37835
 C1113 C 0.35452 0.74667 0.35936
 C1114 C 0.36093 0.74249 0.33505
 C1115 C 0.34322 0.74235 0.31681
 C1116 C 0.31865 0.74600 0.32261
 C1117 C 0.31224 0.74978 0.34704
 C1118 C 0.32993 0.75010 0.36519
 H1119 H 0.40683 0.79427 0.46676
 H1120 H 0.37921 0.79460 0.43190
 H1121 H 0.40471 0.72333 0.41132
 H1122 H 0.43219 0.72318 0.44625
 H1123 H 0.35659 0.77180 0.40100
 H1124 H 0.38988 0.73608 0.37483
 H1125 H 0.37971 0.73951 0.33014
 H1126 H 0.34878 0.73918 0.29822
 H1127 H 0.29350 0.75248 0.35222
 H1128 H 0.32420 0.75256 0.38383
 C1129 C 0.05989 0.06585 0.22977
 C1130 C 0.07407 0.08691 0.23006
 C1131 C 0.09463 0.08842 0.24496
 C1132 C 0.10046 0.06856 0.26001
 C1133 C 0.08640 0.04747 0.25962
 C1134 C 0.06567 0.04589 0.24479
 C1135 C 0.10958 0.11082 0.24432
 C1136 C 0.13327 0.11071 0.24971
 C1137 C 0.14936 0.13222 0.24821
 C1138 C 0.17439 0.12809 0.24733
 C1139 C 0.19061 0.14743 0.24637
 C1140 C 0.18228 0.17158 0.24641
 C1141 C 0.15716 0.17587 0.24737
 C1142 C 0.14081 0.15636 0.24832
 H1143 H 0.04472 0.06496 0.21730
 H1144 H 0.06925 0.10188 0.21821
 H1145 H 0.11564 0.06928 0.27243
 H1146 H 0.09132 0.03266 0.27164
 H1147 H 0.10112 0.12729 0.23771
 H1148 H 0.14193 0.09362 0.25413
 H1149 H 0.18149 0.10974 0.24733
 H1150 H 0.20980 0.14331 0.24566
 H1151 H 0.15016 0.19425 0.24758
 H1152 H 0.12166 0.16033 0.24959
 C1153 C 0.56580 0.56317 0.71762
 C1154 C 0.57861 0.58507 0.71889
 C1155 C 0.59204 0.59102 0.73975
 C1156 C 0.59180 0.57484 0.75964
 C1157 C 0.57907 0.55291 0.75829
 C1158 C 0.56604 0.54695 0.73730
 C1159 C 0.60615 0.61402 0.74001
 C1160 C 0.62597 0.61701 0.75379
 C1161 C 0.64207 0.63854 0.75252
 C1162 C 0.66629 0.63557 0.75956
 C1163 C 0.68254 0.65488 0.75822
 C1164 C 0.67495 0.67789 0.75010
 C1165 C 0.65049 0.68122 0.74372
 C1166 C 0.63416 0.66167 0.74484
 H1167 H 0.55570 0.55882 0.70131
 H1168 H 0.57834 0.59724 0.70340
 H1169 H 0.60114 0.57907 0.77637
 H1170 H 0.57914 0.54068 0.77374
 H1171 H 0.60120 0.62795 0.72701
 H1172 H 0.63213 0.60212 0.76507
 H1173 H 0.67281 0.61805 0.76576
 H1174 H 0.70118 0.65171 0.76357
 H1175 H 0.64411 0.69877 0.73752
 H1176 H 0.61544 0.66478 0.73988
 C1177 C 0.95620 0.08709 0.70909
 C1178 C 0.93674 0.10321 0.71021
 C1179 C 0.91915 0.10101 0.72845
 C1180 C 0.92141 0.08219 0.74564
 C1181 C 0.94095 0.06601 0.74454
 C1182 C 0.95862 0.06812 0.72615
 C1183 C 0.89984 0.11967 0.72973
 C1184 C 0.87873 0.11664 0.74145
 C1185 C 0.86010 0.13600 0.74271
 C1186 C 0.83564 0.12949 0.74525
 C1187 C 0.81764 0.14734 0.74643
 C1188 C 0.82379 0.17214 0.74540
 C1189 C 0.84837 0.17863 0.74335
 C1190 C 0.86632 0.16079 0.74209
 H1191 H 0.96938 0.08940 0.69467
 H1192 H 0.93555 0.11764 0.69685
 H1193 H 0.90877 0.08044 0.76056
 H1194 H 0.94284 0.05258 0.75883
 H1195 H 0.90297 0.13640 0.71982
 H1196 H 0.87434 0.09920 0.74943
 H1197 H 0.83041 0.11053 0.74606
 H1198 H 0.79891 0.14168 0.74820
 H1199 H 0.85383 0.19753 0.74278
 H1200 H 0.88505 0.16655 0.74104
 C1201 C 0.45055 0.58378 0.20790
 C1202 C 0.43057 0.59932 0.20742
 C1203 C 0.41460 0.60039 0.22724
 C1204 C 0.41899 0.58551 0.24761
 C1205 C 0.43906 0.57004 0.24810
 C1206 C 0.45497 0.56909 0.22826
 C1207 C 0.39480 0.61850 0.22674
 C1208 C 0.37459 0.61661 0.24013
 C1209 C 0.35570 0.63568 0.24040
 C1210 C 0.33165 0.62916 0.24547
 C1211 C 0.31350 0.64685 0.24642
 C1212 C 0.31915 0.67151 0.24269
 C1213 C 0.34333 0.67803 0.23790
 C1214 C 0.36141 0.66034 0.23679
 H1215 H 0.46287 0.58352 0.19257
 H1216 H 0.42775 0.61079 0.19166
 H1217 H 0.40758 0.58642 0.26357
 H1218 H 0.44259 0.55927 0.26421
 H1219 H 0.39682 0.63371 0.21439
 H1220 H 0.37126 0.60031 0.25064
 H1221 H 0.32687 0.61032 0.24860
 H1222 H 0.29509 0.64121 0.25035
 H1223 H 0.34836 0.69686 0.23512
 H1224 H 0.37990 0.66613 0.23366
 C1225 C 0.06309 0.94197 0.75663
 C1226 C 0.08347 0.92706 0.75961
 C1227 C 0.08525 0.90482 0.74729
 C1228 C 0.06639 0.89806 0.73145
 C1229 C 0.04605 0.91288 0.72851
 C1230 C 0.04411 0.93526 0.74081
 C1231 C 0.10701 0.88927 0.75101
 C1232 C 0.10642 0.86503 0.74820
 C1233 C 0.12747 0.84849 0.75159
 C1234 C 0.12275 0.82356 0.75396
 C1235 C 0.14164 0.80686 0.75602
 C1236 C 0.16597 0.81457 0.75564
 C1237 C 0.17083 0.83959 0.75345
 C1238 C 0.15179 0.85641 0.75139
 H1239 H 0.06188 0.95844 0.76731
 H1240 H 0.09768 0.93269 0.77197
 H1241 H 0.06740 0.88153 0.72090
 H1242 H 0.03212 0.90712 0.71589
 H1243 H 0.12342 0.89799 0.75731
 H1244 H 0.08927 0.85643 0.74402
 H1245 H 0.10426 0.81687 0.75408
 H1246 H 0.13708 0.78779 0.75773
 H1247 H 0.18933 0.84617 0.75298
 H1248 H 0.15628 0.87539 0.74907
 C1249 C 0.56073 0.44050 0.26255
 C1250 C 0.58171 0.42634 0.26445
 C1251 C 0.58767 0.40954 0.24622
 C1252 C 0.57263 0.40783 0.22559
 C1253 C 0.55170 0.42199 0.22372
 C1254 C 0.54557 0.43837 0.24218
 C1255 C 0.60947 0.39402 0.24927
 C1256 C 0.61099 0.37173 0.23958
 C1257 C 0.63160 0.35488 0.24345
 C1258 C 0.62738 0.32997 0.24041
 C1259 C 0.64605 0.31320 0.24347
 C1260 C 0.66964 0.32091 0.24937
 C1261 C 0.67405 0.34594 0.25217
 C1262 C 0.65520 0.36280 0.24927
 H1263 H 0.55618 0.45300 0.27703
 H1264 H 0.59304 0.42812 0.28042
 H1265 H 0.57703 0.39572 0.21077
 H1266 H 0.54027 0.42023 0.20781
 H1267 H 0.62366 0.40044 0.26125
 H1268 H 0.59564 0.36461 0.22960
 H1269 H 0.60945 0.32338 0.23576
 H1270 H 0.64193 0.29412 0.24100
 H1271 H 0.69204 0.35248 0.25660
 H1272 H 0.65928 0.38193 0.25117
 C1273 C 0.91662 0.95494 0.21854
 C1274 C 0.90008 0.93573 0.21921
 C1275 C 0.90031 0.91898 0.23848
 C1276 C 0.91789 0.92157 0.25689
 C1277 C 0.93447 0.94080 0.25617
 C1278 C 0.93378 0.95775 0.23713
 C1279 C 0.88084 0.90038 0.23954
 C1280 C 0.88182 0.88029 0.25332
 C1281 C 0.86163 0.86256 0.25469
 C1282 C 0.86686 0.83822 0.26010
 C1283 C 0.84829 0.82097 0.26141
 C1284 C 0.82399 0.82779 0.25768
 C1285 C 0.81870 0.85232 0.25290
 C1286 C 0.83729 0.86953 0.25145
 H1287 H 0.91561 0.96806 0.20388
 H1288 H 0.88666 0.93429 0.20490
 H1289 H 0.91832 0.90955 0.27243
 H1290 H 0.94721 0.94306 0.27098
 H1291 H 0.86519 0.90329 0.22801
 H1292 H 0.89824 0.87593 0.26315
 H1293 H 0.88542 0.83245 0.26298
 H1294 H 0.85303 0.80227 0.26527
 H1295 H 0.80019 0.85824 0.25006
 H1296 H 0.83248 0.88829 0.24809
 C1297 C 0.41935 0.45068 0.71482
 C1298 C 0.40294 0.43136 0.71573
 C1299 C 0.40304 0.41505 0.73538
 C1300 C 0.42044 0.41818 0.75390
 C1301 C 0.43689 0.43756 0.75294
 C1302 C 0.43625 0.45411 0.73353
 C1303 C 0.38358 0.39641 0.73664
 C1304 C 0.38439 0.37656 0.75080
 C1305 C 0.36420 0.35877 0.75210
 C1306 C 0.36940 0.33445 0.75770
 C1307 C 0.35083 0.31717 0.75893
 C1308 C 0.32654 0.32392 0.75498
 C1309 C 0.32127 0.34843 0.74999
 C1310 C 0.33987 0.36566 0.74858
 H1311 H 0.41837 0.46346 0.69985
 H1312 H 0.38970 0.42951 0.70131
 H1313 H 0.42078 0.40647 0.76968
 H1314 H 0.44943 0.44027 0.76784
 H1315 H 0.36807 0.39904 0.72486
 H1316 H 0.40068 0.37244 0.76096
 H1317 H 0.38794 0.32874 0.76078
 H1318 H 0.35555 0.29850 0.76297
 H1319 H 0.30278 0.35429 0.74696
 H1320 H 0.33508 0.38440 0.74504
 C1321 C 0.05393 0.26924 0.93954
 C1322 C 0.06844 0.26960 0.91864
 C1323 C 0.08759 0.25305 0.91588
 C1324 C 0.09149 0.23564 0.93421
 C1325 C 0.07708 0.23530 0.95507
 C1326 C 0.05788 0.25192 0.95803
 C1327 C 0.10310 0.25436 0.89379
 C1328 C 0.12628 0.24692 0.89370
 C1329 C 0.14289 0.24858 0.87250
 C1330 C 0.16788 0.24719 0.87691
 C1331 C 0.18447 0.24798 0.85782
 C1332 C 0.17655 0.24997 0.83359
 C1333 C 0.15147 0.25124 0.82904
 C1334 C 0.13477 0.25055 0.84829
 H1335 H 0.04011 0.28307 0.94156
 H1336 H 0.06507 0.28326 0.90486
 H1337 H 0.10548 0.22199 0.93245
 H1338 H 0.08060 0.22152 0.96870
 H1339 H 0.09559 0.26303 0.87782
 H1340 H 0.13418 0.24037 0.91048
 H1341 H 0.17468 0.24550 0.89531
 H1342 H 0.20359 0.24682 0.86214
 H1343 H 0.14472 0.25263 0.81061
 H1344 H 0.11563 0.25107 0.84406
 C1345 C 0.55364 0.77575 0.44207
 C1346 C 0.56809 0.77622 0.42116
 C1347 C 0.58373 0.75682 0.41580
 C1348 C 0.58399 0.73651 0.43144
 C1349 C 0.56949 0.73603 0.45227
 C1350 C 0.55422 0.75562 0.45777
 C1351 C 0.59950 0.75835 0.39394
 C1352 C 0.62109 0.74719 0.39266
 C1353 C 0.63820 0.74962 0.37196
 C1354 C 0.66285 0.74535 0.37638
 C1355 C 0.67981 0.74703 0.35766
 C1356 C 0.67255 0.75272 0.33381
 C1357 C 0.64777 0.75670 0.32921
 C1358 C 0.63073 0.75524 0.34812
 H1359 H 0.54212 0.79115 0.44613
 H1360 H 0.56743 0.79201 0.40940
 H1361 H 0.59521 0.72087 0.42756
 H1362 H 0.57014 0.72032 0.46414
 H1363 H 0.59394 0.77042 0.37943
 H1364 H 0.62750 0.73705 0.40826
 H1365 H 0.66910 0.74079 0.39449
 H1366 H 0.69867 0.74357 0.36192
 H1367 H 0.64155 0.76095 0.31103
 H1368 H 0.61178 0.75805 0.34390
 C1369 C 0.92706 0.75728 0.94649
 C1370 C 0.90626 0.75980 0.93221
 C1371 C 0.90522 0.74946 0.90900
 C1372 C 0.92512 0.73592 0.90056
 C1373 C 0.94589 0.73346 0.91473
 C1374 C 0.94714 0.74390 0.93803
 C1375 C 0.88320 0.75274 0.89403
 C1376 C 0.88427 0.75330 0.86973
 C1377 C 0.86306 0.75548 0.85345
 C1378 C 0.86752 0.76025 0.82884
 C1379 C 0.84860 0.76069 0.81215
 C1380 C 0.82462 0.75635 0.81963
 C1381 C 0.81994 0.75213 0.84437
 C1382 C 0.83900 0.75155 0.86115
 H1383 H 0.92767 0.76638 0.96392
 H1384 H 0.89115 0.77030 0.93909
 H1385 H 0.92460 0.72684 0.88314
 H1386 H 0.96072 0.72263 0.90774
 H1387 H 0.86621 0.75574 0.90334
 H1388 H 0.90187 0.75254 0.86103
 H1389 H 0.88583 0.76331 0.82239
 H1390 H 0.85289 0.76415 0.79326
 H1391 H 0.80166 0.74864 0.85065
 H1392 H 0.83478 0.74733 0.87986
 C1393 C 0.43500 0.29303 0.43571
 C1394 C 0.41407 0.29147 0.42142
 C1395 C 0.40839 0.26981 0.40920
 C1396 C 0.42348 0.24942 0.41233
 C1397 C 0.44434 0.25102 0.42653
 C1398 C 0.45030 0.27284 0.43810
 C1399 C 0.38692 0.26900 0.39310
 C1400 C 0.38634 0.25490 0.37329
 C1401 C 0.36613 0.25458 0.35569
 C1402 C 0.37122 0.24758 0.33178
 C1403 C 0.35288 0.24673 0.31442
 C1404 C 0.32886 0.25254 0.32065
 C1405 C 0.32360 0.25921 0.34472
 C1406 C 0.34210 0.26028 0.36212
 H1407 H 0.43938 0.30994 0.44474
 H1408 H 0.40260 0.30732 0.41947
 H1409 H 0.41919 0.23218 0.40395
 H1410 H 0.45587 0.23521 0.42856
 H1411 H 0.37227 0.28159 0.39661
 H1412 H 0.40219 0.24427 0.36863
 H1413 H 0.38954 0.24292 0.32643
 H1414 H 0.35757 0.24135 0.29610
 H1415 H 0.30526 0.26375 0.35007
 H1416 H 0.33746 0.26517 0.38058
 C1417 C 0.03932 0.71008 0.08403
 C1418 C 0.05884 0.71086 0.10015
 C1419 C 0.07221 0.73234 0.10319
 C1420 C 0.06556 0.75319 0.08991
 C1421 C 0.04588 0.75243 0.07393
 C1422 C 0.03275 0.73082 0.07078
 C1423 C 0.09185 0.73274 0.12145
 C1424 C 0.11086 0.74787 0.12034
 C1425 C 0.12998 0.74805 0.13917
 C1426 C 0.15386 0.75386 0.13263
 C1427 C 0.17231 0.75376 0.15006
 C1428 C 0.16708 0.74826 0.17447
 C1429 C 0.14300 0.74312 0.18108
 C1430 C 0.12466 0.74300 0.16364
 H1431 H 0.02911 0.69337 0.08210
 H1432 H 0.06343 0.69468 0.11040
 H1433 H 0.07495 0.77027 0.09242
 H1434 H 0.04059 0.76879 0.06433
 H1435 H 0.09101 0.71933 0.13587
 H1436 H 0.11322 0.75959 0.10469
 H1437 H 0.15831 0.75812 0.11393
 H1438 H 0.19063 0.75807 0.14442
 H1439 H 0.13831 0.73900 0.19974
 H1440 H 0.10627 0.73924 0.16942
 C1441 C 0.54178 0.23570 0.58225
 C1442 C 0.56146 0.23272 0.59790
 C1443 C 0.57825 0.25158 0.60128
 C1444 C 0.57497 0.27360 0.58861
 C1445 C 0.55513 0.27662 0.57305
 C1446 C 0.53843 0.25768 0.56978
 C1447 C 0.59778 0.24817 0.61941
 C1448 C 0.61878 0.26043 0.61908
 C1449 C 0.63754 0.25722 0.63806
 C1450 C 0.66199 0.26089 0.63211
 C1451 C 0.68004 0.25830 0.64977
 C1452 C 0.67392 0.25239 0.67388
 C1453 C 0.64936 0.24906 0.67987
 C1454 C 0.63138 0.25146 0.66219
 H1455 H 0.52888 0.22100 0.58016
 H1456 H 0.56344 0.21570 0.60762
 H1457 H 0.58710 0.28881 0.59134
 H1458 H 0.55248 0.29391 0.56399
 H1459 H 0.59491 0.23439 0.63319
 H1460 H 0.62289 0.27245 0.60403
 H1461 H 0.66715 0.26563 0.61371
 H1462 H 0.69876 0.26125 0.64459
 H1463 H 0.64398 0.24471 0.69829
 H1464 H 0.61264 0.24930 0.66761
 C1465 C 0.91283 0.28271 0.05440
 C1466 C 0.89697 0.28244 0.07418
 C1467 C 0.89664 0.26274 0.09043
 C1468 C 0.91296 0.24341 0.08668
 C1469 C 0.92881 0.24368 0.06679
 C1470 C 0.92871 0.26323 0.05037
 C1471 C 0.87775 0.26225 0.10967
 C1472 C 0.87886 0.24841 0.12974
 C1473 C 0.85909 0.24772 0.14803
 C1474 C 0.86470 0.24267 0.17239
 C1475 C 0.84644 0.24191 0.19004
 C1476 C 0.82205 0.24580 0.18361
 C1477 C 0.81638 0.25026 0.15909
 C1478 C 0.83466 0.25122 0.14151
 H1479 H 0.91225 0.29783 0.04178
 H1480 H 0.88451 0.29747 0.07651
 H1481 H 0.91287 0.22758 0.09834
 H1482 H 0.94052 0.22820 0.06368
 H1483 H 0.86244 0.27434 0.10729
 H1484 H 0.89506 0.23801 0.13357
 H1485 H 0.88333 0.23959 0.17783
 H1486 H 0.85144 0.23822 0.20871
 H1487 H 0.79780 0.25318 0.15344
 H1488 H 0.82953 0.25433 0.12279
 C1489 C 0.40609 0.77803 0.55221
 C1490 C 0.39003 0.77733 0.57181
 C1491 C 0.38979 0.75743 0.58782
 C1492 C 0.40625 0.73825 0.58389
 C1493 C 0.42229 0.73895 0.56416
 C1494 C 0.42226 0.75880 0.54812
 C1495 C 0.37103 0.75672 0.60716
 C1496 C 0.37260 0.74308 0.62733
 C1497 C 0.35324 0.74252 0.64607
 C1498 C 0.35947 0.73762 0.67031
 C1499 C 0.34167 0.73703 0.68842
 C1500 C 0.31713 0.74095 0.68261
 C1501 C 0.31084 0.74528 0.65821
 C1502 C 0.32867 0.74607 0.64016
 H1503 H 0.40557 0.79337 0.53986
 H1504 H 0.37745 0.79224 0.57426
 H1505 H 0.40619 0.72228 0.59535
 H1506 H 0.43422 0.72366 0.56096
 H1507 H 0.35558 0.76865 0.60490
 H1508 H 0.38897 0.73288 0.63096
 H1509 H 0.37822 0.73453 0.67530
 H1510 H 0.34715 0.73341 0.70697
 H1511 H 0.29212 0.74820 0.65304
 H1512 H 0.32307 0.74908 0.62156
 C1513 C 0.30098 0.08206 0.95295
 C1514 C 0.29753 0.09949 0.93486
 C1515 C 0.27618 0.09981 0.92105
 C1516 C 0.25838 0.08201 0.92550
 C1517 C 0.26186 0.06448 0.94355
 C1518 C 0.28319 0.06426 0.95764
 C1519 C 0.27266 0.11983 0.90337
 C1520 C 0.25658 0.11914 0.88513
 C1521 C 0.25381 0.13928 0.86754
 C1522 C 0.24638 0.13388 0.84382
 C1523 C 0.24451 0.15224 0.82642
 C1524 C 0.24973 0.17652 0.83249
 C1525 C 0.25618 0.18209 0.85654
 C1526 C 0.25822 0.16365 0.87391
 H1527 H 0.31760 0.08256 0.96344
 H1528 H 0.31148 0.11304 0.93190
 H1529 H 0.24125 0.08212 0.91595
 H1530 H 0.24714 0.05204 0.94748
 H1531 H 0.28456 0.13541 0.90501
 H1532 H 0.24622 0.10278 0.88182
 H1533 H 0.24254 0.11530 0.83858
 H1534 H 0.23918 0.14735 0.80813
 H1535 H 0.26009 0.20062 0.86184
 H1536 H 0.26314 0.16856 0.89229
 C1537 C 0.79926 0.58355 0.45206
 C1538 C 0.79596 0.60095 0.43387
 C1539 C 0.77366 0.60292 0.42171
 C1540 C 0.75480 0.58674 0.42781
 C1541 C 0.75816 0.56932 0.44597
 C1542 C 0.78031 0.56777 0.45836
 C1543 C 0.77036 0.62301 0.40410
 C1544 C 0.75299 0.62331 0.38708
 C1545 C 0.75022 0.64356 0.36964
 C1546 C 0.74116 0.63855 0.34641
 C1547 C 0.73927 0.65699 0.32911
 C1548 C 0.74605 0.68095 0.33483
 C1549 C 0.75407 0.68621 0.35846
 C1550 C 0.75619 0.66767 0.37573
 H1551 H 0.81633 0.58288 0.46178
 H1552 H 0.81070 0.61328 0.42966
 H1553 H 0.73710 0.58809 0.41949
 H1554 H 0.74311 0.55774 0.45113
 H1555 H 0.78334 0.63779 0.40475
 H1556 H 0.74140 0.60764 0.38461
 H1557 H 0.73610 0.62019 0.34144
 H1558 H 0.73271 0.65240 0.31114
 H1559 H 0.75925 0.70452 0.36345
 H1560 H 0.76243 0.67227 0.39379
 C1561 C 0.78035 0.06295 0.06690
 C1562 C 0.77888 0.08409 0.08089
 C1563 C 0.75909 0.08792 0.09648
 C1564 C 0.74034 0.07052 0.09715
 C1565 C 0.74186 0.04940 0.08320
 C1566 C 0.76188 0.04545 0.06808
 C1567 C 0.75859 0.11003 0.11183
 C1568 C 0.74722 0.11060 0.13335
 C1569 C 0.74761 0.13164 0.15009
 C1570 C 0.74301 0.12727 0.17474
 C1571 C 0.74291 0.14629 0.19140
 C1572 C 0.74714 0.17034 0.18381
 C1573 C 0.75147 0.17486 0.15903
 C1574 C 0.75171 0.15569 0.14229
 H1575 H 0.79593 0.06012 0.05527
 H1576 H 0.79344 0.09728 0.07989
 H1577 H 0.72438 0.07319 0.10823
 H1578 H 0.72735 0.03614 0.08411
 H1579 H 0.76936 0.12544 0.10605
 H1580 H 0.73849 0.09427 0.13999
 H1581 H 0.73963 0.10898 0.18122
 H1582 H 0.73936 0.14207 0.21030
 H1583 H 0.75469 0.19319 0.15257
 H1584 H 0.75470 0.15984 0.12331
 C1585 C 0.27469 0.55958 0.56522
 C1586 C 0.27322 0.58056 0.57945
 C1587 C 0.25334 0.58432 0.59493
 C1588 C 0.23449 0.56701 0.59523
 C1589 C 0.23599 0.54605 0.58102
 C1590 C 0.25610 0.54218 0.56597
 C1591 C 0.25289 0.60627 0.61056
 C1592 C 0.24132 0.60674 0.63197
 C1593 C 0.24202 0.62752 0.64906
 C1594 C 0.23743 0.62283 0.67365
 C1595 C 0.23776 0.64156 0.69063
 C1596 C 0.24242 0.66566 0.68344
 C1597 C 0.24668 0.67052 0.65871
 C1598 C 0.24651 0.65162 0.64164
 H1599 H 0.29039 0.55680 0.55374
 H1600 H 0.28788 0.59366 0.57875
 H1601 H 0.21847 0.56962 0.60625
 H1602 H 0.22142 0.53286 0.58167
 H1603 H 0.26395 0.62160 0.60511
 H1604 H 0.23226 0.59047 0.63831
 H1605 H 0.23375 0.60449 0.67984
 H1606 H 0.23421 0.63709 0.70947
 H1607 H 0.25022 0.68889 0.65256
 H1608 H 0.24952 0.65603 0.62272
 C1609 C 0.78413 0.95408 0.91880
 C1610 C 0.78406 0.93543 0.90162
 C1611 C 0.76523 0.91826 0.90109
 C1612 C 0.74668 0.91983 0.91867
 C1613 C 0.74681 0.93852 0.93591
 C1614 C 0.76536 0.95596 0.93588
 C1615 C 0.76485 0.90029 0.88095
 C1616 C 0.75168 0.87979 0.88117
 C1617 C 0.75134 0.86230 0.86067
 C1618 C 0.74610 0.83785 0.86558
 C1619 C 0.74546 0.82077 0.84686
 C1620 C 0.74969 0.82777 0.82261
 C1621 C 0.75447 0.85236 0.81758
 C1622 C 0.75529 0.86947 0.83640
 H1623 H 0.79843 0.96758 0.91828
 H1624 H 0.79849 0.93479 0.88828
 H1625 H 0.73148 0.90743 0.91859
 H1626 H 0.73187 0.94004 0.94859
 H1627 H 0.77653 0.90394 0.86555
 H1628 H 0.74168 0.87482 0.89733
 H1629 H 0.74273 0.83189 0.88404
 H1630 H 0.74156 0.80202 0.85143
 H1631 H 0.75771 0.85840 0.79913
 H1632 H 0.75863 0.88829 0.83179
 C1633 C 0.28377 0.45120 0.41687
 C1634 C 0.28415 0.43243 0.39981
 C1635 C 0.26527 0.41533 0.39881
 C1636 C 0.24614 0.41715 0.41572
 C1637 C 0.24579 0.43600 0.43281
 C1638 C 0.26448 0.45330 0.43333
 C1639 C 0.26551 0.39712 0.37888
 C1640 C 0.25259 0.37644 0.37911
 C1641 C 0.25294 0.35865 0.35885
 C1642 C 0.24804 0.33417 0.36398
 C1643 C 0.24807 0.31682 0.34547
 C1644 C 0.25264 0.32358 0.32123
 C1645 C 0.25709 0.34820 0.31598
 C1646 C 0.25725 0.36556 0.33458
 H1647 H 0.29818 0.46459 0.41675
 H1648 H 0.29901 0.43160 0.38698
 H1649 H 0.23089 0.40481 0.41521
 H1650 H 0.23045 0.43768 0.44497
 H1651 H 0.27749 0.40069 0.36371
 H1652 H 0.24231 0.37158 0.39513
 H1653 H 0.24441 0.32839 0.38245
 H1654 H 0.24442 0.29806 0.35022
 H1655 H 0.26059 0.35407 0.29752
 H1656 H 0.26037 0.38438 0.32979
 C1657 C 0.28129 0.92843 0.05921
 C1658 C 0.27944 0.91444 0.08035
 C1659 C 0.25696 0.90499 0.08773
 C1660 C 0.23618 0.91039 0.07385
 C1661 C 0.23803 0.92450 0.05278
 C1662 C 0.26057 0.93367 0.04536
 C1663 C 0.25589 0.88963 0.10987
 C1664 C 0.23941 0.87196 0.11285
 C1665 C 0.23969 0.85483 0.13363
 C1666 C 0.23065 0.83130 0.13006
 C1667 C 0.23123 0.81423 0.14881
 C1668 C 0.24049 0.82043 0.17178
 C1669 C 0.24879 0.84426 0.17570
 C1670 C 0.24851 0.86131 0.15675
 H1671 H 0.29887 0.93519 0.05360
 H1672 H 0.29568 0.91061 0.09073
 H1673 H 0.21844 0.90399 0.07932
 H1674 H 0.22187 0.92840 0.04229
 H1675 H 0.27034 0.89164 0.12305
 H1676 H 0.22648 0.86836 0.09849
 H1677 H 0.22353 0.82594 0.11251
 H1678 H 0.22438 0.79613 0.14528
 H1679 H 0.25586 0.84960 0.19325
 H1680 H 0.25499 0.87952 0.16030
 C1681 C 0.78831 0.43191 0.56157
 C1682 C 0.78637 0.41793 0.58273
 C1683 C 0.76437 0.40662 0.58885
 C1684 C 0.74408 0.41014 0.57368
 C1685 C 0.74604 0.42414 0.55256
 C1686 C 0.76813 0.43513 0.54639
 C1687 C 0.76323 0.39131 0.61104
 C1688 C 0.74782 0.37259 0.61330
 C1689 C 0.74789 0.35561 0.63420
 C1690 C 0.73969 0.33182 0.63040
 C1691 C 0.73989 0.31490 0.64927
 C1692 C 0.74793 0.32146 0.67260
 C1693 C 0.75545 0.34552 0.67670
 C1694 C 0.75553 0.36246 0.65764
 H1695 H 0.80552 0.44021 0.55699
 H1696 H 0.80221 0.41562 0.59414
 H1697 H 0.72662 0.40238 0.57815
 H1698 H 0.73026 0.42658 0.54109
 H1699 H 0.77677 0.39439 0.62495
 H1700 H 0.73594 0.36809 0.59830
 H1701 H 0.73347 0.32615 0.61261
 H1702 H 0.73365 0.29661 0.64555
 H1703 H 0.76158 0.35115 0.69452
 H1704 H 0.76132 0.38087 0.66137
 C1705 C 0.04859 0.08722 0.71166
 C1706 C 0.06755 0.10368 0.71483
 C1707 C 0.08412 0.10090 0.73395
 C1708 C 0.08170 0.08068 0.74950
 C1709 C 0.06274 0.06405 0.74623
 C1710 C 0.04564 0.06725 0.72745
 C1711 C 0.10245 0.12034 0.73762
 C1712 C 0.12172 0.11859 0.75239
 C1713 C 0.13947 0.13863 0.75529
 C1714 C 0.16364 0.13295 0.76072
 C1715 C 0.18107 0.15129 0.76253
 C1716 C 0.17463 0.17583 0.75926
 C1717 C 0.15021 0.18160 0.75486
 C1718 C 0.13280 0.16322 0.75291
 H1719 H 0.03603 0.09025 0.69681
 H1720 H 0.06895 0.11900 0.70252
 H1721 H 0.09362 0.07808 0.76485
 H1722 H 0.06058 0.04959 0.75943
 H1723 H 0.10015 0.13678 0.72703
 H1724 H 0.12564 0.10166 0.76156
 H1725 H 0.16917 0.11419 0.76300
 H1726 H 0.19967 0.14618 0.76623
 H1727 H 0.14458 0.20031 0.75248
 H1728 H 0.11414 0.16835 0.74963
 C1729 C 0.54920 0.58667 0.21381
 C1730 C 0.56800 0.60348 0.21621
 C1731 C 0.58166 0.60463 0.23771
 C1732 C 0.57632 0.58831 0.25672
 C1733 C 0.55746 0.57150 0.25428
 C1734 C 0.54369 0.57068 0.23288
 C1735 C 0.60006 0.62409 0.24011
 C1736 C 0.61851 0.62336 0.25595
 C1737 C 0.63650 0.64322 0.25789
 C1738 C 0.66032 0.63761 0.26475
 C1739 C 0.67793 0.65582 0.26599
 C1740 C 0.67195 0.68012 0.26076
 C1741 C 0.64785 0.68587 0.25481
 C1742 C 0.63029 0.66761 0.25337
 H1743 H 0.53851 0.58652 0.19729
 H1744 H 0.57160 0.61595 0.20139
 H1745 H 0.58589 0.58907 0.27384
 H1746 H 0.55302 0.55971 0.26943
 H1747 H 0.59871 0.63930 0.22766
 H1748 H 0.62152 0.60724 0.26681
 H1749 H 0.66544 0.61901 0.26866
 H1750 H 0.69628 0.65081 0.27092
 H1751 H 0.64260 0.70442 0.25087
 H1752 H 0.61187 0.67267 0.24887
 C1753 C 0.08288 0.95542 0.21829
 C1754 C 0.09868 0.93564 0.21731
 C1755 C 0.09822 0.91768 0.23545
 C1756 C 0.08138 0.91983 0.25459
 C1757 C 0.06559 0.93970 0.25556
 C1758 C 0.06631 0.95766 0.23747
 C1759 C 0.11668 0.89813 0.23461
 C1760 C 0.11448 0.87679 0.24618
 C1761 C 0.13371 0.85798 0.24580
 C1762 C 0.12724 0.83352 0.24889
 C1763 C 0.14497 0.81536 0.24901
 C1764 C 0.16964 0.82134 0.24639
 C1765 C 0.17612 0.84591 0.24362
 C1766 C 0.15839 0.86402 0.24337
 H1767 H 0.08387 0.96927 0.20432
 H1768 H 0.11158 0.93456 0.20252
 H1769 H 0.08093 0.90681 0.26931
 H1770 H 0.05327 0.94144 0.27078
 H1771 H 0.13248 0.90137 0.22338
 H1772 H 0.09777 0.87238 0.25549
 H1773 H 0.10839 0.82842 0.25106
 H1774 H 0.13932 0.79665 0.25132
 H1775 H 0.19494 0.85120 0.24170
 H1776 H 0.16417 0.88275 0.24177
 C1777 C 0.58627 0.45522 0.71300
 C1778 C 0.60277 0.43597 0.71304
 C1779 C 0.60263 0.41868 0.73182
 C1780 C 0.58543 0.42102 0.75062
 C1781 C 0.56896 0.44037 0.75059
 C1782 C 0.56928 0.45764 0.73180
 C1783 C 0.62163 0.39957 0.73191
 C1784 C 0.61963 0.37843 0.74392
 C1785 C 0.63902 0.35973 0.74412
 C1786 C 0.63265 0.33533 0.74784
 C1787 C 0.65042 0.31723 0.74850
 C1788 C 0.67510 0.32317 0.74582
 C1789 C 0.68152 0.34768 0.74241
 C1790 C 0.66371 0.36576 0.74159
 H1791 H 0.58703 0.46854 0.69850
 H1792 H 0.61592 0.43475 0.69847
 H1793 H 0.58518 0.40856 0.76582
 H1794 H 0.55640 0.44229 0.76560
 H1795 H 0.63755 0.40285 0.72087
 H1796 H 0.60283 0.37400 0.75307
 H1797 H 0.61381 0.33022 0.75008
 H1798 H 0.64479 0.29857 0.75128
 H1799 H 0.70034 0.35295 0.74039
 H1800 H 0.66941 0.38446 0.73945
 C1801 C 0.93595 0.06454 0.22739
 C1802 C 0.92197 0.08563 0.22909
 C1803 C 0.90610 0.08898 0.24872
 C1804 C 0.90511 0.07119 0.26714
 C1805 C 0.91905 0.05011 0.26539
 C1806 C 0.93448 0.04664 0.24550
 C1807 C 0.89069 0.11100 0.24932
 C1808 C 0.86899 0.11126 0.26024
 C1809 C 0.85213 0.13212 0.25940
 C1810 C 0.82740 0.12750 0.26290
 C1811 C 0.81061 0.14636 0.26223
 C1812 C 0.81817 0.17046 0.25831
 C1813 C 0.84301 0.17524 0.25516
 C1814 C 0.85988 0.15623 0.25571
 H1815 H 0.94780 0.06206 0.21190
 H1816 H 0.92317 0.09912 0.21479
 H1817 H 0.89377 0.07351 0.28299
 H1818 H 0.91793 0.03653 0.27962
 H1819 H 0.89654 0.12656 0.23879
 H1820 H 0.86228 0.09480 0.26868
 H1821 H 0.82097 0.10913 0.26595
 H1822 H 0.79165 0.14198 0.26490
 H1823 H 0.84942 0.19362 0.25224
 H1824 H 0.87890 0.16057 0.25360
 C1825 C 0.43452 0.56029 0.72043
 C1826 C 0.41986 0.58096 0.72199
 C1827 C 0.40492 0.58464 0.74230
 C1828 C 0.40551 0.56761 0.76143
 C1829 C 0.42018 0.54699 0.75985
 C1830 C 0.43474 0.54320 0.73936
 C1831 C 0.38894 0.60628 0.74296
 C1832 C 0.36781 0.60639 0.75498
 C1833 C 0.35058 0.62700 0.75476
 C1834 C 0.32611 0.62210 0.75953
 C1835 C 0.30907 0.64077 0.75976
 C1836 C 0.31612 0.66497 0.75551
 C1837 C 0.34071 0.67002 0.75102
 C1838 C 0.35782 0.65121 0.75062
 H1839 H 0.44562 0.55755 0.70444
 H1840 H 0.41984 0.59386 0.70711
 H1841 H 0.39489 0.57021 0.77773
 H1842 H 0.42028 0.53402 0.77468
 H1843 H 0.39391 0.62170 0.73179
 H1844 H 0.36188 0.58999 0.76412
 H1845 H 0.32009 0.60366 0.76294
 H1846 H 0.29033 0.63618 0.76344
 H1847 H 0.34674 0.68848 0.74777
 H1848 H 0.37664 0.65576 0.74751
 C1849 C 0.94133 0.93411 0.71657
 C1850 C 0.91955 0.92108 0.71740
 C1851 C 0.91177 0.91012 0.73912
 C1852 C 0.92601 0.91300 0.76020
 C1853 C 0.94777 0.92604 0.75933
 C1854 C 0.95554 0.93669 0.73754
 C1855 C 0.88887 0.89586 0.73909
 C1856 C 0.88476 0.87752 0.75463
 C1857 C 0.86335 0.86126 0.75330
 C1858 C 0.86585 0.83747 0.76202
 C1859 C 0.84662 0.82111 0.76066
 C1860 C 0.82414 0.82822 0.75092
 C1861 C 0.82123 0.85231 0.74292
 C1862 C 0.84074 0.86870 0.74396
 H1863 H 0.94709 0.94227 0.69960
 H1864 H 0.90890 0.91927 0.70096
 H1865 H 0.92031 0.90554 0.77746
 H1866 H 0.95846 0.92806 0.77572
 H1867 H 0.87604 0.89930 0.72459
 H1868 H 0.89869 0.87261 0.76759
 H1869 H 0.88296 0.83134 0.76953
 H1870 H 0.84940 0.80279 0.76730
 H1871 H 0.80408 0.85833 0.73547
 H1872 H 0.83800 0.88714 0.73767
 C1873 C 0.44204 0.43460 0.21826
 C1874 C 0.42068 0.42089 0.21897
 C1875 C 0.41330 0.40945 0.24056
 C1876 C 0.42746 0.41253 0.26167
 C1877 C 0.44880 0.42622 0.26092
 C1878 C 0.45619 0.43734 0.23924
 C1879 C 0.39091 0.39447 0.24038
 C1880 C 0.38739 0.37588 0.25577
 C1881 C 0.36650 0.35902 0.25428
 C1882 C 0.36963 0.33528 0.26294
 C1883 C 0.35089 0.31838 0.26136
 C1884 C 0.32833 0.32489 0.25140
 C1885 C 0.32479 0.34891 0.24347
 C1886 C 0.34377 0.36585 0.24479
 H1887 H 0.44753 0.44314 0.20138
 H1888 H 0.41008 0.41894 0.20252
 H1889 H 0.42201 0.40471 0.27886
 H1890 H 0.45945 0.42838 0.27732
 H1891 H 0.37799 0.39762 0.22590
 H1892 H 0.40146 0.37129 0.26870
 H1893 H 0.38684 0.32963 0.27058
 H1894 H 0.35412 0.30011 0.26799
 H1895 H 0.30754 0.35448 0.23589
 H1896 H 0.34053 0.38423 0.23858
   
