data_POSCAR
  _audit_creation_date              2014-09-24
  _audit_creation_method            'ToBaCCo'
  _symmetry_space_group_name_H-M    'P1'
  _symmetry_Int_Tables_number       1
  _symmetry_cell_setting            triclinic
  loop_
  _symmetry_equiv_pos_as_xyz
 x,y,z
_cell_length_a 104.5886
_cell_length_b 104.4100
_cell_length_c 104.2356
_cell_angle_alpha 90.130900
_cell_angle_beta 89.978600
_cell_angle_gamma 90.167000
loop_
  _atom_site_label
  _atom_site_type_symbol
  _atom_site_fract_x
  _atom_site_fract_y
  _atom_site_fract_z
N1 N 0.31073 0.42991 0.90376
 N2 N 0.31987 0.43854 0.90341
 C3 C 0.31768 0.44656 0.89353
 C4 C 0.30655 0.44274 0.88734
 C5 C 0.30244 0.43211 0.89416
 H6 H 0.32376 0.45455 0.89103
 H7 H 0.29402 0.42637 0.89236
 Cu8 Cu 0.33365 0.43846 0.91600
 Cu9 Cu 0.31022 0.41643 0.91660
 Cu10 Cu 0.33423 0.41627 0.93951
 N11 N 0.34686 0.43849 0.92917
 N12 N 0.34706 0.42987 0.93834
 C13 C 0.35712 0.43221 0.94608
 C14 C 0.36366 0.44292 0.94155
 C15 C 0.35677 0.44659 0.93077
 H16 H 0.35945 0.42647 0.95436
 H17 H 0.35874 0.45458 0.92452
 N18 N 0.32035 0.40336 0.93901
 N19 N 0.31123 0.40351 0.93027
 C20 C 0.30325 0.39360 0.93232
 C21 C 0.30748 0.38679 0.94287
 C22 C 0.31837 0.39329 0.94687
 H23 H 0.29492 0.39155 0.92655
 H24 H 0.32449 0.39079 0.95482
 H25 H 0.31995 0.42657 0.93074
 H26 H 0.32971 0.41581 0.92031
 N27 N 0.43018 0.84724 0.43961
 N28 N 0.43891 0.84693 0.43057
 C29 C 0.44708 0.85676 0.43224
 C30 C 0.44332 0.86371 0.44297
 C31 C 0.43250 0.85730 0.44738
 H32 H 0.45516 0.85863 0.42609
 H33 H 0.42665 0.85974 0.45557
 Cu34 Cu 0.43874 0.83370 0.41750
 Cu35 Cu 0.41647 0.83455 0.44049
 Cu36 Cu 0.41610 0.81090 0.41689
 N37 N 0.43857 0.82061 0.40430
 N38 N 0.42971 0.81167 0.40402
 C39 C 0.43187 0.80391 0.39391
 C40 C 0.44268 0.80826 0.38750
 C41 C 0.44664 0.81887 0.39442
 H42 H 0.42594 0.79580 0.39136
 H43 H 0.45490 0.82480 0.39251
 N44 N 0.40325 0.81189 0.43079
 N45 N 0.40343 0.82089 0.43971
 C46 C 0.39355 0.81901 0.44777
 C47 C 0.38677 0.80830 0.44380
 C48 C 0.39323 0.80405 0.43298
 H49 H 0.39153 0.82495 0.45601
 H50 H 0.39077 0.79589 0.42707
 H51 H 0.42619 0.81979 0.43142
 H52 H 0.41602 0.83019 0.42110
 N53 N 0.92760 0.90422 0.81083
 N54 N 0.93675 0.90397 0.81945
 C55 C 0.94454 0.89403 0.81695
 C56 C 0.94006 0.88766 0.80615
 C57 C 0.92925 0.89444 0.80255
 H58 H 0.95288 0.89167 0.82255
 H59 H 0.92305 0.89251 0.79449
 Cu60 Cu 0.93772 0.91679 0.83297
 Cu61 Cu 0.91435 0.91731 0.81088
 Cu62 Cu 0.91585 0.94018 0.83507
 N63 N 0.93838 0.92953 0.84660
 N64 N 0.92985 0.93869 0.84733
 C65 C 0.93260 0.94627 0.85742
 C66 C 0.94351 0.94163 0.86343
 C67 C 0.94686 0.93094 0.85622
 H68 H 0.92701 0.95454 0.86010
 H69 H 0.95490 0.92467 0.85775
 N70 N 0.90244 0.94003 0.82177
 N71 N 0.90186 0.93134 0.81258
 C72 C 0.89174 0.93386 0.80503
 C73 C 0.88561 0.94469 0.80964
 C74 C 0.89270 0.94831 0.82029
 H75 H 0.88908 0.92821 0.79675
 H76 H 0.89094 0.95639 0.82651
 H77 H 0.92504 0.93136 0.81990
 H78 H 0.91495 0.92096 0.83037
 N79 N 0.42778 -0.09671 0.31174
 N80 N 0.43671 -0.09706 0.32059
 C81 C 0.44438 -0.10718 0.31827
 C82 C 0.43998 -0.11352 0.30737
 C83 C 0.42943 -0.10651 0.30354
 H84 H 0.45247 -0.10979 0.32414
 H85 H 0.42334 -0.10836 0.29538
 Cu86 Cu 0.43725 -0.08423 0.33428
 Cu87 Cu 0.41447 -0.08378 0.31139
 Cu88 Cu 0.41547 -0.06053 0.33499
 N89 N 0.43791 -0.07065 0.34724
 N90 N 0.42931 -0.06151 0.34736
 C91 C 0.43178 -0.05342 0.35709
 C92 C 0.44255 -0.05762 0.36355
 C93 C 0.44619 -0.06863 0.35698
 H94 H 0.42605 -0.04511 0.35928
 H95 H 0.45423 -0.07473 0.35913
 N96 N 0.40220 -0.06109 0.32166
 N97 N 0.40183 -0.06993 0.31263
 C98 C 0.39172 -0.06772 0.30497
 C99 C 0.38538 -0.05693 0.30936
 C100 C 0.39233 -0.05301 0.32000
 H101 H 0.38917 -0.07358 0.29680
 H102 H 0.39039 -0.04488 0.32610
 H103 H 0.42523 -0.06984 0.32043
 H104 H 0.41460 -0.07988 0.33078
 N105 N 0.81060 0.32031 0.34635
 N106 N 0.81926 0.31124 0.34608
 C107 C 0.81705 0.30314 0.35593
 C108 C 0.80641 0.30743 0.36269
 C109 C 0.80264 0.31835 0.35625
 H110 H 0.82277 0.29480 0.35803
 H111 H 0.79463 0.32446 0.35848
 Cu112 Cu 0.83238 0.31111 0.33271
 Cu113 Cu 0.81000 0.33406 0.33396
 Cu114 Cu 0.83341 0.33476 0.31059
 N115 N 0.84579 0.31188 0.31968
 N116 N 0.84609 0.32111 0.31113
 C117 C 0.85622 0.31940 0.30336
 C118 C 0.86271 0.30848 0.30718
 C119 C 0.85577 0.30398 0.31761
 H120 H 0.85867 0.32573 0.29555
 H121 H 0.85780 0.29558 0.32328
 N122 N 0.81966 0.34767 0.31174
 N123 N 0.81078 0.34729 0.32070
 C124 C 0.80269 0.35712 0.31905
 C125 C 0.80660 0.36414 0.30852
 C126 C 0.81743 0.35784 0.30411
 H127 H 0.79444 0.35892 0.32500
 H128 H 0.82327 0.36048 0.29597
 H129 H 0.81897 0.32440 0.31897
 H130 H 0.82946 0.33407 0.32983
 N131 N -0.17819 0.84682 0.81096
 N132 N -0.18746 0.84667 0.81947
 C133 C -0.19531 0.85664 0.81724
 C134 C -0.19074 0.86347 0.80672
 C135 C -0.17981 0.85685 0.80305
 H136 H -0.20369 0.85875 0.82291
 H137 H -0.17344 0.85907 0.79521
 Cu138 Cu -0.18829 0.83340 0.83263
 Cu139 Cu -0.16464 0.83402 0.81063
 Cu140 Cu -0.16562 0.81071 0.83415
 N141 N -0.18846 0.82036 0.84605
 N142 N -0.17954 0.81154 0.84647
 C143 C -0.18174 0.80373 0.85645
 C144 C -0.19266 0.80780 0.86277
 C145 C -0.19667 0.81843 0.85586
 H146 H -0.17579 0.79566 0.85886
 H147 H -0.20489 0.82435 0.85785
 N148 N -0.15225 0.81136 0.82091
 N149 N -0.15182 0.82023 0.81194
 C150 C -0.14157 0.81806 0.80439
 C151 C -0.13524 0.80727 0.80882
 C152 C -0.14233 0.80333 0.81933
 H153 H -0.13890 0.82394 0.79631
 H154 H -0.14047 0.79516 0.82537
 H155 H -0.17506 0.81962 0.81913
 H156 H -0.16537 0.83011 0.82995
 N157 N 0.93803 0.34768 0.42975
 N158 N 0.93115 0.34539 0.44006
 C159 C 0.93435 0.35389 0.44926
 C160 C 0.94357 0.36218 0.44440
 C161 C 0.94558 0.35792 0.43192
 H162 H 0.92997 0.35424 0.45865
 H163 H 0.95226 0.36172 0.42498
 Cu164 Cu 0.91812 0.33199 0.44017
 Cu165 Cu 0.93701 0.33697 0.41439
 Cu166 Cu 0.91769 0.31007 0.41661
 N167 N 0.90528 0.31842 0.43974
 N168 N 0.90539 0.30982 0.43053
 C169 C 0.89562 0.30163 0.43219
 C170 C 0.88890 0.30519 0.44307
 C171 C 0.89535 0.31594 0.44763
 H172 H 0.89352 0.29374 0.42581
 H173 H 0.89289 0.32165 0.45592
 N174 N 0.93054 0.31229 0.40312
 N175 N 0.93773 0.32262 0.40196
 C176 C 0.94532 0.32122 0.39157
 C177 C 0.94265 0.30947 0.38590
 C178 C 0.93326 0.30412 0.39354
 H179 H 0.95221 0.32825 0.38835
 H180 H 0.92878 0.29487 0.39227
 H181 H 0.91862 0.32968 0.41683
 H182 H 0.93211 0.32130 0.42508
 N183 N 0.43714 0.42950 0.84617
 N184 N 0.42834 0.43843 0.84576
 C185 C 0.43010 0.44659 0.85561
 C186 C 0.44057 0.44259 0.86266
 C187 C 0.44480 0.43167 0.85634
 H188 H 0.42417 0.45484 0.85748
 H189 H 0.45278 0.42566 0.85895
 Cu190 Cu 0.41531 0.43855 0.83252
 Cu191 Cu 0.43796 0.41581 0.83342
 Cu192 Cu 0.41495 0.41615 0.80940
 N193 N 0.40256 0.43871 0.81898
 N194 N 0.40242 0.42992 0.80995
 C195 C 0.39266 0.43228 0.80188
 C196 C 0.38632 0.44318 0.80606
 C197 C 0.39292 0.44696 0.81697
 H198 H 0.39037 0.42645 0.79362
 H199 H 0.39090 0.45513 0.82301
 N200 N 0.42842 0.40302 0.81047
 N201 N 0.43715 0.40284 0.81960
 C202 C 0.44491 0.39273 0.81766
 C203 C 0.44090 0.38621 0.80677
 C204 C 0.43040 0.39307 0.80249
 H205 H 0.45289 0.39032 0.82375
 H206 H 0.42462 0.39100 0.79416
 H207 H 0.42949 0.42607 0.81875
 H208 H 0.41885 0.41582 0.82881
 N209 N 0.80849 0.90607 0.93429
 N210 N 0.81944 0.90300 0.93962
 C211 C 0.81772 0.89284 0.94734
 C212 C 0.80494 0.88945 0.94697
 C213 C 0.79933 0.89807 0.93862
 H214 H 0.82512 0.88853 0.95313
 H215 H 0.78939 0.89843 0.93581
 Cu216 Cu 0.83467 0.91321 0.93696
 Cu217 Cu 0.80711 0.92028 0.92224
 Cu218 Cu 0.83565 0.93502 0.91357
 N219 N 0.84740 0.92675 0.93690
 N220 N 0.84793 0.93528 0.92768
 C221 C 0.85779 0.94330 0.92994
 C222 C 0.86371 0.93964 0.94129
 C223 C 0.85679 0.92907 0.94539
 H224 H 0.86039 0.95118 0.92375
 H225 H 0.85836 0.92343 0.95392
 N226 N 0.81966 0.93721 0.90388
 N227 N 0.80876 0.93179 0.90729
 C228 C 0.79972 0.93486 0.89865
 C229 C 0.80515 0.94265 0.88937
 C230 C 0.81782 0.94396 0.89305
 H231 H 0.78994 0.93151 0.89903
 H232 H 0.82525 0.94918 0.88808
 H233 H 0.82545 0.91768 0.91590
 H234 H 0.82307 0.93107 0.92754
 N235 N 0.31152 0.84797 0.31874
 N236 N 0.32069 0.84778 0.31014
 C237 C 0.31905 0.85764 0.30200
 C238 C 0.30823 0.86439 0.30567
 C239 C 0.30374 0.85793 0.31638
 H240 H 0.32524 0.85968 0.29396
 H241 H 0.29540 0.86021 0.32204
 Cu242 Cu 0.33369 0.83450 0.31039
 Cu243 Cu 0.31022 0.83521 0.33227
 Cu244 Cu 0.33349 0.81156 0.33301
 N245 N 0.34676 0.82129 0.31088
 N246 N 0.34666 0.81235 0.31973
 C247 C 0.35665 0.80445 0.31779
 C248 C 0.36340 0.80866 0.30712
 C249 C 0.35679 0.81939 0.30303
 H250 H 0.35880 0.79627 0.32373
 H251 H 0.35906 0.82537 0.29490
 N252 N 0.31932 0.81249 0.34553
 N253 N 0.31050 0.82150 0.34519
 C254 C 0.30211 0.81952 0.35477
 C255 C 0.30575 0.80874 0.36154
 C256 C 0.31673 0.80454 0.35537
 H257 H 0.29384 0.82543 0.35656
 H258 H 0.32243 0.79630 0.35786
 H259 H 0.32952 0.83085 0.33309
 H260 H 0.31941 0.82052 0.32253
 N261 N 0.81152 0.40348 0.42944
 N262 N 0.82043 0.40371 0.43832
 C263 C 0.81849 0.39398 0.44652
 C264 C 0.80780 0.38718 0.44262
 C265 C 0.80359 0.39353 0.43172
 H266 H 0.82440 0.39204 0.45478
 H267 H 0.79546 0.39104 0.42580
 Cu268 Cu 0.83382 0.41659 0.43847
 Cu269 Cu 0.81104 0.41616 0.41564
 Cu270 Cu 0.83480 0.43948 0.41605
 N271 N 0.84692 0.42979 0.43866
 N272 N 0.84727 0.43873 0.42984
 C273 C 0.85719 0.44661 0.43218
 C274 C 0.86346 0.44240 0.44310
 C275 C 0.85662 0.43167 0.44694
 H276 H 0.85962 0.45478 0.42632
 H277 H 0.85856 0.42565 0.45512
 N278 N 0.82139 0.43871 0.40287
 N279 N 0.81233 0.42989 0.40262
 C280 C 0.80475 0.43204 0.39238
 C281 C 0.80929 0.44272 0.38588
 C282 C 0.81983 0.44666 0.39287
 H283 H 0.79660 0.42619 0.38978
 H284 H 0.82590 0.45480 0.39090
 H285 H 0.83032 0.42010 0.41565
 H286 H 0.82000 0.43049 0.42590
 N287 N 0.92798 0.84578 -0.06161
 N288 N 0.93670 0.84629 -0.07068
 C289 C 0.94439 0.85646 -0.06849
 C290 C 0.94026 0.86269 -0.05744
 C291 C 0.92981 0.85556 -0.05339
 H292 H 0.95234 0.85916 -0.07453
 H293 H 0.92389 0.85732 -0.04508
 Cu294 Cu 0.93706 0.83361 -0.08453
 Cu295 Cu 0.91478 0.83257 -0.06102
 Cu296 Cu 0.91569 0.80946 -0.08476
 N297 N 0.93759 0.82010 -0.09758
 N298 N 0.92917 0.81075 -0.09747
 C299 C 0.93143 0.80280 -0.10735
 C300 C 0.94184 0.80733 -0.11418
 C301 C 0.94554 0.81837 -0.10765
 H302 H 0.92586 0.79430 -0.10936
 H303 H 0.95332 0.82473 -0.11014
 N304 N 0.90269 0.80962 -0.07118
 N305 N 0.90227 0.81840 -0.06209
 C306 C 0.89230 0.81583 -0.05430
 C307 C 0.88615 0.80486 -0.05869
 C308 C 0.89305 0.80125 -0.06944
 H309 H 0.88971 0.82155 -0.04605
 H310 H 0.89121 0.79313 -0.07559
 H311 H 0.92562 0.81900 -0.07033
 H312 H 0.91458 0.82883 -0.08037
 N313 N 0.31137 0.34685 0.81872
 N314 N 0.32047 0.34685 0.81004
 C315 C 0.31848 0.35656 0.80182
 C316 C 0.30752 0.36304 0.80552
 C317 C 0.30328 0.35655 0.81633
 H318 H 0.32456 0.35872 0.79373
 H319 H 0.29495 0.35868 0.82207
 Cu320 Cu 0.33400 0.33413 0.81037
 Cu321 Cu 0.31071 0.33425 0.83241
 Cu322 Cu 0.33468 0.31128 0.83310
 N323 N 0.34731 0.32119 0.81067
 N324 N 0.34763 0.31228 0.81954
 C325 C 0.35785 0.30470 0.81744
 C326 C 0.36429 0.30912 0.80664
 C327 C 0.35725 0.31959 0.80264
 H328 H 0.36042 0.29665 0.82339
 H329 H 0.35916 0.32558 0.79442
 N330 N 0.32065 0.31202 0.84589
 N331 N 0.31159 0.32078 0.84553
 C332 C 0.30352 0.31890 0.85539
 C333 C 0.30760 0.30844 0.86238
 C334 C 0.31852 0.30431 0.85605
 H335 H 0.29519 0.32470 0.85729
 H336 H 0.32456 0.29636 0.85872
 H337 H 0.33019 0.33048 0.83317
 H338 H 0.32033 0.31981 0.82272
 N339 N 0.15344 0.57082 0.56086
 N340 N 0.15353 0.56165 0.56948
 C341 C 0.14371 0.55358 0.56714
 C342 C 0.13709 0.55790 0.55644
 C343 C 0.14360 0.56889 0.55276
 H344 H 0.14155 0.54521 0.57281
 H345 H 0.14143 0.57506 0.54476
 Cu346 Cu 0.16655 0.56112 0.58286
 Cu347 Cu 0.16607 0.58460 0.56066
 Cu348 Cu 0.18888 0.58425 0.58467
 N349 N 0.17933 0.56131 0.59650
 N350 N 0.18799 0.57043 0.59705
 C351 C 0.19566 0.56844 0.60716
 C352 C 0.19170 0.55743 0.61341
 C353 C 0.18125 0.55316 0.60634
 H354 H 0.20356 0.57461 0.60972
 H355 H 0.17548 0.54477 0.60819
 N356 N 0.18833 0.59749 0.57134
 N357 N 0.17967 0.59768 0.56215
 C358 C 0.18192 0.60789 0.55457
 C359 C 0.19252 0.61445 0.55922
 C360 C 0.19628 0.60752 0.56987
 H361 H 0.17623 0.61036 0.54630
 H362 H 0.20428 0.60956 0.57609
 H363 H 0.18039 0.57449 0.56956
 H364 H 0.16959 0.58411 0.58008
 N365 N 0.59502 0.67810 0.06083
 N366 N 0.59541 0.68740 0.06933
 C367 C 0.60557 0.69496 0.06683
 C368 C 0.61190 0.69016 0.05615
 C369 C 0.60488 0.67942 0.05264
 H370 H 0.60811 0.70334 0.07236
 H371 H 0.60671 0.67304 0.04468
 Cu372 Cu 0.58250 0.68877 0.08272
 Cu373 Cu 0.58164 0.66510 0.06086
 Cu374 Cu 0.55873 0.66710 0.08484
 N375 N 0.56973 0.68968 0.09629
 N376 N 0.56047 0.68119 0.09707
 C377 C 0.55300 0.68405 0.10719
 C378 C 0.55780 0.69496 0.11313
 C379 C 0.56846 0.69823 0.10590
 H380 H 0.54471 0.67854 0.11000
 H381 H 0.57479 0.70627 0.10745
 N382 N 0.55863 0.65358 0.07155
 N383 N 0.56738 0.65284 0.06246
 C384 C 0.56469 0.64278 0.05482
 C385 C 0.55368 0.63684 0.05925
 C386 C 0.55014 0.64398 0.06991
 H387 H 0.57036 0.63999 0.04663
 H388 H 0.54191 0.64240 0.07598
 H389 H 0.56776 0.67610 0.06969
 H390 H 0.57791 0.66599 0.08033
 N391 N 0.67977 0.18934 0.65349
 N392 N 0.68851 0.18035 0.65282
 C393 C 0.69599 0.18261 0.64252
 C394 C 0.69164 0.19358 0.63643
 C395 C 0.68134 0.19755 0.64373
 H396 H 0.70389 0.17663 0.63958
 H397 H 0.67544 0.20587 0.64213
 Cu398 Cu 0.68900 0.16665 0.66550
 Cu399 Cu 0.66686 0.18976 0.66678
 Cu400 Cu 0.66766 0.16604 0.68989
 N401 N 0.68964 0.15362 0.67882
 N402 N 0.68133 0.15340 0.68829
 C403 C 0.68402 0.14345 0.69604
 C404 C 0.69461 0.13706 0.69120
 C405 C 0.69788 0.14384 0.68025
 H406 H 0.67859 0.14103 0.70452
 H407 H 0.70573 0.14187 0.67381
 N408 N 0.65464 0.17978 0.68969
 N409 N 0.65451 0.18878 0.68084
 C410 C 0.64463 0.19667 0.68301
 C411 C 0.63809 0.19252 0.69374
 C412 C 0.64474 0.18176 0.69778
 H413 H 0.64240 0.20492 0.67720
 H414 H 0.64243 0.17573 0.70588
 H415 H 0.67760 0.18025 0.68066
 H416 H 0.66657 0.17019 0.67074
 N417 N 1.09551 0.06982 0.18886
 N418 N 1.09515 0.06052 0.18037
 C419 C 1.10522 0.05273 0.18221
 C420 C 1.11229 0.05732 0.19247
 C421 C 1.10580 0.06822 0.19646
 H422 H 1.10722 0.04431 0.17651
 H423 H 1.10840 0.07458 0.20423
 Cu424 Cu 1.08187 0.05946 0.16742
 Cu425 Cu 1.08241 0.08311 0.18945
 Cu426 Cu 1.05718 0.07983 0.16789
 N427 N 1.06888 0.05922 0.15411
 N428 N 1.05921 0.06720 0.15427
 C429 C 1.05160 0.06474 0.14413
 C430 C 1.05679 0.05463 0.13719
 C431 C 1.06781 0.05145 0.14383
 H432 H 1.04294 0.06995 0.14202
 H433 H 1.07452 0.04394 0.14145
 N434 N 1.05837 0.09394 0.18045
 N435 N 1.06801 0.09531 0.18851
 C436 C 1.06600 0.10581 0.19577
 C437 C 1.05455 0.11137 0.19209
 C438 C 1.05002 0.10356 0.18232
 H439 H 1.07241 0.10915 0.20319
 H440 H 1.04121 0.10469 0.17704
 H441 H 1.06842 0.07188 0.18219
 H442 H 1.07673 0.08215 0.17026
 N443 N 0.07128 0.15454 1.06069
 N444 N 0.06202 0.15466 1.06921
 C445 C 0.05407 0.14474 1.06687
 C446 C 0.05856 0.13802 1.05629
 C447 C 0.06954 0.14458 1.05266
 H448 H 0.04565 0.14258 1.07248
 H449 H 0.07581 0.14235 1.04474
 Cu450 Cu 0.06128 0.16787 1.08247
 Cu451 Cu 0.08491 0.16731 1.06047
 Cu452 Cu 0.08412 0.19053 1.08420
 N453 N 0.06118 0.18084 1.09598
 N454 N 0.07018 0.18963 1.09651
 C455 C 0.06795 0.19742 1.10654
 C456 C 0.05693 0.19337 1.11273
 C457 C 0.05290 0.18277 1.10571
 H458 H 0.07393 0.20550 1.10905
 H459 H 0.04459 0.17689 1.10755
 N460 N 0.09748 0.18991 1.07091
 N461 N 0.09783 0.18106 1.06187
 C462 C 0.10803 0.18326 1.05428
 C463 C 0.11445 0.19404 1.05874
 C464 C 0.10744 0.19795 1.06932
 H465 H 0.11062 0.17741 1.04613
 H466 H 0.10937 0.20612 1.07540
 H467 H 0.08422 0.17118 1.07986
 H468 H 0.07460 0.18174 1.06914
 N469 N 0.15458 0.68905 0.67912
 N470 N 0.15480 0.68015 0.68802
 C471 C 0.14498 0.68200 0.69613
 C472 C 0.13817 0.69264 0.69216
 C473 C 0.14459 0.69687 0.68130
 H474 H 0.14297 0.67606 0.70432
 H475 H 0.14211 0.70498 0.67538
 Cu476 Cu 0.16787 0.66703 0.68809
 Cu477 Cu 0.16728 0.68965 0.66533
 Cu478 Cu 0.19050 0.66586 0.66543
 N479 N 0.18075 0.65370 0.68813
 N480 N 0.18962 0.65325 0.67921
 C481 C 0.19724 0.64313 0.68139
 C482 C 0.19296 0.63686 0.69231
 C483 C 0.18246 0.64390 0.69629
 H484 H 0.20531 0.64054 0.67546
 H485 H 0.17643 0.64202 0.70445
 N486 N 0.18977 0.67948 0.65234
 N487 N 0.18098 0.68853 0.65229
 C488 C 0.18317 0.69636 0.64226
 C489 C 0.19385 0.69206 0.63565
 C490 C 0.19775 0.68133 0.64238
 H491 H 0.17738 0.70459 0.63994
 H492 H 0.20586 0.67531 0.64025
 H493 H 0.17115 0.67025 0.66517
 H494 H 0.18170 0.68064 0.67521
 N495 N 1.18058 0.15371 0.18961
 N496 N 1.18943 0.15390 0.18066
 C497 C 1.19753 0.14406 0.18266
 C498 C 1.19351 0.13738 0.19346
 C499 C 1.18272 0.14385 0.19756
 H500 H 1.20568 0.14188 0.17668
 H501 H 1.17687 0.14168 0.20582
 Cu502 Cu 1.18934 0.16712 0.16741
 Cu503 Cu 1.16689 0.16618 0.19053
 Cu504 Cu 1.16593 0.18925 0.16683
 N505 N 1.18841 0.18001 0.15389
 N506 N 1.17921 0.18856 0.15381
 C507 C 1.18074 0.19634 0.14367
 C508 C 1.19150 0.19254 0.13691
 C509 C 1.19611 0.18209 0.14372
 H510 H 1.17446 0.20422 0.14146
 H511 H 1.20443 0.17641 0.14145
 N512 N 1.15334 0.18837 0.18085
 N513 N 1.15376 0.17958 0.18990
 C514 C 1.14401 0.18150 0.19810
 C515 C 1.13707 0.19202 0.19406
 C516 C 1.14330 0.19611 0.18306
 H517 H 1.14217 0.17567 0.20645
 H518 H 1.14072 0.20412 0.17706
 H519 H 1.16651 0.16999 0.17106
 H520 H 1.17645 0.18088 0.18126
 N521 N 0.65432 1.06264 0.57105
 N522 N 0.65574 1.07045 0.56128
 C523 C 0.64663 1.06794 0.55252
 C524 C 0.63902 1.05801 0.55703
 C525 C 0.64420 1.05494 0.56887
 H526 H 0.64568 1.07294 0.54351
 H527 H 0.64089 1.04770 0.57550
 Cu528 Cu 0.66934 1.08320 0.56105
 Cu529 Cu 0.66554 1.06328 0.58600
 Cu530 Cu 0.69391 1.07989 0.58115
 N531 N 0.68245 1.09641 0.56251
 N532 N 0.69211 1.09496 0.57041
 C533 C 0.70014 1.10497 0.56924
 C534 C 0.69524 1.11324 0.56012
 C535 C 0.68397 1.10747 0.55604
 H536 H 0.70901 1.10596 0.57448
 H537 H 0.67741 1.11099 0.54886
 N538 N 0.69135 1.06781 0.59531
 N539 N 0.68050 1.06170 0.59742
 C540 C 0.68175 1.05454 0.60809
 C541 C 0.69397 1.05634 0.61296
 C542 C 0.69975 1.06482 0.60457
 H543 H 0.67427 1.04859 0.61207
 H544 H 0.70935 1.06863 0.60515
 H545 H 0.67479 1.08094 0.58365
 H546 H 0.68018 1.06695 0.57389
 N547 N 0.56963 0.56123 0.15293
 N548 N 0.56118 0.57051 0.15317
 C549 C 0.55299 0.56898 0.14335
 C550 C 0.55647 0.55815 0.13651
 C551 C 0.56710 0.55348 0.14290
 H552 H 0.54498 0.57519 0.14144
 H553 H 0.57263 0.54508 0.14048
 Cu554 Cu 0.56159 0.58346 0.16650
 Cu555 Cu 0.58309 0.55991 0.16581
 Cu556 Cu 0.58355 0.58311 0.18989
 N557 N 0.56159 0.59627 0.17994
 N558 N 0.57017 0.59619 0.18914
 C559 C 0.56784 0.60606 0.19717
 C560 C 0.55721 0.61266 0.19272
 C561 C 0.55353 0.60609 0.18178
 H562 H 0.57350 0.60827 0.20557
 H563 H 0.54549 0.60820 0.17567
 N564 N 0.59617 0.56902 0.18880
 N565 N 0.59591 0.56025 0.17966
 C566 C 0.60563 0.55204 0.18146
 C567 C 0.61242 0.55574 0.19226
 C568 C 0.60611 0.56658 0.19666
 H569 H 0.60760 0.54395 0.17531
 H570 H 0.60860 0.57233 0.20492
 H571 H 0.57329 0.56904 0.18052
 H572 H 0.58409 0.57917 0.17054
 N573 N 0.65340 0.67978 0.19052
 N574 N 0.65327 0.68870 0.18167
 C575 C 0.64332 0.69659 0.18388
 C576 C 0.63687 0.69236 0.19473
 C577 C 0.64359 0.68165 0.19863
 H578 H 0.64092 0.70475 0.17801
 H579 H 0.64162 0.67568 0.20686
 Cu580 Cu 0.66626 0.68905 0.16827
 Cu581 Cu 0.66629 0.66645 0.19101
 Cu582 Cu 0.68933 0.66651 0.16705
 N583 N 0.67907 0.68890 0.15473
 N584 N 0.68804 0.68013 0.15423
 C585 C 0.69551 0.68235 0.14392
 C586 C 0.69098 0.69313 0.13759
 C587 C 0.68052 0.69697 0.14478
 H588 H 0.70359 0.67650 0.14123
 H589 H 0.67440 0.70507 0.14294
 N590 N 0.68884 0.65363 0.18098
 N591 N 0.68003 0.65372 0.19004
 C592 C 0.68208 0.64390 0.19808
 C593 C 0.69269 0.63718 0.19396
 C594 C 0.69677 0.64366 0.18307
 H595 H 0.67630 0.64185 0.20641
 H596 H 0.70482 0.64122 0.17705
 H597 H 0.68074 0.67655 0.18166
 H598 H 0.67022 0.66628 0.17145
 N599 N 0.15313 0.07087 1.06034
 N600 N 0.15261 0.06179 1.06903
 C601 C 0.14258 0.05408 1.06646
 C602 C 0.13646 0.05856 1.05555
 C603 C 0.14347 0.06926 1.05197
 H604 H 0.13993 0.04586 1.07214
 H605 H 0.14177 0.07541 1.04383
 Cu606 Cu 0.16512 0.06091 1.08281
 Cu607 Cu 0.16632 0.08405 1.06043
 Cu608 Cu 0.18912 0.08241 1.08447
 N609 N 0.17820 0.05995 1.09604
 N610 N 0.18752 0.06839 1.09664
 C611 C 0.19520 0.06550 1.10657
 C612 C 0.19048 0.05462 1.11256
 C613 C 0.17965 0.05139 1.10557
 H614 H 0.20358 0.07097 1.10919
 H615 H 0.17331 0.04339 1.10724
 N616 N 0.18910 0.09588 1.07126
 N617 N 0.18041 0.09650 1.06212
 C618 C 0.18303 0.10662 1.05457
 C619 C 0.19391 0.11271 1.05914
 C620 C 0.19746 0.10559 1.06976
 H621 H 0.17741 0.10931 1.04632
 H622 H 0.20559 0.10729 1.07593
 H623 H 0.17997 0.07310 1.06956
 H624 H 0.16990 0.08362 1.07995
 N625 N 0.59702 0.18861 0.57025
 N626 N 0.59651 0.17956 0.56148
 C627 C 0.60642 0.18093 0.55337
 C628 C 0.61364 0.19140 0.55720
 C629 C 0.60734 0.19605 0.56799
 H630 H 0.60819 0.17478 0.54523
 H631 H 0.61008 0.20417 0.57383
 Cu632 Cu 0.58302 0.16675 0.56139
 Cu633 Cu 0.58421 0.18994 0.58391
 Cu634 Cu 0.56016 0.16692 0.58384
 N635 N 0.56963 0.15381 0.56161
 N636 N 0.56068 0.15397 0.57044
 C637 C 0.55261 0.14412 0.56845
 C638 C 0.55668 0.13735 0.55775
 C639 C 0.56755 0.14382 0.55369
 H640 H 0.54438 0.14211 0.57438
 H641 H 0.57353 0.14144 0.54558
 N642 N 0.56117 0.18072 0.59664
 N643 N 0.57028 0.18949 0.59681
 C644 C 0.56818 0.19746 0.60682
 C645 C 0.55725 0.19345 0.61324
 C646 C 0.55311 0.18283 0.60645
 H647 H 0.57423 0.20549 0.60931
 H648 H 0.54474 0.17708 0.60843
 H649 H 0.57966 0.17079 0.58418
 H650 H 0.56965 0.18131 0.57383
 N651 N 0.09668 0.57047 0.68893
 N652 N 0.09635 0.56159 0.68000
 C653 C 0.10617 0.55348 0.68178
 C654 C 0.11308 0.55746 0.69243
 C655 C 0.10673 0.56832 0.69670
 H656 H 0.10810 0.54527 0.67578
 H657 H 0.10919 0.57425 0.70484
 Cu658 Cu 0.08315 0.56150 0.66690
 Cu659 Cu 0.08403 0.58410 0.68975
 Cu660 Cu 0.06015 0.58398 0.66658
 N661 N 0.06970 0.56138 0.65406
 N662 N 0.06071 0.57014 0.65388
 C663 C 0.05277 0.56772 0.64397
 C664 C 0.05702 0.55683 0.63759
 C665 C 0.06779 0.55312 0.64433
 H666 H 0.04456 0.57350 0.64157
 H667 H 0.07378 0.54494 0.64237
 N668 N 0.06131 0.59712 0.68028
 N669 N 0.07042 0.59709 0.68904
 C670 C 0.06873 0.60711 0.69698
 C671 C 0.05803 0.61387 0.69312
 C672 C 0.05358 0.60721 0.68246
 H673 H 0.07484 0.60928 0.70505
 H674 H 0.04537 0.60959 0.67666
 H675 H 0.06928 0.57400 0.68097
 H676 H 0.07942 0.58427 0.67044
 N677 N 0.65460 0.56074 0.06999
 N678 N 0.65416 0.56979 0.06126
 C679 C 0.64421 0.56745 0.05336
 C680 C 0.63807 0.55634 0.05737
 C681 C 0.64500 0.55239 0.06797
 H682 H 0.64158 0.57344 0.04535
 H683 H 0.64328 0.54401 0.07378
 Cu684 Cu 0.66664 0.58376 0.06115
 Cu685 Cu 0.66750 0.56028 0.08344
 Cu686 Cu 0.69034 0.58420 0.08295
 N687 N 0.68003 0.59688 0.06085
 N688 N 0.68922 0.59683 0.06943
 C689 C 0.69713 0.60674 0.06732
 C690 C 0.69274 0.61353 0.05684
 C691 C 0.68183 0.60695 0.05294
 H692 H 0.70550 0.60879 0.07304
 H693 H 0.67560 0.60937 0.04504
 N694 N 0.69003 0.57068 0.09595
 N695 N 0.68134 0.56151 0.09621
 C696 C 0.68380 0.55374 0.10622
 C697 C 0.69457 0.55827 0.11256
 C698 C 0.69822 0.56902 0.10574
 H699 H 0.67813 0.54545 0.10874
 H700 H 0.70633 0.57514 0.10766
 H701 H 0.67103 0.57966 0.08377
 H702 H 0.68114 0.56974 0.07280
 N703 N 0.06975 0.68956 0.59558
 N704 N 0.06091 0.68060 0.59550
 C705 C 0.05272 0.68268 0.60522
 C706 C 0.05659 0.69353 0.61181
 C707 C 0.06747 0.69766 0.60539
 H708 H 0.04445 0.67680 0.60724
 H709 H 0.07334 0.70588 0.60771
 Cu710 Cu 0.06074 0.66705 0.58276
 Cu711 Cu 0.08345 0.69000 0.58285
 Cu712 Cu 0.08306 0.66611 0.55965
 N713 N 0.06052 0.65397 0.56951
 N714 N 0.06930 0.65360 0.56052
 C715 C 0.06688 0.64367 0.55263
 C716 C 0.05595 0.63745 0.55688
 C717 C 0.05220 0.64429 0.56765
 H718 H 0.07269 0.64120 0.54442
 H719 H 0.04400 0.64243 0.57366
 N720 N 0.09620 0.67959 0.56032
 N721 N 0.09641 0.68871 0.56910
 C722 C 0.10651 0.69644 0.56684
 C723 C 0.11296 0.69198 0.55609
 C724 C 0.10610 0.68128 0.55226
 H725 H 0.10895 0.70471 0.57260
 H726 H 0.10807 0.67520 0.54411
 H727 H 0.07315 0.68089 0.56862
 H728 H 0.08345 0.67068 0.57903
 N729 N 0.56749 1.06061 0.65524
 N730 N 0.55958 1.07034 0.65546
 C731 C 0.55191 1.06973 0.64512
 C732 C 0.55505 1.05893 0.63800
 C733 C 0.56506 1.05340 0.64479
 H734 H 0.54445 1.07658 0.64314
 H735 H 0.57019 1.04473 0.64248
 Cu736 Cu 0.55942 1.08257 0.66953
 Cu737 Cu 0.57991 1.05776 0.66883
 Cu738 Cu 0.58402 1.08272 0.69045
 N739 N 0.56132 1.09583 0.68249
 N740 N 0.57103 1.09601 0.69045
 C741 C 0.56986 1.10610 0.69841
 C742 C 0.55875 1.11269 0.69531
 C743 C 0.55364 1.10583 0.68508
 H744 H 0.57654 1.10827 0.70601
 H745 H 0.54493 1.10783 0.67991
 N746 N 0.59598 1.06825 0.68906
 N747 N 0.59427 1.05860 0.68104
 C748 C 0.60370 1.05002 0.68279
 C749 C 0.61172 1.05442 0.69245
 C750 C 0.60649 1.06603 0.69615
 H751 H 0.60453 1.04114 0.67752
 H752 H 0.60998 1.07238 0.70356
 H753 H 0.57212 1.06876 0.68366
 H754 H 0.58197 1.07720 0.67133
 N755 N 0.43961 0.34648 0.92826
 N756 N 0.43113 0.34710 0.93752
 C757 C 0.43397 0.35710 0.94519
 C758 C 0.44486 0.36316 0.94048
 C759 C 0.44811 0.35607 0.92967
 H760 H 0.42850 0.35969 0.95359
 H761 H 0.45610 0.35762 0.92330
 Cu762 Cu 0.41726 0.33468 0.93883
 Cu763 Cu 0.43925 0.33316 0.91520
 Cu764 Cu 0.41536 0.31032 0.91767
 N765 N 0.40422 0.32141 0.94027
 N766 N 0.40355 0.31198 0.93193
 C767 C 0.39386 0.30414 0.93514
 C768 C 0.38808 0.30885 0.94614
 C769 C 0.39495 0.31986 0.94911
 H770 H 0.39128 0.29563 0.92983
 H771 H 0.39341 0.32621 0.95715
 N772 N 0.42818 0.31021 0.90390
 N773 N 0.43728 0.31892 0.90293
 C774 C 0.44461 0.31613 0.89269
 C775 C 0.43992 0.30511 0.88692
 C776 C 0.42947 0.30166 0.89432
 H777 H 0.45279 0.32172 0.88971
 H778 H 0.42336 0.29342 0.89296
 H779 H 0.41989 0.32957 0.91612
 H780 H 0.43040 0.31970 0.92668
 N781 N 0.93855 0.42678 0.34706
 N782 N 0.93040 0.43632 0.34743
 C783 C 0.93322 0.44386 0.35757
 C784 C 0.94374 0.43877 0.36395
 C785 C 0.94679 0.42788 0.35691
 H786 H 0.92796 0.45240 0.36007
 H787 H 0.95448 0.42124 0.35866
 Cu788 Cu 0.91694 0.43793 0.33453
 Cu789 Cu 0.93816 0.41372 0.33372
 Cu790 Cu 0.91414 0.41588 0.31106
 N791 N 0.90314 0.43866 0.32192
 N792 N 0.90219 0.42999 0.31281
 C793 C 0.89204 0.43266 0.30540
 C794 C 0.88620 0.44363 0.31004
 C795 C 0.89356 0.44716 0.32058
 H796 H 0.88919 0.42700 0.29719
 H797 H 0.89206 0.45529 0.32682
 N798 N 0.92710 0.40226 0.31083
 N799 N 0.93624 0.40141 0.31949
 C800 C 0.94359 0.39121 0.31671
 C801 C 0.93887 0.38531 0.30575
 C802 C 0.92838 0.39262 0.30233
 H803 H 0.95178 0.38830 0.32229
 H804 H 0.92217 0.39112 0.29419
 H805 H 0.92951 0.42480 0.31983
 H806 H 0.91876 0.41504 0.33032
 N807 N 0.31402 0.93123 0.40298
 N808 N 0.32324 0.93981 0.40314
 C809 C 0.32158 0.94796 0.39328
 C810 C 0.31073 0.94433 0.38651
 C811 C 0.30620 0.93364 0.39301
 H812 H 0.32782 0.95595 0.39123
 H813 H 0.29786 0.92797 0.39066
 Cu814 Cu 0.33663 0.93957 0.41615
 Cu815 Cu 0.31284 0.91758 0.41574
 Cu816 Cu 0.33612 0.91737 0.43935
 N817 N 0.34944 0.93942 0.42976
 N818 N 0.34912 0.93064 0.43874
 C819 C 0.35890 0.93250 0.44688
 C820 C 0.36587 0.94311 0.44288
 C821 C 0.35950 0.94724 0.43192
 H822 H 0.36071 0.92651 0.45510
 H823 H 0.36199 0.95529 0.42591
 N824 N 0.32228 0.90466 0.43851
 N825 N 0.31339 0.90460 0.42955
 C826 C 0.30542 0.89464 0.43168
 C827 C 0.30952 0.88812 0.44253
 C828 C 0.32023 0.89482 0.44655
 H829 H 0.29730 0.89226 0.42572
 H830 H 0.32613 0.89273 0.45477
 H831 H 0.32197 0.92774 0.42996
 H832 H 0.33202 0.91695 0.41984
 O833 O 0.28463 0.49771 0.76314
 O834 O 0.28155 0.52031 0.76084
 O835 O 0.25211 0.48636 0.78516
 O836 O 0.23080 0.48784 0.78355
 O837 O 0.26316 0.46482 0.75204
 O838 O 0.26035 0.46777 0.72946
 O839 O 0.21742 0.51913 0.75032
 O840 O 0.22277 0.51823 0.77244
 O841 O 0.24924 0.53191 0.73078
 O842 O 0.27186 0.52586 0.73002
 O843 O 0.22981 0.49955 0.71813
 O844 O 0.22962 0.47679 0.72446
 O845 O 0.21482 0.50259 0.73636
 O846 O 0.21762 0.47889 0.73963
 O847 O 0.24610 0.51372 0.71545
 O848 O 0.26988 0.51060 0.71804
 O849 O 0.23536 0.53438 0.74736
 O850 O 0.23894 0.53189 0.77073
 O851 O 0.28212 0.48123 0.74906
 O852 O 0.27534 0.48109 0.72688
 O853 O 0.24944 0.46716 0.76880
 O854 O 0.22684 0.47364 0.76822
 O855 O 0.26864 0.50030 0.78251
 O856 O 0.26849 0.52258 0.77611
 Zr857 Zr 0.26669 0.50680 0.76349
 O858 O 0.25544 0.51902 0.75214
 Zr859 Zr 0.24279 0.48614 0.76728
 O860 O 0.23034 0.49762 0.75634
 Zr861 Zr 0.26302 0.48274 0.74288
 O862 O 0.25139 0.49379 0.73074
 Zr863 Zr 0.23613 0.51686 0.75727
 O864 O 0.24754 0.50565 0.76968
 Zr865 Zr 0.25627 0.51320 0.73286
 O866 O 0.26893 0.50200 0.74397
 Zr867 Zr 0.23227 0.49265 0.73688
 O868 O 0.24372 0.48020 0.74799
 O869 O 0.26192 0.48755 0.76217
 O870 O 0.23707 0.51196 0.73794
 C871 C 0.28881 0.48785 0.75704
 C872 C 0.26211 0.49230 0.78925
 C873 C 0.25735 0.46057 0.76204
 C874 C 0.21086 0.51279 0.74203
 C875 C 0.24100 0.53842 0.73718
 C876 C 0.23597 0.50790 0.71153
 H877 H 0.25842 0.52794 0.75321
 H878 H 0.25240 0.49083 0.72179
 H879 H 0.26748 0.48213 0.76757
 H880 H 0.22145 0.49662 0.75940
 H881 H 0.22687 0.51441 0.78008
 H882 H 0.22342 0.49318 0.78104
 H883 H 0.26712 0.50322 0.71275
 H884 H 0.28021 0.48922 0.72640
 H885 H 0.24665 0.53678 0.76820
 H886 H 0.26044 0.52295 0.78110
 H887 H 0.23686 0.47666 0.71834
 H888 H 0.25156 0.46450 0.73081
 H889 H 0.28467 0.51912 0.75195
 H890 H 0.27231 0.53164 0.73754
 H891 H 0.22714 0.46816 0.76046
 H892 H 0.21251 0.48157 0.74716
 O893 O 0.25118 0.03425 0.23316
 O894 O 0.27312 0.02789 0.23387
 O895 O 0.23261 0.00196 0.21639
 O896 O 0.23076 -0.01897 0.22030
 O897 O 0.21702 0.01968 0.25012
 O898 O 0.22224 0.01873 0.27241
 O899 O 0.26356 -0.03400 0.25148
 O900 O 0.26073 -0.03085 0.22915
 O901 O 0.28319 -0.00295 0.26580
 O902 O 0.28062 0.02046 0.26479
 O903 O 0.25009 -0.01571 0.28382
 O904 O 0.22704 -0.01273 0.28002
 O905 O 0.24858 -0.03260 0.26719
 O906 O 0.22532 -0.02620 0.26593
 O907 O 0.26683 -0.00183 0.28323
 O908 O 0.26695 0.02188 0.27854
 O909 O 0.28150 -0.01863 0.25074
 O910 O 0.27677 -0.01690 0.22752
 O911 O 0.23628 0.03590 0.24897
 O912 O 0.23795 0.03152 0.27182
 O913 O 0.21529 0.00420 0.23484
 O914 O 0.21830 -0.01913 0.23736
 O915 O 0.24917 0.01611 0.21576
 O916 O 0.27175 0.01313 0.22004
 Zr917 Zr 0.25739 0.01514 0.23417
 O918 O 0.26896 0.00317 0.24544
 Zr919 Zr 0.23303 -0.00534 0.23517
 O920 O 0.24367 -0.01842 0.24622
 Zr921 Zr 0.23568 0.01752 0.25731
 O922 O 0.24614 0.00538 0.26954
 Zr923 Zr 0.26328 -0.01595 0.24270
 O924 O 0.25257 -0.00409 0.23029
 Zr925 Zr 0.26565 0.00678 0.26500
 O926 O 0.25532 0.02002 0.25368
 Zr927 Zr 0.24140 -0.01384 0.26574
 O928 O 0.22964 -0.00157 0.25473
 O929 O 0.23794 0.01373 0.23790
 O930 O 0.26091 -0.01237 0.26220
 C931 C 0.24279 0.04056 0.23958
 C932 C 0.23956 0.01033 0.21061
 C933 C 0.21080 0.01368 0.24131
 C934 C 0.25737 -0.03863 0.26105
 C935 C 0.28755 -0.01272 0.25972
 C936 C 0.26009 -0.01052 0.28878
 H937 H 0.27802 0.00455 0.24315
 H938 H 0.24446 0.00770 0.27858
 H939 H 0.23283 0.01950 0.23243
 H940 H 0.24098 -0.02730 0.24428
 H941 H 0.25681 -0.02693 0.22146
 H942 H 0.23542 -0.02677 0.22291
 H943 H 0.25987 0.02087 0.28476
 H944 H 0.24668 0.03508 0.27081
 H945 H 0.28312 -0.00996 0.22873
 H946 H 0.27024 0.00476 0.21581
 H947 H 0.22872 -0.00498 0.28524
 H948 H 0.21764 0.01043 0.27254
 H949 H 0.27334 0.03209 0.24239
 H950 H 0.28547 0.01926 0.25673
 H951 H 0.21378 -0.01707 0.24545
 H952 H 0.22636 -0.03249 0.25890
 O953 O 0.50220 0.71530 0.23520
 O954 O 0.47937 0.71899 0.23685
 O955 O 0.51550 0.74949 0.21697
 O956 O 0.51375 0.77076 0.22072
 O957 O 0.53478 0.73478 0.24967
 O958 O 0.53061 0.73589 0.27253
 O959 O 0.48228 0.78212 0.25364
 O960 O 0.48409 0.77823 0.23069
 O961 O 0.46706 0.74872 0.26909
 O962 O 0.47238 0.72563 0.26701
 O963 O 0.49861 0.76547 0.28529
 O964 O 0.52236 0.76486 0.28015
 O965 O 0.49805 0.78252 0.26861
 O966 O 0.52109 0.77925 0.26712
 O967 O 0.48424 0.74912 0.28545
 O968 O 0.48657 0.72590 0.28046
 O969 O 0.46616 0.76460 0.25427
 O970 O 0.46811 0.76274 0.23249
 O971 O 0.51783 0.71608 0.25035
 O972 O 0.51738 0.72063 0.27272
 O973 O 0.53360 0.75023 0.23438
 O974 O 0.52767 0.77277 0.23668
 O975 O 0.50110 0.73314 0.21737
 O976 O 0.47834 0.73256 0.22263
 Zr977 Zr 0.49348 0.73351 0.23607
 O978 O 0.48096 0.74421 0.24772
 Zr979 Zr 0.51476 0.75714 0.23568
 O980 O 0.50326 0.76881 0.24753
 Zr981 Zr 0.51647 0.73458 0.25810
 O982 O 0.50489 0.74506 0.27083
 Zr983 Zr 0.48397 0.76391 0.24502
 O984 O 0.49529 0.75322 0.23190
 Zr985 Zr 0.48554 0.74107 0.26706
 O986 O 0.49719 0.72927 0.25544
 Zr987 Zr 0.50700 0.76466 0.26691
 O988 O 0.51970 0.75421 0.25506
 O989 O 0.51269 0.73763 0.23881
 O990 O 0.48769 0.76070 0.26431
 C991 C 0.51153 0.71029 0.24148
 C992 C 0.50958 0.74003 0.21168
 C993 C 0.53964 0.74144 0.24050
 C994 C 0.48850 0.78758 0.26281
 C995 C 0.46134 0.75806 0.26352
 C996 C 0.48980 0.75876 0.29071
 H997 H 0.47201 0.74190 0.24571
 H998 H 0.50724 0.74298 0.27977
 H999 H 0.51826 0.73243 0.23318
 H1000 H 0.50476 0.77793 0.24550
 H1001 H 0.48683 0.77403 0.22262
 H1002 H 0.50840 0.77792 0.22382
 H1003 H 0.49400 0.72752 0.28611
 H1004 H 0.50896 0.71626 0.27279
 H1005 H 0.47093 0.75767 0.22501
 H1006 H 0.47930 0.73998 0.21681
 H1007 H 0.52098 0.75781 0.28632
 H1008 H 0.53444 0.74453 0.27180
 H1009 H 0.48038 0.71470 0.24525
 H1010 H 0.46659 0.72675 0.25960
 H1011 H 0.53256 0.77178 0.24474
 H1012 H 0.52004 0.78435 0.25920
 O1013 O 0.03580 0.73643 0.74648
 O1014 O 0.03145 0.73688 0.76912
 O1015 O 0.00174 0.71959 0.73107
 O1016 O -0.01925 0.72362 0.73161
 O1017 O 0.01798 0.75327 0.71400
 O1018 O 0.01744 0.77556 0.71937
 O1019 O -0.03118 0.75470 0.76530
 O1020 O -0.02767 0.73207 0.76249
 O1021 O 0.00192 0.76913 0.78228
 O1022 O 0.02473 0.76757 0.77775
 O1023 O -0.01374 0.78694 0.75072
 O1024 O -0.01263 0.78316 0.72711
 O1025 O -0.03090 0.77038 0.75024
 O1026 O -0.02666 0.76960 0.72684
 O1027 O 0.00184 0.78630 0.76587
 O1028 O 0.02546 0.78112 0.76365
 O1029 O -0.01431 0.75464 0.78196
 O1030 O -0.01240 0.73279 0.77893
 O1031 O 0.03597 0.75234 0.73161
 O1032 O 0.03177 0.77495 0.73359
 O1033 O 0.00243 0.73800 0.71377
 O1034 O -0.02054 0.74040 0.71917
 O1035 O 0.01770 0.71896 0.74585
 O1036 O 0.01719 0.72320 0.76923
 Zr1037 Zr 0.01735 0.73722 0.75461
 O1038 O 0.00649 0.74849 0.76739
 Zr1039 Zr -0.00536 0.73836 0.73244
 O1040 O -0.01728 0.74955 0.74431
 Zr1041 Zr 0.01763 0.76046 0.73283
 O1042 O 0.00674 0.77269 0.74457
 Zr1043 Zr -0.01308 0.74610 0.76368
 O1044 O -0.00231 0.73347 0.75187
 Zr1045 Zr 0.00998 0.76800 0.76387
 O1046 O 0.02206 0.75670 0.75216
 Zr1047 Zr -0.01280 0.76899 0.74161
 O1048 O -0.00189 0.75786 0.72865
 O1049 O 0.01407 0.74106 0.73539
 O1050 O -0.00955 0.76549 0.76096
 C1051 C 0.04128 0.74301 0.73760
 C1052 C 0.01090 0.71383 0.73690
 C1053 C 0.01147 0.74444 0.70838
 C1054 C -0.03631 0.76419 0.75940
 C1055 C -0.00772 0.76352 0.78745
 C1056 C -0.00747 0.79187 0.76012
 H1057 H 0.00848 0.74606 0.77633
 H1058 H 0.00899 0.78170 0.74274
 H1059 H 0.01934 0.73565 0.72967
 H1060 H -0.02635 0.74763 0.74243
 H1061 H -0.02359 0.72410 0.75938
 H1062 H -0.02609 0.72595 0.73772
 H1063 H 0.02369 0.78762 0.75700
 H1064 H 0.03613 0.77404 0.74196
 H1065 H -0.00778 0.72523 0.77565
 H1066 H 0.01006 0.71723 0.76736
 H1067 H -0.00511 0.78874 0.72855
 H1068 H 0.00881 0.77554 0.71546
 H1069 H 0.03567 0.74538 0.76898
 H1070 H 0.02399 0.75938 0.78245
 H1071 H -0.01891 0.74840 0.71436
 H1072 H -0.03230 0.76205 0.72784
 O1073 O 0.03282 0.01694 0.00211
 O1074 O 0.02899 0.01704 -0.02053
 O1075 O -0.00104 0.03428 0.01713
 O1076 O -0.02220 0.03076 0.01599
 O1077 O 0.01397 0.00032 0.03403
 O1078 O 0.01253 -0.02206 0.02838
 O1079 O -0.03395 0.00066 -0.01870
 O1080 O -0.03036 0.02284 -0.01532
 O1081 O -0.00137 -0.01441 -0.03488
 O1082 O 0.02193 -0.01313 -0.02957
 O1083 O -0.01788 -0.03246 -0.00410
 O1084 O -0.01757 -0.02902 0.01947
 O1085 O -0.03462 -0.01541 -0.00406
 O1086 O -0.03106 -0.01510 0.01966
 O1087 O -0.00190 -0.03186 -0.01883
 O1088 O 0.02143 -0.02746 -0.01632
 O1089 O -0.01662 0.00103 -0.03477
 O1090 O -0.01468 0.02418 -0.02956
 O1091 O 0.03224 0.00082 0.01674
 O1092 O 0.02738 -0.02166 0.01452
 O1093 O -0.00143 0.01565 0.03415
 O1094 O -0.02414 0.01361 0.02836
 O1095 O 0.01504 0.03486 0.00245
 O1096 O 0.01465 0.03117 -0.02047
 Zr1097 Zr 0.01454 0.01667 -0.00635
 O1098 O 0.00379 0.00590 -0.01963
 Zr1099 Zr -0.00873 0.01570 0.01534
 O1100 O -0.02063 0.00505 0.00293
 Zr1101 Zr 0.01367 -0.00683 0.01510
 O1102 O 0.00274 -0.01861 0.00282
 Zr1103 Zr -0.01577 0.00888 -0.01622
 O1104 O -0.00500 0.02086 -0.00385
 Zr1105 Zr 0.00657 -0.01373 -0.01634
 O1106 O 0.01864 -0.00294 -0.00408
 Zr1107 Zr -0.01679 -0.01458 0.00527
 O1108 O -0.00590 -0.00395 0.01876
 O1109 O 0.01070 0.01265 0.01274
 O1110 O -0.01293 -0.01069 -0.01389
 C1111 C 0.03794 0.01010 0.01097
 C1112 C 0.00830 0.03996 0.01143
 C1113 C 0.00745 0.00915 0.03963
 C1114 C -0.03952 -0.00887 -0.01326
 C1115 C -0.01050 -0.00814 -0.04020
 C1116 C -0.01144 -0.03740 -0.01338
 H1117 H 0.00625 0.00830 -0.02845
 H1118 H 0.00467 -0.02770 0.00456
 H1119 H 0.01601 0.01789 0.01861
 H1120 H -0.02970 0.00710 0.00458
 H1121 H -0.02674 0.03032 -0.01071
 H1122 H -0.02954 0.02818 0.01058
 H1123 H 0.01981 -0.03347 -0.00919
 H1124 H 0.03185 -0.02086 0.00618
 H1125 H -0.00719 0.02279 -0.03517
 H1126 H 0.00616 0.03533 -0.02007
 H1127 H -0.00984 -0.03438 0.01855
 H1128 H 0.00388 -0.02167 0.03221
 H1129 H 0.03277 0.00836 -0.02069
 H1130 H 0.02077 -0.00553 -0.03509
 H1131 H -0.02292 0.00532 0.03280
 H1132 H -0.03667 -0.00759 0.01843
 O1133 O 0.03510 0.51369 0.50191
 O1134 O 0.03182 0.51160 0.47917
 O1135 O 0.00238 0.53467 0.51409
 O1136 O -0.01885 0.53264 0.51326
 O1137 O 0.01440 0.50113 0.53462
 O1138 O 0.01160 0.47849 0.53070
 O1139 O -0.03234 0.50064 0.48095
 O1140 O -0.02709 0.52276 0.48264
 O1141 O -0.00102 0.48177 0.46676
 O1142 O 0.02264 0.48200 0.47271
 O1143 O -0.01972 0.46831 0.49786
 O1144 O -0.01859 0.47302 0.52168
 O1145 O -0.03460 0.48637 0.49721
 O1146 O -0.03111 0.48790 0.52073
 O1147 O -0.00278 0.46573 0.48443
 O1148 O 0.02034 0.46841 0.48649
 O1149 O -0.01485 0.49843 0.46528
 O1150 O -0.01123 0.52164 0.46853
 O1151 O 0.03305 0.49908 0.51793
 O1152 O 0.02671 0.47679 0.51721
 O1153 O 0.00049 0.51775 0.53295
 O1154 O -0.02218 0.51687 0.52696
 O1155 O 0.01870 0.53271 0.49979
 O1156 O 0.01872 0.52683 0.47746
 Zr1157 Zr 0.01709 0.51382 0.49288
 O1158 O 0.00566 0.50286 0.48033
 Zr1159 Zr -0.00653 0.51662 0.51407
 O1160 O -0.01906 0.50590 0.50240
 Zr1161 Zr 0.01404 0.49250 0.51630
 O1162 O 0.00240 0.48058 0.50480
 Zr1163 Zr -0.01363 0.50768 0.48311
 O1164 O -0.00209 0.51976 0.49459
 Zr1165 Zr 0.00685 0.48343 0.48535
 O1166 O 0.01958 0.49423 0.49695
 Zr1167 Zr -0.01677 0.48633 0.50648
 O1168 O -0.00529 0.49720 0.51926
 O1169 O 0.01262 0.51188 0.51218
 O1170 O -0.01235 0.48824 0.48715
 C1171 C 0.03950 0.50746 0.51158
 C1172 C 0.01213 0.53912 0.50801
 C1173 C 0.00858 0.51097 0.53925
 C1174 C -0.03878 0.49226 0.48726
 C1175 C -0.00948 0.48836 0.46073
 C1176 C -0.01332 0.46194 0.48949
 H1177 H 0.00843 0.50429 0.47139
 H1178 H 0.00355 0.47155 0.50734
 H1179 H 0.01815 0.51727 0.51769
 H1180 H -0.02796 0.50879 0.50373
 H1181 H -0.02290 0.53031 0.48660
 H1182 H -0.02627 0.53021 0.50790
 H1183 H 0.01897 0.46395 0.49475
 H1184 H 0.03149 0.47672 0.50901
 H1185 H -0.00375 0.51926 0.46324
 H1186 H 0.01055 0.53157 0.47710
 H1187 H -0.01217 0.46621 0.52038
 H1188 H 0.00277 0.47951 0.53397
 H1189 H 0.03508 0.50276 0.48016
 H1190 H 0.02170 0.48866 0.46604
 H1191 H -0.02163 0.50898 0.53218
 H1192 H -0.03589 0.49589 0.51908
 O1193 O 0.53770 0.01307 0.50221
 O1194 O 0.53448 0.01078 0.47958
 O1195 O 0.50488 0.03417 0.51409
 O1196 O 0.48375 0.03209 0.51353
 O1197 O 0.51698 0.00081 0.53507
 O1198 O 0.51455 -0.02166 0.53167
 O1199 O 0.47035 -0.00040 0.48132
 O1200 O 0.47561 0.02153 0.48228
 O1201 O 0.50218 -0.01964 0.46773
 O1202 O 0.52480 -0.02014 0.47330
 O1203 O 0.48342 -0.03285 0.50013
 O1204 O 0.48323 -0.02709 0.52276
 O1205 O 0.46814 -0.01473 0.49754
 O1206 O 0.47146 -0.01165 0.52147
 O1207 O 0.49954 -0.03513 0.48571
 O1208 O 0.52343 -0.03212 0.48863
 O1209 O 0.48795 -0.00337 0.46579
 O1210 O 0.49174 0.02022 0.46862
 O1211 O 0.53568 -0.00132 0.51843
 O1212 O 0.52924 -0.02375 0.51795
 O1213 O 0.50322 0.01753 0.53326
 O1214 O 0.48025 0.01637 0.52705
 O1215 O 0.52125 0.03204 0.49989
 O1216 O 0.52112 0.02574 0.47751
 Zr1217 Zr 0.51968 0.01304 0.49321
 O1218 O 0.50839 0.00170 0.48089
 Zr1219 Zr 0.49607 0.01608 0.51436
 O1220 O 0.48357 0.00524 0.50273
 Zr1221 Zr 0.51668 -0.00795 0.51693
 O1222 O 0.50494 -0.02005 0.50582
 Zr1223 Zr 0.48908 0.00652 0.48339
 O1224 O 0.50047 0.01887 0.49479
 Zr1225 Zr 0.50952 -0.01761 0.48638
 O1226 O 0.52225 -0.00647 0.49759
 Zr1227 Zr 0.48577 -0.01421 0.50732
 O1228 O 0.49735 -0.00323 0.51989
 O1229 O 0.51523 0.01137 0.51253
 O1230 O 0.49028 -0.01283 0.48794
 C1231 C 0.54211 0.00697 0.51195
 C1232 C 0.51464 0.03855 0.50801
 C1233 C 0.51126 0.01071 0.53962
 C1234 C 0.46395 -0.00885 0.48756
 C1235 C 0.49364 -0.01341 0.46149
 C1236 C 0.48953 -0.03924 0.49158
 H1237 H 0.51121 0.00292 0.47193
 H1238 H 0.50608 -0.02901 0.50862
 H1239 H 0.52075 0.01685 0.51797
 H1240 H 0.47468 0.00819 0.50390
 H1241 H 0.47960 0.02910 0.48641
 H1242 H 0.47663 0.02981 0.50773
 H1243 H 0.52079 -0.03760 0.49590
 H1244 H 0.53425 -0.02375 0.50989
 H1245 H 0.49882 0.01734 0.46304
 H1246 H 0.51299 0.03057 0.47724
 H1247 H 0.49089 -0.03260 0.52316
 H1248 H 0.50582 -0.02053 0.53515
 H1249 H 0.53770 0.00194 0.48060
 H1250 H 0.52531 -0.01238 0.46791
 H1251 H 0.48108 0.00882 0.53271
 H1252 H 0.46603 -0.00438 0.51881
 O1253 O 0.50136 0.53320 0.01537
 O1254 O 0.47907 0.52803 0.01489
 O1255 O 0.51773 0.50027 0.03322
 O1256 O 0.51907 0.47938 0.02976
 O1257 O 0.53445 0.51643 -0.00100
 O1258 O 0.52926 0.51467 -0.02331
 O1259 O 0.48508 0.46496 -0.00040
 O1260 O 0.48783 0.46908 0.02175
 O1261 O 0.46719 0.49620 -0.01632
 O1262 O 0.47077 0.51947 -0.01586
 O1263 O 0.49969 0.48151 -0.03365
 O1264 O 0.52243 0.48288 -0.03000
 O1265 O 0.49987 0.46506 -0.01636
 O1266 O 0.52372 0.47043 -0.01501
 O1267 O 0.48379 0.49628 -0.03363
 O1268 O 0.48472 0.52010 -0.02939
 O1269 O 0.46798 0.48115 -0.00064
 O1270 O 0.47272 0.48390 0.02267
 O1271 O 0.51616 0.53349 -0.00061
 O1272 O 0.51423 0.52824 -0.02328
 O1273 O 0.53534 0.50149 0.01480
 O1274 O 0.53104 0.47805 0.01266
 O1275 O 0.50223 0.51551 0.03339
 O1276 O 0.47950 0.51375 0.02911
 Zr1277 Zr 0.49398 0.51442 0.01497
 O1278 O 0.48169 0.50264 0.00410
 Zr1279 Zr 0.51716 0.49266 0.01459
 O1280 O 0.50569 0.47974 0.00409
 Zr1281 Zr 0.51574 0.51478 -0.00824
 O1282 O 0.50459 0.50272 -0.02001
 Zr1283 Zr 0.48626 0.48339 0.00751
 O1284 O 0.49772 0.49512 0.01946
 Zr1285 Zr 0.48518 0.50528 -0.01557
 O1286 O 0.49627 0.51841 -0.00470
 Zr1287 Zr 0.50823 0.48343 -0.01555
 O1288 O 0.52073 0.49553 -0.00505
 O1289 O 0.51330 0.51185 0.01130
 O1290 O 0.48882 0.48603 -0.01211
 C1291 C 0.51002 0.53884 0.00866
 C1292 C 0.51133 0.50921 0.03875
 C1293 C 0.54032 0.51056 0.00808
 C1294 C 0.49091 0.45967 -0.00986
 C1295 C 0.46231 0.48685 -0.00995
 C1296 C 0.49014 0.48714 -0.03890
 H1297 H 0.47271 0.50455 0.00632
 H1298 H 0.50643 0.50460 -0.02911
 H1299 H 0.51869 0.51755 0.01663
 H1300 H 0.50787 0.47082 0.00636
 H1301 H 0.49215 0.47311 0.02920
 H1302 H 0.51352 0.47198 0.02769
 H1303 H 0.49177 0.51861 -0.03553
 H1304 H 0.50577 0.53236 -0.02233
 H1305 H 0.46647 0.49075 0.02088
 H1306 H 0.48038 0.50539 0.03348
 H1307 H 0.52198 0.49104 -0.03477
 H1308 H 0.53371 0.50633 -0.02285
 H1309 H 0.47893 0.53175 0.00617
 H1310 H 0.46595 0.51886 -0.00772
 H1311 H 0.53598 0.47993 0.00479
 H1312 H 0.52196 0.46408 -0.00820
 O1313 O 0.76598 0.28440 0.49809
 O1314 O 0.76444 0.28039 0.52103
 O1315 O 0.78483 0.25102 0.48418
 O1316 O 0.78166 0.22960 0.48550
 O1317 O 0.75147 0.26501 0.46536
 O1318 O 0.72870 0.26322 0.47009
 O1319 O 0.74966 0.21690 0.51751
 O1320 O 0.77240 0.22115 0.51479
 O1321 O 0.73391 0.24916 0.53355
 O1322 O 0.73543 0.27278 0.52839
 O1323 O 0.71737 0.23284 0.50182
 O1324 O 0.72215 0.23405 0.47792
 O1325 O 0.73454 0.21627 0.50188
 O1326 O 0.73539 0.21990 0.47880
 O1327 O 0.71710 0.24888 0.51656
 O1328 O 0.72110 0.27188 0.51507
 O1329 O 0.74955 0.23413 0.53389
 O1330 O 0.77094 0.23639 0.53120
 O1331 O 0.75066 0.28348 0.48264
 O1332 O 0.72850 0.27840 0.48351
 O1333 O 0.76717 0.25002 0.46616
 O1334 O 0.76568 0.22754 0.47155
 O1335 O 0.78415 0.26705 0.49896
 O1336 O 0.77910 0.26743 0.52175
 Zr1337 Zr 0.76561 0.26611 0.50667
 O1338 O 0.75466 0.25475 0.51923
 Zr1339 Zr 0.76638 0.24283 0.48492
 O1340 O 0.75508 0.23060 0.49637
 Zr1341 Zr 0.74338 0.26477 0.48393
 O1342 O 0.73122 0.25374 0.49567
 Zr1343 Zr 0.75792 0.23523 0.51572
 O1344 O 0.77041 0.24658 0.50441
 Zr1345 Zr 0.73521 0.25739 0.51512
 O1346 O 0.74613 0.26979 0.50334
 Zr1347 Zr 0.73556 0.23429 0.49313
 O1348 O 0.74689 0.24527 0.48036
 O1349 O 0.76275 0.26221 0.48736
 O1350 O 0.73849 0.23792 0.51252
 C1351 C 0.75951 0.28938 0.48885
 C1352 C 0.78993 0.26045 0.49032
 C1353 C 0.76071 0.25864 0.46027
 C1354 C 0.74054 0.21130 0.51138
 C1355 C 0.74018 0.24013 0.53905
 C1356 C 0.71195 0.23927 0.51085
 H1357 H 0.75682 0.25696 0.52820
 H1358 H 0.72222 0.25562 0.49354
 H1359 H 0.76816 0.26762 0.48177
 H1360 H 0.75729 0.22156 0.49466
 H1361 H 0.78030 0.22555 0.51194
 H1362 H 0.77869 0.22203 0.49035
 H1363 H 0.71605 0.27091 0.50710
 H1364 H 0.72848 0.28262 0.49202
 H1365 H 0.77836 0.24136 0.52810
 H1366 H 0.78501 0.26011 0.52082
 H1367 H 0.71583 0.24090 0.47955
 H1368 H 0.72969 0.25473 0.46597
 H1369 H 0.75601 0.28455 0.52000
 H1370 H 0.74253 0.27133 0.53447
 H1371 H 0.75739 0.22819 0.46703
 H1372 H 0.74347 0.21506 0.47954
 O1373 O 0.76428 0.78540 0.00001
 O1374 O 0.76330 0.77962 0.02260
 O1375 O 0.78128 0.75275 -0.01722
 O1376 O 0.77741 0.73154 -0.01824
 O1377 O 0.74740 0.76941 -0.03351
 O1378 O 0.72499 0.76813 -0.02793
 O1379 O 0.74631 0.71709 0.01452
 O1380 O 0.76878 0.72058 0.01150
 O1381 O 0.73201 0.74834 0.03366
 O1382 O 0.73391 0.77235 0.03021
 O1383 O 0.71409 0.73501 0.00118
 O1384 O 0.71800 0.73788 -0.02254
 O1385 O 0.73071 0.71810 -0.00059
 O1386 O 0.73119 0.72364 -0.02343
 O1387 O 0.71464 0.74976 0.01722
 O1388 O 0.71907 0.77260 0.01756
 O1389 O 0.74718 0.73288 0.03227
 O1390 O 0.77011 0.73451 0.02755
 O1391 O 0.74869 0.78604 -0.01523
 O1392 O 0.72601 0.78195 -0.01285
 O1393 O 0.76296 0.75429 -0.03470
 O1394 O 0.76060 0.73120 -0.03129
 O1395 O 0.78173 0.76736 -0.00099
 O1396 O 0.77757 0.76537 0.02150
 Zr1397 Zr 0.76336 0.76647 0.00714
 O1398 O 0.75241 0.75452 0.01916
 Zr1399 Zr 0.76257 0.74518 -0.01666
 O1400 O 0.75149 0.73233 -0.00568
 Zr1401 Zr 0.74028 0.76777 -0.01469
 O1402 O 0.72823 0.75601 -0.00361
 Zr1403 Zr 0.75509 0.73526 0.01390
 O1404 O 0.76736 0.74711 0.00291
 Zr1405 Zr 0.73293 0.75795 0.01590
 O1406 O 0.74389 0.77103 0.00492
 Zr1407 Zr 0.73200 0.73674 -0.00792
 O1408 O 0.74303 0.74858 -0.02016
 O1409 O 0.75966 0.76430 -0.01229
 O1410 O 0.73564 0.73868 0.01160
 C1411 C 0.75807 0.79104 -0.00901
 C1412 C 0.78695 0.76139 -0.01044
 C1413 C 0.75640 0.76353 -0.03950
 C1414 C 0.73685 0.71224 0.00829
 C1415 C 0.73815 0.73871 0.03822
 C1416 C 0.70911 0.74076 0.01089
 H1417 H 0.75475 0.75611 0.02820
 H1418 H 0.71922 0.75826 -0.00528
 H1419 H 0.76514 0.76989 -0.01763
 H1420 H 0.75341 0.72340 -0.00819
 H1421 H 0.77642 0.72459 0.00757
 H1422 H 0.77447 0.72364 -0.01391
 H1423 H 0.71429 0.77291 0.00938
 H1424 H 0.72720 0.78591 -0.00429
 H1425 H 0.76920 0.74186 0.03348
 H1426 H 0.78141 0.75675 0.02073
 H1427 H 0.71209 0.74493 -0.02032
 H1428 H 0.72529 0.75990 -0.03267
 H1429 H 0.75497 0.78407 0.02231
 H1430 H 0.74108 0.77026 0.03602
 H1431 H 0.75232 0.73282 -0.03558
 H1432 H 0.73904 0.71839 -0.02317
 O1433 O 1.03424 0.23453 0.24751
 O1434 O 1.03148 0.23658 0.27027
 O1435 O 1.00055 0.21426 0.23611
 O1436 O 0.97926 0.21691 0.23849
 O1437 O 1.01294 0.24684 0.21509
 O1438 O 1.01110 0.26952 0.21839
 O1439 O 0.96803 0.25024 0.27032
 O1440 O 0.97226 0.22798 0.26904
 O1441 O 1.00110 0.26805 0.28287
 O1442 O 1.02388 0.26729 0.27631
 O1443 O 0.98195 0.28205 0.25146
 O1444 O 0.98125 0.27615 0.22826
 O1445 O 0.96594 0.26452 0.25406
 O1446 O 0.96823 0.26185 0.23039
 O1447 O 0.99879 0.28363 0.26512
 O1448 O 1.02213 0.27994 0.26161
 O1449 O 0.98627 0.25230 0.28529
 O1450 O 0.98870 0.22873 0.28242
 O1451 O 1.03222 0.24892 0.23129
 O1452 O 1.02650 0.27128 0.23138
 O1453 O 0.99834 0.23084 0.21741
 O1454 O 0.97591 0.23254 0.22429
 O1455 O 1.01730 0.21590 0.24994
 O1456 O 1.01780 0.22183 0.27231
 Zr1457 Zr 1.01641 0.23484 0.25687
 O1458 O 1.00596 0.24651 0.26955
 Zr1459 Zr 0.99205 0.23253 0.23656
 O1460 O 0.98039 0.24399 0.24848
 Zr1461 Zr 1.01345 0.25589 0.23316
 O1462 O 1.00273 0.26845 0.24474
 Zr1463 Zr 0.98636 0.24247 0.26764
 O1464 O 0.99694 0.22966 0.25597
 Zr1465 Zr 1.00783 0.26574 0.26402
 O1466 O 1.01963 0.25422 0.25230
 Zr1467 Zr 0.98329 0.26338 0.24388
 O1468 O 0.99386 0.25182 0.23096
 O1469 O 1.01143 0.23666 0.23770
 O1470 O 0.98834 0.26175 0.26308
 C1471 C 1.03862 0.24061 0.23772
 C1472 C 1.01042 0.20964 0.24181
 C1473 C 1.00659 0.23717 0.21079
 C1474 C 0.96179 0.25888 0.26420
 C1475 C 0.99249 0.26214 0.28938
 C1476 C 0.98871 0.28815 0.25978
 H1477 H 1.00899 0.24516 0.27841
 H1478 H 1.00420 0.27737 0.24194
 H1479 H 1.01666 0.23111 0.23210
 H1480 H 0.97133 0.24141 0.24758
 H1481 H 0.97590 0.22022 0.26497
 H1482 H 0.97196 0.21987 0.24375
 H1483 H 1.01974 0.28525 0.25414
 H1484 H 1.03150 0.27152 0.23943
 H1485 H 0.99642 0.23099 0.28742
 H1486 H 1.00941 0.21747 0.27292
 H1487 H 0.98860 0.28213 0.22840
 H1488 H 1.00219 0.26859 0.21531
 H1489 H 1.03507 0.24529 0.26917
 H1490 H 1.02353 0.26009 0.28246
 H1491 H 0.97651 0.24035 0.21897
 H1492 H 0.96310 0.25419 0.23262
 O1493 O 0.71457 1.01628 0.75176
 O1494 O 0.72039 1.01597 0.77413
 O1495 O 0.74714 1.03276 0.73381
 O1496 O 0.76826 1.02887 0.73296
 O1497 O 0.73003 0.99873 0.71839
 O1498 O 0.73110 0.97647 0.72416
 O1499 O 0.78251 0.99840 0.76647
 O1500 O 0.77929 1.02072 0.76312
 O1501 O 0.75116 0.98438 0.78566
 O1502 O 0.72752 0.98593 0.78245
 O1503 O 0.76438 0.96580 0.75347
 O1504 O 0.76174 0.96920 0.72987
 O1505 O 0.78139 0.98239 0.75171
 O1506 O 0.77570 0.98270 0.72852
 O1507 O 0.74981 0.96674 0.76959
 O1508 O 0.72656 0.97150 0.76936
 O1509 O 0.76684 0.99939 0.78405
 O1510 O 0.76516 1.02250 0.77897
 O1511 O 0.71340 1.00015 0.73709
 O1512 O 0.71767 0.97749 0.73936
 O1513 O 0.74550 1.01399 0.71683
 O1514 O 0.76858 1.01167 0.72040
 O1515 O 0.73271 1.03370 0.75012
 O1516 O 0.73496 1.02999 0.77279
 Zr1517 Zr 0.73348 1.01548 0.75868
 O1518 O 0.74522 1.00459 0.77088
 Zr1519 Zr 0.75457 1.01404 0.73487
 O1520 O 0.76734 1.00317 0.74609
 Zr1521 Zr 0.73175 0.99190 0.73729
 O1522 O 0.74350 0.97997 0.74847
 Zr1523 Zr 0.76445 1.00714 0.76562
 O1524 O 0.75282 1.01928 0.75435
 Zr1525 Zr 0.74162 0.98502 0.76790
 O1526 O 0.72868 0.99596 0.75684
 Zr1527 Zr 0.76280 0.98362 0.74415
 O1528 O 0.75095 0.99442 0.73176
 O1529 O 0.73543 1.01134 0.73931
 O1530 O 0.76087 0.98763 0.76359
 C1531 C 0.70854 1.00966 0.74324
 C1532 C 0.73862 1.03865 0.74049
 C1533 C 0.73613 1.00745 0.71218
 C1534 C 0.78727 0.98873 0.76050
 C1535 C 0.76091 0.99046 0.79011
 C1536 C 0.75871 0.96103 0.76332
 H1537 H 0.74366 1.00709 0.77989
 H1538 H 0.74120 0.97092 0.74693
 H1539 H 0.72980 1.01668 0.73392
 H1540 H 0.77627 1.00503 0.74357
 H1541 H 0.77540 1.02830 0.75900
 H1542 H 0.77606 1.02613 0.73754
 H1543 H 0.72714 0.96565 0.76190
 H1544 H 0.71389 0.97865 0.74799
 H1545 H 0.75813 1.02139 0.78521
 H1546 H 0.74355 1.03387 0.77176
 H1547 H 0.75435 0.96362 0.73189
 H1548 H 0.73942 0.97645 0.71964
 H1549 H 0.71616 1.00747 0.77431
 H1550 H 0.72927 0.99361 0.78774
 H1551 H 0.76685 1.00333 0.71621
 H1552 H 0.78146 0.99020 0.72909
 O1553 O 0.75049 0.53389 0.23287
 O1554 O 0.77252 0.52873 0.23339
 O1555 O 0.73376 0.50065 0.21541
 O1556 O 0.73218 0.47990 0.21915
 O1557 O 0.71697 0.51750 0.24930
 O1558 O 0.72197 0.51644 0.27156
 O1559 O 0.76596 0.46599 0.24958
 O1560 O 0.76380 0.46972 0.22755
 O1561 O 0.78389 0.49768 0.26547
 O1562 O 0.78046 0.52076 0.26486
 O1563 O 0.75114 0.48307 0.28261
 O1564 O 0.72860 0.48425 0.27883
 O1565 O 0.75114 0.46633 0.26551
 O1566 O 0.72718 0.47180 0.26376
 O1567 O 0.76721 0.49774 0.28255
 O1568 O 0.76610 0.52167 0.27805
 O1569 O 0.78316 0.48220 0.25014
 O1570 O 0.77870 0.48474 0.22654
 O1571 O 0.73539 0.53458 0.24857
 O1572 O 0.73726 0.52972 0.27150
 O1573 O 0.71606 0.50225 0.23373
 O1574 O 0.72031 0.47877 0.23625
 O1575 O 0.74934 0.51589 0.21511
 O1576 O 0.77217 0.51388 0.21961
 Zr1577 Zr 0.75755 0.51509 0.23358
 O1578 O 0.76967 0.50361 0.24482
 Zr1579 Zr 0.73420 0.49342 0.23414
 O1580 O 0.74554 0.48068 0.24485
 Zr1581 Zr 0.73563 0.51602 0.25661
 O1582 O 0.74649 0.50408 0.26867
 Zr1583 Zr 0.76504 0.48431 0.24160
 O1584 O 0.75369 0.49573 0.22937
 Zr1585 Zr 0.76595 0.50659 0.26442
 O1586 O 0.75515 0.51952 0.25317
 Zr1587 Zr 0.74282 0.48470 0.26441
 O1588 O 0.73051 0.49670 0.25370
 O1589 O 0.73818 0.51267 0.23715
 O1590 O 0.76227 0.48728 0.26115
 C1591 C 0.74178 0.53971 0.23933
 C1592 C 0.74021 0.50950 0.20979
 C1593 C 0.71110 0.51143 0.24031
 C1594 C 0.76007 0.46082 0.25906
 C1595 C 0.78876 0.48815 0.25939
 C1596 C 0.76073 0.48870 0.28786
 H1597 H 0.77868 0.50551 0.24269
 H1598 H 0.74456 0.50610 0.27772
 H1599 H 0.73286 0.51828 0.23170
 H1600 H 0.74333 0.47173 0.24266
 H1601 H 0.75939 0.47349 0.22005
 H1602 H 0.73798 0.47271 0.22113
 H1603 H 0.75922 0.51999 0.28435
 H1604 H 0.74564 0.53399 0.27035
 H1605 H 0.78520 0.49135 0.22856
 H1606 H 0.77096 0.50559 0.21513
 H1607 H 0.72877 0.49264 0.28325
 H1608 H 0.71759 0.50803 0.27139
 H1609 H 0.77285 0.53246 0.24213
 H1610 H 0.78521 0.52024 0.25668
 H1611 H 0.71518 0.48091 0.24394
 H1612 H 0.72917 0.46508 0.25736
 O1613 O 0.50178 0.21622 0.73371
 O1614 O 0.47960 0.22153 0.73409
 O1615 O 0.51888 0.25013 0.71820
 O1616 O 0.51984 0.27086 0.72297
 O1617 O 0.53501 0.23195 0.75148
 O1618 O 0.52970 0.23189 0.77360
 O1619 O 0.48592 0.28321 0.75425
 O1620 O 0.48844 0.28076 0.73191
 O1621 O 0.46782 0.25051 0.76762
 O1622 O 0.47132 0.22765 0.76580
 O1623 O 0.50024 0.26436 0.78606
 O1624 O 0.52328 0.26310 0.78226
 O1625 O 0.50080 0.28201 0.77006
 O1626 O 0.52437 0.27687 0.76858
 O1627 O 0.48421 0.24968 0.78491
 O1628 O 0.48556 0.22599 0.77901
 O1629 O 0.46869 0.26695 0.75341
 O1630 O 0.47349 0.26583 0.72979
 O1631 O 0.51659 0.21487 0.74962
 O1632 O 0.51455 0.21854 0.77261
 O1633 O 0.53614 0.24790 0.73670
 O1634 O 0.53179 0.27119 0.74022
 O1635 O 0.50323 0.23501 0.71687
 O1636 O 0.48040 0.23687 0.72101
 Zr1637 Zr 0.49468 0.23500 0.73522
 O1638 O 0.48238 0.24589 0.74693
 Zr1639 Zr 0.51794 0.25663 0.73726
 O1640 O 0.50645 0.26876 0.74862
 Zr1641 Zr 0.51626 0.23298 0.75852
 O1642 O 0.50518 0.24417 0.77109
 Zr1643 Zr 0.48697 0.26537 0.74499
 O1644 O 0.49849 0.25459 0.73220
 Zr1645 Zr 0.48582 0.24182 0.76635
 O1646 O 0.49683 0.22956 0.75456
 Zr1647 Zr 0.50894 0.26371 0.76795
 O1648 O 0.52139 0.25240 0.75667
 O1649 O 0.51398 0.23726 0.73922
 O1650 O 0.48952 0.26130 0.76434
 C1651 C 0.51035 0.21012 0.74008
 C1652 C 0.51254 0.24151 0.71205
 C1653 C 0.54101 0.23845 0.74291
 C1654 C 0.49186 0.28786 0.76400
 C1655 C 0.46297 0.26037 0.76214
 C1656 C 0.49057 0.25845 0.79081
 H1657 H 0.47341 0.24409 0.74458
 H1658 H 0.50697 0.24165 0.78004
 H1659 H 0.51941 0.23191 0.73360
 H1660 H 0.50867 0.27783 0.74699
 H1661 H 0.49293 0.27741 0.72425
 H1662 H 0.51433 0.27810 0.72553
 H1663 H 0.49212 0.22747 0.78568
 H1664 H 0.50616 0.21436 0.77122
 H1665 H 0.46714 0.25894 0.73119
 H1666 H 0.48151 0.24549 0.71722
 H1667 H 0.52227 0.25496 0.78698
 H1668 H 0.53390 0.24039 0.77408
 H1669 H 0.47937 0.21707 0.74246
 H1670 H 0.46682 0.22847 0.75751
 H1671 H 0.53667 0.26883 0.74799
 H1672 H 0.52295 0.28337 0.76184
 O1673 O 0.25002 0.76567 0.46322
 O1674 O 0.22739 0.76518 0.46785
 O1675 O 0.26568 0.78465 0.49585
 O1676 O 0.26538 0.78194 0.51730
 O1677 O 0.28253 0.75000 0.48166
 O1678 O 0.27701 0.72765 0.48398
 O1679 O 0.23198 0.75181 0.53164
 O1680 O 0.23539 0.77416 0.52685
 O1681 O 0.21465 0.73548 0.50026
 O1682 O 0.21886 0.73614 0.47657
 O1683 O 0.24617 0.71822 0.51581
 O1684 O 0.26982 0.72216 0.51433
 O1685 O 0.24658 0.73576 0.53211
 O1686 O 0.26991 0.73621 0.52788
 O1687 O 0.23095 0.71810 0.50027
 O1688 O 0.23199 0.72169 0.47698
 O1689 O 0.21529 0.75146 0.51508
 O1690 O 0.21870 0.77296 0.51174
 O1691 O 0.26484 0.74979 0.46389
 O1692 O 0.26281 0.72755 0.46946
 O1693 O 0.28300 0.76621 0.49626
 O1694 O 0.27819 0.76530 0.51925
 O1695 O 0.25050 0.78422 0.48026
 O1696 O 0.22739 0.77990 0.48093
 Zr1697 Zr 0.24204 0.76599 0.48180
 O1698 O 0.22943 0.75570 0.49370
 Zr1699 Zr 0.26452 0.76636 0.50432
 O1700 O 0.25290 0.75594 0.51718
 Zr1701 Zr 0.26373 0.74282 0.48277
 O1702 O 0.25201 0.73140 0.49457
 Zr1703 Zr 0.23361 0.75937 0.51304
 O1704 O 0.24516 0.77113 0.50116
 Zr1705 Zr 0.23273 0.73601 0.49137
 O1706 O 0.24440 0.74627 0.47835
 Zr1707 Zr 0.25524 0.73619 0.51389
 O1708 O 0.26809 0.74662 0.50211
 O1709 O 0.26125 0.76239 0.48509
 O1710 O 0.23598 0.73974 0.51071
 C1711 C 0.25887 0.75883 0.45807
 C1712 C 0.25951 0.78981 0.48652
 C1713 C 0.28824 0.75923 0.48754
 C1714 C 0.23757 0.74239 0.53721
 C1715 C 0.20969 0.74204 0.50944
 C1716 C 0.23683 0.71293 0.50974
 H1717 H 0.22051 0.75810 0.49174
 H1718 H 0.25377 0.72227 0.49283
 H1719 H 0.26687 0.76749 0.47941
 H1720 H 0.25490 0.75835 0.52613
 H1721 H 0.23861 0.78181 0.52227
 H1722 H 0.26012 0.77963 0.52484
 H1723 H 0.23963 0.71622 0.47799
 H1724 H 0.25436 0.72815 0.46521
 H1725 H 0.22222 0.78040 0.50707
 H1726 H 0.22905 0.78621 0.48783
 H1727 H 0.26825 0.71611 0.50719
 H1728 H 0.28124 0.72849 0.49243
 H1729 H 0.22766 0.75647 0.46409
 H1730 H 0.21333 0.74369 0.47788
 H1731 H 0.28241 0.75686 0.51845
 H1732 H 0.26908 0.74415 0.53300
 O1733 O 0.25428 0.26544 0.96630
 O1734 O 0.23165 0.26479 0.97055
 O1735 O 0.26936 0.28190 1.00079
 O1736 O 0.26833 0.27764 1.02187
 O1737 O 0.28664 0.24871 0.98433
 O1738 O 0.28138 0.22625 0.98458
 O1739 O 0.23518 0.24603 1.03313
 O1740 O 0.23794 0.26887 1.02993
 O1741 O 0.21849 0.23215 0.99970
 O1742 O 0.22324 0.23424 0.97668
 O1743 O 0.24994 0.21418 1.01518
 O1744 O 0.27351 0.21817 1.01428
 O1745 O 0.25022 0.23040 1.03267
 O1746 O 0.27353 0.23139 1.02865
 O1747 O 0.23491 0.21504 0.99949
 O1748 O 0.23708 0.22049 0.97604
 O1749 O 0.21865 0.24649 1.01611
 O1750 O 0.22157 0.26821 1.01467
 O1751 O 0.26921 0.24964 0.96607
 O1752 O 0.26751 0.22708 0.96990
 O1753 O 0.28661 0.26366 1.00023
 O1754 O 0.28106 0.26092 1.02305
 O1755 O 0.25473 0.28265 0.98469
 O1756 O 0.23148 0.27839 0.98497
 Zr1757 Zr 0.24606 0.26437 0.98476
 O1758 O 0.23329 0.25292 0.99543
 Zr1759 Zr 0.26793 0.26306 1.00775
 O1760 O 0.25613 0.25156 1.01944
 Zr1761 Zr 0.26791 0.24130 0.98436
 O1762 O 0.25613 0.22883 0.99494
 Zr1763 Zr 0.23686 0.25501 1.01513
 O1764 O 0.24859 0.26787 1.00456
 Zr1765 Zr 0.23688 0.23348 0.99166
 O1766 O 0.24865 0.24498 0.97981
 Zr1767 Zr 0.25893 0.23220 1.01462
 O1768 O 0.27187 0.24364 1.00401
 O1769 O 0.26520 0.26061 0.98818
 O1770 O 0.23966 0.23569 1.01130
 C1771 C 0.26321 0.25897 0.96078
 C1772 C 0.26361 0.28773 0.99159
 C1773 C 0.29212 0.25745 0.99111
 C1774 C 0.24105 0.23646 1.03814
 C1775 C 0.21325 0.23768 1.00939
 C1776 C 0.24063 0.20932 1.00875
 H1777 H 0.22438 0.25535 0.99342
 H1778 H 0.25802 0.21988 0.99255
 H1779 H 0.27092 0.26611 0.98300
 H1780 H 0.25792 0.25332 1.02858
 H1781 H 0.24093 0.27693 1.02591
 H1782 H 0.26253 0.27493 1.02885
 H1783 H 0.24398 0.21422 0.97755
 H1784 H 0.25907 0.22776 0.96567
 H1785 H 0.22468 0.27571 1.00983
 H1786 H 0.23324 0.28420 0.99228
 H1787 H 0.27210 0.21266 1.00667
 H1788 H 0.28528 0.22630 0.99323
 H1789 H 0.23190 0.25637 0.96618
 H1790 H 0.21822 0.24217 0.97782
 H1791 H 0.28578 0.25287 1.02146
 H1792 H 0.27248 0.23885 1.03441
 C1793 C 0.30734 0.38000 0.78846
 C1794 C 0.30188 0.39071 0.78265
 C1795 C 0.29055 0.39604 0.78744
 C1796 C 0.28487 0.39052 0.79836
 C1797 C 0.29033 0.37979 0.80417
 C1798 C 0.30164 0.37438 0.79930
 C1799 C 0.28538 0.40760 0.78107
 C1800 C 0.27331 0.41173 0.78237
 C1801 C 0.26868 0.42371 0.77639
 C1802 C 0.25883 0.43055 0.78240
 C1803 C 0.25485 0.44236 0.77755
 C1804 C 0.26055 0.44748 0.76646
 C1805 C 0.26996 0.44028 0.76007
 C1806 C 0.27395 0.42851 0.76494
 H1807 H 0.31606 0.37621 0.78440
 H1808 H 0.30654 0.39484 0.77434
 H1809 H 0.27638 0.39456 0.80266
 H1810 H 0.28566 0.37585 0.81254
 H1811 H 0.29196 0.41295 0.77510
 H1812 H 0.26666 0.40659 0.78843
 H1813 H 0.25449 0.42695 0.79112
 H1814 H 0.24752 0.44759 0.78268
 H1815 H 0.27446 0.44385 0.75143
 H1816 H 0.28118 0.42325 0.75973
 C1817 C 0.30849 -0.11852 0.28869
 C1818 C 0.30318 -0.10774 0.28286
 C1819 C 0.29181 -0.10235 0.28751
 C1820 C 0.28596 -0.10787 0.29834
 C1821 C 0.29128 -0.11864 0.30418
 C1822 C 0.30260 -0.12414 0.29943
 C1823 C 0.28674 -0.09075 0.28111
 C1824 C 0.27457 -0.08680 0.28208
 C1825 C 0.26985 -0.07490 0.27598
 C1826 C 0.25942 -0.06853 0.28153
 C1827 C 0.25508 -0.05694 0.27647
 C1828 C 0.26102 -0.05154 0.26564
 C1829 C 0.27110 -0.05824 0.25975
 C1830 C 0.27545 -0.06979 0.26483
 H1831 H 0.31723 -0.12237 0.28474
 H1832 H 0.30796 -0.10361 0.27462
 H1833 H 0.27743 -0.10380 0.30253
 H1834 H 0.28647 -0.12257 0.31248
 H1835 H 0.29343 -0.08529 0.27537
 H1836 H 0.26784 -0.09210 0.28789
 H1837 H 0.25483 -0.07235 0.29002
 H1838 H 0.24728 -0.05207 0.28125
 H1839 H 0.27583 -0.05443 0.25133
 H1840 H 0.28317 -0.07467 0.25997
 C1841 C 0.81003 0.88043 0.79042
 C1842 C 0.80495 0.89146 0.78484
 C1843 C 0.79368 0.89695 0.78955
 C1844 C 0.78765 0.89124 0.80017
 C1845 C 0.79274 0.88021 0.80580
 C1846 C 0.80404 0.87458 0.80103
 C1847 C 0.78888 0.90884 0.78340
 C1848 C 0.77674 0.91293 0.78422
 C1849 C 0.77213 0.92499 0.77829
 C1850 C 0.76125 0.93090 0.78346
 C1851 C 0.75674 0.94245 0.77845
 C1852 C 0.76294 0.94831 0.76801
 C1853 C 0.77361 0.94218 0.76255
 C1854 C 0.77814 0.93065 0.76760
 H1855 H 0.81872 0.87663 0.78632
 H1856 H 0.80987 0.89571 0.77673
 H1857 H 0.77916 0.89536 0.80439
 H1858 H 0.78775 0.87622 0.81396
 H1859 H 0.79575 0.91435 0.77793
 H1860 H 0.76986 0.90748 0.78973
 H1861 H 0.75635 0.92669 0.79158
 H1862 H 0.74848 0.94685 0.78289
 H1863 H 0.77858 0.94638 0.75447
 H1864 H 0.78628 0.92620 0.76303
 C1865 C 0.43857 0.86887 0.29094
 C1866 C 0.44325 0.85775 0.28518
 C1867 C 0.45469 0.85221 0.28938
 C1868 C 0.46128 0.85795 0.29969
 C1869 C 0.45657 0.86910 0.30549
 C1870 C 0.44514 0.87471 0.30119
 C1871 C 0.45906 0.84022 0.28310
 C1872 C 0.47127 0.83632 0.28304
 C1873 C 0.47557 0.82407 0.27722
 C1874 C 0.48699 0.81866 0.28164
 C1875 C 0.49127 0.80694 0.27681
 C1876 C 0.48428 0.80039 0.26729
 C1877 C 0.47304 0.80600 0.26255
 C1878 C 0.46873 0.81773 0.26743
 H1879 H 0.42971 0.87277 0.28734
 H1880 H 0.43792 0.85347 0.27735
 H1881 H 0.46991 0.85376 0.30352
 H1882 H 0.46189 0.87323 0.31338
 H1883 H 0.45184 0.83450 0.27833
 H1884 H 0.47847 0.84207 0.28780
 H1885 H 0.49252 0.82339 0.28906
 H1886 H 0.50000 0.80296 0.28068
 H1887 H 0.46747 0.80126 0.25517
 H1888 H 0.46012 0.82178 0.26341
 C1889 C -0.06001 0.87084 0.78882
 C1890 C -0.05465 0.86013 0.78283
 C1891 C -0.04339 0.85462 0.78756
 C1892 C -0.03770 0.85991 0.79859
 C1893 C -0.04307 0.87060 0.80459
 C1894 C -0.05428 0.87625 0.79977
 C1895 C -0.03823 0.84312 0.78100
 C1896 C -0.02602 0.83930 0.78192
 C1897 C -0.02108 0.82754 0.77568
 C1898 C -0.01034 0.82152 0.78097
 C1899 C -0.00568 0.81012 0.77572
 C1900 C -0.01161 0.80456 0.76495
 C1901 C -0.02207 0.81086 0.75936
 C1902 C -0.02674 0.82224 0.76462
 H1903 H -0.06866 0.87481 0.78481
 H1904 H -0.05930 0.85618 0.77442
 H1905 H -0.02927 0.85572 0.80284
 H1906 H -0.03839 0.87435 0.81306
 H1907 H -0.04487 0.83765 0.77520
 H1908 H -0.01935 0.84470 0.78776
 H1909 H -0.00573 0.82547 0.78941
 H1910 H 0.00240 0.80554 0.78029
 H1911 H -0.02682 0.80690 0.75100
 H1912 H -0.03473 0.82682 0.75995
 C1913 C -0.06033 -0.12006 -0.04054
 C1914 C -0.05553 -0.10885 -0.03496
 C1915 C -0.04460 -0.10282 -0.03991
 C1916 C -0.03860 -0.10824 -0.05074
 C1917 C -0.04343 -0.11946 -0.05635
 C1918 C -0.05439 -0.12552 -0.05136
 C1919 C -0.04017 -0.09072 -0.03376
 C1920 C -0.02831 -0.08590 -0.03499
 C1921 C -0.02406 -0.07368 -0.02895
 C1922 C -0.01348 -0.06726 -0.03419
 C1923 C -0.00927 -0.05561 -0.02903
 C1924 C -0.01548 -0.05013 -0.01838
 C1925 C -0.02589 -0.05671 -0.01292
 C1926 C -0.03010 -0.06837 -0.01810
 H1927 H -0.06877 -0.12433 -0.03635
 H1928 H -0.06040 -0.10488 -0.02669
 H1929 H -0.03037 -0.10375 -0.05512
 H1930 H -0.03858 -0.12330 -0.06467
 H1931 H -0.04709 -0.08569 -0.02794
 H1932 H -0.02138 -0.09086 -0.04087
 H1933 H -0.00856 -0.07116 -0.04246
 H1934 H -0.00123 -0.05084 -0.03351
 H1935 H -0.03086 -0.05283 -0.00468
 H1936 H -0.03799 -0.07319 -0.01344
 C1937 C -0.05165 0.37422 0.46411
 C1938 C -0.04568 0.38450 0.47035
 C1939 C -0.03888 0.39367 0.46333
 C1940 C -0.03779 0.39226 0.45000
 C1941 C -0.04335 0.38175 0.44377
 C1942 C -0.05052 0.37262 0.45071
 C1943 C -0.03278 0.40454 0.47004
 C1944 C -0.03510 0.41663 0.46657
 C1945 C -0.02949 0.42770 0.47340
 C1946 C -0.03725 0.43823 0.47635
 C1947 C -0.03203 0.44910 0.48220
 C1948 C -0.01887 0.44981 0.48479
 C1949 C -0.01107 0.43930 0.48179
 C1950 C -0.01637 0.42823 0.47632
 H1951 H -0.05685 0.36741 0.46992
 H1952 H -0.04656 0.38542 0.48067
 H1953 H -0.03246 0.39921 0.44442
 H1954 H -0.04225 0.38104 0.43348
 H1955 H -0.02706 0.40261 0.47847
 H1956 H -0.04194 0.41851 0.45900
 H1957 H -0.04735 0.43804 0.47407
 H1958 H -0.03820 0.45719 0.48421
 H1959 H -0.00087 0.43971 0.48358
 H1960 H -0.01017 0.42029 0.47393
 C1961 C 0.46008 -0.11983 0.44218
 C1962 C 0.46586 -0.10884 0.44717
 C1963 C 0.46110 -0.10298 0.45826
 C1964 C 0.45020 -0.10821 0.46419
 C1965 C 0.44434 -0.11919 0.45919
 C1966 C 0.44920 -0.12522 0.44810
 C1967 C 0.46758 -0.09126 0.46300
 C1968 C 0.46686 -0.08707 0.47514
 C1969 C 0.47332 -0.07523 0.47959
 C1970 C 0.46809 -0.06852 0.49000
 C1971 C 0.47353 -0.05699 0.49411
 C1972 C 0.48443 -0.05200 0.48797
 C1973 C 0.48998 -0.05900 0.47788
 C1974 C 0.48451 -0.07051 0.47376
 H1975 H 0.46424 -0.12394 0.43364
 H1976 H 0.47419 -0.10495 0.44234
 H1977 H 0.44596 -0.10374 0.47253
 H1978 H 0.43598 -0.12284 0.46408
 H1979 H 0.47328 -0.08601 0.45611
 H1980 H 0.46108 -0.09218 0.48206
 H1981 H 0.45957 -0.07204 0.49476
 H1982 H 0.46903 -0.05188 0.50195
 H1983 H 0.49843 -0.05549 0.47300
 H1984 H 0.48913 -0.07567 0.46604
 C1985 C 0.46214 0.37911 -0.06055
 C1986 C 0.46837 0.38988 -0.05558
 C1987 C 0.46401 0.39577 -0.04432
 C1988 C 0.45307 0.39083 -0.03824
 C1989 C 0.44679 0.38008 -0.04321
 C1990 C 0.45122 0.37400 -0.05446
 C1991 C 0.47076 0.40735 -0.03959
 C1992 C 0.47058 0.41112 -0.02729
 C1993 C 0.47664 0.42312 -0.02266
 C1994 C 0.47194 0.42875 -0.01139
 C1995 C 0.47681 0.44043 -0.00704
 C1996 C 0.48663 0.44670 -0.01380
 C1997 C 0.49172 0.44080 -0.02480
 C1998 C 0.48682 0.42911 -0.02917
 H1999 H 0.46597 0.37492 -0.06922
 H2000 H 0.47669 0.39361 -0.06054
 H2001 H 0.44911 0.39537 -0.02980
 H2002 H 0.43842 0.37668 -0.03817
 H2003 H 0.47601 0.41287 -0.04662
 H2004 H 0.46535 0.40552 -0.02030
 H2005 H 0.46421 0.42426 -0.00612
 H2006 H 0.47267 0.44467 0.00150
 H2007 H 0.49934 0.44532 -0.03020
 H2008 H 0.49105 0.42486 -0.03762
 C2009 C 0.80935 0.36900 0.45820
 C2010 C 0.80429 0.35819 0.46419
 C2011 C 0.79202 0.35373 0.46111
 C2012 C 0.78493 0.36027 0.45169
 C2013 C 0.79003 0.37112 0.44565
 C2014 C 0.80230 0.37564 0.44887
 C2015 C 0.78736 0.34198 0.46762
 C2016 C 0.77505 0.33840 0.46824
 C2017 C 0.77085 0.32630 0.47439
 C2018 C 0.75960 0.32040 0.47002
 C2019 C 0.75571 0.30860 0.47498
 C2020 C 0.76291 0.30250 0.48458
 C2021 C 0.77384 0.30871 0.48941
 C2022 C 0.77776 0.32050 0.48439
 H2023 H 0.81889 0.37202 0.46085
 H2024 H 0.81001 0.35329 0.47131
 H2025 H 0.77557 0.35698 0.44876
 H2026 H 0.78432 0.37596 0.43850
 H2027 H 0.79456 0.33603 0.47207
 H2028 H 0.76778 0.34414 0.46368
 H2029 H 0.75402 0.32475 0.46245
 H2030 H 0.74718 0.30415 0.47109
 H2031 H 0.77955 0.30434 0.49686
 H2032 H 0.78621 0.32498 0.48838
 C2033 C 0.78595 0.88017 -0.04168
 C2034 C 0.78017 0.87033 -0.03465
 C2035 C 0.78691 0.85906 -0.03196
 C2036 C 0.79967 0.85795 -0.03600
 C2037 C 0.80554 0.86789 -0.04275
 C2038 C 0.79870 0.87903 -0.04577
 C2039 C 0.78045 0.84844 -0.02522
 C2040 C 0.78167 0.83638 -0.02935
 C2041 C 0.77462 0.82558 -0.02365
 C2042 C 0.76892 0.81663 -0.03187
 C2043 C 0.76292 0.80579 -0.02692
 C2044 C 0.76287 0.80348 -0.01365
 C2045 C 0.76858 0.81244 -0.00536
 C2046 C 0.77426 0.82356 -0.01032
 H2047 H 0.78052 0.88873 -0.04378
 H2048 H 0.77033 0.87137 -0.03158
 H2049 H 0.80511 0.84940 -0.03389
 H2050 H 0.81537 0.86676 -0.04581
 H2051 H 0.77380 0.85063 -0.01756
 H2052 H 0.78721 0.83446 -0.03794
 H2053 H 0.76924 0.81796 -0.04217
 H2054 H 0.75885 0.79889 -0.03355
 H2055 H 0.76880 0.81074 0.00489
 H2056 H 0.77883 0.83027 -0.00384
 C2057 C 0.79013 0.30831 0.38034
 C2058 C 0.78417 0.30315 0.39111
 C2059 C 0.78797 0.29130 0.39603
 C2060 C 0.79812 0.28475 0.39004
 C2061 C 0.80415 0.28995 0.37922
 C2062 C 0.80019 0.30179 0.37421
 C2063 C 0.78143 0.28651 0.40769
 C2064 C 0.78102 0.27416 0.41115
 C2065 C 0.77481 0.26980 0.42316
 C2066 C 0.77946 0.25877 0.42917
 C2067 C 0.77456 0.25489 0.44101
 C2068 C 0.76476 0.26189 0.44704
 C2069 C 0.75960 0.27253 0.44067
 C2070 C 0.76455 0.27644 0.42884
 H2071 H 0.78679 0.31748 0.37694
 H2072 H 0.77647 0.30846 0.39560
 H2073 H 0.80162 0.27577 0.39378
 H2074 H 0.81190 0.28468 0.37483
 H2075 H 0.77669 0.29360 0.41359
 H2076 H 0.78585 0.26703 0.40539
 H2077 H 0.78722 0.25338 0.42491
 H2078 H 0.77871 0.24657 0.44557
 H2079 H 0.75197 0.27806 0.44496
 H2080 H 0.76034 0.28469 0.42423
 C2081 C 0.80762 0.79189 -0.11920
 C2082 C 0.80220 0.78635 -0.10831
 C2083 C 0.79041 0.79059 -0.10354
 C2084 C 0.78420 0.80073 -0.10987
 C2085 C 0.78966 0.80632 -0.12080
 C2086 C 0.80144 0.80196 -0.12563
 C2087 C 0.78533 0.78438 -0.09178
 C2088 C 0.77313 0.78508 -0.08783
 C2089 C 0.76853 0.77884 -0.07589
 C2090 C 0.75803 0.78411 -0.06942
 C2091 C 0.75382 0.77892 -0.05780
 C2092 C 0.75996 0.76821 -0.05245
 C2093 C 0.77013 0.76258 -0.05924
 C2094 C 0.77434 0.76779 -0.07084
 H2095 H 0.81672 0.78825 -0.12246
 H2096 H 0.80726 0.77864 -0.10359
 H2097 H 0.77527 0.80456 -0.10636
 H2098 H 0.78461 0.81407 -0.12543
 H2099 H 0.79209 0.77891 -0.08618
 H2100 H 0.76630 0.79070 -0.09316
 H2101 H 0.75327 0.79250 -0.07318
 H2102 H 0.74594 0.78350 -0.05287
 H2103 H 0.77501 0.75425 -0.05549
 H2104 H 0.78212 0.76310 -0.07580
 C2105 C 0.28962 0.44280 0.87023
 C2106 C 0.28383 0.44820 0.85946
 C2107 C 0.28853 0.45958 0.85409
 C2108 C 0.29933 0.46542 0.85972
 C2109 C 0.30514 0.46000 0.87052
 C2110 C 0.30036 0.44861 0.87592
 C2111 C 0.28213 0.46462 0.84243
 C2112 C 0.28360 0.47656 0.83788
 C2113 C 0.27736 0.48105 0.82592
 C2114 C 0.28319 0.49089 0.81885
 C2115 C 0.27804 0.49485 0.80714
 C2116 C 0.26683 0.48914 0.80229
 C2117 C 0.26065 0.47972 0.80969
 C2118 C 0.26582 0.47574 0.82138
 H2119 H 0.28564 0.43401 0.87398
 H2120 H 0.27561 0.44342 0.85529
 H2121 H 0.30352 0.47400 0.85574
 H2122 H 0.31340 0.46477 0.87456
 H2123 H 0.27593 0.45801 0.83736
 H2124 H 0.28993 0.48322 0.84268
 H2125 H 0.29197 0.49527 0.82222
 H2126 H 0.28302 0.50218 0.80175
 H2127 H 0.25193 0.47520 0.80634
 H2128 H 0.26073 0.46852 0.82678
 C2129 C 0.31164 -0.03916 0.36897
 C2130 C 0.30663 -0.03341 0.35797
 C2131 C 0.29509 -0.03771 0.35261
 C2132 C 0.28873 -0.04809 0.35842
 C2133 C 0.29376 -0.05387 0.36943
 C2134 C 0.30529 -0.04948 0.37486
 C2135 C 0.29038 -0.03144 0.34073
 C2136 C 0.27814 -0.03171 0.33687
 C2137 C 0.27355 -0.02567 0.32482
 C2138 C 0.26219 -0.03022 0.31928
 C2139 C 0.25766 -0.02512 0.30776
 C2140 C 0.26435 -0.01522 0.30153
 C2141 C 0.27553 -0.01037 0.30728
 C2142 C 0.28007 -0.01550 0.31880
 H2143 H 0.32055 -0.03548 0.37274
 H2144 H 0.31180 -0.02551 0.35364
 H2145 H 0.28002 -0.05200 0.35440
 H2146 H 0.28859 -0.06182 0.37359
 H2147 H 0.29741 -0.02636 0.33506
 H2148 H 0.27111 -0.03680 0.34253
 H2149 H 0.25691 -0.03796 0.32375
 H2150 H 0.24901 -0.02911 0.30364
 H2151 H 0.28090 -0.00270 0.30280
 H2152 H 0.28861 -0.01137 0.32295
 C2153 C -0.03922 -0.05933 -0.12060
 C2154 C -0.03299 -0.05432 -0.10985
 C2155 C -0.03735 -0.04309 -0.10394
 C2156 C -0.04833 -0.03710 -0.10884
 C2157 C -0.05462 -0.04212 -0.11957
 C2158 C -0.05016 -0.05331 -0.12569
 C2159 C -0.03058 -0.03829 -0.09239
 C2160 C -0.03077 -0.02598 -0.08867
 C2161 C -0.02468 -0.02124 -0.07671
 C2162 C -0.02931 -0.00990 -0.07119
 C2163 C -0.02442 -0.00542 -0.05955
 C2164 C -0.01466 -0.01212 -0.05320
 C2165 C -0.00963 -0.02319 -0.05900
 C2166 C -0.01455 -0.02769 -0.07064
 H2167 H -0.03539 -0.06797 -0.12480
 H2168 H -0.02464 -0.05922 -0.10616
 H2169 H -0.05229 -0.02868 -0.10428
 H2170 H -0.06301 -0.03714 -0.12294
 H2171 H -0.02531 -0.04525 -0.08686
 H2172 H -0.03601 -0.01906 -0.09429
 H2173 H -0.03702 -0.00467 -0.07572
 H2174 H -0.02852 0.00316 -0.05540
 H2175 H -0.00208 -0.02857 -0.05440
 H2176 H -0.01038 -0.03621 -0.07479
 C2177 C -0.03960 0.43694 0.38048
 C2178 C -0.03345 0.44163 0.39144
 C2179 C -0.03733 0.45313 0.39715
 C2180 C -0.04776 0.45973 0.39185
 C2181 C -0.05399 0.45503 0.38093
 C2182 C -0.05000 0.44355 0.37501
 C2183 C -0.03062 0.45761 0.40889
 C2184 C -0.03007 0.46995 0.41247
 C2185 C -0.02395 0.47456 0.42450
 C2186 C -0.02748 0.48662 0.42923
 C2187 C -0.02252 0.49121 0.44079
 C2188 C -0.01377 0.48388 0.44791
 C2189 C -0.00987 0.47198 0.44297
 C2190 C -0.01486 0.46737 0.43137
 H2191 H -0.03613 0.42806 0.37646
 H2192 H -0.02554 0.43627 0.39542
 H2193 H -0.05137 0.46840 0.39625
 H2194 H -0.06195 0.46047 0.37724
 H2195 H -0.02595 0.45038 0.41462
 H2196 H -0.03466 0.47710 0.40656
 H2197 H -0.03435 0.49243 0.42410
 H2198 H -0.02575 0.50043 0.44426
 H2199 H -0.00313 0.46609 0.44818
 H2200 H -0.01152 0.45822 0.42788
 C2201 C 0.44342 -0.04030 0.38031
 C2202 C 0.44876 -0.03472 0.39123
 C2203 C 0.45949 -0.04011 0.39714
 C2204 C 0.46473 -0.05139 0.39192
 C2205 C 0.45933 -0.05704 0.38097
 C2206 C 0.44856 -0.05159 0.37503
 C2207 C 0.46449 -0.03387 0.40893
 C2208 C 0.47641 -0.03537 0.41341
 C2209 C 0.48105 -0.02913 0.42535
 C2210 C 0.49106 -0.03487 0.43217
 C2211 C 0.49534 -0.02963 0.44375
 C2212 C 0.48979 -0.01840 0.44872
 C2213 C 0.48007 -0.01239 0.44165
 C2214 C 0.47579 -0.01765 0.43008
 H2215 H 0.43519 -0.03571 0.37610
 H2216 H 0.44448 -0.02608 0.39508
 H2217 H 0.47278 -0.05608 0.39639
 H2218 H 0.46355 -0.06574 0.37727
 H2219 H 0.45794 -0.02767 0.41403
 H2220 H 0.48298 -0.04165 0.40845
 H2221 H 0.49539 -0.04362 0.42867
 H2222 H 0.50285 -0.03454 0.44892
 H2223 H 0.47563 -0.00370 0.44514
 H2224 H 0.46841 -0.01262 0.42487
 C2225 C 0.43953 0.45895 -0.11968
 C2226 C 0.44441 0.46460 -0.10856
 C2227 C 0.45586 0.46026 -0.10314
 C2228 C 0.46228 0.44996 -0.10900
 C2229 C 0.45738 0.44427 -0.12013
 C2230 C 0.44592 0.44868 -0.12561
 C2231 C 0.46046 0.46646 -0.09119
 C2232 C 0.47270 0.46634 -0.08737
 C2233 C 0.47716 0.47229 -0.07524
 C2234 C 0.48831 0.46756 -0.06952
 C2235 C 0.49265 0.47254 -0.05786
 C2236 C 0.48600 0.48251 -0.05171
 C2237 C 0.47508 0.48758 -0.05767
 C2238 C 0.47071 0.48255 -0.06932
 H2239 H 0.43068 0.46263 -0.12350
 H2240 H 0.43923 0.47245 -0.10419
 H2241 H 0.47093 0.44605 -0.10492
 H2242 H 0.46258 0.43639 -0.12437
 H2243 H 0.45338 0.47137 -0.08542
 H2244 H 0.47978 0.46140 -0.09308
 H2245 H 0.49353 0.45977 -0.07395
 H2246 H 0.50113 0.46842 -0.05359
 H2247 H 0.46979 0.49533 -0.05326
 H2248 H 0.46235 0.48680 -0.07366
 C2249 C 0.45806 0.81008 0.36915
 C2250 C 0.46396 0.80511 0.35823
 C2251 C 0.46086 0.79284 0.35373
 C2252 C 0.45143 0.78571 0.36024
 C2253 C 0.44548 0.79071 0.37117
 C2254 C 0.44878 0.80293 0.37581
 C2255 C 0.46738 0.78813 0.34202
 C2256 C 0.46854 0.77570 0.33900
 C2257 C 0.47481 0.77124 0.32706
 C2258 C 0.47089 0.75956 0.32169
 C2259 C 0.47603 0.75533 0.31007
 C2260 C 0.48535 0.76263 0.30364
 C2261 C 0.48969 0.77407 0.30931
 C2262 C 0.48450 0.77832 0.32091
 H2263 H 0.46076 0.81960 0.37226
 H2264 H 0.47107 0.81087 0.35332
 H2265 H 0.44844 0.77638 0.35683
 H2266 H 0.43834 0.78495 0.37600
 H2267 H 0.47146 0.79530 0.33575
 H2268 H 0.46439 0.76847 0.34516
 H2269 H 0.46354 0.75387 0.32631
 H2270 H 0.47247 0.74645 0.30602
 H2271 H 0.49691 0.77989 0.30465
 H2272 H 0.48813 0.78714 0.32501
 C2273 C -0.05914 0.79178 0.86745
 C2274 C -0.05403 0.78630 0.85637
 C2275 C -0.04216 0.79032 0.85159
 C2276 C -0.03556 0.80019 0.85806
 C2277 C -0.04072 0.80574 0.86917
 C2278 C -0.05257 0.80157 0.87403
 C2279 C -0.03737 0.78425 0.83963
 C2280 C -0.02504 0.78409 0.83609
 C2281 C -0.02054 0.77813 0.82396
 C2282 C -0.00924 0.78273 0.81835
 C2283 C -0.00492 0.77778 0.80667
 C2284 C -0.01173 0.76796 0.80037
 C2285 C -0.02280 0.76301 0.80623
 C2286 C -0.02713 0.76800 0.81792
 H2287 H -0.06834 0.78836 0.87072
 H2288 H -0.05937 0.77881 0.85154
 H2289 H -0.02656 0.80384 0.85449
 H2290 H -0.03539 0.81326 0.87394
 H2291 H -0.04443 0.77960 0.83360
 H2292 H -0.01795 0.78882 0.84199
 H2293 H -0.00390 0.79041 0.82287
 H2294 H 0.00365 0.78183 0.80247
 H2295 H -0.02824 0.75541 0.80171
 H2296 H -0.03561 0.76383 0.82217
 C2297 C 0.38126 0.80906 0.29097
 C2298 C 0.39227 0.80381 0.28553
 C2299 C 0.39737 0.79230 0.29015
 C2300 C 0.39127 0.78621 0.30053
 C2301 C 0.38025 0.79148 0.30600
 C2302 C 0.37508 0.80297 0.30129
 C2303 C 0.40923 0.78735 0.28411
 C2304 C 0.41326 0.77519 0.28502
 C2305 C 0.42524 0.77060 0.27894
 C2306 C 0.43161 0.76010 0.28432
 C2307 C 0.44318 0.75580 0.27916
 C2308 C 0.44856 0.76185 0.26838
 C2309 C 0.44191 0.77206 0.26269
 C2310 C 0.43037 0.77635 0.26786
 H2311 H 0.37771 0.81793 0.28706
 H2312 H 0.39682 0.80876 0.27762
 H2313 H 0.39506 0.77753 0.30466
 H2314 H 0.37584 0.78651 0.31395
 H2315 H 0.41480 0.79414 0.27860
 H2316 H 0.40792 0.76834 0.29066
 H2317 H 0.42778 0.75538 0.29274
 H2318 H 0.44802 0.74791 0.28378
 H2319 H 0.44570 0.77687 0.25431
 H2320 H 0.42549 0.78411 0.26309
 C2321 C -0.11755 0.79106 0.81008
 C2322 C -0.10647 0.78540 0.80520
 C2323 C -0.10108 0.78964 0.79364
 C2324 C -0.10693 0.79987 0.78713
 C2325 C -0.11801 0.80555 0.79203
 C2326 C -0.12348 0.80122 0.80356
 C2327 C -0.08913 0.78348 0.78907
 C2328 C -0.08508 0.78385 0.77686
 C2329 C -0.07284 0.77817 0.77244
 C2330 C -0.06720 0.78302 0.76125
 C2331 C -0.05548 0.77833 0.75690
 C2332 C -0.04915 0.76853 0.76359
 C2333 C -0.05499 0.76337 0.77459
 C2334 C -0.06671 0.76810 0.77897
 H2335 H -0.12133 0.78747 0.81903
 H2336 H -0.10212 0.77763 0.81048
 H2337 H -0.10289 0.80374 0.77841
 H2338 H -0.12223 0.81336 0.78673
 H2339 H -0.08352 0.77846 0.79617
 H2340 H -0.09067 0.78887 0.76975
 H2341 H -0.07177 0.79066 0.75596
 H2342 H -0.05132 0.78251 0.74837
 H2343 H -0.05042 0.75577 0.77995
 H2344 H -0.07094 0.76377 0.78738
 C2345 C 0.87112 0.28906 0.44146
 C2346 C 0.86013 0.28318 0.44626
 C2347 C 0.85500 0.28689 0.45811
 C2348 C 0.86102 0.29683 0.46502
 C2349 C 0.87204 0.30276 0.46017
 C2350 C 0.87724 0.29894 0.44833
 C2351 C 0.84311 0.28051 0.46254
 C2352 C 0.83930 0.28016 0.47482
 C2353 C 0.82708 0.27422 0.47896
 C2354 C 0.82126 0.27875 0.49020
 C2355 C 0.80938 0.27401 0.49407
 C2356 C 0.80309 0.26448 0.48686
 C2357 C 0.80919 0.25950 0.47593
 C2358 C 0.82107 0.26429 0.47202
 H2359 H 0.87469 0.28585 0.43227
 H2360 H 0.85563 0.27564 0.44069
 H2361 H 0.85717 0.30027 0.47401
 H2362 H 0.87642 0.31035 0.46573
 H2363 H 0.83732 0.27590 0.45525
 H2364 H 0.84499 0.28482 0.48213
 H2365 H 0.82576 0.28625 0.49581
 H2366 H 0.80503 0.27801 0.50260
 H2367 H 0.80466 0.25209 0.47021
 H2368 H 0.82547 0.26019 0.46357
 C2369 C 0.86962 0.78731 -0.05913
 C2370 C 0.85872 0.78133 -0.05422
 C2371 C 0.85266 0.78609 -0.04322
 C2372 C 0.85770 0.79711 -0.03725
 C2373 C 0.86861 0.80313 -0.04219
 C2374 C 0.87470 0.79835 -0.05323
 C2375 C 0.84079 0.77968 -0.03875
 C2376 C 0.83649 0.78031 -0.02664
 C2377 C 0.82422 0.77453 -0.02233
 C2378 C 0.81852 0.77933 -0.01114
 C2379 C 0.80661 0.77480 -0.00708
 C2380 C 0.80013 0.76525 -0.01408
 C2381 C 0.80609 0.76003 -0.02499
 C2382 C 0.81802 0.76457 -0.02905
 H2383 H 0.87397 0.78324 -0.06761
 H2384 H 0.85500 0.77290 -0.05906
 H2385 H 0.85310 0.80133 -0.02897
 H2386 H 0.87215 0.81161 -0.03737
 H2387 H 0.83550 0.77428 -0.04585
 H2388 H 0.84187 0.78569 -0.01958
 H2389 H 0.82314 0.78687 -0.00568
 H2390 H 0.80237 0.77902 0.00141
 H2391 H 0.80144 0.75257 -0.03054
 H2392 H 0.82228 0.76021 -0.03743
 C2393 C -0.11975 -0.05995 -0.04124
 C2394 C -0.10907 -0.05452 -0.03530
 C2395 C -0.10341 -0.04337 -0.04019
 C2396 C -0.10863 -0.03778 -0.05128
 C2397 C -0.11933 -0.04323 -0.05725
 C2398 C -0.12502 -0.05441 -0.05232
 C2399 C -0.09178 -0.03834 -0.03374
 C2400 C -0.08754 -0.02625 -0.03485
 C2401 C -0.07560 -0.02161 -0.02869
 C2402 C -0.06913 -0.01118 -0.03415
 C2403 C -0.05756 -0.00686 -0.02899
 C2404 C -0.05224 -0.01282 -0.01815
 C2405 C -0.05896 -0.02299 -0.01241
 C2406 C -0.07054 -0.02730 -0.01756
 H2407 H -0.12375 -0.06856 -0.03711
 H2408 H -0.10520 -0.05909 -0.02683
 H2409 H -0.10436 -0.02939 -0.05560
 H2410 H -0.12305 -0.03869 -0.06578
 H2411 H -0.08656 -0.04503 -0.02784
 H2412 H -0.09265 -0.01954 -0.04083
 H2413 H -0.07288 -0.00655 -0.04263
 H2414 H -0.05266 0.00100 -0.03367
 H2415 H -0.05522 -0.02774 -0.00399
 H2416 H -0.07547 -0.03502 -0.01273
 C2417 C -0.11994 0.44263 0.46050
 C2418 C -0.10911 0.44792 0.46630
 C2419 C -0.10322 0.45884 0.46119
 C2420 C -0.10828 0.46430 0.44996
 C2421 C -0.11911 0.45900 0.44414
 C2422 C -0.12509 0.44810 0.44933
 C2423 C -0.09159 0.46386 0.46757
 C2424 C -0.08720 0.47585 0.46614
 C2425 C -0.07523 0.48044 0.47220
 C2426 C -0.06826 0.49023 0.46620
 C2427 C -0.05656 0.49433 0.47125
 C2428 C -0.05169 0.48881 0.48252
 C2429 C -0.05897 0.47940 0.48883
 C2430 C -0.07063 0.47528 0.48376
 H2431 H -0.12419 0.43424 0.46482
 H2432 H -0.10535 0.44346 0.47488
 H2433 H -0.10381 0.47246 0.44543
 H2434 H -0.12268 0.46346 0.43551
 H2435 H -0.08647 0.45727 0.47369
 H2436 H -0.09216 0.48249 0.45995
 H2437 H -0.07169 0.49446 0.45738
 H2438 H -0.05123 0.50162 0.46615
 H2439 H -0.05558 0.47503 0.49760
 H2440 H -0.07597 0.46808 0.48895
 C2441 C 0.38230 -0.05739 0.45968
 C2442 C 0.39328 -0.05235 0.46538
 C2443 C 0.39918 -0.04136 0.46046
 C2444 C 0.39393 -0.03556 0.44949
 C2445 C 0.38294 -0.04063 0.44371
 C2446 C 0.37692 -0.05165 0.44870
 C2447 C 0.41101 -0.03668 0.46678
 C2448 C 0.41552 -0.02468 0.46575
 C2449 C 0.42754 -0.02038 0.47199
 C2450 C 0.43439 -0.01021 0.46653
 C2451 C 0.44607 -0.00626 0.47174
 C2452 C 0.45109 -0.01232 0.48267
 C2453 C 0.44396 -0.02218 0.48846
 C2454 C 0.43230 -0.02614 0.48322
 H2455 H 0.37820 -0.06587 0.46396
 H2456 H 0.39718 -0.05707 0.47376
 H2457 H 0.39839 -0.02728 0.44514
 H2458 H 0.37928 -0.03586 0.43528
 H2459 H 0.41612 -0.04353 0.47261
 H2460 H 0.41056 -0.01780 0.45984
 H2461 H 0.43086 -0.00549 0.45799
 H2462 H 0.45125 0.00141 0.46706
 H2463 H 0.44747 -0.02700 0.49694
 H2464 H 0.42705 -0.03366 0.48804
 C2465 C 0.38040 0.45948 -0.05935
 C2466 C 0.39149 0.46513 -0.05443
 C2467 C 0.39729 0.46038 -0.04331
 C2468 C 0.39180 0.44966 -0.03725
 C2469 C 0.38071 0.44395 -0.04218
 C2470 C 0.37479 0.44874 -0.05334
 C2471 C 0.40928 0.46656 -0.03875
 C2472 C 0.41372 0.46572 -0.02669
 C2473 C 0.42590 0.47170 -0.02237
 C2474 C 0.43214 0.46658 -0.01164
 C2475 C 0.44382 0.47163 -0.00746
 C2476 C 0.44950 0.48205 -0.01385
 C2477 C 0.44305 0.48744 -0.02437
 C2478 C 0.43137 0.48238 -0.02855
 H2479 H 0.37636 0.46361 -0.06793
 H2480 H 0.39556 0.47331 -0.05936
 H2481 H 0.39615 0.44543 -0.02887
 H2482 H 0.37690 0.43571 -0.03720
 H2483 H 0.41459 0.47207 -0.04575
 H2484 H 0.40848 0.46016 -0.01968
 H2485 H 0.42808 0.45846 -0.00661
 H2486 H 0.44848 0.46722 0.00068
 H2487 H 0.44708 0.49552 -0.02948
 H2488 H 0.42666 0.48694 -0.03655
 C2489 C 0.36930 0.46010 0.80624
 C2490 C 0.35862 0.46599 0.80087
 C2491 C 0.35339 0.46154 0.78930
 C2492 C 0.35905 0.45089 0.78325
 C2493 C 0.36976 0.44498 0.78864
 C2494 C 0.37502 0.44949 0.80022
 C2495 C 0.34180 0.46797 0.78431
 C2496 C 0.33760 0.46697 0.77219
 C2497 C 0.32564 0.47313 0.76777
 C2498 C 0.31868 0.46738 0.75780
 C2499 C 0.30691 0.47239 0.75398
 C2500 C 0.30192 0.48338 0.75998
 C2501 C 0.30925 0.48953 0.76949
 C2502 C 0.32099 0.48449 0.77332
 H2503 H 0.37296 0.46388 0.81517
 H2504 H 0.35442 0.47411 0.80579
 H2505 H 0.35514 0.44689 0.77452
 H2506 H 0.37383 0.43683 0.78371
 H2507 H 0.33648 0.47375 0.79108
 H2508 H 0.34265 0.46106 0.76534
 H2509 H 0.32215 0.45872 0.75325
 H2510 H 0.30158 0.46745 0.74656
 H2511 H 0.30579 0.49810 0.77421
 H2512 H 0.32634 0.48950 0.78067
 C2513 C 0.36851 -0.03985 0.30958
 C2514 C 0.35754 -0.03420 0.30451
 C2515 C 0.35161 -0.03931 0.29357
 C2516 C 0.35678 -0.05039 0.28790
 C2517 C 0.36775 -0.05606 0.29299
 C2518 C 0.37376 -0.05087 0.30390
 C2519 C 0.33987 -0.03305 0.28875
 C2520 C 0.33548 -0.03436 0.27672
 C2521 C 0.32354 -0.02825 0.27219
 C2522 C 0.31683 -0.03393 0.26199
 C2523 C 0.30526 -0.02878 0.25777
 C2524 C 0.30022 -0.01771 0.26357
 C2525 C 0.30719 -0.01177 0.27348
 C2526 C 0.31874 -0.01693 0.27770
 H2527 H 0.37278 -0.03552 0.31798
 H2528 H 0.35371 -0.02574 0.30914
 H2529 H 0.35229 -0.05491 0.27972
 H2530 H 0.37141 -0.06456 0.28835
 H2531 H 0.33472 -0.02708 0.29549
 H2532 H 0.34050 -0.04039 0.26996
 H2533 H 0.32041 -0.04256 0.25747
 H2534 H 0.30018 -0.03360 0.25010
 H2535 H 0.30366 -0.00316 0.27808
 H2536 H 0.32388 -0.01196 0.28522
 C2537 C 0.13016 0.54055 0.69216
 C2538 C 0.14110 0.53490 0.69730
 C2539 C 0.14681 0.53983 0.70844
 C2540 C 0.14142 0.55074 0.71425
 C2541 C 0.13047 0.55641 0.70910
 C2542 C 0.12468 0.55140 0.69798
 C2543 C 0.15856 0.53356 0.71329
 C2544 C 0.16298 0.53483 0.72532
 C2545 C 0.17487 0.52860 0.72984
 C2546 C 0.18177 0.53431 0.73989
 C2547 C 0.19331 0.52903 0.74407
 C2548 C 0.19812 0.51780 0.73840
 C2549 C 0.19093 0.51181 0.72867
 C2550 C 0.17943 0.51712 0.72446
 H2551 H 0.12609 0.53637 0.68359
 H2552 H 0.14510 0.52659 0.69254
 H2553 H 0.14572 0.55513 0.72261
 H2554 H 0.12663 0.56477 0.71385
 H2555 H 0.16371 0.52758 0.70656
 H2556 H 0.15802 0.54091 0.73210
 H2557 H 0.17839 0.54307 0.74430
 H2558 H 0.19856 0.53390 0.75160
 H2559 H 0.19429 0.50310 0.72413
 H2560 H 0.17415 0.51215 0.71704
 C2561 C 0.13062 0.04185 0.19145
 C2562 C 0.14157 0.03633 0.19672
 C2563 C 0.14626 0.04036 0.20867
 C2564 C 0.13981 0.05025 0.21520
 C2565 C 0.12885 0.05580 0.20991
 C2566 C 0.12408 0.05163 0.19800
 C2567 C 0.15807 0.03424 0.21360
 C2568 C 0.16212 0.03486 0.22581
 C2569 C 0.17416 0.02875 0.23012
 C2570 C 0.18085 0.03410 0.24050
 C2571 C 0.19260 0.02904 0.24434
 C2572 C 0.19786 0.01840 0.23796
 C2573 C 0.19089 0.01271 0.22791
 C2574 C 0.17915 0.01778 0.22407
 H2575 H 0.12740 0.03844 0.18219
 H2576 H 0.14638 0.02881 0.19142
 H2577 H 0.14323 0.05389 0.22429
 H2578 H 0.12409 0.06330 0.21523
 H2579 H 0.16368 0.02895 0.20667
 H2580 H 0.15682 0.04031 0.23284
 H2581 H 0.17713 0.04244 0.24543
 H2582 H 0.19768 0.03365 0.25214
 H2583 H 0.19456 0.00443 0.22286
 H2584 H 0.17404 0.01304 0.21638
 C2585 C 0.61891 0.69129 0.21066
 C2586 C 0.60815 0.69651 0.21657
 C2587 C 0.60357 0.70859 0.21300
 C2588 C 0.60991 0.71529 0.20314
 C2589 C 0.62071 0.71004 0.19720
 C2590 C 0.62537 0.69798 0.20092
 C2591 C 0.59195 0.71350 0.21951
 C2592 C 0.58838 0.72584 0.21961
 C2593 C 0.57643 0.73026 0.22584
 C2594 C 0.57018 0.74102 0.22087
 C2595 C 0.55843 0.74494 0.22590
 C2596 C 0.55276 0.73825 0.23615
 C2597 C 0.55937 0.72788 0.24156
 C2598 C 0.57109 0.72393 0.23648
 H2599 H 0.62207 0.68193 0.21374
 H2600 H 0.60339 0.69108 0.22403
 H2601 H 0.60651 0.72445 0.19979
 H2602 H 0.62539 0.71548 0.18973
 H2603 H 0.58611 0.70651 0.22446
 H2604 H 0.59399 0.73293 0.21455
 H2605 H 0.57418 0.74615 0.21279
 H2606 H 0.55364 0.75300 0.22152
 H2607 H 0.55537 0.72259 0.24954
 H2608 H 0.57588 0.71591 0.24091
 C2609 C 0.11996 0.69123 0.70779
 C2610 C 0.10918 0.69641 0.71373
 C2611 C 0.10483 0.70866 0.71050
 C2612 C 0.11141 0.71561 0.70098
 C2613 C 0.12220 0.71041 0.69500
 C2614 C 0.12664 0.69816 0.69835
 C2615 C 0.09315 0.71353 0.71694
 C2616 C 0.08998 0.72595 0.71766
 C2617 C 0.07795 0.73050 0.72362
 C2618 C 0.07264 0.74204 0.71934
 C2619 C 0.06092 0.74631 0.72415
 C2620 C 0.05430 0.73918 0.73348
 C2621 C 0.05992 0.72792 0.73821
 C2622 C 0.07163 0.72363 0.73337
 H2623 H 0.12293 0.68172 0.71055
 H2624 H 0.10423 0.69078 0.72092
 H2625 H 0.10817 0.72493 0.69791
 H2626 H 0.12707 0.71602 0.68777
 H2627 H 0.08694 0.70642 0.72125
 H2628 H 0.09607 0.73310 0.71328
 H2629 H 0.07739 0.74761 0.71198
 H2630 H 0.05693 0.75507 0.72034
 H2631 H 0.05515 0.72224 0.74547
 H2632 H 0.07565 0.71496 0.73729
 C2633 C 0.63152 0.18933 0.54123
 C2634 C 0.64259 0.19396 0.53533
 C2635 C 0.64785 0.20580 0.53892
 C2636 C 0.64189 0.21284 0.54878
 C2637 C 0.63082 0.20818 0.55473
 C2638 C 0.62545 0.19638 0.55100
 C2639 C 0.65977 0.21011 0.53250
 C2640 C 0.66342 0.22242 0.53175
 C2641 C 0.67556 0.22664 0.52569
 C2642 C 0.68091 0.23833 0.52961
 C2643 C 0.69255 0.24254 0.52457
 C2644 C 0.69910 0.23520 0.51534
 C2645 C 0.69353 0.22369 0.51105
 C2646 C 0.68187 0.21946 0.51614
 H2647 H 0.62784 0.18015 0.53813
 H2648 H 0.64703 0.18828 0.52785
 H2649 H 0.64586 0.22182 0.55214
 H2650 H 0.62648 0.21387 0.56225
 H2651 H 0.66565 0.20277 0.52817
 H2652 H 0.65755 0.22976 0.53609
 H2653 H 0.67620 0.24412 0.53683
 H2654 H 0.69650 0.25149 0.52807
 H2655 H 0.69826 0.21784 0.50390
 H2656 H 0.67784 0.21062 0.51251
 C2657 C 0.62899 0.68916 0.03917
 C2658 C 0.63990 0.69411 0.03322
 C2659 C 0.64556 0.70549 0.03763
 C2660 C 0.64022 0.71169 0.04836
 C2661 C 0.62931 0.70674 0.05433
 C2662 C 0.62351 0.69542 0.04980
 C2663 C 0.65724 0.71026 0.03113
 C2664 C 0.66099 0.72256 0.03143
 C2665 C 0.67298 0.72726 0.02547
 C2666 C 0.67859 0.73847 0.03035
 C2667 C 0.69016 0.74300 0.02544
 C2668 C 0.69634 0.73650 0.01537
 C2669 C 0.69049 0.72552 0.01015
 C2670 C 0.67893 0.72096 0.01511
 H2671 H 0.62491 0.68041 0.03540
 H2672 H 0.64391 0.68907 0.02507
 H2673 H 0.64454 0.72021 0.05239
 H2674 H 0.62551 0.71181 0.06253
 H2675 H 0.66286 0.70330 0.02590
 H2676 H 0.65535 0.72951 0.03664
 H2677 H 0.67414 0.74359 0.03822
 H2678 H 0.69435 0.75151 0.02967
 H2679 H 0.69496 0.72031 0.00236
 H2680 H 0.67469 0.71255 0.01076
 C2681 C 0.11920 0.05954 0.03880
 C2682 C 0.10833 0.05450 0.03284
 C2683 C 0.10298 0.04288 0.03695
 C2684 C 0.10868 0.03645 0.04732
 C2685 C 0.11956 0.04149 0.05329
 C2686 C 0.12497 0.05312 0.04912
 C2687 C 0.09118 0.03820 0.03056
 C2688 C 0.08713 0.02599 0.03093
 C2689 C 0.07494 0.02168 0.02505
 C2690 C 0.06878 0.01086 0.03012
 C2691 C 0.05693 0.00688 0.02534
 C2692 C 0.05102 0.01358 0.01527
 C2693 C 0.05747 0.02408 0.00982
 C2694 C 0.06931 0.02806 0.01461
 H2695 H 0.12296 0.06854 0.03533
 H2696 H 0.10407 0.05972 0.02496
 H2697 H 0.10467 0.02768 0.05110
 H2698 H 0.12364 0.03626 0.06122
 H2699 H 0.08563 0.04525 0.02543
 H2700 H 0.09257 0.01891 0.03613
 H2701 H 0.07298 0.00567 0.03804
 H2702 H 0.05227 -0.00128 0.02974
 H2703 H 0.05328 0.02939 0.00197
 H2704 H 0.07398 0.03612 0.01008
 C2705 C 0.11980 0.55803 0.53967
 C2706 C 0.10906 0.55261 0.53382
 C2707 C 0.10386 0.54104 0.53829
 C2708 C 0.10960 0.53508 0.54892
 C2709 C 0.12037 0.54052 0.55479
 C2710 C 0.12564 0.55207 0.55023
 C2711 C 0.09223 0.53593 0.53184
 C2712 C 0.08797 0.52383 0.53295
 C2713 C 0.07604 0.51922 0.52673
 C2714 C 0.06927 0.50905 0.53236
 C2715 C 0.05761 0.50492 0.52722
 C2716 C 0.05252 0.51077 0.51621
 C2717 C 0.05962 0.52055 0.51022
 C2718 C 0.07125 0.52470 0.51539
 H2719 H 0.12344 0.56695 0.53587
 H2720 H 0.10479 0.55749 0.52573
 H2721 H 0.10573 0.52638 0.55296
 H2722 H 0.12448 0.53565 0.56294
 H2723 H 0.08696 0.54260 0.52594
 H2724 H 0.09301 0.51710 0.53896
 H2725 H 0.07283 0.50456 0.54100
 H2726 H 0.05244 0.49735 0.53208
 H2727 H 0.05607 0.52521 0.50167
 H2728 H 0.07641 0.53221 0.51046
 C2729 C 0.62249 0.05761 0.53954
 C2730 C 0.61187 0.05210 0.53354
 C2731 C 0.60631 0.04084 0.53835
 C2732 C 0.61155 0.03528 0.54945
 C2733 C 0.62218 0.04082 0.55547
 C2734 C 0.62779 0.05206 0.55059
 C2735 C 0.59480 0.03565 0.53180
 C2736 C 0.59056 0.02357 0.53307
 C2737 C 0.57868 0.01884 0.52687
 C2738 C 0.57193 0.00873 0.53261
 C2739 C 0.56027 0.00454 0.52753
 C2740 C 0.55515 0.01031 0.51650
 C2741 C 0.56223 0.02002 0.51039
 C2742 C 0.57388 0.02420 0.51548
 H2743 H 0.62642 0.06632 0.53553
 H2744 H 0.60797 0.05666 0.52509
 H2745 H 0.60736 0.02684 0.55374
 H2746 H 0.62595 0.03624 0.56395
 H2747 H 0.58962 0.04222 0.52572
 H2748 H 0.59557 0.01695 0.53924
 H2749 H 0.57551 0.00431 0.54129
 H2750 H 0.55512 -0.00299 0.53247
 H2751 H 0.55866 0.02461 0.50181
 H2752 H 0.57904 0.03165 0.51046
 C2753 C 0.62052 0.53989 0.05821
 C2754 C 0.60973 0.53394 0.05301
 C2755 C 0.60474 0.53785 0.04117
 C2756 C 0.61075 0.54804 0.03467
 C2757 C 0.62156 0.55403 0.03990
 C2758 C 0.62660 0.55002 0.05173
 C2759 C 0.59301 0.53137 0.03636
 C2760 C 0.58903 0.53167 0.02412
 C2761 C 0.57699 0.52548 0.01975
 C2762 C 0.57075 0.53042 0.00894
 C2763 C 0.55904 0.52533 0.00490
 C2764 C 0.55335 0.51506 0.01153
 C2765 C 0.55990 0.50973 0.02201
 C2766 C 0.57160 0.51484 0.02606
 H2767 H 0.62395 0.53657 0.06739
 H2768 H 0.60525 0.52620 0.05829
 H2769 H 0.60704 0.55163 0.02570
 H2770 H 0.62593 0.56181 0.03463
 H2771 H 0.58744 0.52615 0.04337
 H2772 H 0.59442 0.53699 0.01705
 H2773 H 0.57476 0.53850 0.00382
 H2774 H 0.55432 0.52965 -0.00325
 H2775 H 0.55587 0.50174 0.02727
 H2776 H 0.57634 0.51041 0.03412
 C2777 C 0.05844 0.03867 0.11913
 C2778 C 0.05328 0.03241 0.10845
 C2779 C 0.04102 0.03546 0.10398
 C2780 C 0.03408 0.04512 0.11031
 C2781 C 0.03926 0.05141 0.12098
 C2782 C 0.05148 0.04822 0.12559
 C2783 C 0.03616 0.02881 0.09235
 C2784 C 0.02374 0.02793 0.08921
 C2785 C 0.01923 0.02204 0.07706
 C2786 C 0.00773 0.02634 0.07169
 C2787 C 0.00366 0.02182 0.05974
 C2788 C 0.01093 0.01272 0.05296
 C2789 C 0.02209 0.00790 0.05866
 C2790 C 0.02620 0.01248 0.07059
 H2791 H 0.06792 0.03597 0.12224
 H2792 H 0.05887 0.02508 0.10369
 H2793 H 0.02476 0.04807 0.10696
 H2794 H 0.03361 0.05875 0.12559
 H2795 H 0.04327 0.02461 0.08609
 H2796 H 0.01658 0.03218 0.09537
 H2797 H 0.00210 0.03358 0.07655
 H2798 H -0.00502 0.02572 0.05567
 H2799 H 0.02790 0.00085 0.05375
 H2800 H 0.03486 0.00855 0.07464
 C2801 C 0.05812 0.54055 0.61985
 C2802 C 0.05304 0.53456 0.60900
 C2803 C 0.04113 0.53821 0.60409
 C2804 C 0.03442 0.54818 0.61024
 C2805 C 0.03954 0.55420 0.62112
 C2806 C 0.05146 0.55046 0.62607
 C2807 C 0.03644 0.53170 0.59230
 C2808 C 0.02422 0.53171 0.58838
 C2809 C 0.01994 0.52554 0.57626
 C2810 C 0.00907 0.53036 0.57007
 C2811 C 0.00515 0.52537 0.55825
 C2812 C 0.01192 0.51529 0.55241
 C2813 C 0.02244 0.51004 0.55892
 C2814 C 0.02640 0.51508 0.57072
 H2815 H 0.06736 0.53740 0.62322
 H2816 H 0.05848 0.52701 0.60441
 H2817 H 0.02538 0.55158 0.60659
 H2818 H 0.03412 0.56180 0.62561
 H2819 H 0.04352 0.52670 0.58662
 H2820 H 0.01708 0.53681 0.59386
 H2821 H 0.00381 0.53828 0.57422
 H2822 H -0.00306 0.52961 0.55358
 H2823 H 0.02782 0.50221 0.55476
 H2824 H 0.03452 0.51076 0.57543
 C2825 C 0.53910 0.06130 0.62086
 C2826 C 0.53315 0.05674 0.60975
 C2827 C 0.53690 0.04512 0.60420
 C2828 C 0.54703 0.03829 0.60977
 C2829 C 0.55306 0.04287 0.62084
 C2830 C 0.54915 0.05442 0.62666
 C2831 C 0.53043 0.04072 0.59232
 C2832 C 0.52947 0.02834 0.58900
 C2833 C 0.52380 0.02381 0.57675
 C2834 C 0.52741 0.01174 0.57211
 C2835 C 0.52302 0.00733 0.56026
 C2836 C 0.51478 0.01486 0.55277
 C2837 C 0.51067 0.02672 0.55767
 C2838 C 0.51511 0.03115 0.56955
 H2839 H 0.53575 0.07028 0.62478
 H2840 H 0.52548 0.06227 0.60553
 H2841 H 0.55053 0.02953 0.60549
 H2842 H 0.56080 0.03725 0.62474
 H2843 H 0.52636 0.04803 0.58624
 H2844 H 0.53348 0.02112 0.59525
 H2845 H 0.53396 0.00582 0.57753
 H2846 H 0.52632 -0.00189 0.55685
 H2847 H 0.50426 0.03273 0.55220
 H2848 H 0.51169 0.04030 0.57299
 C2849 C 0.54058 0.55985 0.11857
 C2850 C 0.53449 0.55484 0.10775
 C2851 C 0.53760 0.54263 0.10313
 C2852 C 0.54716 0.53557 0.10945
 C2853 C 0.55326 0.54059 0.12029
 C2854 C 0.55004 0.55278 0.12500
 C2855 C 0.53108 0.53793 0.09142
 C2856 C 0.53016 0.52552 0.08822
 C2857 C 0.52439 0.52110 0.07603
 C2858 C 0.52887 0.50972 0.07052
 C2859 C 0.52438 0.50566 0.05857
 C2860 C 0.51514 0.51284 0.05195
 C2861 C 0.51016 0.52391 0.05778
 C2862 C 0.51473 0.52800 0.06971
 H2863 H 0.53789 0.56932 0.12177
 H2864 H 0.52729 0.56054 0.10298
 H2865 H 0.55017 0.52630 0.10596
 H2866 H 0.56050 0.53486 0.12494
 H2867 H 0.52695 0.54510 0.08519
 H2868 H 0.53433 0.51830 0.09434
 H2869 H 0.53618 0.50415 0.07528
 H2870 H 0.52834 0.49703 0.05442
 H2871 H 0.50295 0.52959 0.05301
 H2872 H 0.51068 0.53656 0.07391
 C2873 C 0.20823 0.55738 0.63087
 C2874 C 0.21369 0.55211 0.64185
 C2875 C 0.20870 0.54091 0.64730
 C2876 C 0.19793 0.53513 0.64158
 C2877 C 0.19241 0.54044 0.63057
 C2878 C 0.19750 0.55165 0.62507
 C2879 C 0.21484 0.53597 0.65911
 C2880 C 0.21359 0.52395 0.66345
 C2881 C 0.21990 0.51951 0.67536
 C2882 C 0.21411 0.50975 0.68255
 C2883 C 0.21946 0.50576 0.69416
 C2884 C 0.23084 0.51136 0.69874
 C2885 C 0.23691 0.52077 0.69126
 C2886 C 0.23153 0.52477 0.67968
 H2887 H 0.21249 0.56599 0.62703
 H2888 H 0.22192 0.55682 0.64608
 H2889 H 0.19354 0.52669 0.64567
 H2890 H 0.18412 0.53578 0.62647
 H2891 H 0.22078 0.54267 0.66439
 H2892 H 0.20752 0.51719 0.65845
 H2893 H 0.20523 0.50544 0.67935
 H2894 H 0.21454 0.49847 0.69965
 H2895 H 0.24574 0.52520 0.69442
 H2896 H 0.23656 0.53194 0.67415
 C2897 C 0.18948 0.03736 0.12934
 C2898 C 0.19448 0.03116 0.14009
 C2899 C 0.20603 0.03524 0.14560
 C2900 C 0.21241 0.04583 0.14023
 C2901 C 0.20740 0.05204 0.12949
 C2902 C 0.19586 0.04791 0.12390
 C2903 C 0.21069 0.02868 0.15730
 C2904 C 0.22296 0.02880 0.16107
 C2905 C 0.22742 0.02313 0.17331
 C2906 C 0.23869 0.02792 0.17884
 C2907 C 0.24286 0.02350 0.19076
 C2908 C 0.23588 0.01407 0.19740
 C2909 C 0.22491 0.00883 0.19157
 C2910 C 0.22074 0.01327 0.17964
 H2911 H 0.18056 0.03388 0.12542
 H2912 H 0.18930 0.02311 0.14412
 H2913 H 0.22110 0.04959 0.14442
 H2914 H 0.21260 0.06014 0.12567
 H2915 H 0.20360 0.02371 0.16299
 H2916 H 0.23002 0.03376 0.15534
 H2917 H 0.24411 0.03539 0.17409
 H2918 H 0.25139 0.02771 0.19491
 H2919 H 0.21938 0.00146 0.19633
 H2920 H 0.21230 0.00895 0.17549
 C2921 C 0.68947 0.20916 0.61831
 C2922 C 0.69421 0.21514 0.60733
 C2923 C 0.70633 0.21204 0.60254
 C2924 C 0.71354 0.20256 0.60880
 C2925 C 0.70877 0.19653 0.61978
 C2926 C 0.69671 0.19980 0.62470
 C2927 C 0.71083 0.21857 0.59077
 C2928 C 0.72320 0.21992 0.58772
 C2929 C 0.72759 0.22596 0.57565
 C2930 C 0.73938 0.22219 0.57054
 C2931 C 0.74360 0.22706 0.55883
 C2932 C 0.73618 0.23596 0.55202
 C2933 C 0.72461 0.24018 0.55740
 C2934 C 0.72036 0.23526 0.56913
 H2935 H 0.68007 0.21184 0.62166
 H2936 H 0.68840 0.22229 0.60260
 H2937 H 0.72275 0.19957 0.60516
 H2938 H 0.71459 0.18935 0.62442
 H2939 H 0.70357 0.22244 0.58449
 H2940 H 0.73047 0.21603 0.59396
 H2941 H 0.74520 0.21517 0.57545
 H2942 H 0.75260 0.22364 0.55500
 H2943 H 0.71869 0.24707 0.55244
 H2944 H 0.71144 0.23876 0.57301
 C2945 C 0.68961 0.70956 0.12002
 C2946 C 0.69432 0.71529 0.10887
 C2947 C 0.70568 0.71101 0.10318
 C2948 C 0.71217 0.70065 0.10882
 C2949 C 0.70744 0.69488 0.11998
 C2950 C 0.69609 0.69926 0.12574
 C2951 C 0.71006 0.71733 0.09119
 C2952 C 0.72211 0.71686 0.08676
 C2953 C 0.72623 0.72303 0.07460
 C2954 C 0.73693 0.71812 0.06817
 C2955 C 0.74092 0.72333 0.05649
 C2956 C 0.73437 0.73373 0.05102
 C2957 C 0.72388 0.73892 0.05766
 C2958 C 0.71988 0.73368 0.06934
 H2959 H 0.68082 0.71323 0.12403
 H2960 H 0.68906 0.72318 0.10469
 H2961 H 0.72076 0.69676 0.10457
 H2962 H 0.71270 0.68696 0.12403
 H2963 H 0.70295 0.72265 0.08590
 H2964 H 0.72925 0.71148 0.09193
 H2965 H 0.74209 0.71003 0.07207
 H2966 H 0.74906 0.71909 0.05169
 H2967 H 0.71866 0.74697 0.05378
 H2968 H 0.71191 0.73809 0.07423
 C2969 C 0.55932 0.71203 0.13018
 C2970 C 0.55449 0.71828 0.14103
 C2971 C 0.54285 0.71447 0.14653
 C2972 C 0.53621 0.70406 0.14105
 C2973 C 0.54104 0.69780 0.13022
 C2974 C 0.55265 0.70169 0.12462
 C2975 C 0.53833 0.72112 0.15829
 C2976 C 0.52607 0.72120 0.16212
 C2977 C 0.52168 0.72698 0.17438
 C2978 C 0.51036 0.72234 0.17991
 C2979 C 0.50621 0.72687 0.19182
 C2980 C 0.51324 0.73629 0.19844
 C2981 C 0.52427 0.74139 0.19264
 C2982 C 0.52845 0.73680 0.18073
 H2983 H 0.56833 0.71529 0.12628
 H2984 H 0.55988 0.72616 0.14513
 H2985 H 0.52745 0.70048 0.14523
 H2986 H 0.53563 0.68986 0.12631
 H2987 H 0.54550 0.72600 0.16398
 H2988 H 0.51891 0.71635 0.15639
 H2989 H 0.50487 0.71489 0.17517
 H2990 H 0.49762 0.72278 0.19594
 H2991 H 0.52988 0.74869 0.19744
 H2992 H 0.53697 0.74097 0.17659
 C2993 C 0.04096 0.69244 0.63000
 C2994 C 0.03494 0.69783 0.64065
 C2995 C 0.03804 0.71025 0.64475
 C2996 C 0.04751 0.71714 0.63805
 C2997 C 0.05357 0.71172 0.62738
 C2998 C 0.05033 0.69932 0.62319
 C2999 C 0.03154 0.71531 0.65632
 C3000 C 0.03067 0.72779 0.65921
 C3001 C 0.02472 0.73243 0.67123
 C3002 C 0.02928 0.74382 0.67675
 C3003 C 0.02464 0.74799 0.68860
 C3004 C 0.01520 0.74092 0.69513
 C3005 C 0.01012 0.72990 0.68924
 C3006 C 0.01481 0.72570 0.67741
 H3007 H 0.03830 0.68281 0.62724
 H3008 H 0.02779 0.69226 0.64572
 H3009 H 0.05049 0.72659 0.64112
 H3010 H 0.06076 0.71729 0.62240
 H3011 H 0.02734 0.70831 0.66272
 H3012 H 0.03496 0.73488 0.65299
 H3013 H 0.03679 0.74925 0.67209
 H3014 H 0.02871 0.75657 0.69280
 H3015 H 0.00276 0.72428 0.69394
 H3016 H 0.01071 0.71714 0.67321
 C3017 C 0.54139 0.63060 0.19132
 C3018 C 0.53544 0.64142 0.19640
 C3019 C 0.53881 0.64609 0.20854
 C3020 C 0.54847 0.63979 0.21548
 C3021 C 0.55446 0.62893 0.21039
 C3022 C 0.55097 0.62418 0.19825
 C3023 C 0.53235 0.65782 0.21323
 C3024 C 0.53179 0.66132 0.22560
 C3025 C 0.52575 0.67341 0.22988
 C3026 C 0.53032 0.67933 0.24105
 C3027 C 0.52547 0.69113 0.24500
 C3028 C 0.51579 0.69723 0.23793
 C3029 C 0.51079 0.69102 0.22705
 C3030 C 0.51569 0.67921 0.22308
 H3031 H 0.53848 0.62742 0.18190
 H3032 H 0.52814 0.64615 0.19079
 H3033 H 0.55165 0.64330 0.22471
 H3034 H 0.56181 0.62429 0.21598
 H3035 H 0.52788 0.66379 0.20605
 H3036 H 0.53635 0.65551 0.23285
 H3037 H 0.53795 0.67498 0.24655
 H3038 H 0.52950 0.69559 0.25348
 H3039 H 0.50327 0.69539 0.22144
 H3040 H 0.51157 0.67470 0.21469
 C3041 C 0.05947 0.63208 0.70888
 C3042 C 0.05458 0.64318 0.71452
 C3043 C 0.04276 0.64818 0.71066
 C3044 C 0.03595 0.64183 0.70085
 C3045 C 0.04087 0.63069 0.69518
 C3046 C 0.05270 0.62567 0.69912
 C3047 C 0.03827 0.66022 0.71682
 C3048 C 0.02615 0.66442 0.71656
 C3049 C 0.02206 0.67671 0.72251
 C3050 C 0.01120 0.68289 0.71765
 C3051 C 0.00738 0.69477 0.72254
 C3052 C 0.01426 0.70070 0.73252
 C3053 C 0.02482 0.69425 0.73776
 C3054 C 0.02866 0.68238 0.73285
 H3055 H 0.06864 0.62866 0.71217
 H3056 H 0.06009 0.64789 0.72197
 H3057 H 0.02697 0.64548 0.69732
 H3058 H 0.03537 0.62607 0.68770
 H3059 H 0.04544 0.66584 0.72179
 H3060 H 0.01893 0.65899 0.71148
 H3061 H 0.00583 0.67867 0.70983
 H3062 H -0.00084 0.69940 0.71830
 H3063 H 0.03027 0.69845 0.74555
 H3064 H 0.03675 0.67770 0.73725
 C3065 C 0.05924 0.12031 0.03990
 C3066 C 0.05403 0.10939 0.03414
 C3067 C 0.04233 0.10431 0.03833
 C3068 C 0.03600 0.11035 0.04861
 C3069 C 0.04123 0.12129 0.05440
 C3070 C 0.05293 0.12643 0.05013
 C3071 C 0.03743 0.09252 0.03199
 C3072 C 0.02521 0.08854 0.03251
 C3073 C 0.02065 0.07650 0.02637
 C3074 C 0.00978 0.07040 0.03139
 C3075 C 0.00553 0.05873 0.02632
 C3076 C 0.01199 0.05294 0.01599
 C3077 C 0.02254 0.05935 0.01060
 C3078 C 0.02681 0.07100 0.01569
 H3079 H 0.06828 0.12386 0.03632
 H3080 H 0.05918 0.10490 0.02631
 H3081 H 0.02715 0.10658 0.05243
 H3082 H 0.03606 0.12564 0.06226
 H3083 H 0.04433 0.08693 0.02665
 H3084 H 0.01828 0.09397 0.03793
 H3085 H 0.00476 0.07451 0.03949
 H3086 H -0.00266 0.05411 0.03070
 H3087 H 0.02767 0.05527 0.00255
 H3088 H 0.03490 0.07564 0.01119
 C3089 C 0.03905 0.62033 0.55729
 C3090 C 0.03314 0.60954 0.55202
 C3091 C 0.03758 0.60419 0.54050
 C3092 C 0.04821 0.60981 0.53441
 C3093 C 0.05412 0.62062 0.53969
 C3094 C 0.04962 0.62602 0.55120
 C3095 C 0.03119 0.59250 0.53558
 C3096 C 0.03198 0.58845 0.52339
 C3097 C 0.02611 0.57631 0.51898
 C3098 C 0.03193 0.56956 0.50893
 C3099 C 0.02719 0.55763 0.50509
 C3100 C 0.01642 0.55228 0.51116
 C3101 C 0.01021 0.55938 0.52080
 C3102 C 0.01499 0.57127 0.52466
 H3103 H 0.03530 0.62410 0.56618
 H3104 H 0.02504 0.60534 0.55696
 H3105 H 0.05222 0.60578 0.52574
 H3106 H 0.06225 0.62466 0.53471
 H3107 H 0.02568 0.58700 0.54243
 H3108 H 0.03757 0.59376 0.51647
 H3109 H 0.04041 0.57333 0.50430
 H3110 H 0.03216 0.55248 0.49757
 H3111 H 0.00179 0.55564 0.52556
 H3112 H 0.00995 0.57645 0.53210
 C3113 C 0.53993 0.12006 0.55767
 C3114 C 0.53431 0.10917 0.55225
 C3115 C 0.53921 0.10378 0.54095
 C3116 C 0.55004 0.10942 0.53525
 C3117 C 0.55567 0.12032 0.54067
 C3118 C 0.55068 0.12580 0.55195
 C3119 C 0.53305 0.09204 0.53582
 C3120 C 0.53438 0.08785 0.52372
 C3121 C 0.52856 0.07574 0.51913
 C3122 C 0.53470 0.06883 0.50937
 C3123 C 0.52998 0.05691 0.50544
 C3124 C 0.51891 0.05174 0.51111
 C3125 C 0.51239 0.05901 0.52039
 C3126 C 0.51713 0.07089 0.52434
 H3127 H 0.53580 0.12388 0.56637
 H3128 H 0.52606 0.10495 0.55692
 H3129 H 0.55441 0.10536 0.52678
 H3130 H 0.56398 0.12436 0.53600
 H3131 H 0.52719 0.08662 0.54245
 H3132 H 0.54034 0.09304 0.51702
 H3133 H 0.54341 0.07246 0.50507
 H3134 H 0.53520 0.05162 0.49820
 H3135 H 0.50373 0.05543 0.52484
 H3136 H 0.51182 0.07621 0.53149
 C3137 C 0.53669 0.61972 0.06001
 C3138 C 0.53063 0.60894 0.05480
 C3139 C 0.53473 0.60368 0.04311
 C3140 C 0.54521 0.60934 0.03681
 C3141 C 0.55128 0.62010 0.04202
 C3142 C 0.54712 0.62545 0.05369
 C3143 C 0.52828 0.59197 0.03820
 C3144 C 0.52861 0.58823 0.02586
 C3145 C 0.52293 0.57604 0.02119
 C3146 C 0.52795 0.57044 0.01003
 C3147 C 0.52348 0.55857 0.00569
 C3148 C 0.51375 0.55206 0.01237
 C3149 C 0.50830 0.55796 0.02321
 C3150 C 0.51280 0.56982 0.02756
 H3151 H 0.53323 0.62344 0.06905
 H3152 H 0.52267 0.60470 0.05994
 H3153 H 0.54901 0.60536 0.02802
 H3154 H 0.55928 0.62415 0.03684
 H3155 H 0.52319 0.58621 0.04516
 H3156 H 0.53370 0.59396 0.01890
 H3157 H 0.53565 0.57509 0.00485
 H3158 H 0.52788 0.55435 -0.00271
 H3159 H 0.50073 0.55328 0.02855
 H3160 H 0.50833 0.57403 0.03591
 C3161 C 0.71094 0.13131 0.56249
 C3162 C 0.71670 0.14252 0.55798
 C3163 C 0.71292 0.14791 0.54629
 C3164 C 0.70290 0.14209 0.53936
 C3165 C 0.69708 0.13091 0.54391
 C3166 C 0.70112 0.12532 0.55546
 C3167 C 0.71936 0.15976 0.54184
 C3168 C 0.72027 0.16299 0.52943
 C3169 C 0.72624 0.17505 0.52487
 C3170 C 0.72248 0.17987 0.51292
 C3171 C 0.72736 0.19146 0.50841
 C3172 C 0.73629 0.19847 0.51570
 C3173 C 0.74046 0.19341 0.52747
 C3174 C 0.73551 0.18181 0.53201
 H3175 H 0.71417 0.12741 0.57153
 H3176 H 0.72425 0.14693 0.56360
 H3177 H 0.69938 0.14622 0.53054
 H3178 H 0.68952 0.12661 0.53827
 H3179 H 0.72355 0.16587 0.54911
 H3180 H 0.71610 0.15680 0.52221
 H3181 H 0.71548 0.17479 0.50716
 H3182 H 0.72397 0.19503 0.49929
 H3183 H 0.74735 0.19855 0.53330
 H3184 H 0.73900 0.17820 0.54106
 C3185 C 0.70835 0.63177 0.05797
 C3186 C 0.71388 0.64284 0.05294
 C3187 C 0.70985 0.64775 0.04113
 C3188 C 0.69991 0.64144 0.03450
 C3189 C 0.69432 0.63034 0.03957
 C3190 C 0.69851 0.62534 0.05135
 C3191 C 0.71600 0.65967 0.03644
 C3192 C 0.71606 0.66338 0.02414
 C3193 C 0.72212 0.67549 0.01986
 C3194 C 0.71716 0.68171 0.00906
 C3195 C 0.72215 0.69348 0.00511
 C3196 C 0.73236 0.69923 0.01180
 C3197 C 0.73770 0.69272 0.02230
 C3198 C 0.73266 0.68096 0.02627
 H3199 H 0.71179 0.62840 0.06712
 H3200 H 0.72142 0.64756 0.05831
 H3201 H 0.69624 0.64513 0.02555
 H3202 H 0.68674 0.62569 0.03423
 H3203 H 0.72078 0.66555 0.04355
 H3204 H 0.71118 0.65769 0.01696
 H3205 H 0.70915 0.67762 0.00387
 H3206 H 0.71782 0.69818 -0.00305
 H3207 H 0.74563 0.69681 0.02760
 H3208 H 0.73708 0.67620 0.03433
 C3209 C 0.19257 0.62001 0.70950
 C3210 C 0.19754 0.60906 0.71528
 C3211 C 0.20845 0.60307 0.71031
 C3212 C 0.21424 0.60821 0.69926
 C3213 C 0.20925 0.61918 0.69345
 C3214 C 0.19834 0.62523 0.69848
 C3215 C 0.21312 0.59130 0.71671
 C3216 C 0.22506 0.58679 0.71552
 C3217 C 0.22937 0.57477 0.72169
 C3218 C 0.23937 0.56787 0.71601
 C3219 C 0.24334 0.55620 0.72117
 C3220 C 0.23749 0.55125 0.73226
 C3221 C 0.22779 0.55842 0.73823
 C3222 C 0.22380 0.57007 0.73304
 H3223 H 0.18417 0.62429 0.71372
 H3224 H 0.19282 0.60526 0.72371
 H3225 H 0.22243 0.60368 0.69486
 H3226 H 0.21394 0.62281 0.68496
 H3227 H 0.20631 0.58623 0.72267
 H3228 H 0.23189 0.59172 0.70948
 H3229 H 0.24393 0.57137 0.70736
 H3230 H 0.25087 0.55097 0.71633
 H3231 H 0.22314 0.55496 0.74684
 H3232 H 0.21642 0.57535 0.73800
 C3233 C 0.19264 0.11921 0.20911
 C3234 C 0.19801 0.10853 0.21501
 C3235 C 0.21024 0.10426 0.21158
 C3236 C 0.21693 0.11082 0.20185
 C3237 C 0.21151 0.12153 0.19589
 C3238 C 0.19931 0.12591 0.19951
 C3239 C 0.21526 0.09273 0.21814
 C3240 C 0.22760 0.08925 0.21831
 C3241 C 0.23202 0.07739 0.22471
 C3242 C 0.24268 0.07096 0.21974
 C3243 C 0.24651 0.05923 0.22489
 C3244 C 0.23984 0.05375 0.23526
 C3245 C 0.22960 0.06057 0.24069
 C3246 C 0.22574 0.07227 0.23550
 H3247 H 0.18317 0.12208 0.21207
 H3248 H 0.19257 0.10361 0.22235
 H3249 H 0.22622 0.10765 0.19863
 H3250 H 0.21692 0.12639 0.18850
 H3251 H 0.20832 0.08683 0.22311
 H3252 H 0.23467 0.09483 0.21319
 H3253 H 0.24778 0.07479 0.21155
 H3254 H 0.25448 0.05429 0.22049
 H3255 H 0.22431 0.05672 0.24875
 H3256 H 0.21780 0.07722 0.23992
 C3257 C 0.71066 1.11923 0.68948
 C3258 C 0.71659 1.10830 0.69435
 C3259 C 0.71317 1.10339 0.70639
 C3260 C 0.70350 1.10961 0.71342
 C3261 C 0.69754 1.12055 0.70854
 C3262 C 0.70103 1.12551 0.69649
 C3263 C 0.71950 1.09150 0.71092
 C3264 C 0.72002 1.08795 0.72329
 C3265 C 0.72565 1.07568 0.72772
 C3266 C 0.72156 1.07065 0.73950
 C3267 C 0.72602 1.05882 0.74380
 C3268 C 0.73484 1.05175 0.73648
 C3269 C 0.73936 1.05702 0.72492
 C3270 C 0.73485 1.06886 0.72059
 H3271 H 0.71360 1.12264 0.68015
 H3272 H 0.72392 1.10365 0.68867
 H3273 H 0.70025 1.10595 0.72256
 H3274 H 0.69018 1.12507 0.71424
 H3275 H 0.72380 1.08548 0.70366
 H3276 H 0.71573 1.09398 0.73055
 H3277 H 0.71462 1.07576 0.74527
 H3278 H 0.72237 1.05512 0.75279
 H3279 H 0.74622 1.05190 0.71908
 H3280 H 0.73862 1.07259 0.71169
 C3281 C 0.69139 0.61892 0.20951
 C3282 C 0.69656 0.60813 0.21539
 C3283 C 0.70877 0.60374 0.21207
 C3284 C 0.71566 0.61030 0.20249
 C3285 C 0.71046 0.62113 0.19656
 C3286 C 0.69827 0.62561 0.20004
 C3287 C 0.71358 0.59203 0.21849
 C3288 C 0.72593 0.58866 0.21903
 C3289 C 0.73029 0.57663 0.22517
 C3290 C 0.74147 0.57080 0.22062
 C3291 C 0.74545 0.55904 0.22554
 C3292 C 0.73841 0.55288 0.23525
 C3293 C 0.72756 0.55905 0.24027
 C3294 C 0.72356 0.57081 0.23531
 H3295 H 0.68191 0.62190 0.21237
 H3296 H 0.69097 0.60320 0.22262
 H3297 H 0.72496 0.60704 0.19936
 H3298 H 0.71602 0.62599 0.18929
 H3299 H 0.70648 0.58596 0.22300
 H3300 H 0.73311 0.59452 0.21441
 H3301 H 0.74693 0.57517 0.21294
 H3302 H 0.75390 0.55462 0.22148
 H3303 H 0.72196 0.55464 0.24782
 H3304 H 0.71517 0.57525 0.23942
 C3305 C 0.55998 0.12947 0.71182
 C3306 C 0.55491 0.14031 0.71781
 C3307 C 0.54339 0.14566 0.71360
 C3308 C 0.53711 0.14006 0.70305
 C3309 C 0.54216 0.12922 0.69704
 C3310 C 0.55368 0.12369 0.70133
 C3311 C 0.53859 0.15733 0.72011
 C3312 C 0.52637 0.16120 0.71971
 C3313 C 0.52194 0.17328 0.72571
 C3314 C 0.51135 0.17955 0.72042
 C3315 C 0.50733 0.19135 0.72531
 C3316 C 0.51376 0.19705 0.73571
 C3317 C 0.52400 0.19047 0.74138
 C3318 C 0.52804 0.17870 0.73647
 H3319 H 0.56886 0.12573 0.71552
 H3320 H 0.56002 0.14451 0.72582
 H3321 H 0.52845 0.14414 0.69917
 H3322 H 0.53697 0.12532 0.68896
 H3323 H 0.54554 0.16294 0.72540
 H3324 H 0.51938 0.15571 0.71437
 H3325 H 0.50639 0.17549 0.71224
 H3326 H 0.49937 0.19611 0.72073
 H3327 H 0.52911 0.19452 0.74948
 H3328 H 0.53593 0.17391 0.74112
 C3329 C 1.03799 0.12873 0.19121
 C3330 C 1.03217 0.13965 0.19630
 C3331 C 1.03651 0.14508 0.20784
 C3332 C 1.04703 0.13946 0.21407
 C3333 C 1.05288 0.12855 0.20895
 C3334 C 1.04841 0.12301 0.19748
 C3335 C 1.03012 0.15683 0.21268
 C3336 C 1.03069 0.16087 0.22491
 C3337 C 1.02470 0.17292 0.22949
 C3338 C 1.02986 0.17904 0.24032
 C3339 C 1.02497 0.19075 0.24458
 C3340 C 1.01466 0.19656 0.23820
 C3341 C 1.00911 0.19013 0.22770
 C3342 C 1.01405 0.17845 0.22339
 H3343 H 1.03435 0.12489 0.18228
 H3344 H 1.02420 0.14385 0.19121
 H3345 H 1.05098 0.14353 0.22275
 H3346 H 1.06089 0.12447 0.21405
 H3347 H 1.02474 0.16233 0.20575
 H3348 H 1.03612 0.15546 0.23186
 H3349 H 1.03795 0.17492 0.24529
 H3350 H 1.02945 0.19537 0.25274
 H3351 H 1.00112 0.19428 0.22259
 H3352 H 1.00948 0.17381 0.21531
 C3353 C 0.20882 0.63215 0.56055
 C3354 C 0.21453 0.64325 0.55572
 C3355 C 0.21029 0.64868 0.54422
 C3356 C 0.19999 0.64289 0.53770
 C3357 C 0.19425 0.63178 0.54254
 C3358 C 0.19860 0.62625 0.55402
 C3359 C 0.21653 0.66062 0.53967
 C3360 C 0.21643 0.66445 0.52740
 C3361 C 0.22226 0.67663 0.52296
 C3362 C 0.21763 0.68215 0.51164
 C3363 C 0.22251 0.69380 0.50726
 C3364 C 0.23227 0.70018 0.51404
 C3365 C 0.23720 0.69446 0.52518
 C3366 C 0.23229 0.68279 0.52959
 H3367 H 0.21245 0.62832 0.56945
 H3368 H 0.22236 0.64758 0.56100
 H3369 H 0.19612 0.64700 0.52903
 H3370 H 0.18638 0.62761 0.53726
 H3371 H 0.22142 0.66635 0.54681
 H3372 H 0.21153 0.65872 0.52026
 H3373 H 0.21002 0.67755 0.50628
 H3374 H 0.21850 0.69787 0.49861
 H3375 H 0.24477 0.69907 0.53060
 H3376 H 0.23645 0.67863 0.53810
 C3377 C 0.21129 0.12943 1.05972
 C3378 C 0.21737 0.14022 1.05463
 C3379 C 0.21281 0.14599 1.04340
 C3380 C 0.20182 0.14089 1.03749
 C3381 C 0.19573 0.13012 1.04259
 C3382 C 0.20039 0.12420 1.05375
 C3383 C 0.21946 0.15755 1.03850
 C3384 C 0.21882 0.16149 1.02627
 C3385 C 0.22509 0.17333 1.02158
 C3386 C 0.21995 0.17952 1.01083
 C3387 C 0.22520 0.19101 1.00643
 C3388 C 0.23582 0.19653 1.01262
 C3389 C 0.24128 0.19006 1.02309
 C3390 C 0.23602 0.17857 1.02750
 H3391 H 0.21517 0.12527 1.06836
 H3392 H 0.22573 0.14403 1.05945
 H3393 H 0.19769 0.14531 1.02909
 H3394 H 0.18732 0.12652 1.03774
 H3395 H 0.22509 0.16295 1.04535
 H3396 H 0.21316 0.15614 1.01941
 H3397 H 0.21163 0.17561 1.00601
 H3398 H 0.22075 0.19571 0.99833
 H3399 H 0.24952 0.19398 1.02804
 H3400 H 0.24057 0.17385 1.03550
 C3401 C 0.21008 0.69143 0.61783
 C3402 C 0.21567 0.69660 0.60682
 C3403 C 0.21124 0.70815 0.60163
 C3404 C 0.20089 0.71434 0.60763
 C3405 C 0.19528 0.70915 0.61866
 C3406 C 0.19981 0.69763 0.62393
 C3407 C 0.21738 0.71303 0.58974
 C3408 C 0.21673 0.72524 0.58576
 C3409 C 0.22272 0.72981 0.57368
 C3410 C 0.21754 0.74056 0.56754
 C3411 C 0.22256 0.74487 0.55588
 C3412 C 0.23299 0.73858 0.55014
 C3413 C 0.23847 0.72810 0.55654
 C3414 C 0.23344 0.72379 0.56819
 H3415 H 0.21384 0.68251 0.62146
 H3416 H 0.22353 0.69155 0.60233
 H3417 H 0.19688 0.72304 0.60375
 H3418 H 0.18736 0.71420 0.62298
 H3419 H 0.22271 0.70616 0.58411
 H3420 H 0.21132 0.73216 0.59124
 H3421 H 0.20938 0.74546 0.57162
 H3422 H 0.21807 0.75296 0.55123
 H3423 H 0.24655 0.72307 0.55246
 H3424 H 0.23804 0.71580 0.57285
 C3425 C 0.19034 0.20862 1.11904
 C3426 C 0.19519 0.21418 1.10788
 C3427 C 0.20667 0.20987 1.10248
 C3428 C 0.21312 0.19964 1.10839
 C3429 C 0.20824 0.19404 1.11956
 C3430 C 0.19678 0.19846 1.12505
 C3431 C 0.21124 0.21602 1.09049
 C3432 C 0.22347 0.21584 1.08660
 C3433 C 0.22790 0.22171 1.07443
 C3434 C 0.23902 0.21690 1.06868
 C3435 C 0.24338 0.22182 1.05702
 C3436 C 0.23681 0.23183 1.05090
 C3437 C 0.22588 0.23694 1.05685
 C3438 C 0.22148 0.23196 1.06850
 H3439 H 0.18148 0.21233 1.12285
 H3440 H 0.18996 0.22196 1.10347
 H3441 H 0.22178 0.19573 1.10432
 H3442 H 0.21348 0.18621 1.12383
 H3443 H 0.20417 0.22094 1.08477
 H3444 H 0.23056 0.21090 1.09227
 H3445 H 0.24422 0.20912 1.07310
 H3446 H 0.25185 0.21766 1.05275
 H3447 H 0.22062 0.24468 1.05244
 H3448 H 0.21312 0.23624 1.07284
 C3449 C 0.71051 0.55987 0.13047
 C3450 C 0.71661 0.55482 0.14122
 C3451 C 0.71343 0.54260 0.14577
 C3452 C 0.70378 0.53559 0.13945
 C3453 C 0.69765 0.54066 0.12868
 C3454 C 0.70097 0.55285 0.12403
 C3455 C 0.72000 0.53786 0.15740
 C3456 C 0.72086 0.52544 0.16053
 C3457 C 0.72683 0.52104 0.17260
 C3458 C 0.72236 0.50968 0.17820
 C3459 C 0.72701 0.50571 0.19009
 C3460 C 0.73637 0.51294 0.19658
 C3461 C 0.74136 0.52395 0.19063
 C3462 C 0.73666 0.52795 0.17875
 H3463 H 0.71327 0.56935 0.12733
 H3464 H 0.72389 0.56049 0.14600
 H3465 H 0.70071 0.52631 0.14289
 H3466 H 0.69034 0.53497 0.12401
 H3467 H 0.72427 0.54501 0.16361
 H3468 H 0.71653 0.51823 0.15445
 H3469 H 0.71494 0.50409 0.17356
 H3470 H 0.72303 0.49712 0.19433
 H3471 H 0.74866 0.52967 0.19529
 H3472 H 0.74071 0.53647 0.17447
 C3473 C 0.71059 1.05630 0.63025
 C3474 C 0.71595 1.05116 0.64135
 C3475 C 0.71062 1.04028 0.64714
 C3476 C 0.69959 1.03474 0.64168
 C3477 C 0.69417 1.03993 0.63058
 C3478 C 0.69964 1.05076 0.62472
 C3479 C 0.71664 1.03541 0.65903
 C3480 C 0.71534 1.02338 0.66335
 C3481 C 0.72139 1.01888 0.67539
 C3482 C 0.71568 1.00877 0.68215
 C3483 C 0.72067 1.00477 0.69392
 C3484 C 0.73159 1.01073 0.69912
 C3485 C 0.73766 1.02045 0.69203
 C3486 C 0.73266 1.02444 0.68027
 H3487 H 0.71498 1.06474 0.62614
 H3488 H 0.72435 1.05571 0.64543
 H3489 H 0.69496 1.02657 0.64605
 H3490 H 0.68575 1.03542 0.62657
 H3491 H 0.72251 1.04213 0.66433
 H3492 H 0.70935 1.01664 0.65822
 H3493 H 0.70712 1.00419 0.67849
 H3494 H 0.71578 0.99721 0.69907
 H3495 H 0.74616 1.02516 0.69565
 H3496 H 0.73769 1.03186 0.67508
 C3497 C 0.54163 0.19222 0.63147
 C3498 C 0.53584 0.19736 0.64236
 C3499 C 0.53931 0.20952 0.64695
 C3500 C 0.54893 0.21639 0.64042
 C3501 C 0.55478 0.21120 0.62949
 C3502 C 0.55118 0.19906 0.62486
 C3503 C 0.53296 0.21426 0.65878
 C3504 C 0.53291 0.22654 0.66263
 C3505 C 0.52681 0.23074 0.67479
 C3506 C 0.53167 0.24158 0.68110
 C3507 C 0.52677 0.24534 0.69301
 C3508 C 0.51676 0.23841 0.69881
 C3509 C 0.51144 0.22795 0.69215
 C3510 C 0.51637 0.22418 0.68026
 H3511 H 0.53866 0.18278 0.62836
 H3512 H 0.52856 0.19179 0.64724
 H3513 H 0.55217 0.22564 0.64379
 H3514 H 0.56209 0.21675 0.62467
 H3515 H 0.52812 0.20715 0.66457
 H3516 H 0.53789 0.23373 0.65710
 H3517 H 0.53955 0.24693 0.67700
 H3518 H 0.53105 0.25350 0.69780
 H3519 H 0.50364 0.22247 0.69624
 H3520 H 0.51199 0.21610 0.67544
 C3521 C 1.05697 0.20937 0.13075
 C3522 C 1.05139 0.21495 0.14155
 C3523 C 1.03955 0.21063 0.14618
 C3524 C 1.03344 0.20041 0.13978
 C3525 C 1.03905 0.19480 0.12893
 C3526 C 1.05089 0.19923 0.12426
 C3527 C 1.03432 0.21686 0.15789
 C3528 C 1.02221 0.21573 0.16202
 C3529 C 1.01764 0.22198 0.17398
 C3530 C 1.00773 0.21622 0.18099
 C3531 C 1.00379 0.22138 0.19274
 C3532 C 1.00961 0.23253 0.19767
 C3533 C 1.01907 0.23865 0.19029
 C3534 C 1.02302 0.23347 0.17858
 H3535 H 1.06611 0.21306 0.12760
 H3536 H 1.05638 0.22273 0.14632
 H3537 H 1.02447 0.19654 0.14315
 H3538 H 1.03408 0.18699 0.12425
 H3539 H 1.04095 0.22267 0.16337
 H3540 H 1.01549 0.20973 0.15691
 H3541 H 1.00330 0.20747 0.17756
 H3542 H 0.99643 0.21642 0.19812
 H3543 H 1.02366 0.24733 0.19369
 H3544 H 1.03030 0.23850 0.17320
 C3545 C 0.61944 0.20743 0.69225
 C3546 C 0.60863 0.21324 0.69744
 C3547 C 0.60454 0.21030 0.70989
 C3548 C 0.61141 0.20114 0.71700
 C3549 C 0.62226 0.19527 0.71176
 C3550 C 0.62645 0.19842 0.69935
 C3551 C 0.59287 0.21672 0.71474
 C3552 C 0.58971 0.21768 0.72717
 C3553 C 0.57774 0.22390 0.73152
 C3554 C 0.57184 0.21950 0.74274
 C3555 C 0.56011 0.22452 0.74668
 C3556 C 0.55410 0.23421 0.73953
 C3557 C 0.56034 0.23910 0.72865
 C3558 C 0.57205 0.23401 0.72468
 H3559 H 0.62218 0.20999 0.68259
 H3560 H 0.60347 0.22015 0.69170
 H3561 H 0.60838 0.19830 0.72650
 H3562 H 0.62739 0.18834 0.71748
 H3563 H 0.58663 0.22092 0.70761
 H3564 H 0.59568 0.21336 0.73443
 H3565 H 0.57611 0.21184 0.74826
 H3566 H 0.55563 0.22059 0.75517
 H3567 H 0.55604 0.24662 0.72298
 H3568 H 0.57658 0.23801 0.71625
 C3569 C 1.11982 0.19163 0.21082
 C3570 C 1.10897 0.19684 0.21659
 C3571 C 1.10358 0.20821 0.21196
 C3572 C 1.10921 0.21420 0.20127
 C3573 C 1.12008 0.20898 0.19549
 C3574 C 1.12554 0.19762 0.20019
 C3575 C 1.09182 0.21306 0.21823
 C3576 C 1.08755 0.22511 0.21718
 C3577 C 1.07545 0.22946 0.22313
 C3578 C 1.06864 0.23944 0.21734
 C3579 C 1.05683 0.24332 0.22225
 C3580 C 1.05164 0.23735 0.23318
 C3581 C 1.05875 0.22774 0.23931
 C3582 C 1.07054 0.22385 0.23437
 H3583 H 1.12361 0.18284 0.21471
 H3584 H 1.10478 0.19196 0.22473
 H3585 H 1.10517 0.22275 0.19712
 H3586 H 1.12413 0.21387 0.18730
 H3587 H 1.08646 0.20625 0.22393
 H3588 H 1.09270 0.23199 0.21139
 H3589 H 1.07229 0.24401 0.20876
 H3590 H 1.05166 0.25081 0.21732
 H3591 H 1.05513 0.22303 0.24782
 H3592 H 1.07575 0.21648 0.23941
 C3593 C 0.13050 0.69098 0.53964
 C3594 C 0.14135 0.69608 0.53374
 C3595 C 0.14651 0.70780 0.53781
 C3596 C 0.14071 0.71424 0.54815
 C3597 C 0.12984 0.70912 0.55409
 C3598 C 0.12456 0.69744 0.54988
 C3599 C 0.15816 0.71264 0.53130
 C3600 C 0.16179 0.72497 0.53130
 C3601 C 0.17366 0.72951 0.52500
 C3602 C 0.17971 0.74051 0.52982
 C3603 C 0.19124 0.74478 0.52456
 C3604 C 0.19690 0.73820 0.51423
 C3605 C 0.19057 0.72747 0.50907
 C3606 C 0.17905 0.72319 0.51436
 H3607 H 0.12688 0.68192 0.53614
 H3608 H 0.14571 0.69085 0.52589
 H3609 H 0.14463 0.72309 0.55189
 H3610 H 0.12564 0.71436 0.56199
 H3611 H 0.16389 0.70565 0.52623
 H3612 H 0.15619 0.73202 0.53644
 H3613 H 0.17569 0.74563 0.53791
 H3614 H 0.19584 0.75308 0.52878
 H3615 H 0.19461 0.72222 0.50107
 H3616 H 0.17441 0.71497 0.51005
 C3617 C 0.13221 0.21031 1.05987
 C3618 C 0.14329 0.21595 1.05493
 C3619 C 0.14860 0.21165 1.04335
 C3620 C 0.14267 0.20140 1.03687
 C3621 C 0.13158 0.19573 1.04183
 C3622 C 0.12619 0.20010 1.05340
 C3623 C 0.16056 0.21779 1.03871
 C3624 C 0.16447 0.21753 1.02644
 C3625 C 0.17665 0.22336 1.02200
 C3626 C 0.18236 0.21858 1.01080
 C3627 C 0.19408 0.22341 1.00653
 C3628 C 0.20032 0.23327 1.01332
 C3629 C 0.19438 0.23839 1.02429
 C3630 C 0.18265 0.23353 1.02856
 H3631 H 0.12847 0.21395 1.06883
 H3632 H 0.14771 0.22375 1.06018
 H3633 H 0.14665 0.19750 1.02813
 H3634 H 0.12730 0.18789 1.03655
 H3635 H 0.16628 0.22275 1.04581
 H3636 H 0.15880 0.21253 1.01933
 H3637 H 0.17787 0.21086 1.00548
 H3638 H 0.19836 0.21924 0.99804
 H3639 H 0.19885 0.24604 1.02970
 H3640 H 0.17834 0.23785 1.03694
 C3641 C 0.62965 0.53902 0.19142
 C3642 C 0.64055 0.53319 0.19642
 C3643 C 0.64602 0.53753 0.20792
 C3644 C 0.64038 0.54801 0.21427
 C3645 C 0.62946 0.55387 0.20925
 C3646 C 0.62395 0.54947 0.19774
 C3647 C 0.65785 0.53120 0.21252
 C3648 C 0.66208 0.53176 0.22467
 C3649 C 0.67423 0.52578 0.22890
 C3650 C 0.68057 0.53094 0.23958
 C3651 C 0.69236 0.52606 0.24350
 C3652 C 0.69805 0.51579 0.23689
 C3653 C 0.69143 0.51025 0.22651
 C3654 C 0.67963 0.51515 0.22258
 H3655 H 0.62582 0.53532 0.18252
 H3656 H 0.64474 0.52521 0.19127
 H3657 H 0.64448 0.55193 0.22296
 H3658 H 0.62542 0.56190 0.21439
 H3659 H 0.66326 0.52587 0.20546
 H3660 H 0.65681 0.53716 0.23176
 H3661 H 0.67655 0.53901 0.24472
 H3662 H 0.69714 0.53054 0.25157
 H3663 H 0.69545 0.50225 0.22127
 H3664 H 0.67481 0.51055 0.21463
 C3665 C 0.62820 1.03689 0.69217
 C3666 C 0.63886 1.03080 0.69743
 C3667 C 0.64466 1.03552 0.70862
 C3668 C 0.63972 1.04669 0.71431
 C3669 C 0.62908 1.05280 0.70905
 C3670 C 0.62313 1.04796 0.69794
 C3671 C 0.65613 1.02889 0.71368
 C3672 C 0.66008 1.02979 0.72591
 C3673 C 0.67198 1.02377 0.73071
 C3674 C 0.67811 1.02922 0.74139
 C3675 C 0.68975 1.02436 0.74578
 C3676 C 0.69548 1.01382 0.73964
 C3677 C 0.68903 1.00799 0.72931
 C3678 C 0.67740 1.01288 0.72491
 H3679 H 0.62402 1.03293 0.68354
 H3680 H 0.64258 1.02231 0.69275
 H3681 H 0.64416 1.05095 0.72267
 H3682 H 0.62556 1.06132 0.71377
 H3683 H 0.66149 1.02312 0.70694
 H3684 H 0.65474 1.03556 0.73266
 H3685 H 0.67407 1.03752 0.74612
 H3686 H 0.69441 1.02908 0.75377
 H3687 H 0.69311 0.99983 0.72438
 H3688 H 0.67275 1.00810 0.71696
 C3689 C 0.87007 0.46152 0.31020
 C3690 C 0.85918 0.46748 0.30523
 C3691 C 0.85269 0.46224 0.29466
 C3692 C 0.85716 0.45070 0.28934
 C3693 C 0.86802 0.44474 0.29431
 C3694 C 0.87465 0.45007 0.30479
 C3695 C 0.84107 0.46877 0.28980
 C3696 C 0.83663 0.46731 0.27779
 C3697 C 0.82468 0.47328 0.27301
 C3698 C 0.81859 0.46778 0.26233
 C3699 C 0.80708 0.47275 0.25773
 C3700 C 0.80144 0.48345 0.26364
 C3701 C 0.80774 0.48920 0.27410
 C3702 C 0.81924 0.48422 0.27871
 H3703 H 0.87484 0.46594 0.31829
 H3704 H 0.85585 0.47628 0.30961
 H3705 H 0.85218 0.44603 0.28153
 H3706 H 0.87108 0.43588 0.28992
 H3707 H 0.83611 0.47497 0.29646
 H3708 H 0.84168 0.46116 0.27115
 H3709 H 0.82262 0.45942 0.25768
 H3710 H 0.80250 0.46804 0.24967
 H3711 H 0.80370 0.49748 0.27887
 H3712 H 0.82382 0.48904 0.28668
 C3713 C 0.86892 0.96201 0.81022
 C3714 C 0.85800 0.96789 0.80527
 C3715 C 0.85198 0.96306 0.79425
 C3716 C 0.85702 0.95202 0.78838
 C3717 C 0.86793 0.94613 0.79333
 C3718 C 0.87404 0.95103 0.80432
 C3719 C 0.84022 0.96946 0.78958
 C3720 C 0.83586 0.96844 0.77750
 C3721 C 0.82377 0.97434 0.77302
 C3722 C 0.81758 0.96897 0.76233
 C3723 C 0.80590 0.97383 0.75807
 C3724 C 0.80018 0.98429 0.76433
 C3725 C 0.80660 0.98997 0.77475
 C3726 C 0.81828 0.98508 0.77903
 H3727 H 0.87325 0.96610 0.81870
 H3728 H 0.85426 0.97631 0.81006
 H3729 H 0.85245 0.94769 0.78014
 H3730 H 0.87146 0.93765 0.78854
 H3731 H 0.83502 0.97519 0.79647
 H3732 H 0.84106 0.96271 0.77060
 H3733 H 0.82166 0.96077 0.75744
 H3734 H 0.80126 0.96922 0.74999
 H3735 H 0.80252 0.99809 0.77976
 H3736 H 0.82294 0.98981 0.78700
 C3737 C 0.38241 0.31085 0.79089
 C3738 C 0.39355 0.30612 0.78523
 C3739 C 0.39866 0.29433 0.78902
 C3740 C 0.39248 0.28743 0.79884
 C3741 C 0.38133 0.29220 0.80455
 C3742 C 0.37612 0.30396 0.80063
 C3743 C 0.41064 0.28990 0.78280
 C3744 C 0.41432 0.27760 0.78235
 C3745 C 0.42651 0.27328 0.77648
 C3746 C 0.43172 0.26161 0.78054
 C3747 C 0.44340 0.25733 0.77570
 C3748 C 0.45014 0.26455 0.76652
 C3749 C 0.44473 0.27604 0.76211
 C3750 C 0.43303 0.28035 0.76699
 H3751 H 0.37886 0.32000 0.78764
 H3752 H 0.39818 0.31170 0.77780
 H3753 H 0.39632 0.27850 0.80236
 H3754 H 0.37682 0.28662 0.81204
 H3755 H 0.41654 0.29717 0.77836
 H3756 H 0.40842 0.27034 0.78681
 H3757 H 0.42685 0.25590 0.78771
 H3758 H 0.44723 0.24842 0.77933
 H3759 H 0.44962 0.28182 0.75501
 H3760 H 0.42914 0.28916 0.76324
 C3761 C 0.87996 0.30846 0.29035
 C3762 C 0.89112 0.30343 0.28498
 C3763 C 0.89709 0.29271 0.29038
 C3764 C 0.89170 0.28719 0.30145
 C3765 C 0.88052 0.29225 0.30685
 C3766 C 0.87450 0.30297 0.30138
 C3767 C 0.90907 0.28796 0.28437
 C3768 C 0.91381 0.27615 0.28608
 C3769 C 0.92587 0.27166 0.28002
 C3770 C 0.93276 0.26178 0.28592
 C3771 C 0.94430 0.25748 0.28070
 C3772 C 0.94916 0.26287 0.26934
 C3773 C 0.94205 0.27250 0.26322
 C3774 C 0.93053 0.27682 0.26846
 H3775 H 0.87568 0.31667 0.28577
 H3776 H 0.89508 0.30793 0.27650
 H3777 H 0.89616 0.27916 0.30618
 H3778 H 0.87673 0.28778 0.31539
 H3779 H 0.91410 0.29459 0.27818
 H3780 H 0.90895 0.26949 0.29235
 H3781 H 0.92931 0.25753 0.29475
 H3782 H 0.94949 0.25004 0.28569
 H3783 H 0.94543 0.27680 0.25439
 H3784 H 0.92528 0.28410 0.26332
 C3785 C 0.36858 0.80945 0.45949
 C3786 C 0.35769 0.80424 0.46522
 C3787 C 0.35312 0.79212 0.46160
 C3788 C 0.35966 0.78534 0.45193
 C3789 C 0.37057 0.79057 0.44617
 C3790 C 0.37519 0.80269 0.44988
 C3791 C 0.34129 0.78727 0.46784
 C3792 C 0.33754 0.77496 0.46779
 C3793 C 0.32539 0.77060 0.47371
 C3794 C 0.31932 0.75965 0.46876
 C3795 C 0.30746 0.75569 0.47352
 C3796 C 0.30144 0.76254 0.48346
 C3797 C 0.30782 0.77313 0.48885
 C3798 C 0.31967 0.77710 0.48407
 H3799 H 0.37170 0.81885 0.46255
 H3800 H 0.35280 0.80974 0.47255
 H3801 H 0.35631 0.77612 0.44857
 H3802 H 0.37538 0.78506 0.43881
 H3803 H 0.33542 0.79432 0.47264
 H3804 H 0.34319 0.76783 0.46286
 H3805 H 0.32360 0.75436 0.46091
 H3806 H 0.30287 0.74745 0.46918
 H3807 H 0.30355 0.77856 0.49660
 H3808 H 0.32429 0.78526 0.48852
 C3809 C 0.37158 0.30958 0.96372
 C3810 C 0.36114 0.30425 0.97020
 C3811 C 0.35602 0.29241 0.96639
 C3812 C 0.36142 0.28609 0.95578
 C3813 C 0.37183 0.29140 0.94930
 C3814 C 0.37706 0.30321 0.95317
 C3815 C 0.34465 0.28734 0.97321
 C3816 C 0.34139 0.27489 0.97323
 C3817 C 0.32932 0.27005 0.97886
 C3818 C 0.32388 0.25886 0.97373
 C3819 C 0.31201 0.25448 0.97802
 C3820 C 0.30536 0.26115 0.98766
 C3821 C 0.31113 0.27198 0.99328
 C3822 C 0.32300 0.27638 0.98895
 H3823 H 0.37523 0.31873 0.96695
 H3824 H 0.35705 0.30941 0.97824
 H3825 H 0.35747 0.27720 0.95218
 H3826 H 0.37567 0.28619 0.94121
 H3827 H 0.33870 0.29423 0.97814
 H3828 H 0.34734 0.26799 0.96832
 H3829 H 0.32863 0.25374 0.96605
 H3830 H 0.30790 0.24606 0.97354
 H3831 H 0.30633 0.27730 1.00079
 H3832 H 0.32711 0.28475 0.99348
 C3833 C 0.81129 0.45812 0.36751
 C3834 C 0.80652 0.46386 0.35643
 C3835 C 0.79447 0.46047 0.35160
 C3836 C 0.78735 0.45096 0.35799
 C3837 C 0.79215 0.44517 0.36910
 C3838 C 0.80416 0.44872 0.37403
 C3839 C 0.78998 0.46679 0.33969
 C3840 C 0.77765 0.46757 0.33624
 C3841 C 0.77335 0.47366 0.32415
 C3842 C 0.76173 0.46965 0.31875
 C3843 C 0.75751 0.47474 0.30713
 C3844 C 0.76475 0.48411 0.30069
 C3845 C 0.77617 0.48848 0.30633
 C3846 C 0.78041 0.48335 0.31795
 H3847 H 0.82064 0.46104 0.37085
 H3848 H 0.81227 0.47105 0.35163
 H3849 H 0.77820 0.44774 0.35437
 H3850 H 0.78639 0.43795 0.37380
 H3851 H 0.79724 0.47105 0.33363
 H3852 H 0.77036 0.46326 0.34221
 H3853 H 0.75603 0.46233 0.32339
 H3854 H 0.74864 0.47117 0.30311
 H3855 H 0.78195 0.49573 0.30167
 H3856 H 0.78917 0.48706 0.32205
 C3857 C 0.78725 0.94286 0.87334
 C3858 C 0.78155 0.94756 0.86219
 C3859 C 0.78726 0.95756 0.85526
 C3860 C 0.79897 0.96263 0.85961
 C3861 C 0.80471 0.95787 0.87074
 C3862 C 0.79892 0.94792 0.87773
 C3863 C 0.78096 0.96201 0.84333
 C3864 C 0.78270 0.97372 0.83832
 C3865 C 0.77657 0.97807 0.82626
 C3866 C 0.78222 0.98820 0.81946
 C3867 C 0.77701 0.99240 0.80787
 C3868 C 0.76592 0.98663 0.80285
 C3869 C 0.76004 0.97673 0.80984
 C3870 C 0.76526 0.97253 0.82143
 H3871 H 0.78257 0.93509 0.87836
 H3872 H 0.77262 0.94338 0.85897
 H3873 H 0.80390 0.97006 0.85434
 H3874 H 0.81368 0.96202 0.87383
 H3875 H 0.77457 0.95530 0.83866
 H3876 H 0.78911 0.98040 0.84302
 H3877 H 0.79086 0.99272 0.82301
 H3878 H 0.78183 1.00003 0.80276
 H3879 H 0.75145 0.97210 0.80630
 H3880 H 0.76031 0.96502 0.82657
 C3881 C 0.28913 0.80953 0.37891
 C3882 C 0.28291 0.80418 0.38947
 C3883 C 0.28647 0.79215 0.39419
 C3884 C 0.29663 0.78562 0.38821
 C3885 C 0.30290 0.79100 0.37763
 C3886 C 0.29919 0.80300 0.37281
 C3887 C 0.27974 0.78717 0.40569
 C3888 C 0.27965 0.77483 0.40925
 C3889 C 0.27338 0.77032 0.42119
 C3890 C 0.27812 0.75933 0.42724
 C3891 C 0.27309 0.75529 0.43899
 C3892 C 0.26309 0.76210 0.44489
 C3893 C 0.25788 0.77271 0.43848
 C3894 C 0.26294 0.77676 0.42675
 H3895 H 0.28607 0.81885 0.37567
 H3896 H 0.27523 0.80950 0.39398
 H3897 H 0.29998 0.77652 0.39176
 H3898 H 0.31064 0.78570 0.37328
 H3899 H 0.27470 0.79414 0.41147
 H3900 H 0.28478 0.76779 0.40364
 H3901 H 0.28605 0.75410 0.42309
 H3902 H 0.27730 0.74704 0.44360
 H3903 H 0.25011 0.77812 0.44267
 H3904 H 0.25866 0.78496 0.42213
 C3905 C 0.29206 0.30997 0.88068
 C3906 C 0.28628 0.30496 0.89165
 C3907 C 0.28968 0.29285 0.89629
 C3908 C 0.29920 0.28588 0.88975
 C3909 C 0.30503 0.29093 0.87876
 C3910 C 0.30151 0.30303 0.87407
 C3911 C 0.28344 0.28820 0.90821
 C3912 C 0.28291 0.27585 0.91171
 C3913 C 0.27708 0.27147 0.92393
 C3914 C 0.28135 0.25995 0.92930
 C3915 C 0.27661 0.25573 0.94109
 C3916 C 0.26734 0.26288 0.94774
 C3917 C 0.26266 0.27415 0.94211
 C3918 C 0.26745 0.27840 0.93032
 H3919 H 0.28916 0.31938 0.87751
 H3920 H 0.27907 0.31059 0.89654
 H3921 H 0.30239 0.27667 0.89318
 H3922 H 0.31227 0.28530 0.87395
 H3923 H 0.27911 0.29539 0.91429
 H3924 H 0.28730 0.26863 0.90572
 H3925 H 0.28864 0.25434 0.92450
 H3926 H 0.28039 0.24696 0.94508
 H3927 H 0.25545 0.27984 0.94691
 H3928 H 0.26354 0.28707 0.92628
 C3929 C 0.43838 0.28803 0.86995
 C3930 C 0.44328 0.28165 0.85924
 C3931 C 0.45504 0.28531 0.85392
 C3932 C 0.46169 0.29572 0.85935
 C3933 C 0.45679 0.30212 0.87004
 C3934 C 0.44509 0.29833 0.87551
 C3935 C 0.45976 0.27848 0.84240
 C3936 C 0.47219 0.27776 0.83935
 C3937 C 0.47695 0.27189 0.82734
 C3938 C 0.48876 0.27605 0.82251
 C3939 C 0.49333 0.27142 0.81083
 C3940 C 0.48625 0.26238 0.80375
 C3941 C 0.47466 0.25779 0.80884
 C3942 C 0.47006 0.26247 0.82053
 H3943 H 0.42929 0.28488 0.87377
 H3944 H 0.43790 0.27377 0.85513
 H3945 H 0.47055 0.29917 0.85523
 H3946 H 0.46223 0.31003 0.87396
 H3947 H 0.45266 0.27403 0.83630
 H3948 H 0.47923 0.28218 0.84556
 H3949 H 0.49430 0.28321 0.82762
 H3950 H 0.50232 0.27514 0.80723
 H3951 H 0.46900 0.25079 0.80366
 H3952 H 0.46114 0.25868 0.82416
 C3953 C 0.94201 0.29357 0.36792
 C3954 C 0.94732 0.28786 0.35706
 C3955 C 0.95913 0.29199 0.35224
 C3956 C 0.96544 0.30225 0.35838
 C3957 C 0.96007 0.30805 0.36926
 C3958 C 0.94834 0.30369 0.37421
 C3959 C 0.96418 0.28548 0.34065
 C3960 C 0.97647 0.28569 0.33697
 C3961 C 0.98098 0.27896 0.32529
 C3962 C 0.99139 0.28400 0.31847
 C3963 C 0.99539 0.27833 0.30699
 C3964 C 0.98915 0.26736 0.30218
 C3965 C 0.97910 0.26197 0.30934
 C3966 C 0.97509 0.26767 0.32079
 H3967 H 0.93286 0.29008 0.37127
 H3968 H 0.94218 0.28009 0.35245
 H3969 H 0.97439 0.30599 0.35476
 H3970 H 0.96517 0.31584 0.37384
 H3971 H 0.95735 0.28010 0.33498
 H3972 H 0.98342 0.29123 0.34231
 H3973 H 0.99618 0.29258 0.32183
 H3974 H 1.00318 0.28273 0.30176
 H3975 H 0.97414 0.25349 0.30598
 H3976 H 0.96738 0.26320 0.32607
 C3977 C 0.44094 0.36881 0.79003
 C3978 C 0.44620 0.35782 0.78452
 C3979 C 0.45726 0.35224 0.78964
 C3980 C 0.46285 0.35783 0.80059
 C3981 C 0.45758 0.36884 0.80612
 C3982 C 0.44655 0.37450 0.80091
 C3983 C 0.46224 0.34040 0.78354
 C3984 C 0.47425 0.33613 0.78493
 C3985 C 0.47891 0.32407 0.77901
 C3986 C 0.48919 0.31766 0.78474
 C3987 C 0.49358 0.30603 0.77975
 C3988 C 0.48785 0.30062 0.76879
 C3989 C 0.47782 0.30726 0.76281
 C3990 C 0.47343 0.31887 0.76781
 H3991 H 0.43243 0.37275 0.78571
 H3992 H 0.44162 0.35366 0.77616
 H3993 H 0.47114 0.35363 0.80512
 H3994 H 0.46215 0.37281 0.81454
 H3995 H 0.45559 0.33505 0.77763
 H3996 H 0.48093 0.34136 0.79089
 H3997 H 0.49368 0.32152 0.79329
 H3998 H 0.50133 0.30120 0.78461
 H3999 H 0.47323 0.30343 0.75431
 H4000 H 0.46581 0.32373 0.76280
 C4001 C 0.93745 0.36836 0.28860
 C4002 C 0.94224 0.35751 0.28239
 C4003 C 0.95374 0.35191 0.28638
 C4004 C 0.96024 0.35726 0.29693
 C4005 C 0.95544 0.36809 0.30316
 C4006 C 0.94399 0.37381 0.29908
 C4007 C 0.95829 0.34022 0.27973
 C4008 C 0.97062 0.33669 0.27946
 C4009 C 0.97523 0.32460 0.27359
 C4010 C 0.98701 0.31971 0.27769
 C4011 C 0.99154 0.30806 0.27295
 C4012 C 0.98442 0.30104 0.26389
 C4013 C 0.97283 0.30615 0.25942
 C4014 C 0.96828 0.31782 0.26418
 H4015 H 0.92856 0.37236 0.28519
 H4016 H 0.93698 0.35350 0.27438
 H4017 H 0.96889 0.35298 0.30063
 H4018 H 0.96075 0.37191 0.31121
 H4019 H 0.95114 0.33441 0.27498
 H4020 H 0.97771 0.34263 0.28416
 H4021 H 0.99261 0.32477 0.28483
 H4022 H 1.00052 0.30445 0.27661
 H4023 H 0.96713 0.30103 0.25240
 H4024 H 0.95937 0.32144 0.26042
 C4025 C 0.31025 0.87041 0.45878
 C4026 C 0.30510 0.85949 0.46451
 C4027 C 0.29341 0.85439 0.46034
 C4028 C 0.28700 0.86041 0.45013
 C4029 C 0.29218 0.87137 0.44435
 C4030 C 0.30388 0.87652 0.44861
 C4031 C 0.28864 0.84254 0.46660
 C4032 C 0.27640 0.83866 0.46637
 C4033 C 0.27194 0.82654 0.47232
 C4034 C 0.26083 0.82071 0.46751
 C4035 C 0.25663 0.80896 0.47234
 C4036 C 0.26338 0.80280 0.48222
 C4037 C 0.27420 0.80889 0.48743
 C4038 C 0.27843 0.82065 0.48257
 H4039 H 0.31930 0.87393 0.46235
 H4040 H 0.31030 0.85500 0.47228
 H4041 H 0.27815 0.85660 0.44635
 H4042 H 0.28700 0.87575 0.43654
 H4043 H 0.29565 0.83685 0.47163
 H4044 H 0.26936 0.84426 0.46127
 H4045 H 0.25555 0.82512 0.45976
 H4046 H 0.24819 0.80462 0.46814
 H4047 H 0.27956 0.80448 0.49512
 H4048 H 0.28673 0.82506 0.48691
 C4049 C 0.29185 0.36851 0.94179
 C4050 C 0.28627 0.35749 0.94692
 C4051 C 0.29015 0.35273 0.95886
 C4052 C 0.29995 0.35920 0.96554
 C4053 C 0.30557 0.37025 0.96038
 C4054 C 0.30158 0.37506 0.94844
 C4055 C 0.28397 0.34080 0.96362
 C4056 C 0.28434 0.33677 0.97584
 C4057 C 0.27827 0.32463 0.98015
 C4058 C 0.28325 0.31837 0.99094
 C4059 C 0.27826 0.30658 0.99491
 C4060 C 0.26804 0.30083 0.98824
 C4061 C 0.26267 0.30740 0.97779
 C4062 C 0.26769 0.31917 0.97381
 H4063 H 0.28855 0.37176 0.93254
 H4064 H 0.27883 0.35267 0.94150
 H4065 H 0.30350 0.35572 0.97461
 H4066 H 0.31302 0.37502 0.96579
 H4067 H 0.27885 0.33514 0.95659
 H4068 H 0.28960 0.34219 0.98294
 H4069 H 0.29127 0.32246 0.99612
 H4070 H 0.28262 0.30185 1.00304
 H4071 H 0.25471 0.30334 0.97251
 H4072 H 0.26321 0.32393 0.96579
 C4073 C 0.79053 0.38186 0.31011
 C4074 C 0.78446 0.39264 0.30515
 C4075 C 0.78790 0.39751 0.29312
 C4076 C 0.79779 0.39149 0.28621
 C4077 C 0.80391 0.38069 0.29121
 C4078 C 0.80031 0.37570 0.30320
 C4079 C 0.78129 0.40914 0.28846
 C4080 C 0.78043 0.41234 0.27605
 C4081 C 0.77432 0.42432 0.27159
 C4082 C 0.77838 0.42961 0.25994
 C4083 C 0.77348 0.44128 0.25571
 C4084 C 0.76426 0.44787 0.26299
 C4085 C 0.75976 0.44229 0.27439
 C4086 C 0.76471 0.43062 0.27865
 H4087 H 0.78754 0.37847 0.31943
 H4088 H 0.77698 0.39717 0.31072
 H4089 H 0.80103 0.39520 0.27709
 H4090 H 0.81142 0.37626 0.28563
 H4091 H 0.77696 0.41521 0.29566
 H4092 H 0.78479 0.40630 0.26883
 H4093 H 0.78565 0.42488 0.25425
 H4094 H 0.77714 0.44524 0.24685
 H4095 H 0.75262 0.44708 0.28019
 H4096 H 0.76096 0.42660 0.28744
   
