data_POSCAR
  _audit_creation_date              2014-09-24
  _audit_creation_method            'ToBaCCo'
  _symmetry_space_group_name_H-M    'P1'
  _symmetry_Int_Tables_number       1
  _symmetry_cell_setting            triclinic
  loop_
  _symmetry_equiv_pos_as_xyz
 x,y,z
_cell_length_a 89.3442
_cell_length_b 89.2859
_cell_length_c 89.7329
_cell_angle_alpha 90.070300
_cell_angle_beta 89.958400
_cell_angle_gamma 90.072500
loop_
  _atom_site_label
  _atom_site_type_symbol
  _atom_site_fract_x
  _atom_site_fract_y
  _atom_site_fract_z
C1 C 0.30191 0.43654 0.92548
 C2 C 0.30185 0.42584 0.93691
 C3 C 0.31286 0.42615 0.94772
 C4 C 0.32406 0.43715 0.94727
 C5 C 0.32414 0.44766 0.93604
 C6 C 0.31296 0.44739 0.92506
 C7 C 0.29313 0.43846 0.91304
 N8 N 0.29856 0.45022 0.90506
 C9 C 0.31070 0.45574 0.91238
 C10 C 0.33672 0.45633 0.93793
 N11 N 0.34447 0.45139 0.95010
 C12 C 0.33658 0.43960 0.95583
 C13 C 0.31057 0.41398 0.95683
 N14 N 0.29844 0.40626 0.95182
 C15 C 0.29303 0.41349 0.93963
 H16 H 0.28355 0.43169 0.91000
 H17 H 0.31773 0.46482 0.90852
 H18 H 0.33985 0.46547 0.93070
 H19 H 0.33975 0.43275 0.96521
 H20 H 0.31738 0.41092 0.96632
 H21 H 0.28374 0.40974 0.93286
 C22 C 0.43851 0.82286 0.44891
 C23 C 0.42766 0.81148 0.44913
 C24 C 0.42794 0.80031 0.43846
 C25 C 0.43907 0.80034 0.42744
 C26 C 0.44975 0.81154 0.42723
 C27 C 0.44944 0.82290 0.43805
 C28 C 0.44046 0.83557 0.45734
 N29 N 0.45235 0.84354 0.45193
 C30 C 0.45784 0.83565 0.44006
 C31 C 0.45848 0.80928 0.41478
 N32 N 0.45333 0.79700 0.40740
 C33 C 0.44145 0.79147 0.41513
 C34 C 0.41559 0.79140 0.44076
 N35 N 0.40777 0.79689 0.45257
 C36 C 0.41513 0.80917 0.45777
 H37 H 0.43324 0.83879 0.46645
 H38 H 0.46719 0.83878 0.43308
 H39 H 0.46751 0.81645 0.41106
 H40 H 0.43485 0.78180 0.41196
 H41 H 0.41245 0.78176 0.43415
 H42 H 0.41134 0.81631 0.46677
 C43 C 0.93889 0.92739 0.80086
 C44 C 0.92749 0.93818 0.80109
 C45 C 0.92736 0.94908 0.81204
 C46 C 0.93862 0.94932 0.82293
 C47 C 0.94979 0.93870 0.82270
 C48 C 0.94992 0.92763 0.81157
 C49 C 0.94129 0.91496 0.79213
 N50 N 0.95356 0.90744 0.79725
 C51 C 0.95886 0.91534 0.80920
 C52 C 0.95859 0.94108 0.83503
 N53 N 0.95309 0.95295 0.84296
 C54 C 0.94081 0.95800 0.83541
 C55 C 0.91459 0.95744 0.81004
 N56 N 0.90694 0.95186 0.79816
 C57 C 0.91481 0.94007 0.79263
 H58 H 0.93407 0.91156 0.78309
 H59 H 0.96838 0.91247 0.81603
 H60 H 0.96811 0.93426 0.83793
 H61 H 0.93351 0.96704 0.83874
 H62 H 0.91087 0.96655 0.81709
 H63 H 0.91151 0.93323 0.78322
 C64 C 0.43915 -0.07205 0.30080
 C65 C 0.42798 -0.06103 0.30091
 C66 C 0.42763 -0.05043 0.31215
 C67 C 0.43847 -0.05072 0.32345
 C68 C 0.44947 -0.06160 0.32332
 C69 C 0.44980 -0.07232 0.31189
 C70 C 0.44158 -0.08432 0.29186
 N71 N 0.45351 -0.09224 0.29720
 C72 C 0.45856 -0.08475 0.30951
 C73 C 0.45785 -0.05978 0.33604
 N74 N 0.45222 -0.04805 0.34393
 C75 C 0.44036 -0.04245 0.33627
 C76 C 0.41508 -0.04180 0.30995
 N77 N 0.40776 -0.04693 0.29767
 C78 C 0.41563 -0.05869 0.29208
 H79 H 0.43479 -0.08717 0.28232
 H80 H 0.46756 -0.08817 0.31676
 H81 H 0.46727 -0.06662 0.33935
 H82 H 0.43325 -0.03337 0.33998
 H83 H 0.41124 -0.03286 0.31715
 H84 H 0.41254 -0.06523 0.28240
 C85 C 0.80197 0.31342 0.32494
 C86 C 0.80234 0.32464 0.31403
 C87 C 0.81361 0.32476 0.30347
 C88 C 0.82470 0.31365 0.30369
 C89 C 0.82435 0.30260 0.31446
 C90 C 0.81288 0.30246 0.32515
 C91 C 0.79285 0.31105 0.33707
 N92 N 0.79796 0.29893 0.34468
 C93 C 0.81021 0.29360 0.33741
 C94 C 0.83685 0.29384 0.31246
 N95 N 0.84480 0.29929 0.30073
 C96 C 0.83740 0.31142 0.29530
 C97 C 0.81159 0.33733 0.29483
 N98 N 0.79939 0.34487 0.29992
 C99 C 0.79367 0.33713 0.31167
 H100 H 0.78330 0.31781 0.34019
 H101 H 0.81707 0.28433 0.34107
 H102 H 0.83994 0.28425 0.31915
 H103 H 0.84121 0.31844 0.28623
 H104 H 0.81882 0.34097 0.28586
 H105 H 0.78397 0.34038 0.31814
 C106 C -0.18746 0.82364 0.80190
 C107 C -0.17665 0.81225 0.80184
 C108 C -0.17703 0.80121 0.81262
 C109 C -0.18824 0.80139 0.82358
 C110 C -0.19884 0.81258 0.82362
 C111 C -0.19846 0.82379 0.81267
 C112 C -0.18934 0.83623 0.79331
 N113 N -0.20129 0.84423 0.79854
 C114 C -0.20687 0.83648 0.81045
 C115 C -0.20772 0.81043 0.83595
 N116 N -0.20281 0.79814 0.84359
 C117 C -0.19083 0.79260 0.83588
 C118 C -0.16475 0.79221 0.81041
 N119 N -0.15689 0.79750 0.79854
 C120 C -0.16415 0.80977 0.79323
 H121 H -0.18224 0.83919 0.78403
 H122 H -0.21609 0.83982 0.81749
 H123 H -0.21695 0.81760 0.83900
 H124 H -0.18396 0.78318 0.83903
 H125 H -0.16170 0.78260 0.81708
 H126 H -0.16032 0.81675 0.78414
 C127 C 0.94805 0.32404 0.43691
 C128 C 0.94824 0.31283 0.42594
 C129 C 0.93763 0.30156 0.42618
 C130 C 0.92669 0.30133 0.43738
 C131 C 0.92651 0.31237 0.44819
 C132 C 0.93727 0.32383 0.44791
 C133 C 0.95646 0.33678 0.43898
 N134 N 0.95111 0.34450 0.45102
 C135 C 0.93930 0.33644 0.45648
 C136 C 0.91415 0.30984 0.45702
 N137 N 0.90681 0.29755 0.45181
 C138 C 0.91446 0.29228 0.43980
 C139 C 0.93991 0.29280 0.41378
 N140 N 0.95166 0.29847 0.40596
 C141 C 0.95684 0.31072 0.41337
 H142 H 0.96553 0.34017 0.43175
 H143 H 0.93240 0.33936 0.46592
 H144 H 0.91047 0.31683 0.46617
 H145 H 0.91130 0.28267 0.43314
 H146 H 0.93336 0.28311 0.41062
 H147 H 0.96581 0.31794 0.40962
 C148 C 0.44794 0.43749 0.82440
 C149 C 0.44779 0.42634 0.81338
 C150 C 0.43677 0.42633 0.80257
 C151 C 0.42571 0.43747 0.80267
 C152 C 0.42587 0.44843 0.81356
 C153 C 0.43708 0.44842 0.82449
 C154 C 0.45674 0.43971 0.83676
 N155 N 0.45153 0.45179 0.84457
 C156 C 0.43944 0.45713 0.83691
 C157 C 0.41339 0.45718 0.81148
 N158 N 0.40562 0.45180 0.79959
 C159 C 0.41313 0.43974 0.79413
 C160 C 0.43890 0.41379 0.79390
 N161 N 0.45094 0.40615 0.79919
 C162 C 0.45644 0.41381 0.81111
 H163 H 0.46597 0.43257 0.83985
 H164 H 0.43246 0.46647 0.84006
 H165 H 0.41015 0.46667 0.81826
 H166 H 0.40944 0.43276 0.78497
 H167 H 0.43184 0.41021 0.78477
 H168 H 0.46596 0.41046 0.81777
 C169 C 0.80051 0.92749 0.93775
 C170 C 0.80061 0.93831 0.92643
 C171 C 0.81152 0.94929 0.92627
 C172 C 0.82252 0.94957 0.93742
 C173 C 0.82239 0.93894 0.94854
 C174 C 0.81131 0.92779 0.94869
 C175 C 0.79182 0.91501 0.94018
 N176 N 0.79705 0.90752 0.95239
 C177 C 0.80903 0.91549 0.95760
 C178 C 0.83478 0.94142 0.95729
 N179 N 0.84263 0.95334 0.95179
 C180 C 0.83500 0.95834 0.93958
 C181 C 0.80939 0.95768 0.91360
 N182 N 0.79746 0.95205 0.90603
 C183 C 0.79202 0.94019 0.91385
 H184 H 0.78271 0.91158 0.93305
 H185 H 0.81594 0.91267 0.96706
 H186 H 0.83790 0.93449 0.96663
 H187 H 0.83815 0.96757 0.93246
 H188 H 0.81639 0.96685 0.90989
 H189 H 0.78260 0.93330 0.91060
 C190 C 0.30035 0.82210 0.31171
 C191 C 0.30013 0.81107 0.32283
 C192 C 0.31100 0.80008 0.32305
 C193 C 0.32228 0.79999 0.31217
 C194 C 0.32248 0.81087 0.30122
 C195 C 0.31143 0.82203 0.30103
 C196 C 0.29175 0.83462 0.30934
 N197 N 0.29730 0.84237 0.29742
 C198 C 0.30941 0.83452 0.29232
 C199 C 0.33511 0.80855 0.29275
 N200 N 0.34262 0.79654 0.29829
 C201 C 0.33479 0.79125 0.31018
 C202 C 0.30856 0.79151 0.33556
 N203 N 0.29648 0.79705 0.34296
 C204 C 0.29125 0.80902 0.33519
 H205 H 0.28248 0.83792 0.31634
 H206 H 0.31653 0.83754 0.28308
 H207 H 0.33885 0.81549 0.28358
 H208 H 0.33802 0.78182 0.31703
 H209 H 0.31547 0.78231 0.33930
 H210 H 0.28181 0.81589 0.33837
 C211 C 0.80186 0.42589 0.43670
 C212 C 0.80185 0.43660 0.42528
 C213 C 0.81285 0.44750 0.42485
 C214 C 0.82406 0.44779 0.43579
 C215 C 0.82406 0.43727 0.44700
 C216 C 0.81291 0.42621 0.44747
 C217 C 0.79309 0.41351 0.43945
 N218 N 0.79856 0.40629 0.45162
 C219 C 0.81068 0.41405 0.45659
 C220 C 0.83659 0.43977 0.45553
 N221 N 0.84441 0.45161 0.44981
 C222 C 0.83660 0.45653 0.43767
 C223 C 0.81050 0.45588 0.41221
 N224 N 0.79834 0.45033 0.40492
 C225 C 0.79299 0.43853 0.41289
 H226 H 0.78377 0.40974 0.43272
 H227 H 0.81752 0.41100 0.46606
 H228 H 0.83982 0.43293 0.46491
 H229 H 0.83966 0.46570 0.43044
 H230 H 0.81747 0.46500 0.40834
 H231 H 0.78342 0.43173 0.40988
 C232 C 0.93904 0.82080 -0.05047
 C233 C 0.92813 0.80950 -0.05061
 C234 C 0.92836 0.79865 -0.06160
 C235 C 0.93954 0.79893 -0.07259
 C236 C 0.95025 0.81004 -0.07247
 C237 C 0.95004 0.82106 -0.06131
 C238 C 0.94096 0.83333 -0.04175
 N239 N 0.95286 0.84124 -0.04702
 C240 C 0.95848 0.83376 -0.05899
 C241 C 0.95900 0.80808 -0.08493
 N242 N 0.95390 0.79600 -0.09281
 C243 C 0.94193 0.79039 -0.08512
 C244 C 0.91592 0.78978 -0.05959
 N245 N 0.90811 0.79499 -0.04765
 C246 C 0.91556 0.80705 -0.04208
 H247 H 0.93405 0.83653 -0.03236
 H248 H 0.96765 0.83756 -0.06591
 H249 H 0.96826 0.81526 -0.08791
 H250 H 0.93493 0.78110 -0.08845
 H251 H 0.91270 0.78037 -0.06649
 H252 H 0.91180 0.81397 -0.03291
 C253 C 0.30126 0.32348 0.81262
 C254 C 0.30100 0.31229 0.82356
 C255 C 0.31200 0.30142 0.82379
 C256 C 0.32344 0.30161 0.81307
 C257 C 0.32368 0.31264 0.80227
 C258 C 0.31250 0.32366 0.80204
 C259 C 0.29254 0.33595 0.81031
 N260 N 0.29821 0.34374 0.79858
 C261 C 0.31043 0.33625 0.79344
 C262 C 0.33640 0.31052 0.79389
 N263 N 0.34393 0.29849 0.79934
 C264 C 0.33604 0.29299 0.81110
 C265 C 0.30945 0.29263 0.83613
 N266 N 0.29719 0.29792 0.84342
 C267 C 0.29196 0.30995 0.83575
 H268 H 0.28287 0.33916 0.81684
 H269 H 0.31765 0.33996 0.78449
 H270 H 0.34015 0.31757 0.78482
 H271 H 0.33924 0.28346 0.81782
 H272 H 0.31640 0.28345 0.83984
 H273 H 0.28238 0.31667 0.83887
 C274 C 0.17687 0.56224 0.55152
 C275 C 0.18777 0.57357 0.55189
 C276 C 0.19869 0.57344 0.56280
 C277 C 0.19891 0.56197 0.57346
 C278 C 0.18817 0.55083 0.57309
 C279 C 0.17708 0.55096 0.56206
 C280 C 0.16436 0.56005 0.54284
 N281 N 0.15694 0.54774 0.54788
 C282 C 0.16471 0.54212 0.55963
 C283 C 0.19047 0.54182 0.58530
 N284 N 0.20234 0.54722 0.59312
 C285 C 0.20759 0.55955 0.58590
 C286 C 0.20718 0.58617 0.56098
 N287 N 0.20169 0.59406 0.54924
 C288 C 0.18981 0.58638 0.54362
 H289 H 0.16062 0.56727 0.53391
 H290 H 0.16153 0.53241 0.56611
 H291 H 0.18381 0.53216 0.58834
 H292 H 0.21664 0.56664 0.58973
 H293 H 0.21660 0.58948 0.56782
 H294 H 0.18279 0.59008 0.53451
 C295 C 0.57271 0.68838 0.05165
 C296 C 0.56126 0.67762 0.05142
 C297 C 0.55030 0.67778 0.06229
 C298 C 0.55061 0.68870 0.07352
 C299 C 0.56187 0.69933 0.07374
 C300 C 0.57300 0.69917 0.06271
 C301 C 0.58531 0.69035 0.04305
 N302 N 0.59328 0.70208 0.04862
 C303 C 0.58578 0.70753 0.06065
 C304 C 0.55988 0.70784 0.08639
 N305 N 0.54771 0.70261 0.09387
 C306 C 0.54197 0.69090 0.08602
 C307 C 0.54130 0.66549 0.05996
 N308 N 0.54654 0.65783 0.04793
 C309 C 0.55874 0.66523 0.04263
 H310 H 0.58848 0.68362 0.03353
 H311 H 0.58960 0.71657 0.06775
 H312 H 0.56714 0.71679 0.09015
 H313 H 0.53233 0.68430 0.08923
 H314 H 0.53179 0.66227 0.06670
 H315 H 0.56571 0.66153 0.03347
 C316 C 0.68855 0.19953 0.67767
 C317 C 0.67784 0.19979 0.68910
 C318 C 0.67818 0.18906 0.70018
 C319 C 0.68924 0.17794 0.70001
 C320 C 0.69982 0.17768 0.68876
 C321 C 0.69947 0.18857 0.67750
 C322 C 0.69034 0.20795 0.66497
 N323 N 0.70208 0.20239 0.65707
 C324 C 0.70773 0.19053 0.66470
 C325 C 0.70847 0.16512 0.69088
 N326 N 0.70338 0.15771 0.70312
 C327 C 0.69162 0.16554 0.70876
 C328 C 0.66589 0.19137 0.70912
 N329 N 0.65805 0.20323 0.70374
 C330 C 0.66535 0.20846 0.69150
 H331 H 0.68346 0.21736 0.66169
 H332 H 0.71683 0.18346 0.66097
 H333 H 0.71741 0.16134 0.68365
 H334 H 0.68509 0.16236 0.71842
 H335 H 0.66277 0.18470 0.71870
 H336 H 0.66151 0.21748 0.68442
 C337 C 1.07423 0.06245 0.19705
 C338 C 1.06285 0.07325 0.19711
 C339 C 1.05205 0.07312 0.18609
 C340 C 1.05245 0.06215 0.17489
 C341 C 1.06363 0.05154 0.17482
 C342 C 1.07461 0.05164 0.18601
 C343 C 1.08662 0.06035 0.20589
 N344 N 1.09455 0.04854 0.20049
 C345 C 1.08723 0.04315 0.18832
 C346 C 1.06167 0.04290 0.16227
 N347 N 1.04950 0.04796 0.15455
 C348 C 1.04386 0.05980 0.16240
 C349 C 1.04299 0.08534 0.18841
 N350 N 1.04802 0.09294 0.20057
 C351 C 1.06018 0.08556 0.20596
 H352 H 1.08966 0.06704 0.21549
 H353 H 1.09106 0.03404 0.18132
 H354 H 1.06884 0.03368 0.15918
 H355 H 1.03449 0.06674 0.15925
 H356 H 1.03352 0.08854 0.18162
 H357 H 1.06696 0.08918 0.21528
 C358 C 0.06235 0.17559 1.05284
 C359 C 0.07350 0.18667 1.05272
 C360 C 0.07340 0.19787 1.06337
 C361 C 0.06215 0.19817 1.07428
 C362 C 0.05119 0.18730 1.07438
 C363 C 0.05129 0.17590 1.06361
 C364 C 0.06013 0.16290 1.04442
 N365 N 0.04800 0.15546 1.04983
 C366 C 0.04253 0.16338 1.06158
 C367 C 0.04233 0.18987 1.08665
 N368 N 0.04761 0.20208 1.09420
 C369 C 0.05979 0.20717 1.08649
 C370 C 0.08596 0.20650 1.06109
 N371 N 0.09369 0.20083 1.04931
 C372 C 0.08610 0.18869 1.04412
 H373 H 0.06719 0.15909 1.03537
 H374 H 0.03295 0.16024 1.06827
 H375 H 0.03306 0.18282 1.08991
 H376 H 0.06678 0.21660 1.08942
 H377 H 0.08925 0.21614 1.06765
 H378 H 0.08974 0.18149 1.03511
 C379 C 0.17691 0.69863 0.68743
 C380 C 0.18804 0.69883 0.67640
 C381 C 0.19932 0.68824 0.67659
 C382 C 0.19964 0.67733 0.68781
 C383 C 0.18868 0.67714 0.69868
 C384 C 0.17722 0.68785 0.69847
 C385 C 0.16413 0.70696 0.68951
 N386 N 0.15664 0.70149 0.70154
 C387 C 0.16462 0.68979 0.70708
 C388 C 0.19124 0.66479 0.70747
 N389 N 0.20347 0.65744 0.70218
 C390 C 0.20868 0.66510 0.69015
 C391 C 0.20795 0.69050 0.66410
 N392 N 0.20221 0.70220 0.65629
 C393 C 0.19002 0.70737 0.66379
 H394 H 0.16030 0.71598 0.68243
 H395 H 0.16145 0.68306 0.71659
 H396 H 0.18429 0.66109 0.71664
 H397 H 0.21821 0.66191 0.68341
 H398 H 0.21761 0.68395 0.66087
 H399 H 0.18275 0.71629 0.66007
 C400 C 1.18742 0.17565 0.19739
 C401 C 1.17664 0.18704 0.19757
 C402 C 1.17675 0.19793 0.18663
 C403 C 1.18767 0.19759 0.17539
 C404 C 1.19826 0.18639 0.17521
 C405 C 1.19817 0.17533 0.18631
 C406 C 1.18948 0.16315 0.20609
 N407 N 1.20124 0.15521 0.20057
 C408 C 1.20662 0.16264 0.18847
 C409 C 1.20680 0.18838 0.16262
 N410 N 1.20170 0.20058 0.15497
 C411 C 1.18994 0.20622 0.16292
 C412 C 1.16452 0.20696 0.18901
 N413 N 1.15694 0.20183 0.20113
 C414 C 1.16433 0.18964 0.20643
 H415 H 1.18281 0.16002 0.21567
 H416 H 1.21566 0.15882 0.18139
 H417 H 1.21597 0.18118 0.15942
 H418 H 1.18299 0.21560 0.15984
 H419 H 1.16130 0.21647 0.18227
 H420 H 1.16072 0.18277 0.21569
 C421 C 0.67787 1.05011 0.56173
 C422 C 0.68897 1.04996 0.57276
 C423 C 0.69971 1.06111 0.57312
 C424 C 0.69946 1.07259 0.56246
 C425 C 0.68856 1.07273 0.55160
 C426 C 0.67766 1.06140 0.55121
 C427 C 0.66549 1.04127 0.55929
 N428 N 0.65772 1.04692 0.54755
 C429 C 0.66515 1.05923 0.54253
 C430 C 0.69060 1.08553 0.54334
 N431 N 0.70252 1.09336 0.54887
 C432 C 0.70794 1.08532 0.56063
 C433 C 0.70840 1.05868 0.58554
 N434 N 0.70318 1.04634 0.59276
 C435 C 0.69129 1.04094 0.58495
 H436 H 0.66230 1.03156 0.56576
 H437 H 0.66141 1.06647 0.53362
 H438 H 0.68342 1.08888 0.53426
 H439 H 0.71729 1.08832 0.56766
 H440 H 0.71745 1.06577 0.58937
 H441 H 0.68464 1.03128 0.58799
 C442 C 0.56185 0.55104 0.17648
 C443 C 0.57289 0.55096 0.18757
 C444 C 0.57321 0.56215 0.19821
 C445 C 0.56250 0.57363 0.19788
 C446 C 0.55160 0.57371 0.18695
 C447 C 0.55128 0.56233 0.17615
 C448 C 0.55944 0.54211 0.16421
 N449 N 0.54766 0.54768 0.15641
 C450 C 0.54259 0.56005 0.16369
 C451 C 0.54328 0.58653 0.18890
 N452 N 0.54887 0.59425 0.20074
 C453 C 0.56064 0.58638 0.20629
 C454 C 0.58563 0.55976 0.20694
 N455 N 0.59290 0.54740 0.20183
 C456 C 0.58512 0.54195 0.18999
 H457 H 0.56594 0.53236 0.16115
 H458 H 0.53362 0.56724 0.15990
 H459 H 0.53415 0.59020 0.18188
 H460 H 0.56745 0.58971 0.21569
 H461 H 0.58943 0.56690 0.21594
 H462 H 0.58821 0.53225 0.18343
 C463 C 0.67702 0.68806 0.19802
 C464 C 0.68849 0.67735 0.19817
 C465 C 0.69937 0.67752 0.18721
 C466 C 0.69895 0.68840 0.17597
 C467 C 0.68766 0.69898 0.17584
 C468 C 0.67661 0.69881 0.18695
 C469 C 0.66450 0.69002 0.20674
 N470 N 0.65647 0.70171 0.20124
 C471 C 0.66385 0.70714 0.18913
 C472 C 0.68957 0.70751 0.16321
 N473 N 0.70172 0.70234 0.15565
 C474 C 0.70751 0.69065 0.16343
 C475 C 0.70844 0.66531 0.18954
 N476 N 0.70333 0.65769 0.20164
 C477 C 0.69113 0.66504 0.20699
 H478 H 0.66143 0.68332 0.21631
 H479 H 0.65997 0.71615 0.18207
 H480 H 0.68228 0.71644 0.15953
 H481 H 0.71717 0.68412 0.16016
 H482 H 0.71793 0.66211 0.18275
 H483 H 0.68426 0.66138 0.21624
 C484 C 0.17546 0.06237 1.05341
 C485 C 0.18654 0.07351 1.05335
 C486 C 0.19750 0.07356 1.06422
 C487 C 0.19754 0.06249 1.07528
 C488 C 0.18663 0.05150 1.07534
 C489 C 0.17549 0.05146 1.06433
 C490 C 0.16297 0.06003 1.04475
 N491 N 0.15539 0.04798 1.05015
 C492 C 0.16302 0.04268 1.06215
 C493 C 0.18891 0.04285 1.08781
 N494 N 0.20093 0.04834 1.09536
 C495 C 0.20627 0.06035 1.08771
 C496 C 0.20618 0.08608 1.06199
 N497 N 0.20078 0.09367 1.05002
 C498 C 0.18877 0.08600 1.04466
 H499 H 0.15939 0.06695 1.03552
 H500 H 0.15971 0.03321 1.06890
 H501 H 0.18195 0.03361 1.09142
 H502 H 0.21572 0.06719 1.09101
 H503 H 0.21565 0.08946 1.06871
 H504 H 0.18178 0.08954 1.03547
 C505 C 0.57205 0.19972 0.56129
 C506 C 0.56071 0.20014 0.57211
 C507 C 0.54937 0.18960 0.57184
 C508 C 0.54919 0.17850 0.56078
 C509 C 0.56035 0.17808 0.55012
 C510 C 0.57188 0.18876 0.55039
 C511 C 0.58495 0.20793 0.55936
 N512 N 0.59264 0.20221 0.54757
 C513 C 0.58467 0.19047 0.54204
 C514 C 0.55794 0.16553 0.54153
 N515 N 0.54561 0.15828 0.54675
 C516 C 0.54019 0.16621 0.55852
 C517 C 0.54056 0.19201 0.58418
 N518 N 0.54627 0.20376 0.59199
 C519 C 0.55859 0.20882 0.58463
 H520 H 0.58872 0.21704 0.56640
 H521 H 0.58797 0.18355 0.53269
 H522 H 0.56508 0.16161 0.53259
 H523 H 0.53055 0.16314 0.56516
 H524 H 0.53084 0.18549 0.58733
 H525 H 0.56588 0.21772 0.58842
 C526 C 0.07278 0.56182 0.69829
 C527 C 0.06202 0.57324 0.69805
 C528 C 0.05112 0.57335 0.68712
 C529 C 0.05085 0.56205 0.67624
 C530 C 0.06148 0.55082 0.67647
 C531 C 0.07252 0.55070 0.68757
 C532 C 0.08522 0.55942 0.70700
 N533 N 0.09255 0.54714 0.70181
 C534 C 0.08480 0.54174 0.68991
 C535 C 0.05912 0.54198 0.66413
 N536 N 0.04731 0.54756 0.65637
 C537 C 0.04217 0.55984 0.66376
 C538 C 0.04275 0.58612 0.68915
 N539 N 0.04831 0.59379 0.70104
 C540 C 0.06011 0.58594 0.70653
 H541 H 0.08898 0.56650 0.71606
 H542 H 0.08794 0.53211 0.68328
 H543 H 0.06567 0.53229 0.66098
 H544 H 0.03318 0.56702 0.66003
 H545 H 0.03362 0.58981 0.68214
 H546 H 0.06692 0.58924 0.71595
 C547 C 0.67737 0.55079 0.06184
 C548 C 0.68839 0.55099 0.07295
 C549 C 0.69898 0.56230 0.07320
 C550 C 0.69867 0.57358 0.06233
 C551 C 0.68778 0.57338 0.05139
 C552 C 0.67707 0.56189 0.05113
 C553 C 0.66511 0.54176 0.05950
 N554 N 0.65733 0.54710 0.04763
 C555 C 0.66462 0.55942 0.04243
 C556 C 0.68963 0.58608 0.04293
 N557 N 0.70139 0.59402 0.04845
 C558 C 0.70698 0.58641 0.06032
 C559 C 0.70763 0.56016 0.08571
 N560 N 0.70252 0.54786 0.09308
 C561 C 0.69076 0.54219 0.08528
 H562 H 0.66199 0.53213 0.06613
 H563 H 0.66083 0.56648 0.03340
 H564 H 0.68281 0.58932 0.03351
 H565 H 0.71608 0.59018 0.06735
 H566 H 0.71659 0.56741 0.08947
 H567 H 0.68423 0.53247 0.08841
 C568 C 0.06227 0.69917 0.57367
 C569 C 0.07333 0.69899 0.56255
 C570 C 0.07288 0.68825 0.55144
 C571 C 0.06136 0.67756 0.55126
 C572 C 0.05048 0.67774 0.56221
 C573 C 0.05094 0.68862 0.57349
 C574 C 0.06041 0.70768 0.58633
 N575 N 0.04825 0.70251 0.59388
 C576 C 0.04240 0.69085 0.58605
 C577 C 0.04137 0.66554 0.55987
 N578 N 0.04645 0.65791 0.54775
 C579 C 0.05868 0.66525 0.54241
 C580 C 0.08542 0.69019 0.54275
 N581 N 0.09350 0.70185 0.54829
 C582 C 0.08613 0.70730 0.56041
 H583 H 0.06774 0.71658 0.59006
 H584 H 0.03272 0.68432 0.58929
 H585 H 0.03187 0.66235 0.56665
 H586 H 0.06554 0.66156 0.53317
 H587 H 0.08847 0.68349 0.53317
 H588 H 0.09006 0.71629 0.56751
 C589 C 0.56236 1.05120 0.67653
 C590 C 0.57335 1.05130 0.68771
 C591 C 0.57317 1.06231 0.69855
 C592 C 0.56199 1.07333 0.69841
 C593 C 0.55122 1.07321 0.68743
 C594 C 0.55139 1.06203 0.67641
 C595 C 0.56025 1.04239 0.66414
 N596 N 0.54820 1.04755 0.65630
 C597 C 0.54278 1.05963 0.66395
 C598 C 0.54241 1.08565 0.68955
 N599 N 0.54752 1.09350 0.70161
 C600 C 0.55957 1.08582 0.70704
 C601 C 0.58557 1.06020 0.70738
 N602 N 0.59331 1.04818 0.70216
 C603 C 0.58586 1.04267 0.69012
 H604 H 0.56728 1.03301 0.66120
 H605 H 0.53354 1.06668 0.66066
 H606 H 0.53307 1.08861 0.68252
 H607 H 0.56658 1.08912 0.71627
 H608 H 0.58876 1.06704 0.71682
 H609 H 0.58955 1.03341 0.68325
 C610 C 0.44758 0.32442 0.93620
 C611 C 0.44778 0.31328 0.92515
 C612 C 0.43720 0.30198 0.92534
 C613 C 0.42629 0.30163 0.93656
 C614 C 0.42610 0.31260 0.94744
 C615 C 0.43684 0.32408 0.94723
 C616 C 0.45596 0.33716 0.93835
 N617 N 0.45062 0.34477 0.95047
 C618 C 0.43885 0.33663 0.95589
 C619 C 0.41377 0.30998 0.95628
 N620 N 0.40644 0.29771 0.95099
 C621 C 0.41409 0.29254 0.93893
 C622 C 0.43947 0.29331 0.91287
 N623 N 0.45118 0.29906 0.90506
 C624 C 0.45635 0.31127 0.91254
 H625 H 0.46501 0.34063 0.93115
 H626 H 0.43194 0.33945 0.96537
 H627 H 0.41008 0.31689 0.96548
 H628 H 0.41094 0.28298 0.93221
 H629 H 0.43294 0.28361 0.90968
 H630 H 0.46530 0.31854 0.90881
 C631 C 0.94785 0.43669 0.32429
 C632 C 0.94769 0.42568 0.31313
 C633 C 0.93674 0.42591 0.30225
 C634 C 0.92583 0.43718 0.30235
 C635 C 0.92602 0.44803 0.31335
 C636 C 0.93713 0.44778 0.32438
 C637 C 0.95658 0.43872 0.33674
 N638 N 0.95147 0.45083 0.34456
 C639 C 0.93952 0.45638 0.33686
 C640 C 0.91365 0.45694 0.31126
 N641 N 0.90592 0.45176 0.29925
 C642 C 0.91335 0.43968 0.29374
 C643 C 0.93877 0.41344 0.29347
 N644 N 0.95070 0.40562 0.29873
 C645 C 0.95621 0.41307 0.31077
 H646 H 0.96587 0.43161 0.33972
 H647 H 0.93251 0.46566 0.34015
 H648 H 0.91045 0.46639 0.31811
 H649 H 0.90965 0.43280 0.28450
 H650 H 0.93195 0.41026 0.28401
 H651 H 0.96540 0.40933 0.31767
 C652 C 0.30071 0.93937 0.42738
 C653 C 0.30067 0.92823 0.43838
 C654 C 0.31180 0.92797 0.44907
 C655 C 0.32316 0.93884 0.44886
 C656 C 0.32320 0.94975 0.43801
 C657 C 0.31188 0.95002 0.42718
 C658 C 0.29185 0.94179 0.41511
 N659 N 0.29732 0.95370 0.40725
 C660 C 0.30963 0.95875 0.41477
 C661 C 0.33593 0.95819 0.44002
 N662 N 0.34380 0.95272 0.45188
 C663 C 0.33584 0.94082 0.45729
 C664 C 0.30946 0.91547 0.45772
 N665 N 0.29719 0.90810 0.45253
 C666 C 0.29175 0.91588 0.44070
 H667 H 0.28245 0.93482 0.41206
 H668 H 0.31678 0.96796 0.41157
 H669 H 0.33906 0.96752 0.43303
 H670 H 0.33905 0.93361 0.46640
 H671 H 0.31656 0.91171 0.46674
 H672 H 0.28211 0.91274 0.43411
 O673 O 0.20988 0.51926 0.74904
 O674 O 0.21458 0.51713 0.77444
 O675 O 0.24937 0.54003 0.73142
 O676 O 0.27396 0.53555 0.73084
 O677 O 0.23085 0.50080 0.71004
 O678 O 0.23181 0.47471 0.71540
 O679 O 0.28879 0.49922 0.76963
 O680 O 0.28454 0.52465 0.76697
 O681 O 0.25067 0.48036 0.78874
 O682 O 0.22379 0.48128 0.78345
 O683 O 0.26909 0.46077 0.75076
 O684 O 0.26856 0.46610 0.72422
 O685 O 0.28897 0.48124 0.75157
 O686 O 0.28360 0.48288 0.72393
 O687 O 0.25089 0.46047 0.76851
 O688 O 0.22335 0.46616 0.76681
 O689 O 0.26893 0.49817 0.78892
 O690 O 0.26395 0.52527 0.78424
 O691 O 0.20985 0.50102 0.73120
 O692 O 0.21551 0.47445 0.73219
 O693 O 0.24885 0.51888 0.71016
 O694 O 0.27586 0.51650 0.71641
 O695 O 0.23088 0.53986 0.74892
 O696 O 0.23404 0.53370 0.77573
 Zr697 Zr 0.23159 0.51811 0.75802
 O698 O 0.24453 0.50461 0.77227
 Zr699 Zr 0.25796 0.51811 0.73180
 O700 O 0.27220 0.50509 0.74523
 Zr701 Zr 0.23160 0.49182 0.73170
 O702 O 0.24489 0.47739 0.74468
 Zr703 Zr 0.26728 0.50841 0.76788
 O704 O 0.25440 0.52307 0.75451
 Zr705 Zr 0.24112 0.48187 0.76736
 O706 O 0.22668 0.49529 0.75435
 Zr707 Zr 0.26769 0.48231 0.74142
 O708 O 0.25440 0.49535 0.72681
 O709 O 0.23532 0.51447 0.73542
 O710 O 0.26387 0.48563 0.76406
 C711 C 0.20354 0.51152 0.73874
 C712 C 0.23880 0.54630 0.73884
 C713 C 0.23851 0.51121 0.70378
 C714 C 0.29506 0.48860 0.76229
 C715 C 0.26145 0.48751 0.79497
 C716 C 0.26166 0.45441 0.76122
 H717 H 0.24208 0.50699 0.78276
 H718 H 0.24252 0.46689 0.74209
 H719 H 0.22898 0.52091 0.72906
 H720 H 0.28274 0.50769 0.74307
 H721 H 0.27980 0.53415 0.76382
 H722 H 0.28150 0.53340 0.73860
 H723 H 0.22513 0.45931 0.75833
 H724 H 0.21035 0.47520 0.74193
 H725 H 0.27244 0.52483 0.79134
 H726 H 0.22611 0.54142 0.77486
 H727 H 0.25907 0.46039 0.72450
 H728 H 0.24189 0.47491 0.71082
 H729 H 0.21043 0.50685 0.77416
 H730 H 0.22453 0.49051 0.78952
 H731 H 0.27411 0.50736 0.71041
 H732 H 0.29060 0.49122 0.72593
 O733 O 0.26968 -0.04021 0.25176
 O734 O 0.26784 -0.03561 0.22635
 O735 O 0.28997 -0.00047 0.26952
 O736 O 0.28529 0.02411 0.26992
 O737 O 0.25071 -0.01924 0.29053
 O738 O 0.22469 -0.01847 0.28491
 O739 O 0.24928 0.03850 0.23069
 O740 O 0.27469 0.03447 0.23365
 O741 O 0.23092 0.00011 0.21153
 O742 O 0.23204 -0.02679 0.21697
 O743 O 0.21082 0.01858 0.24918
 O744 O 0.21584 0.01818 0.27580
 O745 O 0.23113 0.03861 0.24856
 O746 O 0.23249 0.03336 0.27625
 O747 O 0.21084 0.00028 0.23150
 O748 O 0.21669 -0.02721 0.23341
 O749 O 0.24857 0.01853 0.21149
 O750 O 0.27566 0.01379 0.21647
 O751 O 0.25127 -0.04034 0.26940
 O752 O 0.22470 -0.03486 0.26817
 O753 O 0.26861 -0.00106 0.29053
 O754 O 0.26609 0.02592 0.28416
 O755 O 0.29011 -0.01904 0.25208
 O756 O 0.28423 -0.01601 0.22518
 Zr757 Zr 0.26848 -0.01853 0.24273
 O758 O 0.25503 -0.00576 0.22828
 Zr759 Zr 0.26801 0.00796 0.26885
 O760 O 0.25501 0.02205 0.25523
 Zr761 Zr 0.24194 -0.01863 0.26878
 O762 O 0.22754 -0.00550 0.25558
 Zr763 Zr 0.25861 0.01705 0.23264
 O764 O 0.27322 0.00435 0.24621
 Zr765 Zr 0.23228 -0.00934 0.23296
 O766 O 0.24568 -0.02361 0.24618
 Zr767 Zr 0.23224 0.01737 0.25880
 O768 O 0.24523 0.00423 0.27361
 O769 O 0.26457 -0.01474 0.26528
 O770 O 0.23583 0.01347 0.23622
 C771 C 0.26187 -0.04660 0.26197
 C772 C 0.29639 -0.01103 0.26221
 C773 C 0.26099 -0.01146 0.29686
 C774 C 0.23854 0.04473 0.23789
 C775 C 0.23805 0.01094 0.20535
 C776 C 0.20464 0.01106 0.23866
 H777 H 0.25754 -0.00823 0.21783
 H778 H 0.21704 -0.00794 0.25806
 H779 H 0.27099 -0.02102 0.27172
 H780 H 0.25750 0.03262 0.25737
 H781 H 0.28419 0.02981 0.23692
 H782 H 0.28315 0.03162 0.26213
 H783 H 0.20974 -0.02545 0.24181
 H784 H 0.22556 -0.04003 0.25844
 H785 H 0.27521 0.02224 0.20933
 H786 H 0.29201 -0.02386 0.22618
 H787 H 0.21021 0.00864 0.27550
 H788 H 0.22476 -0.00835 0.28943
 H789 H 0.25758 -0.03982 0.22649
 H790 H 0.24126 -0.02592 0.21093
 H791 H 0.25690 0.02411 0.29006
 H792 H 0.24080 0.04042 0.27432
 O793 O 0.46066 0.75122 0.26977
 O794 O 0.46546 0.72572 0.26764
 O795 O 0.50018 0.76924 0.29008
 O796 O 0.52475 0.76985 0.28543
 O797 O 0.48133 0.79050 0.25119
 O798 O 0.48209 0.78503 0.22525
 O799 O 0.53951 0.73087 0.24911
 O800 O 0.53544 0.73358 0.27445
 O801 O 0.50134 0.71144 0.23067
 O802 O 0.47445 0.71662 0.23184
 O803 O 0.51944 0.74969 0.21104
 O804 O 0.51884 0.77637 0.21639
 O805 O 0.53948 0.74898 0.23122
 O806 O 0.53402 0.77674 0.23291
 O807 O 0.50131 0.73176 0.21089
 O808 O 0.47381 0.73333 0.21683
 O809 O 0.51972 0.71139 0.24824
 O810 O 0.51492 0.71613 0.27526
 O811 O 0.46041 0.76912 0.25164
 O812 O 0.46587 0.76807 0.22516
 O813 O 0.49948 0.79052 0.26900
 O814 O 0.52649 0.78433 0.26646
 O815 O 0.48180 0.75153 0.29008
 O816 O 0.48505 0.72457 0.28393
 Zr817 Zr 0.48240 0.74232 0.26844
 O818 O 0.49530 0.72802 0.25487
 Zr819 Zr 0.50865 0.76879 0.26821
 O820 O 0.52285 0.75533 0.25511
 Zr821 Zr 0.48209 0.76870 0.24229
 O822 O 0.49535 0.75569 0.22780
 Zr823 Zr 0.51805 0.73256 0.25845
 O824 O 0.50523 0.74596 0.27317
 Zr825 Zr 0.49171 0.73289 0.23228
 O826 O 0.47730 0.74592 0.24578
 Zr827 Zr 0.51817 0.75909 0.23250
 O828 O 0.50489 0.77374 0.24559
 O829 O 0.48600 0.76504 0.26478
 O830 O 0.51447 0.73633 0.23581
 C831 C 0.45421 0.76152 0.26214
 C832 C 0.48969 0.76174 0.29641
 C833 C 0.48906 0.79686 0.26146
 C834 C 0.54568 0.73826 0.23848
 C835 C 0.51219 0.70525 0.23769
 C836 C 0.51200 0.73914 0.20477
 H837 H 0.49291 0.71748 0.25726
 H838 H 0.49289 0.75827 0.21738
 H839 H 0.47968 0.77142 0.27124
 H840 H 0.53340 0.75756 0.25760
 H841 H 0.53076 0.73674 0.28394
 H842 H 0.53232 0.76210 0.28321
 H843 H 0.47549 0.74185 0.21000
 H844 H 0.46074 0.75827 0.22597
 H845 H 0.52343 0.70903 0.27473
 H846 H 0.47719 0.72544 0.29170
 H847 H 0.50933 0.77602 0.21076
 H848 H 0.49216 0.78967 0.22534
 H849 H 0.46126 0.72593 0.25745
 H850 H 0.47528 0.71056 0.24103
 H851 H 0.52467 0.79031 0.25736
 H852 H 0.54109 0.77477 0.24116
 O853 O -0.00032 0.76936 0.78992
 O854 O 0.02515 0.76738 0.78504
 O855 O -0.01832 0.79036 0.75091
 O856 O -0.01912 0.78601 0.72640
 O857 O -0.03955 0.75092 0.76920
 O858 O -0.03410 0.72486 0.76791
 O859 O 0.01998 0.74999 0.71101
 O860 O 0.01720 0.77536 0.71550
 O861 O 0.03945 0.73094 0.74865
 O862 O 0.03427 0.73163 0.77547
 O863 O 0.00126 0.71130 0.73040
 O864 O -0.02536 0.71649 0.73112
 O865 O 0.00191 0.73194 0.71080
 O866 O -0.02587 0.73344 0.71638
 O867 O 0.01920 0.71095 0.74838
 O868 O 0.01765 0.71642 0.77585
 O869 O 0.03946 0.74889 0.73066
 O870 O 0.03465 0.77593 0.73590
 O871 O -0.01816 0.75104 0.78993
 O872 O -0.01712 0.72452 0.78400
 O873 O -0.03962 0.76913 0.75145
 O874 O -0.03351 0.76692 0.72446
 O875 O -0.00064 0.79012 0.76919
 O876 O 0.02629 0.78407 0.76582
 Zr877 Zr 0.00855 0.76841 0.76823
 O878 O 0.02285 0.75505 0.75511
 Zr879 Zr -0.01794 0.76849 0.74217
 O880 O -0.00448 0.75563 0.72777
 Zr881 Zr -0.01778 0.74202 0.76817
 O882 O -0.00476 0.72774 0.75469
 Zr883 Zr 0.01828 0.75901 0.73254
 O884 O 0.00487 0.77352 0.74559
 Zr885 Zr 0.01802 0.73227 0.75832
 O886 O 0.00498 0.74554 0.77293
 Zr887 Zr -0.00818 0.73280 0.73206
 O888 O -0.02284 0.74568 0.74554
 O889 O -0.01415 0.76470 0.76465
 O890 O 0.01456 0.73618 0.73573
 C891 C -0.01058 0.76152 0.79625
 C892 C -0.01081 0.79659 0.76142
 C893 C -0.04592 0.76138 0.76174
 C894 C 0.01261 0.73939 0.70472
 C895 C 0.04563 0.73821 0.73796
 C896 C 0.01184 0.70493 0.73767
 H897 H 0.03338 0.75746 0.75750
 H898 H -0.00731 0.71721 0.75697
 H899 H -0.02051 0.77109 0.77108
 H900 H -0.00672 0.75829 0.71732
 H901 H 0.01402 0.78481 0.72033
 H902 H -0.01132 0.78399 0.71885
 H903 H 0.00912 0.70956 0.77410
 H904 H -0.00731 0.72527 0.78908
 H905 H 0.04174 0.77559 0.72740
 H906 H 0.02542 0.79174 0.77379
 H907 H -0.02511 0.71081 0.74057
 H908 H -0.03878 0.72514 0.75791
 H909 H 0.02494 0.75706 0.78906
 H910 H 0.04033 0.74088 0.77476
 H911 H -0.03951 0.75776 0.72620
 H912 H -0.02390 0.74181 0.70944
 O913 O -0.01983 -0.04045 -0.00148
 O914 O -0.01800 -0.03585 0.02395
 O915 O -0.04018 -0.00076 -0.01910
 O916 O -0.03552 0.02384 -0.01945
 O917 O -0.00092 -0.01939 -0.04020
 O918 O 0.02510 -0.01853 -0.03459
 O919 O 0.00049 0.03835 0.01977
 O920 O -0.02492 0.03420 0.01687
 O921 O 0.01894 0.00002 0.03883
 O922 O 0.01782 -0.02688 0.03335
 O923 O 0.03897 0.01854 0.00121
 O924 O 0.03392 0.01814 -0.02541
 O925 O 0.01863 0.03852 0.00189
 O926 O 0.01726 0.03326 -0.02579
 O927 O 0.03897 0.00022 0.01882
 O928 O 0.03311 -0.02729 0.01687
 O929 O 0.00128 0.01838 0.03895
 O930 O -0.02581 0.01352 0.03401
 O931 O -0.00143 -0.04049 -0.01914
 O932 O 0.02512 -0.03492 -0.01790
 O933 O -0.01884 -0.00128 -0.04014
 O934 O -0.01634 0.02571 -0.03369
 O935 O -0.04031 -0.01934 -0.00173
 O936 O -0.03440 -0.01630 0.02518
 Zr937 Zr -0.01866 -0.01876 0.00761
 O938 O -0.00521 -0.00595 0.02209
 Zr939 Zr -0.01823 0.00774 -0.01843
 O940 O -0.00523 0.02186 -0.00478
 Zr941 Zr 0.00786 -0.01876 -0.01845
 O942 O 0.02226 -0.00559 -0.00523
 Zr943 Zr -0.00880 0.01685 0.01781
 O944 O -0.02342 0.00411 0.00421
 Zr945 Zr 0.01753 -0.00945 0.01738
 O946 O 0.00414 -0.02376 0.00413
 Zr947 Zr 0.01753 0.01727 -0.00839
 O948 O 0.00455 0.00409 -0.02322
 O949 O -0.01477 -0.01495 -0.01492
 O950 O 0.01397 0.01335 0.01419
 C951 C -0.01202 -0.04680 -0.01172
 C952 C -0.04659 -0.01135 -0.01182
 C953 C -0.01121 -0.01165 -0.04650
 C954 C 0.01121 0.04461 0.01257
 C955 C 0.01183 0.01083 0.04505
 C956 C 0.04517 0.01102 0.01169
 H957 H -0.00770 -0.00843 0.03254
 H958 H 0.03275 -0.00799 -0.00773
 H959 H -0.02119 -0.02125 -0.02138
 H960 H -0.00774 0.03243 -0.00689
 H961 H -0.03441 0.02950 0.01360
 H962 H -0.03340 0.03133 -0.01161
 H963 H 0.04007 -0.02550 0.00848
 H964 H 0.02427 -0.04011 -0.00820
 H965 H -0.02536 0.02198 0.04117
 H966 H -0.04218 -0.02418 0.02416
 H967 H 0.03956 0.00862 -0.02513
 H968 H 0.02501 -0.00841 -0.03910
 H969 H -0.00773 -0.04001 0.02380
 H970 H 0.00859 -0.02606 0.03939
 H971 H -0.00716 0.02394 -0.03962
 H972 H 0.00893 0.04028 -0.02385
 O973 O 0.03955 0.51992 0.50054
 O974 O 0.03499 0.51784 0.47512
 O975 O -0.00003 0.54059 0.51804
 O976 O -0.02463 0.53604 0.51847
 O977 O 0.01838 0.50139 0.53937
 O978 O 0.01740 0.47531 0.53393
 O979 O -0.03924 0.49978 0.47941
 O980 O -0.03500 0.52518 0.48221
 O981 O -0.00099 0.48101 0.46047
 O982 O 0.02586 0.48197 0.46595
 O983 O -0.01967 0.46131 0.49825
 O984 O -0.01933 0.46657 0.52479
 O985 O -0.03954 0.48177 0.49741
 O986 O -0.03431 0.48336 0.52511
 O987 O -0.00136 0.46108 0.48061
 O988 O 0.02616 0.46681 0.48252
 O989 O -0.01923 0.49878 0.46025
 O990 O -0.01429 0.52589 0.46508
 O991 O 0.03948 0.50165 0.51831
 O992 O 0.03379 0.47507 0.51721
 O993 O 0.00038 0.51942 0.53922
 O994 O -0.02661 0.51696 0.53281
 O995 O 0.01857 0.54048 0.50065
 O996 O 0.01554 0.53436 0.47379
 Zr997 Zr 0.01789 0.51875 0.49146
 O998 O 0.00504 0.50523 0.47708
 Zr999 Zr -0.00863 0.51865 0.51752
 O1000 O -0.02279 0.50562 0.50395
 Zr1001 Zr 0.01772 0.49242 0.51768
 O1002 O 0.00450 0.47798 0.50456
 Zr1003 Zr -0.01773 0.50899 0.48135
 O1004 O -0.00494 0.52366 0.49486
 Zr1005 Zr 0.00842 0.48250 0.48192
 O1006 O 0.02278 0.49594 0.49507
 Zr1007 Zr -0.01832 0.48284 0.50769
 O1008 O -0.00510 0.49588 0.52244
 O1009 O 0.01403 0.51506 0.51402
 O1010 O -0.01436 0.48620 0.48509
 C1011 C 0.04584 0.51218 0.51084
 C1012 C 0.01059 0.54689 0.51071
 C1013 C 0.01070 0.51179 0.54562
 C1014 C -0.04557 0.48914 0.48668
 C1015 C -0.01172 0.48816 0.45420
 C1016 C -0.01218 0.45498 0.48780
 H1017 H 0.00756 0.50764 0.46661
 H1018 H 0.00685 0.46748 0.50713
 H1019 H 0.02034 0.52151 0.52043
 H1020 H -0.03334 0.50819 0.50606
 H1021 H -0.03028 0.53469 0.48544
 H1022 H -0.03212 0.53390 0.51065
 H1023 H 0.02432 0.45994 0.49097
 H1024 H 0.03902 0.47584 0.50751
 H1025 H -0.02273 0.52544 0.45792
 H1026 H 0.02347 0.54210 0.47475
 H1027 H -0.00981 0.46095 0.52461
 H1028 H 0.00729 0.47549 0.53845
 H1029 H 0.03914 0.50757 0.47538
 H1030 H 0.02515 0.49120 0.45990
 H1031 H -0.02487 0.50783 0.53880
 H1032 H -0.04132 0.49168 0.52309
 O1033 O 0.53991 0.01943 0.50081
 O1034 O 0.53496 0.01744 0.47544
 O1035 O 0.50053 0.03985 0.51902
 O1036 O 0.47598 0.03518 0.51996
 O1037 O 0.51948 0.00054 0.53983
 O1038 O 0.51845 -0.02552 0.53421
 O1039 O 0.46083 -0.00082 0.48084
 O1040 O 0.46504 0.02458 0.48378
 O1041 O 0.49879 -0.01930 0.46111
 O1042 O 0.52574 -0.01832 0.46615
 O1043 O 0.48085 -0.03937 0.49908
 O1044 O 0.48160 -0.03430 0.52563
 O1045 O 0.46088 -0.01896 0.49871
 O1046 O 0.46659 -0.01754 0.52633
 O1047 O 0.49884 -0.03941 0.48112
 O1048 O 0.52635 -0.03362 0.48256
 O1049 O 0.48051 -0.00157 0.46133
 O1050 O 0.48545 0.02550 0.46630
 O1051 O 0.54020 0.00101 0.51842
 O1052 O 0.53458 -0.02558 0.51722
 O1053 O 0.50144 0.01854 0.54010
 O1054 O 0.47434 0.01601 0.53416
 O1055 O 0.51884 0.03991 0.50132
 O1056 O 0.51546 0.03393 0.47451
 Zr1057 Zr 0.51812 0.01822 0.49205
 O1058 O 0.50505 0.00479 0.47779
 Zr1059 Zr 0.49204 0.01787 0.51856
 O1060 O 0.47768 0.00490 0.50514
 Zr1061 Zr 0.51846 -0.00828 0.51809
 O1062 O 0.50506 -0.02266 0.50508
 Zr1063 Zr 0.48234 0.00845 0.48249
 O1064 O 0.49533 0.02304 0.49587
 Zr1065 Zr 0.50856 -0.01797 0.48241
 O1066 O 0.52312 -0.00460 0.49542
 Zr1067 Zr 0.48228 -0.01789 0.50864
 O1068 O 0.49571 -0.00492 0.52326
 O1069 O 0.51465 0.01438 0.51465
 O1070 O 0.48584 -0.01436 0.48600
 C1071 C 0.54639 0.01162 0.51094
 C1072 C 0.51099 0.04624 0.51153
 C1073 C 0.51190 0.01089 0.54627
 C1074 C 0.45465 -0.01153 0.48814
 C1075 C 0.48795 -0.01212 0.45506
 C1076 C 0.48819 -0.04560 0.48847
 H1077 H 0.50738 0.00728 0.46731
 H1078 H 0.50748 -0.03317 0.50753
 H1079 H 0.52104 0.02081 0.52099
 H1080 H 0.46716 0.00743 0.50745
 H1081 H 0.46979 0.03408 0.48699
 H1082 H 0.46840 0.03311 0.51221
 H1083 H 0.52472 -0.04052 0.49103
 H1084 H 0.53962 -0.02472 0.50744
 H1085 H 0.47689 0.02510 0.45929
 H1086 H 0.52339 0.04168 0.47538
 H1087 H 0.49116 -0.03985 0.52529
 H1088 H 0.50843 -0.02536 0.53893
 H1089 H 0.53915 0.00719 0.47560
 H1090 H 0.52490 -0.00905 0.46019
 H1091 H 0.47623 0.00684 0.54006
 H1092 H 0.45953 -0.00923 0.52449
 O1093 O 0.50059 0.54020 0.01897
 O1094 O 0.47508 0.53541 0.01685
 O1095 O 0.51832 0.50080 0.03966
 O1096 O 0.51878 0.47615 0.03522
 O1097 O 0.53983 0.51926 0.00071
 O1098 O 0.53450 0.51823 -0.02526
 O1099 O 0.47991 0.46118 -0.00113
 O1100 O 0.48258 0.46542 0.02419
 O1101 O 0.46081 0.49930 -0.01984
 O1102 O 0.46615 0.52621 -0.01885
 O1103 O 0.49900 0.48093 -0.03929
 O1104 O 0.52568 0.48149 -0.03385
 O1105 O 0.49809 0.46103 -0.01897
 O1106 O 0.52583 0.46638 -0.01727
 O1107 O 0.48118 0.49911 -0.03959
 O1108 O 0.48286 0.52665 -0.03387
 O1109 O 0.46057 0.48106 -0.00213
 O1110 O 0.46525 0.48602 0.02485
 O1111 O 0.51857 0.54024 0.00088
 O1112 O 0.51765 0.53453 -0.02554
 O1113 O 0.53967 0.50123 0.01865
 O1114 O 0.53337 0.47422 0.01630
 O1115 O 0.50073 0.51926 0.03947
 O1116 O 0.47381 0.51597 0.03332
 Zr1117 Zr 0.49160 0.51845 0.01782
 O1118 O 0.47731 0.50547 0.00433
 Zr1119 Zr 0.51791 0.49211 0.01786
 O1120 O 0.50445 0.47782 0.00483
 Zr1121 Zr 0.51809 0.51845 -0.00827
 O1122 O 0.50507 0.50513 -0.02268
 Zr1123 Zr 0.48170 0.48271 0.00809
 O1124 O 0.49510 0.49563 0.02274
 Zr1125 Zr 0.48228 0.50888 -0.01827
 O1126 O 0.49534 0.52335 -0.00486
 Zr1127 Zr 0.50832 0.48232 -0.01781
 O1128 O 0.52298 0.49565 -0.00478
 O1129 O 0.51430 0.51475 0.01424
 O1130 O 0.48558 0.48612 -0.01457
 C1131 C 0.51095 0.54655 0.01130
 C1132 C 0.51087 0.51140 0.04589
 C1133 C 0.54609 0.51160 0.01106
 C1134 C 0.48730 0.45491 -0.01171
 C1135 C 0.45452 0.48853 -0.01274
 C1136 C 0.48851 0.48836 -0.04563
 H1137 H 0.46677 0.50791 0.00669
 H1138 H 0.50770 0.50750 -0.03312
 H1139 H 0.52069 0.52113 0.02066
 H1140 H 0.50660 0.46728 0.00740
 H1141 H 0.48573 0.47017 0.03366
 H1142 H 0.51107 0.46853 0.03299
 H1143 H 0.49141 0.52490 -0.04066
 H1144 H 0.50787 0.53968 -0.02482
 H1145 H 0.45812 0.47751 0.02438
 H1146 H 0.47468 0.52392 0.04101
 H1147 H 0.52536 0.49094 -0.03958
 H1148 H 0.53909 0.50815 -0.02504
 H1149 H 0.47538 0.53956 0.00663
 H1150 H 0.46001 0.52543 -0.00971
 H1151 H 0.53937 0.47592 0.00718
 H1152 H 0.52383 0.45941 -0.00894
 O1153 O 0.76927 0.28965 0.49973
 O1154 O 0.76730 0.28491 0.52517
 O1155 O 0.78993 0.25027 0.48186
 O1156 O 0.78547 0.22562 0.48131
 O1157 O 0.75057 0.26870 0.46089
 O1158 O 0.72451 0.26757 0.46649
 O1159 O 0.74947 0.21059 0.52040
 O1160 O 0.77484 0.21492 0.51747
 O1161 O 0.73076 0.24866 0.53976
 O1162 O 0.73162 0.27558 0.53450
 O1163 O 0.71086 0.23026 0.50191
 O1164 O 0.71601 0.23079 0.47533
 O1165 O 0.73135 0.21039 0.50251
 O1166 O 0.73276 0.21579 0.47487
 O1167 O 0.71069 0.24845 0.51970
 O1168 O 0.71636 0.27598 0.51804
 O1169 O 0.74859 0.23047 0.53973
 O1170 O 0.77562 0.23552 0.53476
 O1171 O 0.75090 0.28965 0.48206
 O1172 O 0.72437 0.28390 0.48331
 O1173 O 0.76866 0.25075 0.46081
 O1174 O 0.76632 0.22370 0.46700
 O1175 O 0.78986 0.26874 0.49941
 O1176 O 0.78392 0.26552 0.52626
 Zr1177 Zr 0.76820 0.26793 0.50870
 O1178 O 0.75483 0.25490 0.52306
 Zr1179 Zr 0.76804 0.24157 0.48244
 O1180 O 0.75513 0.22726 0.49596
 Zr1181 Zr 0.74174 0.26786 0.48262
 O1182 O 0.72743 0.25450 0.49573
 Zr1183 Zr 0.75862 0.23216 0.51858
 O1184 O 0.77316 0.24512 0.50510
 Zr1185 Zr 0.73207 0.25825 0.51838
 O1186 O 0.74537 0.27277 0.50525
 Zr1187 Zr 0.73233 0.23170 0.49239
 O1188 O 0.74524 0.24506 0.47767
 O1189 O 0.76439 0.26420 0.48614
 O1190 O 0.73581 0.23550 0.51500
 C1191 C 0.76147 0.29598 0.48949
 C1192 C 0.79623 0.26087 0.48924
 C1193 C 0.76097 0.26111 0.45454
 C1194 C 0.73880 0.20429 0.51314
 C1195 C 0.73799 0.23791 0.54591
 C1196 C 0.70457 0.23769 0.51243
 H1197 H 0.75730 0.25735 0.53352
 H1198 H 0.71692 0.25684 0.49324
 H1199 H 0.77078 0.27058 0.47974
 H1200 H 0.75771 0.21672 0.49376
 H1201 H 0.78430 0.21970 0.51422
 H1202 H 0.78334 0.21801 0.48901
 H1203 H 0.70950 0.27425 0.50956
 H1204 H 0.72520 0.28907 0.49304
 H1205 H 0.77525 0.22701 0.54185
 H1206 H 0.79161 0.27351 0.52533
 H1207 H 0.71033 0.24029 0.47564
 H1208 H 0.72475 0.25751 0.46184
 H1209 H 0.75704 0.28907 0.52494
 H1210 H 0.74089 0.27485 0.54047
 H1211 H 0.75713 0.22543 0.46110
 H1212 H 0.74115 0.20883 0.47676
 O1213 O 0.75037 0.76980 -0.04004
 O1214 O 0.72488 0.76798 -0.03509
 O1215 O 0.76878 0.79044 -0.00102
 O1216 O 0.76957 0.78603 0.02346
 O1217 O 0.78946 0.75082 -0.01957
 O1218 O 0.78365 0.72485 -0.01851
 O1219 O 0.73015 0.75027 0.03882
 O1220 O 0.73321 0.77563 0.03447
 O1221 O 0.71031 0.73153 0.00115
 O1222 O 0.71535 0.73227 -0.02567
 O1223 O 0.74835 0.71150 0.01910
 O1224 O 0.77506 0.71649 0.01828
 O1225 O 0.74801 0.73205 0.03883
 O1226 O 0.77577 0.73333 0.03317
 O1227 O 0.73034 0.71136 0.00119
 O1228 O 0.73183 0.71695 -0.02626
 O1229 O 0.71058 0.74942 0.01925
 O1230 O 0.71567 0.77644 0.01415
 O1231 O 0.76801 0.75134 -0.04024
 O1232 O 0.76659 0.72478 -0.03453
 O1233 O 0.78981 0.76897 -0.00171
 O1234 O 0.78376 0.76680 0.02526
 O1235 O 0.75098 0.79044 -0.01919
 O1236 O 0.72400 0.78462 -0.01576
 Zr1237 Zr 0.74155 0.76881 -0.01834
 O1238 O 0.72716 0.75553 -0.00524
 Zr1239 Zr 0.76815 0.76856 0.00761
 O1240 O 0.75460 0.75576 0.02199
 Zr1241 Zr 0.76756 0.74219 -0.01856
 O1242 O 0.75445 0.72797 -0.00511
 Zr1243 Zr 0.73186 0.75936 0.01734
 O1244 O 0.74538 0.77380 0.00432
 Zr1245 Zr 0.73170 0.73272 -0.00861
 O1246 O 0.74482 0.74593 -0.02319
 Zr1247 Zr 0.75803 0.73292 0.01754
 O1248 O 0.77276 0.74571 0.00407
 O1249 O 0.76422 0.76489 -0.01488
 O1250 O 0.73531 0.73651 0.01399
 C1251 C 0.76054 0.76193 -0.04646
 C1252 C 0.76128 0.79678 -0.01146
 C1253 C 0.79599 0.76117 -0.01205
 C1254 C 0.73742 0.73957 0.04501
 C1255 C 0.70427 0.73881 0.01192
 C1256 C 0.73768 0.70524 0.01184
 H1257 H 0.71664 0.75804 -0.00757
 H1258 H 0.75687 0.71743 -0.00746
 H1259 H 0.77065 0.77123 -0.02128
 H1260 H 0.75691 0.75836 0.03245
 H1261 H 0.73646 0.78508 0.02968
 H1262 H 0.76180 0.78404 0.03104
 H1263 H 0.74028 0.71001 -0.02458
 H1264 H 0.75679 0.72570 -0.03958
 H1265 H 0.70862 0.77613 0.02268
 H1266 H 0.72492 0.79231 -0.02368
 H1267 H 0.77462 0.71076 0.00885
 H1268 H 0.78834 0.72498 -0.00852
 H1269 H 0.72497 0.75769 -0.03919
 H1270 H 0.70944 0.74161 -0.02492
 H1271 H 0.78962 0.75757 0.02348
 H1272 H 0.77393 0.74169 0.04017
 O1273 O 1.00087 0.20969 0.23096
 O1274 O 0.97537 0.21448 0.23316
 O1275 O 1.01877 0.24911 0.21040
 O1276 O 1.01947 0.27372 0.21493
 O1277 O 1.04013 0.23045 0.24934
 O1278 O 1.03474 0.23143 0.27531
 O1279 O 0.98057 0.28872 0.25117
 O1280 O 0.98323 0.28446 0.22585
 O1281 O 0.96118 0.25068 0.26989
 O1282 O 0.96634 0.22374 0.26887
 O1283 O 0.99942 0.26891 0.28935
 O1284 O 1.02606 0.26827 0.28401
 O1285 O 0.99870 0.28881 0.26904
 O1286 O 1.02646 0.28329 0.26733
 O1287 O 0.98151 0.25078 0.28964
 O1288 O 0.98306 0.22322 0.28388
 O1289 O 0.96111 0.26895 0.25221
 O1290 O 0.96577 0.26393 0.22522
 O1291 O 1.01879 0.20955 0.24907
 O1292 O 1.01776 0.21519 0.27554
 O1293 O 1.04009 0.24848 0.23141
 O1294 O 1.03396 0.27555 0.23386
 O1295 O 1.00108 0.23071 0.21054
 O1296 O 0.97416 0.23397 0.21673
 Zr1297 Zr 0.99194 0.23144 0.23220
 O1298 O 0.97769 0.24444 0.24570
 Zr1299 Zr 1.01841 0.25771 0.23223
 O1300 O 1.00499 0.27201 0.24525
 Zr1301 Zr 1.01838 0.23131 0.25831
 O1302 O 1.00540 0.24467 0.27273
 Zr1303 Zr 0.98223 0.26718 0.24197
 O1304 O 0.99559 0.25425 0.22732
 Zr1305 Zr 0.98260 0.24100 0.26831
 O1306 O 0.99560 0.22649 0.25488
 Zr1307 Zr 1.00879 0.26747 0.26789
 O1308 O 1.02340 0.25410 0.25486
 O1309 O 1.01466 0.23507 0.23580
 O1310 O 0.98604 0.26375 0.26462
 C1311 C 1.01120 0.20329 0.23859
 C1312 C 1.01126 0.23857 0.20414
 C1313 C 1.04644 0.23808 0.23898
 C1314 C 0.98797 0.29496 0.26175
 C1315 C 0.95499 0.26151 0.26282
 C1316 C 0.98888 0.26152 0.29568
 H1317 H 0.96714 0.24204 0.24335
 H1318 H 1.00799 0.24228 0.28316
 H1319 H 1.02101 0.22870 0.22935
 H1320 H 1.00721 0.28255 0.24269
 H1321 H 0.98636 0.27970 0.21638
 H1322 H 1.01170 0.28129 0.21709
 H1323 H 0.99160 0.22494 0.29068
 H1324 H 1.00797 0.21005 0.27476
 H1325 H 0.95868 0.27246 0.22569
 H1326 H 0.97501 0.22604 0.20902
 H1327 H 1.02577 0.25876 0.28963
 H1328 H 1.03940 0.24150 0.27512
 H1329 H 0.97563 0.21033 0.24337
 H1330 H 0.96026 0.22452 0.25970
 H1331 H 1.03999 0.27374 0.24294
 H1332 H 1.02446 0.29034 0.25907
 O1333 O 0.74991 1.03974 0.73029
 O1334 O 0.77538 1.03485 0.73240
 O1335 O 0.73188 1.00025 0.70982
 O1336 O 0.73115 0.97565 0.71441
 O1337 O 0.71058 1.01914 0.74873
 O1338 O 0.71595 1.01823 0.77470
 O1339 O 0.77005 0.96075 0.75065
 O1340 O 0.76735 0.96485 0.72534
 O1341 O 0.78952 0.99891 0.76916
 O1342 O 0.78435 1.02583 0.76811
 O1343 O 0.75125 0.98082 0.78880
 O1344 O 0.72459 0.98146 0.78349
 O1345 O 0.75192 0.96079 0.76854
 O1346 O 0.72419 0.96632 0.76690
 O1347 O 0.76921 0.99891 0.78899
 O1348 O 0.76769 1.02642 0.78318
 O1349 O 0.78956 0.98055 0.75153
 O1350 O 0.78482 0.98536 0.72454
 O1351 O 0.73201 1.03999 0.74845
 O1352 O 0.73293 1.03444 0.77490
 O1353 O 0.71056 1.00102 0.73085
 O1354 O 0.71663 0.97396 0.73338
 O1355 O 0.74959 1.01863 0.70989
 O1356 O 0.77650 1.01529 0.71601
 Zr1357 Zr 0.75875 1.01795 0.73153
 O1358 O 0.77298 1.00499 0.74503
 Zr1359 Zr 0.73223 0.99174 0.73167
 O1360 O 0.74563 0.97748 0.74471
 Zr1361 Zr 0.73233 1.01826 0.75769
 O1362 O 0.74530 1.00496 0.77212
 Zr1363 Zr 0.76840 0.98224 0.74137
 O1364 O 0.75506 0.99512 0.72672
 Zr1365 Zr 0.76810 1.00857 0.76764
 O1366 O 0.75511 1.02302 0.75420
 Zr1367 Zr 0.74186 0.98214 0.76735
 O1368 O 0.72726 0.99546 0.75431
 O1369 O 0.73603 1.01439 0.73518
 O1370 O 0.76462 0.98580 0.76403
 C1371 C 0.73964 1.04620 0.73797
 C1372 C 0.73940 1.01075 0.70353
 C1373 C 0.70424 1.01148 0.73840
 C1374 C 0.76264 0.95458 0.76126
 C1375 C 0.79571 0.98807 0.76208
 C1376 C 0.76181 0.98823 0.79509
 H1377 H 0.78353 1.00737 0.74264
 H1378 H 0.74271 1.00741 0.78255
 H1379 H 0.72969 1.02076 0.72874
 H1380 H 0.74339 0.96693 0.74219
 H1381 H 0.76420 0.96955 0.71586
 H1382 H 0.73886 0.96803 0.71662
 H1383 H 0.75915 1.02475 0.79000
 H1384 H 0.74275 1.03952 0.77415
 H1385 H 0.79190 0.97683 0.72502
 H1386 H 0.77567 1.02319 0.70829
 H1387 H 0.72491 0.99100 0.78910
 H1388 H 0.71127 1.00817 0.77452
 H1389 H 0.77513 1.03908 0.74260
 H1390 H 0.79045 1.02498 0.75894
 H1391 H 0.71063 0.97581 0.74248
 H1392 H 0.72614 0.95927 0.75861
 O1393 O 0.73109 0.50150 0.20994
 O1394 O 0.73302 0.47593 0.21452
 O1395 O 0.71017 0.51919 0.24918
 O1396 O 0.71451 0.51965 0.27370
 O1397 O 0.74962 0.54050 0.23107
 O1398 O 0.77565 0.53496 0.23221
 O1399 O 0.75051 0.48039 0.28856
 O1400 O 0.72513 0.48324 0.28417
 O1401 O 0.76952 0.46124 0.25068
 O1402 O 0.76871 0.46662 0.22390
 O1403 O 0.78916 0.49924 0.26922
 O1404 O 0.78396 0.52595 0.26880
 O1405 O 0.76860 0.49842 0.28890
 O1406 O 0.76714 0.52624 0.28370
 O1407 O 0.78948 0.48146 0.25102
 O1408 O 0.78393 0.48326 0.22360
 O1409 O 0.75159 0.46110 0.26872
 O1410 O 0.72454 0.46595 0.26359
 O1411 O 0.74941 0.51933 0.21009
 O1412 O 0.77591 0.51814 0.21589
 O1413 O 0.73144 0.54043 0.24887
 O1414 O 0.73363 0.53405 0.27576
 O1415 O 0.71037 0.50165 0.23072
 O1416 O 0.71635 0.47465 0.23377
 Zr1417 Zr 0.73204 0.49238 0.23152
 O1418 O 0.74537 0.47793 0.24444
 Zr1419 Zr 0.73202 0.51864 0.25788
 O1420 O 0.74488 0.50502 0.27209
 Zr1421 Zr 0.75846 0.51868 0.23181
 O1422 O 0.77273 0.50550 0.24508
 Zr1423 Zr 0.74146 0.48230 0.26708
 O1424 O 0.72697 0.49586 0.25422
 Zr1425 Zr 0.76814 0.48274 0.24120
 O1426 O 0.75489 0.49596 0.22679
 Zr1427 Zr 0.76769 0.50873 0.26776
 O1428 O 0.75482 0.52354 0.25450
 O1429 O 0.73579 0.51506 0.23535
 O1430 O 0.76427 0.48602 0.26384
 C1431 C 0.73891 0.51183 0.20371
 C1432 C 0.70393 0.51179 0.23859
 C1433 C 0.73919 0.54682 0.23863
 C1434 C 0.76115 0.48767 0.29489
 C1435 C 0.76227 0.45499 0.26135
 C1436 C 0.79551 0.48872 0.26180
 H1437 H 0.74295 0.46741 0.24195
 H1438 H 0.78324 0.50806 0.24279
 H1439 H 0.72942 0.52150 0.22902
 H1440 H 0.74224 0.50716 0.28258
 H1441 H 0.71569 0.48648 0.27939
 H1442 H 0.71657 0.51182 0.28120
 H1443 H 0.79079 0.49177 0.22541
 H1444 H 0.77512 0.50839 0.21070
 H1445 H 0.72490 0.45878 0.27201
 H1446 H 0.70868 0.47562 0.22584
 H1447 H 0.78973 0.52567 0.25939
 H1448 H 0.77539 0.53955 0.24225
 H1449 H 0.74333 0.47615 0.21048
 H1450 H 0.75947 0.46055 0.22460
 H1451 H 0.74282 0.54003 0.27410
 H1452 H 0.75873 0.52425 0.29060
 O1453 O 0.50089 0.21056 0.72995
 O1454 O 0.47539 0.21528 0.73200
 O1455 O 0.51880 0.25012 0.70959
 O1456 O 0.51941 0.27470 0.71418
 O1457 O 0.54000 0.23143 0.74863
 O1458 O 0.53445 0.23227 0.77454
 O1459 O 0.48022 0.28949 0.75026
 O1460 O 0.48304 0.28530 0.72495
 O1461 O 0.46088 0.25132 0.76878
 O1462 O 0.46613 0.22443 0.76775
 O1463 O 0.49897 0.26965 0.78848
 O1464 O 0.52563 0.26912 0.78328
 O1465 O 0.49827 0.28958 0.76821
 O1466 O 0.52607 0.28416 0.76662
 O1467 O 0.48110 0.25147 0.78863
 O1468 O 0.48280 0.22390 0.78282
 O1469 O 0.46082 0.26963 0.75114
 O1470 O 0.46566 0.26471 0.72416
 O1471 O 0.51871 0.21044 0.74816
 O1472 O 0.51753 0.21601 0.77464
 O1473 O 0.54002 0.24951 0.73074
 O1474 O 0.53376 0.27654 0.73321
 O1475 O 0.50116 0.23167 0.70958
 O1476 O 0.47420 0.23482 0.71565
 Zr1477 Zr 0.49191 0.23229 0.73120
 O1478 O 0.47754 0.24521 0.74467
 Zr1479 Zr 0.51829 0.25864 0.73144
 O1480 O 0.50475 0.27287 0.74442
 Zr1481 Zr 0.51819 0.23217 0.75745
 O1482 O 0.50510 0.24546 0.77184
 Zr1483 Zr 0.48201 0.26798 0.74101
 O1484 O 0.49551 0.25513 0.72640
 Zr1485 Zr 0.48234 0.24173 0.76729
 O1486 O 0.49545 0.22730 0.75389
 Zr1487 Zr 0.50845 0.26829 0.76707
 O1488 O 0.52317 0.25499 0.75409
 O1489 O 0.51459 0.23598 0.73493
 O1490 O 0.48573 0.26450 0.76368
 C1491 C 0.51118 0.20417 0.73765
 C1492 C 0.51134 0.23959 0.70326
 C1493 C 0.54636 0.23913 0.73835
 C1494 C 0.48755 0.29572 0.76089
 C1495 C 0.45468 0.26213 0.76170
 C1496 C 0.48842 0.26222 0.79474
 H1497 H 0.46702 0.24278 0.74225
 H1498 H 0.50765 0.24306 0.78228
 H1499 H 0.52101 0.22965 0.72850
 H1500 H 0.50695 0.28342 0.74190
 H1501 H 0.48624 0.28058 0.71548
 H1502 H 0.51157 0.28221 0.71629
 H1503 H 0.49127 0.22567 0.78970
 H1504 H 0.50775 0.21085 0.77379
 H1505 H 0.45854 0.27321 0.72462
 H1506 H 0.47512 0.22693 0.70790
 H1507 H 0.52534 0.25959 0.78888
 H1508 H 0.53906 0.24236 0.77445
 H1509 H 0.47558 0.21112 0.74221
 H1510 H 0.46013 0.22517 0.75853
 H1511 H 0.53975 0.27474 0.74230
 H1512 H 0.52407 0.29125 0.75840
 O1513 O 0.28991 0.75124 0.48109
 O1514 O 0.28504 0.72573 0.48316
 O1515 O 0.25058 0.76916 0.46044
 O1516 O 0.22598 0.76985 0.46492
 O1517 O 0.26919 0.79051 0.49951
 O1518 O 0.26811 0.78509 0.52546
 O1519 O 0.21083 0.73086 0.50103
 O1520 O 0.21512 0.73358 0.47573
 O1521 O 0.24880 0.71146 0.51973
 O1522 O 0.27573 0.71667 0.51880
 O1523 O 0.23062 0.74971 0.53931
 O1524 O 0.23131 0.77638 0.53402
 O1525 O 0.21075 0.74899 0.51895
 O1526 O 0.21629 0.77675 0.51735
 O1527 O 0.24870 0.73178 0.53956
 O1528 O 0.27624 0.73334 0.53389
 O1529 O 0.23058 0.71139 0.50200
 O1530 O 0.23561 0.71614 0.47504
 O1531 O 0.29004 0.76915 0.49927
 O1532 O 0.28432 0.76814 0.52569
 O1533 O 0.25120 0.79049 0.48154
 O1534 O 0.22415 0.78434 0.48389
 O1535 O 0.26895 0.75148 0.46059
 O1536 O 0.26561 0.72455 0.46668
 Zr1537 Zr 0.26814 0.74232 0.48222
 O1538 O 0.25509 0.72803 0.49563
 Zr1539 Zr 0.24194 0.76878 0.48226
 O1540 O 0.22760 0.75534 0.49521
 Zr1541 Zr 0.26826 0.76874 0.50841
 O1542 O 0.25487 0.75572 0.52275
 Zr1543 Zr 0.23237 0.73256 0.49186
 O1544 O 0.24536 0.74595 0.47729
 Zr1545 Zr 0.25849 0.73291 0.51826
 O1546 O 0.27304 0.74595 0.50492
 Zr1547 Zr 0.23209 0.75910 0.51787
 O1548 O 0.24550 0.77375 0.50492
 O1549 O 0.26456 0.76504 0.48587
 O1550 O 0.23577 0.73634 0.51454
 C1551 C 0.29631 0.76155 0.48881
 C1552 C 0.26111 0.76165 0.45419
 C1553 C 0.26159 0.79685 0.48916
 C1554 C 0.20459 0.73825 0.51162
 C1555 C 0.23800 0.70525 0.51259
 C1556 C 0.23799 0.73916 0.54562
 H1557 H 0.25747 0.71749 0.49324
 H1558 H 0.25724 0.75830 0.53320
 H1559 H 0.27095 0.77141 0.47947
 H1560 H 0.21707 0.75755 0.49263
 H1561 H 0.21990 0.73674 0.46628
 H1562 H 0.21838 0.76209 0.46705
 H1563 H 0.27453 0.74189 0.54070
 H1564 H 0.28942 0.75833 0.52493
 H1565 H 0.22708 0.70904 0.47547
 H1566 H 0.27356 0.72541 0.45899
 H1567 H 0.24079 0.77607 0.53969
 H1568 H 0.25807 0.78976 0.52524
 H1569 H 0.28917 0.72598 0.49339
 H1570 H 0.27494 0.71058 0.50962
 H1571 H 0.22592 0.79034 0.49300
 H1572 H 0.20929 0.77478 0.50904
 O1573 O 0.28955 0.25029 0.98041
 O1574 O 0.28473 0.22473 0.98232
 O1575 O 0.25014 0.26828 0.96002
 O1576 O 0.22553 0.26883 0.96457
 O1577 O 0.26881 0.28937 0.99915
 O1578 O 0.26781 0.28376 1.02509
 O1579 O 0.21057 0.22961 1.00045
 O1580 O 0.21478 0.23255 0.97515
 O1581 O 0.24863 0.21015 1.01888
 O1582 O 0.27558 0.21540 1.01785
 O1583 O 0.23049 0.24817 1.03881
 O1584 O 0.23113 0.27492 1.03371
 O1585 O 0.21054 0.24759 1.01852
 O1586 O 0.21599 0.27535 1.01716
 O1587 O 0.24862 0.23029 1.03886
 O1588 O 0.27610 0.23192 1.03310
 O1589 O 0.23034 0.21018 1.00122
 O1590 O 0.23529 0.21512 0.97428
 O1591 O 0.28969 0.26807 0.99871
 O1592 O 0.28409 0.26686 1.02514
 O1593 O 0.25077 0.28945 0.98123
 O1594 O 0.22375 0.28325 0.98365
 O1595 O 0.26855 0.25064 0.95998
 O1596 O 0.26526 0.22366 0.96586
 Zr1597 Zr 0.26781 0.24131 0.98154
 O1598 O 0.25481 0.22689 0.99488
 Zr1599 Zr 0.24155 0.26772 0.98185
 O1600 O 0.22728 0.25416 0.99477
 Zr1601 Zr 0.26796 0.26753 1.00792
 O1602 O 0.25465 0.25437 1.02222
 Zr1603 Zr 0.23208 0.23142 0.99123
 O1604 O 0.24500 0.24493 0.97671
 Zr1605 Zr 0.25831 0.23161 1.01753
 O1606 O 0.27278 0.24479 1.00425
 Zr1607 Zr 0.23186 0.25775 1.01745
 O1608 O 0.24518 0.27253 1.00454
 O1609 O 0.26418 0.26399 0.98538
 O1610 O 0.23556 0.23503 1.01392
 C1611 C 0.29595 0.26057 0.98817
 C1612 C 0.26068 0.26085 0.95369
 C1613 C 0.26118 0.29575 0.98886
 C1614 C 0.20437 0.23691 1.01113
 C1615 C 0.23780 0.20398 1.01174
 C1616 C 0.23791 0.23758 1.04501
 H1617 H 0.25720 0.21637 0.99240
 H1618 H 0.25706 0.25687 1.03267
 H1619 H 0.27054 0.27041 0.97900
 H1620 H 0.21674 0.25638 0.99225
 H1621 H 0.21952 0.23578 0.96571
 H1622 H 0.21789 0.26113 0.96674
 H1623 H 0.27444 0.24045 1.03995
 H1624 H 0.28919 0.25706 1.02430
 H1625 H 0.22676 0.20801 0.97468
 H1626 H 0.27320 0.22458 0.95817
 H1627 H 0.24060 0.27454 1.03938
 H1628 H 0.25776 0.28842 1.02492
 H1629 H 0.28892 0.22494 0.99252
 H1630 H 0.27472 0.20934 1.00866
 H1631 H 0.22553 0.28915 0.99283
 H1632 H 0.20901 0.27348 1.00881
 C1633 C 0.28029 0.38174 0.79746
 C1634 C 0.28270 0.38583 0.78260
 C1635 C 0.29003 0.37595 0.77294
 C1636 C 0.29503 0.36206 0.77814
 C1637 C 0.29275 0.35789 0.79309
 C1638 C 0.28527 0.36788 0.80267
 C1639 C 0.27791 0.40030 0.77743
 C1640 C 0.27400 0.41254 0.77335
 C1641 C 0.26954 0.42700 0.76886
 C1642 C 0.26586 0.43946 0.76525
 H1643 H 0.27469 0.38934 0.80505
 H1644 H 0.29195 0.37900 0.76141
 H1645 H 0.30059 0.35457 0.77044
 H1646 H 0.28353 0.36514 0.81428
 C1647 C 0.29478 -0.12241 0.27562
 C1648 C 0.28187 -0.11601 0.28165
 C1649 C 0.27386 -0.12368 0.29261
 C1650 C 0.27883 -0.13760 0.29772
 C1651 C 0.29206 -0.14419 0.29199
 C1652 C 0.29982 -0.13633 0.28066
 C1653 C 0.27711 -0.10137 0.27694
 C1654 C 0.27330 -0.08898 0.27321
 C1655 C 0.26906 -0.07435 0.26907
 C1656 C 0.26564 -0.06174 0.26573
 H1657 H 0.30109 -0.11654 0.26712
 H1658 H 0.26380 -0.11885 0.29733
 H1659 H 0.27212 -0.14301 0.30613
 H1660 H 0.30999 -0.14056 0.27575
 C1661 C 0.79619 0.87927 0.77644
 C1662 C 0.78349 0.88590 0.78266
 C1663 C 0.77568 0.87850 0.79394
 C1664 C 0.78060 0.86460 0.79913
 C1665 C 0.79358 0.85773 0.79316
 C1666 C 0.80118 0.86537 0.78157
 C1667 C 0.77869 0.90044 0.77769
 C1668 C 0.77480 0.91272 0.77368
 C1669 C 0.77040 0.92720 0.76916
 C1670 C 0.76678 0.93965 0.76545
 H1671 H 0.80235 0.88492 0.76769
 H1672 H 0.76578 0.88353 0.79881
 H1673 H 0.77405 0.85941 0.80780
 H1674 H 0.81116 0.86093 0.77645
 C1675 C 0.45691 0.87305 0.27464
 C1676 C 0.46941 0.86638 0.28118
 C1677 C 0.47691 0.87373 0.29270
 C1678 C 0.47182 0.88759 0.29788
 C1679 C 0.45896 0.89444 0.29167
 C1680 C 0.45175 0.88691 0.27975
 C1681 C 0.47418 0.85175 0.27643
 C1682 C 0.47795 0.83935 0.27266
 C1683 C 0.48210 0.82469 0.26850
 C1684 C 0.48541 0.81204 0.26517
 H1685 H 0.45100 0.86743 0.26570
 H1686 H 0.48665 0.86867 0.29782
 H1687 H 0.47812 0.89273 0.30677
 H1688 H 0.44192 0.89136 0.27441
 C1689 C -0.04176 0.87352 0.77375
 C1690 C -0.03036 0.86609 0.78135
 C1691 C -0.02396 0.87265 0.79396
 C1692 C -0.02910 0.88650 0.79913
 C1693 C -0.04089 0.89411 0.79182
 C1694 C -0.04696 0.88737 0.77886
 C1695 C -0.02560 0.85147 0.77654
 C1696 C -0.02184 0.83908 0.77272
 C1697 C -0.01772 0.82442 0.76851
 C1698 C -0.01443 0.81178 0.76514
 H1699 H -0.04676 0.86855 0.76392
 H1700 H -0.01512 0.86696 0.79995
 H1701 H -0.02389 0.89086 0.80906
 H1702 H -0.05574 0.89259 0.77248
 C1703 C -0.02201 -0.12612 -0.03835
 C1704 C -0.03206 -0.11627 -0.03147
 C1705 C -0.04699 -0.12056 -0.02945
 C1706 C -0.05191 -0.13457 -0.03440
 C1707 C -0.04195 -0.14451 -0.04148
 C1708 C -0.02692 -0.14014 -0.04332
 C1709 C -0.02720 -0.10162 -0.02683
 C1710 C -0.02336 -0.08922 -0.02310
 C1711 C -0.01914 -0.07457 -0.01892
 C1712 C -0.01576 -0.06195 -0.01553
 H1713 H -0.01042 -0.12292 -0.03996
 H1714 H -0.05487 -0.11299 -0.02421
 H1715 H -0.06359 -0.13745 -0.03300
 H1716 H -0.01894 -0.14759 -0.04855
 C1717 C -0.04596 0.37955 0.47315
 C1718 C -0.03338 0.38620 0.46673
 C1719 C -0.02577 0.37883 0.45528
 C1720 C -0.03079 0.36492 0.45015
 C1721 C -0.04366 0.35802 0.45633
 C1722 C -0.05105 0.36563 0.46808
 C1723 C -0.02848 0.40076 0.47164
 C1724 C -0.02452 0.41305 0.47560
 C1725 C -0.02004 0.42755 0.48005
 C1726 C -0.01636 0.44002 0.48369
 H1727 H -0.05196 0.38518 0.48203
 H1728 H -0.01597 0.38388 0.45024
 H1729 H -0.02440 0.35974 0.44134
 H1730 H -0.06094 0.36117 0.47336
 C1731 C 0.47395 -0.12102 0.45477
 C1732 C 0.46752 -0.11455 0.46741
 C1733 C 0.45627 -0.12218 0.47508
 C1734 C 0.45131 -0.13617 0.47007
 C1735 C 0.45750 -0.14288 0.45714
 C1736 C 0.46906 -0.13500 0.44969
 C1737 C 0.47225 -0.09993 0.47231
 C1738 C 0.47609 -0.08760 0.47627
 C1739 C 0.48044 -0.07307 0.48072
 C1740 C 0.48404 -0.06057 0.48436
 H1741 H 0.48269 -0.11518 0.44872
 H1742 H 0.45123 -0.11729 0.48493
 H1743 H 0.44265 -0.14154 0.47651
 H1744 H 0.47433 -0.13930 0.43976
 C1745 C 0.45357 0.37954 -0.02697
 C1746 C 0.46604 0.38636 -0.03343
 C1747 C 0.47357 0.37918 -0.04506
 C1748 C 0.46857 0.36531 -0.05033
 C1749 C 0.45581 0.35825 -0.04410
 C1750 C 0.44850 0.36567 -0.03218
 C1751 C 0.47092 0.40087 -0.02836
 C1752 C 0.47486 0.41312 -0.02426
 C1753 C 0.47934 0.42757 -0.01966
 C1754 C 0.48304 0.44000 -0.01591
 H1755 H 0.44763 0.38502 -0.01795
 H1756 H 0.48329 0.38436 -0.05013
 H1757 H 0.47490 0.36031 -0.05928
 H1758 H 0.43871 0.36108 -0.02684
 C1759 C 0.79746 0.36874 0.47042
 C1760 C 0.78242 0.36477 0.46858
 C1761 C 0.77262 0.37462 0.46141
 C1762 C 0.77786 0.38834 0.45598
 C1763 C 0.79301 0.39238 0.45765
 C1764 C 0.80272 0.38244 0.46501
 C1765 C 0.77724 0.35036 0.47360
 C1766 C 0.77318 0.33814 0.47762
 C1767 C 0.76875 0.32364 0.48207
 C1768 C 0.76526 0.31109 0.48562
 H1769 H 0.80516 0.36116 0.47587
 H1770 H 0.76095 0.37165 0.45992
 H1771 H 0.77006 0.39580 0.45054
 H1772 H 0.81447 0.38507 0.46629
 C1773 C 0.79391 0.87284 -0.02503
 C1774 C 0.78129 0.86617 -0.03137
 C1775 C 0.77365 0.87348 -0.04280
 C1776 C 0.77872 0.88732 -0.04807
 C1777 C 0.79167 0.89419 -0.04204
 C1778 C 0.79904 0.88668 -0.03023
 C1779 C 0.77651 0.85157 -0.02652
 C1780 C 0.77270 0.83920 -0.02268
 C1781 C 0.76848 0.82457 -0.01847
 C1782 C 0.76507 0.81195 -0.01512
 H1783 H 0.79993 0.86725 -0.01617
 H1784 H 0.76382 0.86841 -0.04777
 H1785 H 0.77231 0.89244 -0.05687
 H1786 H 0.80897 0.89114 -0.02504
 C1787 C 0.77925 0.29749 0.38216
 C1788 C 0.78127 0.28245 0.38600
 C1789 C 0.78850 0.27275 0.37608
 C1790 C 0.79383 0.27810 0.36243
 C1791 C 0.79200 0.29326 0.35852
 C1792 C 0.78456 0.30287 0.36852
 C1793 C 0.77637 0.27716 0.40035
 C1794 C 0.77247 0.27302 0.41253
 C1795 C 0.76816 0.26850 0.42698
 C1796 C 0.76472 0.26495 0.43947
 H1797 H 0.77376 0.30512 0.38979
 H1798 H 0.79013 0.26108 0.37895
 H1799 H 0.79933 0.27038 0.35491
 H1800 H 0.78316 0.31462 0.36599
 C1801 C 0.77479 0.79517 -0.12166
 C1802 C 0.78074 0.78218 -0.11538
 C1803 C 0.79184 0.77426 -0.12298
 C1804 C 0.79717 0.77940 -0.13670
 C1805 C 0.79154 0.79272 -0.14317
 C1806 C 0.78006 0.80038 -0.13538
 C1807 C 0.77583 0.77728 -0.10090
 C1808 C 0.77195 0.77338 -0.08863
 C1809 C 0.76768 0.76908 -0.07410
 C1810 C 0.76428 0.76566 -0.06155
 H1811 H 0.76619 0.80142 -0.11585
 H1812 H 0.79650 0.76414 -0.11822
 H1813 H 0.80570 0.77276 -0.14205
 H1814 H 0.77519 0.81060 -0.13953
 C1815 C 0.28976 0.47550 0.87281
 C1816 C 0.28257 0.46557 0.86309
 C1817 C 0.28042 0.45064 0.86731
 C1818 C 0.28553 0.44562 0.88115
 C1819 C 0.29291 0.45548 0.89096
 C1820 C 0.29490 0.47051 0.88665
 C1821 C 0.27768 0.47059 0.84865
 C1822 C 0.27373 0.47466 0.83647
 C1823 C 0.26927 0.47929 0.82211
 C1824 C 0.26561 0.48312 0.80977
 H1825 H 0.29147 0.48709 0.86966
 H1826 H 0.27492 0.44284 0.85984
 H1827 H 0.28400 0.43396 0.88401
 H1828 H 0.30035 0.47842 0.89401
 C1829 C 0.29421 -0.02449 0.37219
 C1830 C 0.28120 -0.03056 0.36605
 C1831 C 0.27329 -0.04153 0.37386
 C1832 C 0.27847 -0.04661 0.38764
 C1833 C 0.29183 -0.04086 0.39396
 C1834 C 0.29947 -0.02951 0.38597
 C1835 C 0.27627 -0.02594 0.35150
 C1836 C 0.27236 -0.02229 0.33917
 C1837 C 0.26807 -0.01827 0.32459
 C1838 C 0.26467 -0.01504 0.31200
 H1839 H 0.30045 -0.01599 0.36621
 H1840 H 0.26314 -0.04628 0.36921
 H1841 H 0.27184 -0.05504 0.39316
 H1842 H 0.30972 -0.02456 0.39000
 C1843 C -0.02404 -0.04327 -0.12271
 C1844 C -0.03104 -0.03118 -0.11574
 C1845 C -0.04304 -0.02408 -0.12273
 C1846 C -0.04819 -0.02917 -0.13655
 C1847 C -0.04148 -0.04162 -0.14371
 C1848 C -0.02913 -0.04843 -0.13652
 C1849 C -0.02626 -0.02641 -0.10117
 C1850 C -0.02245 -0.02266 -0.08883
 C1851 C -0.01824 -0.01854 -0.07424
 C1852 C -0.01489 -0.01526 -0.06164
 H1853 H -0.01472 -0.04887 -0.11737
 H1854 H -0.04854 -0.01467 -0.11743
 H1855 H -0.05750 -0.02323 -0.14137
 H1856 H -0.02334 -0.05790 -0.14124
 C1857 C -0.04348 0.47447 0.37824
 C1858 C -0.03249 0.46647 0.38587
 C1859 C -0.02655 0.45346 0.37957
 C1860 C -0.03170 0.44834 0.36577
 C1861 C -0.04304 0.45612 0.35792
 C1862 C -0.04869 0.46942 0.36444
 C1863 C -0.02759 0.47140 0.40034
 C1864 C -0.02368 0.47542 0.41256
 C1865 C -0.01931 0.48000 0.42697
 C1866 C -0.01575 0.48380 0.43936
 H1867 H -0.04812 0.48461 0.38301
 H1868 H -0.01803 0.44716 0.38541
 H1869 H -0.02687 0.43810 0.36159
 H1870 H -0.05711 0.47614 0.35904
 C1871 C 0.46923 -0.04805 0.38221
 C1872 C 0.46712 -0.03314 0.38652
 C1873 C 0.46025 -0.02309 0.37672
 C1874 C 0.45543 -0.02795 0.36270
 C1875 C 0.45744 -0.04295 0.35828
 C1876 C 0.46444 -0.05293 0.36819
 C1877 C 0.47180 -0.02827 0.40108
 C1878 C 0.47565 -0.02435 0.41336
 C1879 C 0.48005 -0.01995 0.42781
 C1880 C 0.48372 -0.01631 0.44022
 H1881 H 0.47447 -0.05595 0.38973
 H1882 H 0.45858 -0.01151 0.37994
 H1883 H 0.45026 -0.01995 0.35527
 H1884 H 0.46595 -0.06459 0.36526
 C1885 C 0.45530 0.47430 -0.12082
 C1886 C 0.46768 0.46751 -0.11419
 C1887 C 0.47495 0.45578 -0.12149
 C1888 C 0.46975 0.45067 -0.13528
 C1889 C 0.45703 0.45717 -0.14211
 C1890 C 0.45004 0.46925 -0.13460
 C1891 C 0.47265 0.47231 -0.09970
 C1892 C 0.47660 0.47620 -0.08745
 C1893 C 0.48100 0.48058 -0.07299
 C1894 C 0.48454 0.48421 -0.06055
 H1895 H 0.44958 0.48342 -0.11524
 H1896 H 0.48459 0.45046 -0.11645
 H1897 H 0.47584 0.44157 -0.14035
 H1898 H 0.44035 0.47486 -0.13906
 C1899 C 0.45448 0.77891 0.36961
 C1900 C 0.46939 0.78134 0.36550
 C1901 C 0.47910 0.78868 0.37533
 C1902 C 0.47389 0.79369 0.38917
 C1903 C 0.45887 0.79143 0.39335
 C1904 C 0.44925 0.78390 0.38342
 C1905 C 0.47452 0.77670 0.35100
 C1906 C 0.47849 0.77297 0.33871
 C1907 C 0.48277 0.76880 0.32414
 C1908 C 0.48610 0.76545 0.31156
 H1909 H 0.44684 0.77333 0.36205
 H1910 H 0.49067 0.79063 0.37226
 H1911 H 0.48162 0.79928 0.39661
 H1912 H 0.43758 0.78217 0.38616
 C1913 C -0.04129 0.77280 0.87316
 C1914 C -0.03020 0.78082 0.86564
 C1915 C -0.02408 0.79364 0.87216
 C1916 C -0.02917 0.79859 0.88605
 C1917 C -0.04063 0.79083 0.89377
 C1918 C -0.04644 0.77768 0.88705
 C1919 C -0.02546 0.77618 0.85101
 C1920 C -0.02170 0.77249 0.83864
 C1921 C -0.01756 0.76840 0.82401
 C1922 C -0.01425 0.76513 0.81139
 H1923 H -0.04609 0.76281 0.86822
 H1924 H -0.01548 0.79995 0.86640
 H1925 H -0.02417 0.80869 0.89039
 H1926 H -0.05497 0.77098 0.89234
 C1927 C 0.38077 0.77890 0.29775
 C1928 C 0.38491 0.78094 0.28285
 C1929 C 0.37499 0.78784 0.27296
 C1930 C 0.36102 0.79282 0.27798
 C1931 C 0.35680 0.79097 0.29298
 C1932 C 0.36682 0.78386 0.30279
 C1933 C 0.39952 0.77632 0.27787
 C1934 C 0.41187 0.77264 0.27390
 C1935 C 0.42648 0.76853 0.26952
 C1936 C 0.43907 0.76521 0.26601
 H1937 H 0.38839 0.77364 0.30553
 H1938 H 0.37807 0.78947 0.26140
 H1939 H 0.35351 0.79806 0.27011
 H1940 H 0.36404 0.78244 0.31444
 C1941 C -0.11912 0.77907 0.79755
 C1942 C -0.11499 0.78126 0.78267
 C1943 C -0.12482 0.78852 0.77293
 C1944 C -0.13866 0.79370 0.77808
 C1945 C -0.14285 0.79170 0.79308
 C1946 C -0.13295 0.78423 0.80273
 C1947 C -0.10048 0.77649 0.77758
 C1948 C -0.08818 0.77269 0.77355
 C1949 C -0.07362 0.76848 0.76913
 C1950 C -0.06105 0.76510 0.76560
 H1951 H -0.11157 0.77354 0.80521
 H1952 H -0.12173 0.79028 0.76138
 H1953 H -0.14609 0.79923 0.77033
 H1954 H -0.13570 0.78269 0.81436
 C1955 C 0.86910 0.27897 0.45323
 C1956 C 0.86516 0.28113 0.46817
 C1957 C 0.87508 0.28845 0.47781
 C1958 C 0.88884 0.29371 0.47249
 C1959 C 0.89285 0.29172 0.45744
 C1960 C 0.88283 0.28421 0.44790
 C1961 C 0.85072 0.27627 0.47341
 C1962 C 0.83847 0.27237 0.47749
 C1963 C 0.82393 0.26805 0.48193
 C1964 C 0.81137 0.26461 0.48543
 H1965 H 0.86146 0.27341 0.44565
 H1966 H 0.87214 0.29019 0.48940
 H1967 H 0.89636 0.29928 0.48016
 H1968 H 0.88543 0.28269 0.43622
 C1969 C 0.87565 0.78635 -0.02243
 C1970 C 0.86569 0.77954 -0.03239
 C1971 C 0.86987 0.77748 -0.04728
 C1972 C 0.88388 0.78235 -0.05225
 C1973 C 0.89391 0.78939 -0.04239
 C1974 C 0.88967 0.79123 -0.02738
 C1975 C 0.85099 0.77512 -0.02749
 C1976 C 0.83856 0.77162 -0.02359
 C1977 C 0.82386 0.76775 -0.01929
 C1978 C 0.81120 0.76463 -0.01585
 H1979 H 0.87253 0.78799 -0.01087
 H1980 H 0.86221 0.77229 -0.05510
 H1981 H 0.88667 0.78094 -0.06390
 H1982 H 0.89720 0.79643 -0.01947
 C1983 C -0.12217 -0.02470 -0.04529
 C1984 C -0.11599 -0.03064 -0.03230
 C1985 C -0.12380 -0.04159 -0.02436
 C1986 C -0.13764 -0.04677 -0.02949
 C1987 C -0.14401 -0.04114 -0.04281
 C1988 C -0.13601 -0.02982 -0.05048
 C1989 C -0.10139 -0.02591 -0.02740
 C1990 C -0.08903 -0.02219 -0.02348
 C1991 C -0.07440 -0.01811 -0.01913
 C1992 C -0.06177 -0.01488 -0.01565
 H1993 H -0.11619 -0.01622 -0.05155
 H1994 H -0.11912 -0.04625 -0.01424
 H1995 H -0.14317 -0.05517 -0.02284
 H1996 H -0.14008 -0.02498 -0.06071
 C1997 C -0.12183 0.45702 0.47331
 C1998 C -0.11413 0.46791 0.46520
 C1999 C -0.12040 0.47364 0.45216
 C2000 C -0.13425 0.46840 0.44711
 C2001 C -0.14218 0.45717 0.45500
 C2002 C -0.13568 0.45172 0.46833
 C2003 C -0.09961 0.47291 0.47007
 C2004 C -0.08735 0.47691 0.47406
 C2005 C -0.07290 0.48137 0.47861
 C2006 C -0.06047 0.48501 0.48237
 H2007 H -0.11709 0.45253 0.48347
 H2008 H -0.11450 0.48209 0.44577
 H2009 H -0.13840 0.47309 0.43685
 H2010 H -0.14114 0.44339 0.47513
 C2011 C 0.37807 -0.04336 0.47494
 C2012 C 0.38569 -0.03210 0.46727
 C2013 C 0.37921 -0.02566 0.45467
 C2014 C 0.36524 -0.03054 0.44962
 C2015 C 0.35737 -0.04212 0.45707
 C2016 C 0.36409 -0.04831 0.46996
 C2017 C 0.40032 -0.02738 0.47212
 C2018 C 0.41265 -0.02356 0.47604
 C2019 C 0.42718 -0.01923 0.48045
 C2020 C 0.43968 -0.01564 0.48406
 H2021 H 0.38298 -0.04841 0.48476
 H2022 H 0.38504 -0.01691 0.44862
 H2023 H 0.36092 -0.02526 0.43972
 H2024 H 0.35873 -0.05698 0.47641
 C2025 C 0.37979 0.47320 -0.04752
 C2026 C 0.38599 0.46746 -0.03445
 C2027 C 0.37820 0.45664 -0.02633
 C2028 C 0.36433 0.45142 -0.03133
 C2029 C 0.35791 0.45688 -0.04469
 C2030 C 0.36592 0.46803 -0.05259
 C2031 C 0.40052 0.47240 -0.02954
 C2032 C 0.41278 0.47634 -0.02553
 C2033 C 0.42723 0.48077 -0.02094
 C2034 C 0.43965 0.48439 -0.01712
 H2035 H 0.38576 0.48159 -0.05392
 H2036 H 0.38289 0.45216 -0.01614
 H2037 H 0.35880 0.44314 -0.02452
 H2038 H 0.36183 0.47272 -0.06288
 C2039 C 0.37348 0.46060 0.77409
 C2040 C 0.36355 0.46763 0.78393
 C2041 C 0.36759 0.46966 0.79885
 C2042 C 0.38145 0.46459 0.80397
 C2043 C 0.39149 0.45739 0.79422
 C2044 C 0.38736 0.45551 0.77919
 C2045 C 0.34908 0.47247 0.77883
 C2046 C 0.33684 0.47639 0.77476
 C2047 C 0.32240 0.48083 0.77022
 C2048 C 0.30997 0.48447 0.76650
 H2049 H 0.37046 0.45898 0.76251
 H2050 H 0.35996 0.47502 0.80657
 H2051 H 0.38416 0.46602 0.81563
 H2052 H 0.39488 0.45018 0.77137
 C2053 C 0.37545 -0.02131 0.28947
 C2054 C 0.36567 -0.03105 0.28206
 C2055 C 0.36989 -0.04593 0.27955
 C2056 C 0.38377 -0.05110 0.28453
 C2057 C 0.39364 -0.04145 0.29212
 C2058 C 0.38935 -0.02647 0.29447
 C2059 C 0.35112 -0.02599 0.27741
 C2060 C 0.33879 -0.02207 0.27365
 C2061 C 0.32418 -0.01784 0.26944
 C2062 C 0.31156 -0.01455 0.26602
 H2063 H 0.37229 -0.00977 0.29147
 H2064 H 0.36237 -0.05359 0.27391
 H2065 H 0.38659 -0.06274 0.28273
 H2066 H 0.39675 -0.01872 0.30011
 C2067 C 0.12455 0.53851 0.72755
 C2068 C 0.13446 0.53124 0.71787
 C2069 C 0.13040 0.52892 0.70299
 C2070 C 0.11658 0.53396 0.69775
 C2071 C 0.10659 0.54144 0.70734
 C2072 C 0.11071 0.54358 0.72233
 C2073 C 0.14897 0.52656 0.72302
 C2074 C 0.16127 0.52282 0.72705
 C2075 C 0.17584 0.51864 0.73146
 C2076 C 0.18841 0.51527 0.73495
 H2077 H 0.12758 0.54037 0.73910
 H2078 H 0.13802 0.52338 0.69537
 H2079 H 0.11388 0.53233 0.68611
 H2080 H 0.10321 0.54912 0.73004
 C2081 C 0.12664 0.02291 0.20947
 C2082 C 0.13639 0.03272 0.21683
 C2083 C 0.13226 0.04767 0.21898
 C2084 C 0.11847 0.05284 0.21374
 C2085 C 0.10862 0.04311 0.20622
 C2086 C 0.11285 0.02806 0.20420
 C2087 C 0.15079 0.02758 0.22187
 C2088 C 0.16296 0.02347 0.22597
 C2089 C 0.17734 0.01890 0.23060
 C2090 C 0.18974 0.01520 0.23438
 H2091 H 0.12973 0.01131 0.20775
 H2092 H 0.13975 0.05538 0.22459
 H2093 H 0.11569 0.06453 0.21529
 H2094 H 0.10546 0.02025 0.19864
 C2095 C 0.61853 0.70209 0.21929
 C2096 C 0.61422 0.71698 0.21709
 C2097 C 0.62393 0.72690 0.20985
 C2098 C 0.63786 0.72193 0.20474
 C2099 C 0.64226 0.70694 0.20681
 C2100 C 0.63244 0.69710 0.21421
 C2101 C 0.59971 0.72195 0.22199
 C2102 C 0.58746 0.72594 0.22598
 C2103 C 0.57301 0.73042 0.23051
 C2104 C 0.56058 0.73409 0.23424
 H2105 H 0.61106 0.69429 0.22482
 H2106 H 0.62071 0.73846 0.20810
 H2107 H 0.64522 0.72983 0.19927
 H2108 H 0.63537 0.68545 0.21579
 C2109 C 0.12401 0.72666 0.70987
 C2110 C 0.11422 0.71672 0.71697
 C2111 C 0.11850 0.70182 0.71917
 C2112 C 0.13247 0.69684 0.71423
 C2113 C 0.14237 0.70671 0.70698
 C2114 C 0.13800 0.72170 0.70491
 C2115 C 0.09966 0.72169 0.72173
 C2116 C 0.08739 0.72570 0.72562
 C2117 C 0.07293 0.73023 0.73005
 C2118 C 0.06050 0.73395 0.73373
 H2119 H 0.12082 0.73823 0.70813
 H2120 H 0.11097 0.69400 0.72459
 H2121 H 0.13538 0.68519 0.71581
 H2122 H 0.14542 0.72962 0.69954
 C2123 C 0.63110 0.20200 0.53063
 C2124 C 0.63548 0.21691 0.53270
 C2125 C 0.62566 0.22703 0.53949
 C2126 C 0.61154 0.22224 0.54429
 C2127 C 0.60706 0.20725 0.54234
 C2128 C 0.61700 0.19719 0.53540
 C2129 C 0.65015 0.22171 0.52808
 C2130 C 0.66252 0.22558 0.52431
 C2131 C 0.67708 0.22995 0.52002
 C2132 C 0.68959 0.23355 0.51648
 H2133 H 0.63865 0.19406 0.52544
 H2134 H 0.62893 0.23860 0.54113
 H2135 H 0.60410 0.23030 0.54942
 H2136 H 0.61402 0.18554 0.53393
 C2137 C 0.62589 0.72735 0.04030
 C2138 C 0.63567 0.71743 0.03316
 C2139 C 0.63140 0.70252 0.03093
 C2140 C 0.61744 0.69750 0.03589
 C2141 C 0.60754 0.70734 0.04318
 C2142 C 0.61192 0.72235 0.04528
 C2143 C 0.65021 0.72244 0.02836
 C2144 C 0.66248 0.72645 0.02443
 C2145 C 0.67694 0.73096 0.01994
 C2146 C 0.68937 0.73464 0.01622
 H2147 H 0.62908 0.73892 0.04206
 H2148 H 0.63891 0.69472 0.02548
 H2149 H 0.61453 0.68584 0.03429
 H2150 H 0.60450 0.73024 0.05068
 C2151 C 0.11736 0.03005 0.04892
 C2152 C 0.11352 0.03201 0.03394
 C2153 C 0.12360 0.03900 0.02423
 C2154 C 0.13741 0.04413 0.02951
 C2155 C 0.14133 0.04233 0.04460
 C2156 C 0.13116 0.03515 0.05422
 C2157 C 0.09910 0.02716 0.02866
 C2158 C 0.08691 0.02323 0.02444
 C2159 C 0.07250 0.01880 0.01973
 C2160 C 0.06008 0.01516 0.01593
 H2161 H 0.10961 0.02471 0.05655
 H2162 H 0.12075 0.04057 0.01260
 H2163 H 0.14505 0.04943 0.02178
 H2164 H 0.13371 0.03377 0.06592
 C2165 C 0.12478 0.53948 0.52215
 C2166 C 0.11491 0.53207 0.53177
 C2167 C 0.11901 0.52960 0.54661
 C2168 C 0.13287 0.53460 0.55186
 C2169 C 0.14284 0.54219 0.54233
 C2170 C 0.13866 0.54451 0.52739
 C2171 C 0.10040 0.52738 0.52661
 C2172 C 0.08809 0.52359 0.52258
 C2173 C 0.07353 0.51936 0.51818
 C2174 C 0.06095 0.51595 0.51469
 H2175 H 0.12172 0.54146 0.51064
 H2176 H 0.11142 0.52395 0.55417
 H2177 H 0.13560 0.53283 0.56346
 H2178 H 0.14613 0.55014 0.51973
 C2179 C 0.62550 0.03881 0.52185
 C2180 C 0.61563 0.03140 0.53147
 C2181 C 0.61976 0.02886 0.54628
 C2182 C 0.63363 0.03380 0.55152
 C2183 C 0.64360 0.04140 0.54201
 C2184 C 0.63940 0.04378 0.52708
 C2185 C 0.60108 0.02677 0.52632
 C2186 C 0.58875 0.02303 0.52233
 C2187 C 0.57415 0.01883 0.51800
 C2188 C 0.56155 0.01542 0.51461
 H2189 H 0.62242 0.04083 0.51036
 H2190 H 0.61216 0.02321 0.55384
 H2191 H 0.63638 0.03199 0.56312
 H2192 H 0.64688 0.04942 0.51943
 C2193 C 0.61945 0.52884 0.04658
 C2194 C 0.61534 0.53114 0.03172
 C2195 C 0.62522 0.53839 0.02200
 C2196 C 0.63910 0.54348 0.02716
 C2197 C 0.64327 0.54137 0.04214
 C2198 C 0.63331 0.53390 0.05176
 C2199 C 0.60079 0.52648 0.02663
 C2200 C 0.58845 0.52275 0.02265
 C2201 C 0.57385 0.51861 0.01829
 C2202 C 0.56124 0.51529 0.01484
 H2203 H 0.61185 0.52331 0.05422
 H2204 H 0.62215 0.54023 0.01046
 H2205 H 0.64657 0.54902 0.01943
 H2206 H 0.63604 0.53229 0.06339
 C2207 C 0.02577 0.04288 0.12097
 C2208 C 0.03377 0.03192 0.11325
 C2209 C 0.04683 0.02605 0.11944
 C2210 C 0.05200 0.03122 0.13323
 C2211 C 0.04421 0.04250 0.14117
 C2212 C 0.03086 0.04811 0.13475
 C2213 C 0.02876 0.02697 0.09881
 C2214 C 0.02467 0.02301 0.08663
 C2215 C 0.02001 0.01857 0.07226
 C2216 C 0.01618 0.01494 0.05989
 H2217 H 0.01558 0.04748 0.11629
 H2218 H 0.05314 0.01756 0.11353
 H2219 H 0.06227 0.02642 0.13732
 H2220 H 0.02414 0.05650 0.14022
 C2221 C 0.04614 0.52939 0.61861
 C2222 C 0.03124 0.53182 0.61451
 C2223 C 0.02154 0.53920 0.62432
 C2224 C 0.02676 0.54425 0.63814
 C2225 C 0.04177 0.54198 0.64232
 C2226 C 0.05138 0.53442 0.63241
 C2227 C 0.02609 0.52710 0.60004
 C2228 C 0.02209 0.52329 0.58778
 C2229 C 0.01776 0.51903 0.57326
 C2230 C 0.01437 0.51560 0.56071
 H2231 H 0.05377 0.52377 0.61107
 H2232 H 0.00998 0.54114 0.62125
 H2233 H 0.01904 0.54986 0.64557
 H2234 H 0.06303 0.53269 0.63515
 C2235 C 0.54522 0.02504 0.62159
 C2236 C 0.53245 0.03123 0.61511
 C2237 C 0.52470 0.04257 0.62254
 C2238 C 0.52978 0.04788 0.63630
 C2239 C 0.54286 0.04198 0.64299
 C2240 C 0.55037 0.03029 0.63535
 C2241 C 0.52757 0.02628 0.60062
 C2242 C 0.52367 0.02236 0.58836
 C2243 C 0.51931 0.01804 0.57385
 C2244 C 0.51580 0.01462 0.56133
 H2245 H 0.55134 0.01625 0.61591
 H2246 H 0.51474 0.04742 0.61763
 H2247 H 0.52327 0.05660 0.64151
 H2248 H 0.56042 0.02521 0.63966
 C2249 C 0.52186 0.53914 0.12442
 C2250 C 0.53152 0.53160 0.11469
 C2251 C 0.54640 0.52914 0.11883
 C2252 C 0.55167 0.53428 0.13258
 C2253 C 0.54210 0.54200 0.14241
 C2254 C 0.52710 0.54431 0.13819
 C2255 C 0.52636 0.52678 0.10027
 C2256 C 0.52235 0.52290 0.08803
 C2257 C 0.51800 0.51859 0.07352
 C2258 C 0.51458 0.51515 0.06099
 H2259 H 0.51031 0.54111 0.12133
 H2260 H 0.55401 0.52340 0.11135
 H2261 H 0.56331 0.53251 0.13534
 H2262 H 0.51942 0.55004 0.14556
 C2263 C 0.20325 0.52885 0.63073
 C2264 C 0.21816 0.53118 0.63490
 C2265 C 0.22795 0.53852 0.62516
 C2266 C 0.22282 0.54364 0.61135
 C2267 C 0.20780 0.54149 0.60712
 C2268 C 0.19810 0.53396 0.61695
 C2269 C 0.22321 0.52644 0.64937
 C2270 C 0.22714 0.52263 0.66163
 C2271 C 0.23143 0.51840 0.67616
 C2272 C 0.23481 0.51499 0.68870
 H2273 H 0.19555 0.52326 0.63823
 H2274 H 0.23952 0.54038 0.62827
 H2275 H 0.23061 0.54923 0.60398
 H2276 H 0.18643 0.53232 0.61417
 C2277 C 0.20972 0.02260 0.12726
 C2278 C 0.21669 0.03246 0.13722
 C2279 C 0.21867 0.04749 0.13328
 C2280 C 0.21362 0.05267 0.11949
 C2281 C 0.20649 0.04289 0.10942
 C2282 C 0.20465 0.02777 0.11346
 C2283 C 0.22154 0.02730 0.15161
 C2284 C 0.22550 0.02321 0.16377
 C2285 C 0.23002 0.01869 0.17814
 C2286 C 0.23376 0.01503 0.19051
 H2287 H 0.20814 0.01094 0.13020
 H2288 H 0.22398 0.05523 0.14093
 H2289 H 0.21501 0.06441 0.11685
 H2290 H 0.19937 0.01992 0.10590
 C2291 C 0.72701 0.21055 0.62432
 C2292 C 0.71695 0.21738 0.61452
 C2293 C 0.70204 0.21945 0.61882
 C2294 C 0.69718 0.21464 0.63283
 C2295 C 0.70717 0.20766 0.64275
 C2296 C 0.72217 0.20572 0.63834
 C2297 C 0.72181 0.22204 0.59995
 C2298 C 0.72572 0.22585 0.58767
 C2299 C 0.73014 0.23019 0.57320
 C2300 C 0.73379 0.23378 0.56077
 H2301 H 0.73859 0.20891 0.62111
 H2302 H 0.69413 0.22466 0.61129
 H2303 H 0.68552 0.21611 0.63575
 H2304 H 0.73018 0.20056 0.64577
 C2305 C 0.70951 0.72793 0.12332
 C2306 C 0.71679 0.71819 0.11347
 C2307 C 0.71928 0.70330 0.11761
 C2308 C 0.71445 0.69813 0.13150
 C2309 C 0.70702 0.70778 0.14146
 C2310 C 0.70465 0.72277 0.13722
 C2311 C 0.72145 0.72333 0.09900
 C2312 C 0.72527 0.72740 0.08677
 C2313 C 0.72964 0.73190 0.07233
 C2314 C 0.73326 0.73552 0.05991
 H2315 H 0.70753 0.73949 0.12023
 H2316 H 0.72484 0.69565 0.11005
 H2317 H 0.71625 0.68649 0.13429
 H2318 H 0.69914 0.73053 0.14469
 C2319 C 0.53978 0.72801 0.12635
 C2320 C 0.53251 0.71819 0.13611
 C2321 C 0.53007 0.70331 0.13187
 C2322 C 0.53494 0.69822 0.11796
 C2323 C 0.54236 0.70797 0.10808
 C2324 C 0.54468 0.72295 0.11242
 C2325 C 0.52783 0.72322 0.15063
 C2326 C 0.52401 0.72720 0.16289
 C2327 C 0.51966 0.73159 0.17737
 C2328 C 0.51607 0.73514 0.18983
 H2329 H 0.54172 0.73956 0.12952
 H2330 H 0.52452 0.69559 0.13938
 H2331 H 0.53318 0.68658 0.11509
 H2332 H 0.55019 0.73076 0.10502
 C2333 C 0.04058 0.72800 0.62636
 C2334 C 0.03326 0.71824 0.63615
 C2335 C 0.03071 0.70337 0.63193
 C2336 C 0.03552 0.69823 0.61801
 C2337 C 0.04298 0.70791 0.60810
 C2338 C 0.04542 0.72288 0.61243
 C2339 C 0.02861 0.72333 0.65066
 C2340 C 0.02478 0.72735 0.66291
 C2341 C 0.02041 0.73180 0.67736
 C2342 C 0.01678 0.73538 0.68980
 H2343 H 0.04260 0.73954 0.62952
 H2344 H 0.02512 0.69569 0.63945
 H2345 H 0.03367 0.68660 0.61516
 H2346 H 0.05096 0.73065 0.60501
 C2347 C 0.52363 0.62686 0.20907
 C2348 C 0.53359 0.63675 0.21603
 C2349 C 0.54853 0.63257 0.21809
 C2350 C 0.55353 0.61859 0.21315
 C2351 C 0.54364 0.60857 0.20607
 C2352 C 0.52861 0.61286 0.20411
 C2353 C 0.52858 0.65128 0.22088
 C2354 C 0.52456 0.66353 0.22487
 C2355 C 0.52006 0.67797 0.22946
 C2356 C 0.51638 0.69038 0.23328
 H2357 H 0.51203 0.62997 0.20744
 H2358 H 0.55635 0.64016 0.22340
 H2359 H 0.56520 0.61575 0.21463
 H2360 H 0.52068 0.60536 0.19887
 C2361 C 0.02301 0.62633 0.70943
 C2362 C 0.03296 0.63624 0.71638
 C2363 C 0.04790 0.63208 0.71844
 C2364 C 0.05292 0.61810 0.71351
 C2365 C 0.04305 0.60808 0.70641
 C2366 C 0.02801 0.61235 0.70447
 C2367 C 0.02795 0.65079 0.72117
 C2368 C 0.02395 0.66306 0.72511
 C2369 C 0.01950 0.67754 0.72961
 C2370 C 0.01589 0.69000 0.73335
 H2371 H 0.01141 0.62944 0.70779
 H2372 H 0.05572 0.63969 0.72375
 H2373 H 0.06460 0.61529 0.71498
 H2374 H 0.02010 0.60483 0.69923
 C2375 C 0.03937 0.12303 0.02451
 C2376 C 0.03219 0.11321 0.03434
 C2377 C 0.03001 0.11741 0.04921
 C2378 C 0.03507 0.13133 0.05427
 C2379 C 0.04241 0.14126 0.04451
 C2380 C 0.04444 0.13697 0.02955
 C2381 C 0.02736 0.09868 0.02929
 C2382 C 0.02344 0.08642 0.02523
 C2383 C 0.01901 0.07196 0.02065
 C2384 C 0.01536 0.05952 0.01688
 H2385 H 0.04110 0.11990 0.01297
 H2386 H 0.02454 0.10986 0.05693
 H2387 H 0.03352 0.13417 0.06589
 H2388 H 0.04988 0.14441 0.02172
 C2389 C 0.02810 0.62007 0.54651
 C2390 C 0.03013 0.61614 0.53155
 C2391 C 0.03721 0.62614 0.52183
 C2392 C 0.04240 0.63996 0.52709
 C2393 C 0.04058 0.64394 0.54217
 C2394 C 0.03327 0.63386 0.55179
 C2395 C 0.02541 0.60163 0.52637
 C2396 C 0.02166 0.58931 0.52232
 C2397 C 0.01752 0.57470 0.51792
 C2398 C 0.01421 0.56208 0.51446
 H2399 H 0.02271 0.61237 0.55415
 H2400 H 0.03884 0.62321 0.51022
 H2401 H 0.04780 0.64753 0.51936
 H2402 H 0.03188 0.63644 0.56349
 C2403 C 0.52751 0.12030 0.54615
 C2404 C 0.52992 0.11596 0.53136
 C2405 C 0.53719 0.12572 0.52153
 C2406 C 0.54218 0.13971 0.52652
 C2407 C 0.53996 0.14412 0.54143
 C2408 C 0.53248 0.13427 0.55116
 C2409 C 0.52537 0.10130 0.52648
 C2410 C 0.52174 0.08887 0.52266
 C2411 C 0.51773 0.07416 0.51850
 C2412 C 0.51452 0.06147 0.51518
 H2413 H 0.52198 0.11280 0.55388
 H2414 H 0.53911 0.12247 0.51005
 H2415 H 0.54773 0.14709 0.51871
 H2416 H 0.53079 0.13718 0.56274
 C2417 C 0.53767 0.62582 0.02217
 C2418 C 0.53060 0.61584 0.03191
 C2419 C 0.52847 0.61984 0.04684
 C2420 C 0.53353 0.63370 0.05206
 C2421 C 0.54082 0.64377 0.04241
 C2422 C 0.54275 0.63970 0.02737
 C2423 C 0.52594 0.60129 0.02679
 C2424 C 0.52220 0.58895 0.02279
 C2425 C 0.51804 0.57433 0.01846
 C2426 C 0.51469 0.56172 0.01503
 H2427 H 0.53938 0.62283 0.01058
 H2428 H 0.52308 0.61217 0.05450
 H2429 H 0.53206 0.63635 0.06373
 H2430 H 0.54815 0.64726 0.01962
 C2431 C 0.70671 0.12786 0.52616
 C2432 C 0.71800 0.13534 0.53394
 C2433 C 0.72435 0.12870 0.54650
 C2434 C 0.71936 0.11471 0.55140
 C2435 C 0.70776 0.10698 0.54384
 C2436 C 0.70165 0.11386 0.53100
 C2437 C 0.72284 0.14997 0.52920
 C2438 C 0.72675 0.16230 0.52535
 C2439 C 0.73114 0.17684 0.52097
 C2440 C 0.73473 0.18933 0.51733
 H2441 H 0.70173 0.13289 0.51637
 H2442 H 0.73311 0.13442 0.55263
 H2443 H 0.72457 0.11026 0.56128
 H2444 H 0.69297 0.10861 0.52447
 C2445 C 0.72652 0.62674 0.04004
 C2446 C 0.71652 0.63654 0.03308
 C2447 C 0.70160 0.63227 0.03104
 C2448 C 0.69664 0.61828 0.03599
 C2449 C 0.70657 0.60835 0.04308
 C2450 C 0.72158 0.61273 0.04502
 C2451 C 0.72147 0.65110 0.02825
 C2452 C 0.72544 0.66338 0.02430
 C2453 C 0.72988 0.67787 0.01980
 C2454 C 0.73353 0.69032 0.01608
 H2455 H 0.73810 0.62993 0.04167
 H2456 H 0.69375 0.63980 0.02572
 H2457 H 0.68498 0.61537 0.03452
 H2458 H 0.72954 0.60529 0.05026
 C2459 C 0.22163 0.61956 0.70335
 C2460 C 0.21949 0.61560 0.71828
 C2461 C 0.21239 0.62559 0.72800
 C2462 C 0.20729 0.63942 0.72278
 C2463 C 0.20923 0.64344 0.70773
 C2464 C 0.21656 0.63337 0.69810
 C2465 C 0.22412 0.60107 0.72342
 C2466 C 0.22781 0.58873 0.72743
 C2467 C 0.23190 0.57412 0.73177
 C2468 C 0.23518 0.56149 0.73518
 H2469 H 0.22704 0.61187 0.69571
 H2470 H 0.21067 0.62263 0.73959
 H2471 H 0.20187 0.64698 0.73050
 H2472 H 0.21804 0.63599 0.68643
 C2473 C 0.20196 0.11726 0.21858
 C2474 C 0.21688 0.11309 0.21637
 C2475 C 0.22671 0.12289 0.20913
 C2476 C 0.22162 0.13678 0.20404
 C2477 C 0.20660 0.14105 0.20612
 C2478 C 0.19684 0.13114 0.21352
 C2479 C 0.22198 0.09863 0.22126
 C2480 C 0.22606 0.08641 0.22526
 C2481 C 0.23063 0.07200 0.22981
 C2482 C 0.23435 0.05960 0.23358
 H2483 H 0.19423 0.10973 0.22411
 H2484 H 0.23830 0.11978 0.20737
 H2485 H 0.22945 0.14421 0.19856
 H2486 H 0.18518 0.13396 0.21511
 C2487 C 0.70442 1.11970 0.72095
 C2488 C 0.71929 1.11551 0.71841
 C2489 C 0.72901 1.12536 0.71108
 C2490 C 0.72384 1.13929 0.70618
 C2491 C 0.70886 1.14355 0.70856
 C2492 C 0.69924 1.13361 0.71607
 C2493 C 0.72437 1.10094 0.72298
 C2494 C 0.72833 1.08859 0.72667
 C2495 C 0.73261 1.07397 0.73082
 C2496 C 0.73598 1.06136 0.73420
 H2497 H 0.69678 1.11213 0.72654
 H2498 H 0.74055 1.12223 0.70906
 H2499 H 0.73157 1.14675 0.70060
 H2500 H 0.68760 1.13641 0.71789
 C2501 C 0.71251 0.62599 0.22756
 C2502 C 0.71957 0.61596 0.21784
 C2503 C 0.72159 0.61985 0.20288
 C2504 C 0.71645 0.63363 0.19760
 C2505 C 0.70917 0.64373 0.20722
 C2506 C 0.70735 0.63979 0.22230
 C2507 C 0.72427 0.60147 0.22303
 C2508 C 0.72801 0.58917 0.22708
 C2509 C 0.73217 0.57459 0.23148
 C2510 C 0.73550 0.56199 0.23493
 H2511 H 0.71089 0.62309 0.23918
 H2512 H 0.72696 0.61214 0.19524
 H2513 H 0.71784 0.63619 0.18590
 H2514 H 0.70197 0.64738 0.23003
 C2515 C 0.52523 0.12846 0.70452
 C2516 C 0.53135 0.13492 0.71731
 C2517 C 0.54255 0.12739 0.72511
 C2518 C 0.54780 0.11355 0.72005
 C2519 C 0.54198 0.10688 0.70694
 C2520 C 0.53041 0.11461 0.69939
 C2521 C 0.52648 0.14951 0.72216
 C2522 C 0.52263 0.16185 0.72604
 C2523 C 0.51837 0.17644 0.73036
 C2524 C 0.51495 0.18903 0.73382
 H2525 H 0.51654 0.13422 0.69836
 H2526 H 0.54735 0.13229 0.73509
 H2527 H 0.55641 0.10825 0.72660
 H2528 H 0.52541 0.11032 0.68932
 C2529 C 1.03850 0.12444 0.22672
 C2530 C 1.03145 0.13448 0.21705
 C2531 C 1.02956 0.13068 0.20204
 C2532 C 1.03482 0.11697 0.19666
 C2533 C 1.04210 0.10685 0.20623
 C2534 C 1.04379 0.11071 0.22136
 C2535 C 1.02659 0.14890 0.22236
 C2536 C 1.02271 0.16113 0.22654
 C2537 C 1.01842 0.17564 0.23110
 C2538 C 1.01498 0.18818 0.23470
 H2539 H 1.04003 0.12726 0.23836
 H2540 H 1.02419 0.13841 0.19444
 H2541 H 1.03352 0.11447 0.18493
 H2542 H 1.04916 0.10310 0.22905
 C2543 C 0.21903 0.63241 0.54903
 C2544 C 0.21702 0.63660 0.53415
 C2545 C 0.21013 0.62669 0.52419
 C2546 C 0.20519 0.61267 0.52910
 C2547 C 0.20707 0.60838 0.54407
 C2548 C 0.21411 0.61840 0.55397
 C2549 C 0.22179 0.65118 0.52920
 C2550 C 0.22568 0.66347 0.52519
 C2551 C 0.23011 0.67794 0.52065
 C2552 C 0.23379 0.69037 0.51690
 H2553 H 0.22429 0.64002 0.55685
 H2554 H 0.20853 0.62982 0.51263
 H2555 H 0.19999 0.60516 0.52117
 H2556 H 0.21555 0.61556 0.56559
 C2557 C 0.21850 0.13181 1.04885
 C2558 C 0.21650 0.13567 1.03388
 C2559 C 0.20951 0.12559 1.02416
 C2560 C 0.20444 0.11174 1.02942
 C2561 C 0.20631 0.10779 1.04448
 C2562 C 0.21346 0.11798 1.05412
 C2563 C 0.22136 0.15010 1.02862
 C2564 C 0.22533 0.16230 1.02445
 C2565 C 0.22984 0.17670 1.01980
 C2566 C 0.23356 0.18911 1.01602
 H2567 H 0.22383 0.13957 1.05648
 H2568 H 0.20791 0.12846 1.01254
 H2569 H 0.19915 0.10408 1.02168
 H2570 H 0.21487 0.11542 1.06582
 C2571 C 0.21007 0.72773 0.62395
 C2572 C 0.21735 0.71797 0.61413
 C2573 C 0.21983 0.70309 0.61829
 C2574 C 0.21499 0.69794 0.63218
 C2575 C 0.20756 0.70762 0.64212
 C2576 C 0.20520 0.72260 0.63786
 C2577 C 0.22200 0.72307 0.59964
 C2578 C 0.22581 0.72711 0.58740
 C2579 C 0.23018 0.73157 0.57295
 C2580 C 0.23381 0.73515 0.56052
 H2581 H 0.20810 0.73928 0.62084
 H2582 H 0.22539 0.69542 0.61074
 H2583 H 0.21678 0.68630 0.63499
 H2584 H 0.19969 0.73037 0.64531
 C2585 C 0.22323 0.20322 1.11966
 C2586 C 0.21730 0.21628 1.11352
 C2587 C 0.20644 0.22431 1.12134
 C2588 C 0.20137 0.21923 1.13519
 C2589 C 0.20703 0.20588 1.14155
 C2590 C 0.21823 0.19807 1.13350
 C2591 C 0.22207 0.22124 1.09901
 C2592 C 0.22591 0.22525 1.08677
 C2593 C 0.23023 0.22977 1.07233
 C2594 C 0.23380 0.23345 1.05990
 H2595 H 0.23165 0.19689 1.11366
 H2596 H 0.20180 0.23449 1.11670
 H2597 H 0.19305 0.22598 1.14074
 H2598 H 0.22307 0.18779 1.13755
 C2599 C 0.72821 0.53964 0.12520
 C2600 C 0.71850 0.53219 0.13495
 C2601 C 0.70362 0.52971 0.13079
 C2602 C 0.69840 0.53473 0.11700
 C2603 C 0.70802 0.54234 0.10714
 C2604 C 0.72301 0.54468 0.11138
 C2605 C 0.72362 0.52743 0.14939
 C2606 C 0.72758 0.52357 0.16163
 C2607 C 0.73187 0.51923 0.17613
 C2608 C 0.73525 0.51572 0.18865
 H2609 H 0.73976 0.54162 0.12830
 H2610 H 0.69598 0.52403 0.13829
 H2611 H 0.68676 0.53294 0.11423
 H2612 H 0.73074 0.55034 0.10399
 C2613 C 0.70415 1.02793 0.63036
 C2614 C 0.71906 1.03028 0.63451
 C2615 C 0.72883 1.03764 0.62476
 C2616 C 0.72368 1.04277 0.61097
 C2617 C 0.70866 1.04060 0.60675
 C2618 C 0.69898 1.03304 0.61658
 C2619 C 0.72412 1.02557 0.64899
 C2620 C 0.72807 1.02182 0.66127
 C2621 C 0.73235 1.01767 0.67583
 C2622 C 0.73573 1.01436 0.68840
 H2623 H 0.69646 1.02233 0.63786
 H2624 H 0.74040 1.03952 0.62787
 H2625 H 0.73145 1.04838 0.60359
 H2626 H 0.68731 1.03138 0.61381
 C2627 C 0.53831 0.22934 0.62433
 C2628 C 0.53089 0.21961 0.63407
 C2629 C 0.52830 0.20475 0.62983
 C2630 C 0.53321 0.19959 0.61596
 C2631 C 0.54081 0.20923 0.60612
 C2632 C 0.54324 0.22419 0.61044
 C2633 C 0.52629 0.22466 0.64861
 C2634 C 0.52258 0.22855 0.66093
 C2635 C 0.51842 0.23274 0.67552
 C2636 C 0.51506 0.23603 0.68812
 H2637 H 0.54038 0.24087 0.62751
 H2638 H 0.52264 0.19710 0.63732
 H2639 H 0.53135 0.18796 0.61312
 H2640 H 0.54890 0.23193 0.60306
 C2641 C 1.04423 0.22479 0.12873
 C2642 C 1.03139 0.21861 0.13512
 C2643 C 1.02367 0.20726 0.12765
 C2644 C 1.02889 0.20191 0.11395
 C2645 C 1.04208 0.20777 0.10739
 C2646 C 1.04951 0.21951 0.11503
 C2647 C 1.02647 0.22350 0.14960
 C2648 C 1.02258 0.22735 0.16188
 C2649 C 1.01831 0.23157 0.17644
 C2650 C 1.01493 0.23492 0.18901
 H2651 H 1.05032 0.23359 0.13444
 H2652 H 1.01367 0.20241 0.13249
 H2653 H 1.02241 0.19318 0.10870
 H2654 H 1.05962 0.22457 0.11080
 C2655 C 0.62008 0.20405 0.72169
 C2656 C 0.61587 0.21894 0.71931
 C2657 C 0.62572 0.22876 0.71213
 C2658 C 0.63966 0.22367 0.70719
 C2659 C 0.64393 0.20866 0.70936
 C2660 C 0.63400 0.19893 0.71676
 C2661 C 0.60125 0.22394 0.72383
 C2662 C 0.58886 0.22785 0.72743
 C2663 C 0.57420 0.23211 0.73145
 C2664 C 0.56155 0.23547 0.73471
 H2665 H 0.61250 0.19632 0.72716
 H2666 H 0.62257 0.24032 0.71024
 H2667 H 0.64711 0.23148 0.70170
 H2668 H 0.63681 0.18727 0.71842
 C2669 C 1.12537 0.21104 0.22725
 C2670 C 1.11532 0.21811 0.21761
 C2671 C 1.11914 0.22012 0.20262
 C2672 C 1.13288 0.21496 0.19725
 C2673 C 1.14301 0.20766 0.20680
 C2674 C 1.13913 0.20585 0.22190
 C2675 C 1.10088 0.22287 0.22290
 C2676 C 1.08863 0.22667 0.22705
 C2677 C 1.07411 0.23090 0.23157
 C2678 C 1.06155 0.23430 0.23513
 H2679 H 1.12253 0.20942 0.23888
 H2680 H 1.11141 0.22551 0.19504
 H2681 H 1.13539 0.21634 0.18553
 H2682 H 1.14674 0.20046 0.22957
 C2683 C 0.12618 0.72697 0.53983
 C2684 C 0.13586 0.71703 0.53257
 C2685 C 0.13147 0.70216 0.53030
 C2686 C 0.11752 0.69720 0.53534
 C2687 C 0.10774 0.70706 0.54276
 C2688 C 0.11222 0.72203 0.54489
 C2689 C 0.15041 0.72197 0.52774
 C2690 C 0.16270 0.72594 0.52381
 C2691 C 0.17719 0.73041 0.51937
 C2692 C 0.18965 0.73408 0.51574
 H2693 H 0.12946 0.73852 0.54163
 H2694 H 0.13891 0.69435 0.52476
 H2695 H 0.11454 0.68556 0.53371
 H2696 H 0.10489 0.72995 0.55038
 C2697 C 0.13184 0.21853 1.04804
 C2698 C 0.13584 0.21613 1.03316
 C2699 C 0.12585 0.20891 1.02352
 C2700 C 0.11195 0.20400 1.02878
 C2701 C 0.10786 0.20625 1.04377
 C2702 C 0.11795 0.21364 1.05332
 C2703 C 0.15033 0.22082 1.02790
 C2704 C 0.16257 0.22465 1.02370
 C2705 C 0.17702 0.22903 1.01905
 C2706 C 0.18945 0.23268 1.01530
 H2707 H 0.13952 0.22405 1.05562
 H2708 H 0.12883 0.20702 1.01197
 H2709 H 0.10438 0.19853 1.02110
 H2710 H 0.11527 0.21536 1.06496
 C2711 C 0.63068 0.52905 0.20309
 C2712 C 0.63478 0.53148 0.21794
 C2713 C 0.62492 0.53886 0.22759
 C2714 C 0.61108 0.54394 0.22236
 C2715 C 0.60693 0.54170 0.20739
 C2716 C 0.61687 0.53410 0.19784
 C2717 C 0.64929 0.52680 0.22309
 C2718 C 0.66160 0.52306 0.22710
 C2719 C 0.67619 0.51889 0.23146
 C2720 C 0.68878 0.51553 0.23488
 H2721 H 0.63827 0.52342 0.19550
 H2722 H 0.62798 0.54080 0.23911
 H2723 H 0.60363 0.54957 0.23003
 H2724 H 0.61415 0.53238 0.18622
 C2725 C 0.62534 1.02247 0.71116
 C2726 C 0.63526 1.03234 0.71820
 C2727 C 0.63124 1.04735 0.72020
 C2728 C 0.61741 1.05252 0.71508
 C2729 C 0.60739 1.04273 0.70785
 C2730 C 0.61149 1.02762 0.70602
 C2731 C 0.64976 1.02723 0.72299
 C2732 C 0.66204 1.02321 0.72684
 C2733 C 0.67658 1.01880 0.73113
 C2734 C 0.68913 1.01530 0.73458
 H2735 H 0.62834 1.01083 0.70956
 H2736 H 0.63887 1.05510 0.72556
 H2737 H 0.61473 1.06424 0.71648
 H2738 H 0.60398 1.01977 0.70068
 C2739 C 0.87397 0.46093 0.27366
 C2740 C 0.86400 0.46789 0.28351
 C2741 C 0.86798 0.46979 0.29847
 C2742 C 0.88181 0.46465 0.30361
 C2743 C 0.89186 0.45750 0.29385
 C2744 C 0.88781 0.45577 0.27879
 C2745 C 0.84954 0.47273 0.27840
 C2746 C 0.83731 0.47664 0.27431
 C2747 C 0.82287 0.48104 0.26974
 C2748 C 0.81043 0.48464 0.26602
 H2749 H 0.87100 0.45941 0.26205
 H2750 H 0.86031 0.47509 0.30620
 H2751 H 0.88446 0.46597 0.31530
 H2752 H 0.89536 0.45049 0.27096
 C2753 C 0.86861 0.95204 0.78100
 C2754 C 0.86437 0.96697 0.78310
 C2755 C 0.87425 0.97698 0.79000
 C2756 C 0.88828 0.97206 0.79486
 C2757 C 0.89261 0.95704 0.79287
 C2758 C 0.88262 0.94710 0.78583
 C2759 C 0.84979 0.97191 0.77840
 C2760 C 0.83750 0.97586 0.77453
 C2761 C 0.82302 0.98029 0.77009
 C2762 C 0.81059 0.98392 0.76638
 H2763 H 0.86102 0.94418 0.77573
 H2764 H 0.87109 0.98858 0.79167
 H2765 H 0.89577 0.98003 0.80007
 H2766 H 0.88549 0.93543 0.78433
 C2767 C 0.38205 0.28079 0.79867
 C2768 C 0.38620 0.28294 0.78379
 C2769 C 0.37631 0.29000 0.77397
 C2770 C 0.36238 0.29500 0.77904
 C2771 C 0.35814 0.29299 0.79401
 C2772 C 0.36813 0.28576 0.80376
 C2773 C 0.40072 0.27817 0.77869
 C2774 C 0.41296 0.27431 0.77456
 C2775 C 0.42740 0.26991 0.76990
 C2776 C 0.43981 0.26629 0.76606
 H2777 H 0.38965 0.27539 0.80638
 H2778 H 0.37940 0.29171 0.76241
 H2779 H 0.35489 0.30034 0.77121
 H2780 H 0.36533 0.28423 0.81539
 C2781 C 0.88267 0.28105 0.29998
 C2782 C 0.88683 0.28316 0.28510
 C2783 C 0.87705 0.29040 0.27531
 C2784 C 0.86319 0.29561 0.28040
 C2785 C 0.85894 0.29363 0.29537
 C2786 C 0.86883 0.28622 0.30509
 C2787 C 0.90126 0.27817 0.27998
 C2788 C 0.91344 0.27412 0.27583
 C2789 C 0.92781 0.26953 0.27114
 C2790 C 0.94017 0.26577 0.26726
 H2791 H 0.89019 0.27552 0.30768
 H2792 H 0.88015 0.29209 0.26375
 H2793 H 0.85578 0.30108 0.27259
 H2794 H 0.86602 0.28471 0.31672
 C2795 C 0.37548 0.78846 0.47810
 C2796 C 0.36564 0.78116 0.46836
 C2797 C 0.36981 0.77878 0.45353
 C2798 C 0.38371 0.78378 0.44838
 C2799 C 0.39364 0.79128 0.45802
 C2800 C 0.38939 0.79348 0.47297
 C2801 C 0.35106 0.77651 0.47342
 C2802 C 0.33871 0.77278 0.47737
 C2803 C 0.32409 0.76862 0.48167
 C2804 C 0.31148 0.76526 0.48508
 H2805 H 0.37235 0.79036 0.48961
 H2806 H 0.36225 0.77322 0.44587
 H2807 H 0.38650 0.78209 0.43677
 H2808 H 0.39684 0.79904 0.48071
 C2809 C 0.37474 0.28839 0.97694
 C2810 C 0.36482 0.28114 0.96725
 C2811 C 0.36875 0.27910 0.95229
 C2812 C 0.38248 0.28438 0.94699
 C2813 C 0.39249 0.29182 0.95659
 C2814 C 0.38850 0.29369 0.97165
 C2815 C 0.35039 0.27622 0.97245
 C2816 C 0.33814 0.27228 0.97651
 C2817 C 0.32362 0.26790 0.98091
 C2818 C 0.31106 0.26440 0.98438
 H2819 H 0.37181 0.29003 0.98854
 H2820 H 0.36111 0.27359 0.94467
 H2821 H 0.38507 0.28296 0.93530
 H2822 H 0.39602 0.29920 0.97936
 C2823 C 0.78003 0.45081 0.36725
 C2824 C 0.78212 0.46576 0.36306
 C2825 C 0.78932 0.47569 0.37278
 C2826 C 0.79453 0.47067 0.38659
 C2827 C 0.79260 0.45562 0.39087
 C2828 C 0.78521 0.44577 0.38105
 C2829 C 0.77721 0.47079 0.34863
 C2830 C 0.77325 0.47488 0.33646
 C2831 C 0.76882 0.47951 0.32209
 C2832 C 0.76521 0.48332 0.30972
 H2833 H 0.77454 0.44301 0.35978
 H2834 H 0.79099 0.48729 0.36965
 H2835 H 0.79998 0.47857 0.39395
 H2836 H 0.78373 0.43409 0.38388
 C2837 C 0.78900 0.97723 0.87358
 C2838 C 0.78210 0.96720 0.86374
 C2839 C 0.78006 0.95225 0.86793
 C2840 C 0.78497 0.94730 0.88186
 C2841 C 0.79203 0.95725 0.89181
 C2842 C 0.79393 0.97229 0.88753
 C2843 C 0.77742 0.97214 0.84920
 C2844 C 0.77362 0.97608 0.83694
 C2845 C 0.76932 0.98051 0.82246
 C2846 C 0.76580 0.98412 0.81001
 H2847 H 0.79063 0.98883 0.87046
 H2848 H 0.77480 0.94438 0.86036
 H2849 H 0.78352 0.93562 0.88468
 H2850 H 0.79915 0.98027 0.89499
 C2851 C 0.27861 0.79661 0.38086
 C2852 C 0.28063 0.78165 0.38502
 C2853 C 0.28759 0.77168 0.37518
 C2854 C 0.29265 0.77668 0.36129
 C2855 C 0.29081 0.79174 0.35706
 C2856 C 0.28364 0.80163 0.36699
 C2857 C 0.27596 0.77672 0.39956
 C2858 C 0.27223 0.77285 0.41188
 C2859 C 0.26809 0.76864 0.42647
 C2860 C 0.26477 0.76530 0.43906
 H2861 H 0.27331 0.80444 0.38843
 H2862 H 0.28922 0.76007 0.37828
 H2863 H 0.29795 0.76875 0.35384
 H2864 H 0.28225 0.81333 0.36421
 C2865 C 0.27867 0.29675 0.88099
 C2866 C 0.28077 0.28176 0.88497
 C2867 C 0.28803 0.27200 0.87512
 C2868 C 0.29329 0.27725 0.86140
 C2869 C 0.29136 0.29236 0.85735
 C2870 C 0.28390 0.30202 0.86729
 C2871 C 0.27592 0.27659 0.89937
 C2872 C 0.27204 0.27255 0.91159
 C2873 C 0.26776 0.26815 0.92608
 C2874 C 0.26436 0.26467 0.93861
 H2875 H 0.27315 0.30442 0.88857
 H2876 H 0.28973 0.26037 0.87810
 H2877 H 0.29881 0.26950 0.85394
 H2878 H 0.28243 0.31374 0.86465
 C2879 C 0.45214 0.28109 0.86720
 C2880 C 0.46704 0.28351 0.86304
 C2881 C 0.47678 0.29091 0.87279
 C2882 C 0.47162 0.29595 0.88664
 C2883 C 0.45663 0.29363 0.89091
 C2884 C 0.44696 0.28610 0.88103
 C2885 C 0.47217 0.27865 0.84862
 C2886 C 0.47622 0.27466 0.83642
 C2887 C 0.48070 0.27013 0.82203
 C2888 C 0.48432 0.26641 0.80962
 H2889 H 0.44449 0.27544 0.85970
 H2890 H 0.48834 0.29284 0.86968
 H2891 H 0.47937 0.30154 0.89405
 H2892 H 0.43532 0.28434 0.88384
 C2893 C 0.95267 0.28038 0.36816
 C2894 C 0.96757 0.28279 0.36400
 C2895 C 0.97731 0.29019 0.37377
 C2896 C 0.97213 0.29525 0.38760
 C2897 C 0.95713 0.29296 0.39185
 C2898 C 0.94748 0.28541 0.38197
 C2899 C 0.97272 0.27794 0.34958
 C2900 C 0.97678 0.27398 0.33739
 C2901 C 0.98125 0.26946 0.32298
 C2902 C 0.98485 0.26575 0.31057
 H2903 H 0.94502 0.27473 0.36065
 H2904 H 0.98887 0.29212 0.37066
 H2905 H 0.97988 0.30086 0.39501
 H2906 H 0.93583 0.28366 0.38476
 C2907 C 0.46860 0.36803 0.79792
 C2908 C 0.46647 0.36412 0.78297
 C2909 C 0.45942 0.37416 0.77330
 C2910 C 0.45442 0.38802 0.77858
 C2911 C 0.45641 0.39202 0.79363
 C2912 C 0.46362 0.38187 0.80322
 C2913 C 0.47125 0.34967 0.77769
 C2914 C 0.47516 0.33746 0.77349
 C2915 C 0.47962 0.32304 0.76884
 C2916 C 0.48332 0.31062 0.76509
 H2917 H 0.47398 0.36030 0.80552
 H2918 H 0.45772 0.37125 0.76169
 H2919 H 0.44908 0.39565 0.77088
 H2920 H 0.46514 0.38448 0.81490
 C2921 C 0.95137 0.36760 0.28078
 C2922 C 0.96635 0.36353 0.28276
 C2923 C 0.97624 0.37345 0.28977
 C2924 C 0.97115 0.38733 0.29490
 C2925 C 0.95607 0.39149 0.29307
 C2926 C 0.94625 0.38148 0.28588
 C2927 C 0.97144 0.34904 0.27791
 C2928 C 0.97552 0.33679 0.27399
 C2929 C 0.98008 0.32233 0.26955
 C2930 C 0.98379 0.30989 0.26590
 H2931 H 0.94360 0.35998 0.27543
 H2932 H 0.98787 0.37041 0.29135
 H2933 H 0.97902 0.39484 0.30021
 H2934 H 0.93455 0.38421 0.28449
 C2935 C 0.27901 0.87016 0.45363
 C2936 C 0.28136 0.86606 0.46848
 C2937 C 0.28865 0.87596 0.47818
 C2938 C 0.29370 0.88984 0.47300
 C2939 C 0.29153 0.89401 0.45803
 C2940 C 0.28404 0.88403 0.44843
 C2941 C 0.27669 0.85151 0.47359
 C2942 C 0.27294 0.83919 0.47760
 C2943 C 0.26876 0.82459 0.48196
 C2944 C 0.26537 0.81199 0.48541
 H2945 H 0.27346 0.86255 0.44600
 H2946 H 0.29052 0.87290 0.48971
 H2947 H 0.29925 0.89733 0.48071
 H2948 H 0.28239 0.88676 0.43681
 C2949 C 0.27245 0.37458 0.96143
 C2950 C 0.28223 0.36469 0.96857
 C2951 C 0.29726 0.36865 0.97049
 C2952 C 0.30255 0.38237 0.96516
 C2953 C 0.29286 0.39234 0.95780
 C2954 C 0.27772 0.38832 0.95608
 C2955 C 0.27703 0.35026 0.97349
 C2956 C 0.27296 0.33800 0.97740
 C2957 C 0.26852 0.32347 0.98171
 C2958 C 0.26501 0.31089 0.98514
 H2959 H 0.26079 0.37163 0.95989
 H2960 H 0.30495 0.36103 0.97592
 H2961 H 0.31430 0.38498 0.96647
 H2962 H 0.26994 0.39581 0.95064
 C2963 C 0.78138 0.38284 0.29844
 C2964 C 0.78381 0.38680 0.28356
 C2965 C 0.79121 0.37687 0.27400
 C2966 C 0.79624 0.36304 0.27933
 C2967 C 0.79393 0.35898 0.29431
 C2968 C 0.78639 0.36903 0.30379
 C2969 C 0.77896 0.40120 0.27823
 C2970 C 0.77497 0.41337 0.27401
 C2971 C 0.77041 0.42774 0.26932
 C2972 C 0.76663 0.44013 0.26556
 H2973 H 0.77573 0.39048 0.30596
 H2974 H 0.79314 0.37982 0.26245
 H2975 H 0.80183 0.35550 0.27171
 H2976 H 0.78462 0.36638 0.31542
   
