data_POSCAR
  _audit_creation_date              2014-09-24
  _audit_creation_method            'ToBaCCo'
  _symmetry_space_group_name_H-M    'P1'
  _symmetry_Int_Tables_number       1
  _symmetry_cell_setting            triclinic
  loop_
  _symmetry_equiv_pos_as_xyz
 x,y,z
_cell_length_a 55.9319
_cell_length_b 49.6295
_cell_length_c 52.3425
_cell_angle_alpha 90.188900
_cell_angle_beta 89.983700
_cell_angle_gamma 89.877900
loop_
  _atom_site_label
  _atom_site_type_symbol
  _atom_site_fract_x
  _atom_site_fract_y
  _atom_site_fract_z
O1 O 0.34213 0.31113 -0.02563
 O2 O 0.31378 0.35015 0.02568
 O3 O 0.34817 0.31475 0.02300
 O4 O 0.30768 0.34612 -0.02324
 O5 O 0.28134 0.31384 -0.01714
 O6 O 0.32217 0.28219 0.02982
 O7 O 0.28745 0.31780 0.03188
 O8 O 0.31680 0.27779 -0.01909
 Cu9 Cu 0.33045 0.33381 -0.00064
 Cu10 Cu 0.29924 0.29461 0.00684
 C11 C 0.33486 0.28750 -0.03059
 C12 C 0.29563 0.34099 0.03735
 C13 C 0.34244 0.29291 0.03397
 C14 C 0.28736 0.33581 -0.02783
 O15 O 0.67964 0.63685 0.01437
 O16 O 0.64268 0.66971 -0.03409
 O17 O 0.67766 0.63542 -0.03515
 O18 O 0.64437 0.67044 0.01520
 O19 O 0.66979 0.70432 0.01376
 O20 O 0.70355 0.66875 -0.03708
 O21 O 0.66824 0.70341 -0.03617
 O22 O 0.70558 0.67022 0.01291
 Cu23 Cu 0.65860 0.64973 -0.00980
 Cu24 Cu 0.68942 0.69007 -0.01183
 C25 C 0.69882 0.64782 0.02210
 C26 C 0.64894 0.69222 -0.04335
 C27 C 0.69630 0.64585 -0.04482
 C28 C 0.65121 0.69336 0.02311
 O29 O 0.63790 0.32927 1.02643
 O30 O 0.67570 0.35923 0.97686
 O31 O 0.63919 0.32693 0.97714
 O32 O 0.67344 0.36253 1.02634
 O33 O 0.69866 0.32851 1.02921
 O34 O 0.66328 0.29185 0.98051
 O35 O 0.70056 0.32480 0.97925
 O36 O 0.66305 0.29516 1.02998
 Cu37 Cu 0.65417 0.34796 1.00133
 Cu38 Cu 0.68400 0.30665 1.00480
 C39 C 0.64394 0.30713 1.03672
 C40 C 0.69464 0.34732 0.96961
 C41 C 0.64490 0.30306 0.97087
 C42 C 0.69178 0.35178 1.03641
 O43 O 0.31962 0.64248 0.97234
 O44 O 0.35947 0.67664 1.01759
 O45 O 0.32401 0.64317 1.02190
 O46 O 0.35528 0.67577 0.96904
 O47 O 0.33043 0.71028 0.97104
 O48 O 0.29881 0.67724 1.02459
 O49 O 0.33441 0.71095 1.02023
 O50 O 0.29406 0.67631 0.97492
 Cu51 Cu 0.34193 0.65598 0.99498
 Cu52 Cu 0.31175 0.69705 0.99780
 C53 C 0.29994 0.65337 0.96604
 C54 C 0.35415 0.69986 1.02616
 C55 C 0.30613 0.65444 1.03247
 C56 C 0.34887 0.69898 0.96158
 O57 O 0.02033 0.32567 0.35024
 O58 O -0.02756 0.35212 0.30926
 O59 O -0.02569 0.31916 0.34756
 O60 O 0.01788 0.36034 0.31346
 O61 O 0.02440 0.32755 0.28575
 O62 O -0.01887 0.28522 0.32131
 O63 O -0.02129 0.31901 0.28178
 O64 O 0.02713 0.29299 0.32247
 Cu65 Cu -0.00446 0.34255 0.33286
 Cu66 Cu 0.00320 0.30274 0.30004
 C67 C 0.03210 0.30497 0.34325
 C68 C -0.03222 0.34043 0.28823
 C69 C -0.02946 0.29496 0.34085
 C70 C 0.02856 0.35130 0.29383
 O71 O 0.01571 0.69013 0.65517
 O72 O -0.02507 0.65281 0.69705
 O73 O -0.02985 0.68903 0.66209
 O74 O 0.02081 0.65244 0.68963
 O75 O 0.02466 0.68323 0.71981
 O76 O -0.02491 0.72174 0.69016
 O77 O -0.02139 0.68439 0.72658
 O78 O 0.02104 0.72094 0.68512
 Cu79 Cu -0.00490 0.66792 0.67313
 Cu80 Cu 0.00012 0.70571 0.70849
 C81 C 0.02504 0.71208 0.66272
 C82 C -0.03009 0.66211 0.71903
 C83 C -0.03556 0.71212 0.67065
 C84 C 0.03115 0.66109 0.70962
 O85 O 1.02146 0.65078 0.31299
 O86 O 0.97717 0.67957 0.35718
 O87 O 0.97519 0.64704 0.31786
 O88 O 1.02307 0.68229 0.35222
 O89 O 1.01803 0.71780 0.32761
 O90 O 0.97132 0.68148 0.29159
 O91 O 0.97175 0.71400 0.33125
 O92 O 1.01726 0.68576 0.28740
 Cu93 Cu 0.99956 0.66138 0.33755
 Cu94 Cu 0.99414 0.70331 0.30692
 C95 C 1.02696 0.66329 0.29271
 C96 C 0.96706 0.70183 0.35199
 C97 C 0.96541 0.65792 0.29857
 C98 C 1.02854 0.70626 0.34618
 O99 O 0.97720 0.30357 0.65159
 O100 O 1.02424 0.34462 0.68104
 O101 O 1.02267 0.30748 0.64595
 O102 O 0.97821 0.34027 0.68690
 O103 O 0.98388 0.30921 0.71637
 O104 O 1.02916 0.27637 0.67511
 O105 O 1.03021 0.31348 0.71033
 O106 O 0.98352 0.27154 0.67999
 Cu107 Cu 1.00001 0.32719 0.66359
 Cu108 Cu 1.00708 0.28958 0.69858
 C109 C 0.97288 0.28020 0.66016
 C110 C 1.03535 0.33619 0.70062
 C111 C 1.03328 0.28613 0.65311
 C112 C 0.97351 0.33053 0.70869
 O113 O 0.36161 0.01476 0.32851
 O114 O 0.32597 -0.03545 0.36232
 O115 O 0.36089 -0.03718 0.32964
 O116 O 0.32676 0.01661 0.36091
 O117 O 0.30045 0.01640 0.32953
 O118 O 0.33509 -0.03788 0.29779
 O119 O 0.29966 -0.03607 0.33095
 O120 O 0.33572 0.01487 0.29673
 Cu121 Cu 0.34636 -0.01034 0.34850
 Cu122 Cu 0.31511 -0.01080 0.31051
 C123 C 0.35493 0.02344 0.30688
 C124 C 0.30663 -0.04418 0.35273
 C125 C 0.35413 -0.04655 0.30825
 C126 C 0.30780 0.02574 0.35076
 O127 O 0.63940 0.03818 0.67062
 O128 O 0.67103 -0.01742 0.63930
 O129 O 0.63737 -0.01333 0.67354
 O130 O 0.67335 0.03472 0.63714
 O131 O 0.70031 0.03548 0.66786
 O132 O 0.66433 -0.01377 0.70429
 O133 O 0.69832 -0.01734 0.66969
 O134 O 0.66583 0.03834 0.70190
 Cu135 Cu 0.65272 0.01043 0.65202
 Cu136 Cu 0.68504 0.01067 0.68895
 C137 C 0.64676 0.04744 0.69183
 C138 C 0.69014 -0.02682 0.64885
 C139 C 0.64429 -0.02131 0.69535
 C140 C 0.69291 0.04348 0.64619
 O141 O 0.36052 0.97753 0.66641
 O142 O 0.32792 1.02947 0.63141
 O143 O 0.36211 1.02949 0.66470
 O144 O 0.32598 0.97723 0.63353
 O145 O 0.29941 0.97956 0.66460
 O146 O 0.33571 1.03237 0.69591
 O147 O 0.30123 1.03235 0.66233
 O148 O 0.33434 0.97983 0.69786
 Cu149 Cu 0.34670 1.00316 0.64586
 Cu150 Cu 0.31495 1.00626 0.68330
 C151 C 0.35325 0.96987 0.68816
 C152 C 0.30914 1.03996 0.64075
 C153 C 0.35520 1.03985 0.68567
 C154 C 0.30660 0.96931 0.64367
 O155 O 0.64581 0.97229 0.32585
 O156 O 0.68002 1.02548 0.35746
 O157 O 0.64543 1.02377 0.32435
 O158 O 0.68017 0.97333 0.35916
 O159 O 0.70691 0.97191 0.32821
 O160 O 0.67167 1.02319 0.29289
 O161 O 0.70688 1.02446 0.32669
 O162 O 0.67195 0.97101 0.29431
 Cu163 Cu 0.66036 0.99885 0.34488
 Cu164 Cu 0.69211 0.99757 0.30742
 C165 C 0.65251 0.96306 0.30436
 C166 C 0.69946 1.03394 0.34788
 C167 C 0.65206 1.03158 0.30240
 C168 C 0.69949 0.96403 0.34992
 C169 C 0.88304 0.79002 0.51462
 C170 C 0.87211 0.79329 0.49081
 C171 C 0.85157 0.80942 0.48874
 C172 C 0.84194 0.82291 0.51030
 C173 C 0.85372 0.81958 0.53404
 C174 C 0.87381 0.80282 0.53631
 C175 C 0.81921 0.83916 0.50827
 C176 C 0.80520 0.84487 0.53020
 C177 C 0.78365 0.85919 0.52833
 C178 C 0.77520 0.86677 0.50431
 C179 C 0.78858 0.86158 0.48229
 C180 C 0.81084 0.84866 0.48435
 H181 H 0.89854 0.77699 0.51637
 H182 H 0.84287 0.81031 0.47035
 H183 H 0.84765 0.82984 0.55107
 H184 H 0.81040 0.83799 0.54893
 H185 H 0.75850 0.87779 0.50278
 H186 H 0.82122 0.84600 0.46712
 C187 C 0.12541 0.22142 0.49313
 C188 C 0.13890 0.21911 0.47080
 C189 C 0.15923 0.20264 0.47043
 C190 C 0.16606 0.18800 0.49236
 C191 C 0.15163 0.18997 0.51449
 C192 C 0.13152 0.20690 0.51505
 C193 C 0.18854 0.17161 0.49246
 C194 C 0.20120 0.16729 0.51545
 C195 C 0.22262 0.15268 0.51557
 C196 C 0.23211 0.14323 0.49253
 C197 C 0.21987 0.14699 0.46953
 C198 C 0.19786 0.16055 0.46959
 H199 H 0.11002 0.23474 0.49336
 H200 H 0.16992 0.20207 0.45321
 H201 H 0.15570 0.17824 0.53131
 H202 H 0.19482 0.17548 0.53337
 H203 H 0.24860 0.13168 0.49262
 H204 H 0.18824 0.16241 0.45176
 C205 C 0.10747 0.79739 0.50260
 C206 C 0.11617 0.80711 0.52597
 C207 C 0.13814 0.82085 0.52645
 C208 C 0.15231 0.82333 0.50413
 C209 C 0.14351 0.81175 0.48124
 C210 C 0.12089 0.79982 0.48027
 C211 C 0.17625 0.83725 0.50459
 C212 C 0.18697 0.84630 0.48165
 C213 C 0.21007 0.85711 0.48155
 C214 C 0.22212 0.86078 0.50463
 C215 C 0.21139 0.85393 0.52782
 C216 C 0.18881 0.84164 0.52777
 H217 H 0.09066 0.78660 0.50184
 H218 H 0.14380 0.82951 0.54438
 H219 H 0.15396 0.81170 0.46389
 H220 H 0.17771 0.84509 0.46359
 H221 H 0.23952 0.87038 0.50462
 H222 H 0.18157 0.83544 0.54593
 C223 C 0.89655 0.19550 0.49819
 C224 C 0.88638 0.18617 0.52096
 C225 C 0.86436 0.17271 0.52014
 C226 C 0.85121 0.17045 0.49717
 C227 C 0.86136 0.18147 0.47477
 C228 C 0.88416 0.19322 0.47504
 C229 C 0.82674 0.15779 0.49675
 C230 C 0.81651 0.14853 0.47358
 C231 C 0.79309 0.13853 0.47287
 C232 C 0.78020 0.13601 0.49561
 C233 C 0.79030 0.14341 0.51900
 C234 C 0.81316 0.15493 0.51945
 H235 H 0.91346 0.20614 0.49869
 H236 H 0.85770 0.16439 0.53778
 H237 H 0.85166 0.18145 0.45694
 H238 H 0.82644 0.14896 0.45589
 H239 H 0.76258 0.12693 0.49521
 H240 H 0.81983 0.16177 0.53769
 C241 C 0.49602 0.88389 0.77913
 C242 C 0.47555 0.86958 0.78587
 C243 C 0.47681 0.84971 0.80463
 C244 C 0.49848 0.84444 0.81751
 C245 C 0.51891 0.85968 0.81089
 C246 C 0.51784 0.87918 0.79150
 C247 C 0.49976 0.82266 0.83718
 C248 C 0.52137 0.80881 0.84189
 C249 C 0.52218 0.78750 0.85931
 C250 C 0.50128 0.77937 0.87171
 C251 C 0.47964 0.79304 0.86783
 C252 C 0.47913 0.81494 0.85093
 H253 H 0.49485 0.89867 0.76397
 H254 H 0.46087 0.83813 0.80856
 H255 H 0.53562 0.85685 0.82092
 H256 H 0.53755 0.81387 0.83167
 H257 H 0.50204 0.76235 0.88459
 H258 H 0.46261 0.82608 0.84886
 C259 C 0.49870 0.11903 0.22172
 C260 C 0.47725 0.13138 0.21470
 C261 C 0.47712 0.15067 0.19528
 C262 C 0.49839 0.15737 0.18222
 C263 C 0.51975 0.14379 0.18902
 C264 C 0.52008 0.12488 0.20895
 C265 C 0.49834 0.17885 0.16214
 C266 C 0.51929 0.19371 0.15695
 C267 C 0.51921 0.21428 0.13872
 C268 C 0.49805 0.22066 0.12593
 C269 C 0.47703 0.20615 0.13039
 C270 C 0.47731 0.18512 0.14830
 H271 H 0.49862 0.10466 0.23727
 H272 H 0.46045 0.16078 0.19107
 H273 H 0.53615 0.14744 0.17867
 H274 H 0.53567 0.18998 0.16731
 H275 H 0.49810 0.23691 0.11215
 H276 H 0.46120 0.17346 0.15089
 C277 C 0.49822 0.14519 0.76758
 C278 C 0.51901 0.15002 0.78163
 C279 C 0.51738 0.16212 0.80581
 C280 C 0.49514 0.17128 0.81549
 C281 C 0.47443 0.16625 0.80066
 C282 C 0.47582 0.15244 0.77727
 C283 C 0.49356 0.18571 0.84084
 C284 C 0.47162 0.18795 0.85413
 C285 C 0.46994 0.20218 0.87727
 C286 C 0.49070 0.21265 0.88843
 C287 C 0.51275 0.21055 0.87589
 C288 C 0.51393 0.19789 0.85190
 H289 H 0.49944 0.13442 0.74956
 H290 H 0.53365 0.16416 0.81674
 H291 H 0.45698 0.17295 0.80681
 H292 H 0.45552 0.17876 0.84689
 H293 H 0.48955 0.22369 0.90629
 H294 H 0.53094 0.19781 0.84214
 C295 C 0.50123 0.86634 0.22422
 C296 C 0.52309 0.86392 0.21131
 C297 C 0.52426 0.84799 0.18912
 C298 C 0.50398 0.83390 0.18008
 C299 C 0.48214 0.83711 0.19337
 C300 C 0.48069 0.85359 0.21508
 C301 C 0.50566 0.81588 0.15708
 C302 C 0.48520 0.81002 0.14220
 C303 C 0.48639 0.79195 0.12150
 C304 C 0.50854 0.78067 0.11488
 C305 C 0.52912 0.78694 0.12869
 C306 C 0.52766 0.80393 0.15000
 H307 H 0.50000 0.87860 0.24135
 H308 H 0.54094 0.84724 0.17871
 H309 H 0.46618 0.82658 0.18740
 H310 H 0.46827 0.81962 0.14631
 H311 H 0.50987 0.76655 0.09910
 H312 H 0.54371 0.80727 0.16106
 C313 C 0.78005 0.49200 0.86305
 C314 C 0.79309 0.46801 0.86164
 C315 C 0.81643 0.46832 0.85179
 C316 C 0.82637 0.49232 0.84176
 C317 C 0.81261 0.51626 0.84349
 C318 C 0.78990 0.51627 0.85476
 C319 C 0.85074 0.49245 0.82951
 C320 C 0.86368 0.51670 0.82653
 C321 C 0.88557 0.51725 0.81344
 C322 C 0.89574 0.49302 0.80499
 C323 C 0.88359 0.46860 0.80800
 C324 C 0.86095 0.46851 0.81962
 H325 H 0.76255 0.49198 0.87198
 H326 H 0.82653 0.44974 0.85210
 H327 H 0.81907 0.53515 0.83605
 H328 H 0.85699 0.53554 0.83403
 H329 H 0.91249 0.49335 0.79457
 H330 H 0.85139 0.44965 0.82042
 C331 C 0.22588 0.50667 0.13584
 C332 C 0.21306 0.48294 0.13988
 C333 C 0.19063 0.48422 0.15183
 C334 C 0.18149 0.50895 0.16133
 C335 C 0.19492 0.53262 0.15682
 C336 C 0.21670 0.53158 0.14359
 C337 C 0.15840 0.50993 0.17613
 C338 C 0.14554 0.53436 0.17931
 C339 C 0.12479 0.53543 0.19434
 C340 C 0.11618 0.51192 0.20562
 C341 C 0.12835 0.48754 0.20266
 C342 C 0.14942 0.48657 0.18824
 H343 H 0.24263 0.50586 0.12542
 H344 H 0.18062 0.46573 0.15362
 H345 H 0.18899 0.55205 0.16369
 H346 H 0.15128 0.55278 0.17029
 H347 H 0.10030 0.51273 0.21749
 H348 H 0.15901 0.46767 0.18758
 C349 C 0.77410 0.50195 0.13524
 C350 C 0.78743 0.52555 0.13790
 C351 C 0.80987 0.52457 0.14978
 C352 C 0.81857 0.50027 0.16041
 C353 C 0.80468 0.47667 0.15730
 C354 C 0.78287 0.47736 0.14416
 C355 C 0.84203 0.49952 0.17434
 C356 C 0.85499 0.47520 0.17695
 C357 C 0.87649 0.47432 0.19069
 C358 C 0.88610 0.49820 0.20050
 C359 C 0.87366 0.52253 0.19823
 C360 C 0.85146 0.52303 0.18582
 H361 H 0.75736 0.50250 0.12479
 H362 H 0.82034 0.54285 0.15047
 H363 H 0.81041 0.45756 0.16503
 H364 H 0.84865 0.45664 0.16854
 H365 H 0.90261 0.49763 0.21133
 H366 H 0.84167 0.54183 0.18549
 C367 C 0.20035 0.49389 0.89131
 C368 C 0.19719 0.51819 0.87830
 C369 C 0.18390 0.51857 0.85558
 C370 C 0.17249 0.49506 0.84634
 C371 C 0.17613 0.47074 0.85990
 C372 C 0.19059 0.46995 0.88181
 C373 C 0.15745 0.49589 0.82246
 C374 C 0.15258 0.47215 0.80830
 C375 C 0.13849 0.47292 0.78614
 C376 C 0.13026 0.49772 0.77709
 C377 C 0.13474 0.52152 0.79056
 C378 C 0.14761 0.52046 0.81355
 H379 H 0.21171 0.49339 0.90809
 H380 H 0.18282 0.53736 0.84528
 H381 H 0.16791 0.45213 0.85381
 H382 H 0.15969 0.45285 0.81401
 H383 H 0.11920 0.49839 0.76009
 H384 H 0.14974 0.53898 0.82420
 C385 C 0.25932 0.39338 0.09043
 C386 C 0.28207 0.39994 0.08092
 C387 C 0.29406 0.38252 0.06434
 C388 C 0.28364 0.35804 0.05679
 C389 C 0.26116 0.35104 0.06680
 C390 C 0.24906 0.36861 0.08339
 C391 C 0.24610 0.41327 0.10636
 C392 C 0.22172 0.41860 0.10193
 C393 C 0.21038 0.44036 0.11405
 C394 C 0.22329 0.45716 0.13066
 C395 C 0.24715 0.45076 0.13634
 C396 C 0.25840 0.42899 0.12443
 H397 H 0.31133 0.38857 0.05698
 H398 H 0.25264 0.33233 0.06129
 H399 H 0.19199 0.44503 0.10928
 H400 H 0.25736 0.46326 0.14936
 H401 H 0.23162 0.36294 0.09053
 H402 H 0.21180 0.40696 0.08800
 H403 H 0.29031 0.41907 0.08557
 H404 H 0.27702 0.42503 0.12870
 C405 C 0.74011 0.60621 0.07912
 C406 C 0.74959 0.62907 0.06701
 C407 C 0.73613 0.64301 0.04869
 C408 C 0.71311 0.63409 0.04200
 C409 C 0.70369 0.61135 0.05428
 C410 C 0.71699 0.59763 0.07258
 C411 C 0.75436 0.59011 0.09749
 C412 C 0.74318 0.57882 0.11899
 C413 C 0.75477 0.55913 0.13334
 C414 C 0.77787 0.55061 0.12672
 C415 C 0.78995 0.56351 0.10671
 C416 C 0.77824 0.58314 0.09213
 H417 H 0.74385 0.66048 0.03954
 H418 H 0.68602 0.60393 0.04962
 H419 H 0.74522 0.54948 0.14882
 H420 H 0.80772 0.55701 0.10121
 H421 H 0.70936 0.57976 0.08113
 H422 H 0.72498 0.58424 0.12391
 H423 H 0.76737 0.63613 0.07171
 H424 H 0.78726 0.59141 0.07563
 C425 C 0.73972 0.38794 0.91531
 C426 C 0.71627 0.39686 0.92009
 C427 C 0.70161 0.38325 0.93725
 C428 C 0.70995 0.36031 0.95013
 C429 C 0.73322 0.35093 0.94501
 C430 C 0.74803 0.36472 0.92785
 C431 C 0.75554 0.40410 0.89848
 C432 C 0.77916 0.41010 0.90578
 C433 C 0.79236 0.42951 0.89247
 C434 C 0.78206 0.44321 0.87180
 C435 C 0.75922 0.43572 0.86334
 C436 C 0.74615 0.41626 0.87643
 H437 H 0.68380 0.39106 0.94075
 H438 H 0.74018 0.33334 0.95471
 H439 H 0.80989 0.43517 0.89942
 H440 H 0.75102 0.44597 0.84732
 H441 H 0.76600 0.35735 0.92450
 H442 H 0.78683 0.40118 0.92276
 H443 H 0.70946 0.41497 0.91118
 H444 H 0.72821 0.41165 0.87001
 C445 C 0.25209 0.60540 0.92087
 C446 C 0.24311 0.62603 0.93663
 C447 C 0.25872 0.64268 0.95034
 C448 C 0.28355 0.63853 0.94894
 C449 C 0.29250 0.61844 0.93254
 C450 C 0.27693 0.60220 0.91846
 C451 C 0.23584 0.58557 0.90882
 C452 C 0.23873 0.57805 0.88309
 C453 C 0.22524 0.55698 0.87271
 C454 C 0.20902 0.54278 0.88805
 C455 C 0.20560 0.55084 0.91352
 C456 C 0.21873 0.57221 0.92376
 H457 H 0.25136 0.65794 0.96294
 H458 H 0.31156 0.61487 0.93105
 H459 H 0.22824 0.55096 0.85305
 H460 H 0.19316 0.54013 0.92565
 H461 H 0.28428 0.58627 0.90662
 H462 H 0.25182 0.58810 0.87123
 H463 H 0.22400 0.62887 0.93874
 H464 H 0.21636 0.57745 0.94370
 C465 C 0.08736 0.27294 0.39162
 C466 C 0.07120 0.29244 0.40089
 C467 C 0.05362 0.30324 0.38501
 C468 C 0.05155 0.29456 0.35958
 C469 C 0.06789 0.27544 0.35010
 C470 C 0.08569 0.26483 0.36592
 C471 C 0.10465 0.25992 0.40930
 C472 C 0.10933 0.23208 0.40761
 C473 C 0.12239 0.21904 0.42670
 C474 C 0.13074 0.23356 0.44787
 C475 C 0.12752 0.26156 0.44879
 C476 C 0.11482 0.27468 0.42955
 H477 H 0.04121 0.31785 0.39290
 H478 H 0.06686 0.26856 0.33048
 H479 H 0.12448 0.19735 0.42589
 H480 H 0.13390 0.27306 0.46504
 H481 H 0.09802 0.25015 0.35806
 H482 H 0.10163 0.22002 0.39245
 H483 H 0.07156 0.29873 0.42070
 H484 H 0.11212 0.29623 0.43109
 C485 C 0.06507 0.76014 0.60965
 C486 C 0.04980 0.73965 0.60100
 C487 C 0.03743 0.72360 0.61834
 C488 C 0.03976 0.72794 0.64475
 C489 C 0.05517 0.74835 0.65348
 C490 C 0.06797 0.76414 0.63604
 C491 C 0.07801 0.77681 0.59079
 C492 C 0.10300 0.77918 0.59175
 C493 C 0.11545 0.79085 0.57138
 C494 C 0.10306 0.80051 0.54986
 C495 C 0.07792 0.80016 0.55009
 C496 C 0.06555 0.78824 0.57023
 H497 H 0.02558 0.70817 0.61101
 H498 H 0.05728 0.75214 0.67374
 H499 H 0.13480 0.79063 0.57172
 H500 H 0.06783 0.80800 0.53408
 H501 H 0.07973 0.77979 0.64309
 H502 H 0.11296 0.77046 0.60742
 H503 H 0.04754 0.73597 0.58074
 H504 H 0.04623 0.78703 0.56933
 C505 C 0.92046 0.73866 0.40776
 C506 C 0.93582 0.71732 0.41444
 C507 C 0.95038 0.70499 0.39615
 C508 C 0.95032 0.71392 0.37073
 C509 C 0.93493 0.73511 0.36386
 C510 C 0.92004 0.74722 0.38213
 C511 C 0.90579 0.75242 0.42776
 C512 C 0.90160 0.78041 0.42684
 C513 C 0.88966 0.79357 0.44683
 C514 C 0.88205 0.77910 0.46830
 C515 C 0.88546 0.75112 0.46894
 C516 C 0.89694 0.73788 0.44879
 H517 H 0.96223 0.68892 0.40213
 H518 H 0.93442 0.74234 0.34437
 H519 H 0.88730 0.81522 0.44607
 H520 H 0.87946 0.73956 0.48524
 H521 H 0.90821 0.76328 0.37614
 H522 H 0.90836 0.79238 0.41119
 H523 H 0.93718 0.71054 0.43402
 H524 H 0.89915 0.71625 0.44991
 C525 C 0.93022 0.23087 0.61093
 C526 C 0.92484 0.25833 0.61412
 C527 C 0.93796 0.27413 0.63118
 C528 C 0.95638 0.26266 0.64578
 C529 C 0.96084 0.23486 0.64375
 C530 C 0.94804 0.21913 0.62621
 C531 C 0.91864 0.21546 0.59008
 C532 C 0.93263 0.20186 0.57182
 C533 C 0.92209 0.19117 0.54976
 C534 C 0.89733 0.19351 0.54584
 C535 C 0.88320 0.20571 0.56487
 C536 C 0.89378 0.21676 0.58668
 H537 H 0.93425 0.29553 0.63234
 H538 H 0.97514 0.22563 0.65460
 H539 H 0.93335 0.18181 0.53540
 H540 H 0.86411 0.20804 0.56221
 H541 H 0.95246 0.19799 0.62407
 H542 H 0.95188 0.20082 0.57393
 H543 H 0.91134 0.26789 0.60239
 H544 H 0.88264 0.22711 0.60053
 C545 C 0.40045 0.07978 0.26775
 C546 C 0.37742 0.07421 0.25829
 C547 C 0.36240 0.05609 0.27102
 C548 C 0.37009 0.04333 0.29352
 C549 C 0.39292 0.04928 0.30313
 C550 C 0.40792 0.06710 0.29037
 C551 C 0.41742 0.09729 0.25358
 C552 C 0.43410 0.11319 0.26695
 C553 C 0.45287 0.12568 0.25406
 C554 C 0.45499 0.12309 0.22750
 C555 C 0.43737 0.10914 0.21380
 C556 C 0.41878 0.09620 0.22674
 H557 H 0.34484 0.05200 0.26322
 H558 H 0.39950 0.03967 0.32030
 H559 H 0.46630 0.13648 0.26490
 H560 H 0.43890 0.10676 0.19328
 H561 H 0.42572 0.07027 0.29790
 H562 H 0.43322 0.11510 0.28754
 H563 H 0.37103 0.08379 0.24104
 H564 H 0.40640 0.08399 0.21583
 C565 C 0.60054 0.10247 0.73203
 C566 C 0.62156 0.09296 0.74373
 C567 C 0.63727 0.07594 0.73039
 C568 C 0.63218 0.06808 0.70514
 C569 C 0.61167 0.07846 0.69321
 C570 C 0.59604 0.09533 0.70647
 C571 C 0.58229 0.11805 0.74659
 C572 C 0.56875 0.13813 0.73436
 C573 C 0.54881 0.14941 0.74633
 C574 C 0.54223 0.14126 0.77096
 C575 C 0.55665 0.12270 0.78403
 C576 C 0.57648 0.11107 0.77189
 H577 H 0.65294 0.06827 0.74011
 H578 H 0.60717 0.07281 0.67379
 H579 H 0.53801 0.16392 0.73604
 H580 H 0.55176 0.11604 0.80301
 H581 H 0.57984 0.10180 0.69696
 H582 H 0.57306 0.14445 0.71512
 H583 H 0.62565 0.09830 0.76331
 H584 H 0.58636 0.09550 0.78178
 C585 C 0.39715 0.91437 0.73035
 C586 C 0.37500 0.92286 0.74033
 C587 C 0.36032 0.94039 0.72644
 C588 C 0.36749 0.94967 0.70229
 C589 C 0.38920 0.94038 0.69200
 C590 C 0.40386 0.92308 0.70586
 C591 C 0.41433 0.89857 0.74598
 C592 C 0.42979 0.87978 0.73431
 C593 C 0.44905 0.86897 0.74782
 C594 C 0.45282 0.87626 0.77335
 C595 C 0.43648 0.89333 0.78568
 C596 C 0.41740 0.90449 0.77209
 H597 H 0.34361 0.94708 0.73482
 H598 H 0.39530 0.94715 0.67346
 H599 H 0.46161 0.85584 0.73808
 H600 H 0.43939 0.89935 0.80534
 H601 H 0.42098 0.91749 0.69776
 H602 H 0.42763 0.87434 0.71440
 H603 H 0.36920 0.91628 0.75903
 H604 H 0.40605 0.91908 0.78161
 C605 C 0.60247 0.91540 0.26173
 C606 C 0.62539 0.92002 0.25173
 C607 C 0.64228 0.93454 0.26597
 C608 C 0.63653 0.94427 0.29052
 C609 C 0.61404 0.93810 0.30092
 C610 C 0.59719 0.92398 0.28665
 C611 C 0.58334 0.90321 0.24607
 C612 C 0.56124 0.91644 0.24413
 C613 C 0.54209 0.90418 0.23174
 C614 C 0.54448 0.87818 0.22131
 C615 C 0.56699 0.86545 0.22213
 C616 C 0.58634 0.87796 0.23433
 H617 H 0.65947 0.93897 0.25745
 H618 H 0.60900 0.94515 0.31978
 H619 H 0.52521 0.91486 0.23079
 H620 H 0.56936 0.84539 0.21433
 H621 H 0.57972 0.92028 0.29485
 H622 H 0.55869 0.93617 0.25264
 H623 H 0.62980 0.91351 0.23253
 H624 H 0.60328 0.86746 0.23562
 C625 C 0.38294 0.24144 0.92301
 C626 C 0.36924 0.22868 0.94193
 C627 C 0.35206 0.24322 0.95577
 C628 C 0.34877 0.27087 0.95130
 C629 C 0.36174 0.28330 0.93165
 C630 C 0.37847 0.26865 0.91745
 C631 C 0.40345 0.22753 0.91081
 C632 C 0.42097 0.21502 0.92595
 C633 C 0.44227 0.20572 0.91498
 C634 C 0.44624 0.20838 0.88861
 C635 C 0.42813 0.21952 0.87329
 C636 C 0.40702 0.22921 0.88431
 H637 H 0.34248 0.23328 0.97105
 H638 H 0.35959 0.30462 0.92793
 H639 H 0.45593 0.19710 0.92716
 H640 H 0.43083 0.22201 0.85294
 H641 H 0.38894 0.27902 0.90313
 H642 H 0.41872 0.21373 0.94646
 H643 H 0.37238 0.20770 0.94653
 H644 H 0.39376 0.23874 0.87225
 C645 C 0.60149 0.73183 0.90394
 C646 C 0.59465 0.70807 0.91651
 C647 C 0.61031 0.69503 0.93307
 C648 C 0.63319 0.70551 0.93779
 C649 C 0.64031 0.72901 0.92497
 C650 C 0.62464 0.74200 0.90814
 C651 C 0.58375 0.74665 0.88811
 C652 C 0.58238 0.77497 0.88910
 C653 C 0.56316 0.78855 0.87787
 C654 C 0.54489 0.77403 0.86575
 C655 C 0.54699 0.74601 0.86323
 C656 C 0.56638 0.73248 0.87403
 H657 H 0.60418 0.67706 0.94273
 H658 H 0.65790 0.73748 0.92813
 H659 H 0.56168 0.81019 0.88017
 H660 H 0.53308 0.73452 0.85381
 H661 H 0.63057 0.76010 0.89858
 H662 H 0.59529 0.78653 0.89993
 H663 H 0.57681 0.69997 0.91431
 H664 H 0.56722 0.71075 0.87227
 C665 C 0.40669 0.74424 0.06870
 C666 C 0.41298 0.72075 0.05532
 C667 C 0.39568 0.70591 0.04232
 C668 C 0.37172 0.71445 0.04211
 C669 C 0.36530 0.73776 0.05587
 C670 C 0.38265 0.75241 0.06931
 C671 C 0.42554 0.76005 0.08162
 C672 C 0.42372 0.76654 0.10765
 C673 C 0.44313 0.77814 0.12048
 C674 C 0.46454 0.78366 0.10737
 C675 C 0.46559 0.77879 0.08092
 C676 C 0.44637 0.76691 0.06824
 H677 H 0.40124 0.68812 0.03184
 H678 H 0.34696 0.74480 0.05603
 H679 H 0.44180 0.78147 0.14089
 H680 H 0.48156 0.78345 0.07012
 H681 H 0.37745 0.77047 0.07958
 H682 H 0.40780 0.76135 0.11832
 H683 H 0.43139 0.71390 0.05487
 H684 H 0.44797 0.76247 0.04803
 C685 C 0.59682 0.27031 0.09137
 C686 C 0.58939 0.29266 0.07692
 C687 C 0.60494 0.30495 0.05973
 C688 C 0.62823 0.29503 0.05627
 C689 C 0.63592 0.27302 0.07098
 C690 C 0.62040 0.26086 0.08845
 C691 C 0.57933 0.25596 0.10785
 C692 C 0.57931 0.22763 0.10909
 C693 C 0.56054 0.21400 0.12103
 C694 C 0.54137 0.22845 0.13161
 C695 C 0.54207 0.25668 0.13189
 C696 C 0.56101 0.27031 0.12038
 H697 H 0.59841 0.32175 0.04855
 H698 H 0.65385 0.26504 0.06884
 H699 H 0.56016 0.19219 0.12043
 H700 H 0.52746 0.26815 0.14010
 H701 H 0.62681 0.24391 0.09949
 H702 H 0.59295 0.21588 0.09947
 H703 H 0.57123 0.30013 0.07812
 H704 H 0.56079 0.29213 0.12043
 C705 C 0.27240 0.10008 0.59642
 C706 C 0.26386 0.09309 0.62080
 C707 C 0.27586 0.07376 0.63550
 C708 C 0.29657 0.06108 0.62603
 C709 C 0.30525 0.06848 0.60189
 C710 C 0.29330 0.08762 0.58727
 C711 C 0.25888 0.11859 0.57946
 C712 C 0.27116 0.13568 0.56257
 C713 C 0.25904 0.14851 0.54274
 C714 C 0.23434 0.14492 0.53973
 C715 C 0.22166 0.13004 0.55799
 C716 C 0.23384 0.11685 0.57766
 H717 H 0.26881 0.06857 0.65411
 H718 H 0.32111 0.05910 0.59396
 H719 H 0.26910 0.16013 0.52896
 H720 H 0.20260 0.12688 0.55587
 H721 H 0.30008 0.09196 0.56835
 H722 H 0.29037 0.13802 0.56388
 H723 H 0.24786 0.10243 0.62842
 H724 H 0.22386 0.10377 0.59025
 C725 C 0.74112 0.08856 0.39128
 C726 C 0.71813 0.08107 0.39931
 C727 C 0.70425 0.06368 0.38462
 C728 C 0.71292 0.05319 0.36136
 C729 C 0.73568 0.06141 0.35285
 C730 C 0.74970 0.07877 0.36778
 C731 C 0.75629 0.10503 0.40854
 C732 C 0.78020 0.09775 0.41331
 C733 C 0.79294 0.10996 0.43326
 C734 C 0.78188 0.12950 0.44873
 C735 C 0.75867 0.13817 0.44272
 C736 C 0.74605 0.12617 0.42276
 H737 H 0.68686 0.05801 0.39194
 H738 H 0.74299 0.05387 0.33504
 H739 H 0.81080 0.10291 0.43764
 H740 H 0.74994 0.15349 0.45421
 H741 H 0.76733 0.08434 0.36109
 H742 H 0.78851 0.08143 0.40276
 H743 H 0.71115 0.08787 0.41753
 H744 H 0.72785 0.13261 0.41916
 C745 C 0.72904 0.91305 0.60606
 C746 C 0.70763 0.92411 0.59667
 C747 C 0.69480 0.94296 0.61095
 C748 C 0.70308 0.95153 0.63497
 C749 C 0.72417 0.94008 0.64476
 C750 C 0.73701 0.92099 0.63046
 C751 C 0.74364 0.89501 0.58941
 C752 C 0.76870 0.89747 0.58862
 C753 C 0.78200 0.88404 0.56985
 C754 C 0.77049 0.86815 0.55137
 C755 C 0.74573 0.86417 0.55317
 C756 C 0.73247 0.87724 0.57214
 H757 H 0.67867 0.95140 0.60276
 H758 H 0.73096 0.94618 0.66326
 H759 H 0.80108 0.88756 0.56866
 H760 H 0.73653 0.85180 0.53922
 H761 H 0.75329 0.91267 0.63839
 H762 H 0.77790 0.91112 0.60143
 H763 H 0.70117 0.91902 0.57777
 H764 H 0.71331 0.87427 0.57262
 C765 C 0.26333 0.90371 0.39913
 C766 C 0.28681 0.91028 0.40630
 C767 C 0.30096 0.92648 0.39080
 C768 C 0.29203 0.93666 0.36768
 C769 C 0.26876 0.92958 0.36005
 C770 C 0.25450 0.91330 0.37569
 C771 C 0.24797 0.88840 0.41709
 C772 C 0.22414 0.89625 0.42158
 C773 C 0.21110 0.88484 0.44166
 C774 C 0.22179 0.86560 0.45761
 C775 C 0.24499 0.85650 0.45210
 C776 C 0.25787 0.86762 0.43194
 H777 H 0.31878 0.93156 0.39729
 H778 H 0.26138 0.93715 0.34234
 H779 H 0.19325 0.89219 0.44569
 H780 H 0.25343 0.84143 0.46402
 H781 H 0.23652 0.90844 0.36959
 H782 H 0.21605 0.91232 0.41061
 H783 H 0.29404 0.90373 0.42444
 H784 H 0.27597 0.86068 0.42857
 C785 C 0.08861 0.38717 0.73537
 C786 C 0.08467 0.36099 0.74468
 C787 C 0.06761 0.34421 0.73326
 C788 C 0.05415 0.35326 0.71227
 C789 C 0.05843 0.37921 0.70269
 C790 C 0.07536 0.39596 0.71413
 C791 C 0.10520 0.40608 0.74851
 C792 C 0.11847 0.42491 0.73438
 C793 C 0.13074 0.44570 0.74671
 C794 C 0.13026 0.44790 0.77344
 C795 C 0.11865 0.42790 0.78770
 C796 C 0.10615 0.40723 0.77536
 H797 H 0.06481 0.32426 0.74100
 H798 H 0.04834 0.38688 0.68662
 H799 H 0.13977 0.46076 0.73532
 H800 H 0.11782 0.42934 0.80834
 H801 H 0.07749 0.41617 0.70678
 H802 H 0.11864 0.42419 0.71370
 H803 H 0.09471 0.35351 0.76087
 H804 H 0.09601 0.39321 0.78685
 C805 C 0.07474 0.62230 0.24158
 C806 C 0.05673 0.63915 0.23185
 C807 C 0.04189 0.65373 0.24848
 C808 C 0.04445 0.65102 0.27506
 C809 C 0.06284 0.63470 0.28471
 C810 C 0.07801 0.62072 0.26813
 C811 C 0.08842 0.60398 0.22466
 C812 C 0.11336 0.60172 0.22708
 C813 C 0.12565 0.58064 0.21504
 C814 C 0.11309 0.56126 0.20084
 C815 C 0.08840 0.56450 0.19709
 C816 C 0.07619 0.58588 0.20869
 H817 H 0.02770 0.66606 0.24063
 H818 H 0.06518 0.63233 0.30512
 H819 H 0.14464 0.57829 0.21842
 H820 H 0.07840 0.54961 0.18637
 H821 H 0.09157 0.60757 0.27608
 H822 H 0.12312 0.61547 0.23932
 H823 H 0.05382 0.64052 0.21144
 H824 H 0.05694 0.58708 0.20676
 C825 C 0.92203 0.38401 0.23753
 C826 C 0.93987 0.36697 0.22768
 C827 C 0.95375 0.35122 0.24414
 C828 C 0.95039 0.35287 0.27071
 C829 C 0.93193 0.36913 0.28042
 C830 C 0.91771 0.38434 0.26396
 C831 C 0.90977 0.40380 0.22104
 C832 C 0.92328 0.42208 0.20660
 C833 C 0.91226 0.44432 0.19524
 C834 C 0.88752 0.44829 0.19775
 C835 C 0.87378 0.42889 0.21055
 C836 C 0.88486 0.40695 0.22233
 H837 H 0.96803 0.33900 0.23622
 H838 H 0.92902 0.37075 0.30083
 H839 H 0.92317 0.45908 0.18550
 H840 H 0.85470 0.43172 0.21295
 H841 H 0.90422 0.39757 0.27200
 H842 H 0.94255 0.42016 0.20558
 H843 H 0.94351 0.36649 0.20736
 H844 H 0.87414 0.39309 0.23340
 C845 C 0.92915 0.60991 0.76740
 C846 C 0.94628 0.62729 0.77805
 C847 C 0.95865 0.64552 0.76252
 C848 C 0.95450 0.64606 0.73605
 C849 C 0.93698 0.62911 0.72558
 C850 C 0.92424 0.61143 0.74114
 C851 C 0.91760 0.58873 0.78293
 C852 C 0.93161 0.57027 0.79669
 C853 C 0.92110 0.54756 0.80778
 C854 C 0.89636 0.54323 0.80567
 C855 C 0.88221 0.56260 0.79324
 C856 C 0.89276 0.58501 0.78179
 H857 H 0.97225 0.65823 0.77099
 H858 H 0.93348 0.62914 0.70522
 H859 H 0.93237 0.53291 0.81726
 H860 H 0.86314 0.55959 0.79110
 H861 H 0.91127 0.59805 0.73247
 H862 H 0.95084 0.57263 0.79764
 H863 H 0.95035 0.62642 0.79826
 H864 H 0.88162 0.59901 0.77128
 C865 C 0.73528 0.60107 0.90002
 C866 C 0.71393 0.59106 0.91041
 C867 C 0.70090 0.60611 0.92811
 C868 C 0.70889 0.63165 0.93616
 C869 C 0.72994 0.64207 0.92519
 C870 C 0.74299 0.62691 0.90735
 C871 C 0.75021 0.58334 0.88348
 C872 C 0.77513 0.58211 0.88693
 C873 C 0.78853 0.56151 0.87553
 C874 C 0.77721 0.54170 0.86068
 C875 C 0.75271 0.54423 0.85542
 C876 C 0.73938 0.56499 0.86654
 H877 H 0.68480 0.59727 0.93595
 H878 H 0.73661 0.66173 0.93069
 H879 H 0.80737 0.55980 0.88001
 H880 H 0.74368 0.52927 0.84383
 H881 H 0.75928 0.63528 0.89953
 H882 H 0.78404 0.59578 0.89996
 H883 H 0.70768 0.57102 0.90568
 H884 H 0.72033 0.56582 0.86293
 C885 C 0.23856 0.38126 0.92810
 C886 C 0.26274 0.38835 0.92906
 C887 C 0.27893 0.37285 0.94296
 C888 C 0.27137 0.34956 0.95602
 C889 C 0.24720 0.34174 0.95387
 C890 C 0.23086 0.35773 0.94033
 C891 C 0.22155 0.39999 0.91602
 C892 C 0.22088 0.40248 0.88936
 C893 C 0.20892 0.42418 0.87807
 C894 C 0.19794 0.44399 0.89335
 C895 C 0.19753 0.44061 0.91999
 C896 C 0.20914 0.41867 0.93123
 H897 H 0.29734 0.37953 0.94385
 H898 H 0.24065 0.32400 0.96361
 H899 H 0.20977 0.42655 0.85752
 H900 H 0.18926 0.45569 0.93214
 H901 H 0.21217 0.35208 0.93981
 H902 H 0.23069 0.38845 0.87739
 H903 H 0.26892 0.40653 0.91977
 H904 H 0.20981 0.41724 0.95186
 C905 C 0.26941 0.61269 0.09104
 C906 C 0.29008 0.60179 0.07974
 C907 C 0.30239 0.61585 0.06088
 C908 C 0.29434 0.64126 0.05258
 C909 C 0.27398 0.65255 0.06439
 C910 C 0.26164 0.63838 0.08337
 C911 C 0.25525 0.59607 0.10912
 C912 C 0.23016 0.59509 0.10727
 C913 C 0.21724 0.57544 0.12047
 C914 C 0.22921 0.55636 0.13554
 C915 C 0.25397 0.55873 0.13910
 C916 C 0.26684 0.57853 0.12618
 H917 H 0.31796 0.60636 0.05241
 H918 H 0.26727 0.67212 0.05869
 H919 H 0.19816 0.57382 0.11729
 H920 H 0.26351 0.54432 0.15081
 H921 H 0.24587 0.64740 0.09185
 H922 H 0.22068 0.60817 0.09421
 H923 H 0.29632 0.58183 0.08475
 H924 H 0.28606 0.57921 0.12854
 C925 C 0.72978 0.39544 0.09302
 C926 C 0.70926 0.40629 0.08147
 C927 C 0.69670 0.39175 0.06307
 C928 C 0.70433 0.36588 0.05549
 C929 C 0.72472 0.35479 0.06732
 C930 C 0.73731 0.36944 0.08587
 C931 C 0.74400 0.41232 0.11094
 C932 C 0.76909 0.41291 0.10928
 C933 C 0.78211 0.43273 0.12223
 C934 C 0.77023 0.45238 0.13685
 C935 C 0.74543 0.45040 0.14030
 C936 C 0.73246 0.43042 0.12763
 H937 H 0.68114 0.40113 0.05452
 H938 H 0.73111 0.33489 0.06216
 H939 H 0.80122 0.43407 0.11912
 H940 H 0.73595 0.46528 0.15164
 H941 H 0.75299 0.36047 0.09452
 H942 H 0.77854 0.39938 0.09651
 H943 H 0.70327 0.42650 0.08602
 H944 H 0.71321 0.43004 0.12986
 C945 C 0.91791 0.75883 0.62523
 C946 C 0.91927 0.73089 0.62185
 C947 C 0.93390 0.71534 0.63755
 C948 C 0.94719 0.72732 0.65744
 C949 C 0.94441 0.75520 0.66192
 C950 C 0.93025 0.77091 0.64557
 C951 C 0.90566 0.77509 0.60566
 C952 C 0.91927 0.79001 0.58821
 C953 C 0.90864 0.80042 0.56616
 C954 C 0.88416 0.79653 0.56157
 C955 C 0.87025 0.78318 0.57991
 C956 C 0.88099 0.77221 0.60166
 H957 H 0.93526 0.69395 0.63358
 H958 H 0.95430 0.76519 0.67699
 H959 H 0.91967 0.81050 0.55213
 H960 H 0.85139 0.77970 0.57654
 H961 H 0.92943 0.79252 0.64835
 H962 H 0.93840 0.79204 0.59081
 H963 H 0.90994 0.72127 0.60614
 H964 H 0.87031 0.76043 0.61476
 C965 C 0.92792 0.24716 0.38970
 C966 C 0.94065 0.23506 0.36955
 C967 C 0.95384 0.25088 0.35245
 C968 C 0.95518 0.27904 0.35579
 C969 C 0.94182 0.29097 0.37571
 C970 C 0.92820 0.27525 0.39223
 C971 C 0.91567 0.23080 0.40932
 C972 C 0.89195 0.23661 0.41628
 C973 C 0.88137 0.22357 0.43703
 C974 C 0.89449 0.20491 0.45150
 C975 C 0.91801 0.19861 0.44415
 C976 C 0.92844 0.21126 0.42307
 H977 H 0.96380 0.24092 0.33738
 H978 H 0.94210 0.31255 0.37888
 H979 H 0.86326 0.22888 0.44244
 H980 H 0.92843 0.18423 0.45501
 H981 H 0.91863 0.28501 0.40771
 H982 H 0.88183 0.25171 0.40598
 H983 H 0.94060 0.21336 0.36726
 H984 H 0.94684 0.20671 0.41822
 C985 C 0.07712 0.24470 0.60025
 C986 C 0.06537 0.26853 0.59332
 C987 C 0.05165 0.28265 0.61106
 C988 C 0.04896 0.27300 0.63618
 C989 C 0.06134 0.24938 0.64328
 C990 C 0.07549 0.23548 0.62547
 C991 C 0.09055 0.22968 0.58059
 C992 C 0.11522 0.22529 0.58308
 C993 C 0.12855 0.21598 0.56217
 C994 C 0.11726 0.21086 0.53864
 C995 C 0.09226 0.21306 0.53703
 C996 C 0.07907 0.22257 0.55775
 H997 H 0.04261 0.30078 0.60476
 H998 H 0.05986 0.24139 0.66245
 H999 H 0.14781 0.21456 0.56388
 H1000 H 0.08305 0.20870 0.51930
 H1001 H 0.08458 0.21716 0.63114
 H1002 H 0.12436 0.23076 0.60058
 H1003 H 0.06672 0.27615 0.57400
 H1004 H 0.05998 0.22555 0.55561
 C1005 C 0.07638 0.74897 0.39383
 C1006 C 0.06463 0.76223 0.37376
 C1007 C 0.04969 0.74793 0.35714
 C1008 C 0.04570 0.72016 0.36072
 C1009 C 0.05831 0.70684 0.38030
 C1010 C 0.07358 0.72106 0.39651
 C1011 C 0.08951 0.76434 0.41356
 C1012 C 0.07823 0.78597 0.42605
 C1013 C 0.08887 0.79804 0.44729
 C1014 C 0.11118 0.78904 0.45611
 C1015 C 0.12308 0.76835 0.44289
 C1016 C 0.11220 0.75588 0.42189
 H1017 H 0.04046 0.75891 0.34224
 H1018 H 0.05598 0.68547 0.38359
 H1019 H 0.07945 0.81399 0.45729
 H1020 H 0.14025 0.76106 0.44952
 H1021 H 0.08232 0.71044 0.41198
 H1022 H 0.06062 0.79262 0.42015
 H1023 H 0.06662 0.78377 0.37133
 H1024 H 0.12119 0.73921 0.41253
 C1025 C 0.59534 0.93384 0.74197
 C1026 C 0.58792 0.94524 0.71880
 C1027 C 0.60413 0.95881 0.70330
 C1028 C 0.62813 0.96162 0.71075
 C1029 C 0.63576 0.94959 0.73367
 C1030 C 0.61949 0.93556 0.74907
 C1031 C 0.57738 0.92091 0.75861
 C1032 C 0.58017 0.89416 0.76677
 C1033 C 0.56125 0.88085 0.77890
 C1034 C 0.53938 0.89421 0.78316
 C1035 C 0.53743 0.92160 0.77672
 C1036 C 0.55616 0.93473 0.76443
 H1037 H 0.59762 0.96783 0.68582
 H1038 H 0.65415 0.95141 0.73988
 H1039 H 0.56323 0.85972 0.78358
 H1040 H 0.52103 0.93261 0.78031
 H1041 H 0.62556 0.92682 0.76686
 H1042 H 0.59642 0.88315 0.76243
 H1043 H 0.56943 0.94384 0.71279
 H1044 H 0.55380 0.95551 0.75868
 C1045 C 0.40044 0.89740 0.26908
 C1046 C 0.37769 0.90345 0.25908
 C1047 C 0.36225 0.92111 0.27203
 C1048 C 0.36920 0.93294 0.29531
 C1049 C 0.39155 0.92610 0.30569
 C1050 C 0.40698 0.90873 0.29272
 C1051 C 0.41825 0.88132 0.25428
 C1052 C 0.43523 0.86524 0.26701
 C1053 C 0.45487 0.85463 0.25389
 C1054 C 0.45760 0.85928 0.22766
 C1055 C 0.43968 0.87325 0.21441
 C1056 C 0.42023 0.88433 0.22762
 H1057 H 0.34508 0.92588 0.26360
 H1058 H 0.39755 0.93491 0.32352
 H1059 H 0.46850 0.84380 0.26440
 H1060 H 0.44164 0.87727 0.19419
 H1061 H 0.42450 0.90514 0.30082
 H1062 H 0.43394 0.86183 0.28738
 H1063 H 0.37195 0.89485 0.24108
 H1064 H 0.40768 0.89673 0.21718
 C1065 C 0.60175 0.07633 0.25718
 C1066 C 0.62512 0.07243 0.24808
 C1067 C 0.64202 0.05874 0.26308
 C1068 C 0.63582 0.04920 0.28750
 C1069 C 0.61272 0.05453 0.29691
 C1070 C 0.59588 0.06774 0.28187
 C1071 C 0.58271 0.08774 0.24089
 C1072 C 0.56196 0.07263 0.23651
 C1073 C 0.54221 0.08426 0.22462
 C1074 C 0.54259 0.11146 0.21721
 C1075 C 0.56394 0.12613 0.22016
 C1076 C 0.58393 0.11430 0.23186
 H1077 H 0.65965 0.05494 0.25529
 H1078 H 0.60727 0.04753 0.31560
 H1079 H 0.52628 0.07219 0.22202
 H1080 H 0.56477 0.14714 0.21472
 H1081 H 0.57800 0.07078 0.28931
 H1082 H 0.56080 0.05199 0.24309
 H1083 H 0.62995 0.07895 0.22904
 H1084 H 0.59980 0.12628 0.23514
 C1085 C 0.40038 0.09796 0.72335
 C1086 C 0.40787 0.08492 0.70083
 C1087 C 0.39300 0.06653 0.68842
 C1088 C 0.37028 0.06048 0.69829
 C1089 C 0.36253 0.07381 0.72055
 C1090 C 0.37740 0.09240 0.73291
 C1091 C 0.41721 0.11579 0.73750
 C1092 C 0.41840 0.11498 0.76434
 C1093 C 0.43654 0.12858 0.77743
 C1094 C 0.45398 0.14305 0.76395
 C1095 C 0.45197 0.14527 0.73731
 C1096 C 0.43369 0.13195 0.72424
 H1097 H 0.39958 0.05656 0.67137
 H1098 H 0.34507 0.06970 0.72855
 H1099 H 0.43786 0.12631 0.79796
 H1100 H 0.46508 0.15656 0.72652
 H1101 H 0.37095 0.10229 0.75005
 H1102 H 0.40620 0.10255 0.77518
 H1103 H 0.42561 0.08821 0.69318
 H1104 H 0.43292 0.13359 0.70364
 C1105 C 0.60745 0.73462 0.07860
 C1106 C 0.60192 0.70832 0.07056
 C1107 C 0.61649 0.69484 0.05307
 C1108 C 0.63697 0.70730 0.04304
 C1109 C 0.64297 0.73331 0.05157
 C1110 C 0.62834 0.74685 0.06917
 C1111 C 0.59033 0.74970 0.09505
 C1112 C 0.58481 0.77678 0.08973
 C1113 C 0.56580 0.78960 0.10218
 C1114 C 0.55208 0.77560 0.12014
 C1115 C 0.55832 0.74916 0.12663
 C1116 C 0.57741 0.73636 0.11432
 H1117 H 0.61132 0.67482 0.04695
 H1118 H 0.65870 0.74339 0.04429
 H1119 H 0.56092 0.80992 0.09673
 H1120 H 0.54771 0.73804 0.14032
 H1121 H 0.63320 0.76700 0.07517
 H1122 H 0.59417 0.78754 0.07482
 H1123 H 0.58577 0.69847 0.07701
 H1124 H 0.58146 0.71565 0.11915
 C1125 C 0.39583 0.25131 0.07803
 C1126 C 0.37213 0.24200 0.07799
 C1127 C 0.35445 0.25584 0.06424
 C1128 C 0.36017 0.27941 0.05067
 C1129 C 0.38371 0.28919 0.05171
 C1130 C 0.40131 0.27525 0.06512
 C1131 C 0.41524 0.23609 0.09076
 C1132 C 0.43678 0.23147 0.07769
 C1133 C 0.45636 0.22026 0.09024
 C1134 C 0.45496 0.21360 0.11627
 C1135 C 0.43296 0.21663 0.12900
 C1136 C 0.41320 0.22775 0.11630
 H1137 H 0.33646 0.24783 0.06382
 H1138 H 0.38876 0.30727 0.04154
 H1139 H 0.47290 0.21754 0.07977
 H1140 H 0.43140 0.21174 0.14908
 H1141 H 0.41938 0.28308 0.06521
 H1142 H 0.43863 0.23720 0.05783
 H1143 H 0.36750 0.22359 0.08785
 H1144 H 0.39674 0.23109 0.12675
 C1145 C 0.59459 0.26023 0.92408
 C1146 C 0.59647 0.28837 0.92247
 C1147 C 0.61349 0.30217 0.93696
 C1148 C 0.62924 0.28810 0.95306
 C1149 C 0.62817 0.25983 0.95370
 C1150 C 0.61083 0.24603 0.93952
 C1151 C 0.57468 0.24612 0.91105
 C1152 C 0.56028 0.22800 0.92467
 C1153 C 0.54024 0.21636 0.91316
 C1154 C 0.53445 0.22228 0.88768
 C1155 C 0.54919 0.23986 0.87383
 C1156 C 0.56900 0.25188 0.88549
 H1157 H 0.61392 0.32397 0.93607
 H1158 H 0.63999 0.24848 0.96604
 H1159 H 0.52918 0.20279 0.92417
 H1160 H 0.54498 0.24485 0.85420
 H1161 H 0.60980 0.22429 0.94093
 H1162 H 0.56409 0.22350 0.94449
 H1163 H 0.58406 0.29980 0.91087
 H1164 H 0.57982 0.26582 0.87462
 C1165 C 0.39825 0.74331 0.91547
 C1166 C 0.40272 0.71636 0.92171
 C1167 C 0.38587 0.70150 0.93520
 C1168 C 0.36425 0.71340 0.94311
 C1169 C 0.35922 0.74006 0.93567
 C1170 C 0.37610 0.75488 0.92176
 C1171 C 0.41769 0.75946 0.90430
 C1172 C 0.41565 0.77062 0.87983
 C1173 C 0.43554 0.78259 0.86822
 C1174 C 0.45764 0.78376 0.88109
 C1175 C 0.45901 0.77407 0.90625
 C1176 C 0.43932 0.76183 0.91762
 H1177 H 0.39035 0.68102 0.94050
 H1178 H 0.34275 0.74979 0.94150
 H1179 H 0.43392 0.78974 0.84878
 H1180 H 0.47553 0.77532 0.91697
 H1181 H 0.37239 0.77571 0.91706
 H1182 H 0.39906 0.76890 0.86928
 H1183 H 0.41967 0.70706 0.91681
 H1184 H 0.44111 0.75359 0.93667
 C1185 C 0.74071 0.91053 0.39742
 C1186 C 0.75066 0.92077 0.37475
 C1187 C 0.73712 0.93751 0.35871
 C1188 C 0.71348 0.94447 0.36520
 C1189 C 0.70349 0.93373 0.38758
 C1190 C 0.71690 0.91704 0.40344
 C1191 C 0.75511 0.89443 0.41578
 C1192 C 0.74437 0.87324 0.42933
 C1193 C 0.75601 0.86145 0.45004
 C1194 C 0.77881 0.87023 0.45740
 C1195 C 0.79047 0.88983 0.44272
 C1196 C 0.77867 0.90192 0.42207
 H1197 H 0.74532 0.94553 0.34162
 H1198 H 0.68536 0.93866 0.39320
 H1199 H 0.74680 0.84622 0.46106
 H1200 H 0.80801 0.89698 0.44824
 H1201 H 0.70880 0.91000 0.42097
 H1202 H 0.72648 0.86657 0.42462
 H1203 H 0.76892 0.91601 0.36954
 H1204 H 0.78738 0.91827 0.41210
 C1205 C 0.26503 0.90895 0.60442
 C1206 C 0.25709 0.91953 0.62790
 C1207 C 0.27067 0.93890 0.64095
 C1208 C 0.29242 0.94810 0.63070
 C1209 C 0.30048 0.93714 0.60747
 C1210 C 0.28697 0.91790 0.59450
 C1211 C 0.24998 0.89021 0.58909
 C1212 C 0.26073 0.86989 0.57418
 C1213 C 0.24757 0.85621 0.55557
 C1214 C 0.22332 0.86226 0.55177
 C1215 C 0.21196 0.88057 0.56830
 C1216 C 0.22520 0.89452 0.58677
 H1217 H 0.26402 0.94686 0.65888
 H1218 H 0.31712 0.94377 0.59899
 H1219 H 0.25665 0.84206 0.54309
 H1220 H 0.19332 0.88574 0.56551
 H1221 H 0.29341 0.91070 0.57620
 H1222 H 0.27964 0.86557 0.57596
 H1223 H 0.24033 0.91296 0.63612
 H1224 H 0.21638 0.91008 0.59786
 C1225 C 0.26804 0.08623 0.39199
 C1226 C 0.25859 0.07495 0.36948
 C1227 C 0.27163 0.05565 0.35565
 C1228 C 0.29425 0.04715 0.36422
 C1229 C 0.30373 0.05874 0.38652
 C1230 C 0.29081 0.07798 0.40020
 C1231 C 0.25402 0.10534 0.40796
 C1232 C 0.26562 0.12675 0.42045
 C1233 C 0.25386 0.14153 0.43937
 C1234 C 0.23017 0.13547 0.44592
 C1235 C 0.21784 0.11568 0.43203
 C1236 C 0.22971 0.10063 0.41320
 H1237 H 0.26385 0.04707 0.33852
 H1238 H 0.32107 0.05266 0.39370
 H1239 H 0.26361 0.15689 0.44976
 H1240 H 0.19959 0.11061 0.43696
 H1241 H 0.29842 0.08581 0.41774
 H1242 H 0.28417 0.13128 0.41641
 H1243 H 0.24112 0.08099 0.36265
 H1244 H 0.22033 0.08420 0.40399
 C1245 C 0.73489 0.09744 0.60000
 C1246 C 0.71279 0.08752 0.59135
 C1247 C 0.69910 0.07053 0.60661
 C1248 C 0.70715 0.06278 0.63093
 C1249 C 0.72903 0.07303 0.63990
 C1250 C 0.74277 0.09019 0.62457
 C1251 C 0.75010 0.11363 0.58248
 C1252 C 0.77491 0.10905 0.58103
 C1253 C 0.78845 0.12061 0.56145
 C1254 C 0.77741 0.13674 0.54287
 C1255 C 0.75304 0.14293 0.54539
 C1256 C 0.73957 0.13168 0.56510
 H1257 H 0.68238 0.06299 0.59904
 H1258 H 0.73568 0.06751 0.65860
 H1259 H 0.80720 0.11536 0.55974
 H1260 H 0.74420 0.15552 0.53139
 H1261 H 0.75962 0.09763 0.63189
 H1262 H 0.78358 0.09514 0.59396
 H1263 H 0.70637 0.09212 0.57235
 H1264 H 0.72065 0.13622 0.56608
 C1265 C 0.91820 0.60901 0.25363
 C1266 C 0.92051 0.60451 0.27997
 C1267 C 0.93532 0.62095 0.29479
 C1268 C 0.94771 0.64249 0.28359
 C1269 C 0.94444 0.64780 0.25747
 C1270 C 0.93001 0.63100 0.24255
 C1271 C 0.90536 0.58927 0.23752
 C1272 C 0.88224 0.58067 0.24403
 C1273 C 0.87130 0.55984 0.23030
 C1274 C 0.88357 0.54697 0.21029
 C1275 C 0.90640 0.55602 0.20338
 C1276 C 0.91712 0.57720 0.21671
 H1277 H 0.93750 0.61646 0.31489
 H1278 H 0.95389 0.66419 0.24834
 H1279 H 0.85374 0.55293 0.23602
 H1280 H 0.91615 0.54622 0.18805
 H1281 H 0.92845 0.63480 0.22225
 H1282 H 0.87290 0.58972 0.26004
 H1283 H 0.91174 0.58751 0.28886
 H1284 H 0.93505 0.58331 0.21155
 C1285 C 0.92815 0.37883 0.75657
 C1286 C 0.94442 0.36060 0.76755
 C1287 C 0.95829 0.34362 0.75205
 C1288 C 0.95642 0.34502 0.72533
 C1289 C 0.93948 0.36250 0.71446
 C1290 C 0.92538 0.37908 0.72992
 C1291 C 0.91574 0.39936 0.77236
 C1292 C 0.92877 0.41502 0.78987
 C1293 C 0.91807 0.43702 0.80208
 C1294 C 0.89405 0.44356 0.79728
 C1295 C 0.88067 0.42714 0.78074
 C1296 C 0.89147 0.40533 0.76825
 H1297 H 0.97129 0.33041 0.76090
 H1298 H 0.93762 0.36392 0.69391
 H1299 H 0.92870 0.44936 0.81483
 H1300 H 0.86217 0.43190 0.77660
 H1301 H 0.91316 0.39311 0.72095
 H1302 H 0.94756 0.41104 0.79317
 H1303 H 0.94681 0.35999 0.78807
 H1304 H 0.88104 0.39352 0.75487
 C1305 C 0.08376 0.61000 0.74522
 C1306 C 0.07443 0.60377 0.72098
 C1307 C 0.05797 0.62081 0.70922
 C1308 C 0.05029 0.64457 0.72138
 C1309 C 0.06001 0.65127 0.74535
 C1310 C 0.07654 0.63410 0.75720
 C1311 C 0.09981 0.59043 0.75822
 C1312 C 0.09693 0.58450 0.78433
 C1313 C 0.10946 0.56305 0.79545
 C1314 C 0.12492 0.54712 0.78058
 C1315 C 0.12891 0.55408 0.75498
 C1316 C 0.11663 0.57560 0.74397
 H1317 H 0.05084 0.61498 0.69079
 H1318 H 0.05442 0.66943 0.75522
 H1319 H 0.10601 0.55790 0.81520
 H1320 H 0.14096 0.54221 0.74325
 H1321 H 0.08352 0.63955 0.77579
 H1322 H 0.08400 0.59540 0.79580
 H1323 H 0.07920 0.58514 0.71141
 H1324 H 0.11971 0.58004 0.72400
 C1325 C 0.07801 0.40366 0.25516
 C1326 C 0.06362 0.41319 0.27528
 C1327 C 0.04782 0.39606 0.28779
 C1328 C 0.04574 0.36894 0.28040
 C1329 C 0.06000 0.35928 0.26021
 C1330 C 0.07602 0.37649 0.24771
 C1331 C 0.09423 0.42260 0.24169
 C1332 C 0.09658 0.42187 0.21491
 C1333 C 0.10909 0.44220 0.20213
 C1334 C 0.11923 0.46355 0.21594
 C1335 C 0.11807 0.46353 0.24266
 C1336 C 0.10592 0.44311 0.25543
 H1337 H 0.03697 0.40427 0.30310
 H1338 H 0.05882 0.33845 0.25412
 H1339 H 0.10969 0.44209 0.18145
 H1340 H 0.12590 0.47986 0.25358
 H1341 H 0.08693 0.36850 0.23236
 H1342 H 0.08767 0.40648 0.20375
 H1343 H 0.06417 0.43413 0.28109
 H1344 H 0.10500 0.44389 0.27609
   
