data_POSCAR
  _audit_creation_date              2014-09-24
  _audit_creation_method            'ToBaCCo'
  _symmetry_space_group_name_H-M    'P1'
  _symmetry_Int_Tables_number       1
  _symmetry_cell_setting            triclinic
  loop_
  _symmetry_equiv_pos_as_xyz
 x,y,z
_cell_length_a 78.1345
_cell_length_b 78.1227
_cell_length_c 79.6422
_cell_angle_alpha 90.123100
_cell_angle_beta 90.083700
_cell_angle_gamma 90.055200
loop_
  _atom_site_label
  _atom_site_type_symbol
  _atom_site_fract_x
  _atom_site_fract_y
  _atom_site_fract_z
C1 C 0.38451 -0.02251 0.25003
 C2 C 0.39284 -0.00754 0.24472
 C3 C 0.40156 -0.00743 0.22934
 C4 C 0.40214 -0.02221 0.21939
 C5 C 0.39365 -0.03708 0.22463
 C6 C 0.38474 -0.03724 0.23992
 C7 C 0.39291 0.00788 0.25542
 C8 C 0.40183 0.00782 0.27071
 C9 C 0.40256 0.02264 0.28063
 C10 C 0.39398 0.03748 0.27543
 C11 C 0.38488 0.03757 0.26024
 C12 C 0.38451 0.02283 0.25016
 H13 H 0.37776 -0.02258 0.26192
 H14 H 0.40816 0.00406 0.22531
 H15 H 0.40849 -0.00368 0.27466
 H16 H 0.37760 0.02291 0.23835
 H17 H 0.39401 -0.04848 0.21683
 H18 H 0.39440 0.04895 0.28313
 C19 C 0.11453 -0.02134 0.74995
 C20 C 0.10656 -0.00616 0.75525
 C21 C 0.09824 -0.00566 0.77083
 C22 C 0.09768 -0.02027 0.78098
 C23 C 0.10583 -0.03534 0.77573
 C24 C 0.11434 -0.03587 0.76025
 C25 C 0.10653 0.00907 0.74435
 C26 C 0.09785 0.00866 0.72893
 C27 C 0.09729 0.02326 0.71874
 C28 C 0.10579 0.03822 0.72382
 C29 C 0.11466 0.03866 0.73913
 C30 C 0.11485 0.02415 0.74947
 H31 H 0.12101 -0.02176 0.73792
 H32 H 0.09190 0.00598 0.77487
 H33 H 0.09127 -0.00294 0.72506
 H34 H 0.12162 0.02450 0.76136
 H35 H 0.10550 -0.04662 0.78364
 H36 H 0.10552 0.04951 0.71590
 C37 C 0.61516 0.47682 0.25070
 C38 C 0.60712 0.49202 0.25582
 C39 C 0.59867 0.49262 0.27134
 C40 C 0.59805 0.47810 0.28159
 C41 C 0.60627 0.46300 0.27652
 C42 C 0.61491 0.46237 0.26111
 C43 C 0.60713 0.50716 0.24480
 C44 C 0.59844 0.50664 0.22939
 C45 C 0.59792 0.52113 0.21909
 C46 C 0.60647 0.53612 0.22402
 C47 C 0.61535 0.53667 0.23932
 C48 C 0.61551 0.52226 0.24978
 H49 H 0.62172 0.47631 0.23872
 H50 H 0.59228 0.50429 0.27524
 H51 H 0.59181 0.49505 0.22559
 H52 H 0.62228 0.52269 0.26167
 H53 H 0.60590 0.45178 0.28451
 H54 H 0.60620 0.54730 0.21598
 C55 C 0.88537 0.47691 0.75077
 C56 C 0.89363 0.49196 0.74555
 C57 C 0.90226 0.49222 0.73012
 C58 C 0.90283 0.47753 0.72005
 C59 C 0.89439 0.46259 0.72520
 C60 C 0.88557 0.46230 0.74052
 C61 C 0.89362 0.50732 0.75632
 C62 C 0.90217 0.50708 0.77182
 C63 C 0.90287 0.52187 0.78180
 C64 C 0.89462 0.53684 0.77645
 C65 C 0.88589 0.53710 0.76106
 C66 C 0.88557 0.52240 0.75093
 H67 H 0.87865 0.47668 0.76266
 H68 H 0.90880 0.50377 0.72614
 H69 H 0.90858 0.49549 0.77588
 H70 H 0.87895 0.52262 0.73896
 H71 H 0.89470 0.45126 0.71732
 H72 H 0.89504 0.54829 0.78418
 C73 C 0.25467 0.36529 1.02025
 C74 C 0.25577 0.37680 1.00678
 C75 C 0.27016 0.38751 1.00529
 C76 C 0.28335 0.38671 1.01725
 C77 C 0.28213 0.37521 1.03067
 C78 C 0.26785 0.36448 1.03220
 C79 C 0.24221 0.37697 0.99388
 C80 C 0.22794 0.38779 0.99557
 C81 C 0.21478 0.38733 0.98356
 C82 C 0.21591 0.37607 0.96990
 C83 C 0.23006 0.36524 0.96818
 C84 C 0.24321 0.36569 0.98016
 H85 H 0.24365 0.35690 1.02130
 H86 H 0.27114 0.39626 0.99479
 H87 H 0.22704 0.39637 1.00624
 H88 H 0.25411 0.35722 0.97891
 H89 H 0.29239 0.37455 1.03985
 H90 H 0.20570 0.37564 0.96066
 C91 C 0.74464 0.13450 1.02092
 C92 C 0.74397 0.12264 1.00765
 C93 C 0.72999 0.11136 1.00634
 C94 C 0.71676 0.11199 1.01824
 C95 C 0.71758 0.12382 1.03146
 C96 C 0.73147 0.13508 1.03284
 C97 C 0.75756 0.12265 0.99482
 C98 C 0.77170 0.11162 0.99626
 C99 C 0.78494 0.11231 0.98437
 C100 C 0.78397 0.12395 0.97105
 C101 C 0.76993 0.13495 0.96957
 C102 C 0.75674 0.13432 0.98146
 H103 H 0.75536 0.14330 1.02185
 H104 H 0.72932 0.10234 0.99600
 H105 H 0.77248 0.10275 1.00668
 H106 H 0.74593 0.14295 0.98040
 H107 H 0.70731 0.12431 1.04061
 H108 H 0.79422 0.12453 0.96190
 C109 C 0.24497 0.63510 0.51957
 C110 C 0.24409 0.62321 0.50635
 C111 C 0.22993 0.61214 0.50510
 C112 C 0.21674 0.61302 0.51702
 C113 C 0.21777 0.62489 0.53020
 C114 C 0.23183 0.63592 0.53150
 C115 C 0.25767 0.62298 0.49351
 C116 C 0.27174 0.61188 0.49506
 C117 C 0.28501 0.61239 0.48320
 C118 C 0.28415 0.62394 0.46980
 C119 C 0.27018 0.63502 0.46820
 C120 C 0.25696 0.63456 0.48006
 H121 H 0.25580 0.64374 0.52049
 H122 H 0.22911 0.60309 0.49480
 H123 H 0.27245 0.60310 0.50556
 H124 H 0.24622 0.64326 0.47893
 H125 H 0.20756 0.62561 0.53939
 H126 H 0.29443 0.62440 0.46067
 C127 C 0.75744 0.86586 0.51934
 C128 C 0.75813 0.87756 0.50599
 C129 C 0.77215 0.88877 0.50463
 C130 C 0.78540 0.88824 0.51655
 C131 C 0.78454 0.87656 0.52987
 C132 C 0.77061 0.86538 0.53128
 C133 C 0.74462 0.87734 0.49305
 C134 C 0.73053 0.88848 0.49416
 C135 C 0.71740 0.88764 0.48212
 C136 C 0.71843 0.87574 0.46898
 C137 C 0.73243 0.86464 0.46782
 C138 C 0.74549 0.86542 0.47987
 H139 H 0.74674 0.85707 0.52032
 H140 H 0.77282 0.89763 0.49418
 H141 H 0.72971 0.89757 0.50443
 H142 H 0.75627 0.85673 0.47906
 H143 H 0.79479 0.87604 0.53907
 H144 H 0.70827 0.87505 0.45970
 C145 C -0.02220 0.24437 0.33624
 C146 C -0.00541 0.24232 0.34221
 C147 C -0.00047 0.22665 0.34930
 C148 C -0.01227 0.21325 0.35064
 C149 C -0.02894 0.21531 0.34456
 C150 C -0.03390 0.23085 0.33737
 C151 C 0.00657 0.25690 0.34231
 C152 C 0.00162 0.27254 0.34951
 C153 C 0.01343 0.28590 0.35105
 C154 C 0.03012 0.28386 0.34508
 C155 C 0.03508 0.26836 0.33780
 C156 C 0.02339 0.25487 0.33645
 H157 H -0.02615 0.25653 0.33095
 H158 H 0.01230 0.22519 0.35447
 H159 H -0.01115 0.27403 0.35463
 H160 H 0.02740 0.24276 0.33107
 H161 H -0.03819 0.20501 0.34588
 H162 H 0.03936 0.29412 0.34658
 C163 C -0.02392 0.75413 0.16370
 C164 C -0.00696 0.75587 0.15815
 C165 C -0.00177 0.77114 0.15040
 C166 C -0.01349 0.78443 0.14805
 C167 C -0.03032 0.78270 0.15369
 C168 C -0.03554 0.76757 0.16151
 C169 C 0.00500 0.74133 0.15921
 C170 C 0.00020 0.72528 0.15277
 C171 C 0.01205 0.71189 0.15224
 C172 C 0.02861 0.71433 0.15850
 C173 C 0.03340 0.73025 0.16504
 C174 C 0.02167 0.74375 0.16537
 H175 H -0.02805 0.74229 0.16952
 H176 H 0.01113 0.77238 0.14555
 H177 H -0.01246 0.72352 0.14740
 H178 H 0.02557 0.75617 0.17013
 H179 H -0.03945 0.79295 0.15158
 H180 H 0.03795 0.70408 0.15776
 C181 C 0.47427 0.25293 0.66183
 C182 C 0.49150 0.25450 0.65708
 C183 C 0.49714 0.26960 0.64930
 C184 C 0.48560 0.28287 0.64613
 C185 C 0.46849 0.28129 0.65099
 C186 C 0.46285 0.26635 0.65883
 C187 C 0.50332 0.23997 0.65909
 C188 C 0.49887 0.22383 0.65264
 C189 C 0.51066 0.21040 0.65306
 C190 C 0.52679 0.21287 0.66028
 C191 C 0.53124 0.22888 0.66684
 C192 C 0.51958 0.24244 0.66621
 H193 H 0.46977 0.24125 0.66769
 H194 H 0.51029 0.27072 0.64510
 H195 H 0.48659 0.22199 0.64653
 H196 H 0.52323 0.25493 0.67098
 H197 H 0.45951 0.29151 0.64832
 H198 H 0.53608 0.20256 0.66022
 C199 C 0.47446 0.74445 0.83790
 C200 C 0.49148 0.74237 0.84314
 C201 C 0.49647 0.72707 0.85094
 C202 C 0.48445 0.71409 0.85369
 C203 C 0.46753 0.71617 0.84832
 C204 C 0.46256 0.73133 0.84043
 C205 C 0.50375 0.75660 0.84165
 C206 C 0.49968 0.77270 0.84839
 C207 C 0.51184 0.78583 0.84839
 C208 C 0.52796 0.78309 0.84131
 C209 C 0.53203 0.76713 0.83445
 C210 C 0.52000 0.75386 0.83467
 H211 H 0.47046 0.75631 0.83203
 H212 H 0.50948 0.72561 0.85550
 H213 H 0.48737 0.77473 0.85436
 H214 H 0.52334 0.74139 0.82965
 H215 H 0.45814 0.70621 0.85065
 H216 H 0.53750 0.79319 0.84163
 C217 C -0.27414 0.63541 0.99906
 C218 C -0.25892 0.64347 1.00417
 C219 C -0.25833 0.65209 1.01963
 C220 C -0.27288 0.65285 1.02984
 C221 C -0.28799 0.64462 1.02480
 C222 C -0.28862 0.63580 1.00944
 C223 C -0.24376 0.64335 0.99317
 C224 C -0.24432 0.65170 0.97761
 C225 C -0.22978 0.65218 0.96733
 C226 C -0.21473 0.64390 0.97244
 C227 C -0.21416 0.63536 0.98791
 C228 C -0.22860 0.63527 0.99833
 H229 H -0.27459 0.62873 0.98711
 H230 H -0.24665 0.65850 1.02351
 H231 H -0.25597 0.65812 0.97371
 H232 H -0.22814 0.62876 1.01034
 H233 H -0.29921 0.64513 1.03280
 H234 H -0.20349 0.64410 0.96446
 C235 C -0.27237 0.36474 0.50050
 C236 C -0.25733 0.35642 0.49536
 C237 C -0.25698 0.34779 0.47990
 C238 C -0.27159 0.34727 0.46972
 C239 C -0.28653 0.35576 0.47478
 C240 C -0.28691 0.36459 0.49015
 C241 C -0.24211 0.35629 0.50631
 C242 C -0.24269 0.34783 0.52182
 C243 C -0.22811 0.34706 0.53202
 C244 C -0.21296 0.35514 0.52692
 C245 C -0.21234 0.36379 0.51152
 C246 C -0.22685 0.36419 0.50115
 H247 H -0.27263 0.37143 0.51244
 H248 H -0.24545 0.34118 0.47600
 H249 H -0.25440 0.34154 0.52574
 H250 H -0.22636 0.37076 0.48918
 H251 H -0.29779 0.35544 0.46681
 H252 H -0.20169 0.35466 0.53487
 C253 C 0.22790 -0.13651 0.00017
 C254 C 0.24294 -0.14461 -0.00530
 C255 C 0.24310 -0.15309 -0.02085
 C256 C 0.22830 -0.15367 -0.03079
 C257 C 0.21337 -0.14538 -0.02536
 C258 C 0.21319 -0.13672 -0.00992
 C259 C 0.25832 -0.14475 0.00545
 C260 C 0.25794 -0.15318 0.02098
 C261 C 0.27266 -0.15393 0.03101
 C262 C 0.28775 -0.14585 0.02569
 C263 C 0.28816 -0.13723 0.01027
 C264 C 0.27351 -0.13687 0.00008
 H265 H 0.22773 -0.12994 0.01218
 H266 H 0.25465 -0.15955 -0.02497
 H267 H 0.24626 -0.15945 0.02504
 H268 H 0.27385 -0.13031 -0.01190
 H269 H 0.20191 -0.14571 -0.03307
 H270 H 0.29914 -0.14628 0.03349
 C271 C 0.22876 1.13527 0.49892
 C272 C 0.24367 1.14384 0.50410
 C273 C 0.24378 1.15280 0.51938
 C274 C 0.22905 1.15336 0.52936
 C275 C 0.21425 1.14462 0.52425
 C276 C 0.21411 1.13549 0.50907
 C277 C 0.25901 1.14387 0.49336
 C278 C 0.25883 1.15273 0.47806
 C279 C 0.27355 1.15332 0.46804
 C280 C 0.28840 1.14469 0.47314
 C281 C 0.28859 1.13566 0.48835
 C282 C 0.27396 1.13542 0.49852
 H283 H 0.22865 1.12832 0.48712
 H284 H 0.25523 1.15958 0.52331
 H285 H 0.24732 1.15941 0.47417
 H286 H 0.27412 1.12854 0.51032
 H287 H 0.20288 1.14495 0.53203
 H288 H 0.29977 1.14499 0.46535
 C289 C 0.11465 0.50611 0.23083
 C290 C 0.12649 0.50714 0.24408
 C291 C 0.13750 0.52135 0.24524
 C292 C 0.13661 0.53444 0.23322
 C293 C 0.12480 0.53325 0.22002
 C294 C 0.11381 0.51913 0.21880
 C295 C 0.12668 0.49373 0.25708
 C296 C 0.13785 0.47969 0.25579
 C297 C 0.13731 0.46660 0.26783
 C298 C 0.12568 0.46761 0.28116
 C299 C 0.11453 0.48156 0.28249
 C300 C 0.11501 0.49460 0.27045
 H301 H 0.10604 0.49525 0.22999
 H302 H 0.14650 0.52230 0.25558
 H303 H 0.14671 0.47887 0.24535
 H304 H 0.10627 0.50532 0.27138
 H305 H 0.12406 0.54339 0.21076
 H306 H 0.12520 0.45747 0.29042
 C307 C -0.11495 0.99365 0.22988
 C308 C -0.12681 0.99319 0.24311
 C309 C -0.13823 0.97933 0.24443
 C310 C -0.13775 0.96600 0.23257
 C311 C -0.12593 0.96663 0.21936
 C312 C -0.11453 0.98041 0.21798
 C313 C -0.12667 1.00687 0.25591
 C314 C -0.13784 1.02092 0.25459
 C315 C -0.13710 1.03421 0.26648
 C316 C -0.12528 1.03335 0.27970
 C317 C -0.11416 1.01939 0.28108
 C318 C -0.11483 1.00618 0.26917
 H319 H -0.10606 1.00428 0.22894
 H320 H -0.14725 0.97886 0.25476
 H321 H -0.14685 1.02155 0.24424
 H322 H -0.10612 0.99543 0.27015
 H323 H -0.12552 0.95632 0.21021
 H324 H -0.12463 1.04361 0.28890
 C325 C 0.38505 0.49588 -0.27012
 C326 C 0.37279 0.49547 -0.25724
 C327 C 0.36117 0.48175 -0.25635
 C328 C 0.36187 0.46849 -0.26826
 C329 C 0.37406 0.46906 -0.28112
 C330 C 0.38565 0.48272 -0.28211
 C331 C 0.37268 0.50907 -0.24436
 C332 C 0.36117 0.52285 -0.24552
 C333 C 0.36164 0.53606 -0.23353
 C334 C 0.37349 0.53535 -0.22032
 C335 C 0.38494 0.52164 -0.21909
 C336 C 0.38458 0.50855 -0.23113
 H337 H 0.39408 0.50641 -0.27074
 H338 H 0.35184 0.48127 -0.24630
 H339 H 0.35211 0.52336 -0.25584
 H340 H 0.39353 0.49799 -0.23025
 H341 H 0.37459 0.45878 -0.29031
 H342 H 0.37390 0.54553 -0.21103
 C343 C 0.61471 0.00469 -0.27101
 C344 C 0.62587 0.00603 -0.25723
 C345 C 0.63627 0.02062 -0.25543
 C346 C 0.63553 0.03376 -0.26740
 C347 C 0.62436 0.03232 -0.28111
 C348 C 0.61392 0.01785 -0.28293
 C349 C 0.62593 -0.00748 -0.24433
 C350 C 0.63643 -0.02198 -0.24611
 C351 C 0.63580 -0.03512 -0.23412
 C352 C 0.62465 -0.03376 -0.22043
 C353 C 0.61412 -0.01939 -0.21864
 C354 C 0.61479 -0.00624 -0.23056
 H355 H 0.60654 -0.00647 -0.27228
 H356 H 0.64475 0.02178 -0.24470
 H357 H 0.64489 -0.02308 -0.25683
 H358 H 0.60653 0.00483 -0.22926
 H359 H 0.62372 0.04256 -0.29028
 H360 H 0.62406 -0.04397 -0.21123
 C361 C -0.00453 0.22758 0.91405
 C362 C -0.00683 0.24417 0.90771
 C363 C -0.02246 0.24857 0.90015
 C364 C -0.03553 0.23642 0.89872
 C365 C -0.03322 0.21995 0.90515
 C366 C -0.01774 0.21555 0.91281
 C367 C 0.00744 0.25651 0.90780
 C368 C 0.02338 0.25177 0.90115
 C369 C 0.03651 0.26386 0.89983
 C370 C 0.03393 0.28061 0.90547
 C371 C 0.01812 0.28536 0.91221
 C372 C 0.00486 0.27338 0.91333
 H373 H 0.00756 0.22400 0.91973
 H374 H -0.02415 0.26117 0.89471
 H375 H 0.02529 0.23894 0.89628
 H376 H -0.00747 0.27721 0.91830
 H377 H -0.04326 0.21045 0.90378
 H378 H 0.04402 0.29006 0.90414
 C379 C 0.50511 0.22532 0.08733
 C380 C 0.50720 0.24232 0.09273
 C381 C 0.52276 0.24740 0.10004
 C382 C 0.53598 0.23555 0.10213
 C383 C 0.53388 0.21868 0.09664
 C384 C 0.51846 0.21358 0.08925
 C385 C 0.49277 0.25442 0.09195
 C386 C 0.47684 0.24982 0.09875
 C387 C 0.46356 0.26177 0.09944
 C388 C 0.46597 0.27823 0.09303
 C389 C 0.48175 0.28284 0.08614
 C390 C 0.49516 0.27101 0.08563
 H391 H 0.49308 0.22122 0.08184
 H392 H 0.52430 0.26034 0.10477
 H393 H 0.47507 0.23724 0.10422
 H394 H 0.50747 0.27476 0.08057
 H395 H 0.54404 0.20942 0.09854
 H396 H 0.45577 0.28761 0.09390
 C397 C 0.00451 0.72820 0.58561
 C398 C 0.00694 0.74505 0.59129
 C399 C 0.02306 0.75009 0.59737
 C400 C 0.03650 0.73832 0.59800
 C401 C 0.03406 0.72159 0.59222
 C402 C 0.01808 0.71655 0.58603
 C403 C -0.00760 0.75699 0.59228
 C404 C -0.02266 0.75207 0.60059
 C405 C -0.03586 0.76390 0.60299
 C406 C -0.03426 0.78056 0.59678
 C407 C -0.01936 0.78546 0.58838
 C408 C -0.00602 0.77375 0.58618
 H409 H -0.00796 0.72412 0.58113
 H410 H 0.02487 0.76287 0.60240
 H411 H -0.02372 0.73931 0.60584
 H412 H 0.00565 0.77773 0.57995
 H413 H 0.04439 0.71237 0.59308
 H414 H -0.04436 0.78984 0.59889
 C415 C 0.49529 0.72749 0.41470
 C416 C 0.49317 0.74401 0.40813
 C417 C 0.47746 0.74860 0.40086
 C418 C 0.46412 0.73669 0.39994
 C419 C 0.46625 0.72030 0.40660
 C420 C 0.48182 0.71571 0.41397
 C421 C 0.50770 0.75604 0.40760
 C422 C 0.52337 0.75081 0.40068
 C423 C 0.53669 0.76261 0.39874
 C424 C 0.53457 0.77954 0.40400
 C425 C 0.51905 0.78478 0.41100
 C426 C 0.50560 0.77310 0.41276
 H427 H 0.50746 0.72375 0.42013
 H428 H 0.47589 0.76112 0.39521
 H429 H 0.52491 0.73783 0.39610
 H430 H 0.49347 0.77731 0.41793
 H431 H 0.45601 0.71097 0.40558
 H432 H 0.54480 0.78875 0.40219
 Zr433 Zr 0.01289 -0.02577 1.02863
 O434 O 0.02971 -0.01556 1.04697
 O435 O 0.00909 -0.05070 1.03740
 O436 O 0.00095 -0.02450 1.05242
 O437 O 0.04455 -0.03531 0.99968
 O438 O -0.02427 -0.01071 1.04717
 O439 O 0.03737 -0.03727 1.02742
 O440 O -0.01050 -0.06190 1.01909
 O441 O -0.01316 -0.02974 1.02375
 O442 O 0.01149 -0.03951 1.00611
 O443 O 0.00195 -0.00121 1.02751
 O444 O 0.02592 -0.01072 1.01075
 Zr445 Zr -0.01356 -0.00362 0.98075
 Zr446 Zr -0.02381 -0.00530 1.02132
 Zr447 Zr 0.02310 -0.02415 0.98804
 Zr448 Zr -0.01437 -0.04264 1.00085
 O449 O 0.04561 -0.01115 0.98060
 O450 O -0.03874 -0.04971 1.01026
 O451 O -0.00266 -0.02834 0.98166
 O452 O -0.02628 -0.01874 0.99866
 O453 O -0.01228 0.01028 1.00323
 O454 O 0.01244 0.00018 0.98583
 C455 C -0.00087 -0.06265 1.03218
 C456 C 0.04762 -0.03959 1.01496
 C457 C -0.01356 -0.01821 1.05696
 O458 O -0.04726 -0.01754 1.02699
 O459 O -0.04408 0.00828 1.01012
 O460 O -0.03731 0.00925 0.98224
 C461 C -0.04710 0.01259 0.99483
 O462 O 0.03184 0.01756 1.02806
 Zr463 Zr 0.01370 0.01315 1.00861
 O464 O -0.01005 0.02155 0.97229
 O465 O -0.02732 0.01781 1.03479
 O466 O 0.00433 0.03382 1.02322
 O467 O 0.03708 0.02188 0.99816
 O468 O 0.00771 0.03328 0.99202
 C469 C -0.00157 0.03405 0.97871
 O470 O -0.03127 -0.01338 0.96300
 O471 O 0.02761 -0.04802 0.97624
 O472 O -0.00248 -0.00649 0.95671
 O473 O 0.02218 -0.02132 0.96178
 O474 O -0.00495 -0.06450 0.98803
 O475 O -0.03014 -0.04814 0.97975
 C476 C 0.01139 -0.01396 0.95198
 H477 H 0.01721 -0.05080 1.00669
 H478 H -0.03845 -0.02040 0.99557
 H479 H 0.01837 0.00679 0.97698
 H480 H 0.00314 0.00483 1.03839
 H481 H -0.03977 -0.06230 1.00916
 H482 H -0.05368 -0.00971 1.03449
 H483 H -0.03877 0.01714 1.04007
 H484 H 0.01116 0.04409 1.02030
 H485 H -0.01226 -0.07434 0.99124
 H486 H 0.03903 -0.04727 0.97089
 H487 H 0.05207 -0.01911 0.97327
 H488 H 0.03763 0.03443 0.99992
 H489 H -0.03546 -0.05955 0.98116
 H490 H -0.03357 -0.00412 0.95478
 H491 H 0.03210 -0.02482 1.05515
 H492 H 0.03506 0.02982 1.02823
 Zr493 Zr 0.51285 0.47392 0.52872
 O494 O 0.52966 0.48417 0.54704
 O495 O 0.50921 0.44894 0.53742
 O496 O 0.50096 0.47509 0.55254
 O497 O 0.54447 0.46463 0.49967
 O498 O 0.47565 0.48876 0.54739
 O499 O 0.53738 0.46255 0.52742
 O500 O 0.48966 0.43768 0.51912
 O501 O 0.48680 0.46983 0.52390
 O502 O 0.51146 0.46023 0.50616
 O503 O 0.50177 0.49843 0.52768
 O504 O 0.52575 0.48909 0.51084
 Zr505 Zr 0.48616 0.49606 0.48095
 Zr506 Zr 0.47602 0.49422 0.52154
 Zr507 Zr 0.52294 0.47570 0.48811
 Zr508 Zr 0.48560 0.45698 0.50096
 O509 O 0.54536 0.48885 0.48065
 O510 O 0.46131 0.44975 0.51045
 O511 O 0.49719 0.47139 0.48178
 O512 O 0.47355 0.48083 0.49886
 O513 O 0.48742 0.50990 0.50346
 O514 O 0.51215 0.49999 0.48598
 C515 C 0.49933 0.43694 0.53218
 C516 C 0.54761 0.46032 0.51493
 C517 C 0.48644 0.48131 0.55713
 O518 O 0.45265 0.48184 0.52724
 O519 O 0.45565 0.50774 0.51042
 O520 O 0.46235 0.50880 0.48253
 C521 C 0.45257 0.51207 0.49515
 O522 O 0.53157 0.51735 0.52819
 Zr523 Zr 0.51340 0.51290 0.50878
 O524 O 0.48950 0.52127 0.47255
 O525 O 0.47242 0.51728 0.53507
 O526 O 0.50398 0.53349 0.52349
 O527 O 0.53669 0.52178 0.49828
 O528 O 0.50723 0.53305 0.49228
 C529 C 0.49791 0.53380 0.47900
 O530 O 0.46844 0.48625 0.46322
 O531 O 0.52757 0.45189 0.47625
 O532 O 0.49718 0.49328 0.45687
 O533 O 0.52193 0.47856 0.46186
 O534 O 0.49509 0.43522 0.48804
 O535 O 0.46978 0.45146 0.47990
 C536 C 0.51107 0.48586 0.45209
 H537 H 0.51724 0.44898 0.50670
 H538 H 0.46139 0.47911 0.49580
 H539 H 0.51801 0.50664 0.47712
 H540 H 0.50296 0.50445 0.53857
 H541 H 0.46034 0.43715 0.50931
 H542 H 0.44620 0.48962 0.53477
 H543 H 0.46098 0.51654 0.54038
 H544 H 0.51075 0.54379 0.52058
 H545 H 0.48785 0.42533 0.49124
 H546 H 0.53898 0.45272 0.47087
 H547 H 0.55184 0.48095 0.47327
 H548 H 0.53717 0.53433 0.50006
 H549 H 0.46452 0.44001 0.48130
 H550 H 0.46607 0.49551 0.45504
 H551 H 0.53212 0.47490 0.55519
 H552 H 0.53476 0.52962 0.52836
 Zr553 Zr 0.48916 1.02447 0.52596
 O554 O 0.47211 1.01320 0.54338
 O555 O 0.49266 1.04889 0.53616
 O556 O 0.50074 1.02217 0.54986
 O557 O 0.45797 1.03535 0.49694
 O558 O 0.52618 1.00889 0.54439
 O559 O 0.46464 1.03590 0.52489
 O560 O 0.51262 1.06110 0.51898
 O561 O 0.51526 1.02884 0.52180
 O562 O 0.49086 1.03938 0.50425
 O563 O 0.50031 1.00008 0.52378
 O564 O 0.47655 1.01029 0.50705
 Zr565 Zr 0.51659 1.00498 0.47750
 Zr566 Zr 0.52614 1.00464 0.51830
 Zr567 Zr 0.47968 1.02489 0.48515
 Zr568 Zr 0.51678 1.04293 0.49967
 O569 O 0.45735 1.01219 0.47663
 O570 O 0.54100 1.04964 0.50978
 O571 O 0.50550 1.02956 0.47951
 O572 O 0.52890 1.01924 0.49644
 O573 O 0.51503 0.98994 0.49918
 O574 O 0.49054 1.00076 0.48188
 C575 C 0.50275 1.06109 0.53191
 C576 C 0.45460 1.03882 0.51236
 C577 C 0.51527 1.01585 0.55433
 O578 O 0.54944 1.01669 0.52500
 O579 O 0.54664 0.99170 0.50679
 O580 O 0.54039 0.99216 0.47876
 C581 C 0.54996 0.98820 0.49136
 O582 O 0.47057 0.98110 0.52274
 Zr583 Zr 0.48898 0.98664 0.50390
 O584 O 0.51342 0.98026 0.46763
 O585 O 0.52955 0.98095 0.53068
 O586 O 0.49828 0.96530 0.51754
 O587 O 0.46584 0.97830 0.49257
 O588 O 0.49539 0.96744 0.48635
 C589 C 0.50490 0.96741 0.47320
 O590 O 0.53452 1.01578 0.46065
 O591 O 0.47526 1.04930 0.47452
 O592 O 0.50586 1.00891 0.45344
 O593 O 0.48102 1.02332 0.45881
 O594 O 0.50738 1.06542 0.48801
 O595 O 0.53276 1.04963 0.47913
 C596 C 0.49199 1.01648 0.44884
 H597 H 0.48507 1.05059 0.50535
 H598 H 0.54111 1.02112 0.49367
 H599 H 0.48479 0.99458 0.47259
 H600 H 0.49898 0.99350 0.53430
 H601 H 0.54196 1.06228 0.50937
 H602 H 0.55578 1.00853 0.53220
 H603 H 0.54091 0.98142 0.53620
 H604 H 0.49159 0.95515 0.51394
 H605 H 0.51458 1.07510 0.49191
 H606 H 0.46394 1.04877 0.46892
 H607 H 0.45097 1.02047 0.46960
 H608 H 0.46536 0.96568 0.49364
 H609 H 0.53793 1.06101 0.48121
 H610 H 0.53704 1.00698 0.45200
 H611 H 0.46951 1.02200 0.55200
 H612 H 0.46745 0.96883 0.52220
 Zr613 Zr -0.01337 0.52526 1.02828
 O614 O -0.03062 0.51439 1.04577
 O615 O -0.00971 0.54980 1.03815
 O616 O -0.00195 0.52322 1.05228
 O617 O -0.04428 0.53597 0.99891
 O618 O 0.02339 0.50960 1.04715
 O619 O -0.03779 0.53687 1.02689
 O620 O 0.01047 0.56155 1.02092
 O621 O 0.01279 0.52931 1.02422
 O622 O -0.01139 0.53983 1.00637
 O623 O -0.00244 0.50073 1.02651
 O624 O -0.02599 0.51091 1.00949
 Zr625 Zr 0.01418 0.50478 0.98028
 Zr626 Zr 0.02346 0.50495 1.02113
 Zr627 Zr -0.02259 0.52516 0.98741
 Zr628 Zr 0.01459 0.54305 1.00190
 O629 O -0.04498 0.51256 0.97891
 O630 O 0.03881 0.54967 1.01209
 O631 O 0.00332 0.52950 0.98187
 O632 O 0.02651 0.51920 0.99909
 O633 O 0.01233 0.49008 1.00215
 O634 O -0.01194 0.50089 0.98455
 C635 C 0.00052 0.56184 1.03378
 C636 C -0.04773 0.53969 1.01427
 C637 C 0.01249 0.51683 1.05693
 O638 O 0.04685 0.51686 1.02780
 O639 O 0.04393 0.49166 1.00993
 O640 O 0.03784 0.49176 0.98186
 C641 C 0.04730 0.48790 0.99456
 O642 O -0.03233 0.48201 1.02558
 Zr643 Zr -0.01377 0.48710 1.00676
 O644 O 0.01081 0.47996 0.97073
 O645 O 0.02655 0.48141 1.03386
 O646 O -0.00475 0.46587 1.02074
 O647 O -0.03694 0.47885 0.99542
 O648 O -0.00748 0.46760 0.98950
 C649 C 0.00211 0.46728 0.97640
 O650 O 0.03232 0.51516 0.96339
 O651 O -0.02670 0.54946 0.97643
 O652 O 0.00365 0.50847 0.95609
 O653 O -0.02109 0.52320 0.96110
 O654 O 0.00550 0.56546 0.98986
 O655 O 0.03077 0.54929 0.98137
 C656 C -0.01011 0.51611 0.95130
 H657 H -0.01709 0.55110 1.00727
 H658 H 0.03875 0.52093 0.99637
 H659 H -0.01769 0.49462 0.97531
 H660 H -0.00389 0.49432 1.03712
 H661 H 0.03990 0.56230 1.01151
 H662 H 0.05306 0.50875 1.03517
 H663 H 0.03789 0.48185 1.03945
 H664 H -0.01152 0.45574 1.01724
 H665 H 0.01277 0.57512 0.99367
 H666 H -0.03799 0.54895 0.97076
 H667 H -0.05123 0.52080 0.97172
 H668 H -0.03755 0.46624 0.99665
 H669 H 0.03607 0.56064 0.98334
 H670 H 0.03481 0.50621 0.95488
 H671 H -0.03319 0.52335 1.05424
 H672 H -0.03557 0.46975 1.02518
 Zr673 Zr -0.01151 0.47458 0.47356
 O674 O -0.02858 0.48519 0.45573
 O675 O -0.00790 0.44986 0.46413
 O676 O 0.00009 0.47627 0.44965
 O677 O -0.04271 0.46439 0.50275
 O678 O 0.02543 0.48994 0.45483
 O679 O -0.03598 0.46304 0.47485
 O680 O 0.01200 0.43829 0.48181
 O681 O 0.01461 0.47053 0.47795
 O682 O -0.00977 0.46036 0.49571
 O683 O -0.00050 0.49911 0.47509
 O684 O -0.02423 0.48924 0.49199
 Zr685 Zr 0.01573 0.49575 0.52155
 Zr686 Zr 0.02534 0.49492 0.48080
 Zr687 Zr -0.02107 0.47534 0.51432
 Zr688 Zr 0.01616 0.45715 0.50050
 O689 O -0.04345 0.48815 0.52240
 O690 O 0.04039 0.45031 0.49057
 O691 O 0.00478 0.47104 0.52020
 O692 O 0.02815 0.48101 0.50309
 O693 O 0.01412 0.51011 0.49943
 O694 O -0.01033 0.49963 0.51694
 C695 C 0.00215 0.43782 0.46886
 C696 C -0.04603 0.46044 0.48741
 C697 C 0.01456 0.48261 0.44505
 O698 O 0.04871 0.48283 0.47453
 O699 O 0.04579 0.50832 0.49201
 O700 O 0.03947 0.50870 0.52001
 C701 C 0.04905 0.51232 0.50735
 O702 O -0.03034 0.51791 0.47543
 Zr703 Zr -0.01193 0.51307 0.49451
 O704 O 0.01238 0.52073 0.53070
 O705 O 0.02866 0.51826 0.46778
 O706 O -0.00271 0.53405 0.48029
 O707 O -0.03515 0.52155 0.50549
 O708 O -0.00569 0.53283 0.51152
 C709 C 0.00378 0.53333 0.52472
 O710 O 0.03372 0.48563 0.53878
 O711 O -0.02542 0.45123 0.52561
 O712 O 0.00503 0.49238 0.54568
 O713 O -0.01973 0.47764 0.54061
 O714 O 0.00691 0.43500 0.51289
 O715 O 0.03223 0.45120 0.52123
 C716 C -0.00879 0.48481 0.55043
 H717 H -0.01551 0.44909 0.49493
 H718 H 0.04036 0.47930 0.50596
 H719 H -0.01613 0.50604 0.52604
 H720 H -0.00185 0.50537 0.46437
 H721 H 0.04142 0.43769 0.49134
 H722 H 0.05502 0.49081 0.46711
 H723 H 0.04004 0.51771 0.46232
 H724 H -0.00946 0.54426 0.48357
 H725 H 0.01415 0.42524 0.50932
 H726 H -0.03675 0.45186 0.53115
 H727 H -0.04980 0.48005 0.52964
 H728 H -0.03570 0.53414 0.50406
 H729 H 0.03751 0.43983 0.51946
 H730 H 0.03616 0.49471 0.54718
 H731 H -0.03113 0.47610 0.44736
 H732 H -0.03352 0.53018 0.47561
 Zr733 Zr 0.48918 -0.02659 -0.02680
 O734 O 0.47215 -0.01568 -0.04449
 O735 O 0.49286 -0.05113 -0.03667
 O736 O 0.50084 -0.02450 -0.05065
 O737 O 0.45791 -0.03725 0.00214
 O738 O 0.52619 -0.01097 -0.04519
 O739 O 0.46470 -0.03815 -0.02575
 O740 O 0.51278 -0.06296 -0.01917
 O741 O 0.51529 -0.03073 -0.02241
 O742 O 0.49086 -0.04119 -0.00489
 O743 O 0.50022 -0.00210 -0.02486
 O744 O 0.47644 -0.01223 -0.00816
 Zr745 Zr 0.51633 -0.00626 0.02158
 Zr746 Zr 0.52604 -0.00641 -0.01915
 Zr747 Zr 0.47953 -0.02652 0.01394
 Zr748 Zr 0.51678 -0.04450 -0.00008
 O749 O 0.45712 -0.01384 0.02215
 O750 O 0.54107 -0.05120 -0.00994
 O751 O 0.50535 -0.03094 0.01982
 O752 O 0.52878 -0.02070 0.00291
 O753 O 0.51479 0.00847 -0.00030
 O754 O 0.49028 -0.00228 0.01697
 C755 C 0.50298 -0.06320 -0.03217
 C756 C 0.45461 -0.04095 -0.01326
 C757 C 0.51534 -0.01812 -0.05512
 O758 O 0.54941 -0.01841 -0.02556
 O759 O 0.54646 0.00678 -0.00767
 O760 O 0.54008 0.00667 0.02032
 C761 C 0.54969 0.01051 0.00774
 O762 O 0.47038 0.01670 -0.02427
 Zr763 Zr 0.48875 0.01154 -0.00523
 O764 O 0.51301 0.01857 0.03110
 O765 O 0.52941 0.01714 -0.03179
 O766 O 0.49801 0.03275 -0.01911
 O767 O 0.46553 0.01989 0.00584
 O768 O 0.49500 0.03102 0.01210
 C769 C 0.50446 0.03129 0.02532
 O770 O 0.53423 -0.01672 0.03870
 O771 O 0.47517 -0.05081 0.02485
 O772 O 0.50552 -0.00994 0.04562
 O773 O 0.48076 -0.02458 0.04027
 O774 O 0.50743 -0.06690 0.01182
 O775 O 0.53270 -0.05081 0.02066
 C776 C 0.49166 -0.01754 0.05022
 H777 H 0.48512 -0.05245 -0.00588
 H778 H 0.54098 -0.02246 0.00579
 H779 H 0.48447 0.00400 0.02614
 H780 H 0.49890 0.00434 -0.03548
 H781 H 0.54209 -0.06382 -0.00935
 H782 H 0.55575 -0.01032 -0.03282
 H783 H 0.54080 0.01667 -0.03723
 H784 H 0.49126 0.04290 -0.01568
 H785 H 0.51470 -0.07658 0.00810
 H786 H 0.46383 -0.05027 0.03037
 H787 H 0.45075 -0.02207 0.02925
 H788 H 0.46500 0.03250 0.00460
 H789 H 0.53794 -0.06218 0.01876
 H790 H 0.53667 -0.00778 0.04725
 H791 H 0.46963 -0.02461 -0.05301
 H792 H 0.46721 0.02896 -0.02390
 Zr793 Zr 0.51153 0.52486 -0.02773
 O794 O 0.52831 0.51459 -0.04601
 O795 O 0.50787 0.54979 -0.03649
 O796 O 0.49958 0.52365 -0.05154
 O797 O 0.54321 0.53437 0.00132
 O798 O 0.47430 0.50992 -0.04639
 O799 O 0.53605 0.53631 -0.02645
 O800 O 0.48832 0.56106 -0.01826
 O801 O 0.48549 0.52888 -0.02294
 O802 O 0.51017 0.53862 -0.00522
 O803 O 0.50049 0.50032 -0.02664
 O804 O 0.52450 0.50980 -0.00980
 Zr805 Zr 0.48498 0.50278 0.02007
 Zr806 Zr 0.47475 0.50446 -0.02054
 Zr807 Zr 0.52172 0.52325 0.01289
 Zr808 Zr 0.48432 0.54180 -0.00005
 O809 O 0.54417 0.51020 0.02041
 O810 O 0.46000 0.54891 -0.00959
 O811 O 0.49597 0.52748 0.01918
 O812 O 0.47231 0.51791 0.00211
 O813 O 0.48622 0.48887 -0.00240
 O814 O 0.51097 0.49893 0.01508
 C815 C 0.49798 0.56179 -0.03131
 C816 C 0.54630 0.53863 -0.01396
 C817 C 0.48505 0.51741 -0.05613
 O818 O 0.45132 0.51673 -0.02626
 O819 O 0.45444 0.49088 -0.00939
 O820 O 0.46120 0.48992 0.01851
 C821 C 0.45141 0.48657 0.00589
 O822 O 0.53030 0.48149 -0.02710
 Zr823 Zr 0.51219 0.48595 -0.00769
 O824 O 0.48842 0.47762 0.02857
 O825 O 0.47117 0.48138 -0.03405
 O826 O 0.50273 0.46528 -0.02231
 O827 O 0.53553 0.47719 0.00283
 O828 O 0.50613 0.46585 0.00890
 C829 C 0.49686 0.46511 0.02219
 O830 O 0.46727 0.51258 0.03774
 O831 O 0.52634 0.54711 0.02469
 O832 O 0.49603 0.50568 0.04415
 O833 O 0.52076 0.52046 0.03915
 O834 O 0.49380 0.56364 0.01282
 O835 O 0.46854 0.54733 0.02098
 C836 C 0.50992 0.51315 0.04892
 H837 H 0.51593 0.54989 -0.00578
 H838 H 0.46015 0.51959 0.00516
 H839 H 0.51687 0.49233 0.02395
 H840 H 0.50166 0.49428 -0.03752
 H841 H 0.45901 0.56151 -0.00849
 H842 H 0.44488 0.50891 -0.03378
 H843 H 0.45971 0.48206 -0.03936
 H844 H 0.50953 0.45501 -0.01937
 H845 H 0.48653 0.57349 0.00958
 H846 H 0.53775 0.54633 0.03008
 H847 H 0.55066 0.51814 0.02777
 H848 H 0.53604 0.46464 0.00107
 H849 H 0.46325 0.55875 0.01954
 H850 H 0.46493 0.50333 0.04595
 H851 H 0.53075 0.52384 -0.05418
 H852 H 0.53348 0.46923 -0.02724
 Zr853 Zr 0.01272 1.02525 0.47213
 O854 O 0.02954 1.01422 0.45432
 O855 O 0.00939 1.04992 0.46255
 O856 O 0.00096 1.02344 0.44826
 O857 O 0.04423 1.03532 0.50116
 O858 O -0.02454 1.01019 0.45360
 O859 O 0.03735 1.03646 0.47328
 O860 O -0.01024 1.06195 0.48022
 O861 O -0.01331 1.02970 0.47656
 O862 O 0.01131 1.03973 0.49420
 O863 O 0.00139 1.00089 0.47385
 O864 O 0.02535 1.01062 0.49063
 Zr865 Zr -0.01451 1.00499 0.52033
 Zr866 Zr -0.02436 1.00550 0.47960
 Zr867 Zr 0.02252 1.02481 0.51288
 Zr868 Zr -0.01455 1.04335 0.49904
 O869 O 0.04477 1.01178 0.52097
 O870 O -0.03874 1.05042 0.48913
 O871 O -0.00323 1.02953 0.51880
 O872 O -0.02685 1.01969 0.50181
 O873 O -0.01323 0.99038 0.49830
 O874 O 0.01147 1.00069 0.51569
 C875 C -0.00046 1.06215 0.46724
 C876 C 0.04752 1.03906 0.48579
 C877 C -0.01362 1.01725 0.44374
 O878 O -0.04761 1.01782 0.47335
 O879 O -0.04487 0.99242 0.49097
 O880 O -0.03839 0.99230 0.51895
 C881 C -0.04807 0.98861 0.50634
 O882 O 0.03102 0.98174 0.47427
 Zr883 Zr 0.01275 0.98699 0.49334
 O884 O -0.01149 0.98008 0.52961
 O885 O -0.02807 0.98207 0.46672
 O886 O 0.00323 0.96599 0.47923
 O887 O 0.03587 0.97828 0.50437
 O888 O 0.00623 0.96748 0.51044
 C889 C -0.00318 0.96726 0.52366
 O890 O -0.03226 1.01558 0.53752
 O891 O 0.02726 1.04898 0.52400
 O892 O -0.00361 1.00845 0.54441
 O893 O 0.02132 1.02280 0.53919
 O894 O -0.00493 1.06552 0.51125
 O895 O -0.03040 1.04973 0.51979
 C896 C 0.01033 1.01588 0.54908
 H897 H 0.01720 1.05091 0.49333
 H898 H -0.03902 1.02158 0.50470
 H899 H 0.01721 0.99429 0.52481
 H900 H 0.00259 0.99449 0.46317
 H901 H -0.03959 1.06306 0.48984
 H902 H -0.05407 1.00984 0.46601
 H903 H -0.03947 0.98271 0.46130
 H904 H 0.00987 0.95573 0.48255
 H905 H -0.01208 1.07533 0.50764
 H906 H 0.03862 1.04825 0.52951
 H907 H 0.05127 1.01988 0.52814
 H908 H 0.03623 0.96567 0.50301
 H909 H -0.03555 1.06115 0.51796
 H910 H -0.03479 1.00663 0.54599
 H911 H 0.03215 1.02318 0.44589
 H912 H 0.03408 0.96944 0.47454
 Zr913 Zr 0.72600 0.26185 0.22281
 O914 O 0.73676 0.27884 0.20502
 O915 O 0.70124 0.25842 0.21339
 O916 O 0.72763 0.25023 0.19886
 O917 O 0.71609 0.29316 0.25209
 O918 O 0.74108 0.22480 0.20399
 O919 O 0.71467 0.28640 0.22418
 O920 O 0.68948 0.23865 0.23107
 O921 O 0.72171 0.23577 0.22713
 O922 O 0.71178 0.26024 0.24497
 O923 O 0.75043 0.25067 0.22432
 O924 O 0.74078 0.27449 0.24127
 Zr925 Zr 0.74691 0.23451 0.27073
 Zr926 Zr 0.74600 0.22486 0.22996
 Zr927 Zr 0.72685 0.27145 0.26360
 Zr928 Zr 0.70832 0.23433 0.24969
 O929 O 0.73987 0.29375 0.27172
 O930 O 0.70126 0.21017 0.23967
 O931 O 0.72231 0.24564 0.26942
 O932 O 0.73206 0.22217 0.25225
 O933 O 0.76128 0.23599 0.24862
 O934 O 0.75104 0.26055 0.26620
 C935 C 0.68910 0.24850 0.21813
 C936 C 0.71214 0.29649 0.23676
 C937 C 0.73387 0.23571 0.19423
 O938 O 0.73370 0.20158 0.22361
 O939 O 0.75919 0.20432 0.24113
 O940 O 0.75961 0.21067 0.26914
 C941 C 0.76315 0.20104 0.25646
 O942 O 0.76946 0.28041 0.22475
 Zr943 Zr 0.76448 0.26202 0.24376
 O944 O 0.77192 0.23765 0.27985
 O945 O 0.76933 0.22136 0.21696
 O946 O 0.78538 0.25269 0.22947
 O947 O 0.77320 0.28516 0.25484
 O948 O 0.78421 0.25558 0.26070
 C949 C 0.78462 0.24610 0.27387
 O950 O 0.73661 0.21663 0.28793
 O951 O 0.70278 0.27600 0.27492
 O952 O 0.74364 0.24527 0.29489
 O953 O 0.72912 0.27014 0.28989
 O954 O 0.68627 0.24375 0.26215
 O955 O 0.70222 0.21831 0.27037
 C956 C 0.73618 0.25915 0.29968
 H957 H 0.70056 0.26606 0.24422
 H958 H 0.73024 0.20998 0.25508
 H959 H 0.75750 0.26629 0.27530
 H960 H 0.75671 0.25196 0.21360
 H961 H 0.68864 0.20923 0.24043
 H962 H 0.74163 0.19521 0.21618
 H963 H 0.76868 0.20998 0.21146
 H964 H 0.79564 0.25938 0.23276
 H965 H 0.67644 0.23658 0.25857
 H966 H 0.70352 0.28734 0.28049
 H967 H 0.73183 0.30017 0.27898
 H968 H 0.78579 0.28561 0.25339
 H969 H 0.69081 0.21309 0.26857
 H970 H 0.74566 0.21412 0.29633
 H971 H 0.72770 0.28144 0.19667
 H972 H 0.78175 0.28353 0.22494
 Zr973 Zr 0.77529 0.73730 0.72131
 O974 O 0.76551 0.72061 0.70264
 O975 O 0.80045 0.74105 0.71319
 O976 O 0.77465 0.74937 0.69757
 O977 O 0.78402 0.70548 0.75030
 O978 O 0.76079 0.77460 0.70263
 O979 O 0.78669 0.71279 0.72265
 O980 O 0.81127 0.76049 0.73187
 O981 O 0.77919 0.76333 0.72641
 O982 O 0.78846 0.73857 0.74415
 O983 O 0.75074 0.74830 0.72192
 O984 O 0.75978 0.72421 0.73877
 Zr985 Zr 0.75201 0.76357 0.76880
 Zr986 Zr 0.75472 0.77402 0.72834
 Zr987 Zr 0.77264 0.72690 0.76179
 Zr988 Zr 0.79152 0.76441 0.74961
 O989 O 0.75938 0.70441 0.76884
 O990 O 0.79888 0.78878 0.74042
 O991 O 0.77673 0.75263 0.76839
 O992 O 0.76760 0.77636 0.75131
 O993 O 0.73869 0.76242 0.74600
 O994 O 0.74828 0.73760 0.76351
 C995 C 0.81232 0.75089 0.71876
 C996 C 0.78868 0.70247 0.73510
 C997 C 0.76850 0.76392 0.69296
 O998 O 0.76713 0.79750 0.72312
 O999 O 0.74083 0.79423 0.73932
 O1000 O 0.73917 0.78732 0.76713
 C1001 C 0.73612 0.79716 0.75452
 O1002 O 0.73197 0.71838 0.72082
 Zr1003 Zr 0.73590 0.73647 0.74043
 O1004 O 0.72662 0.76010 0.77663
 O1005 O 0.73198 0.77763 0.71433
 O1006 O 0.71562 0.74586 0.72532
 O1007 O 0.72685 0.71310 0.75063
 O1008 O 0.71534 0.74253 0.75648
 C1009 C 0.71425 0.75176 0.76981
 O1010 O 0.76134 0.78122 0.78685
 O1011 O 0.79621 0.72222 0.77408
 O1012 O 0.75436 0.75242 0.79286
 O1013 O 0.76928 0.72776 0.78798
 O1014 O 0.81301 0.75491 0.76295
 O1015 O 0.79652 0.78011 0.77088
 C1016 C 0.76176 0.73854 0.79769
 H1017 H 0.79974 0.73282 0.74381
 H1018 H 0.76919 0.78852 0.75451
 H1019 H 0.74145 0.73166 0.77219
 H1020 H 0.74496 0.74716 0.71090
 H1021 H 0.81145 0.78978 0.74182
 H1022 H 0.75951 0.80396 0.71547
 H1023 H 0.73280 0.78911 0.70913
 H1024 H 0.70528 0.73902 0.72795
 H1025 H 0.82294 0.76220 0.76002
 H1026 H 0.79528 0.71078 0.77936
 H1027 H 0.76713 0.69789 0.77632
 H1028 H 0.71435 0.71259 0.74859
 H1029 H 0.80796 0.78544 0.76974
 H1030 H 0.75188 0.78350 0.79486
 H1031 H 0.77497 0.71822 0.69467
 H1032 H 0.71973 0.71510 0.72041
 Zr1033 Zr 0.22406 0.24074 0.77556
 O1034 O 0.23551 0.22383 0.79302
 O1035 O 0.19960 0.24393 0.78566
 O1036 O 0.22627 0.25235 0.79947
 O1037 O 0.21347 0.20940 0.74650
 O1038 O 0.23932 0.27794 0.79405
 O1039 O 0.21289 0.21607 0.77445
 O1040 O 0.18717 0.26368 0.76840
 O1041 O 0.21943 0.26679 0.77139
 O1042 O 0.20913 0.24225 0.75380
 O1043 O 0.24834 0.25217 0.77345
 O1044 O 0.23836 0.22828 0.75669
 Zr1045 Zr 0.24326 0.26837 0.72717
 Zr1046 Zr 0.24353 0.27794 0.76797
 Zr1047 Zr 0.22371 0.23122 0.73475
 Zr1048 Zr 0.20533 0.26813 0.74921
 O1049 O 0.23662 0.20902 0.72628
 O1050 O 0.19838 0.29224 0.75938
 O1051 O 0.21880 0.25699 0.72909
 O1052 O 0.22890 0.28053 0.74606
 O1053 O 0.25833 0.26700 0.74889
 O1054 O 0.24773 0.24236 0.73156
 C1055 C 0.18727 0.25381 0.78132
 C1056 C 0.21006 0.20599 0.76192
 C1057 C 0.23248 0.26694 0.80397
 O1058 O 0.23126 0.30111 0.77463
 O1059 O 0.25627 0.29859 0.75649
 O1060 O 0.25587 0.29230 0.72847
 C1061 C 0.25975 0.30192 0.74107
 O1062 O 0.26762 0.22267 0.77249
 Zr1063 Zr 0.26188 0.24099 0.75361
 O1064 O 0.26797 0.26545 0.71733
 O1065 O 0.26719 0.28165 0.78042
 O1066 O 0.28313 0.25061 0.76730
 O1067 O 0.27046 0.21792 0.74236
 O1068 O 0.28097 0.24756 0.73607
 C1069 C 0.28089 0.25703 0.72290
 O1070 O 0.23226 0.28617 0.71031
 O1071 O 0.19936 0.22652 0.72403
 O1072 O 0.23945 0.25757 0.70309
 O1073 O 0.22530 0.23254 0.70841
 O1074 O 0.18296 0.25848 0.73740
 O1075 O 0.19848 0.28408 0.72869
 C1076 C 0.23205 0.24359 0.69847
 H1077 H 0.19799 0.23632 0.75485
 H1078 H 0.22690 0.29271 0.74329
 H1079 H 0.25396 0.23667 0.72230
 H1080 H 0.25494 0.25093 0.78400
 H1081 H 0.18573 0.29305 0.75893
 H1082 H 0.23935 0.30755 0.78187
 H1083 H 0.26661 0.29301 0.78594
 H1084 H 0.29335 0.24406 0.76371
 H1085 H 0.17320 0.26556 0.74127
 H1086 H 0.20000 0.21520 0.71842
 H1087 H 0.22841 0.20254 0.71922
 H1088 H 0.28309 0.21759 0.74349
 H1089 H 0.18706 0.28913 0.73075
 H1090 H 0.24102 0.28879 0.70168
 H1091 H 0.22673 0.22112 0.80161
 H1092 H 0.27995 0.21978 0.77204
 Zr1093 Zr 0.27534 0.76228 0.27773
 O1094 O 0.26485 0.77922 0.29576
 O1095 O 0.30009 0.75853 0.28701
 O1096 O 0.27373 0.75049 0.30155
 O1097 O 0.28540 0.79371 0.24875
 O1098 O 0.26000 0.72521 0.29623
 O1099 O 0.28689 0.78676 0.27658
 O1100 O 0.31152 0.73871 0.26912
 O1101 O 0.27932 0.73619 0.27310
 O1102 O 0.28945 0.76070 0.25549
 O1103 O 0.25078 0.75132 0.27623
 O1104 O 0.26062 0.77517 0.25947
 Zr1105 Zr 0.25390 0.73545 0.22962
 Zr1106 Zr 0.25491 0.72551 0.27028
 Zr1107 Zr 0.27441 0.77216 0.23705
 Zr1108 Zr 0.29260 0.73479 0.25047
 O1109 O 0.26159 0.79462 0.22919
 O1110 O 0.29946 0.71046 0.26010
 O1111 O 0.27863 0.74635 0.23093
 O1112 O 0.26871 0.72286 0.24791
 O1113 O 0.23966 0.73691 0.25183
 O1114 O 0.25008 0.76149 0.23445
 C1115 C 0.31206 0.74846 0.28216
 C1116 C 0.28942 0.79692 0.26409
 C1117 C 0.26740 0.73599 0.30607
 O1118 O 0.26698 0.70207 0.27630
 O1119 O 0.24142 0.70518 0.25896
 O1120 O 0.24094 0.71172 0.23102
 C1121 C 0.23735 0.70205 0.24362
 O1122 O 0.23209 0.78123 0.27622
 Zr1123 Zr 0.23677 0.76293 0.25697
 O1124 O 0.22888 0.73889 0.22066
 O1125 O 0.23162 0.72213 0.28339
 O1126 O 0.21583 0.75370 0.27126
 O1127 O 0.22826 0.78623 0.24619
 O1128 O 0.21689 0.75680 0.24006
 C1129 C 0.21631 0.74741 0.22680
 O1130 O 0.26391 0.71759 0.21219
 O1131 O 0.29848 0.77658 0.22569
 O1132 O 0.25718 0.74634 0.20556
 O1133 O 0.27201 0.77103 0.21075
 O1134 O 0.31471 0.74414 0.23808
 O1135 O 0.29841 0.71891 0.22954
 C1136 C 0.26478 0.76017 0.20088
 H1137 H 0.30073 0.76641 0.25627
 H1138 H 0.27038 0.71066 0.24492
 H1139 H 0.24364 0.76735 0.22544
 H1140 H 0.24458 0.75259 0.28699
 H1141 H 0.31206 0.70941 0.25923
 H1142 H 0.25903 0.69571 0.28370
 H1143 H 0.23217 0.71071 0.28876
 H1144 H 0.20564 0.76052 0.26810
 H1145 H 0.32446 0.73685 0.24154
 H1146 H 0.29784 0.78795 0.22024
 H1147 H 0.26968 0.80102 0.22196
 H1148 H 0.21568 0.78679 0.24770
 H1149 H 0.30980 0.71363 0.23117
 H1150 H 0.25479 0.71522 0.20381
 H1151 H 0.27398 0.78168 0.30410
 H1152 H 0.21984 0.78448 0.27611
 Zr1153 Zr 0.22418 0.76294 0.72223
 O1154 O 0.23556 0.77996 0.70486
 O1155 O 0.19969 0.75973 0.71211
 O1156 O 0.22629 0.75145 0.69826
 O1157 O 0.21366 0.79408 0.75146
 O1158 O 0.23937 0.72586 0.70355
 O1159 O 0.21299 0.78756 0.72348
 O1160 O 0.18735 0.73983 0.72925
 O1161 O 0.21959 0.73685 0.72626
 O1162 O 0.20933 0.76126 0.74399
 O1163 O 0.24847 0.75155 0.72427
 O1164 O 0.23853 0.77533 0.74116
 Zr1165 Zr 0.24356 0.73509 0.77046
 Zr1166 Zr 0.24370 0.72574 0.72962
 Zr1167 Zr 0.22397 0.77223 0.76309
 Zr1168 Zr 0.20556 0.73535 0.74844
 O1169 O 0.23689 0.79441 0.77168
 O1170 O 0.19861 0.71126 0.73817
 O1171 O 0.21908 0.74641 0.76861
 O1172 O 0.22914 0.72299 0.75151
 O1173 O 0.25855 0.73662 0.74874
 O1174 O 0.24800 0.76112 0.76621
 C1175 C 0.18740 0.74976 0.71638
 C1176 C 0.21018 0.79756 0.73606
 C1177 C 0.23247 0.73689 0.69369
 O1178 O 0.23144 0.70256 0.72285
 O1179 O 0.25651 0.70506 0.74097
 O1180 O 0.25618 0.71119 0.76903
 C1181 C 0.26004 0.70166 0.75638
 O1182 O 0.26771 0.78112 0.72539
 Zr1183 Zr 0.26207 0.76266 0.74416
 O1184 O 0.26831 0.73800 0.78028
 O1185 O 0.26731 0.72218 0.71713
 O1186 O 0.28328 0.75322 0.73038
 O1187 O 0.27067 0.78567 0.75557
 O1188 O 0.28125 0.75600 0.76161
 C1189 C 0.28122 0.74644 0.77472
 O1190 O 0.23263 0.71717 0.78724
 O1191 O 0.19964 0.77680 0.77385
 O1192 O 0.23983 0.74574 0.79460
 O1193 O 0.22564 0.77076 0.78943
 O1194 O 0.18319 0.74487 0.76026
 O1195 O 0.19878 0.71930 0.76890
 C1196 C 0.23242 0.75967 0.79930
 H1197 H 0.19817 0.76717 0.74298
 H1198 H 0.22716 0.71079 0.75422
 H1199 H 0.25427 0.76677 0.77550
 H1200 H 0.25503 0.75287 0.71372
 H1201 H 0.18596 0.71041 0.73861
 H1202 H 0.23951 0.69619 0.71557
 H1203 H 0.26673 0.71085 0.71155
 H1204 H 0.29350 0.75980 0.73399
 H1205 H 0.17344 0.73777 0.75636
 H1206 H 0.20029 0.78809 0.77951
 H1207 H 0.22869 0.80083 0.77877
 H1208 H 0.28329 0.78604 0.75444
 H1209 H 0.18736 0.71420 0.76680
 H1210 H 0.24143 0.71452 0.79585
 H1211 H 0.22676 0.78268 0.69628
 H1212 H 0.28002 0.78410 0.72589
 Zr1213 Zr 0.27520 0.23885 0.22237
 O1214 O 0.26421 0.22188 0.20461
 O1215 O 0.29979 0.24238 0.21267
 O1216 O 0.27323 0.25053 0.19852
 O1217 O 0.28562 0.20752 0.25134
 O1218 O 0.25982 0.27593 0.20395
 O1219 O 0.28659 0.21431 0.22346
 O1220 O 0.31174 0.26221 0.23027
 O1221 O 0.27948 0.26494 0.22681
 O1222 O 0.28977 0.24046 0.24437
 O1223 O 0.25077 0.24997 0.22421
 O1224 O 0.26074 0.22615 0.24093
 Zr1225 Zr 0.25495 0.26606 0.27069
 Zr1226 Zr 0.25522 0.27578 0.22996
 Zr1227 Zr 0.27501 0.22918 0.26311
 Zr1228 Zr 0.29322 0.26637 0.24921
 O1229 O 0.26218 0.20683 0.27127
 O1230 O 0.30007 0.29061 0.23932
 O1231 O 0.27956 0.25499 0.26903
 O1232 O 0.26948 0.27846 0.25210
 O1233 O 0.24025 0.26457 0.24873
 O1234 O 0.25083 0.24002 0.26604
 C1235 C 0.31195 0.25239 0.21727
 C1236 C 0.28931 0.20421 0.23595
 C1237 C 0.26693 0.26506 0.19404
 O1238 O 0.26735 0.29912 0.22366
 O1239 O 0.24210 0.29624 0.24140
 O1240 O 0.24213 0.28984 0.26938
 C1241 C 0.23835 0.29947 0.25679
 O1242 O 0.23181 0.22020 0.22468
 Zr1243 Zr 0.23704 0.23854 0.24376
 O1244 O 0.23009 0.26282 0.28009
 O1245 O 0.23171 0.27923 0.21721
 O1246 O 0.21590 0.24786 0.22979
 O1247 O 0.22857 0.21535 0.25478
 O1248 O 0.21757 0.24488 0.26098
 C1249 C 0.21733 0.25433 0.27421
 O1250 O 0.26547 0.28394 0.28786
 O1251 O 0.29926 0.22470 0.27411
 O1252 O 0.25859 0.25525 0.29474
 O1253 O 0.27310 0.23044 0.28944
 O1254 O 0.31552 0.25697 0.26128
 O1255 O 0.29959 0.28232 0.26995
 C1256 C 0.26614 0.24139 0.29937
 H1257 H 0.30099 0.23467 0.24344
 H1258 H 0.27131 0.29066 0.25499
 H1259 H 0.24451 0.23423 0.27519
 H1260 H 0.24434 0.24868 0.21356
 H1261 H 0.31270 0.29158 0.23996
 H1262 H 0.25930 0.30549 0.21635
 H1263 H 0.23225 0.29062 0.21178
 H1264 H 0.20571 0.24114 0.23315
 H1265 H 0.32525 0.26419 0.25762
 H1266 H 0.29864 0.21336 0.27963
 H1267 H 0.27036 0.20042 0.27840
 H1268 H 0.21596 0.21486 0.25348
 H1269 H 0.31097 0.28755 0.26808
 H1270 H 0.25653 0.28641 0.29637
 H1271 H 0.27315 0.21931 0.19613
 H1272 H 0.21954 0.21704 0.22500
 Zr1273 Zr 0.72538 0.73829 0.27660
 O1274 O 0.73654 0.72136 0.29420
 O1275 O 0.70072 0.74139 0.28627
 O1276 O 0.72716 0.74984 0.30057
 O1277 O 0.71536 0.70702 0.24728
 O1278 O 0.74028 0.77545 0.29545
 O1279 O 0.71426 0.71362 0.27523
 O1280 O 0.68854 0.76112 0.26882
 O1281 O 0.72079 0.76435 0.27244
 O1282 O 0.71085 0.73985 0.25458
 O1283 O 0.74968 0.74977 0.27493
 O1284 O 0.74003 0.72591 0.25794
 Zr1285 Zr 0.74540 0.76610 0.22862
 Zr1286 Zr 0.74492 0.77555 0.26944
 Zr1287 Zr 0.72578 0.72889 0.23576
 Zr1288 Zr 0.70708 0.76574 0.25001
 O1289 O 0.73890 0.70677 0.22744
 O1290 O 0.69991 0.78978 0.26020
 O1291 O 0.72092 0.75468 0.23010
 O1292 O 0.73068 0.77818 0.24730
 O1293 O 0.76007 0.76468 0.25059
 O1294 O 0.74983 0.74009 0.23300
 C1295 C 0.68842 0.75121 0.28170
 C1296 C 0.71166 0.70357 0.26263
 C1297 C 0.73329 0.76441 0.30522
 O1298 O 0.73250 0.79868 0.27598
 O1299 O 0.75782 0.79627 0.25825
 O1300 O 0.75794 0.79005 0.23021
 C1301 C 0.76157 0.79965 0.24290
 O1302 O 0.76901 0.72028 0.27420
 Zr1303 Zr 0.76359 0.73867 0.25529
 O1304 O 0.77030 0.76326 0.21922
 O1305 O 0.76837 0.77926 0.28228
 O1306 O 0.78458 0.74821 0.26940
 O1307 O 0.77237 0.71566 0.24407
 O1308 O 0.78300 0.74537 0.23815
 C1309 C 0.78315 0.75489 0.22502
 O1310 O 0.73470 0.78396 0.21162
 O1311 O 0.70162 0.72414 0.22464
 O1312 O 0.74195 0.75541 0.20444
 O1313 O 0.72775 0.73035 0.20946
 O1314 O 0.68496 0.75612 0.23773
 O1315 O 0.70057 0.78179 0.22946
 C1316 C 0.73459 0.74146 0.19966
 H1317 H 0.69969 0.73390 0.25541
 H1318 H 0.72871 0.79037 0.24453
 H1319 H 0.75623 0.73445 0.22381
 H1320 H 0.75610 0.74850 0.28558
 H1321 H 0.68727 0.79057 0.25955
 H1322 H 0.74045 0.80511 0.28337
 H1323 H 0.76768 0.79060 0.28783
 H1324 H 0.79486 0.74166 0.26598
 H1325 H 0.67512 0.76315 0.24145
 H1326 H 0.70240 0.71284 0.21901
 H1327 H 0.73083 0.70030 0.22021
 H1328 H 0.78498 0.71535 0.24539
 H1329 H 0.68912 0.78684 0.23137
 H1330 H 0.74362 0.78661 0.20315
 H1331 H 0.72762 0.71861 0.30263
 H1332 H 0.78132 0.71732 0.27388
 Zr1333 Zr 0.77409 0.26192 0.77892
 O1334 O 0.76399 0.27890 0.79713
 O1335 O 0.79896 0.25802 0.78782
 O1336 O 0.77275 0.25011 0.80275
 O1337 O 0.78388 0.29335 0.74985
 O1338 O 0.75880 0.22492 0.79758
 O1339 O 0.78577 0.28632 0.77764
 O1340 O 0.81003 0.23821 0.76970
 O1341 O 0.77786 0.23581 0.77419
 O1342 O 0.78784 0.26030 0.75647
 O1343 O 0.74946 0.25109 0.77776
 O1344 O 0.75916 0.27493 0.76091
 Zr1345 Zr 0.75178 0.23530 0.73108
 Zr1346 Zr 0.75335 0.22527 0.77171
 Zr1347 Zr 0.77258 0.27189 0.73827
 Zr1348 Zr 0.79078 0.23439 0.75135
 O1349 O 0.75974 0.29442 0.73066
 O1350 O 0.79766 0.21001 0.76087
 O1351 O 0.77658 0.24607 0.73205
 O1352 O 0.76679 0.22259 0.74912
 O1353 O 0.73789 0.23680 0.75350
 O1354 O 0.74816 0.26135 0.73601
 C1355 C 0.81083 0.24792 0.78275
 C1356 C 0.78818 0.29649 0.76514
 C1357 C 0.76638 0.23564 0.80733
 O1358 O 0.76539 0.20177 0.77752
 O1359 O 0.73958 0.20503 0.76054
 O1360 O 0.73873 0.21164 0.73263
 C1361 C 0.73527 0.20195 0.74525
 O1362 O 0.73098 0.28117 0.77803
 Zr1363 Zr 0.73521 0.26283 0.75873
 O1364 O 0.72662 0.23884 0.72255
 O1365 O 0.73023 0.22198 0.78513
 O1366 O 0.71447 0.25374 0.77339
 O1367 O 0.72661 0.28614 0.74805
 O1368 O 0.71501 0.25673 0.74219
 C1369 C 0.71416 0.24735 0.72894
 O1370 O 0.76142 0.21743 0.71346
 O1371 O 0.79649 0.27622 0.72657
 O1372 O 0.75475 0.24622 0.70700
 O1373 O 0.76980 0.27081 0.71201
 O1374 O 0.81273 0.24363 0.73862
 O1375 O 0.79617 0.21849 0.73033
 C1376 C 0.76237 0.26000 0.70223
 H1377 H 0.79917 0.26595 0.75708
 H1378 H 0.76835 0.21039 0.74610
 H1379 H 0.74160 0.26725 0.72710
 H1380 H 0.74342 0.25238 0.78861
 H1381 H 0.81024 0.20890 0.75981
 H1382 H 0.75752 0.19544 0.78502
 H1383 H 0.73081 0.21056 0.79047
 H1384 H 0.70427 0.26062 0.77040
 H1385 H 0.82250 0.23629 0.74192
 H1386 H 0.79582 0.28761 0.72115
 H1387 H 0.76775 0.30079 0.72332
 H1388 H 0.71407 0.28676 0.74979
 H1389 H 0.80756 0.21315 0.73179
 H1390 H 0.75215 0.21513 0.70522
 H1391 H 0.77327 0.28129 0.80534
 H1392 H 0.71876 0.28451 0.77812
 C1393 C 0.41189 1.02264 0.29511
 C1394 C 0.42033 1.02246 0.30781
 C1395 C 0.43050 1.02204 0.32291
 C1396 C 0.44274 1.00917 0.32516
 C1397 C 0.45244 1.00855 0.33992
 C1398 C 0.45004 1.02083 0.35266
 C1399 C 0.43780 1.03381 0.35020
 C1400 C 0.42811 1.03439 0.33543
 C1401 C 0.45986 1.01985 0.36864
 C1402 C 0.46584 1.03483 0.37657
 C1403 C 0.47408 1.03396 0.39215
 C1404 C 0.47652 1.01813 0.39999
 C1405 C 0.47099 1.00313 0.39202
 C1406 C 0.46276 1.00396 0.37643
 C1407 C 0.48322 1.01743 0.41684
 C1408 C 0.48785 1.01693 0.43129
 H1409 H 0.44475 0.99957 0.31553
 H1410 H 0.46188 0.99852 0.34135
 H1411 H 0.43545 1.04330 0.35985
 H1412 H 0.41864 1.04439 0.33385
 H1413 H 0.46401 1.04723 0.37080
 H1414 H 0.47820 1.04568 0.39825
 H1415 H 0.47262 0.99082 0.39805
 H1416 H 0.45813 0.99222 0.37078
 C1417 C -0.08809 0.52173 0.79646
 C1418 C -0.07991 0.52146 0.80931
 C1419 C -0.07002 0.52099 0.82459
 C1420 C -0.05815 0.50785 0.82721
 C1421 C -0.04868 0.50723 0.84212
 C1422 C -0.05096 0.51978 0.85462
 C1423 C -0.06284 0.53301 0.85180
 C1424 C -0.07230 0.53359 0.83689
 C1425 C -0.04136 0.51885 0.87074
 C1426 C -0.03511 0.53382 0.87848
 C1427 C -0.02707 0.53304 0.89416
 C1428 C -0.02510 0.51730 0.90230
 C1429 C -0.03090 0.50229 0.89452
 C1430 C -0.03893 0.50304 0.87883
 C1431 C -0.01859 0.51673 0.91922
 C1432 C -0.01410 0.51637 0.93371
 H1433 H -0.05624 0.49805 0.81775
 H1434 H -0.03951 0.49700 0.84383
 H1435 H -0.06509 0.54271 0.86127
 H1436 H -0.08147 0.54380 0.83501
 H1437 H -0.03657 0.54616 0.87248
 H1438 H -0.02273 0.54475 0.90010
 H1439 H -0.02963 0.49005 0.90078
 H1440 H -0.04378 0.49131 0.87332
 C1441 C 0.08840 -0.01984 0.79660
 C1442 C 0.08044 -0.01932 0.80957
 C1443 C 0.07083 -0.01858 0.82498
 C1444 C 0.06046 -0.00440 0.82845
 C1445 C 0.05124 -0.00358 0.84348
 C1446 C 0.05225 -0.01695 0.85525
 C1447 C 0.06263 -0.03120 0.85158
 C1448 C 0.07185 -0.03199 0.83656
 C1449 C 0.04288 -0.01590 0.87147
 C1450 C 0.03511 -0.03052 0.87840
 C1451 C 0.02718 -0.02973 0.89412
 C1452 C 0.02685 -0.01432 0.90311
 C1453 C 0.03420 0.00039 0.89616
 C1454 C 0.04213 -0.00037 0.88044
 C1455 C 0.02028 -0.01393 0.92000
 C1456 C 0.01565 -0.01381 0.93445
 H1457 H 0.05952 0.00603 0.81956
 H1458 H 0.04322 0.00747 0.84583
 H1459 H 0.06390 -0.04158 0.86048
 H1460 H 0.07986 -0.04301 0.83403
 H1461 H 0.03526 -0.04261 0.87172
 H1462 H 0.02162 -0.04122 0.89941
 H1463 H 0.03419 0.01235 0.90307
 H1464 H 0.04816 0.01107 0.87556
 C1465 C 0.58864 0.47865 0.29713
 C1466 C 0.58057 0.47929 0.31003
 C1467 C 0.57084 0.48020 0.32536
 C1468 C 0.57156 0.46681 0.33697
 C1469 C 0.56224 0.46777 0.35192
 C1470 C 0.55204 0.48218 0.35548
 C1471 C 0.55132 0.49553 0.34367
 C1472 C 0.56064 0.49453 0.32871
 C1473 C 0.54259 0.48342 0.37163
 C1474 C 0.54203 0.49898 0.38056
 C1475 C 0.53405 0.49990 0.39625
 C1476 C 0.52645 0.48532 0.40321
 C1477 C 0.52658 0.46988 0.39425
 C1478 C 0.53456 0.46894 0.37856
 C1479 C 0.51988 0.48582 0.42010
 C1480 C 0.51527 0.48600 0.43455
 H1481 H 0.57943 0.45567 0.33453
 H1482 H 0.56329 0.45740 0.36086
 H1483 H 0.54345 0.50670 0.34594
 H1484 H 0.55993 0.50495 0.31979
 H1485 H 0.54827 0.51031 0.37569
 H1486 H 0.53421 0.51187 0.40315
 H1487 H 0.52082 0.45849 0.39955
 H1488 H 0.53456 0.45684 0.37191
 C1489 C 0.58833 0.52064 0.20363
 C1490 C 0.58012 0.52003 0.19080
 C1491 C 0.57023 0.51913 0.17553
 C1492 C 0.55998 0.50480 0.17224
 C1493 C 0.55055 0.50378 0.15733
 C1494 C 0.55122 0.51711 0.14549
 C1495 C 0.56147 0.53153 0.14899
 C1496 C 0.57090 0.53251 0.16390
 C1497 C 0.54168 0.51583 0.12936
 C1498 C 0.53365 0.53029 0.12241
 C1499 C 0.52560 0.52930 0.10673
 C1500 C 0.52542 0.51385 0.09781
 C1501 C 0.53303 0.49929 0.10479
 C1502 C 0.54107 0.50025 0.12047
 C1503 C 0.51880 0.51330 0.08092
 C1504 C 0.51416 0.51308 0.06647
 H1505 H 0.55932 0.49439 0.18118
 H1506 H 0.54264 0.49261 0.15510
 H1507 H 0.56248 0.54189 0.14004
 H1508 H 0.57882 0.54365 0.16630
 H1509 H 0.53369 0.54241 0.12904
 H1510 H 0.51984 0.54069 0.10142
 H1511 H 0.53315 0.48731 0.09792
 H1512 H 0.54732 0.48894 0.12535
 C1513 C 0.08823 1.02292 0.70409
 C1514 C 0.08006 1.02248 0.69123
 C1515 C 0.07022 1.02179 0.67592
 C1516 C 0.05888 1.00821 0.67304
 C1517 C 0.04949 1.00739 0.65809
 C1518 C 0.05131 1.02017 0.64579
 C1519 C 0.06266 1.03384 0.64887
 C1520 C 0.07204 1.03463 0.66383
 C1521 C 0.04181 1.01905 0.62963
 C1522 C 0.03502 1.03385 0.62209
 C1523 C 0.02701 1.03291 0.60639
 C1524 C 0.02563 1.01720 0.59802
 C1525 C 0.03199 1.00234 0.60559
 C1526 C 0.03999 1.00324 0.62129
 C1527 C 0.01907 1.01654 0.58112
 C1528 C 0.01449 1.01614 0.56665
 H1529 H 0.05732 0.99823 0.68234
 H1530 H 0.04073 0.99682 0.65619
 H1531 H 0.06456 1.04374 0.63957
 H1532 H 0.08081 1.04518 0.66589
 H1533 H 0.03600 1.04616 0.62828
 H1534 H 0.02223 1.04451 0.60062
 H1535 H 0.03117 0.99014 0.59916
 H1536 H 0.04526 0.99166 0.62664
 C1537 C -0.08765 0.47782 0.70457
 C1538 C -0.07950 0.47835 0.69173
 C1539 C -0.06969 0.47926 0.67646
 C1540 C -0.07357 0.49167 0.66440
 C1541 C -0.06402 0.49269 0.64960
 C1542 C -0.05041 0.48128 0.64665
 C1543 C -0.04656 0.46888 0.65888
 C1544 C -0.05613 0.46790 0.67368
 C1545 C -0.04061 0.48208 0.63067
 C1546 C -0.03592 0.46696 0.62222
 C1547 C -0.02773 0.46771 0.60664
 C1548 C -0.02404 0.48355 0.59931
 C1549 C -0.02825 0.49867 0.60780
 C1550 C -0.03644 0.49795 0.62339
 C1551 C -0.01742 0.48425 0.58245
 C1552 C -0.01285 0.48464 0.56800
 H1553 H -0.08404 0.50053 0.66640
 H1554 H -0.06750 0.50220 0.64034
 H1555 H -0.03606 0.46004 0.65706
 H1556 H -0.05295 0.45830 0.68297
 H1557 H -0.03913 0.45455 0.62737
 H1558 H -0.02472 0.45592 0.60009
 H1559 H -0.02555 0.51101 0.60221
 H1560 H -0.03966 0.50982 0.62968
 C1561 C 0.41178 -0.02213 0.20399
 C1562 C 0.42003 -0.02183 0.19119
 C1563 C 0.42996 -0.02126 0.17598
 C1564 C 0.42690 -0.00845 0.16410
 C1565 C 0.43654 -0.00781 0.14934
 C1566 C 0.44942 -0.02000 0.14624
 C1567 C 0.45245 -0.03280 0.15829
 C1568 C 0.44279 -0.03340 0.17306
 C1569 C 0.45930 -0.01958 0.13030
 C1570 C 0.46306 -0.03484 0.12163
 C1571 C 0.47134 -0.03437 0.10608
 C1572 C 0.47605 -0.01868 0.09900
 C1573 C 0.47276 -0.00345 0.10771
 C1574 C 0.46448 -0.00389 0.12326
 C1575 C 0.48279 -0.01814 0.08218
 C1576 C 0.48747 -0.01779 0.06776
 H1577 H 0.41699 0.00101 0.16621
 H1578 H 0.43369 0.00204 0.14021
 H1579 H 0.46239 -0.04225 0.15637
 H1580 H 0.44534 -0.04333 0.18221
 H1581 H 0.45906 -0.04710 0.12659
 H1582 H 0.47363 -0.04622 0.09937
 H1583 H 0.47626 0.00878 0.10231
 H1584 H 0.46199 0.00806 0.12972
 C1585 C 0.29843 0.39728 0.01576
 C1586 C 0.31140 0.40569 0.01508
 C1587 C 0.32719 0.41528 0.01477
 C1588 C 0.34013 0.41154 0.02638
 C1589 C 0.35558 0.42059 0.02610
 C1590 C 0.35836 0.43356 0.01418
 C1591 C 0.34525 0.43729 0.00259
 C1592 C 0.32979 0.42820 0.00289
 C1593 C 0.37492 0.44303 0.01373
 C1594 C 0.37530 0.46075 0.01055
 C1595 C 0.39089 0.46956 0.00985
 C1596 C 0.40634 0.46083 0.01233
 C1597 C 0.40609 0.44324 0.01562
 C1598 C 0.39052 0.43440 0.01635
 C1599 C 0.42241 0.46981 0.01077
 C1600 C 0.43575 0.47741 0.00892
 H1601 H 0.33827 0.40160 0.03568
 H1602 H 0.36529 0.41755 0.03533
 H1603 H 0.34705 0.44704 -0.00689
 H1604 H 0.31991 0.43119 -0.00620
 H1605 H 0.36354 0.46782 0.00871
 H1606 H 0.39090 0.48317 0.00725
 H1607 H 0.41796 0.43631 0.01743
 H1608 H 0.39071 0.42074 0.01860
 C1609 C -0.20056 0.89856 0.51509
 C1610 C -0.18780 0.90726 0.51420
 C1611 C -0.17221 0.91715 0.51351
 C1612 C -0.15856 0.91159 0.50354
 C1613 C -0.14309 0.92064 0.50348
 C1614 C -0.14102 0.93542 0.51343
 C1615 C -0.15489 0.94101 0.52330
 C1616 C -0.17034 0.93192 0.52335
 C1617 C -0.12447 0.94489 0.51353
 C1618 C -0.12415 0.96291 0.51369
 C1619 C -0.10857 0.97177 0.51329
 C1620 C -0.09308 0.96278 0.51280
 C1621 C -0.09325 0.94487 0.51287
 C1622 C -0.10881 0.93598 0.51325
 C1623 C -0.07708 0.97191 0.51132
 C1624 C -0.06376 0.97953 0.50947
 H1625 H -0.15981 0.90016 0.49590
 H1626 H -0.13279 0.91613 0.49555
 H1627 H -0.15367 0.95221 0.53124
 H1628 H -0.18076 0.93629 0.53123
 H1629 H -0.13595 0.97016 0.51371
 H1630 H -0.10862 0.98564 0.51311
 H1631 H -0.08136 0.93775 0.51245
 H1632 H -0.10858 0.92212 0.51337
 C1633 C -0.20013 0.10155 0.98584
 C1634 C -0.18723 0.09306 0.98646
 C1635 C -0.17146 0.08346 0.98661
 C1636 C -0.16879 0.07042 0.99835
 C1637 C -0.15332 0.06137 0.99852
 C1638 C -0.14028 0.06525 0.98693
 C1639 C -0.14314 0.07833 0.97513
 C1640 C -0.15860 0.08734 0.97499
 C1641 C -0.12370 0.05585 0.98725
 C1642 C -0.10814 0.06457 0.98469
 C1643 C -0.09253 0.05579 0.98530
 C1644 C -0.09223 0.03817 0.98844
 C1645 C -0.10764 0.02935 0.99085
 C1646 C -0.12326 0.03810 0.99026
 C1647 C -0.07613 0.02926 0.98993
 C1648 C -0.06277 0.02172 0.99177
 H1649 H -0.17861 0.06733 1.00745
 H1650 H -0.15146 0.05153 1.00790
 H1651 H -0.13349 0.08148 0.96590
 H1652 H -0.16052 0.09737 0.96580
 H1653 H -0.10799 0.07825 0.98257
 H1654 H -0.08070 0.06280 0.98355
 H1655 H -0.10759 0.01572 0.99333
 H1656 H -0.13499 0.03096 0.99206
 C1657 C 0.29987 0.60155 0.48480
 C1658 C 0.31270 0.59296 0.48555
 C1659 C 0.32837 0.58319 0.48590
 C1660 C 0.33167 0.57166 0.49894
 C1661 C 0.34708 0.56252 0.49932
 C1662 C 0.35944 0.56481 0.48666
 C1663 C 0.35594 0.57636 0.47356
 C1664 C 0.34054 0.58546 0.47320
 C1665 C 0.37598 0.55533 0.48718
 C1666 C 0.39140 0.56350 0.48275
 C1667 C 0.40698 0.55468 0.48354
 C1668 C 0.40739 0.53758 0.48872
 C1669 C 0.39211 0.52930 0.49302
 C1670 C 0.37652 0.53809 0.49226
 C1671 C 0.42350 0.52868 0.49028
 C1672 C 0.43687 0.52116 0.49212
 H1673 H 0.32239 0.56983 0.50888
 H1674 H 0.34945 0.55390 0.50969
 H1675 H 0.36506 0.57826 0.46351
 H1676 H 0.33814 0.59433 0.46302
 H1677 H 0.39148 0.57681 0.47901
 H1678 H 0.41872 0.56128 0.48030
 H1679 H 0.39225 0.51608 0.49709
 H1680 H 0.36488 0.53136 0.49554
 C1681 C 0.20182 0.60217 0.51575
 C1682 C 0.18897 0.59357 0.51526
 C1683 C 0.17328 0.58378 0.51520
 C1684 C 0.17011 0.57158 0.50268
 C1685 C 0.15470 0.56240 0.50257
 C1686 C 0.14221 0.56531 0.51500
 C1687 C 0.14558 0.57754 0.52758
 C1688 C 0.16099 0.58669 0.52766
 C1689 C 0.12567 0.55579 0.51475
 C1690 C 0.11021 0.56415 0.51866
 C1691 C 0.09463 0.55529 0.51808
 C1692 C 0.09425 0.53795 0.51363
 C1693 C 0.10957 0.52949 0.50987
 C1694 C 0.12516 0.53832 0.51042
 C1695 C 0.07813 0.52901 0.51219
 C1696 C 0.06476 0.52144 0.51039
 H1697 H 0.17948 0.56925 0.49293
 H1698 H 0.15242 0.55324 0.49259
 H1699 H 0.13637 0.57994 0.53745
 H1700 H 0.16329 0.59607 0.53745
 H1701 H 0.11010 0.57764 0.52181
 H1702 H 0.08286 0.56204 0.52089
 H1703 H 0.10945 0.51608 0.50637
 H1704 H 0.13682 0.53144 0.50756
 C1705 C 0.70200 0.10095 0.01689
 C1706 C 0.68923 0.09222 0.01637
 C1707 C 0.67361 0.08233 0.01631
 C1708 C 0.67081 0.06964 0.00417
 C1709 C 0.65546 0.06036 0.00406
 C1710 C 0.64266 0.06368 0.01608
 C1711 C 0.64567 0.07639 0.02827
 C1712 C 0.66102 0.08563 0.02838
 C1713 C 0.62616 0.05410 0.01577
 C1714 C 0.61058 0.06256 0.01897
 C1715 C 0.59504 0.05365 0.01831
 C1716 C 0.59481 0.03615 0.01449
 C1717 C 0.61024 0.02758 0.01145
 C1718 C 0.62579 0.03647 0.01209
 C1719 C 0.57874 0.02715 0.01290
 C1720 C 0.56539 0.01959 0.01096
 H1721 H 0.68042 0.06700 -0.00527
 H1722 H 0.65347 0.05082 -0.00563
 H1723 H 0.63621 0.07911 0.03784
 H1724 H 0.66304 0.09539 0.03786
 H1725 H 0.61037 0.07615 0.02161
 H1726 H 0.58319 0.06046 0.02055
 H1727 H 0.61024 0.01405 0.00843
 H1728 H 0.63755 0.02952 0.00978
 C1729 C 0.70255 0.89856 0.48325
 C1730 C 0.68975 0.90720 0.48362
 C1731 C 0.67411 0.91703 0.48353
 C1732 C 0.67103 0.92942 0.49588
 C1733 C 0.65566 0.93863 0.49586
 C1734 C 0.64311 0.93555 0.48349
 C1735 C 0.64639 0.92313 0.47109
 C1736 C 0.66176 0.91396 0.47112
 C1737 C 0.62659 0.94506 0.48366
 C1738 C 0.61109 0.93663 0.47992
 C1739 C 0.59552 0.94546 0.48048
 C1740 C 0.59518 0.96286 0.48472
 C1741 C 0.61053 0.97140 0.48828
 C1742 C 0.62612 0.96259 0.48775
 C1743 C 0.57907 0.97175 0.48625
 C1744 C 0.56569 0.97923 0.48815
 H1745 H 0.68045 0.93188 0.50559
 H1746 H 0.65345 0.94793 0.50572
 H1747 H 0.63713 0.92060 0.46126
 H1748 H 0.66400 0.90443 0.46147
 H1749 H 0.61096 0.92310 0.47695
 H1750 H 0.58373 0.93866 0.47784
 H1751 H 0.61045 0.98485 0.49163
 H1752 H 0.63781 0.96952 0.49047
 C1753 C 0.19981 0.39802 0.98518
 C1754 C 0.18692 0.40653 0.98590
 C1755 C 0.17121 0.41622 0.98617
 C1756 C 0.15869 0.41319 0.97392
 C1757 C 0.14330 0.42232 0.97414
 C1758 C 0.14017 0.43468 0.98664
 C1759 C 0.15288 0.43771 0.99887
 C1760 C 0.16827 0.42854 0.99863
 C1761 C 0.12368 0.44424 0.98701
 C1762 C 0.12331 0.46177 0.99113
 C1763 C 0.10777 0.47064 0.99175
 C1764 C 0.09236 0.46217 0.98825
 C1765 C 0.09260 0.44478 0.98401
 C1766 C 0.10813 0.43587 0.98337
 C1767 C 0.07631 0.47118 0.98973
 C1768 C 0.06297 0.47877 0.99154
 H1769 H 0.16081 0.40372 0.96418
 H1770 H 0.13392 0.41983 0.96442
 H1771 H 0.15080 0.44697 1.00879
 H1772 H 0.17783 0.43097 1.00821
 H1773 H 0.13505 0.46864 0.99377
 H1774 H 0.10776 0.48410 0.99508
 H1775 H 0.08076 0.43803 0.98141
 H1776 H 0.10792 0.42235 0.98038
 C1777 C 0.00911 0.30102 0.36034
 C1778 C 0.00615 0.31346 0.36875
 C1779 C 0.00345 0.32801 0.37940
 C1780 C -0.00576 0.32618 0.39434
 C1781 C -0.00690 0.33985 0.40560
 C1782 C 0.00121 0.35550 0.40203
 C1783 C 0.01010 0.35733 0.38679
 C1784 C 0.01123 0.34364 0.37556
 C1785 C 0.00094 0.36967 0.41437
 C1786 C -0.00122 0.38666 0.40900
 C1787 C -0.00086 0.40008 0.42058
 C1788 C 0.00166 0.39668 0.43765
 C1789 C 0.00368 0.37983 0.44316
 C1790 C 0.00332 0.36637 0.43159
 C1791 C 0.00214 0.41062 0.44937
 C1792 C 0.00233 0.42277 0.45865
 H1793 H -0.01174 0.31408 0.39745
 H1794 H -0.01400 0.33816 0.41714
 H1795 H 0.01666 0.36915 0.38381
 H1796 H 0.01855 0.34509 0.36411
 H1797 H -0.00327 0.38955 0.39586
 H1798 H -0.00251 0.41310 0.41623
 H1799 H 0.00566 0.37711 0.45636
 H1800 H 0.00525 0.35343 0.43604
 C1801 C 0.50854 -0.19859 -0.14266
 C1802 C 0.50634 -0.18586 -0.13445
 C1803 C 0.50439 -0.17108 -0.12394
 C1804 C 0.51589 -0.15744 -0.12536
 C1805 C 0.51514 -0.14382 -0.11401
 C1806 C 0.50291 -0.14374 -0.10107
 C1807 C 0.49116 -0.15734 -0.09998
 C1808 C 0.49192 -0.17095 -0.11135
 C1809 C 0.50279 -0.12980 -0.08847
 C1810 C 0.50047 -0.13349 -0.07134
 C1811 C 0.50076 -0.12036 -0.05941
 C1812 C 0.50339 -0.10345 -0.06448
 C1813 C 0.50564 -0.09964 -0.08149
 C1814 C 0.50535 -0.11273 -0.09343
 C1815 C 0.50349 -0.08984 -0.05238
 C1816 C 0.50340 -0.07796 -0.04277
 H1817 H 0.52570 -0.15754 -0.13495
 H1818 H 0.52449 -0.13362 -0.11503
 H1819 H 0.48147 -0.15750 -0.09028
 H1820 H 0.48304 -0.18152 -0.11011
 H1821 H 0.49870 -0.14655 -0.06714
 H1822 H 0.49899 -0.12340 -0.04626
 H1823 H 0.50757 -0.08654 -0.08553
 H1824 H 0.50698 -0.10950 -0.10655
 C1825 C -0.00884 -0.20083 1.13838
 C1826 C -0.00565 -0.18866 1.12972
 C1827 C -0.00274 -0.17436 1.11885
 C1828 C 0.00120 -0.17718 1.10195
 C1829 C 0.00227 -0.16339 1.09088
 C1830 C -0.00067 -0.14662 1.09662
 C1831 C -0.00416 -0.14388 1.11374
 C1832 C -0.00522 -0.15769 1.12478
 C1833 C -0.00079 -0.13214 1.08468
 C1834 C -0.01346 -0.11942 1.08587
 C1835 C -0.01375 -0.10584 1.07454
 C1836 C -0.00143 -0.10482 1.06187
 C1837 C 0.01119 -0.11743 1.06051
 C1838 C 0.01151 -0.13106 1.07184
 C1839 C -0.00138 -0.09042 1.05076
 C1840 C -0.00126 -0.07795 1.04194
 H1841 H 0.00298 -0.19008 1.09723
 H1842 H 0.00480 -0.16590 1.07774
 H1843 H -0.00624 -0.13107 1.11854
 H1844 H -0.00835 -0.15540 1.13785
 H1845 H -0.02325 -0.12009 1.09546
 H1846 H -0.02354 -0.09609 1.07570
 H1847 H 0.02087 -0.11664 1.05081
 H1848 H 0.02149 -0.14059 1.07072
 C1849 C 0.49078 0.29751 0.63657
 C1850 C 0.49435 0.30967 0.62804
 C1851 C 0.49763 0.32405 0.61737
 C1852 C 0.49613 0.34068 0.62371
 C1853 C 0.49737 0.35467 0.61291
 C1854 C 0.50007 0.35214 0.59562
 C1855 C 0.50208 0.33539 0.58945
 C1856 C 0.50082 0.32142 0.60029
 C1857 C 0.49996 0.36685 0.58395
 C1858 C 0.51170 0.36774 0.57060
 C1859 C 0.51132 0.38154 0.55948
 C1860 C 0.49918 0.39453 0.56156
 C1861 C 0.48744 0.39373 0.57476
 C1862 C 0.48781 0.37997 0.58589
 C1863 C 0.49911 0.40904 0.55058
 C1864 C 0.49910 0.42158 0.54186
 H1865 H 0.49357 0.34282 0.63692
 H1866 H 0.49602 0.36745 0.61802
 H1867 H 0.50397 0.33305 0.57618
 H1868 H 0.50183 0.30856 0.59525
 H1869 H 0.52128 0.35789 0.56890
 H1870 H 0.52054 0.38215 0.54935
 H1871 H 0.47804 0.40376 0.57648
 H1872 H 0.47843 0.37948 0.59588
 C1873 C 0.50710 1.19479 0.64423
 C1874 C 0.50476 1.18205 0.63605
 C1875 C 0.50274 1.16730 0.62550
 C1876 C 0.49026 1.16722 0.61290
 C1877 C 0.48957 1.15376 0.60136
 C1878 C 0.50143 1.14026 0.60229
 C1879 C 0.51365 1.14025 0.61528
 C1880 C 0.51431 1.15372 0.62679
 C1881 C 0.50150 1.12657 0.58942
 C1882 C 0.50428 1.10945 0.59406
 C1883 C 0.50482 1.09662 0.58186
 C1884 C 0.50261 1.10074 0.56491
 C1885 C 0.49977 1.11772 0.56016
 C1886 C 0.49922 1.13059 0.57235
 C1887 C 0.50295 1.08739 0.55254
 C1888 C 0.50303 1.07569 0.54272
 H1889 H 0.48132 1.17776 0.61175
 H1890 H 0.47989 1.15398 0.59162
 H1891 H 0.52307 1.13014 0.61617
 H1892 H 0.52415 1.15380 0.63639
 H1893 H 0.50589 1.10597 0.60712
 H1894 H 0.50692 1.08347 0.58565
 H1895 H 0.49802 1.12101 0.54706
 H1896 H 0.49730 1.14370 0.56840
 C1897 C 0.00820 0.69718 1.14395
 C1898 C 0.00537 0.68443 1.13594
 C1899 C 0.00281 0.66961 1.12560
 C1900 C -0.00939 0.66994 1.11273
 C1901 C -0.01053 0.65631 1.10142
 C1902 C 0.00058 0.64223 1.10284
 C1903 C 0.01249 0.64183 1.11609
 C1904 C 0.01361 0.65547 1.12738
 C1905 C 0.00022 0.62831 1.09021
 C1906 C 0.00202 0.61116 1.09519
 C1907 C 0.00226 0.59810 1.08322
 C1908 C 0.00072 0.60202 1.06615
 C1909 C -0.00119 0.61903 1.06105
 C1910 C -0.00143 0.63212 1.07302
 C1911 C 0.00089 0.58846 1.05401
 C1912 C 0.00087 0.57660 1.04438
 H1913 H -0.01772 0.68090 1.11121
 H1914 H -0.01997 0.65684 1.09146
 H1915 H 0.02135 0.63126 1.11736
 H1916 H 0.02324 0.65521 1.13719
 H1917 H 0.00313 0.60785 1.10834
 H1918 H 0.00364 0.58494 1.08727
 H1919 H -0.00240 0.62216 1.04786
 H1920 H -0.00259 0.64524 1.06881
 C1921 C 0.48874 0.70010 -0.13715
 C1922 C 0.49198 0.68790 -0.12854
 C1923 C 0.49507 0.67358 -0.11774
 C1924 C 0.50113 0.67633 -0.10142
 C1925 C 0.50264 0.66261 -0.09032
 C1926 C 0.49806 0.64599 -0.09544
 C1927 C 0.49234 0.64331 -0.11200
 C1928 C 0.49083 0.65705 -0.12307
 C1929 C 0.49865 0.63159 -0.08343
 C1930 C 0.50461 0.61544 -0.08856
 C1931 C 0.50451 0.60169 -0.07741
 C1932 C 0.49845 0.60392 -0.06103
 C1933 C 0.49266 0.61996 -0.05573
 C1934 C 0.49277 0.63375 -0.06686
 C1935 C 0.49799 0.58956 -0.04987
 C1936 C 0.49781 0.57711 -0.04104
 H1937 H 0.50436 0.68912 -0.09718
 H1938 H 0.50727 0.66500 -0.07771
 H1939 H 0.48852 0.63068 -0.11622
 H1940 H 0.48596 0.65485 -0.13564
 H1941 H 0.50939 0.61347 -0.10117
 H1942 H 0.50906 0.58930 -0.08159
 H1943 H 0.48791 0.62177 -0.04308
 H1944 H 0.48788 0.64599 -0.06265
 C1945 C -0.00816 1.19890 0.35933
 C1946 C -0.00507 1.18643 0.36761
 C1947 C -0.00217 1.17187 0.37815
 C1948 C 0.00699 1.17378 0.39313
 C1949 C 0.00831 1.16009 0.40430
 C1950 C 0.00042 1.14434 0.40058
 C1951 C -0.00841 1.14243 0.38528
 C1952 C -0.00972 1.15614 0.37415
 C1953 C 0.00082 1.13017 0.41286
 C1954 C 0.00320 1.11320 0.40744
 C1955 C 0.00292 1.09978 0.41896
 C1956 C 0.00025 1.10315 0.43601
 C1957 C -0.00199 1.11998 0.44158
 C1958 C -0.00170 1.13344 0.43007
 C1959 C -0.00024 1.08921 0.44768
 C1960 C -0.00050 1.07710 0.45696
 H1961 H 0.01279 1.18596 0.39636
 H1962 H 0.01536 1.16185 0.41589
 H1963 H -0.01479 1.13052 0.38219
 H1964 H -0.01700 1.15462 0.36265
 H1965 H 0.00535 1.11034 0.39430
 H1966 H 0.00473 1.08677 0.41457
 H1967 H -0.00409 1.12268 0.45476
 H1968 H -0.00382 1.14635 0.43456
 C1969 C 0.76971 0.66098 0.95257
 C1970 C 0.76901 0.66897 0.93963
 C1971 C 0.76792 0.67866 0.92429
 C1972 C 0.75317 0.68814 0.92070
 C1973 C 0.75200 0.69744 0.90575
 C1974 C 0.76559 0.69739 0.89418
 C1975 C 0.78040 0.68790 0.89796
 C1976 C 0.78155 0.67860 0.91291
 C1977 C 0.76418 0.70683 0.87803
 C1978 C 0.77837 0.71559 0.87139
 C1979 C 0.77731 0.72360 0.85573
 C1980 C 0.76205 0.72301 0.84651
 C1981 C 0.74775 0.71466 0.85318
 C1982 C 0.74877 0.70666 0.86884
 C1983 C 0.76154 0.72964 0.82964
 C1984 C 0.76143 0.73429 0.81521
 H1985 H 0.74257 0.68833 0.92945
 H1986 H 0.74051 0.70476 0.90331
 H1987 H 0.79098 0.68738 0.88921
 H1988 H 0.79301 0.67128 0.91554
 H1989 H 0.79034 0.71616 0.87825
 H1990 H 0.78850 0.72994 0.85065
 H1991 H 0.73593 0.71395 0.84608
 H1992 H 0.73769 0.69984 0.87349
 C1993 C 0.27341 0.16253 0.45351
 C1994 C 0.27308 0.17085 0.44076
 C1995 C 0.27245 0.18086 0.42560
 C1996 C 0.25910 0.19252 0.42305
 C1997 C 0.25829 0.20205 0.40822
 C1998 C 0.27084 0.20007 0.39572
 C1999 C 0.28429 0.18841 0.39847
 C2000 C 0.28507 0.17889 0.41330
 C2001 C 0.26968 0.20970 0.37967
 C2002 C 0.28451 0.21626 0.37197
 C2003 C 0.28352 0.22436 0.35636
 C2004 C 0.26771 0.22607 0.34823
 C2005 C 0.25285 0.21996 0.35596
 C2006 C 0.25380 0.21187 0.37159
 C2007 C 0.26696 0.23268 0.33137
 C2008 C 0.26648 0.23727 0.31692
 H2009 H 0.24928 0.19419 0.43250
 H2010 H 0.24788 0.21104 0.40657
 H2011 H 0.29401 0.18639 0.38900
 H2012 H 0.29544 0.16987 0.41511
 H2013 H 0.29689 0.21500 0.37797
 H2014 H 0.29513 0.22895 0.35045
 H2015 H 0.24057 0.22104 0.34971
 H2016 H 0.24219 0.20678 0.37706
 C2017 C 0.72872 0.33767 0.45426
 C2018 C 0.72920 0.32943 0.44144
 C2019 C 0.72998 0.31948 0.42620
 C2020 C 0.74376 0.30841 0.42338
 C2021 C 0.74468 0.29890 0.40851
 C2022 C 0.73179 0.30033 0.39623
 C2023 C 0.71791 0.31140 0.39925
 C2024 C 0.71703 0.32090 0.41413
 C2025 C 0.73302 0.29071 0.38014
 C2026 C 0.71832 0.28351 0.37270
 C2027 C 0.71932 0.27542 0.35704
 C2028 C 0.73501 0.27436 0.34863
 C2029 C 0.74977 0.28111 0.35612
 C2030 C 0.74880 0.28919 0.37178
 C2031 C 0.73567 0.26778 0.33174
 C2032 C 0.73603 0.26322 0.31726
 H2033 H 0.75383 0.30716 0.43267
 H2034 H 0.75543 0.29037 0.40665
 H2035 H 0.70792 0.31299 0.38996
 H2036 H 0.70632 0.32945 0.41616
 H2037 H 0.70603 0.28426 0.37891
 H2038 H 0.70779 0.27034 0.35133
 H2039 H 0.76194 0.28054 0.34965
 H2040 H 0.76031 0.29478 0.37705
 C2041 C 0.22833 0.83735 0.95451
 C2042 C 0.22847 0.82923 0.94160
 C2043 C 0.22873 0.81944 0.92625
 C2044 C 0.24147 0.80714 0.92361
 C2045 C 0.24186 0.79775 0.90864
 C2046 C 0.22947 0.80052 0.89609
 C2047 C 0.21664 0.81284 0.89893
 C2048 C 0.21629 0.82221 0.91390
 C2049 C 0.23016 0.79099 0.87992
 C2050 C 0.21503 0.78531 0.87206
 C2051 C 0.21563 0.77729 0.85635
 C2052 C 0.23135 0.77478 0.84830
 C2053 C 0.24650 0.78002 0.85618
 C2054 C 0.24593 0.78803 0.87190
 C2055 C 0.23180 0.76825 0.83137
 C2056 C 0.23212 0.76372 0.81689
 H2057 H 0.25113 0.80484 0.93311
 H2058 H 0.25178 0.78825 0.90692
 H2059 H 0.20708 0.81547 0.88943
 H2060 H 0.20638 0.83172 0.91579
 H2061 H 0.20272 0.78718 0.87801
 H2062 H 0.20381 0.77338 0.85033
 H2063 H 0.25872 0.77833 0.84999
 H2064 H 0.25778 0.79244 0.87749
 C2065 C 0.27232 0.83720 0.04574
 C2066 C 0.27182 0.82917 0.05866
 C2067 C 0.27100 0.81947 0.07401
 C2068 C 0.28407 0.82089 0.08596
 C2069 C 0.28316 0.81163 0.10095
 C2070 C 0.26913 0.80080 0.10419
 C2071 C 0.25612 0.79938 0.09203
 C2072 C 0.25706 0.80864 0.07705
 C2073 C 0.26790 0.79141 0.12037
 C2074 C 0.25216 0.79021 0.12887
 C2075 C 0.25120 0.78228 0.14458
 C2076 C 0.26591 0.77539 0.15198
 C2077 C 0.28155 0.77617 0.14345
 C2078 C 0.28254 0.78410 0.12775
 C2079 C 0.26526 0.76887 0.16887
 C2080 C 0.26491 0.76431 0.18333
 H2081 H 0.29490 0.82926 0.08376
 H2082 H 0.29325 0.81321 0.11014
 H2083 H 0.24526 0.79102 0.09405
 H2084 H 0.24690 0.80740 0.06785
 H2085 H 0.24071 0.79589 0.12365
 H2086 H 0.23907 0.78193 0.15114
 H2087 H 0.29304 0.77097 0.14909
 H2088 H 0.29479 0.78461 0.12143
 C2089 C 0.77131 0.33763 0.54753
 C2090 C 0.77058 0.32952 0.56039
 C2091 C 0.76948 0.31973 0.57566
 C2092 C 0.75493 0.30983 0.57893
 C2093 C 0.75372 0.30047 0.59384
 C2094 C 0.76709 0.30087 0.60569
 C2095 C 0.78173 0.31076 0.60222
 C2096 C 0.78290 0.32012 0.58731
 C2097 C 0.76561 0.29141 0.62181
 C2098 C 0.77990 0.28304 0.62878
 C2099 C 0.77875 0.27507 0.64444
 C2100 C 0.76332 0.27528 0.65334
 C2101 C 0.74893 0.28321 0.64635
 C2102 C 0.75004 0.29119 0.63068
 C2103 C 0.76265 0.26872 0.67023
 C2104 C 0.76235 0.26415 0.68468
 H2105 H 0.74448 0.30937 0.56997
 H2106 H 0.74237 0.29283 0.59604
 H2107 H 0.79213 0.31156 0.61118
 H2108 H 0.79422 0.32777 0.58493
 H2109 H 0.79200 0.28279 0.62217
 H2110 H 0.79000 0.26906 0.64977
 H2111 H 0.73697 0.28363 0.65320
 H2112 H 0.73888 0.29769 0.62578
 C2113 C 0.22909 0.16321 0.54467
 C2114 C 0.22928 0.17161 0.55740
 C2115 C 0.22966 0.18171 0.57256
 C2116 C 0.21684 0.19381 0.57569
 C2117 C 0.21719 0.20355 0.59045
 C2118 C 0.23039 0.20133 0.60229
 C2119 C 0.24326 0.18920 0.59896
 C2120 C 0.24289 0.17947 0.58421
 C2121 C 0.23051 0.21123 0.61826
 C2122 C 0.24598 0.21734 0.62510
 C2123 C 0.24620 0.22563 0.64069
 C2124 C 0.23097 0.22798 0.64963
 C2125 C 0.21547 0.22234 0.64274
 C2126 C 0.21521 0.21405 0.62716
 C2127 C 0.23141 0.23473 0.66647
 C2128 C 0.23173 0.23941 0.68092
 H2129 H 0.20658 0.19571 0.56672
 H2130 H 0.20719 0.21291 0.59255
 H2131 H 0.25345 0.18697 0.60793
 H2132 H 0.25286 0.17013 0.58193
 H2133 H 0.25794 0.21558 0.61847
 H2134 H 0.25829 0.22985 0.64594
 H2135 H 0.20362 0.22391 0.64963
 H2136 H 0.20313 0.20932 0.62236
 C2137 C 0.72768 0.66244 0.04531
 C2138 C 0.72833 0.67065 0.05814
 C2139 C 0.72929 0.68054 0.07340
 C2140 C 0.71789 0.69407 0.07616
 C2141 C 0.71884 0.70367 0.09099
 C2142 C 0.73124 0.69987 0.10326
 C2143 C 0.74269 0.68629 0.10032
 C2144 C 0.74171 0.67671 0.08549
 C2145 C 0.73197 0.70967 0.11928
 C2146 C 0.74781 0.71390 0.12666
 C2147 C 0.74846 0.72211 0.14228
 C2148 C 0.73331 0.72625 0.15071
 C2149 C 0.71750 0.72249 0.14329
 C2150 C 0.71681 0.71430 0.12767
 C2151 C 0.73396 0.73286 0.16760
 C2152 C 0.73435 0.73742 0.18207
 H2153 H 0.70827 0.69721 0.06685
 H2154 H 0.70996 0.71415 0.09280
 H2155 H 0.75220 0.68285 0.10961
 H2156 H 0.75059 0.66626 0.08351
 H2157 H 0.75969 0.71073 0.12042
 H2158 H 0.76078 0.72486 0.14794
 H2159 H 0.70569 0.72545 0.14978
 H2160 H 0.70443 0.71104 0.12245
 C2161 C 0.14738 0.54941 0.23445
 C2162 C 0.15593 0.56230 0.23495
 C2163 C 0.16566 0.57802 0.23506
 C2164 C 0.17859 0.58072 0.24696
 C2165 C 0.18777 0.59613 0.24712
 C2166 C 0.18412 0.60909 0.23538
 C2167 C 0.17114 0.60620 0.22342
 C2168 C 0.16200 0.59079 0.22328
 C2169 C 0.19365 0.62562 0.23570
 C2170 C 0.18508 0.64122 0.23291
 C2171 C 0.19397 0.65677 0.23359
 C2172 C 0.21155 0.65700 0.23700
 C2173 C 0.22022 0.64155 0.23963
 C2174 C 0.21136 0.62598 0.23898
 C2175 C 0.22056 0.67306 0.23859
 C2176 C 0.22817 0.68639 0.24048
 H2177 H 0.18151 0.57097 0.25619
 H2178 H 0.19751 0.59802 0.25662
 H2179 H 0.16816 0.61578 0.21407
 H2180 H 0.15205 0.58885 0.21398
 H2181 H 0.17143 0.64143 0.23058
 H2182 H 0.18708 0.66864 0.23166
 H2183 H 0.23381 0.64154 0.24233
 H2184 H 0.21838 0.61421 0.24096
 C2185 C 0.64584 0.04901 0.73435
 C2186 C 0.65406 0.06208 0.73525
 C2187 C 0.66348 0.07798 0.73579
 C2188 C 0.67770 0.07986 0.74635
 C2189 C 0.68675 0.09534 0.74677
 C2190 C 0.68168 0.10920 0.73663
 C2191 C 0.66738 0.10716 0.72605
 C2192 C 0.65837 0.09167 0.72564
 C2193 C 0.69118 0.12575 0.73716
 C2194 C 0.68234 0.14144 0.73656
 C2195 C 0.69125 0.15698 0.73733
 C2196 C 0.70911 0.15709 0.73868
 C2197 C 0.71803 0.14156 0.73914
 C2198 C 0.70915 0.12601 0.73838
 C2199 C 0.71824 0.17309 0.74031
 C2200 C 0.72596 0.18636 0.74220
 H2201 H 0.68177 0.06938 0.75430
 H2202 H 0.69755 0.09655 0.75522
 H2203 H 0.66327 0.11746 0.71792
 H2204 H 0.64742 0.09037 0.71736
 H2205 H 0.66850 0.14171 0.73584
 H2206 H 0.68418 0.16890 0.73709
 H2207 H 0.73186 0.14147 0.74022
 H2208 H 0.71637 0.11419 0.73864
 C2209 C 0.85256 0.04824 0.26518
 C2210 C 0.84388 0.06102 0.26461
 C2211 C 0.83406 0.07666 0.26451
 C2212 C 0.82229 0.07998 0.25166
 C2213 C 0.81312 0.09538 0.25150
 C2214 C 0.81562 0.10772 0.26421
 C2215 C 0.82740 0.10419 0.27713
 C2216 C 0.83653 0.08879 0.27726
 C2217 C 0.80616 0.12427 0.26390
 C2218 C 0.81442 0.13967 0.26830
 C2219 C 0.80563 0.15527 0.26768
 C2220 C 0.78845 0.15572 0.26270
 C2221 C 0.78008 0.14046 0.25844
 C2222 C 0.78884 0.12485 0.25903
 C2223 C 0.77960 0.17187 0.26125
 C2224 C 0.77214 0.18528 0.25946
 H2225 H 0.82030 0.07074 0.24168
 H2226 H 0.80432 0.09778 0.24127
 H2227 H 0.82947 0.11327 0.28722
 H2228 H 0.84558 0.08637 0.28730
 H2229 H 0.82779 0.13972 0.27188
 H2230 H 0.81231 0.16700 0.27088
 H2231 H 0.76679 0.14063 0.25452
 H2232 H 0.78204 0.11323 0.25578
 C2233 C 0.35098 0.54985 0.76529
 C2234 C 0.34200 0.56243 0.76478
 C2235 C 0.33180 0.57783 0.76472
 C2236 C 0.32151 0.58190 0.75089
 C2237 C 0.31209 0.59715 0.75074
 C2238 C 0.31286 0.60858 0.76443
 C2239 C 0.32315 0.60429 0.77832
 C2240 C 0.33253 0.58904 0.77844
 C2241 C 0.30321 0.62502 0.76412
 C2242 C 0.31065 0.64018 0.77038
 C2243 C 0.30174 0.65571 0.76972
 C2244 C 0.28525 0.65632 0.76284
 C2245 C 0.27768 0.64129 0.75673
 C2246 C 0.28657 0.62576 0.75737
 C2247 C 0.27638 0.67245 0.76133
 C2248 C 0.26894 0.68586 0.75948
 H2249 H 0.32091 0.57338 0.74015
 H2250 H 0.30449 0.60015 0.73977
 H2251 H 0.32385 0.61267 0.78915
 H2252 H 0.34043 0.58604 0.78923
 H2253 H 0.32351 0.64012 0.77545
 H2254 H 0.30780 0.66726 0.77436
 H2255 H 0.26494 0.64160 0.75134
 H2256 H 0.28038 0.61430 0.75265
 C2257 C 0.35052 0.45394 0.73275
 C2258 C 0.34152 0.44136 0.73308
 C2259 C 0.33128 0.42597 0.73300
 C2260 C 0.32113 0.42173 0.74686
 C2261 C 0.31170 0.40647 0.74689
 C2262 C 0.31233 0.39520 0.73307
 C2263 C 0.32246 0.39967 0.71916
 C2264 C 0.33185 0.41493 0.71914
 C2265 C 0.30269 0.37873 0.73328
 C2266 C 0.31007 0.36366 0.72683
 C2267 C 0.30121 0.34809 0.72746
 C2268 C 0.28481 0.34735 0.73449
 C2269 C 0.27728 0.36230 0.74077
 C2270 C 0.28613 0.37788 0.74018
 C2271 C 0.27601 0.33117 0.73600
 C2272 C 0.26861 0.31773 0.73789
 H2273 H 0.32064 0.43011 0.75770
 H2274 H 0.30421 0.40332 0.75789
 H2275 H 0.32305 0.39142 0.70824
 H2276 H 0.33965 0.41807 0.70834
 H2277 H 0.32287 0.36381 0.72164
 H2278 H 0.30724 0.33659 0.72267
 H2279 H 0.26462 0.36190 0.74629
 H2280 H 0.27999 0.38926 0.74505
 C2281 C 0.85165 0.95215 0.23388
 C2282 C 0.84275 0.93951 0.23448
 C2283 C 0.83264 0.92404 0.23461
 C2284 C 0.82270 0.91976 0.24860
 C2285 C 0.81339 0.90443 0.24881
 C2286 C 0.81392 0.89312 0.23502
 C2287 C 0.82385 0.89762 0.22097
 C2288 C 0.83312 0.91294 0.22079
 C2289 C 0.80438 0.87660 0.23537
 C2290 C 0.81176 0.86155 0.22884
 C2291 C 0.80295 0.84596 0.22951
 C2292 C 0.78662 0.84515 0.23667
 C2293 C 0.77910 0.86006 0.24306
 C2294 C 0.78789 0.87567 0.24242
 C2295 C 0.77783 0.82895 0.23811
 C2296 C 0.77044 0.81549 0.23990
 H2297 H 0.82228 0.92819 0.25942
 H2298 H 0.80605 0.90127 0.25990
 H2299 H 0.82436 0.88933 0.21007
 H2300 H 0.84076 0.91610 0.20988
 H2301 H 0.82451 0.86176 0.22353
 H2302 H 0.80897 0.83449 0.22463
 H2303 H 0.76649 0.85961 0.24867
 H2304 H 0.78175 0.88702 0.24736
 C2305 C 0.64619 0.94970 0.76416
 C2306 C 0.65446 0.93667 0.76332
 C2307 C 0.66390 0.92080 0.76286
 C2308 C 0.67884 0.91932 0.75329
 C2309 C 0.68793 0.90388 0.75300
 C2310 C 0.68218 0.88966 0.76229
 C2311 C 0.66715 0.89131 0.77188
 C2312 C 0.65811 0.90676 0.77216
 C2313 C 0.69172 0.87316 0.76190
 C2314 C 0.68289 0.85744 0.76136
 C2315 C 0.69186 0.84195 0.76074
 C2316 C 0.70977 0.84190 0.76070
 C2317 C 0.71868 0.85745 0.76136
 C2318 C 0.70974 0.87296 0.76197
 C2319 C 0.71900 0.82597 0.75922
 C2320 C 0.72677 0.81273 0.75745
 H2321 H 0.68345 0.93009 0.74602
 H2322 H 0.69931 0.90298 0.74532
 H2323 H 0.66250 0.88073 0.77935
 H2324 H 0.64660 0.90775 0.77968
 H2325 H 0.66904 0.85713 0.76106
 H2326 H 0.68480 0.83002 0.76009
 H2327 H 0.73255 0.85760 0.76129
 H2328 H 0.71694 0.88480 0.76261
 C2329 C 0.14824 0.45177 0.26648
 C2330 C 0.15691 0.43899 0.26592
 C2331 C 0.16677 0.42337 0.26576
 C2332 C 0.17888 0.42033 0.25317
 C2333 C 0.18812 0.40497 0.25295
 C2334 C 0.18536 0.39241 0.26533
 C2335 C 0.17322 0.39566 0.27798
 C2336 C 0.16402 0.41101 0.27818
 C2337 C 0.19492 0.37593 0.26494
 C2338 C 0.18663 0.36040 0.26879
 C2339 C 0.19552 0.34486 0.26806
 C2340 C 0.21282 0.34459 0.26354
 C2341 C 0.22122 0.35997 0.25985
 C2342 C 0.21236 0.37552 0.26055
 C2343 C 0.22177 0.32852 0.26192
 C2344 C 0.22931 0.31517 0.25998
 H2345 H 0.18108 0.42975 0.24345
 H2346 H 0.19720 0.40279 0.24292
 H2347 H 0.17094 0.38640 0.28782
 H2348 H 0.15470 0.41322 0.28801
 H2349 H 0.17317 0.36022 0.27199
 H2350 H 0.18883 0.33305 0.27081
 H2351 H 0.23460 0.35994 0.25628
 H2352 H 0.21918 0.38724 0.25773
 C2353 C 0.05195 0.25970 0.89103
 C2354 C 0.06461 0.25685 0.88295
 C2355 C 0.07936 0.25425 0.87259
 C2356 C 0.07844 0.24307 0.85887
 C2357 C 0.09209 0.24199 0.84762
 C2358 C 0.10677 0.25215 0.84996
 C2359 C 0.10775 0.26299 0.86405
 C2360 C 0.09409 0.26405 0.87528
 C2361 C 0.12072 0.25198 0.83742
 C2362 C 0.13792 0.25244 0.84261
 C2363 C 0.15104 0.25292 0.83076
 C2364 C 0.14713 0.25297 0.81361
 C2365 C 0.13008 0.25239 0.80830
 C2366 C 0.11693 0.25190 0.82014
 C2367 C 0.16074 0.25352 0.80157
 C2368 C 0.17258 0.25381 0.79196
 H2369 H 0.06703 0.23551 0.85665
 H2370 H 0.09109 0.23337 0.83700
 H2371 H 0.11881 0.27111 0.86606
 H2372 H 0.09482 0.27289 0.88576
 H2373 H 0.14122 0.25233 0.85582
 H2374 H 0.16424 0.25328 0.83496
 H2375 H 0.12696 0.25243 0.79504
 H2376 H 0.10379 0.25181 0.81580
 C2377 C 0.55184 0.75791 0.38972
 C2378 C 0.56432 0.75466 0.38151
 C2379 C 0.57892 0.75163 0.37104
 C2380 C 0.57704 0.74237 0.35610
 C2381 C 0.59074 0.74106 0.34493
 C2382 C 0.60644 0.74905 0.34860
 C2383 C 0.60833 0.75794 0.36387
 C2384 C 0.59461 0.75924 0.37501
 C2385 C 0.62057 0.74878 0.33626
 C2386 C 0.63758 0.74659 0.34162
 C2387 C 0.65096 0.74709 0.33005
 C2388 C 0.64751 0.74980 0.31302
 C2389 C 0.63063 0.75183 0.30752
 C2390 C 0.61722 0.75131 0.31908
 C2391 C 0.66140 0.75056 0.30131
 C2392 C 0.67349 0.75103 0.29200
 H2393 H 0.56488 0.73653 0.35289
 H2394 H 0.58900 0.73397 0.33336
 H2395 H 0.62020 0.76440 0.36692
 H2396 H 0.59610 0.76660 0.38647
 H2397 H 0.64051 0.74443 0.35473
 H2398 H 0.66400 0.74544 0.33439
 H2399 H 0.62787 0.75395 0.29435
 H2400 H 0.60426 0.75329 0.31463
 C2401 C 0.55105 0.24014 0.11139
 C2402 C 0.56348 0.24335 0.11974
 C2403 C 0.57805 0.24640 0.13029
 C2404 C 0.57596 0.25470 0.14573
 C2405 C 0.58976 0.25613 0.15680
 C2406 C 0.60579 0.24924 0.15253
 C2407 C 0.60786 0.24129 0.13680
 C2408 C 0.59404 0.23985 0.12576
 C2409 C 0.62015 0.24973 0.16466
 C2410 C 0.63688 0.25322 0.15918
 C2411 C 0.65050 0.25298 0.17052
 C2412 C 0.64757 0.24925 0.18744
 C2413 C 0.63096 0.24592 0.19307
 C2414 C 0.61730 0.24617 0.18175
 C2415 C 0.66173 0.24874 0.19890
 C2416 C 0.67399 0.24847 0.20802
 H2417 H 0.56358 0.25973 0.14936
 H2418 H 0.58787 0.26250 0.16874
 H2419 H 0.62000 0.23567 0.13327
 H2420 H 0.59571 0.23324 0.11390
 H2421 H 0.63941 0.25619 0.14614
 H2422 H 0.66333 0.25564 0.16608
 H2423 H 0.62860 0.24299 0.20616
 H2424 H 0.60458 0.24319 0.18627
 C2425 C 0.05211 0.74269 0.60646
 C2426 C 0.06489 0.74572 0.61433
 C2427 C 0.07974 0.74853 0.62456
 C2428 C 0.07906 0.76024 0.63785
 C2429 C 0.09271 0.76148 0.64911
 C2430 C 0.10718 0.75096 0.64721
 C2431 C 0.10795 0.73959 0.63351
 C2432 C 0.09427 0.73837 0.62228
 C2433 C 0.12108 0.75127 0.65983
 C2434 C 0.13828 0.75024 0.65479
 C2435 C 0.15134 0.74984 0.66675
 C2436 C 0.14736 0.75045 0.68386
 C2437 C 0.13031 0.75161 0.68903
 C2438 C 0.11722 0.75202 0.67708
 C2439 C 0.16090 0.74998 0.69601
 C2440 C 0.17272 0.74973 0.70569
 H2441 H 0.06779 0.76808 0.63977
 H2442 H 0.09189 0.77050 0.65942
 H2443 H 0.11883 0.73119 0.63185
 H2444 H 0.09481 0.72912 0.61213
 H2445 H 0.14163 0.74983 0.64161
 H2446 H 0.16454 0.74903 0.66266
 H2447 H 0.12714 0.75208 0.70226
 H2448 H 0.10407 0.75256 0.68132
 C2449 C 0.95047 0.75979 0.61269
 C2450 C 0.93859 0.75668 0.62177
 C2451 C 0.92466 0.75369 0.63307
 C2452 C 0.90779 0.75447 0.62726
 C2453 C 0.89422 0.75296 0.63855
 C2454 C 0.89742 0.75071 0.65580
 C2455 C 0.91443 0.74961 0.66146
 C2456 C 0.92797 0.75111 0.65015
 C2457 C 0.88305 0.75010 0.66786
 C2458 C 0.88402 0.75910 0.68316
 C2459 C 0.87013 0.75918 0.69419
 C2460 C 0.85520 0.75024 0.69005
 C2461 C 0.85422 0.74105 0.67499
 C2462 C 0.86806 0.74096 0.66395
 C2463 C 0.84060 0.75082 0.70092
 C2464 C 0.82792 0.75106 0.70944
 H2465 H 0.90512 0.75663 0.61408
 H2466 H 0.88125 0.75407 0.63387
 H2467 H 0.91724 0.74769 0.67464
 H2468 H 0.94101 0.75055 0.65475
 H2469 H 0.89533 0.76642 0.68639
 H2470 H 0.87096 0.76639 0.70580
 H2471 H 0.84269 0.73407 0.67171
 H2472 H 0.86705 0.73377 0.65235
 C2473 C 0.44815 0.25787 0.10839
 C2474 C 0.43550 0.25525 0.11657
 C2475 C 0.42076 0.25292 0.12700
 C2476 C 0.40608 0.26274 0.12419
 C2477 C 0.39238 0.26185 0.13538
 C2478 C 0.39326 0.25117 0.14955
 C2479 C 0.40791 0.24105 0.15204
 C2480 C 0.42159 0.24194 0.14083
 C2481 C 0.37919 0.25108 0.16196
 C2482 C 0.38281 0.25113 0.17928
 C2483 C 0.36952 0.25159 0.19099
 C2484 C 0.35252 0.25201 0.18551
 C2485 C 0.34880 0.25186 0.16833
 C2486 C 0.36204 0.25140 0.15661
 C2487 C 0.33878 0.25244 0.19741
 C2488 C 0.32680 0.25259 0.20685
 H2489 H 0.40542 0.27142 0.11362
 H2490 H 0.38135 0.26995 0.13326
 H2491 H 0.40883 0.23255 0.16273
 H2492 H 0.43297 0.23437 0.14314
 H2493 H 0.39590 0.25113 0.18376
 H2494 H 0.37251 0.25170 0.20428
 H2495 H 0.33565 0.25209 0.16399
 H2496 H 0.35888 0.25118 0.14336
 C2497 C 0.44893 0.74061 0.39061
 C2498 C 0.43646 0.74331 0.38216
 C2499 C 0.42190 0.74582 0.37149
 C2500 C 0.40650 0.73746 0.37503
 C2501 C 0.39280 0.73859 0.36381
 C2502 C 0.39441 0.74805 0.34889
 C2503 C 0.40984 0.75669 0.34561
 C2504 C 0.42352 0.75556 0.35686
 C2505 C 0.38021 0.74847 0.33659
 C2506 C 0.38353 0.74686 0.31929
 C2507 C 0.37007 0.74674 0.30773
 C2508 C 0.35319 0.74822 0.31334
 C2509 C 0.34978 0.74994 0.33050
 C2510 C 0.36320 0.75007 0.34207
 C2511 C 0.33926 0.74804 0.30162
 C2512 C 0.32711 0.74807 0.29235
 H2513 H 0.40521 0.72974 0.38624
 H2514 H 0.38115 0.73163 0.36656
 H2515 H 0.41135 0.76424 0.33432
 H2516 H 0.43544 0.76199 0.35398
 H2517 H 0.39650 0.74538 0.31474
 H2518 H 0.37281 0.74538 0.29446
 H2519 H 0.33673 0.75118 0.33493
 H2520 H 0.36028 0.75152 0.35528
 C2521 C 0.94935 0.24023 0.88924
 C2522 C 0.93690 0.24286 0.88074
 C2523 C 0.92232 0.24530 0.87008
 C2524 C 0.92418 0.25386 0.85478
 C2525 C 0.91036 0.25497 0.84370
 C2526 C 0.89455 0.24749 0.84782
 C2527 C 0.89273 0.23920 0.86338
 C2528 C 0.90656 0.23809 0.87443
 C2529 C 0.88012 0.24791 0.83578
 C2530 C 0.86336 0.25089 0.84145
 C2531 C 0.84969 0.25078 0.83016
 C2532 C 0.85261 0.24769 0.81309
 C2533 C 0.86924 0.24482 0.80729
 C2534 C 0.88294 0.24494 0.81857
 C2535 C 0.83841 0.24748 0.80168
 C2536 C 0.82607 0.24751 0.79265
 H2537 H 0.93638 0.25941 0.85130
 H2538 H 0.91205 0.26162 0.83190
 H2539 H 0.88076 0.23313 0.86678
 H2540 H 0.90508 0.23129 0.88618
 H2541 H 0.86084 0.25342 0.85459
 H2542 H 0.83684 0.25308 0.83474
 H2543 H 0.87159 0.24240 0.79409
 H2544 H 0.89569 0.24237 0.81389
 C2545 C 0.60282 1.01681 0.70386
 C2546 C 0.59310 1.01623 0.69208
 C2547 C 0.58167 1.01588 0.67786
 C2548 C 0.58244 1.00241 0.66629
 C2549 C 0.57192 1.00248 0.65207
 C2550 C 0.56046 1.01607 0.64920
 C2551 C 0.55961 1.02944 0.66104
 C2552 C 0.57014 1.02934 0.67526
 C2553 C 0.54998 1.01658 0.63359
 C2554 C 0.54787 1.03202 0.62474
 C2555 C 0.53913 1.03227 0.60940
 C2556 C 0.53232 1.01714 0.60271
 C2557 C 0.53394 1.00181 0.61165
 C2558 C 0.54268 1.00153 0.62699
 C2559 C 0.52512 1.01703 0.58604
 C2560 C 0.52003 1.01666 0.57174
 H2561 H 0.59137 0.99197 0.66812
 H2562 H 0.57309 0.99213 0.64309
 H2563 H 0.55081 1.03999 0.65930
 H2564 H 0.56943 1.03984 0.68414
 H2565 H 0.55352 1.04379 0.62935
 H2566 H 0.53813 1.04418 0.60251
 H2567 H 0.52881 0.99000 0.60656
 H2568 H 0.54388 0.98949 0.63360
 C2569 C 0.10158 0.51822 1.20526
 C2570 C 0.09151 0.51776 1.19377
 C2571 C 0.07972 0.51748 1.17983
 C2572 C 0.07968 0.50365 1.16864
 C2573 C 0.06889 0.50377 1.15462
 C2574 C 0.05798 0.51776 1.15156
 C2575 C 0.05792 0.53149 1.16304
 C2576 C 0.06872 0.53134 1.17707
 C2577 C 0.04730 0.51830 1.13608
 C2578 C 0.04576 0.53356 1.12683
 C2579 C 0.03693 0.53375 1.11154
 C2580 C 0.02944 0.51874 1.10531
 C2581 C 0.03045 0.50362 1.11467
 C2582 C 0.03929 0.50340 1.12996
 C2583 C 0.02224 0.51844 1.08865
 C2584 C 0.01717 0.51789 1.07434
 H2585 H 0.08820 0.49290 1.17060
 H2586 H 0.06945 0.49312 1.14591
 H2587 H 0.04955 0.54235 1.16115
 H2588 H 0.06864 0.54212 1.18564
 H2589 H 0.05196 0.54520 1.13107
 H2590 H 0.03640 0.54548 1.10433
 H2591 H 0.02480 0.49189 1.10994
 H2592 H 0.04004 0.49151 1.13688
 C2593 C -0.10306 -0.01927 1.20509
 C2594 C -0.09314 -0.01939 1.19348
 C2595 C -0.08167 -0.01997 1.17933
 C2596 C -0.08412 -0.03227 1.16676
 C2597 C -0.07337 -0.03267 1.15275
 C2598 C -0.05998 -0.02074 1.15108
 C2599 C -0.05748 -0.00853 1.16389
 C2600 C -0.06826 -0.00816 1.17792
 C2601 C -0.04918 -0.02063 1.13569
 C2602 C -0.04457 -0.00506 1.12808
 C2603 C -0.03564 -0.00495 1.11287
 C2604 C -0.03113 -0.02037 1.10507
 C2605 C -0.03521 -0.03593 1.11278
 C2606 C -0.04414 -0.03607 1.12800
 C2607 C -0.02375 -0.02014 1.08850
 C2608 C -0.01850 -0.01953 1.07427
 H2609 H -0.09448 -0.04144 1.16769
 H2610 H -0.07584 -0.04204 1.14301
 H2611 H -0.04719 0.00072 1.16307
 H2612 H -0.06621 0.00140 1.18759
 H2613 H -0.04844 0.00704 1.13352
 H2614 H -0.03272 0.00717 1.10694
 H2615 H -0.03187 -0.04795 1.10683
 H2616 H -0.04729 -0.04827 1.13365
 C2617 C 0.39745 0.48306 0.70529
 C2618 C 0.40766 0.48303 0.69393
 C2619 C 0.41952 0.48270 0.68008
 C2620 C 0.42892 0.46785 0.67663
 C2621 C 0.43965 0.46715 0.66259
 C2622 C 0.44111 0.48130 0.65177
 C2623 C 0.43184 0.49627 0.65553
 C2624 C 0.42112 0.49694 0.66957
 C2625 C 0.45162 0.48025 0.63623
 C2626 C 0.46123 0.49442 0.63076
 C2627 C 0.46995 0.49387 0.61543
 C2628 C 0.46925 0.47916 0.60539
 C2629 C 0.46014 0.46482 0.61095
 C2630 C 0.45141 0.46533 0.62628
 C2631 C 0.47646 0.47936 0.58874
 C2632 C 0.48159 0.47997 0.57447
 H2633 H 0.42778 0.45674 0.68467
 H2634 H 0.44675 0.45551 0.66016
 H2635 H 0.43246 0.50729 0.64734
 H2636 H 0.41383 0.50846 0.67204
 H2637 H 0.46183 0.50600 0.63822
 H2638 H 0.47688 0.50509 0.61122
 H2639 H 0.45933 0.45343 0.60321
 H2640 H 0.44396 0.45429 0.63000
 C2641 C 0.39701 0.52116 -0.20539
 C2642 C 0.40683 0.52113 -0.19368
 C2643 C 0.41819 0.52144 -0.17940
 C2644 C 0.43134 0.50938 -0.17789
 C2645 C 0.44193 0.50943 -0.16369
 C2646 C 0.43951 0.52156 -0.15081
 C2647 C 0.42639 0.53376 -0.15259
 C2648 C 0.41583 0.53368 -0.16677
 C2649 C 0.45007 0.52110 -0.13525
 C2650 C 0.45533 0.53636 -0.12733
 C2651 C 0.46406 0.53590 -0.11198
 C2652 C 0.46771 0.52019 -0.10436
 C2653 C 0.46297 0.50493 -0.11237
 C2654 C 0.45424 0.50537 -0.12771
 C2655 C 0.47495 0.51966 -0.08771
 C2656 C 0.48012 0.51886 -0.07345
 H2657 H 0.43331 0.49986 -0.18760
 H2658 H 0.45202 0.49998 -0.16279
 H2659 H 0.42398 0.54310 -0.14280
 H2660 H 0.40566 0.54305 -0.16777
 H2661 H 0.45253 0.54867 -0.13291
 H2662 H 0.46760 0.54779 -0.10587
 H2663 H 0.46556 0.49270 -0.10652
 H2664 H 0.45019 0.49340 -0.13333
 C2665 C -0.10205 1.01882 0.29474
 C2666 C -0.09217 1.01878 0.30641
 C2667 C -0.08074 1.01916 0.32062
 C2668 C -0.06805 1.00667 0.32251
 C2669 C -0.05736 1.00684 0.33663
 C2670 C -0.05922 1.01954 0.34907
 C2671 C -0.07188 1.03216 0.34693
 C2672 C -0.08254 1.03195 0.33282
 C2673 C -0.04856 1.01927 0.36458
 C2674 C -0.04268 1.03462 0.37190
 C2675 C -0.03389 1.03441 0.38723
 C2676 C -0.03079 1.01888 0.39541
 C2677 C -0.03615 1.00352 0.38798
 C2678 C -0.04494 1.00369 0.37267
 C2679 C -0.02355 1.01872 0.41206
 C2680 C -0.01843 1.01826 0.42636
 H2681 H -0.06651 0.99672 0.31313
 H2682 H -0.04763 0.99706 0.33781
 H2683 H -0.07386 1.04194 0.35638
 H2684 H -0.09235 1.04166 0.33153
 H2685 H -0.04506 1.04680 0.36588
 H2686 H -0.02988 1.04639 0.39288
 H2687 H -0.03399 0.99143 0.39427
 H2688 H -0.04947 0.99168 0.36751
 C2689 C 0.10248 0.48227 0.29616
 C2690 C 0.09255 0.48255 0.30775
 C2691 C 0.08095 0.48258 0.32180
 C2692 C 0.08039 0.49664 0.33269
 C2693 C 0.06979 0.49632 0.34682
 C2694 C 0.05958 0.48189 0.35028
 C2695 C 0.06004 0.46792 0.33911
 C2696 C 0.07065 0.46827 0.32498
 C2697 C 0.04911 0.48119 0.36585
 C2698 C 0.04837 0.46608 0.37544
 C2699 C 0.03966 0.46580 0.39077
 C2700 C 0.03151 0.48056 0.39671
 C2701 C 0.03175 0.49550 0.38704
 C2702 C 0.04045 0.49582 0.37171
 C2703 C 0.02436 0.48085 0.41338
 C2704 C 0.01930 0.48144 0.42767
 H2705 H 0.08838 0.50775 0.33042
 H2706 H 0.06995 0.50718 0.35529
 H2707 H 0.05221 0.45670 0.34131
 H2708 H 0.07097 0.45730 0.31663
 H2709 H 0.05508 0.45467 0.37141
 H2710 H 0.03974 0.45421 0.39823
 H2711 H 0.02557 0.50703 0.39155
 H2712 H 0.04058 0.50757 0.36453
 C2713 C 0.60243 -0.01840 -0.20469
 C2714 C 0.59274 -0.01796 -0.19291
 C2715 C 0.58137 -0.01779 -0.17868
 C2716 C 0.58171 -0.00409 -0.16733
 C2717 C 0.57126 -0.00431 -0.15309
 C2718 C 0.56031 -0.01827 -0.14997
 C2719 C 0.55988 -0.03187 -0.16159
 C2720 C 0.57034 -0.03162 -0.17583
 C2721 C 0.54992 -0.01890 -0.13434
 C2722 C 0.54838 -0.03425 -0.12523
 C2723 C 0.53971 -0.03457 -0.10988
 C2724 C 0.53239 -0.01959 -0.10345
 C2725 C 0.53344 -0.00436 -0.11263
 C2726 C 0.54211 -0.00401 -0.12798
 C2727 C 0.52522 -0.01946 -0.08678
 C2728 C 0.52013 -0.01905 -0.07249
 H2729 H 0.59026 0.00663 -0.16935
 H2730 H 0.57210 0.00623 -0.14428
 H2731 H 0.55146 -0.04270 -0.15965
 H2732 H 0.56996 -0.04229 -0.18453
 H2733 H 0.55443 -0.04588 -0.12966
 H2734 H 0.53914 -0.04638 -0.10280
 H2735 H 0.52791 0.00734 -0.10773
 H2736 H 0.54287 0.00794 -0.13478
 C2737 C 0.69677 0.62749 0.00470
 C2738 C 0.68386 0.62002 0.00066
 C2739 C 0.66844 0.61099 -0.00391
 C2740 C 0.66937 0.59535 -0.01248
 C2741 C 0.65442 0.58625 -0.01631
 C2742 C 0.63829 0.59267 -0.01161
 C2743 C 0.63749 0.60852 -0.00319
 C2744 C 0.65245 0.61759 0.00063
 C2745 C 0.62242 0.58263 -0.01483
 C2746 C 0.60714 0.59087 -0.01957
 C2747 C 0.59192 0.58157 -0.02130
 C2748 C 0.59175 0.56390 -0.01839
 C2749 C 0.60697 0.55552 -0.01413
 C2750 C 0.62220 0.56479 -0.01240
 C2751 C 0.57574 0.55471 -0.01815
 C2752 C 0.56229 0.54721 -0.01690
 H2753 H 0.68167 0.59011 -0.01608
 H2754 H 0.65548 0.57418 -0.02295
 H2755 H 0.62532 0.61371 0.00084
 H2756 H 0.65156 0.62964 0.00733
 H2757 H 0.60692 0.60454 -0.02175
 H2758 H 0.58021 0.58823 -0.02450
 H2759 H 0.60696 0.54189 -0.01164
 H2760 H 0.63366 0.55808 -0.00852
 C2761 C 0.19900 1.12619 0.50403
 C2762 C 0.18634 1.11828 0.50004
 C2763 C 0.17118 1.10872 0.49561
 C2764 C 0.16790 1.09298 0.50332
 C2765 C 0.15294 1.08390 0.49953
 C2766 C 0.14100 1.09045 0.48795
 C2767 C 0.14453 1.10620 0.48010
 C2768 C 0.15951 1.11526 0.48391
 C2769 C 0.12467 1.08119 0.48465
 C2770 C 0.10917 1.09025 0.48325
 C2771 C 0.09363 1.08149 0.48153
 C2772 C 0.09335 1.06358 0.48109
 C2773 C 0.10874 1.05446 0.48197
 C2774 C 0.12429 1.06319 0.48370
 C2775 C 0.07721 1.05461 0.48141
 C2776 C 0.06364 1.04734 0.48274
 H2777 H 0.17679 1.08782 0.51245
 H2778 H 0.15051 1.07198 0.50600
 H2779 H 0.13570 1.11150 0.47101
 H2780 H 0.16193 1.12741 0.47784
 H2781 H 0.10896 1.10408 0.48416
 H2782 H 0.08179 1.08869 0.48106
 H2783 H 0.10868 1.04060 0.48175
 H2784 H 0.13601 1.05585 0.48450
 C2785 C 0.19792 -0.12794 0.99547
 C2786 C 0.18511 -0.12050 0.99976
 C2787 C 0.16974 -0.11153 1.00456
 C2788 C 0.15369 -0.11836 1.00051
 C2789 C 0.13877 -0.10934 1.00446
 C2790 C 0.13967 -0.09331 1.01254
 C2791 C 0.15587 -0.08666 1.01678
 C2792 C 0.17079 -0.09572 1.01282
 C2793 C 0.12382 -0.08330 1.01582
 C2794 C 0.12347 -0.06551 1.01301
 C2795 C 0.10823 -0.05631 1.01478
 C2796 C 0.09313 -0.06469 1.01944
 C2797 C 0.09344 -0.08228 1.02274
 C2798 C 0.10867 -0.09152 1.02098
 C2799 C 0.07708 -0.05559 1.01921
 C2800 C 0.06361 -0.04814 1.01795
 H2801 H 0.15271 -0.13054 0.99404
 H2802 H 0.12654 -0.11470 1.00078
 H2803 H 0.15701 -0.07446 1.02315
 H2804 H 0.18314 -0.09031 1.01604
 H2805 H 0.13482 -0.05882 1.00881
 H2806 H 0.10811 -0.04274 1.01199
 H2807 H 0.08182 -0.08894 1.02625
 H2808 H 0.10856 -0.10515 1.02345
 C2809 C 0.69867 0.37317 0.49490
 C2810 C 0.68595 0.38091 0.49895
 C2811 C 0.67078 0.39032 0.50351
 C2812 C 0.66757 0.40630 0.49625
 C2813 C 0.65265 0.41529 0.50024
 C2814 C 0.64066 0.40842 0.51156
 C2815 C 0.64408 0.39242 0.51894
 C2816 C 0.65904 0.38345 0.51493
 C2817 C 0.62439 0.41765 0.51510
 C2818 C 0.60882 0.40864 0.51617
 C2819 C 0.59335 0.41743 0.51812
 C2820 C 0.59319 0.43532 0.51913
 C2821 C 0.60865 0.44437 0.51859
 C2822 C 0.62414 0.43561 0.51663
 C2823 C 0.57713 0.44439 0.51902
 C2824 C 0.56364 0.45181 0.51784
 H2825 H 0.67652 0.41174 0.48735
 H2826 H 0.65029 0.42743 0.49412
 H2827 H 0.63521 0.38686 0.52782
 H2828 H 0.66139 0.37111 0.52066
 H2829 H 0.60851 0.39485 0.51482
 H2830 H 0.58145 0.41028 0.51832
 H2831 H 0.60871 0.45822 0.51924
 H2832 H 0.63592 0.44291 0.51609
 C2833 C -0.19687 0.37243 0.50644
 C2834 C -0.18393 0.37979 0.50236
 C2835 C -0.16847 0.38871 0.49775
 C2836 C -0.15250 0.38207 0.50231
 C2837 C -0.13751 0.39103 0.49845
 C2838 C -0.13826 0.40681 0.48998
 C2839 C -0.15438 0.41327 0.48524
 C2840 C -0.16936 0.40428 0.48911
 C2841 C -0.12235 0.41676 0.48672
 C2842 C -0.12205 0.43462 0.48907
 C2843 C -0.10678 0.44381 0.48729
 C2844 C -0.09161 0.43533 0.48306
 C2845 C -0.09187 0.41763 0.48023
 C2846 C -0.10712 0.40841 0.48201
 C2847 C -0.07556 0.44446 0.48325
 C2848 C -0.06207 0.45192 0.48448
 H2849 H -0.15165 0.37008 0.50907
 H2850 H -0.12536 0.38582 0.50251
 H2851 H -0.15539 0.42528 0.47855
 H2852 H -0.18165 0.40954 0.48549
 H2853 H -0.13346 0.44141 0.49291
 H2854 H -0.10671 0.45747 0.48971
 H2855 H -0.08020 0.41089 0.47706
 H2856 H -0.10697 0.39472 0.47990
 C2857 C 0.30357 -0.12859 0.00502
 C2858 C 0.31648 -0.12123 0.00085
 C2859 C 0.33194 -0.11233 -0.00380
 C2860 C 0.34792 -0.11919 0.00041
 C2861 C 0.36292 -0.11023 -0.00342
 C2862 C 0.36218 -0.09423 -0.01150
 C2863 C 0.34605 -0.08756 -0.01589
 C2864 C 0.33105 -0.09655 -0.01206
 C2865 C 0.37812 -0.08429 -0.01466
 C2866 C 0.37854 -0.06649 -0.01187
 C2867 C 0.39385 -0.05734 -0.01353
 C2868 C 0.40894 -0.06580 -0.01806
 C2869 C 0.40856 -0.08341 -0.02133
 C2870 C 0.39326 -0.09259 -0.01968
 C2871 C 0.42504 -0.05675 -0.01773
 C2872 C 0.43856 -0.04938 -0.01637
 H2873 H 0.34878 -0.13134 0.00688
 H2874 H 0.37509 -0.11562 0.00038
 H2875 H 0.34503 -0.07538 -0.02228
 H2876 H 0.31876 -0.09112 -0.01540
 H2877 H 0.36719 -0.05974 -0.00777
 H2878 H 0.39401 -0.04376 -0.01076
 H2879 H 0.42017 -0.09013 -0.02475
 H2880 H 0.39333 -0.10623 -0.02214
 C2881 C 0.30372 1.12642 0.49338
 C2882 C 0.31637 1.11854 0.49739
 C2883 C 0.33147 1.10897 0.50188
 C2884 C 0.33474 1.09319 0.49417
 C2885 C 0.34962 1.08408 0.49807
 C2886 C 0.36149 1.09062 0.50976
 C2887 C 0.35799 1.10640 0.51759
 C2888 C 0.34308 1.11550 0.51367
 C2889 C 0.37773 1.08129 0.51320
 C2890 C 0.39328 1.09028 0.51476
 C2891 C 0.40875 1.08146 0.51661
 C2892 C 0.40891 1.06354 0.51701
 C2893 C 0.39347 1.05450 0.51598
 C2894 C 0.37799 1.06330 0.51413
 C2895 C 0.42500 1.05450 0.51676
 C2896 C 0.43852 1.04716 0.51545
 H2897 H 0.32589 1.08803 0.48498
 H2898 H 0.35203 1.07212 0.49161
 H2899 H 0.36676 1.11170 0.52677
 H2900 H 0.34068 1.12768 0.51975
 H2901 H 0.39359 1.10410 0.51387
 H2902 H 0.42063 1.08860 0.51718
 H2903 H 0.39343 1.04063 0.51616
 H2904 H 0.36623 1.05601 0.51320
 C2905 C -0.19884 0.62645 0.99298
 C2906 C -0.18607 0.61881 0.99707
 C2907 C -0.17087 0.60949 1.00172
 C2908 C -0.15923 0.61643 1.01326
 C2909 C -0.14427 0.60751 1.01740
 C2910 C -0.14077 0.59148 1.01006
 C2911 C -0.15265 0.58455 0.99861
 C2912 C -0.16757 0.59349 0.99448
 C2913 C -0.12452 0.58227 1.01379
 C2914 C -0.12428 0.56432 1.01531
 C2915 C -0.10881 0.55558 1.01745
 C2916 C -0.09336 0.56464 1.01818
 C2917 C -0.09351 0.58253 1.01719
 C2918 C -0.10897 0.59130 1.01506
 C2919 C -0.07728 0.55557 1.01822
 C2920 C -0.06378 0.54816 1.01713
 H2921 H -0.16165 0.62879 1.01898
 H2922 H -0.13549 0.61312 1.02639
 H2923 H -0.15023 0.57239 0.99251
 H2924 H -0.17645 0.58800 0.98549
 H2925 H -0.13604 0.55701 1.01462
 H2926 H -0.10886 0.54173 1.01808
 H2927 H -0.08163 0.58968 1.01754
 H2928 H -0.10866 0.60508 1.01372
 C2929 C 0.01544 0.69907 0.58115
 C2930 C 0.01356 0.68428 0.57739
 C2931 C 0.01171 0.66654 0.57315
 C2932 C 0.02188 0.65434 0.58121
 C2933 C 0.02050 0.63709 0.57682
 C2934 C 0.00889 0.63187 0.56431
 C2935 C -0.00143 0.64423 0.55642
 C2936 C -0.00001 0.66148 0.56082
 C2937 C 0.00793 0.61371 0.55911
 C2938 C -0.00798 0.60602 0.55568
 C2939 C -0.00878 0.58918 0.54984
 C2940 C 0.00629 0.57986 0.54740
 C2941 C 0.02215 0.58726 0.55111
 C2942 C 0.02298 0.60410 0.55696
 C2943 C 0.00552 0.56311 0.54007
 C2944 C 0.00479 0.54934 0.53335
 H2945 H 0.03096 0.65817 0.59081
 H2946 H 0.02846 0.62782 0.58323
 H2947 H -0.01031 0.64060 0.54658
 H2948 H -0.00790 0.67087 0.55449
 H2949 H -0.01978 0.61307 0.55742
 H2950 H -0.02111 0.58354 0.54695
 H2951 H 0.03388 0.58016 0.54912
 H2952 H 0.03541 0.60976 0.55930
 C2953 C 0.51614 0.19605 0.08440
 C2954 C 0.51445 0.18125 0.08057
 C2955 C 0.51273 0.16355 0.07614
 C2956 C 0.49999 0.15838 0.06487
 C2957 C 0.49863 0.14118 0.06023
 C2958 C 0.51004 0.12899 0.06683
 C2959 C 0.52267 0.13430 0.07831
 C2960 C 0.52399 0.15150 0.08293
 C2961 C 0.50911 0.11093 0.06129
 C2962 C 0.52416 0.10186 0.05748
 C2963 C 0.52326 0.08517 0.05127
 C2964 C 0.50733 0.07735 0.04886
 C2965 C 0.49231 0.08612 0.05296
 C2966 C 0.49317 0.10282 0.05916
 C2967 C 0.50638 0.06077 0.04117
 C2968 C 0.50554 0.04715 0.03420
 H2969 H 0.49125 0.16765 0.05952
 H2970 H 0.48894 0.13749 0.05119
 H2971 H 0.53149 0.12516 0.08371
 H2972 H 0.53386 0.15541 0.09171
 H2973 H 0.53658 0.10787 0.05879
 H2974 H 0.53495 0.07851 0.04799
 H2975 H 0.47992 0.08015 0.05108
 H2976 H 0.48140 0.10944 0.06219
 C2977 C -0.01517 0.19838 0.91857
 C2978 C -0.01323 0.18384 0.92311
 C2979 C -0.01119 0.16641 0.92827
 C2980 C -0.01925 0.15332 0.91923
 C2981 C -0.01758 0.13634 0.92438
 C2982 C -0.00779 0.13229 0.93865
 C2983 C 0.00039 0.14553 0.94758
 C2984 C -0.00132 0.16251 0.94241
 C2985 C -0.00642 0.11436 0.94444
 C2986 C 0.00928 0.10792 0.95030
 C2987 C 0.01037 0.09122 0.95640
 C2988 C -0.00419 0.08080 0.95669
 C2989 C -0.01981 0.08700 0.95066
 C2990 C -0.02093 0.10369 0.94454
 C2991 C -0.00327 0.06406 0.96394
 C2992 C -0.00251 0.05022 0.97045
 H2993 H -0.02689 0.15625 0.90823
 H2994 H -0.02385 0.12638 0.91717
 H2995 H 0.00781 0.14279 0.95875
 H2996 H 0.00493 0.17259 0.94951
 H2997 H 0.02069 0.11580 0.95017
 H2998 H 0.02251 0.08651 0.96109
 H2999 H -0.03117 0.07904 0.95096
 H3000 H -0.03323 0.10839 0.94030
 C3001 C 0.48422 0.69854 0.41982
 C3002 C 0.48600 0.68399 0.42438
 C3003 C 0.48783 0.66652 0.42950
 C3004 C 0.47801 0.65380 0.42172
 C3005 C 0.47958 0.63678 0.42676
 C3006 C 0.49103 0.63231 0.43966
 C3007 C 0.50094 0.64518 0.44733
 C3008 C 0.49934 0.66221 0.44227
 C3009 C 0.49237 0.61434 0.44533
 C3010 C 0.50842 0.60718 0.44912
 C3011 C 0.50959 0.59044 0.45508
 C3012 C 0.49475 0.58068 0.45729
 C3013 C 0.47875 0.58759 0.45334
 C3014 C 0.47755 0.60433 0.44737
 C3015 C 0.49587 0.56388 0.46441
 C3016 C 0.49680 0.55001 0.47083
 H3017 H 0.46911 0.65704 0.41178
 H3018 H 0.47194 0.62710 0.42051
 H3019 H 0.50969 0.64213 0.45745
 H3020 H 0.50697 0.67200 0.44838
 H3021 H 0.52005 0.61454 0.44747
 H3022 H 0.52203 0.58517 0.45815
 H3023 H 0.46719 0.58015 0.45515
 H3024 H 0.46501 0.60959 0.44476
 C3025 C 0.51671 0.80239 0.41553
 C3026 C 0.51502 0.81725 0.41906
 C3027 C 0.51331 0.83504 0.42314
 C3028 C 0.52489 0.84690 0.41653
 C3029 C 0.52359 0.86418 0.42085
 C3030 C 0.51067 0.86975 0.43183
 C3031 C 0.49895 0.85775 0.43824
 C3032 C 0.50028 0.84048 0.43391
 C3033 C 0.50978 0.88789 0.43713
 C3034 C 0.49389 0.89616 0.43869
 C3035 C 0.49302 0.91291 0.44479
 C3036 C 0.50802 0.92155 0.44934
 C3037 C 0.52392 0.91359 0.44745
 C3038 C 0.52481 0.89685 0.44134
 C3039 C 0.50700 0.93810 0.45707
 C3040 C 0.50609 0.95167 0.46414
 H3041 H 0.53499 0.84278 0.40814
 H3042 H 0.53267 0.87317 0.41560
 H3043 H 0.48903 0.86165 0.44691
 H3044 H 0.49129 0.83136 0.43911
 H3045 H 0.48214 0.88963 0.43535
 H3046 H 0.48065 0.91898 0.44628
 H3047 H 0.53557 0.92015 0.45108
 H3048 H 0.53721 0.89073 0.44047
 C3049 C 0.01533 0.30278 0.91713
 C3050 C 0.01328 0.31752 0.92099
 C3051 C 0.01119 0.33517 0.92544
 C3052 C -0.00069 0.33989 0.93771
 C3053 C -0.00232 0.35705 0.94238
 C3054 C 0.00797 0.36965 0.93483
 C3055 C 0.01973 0.36479 0.92236
 C3056 C 0.02132 0.34763 0.91770
 C3057 C 0.00684 0.38769 0.94038
 C3058 C 0.02181 0.39737 0.94293
 C3059 C 0.02082 0.41405 0.94916
 C3060 C 0.00488 0.42123 0.95286
 C3061 C -0.01011 0.41185 0.95002
 C3062 C -0.00915 0.39516 0.94381
 C3063 C 0.00396 0.43780 0.96055
 C3064 C 0.00315 0.45143 0.96753
 H3065 H -0.00854 0.33030 0.94379
 H3066 H -0.01131 0.36040 0.95218
 H3067 H 0.02767 0.37425 0.91622
 H3068 H 0.03053 0.34407 0.90816
 H3069 H 0.03430 0.39186 0.94061
 H3070 H 0.03249 0.42119 0.95145
 H3071 H -0.02250 0.41733 0.95290
 H3072 H -0.02088 0.38806 0.94177
 C3073 C 0.48439 0.30008 0.08057
 C3074 C 0.48631 0.31469 0.07626
 C3075 C 0.48823 0.33223 0.07141
 C3076 C 0.49895 0.33661 0.05805
 C3077 C 0.50049 0.35369 0.05316
 C3078 C 0.49129 0.36656 0.06159
 C3079 C 0.48067 0.36204 0.07510
 C3080 C 0.47916 0.34496 0.07998
 C3081 C 0.49245 0.38458 0.05603
 C3082 C 0.47763 0.39473 0.05498
 C3083 C 0.47859 0.41149 0.04902
 C3084 C 0.49436 0.41829 0.04410
 C3085 C 0.50922 0.40840 0.04536
 C3086 C 0.50828 0.39163 0.05130
 C3087 C 0.49518 0.43508 0.03694
 C3088 C 0.49591 0.44894 0.03046
 H3089 H 0.50598 0.32681 0.05133
 H3090 H 0.50859 0.35679 0.04256
 H3091 H 0.47360 0.37171 0.08194
 H3092 H 0.47086 0.34167 0.09038
 H3093 H 0.46523 0.38956 0.05833
 H3094 H 0.46701 0.41903 0.04796
 H3095 H 0.52148 0.41357 0.04153
 H3096 H 0.51992 0.38416 0.05217
 C3097 C -0.01741 0.80281 0.58292
 C3098 C -0.01586 0.81747 0.57864
 C3099 C -0.01413 0.83503 0.57375
 C3100 C -0.00185 0.83971 0.56186
 C3101 C -0.00024 0.85680 0.55705
 C3102 C -0.01092 0.86939 0.56408
 C3103 C -0.02317 0.86456 0.57609
 C3104 C -0.02475 0.84746 0.58090
 C3105 C -0.00954 0.88742 0.55860
 C3106 C -0.02437 0.89710 0.55548
 C3107 C -0.02307 0.91381 0.54945
 C3108 C -0.00696 0.92102 0.54653
 C3109 C 0.00786 0.91163 0.54991
 C3110 C 0.00660 0.89491 0.55593
 C3111 C -0.00566 0.93765 0.53909
 C3112 C -0.00454 0.95134 0.53231
 H3113 H 0.00640 0.83014 0.55625
 H3114 H 0.00914 0.86013 0.54760
 H3115 H -0.03143 0.87402 0.58184
 H3116 H -0.03425 0.84393 0.59016
 H3117 H -0.03695 0.89158 0.55723
 H3118 H -0.03461 0.92097 0.54673
 H3119 H 0.02039 0.91712 0.54764
 H3120 H 0.01822 0.88781 0.55844
 C3121 C 0.26699 0.35315 0.04519
 C3122 C 0.26658 0.34327 0.05682
 C3123 C 0.26645 0.33170 0.07089
 C3124 C 0.25268 0.33173 0.08211
 C3125 C 0.25295 0.32113 0.09624
 C3126 C 0.26703 0.31036 0.09939
 C3127 C 0.28070 0.31024 0.08789
 C3128 C 0.28039 0.32084 0.07375
 C3129 C 0.26772 0.29986 0.11494
 C3130 C 0.28304 0.29849 0.12417
 C3131 C 0.28338 0.28974 0.13948
 C3132 C 0.26846 0.28218 0.14575
 C3133 C 0.25328 0.28305 0.13644
 C3134 C 0.25290 0.29180 0.12113
 C3135 C 0.26833 0.27497 0.16239
 C3136 C 0.26790 0.26985 0.17667
 H3137 H 0.24187 0.34014 0.08008
 H3138 H 0.24235 0.32174 0.10496
 H3139 H 0.29163 0.30197 0.08984
 H3140 H 0.29113 0.32071 0.06516
 H3141 H 0.29461 0.30473 0.11989
 H3142 H 0.29516 0.28932 0.14666
 H3143 H 0.24163 0.27733 0.14120
 H3144 H 0.24097 0.29242 0.11423
 C3145 C 0.77007 0.85326 0.54489
 C3146 C 0.76994 0.84328 0.55644
 C3147 C 0.77006 0.83159 0.57042
 C3148 C 0.75549 0.82974 0.58044
 C3149 C 0.75586 0.81904 0.59450
 C3150 C 0.77086 0.81004 0.59875
 C3151 C 0.78537 0.81179 0.58844
 C3152 C 0.78495 0.82250 0.57438
 C3153 C 0.77153 0.79948 0.61426
 C3154 C 0.78607 0.79989 0.62473
 C3155 C 0.78620 0.79103 0.63998
 C3156 C 0.77186 0.78158 0.64496
 C3157 C 0.75753 0.78069 0.63442
 C3158 C 0.75736 0.78954 0.61917
 C3159 C 0.77122 0.77420 0.66152
 C3160 C 0.77025 0.76893 0.67572
 H3161 H 0.74391 0.83678 0.57756
 H3162 H 0.74456 0.81818 0.60230
 H3163 H 0.79704 0.80491 0.59126
 H3164 H 0.79632 0.82382 0.56671
 H3165 H 0.79709 0.80758 0.62144
 H3166 H 0.79729 0.79198 0.64811
 H3167 H 0.74631 0.77350 0.63819
 H3168 H 0.74607 0.78878 0.61131
 C3169 C 0.23260 0.64816 0.54505
 C3170 C 0.23294 0.65823 0.55656
 C3171 C 0.23307 0.66999 0.57053
 C3172 C 0.21910 0.68084 0.57331
 C3173 C 0.21880 0.69160 0.58738
 C3174 C 0.23249 0.69164 0.59889
 C3175 C 0.24660 0.68088 0.59582
 C3176 C 0.24687 0.67014 0.58175
 C3177 C 0.23178 0.70224 0.61441
 C3178 C 0.24658 0.71038 0.62063
 C3179 C 0.24620 0.71916 0.63595
 C3180 C 0.23104 0.72000 0.64525
 C3181 C 0.21613 0.71238 0.63894
 C3182 C 0.21647 0.70360 0.62362
 C3183 C 0.23118 0.72717 0.66194
 C3184 C 0.23159 0.73222 0.67626
 H3185 H 0.20835 0.68084 0.56471
 H3186 H 0.20785 0.69985 0.58928
 H3187 H 0.25722 0.68039 0.60456
 H3188 H 0.25770 0.66173 0.57979
 H3189 H 0.25850 0.70977 0.61374
 H3190 H 0.25785 0.72492 0.64075
 H3191 H 0.20436 0.71277 0.64612
 H3192 H 0.20492 0.69729 0.61932
 C3193 C 0.73197 0.14661 0.04571
 C3194 C 0.73202 0.15661 0.05729
 C3195 C 0.73169 0.16820 0.07139
 C3196 C 0.74456 0.18050 0.07348
 C3197 C 0.74443 0.19133 0.08752
 C3198 C 0.73141 0.18998 0.09966
 C3199 C 0.71841 0.17772 0.09728
 C3200 C 0.71857 0.16693 0.08326
 C3201 C 0.73175 0.20071 0.11511
 C3202 C 0.71648 0.20715 0.12207
 C3203 C 0.71670 0.21600 0.13737
 C3204 C 0.73217 0.21860 0.14589
 C3205 C 0.74747 0.21269 0.13883
 C3206 C 0.74728 0.20384 0.12355
 C3207 C 0.73229 0.22587 0.16253
 C3208 C 0.73277 0.23098 0.17683
 H3209 H 0.75476 0.18164 0.06435
 H3210 H 0.75452 0.20074 0.08888
 H3211 H 0.70837 0.17614 0.10650
 H3212 H 0.70857 0.15742 0.08180
 H3213 H 0.70435 0.20516 0.11578
 H3214 H 0.70477 0.22043 0.14274
 H3215 H 0.75950 0.21445 0.14539
 H3216 H 0.75922 0.19886 0.11869
 C3217 C 0.76929 0.14695 0.95586
 C3218 C 0.76921 0.15676 0.94417
 C3219 C 0.76955 0.16814 0.92995
 C3220 C 0.75775 0.18154 0.92862
 C3221 C 0.75791 0.19224 0.91454
 C3222 C 0.76991 0.18967 0.90160
 C3223 C 0.78183 0.17628 0.90318
 C3224 C 0.78164 0.16561 0.91724
 C3225 C 0.76960 0.20040 0.88619
 C3226 C 0.78493 0.20542 0.87833
 C3227 C 0.78459 0.21428 0.86308
 C3228 C 0.76893 0.21831 0.85550
 C3229 C 0.75362 0.21382 0.86346
 C3230 C 0.75393 0.20496 0.87870
 C3231 C 0.76850 0.22560 0.83890
 C3232 C 0.76777 0.23077 0.82465
 H3233 H 0.74836 0.18365 0.93841
 H3234 H 0.74868 0.20254 0.91379
 H3235 H 0.79104 0.17376 0.89334
 H3236 H 0.79081 0.15525 0.91811
 H3237 H 0.79720 0.20231 0.88387
 H3238 H 0.79653 0.21761 0.85700
 H3239 H 0.74142 0.21670 0.85764
 H3240 H 0.74190 0.20110 0.88428
 C3241 C 0.26966 0.64697 0.45444
 C3242 C 0.26965 0.65677 0.44275
 C3243 C 0.27003 0.66817 0.42854
 C3244 C 0.28222 0.66574 0.41591
 C3245 C 0.28245 0.67645 0.40187
 C3246 C 0.27047 0.68979 0.40024
 C3247 C 0.25837 0.69226 0.41311
 C3248 C 0.25817 0.68152 0.42717
 C3249 C 0.27020 0.70056 0.38486
 C3250 C 0.25456 0.70507 0.37729
 C3251 C 0.25430 0.71398 0.36208
 C3252 C 0.26964 0.71858 0.35423
 C3253 C 0.28527 0.71460 0.36189
 C3254 C 0.28557 0.70569 0.37711
 C3255 C 0.26928 0.72591 0.33764
 C3256 C 0.26864 0.73111 0.32340
 H3257 H 0.29144 0.65543 0.41681
 H3258 H 0.29175 0.67401 0.39209
 H3259 H 0.24909 0.70251 0.41233
 H3260 H 0.24870 0.68355 0.43689
 H3261 H 0.24252 0.70113 0.38279
 H3262 H 0.24213 0.71682 0.35619
 H3263 H 0.29724 0.71801 0.35590
 H3264 H 0.29781 0.70263 0.38272
 C3265 C 0.73321 0.85240 0.45428
 C3266 C 0.73354 0.84235 0.44275
 C3267 C 0.73365 0.83064 0.42874
 C3268 C 0.74758 0.83031 0.41773
 C3269 C 0.74729 0.81966 0.40360
 C3270 C 0.73301 0.80917 0.40026
 C3271 C 0.71918 0.80938 0.41156
 C3272 C 0.71951 0.82005 0.42570
 C3273 C 0.73229 0.79868 0.38465
 C3274 C 0.71707 0.79767 0.37521
 C3275 C 0.71674 0.78899 0.35983
 C3276 C 0.73157 0.78115 0.35370
 C3277 C 0.74663 0.78165 0.36322
 C3278 C 0.74699 0.79032 0.37860
 C3279 C 0.73177 0.77405 0.33698
 C3280 C 0.73226 0.76906 0.32264
 H3281 H 0.75855 0.83853 0.41990
 H3282 H 0.75802 0.82001 0.39503
 H3283 H 0.70810 0.80133 0.40945
 H3284 H 0.70865 0.82019 0.43413
 H3285 H 0.70559 0.80415 0.37939
 H3286 H 0.70505 0.78886 0.35249
 H3287 H 0.75822 0.77571 0.35856
 H3288 H 0.75884 0.79067 0.38567
 C3289 C 0.23084 0.35355 0.95418
 C3290 C 0.23104 0.34396 0.94228
 C3291 C 0.23083 0.33280 0.92784
 C3292 C 0.21775 0.33433 0.91592
 C3293 C 0.21764 0.32389 0.90165
 C3294 C 0.23066 0.31172 0.89907
 C3295 C 0.24366 0.31014 0.91123
 C3296 C 0.24374 0.32061 0.92551
 C3297 C 0.23097 0.30127 0.88343
 C3298 C 0.24648 0.29833 0.87495
 C3299 C 0.24663 0.28969 0.85955
 C3300 C 0.23133 0.28382 0.85242
 C3301 C 0.21588 0.28625 0.86097
 C3302 C 0.21569 0.29488 0.87639
 C3303 C 0.23138 0.27669 0.83571
 C3304 C 0.23170 0.27165 0.82139
 H3305 H 0.20772 0.34376 0.91756
 H3306 H 0.20761 0.32564 0.89243
 H3307 H 0.25376 0.30078 0.90970
 H3308 H 0.25390 0.31927 0.93468
 H3309 H 0.25842 0.30327 0.87989
 H3310 H 0.25865 0.28805 0.85296
 H3311 H 0.20394 0.28183 0.85555
 H3312 H 0.20357 0.29674 0.88270
 C3313 C 0.87648 0.44709 0.74558
 C3314 C 0.86868 0.43440 0.74962
 C3315 C 0.85918 0.41926 0.75414
 C3316 C 0.84299 0.41634 0.74716
 C3317 C 0.83391 0.40145 0.75109
 C3318 C 0.84090 0.38920 0.76208
 C3319 C 0.85712 0.39235 0.76919
 C3320 C 0.86618 0.40727 0.76525
 C3321 C 0.83157 0.37296 0.76554
 C3322 C 0.84042 0.35729 0.76619
 C3323 C 0.83152 0.34187 0.76807
 C3324 C 0.81366 0.34186 0.76942
 C3325 C 0.80477 0.35741 0.76928
 C3326 C 0.81365 0.37286 0.76739
 C3327 C 0.80442 0.32588 0.76927
 C3328 C 0.79685 0.31244 0.76806
 H3329 H 0.83746 0.42549 0.73851
 H3330 H 0.82160 0.39931 0.74518
 H3331 H 0.86278 0.38328 0.77783
 H3332 H 0.87869 0.40941 0.77076
 H3333 H 0.85417 0.35688 0.76457
 H3334 H 0.83853 0.32992 0.76796
 H3335 H 0.79093 0.35758 0.77021
 H3336 H 0.80647 0.38470 0.76718
 C3337 C 0.37614 0.94840 0.24481
 C3338 C 0.36842 0.93569 0.24893
 C3339 C 0.35905 0.92049 0.25352
 C3340 C 0.34282 0.91746 0.24665
 C3341 C 0.33391 0.90247 0.25058
 C3342 C 0.34109 0.89023 0.26145
 C3343 C 0.35733 0.89349 0.26846
 C3344 C 0.36623 0.90851 0.26451
 C3345 C 0.33196 0.87387 0.26486
 C3346 C 0.34098 0.85829 0.26534
 C3347 C 0.33225 0.84276 0.26717
 C3348 C 0.31440 0.84255 0.26862
 C3349 C 0.30535 0.85800 0.26865
 C3350 C 0.31405 0.87355 0.26682
 C3351 C 0.30533 0.82646 0.26840
 C3352 C 0.29792 0.81295 0.26712
 H3353 H 0.33715 0.92660 0.23807
 H3354 H 0.32157 0.90025 0.24475
 H3355 H 0.36315 0.88442 0.27700
 H3356 H 0.37877 0.91072 0.26994
 H3357 H 0.35472 0.85804 0.26363
 H3358 H 0.33939 0.83088 0.26692
 H3359 H 0.29152 0.85801 0.26966
 H3360 H 0.30674 0.88532 0.26673
 C3361 C 0.12304 0.94874 0.75505
 C3362 C 0.13044 0.93585 0.75088
 C3363 C 0.13939 0.92042 0.74619
 C3364 C 0.15538 0.92138 0.73834
 C3365 C 0.16438 0.90640 0.73445
 C3366 C 0.15750 0.89023 0.73837
 C3367 C 0.14130 0.88943 0.74604
 C3368 C 0.13233 0.90441 0.74993
 C3369 C 0.16743 0.87430 0.73514
 C3370 C 0.15916 0.85929 0.72960
 C3371 C 0.16829 0.84398 0.72787
 C3372 C 0.18581 0.84346 0.73156
 C3373 C 0.19423 0.85843 0.73661
 C3374 C 0.18514 0.87375 0.73835
 C3375 C 0.19473 0.82731 0.73180
 C3376 C 0.20197 0.81372 0.73307
 H3377 H 0.16097 0.93370 0.73537
 H3378 H 0.17673 0.90747 0.72839
 H3379 H 0.13575 0.87722 0.74947
 H3380 H 0.12000 0.90350 0.75607
 H3381 H 0.14560 0.85933 0.72681
 H3382 H 0.16159 0.83246 0.72405
 H3383 H 0.20774 0.85815 0.73971
 H3384 H 0.19185 0.88500 0.74285
 C3385 C 0.62367 0.44696 0.25606
 C3386 C 0.63114 0.43408 0.25199
 C3387 C 0.64019 0.41869 0.24737
 C3388 C 0.65598 0.41972 0.23914
 C3389 C 0.66508 0.40480 0.23526
 C3390 C 0.65849 0.38861 0.23957
 C3391 C 0.64249 0.38772 0.24763
 C3392 C 0.63343 0.40265 0.25151
 C3393 C 0.66852 0.37275 0.23628
 C3394 C 0.66029 0.35758 0.23113
 C3395 C 0.66955 0.34236 0.22931
 C3396 C 0.68716 0.34209 0.23256
 C3397 C 0.69554 0.35721 0.23724
 C3398 C 0.68631 0.37244 0.23905
 C3399 C 0.69629 0.32605 0.23270
 C3400 C 0.70370 0.31255 0.23388
 H3401 H 0.66134 0.43206 0.23585
 H3402 H 0.67726 0.40592 0.22889
 H3403 H 0.63718 0.37551 0.25136
 H3404 H 0.62127 0.40169 0.25795
 H3405 H 0.64666 0.35743 0.22868
 H3406 H 0.66289 0.33072 0.22579
 H3407 H 0.70913 0.35713 0.23998
 H3408 H 0.69301 0.38382 0.24325
 C3409 C 0.62453 0.55193 0.24416
 C3410 C 0.63237 0.56468 0.24801
 C3411 C 0.64190 0.57990 0.25232
 C3412 C 0.65751 0.58329 0.24439
 C3413 C 0.66659 0.59825 0.24814
 C3414 C 0.66019 0.61009 0.25991
 C3415 C 0.64456 0.60648 0.26795
 C3416 C 0.63550 0.59149 0.26418
 C3417 C 0.66949 0.62640 0.26324
 C3418 C 0.66046 0.64189 0.26492
 C3419 C 0.66925 0.65741 0.26672
 C3420 C 0.68716 0.65768 0.26694
 C3421 C 0.69626 0.64230 0.26576
 C3422 C 0.68750 0.62676 0.26396
 C3423 C 0.69614 0.67382 0.26674
 C3424 C 0.70341 0.68740 0.26553
 H3425 H 0.66257 0.57445 0.23514
 H3426 H 0.67842 0.60075 0.24152
 H3427 H 0.63937 0.61523 0.27719
 H3428 H 0.62345 0.58899 0.27043
 H3429 H 0.64663 0.64211 0.26419
 H3430 H 0.66206 0.66924 0.26742
 H3431 H 0.71012 0.64234 0.26582
 H3432 H 0.69482 0.61505 0.26294
 C3433 C 0.12380 0.05391 0.74410
 C3434 C 0.13160 0.06666 0.74802
 C3435 C 0.14106 0.08190 0.75238
 C3436 C 0.15672 0.08530 0.74456
 C3437 C 0.16572 0.10032 0.74830
 C3438 C 0.15918 0.11220 0.75994
 C3439 C 0.14351 0.10857 0.76790
 C3440 C 0.13453 0.09352 0.76414
 C3441 C 0.16836 0.12859 0.76321
 C3442 C 0.15923 0.14404 0.76471
 C3443 C 0.16791 0.15963 0.76641
 C3444 C 0.18582 0.16001 0.76671
 C3445 C 0.19501 0.14467 0.76573
 C3446 C 0.18636 0.12907 0.76403
 C3447 C 0.19469 0.17621 0.76637
 C3448 C 0.20189 0.18981 0.76501
 H3449 H 0.16189 0.07644 0.73539
 H3450 H 0.17759 0.10283 0.74174
 H3451 H 0.13821 0.11735 0.77705
 H3452 H 0.12244 0.09101 0.77031
 H3453 H 0.14540 0.14417 0.76390
 H3454 H 0.16065 0.17142 0.76695
 H3455 H 0.20888 0.14481 0.76585
 H3456 H 0.19376 0.11739 0.76315
 C3457 C 0.37576 0.05273 0.25510
 C3458 C 0.36800 0.06541 0.25101
 C3459 C 0.35859 0.08059 0.24644
 C3460 C 0.34262 0.08382 0.25372
 C3461 C 0.33368 0.09879 0.24979
 C3462 C 0.34058 0.11079 0.23851
 C3463 C 0.35656 0.10733 0.23109
 C3464 C 0.36549 0.09233 0.23504
 C3465 C 0.33143 0.12713 0.23507
 C3466 C 0.34053 0.14266 0.23407
 C3467 C 0.33183 0.15819 0.23224
 C3468 C 0.31394 0.15846 0.23131
 C3469 C 0.30480 0.14305 0.23180
 C3470 C 0.31347 0.12749 0.23363
 C3471 C 0.30497 0.17458 0.23157
 C3472 C 0.29765 0.18813 0.23288
 H3473 H 0.33717 0.07487 0.26261
 H3474 H 0.32156 0.10117 0.25594
 H3475 H 0.36215 0.11621 0.22223
 H3476 H 0.37782 0.08996 0.22930
 H3477 H 0.35432 0.14288 0.23536
 H3478 H 0.33904 0.17005 0.23208
 H3479 H 0.29094 0.14308 0.23120
 H3480 H 0.30611 0.11576 0.23412
 C3481 C 0.87716 0.55241 0.75572
 C3482 C 0.86975 0.56523 0.75142
 C3483 C 0.86079 0.58057 0.74657
 C3484 C 0.84521 0.57949 0.73791
 C3485 C 0.83617 0.59438 0.73383
 C3486 C 0.84261 0.61059 0.73836
 C3487 C 0.85840 0.61153 0.74685
 C3488 C 0.86740 0.59664 0.75092
 C3489 C 0.83261 0.62641 0.73491
 C3490 C 0.84090 0.64162 0.73004
 C3491 C 0.83164 0.65682 0.72812
 C3492 C 0.81397 0.65704 0.73098
 C3493 C 0.80553 0.64187 0.73536
 C3494 C 0.81476 0.62666 0.73727
 C3495 C 0.80480 0.67305 0.73108
 C3496 C 0.79730 0.68650 0.73224
 H3497 H 0.83997 0.56713 0.73446
 H3498 H 0.82416 0.59322 0.72714
 H3499 H 0.86359 0.62377 0.75076
 H3500 H 0.87940 0.59764 0.75769
 H3501 H 0.85458 0.64181 0.72791
 H3502 H 0.83834 0.66849 0.72484
 H3503 H 0.79189 0.64192 0.73781
 H3504 H 0.80801 0.61526 0.74124
 C3505 C 0.94789 0.76571 0.16624
 C3506 C 0.93310 0.76431 0.17018
 C3507 C 0.91541 0.76296 0.17469
 C3508 C 0.90378 0.77531 0.16912
 C3509 C 0.88659 0.77424 0.17373
 C3510 C 0.88086 0.76078 0.18398
 C3511 C 0.89263 0.74832 0.18938
 C3512 C 0.90982 0.74942 0.18475
 C3513 C 0.86280 0.76000 0.18948
 C3514 C 0.85410 0.74425 0.19010
 C3515 C 0.83739 0.74342 0.19622
 C3516 C 0.82921 0.75831 0.20175
 C3517 C 0.83762 0.77409 0.20086
 C3518 C 0.85432 0.77495 0.19473
 C3519 C 0.81263 0.75725 0.20933
 C3520 C 0.79900 0.75624 0.21623
 H3521 H 0.90802 0.78580 0.16127
 H3522 H 0.87777 0.78389 0.16925
 H3523 H 0.88862 0.73795 0.19747
 H3524 H 0.91877 0.73983 0.18914
 H3525 H 0.86026 0.73258 0.18594
 H3526 H 0.83097 0.73115 0.19692
 H3527 H 0.83141 0.78566 0.20525
 H3528 H 0.86079 0.78722 0.19460
 C3529 C 0.44515 0.26464 0.66322
 C3530 C 0.43024 0.26349 0.66674
 C3531 C 0.41244 0.26244 0.67091
 C3532 C 0.40129 0.27547 0.66592
 C3533 C 0.38406 0.27480 0.67045
 C3534 C 0.37781 0.26106 0.68004
 C3535 C 0.38908 0.24789 0.68478
 C3536 C 0.40631 0.24859 0.68023
 C3537 C 0.35978 0.26078 0.68567
 C3538 C 0.35044 0.24539 0.68568
 C3539 C 0.33383 0.24493 0.69211
 C3540 C 0.32640 0.25984 0.69854
 C3541 C 0.33543 0.27529 0.69822
 C3542 C 0.35203 0.27578 0.69179
 C3543 C 0.31000 0.25904 0.70652
 C3544 C 0.29654 0.25822 0.71375
 H3545 H 0.40595 0.28621 0.65865
 H3546 H 0.37562 0.28502 0.66649
 H3547 H 0.38467 0.23728 0.69236
 H3548 H 0.41489 0.23847 0.68418
 H3549 H 0.35603 0.23369 0.68086
 H3550 H 0.32692 0.23290 0.69236
 H3551 H 0.32981 0.28686 0.70331
 H3552 H 0.35901 0.28776 0.69214
 C3553 C 0.44505 0.73362 0.83559
 C3554 C 0.43028 0.73532 0.83171
 C3555 C 0.41262 0.73708 0.82716
 C3556 C 0.40059 0.72533 0.83316
 C3557 C 0.38346 0.72670 0.82837
 C3558 C 0.37820 0.73986 0.81752
 C3559 C 0.39037 0.75173 0.81172
 C3560 C 0.40750 0.75033 0.81652
 C3561 C 0.36023 0.74087 0.81176
 C3562 C 0.35199 0.75680 0.81034
 C3563 C 0.33540 0.75780 0.80390
 C3564 C 0.32688 0.74290 0.79885
 C3565 C 0.33481 0.72696 0.80054
 C3566 C 0.35139 0.72593 0.80699
 C3567 C 0.31044 0.74407 0.79094
 C3568 C 0.29694 0.74511 0.78378
 H3569 H 0.40447 0.71505 0.84145
 H3570 H 0.37432 0.71750 0.83316
 H3571 H 0.38672 0.76185 0.80316
 H3572 H 0.41676 0.75944 0.81178
 H3573 H 0.35843 0.76848 0.81411
 H3574 H 0.32934 0.77019 0.80259
 H3575 H 0.32833 0.71538 0.79653
 H3576 H 0.35750 0.71352 0.80773
 C3577 C 0.94964 0.23304 0.33234
 C3578 C 0.93495 0.23474 0.32818
 C3579 C 0.91732 0.23646 0.32347
 C3580 C 0.90511 0.22536 0.33024
 C3581 C 0.88797 0.22679 0.32551
 C3582 C 0.88287 0.23937 0.31395
 C3583 C 0.89523 0.25058 0.30733
 C3584 C 0.91237 0.24911 0.31207
 C3585 C 0.86481 0.24053 0.30846
 C3586 C 0.85695 0.25657 0.30634
 C3587 C 0.84018 0.25764 0.30036
 C3588 C 0.83110 0.24271 0.29647
 C3589 C 0.83869 0.22669 0.29882
 C3590 C 0.85545 0.22559 0.30481
 C3591 C 0.81439 0.24385 0.28912
 C3592 C 0.80064 0.24485 0.28243
 H3593 H 0.90885 0.21556 0.33913
 H3594 H 0.87869 0.21812 0.33095
 H3595 H 0.89170 0.26023 0.29822
 H3596 H 0.92177 0.25774 0.30675
 H3597 H 0.86380 0.26826 0.30925
 H3598 H 0.83440 0.27010 0.29853
 H3599 H 0.83178 0.21507 0.29571
 H3600 H 0.86125 0.21308 0.30612
 C3601 C 0.05249 0.26608 0.33263
 C3602 C 0.06722 0.26444 0.32861
 C3603 C 0.08488 0.26280 0.32406
 C3604 C 0.08994 0.25031 0.31250
 C3605 C 0.10711 0.24897 0.30786
 C3606 C 0.11940 0.26014 0.31476
 C3607 C 0.11420 0.27255 0.32650
 C3608 C 0.09702 0.27386 0.33111
 C3609 C 0.13747 0.25916 0.30934
 C3610 C 0.14674 0.27420 0.30596
 C3611 C 0.16348 0.27327 0.29994
 C3612 C 0.17114 0.25732 0.29730
 C3613 C 0.16216 0.24229 0.30095
 C3614 C 0.14541 0.24319 0.30697
 C3615 C 0.18778 0.25635 0.28981
 C3616 C 0.20145 0.25548 0.28297
 H3617 H 0.08060 0.24173 0.30695
 H3618 H 0.11072 0.23945 0.29862
 H3619 H 0.12342 0.28118 0.33214
 H3620 H 0.09320 0.28353 0.34012
 H3621 H 0.14087 0.28666 0.30747
 H3622 H 0.17031 0.28496 0.29699
 H3623 H 0.16800 0.22989 0.29889
 H3624 H 0.13864 0.23142 0.30967
 C3625 C 0.54892 0.76417 0.82811
 C3626 C 0.56327 0.76202 0.82312
 C3627 C 0.58054 0.75986 0.81745
 C3628 C 0.58430 0.76080 0.80033
 C3629 C 0.60123 0.75955 0.79490
 C3630 C 0.61457 0.75737 0.80658
 C3631 C 0.61062 0.75620 0.82375
 C3632 C 0.59368 0.75747 0.82915
 C3633 C 0.63256 0.75663 0.80087
 C3634 C 0.64402 0.74473 0.80786
 C3635 C 0.66094 0.74395 0.80226
 C3636 C 0.66656 0.75510 0.78970
 C3637 C 0.65530 0.76708 0.78280
 C3638 C 0.63839 0.76786 0.78835
 C3639 C 0.68367 0.75389 0.78336
 C3640 C 0.69779 0.75291 0.77748
 H3641 H 0.57418 0.76265 0.79120
 H3642 H 0.60389 0.76024 0.78158
 H3643 H 0.62066 0.75471 0.83302
 H3644 H 0.59087 0.75684 0.84245
 H3645 H 0.63981 0.73582 0.81740
 H3646 H 0.66957 0.73456 0.80759
 H3647 H 0.65956 0.77574 0.77305
 H3648 H 0.62991 0.77732 0.78293
 C3649 C 0.54824 0.23163 0.67306
 C3650 C 0.56269 0.23369 0.67785
 C3651 C 0.58009 0.23584 0.68316
 C3652 C 0.58751 0.22391 0.69401
 C3653 C 0.60466 0.22556 0.69864
 C3654 C 0.61459 0.23917 0.69244
 C3655 C 0.60698 0.25117 0.68163
 C3656 C 0.58981 0.24949 0.67700
 C3657 C 0.63278 0.24086 0.69733
 C3658 C 0.63965 0.25696 0.70150
 C3659 C 0.65662 0.25842 0.70681
 C3660 C 0.66691 0.24383 0.70795
 C3661 C 0.66030 0.22780 0.70353
 C3662 C 0.64333 0.22631 0.69822
 C3663 C 0.68389 0.24514 0.71465
 C3664 C 0.69788 0.24618 0.72086
 H3665 H 0.58007 0.21328 0.69881
 H3666 H 0.61013 0.21628 0.70719
 H3667 H 0.61437 0.26168 0.67654
 H3668 H 0.58418 0.25871 0.66849
 H3669 H 0.63176 0.26835 0.70110
 H3670 H 0.66161 0.27086 0.71035
 H3671 H 0.66818 0.21643 0.70442
 H3672 H 0.63844 0.21378 0.69486
 C3673 C 0.05074 0.73297 0.17031
 C3674 C 0.06543 0.73501 0.17434
 C3675 C 0.08306 0.73715 0.17884
 C3676 C 0.08760 0.74777 0.19228
 C3677 C 0.10478 0.74958 0.19680
 C3678 C 0.11759 0.74075 0.18791
 C3679 C 0.11289 0.73021 0.17433
 C3680 C 0.09571 0.72844 0.16983
 C3681 C 0.13572 0.74217 0.19309
 C3682 C 0.14616 0.72753 0.19371
 C3683 C 0.16300 0.72871 0.19946
 C3684 C 0.16959 0.74453 0.20459
 C3685 C 0.15943 0.75923 0.20370
 C3686 C 0.14258 0.75807 0.19797
 C3687 C 0.18640 0.74552 0.21175
 C3688 C 0.20023 0.74636 0.21833
 H3689 H 0.07787 0.75453 0.19934
 H3690 H 0.10802 0.75759 0.20745
 H3691 H 0.12250 0.72342 0.16716
 H3692 H 0.09228 0.72023 0.15937
 H3693 H 0.14114 0.71509 0.19023
 H3694 H 0.17075 0.71725 0.20025
 H3695 H 0.16444 0.77152 0.20770
 H3696 H 0.13489 0.76958 0.19742
   
