data_POSCAR
  _audit_creation_date              2014-09-24
  _audit_creation_method            'ToBaCCo'
  _symmetry_space_group_name_H-M    'P1'
  _symmetry_Int_Tables_number       1
  _symmetry_cell_setting            triclinic
  loop_
  _symmetry_equiv_pos_as_xyz
 x,y,z
_cell_length_a 59.6633
_cell_length_b 59.8016
_cell_length_c 59.5821
_cell_angle_alpha 89.814800
_cell_angle_beta 89.809000
_cell_angle_gamma 90.369300
loop_
  _atom_site_label
  _atom_site_type_symbol
  _atom_site_fract_x
  _atom_site_fract_y
  _atom_site_fract_z
C1 C 0.11443 -0.00754 0.23281
 C2 C 0.12902 0.01349 0.23252
 C3 C 0.14272 0.01580 0.25051
 C4 C 0.14059 -0.00339 0.26765
 C5 C 0.13088 -0.02682 0.23581
 C6 C 0.14473 -0.02469 0.25376
 C7 C 0.10185 -0.00671 0.25534
 C8 C 0.11538 -0.00428 0.27366
 H9 H 0.12792 0.02601 0.21938
 H10 H 0.15209 -0.00148 0.28212
 H11 H 0.13116 -0.04129 0.22491
 H12 H 0.08403 -0.00963 0.25692
 C13 C 0.38656 0.00354 0.73299
 C14 C 0.37405 -0.01870 0.73482
 C15 C 0.36099 -0.02084 0.75340
 C16 C 0.36152 -0.00008 0.76872
 C17 C 0.36839 0.02140 0.73470
 C18 C 0.35523 0.01969 0.75330
 C19 C 0.39891 0.00562 0.75394
 C20 C 0.38537 0.00341 0.77394
 H21 H 0.37558 -0.03177 0.72237
 H22 H 0.34997 -0.00209 0.78313
 H23 H 0.36760 0.03559 0.72337
 H24 H 0.41578 0.01219 0.75439
 C25 C 0.88537 0.50152 0.22846
 C26 C 0.86658 0.48419 0.22981
 C27 C 0.85370 0.48535 0.24854
 C28 C 0.86075 0.50416 0.26469
 C29 C 0.87382 0.52406 0.23150
 C30 C 0.86104 0.52563 0.25036
 C31 C 0.89858 0.49838 0.25043
 C32 C 0.88578 0.50004 0.26946
 H33 H 0.86465 0.47098 0.21753
 H34 H 0.85000 0.50541 0.27986
 H35 H 0.87641 0.53796 0.22006
 H36 H 0.91650 0.49631 0.25118
 C37 C 0.61436 0.49843 0.72966
 C38 C 0.63174 0.51720 0.72988
 C39 C 0.64523 0.51744 0.74813
 C40 C 0.64023 0.49845 0.76498
 C41 C 0.62784 0.47694 0.73271
 C42 C 0.64142 0.47682 0.75103
 C43 C 0.60165 0.50078 0.75202
 C44 C 0.61506 0.50059 0.77058
 H45 H 0.63245 0.53010 0.71706
 H46 H 0.65144 0.49839 0.77980
 H47 H 0.62638 0.46282 0.72145
 H48 H 0.58362 0.50123 0.75332
 C49 C 0.23071 0.11276 0.99745
 C50 C 0.22957 0.12796 1.01792
 C51 C 0.24706 0.14241 1.01997
 C52 C 0.26461 0.14036 1.00113
 C53 C 0.23359 0.12864 0.97746
 C54 C 0.25102 0.14326 0.97936
 C55 C 0.25354 0.10116 0.99922
 C56 C 0.27136 0.11545 1.00142
 H57 H 0.21622 0.12676 1.03026
 H58 H 0.27868 0.15244 1.00283
 H59 H 0.22297 0.12804 0.96276
 H60 H 0.25568 0.08337 0.99704
 C61 C 0.72351 0.38286 0.99953
 C62 C 0.72341 0.36708 0.98118
 C63 C 0.74228 0.35247 0.98049
 C64 C 0.75798 0.35650 0.99911
 C65 C 0.72566 0.36946 1.01974
 C66 C 0.74444 0.35462 1.01985
 C67 C 0.74496 0.39469 0.99789
 C68 C 0.76434 0.38035 0.99736
 H69 H 0.71149 0.36838 0.96755
 H70 H 0.77189 0.34449 0.99876
 H71 H 0.71605 0.37311 1.03473
 H72 H 0.74642 0.41228 1.00167
 C73 C 0.23107 0.88544 0.50297
 C74 C 0.23192 0.86951 0.48305
 C75 C 0.25044 0.85651 0.48215
 C76 C 0.26695 0.86067 0.50152
 C77 C 0.23418 0.87055 0.52362
 C78 C 0.25275 0.85755 0.52298
 C79 C 0.25313 0.89888 0.50152
 C80 C 0.27204 0.88604 0.50058
 H81 H 0.21914 0.86923 0.47017
 H82 H 0.28176 0.84960 0.50077
 H83 H 0.22312 0.87107 0.53807
 H84 H 0.25397 0.91680 0.50336
 C85 C 0.73304 0.61523 0.49268
 C86 C 0.73263 0.62979 0.51365
 C87 C 0.75082 0.64327 0.51617
 C88 C 0.76828 0.64095 0.49729
 C89 C 0.73675 0.63162 0.47323
 C90 C 0.75489 0.64528 0.47564
 C91 C 0.75523 0.60244 0.49405
 C92 C 0.77374 0.61573 0.49674
 H93 H 0.71917 0.62894 0.52589
 H94 H 0.78295 0.65223 0.49938
 H95 H 0.72610 0.63211 0.45854
 H96 H 0.75647 0.58464 0.49133
 C97 C -0.00634 0.22712 0.11302
 C98 C 0.01395 0.22752 0.12844
 C99 C 0.01587 0.24614 0.14123
 C100 C -0.00331 0.26288 0.13792
 C101 C -0.02655 0.23075 0.12844
 C102 C -0.02516 0.24940 0.14143
 C103 C -0.00470 0.24905 0.09954
 C104 C -0.00301 0.26779 0.11248
 H105 H 0.02676 0.21474 0.12798
 H106 H -0.00182 0.27796 0.14865
 H107 H -0.04146 0.22034 0.12788
 H108 H -0.00664 0.24991 0.08151
 C109 C 0.00213 0.72790 0.38394
 C110 C -0.01425 0.72765 0.36616
 C111 C -0.01458 0.74728 0.35244
 C112 C 0.00250 0.76371 0.35893
 C113 C 0.02462 0.73243 0.37232
 C114 C 0.02498 0.75111 0.35924
 C115 C -0.00226 0.74965 0.39706
 C116 C -0.00188 0.76850 0.38399
 H117 H -0.02732 0.71500 0.36565
 H118 H 0.00317 0.77884 0.34815
 H119 H 0.03936 0.72233 0.37522
 H120 H -0.00225 0.75063 0.41517
 C121 C 0.50455 0.23232 0.88593
 C122 C 0.48253 0.23440 0.87322
 C123 C 0.48093 0.25290 0.86012
 C124 C 0.50188 0.26800 0.86071
 C125 C 0.52282 0.23405 0.86797
 C126 C 0.52159 0.25255 0.85478
 C127 C 0.50675 0.25443 0.89894
 C128 C 0.50503 0.27323 0.88590
 H129 H 0.46910 0.22219 0.87476
 H130 H 0.50048 0.28279 0.84955
 H131 H 0.53677 0.22255 0.86710
 H132 H 0.51081 0.25526 0.91655
 C133 C 0.49507 0.73299 0.61211
 C134 C 0.51546 0.73180 0.62743
 C135 C 0.51769 0.74924 0.64177
 C136 C 0.49905 0.76676 0.63955
 C137 C 0.47509 0.73584 0.62799
 C138 C 0.47714 0.75322 0.64253
 C139 C 0.49709 0.75578 0.60029
 C140 C 0.49946 0.77354 0.61450
 H141 H 0.52770 0.71854 0.62627
 H142 H 0.50087 0.78078 0.65157
 H143 H 0.46025 0.72534 0.62738
 H144 H 0.49509 0.75789 0.58239
 C145 C 0.88511 1.00277 0.77413
 C146 C 0.87203 1.02293 0.77145
 C147 C 0.85681 1.02279 0.75281
 C148 C 0.85822 1.00200 0.73975
 C149 C 0.86805 0.98367 0.77472
 C150 C 0.85401 0.98300 0.75685
 C151 C 0.89724 1.00021 0.75147
 C152 C 0.88324 0.99961 0.73340
 H153 H 0.87577 1.03774 0.78115
 H154 H 0.84675 1.00070 0.72526
 H155 H 0.86821 0.97075 0.78753
 H156 H 0.91524 1.00058 0.74951
 C157 C 0.38520 0.50037 0.27096
 C158 C 0.37231 0.52207 0.26699
 C159 C 0.35822 0.52152 0.24908
 C160 C 0.35836 0.49909 0.23646
 C161 C 0.36726 0.48214 0.27232
 C162 C 0.35329 0.48123 0.25443
 C163 C 0.39722 0.49631 0.24846
 C164 C 0.38323 0.49568 0.23037
 H165 H 0.37448 0.53677 0.27737
 H166 H 0.34678 0.49844 0.22193
 H167 H 0.36691 0.46974 0.28562
 H168 H 0.41523 0.49660 0.24645
 C169 C 0.61579 0.99913 0.27170
 C170 C 0.63105 0.97902 0.26780
 C171 C 0.64484 0.98118 0.24972
 C172 C 0.64197 1.00344 0.23682
 C173 C 0.63065 1.01824 0.27263
 C174 C 0.64515 1.02098 0.25369
 C175 C 0.60314 1.00146 0.24936
 C176 C 0.61671 1.00390 0.23092
 H177 H 0.63012 0.96379 0.27767
 H178 H 0.65351 1.00474 0.22229
 H179 H 0.62894 1.03076 0.28561
 H180 H 0.58523 0.99899 0.24803
 C181 C 0.11513 0.49832 0.76881
 C182 C 0.12787 0.47633 0.76563
 C183 C 0.14066 0.47554 0.74670
 C184 C 0.14029 0.49731 0.73282
 C185 C 0.13368 0.51608 0.76833
 C186 C 0.14665 0.51591 0.74956
 C187 C 0.10227 0.50161 0.74686
 C188 C 0.11518 0.50070 0.72794
 H189 H 0.12746 0.46259 0.77746
 H190 H 0.15116 0.49676 0.71769
 H191 H 0.13594 0.52833 0.78149
 H192 H 0.08424 0.50350 0.74651
 C193 C 0.76979 0.88612 0.00204
 C194 C 0.76604 0.87043 0.02205
 C195 C 0.74778 0.85686 0.02020
 C196 C 0.73438 0.86046 -0.00157
 C197 C 0.77004 0.87085 -0.01840
 C198 C 0.75177 0.85740 -0.02041
 C199 C 0.74765 0.89899 0.00028
 C200 C 0.72905 0.88571 -0.00187
 H201 H 0.77671 0.87040 0.03673
 H202 H 0.71966 0.84917 -0.00322
 H203 H 0.78342 0.87126 -0.03075
 H204 H 0.74649 0.91686 0.00252
 C205 C 0.27233 0.38795 0.50459
 C206 C 0.26917 0.37226 0.52471
 C207 C 0.25145 0.35794 0.52291
 C208 C 0.23793 0.36097 0.50111
 C209 C 0.27319 0.37257 0.48423
 C210 C 0.25540 0.35846 0.48227
 C211 C 0.24973 0.39995 0.50277
 C212 C 0.23165 0.38599 0.50062
 H213 H 0.27972 0.37286 0.53945
 H214 H 0.22362 0.34915 0.49949
 H215 H 0.28648 0.37354 0.47181
 H216 H 0.24796 0.41782 0.50470
 C217 C 0.26512 0.60956 -0.00153
 C218 C 0.26348 0.62743 -0.01983
 C219 C 0.24508 0.64058 -0.01837
 C220 C 0.22963 0.63474 0.00160
 C221 C 0.26325 0.62226 0.02054
 C222 C 0.24490 0.63540 0.02236
 C223 C 0.24280 0.59659 -0.00337
 C224 C 0.22407 0.60963 -0.00149
 H225 H 0.27496 0.62828 -0.03394
 H226 H 0.21497 0.64591 0.00319
 H227 H 0.27567 0.62093 0.03371
 H228 H 0.24179 0.57906 -0.00745
 C229 C 0.77213 0.10974 0.49636
 C230 C 0.76991 0.12385 0.47664
 C231 C 0.75160 0.13929 0.47743
 C232 C 0.73897 0.13767 0.49875
 C233 C 0.77357 0.12497 0.51506
 C234 C 0.75526 0.14013 0.51721
 C235 C 0.75023 0.09882 0.49852
 C236 C 0.73164 0.11409 0.49978
 H237 H 0.78121 0.12254 0.46247
 H238 H 0.72501 0.14952 0.50013
 H239 H 0.78817 0.12547 0.52581
 H240 H 0.74764 0.08142 0.49436
 C241 C 1.00269 0.76906 0.88670
 C242 C 1.02271 0.76597 0.87092
 C243 C 1.02064 0.74848 0.85652
 C244 C 0.99864 0.73509 0.85953
 C245 C 0.98237 0.77022 0.87131
 C246 C 0.98012 0.75270 0.85709
 C247 C 1.00052 0.74637 0.89871
 C248 C 0.99813 0.72849 0.88465
 H249 H 1.03762 0.77639 0.87153
 H250 H 0.99676 0.72101 0.84759
 H251 H 0.97025 0.78361 0.87224
 H252 H 1.00258 0.74441 0.91661
 C253 C 0.49775 0.27417 0.38724
 C254 C 0.51912 0.27141 0.37325
 C255 C 0.51910 0.25322 0.35956
 C256 C 0.49739 0.23917 0.36107
 C257 C 0.47873 0.27391 0.37026
 C258 C 0.47833 0.25583 0.35658
 C259 C 0.49550 0.25177 0.39986
 C260 C 0.49556 0.23338 0.38628
 H261 H 0.53336 0.28265 0.37463
 H262 H 0.49731 0.22446 0.34976
 H263 H 0.46584 0.28660 0.36992
 H264 H 0.49538 0.25027 0.41790
 C265 C 0.99811 0.26707 0.61088
 C266 C 0.97984 0.26500 0.62882
 C267 C 0.98155 0.24665 0.64215
 C268 C 1.00170 0.23172 0.63641
 C269 C 1.02015 0.26573 0.62365
 C270 C 1.02224 0.24740 0.63692
 C271 C 0.99654 0.24480 0.59805
 C272 C 0.99870 0.22616 0.61128
 H273 H 0.96551 0.27603 0.62949
 H274 H 1.00347 0.21710 0.64773
 H275 H 1.03318 0.27835 0.62210
 H276 H 0.99238 0.24372 0.58047
 C277 C 0.49934 0.77198 0.11418
 C278 C 0.48113 0.76935 0.13212
 C279 C 0.48299 0.75068 0.14499
 C280 C 0.50325 0.73604 0.13883
 C281 C 0.52142 0.77050 0.12686
 C282 C 0.52368 0.75187 0.13968
 C283 C 0.49786 0.75002 0.10083
 C284 C 0.50020 0.73108 0.11356
 H285 H 0.46670 0.78024 0.13307
 H286 H 0.50516 0.72115 0.14977
 H287 H 0.53431 0.78329 0.12564
 H288 H 0.49344 0.74937 0.08331
 O289 O 0.04385 0.99199 1.05266
 O290 O 0.04691 0.95674 1.03523
 O291 O 0.05269 1.03796 0.99738
 O292 O 0.03603 1.04615 0.96515
 O293 O -0.00247 1.04668 1.04479
 O294 O -0.03743 1.02869 1.04979
 O295 O -0.00893 0.98178 0.93893
 O296 O 0.02758 0.99394 0.93834
 O297 O -0.01413 0.93397 0.99118
 O298 O -0.00361 0.93238 1.02811
 O299 O -0.06140 0.98608 0.98729
 O300 O -0.06162 1.02516 0.99664
 O301 O -0.03977 1.00002 0.95191
 O302 O -0.04408 1.03731 0.97085
 O303 O -0.04915 0.95500 1.00551
 O304 O -0.03013 0.95081 1.04299
 O305 O 0.00366 0.94695 0.95983
 O306 O 0.04178 0.96305 0.95954
 O307 O 0.01278 1.00971 1.06584
 O308 O -0.02644 0.99982 1.06545
 O309 O 0.01595 1.05982 1.01388
 O310 O 0.00441 1.05877 0.97402
 O311 O 0.06513 1.00763 1.01684
 O312 O 0.06273 0.96928 1.00117
 Zr313 Zr 0.03688 0.98648 1.01854
 O314 O 0.01684 0.96537 0.99868
 Zr315 Zr 0.01830 1.03196 0.99251
 O316 O -0.00164 1.01253 0.97092
 Zr317 Zr -0.00827 1.01276 1.03773
 O318 O -0.02996 0.99314 1.01808
 Zr319 Zr 0.01179 0.98038 0.96726
 O320 O 0.03349 1.00089 0.98641
 Zr321 Zr -0.01530 0.96182 1.01250
 O322 O 0.00553 0.98070 1.03408
 Zr323 Zr -0.03313 1.00717 0.98586
 O324 O -0.01390 1.02856 1.00665
 O325 O 0.02338 1.01805 1.02401
 O326 O -0.02024 0.97531 0.98060
 C327 C 0.03211 1.00076 1.06838
 C328 C 0.06807 1.02658 1.00709
 C329 C 0.00674 1.06234 1.03318
 C330 C -0.02839 0.99042 0.93640
 C331 C -0.00589 0.93148 0.97145
 C332 C -0.06435 0.96660 0.99586
 H333 H 0.02430 0.95070 0.99729
 H334 H -0.04457 0.99186 1.02585
 H335 H 0.03301 1.02755 1.03361
 H336 H -0.00273 1.02019 0.95624
 H337 H 0.04195 1.00059 0.94338
 H338 H 0.03339 1.03625 0.95216
 H339 H -0.04339 0.96020 1.04596
 H340 H -0.02037 0.98477 1.06857
 H341 H 0.03995 0.95590 0.94466
 H342 H 0.07713 0.97126 1.00921
 H343 H -0.06557 1.01976 1.01186
 H344 H -0.04282 1.03837 1.03745
 H345 H 0.06209 0.95901 1.04164
 H346 H 0.00999 0.93674 1.03652
 H347 H -0.00972 1.06294 0.98165
 H348 H -0.03432 1.04044 0.95774
 O349 O 0.55190 0.54612 0.49358
 O350 O 0.53438 0.54886 0.45824
 O351 O 0.49687 0.55539 0.53975
 O352 O 0.46468 0.53867 0.54863
 O353 O 0.54393 0.50053 0.54936
 O354 O 0.54837 0.46539 0.53206
 O355 O 0.43774 0.49351 0.48504
 O356 O 0.43769 0.53010 0.49641
 O357 O 0.48958 0.48759 0.43684
 O358 O 0.52659 0.49834 0.43481
 O359 O 0.48533 0.44112 0.48983
 O360 O 0.49506 0.44106 0.52895
 O361 O 0.45046 0.46288 0.50385
 O362 O 0.46971 0.45883 0.54122
 O363 O 0.50360 0.45307 0.45838
 O364 O 0.54130 0.47189 0.45373
 O365 O 0.45848 0.50538 0.44972
 O366 O 0.45880 0.54374 0.46491
 O367 O 0.56485 0.51524 0.51180
 O368 O 0.56399 0.47599 0.50275
 O369 O 0.51334 0.51908 0.56233
 O370 O 0.47341 0.50734 0.56179
 O371 O 0.51633 0.56753 0.50903
 O372 O 0.50056 0.56473 0.47064
 Zr373 Zr 0.51774 0.53912 0.48834
 O374 O 0.49760 0.51894 0.46763
 Zr375 Zr 0.49181 0.52099 0.53449
 O376 O 0.46995 0.50093 0.51548
 Zr377 Zr 0.53658 0.49430 0.51550
 O378 O 0.51665 0.47248 0.49630
 Zr379 Zr 0.46627 0.51406 0.48298
 O380 O 0.48570 0.53588 0.50306
 Zr381 Zr 0.51107 0.48685 0.46465
 O382 O 0.53292 0.50779 0.48308
 Zr383 Zr 0.48452 0.46945 0.51061
 O384 O 0.50557 0.48883 0.53162
 O385 O 0.52323 0.52594 0.52026
 O386 O 0.47925 0.48207 0.47845
 C387 C 0.56753 0.53445 0.50246
 C388 C 0.50662 0.57064 0.52799
 C389 C 0.53257 0.50998 0.56493
 C390 C 0.43504 0.47419 0.49411
 C391 C 0.46987 0.49561 0.43435
 C392 C 0.49370 0.43804 0.47025
 H393 H 0.49619 0.52621 0.45276
 H394 H 0.52423 0.45788 0.49523
 H395 H 0.53295 0.53567 0.52953
 H396 H 0.45533 0.49994 0.52328
 H397 H 0.44295 0.54450 0.50272
 H398 H 0.45171 0.53616 0.53866
 H399 H 0.54410 0.45867 0.46331
 H400 H 0.56706 0.48185 0.48748
 H401 H 0.44388 0.54180 0.45785
 H402 H 0.50872 0.57912 0.47231
 H403 H 0.51024 0.43715 0.52358
 H404 H 0.53601 0.46012 0.54190
 H405 H 0.54093 0.56402 0.46019
 H406 H 0.53538 0.51177 0.43897
 H407 H 0.48103 0.49337 0.56627
 H408 H 0.45673 0.46859 0.54427
 O409 O 0.45526 -0.04378 0.50044
 O410 O 0.47430 -0.04870 0.46605
 O411 O 0.50937 -0.04144 0.54847
 O412 O 0.54036 -0.02097 0.55391
 O413 O 0.45699 0.00806 0.55086
 O414 O 0.44905 0.04050 0.52960
 O415 O 0.56303 0.02053 0.48617
 O416 O 0.56711 -0.01433 0.50190
 O417 O 0.51170 0.01447 0.43746
 O418 O 0.47611 -0.00056 0.43694
 O419 O 0.50982 0.06688 0.48419
 O420 O 0.49879 0.07007 0.52349
 O421 O 0.54658 0.05133 0.50127
 O422 O 0.52624 0.05745 0.53743
 O423 O 0.49367 0.04948 0.45437
 O424 O 0.45828 0.02629 0.45234
 O425 O 0.54447 0.00214 0.45241
 O426 O 0.54846 -0.03381 0.47222
 O427 O 0.43854 -0.01284 0.51500
 O428 O 0.43515 0.02509 0.50169
 O429 O 0.48940 -0.00503 0.56593
 O430 O 0.52755 0.01085 0.56415
 O431 O 0.49217 -0.05894 0.51923
 O432 O 0.50931 -0.05885 0.48090
 Zr433 Zr 0.48866 -0.03358 0.49489
 O434 O 0.50681 -0.01364 0.47193
 Zr435 Zr 0.51148 -0.00765 0.53851
 O436 O 0.53123 0.01268 0.51724
 Zr437 Zr 0.46426 0.01151 0.51644
 O438 O 0.48195 0.03319 0.49469
 Zr439 Zr 0.53712 -0.00343 0.48656
 O440 O 0.51989 -0.02509 0.50908
 Zr441 Zr 0.48977 0.01610 0.46500
 O442 O 0.47011 -0.00500 0.48587
 Zr443 Zr 0.51327 0.04152 0.50852
 O444 O 0.49421 0.02222 0.53174
 O445 O 0.48104 -0.01759 0.52492
 O446 O 0.52061 0.02606 0.47813
 C447 C 0.43818 -0.03310 0.50786
 C448 C 0.50123 -0.05882 0.53875
 C449 C 0.46911 0.00175 0.56744
 C450 C 0.56341 0.04090 0.49294
 C451 C 0.53226 0.00855 0.43594
 C452 C 0.50171 0.06676 0.46426
 H453 H 0.50935 -0.02235 0.45806
 H454 H 0.47279 0.04659 0.49179
 H455 H 0.47212 -0.02718 0.53523
 H456 H 0.54548 0.01629 0.52488
 H457 H 0.56341 -0.02839 0.50996
 H458 H 0.55332 -0.01639 0.54457
 H459 H 0.45391 0.04017 0.46017
 H460 H 0.43318 0.01749 0.48709
 H461 H 0.56323 -0.03095 0.46505
 H462 H 0.50289 -0.07377 0.48449
 H463 H 0.48373 0.07205 0.51691
 H464 H 0.46065 0.04820 0.53861
 H465 H 0.46953 -0.06418 0.46986
 H466 H 0.46861 -0.01416 0.44285
 H467 H 0.51856 0.02449 0.56658
 H468 H 0.53977 0.04922 0.54214
 O469 O -0.05037 0.49835 1.04429
 O470 O -0.05731 0.53205 1.02486
 O471 O -0.05236 0.44895 0.99151
 O472 O -0.03374 0.44144 0.95997
 O473 O 0.00154 0.44948 1.04061
 O474 O 0.03486 0.47121 1.04409
 O475 O 0.00362 0.50948 0.93085
 O476 O -0.03132 0.49286 0.93062
 O477 O 0.00281 0.55967 0.97968
 O478 O -0.01000 0.56205 1.01637
 O479 O 0.05529 0.51368 0.98030
 O480 O 0.05980 0.47542 0.99146
 O481 O 0.03625 0.49602 0.94522
 O482 O 0.04436 0.46015 0.96603
 O483 O 0.03909 0.54389 0.99668
 O484 O 0.01825 0.54780 1.03314
 O485 O -0.01300 0.54328 0.94910
 O486 O -0.04936 0.52314 0.94978
 O487 O -0.01761 0.48534 1.05877
 O488 O 0.02025 0.49951 1.05828
 O489 O -0.01433 0.43274 1.01025
 O490 O -0.00102 0.43309 0.97045
 O491 O -0.06876 0.47848 1.00906
 O492 O -0.07053 0.51625 0.99129
 Zr493 Zr -0.04327 0.50309 1.00995
 O494 O -0.02533 0.52551 0.98917
 Zr495 Zr -0.01875 0.45890 0.98686
 O496 O -0.00070 0.47958 0.96443
 Zr497 Zr 0.00427 0.48329 1.03114
 O498 O 0.02397 0.50443 1.01071
 Zr499 Zr -0.01779 0.50967 0.95877
 O500 O -0.03739 0.48762 0.97877
 Zr501 Zr 0.00588 0.53349 1.00311
 O502 O -0.01313 0.51328 1.02547
 Zr503 Zr 0.02963 0.48937 0.97940
 O504 O 0.01253 0.46678 1.00112
 O505 O -0.02623 0.47373 1.01735
 O506 O 0.01313 0.51909 0.97217
 C507 C -0.03798 0.49184 1.06059
 C508 C -0.06923 0.45880 1.00047
 C509 C -0.00594 0.43234 1.03007
 C510 C 0.02414 0.50350 0.92909
 C511 C -0.00496 0.56019 0.95962
 C512 C 0.05584 0.53371 0.98796
 H513 H -0.03434 0.53915 0.98675
 H514 H 0.03812 0.50778 1.01863
 H515 H -0.03504 0.46376 1.02738
 H516 H 0.00169 0.47147 0.95020
 H517 H -0.04498 0.48494 0.93593
 H518 H -0.03190 0.45097 0.94650
 H519 H 0.03224 0.53998 1.03716
 H520 H 0.01241 0.51387 1.06051
 H521 H -0.04800 0.52960 0.93448
 H522 H -0.08481 0.51273 0.99911
 H523 H 0.06232 0.48142 1.00670
 H524 H 0.04106 0.46099 1.03264
 H525 H -0.07229 0.52823 1.03112
 H526 H -0.02298 0.55646 1.02515
 H527 H 0.01309 0.43089 0.97885
 H528 H 0.03532 0.45536 0.95300
 O529 O 0.01093 0.43376 0.50877
 O530 O -0.00396 0.43441 0.47212
 O531 O 0.06456 0.48199 0.50554
 O532 O 0.06866 0.51815 0.49645
 O533 O 0.01734 0.48420 0.56063
 O534 O -0.02003 0.49661 0.56434
 O535 O 0.00399 0.54633 0.45346
 O536 O 0.03747 0.52827 0.44762
 O537 O -0.04677 0.49707 0.45315
 O538 O -0.05226 0.46300 0.47059
 O539 O -0.04419 0.54453 0.50531
 O540 O -0.02183 0.54860 0.53946
 O541 O -0.00925 0.56115 0.48609
 O542 O 0.00581 0.56120 0.52509
 O543 O -0.06175 0.51459 0.48956
 O544 O -0.06353 0.47427 0.50264
 O545 O -0.01617 0.51302 0.43652
 O546 O 0.02059 0.49481 0.43310
 O547 O -0.00293 0.44838 0.54124
 O548 O -0.03609 0.46969 0.54937
 O549 O 0.04827 0.49957 0.54407
 O550 O 0.05261 0.53517 0.52359
 O551 O 0.04717 0.45135 0.49084
 O552 O 0.02618 0.45355 0.45472
 Zr553 Zr 0.01362 0.46146 0.48716
 O554 O -0.00756 0.48199 0.46800
 Zr555 Zr 0.03868 0.50527 0.51058
 O556 O 0.01915 0.52755 0.49158
 Zr557 Zr -0.00649 0.48283 0.53466
 O558 O -0.02796 0.50463 0.51728
 Zr559 Zr 0.00870 0.51253 0.46154
 O560 O 0.03091 0.49128 0.47915
 Zr561 Zr -0.03638 0.49050 0.48619
 O562 O -0.01662 0.46759 0.50454
 Zr563 Zr -0.01073 0.53429 0.50896
 O564 O 0.00985 0.51366 0.52910
 O565 O 0.02298 0.47507 0.51790
 O566 O -0.02079 0.52081 0.47838
 C567 C 0.00368 0.43204 0.52899
 C568 C 0.06457 0.46197 0.49778
 C569 C 0.03753 0.49174 0.56109
 C570 C -0.00303 0.56263 0.46549
 C571 C -0.03647 0.50580 0.43630
 C572 C -0.06153 0.53454 0.49744
 H573 H -0.01149 0.47410 0.45396
 H574 H -0.04134 0.50755 0.52660
 H575 H 0.03257 0.46495 0.52683
 H576 H 0.02798 0.54128 0.48852
 H577 H 0.05009 0.51779 0.44977
 H578 H 0.06430 0.52755 0.48353
 H579 H -0.06772 0.48330 0.51587
 H580 H -0.04290 0.45959 0.53813
 H581 H 0.01949 0.50478 0.41982
 H582 H 0.03484 0.43948 0.45549
 H583 H -0.03399 0.53899 0.54552
 H584 H -0.01368 0.51188 0.56561
 H585 H 0.00593 0.42114 0.47168
 H586 H -0.04292 0.44981 0.47394
 H587 H 0.04292 0.53978 0.53626
 H588 H 0.01905 0.56536 0.51592
 O589 O 0.51040 0.93895 0.01270
 O590 O 0.49508 0.93946 -0.02383
 O591 O 0.56444 0.98655 0.00862
 O592 O 0.56887 1.02263 -0.00056
 O593 O 0.51753 0.98974 0.06414
 O594 O 0.48026 1.00252 0.06787
 O595 O 0.50459 1.05123 -0.04337
 O596 O 0.53761 1.03257 -0.04936
 O597 O 0.45298 1.00260 -0.04317
 O598 O 0.44728 0.96862 -0.02558
 O599 O 0.45631 1.05024 0.00867
 O600 O 0.47889 1.05434 0.04263
 O601 O 0.49158 1.06642 -0.01082
 O602 O 0.50658 1.06653 0.02812
 O603 O 0.43836 1.02031 -0.00666
 O604 O 0.43625 0.98014 0.00649
 O605 O 0.48366 1.01815 -0.06002
 O606 O 0.52011 0.99931 -0.06355
 O607 O 0.49691 0.95395 0.04514
 O608 O 0.46393 0.97557 0.05319
 O609 O 0.54856 1.00454 0.04727
 O610 O 0.55318 1.03994 0.02652
 O611 O 0.54659 0.95602 -0.00579
 O612 O 0.52533 0.95807 -0.04166
 Zr613 Zr 0.51313 0.96644 -0.00920
 O614 O 0.49211 0.98707 -0.02841
 Zr615 Zr 0.53884 1.01012 0.01378
 O616 O 0.51945 1.03248 -0.00525
 Zr617 Zr 0.49357 0.98836 0.03826
 O618 O 0.47224 1.01026 0.02081
 Zr619 Zr 0.50868 1.01739 -0.03515
 O620 O 0.53072 0.99600 -0.01750
 Zr621 Zr 0.46350 0.99602 -0.01015
 O622 O 0.48307 0.97302 0.00830
 Zr623 Zr 0.48972 1.03969 0.01221
 O624 O 0.51019 1.01898 0.03239
 O625 O 0.52285 0.98015 0.02140
 O626 O 0.47936 1.02613 -0.01825
 C627 C 0.50332 0.93746 0.03300
 C628 C 0.56417 0.96650 0.00091
 C629 C 0.53782 0.99703 0.06442
 C630 C 0.49790 1.06771 -0.03140
 C631 C 0.46327 1.01117 -0.06012
 C632 C 0.43880 1.04030 0.00108
 H633 H 0.48801 0.97916 -0.04239
 H634 H 0.45894 1.01337 0.03018
 H635 H 0.53242 0.97002 0.03033
 H636 H 0.52844 1.04608 -0.00843
 H637 H 0.55007 1.02193 -0.04719
 H638 H 0.56455 1.03190 -0.01359
 H639 H 0.43239 0.98913 0.01984
 H640 H 0.45700 0.96542 0.04207
 H641 H 0.51906 1.00921 -0.07689
 H642 H 0.53376 0.94386 -0.04085
 H643 H 0.46669 1.04488 0.04884
 H644 H 0.48680 1.01772 0.06902
 H645 H 0.50480 0.92606 -0.02420
 H646 H 0.45640 0.95532 -0.02204
 H647 H 0.54362 1.04475 0.03921
 H648 H 0.51994 1.07037 0.01898
 O649 O 0.43333 0.51097 0.00970
 O650 O 0.43464 0.47437 -0.00502
 O651 O 0.48131 0.50935 0.06327
 O652 O 0.51766 0.50157 0.06743
 O653 O 0.48310 0.56391 0.01521
 O654 O 0.49571 0.56744 -0.02223
 O655 O 0.54697 0.45843 0.00310
 O656 O 0.52867 0.45267 0.03683
 O657 O 0.49828 0.45641 -0.04762
 O658 O 0.46382 0.47275 -0.05325
 O659 O 0.54496 0.50941 -0.04570
 O660 O 0.54835 0.54384 -0.02374
 O661 O 0.56156 0.49106 -0.01061
 O662 O 0.56090 0.53015 0.00417
 O663 O 0.51530 0.49283 -0.06304
 O664 O 0.47473 0.50490 -0.06497
 O665 O 0.51418 0.44060 -0.01676
 O666 O 0.49551 0.43716 0.02008
 O667 O 0.44762 0.54348 -0.00466
 O668 O 0.46917 0.55154 -0.03813
 O669 O 0.49840 0.54816 0.04639
 O670 O 0.53439 0.52869 0.05095
 O671 O 0.45098 0.49375 0.04605
 O672 O 0.45374 0.45772 0.02533
 Zr673 Zr 0.46138 0.49010 0.01246
 O674 O 0.48243 0.47126 -0.00852
 Zr675 Zr 0.50473 0.51481 0.03723
 O676 O 0.52754 0.49617 0.01792
 Zr677 Zr 0.48228 0.53768 -0.00827
 O678 O 0.50462 0.52064 -0.02955
 Zr679 Zr 0.51298 0.46577 0.00785
 O680 O 0.49122 0.48308 0.02986
 Zr681 Zr 0.49097 0.48924 -0.03758
 O682 O 0.46753 0.50719 -0.01803
 Zr683 Zr 0.53433 0.51327 -0.01223
 O684 O 0.51313 0.53309 0.00811
 O685 O 0.47449 0.52117 0.02147
 O686 O 0.52130 0.48238 -0.02188
 C687 C 0.43136 0.53100 0.00222
 C688 C 0.46139 0.50103 0.06340
 C689 C 0.49046 0.56480 0.03541
 C690 C 0.56321 0.47062 -0.00419
 C691 C 0.50724 0.43999 -0.03712
 C692 C 0.53520 0.50110 -0.06294
 H693 H 0.47479 0.45702 -0.01228
 H694 H 0.50754 0.52982 -0.04307
 H695 H 0.46415 0.52991 0.03101
 H696 H 0.54126 0.49353 0.02677
 H697 H 0.51799 0.45466 0.04942
 H698 H 0.52710 0.48871 0.06326
 H699 H 0.48362 0.51825 -0.06931
 H700 H 0.45914 0.54006 -0.04467
 H701 H 0.50571 0.42416 0.01914
 H702 H 0.43951 0.45824 0.03395
 H703 H 0.53876 0.54947 -0.03601
 H704 H 0.51101 0.56908 -0.01605
 H705 H 0.42124 0.47372 0.00488
 H706 H 0.45043 0.47602 -0.04403
 H707 H 0.53890 0.54130 0.04108
 H708 H 0.56517 0.52118 0.01743
 O709 O -0.01785 0.00384 0.56662
 O710 O 0.01990 -0.00867 0.56886
 O711 O -0.01530 0.05645 0.51789
 O712 O -0.00629 0.06122 0.48205
 O713 O -0.06569 0.00300 0.51286
 O714 O -0.06441 -0.03438 0.50050
 O715 O 0.04643 0.00215 0.45786
 O716 O 0.04698 0.03599 0.47637
 O717 O 0.04845 -0.04839 0.50652
 O718 O 0.03020 -0.05584 0.53980
 O719 O -0.00080 -0.05164 0.45641
 O720 O -0.03552 -0.03312 0.44903
 O721 O 0.01679 -0.01495 0.44084
 O722 O -0.02400 -0.00357 0.43826
 O723 O 0.01427 -0.06754 0.48761
 O724 O -0.00011 -0.07018 0.52734
 O725 O 0.06278 -0.01600 0.49209
 O726 O 0.06087 0.02060 0.51093
 O727 O -0.04731 -0.01385 0.54989
 O728 O -0.04915 -0.04852 0.52866
 O729 O -0.05159 0.03563 0.49875
 O730 O -0.02944 0.04191 0.46381
 O731 O -0.00096 0.04095 0.54971
 O732 O 0.03628 0.02290 0.55129
 Zr733 Zr 0.00586 0.00769 0.54056
 O734 O 0.02855 -0.01113 0.52128
 Zr735 Zr -0.01701 0.02991 0.49480
 O736 O 0.00556 0.01283 0.47385
 Zr737 Zr -0.03744 -0.01745 0.51607
 O738 O -0.01647 -0.03663 0.49531
 Zr739 Zr 0.03532 0.00578 0.49108
 O740 O 0.01395 0.02568 0.51108
 Zr741 Zr 0.01425 -0.04168 0.51157
 O742 O -0.00759 -0.02423 0.53342
 Zr743 Zr -0.00795 -0.01868 0.46605
 O744 O -0.03166 -0.00073 0.48538
 O745 O -0.02456 0.01369 0.52469
 O746 O 0.02244 -0.02533 0.48169
 C747 C -0.03741 -0.00528 0.56697
 C748 C -0.00847 0.05750 0.53828
 C749 C -0.06778 0.02303 0.50549
 C750 C 0.03662 -0.00639 0.44075
 C751 C 0.06461 -0.03625 0.49894
 C752 C 0.00748 -0.06821 0.46720
 H753 H 0.04237 -0.01355 0.53008
 H754 H -0.02420 -0.05087 0.49185
 H755 H -0.03496 0.02253 0.53407
 H756 H 0.00864 0.02194 0.46030
 H757 H 0.04280 0.04815 0.48678
 H758 H 0.00848 0.05877 0.47493
 H759 H -0.01283 -0.07533 0.51803
 H760 H -0.03853 -0.05318 0.54049
 H761 H 0.07485 0.02112 0.50189
 H762 H 0.03362 0.03119 0.56542
 H763 H -0.04211 -0.04466 0.45902
 H764 H -0.06557 -0.02813 0.48515
 H765 H 0.01826 0.00104 0.58223
 H766 H 0.02555 -0.04678 0.55284
 H767 H -0.04109 0.03117 0.45883
 H768 H -0.01527 0.00991 0.43399
 O769 O 0.74016 0.18991 0.26586
 O770 O 0.77914 0.19285 0.26134
 O771 O 0.72615 0.24328 0.31329
 O772 O 0.73149 0.28305 0.31282
 O773 O 0.68511 0.23442 0.25438
 O774 O 0.68992 0.24476 0.21607
 O775 O 0.78686 0.30687 0.26087
 O776 O 0.78548 0.29196 0.29578
 O777 O 0.80396 0.25430 0.21656
 O778 O 0.79175 0.21762 0.21208
 O779 O 0.75004 0.29498 0.20039
 O780 O 0.71198 0.29871 0.21274
 O781 O 0.75817 0.31720 0.23797
 O782 O 0.71648 0.31395 0.24208
 O783 O 0.77125 0.26495 0.19089
 O784 O 0.76295 0.22396 0.19165
 O785 O 0.81109 0.27441 0.24814
 O786 O 0.80659 0.25879 0.28633
 O787 O 0.71173 0.20010 0.24257
 O788 O 0.71036 0.21826 0.20664
 O789 O 0.69206 0.25417 0.28623
 O790 O 0.70678 0.29176 0.29126
 O791 O 0.74692 0.21286 0.30390
 O792 O 0.78703 0.21630 0.29169
 Zr793 Zr 0.75830 0.21986 0.27099
 O794 O 0.78085 0.24038 0.25283
 Zr795 Zr 0.72617 0.26316 0.28403
 O796 O 0.74796 0.28535 0.26716
 Zr797 Zr 0.71622 0.23471 0.23746
 O798 O 0.73710 0.25612 0.21845
 Zr799 Zr 0.78072 0.27270 0.26638
 O800 O 0.75944 0.25173 0.28602
 Zr801 Zr 0.77022 0.24450 0.21965
 O802 O 0.74895 0.22173 0.23687
 Zr803 Zr 0.73870 0.28793 0.23329
 O804 O 0.71529 0.26729 0.25070
 O805 O 0.72536 0.23109 0.27087
 O806 O 0.77169 0.27676 0.23278
 C807 C 0.72293 0.18556 0.25369
 C808 C 0.73526 0.22441 0.31780
 C809 C 0.67906 0.24322 0.27306
 C810 C 0.77587 0.32138 0.24952
 C811 C 0.81689 0.26586 0.22926
 C812 C 0.76215 0.28383 0.18656
 H813 H 0.79600 0.23375 0.25332
 H814 H 0.73135 0.25680 0.20293
 H815 H 0.71521 0.22081 0.27918
 H816 H 0.74749 0.29989 0.27498
 H817 H 0.78212 0.28204 0.30870
 H818 H 0.74625 0.27883 0.31895
 H819 H 0.75010 0.23056 0.18361
 H820 H 0.72353 0.20868 0.20382
 H821 H 0.81876 0.27008 0.28758
 H822 H 0.78487 0.20341 0.30199
 H823 H 0.70823 0.28630 0.20247
 H824 H 0.68550 0.25993 0.22093
 H825 H 0.77783 0.18072 0.27268
 H826 H 0.78682 0.20498 0.22168
 H827 H 0.69737 0.29462 0.27792
 H828 H 0.72117 0.31981 0.25686
 O829 O 0.75545 0.70786 0.69788
 O830 O 0.79039 0.70524 0.71551
 O831 O 0.70912 0.69826 0.75354
 O832 O 0.70001 0.71520 0.78512
 O833 O 0.69953 0.75371 0.70562
 O834 O 0.71737 0.78838 0.70036
 O835 O 0.76371 0.76061 0.81182
 O836 O 0.75239 0.72424 0.81227
 O837 O 0.81241 0.76606 0.75963
 O838 O 0.81420 0.75637 0.72267
 O839 O 0.75931 0.81319 0.76296
 O840 O 0.72028 0.81277 0.75382
 O841 O 0.74502 0.79112 0.79882
 O842 O 0.70815 0.79519 0.77932
 O843 O 0.79071 0.80145 0.74486
 O844 O 0.79547 0.78211 0.70776
 O845 O 0.79949 0.74815 0.79092
 O846 O 0.78351 0.71033 0.79123
 O847 O 0.73736 0.73861 0.68460
 O848 O 0.74639 0.77785 0.68505
 O849 O 0.68653 0.73505 0.73640
 O850 O 0.68733 0.74634 0.77626
 O851 O 0.73971 0.68632 0.73412
 O852 O 0.77806 0.68951 0.74961
 Zr853 Zr 0.76039 0.71491 0.73208
 O854 O 0.78115 0.73525 0.75201
 Zr855 Zr 0.71443 0.73283 0.75782
 O856 O 0.73356 0.75303 0.77946
 Zr857 Zr 0.73356 0.75954 0.71272
 O858 O 0.75284 0.78147 0.73248
 Zr859 Zr 0.76595 0.74012 0.78340
 O860 O 0.74577 0.71818 0.76415
 Zr861 Zr 0.78444 0.76740 0.73829
 O862 O 0.76588 0.74629 0.71665
 Zr863 Zr 0.73864 0.78458 0.76465
 O864 O 0.71757 0.76503 0.74375
 O865 O 0.72853 0.72784 0.72635
 O866 O 0.77079 0.77223 0.77019
 C867 C 0.74685 0.71956 0.68205
 C868 C 0.72092 0.68300 0.74415
 C869 C 0.68385 0.74453 0.71726
 C870 C 0.75443 0.77972 0.81445
 C871 C 0.81503 0.75753 0.77923
 C872 C 0.77871 0.81654 0.75419
 H873 H 0.79591 0.72795 0.75344
 H874 H 0.75392 0.79603 0.72465
 H875 H 0.71918 0.71807 0.71673
 H876 H 0.72572 0.75397 0.79407
 H877 H 0.74588 0.70985 0.80722
 H878 H 0.71014 0.71742 0.79802
 H879 H 0.78577 0.79508 0.70454
 H880 H 0.76162 0.77209 0.68206
 H881 H 0.79049 0.71213 0.80621
 H882 H 0.77633 0.67505 0.74170
 H883 H 0.72552 0.81664 0.73853
 H884 H 0.70776 0.79391 0.71271
 H885 H 0.78845 0.68998 0.70929
 H886 H 0.81033 0.74220 0.71506
 H887 H 0.68300 0.76040 0.76864
 H888 H 0.70480 0.78520 0.79219
 O889 O 0.29344 0.19882 0.75152
 O890 O 0.29510 0.21045 0.71363
 O891 O 0.30380 0.26127 0.78713
 O892 O 0.28652 0.29380 0.79145
 O893 O 0.25020 0.21479 0.80642
 O894 O 0.21378 0.20784 0.79164
 O895 O 0.23983 0.30938 0.72575
 O896 O 0.27695 0.31143 0.73570
 O897 O 0.23183 0.25091 0.68698
 O898 O 0.24400 0.21437 0.69041
 O899 O 0.18736 0.26174 0.74005
 O900 O 0.18850 0.25918 0.77982
 O901 O 0.20953 0.29928 0.74696
 O902 O 0.20684 0.28614 0.78743
 O903 O 0.19861 0.23876 0.71185
 O904 O 0.21821 0.20182 0.71242
 O905 O 0.25004 0.28369 0.69407
 O906 O 0.28928 0.28591 0.70737
 O907 O 0.26300 0.18864 0.77249
 O908 O 0.22345 0.18759 0.76497
 O909 O 0.26898 0.24722 0.81354
 O910 O 0.25574 0.28618 0.80700
 O911 O 0.31521 0.23712 0.75994
 O912 O 0.31097 0.24599 0.71938
 Zr913 Zr 0.28607 0.23163 0.74072
 O914 O 0.26505 0.24791 0.71756
 Zr915 Zr 0.26903 0.26432 0.78252
 O916 O 0.24814 0.28245 0.76074
 Zr917 Zr 0.24213 0.21685 0.77215
 O918 O 0.21956 0.23300 0.75052
 Zr919 Zr 0.26033 0.28110 0.72768
 O920 O 0.28294 0.26548 0.75000
 Zr921 Zr 0.23289 0.23369 0.71785
 O922 O 0.25457 0.21545 0.73909
 Zr923 Zr 0.21652 0.26688 0.75931
 O924 O 0.23678 0.24985 0.78301
 O925 O 0.27389 0.23123 0.77350
 O926 O 0.22822 0.26713 0.72636
 C927 C 0.28201 0.18468 0.76324
 C928 C 0.31884 0.24998 0.77679
 C929 C 0.26052 0.22833 0.81953
 C930 C 0.22061 0.31318 0.73461
 C931 C 0.23944 0.27021 0.68113
 C932 C 0.18371 0.24999 0.72242
 H933 H 0.27176 0.24713 0.70236
 H934 H 0.20501 0.22505 0.75126
 H935 H 0.28414 0.22329 0.78380
 H936 H 0.24725 0.29808 0.76602
 H937 H 0.29161 0.30730 0.74222
 H938 H 0.28369 0.30484 0.77943
 H939 H 0.20563 0.19998 0.72314
 H940 H 0.22880 0.18211 0.75025
 H941 H 0.28698 0.29947 0.69805
 H942 H 0.32555 0.23858 0.72204
 H943 H 0.18553 0.24297 0.77837
 H944 H 0.20945 0.22134 0.80015
 H945 H 0.31039 0.20458 0.71623
 H946 H 0.25747 0.20635 0.69564
 H947 H 0.24220 0.27881 0.81330
 H948 H 0.21651 0.29963 0.78784
 O949 O 0.25381 0.68635 0.23148
 O950 O 0.21662 0.69120 0.24515
 O951 O 0.26426 0.74028 0.18597
 O952 O 0.26229 0.78066 0.18855
 O953 O 0.31343 0.72720 0.23816
 O954 O 0.31469 0.73373 0.27709
 O955 O 0.21788 0.80500 0.25105
 O956 O 0.21363 0.79342 0.21494
 O957 O 0.20341 0.75198 0.29382
 O958 O 0.21310 0.71487 0.29629
 O959 O 0.26374 0.78790 0.30272
 O960 O 0.30006 0.78877 0.28293
 O961 O 0.25066 0.81225 0.26924
 O962 O 0.29024 0.80784 0.25727
 O963 O 0.24115 0.75939 0.31457
 O964 O 0.24537 0.71768 0.31115
 O965 O 0.19326 0.77335 0.26388
 O966 O 0.19152 0.76046 0.22465
 O967 O 0.28628 0.69337 0.25033
 O968 O 0.29318 0.70819 0.28752
 O969 O 0.30360 0.74857 0.20811
 O970 O 0.29097 0.78642 0.20546
 O971 O 0.24168 0.71162 0.19766
 O972 O 0.20509 0.71624 0.21674
 Zr973 Zr 0.23718 0.71737 0.23216
 O974 O 0.21969 0.73849 0.25426
 Zr975 Zr 0.27063 0.75901 0.21534
 O976 O 0.25390 0.78182 0.23626
 Zr977 Zr 0.28493 0.72748 0.25894
 O978 O 0.26942 0.74934 0.28173
 Zr979 Zr 0.22072 0.77134 0.24183
 O980 O 0.23658 0.74995 0.21842
 Zr981 Zr 0.23558 0.74017 0.28551
 O982 O 0.25172 0.71672 0.26439
 Zr983 Zr 0.26851 0.78187 0.26826
 O984 O 0.28680 0.76054 0.24667
 O985 O 0.27062 0.72641 0.22723
 O986 O 0.23511 0.77296 0.27368
 C987 C 0.27269 0.68038 0.23983
 C988 C 0.25226 0.72270 0.18245
 C989 C 0.31762 0.73679 0.21933
 C990 C 0.23138 0.81796 0.26164
 C991 C 0.18956 0.76444 0.28315
 C992 C 0.25280 0.77718 0.31793
 H993 H 0.20410 0.73292 0.25586
 H994 H 0.27765 0.74878 0.29608
 H995 H 0.27864 0.71630 0.21687
 H996 H 0.25427 0.79679 0.22917
 H997 H 0.21453 0.78456 0.20098
 H998 H 0.24681 0.77686 0.18399
 H999 H 0.25998 0.72284 0.31706
 H1000 H 0.27987 0.69886 0.29110
 H1001 H 0.18017 0.77246 0.22571
 H1002 H 0.20425 0.70322 0.20651
 H1003 H 0.30282 0.77717 0.29445
 H1004 H 0.31955 0.74909 0.27310
 H1005 H 0.21496 0.67940 0.23360
 H1006 H 0.21443 0.70260 0.28528
 H1007 H 0.30145 0.78925 0.21799
 H1008 H 0.28370 0.81458 0.24362
 O1009 O 0.18677 0.72845 0.75355
 O1010 O 0.19146 0.74165 0.71622
 O1011 O 0.24229 0.68417 0.76294
 O1012 O 0.27941 0.68559 0.76274
 O1013 O 0.22736 0.73619 0.81279
 O1014 O 0.23375 0.77503 0.81391
 O1015 O 0.30543 0.75002 0.71613
 O1016 O 0.29342 0.71351 0.71186
 O1017 O 0.25150 0.79169 0.70208
 O1018 O 0.21442 0.79342 0.71242
 O1019 O 0.28779 0.80146 0.76202
 O1020 O 0.28951 0.78258 0.79801
 O1021 O 0.31254 0.76852 0.74875
 O1022 O 0.30780 0.75631 0.78891
 O1023 O 0.25905 0.81269 0.73974
 O1024 O 0.21723 0.80836 0.74460
 O1025 O 0.27346 0.76243 0.69183
 O1026 O 0.26093 0.72321 0.69016
 O1027 O 0.19351 0.74769 0.78582
 O1028 O 0.20817 0.78502 0.79249
 O1029 O 0.24909 0.70666 0.80284
 O1030 O 0.28857 0.70677 0.78925
 O1031 O 0.21272 0.69497 0.74143
 O1032 O 0.21701 0.71391 0.70465
 Zr1033 Zr 0.21788 0.72954 0.73665
 O1034 O 0.23866 0.75202 0.71878
 Zr1035 Zr 0.25987 0.71407 0.76983
 O1036 O 0.28249 0.73514 0.75245
 Zr1037 Zr 0.22765 0.75678 0.78419
 O1038 O 0.24936 0.77981 0.76831
 Zr1039 Zr 0.27174 0.74040 0.71936
 O1040 O 0.25076 0.71678 0.73581
 Zr1041 Zr 0.24005 0.78329 0.73453
 O1042 O 0.21683 0.76175 0.75101
 Zr1043 Zr 0.28212 0.76707 0.76701
 O1044 O 0.26093 0.74537 0.78584
 O1045 O 0.22700 0.72506 0.77008
 O1046 O 0.27306 0.77220 0.73366
 C1047 C 0.18062 0.73695 0.77234
 C1048 C 0.22450 0.68012 0.75148
 C1049 C 0.23706 0.71758 0.81692
 C1050 C 0.31834 0.76087 0.72946
 C1051 C 0.26411 0.78132 0.68811
 C1052 C 0.27689 0.81640 0.75117
 H1053 H 0.23299 0.75343 0.70324
 H1054 H 0.24869 0.79414 0.77650
 H1055 H 0.21696 0.71449 0.77816
 H1056 H 0.29760 0.72845 0.75263
 H1057 H 0.28447 0.69962 0.71371
 H1058 H 0.28925 0.68966 0.74997
 H1059 H 0.22252 0.81457 0.75903
 H1060 H 0.19869 0.78830 0.77929
 H1061 H 0.27289 0.72455 0.67862
 H1062 H 0.20413 0.70337 0.70401
 H1063 H 0.27704 0.79281 0.80155
 H1064 H 0.24919 0.77134 0.81862
 H1065 H 0.17984 0.72982 0.71470
 H1066 H 0.20241 0.78201 0.71374
 H1067 H 0.28917 0.71795 0.80146
 H1068 H 0.31550 0.74356 0.78178
 O1069 O 0.25010 0.20753 0.20102
 O1070 O 0.28533 0.20412 0.21770
 O1071 O 0.20511 0.19858 0.25811
 O1072 O 0.19736 0.21563 0.29001
 O1073 O 0.19496 0.25383 0.21045
 O1074 O 0.21298 0.28848 0.20480
 O1075 O 0.26269 0.26009 0.31459
 O1076 O 0.25079 0.22389 0.31548
 O1077 O 0.30966 0.26491 0.26092
 O1078 O 0.31009 0.25494 0.22393
 O1079 O 0.25731 0.31270 0.26582
 O1080 O 0.21816 0.31291 0.25814
 O1081 O 0.24405 0.29087 0.30218
 O1082 O 0.20647 0.29533 0.28390
 O1083 O 0.28797 0.30049 0.24677
 O1084 O 0.29135 0.28107 0.20961
 O1085 O 0.29755 0.24710 0.29258
 O1086 O 0.28097 0.20948 0.29344
 O1087 O 0.23208 0.23853 0.18828
 O1088 O 0.24130 0.27765 0.18849
 O1089 O 0.18256 0.23557 0.24170
 O1090 O 0.18490 0.24704 0.28154
 O1091 O 0.23487 0.18620 0.23767
 O1092 O 0.27373 0.18874 0.25217
 Zr1093 Zr 0.25601 0.21440 0.23510
 O1094 O 0.27773 0.23443 0.25431
 Zr1095 Zr 0.21114 0.23304 0.26225
 O1096 O 0.23131 0.25291 0.28326
 Zr1097 Zr 0.22923 0.25942 0.21656
 O1098 O 0.24947 0.28105 0.23567
 Zr1099 Zr 0.26364 0.23954 0.28616
 O1100 O 0.24246 0.21792 0.26759
 Zr1101 Zr 0.28105 0.26653 0.24047
 O1102 O 0.26147 0.24570 0.21947
 Zr1103 Zr 0.23636 0.28437 0.26827
 O1104 O 0.21431 0.26517 0.24806
 O1105 O 0.22418 0.22781 0.23035
 O1106 O 0.26849 0.27157 0.27278
 C1107 C 0.24129 0.21940 0.18543
 C1108 C 0.21633 0.18317 0.24828
 C1109 C 0.17948 0.24489 0.22255
 C1110 C 0.25384 0.27937 0.31749
 C1111 C 0.31282 0.25637 0.28043
 C1112 C 0.27645 0.31577 0.25641
 H1113 H 0.29243 0.22692 0.25527
 H1114 H 0.25050 0.29559 0.22779
 H1115 H 0.21443 0.21818 0.22099
 H1116 H 0.22398 0.25398 0.29812
 H1117 H 0.24386 0.20961 0.31065
 H1118 H 0.20794 0.21769 0.30256
 H1119 H 0.28172 0.29416 0.20667
 H1120 H 0.25643 0.27185 0.18508
 H1121 H 0.28849 0.21120 0.30816
 H1122 H 0.27143 0.17427 0.24441
 H1123 H 0.22262 0.31642 0.24251
 H1124 H 0.20364 0.29394 0.21738
 H1125 H 0.28293 0.18886 0.21162
 H1126 H 0.30568 0.24091 0.21635
 H1127 H 0.18045 0.26107 0.27396
 H1128 H 0.20354 0.28554 0.29701
 O1129 O 0.79678 0.70481 0.24978
 O1130 O 0.79692 0.71629 0.21177
 O1131 O 0.80789 0.76707 0.28505
 O1132 O 0.79061 0.79971 0.28943
 O1133 O 0.75524 0.72046 0.30611
 O1134 O 0.71848 0.71306 0.29264
 O1135 O 0.74118 0.81466 0.22576
 O1136 O 0.77859 0.81711 0.23416
 O1137 O 0.73236 0.75590 0.18739
 O1138 O 0.74494 0.71952 0.19049
 O1139 O 0.68972 0.76669 0.24185
 O1140 O 0.69246 0.76400 0.28186
 O1141 O 0.71179 0.80443 0.24816
 O1142 O 0.71047 0.79137 0.28846
 O1143 O 0.70017 0.74367 0.21339
 O1144 O 0.72009 0.70684 0.21349
 O1145 O 0.75040 0.78893 0.19368
 O1146 O 0.79012 0.79161 0.20553
 O1147 O 0.76726 0.69435 0.27192
 O1148 O 0.72743 0.69284 0.26565
 O1149 O 0.77399 0.75307 0.31255
 O1150 O 0.76042 0.79189 0.30637
 O1151 O 0.81841 0.74312 0.25732
 O1152 O 0.81268 0.75201 0.21692
 Zr1153 Zr 0.78867 0.73745 0.23913
 O1154 O 0.76665 0.75342 0.21671
 Zr1155 Zr 0.77293 0.77006 0.28147
 O1156 O 0.75104 0.78789 0.26041
 Zr1157 Zr 0.74603 0.72232 0.27215
 O1158 O 0.72251 0.73818 0.25135
 Zr1159 Zr 0.76199 0.78659 0.22692
 O1160 O 0.78560 0.77128 0.24844
 Zr1161 Zr 0.73467 0.73887 0.21824
 O1162 O 0.75731 0.72092 0.23868
 Zr1163 Zr 0.71949 0.77206 0.26016
 O1164 O 0.74082 0.75530 0.28313
 O1165 O 0.77768 0.73699 0.27232
 O1166 O 0.72998 0.77230 0.22681
 C1167 C 0.78600 0.69062 0.26203
 C1168 C 0.82261 0.75583 0.27414
 C1169 C 0.76585 0.73412 0.31884
 C1170 C 0.72233 0.81839 0.23541
 C1171 C 0.73952 0.77524 0.18119
 C1172 C 0.68557 0.75487 0.22437
 H1173 H 0.77282 0.75264 0.20129
 H1174 H 0.70806 0.73010 0.25262
 H1175 H 0.78833 0.72918 0.28229
 H1176 H 0.75020 0.80352 0.26570
 H1177 H 0.79350 0.81317 0.24020
 H1178 H 0.78690 0.81076 0.27768
 H1179 H 0.70785 0.70498 0.22460
 H1180 H 0.73242 0.68733 0.25081
 H1181 H 0.78732 0.80507 0.19622
 H1182 H 0.82740 0.74474 0.21907
 H1183 H 0.68916 0.74788 0.28001
 H1184 H 0.71417 0.72660 0.30110
 H1185 H 0.81235 0.71057 0.21384
 H1186 H 0.75867 0.71167 0.19524
 H1187 H 0.74705 0.78453 0.31305
 H1188 H 0.72036 0.80470 0.28878
 O1189 O 0.70029 0.24988 0.78929
 O1190 O 0.71214 0.21234 0.79024
 O1191 O 0.76215 0.28643 0.80116
 O1192 O 0.79513 0.29152 0.78426
 O1193 O 0.71648 0.30568 0.74730
 O1194 O 0.71050 0.29160 0.71042
 O1195 O 0.81221 0.22737 0.73625
 O1196 O 0.81355 0.23660 0.77348
 O1197 O 0.75434 0.18773 0.72685
 O1198 O 0.71740 0.19021 0.73834
 O1199 O 0.76523 0.24210 0.68329
 O1200 O 0.76253 0.28169 0.68564
 O1201 O 0.80264 0.24894 0.70620
 O1202 O 0.78934 0.28892 0.70412
 O1203 O 0.74235 0.21325 0.69364
 O1204 O 0.70508 0.21248 0.71320
 O1205 O 0.78661 0.19505 0.74580
 O1206 O 0.78794 0.20778 0.78520
 O1207 O 0.69045 0.27115 0.75912
 O1208 O 0.69022 0.26447 0.71937
 O1209 O 0.74848 0.31311 0.76665
 O1210 O 0.78788 0.30765 0.75364
 O1211 O 0.73812 0.25848 0.81166
 O1212 O 0.74744 0.21829 0.80657
 Zr1213 Zr 0.73336 0.23985 0.78199
 O1214 O 0.75027 0.21754 0.76058
 Zr1215 Zr 0.76600 0.28253 0.76623
 O1216 O 0.78477 0.26159 0.74501
 Zr1217 Zr 0.71914 0.27178 0.73850
 O1218 O 0.73598 0.25104 0.71561
 Zr1219 Zr 0.78351 0.22838 0.75648
 O1220 O 0.76723 0.24985 0.77945
 Zr1221 Zr 0.73675 0.21819 0.72818
 O1222 O 0.71784 0.23854 0.75021
 Zr1223 Zr 0.76990 0.26051 0.71311
 O1224 O 0.75219 0.28336 0.73376
 O1225 O 0.73285 0.27275 0.77049
 O1226 O 0.77028 0.22741 0.72408
 C1227 C 0.68624 0.26153 0.77796
 C1228 C 0.75065 0.27552 0.81588
 C1229 C 0.72962 0.31882 0.75810
 C1230 C 0.81641 0.23667 0.71727
 C1231 C 0.77347 0.18206 0.73481
 C1232 C 0.75359 0.22448 0.67902
 H1233 H 0.74949 0.20227 0.76699
 H1234 H 0.72825 0.25199 0.70099
 H1235 H 0.72459 0.28263 0.78089
 H1236 H 0.80040 0.26715 0.74440
 H1237 H 0.80912 0.24279 0.78822
 H1238 H 0.80644 0.27996 0.78104
 H1239 H 0.70328 0.22346 0.70089
 H1240 H 0.68475 0.24961 0.72440
 H1241 H 0.80170 0.19882 0.78294
 H1242 H 0.73976 0.22053 0.82117
 H1243 H 0.74638 0.27989 0.68235
 H1244 H 0.72398 0.30056 0.70652
 H1245 H 0.70600 0.21448 0.80558
 H1246 H 0.70950 0.19473 0.75221
 H1247 H 0.78072 0.31397 0.74009
 H1248 H 0.80243 0.28956 0.71423
 C1249 C 0.10034 0.98694 1.17072
 C1250 C 0.07789 0.99334 1.17015
 C1251 C 0.06665 0.99846 1.19010
 C1252 C 0.07796 0.99747 1.21061
 C1253 C 0.10065 0.99102 1.21143
 C1254 C 0.11166 0.98596 1.19111
 C1255 C 0.06688 0.99555 1.14887
 C1256 C 0.05836 0.99736 1.13069
 C1257 C 0.04898 0.99918 1.10913
 C1258 C 0.04124 1.00027 1.09054
 H1259 H 0.10927 0.98321 1.15533
 H1260 H 0.04933 1.00376 1.18975
 H1261 H 0.06903 1.00261 1.22549
 H1262 H 0.12931 0.98184 1.19093
 C1263 C 0.60098 0.49547 0.66720
 C1264 C 0.57897 0.50319 0.66641
 C1265 C 0.56782 0.50881 0.68626
 C1266 C 0.57874 0.50686 0.70691
 C1267 C 0.60096 0.49898 0.70797
 C1268 C 0.61192 0.49352 0.68774
 C1269 C 0.56814 0.50574 0.64509
 C1270 C 0.55958 0.50762 0.62693
 C1271 C 0.55000 0.50928 0.60545
 C1272 C 0.54200 0.51005 0.58696
 H1273 H 0.60984 0.49127 0.65189
 H1274 H 0.55083 0.51505 0.68576
 H1275 H 0.56981 0.51225 0.72168
 H1276 H 0.62921 0.48812 0.68780
 C1277 C 0.43416 0.00174 0.68906
 C1278 C 0.42195 0.00438 0.66923
 C1279 C 0.39875 0.00704 0.67017
 C1280 C 0.38774 0.00708 0.69082
 C1281 C 0.39974 0.00481 0.71105
 C1282 C 0.42316 0.00178 0.70984
 C1283 C 0.43293 0.00376 0.64775
 C1284 C 0.44151 0.00320 0.62946
 C1285 C 0.45112 0.00257 0.60786
 C1286 C 0.45925 0.00212 0.58936
 H1287 H 0.45213 -0.00070 0.68844
 H1288 H 0.38910 0.00881 0.65489
 H1289 H 0.36966 0.00859 0.69098
 H1290 H 0.43305 -0.00117 0.72469
 C1291 C -0.10452 0.50254 1.16532
 C1292 C -0.08206 0.49642 1.16353
 C1293 C -0.06960 0.49209 1.18290
 C1294 C -0.07963 0.49382 1.20408
 C1295 C -0.10230 0.50005 1.20612
 C1296 C -0.11455 0.50428 1.18637
 C1297 C -0.07203 0.49461 1.14171
 C1298 C -0.06413 0.49339 1.12316
 C1299 C -0.05520 0.49238 1.10131
 C1300 C -0.04751 0.49190 1.08264
 H1301 H -0.11433 0.50587 1.15042
 H1302 H -0.05218 0.48724 1.18161
 H1303 H -0.06950 0.48994 1.21851
 H1304 H -0.13208 0.50881 1.18729
 C1305 C -0.07400 0.51164 0.31741
 C1306 C -0.08634 0.50396 0.33590
 C1307 C -0.10775 0.49482 0.33272
 C1308 C -0.11678 0.49339 0.31111
 C1309 C -0.10445 0.50094 0.29237
 C1310 C -0.08297 0.51020 0.29583
 C1311 C -0.07678 0.50522 0.35803
 C1312 C -0.06826 0.50613 0.37634
 C1313 C -0.05772 0.50678 0.39751
 C1314 C -0.04826 0.50677 0.41537
 H1315 H -0.05745 0.51883 0.31967
 H1316 H -0.11745 0.48878 0.34692
 H1317 H -0.13332 0.48619 0.30915
 H1318 H -0.07319 0.51680 0.28196
 C1319 C 0.42692 1.00598 -0.17896
 C1320 C 0.41299 1.00902 -0.16038
 C1321 C 0.38981 1.00999 -0.16337
 C1322 C 0.38057 1.00804 -0.18485
 C1323 C 0.39439 1.00521 -0.20401
 C1324 C 0.41782 1.00405 -0.20045
 C1325 C 0.42262 1.01068 -0.13828
 C1326 C 0.43120 1.01170 -0.11999
 C1327 C 0.44183 1.01234 -0.09883
 C1328 C 0.45137 1.01225 -0.08101
 H1329 H 0.44492 1.00489 -0.17684
 H1330 H 0.37882 1.01229 -0.14906
 H1331 H 0.36261 1.00939 -0.18599
 H1332 H 0.42944 1.00097 -0.21401
 C1333 C 0.60861 0.50994 -0.16659
 C1334 C 0.58761 0.50012 -0.16247
 C1335 C 0.57593 0.48999 -0.18005
 C1336 C 0.58496 0.48994 -0.20169
 C1337 C 0.60584 0.50018 -0.20619
 C1338 C 0.61772 0.50988 -0.18829
 C1339 C 0.57768 0.50062 -0.14041
 C1340 C 0.56865 0.50087 -0.12227
 C1341 C 0.55742 0.50102 -0.10137
 C1342 C 0.54742 0.50107 -0.08374
 H1343 H 0.61784 0.51779 -0.15308
 H1344 H 0.55976 0.48217 -0.17704
 H1345 H 0.57561 0.48164 -0.21481
 H1346 H 0.63384 0.51777 -0.19105
 C1347 C 0.07557 0.00504 0.32264
 C1348 C 0.08803 -0.00314 0.34068
 C1349 C 0.10985 -0.01083 0.33704
 C1350 C 0.11898 -0.01076 0.31536
 C1351 C 0.10634 -0.00320 0.29696
 C1352 C 0.08464 0.00509 0.30100
 C1353 C 0.07811 -0.00402 0.36275
 C1354 C 0.06924 -0.00476 0.38096
 C1355 C 0.05829 -0.00556 0.40201
 C1356 C 0.04856 -0.00607 0.41979
 H1357 H 0.05874 0.01123 0.32527
 H1358 H 0.11970 -0.01712 0.35090
 H1359 H 0.13572 -0.01711 0.31309
 H1360 H 0.07459 0.01170 0.28745
 C1361 C 0.18941 1.06377 1.00542
 C1362 C 0.16930 1.07386 0.99914
 C1363 C 0.16935 1.09588 0.99130
 C1364 C 0.18937 1.10794 0.99004
 C1365 C 0.20985 1.09808 0.99625
 C1366 C 0.20956 1.07581 1.00414
 C1367 C 0.14832 1.06223 1.00167
 C1368 C 0.13030 1.05330 1.00367
 C1369 C 0.10884 1.04360 1.00561
 C1370 C 0.09027 1.03572 1.00670
 H1371 H 0.18945 1.04680 1.01185
 H1372 H 0.15381 1.10395 0.98668
 H1373 H 0.18874 1.12528 0.98483
 H1374 H 0.22455 1.06783 1.01021
 C1375 C 0.68944 0.56819 0.49977
 C1376 C 0.66986 0.57929 0.49355
 C1377 C 0.67098 0.60137 0.48594
 C1378 C 0.69156 0.61249 0.48488
 C1379 C 0.71151 0.60160 0.49105
 C1380 C 0.71013 0.57928 0.49870
 C1381 C 0.64839 0.56860 0.49602
 C1382 C 0.63008 0.56030 0.49808
 C1383 C 0.60841 0.55112 0.50025
 C1384 C 0.58976 0.54349 0.50163
 H1385 H 0.68866 0.55117 0.50604
 H1386 H 0.65586 0.61022 0.48140
 H1387 H 0.69175 0.62992 0.47992
 H1388 H 0.72470 0.57055 0.50477
 C1389 C 0.68281 0.43026 -0.01082
 C1390 C 0.66278 0.42043 -0.00342
 C1391 C 0.66274 0.39857 0.00481
 C1392 C 0.68265 0.38659 0.00588
 C1393 C 0.70332 0.39636 -0.00077
 C1394 C 0.70286 0.41831 -0.00978
 C1395 C 0.64205 0.43242 -0.00453
 C1396 C 0.62428 0.44182 -0.00507
 C1397 C 0.60317 0.45219 -0.00523
 C1398 C 0.58496 0.46071 -0.00497
 H1399 H 0.68288 0.44706 -0.01768
 H1400 H 0.64724 0.39067 0.01022
 H1401 H 0.68183 0.36944 0.01178
 H1402 H 0.71771 0.42626 -0.01661
 C1403 C 0.16825 -0.10384 0.50662
 C1404 C 0.16681 -0.08111 0.50150
 C1405 C 0.18633 -0.06868 0.49727
 C1406 C 0.20730 -0.07901 0.49806
 C1407 C 0.20899 -0.10195 0.50333
 C1408 C 0.18909 -0.11418 0.50741
 C1409 C 0.14516 -0.07082 0.50026
 C1410 C 0.12676 -0.06273 0.49941
 C1411 C 0.10507 -0.05361 0.49873
 C1412 C 0.08653 -0.04582 0.49856
 H1413 H 0.15323 -0.11366 0.50976
 H1414 H 0.18532 -0.05108 0.49307
 H1415 H 0.22185 -0.06899 0.49395
 H1416 H 0.18970 -0.13195 0.51092
 C1417 C 0.33483 -0.10639 0.50974
 C1418 C 0.33820 -0.08441 0.50233
 C1419 C 0.32025 -0.07247 0.49332
 C1420 C 0.29893 -0.08224 0.49224
 C1421 C 0.29511 -0.10413 0.50033
 C1422 C 0.31352 -0.11622 0.50865
 C1423 C 0.35995 -0.07397 0.50415
 C1424 C 0.37803 -0.06495 0.50563
 C1425 C 0.39909 -0.05409 0.50706
 C1426 C 0.41698 -0.04461 0.50781
 H1427 H 0.34864 -0.11587 0.51659
 H1428 H 0.32270 -0.05552 0.48727
 H1429 H 0.28551 -0.07256 0.48499
 H1430 H 0.31160 -0.13310 0.51480
 C1431 C -0.17277 0.38466 1.00186
 C1432 C -0.16934 0.40740 0.99753
 C1433 C -0.18758 0.42082 0.99210
 C1434 C -0.20920 0.41177 0.99157
 C1435 C -0.21330 0.38896 0.99672
 C1436 C -0.19443 0.37546 1.00131
 C1437 C -0.14723 0.41723 0.99870
 C1438 C -0.12904 0.42613 0.99959
 C1439 C -0.10802 0.43716 1.00038
 C1440 C -0.09025 0.44692 1.00070
 H1441 H -0.15870 0.37402 1.00589
 H1442 H -0.18511 0.43840 0.98830
 H1443 H -0.22248 0.42293 0.98664
 H1444 H -0.19590 0.35792 1.00512
 C1445 C -0.17859 0.57539 0.50776
 C1446 C -0.16015 0.58736 0.49942
 C1447 C -0.16309 0.60907 0.49113
 C1448 C -0.18447 0.61858 0.49073
 C1449 C -0.20326 0.60639 0.49842
 C1450 C -0.19994 0.58482 0.50734
 C1451 C -0.13843 0.57700 0.49892
 C1452 C -0.12052 0.56777 0.49847
 C1453 C -0.09982 0.55645 0.49796
 C1454 C -0.08229 0.54653 0.49764
 H1455 H -0.17651 0.55864 0.51440
 H1456 H -0.14890 0.61854 0.48469
 H1457 H -0.18624 0.63520 0.48389
 H1458 H -0.21383 0.57514 0.51404
 C1459 C 0.32114 1.07784 0.01290
 C1460 C 0.33890 1.09054 0.00416
 C1461 C 0.33481 1.11192 -0.00447
 C1462 C 0.31296 1.12034 -0.00484
 C1463 C 0.29485 1.10737 0.00319
 C1464 C 0.29934 1.08618 0.01251
 C1465 C 0.36108 1.08118 0.00348
 C1466 C 0.37933 1.07264 0.00284
 C1467 C 0.40035 1.06193 0.00210
 C1468 C 0.41804 1.05229 0.00155
 H1469 H 0.32411 1.06134 0.01980
 H1470 H 0.34845 1.12196 -0.01122
 H1471 H 0.31033 1.13672 -0.01194
 H1472 H 0.28601 1.07594 0.01951
 C1473 C 0.00548 1.18341 1.06763
 C1474 C -0.00264 1.16396 1.07798
 C1475 C -0.01292 1.16517 1.09903
 C1476 C -0.01486 1.18571 1.10986
 C1477 C -0.00694 1.20554 1.09961
 C1478 C 0.00355 1.20402 1.07842
 C1479 C 0.00037 1.14257 1.06758
 C1480 C 0.00273 1.12439 1.05935
 C1481 C 0.00502 1.10289 1.05011
 C1482 C 0.00630 1.08439 1.04237
 H1483 H 0.01382 1.18256 1.05147
 H1484 H -0.01895 1.15014 1.10734
 H1485 H -0.02193 1.18594 1.12660
 H1486 H 0.01106 1.21852 1.07046
 C1487 C 0.50475 0.69192 0.56371
 C1488 C 0.49743 0.67188 0.57351
 C1489 C 0.48817 0.67195 0.59506
 C1490 C 0.48659 0.69188 0.60698
 C1491 C 0.49384 0.71228 0.59741
 C1492 C 0.50315 0.71197 0.57561
 C1493 C 0.50041 0.65095 0.56218
 C1494 C 0.50274 0.63296 0.55353
 C1495 C 0.50499 0.61150 0.54420
 C1496 C 0.50623 0.59291 0.53666
 H1497 H 0.51230 0.69195 0.54714
 H1498 H 0.48277 0.65646 0.60294
 H1499 H 0.48039 0.69119 0.62407
 H1500 H 0.51010 0.72691 0.56799
 C1501 C -0.00859 0.68306 0.42933
 C1502 C -0.00069 0.66398 0.41842
 C1503 C 0.00833 0.66573 0.39684
 C1504 C 0.00944 0.68645 0.38614
 C1505 C 0.00181 0.70594 0.39694
 C1506 C -0.00749 0.70390 0.41866
 C1507 C -0.00207 0.64246 0.42905
 C1508 C -0.00290 0.62419 0.43750
 C1509 C -0.00345 0.60269 0.44712
 C1510 C -0.00350 0.58431 0.45537
 H1511 H -0.01586 0.68177 0.44598
 H1512 H 0.01431 0.65101 0.38816
 H1513 H 0.01604 0.68726 0.36920
 H1514 H -0.01450 0.71807 0.42732
 C1515 C 0.50552 1.16969 -0.10234
 C1516 C 0.50302 1.16873 -0.07906
 C1517 C 0.50162 1.18849 -0.06665
 C1518 C 0.50258 1.20923 -0.07754
 C1519 C 0.50522 1.21043 -0.10105
 C1520 C 0.50648 1.19031 -0.11324
 C1521 C 0.50139 1.14735 -0.06817
 C1522 C 0.50008 1.12918 -0.05956
 C1523 C 0.49880 1.10774 -0.04984
 C1524 C 0.49809 1.08940 -0.04154
 H1525 H 0.50643 1.15447 -0.11212
 H1526 H 0.49942 1.18785 -0.04860
 H1527 H 0.50060 1.22404 -0.06744
 H1528 H 0.50783 1.19056 -0.13137
 C1529 C 0.50112 0.32170 -0.07308
 C1530 C 0.50806 0.33974 -0.08642
 C1531 C 0.51365 0.33622 -0.10894
 C1532 C 0.51253 0.31470 -0.11803
 C1533 C 0.50595 0.29630 -0.10467
 C1534 C 0.49999 0.30020 -0.08210
 C1535 C 0.50908 0.36182 -0.07694
 C1536 C 0.50956 0.38012 -0.06850
 C1537 C 0.50955 0.40128 -0.05808
 C1538 C 0.50891 0.41911 -0.04874
 H1539 H 0.49647 0.32427 -0.05568
 H1540 H 0.51890 0.35011 -0.11947
 H1541 H 0.51704 0.31267 -0.13545
 H1542 H 0.49410 0.28676 -0.07137
 C1543 C -0.01222 -0.18287 0.42327
 C1544 C 0.00227 -0.16660 0.41435
 C1545 C 0.01463 -0.17121 0.39493
 C1546 C 0.01282 -0.19215 0.38468
 C1547 C -0.00137 -0.20875 0.39377
 C1548 C -0.01404 -0.20382 0.41306
 C1549 C 0.00466 -0.14534 0.42538
 C1550 C 0.00640 -0.12762 0.43484
 C1551 C 0.00784 -0.10693 0.44610
 C1552 C 0.00827 -0.08926 0.45576
 H1553 H -0.02194 -0.17945 0.43825
 H1554 H 0.02593 -0.15876 0.38791
 H1555 H 0.02313 -0.19554 0.37011
 H1556 H -0.02523 -0.21621 0.42033
 C1557 C 0.49486 -0.16310 0.61052
 C1558 C 0.50374 -0.15902 0.58912
 C1559 C 0.51217 -0.17678 0.57651
 C1560 C 0.51124 -0.19857 0.58498
 C1561 C 0.50169 -0.20303 0.60621
 C1562 C 0.49395 -0.18493 0.61907
 C1563 C 0.50355 -0.13684 0.57962
 C1564 C 0.50321 -0.11856 0.57101
 C1565 C 0.50265 -0.09747 0.56028
 C1566 C 0.50205 -0.07971 0.55066
 H1567 H 0.48833 -0.14947 0.62047
 H1568 H 0.51923 -0.17382 0.55998
 H1569 H 0.51801 -0.21191 0.57483
 H1570 H 0.48666 -0.18756 0.63547
 C1571 C -0.01342 0.32968 1.10342
 C1572 C -0.00263 0.33334 1.08281
 C1573 C 0.00861 0.31576 1.07231
 C1574 C 0.00879 0.29454 1.08217
 C1575 C -0.00230 0.29059 1.10269
 C1576 C -0.01322 0.30843 1.11335
 C1577 C -0.00344 0.35492 1.07205
 C1578 C -0.00407 0.37277 1.06262
 C1579 C -0.00476 0.39353 1.05129
 C1580 C -0.00532 0.41122 1.04155
 H1581 H -0.02223 0.34316 1.11167
 H1582 H 0.01708 0.31841 1.05640
 H1583 H 0.01764 0.28122 1.07372
 H1584 H -0.02215 0.30583 1.12900
 C1585 C 0.73742 0.32679 0.07556
 C1586 C 0.75945 0.32152 0.08107
 C1587 C 0.77655 0.32517 0.06526
 C1588 C 0.77165 0.33498 0.04437
 C1589 C 0.74961 0.34181 0.03926
 C1590 C 0.73252 0.33667 0.05499
 C1591 C 0.76392 0.31321 0.10336
 C1592 C 0.76573 0.30669 0.12248
 C1593 C 0.76594 0.29919 0.14503
 C1594 C 0.76481 0.29252 0.16416
 H1595 H 0.72394 0.32364 0.08742
 H1596 H 0.79372 0.32098 0.06927
 H1597 H 0.78543 0.33836 0.03309
 H1598 H 0.71510 0.34017 0.05153
 C1599 C 0.24618 0.81862 0.57237
 C1600 C 0.26634 0.82223 0.58376
 C1601 C 0.28311 0.83559 0.57395
 C1602 C 0.27932 0.84604 0.55324
 C1603 C 0.25870 0.84328 0.54228
 C1604 C 0.24235 0.82911 0.55179
 C1605 C 0.26874 0.81370 0.60625
 C1606 C 0.26941 0.80674 0.62525
 C1607 C 0.26878 0.79847 0.64747
 C1608 C 0.26718 0.79101 0.66624
 H1609 H 0.23305 0.80839 0.57981
 H1610 H 0.29871 0.83866 0.58271
 H1611 H 0.29186 0.85737 0.54659
 H1612 H 0.22627 0.82688 0.54367
 C1613 C 0.73499 0.68039 0.56458
 C1614 C 0.75453 0.67998 0.57743
 C1615 C 0.77378 0.66952 0.56903
 C1616 C 0.77311 0.65864 0.54824
 C1617 C 0.75310 0.65795 0.53591
 C1618 C 0.73426 0.66947 0.54397
 C1619 C 0.75399 0.68887 0.59983
 C1620 C 0.75253 0.69591 0.61870
 C1621 C 0.75026 0.70396 0.64082
 C1622 C 0.74838 0.71091 0.65969
 H1623 H 0.72003 0.68848 0.57087
 H1624 H 0.78899 0.66909 0.57888
 H1625 H 0.78776 0.64974 0.54241
 H1626 H 0.71872 0.66939 0.53462
 C1627 C 0.22957 0.17954 0.06780
 C1628 C 0.24911 0.18014 0.08066
 C1629 C 0.26882 0.17048 0.07237
 C1630 C 0.26866 0.15935 0.05170
 C1631 C 0.24871 0.15760 0.03939
 C1632 C 0.22936 0.16837 0.04731
 C1633 C 0.24815 0.18912 0.10302
 C1634 C 0.24650 0.19614 0.12189
 C1635 C 0.24417 0.20408 0.14405
 C1636 C 0.24243 0.21091 0.16298
 H1637 H 0.21426 0.18699 0.07400
 H1638 H 0.28404 0.17083 0.08223
 H1639 H 0.28370 0.15102 0.04599
 H1640 H 0.21383 0.16744 0.03798
 C1641 C 0.28038 0.17631 0.93350
 C1642 C 0.26217 0.18726 0.92366
 C1643 C 0.24092 0.18556 0.93351
 C1644 C 0.23763 0.17213 0.95243
 C1645 C 0.25557 0.16021 0.96179
 C1646 C 0.27711 0.16292 0.95260
 C1647 C 0.26440 0.19818 0.90219
 C1648 C 0.26497 0.20640 0.88369
 C1649 C 0.26436 0.21499 0.86160
 C1650 C 0.26297 0.22151 0.84249
 H1651 H 0.29687 0.17735 0.92589
 H1652 H 0.22668 0.19386 0.92601
 H1653 H 0.22088 0.17041 0.95933
 H1654 H 0.29110 0.15370 0.95930
 C1655 C 0.74676 0.69004 0.43180
 C1656 C 0.76803 0.69116 0.42193
 C1657 C 0.78572 0.67891 0.43118
 C1658 C 0.78185 0.66484 0.44967
 C1659 C 0.76021 0.66273 0.45881
 C1660 C 0.74286 0.67592 0.45009
 C1661 C 0.77065 0.70275 0.40086
 C1662 C 0.77135 0.71149 0.38261
 C1663 C 0.77065 0.72057 0.36073
 C1664 C 0.76896 0.72732 0.34173
 H1665 H 0.73292 0.69934 0.42474
 H1666 H 0.80221 0.67948 0.42353
 H1667 H 0.79538 0.65466 0.45590
 H1668 H 0.72606 0.67470 0.45698
 C1669 C 0.27622 0.82918 0.43113
 C1670 C 0.25764 0.81754 0.42258
 C1671 C 0.23772 0.81663 0.43496
 C1672 C 0.23591 0.82823 0.45515
 C1673 C 0.25404 0.84094 0.46327
 C1674 C 0.27447 0.84074 0.45151
 C1675 C 0.25806 0.80811 0.40035
 C1676 C 0.25731 0.80070 0.38155
 C1677 C 0.25569 0.79240 0.35942
 C1678 C 0.25420 0.78546 0.34049
 H1679 H 0.29173 0.83005 0.42165
 H1680 H 0.22325 0.80767 0.42857
 H1681 H 0.22004 0.82797 0.46403
 H1682 H 0.28859 0.85057 0.45737
 C1683 C 0.76999 0.32026 0.93421
 C1684 C 0.75126 0.31420 0.92138
 C1685 C 0.72982 0.31878 0.92944
 C1686 C 0.72699 0.33038 0.94948
 C1687 C 0.74562 0.33787 0.96206
 C1688 C 0.76722 0.33178 0.95458
 C1689 C 0.75345 0.30467 0.89923
 C1690 C 0.75377 0.29740 0.88033
 C1691 C 0.75300 0.28947 0.85796
 C1692 C 0.75191 0.28303 0.83878
 H1693 H 0.78674 0.31679 0.92813
 H1694 H 0.71516 0.31391 0.91989
 H1695 H 0.71000 0.33345 0.95501
 H1696 H 0.78210 0.33723 0.96338
 C1697 C 0.80995 0.44132 0.23766
 C1698 C 0.81301 0.42715 0.25611
 C1699 C 0.82684 0.43399 0.27383
 C1700 C 0.83865 0.45428 0.27242
 C1701 C 0.83684 0.46775 0.25320
 C1702 C 0.82179 0.46148 0.23620
 C1703 C 0.80404 0.40472 0.25547
 C1704 C 0.79723 0.38573 0.25410
 C1705 C 0.78976 0.36335 0.25209
 C1706 C 0.78350 0.34419 0.25056
 H1707 H 0.79937 0.43621 0.22382
 H1708 H 0.82945 0.42309 0.28814
 H1709 H 0.85051 0.45850 0.28545
 H1710 H 0.82028 0.47157 0.22115
 C1711 C 0.31348 0.93816 0.76465
 C1712 C 0.32406 0.91782 0.75985
 C1713 C 0.34702 0.91760 0.75516
 C1714 C 0.35918 0.93756 0.75424
 C1715 C 0.34857 0.95814 0.75802
 C1716 C 0.32574 0.95828 0.76387
 C1717 C 0.31161 0.89711 0.75850
 C1718 C 0.30238 0.87918 0.75668
 C1719 C 0.29271 0.85767 0.75427
 C1720 C 0.28519 0.83898 0.75248
 H1721 H 0.29570 0.93853 0.76834
 H1722 H 0.35544 0.90200 0.75154
 H1723 H 0.37683 0.93698 0.74996
 H1724 H 0.31721 0.97396 0.76670
 C1725 C 0.17697 0.92972 0.28343
 C1726 C 0.18922 0.92079 0.26549
 C1727 C 0.18864 0.93126 0.24448
 C1728 C 0.17506 0.94985 0.24108
 C1729 C 0.16187 0.95828 0.25867
 C1730 C 0.16343 0.94850 0.28006
 C1731 C 0.20029 0.89956 0.26758
 C1732 C 0.20868 0.88128 0.26792
 C1733 C 0.21753 0.85946 0.26688
 C1734 C 0.22428 0.84060 0.26496
 H1735 H 0.17711 0.92162 0.29972
 H1736 H 0.19794 0.92446 0.23045
 H1737 H 0.17419 0.95719 0.22446
 H1738 H 0.15318 0.95445 0.29374
 C1739 C 0.69026 0.43991 0.76743
 C1740 C 0.68102 0.41859 0.76384
 C1741 C 0.65850 0.41648 0.75775
 C1742 C 0.64548 0.43546 0.75442
 C1743 C 0.65477 0.45694 0.75712
 C1744 C 0.67712 0.45904 0.76422
 C1745 C 0.69450 0.39870 0.76487
 C1746 C 0.70447 0.38121 0.76460
 C1747 C 0.71467 0.35999 0.76318
 C1748 C 0.72215 0.34140 0.76120
 H1749 H 0.70770 0.44175 0.77211
 H1750 H 0.65112 0.40011 0.75499
 H1751 H 0.62818 0.43334 0.74936
 H1752 H 0.68465 0.47542 0.76634
 C1753 C 0.67128 0.57006 0.77126
 C1754 C 0.68392 0.57731 0.75271
 C1755 C 0.68640 0.56328 0.73414
 C1756 C 0.67517 0.54274 0.73350
 C1757 C 0.66134 0.53596 0.75145
 C1758 C 0.66008 0.54940 0.77067
 C1759 C 0.69245 0.59987 0.75157
 C1760 C 0.69902 0.61892 0.74984
 C1761 C 0.70640 0.64130 0.74744
 C1762 C 0.71280 0.66039 0.74558
 H1763 H 0.66915 0.58084 0.78568
 H1764 H 0.69609 0.56869 0.71968
 H1765 H 0.67628 0.53266 0.71847
 H1766 H 0.64917 0.54476 0.78446
 C1767 C 0.16807 0.06875 0.27422
 C1768 C 0.17830 0.07782 0.25497
 C1769 C 0.17895 0.06539 0.23516
 C1770 C 0.16847 0.04452 0.23419
 C1771 C 0.15716 0.03578 0.25303
 C1772 C 0.15763 0.04770 0.27329
 C1773 C 0.18670 0.10044 0.25473
 C1774 C 0.19337 0.11947 0.25351
 C1775 C 0.20105 0.14176 0.25147
 C1776 C 0.20779 0.16074 0.24974
 H1777 H 0.16746 0.07827 0.28964
 H1778 H 0.18686 0.07219 0.22021
 H1779 H 0.16851 0.03551 0.21844
 H1780 H 0.14887 0.04135 0.28795
 C1781 C 0.31539 0.06769 0.74636
 C1782 C 0.31882 0.07934 0.76639
 C1783 C 0.33172 0.06973 0.78347
 C1784 C 0.34217 0.04910 0.77998
 C1785 C 0.33993 0.03807 0.75933
 C1786 C 0.32589 0.04720 0.74283
 C1787 C 0.31094 0.10200 0.76821
 C1788 C 0.30471 0.12115 0.76845
 C1789 C 0.29741 0.14357 0.76751
 C1790 C 0.29080 0.16253 0.76590
 H1791 H 0.30549 0.07495 0.73301
 H1792 H 0.33460 0.07866 0.79899
 H1793 H 0.35327 0.04266 0.79273
 H1794 H 0.32403 0.03902 0.72674
 C1795 C 0.81885 0.56874 0.26958
 C1796 C 0.83090 0.58861 0.26568
 C1797 C 0.85317 0.58766 0.25845
 C1798 C 0.86313 0.56708 0.25427
 C1799 C 0.85095 0.54707 0.25722
 C1800 C 0.82891 0.54800 0.26551
 C1801 C 0.82030 0.61011 0.26730
 C1802 C 0.81216 0.62851 0.26743
 C1803 C 0.80313 0.65025 0.26640
 C1804 C 0.79547 0.66879 0.26473
 H1805 H 0.80155 0.56930 0.27512
 H1806 H 0.86267 0.60289 0.25541
 H1807 H 0.88031 0.56682 0.24834
 H1808 H 0.81923 0.53279 0.26790
 C1809 C 0.93896 0.26987 0.18986
 C1810 C 0.91743 0.26765 0.18066
 C1811 C 0.91503 0.26113 0.15829
 C1812 C 0.93382 0.25599 0.14540
 C1813 C 0.95542 0.25726 0.15468
 C1814 C 0.95794 0.26486 0.17683
 C1815 C 0.89747 0.27027 0.19410
 C1816 C 0.87981 0.27111 0.20399
 C1817 C 0.85833 0.27063 0.21411
 C1818 C 0.83956 0.26907 0.22162
 H1819 H 0.94104 0.27486 0.20719
 H1820 H 0.89851 0.25939 0.15095
 H1821 H 0.93143 0.25063 0.12823
 H1822 H 0.97444 0.26600 0.18428
 C1823 C 0.43174 0.78263 0.67557
 C1824 C 0.42162 0.76446 0.68665
 C1825 C 0.43109 0.74320 0.68496
 C1826 C 0.44991 0.73987 0.67147
 C1827 C 0.45958 0.75777 0.65946
 C1828 C 0.45076 0.77932 0.66212
 C1829 C 0.40030 0.76676 0.69779
 C1830 C 0.38193 0.76723 0.70628
 C1831 C 0.36001 0.76628 0.71528
 C1832 C 0.34106 0.76435 0.72218
 H1833 H 0.42444 0.79914 0.67659
 H1834 H 0.42339 0.72900 0.69338
 H1835 H 0.45652 0.72312 0.66982
 H1836 H 0.45770 0.79328 0.65283
 C1837 C 0.44066 0.26454 0.81257
 C1838 C 0.42008 0.26024 0.82325
 C1839 C 0.41949 0.25578 0.84628
 C1840 C 0.43935 0.25457 0.85843
 C1841 C 0.46014 0.25782 0.84772
 C1842 C 0.46068 0.26347 0.82483
 C1843 C 0.39947 0.25891 0.81081
 C1844 C 0.38158 0.25698 0.80165
 C1845 C 0.36009 0.25426 0.79216
 C1846 C 0.34140 0.25203 0.78483
 H1847 H 0.44129 0.26801 0.79473
 H1848 H 0.40369 0.25253 0.85474
 H1849 H 0.43851 0.25045 0.87613
 H1850 H 0.47655 0.26592 0.81626
 C1851 C 0.93992 0.77555 0.32009
 C1852 C 0.92794 0.75692 0.31229
 C1853 C 0.93657 0.73554 0.31549
 C1854 C 0.95626 0.73256 0.32761
 C1855 C 0.96781 0.75096 0.33700
 C1856 C 0.95990 0.77265 0.33212
 C1857 C 0.90588 0.75908 0.30275
 C1858 C 0.88701 0.75944 0.29554
 C1859 C 0.86465 0.75867 0.28777
 C1860 C 0.84548 0.75746 0.28148
 H1861 H 0.93337 0.79224 0.31770
 H1862 H 0.92764 0.72100 0.30927
 H1863 H 0.96222 0.71564 0.32976
 H1864 H 0.96793 0.78736 0.33901
 C1865 C 0.08648 0.76406 0.35176
 C1866 C 0.08753 0.76972 0.32901
 C1867 C 0.06770 0.77136 0.31652
 C1868 C 0.04697 0.76646 0.32663
 C1869 C 0.04606 0.75953 0.34915
 C1870 C 0.06592 0.75902 0.36177
 C1871 C 0.10917 0.77147 0.31836
 C1872 C 0.12766 0.77153 0.31015
 C1873 C 0.14945 0.77018 0.30096
 C1874 C 0.16794 0.76802 0.29306
 H1875 H 0.10167 0.76273 0.36159
 H1876 H 0.06835 0.77563 0.29885
 H1877 H 0.03185 0.76695 0.31664
 H1878 H 0.06559 0.75412 0.37929
 C1879 C 0.57249 0.28140 0.83037
 C1880 C 0.58103 0.26446 0.81666
 C1881 C 0.56849 0.24492 0.81323
 C1882 C 0.54811 0.24177 0.82443
 C1883 C 0.54001 0.25818 0.83914
 C1884 C 0.55202 0.27828 0.84153
 C1885 C 0.60355 0.26590 0.80803
 C1886 C 0.62262 0.26605 0.80129
 C1887 C 0.64500 0.26520 0.79358
 C1888 C 0.66398 0.26381 0.78676
 H1889 H 0.58216 0.29649 0.83333
 H1890 H 0.57497 0.23166 0.80275
 H1891 H 0.53920 0.22606 0.82250
 H1892 H 0.54650 0.29082 0.85328
 C1893 C 0.57061 0.77130 0.66871
 C1894 C 0.57897 0.75170 0.67850
 C1895 C 0.56599 0.73217 0.67844
 C1896 C 0.54530 0.73183 0.66763
 C1897 C 0.53730 0.75105 0.65671
 C1898 C 0.54975 0.77101 0.65794
 C1899 C 0.60145 0.75089 0.68713
 C1900 C 0.62039 0.74936 0.69393
 C1901 C 0.64258 0.74719 0.70173
 C1902 C 0.66149 0.74556 0.70857
 H1903 H 0.58055 0.78652 0.66865
 H1904 H 0.57224 0.71694 0.68601
 H1905 H 0.53589 0.71629 0.66708
 H1906 H 0.54399 0.78596 0.64948
 C1907 C 0.07752 0.24922 0.15397
 C1908 C 0.07745 0.25287 0.17712
 C1909 C 0.05708 0.25655 0.18835
 C1910 C 0.03678 0.25568 0.17649
 C1911 C 0.03685 0.25086 0.15345
 C1912 C 0.05741 0.24822 0.14222
 C1913 C 0.09838 0.25153 0.18902
 C1914 C 0.11651 0.24976 0.19774
 C1915 C 0.13821 0.24748 0.20686
 C1916 C 0.15698 0.24586 0.21413
 H1917 H 0.09313 0.24646 0.14508
 H1918 H 0.05684 0.25943 0.20629
 H1919 H 0.02108 0.25768 0.18541
 H1920 H 0.05783 0.24469 0.12440
 C1921 C -0.06716 0.99115 0.81585
 C1922 C -0.07713 0.99767 0.83604
 C1923 C -0.09872 1.00654 0.83601
 C1924 C -0.11042 1.00871 0.81591
 C1925 C -0.10062 1.00240 0.79532
 C1926 C -0.07884 0.99332 0.79565
 C1927 C -0.06559 0.99480 0.85697
 C1928 C -0.05647 0.99270 0.87483
 C1929 C -0.04632 0.99087 0.89607
 C1930 C -0.03800 0.99011 0.91442
 H1931 H -0.05053 0.98397 0.81577
 H1932 H -0.10670 1.01141 0.85160
 H1933 H -0.12743 1.01492 0.81649
 H1934 H -0.07092 0.98710 0.78062
 C1935 C 0.43250 0.49073 0.31362
 C1936 C 0.42208 0.49779 0.33340
 C1937 C 0.40036 0.50629 0.33273
 C1938 C 0.38897 0.50756 0.31240
 C1939 C 0.39918 0.50062 0.29225
 C1940 C 0.42111 0.49200 0.29317
 C1941 C 0.43329 0.49596 0.35459
 C1942 C 0.44208 0.49481 0.37269
 C1943 C 0.45189 0.49414 0.39412
 C1944 C 0.46009 0.49432 0.41252
 H1945 H 0.44926 0.48389 0.31405
 H1946 H 0.39207 0.51162 0.34800
 H1947 H 0.37188 0.51358 0.31247
 H1948 H 0.42939 0.48553 0.27845
 C1949 C 0.59999 -0.00944 0.33329
 C1950 C 0.57894 0.00055 0.33437
 C1951 C 0.56903 0.00891 0.31487
 C1952 C 0.58035 0.00761 0.29433
 C1953 C 0.60164 -0.00243 0.29296
 C1954 C 0.61134 -0.01074 0.31285
 C1955 C 0.56816 0.00316 0.35578
 C1956 C 0.55970 0.00521 0.37400
 C1957 C 0.55018 0.00720 0.39554
 C1958 C 0.54209 0.00827 0.41403
 H1959 H 0.60795 -0.01566 0.34837
 H1960 H 0.55285 0.01701 0.31563
 H1961 H 0.57274 0.01533 0.27983
 H1962 H 0.62811 -0.01753 0.31279
 C1963 C 0.07886 0.48197 0.81980
 C1964 C 0.07363 0.50295 0.82854
 C1965 C 0.08034 0.52231 0.81712
 C1966 C 0.09309 0.52068 0.79749
 C1967 C 0.09989 0.49965 0.78935
 C1968 C 0.09162 0.48028 0.80022
 C1969 C 0.06212 0.50445 0.84967
 C1970 C 0.05300 0.50515 0.86769
 C1971 C 0.04277 0.50527 0.88900
 C1972 C 0.03423 0.50479 0.90731
 H1973 H 0.07328 0.46686 0.82828
 H1974 H 0.07602 0.53866 0.82354
 H1975 H 0.09799 0.53594 0.78891
 H1976 H 0.09483 0.46375 0.79379
 C1977 C 0.07520 0.48829 0.68005
 C1978 C 0.08718 0.49654 0.66157
 C1979 C 0.10831 0.50635 0.66473
 C1980 C 0.11742 0.50788 0.68632
 C1981 C 0.10542 0.49974 0.70503
 C1982 C 0.08423 0.48982 0.70158
 C1983 C 0.07754 0.49499 0.63950
 C1984 C 0.06891 0.49369 0.62127
 C1985 C 0.05829 0.49239 0.60016
 C1986 C 0.04892 0.49173 0.58227
 H1987 H 0.05889 0.48056 0.67781
 H1988 H 0.11774 0.51282 0.65053
 H1989 H 0.13372 0.51559 0.68830
 H1990 H 0.07474 0.48277 0.71543
 C1991 C 0.57644 1.01157 0.18217
 C1992 C 0.58888 1.00309 0.16422
 C1993 C 0.61096 0.99618 0.16773
 C1994 C 0.62034 0.99714 0.18922
 C1995 C 0.60766 1.00477 0.20762
 C1996 C 0.58574 1.01250 0.20364
 C1997 C 0.57872 1.00114 0.14239
 C1998 C 0.56976 0.99955 0.12434
 C1999 C 0.55885 0.99799 0.10337
 C2000 C 0.54932 0.99715 0.08556
 H2001 H 0.55942 1.01723 0.17963
 H2002 H 0.62083 0.98974 0.15392
 H2003 H 0.63728 0.99129 0.19133
 H2004 H 0.57564 1.01921 0.21711
 C2005 C 0.39070 0.50745 0.16821
 C2006 C 0.41001 0.49515 0.16338
 C2007 C 0.41991 0.48220 0.18020
 C2008 C 0.41086 0.48190 0.20186
 C2009 C 0.39176 0.49460 0.20701
 C2010 C 0.38159 0.50715 0.18988
 C2011 C 0.42023 0.49643 0.14148
 C2012 C 0.42925 0.49757 0.12336
 C2013 C 0.44022 0.49890 0.10235
 C2014 C 0.44982 0.49995 0.08453
 H2015 H 0.38295 0.51761 0.15534
 H2016 H 0.43483 0.47257 0.17666
 H2017 H 0.41889 0.47186 0.21463
 H2018 H 0.36709 0.51737 0.19338
 C2019 C -0.10924 0.00781 0.67058
 C2020 C -0.09003 -0.00493 0.66649
 C2021 C -0.08024 -0.01692 0.68406
 C2022 C -0.08926 -0.01581 0.70569
 C2023 C -0.10823 -0.00264 0.71010
 C2024 C -0.11833 0.00889 0.69225
 C2025 C -0.07975 -0.00514 0.64457
 C2026 C -0.07054 -0.00528 0.62652
 C2027 C -0.05924 -0.00540 0.60563
 C2028 C -0.04934 -0.00541 0.58794
 H2029 H -0.11693 0.01721 0.65711
 H2030 H -0.06542 -0.02689 0.68112
 H2031 H -0.08131 -0.02521 0.71900
 H2032 H -0.13276 0.01933 0.69513
 C2033 C -0.16798 0.89935 1.00801
 C2034 C -0.16674 0.92154 1.00075
 C2035 C -0.18627 0.93290 0.99483
 C2036 C -0.20704 0.92197 0.99591
 C2037 C -0.20854 0.89955 1.00325
 C2038 C -0.18863 0.88840 1.00908
 C2039 C -0.14523 0.93220 0.99868
 C2040 C -0.12688 0.94050 0.99714
 C2041 C -0.10516 0.94971 0.99584
 C2042 C -0.08650 0.95740 0.99538
 H2043 H -0.15290 0.89034 1.01238
 H2044 H -0.18540 0.95002 0.98889
 H2045 H -0.22159 0.93095 0.99017
 H2046 H -0.18898 0.87093 1.01391
 C2047 C 0.33375 0.40474 0.51108
 C2048 C 0.33409 0.42625 0.50190
 C2049 C 0.31417 0.43603 0.49460
 C2050 C 0.29395 0.42417 0.49620
 C2051 C 0.29333 0.40246 0.50553
 C2052 C 0.31362 0.39287 0.51268
 C2053 C 0.35513 0.43773 0.49916
 C2054 C 0.37312 0.44670 0.49705
 C2055 C 0.39450 0.45660 0.49510
 C2056 C 0.41297 0.46473 0.49414
 H2057 H 0.34915 0.39690 0.51648
 H2058 H 0.31436 0.45257 0.48712
 H2059 H 0.27912 0.43180 0.48929
 H2060 H 0.31408 0.37584 0.51888
 C2061 C 0.30915 0.56260 -0.00118
 C2062 C 0.32895 0.57527 -0.00202
 C2063 C 0.32792 0.59854 -0.00320
 C2064 C 0.30723 0.60918 -0.00340
 C2065 C 0.28706 0.59676 -0.00264
 C2066 C 0.28831 0.57324 -0.00140
 C2067 C 0.35047 0.56469 -0.00109
 C2068 C 0.36885 0.55657 -0.00022
 C2069 C 0.39060 0.54761 0.00080
 C2070 C 0.40925 0.54011 0.00156
 H2071 H 0.30983 0.54454 -0.00003
 H2072 H 0.34314 0.60852 -0.00368
 H2073 H 0.30693 0.62728 -0.00385
 H2074 H 0.27348 0.56291 -0.00005
 C2075 C -0.16771 0.09232 0.49055
 C2076 C -0.16833 0.07038 0.49845
 C2077 C -0.18870 0.06076 0.50515
 C2078 C -0.20849 0.07315 0.50402
 C2079 C -0.20828 0.09539 0.49571
 C2080 C -0.18730 0.10476 0.48942
 C2081 C -0.14769 0.05840 0.50059
 C2082 C -0.12980 0.04940 0.50220
 C2083 C -0.10840 0.03980 0.50376
 C2084 C -0.08989 0.03205 0.50476
 H2085 H -0.15193 0.10006 0.48573
 H2086 H -0.18922 0.04386 0.51175
 H2087 H -0.22359 0.06538 0.51048
 H2088 H -0.18591 0.12206 0.48415
 C2089 C 0.66941 0.11205 0.49019
 C2090 C 0.66453 0.08995 0.49632
 C2091 C 0.68162 0.07627 0.50431
 C2092 C 0.70355 0.08440 0.50580
 C2093 C 0.70901 0.10653 0.49927
 C2094 C 0.69139 0.12034 0.49170
 C2095 C 0.64212 0.08098 0.49435
 C2096 C 0.62368 0.07266 0.49305
 C2097 C 0.60241 0.06214 0.49212
 C2098 C 0.58448 0.05265 0.49201
 H2099 H 0.65629 0.12281 0.48390
 H2100 H 0.67803 0.05919 0.50936
 H2101 H 0.71606 0.07326 0.51256
 H2102 H 0.69439 0.13719 0.48581
 C2103 C 0.16105 0.60492 0.98867
 C2104 C 0.15709 0.58230 0.99331
 C2105 C 0.17480 0.56877 1.00027
 C2106 C 0.19642 0.57769 1.00225
 C2107 C 0.20080 0.60035 0.99713
 C2108 C 0.18267 0.61391 0.99065
 C2109 C 0.13490 0.57290 0.99112
 C2110 C 0.11648 0.56461 0.98953
 C2111 C 0.09510 0.55440 0.98816
 C2112 C 0.07704 0.54522 0.98762
 H2113 H 0.14744 0.61562 0.98342
 H2114 H 0.17190 0.55128 1.00420
 H2115 H 0.20958 0.56676 1.00804
 H2116 H 0.18500 0.63140 0.98678
 C2117 C 0.16821 0.39073 0.50521
 C2118 C 0.16467 0.41203 0.49614
 C2119 C 0.18280 0.42432 0.48760
 C2120 C 0.20445 0.41563 0.48862
 C2121 C 0.20837 0.39451 0.49836
 C2122 C 0.18989 0.38198 0.50621
 C2123 C 0.14262 0.42170 0.49617
 C2124 C 0.12443 0.43037 0.49636
 C2125 C 0.10340 0.44104 0.49675
 C2126 C 0.08560 0.45048 0.49718
 H2127 H 0.15427 0.38103 0.51182
 H2128 H 0.18026 0.44075 0.48037
 H2129 H 0.21809 0.42553 0.48174
 H2130 H 0.19209 0.36567 0.51364
 C2131 C 0.66600 0.89260 0.00462
 C2132 C 0.66299 0.91422 -0.00387
 C2133 C 0.68130 0.92602 -0.01271
 C2134 C 0.70262 0.91653 -0.01256
 C2135 C 0.70604 0.89507 -0.00339
 C2136 C 0.68735 0.88304 0.00476
 C2137 C 0.64132 0.92465 -0.00297
 C2138 C 0.62342 0.93387 -0.00208
 C2139 C 0.60268 0.94505 -0.00098
 C2140 C 0.58507 0.95480 -0.00006
 H2141 H 0.65191 0.88327 0.01145
 H2142 H 0.67915 0.94270 -0.01951
 H2143 H 0.71642 0.92608 -0.01963
 H2144 H 0.68916 0.86649 0.01178
 C2145 C 0.00956 0.83031 0.90293
 C2146 C 0.00053 0.83062 0.92457
 C2147 C -0.00662 0.81069 0.93471
 C2148 C -0.00509 0.79048 0.92305
 C2149 C 0.00398 0.78993 0.90116
 C2150 C 0.01108 0.81023 0.89126
 C2151 C -0.00218 0.85166 0.93578
 C2152 C -0.00417 0.86968 0.94445
 C2153 C -0.00586 0.89109 0.95402
 C2154 C -0.00647 0.90954 0.96198
 H2155 H 0.01487 0.84571 0.89482
 H2156 H -0.01395 0.81084 0.95137
 H2157 H -0.01189 0.77562 0.93094
 H2158 H 0.01712 0.81071 0.87411
 C2159 C 0.49004 0.31705 0.43479
 C2160 C 0.49497 0.33694 0.42336
 C2161 C 0.50114 0.33636 0.40075
 C2162 C 0.50231 0.31599 0.38955
 C2163 C 0.49756 0.29571 0.40078
 C2164 C 0.49120 0.29656 0.42360
 C2165 C 0.49352 0.35809 0.43458
 C2166 C 0.49264 0.37614 0.44338
 C2167 C 0.49219 0.39755 0.45310
 C2168 C 0.49245 0.41601 0.46106
 H2169 H 0.48504 0.31739 0.45229
 H2170 H 0.50484 0.35170 0.39170
 H2171 H 0.50667 0.31605 0.37188
 H2172 H 0.48654 0.28173 0.43289
 C2173 C -0.00459 0.32957 0.59873
 C2174 C -0.00205 0.33045 0.57545
 C2175 C -0.00012 0.31066 0.56316
 C2176 C -0.00056 0.28996 0.57418
 C2177 C -0.00317 0.28885 0.59769
 C2178 C -0.00501 0.30900 0.60975
 C2179 C -0.00070 0.35183 0.56451
 C2180 C 0.00052 0.37007 0.55601
 C2181 C 0.00190 0.39163 0.54656
 C2182 C 0.00288 0.41012 0.53861
 H2183 H -0.00588 0.34481 0.60842
 H2184 H 0.00212 0.31125 0.54511
 H2185 H 0.00182 0.27514 0.56419
 H2186 H -0.00637 0.30883 0.62788
 C2187 C 0.50115 0.81635 0.06723
 C2188 C 0.49855 0.83591 0.07975
 C2189 C 0.49564 0.83464 0.10297
 C2190 C 0.49546 0.81391 0.11370
 C2191 C 0.49788 0.79397 0.10138
 C2192 C 0.50096 0.79550 0.07794
 C2193 C 0.49960 0.85743 0.06905
 C2194 C 0.50059 0.87570 0.06058
 C2195 C 0.50173 0.89722 0.05101
 C2196 C 0.50258 0.91564 0.04288
 H2197 H 0.50373 0.81724 0.04924
 H2198 H 0.49386 0.84971 0.11285
 H2199 H 0.49380 0.81344 0.13181
 H2200 H 0.50391 0.78090 0.06780
 C2201 C 0.49121 0.66819 0.10755
 C2202 C 0.49570 0.66509 0.08472
 C2203 C 0.50240 0.68331 0.07151
 C2204 C 0.50421 0.70460 0.08095
 C2205 C 0.49917 0.70812 0.10381
 C2206 C 0.49303 0.68948 0.11706
 C2207 C 0.49358 0.64327 0.07478
 C2208 C 0.49204 0.62513 0.06611
 C2209 C 0.49070 0.60401 0.05564
 C2210 C 0.49015 0.58606 0.04649
 H2211 H 0.48619 0.65415 0.11800
 H2212 H 0.50622 0.68107 0.05387
 H2213 H 0.50978 0.71820 0.07025
 H2214 H 0.48927 0.69116 0.13469
 C2215 C -0.00994 0.16310 0.60710
 C2216 C -0.00493 0.15929 0.58450
 C2217 C 0.00180 0.17713 0.57079
 C2218 C 0.00322 0.19875 0.57952
 C2219 C -0.00223 0.20295 0.60217
 C2220 C -0.00851 0.18472 0.61590
 C2221 C -0.00652 0.13709 0.57534
 C2222 C -0.00766 0.11862 0.56735
 C2223 C -0.00860 0.09715 0.55762
 C2224 C -0.00890 0.07895 0.54898
 H2225 H -0.01502 0.14937 0.61792
 H2226 H 0.00598 0.17434 0.55332
 H2227 H 0.00885 0.21206 0.56850
 H2228 H -0.01266 0.18694 0.63339
 C2229 C 0.48786 0.17047 0.39258
 C2230 C 0.49878 0.16649 0.41296
 C2231 C 0.50895 0.18423 0.42433
 C2232 C 0.50801 0.20588 0.41559
 C2233 C 0.49674 0.21021 0.39531
 C2234 C 0.48692 0.19219 0.38374
 C2235 C 0.49938 0.14438 0.42261
 C2236 C 0.50002 0.12621 0.43143
 C2237 C 0.50079 0.10527 0.44244
 C2238 C 0.50134 0.08760 0.45224
 H2239 H 0.47994 0.15683 0.38360
 H2240 H 0.51760 0.18135 0.44003
 H2241 H 0.51641 0.21916 0.42463
 H2242 H 0.47822 0.19486 0.36809
 C2243 C -0.01375 0.67895 0.92318
 C2244 C -0.00562 0.66112 0.91047
 C2245 C 0.00277 0.66511 0.88885
 C2246 C 0.00350 0.68689 0.88018
 C2247 C -0.00394 0.70508 0.89311
 C2248 C -0.01300 0.70071 0.91458
 C2249 C -0.00544 0.63892 0.91995
 C2250 C -0.00521 0.62058 0.92844
 C2251 C -0.00496 0.59934 0.93890
 C2252 C -0.00485 0.58138 0.94820
 H2253 H -0.02048 0.67607 0.93986
 H2254 H 0.00903 0.65142 0.87880
 H2255 H 0.01038 0.68939 0.86359
 H2256 H -0.01957 0.71407 0.92482
 C2257 C 0.21652 0.66438 0.93063
 C2258 C 0.23346 0.67837 0.92209
 C2259 C 0.25289 0.68212 0.93466
 C2260 C 0.25593 0.67101 0.95507
 C2261 C 0.23951 0.65608 0.96319
 C2262 C 0.21953 0.65330 0.95112
 C2263 C 0.23213 0.68702 0.89956
 C2264 C 0.23206 0.69382 0.88049
 C2265 C 0.23301 0.70164 0.85812
 C2266 C 0.23454 0.70858 0.83915
 H2267 H 0.20152 0.66116 0.92093
 H2268 H 0.26616 0.69281 0.92819
 H2269 H 0.27157 0.67318 0.96400
 H2270 H 0.20702 0.64134 0.95661
 C2271 C 0.72708 0.18389 0.44024
 C2272 C 0.73477 0.17683 0.41916
 C2273 C 0.74690 0.15710 0.41750
 C2274 C 0.75198 0.14476 0.43659
 C2275 C 0.74515 0.15180 0.45820
 C2276 C 0.73203 0.17135 0.45963
 C2277 C 0.73142 0.18959 0.39885
 C2278 C 0.73040 0.19876 0.38080
 C2279 C 0.73088 0.20820 0.35898
 C2280 C 0.73240 0.21567 0.34017
 H2281 H 0.71763 0.19922 0.44174
 H2282 H 0.75266 0.15123 0.40129
 H2283 H 0.76073 0.12924 0.43390
 H2284 H 0.72645 0.17768 0.47567
 C2285 C 0.27127 0.32130 0.43383
 C2286 C 0.25127 0.32062 0.42169
 C2287 C 0.23189 0.33040 0.43060
 C2288 C 0.23281 0.34167 0.45116
 C2289 C 0.25318 0.34341 0.46278
 C2290 C 0.27223 0.33259 0.45424
 C2291 C 0.25131 0.31130 0.39947
 C2292 C 0.25207 0.30393 0.38069
 C2293 C 0.25324 0.29556 0.35861
 C2294 C 0.25394 0.28833 0.33977
 H2295 H 0.28633 0.31374 0.42714
 H2296 H 0.21632 0.32999 0.42130
 H2297 H 0.21797 0.35003 0.45734
 H2298 H 0.28806 0.33348 0.46303
 C2299 C 0.76720 0.81917 0.93198
 C2300 C 0.74780 0.81985 0.91893
 C2301 C 0.72867 0.83073 0.92706
 C2302 C 0.72936 0.84182 0.94775
 C2303 C 0.74928 0.84228 0.96022
 C2304 C 0.76795 0.83030 0.95248
 C2305 C 0.74840 0.81087 0.89657
 C2306 C 0.74983 0.80376 0.87772
 C2307 C 0.75193 0.79563 0.85562
 C2308 C 0.75350 0.78857 0.83676
 H2309 H 0.78206 0.81077 0.92590
 H2310 H 0.71356 0.83137 0.91705
 H2311 H 0.71485 0.85109 0.95333
 H2312 H 0.78343 0.83025 0.96194
 C2313 C 0.71717 0.82745 0.06758
 C2314 C 0.73453 0.81466 0.07670
 C2315 C 0.75530 0.81389 0.06580
 C2316 C 0.75912 0.82671 0.04655
 C2317 C 0.74217 0.84043 0.03790
 C2318 C 0.72095 0.84021 0.04814
 C2319 C 0.73227 0.80444 0.09851
 C2320 C 0.73196 0.79668 0.11721
 C2321 C 0.73323 0.78846 0.13940
 C2322 C 0.73552 0.78210 0.15847
 H2323 H 0.70109 0.82836 0.07602
 H2324 H 0.76890 0.80417 0.07276
 H2325 H 0.77561 0.82662 0.03889
 H2326 H 0.70780 0.85095 0.04202
 C2327 C 0.22069 0.32429 0.56755
 C2328 C 0.23863 0.31360 0.57816
 C2329 C 0.26030 0.31589 0.56939
 C2330 C 0.26422 0.32955 0.55075
 C2331 C 0.24650 0.34114 0.54057
 C2332 C 0.22460 0.33790 0.54872
 C2333 C 0.23559 0.30218 0.59927
 C2334 C 0.23451 0.29348 0.61753
 C2335 C 0.23482 0.28431 0.63940
 C2336 C 0.23630 0.27737 0.65836
 H2337 H 0.20387 0.32278 0.57430
 H2338 H 0.27432 0.30777 0.57747
 H2339 H 0.28123 0.33155 0.54463
 H2340 H 0.21074 0.34678 0.54136
 C2341 C 0.73734 0.18565 0.55711
 C2342 C 0.74948 0.17969 0.57634
 C2343 C 0.76275 0.16065 0.57596
 C2344 C 0.76431 0.14777 0.55666
 C2345 C 0.75273 0.15356 0.53677
 C2346 C 0.73883 0.17262 0.53748
 C2347 C 0.74869 0.19234 0.59694
 C2348 C 0.74939 0.20125 0.61512
 C2349 C 0.75104 0.21017 0.63706
 C2350 C 0.75250 0.21695 0.65610
 H2351 H 0.72688 0.20038 0.55722
 H2352 H 0.77189 0.15556 0.59080
 H2353 H 0.77411 0.13271 0.55802
 H2354 H 0.72971 0.17811 0.52284
 C2355 C 0.23551 0.68426 0.06151
 C2356 C 0.24018 0.67426 0.08231
 C2357 C 0.24403 0.65126 0.08349
 C2358 C 0.24431 0.63846 0.06400
 C2359 C 0.24070 0.64846 0.04295
 C2360 C 0.23564 0.67135 0.04187
 C2361 C 0.24233 0.68732 0.10249
 C2362 C 0.24481 0.69697 0.12007
 C2363 C 0.24796 0.70698 0.14130
 C2364 C 0.25034 0.71459 0.15987
 H2365 H 0.23247 0.70207 0.06040
 H2366 H 0.24754 0.64331 0.09946
 H2367 H 0.24802 0.62080 0.06527
 H2368 H 0.23297 0.67941 0.02580
 C2369 C 0.18964 0.56048 0.76199
 C2370 C 0.18750 0.57436 0.74318
 C2371 C 0.17446 0.56727 0.72496
 C2372 C 0.16256 0.54700 0.72614
 C2373 C 0.16345 0.53380 0.74564
 C2374 C 0.17770 0.54034 0.76322
 C2375 C 0.19665 0.59674 0.74384
 C2376 C 0.20359 0.61569 0.74531
 C2377 C 0.21113 0.63805 0.74759
 C2378 C 0.21728 0.65722 0.74956
 H2379 H 0.19962 0.56575 0.77620
 H2380 H 0.17257 0.57792 0.71036
 H2381 H 0.15141 0.54252 0.71258
 H2382 H 0.17862 0.53044 0.77844
 C2383 C 0.67850 0.07132 0.26975
 C2384 C 0.68379 0.08053 0.24886
 C2385 C 0.67811 0.06889 0.22928
 C2386 C 0.66632 0.04850 0.23066
 C2387 C 0.65961 0.03978 0.25171
 C2388 C 0.66665 0.05124 0.27120
 C2389 C 0.69364 0.10259 0.24808
 C2390 C 0.70111 0.12138 0.24879
 C2391 C 0.70913 0.14360 0.25056
 C2392 C 0.71557 0.16269 0.25222
 H2393 H 0.68307 0.07998 0.28504
 H2394 H 0.68212 0.07590 0.21296
 H2395 H 0.66124 0.04061 0.21517
 H2396 H 0.66316 0.04475 0.28783
 C2397 C 0.82017 0.06367 0.72190
 C2398 C 0.81725 0.08007 0.73833
 C2399 C 0.82628 0.07685 0.75963
 C2400 C 0.83874 0.05780 0.76442
 C2401 C 0.84275 0.04132 0.74790
 C2402 C 0.83260 0.04436 0.72666
 C2403 C 0.80579 0.10076 0.73372
 C2404 C 0.79705 0.11879 0.73158
 C2405 C 0.78780 0.14052 0.73096
 C2406 C 0.78076 0.15938 0.73191
 H2407 H 0.81317 0.06594 0.70531
 H2408 H 0.82387 0.08924 0.77263
 H2409 H 0.84475 0.05607 0.78141
 H2410 H 0.83479 0.03253 0.71323
 C2411 C 0.30957 0.55852 0.23257
 C2412 C 0.31938 0.57979 0.23465
 C2413 C 0.34219 0.58175 0.23962
 C2414 C 0.35497 0.56269 0.24340
 C2415 C 0.34513 0.54131 0.24228
 C2416 C 0.32246 0.53931 0.23622
 C2417 C 0.30620 0.59986 0.23348
 C2418 C 0.29653 0.61750 0.23364
 C2419 C 0.28674 0.63890 0.23496
 C2420 C 0.27965 0.65765 0.23685
 H2421 H 0.29190 0.55682 0.22879
 H2422 H 0.34999 0.59808 0.24123
 H2423 H 0.37251 0.56468 0.24765
 H2424 H 0.31452 0.52300 0.23533
 C2425 C 0.31399 0.43410 0.26986
 C2426 C 0.31480 0.42108 0.25043
 C2427 C 0.32574 0.42931 0.23122
 C2428 C 0.33691 0.44999 0.23187
 C2429 C 0.33738 0.46240 0.25184
 C2430 C 0.32519 0.45464 0.27056
 C2431 C 0.30616 0.39855 0.25110
 C2432 C 0.29944 0.37954 0.25242
 C2433 C 0.29180 0.35722 0.25430
 C2434 C 0.28508 0.33820 0.25566
 H2435 H 0.30555 0.42794 0.28480
 H2436 H 0.32651 0.41933 0.21610
 H2437 H 0.34639 0.45552 0.21733
 H2438 H 0.32523 0.46399 0.28610
 C2439 C 0.82738 0.93126 0.73205
 C2440 C 0.81659 0.92224 0.75101
 C2441 C 0.81570 0.93460 0.77086
 C2442 C 0.82659 0.95526 0.77221
 C2443 C 0.83855 0.96386 0.75370
 C2444 C 0.83823 0.95208 0.73335
 C2445 C 0.80806 0.89964 0.75094
 C2446 C 0.80139 0.88056 0.75170
 C2447 C 0.79379 0.85816 0.75299
 C2448 C 0.78714 0.83909 0.75390
 H2449 H 0.82821 0.92180 0.71660
 H2450 H 0.80738 0.92784 0.78562
 H2451 H 0.82653 0.96411 0.78805
 H2452 H 0.84757 0.95825 0.71896
 C2453 C 0.68509 0.93330 0.25468
 C2454 C 0.68137 0.92203 0.23447
 C2455 C 0.66757 0.93161 0.21810
 C2456 C 0.65677 0.95191 0.22237
 C2457 C 0.65966 0.96269 0.24306
 C2458 C 0.67425 0.95347 0.25898
 C2459 C 0.69009 0.89980 0.23174
 C2460 C 0.69716 0.88097 0.23082
 C2461 C 0.70546 0.85889 0.23119
 C2462 C 0.71285 0.84021 0.23258
 H2463 H 0.69561 0.92602 0.26752
 H2464 H 0.66438 0.92292 0.20249
 H2465 H 0.64506 0.95832 0.21019
 H2466 H 0.67647 0.96141 0.27515
 C2467 C 0.18475 0.43455 0.72674
 C2468 C 0.17365 0.41412 0.73055
 C2469 C 0.15145 0.41403 0.73811
 C2470 C 0.14063 0.43409 0.74262
 C2471 C 0.15183 0.45466 0.73970
 C2472 C 0.17380 0.45480 0.73114
 C2473 C 0.18510 0.39309 0.72855
 C2474 C 0.19379 0.37493 0.72822
 C2475 C 0.20327 0.35336 0.72925
 C2476 C 0.21114 0.33493 0.73117
 H2477 H 0.20199 0.43482 0.72097
 H2478 H 0.14267 0.39837 0.74110
 H2479 H 0.12352 0.43352 0.74877
 H2480 H 0.18276 0.47044 0.72876
 C2481 C 0.06726 0.75753 0.81450
 C2482 C 0.07650 0.73614 0.81316
 C2483 C 0.06604 0.71821 0.82432
 C2484 C 0.04692 0.72190 0.83752
 C2485 C 0.03832 0.74357 0.83984
 C2486 C 0.04833 0.76123 0.82774
 C2487 C 0.09793 0.73344 0.80235
 C2488 C 0.11642 0.73254 0.79418
 C2489 C 0.13852 0.73290 0.78560
 C2490 C 0.15764 0.73424 0.77910
 H2491 H 0.07523 0.77155 0.80603
 H2492 H 0.07316 0.70161 0.82358
 H2493 H 0.03974 0.70811 0.84689
 H2494 H 0.04190 0.77807 0.82914
 C2495 C 0.57973 0.24590 0.34287
 C2496 C 0.57787 0.23948 0.32042
 C2497 C 0.55659 0.23603 0.31104
 C2498 C 0.53725 0.23963 0.32401
 C2499 C 0.53913 0.24700 0.34631
 C2500 C 0.56056 0.24962 0.35572
 C2501 C 0.59804 0.23792 0.30714
 C2502 C 0.61580 0.23776 0.29739
 C2503 C 0.63735 0.23872 0.28748
 C2504 C 0.65620 0.24038 0.28025
 H2505 H 0.59606 0.24855 0.35035
 H2506 H 0.55494 0.23109 0.29365
 H2507 H 0.52092 0.23754 0.31640
 H2508 H 0.56251 0.25485 0.37299
 C2509 C 0.56390 0.74047 0.18746
 C2510 C 0.58442 0.74619 0.17729
 C2511 C 0.58507 0.75167 0.15448
 C2512 C 0.56534 0.75241 0.14208
 C2513 C 0.54456 0.74767 0.15229
 C2514 C 0.54401 0.74109 0.17494
 C2515 C 0.60488 0.74756 0.19001
 C2516 C 0.62268 0.74940 0.19940
 C2517 C 0.64414 0.75183 0.20911
 C2518 C 0.66287 0.75362 0.21650
 H2519 H 0.56321 0.73615 0.20511
 H2520 H 0.60082 0.75599 0.14639
 H2521 H 0.56624 0.75725 0.12456
 H2522 H 0.52817 0.73748 0.18316
 C2523 C 0.08364 0.24673 0.65158
 C2524 C 0.08296 0.24159 0.67446
 C2525 C 0.06241 0.23631 0.68477
 C2526 C 0.04250 0.23700 0.67229
 C2527 C 0.04309 0.24323 0.64955
 C2528 C 0.06389 0.24754 0.63921
 C2529 C 0.10344 0.24290 0.68712
 C2530 C 0.12123 0.24468 0.69652
 C2531 C 0.14262 0.24704 0.70636
 C2532 C 0.16123 0.24878 0.71400
 H2533 H 0.09942 0.25070 0.64339
 H2534 H 0.06170 0.23227 0.70249
 H2535 H 0.02664 0.23372 0.68060
 H2536 H 0.06481 0.25207 0.62161
 C2537 C 0.93427 0.25282 0.68347
 C2538 C 0.92174 0.23345 0.67916
 C2539 C 0.93041 0.21702 0.66492
 C2540 C 0.95101 0.22050 0.65413
 C2541 C 0.96305 0.24045 0.65746
 C2542 C 0.95479 0.25634 0.67264
 C2543 C 0.89910 0.23175 0.68744
 C2544 C 0.87994 0.23148 0.69395
 C2545 C 0.85752 0.23232 0.70149
 C2546 C 0.83855 0.23390 0.70830
 H2547 H 0.92767 0.26571 0.69434
 H2548 H 0.92074 0.20208 0.66126
 H2549 H 0.95661 0.20844 0.64192
 H2550 H 0.96368 0.27197 0.67519
 C2551 C 0.43213 0.72000 0.16705
 C2552 C 0.42323 0.73602 0.18162
 C2553 C 0.43552 0.75544 0.18635
 C2554 C 0.45603 0.75943 0.17563
 C2555 C 0.46452 0.74396 0.16013
 C2556 C 0.45272 0.72395 0.15637
 C2557 C 0.40059 0.73386 0.18984
 C2558 C 0.38143 0.73316 0.19631
 C2559 C 0.35895 0.73348 0.20379
 C2560 C 0.33991 0.73459 0.21051
 H2561 H 0.42265 0.70503 0.16307
 H2562 H 0.42875 0.76802 0.19747
 H2563 H 0.46473 0.77510 0.17853
 H2564 H 0.45848 0.71221 0.14393
 C2565 C 0.43210 0.26997 0.31628
 C2566 C 0.41833 0.25105 0.31821
 C2567 C 0.42585 0.23235 0.33023
 C2568 C 0.44653 0.23310 0.34133
 C2569 C 0.45969 0.25263 0.34063
 C2570 C 0.45264 0.27077 0.32741
 C2571 C 0.39580 0.25181 0.30962
 C2572 C 0.37678 0.25315 0.30295
 C2573 C 0.35443 0.25493 0.29538
 C2574 C 0.33537 0.25607 0.28878
 H2575 H 0.42650 0.28453 0.30704
 H2576 H 0.41529 0.21763 0.33191
 H2577 H 0.45141 0.21911 0.35171
 H2578 H 0.46252 0.28601 0.32666
 C2579 C 0.93268 0.77029 0.81955
 C2580 C 0.91937 0.75098 0.81946
 C2581 C 0.92726 0.73132 0.82953
 C2582 C 0.94796 0.73132 0.84059
 C2583 C 0.96072 0.75108 0.84185
 C2584 C 0.95322 0.77035 0.83065
 C2585 C 0.89703 0.75210 0.81051
 C2586 C 0.87821 0.75376 0.80343
 C2587 C 0.85613 0.75589 0.79531
 C2588 C 0.83730 0.75722 0.78820
 H2589 H 0.92681 0.78556 0.81177
 H2590 H 0.91705 0.71627 0.82957
 H2591 H 0.95334 0.71635 0.84926
 H2592 H 0.96289 0.78573 0.83121
   
