data_POSCAR
  _audit_creation_date              2014-09-24
  _audit_creation_method            'ToBaCCo'
  _symmetry_space_group_name_H-M    'P1'
  _symmetry_Int_Tables_number       1
  _symmetry_cell_setting            triclinic
  loop_
  _symmetry_equiv_pos_as_xyz
 x,y,z
_cell_length_a 79.1718
_cell_length_b 79.4626
_cell_length_c 79.4258
_cell_angle_alpha 91.820000
_cell_angle_beta 91.916500
_cell_angle_gamma 91.891200
loop_
  _atom_site_label
  _atom_site_type_symbol
  _atom_site_fract_x
  _atom_site_fract_y
  _atom_site_fract_z
N1 N 0.18295 0.22181 0.22670
 N2 N 0.18922 0.21013 0.23624
 C3 C 0.17893 0.20750 0.24912
 C4 C 0.16560 0.21811 0.24747
 C5 C 0.16846 0.22703 0.23319
 H6 H 0.18097 0.19858 0.25894
 H7 H 0.16063 0.23660 0.22797
 Cu8 Cu 0.21016 0.19942 0.23099
 Cu9 Cu 0.19415 0.22949 0.20678
 Cu10 Cu 0.22865 0.20719 0.19435
 N11 N 0.22764 0.18529 0.22238
 N12 N 0.23478 0.18831 0.20802
 C13 C 0.24638 0.17666 0.20508
 C14 C 0.24641 0.16586 0.21830
 C15 C 0.23444 0.17160 0.22909
 H16 H 0.25422 0.17610 0.19420
 H17 H 0.23097 0.16624 0.24088
 N18 N 0.22045 0.22673 0.18228
 N19 N 0.20727 0.23525 0.18703
 C20 C 0.20486 0.24790 0.17640
 C21 C 0.21709 0.24720 0.16452
 C22 C 0.22678 0.23373 0.16851
 H23 H 0.19502 0.25697 0.17726
 H24 H 0.23764 0.22943 0.16191
 H25 H 0.20396 0.20620 0.20193
 H26 H 0.21849 0.22238 0.21294
 N27 N 0.68204 0.72131 0.72592
 N28 N 0.68666 0.70791 0.73398
 C29 C 0.67614 0.70530 0.74669
 C30 C 0.66440 0.71771 0.74647
 C31 C 0.66842 0.72768 0.73321
 H32 H 0.67691 0.69519 0.75545
 H33 H 0.66193 0.73870 0.72918
 Cu34 Cu 0.70595 0.69518 0.72709
 Cu35 Cu 0.69397 0.72945 0.70659
 Cu36 Cu 0.72881 0.70736 0.69441
 N37 N 0.72576 0.68319 0.72035
 N38 N 0.73465 0.68801 0.70755
 C39 C 0.74751 0.67756 0.70552
 C40 C 0.74656 0.66565 0.71771
 C41 C 0.73270 0.66949 0.72693
 H42 H 0.75681 0.67849 0.69589
 H43 H 0.72803 0.66278 0.73756
 N44 N 0.72092 0.72726 0.68271
 N45 N 0.70765 0.73570 0.68736
 C46 C 0.70543 0.74850 0.67688
 C47 C 0.71786 0.74800 0.66519
 C48 C 0.72747 0.73447 0.66914
 H49 H 0.69549 0.75749 0.67761
 H50 H 0.73836 0.73019 0.66257
 H51 H 0.70326 0.70655 0.69900
 H52 H 0.71714 0.72014 0.71366
 N53 N 0.31537 0.77568 0.72983
 N54 N 0.31070 0.78935 0.73799
 C55 C 0.32098 0.79220 0.75174
 C56 C 0.33257 0.77963 0.75213
 C57 C 0.32874 0.76938 0.73810
 H58 H 0.32010 0.80253 0.76083
 H59 H 0.33512 0.75814 0.73431
 Cu60 Cu 0.29151 0.80182 0.72986
 Cu61 Cu 0.30376 0.76694 0.70917
 Cu62 Cu 0.26959 0.78902 0.69440
 N63 N 0.27227 0.81406 0.72147
 N64 N 0.26375 0.80898 0.70761
 C65 C 0.25104 0.81949 0.70473
 C66 C 0.25174 0.83171 0.71746
 C67 C 0.26527 0.82799 0.72787
 H68 H 0.24193 0.81827 0.69429
 H69 H 0.26958 0.83488 0.73928
 N70 N 0.27745 0.76854 0.68291
 N71 N 0.29046 0.76010 0.68858
 C72 C 0.29261 0.74670 0.67814
 C73 C 0.28039 0.74678 0.66539
 C74 C 0.27099 0.76072 0.66870
 H75 H 0.30229 0.73753 0.67967
 H76 H 0.26024 0.76480 0.66133
 H77 H 0.29491 0.78992 0.70166
 H78 H 0.28041 0.77675 0.71439
 N79 N 0.81578 0.27516 0.23015
 N80 N 0.81232 0.28993 0.23693
 C81 C 0.82268 0.29322 0.25053
 C82 C 0.83308 0.27976 0.25225
 C83 C 0.82848 0.26854 0.23918
 H84 H 0.82277 0.30459 0.25839
 H85 H 0.83410 0.25660 0.23632
 Cu86 Cu 0.79500 0.30369 0.22710
 Cu87 Cu 0.80390 0.26593 0.20986
 Cu88 Cu 0.76961 0.28786 0.19519
 N89 N 0.77410 0.31424 0.22067
 N90 N 0.76424 0.30809 0.20814
 C91 C 0.75078 0.31790 0.20634
 C92 C 0.75239 0.33076 0.21840
 C93 C 0.76725 0.32814 0.22731
 H94 H 0.74061 0.31583 0.19699
 H95 H 0.77264 0.33574 0.23781
 N96 N 0.77718 0.26711 0.18391
 N97 N 0.79025 0.25872 0.18952
 C98 C 0.79234 0.24529 0.17909
 C99 C 0.78001 0.24531 0.16644
 C100 C 0.77062 0.25924 0.16978
 H101 H 0.80215 0.23624 0.18049
 H102 H 0.75990 0.26336 0.16239
 H103 H 0.79541 0.28811 0.20013
 H104 H 0.78173 0.27757 0.21570
 N105 N 0.81427 0.72279 0.27315
 N106 N 0.80897 0.70888 0.26490
 C107 C 0.81954 0.70567 0.25231
 C108 C 0.83199 0.71823 0.25282
 C109 C 0.82835 0.72890 0.26612
 H110 H 0.81823 0.69511 0.24338
 H111 H 0.83531 0.74032 0.27024
 Cu112 Cu 0.78869 0.69657 0.27146
 Cu113 Cu 0.80238 0.73219 0.29216
 Cu114 Cu 0.76611 0.71036 0.30379
 N115 N 0.76832 0.68439 0.27798
 N116 N 0.75958 0.68987 0.29073
 C117 C 0.74636 0.67913 0.29285
 C118 C 0.74690 0.66633 0.28079
 C119 C 0.76093 0.66996 0.27155
 H120 H 0.73714 0.68045 0.30251
 H121 H 0.76546 0.66255 0.26108
 N122 N 0.77476 0.73135 0.31543
 N123 N 0.78857 0.73965 0.31102
 C124 C 0.79110 0.75340 0.32128
 C125 C 0.77829 0.75366 0.33257
 C126 C 0.76816 0.73960 0.32861
 H127 H 0.80145 0.76257 0.32062
 H128 H 0.75683 0.73571 0.33489
 H129 H 0.79172 0.70973 0.29960
 H130 H 0.77875 0.72228 0.28487
 N131 N 0.31450 0.22309 -0.22778
 N132 N 0.30883 0.20947 -0.23630
 C133 C 0.31930 0.20622 -0.24896
 C134 C 0.33207 0.21847 -0.24818
 C135 C 0.32872 0.22899 -0.23469
 H136 H 0.31772 0.19584 -0.25809
 H137 H 0.33598 0.24015 -0.23033
 Cu138 Cu 0.28828 0.19743 -0.22999
 Cu139 Cu 0.30293 0.23239 -0.20857
 Cu140 Cu 0.26665 0.21087 -0.19668
 N141 N 0.26811 0.18527 -0.22292
 N142 N 0.25974 0.19057 -0.20985
 C143 C 0.24660 0.17979 -0.20752
 C144 C 0.24682 0.16714 -0.21978
 C145 C 0.26057 0.17091 -0.22934
 H146 H 0.23767 0.18096 -0.19757
 H147 H 0.26483 0.16362 -0.24002
 N148 N 0.27566 0.23166 -0.18496
 N149 N 0.28948 0.23986 -0.18949
 C150 C 0.29236 0.25345 -0.17908
 C151 C 0.27976 0.25371 -0.16756
 C152 C 0.26939 0.23981 -0.17154
 H153 H 0.30282 0.26247 -0.17977
 H154 H 0.25816 0.23595 -0.16509
 H155 H 0.29204 0.20981 -0.20159
 H156 H 0.27897 0.22297 -0.21568
 N157 N 0.68288 0.27775 -0.23168
 N158 N 0.68856 0.29095 -0.23965
 C159 C 0.67817 0.29352 -0.25304
 C160 C 0.66541 0.28129 -0.25336
 C161 C 0.66867 0.27147 -0.23971
 H162 H 0.67973 0.30348 -0.26188
 H163 H 0.66130 0.26062 -0.23591
 Cu164 Cu 0.70896 0.30350 -0.23179
 Cu165 Cu 0.69436 0.26962 -0.21160
 Cu166 Cu 0.73117 0.29139 -0.19776
 N167 N 0.72983 0.31529 -0.22406
 N168 N 0.73847 0.31053 -0.21070
 C169 C 0.75231 0.32073 -0.20817
 C170 C 0.75225 0.33240 -0.22063
 C171 C 0.73791 0.32868 -0.23051
 H172 H 0.76170 0.31972 -0.19809
 H173 H 0.73374 0.33522 -0.24155
 N174 N 0.72185 0.27173 -0.18629
 N175 N 0.70784 0.26340 -0.19154
 C176 C 0.70493 0.25057 -0.18119
 C177 C 0.71771 0.25096 -0.16897
 C178 C 0.72821 0.26444 -0.17249
 H179 H 0.69439 0.24155 -0.18248
 H180 H 0.73967 0.26853 -0.16554
 H181 H 0.70551 0.29236 -0.20380
 H182 H 0.71808 0.27843 -0.21759
 N183 N 0.18398 0.77756 0.26829
 N184 N 0.18997 0.79042 0.26003
 C185 C 0.17960 0.79299 0.24662
 C186 C 0.16655 0.78109 0.24655
 C187 C 0.16962 0.77149 0.26040
 H188 H 0.18136 0.80274 0.23759
 H189 H 0.16199 0.76092 0.26444
 Cu190 Cu 0.21075 0.80249 0.26758
 Cu191 Cu 0.19520 0.76965 0.28864
 Cu192 Cu 0.23196 0.79149 0.30260
 N193 N 0.23130 0.81469 0.27561
 N194 N 0.23950 0.81038 0.28942
 C195 C 0.25297 0.82098 0.29236
 C196 C 0.25312 0.83244 0.27971
 C197 C 0.23929 0.82819 0.26927
 H198 H 0.26186 0.82049 0.30297
 H199 H 0.23530 0.83455 0.25805
 N200 N 0.22242 0.77205 0.31426
 N201 N 0.20845 0.76368 0.30895
 C202 C 0.20543 0.75094 0.31939
 C203 C 0.21809 0.75145 0.33175
 C204 C 0.22864 0.76489 0.32820
 H205 H 0.19495 0.74188 0.31804
 H206 H 0.24008 0.76898 0.33518
 H207 H 0.20647 0.79252 0.29586
 H208 H 0.21922 0.77789 0.28300
 N209 N 0.47216 0.43164 0.47476
 N210 N 0.45898 0.43569 0.48350
 C211 C 0.45721 0.42479 0.49603
 C212 C 0.46992 0.41339 0.49499
 C213 C 0.47920 0.41803 0.48140
 H214 H 0.44740 0.42503 0.50519
 H215 H 0.49018 0.41191 0.47668
 Cu216 Cu 0.44536 0.45473 0.47753
 Cu217 Cu 0.47913 0.44427 0.45538
 Cu218 Cu 0.45551 0.47863 0.44489
 N219 N 0.43238 0.47424 0.47169
 N220 N 0.43642 0.48352 0.45890
 C221 C 0.42554 0.49614 0.45765
 C222 C 0.41417 0.49462 0.47031
 C223 C 0.41878 0.48066 0.47902
 H224 H 0.42589 0.50570 0.44826
 H225 H 0.41269 0.47564 0.48985
 N226 N 0.47526 0.47166 0.43223
 N227 N 0.48424 0.45855 0.43621
 C228 C 0.49681 0.45705 0.42528
 C229 C 0.49561 0.46980 0.41400
 C230 C 0.48189 0.47885 0.41868
 H231 H 0.50616 0.44744 0.42548
 H232 H 0.47714 0.48984 0.41265
 H233 H 0.46944 0.46698 0.46332
 H234 H 0.45557 0.45312 0.44890
 N235 N -0.02767 -0.06798 0.97440
 N236 N -0.04085 -0.06388 0.98314
 C237 C -0.04263 -0.07474 0.99571
 C238 C -0.02992 -0.08615 0.99470
 C239 C -0.02064 -0.08157 0.98110
 H240 H -0.05242 -0.07446 1.00488
 H241 H -0.00966 -0.08770 0.97640
 Cu242 Cu -0.05444 -0.04484 0.97712
 Cu243 Cu -0.02068 -0.05542 0.95498
 Cu244 Cu -0.04426 -0.02105 0.94443
 N245 N -0.06741 -0.02534 0.97122
 N246 N -0.06334 -0.01608 0.95843
 C247 C -0.07420 -0.00345 0.95713
 C248 C -0.08560 -0.00494 0.96978
 C249 C -0.08102 -0.01889 0.97851
 H250 H -0.07383 0.00610 0.94774
 H251 H -0.08715 -0.02391 0.98933
 N252 N -0.02452 -0.02806 0.93177
 N253 N -0.01557 -0.04118 0.93577
 C254 C -0.00304 -0.04276 0.92481
 C255 C -0.00423 -0.03005 0.91348
 C256 C -0.01790 -0.02094 0.91817
 H257 H 0.00627 -0.05242 0.92500
 H258 H -0.02265 -0.00997 0.91210
 H259 H -0.03032 -0.03274 0.96287
 H260 H -0.04421 -0.04661 0.94849
 N261 N 1.03497 0.57201 0.97446
 N262 N 1.04893 0.56850 0.98292
 C263 C 1.05155 0.57990 0.99575
 C264 C 1.03856 0.59103 0.99520
 C265 C 1.02825 0.58573 0.98161
 H266 H 1.06199 0.58005 1.00489
 H267 H 1.01670 0.59138 0.97730
 Cu268 Cu 1.06190 0.54906 0.97645
 Cu269 Cu 1.02644 0.55850 0.95489
 Cu270 Cu 1.04961 0.52397 0.94321
 N271 N 1.07491 0.52969 0.96982
 N272 N 1.06986 0.51987 0.95683
 C273 C 1.08066 0.50726 0.95507
 C274 C 1.09307 0.50932 0.96759
 C275 C 1.08914 0.52360 0.97678
 H276 H 1.07951 0.49727 0.94549
 H277 H 1.09602 0.52901 0.98774
 N278 N 1.02879 0.53020 0.93101
 N279 N 1.01994 0.54333 0.93546
 C280 C 1.00660 0.54434 0.92459
 C281 C 1.00720 0.53126 0.91286
 C282 C 1.02133 0.52253 0.91719
 H283 H 0.99724 0.55394 0.92503
 H284 H 1.02588 0.51152 0.91065
 H285 H 1.03685 0.53624 0.96195
 H286 H 1.04957 0.54972 0.94793
 N287 N 0.53449 0.07181 0.47484
 N288 N 0.54832 0.06806 0.48340
 C289 C 0.55094 0.07931 0.49637
 C290 C 0.53815 0.09065 0.49573
 C291 C 0.52792 0.08559 0.48201
 H292 H 0.56133 0.07931 0.50557
 H293 H 0.51655 0.09147 0.47758
 Cu294 Cu 0.56126 0.04868 0.47675
 Cu295 Cu 0.52601 0.05861 0.45505
 Cu296 Cu 0.54912 0.02405 0.44319
 N297 N 0.57422 0.02932 0.47003
 N298 N 0.56928 0.01970 0.45686
 C299 C 0.58011 0.00713 0.45500
 C300 C 0.59239 0.00898 0.46766
 C301 C 0.58835 0.02310 0.47705
 H302 H 0.57906 -0.00267 0.44523
 H303 H 0.59516 0.02834 0.48814
 N304 N 0.52839 0.03048 0.43093
 N305 N 0.51960 0.04364 0.43542
 C306 C 0.50632 0.04481 0.42451
 C307 C 0.50686 0.03177 0.41272
 C308 C 0.52092 0.02292 0.41705
 H309 H 0.49701 0.05445 0.42498
 H310 H 0.52540 0.01189 0.41049
 H311 H 0.53610 0.03619 0.46205
 H312 H 0.54898 0.04976 0.44826
 N313 N -0.02968 0.07535 0.52932
 N314 N -0.04125 0.06871 0.51859
 C315 C -0.04357 0.07919 0.50581
 C316 C -0.03286 0.09307 0.50872
 C317 C -0.02418 0.09031 0.52367
 H318 H -0.05221 0.07682 0.49509
 H319 H -0.01446 0.09843 0.52983
 Cu320 Cu -0.05187 0.04679 0.52191
 Cu321 Cu -0.02240 0.06386 0.54950
 Cu322 Cu -0.04521 0.02746 0.55843
 N323 N -0.06654 0.02832 0.52855
 N324 N -0.06386 0.02070 0.54280
 C325 C -0.07571 0.00831 0.54416
 C326 C -0.08629 0.00829 0.53002
 C327 C -0.08022 0.02109 0.52035
 H328 H -0.07656 -0.00005 0.55460
 H329 H -0.08534 0.02486 0.50830
 N330 N -0.02588 0.03638 0.57262
 N331 N -0.01716 0.05027 0.56924
 C332 C -0.00464 0.05290 0.58105
 C333 C -0.00565 0.04008 0.59229
 C334 C -0.01915 0.02982 0.58666
 H335 H 0.00461 0.06323 0.58138
 H336 H -0.02360 0.01836 0.59229
 H337 H -0.02945 0.03954 0.54193
 H338 H -0.04600 0.05251 0.55180
 N339 N 0.47015 0.57531 0.02926
 N340 N 0.45864 0.56854 0.01855
 C341 C 0.45629 0.57893 0.00568
 C342 C 0.46691 0.59288 0.00855
 C343 C 0.47557 0.59026 0.02354
 H344 H 0.44767 0.57646 -0.00503
 H345 H 0.48520 0.59849 0.02969
 Cu346 Cu 0.44805 0.54664 0.02209
 Cu347 Cu 0.47751 0.56399 0.04952
 Cu348 Cu 0.45476 0.52763 0.05876
 N349 N 0.43348 0.52812 0.02879
 N350 N 0.43611 0.52069 0.04317
 C351 C 0.42428 0.50829 0.04460
 C352 C 0.41377 0.50805 0.03039
 C353 C 0.41988 0.52075 0.02059
 H354 H 0.42338 0.50006 0.05515
 H355 H 0.41481 0.52434 0.00846
 N356 N 0.47411 0.53670 0.07289
 N357 N 0.48283 0.55054 0.06937
 C358 C 0.49553 0.55312 0.08099
 C359 C 0.49464 0.54033 0.09228
 C360 C 0.48102 0.53012 0.08684
 H361 H 0.50490 0.56334 0.08109
 H362 H 0.47671 0.51861 0.09246
 H363 H 0.47059 0.53955 0.04209
 H364 H 0.45405 0.55259 0.05188
 N365 N 0.52926 -0.06894 0.02952
 N366 N 0.54259 -0.06447 0.02104
 C367 C 0.54377 -0.07512 0.00761
 C368 C 0.53049 -0.08675 0.00778
 C369 C 0.52150 -0.08255 0.02178
 H370 H 0.55364 -0.07464 -0.00147
 H371 H 0.51034 -0.08906 0.02613
 Cu372 Cu 0.55731 -0.04547 0.02864
 Cu373 Cu 0.52325 -0.05712 0.05021
 Cu374 Cu 0.54905 -0.02287 0.06372
 N375 N 0.57150 -0.02606 0.03618
 N376 N 0.56819 -0.01724 0.04992
 C377 C 0.57976 -0.00448 0.05215
 C378 C 0.59082 -0.00545 0.03915
 C379 C 0.58529 -0.01920 0.02922
 H380 H 0.58003 0.00487 0.06237
 H381 H 0.59084 -0.02374 0.01775
 N382 N 0.52910 -0.03051 0.07598
 N383 N 0.51928 -0.04356 0.07081
 C384 C 0.50670 -0.04552 0.08167
 C385 C 0.50876 -0.03314 0.09416
 C386 C 0.52300 -0.02382 0.09026
 H387 H 0.49669 -0.05512 0.08054
 H388 H 0.52838 -0.01291 0.09725
 H389 H 0.53406 -0.03416 0.04436
 H390 H 0.54735 -0.04833 0.05716
 N391 N 1.02895 0.43067 0.52900
 N392 N 1.04230 0.43505 0.52051
 C393 C 1.04353 0.42426 0.50720
 C394 C 1.03025 0.41262 0.50747
 C395 C 1.02123 0.41697 0.52140
 H396 H 1.05342 0.42465 0.49814
 H397 H 1.01007 0.41049 0.52580
 Cu398 Cu 1.05691 0.45419 0.52799
 Cu399 Cu 1.02297 0.44266 0.54959
 Cu400 Cu 1.04872 0.47699 0.56302
 N401 N 1.07112 0.47361 0.53543
 N402 N 1.06785 0.48251 0.54912
 C403 C 1.07950 0.49520 0.55134
 C404 C 1.09058 0.49409 0.53835
 C405 C 1.08497 0.48035 0.52846
 H406 H 1.07986 0.50454 0.56156
 H407 H 1.09055 0.47569 0.51706
 N408 N 1.02873 0.46934 0.57529
 N409 N 1.01893 0.45629 0.57012
 C410 C 1.00629 0.45437 0.58091
 C411 C 1.00829 0.46678 0.59337
 C412 C 1.02256 0.47609 0.58952
 H413 H 0.99626 0.44479 0.57975
 H414 H 1.02790 0.48702 0.59647
 H415 H 1.03388 0.46582 0.54375
 H416 H 1.04715 0.45171 0.55660
 C417 C 0.36153 0.01744 0.24364
 C418 C 0.35162 0.00091 0.24624
 C419 C 0.36170 -0.01237 0.24901
 C420 C 0.38076 -0.00799 0.24890
 C421 C 0.37331 0.01992 0.25929
 C422 C 0.38336 0.00660 0.26200
 C423 C 0.37321 0.01363 0.22912
 C424 C 0.38327 0.00033 0.23190
 H425 H 0.33790 -0.00009 0.24643
 H426 H 0.38893 -0.01887 0.25112
 H427 H 0.37384 0.03126 0.26733
 H428 H 0.37392 0.02114 0.21794
 C429 C 0.13489 -0.02302 0.74853
 C430 C 0.14563 -0.00690 0.75247
 C431 C 0.13632 0.00685 0.75583
 C432 C 0.11709 0.00331 0.75498
 C433 C 0.12364 -0.02499 0.76372
 C434 C 0.11434 -0.01121 0.76707
 C435 C 0.12284 -0.01863 0.73394
 C436 C 0.11355 -0.00485 0.73734
 H437 H 0.15937 -0.00637 0.75243
 H438 H 0.10950 0.01453 0.75774
 H439 H 0.12304 -0.03627 0.77110
 H440 H 0.12182 -0.02570 0.72199
 C441 C 0.63457 0.47641 0.24966
 C442 C 0.64529 0.49255 0.25354
 C443 C 0.63595 0.50639 0.25640
 C444 C 0.61672 0.50291 0.25517
 C445 C 0.62296 0.47476 0.26460
 C446 C 0.61363 0.48863 0.26746
 C447 C 0.62289 0.48057 0.23470
 C448 C 0.61357 0.49444 0.23761
 H449 H 0.65904 0.49305 0.25375
 H450 H 0.60911 0.51419 0.25753
 H451 H 0.62219 0.46366 0.27222
 H452 H 0.62223 0.47337 0.22282
 C453 C 0.86215 0.51767 0.74401
 C454 C 0.85217 0.50119 0.74672
 C455 C 0.86220 0.48782 0.74924
 C456 C 0.88126 0.49206 0.74886
 C457 C 0.87419 0.52002 0.75948
 C458 C 0.88417 0.50659 0.76197
 C459 C 0.87355 0.51380 0.72927
 C460 C 0.88355 0.50041 0.73185
 H461 H 0.83845 0.50024 0.74690
 H462 H 0.88940 0.48113 0.75092
 H463 H 0.87484 0.53127 0.76765
 H464 H 0.87392 0.52115 0.71798
 C465 C 0.24424 0.36353 0.01750
 C466 C 0.24689 0.35355 0.00105
 C467 C 0.24948 0.36350 -0.01235
 C468 C 0.24916 0.38251 -0.00816
 C469 C 0.25982 0.37545 0.01983
 C470 C 0.26235 0.38536 0.00637
 C471 C 0.22950 0.37496 0.01360
 C472 C 0.23212 0.38489 0.00018
 H473 H 0.24709 0.33988 0.00014
 H474 H 0.25124 0.39059 -0.01913
 H475 H 0.26803 0.37606 0.03108
 H476 H 0.21824 0.37548 0.02103
 C477 C 0.74973 0.13380 -0.02293
 C478 C 0.75331 0.14410 -0.00649
 C479 C 0.75607 0.13445 0.00715
 C480 C 0.75501 0.11537 0.00319
 C481 C 0.76484 0.12238 -0.02463
 C482 C 0.76757 0.11275 -0.01095
 C483 C 0.73474 0.12193 -0.01928
 C484 C 0.73753 0.11232 -0.00560
 H485 H 0.75322 0.15778 -0.00563
 H486 H 0.75728 0.10751 0.01432
 H487 H 0.77262 0.12190 -0.03564
 H488 H 0.72289 0.12141 -0.02662
 C489 C 0.24950 0.63356 0.47731
 C490 C 0.25285 0.64393 0.49373
 C491 C 0.25576 0.63434 0.50738
 C492 C 0.25504 0.61525 0.50346
 C493 C 0.26482 0.62241 0.47567
 C494 C 0.26768 0.61283 0.48936
 C495 C 0.23469 0.62144 0.48093
 C496 C 0.23763 0.61189 0.49462
 H497 H 0.25262 0.65760 0.49455
 H498 H 0.25743 0.60746 0.51462
 H499 H 0.27259 0.62200 0.46465
 H500 H 0.22293 0.62059 0.47346
 C501 C 0.74413 0.86391 0.51761
 C502 C 0.74662 0.85389 0.50115
 C503 C 0.74919 0.86380 0.48772
 C504 C 0.74903 0.88282 0.49189
 C505 C 0.75980 0.87573 0.51983
 C506 C 0.76231 0.88561 0.50635
 C507 C 0.72945 0.87544 0.51378
 C508 C 0.73206 0.88533 0.50032
 H509 H 0.74664 0.84021 0.50024
 H510 H 0.75111 0.89087 0.48090
 H511 H 0.76806 0.87633 0.53105
 H512 H 0.71818 0.87597 0.52120
 C513 C 0.01710 0.24338 0.36280
 C514 C 0.00069 0.24661 0.35287
 C515 C -0.01266 0.24945 0.36285
 C516 C -0.00847 0.24879 0.38186
 C517 C 0.01987 0.25870 0.37491
 C518 C 0.00646 0.26150 0.38485
 C519 C 0.01278 0.22865 0.37407
 C520 C -0.00058 0.23153 0.38405
 H521 H -0.00019 0.24707 0.33921
 H522 H -0.01940 0.25107 0.38996
 H523 H 0.03138 0.26658 0.37560
 H524 H 0.01990 0.21721 0.37444
 C525 C -0.02255 0.74924 0.13433
 C526 C -0.00613 0.75348 0.14455
 C527 C 0.00740 0.75660 0.13482
 C528 C 0.00335 0.75527 0.11574
 C529 C -0.02489 0.76409 0.12274
 C530 C -0.01132 0.76723 0.11303
 C531 C -0.01841 0.73436 0.12261
 C532 C -0.00486 0.73754 0.11288
 H533 H -0.00518 0.75352 0.15824
 H534 H 0.01439 0.75786 0.10782
 H535 H -0.03627 0.77135 0.12214
 H536 H -0.02539 0.72234 0.12219
 C537 C 0.47751 0.24889 0.63468
 C538 C 0.49394 0.25305 0.64492
 C539 C 0.50747 0.25622 0.63519
 C540 C 0.50341 0.25499 0.61612
 C541 C 0.47520 0.26382 0.62318
 C542 C 0.48876 0.26699 0.61348
 C543 C 0.48162 0.23407 0.62287
 C544 C 0.49518 0.23730 0.61317
 H545 H 0.49490 0.25302 0.65860
 H546 H 0.51445 0.25762 0.60821
 H547 H 0.46380 0.27107 0.62259
 H548 H 0.47465 0.22205 0.62242
 C549 C 0.51723 0.74366 0.86336
 C550 C 0.50072 0.74661 0.85348
 C551 C 0.48741 0.74946 0.86351
 C552 C 0.49174 0.74912 0.88251
 C553 C 0.51996 0.75915 0.87526
 C554 C 0.50659 0.76198 0.88525
 C555 C 0.51311 0.72906 0.87486
 C556 C 0.49978 0.73196 0.88486
 H557 H 0.49966 0.74656 0.83980
 H558 H 0.48086 0.75144 0.89065
 H559 H 0.53143 0.76707 0.87583
 H560 H 0.52023 0.71761 0.87523
 C561 C 0.15174 0.21980 0.25851
 C562 C 0.14008 0.22141 0.26771
 C563 C 0.12612 0.22361 0.27860
 C564 C 0.12201 0.21134 0.29018
 C565 C 0.10843 0.21357 0.30075
 C566 C 0.09880 0.22811 0.29984
 C567 C 0.10308 0.24037 0.28817
 C568 C 0.11665 0.23812 0.27763
 C569 C 0.08435 0.23051 0.31099
 C570 C 0.06927 0.23725 0.30471
 C571 C 0.05571 0.23966 0.31524
 C572 C 0.05704 0.23539 0.33217
 C573 C 0.07195 0.22863 0.33854
 C574 C 0.08553 0.22619 0.32803
 C575 C 0.04313 0.23805 0.34301
 C576 C 0.03143 0.24039 0.35201
 H577 H 0.12926 0.20005 0.29100
 H578 H 0.10533 0.20383 0.30947
 H579 H 0.09607 0.25180 0.28734
 H580 H 0.11978 0.24771 0.26875
 H581 H 0.06790 0.24048 0.29161
 H582 H 0.04420 0.24487 0.31018
 H583 H 0.07312 0.22533 0.35165
 H584 H 0.09704 0.22118 0.33328
 C585 C 0.65078 0.71979 0.75774
 C586 C 0.63934 0.72155 0.76720
 C587 C 0.62567 0.72370 0.77846
 C588 C 0.62384 0.73920 0.78693
 C589 C 0.61046 0.74140 0.79774
 C590 C 0.59873 0.72809 0.80021
 C591 C 0.60073 0.71252 0.79169
 C592 C 0.61413 0.71036 0.78089
 C593 C 0.58442 0.73049 0.81154
 C594 C 0.56817 0.72378 0.80699
 C595 C 0.55465 0.72627 0.81755
 C596 C 0.55718 0.73547 0.83280
 C597 C 0.57330 0.74213 0.83748
 C598 C 0.58684 0.73966 0.82693
 C599 C 0.54323 0.73822 0.84356
 C600 C 0.53153 0.74063 0.85254
 H601 H 0.63269 0.74963 0.78511
 H602 H 0.60913 0.75359 0.80395
 H603 H 0.59204 0.70198 0.79350
 H604 H 0.61548 0.69828 0.77443
 H605 H 0.56587 0.71686 0.79513
 H606 H 0.54220 0.72113 0.81379
 H607 H 0.57539 0.74925 0.84927
 H608 H 0.59923 0.74480 0.83088
 C609 C 0.34576 0.77743 0.76464
 C610 C 0.35693 0.77529 0.77496
 C611 C 0.37045 0.77238 0.78698
 C612 C 0.37983 0.75784 0.78528
 C613 C 0.39330 0.75508 0.79656
 C614 C 0.39760 0.76685 0.80974
 C615 C 0.38802 0.78138 0.81146
 C616 C 0.37452 0.78411 0.80016
 C617 C 0.41236 0.76415 0.82126
 C618 C 0.42370 0.77761 0.82606
 C619 C 0.43825 0.77481 0.83591
 C620 C 0.44163 0.75857 0.84114
 C621 C 0.43025 0.74519 0.83679
 C622 C 0.41569 0.74795 0.82694
 C623 C 0.45737 0.75544 0.84989
 C624 C 0.47088 0.75274 0.85652
 H625 H 0.37682 0.74871 0.77511
 H626 H 0.40058 0.74392 0.79472
 H627 H 0.39091 0.79058 0.82156
 H628 H 0.36731 0.79538 0.80161
 H629 H 0.42163 0.79018 0.82172
 H630 H 0.44708 0.78523 0.83907
 H631 H 0.43278 0.73256 0.84069
 H632 H 0.40711 0.73738 0.82364
 C633 C -0.15407 0.27826 0.26383
 C634 C -0.14248 0.27682 0.27387
 C635 C -0.12839 0.27493 0.28551
 C636 C -0.13110 0.27109 0.30231
 C637 C -0.11733 0.26882 0.31342
 C638 C -0.10068 0.27041 0.30785
 C639 C -0.09812 0.27436 0.29096
 C640 C -0.11188 0.27660 0.27989
 C641 C -0.08600 0.26768 0.31946
 C642 C -0.07129 0.27806 0.31894
 C643 C -0.05707 0.27488 0.32909
 C644 C -0.05734 0.26132 0.33990
 C645 C -0.07203 0.25116 0.34082
 C646 C -0.08630 0.25433 0.33069
 C647 C -0.04210 0.25717 0.34900
 C648 C -0.02891 0.25365 0.35580
 H649 H -0.14383 0.26979 0.30679
 H650 H -0.11970 0.26593 0.32638
 H651 H -0.08548 0.27538 0.28621
 H652 H -0.10964 0.27949 0.26689
 H653 H -0.07073 0.28855 0.31059
 H654 H -0.04574 0.28279 0.32823
 H655 H -0.07233 0.24055 0.34905
 H656 H -0.09736 0.24601 0.33124
 C657 C -0.15437 0.72019 0.24149
 C658 C -0.14294 0.72205 0.23200
 C659 C -0.12930 0.72451 0.22070
 C660 C -0.11357 0.73094 0.22690
 C661 C -0.10040 0.73367 0.21591
 C662 C -0.10281 0.73001 0.19853
 C663 C -0.11867 0.72348 0.19242
 C664 C -0.13182 0.72075 0.20344
 C665 C -0.08886 0.73309 0.18683
 C666 C -0.09212 0.73997 0.17098
 C667 C -0.07892 0.74313 0.16012
 C668 C -0.06232 0.73944 0.16493
 C669 C -0.05897 0.73249 0.18062
 C670 C -0.07214 0.72933 0.19150
 C671 C -0.04866 0.74291 0.15392
 C672 C -0.03701 0.74580 0.14494
 H673 H -0.11151 0.73397 0.24023
 H674 H -0.08843 0.73892 0.22097
 H675 H -0.12085 0.72034 0.17914
 H676 H -0.14395 0.71575 0.19851
 H677 H -0.10481 0.74319 0.16711
 H678 H -0.08164 0.74856 0.14802
 H679 H -0.04617 0.72954 0.18445
 H680 H -0.06925 0.72381 0.20351
 C681 C 0.34501 0.22027 0.74113
 C682 C 0.35648 0.22214 0.73169
 C683 C 0.37017 0.22464 0.72047
 C684 C 0.38586 0.23112 0.72675
 C685 C 0.39909 0.23383 0.71583
 C686 C 0.39679 0.23010 0.69844
 C687 C 0.38096 0.22358 0.69226
 C688 C 0.36775 0.22087 0.70321
 C689 C 0.41083 0.23306 0.68683
 C690 C 0.40772 0.23984 0.67090
 C691 C 0.42102 0.24286 0.66012
 C692 C 0.43757 0.23914 0.66509
 C693 C 0.44077 0.23229 0.68084
 C694 C 0.42751 0.22926 0.69164
 C695 C 0.45133 0.24255 0.65417
 C696 C 0.46303 0.24542 0.64525
 H697 H 0.38784 0.23417 0.74008
 H698 H 0.41103 0.23911 0.72095
 H699 H 0.37884 0.22041 0.67898
 H700 H 0.35564 0.21584 0.69822
 H701 H 0.39507 0.24308 0.66691
 H702 H 0.41841 0.24821 0.64796
 H703 H 0.45353 0.22931 0.68479
 H704 H 0.43028 0.22381 0.70371
 C705 C 0.65225 0.27937 0.73524
 C706 C 0.64054 0.27771 0.72515
 C707 C 0.62649 0.27573 0.71320
 C708 C 0.62628 0.26293 0.70067
 C709 C 0.61246 0.26081 0.68927
 C710 C 0.59868 0.27150 0.69026
 C711 C 0.59909 0.28440 0.70284
 C712 C 0.61290 0.28649 0.71423
 C713 C 0.58369 0.26892 0.67860
 C714 C 0.57536 0.28279 0.67205
 C715 C 0.56059 0.28036 0.66199
 C716 C 0.55399 0.26405 0.65831
 C717 C 0.56241 0.25017 0.66442
 C718 C 0.57718 0.25257 0.67447
 C719 C 0.53796 0.26156 0.64935
 C720 C 0.52422 0.25926 0.64251
 H721 H 0.63675 0.25455 0.69976
 H722 H 0.61259 0.25087 0.67964
 H723 H 0.58856 0.29265 0.70412
 H724 H 0.61291 0.29639 0.72392
 H725 H 0.58020 0.29551 0.67481
 H726 H 0.55415 0.29120 0.65736
 H727 H 0.55733 0.23750 0.66177
 H728 H 0.58317 0.24165 0.67948
 C729 C 0.15259 0.77915 0.23455
 C730 C 0.14084 0.77755 0.22452
 C731 C 0.12672 0.77567 0.21264
 C732 C 0.12639 0.76295 0.20003
 C733 C 0.11249 0.76092 0.18872
 C734 C 0.09872 0.77161 0.18990
 C735 C 0.09925 0.78444 0.20256
 C736 C 0.11315 0.78644 0.21384
 C737 C 0.08364 0.76912 0.17834
 C738 C 0.07522 0.78304 0.17200
 C739 C 0.06042 0.78068 0.16197
 C740 C 0.05387 0.76439 0.15810
 C741 C 0.06234 0.75046 0.16403
 C742 C 0.07714 0.75279 0.17406
 C743 C 0.03787 0.76194 0.14906
 C744 C 0.02415 0.75966 0.14216
 H745 H 0.13684 0.75456 0.19897
 H746 H 0.11254 0.75104 0.17902
 H747 H 0.08874 0.79269 0.20398
 H748 H 0.11324 0.79628 0.22361
 H749 H 0.08004 0.79576 0.17488
 H750 H 0.05393 0.79156 0.15750
 H751 H 0.05730 0.73781 0.16124
 H752 H 0.08318 0.74183 0.17890
 C753 C 0.25698 0.15173 0.22049
 C754 C 0.26598 0.13995 0.22227
 C755 C 0.27686 0.12599 0.22434
 C756 C 0.27102 0.11150 0.23218
 C757 C 0.28166 0.09798 0.23427
 C758 C 0.29829 0.09881 0.22854
 C759 C 0.30402 0.11343 0.22065
 C760 C 0.29335 0.12693 0.21856
 C761 C 0.30962 0.08451 0.23087
 C762 C 0.32673 0.08743 0.23579
 C763 C 0.33732 0.07392 0.23821
 C764 C 0.33095 0.05736 0.23571
 C765 C 0.31398 0.05434 0.23073
 C766 C 0.30337 0.06781 0.22832
 C767 C 0.34175 0.04345 0.23841
 C768 C 0.35071 0.03173 0.24073
 H769 H 0.25828 0.11068 0.23674
 H770 H 0.27697 0.08699 0.24059
 H771 H 0.31667 0.11435 0.21591
 H772 H 0.29796 0.13808 0.21243
 H773 H 0.33186 0.10013 0.23804
 H774 H 0.35044 0.07639 0.24212
 H775 H 0.30895 0.04156 0.22874
 H776 H 0.29032 0.06518 0.22430
 C777 C 0.75761 0.65192 0.72016
 C778 C 0.76685 0.64037 0.72221
 C779 C 0.77784 0.62655 0.72464
 C780 C 0.77147 0.61143 0.73087
 C781 C 0.78211 0.59796 0.73317
 C782 C 0.79929 0.59944 0.72926
 C783 C 0.80559 0.61472 0.72305
 C784 C 0.79491 0.62818 0.72075
 C785 C 0.81056 0.58510 0.73164
 C786 C 0.82713 0.58781 0.73838
 C787 C 0.83765 0.57425 0.74078
 C788 C 0.83176 0.55783 0.73644
 C789 C 0.81535 0.55501 0.72964
 C790 C 0.80481 0.56855 0.72725
 C791 C 0.84249 0.54384 0.73907
 C792 C 0.85139 0.53206 0.74129
 H793 H 0.75828 0.61006 0.73396
 H794 H 0.77696 0.58644 0.73819
 H795 H 0.81870 0.61618 0.71975
 H796 H 0.79994 0.63983 0.71587
 H797 H 0.83185 0.60039 0.74206
 H798 H 0.85033 0.57655 0.74609
 H799 H 0.81070 0.54235 0.72619
 H800 H 0.79221 0.56609 0.72181
 C801 C 0.76457 0.34572 0.77705
 C802 C 0.77476 0.35699 0.77494
 C803 C 0.78673 0.37057 0.77225
 C804 C 0.78799 0.37720 0.75622
 C805 C 0.79921 0.39076 0.75366
 C806 C 0.80931 0.39788 0.76713
 C807 C 0.80809 0.39099 0.78317
 C808 C 0.79685 0.37743 0.78570
 C809 C 0.82054 0.41286 0.76459
 C810 C 0.82165 0.42620 0.77669
 C811 C 0.83132 0.44078 0.77386
 C812 C 0.84005 0.44225 0.75892
 C813 C 0.83937 0.42890 0.74696
 C814 C 0.82969 0.41428 0.74978
 C815 C 0.84867 0.45790 0.75545
 C816 C 0.85521 0.47137 0.75259
 H817 H 0.78015 0.37204 0.74574
 H818 H 0.79965 0.39594 0.74123
 H819 H 0.81582 0.39608 0.79375
 H820 H 0.79598 0.37238 0.79817
 H821 H 0.81458 0.42560 0.78811
 H822 H 0.83166 0.45109 0.78314
 H823 H 0.84606 0.42992 0.73534
 H824 H 0.82927 0.40413 0.74033
 C825 C 0.26429 -0.15441 0.27809
 C826 C 0.27406 -0.14265 0.27656
 C827 C 0.28556 -0.12852 0.27457
 C828 C 0.28021 -0.11213 0.27757
 C829 C 0.29122 -0.09835 0.27527
 C830 C 0.30775 -0.10079 0.26991
 C831 C 0.31304 -0.11733 0.26700
 C832 C 0.30201 -0.13110 0.26934
 C833 C 0.31923 -0.08610 0.26703
 C834 C 0.32935 -0.08580 0.25279
 C835 C 0.33927 -0.07146 0.24951
 C836 C 0.33926 -0.05730 0.26045
 C837 C 0.32962 -0.05767 0.27488
 C838 C 0.31968 -0.07196 0.27817
 C839 C 0.34809 -0.04195 0.25634
 C840 C 0.35472 -0.02868 0.25294
 H841 H 0.26747 -0.10998 0.28154
 H842 H 0.28667 -0.08577 0.27735
 H843 H 0.32574 -0.11961 0.26303
 H844 H 0.30628 -0.14375 0.26699
 H845 H 0.32915 -0.09642 0.24390
 H846 H 0.34661 -0.07127 0.23824
 H847 H 0.32950 -0.04677 0.28342
 H848 H 0.31223 -0.07190 0.28935
 C849 C 0.24102 -0.15545 0.71962
 C850 C 0.23153 -0.14407 0.72167
 C851 C 0.22022 -0.13051 0.72426
 C852 C 0.20271 -0.13362 0.72299
 C853 C 0.19168 -0.12048 0.72563
 C854 C 0.19803 -0.10402 0.72957
 C855 C 0.21566 -0.10103 0.73082
 C856 C 0.22666 -0.11419 0.72818
 C857 C 0.18635 -0.09005 0.73246
 C858 C 0.18995 -0.07399 0.72625
 C859 C 0.17913 -0.06074 0.72925
 C860 C 0.16458 -0.06335 0.73848
 C861 C 0.16079 -0.07932 0.74459
 C862 C 0.17159 -0.09260 0.74159
 C863 C 0.15381 -0.04952 0.74196
 C864 C 0.14509 -0.03770 0.74491
 H865 H 0.19760 -0.14620 0.71993
 H866 H 0.17819 -0.12316 0.72439
 H867 H 0.22095 -0.08857 0.73409
 H868 H 0.24019 -0.11166 0.72927
 H869 H 0.20106 -0.07167 0.71898
 H870 H 0.18216 -0.04844 0.72443
 H871 H 0.14959 -0.08147 0.75180
 H872 H 0.16857 -0.10476 0.74671
 C873 C 0.74096 0.34416 0.22112
 C874 C 0.73142 0.35544 0.22345
 C875 C 0.72007 0.36894 0.22627
 C876 C 0.70257 0.36584 0.22495
 C877 C 0.69154 0.37895 0.22773
 C878 C 0.69790 0.39536 0.23187
 C879 C 0.71552 0.39834 0.23318
 C880 C 0.72652 0.38521 0.23040
 C881 C 0.68623 0.40933 0.23478
 C882 C 0.68992 0.42543 0.22868
 C883 C 0.67910 0.43866 0.23162
 C884 C 0.66443 0.43601 0.24066
 C885 C 0.66057 0.42003 0.24669
 C886 C 0.67138 0.40676 0.24376
 C887 C 0.65357 0.44981 0.24389
 C888 C 0.64480 0.46166 0.24653
 H889 H 0.69745 0.35329 0.22172
 H890 H 0.67805 0.37630 0.22642
 H891 H 0.72081 0.41077 0.23657
 H892 H 0.74005 0.38774 0.23151
 H893 H 0.70111 0.42775 0.22152
 H894 H 0.68219 0.45097 0.22686
 H895 H 0.64927 0.41786 0.25375
 H896 H 0.66829 0.39457 0.24878
 C897 C 0.73551 0.65191 0.27864
 C898 C 0.72604 0.63973 0.27689
 C899 C 0.71488 0.62508 0.27483
 C900 C 0.69761 0.62627 0.27774
 C901 C 0.68684 0.61196 0.27591
 C902 C 0.69324 0.59625 0.27120
 C903 C 0.71061 0.59523 0.26821
 C904 C 0.72134 0.60954 0.27002
 C905 C 0.68196 0.58094 0.26951
 C906 C 0.68754 0.56546 0.27534
 C907 C 0.67726 0.55088 0.27323
 C908 C 0.66126 0.55151 0.26531
 C909 C 0.65544 0.56688 0.25970
 C910 C 0.66571 0.58153 0.26183
 C911 C 0.65133 0.53614 0.26230
 C912 C 0.64384 0.52281 0.25968
 H913 H 0.69250 0.63824 0.28152
 H914 H 0.67357 0.61312 0.27847
 H915 H 0.71588 0.58338 0.26431
 H916 H 0.73467 0.60846 0.26768
 H917 H 0.69985 0.56464 0.28154
 H918 H 0.68190 0.53905 0.27760
 H919 H 0.64310 0.56749 0.25347
 H920 H 0.66112 0.59323 0.25709
 C921 C 0.23543 0.15270 0.77817
 C922 C 0.22597 0.14051 0.77646
 C923 C 0.21484 0.12582 0.77446
 C924 C 0.22135 0.11026 0.76980
 C925 C 0.21068 0.09590 0.76811
 C926 C 0.19330 0.09689 0.77107
 C927 C 0.18683 0.11263 0.77559
 C928 C 0.19755 0.12699 0.77731
 C929 C 0.18206 0.08153 0.76948
 C930 C 0.16585 0.08202 0.76167
 C931 C 0.15565 0.06731 0.75956
 C932 C 0.16148 0.05200 0.76531
 C933 C 0.17741 0.05150 0.77342
 C934 C 0.18762 0.06614 0.77550
 C935 C 0.15167 0.03657 0.76217
 C936 C 0.14422 0.02324 0.75937
 H937 H 0.23470 0.10922 0.76750
 H938 H 0.21599 0.08404 0.76433
 H939 H 0.17355 0.11377 0.77808
 H940 H 0.19238 0.13896 0.78095
 H941 H 0.16127 0.09365 0.75679
 H942 H 0.14337 0.06784 0.75320
 H943 H 0.18205 0.03973 0.77794
 H944 H 0.19990 0.06540 0.78181
 C945 C 0.21933 0.25829 0.15081
 C946 C 0.22125 0.26756 0.13928
 C947 C 0.22363 0.27858 0.12549
 C948 C 0.23420 0.27399 0.11248
 C949 C 0.23662 0.28470 0.09910
 C950 C 0.22848 0.30015 0.09857
 C951 C 0.21785 0.30465 0.11171
 C952 C 0.21544 0.29390 0.12508
 C953 C 0.23110 0.31152 0.08436
 C954 C 0.23318 0.32904 0.08729
 C955 C 0.23584 0.33969 0.07389
 C956 C 0.23642 0.33298 0.05743
 C957 C 0.23431 0.31559 0.05439
 C958 C 0.23167 0.30492 0.06776
 C959 C 0.23918 0.34386 0.04361
 C960 C 0.24147 0.35282 0.03189
 H961 H 0.24063 0.26217 0.11271
 H962 H 0.24504 0.28100 0.08928
 H963 H 0.21124 0.31636 0.11154
 H964 H 0.20718 0.29753 0.13508
 H965 H 0.23301 0.33447 0.09996
 H966 H 0.23751 0.35314 0.07637
 H967 H 0.23470 0.31028 0.04168
 H968 H 0.22988 0.29152 0.06508
 C969 C 0.72023 0.75916 0.65155
 C970 C 0.72225 0.76847 0.64006
 C971 C 0.72472 0.77950 0.62630
 C972 C 0.73527 0.77489 0.61327
 C973 C 0.73763 0.78555 0.59983
 C974 C 0.72945 0.80098 0.59926
 C975 C 0.71890 0.80553 0.61245
 C976 C 0.71655 0.79484 0.62588
 C977 C 0.73187 0.81223 0.58492
 C978 C 0.73383 0.82978 0.58767
 C979 C 0.73622 0.84033 0.57413
 C980 C 0.73664 0.83348 0.55771
 C981 C 0.73465 0.81606 0.55484
 C982 C 0.73228 0.80549 0.56835
 C983 C 0.73921 0.84428 0.54379
 C984 C 0.74141 0.85321 0.53203
 H985 H 0.74169 0.76306 0.61351
 H986 H 0.74601 0.78181 0.58999
 H987 H 0.71228 0.81724 0.61226
 H988 H 0.70832 0.79851 0.63589
 H989 H 0.73378 0.83532 0.60030
 H990 H 0.73780 0.85380 0.57648
 H991 H 0.73492 0.81064 0.54217
 H992 H 0.73057 0.79206 0.56581
 C993 C 0.77595 0.76601 0.34579
 C994 C 0.77383 0.77623 0.35699
 C995 C 0.77112 0.78820 0.37051
 C996 C 0.78407 0.79967 0.37605
 C997 C 0.78157 0.81090 0.38958
 C998 C 0.76606 0.81077 0.39774
 C999 C 0.75306 0.79932 0.39193
 C1000 C 0.75559 0.78812 0.37841
 C1001 C 0.76362 0.82204 0.41267
 C1002 C 0.74806 0.82972 0.41499
 C1003 C 0.74541 0.83937 0.42963
 C1004 C 0.75827 0.84151 0.44210
 C1005 C 0.77392 0.83426 0.43973
 C1006 C 0.77660 0.82461 0.42511
 C1007 C 0.75509 0.85014 0.45781
 C1008 C 0.75239 0.85673 0.47127
 H1009 H 0.79614 0.79985 0.36999
 H1010 H 0.79175 0.81969 0.39365
 H1011 H 0.74108 0.79873 0.39810
 H1012 H 0.74551 0.77923 0.37427
 H1013 H 0.73790 0.82814 0.40555
 H1014 H 0.73323 0.84489 0.43137
 H1015 H 0.78391 0.83572 0.44938
 H1016 H 0.78863 0.81869 0.42380
 C1017 C 0.27786 0.26584 -0.15403
 C1018 C 0.27614 0.27588 -0.14257
 C1019 C 0.27394 0.28768 -0.12878
 C1020 C 0.26302 0.30103 -0.13070
 C1021 C 0.26048 0.31220 -0.11713
 C1022 C 0.26885 0.31015 -0.10146
 C1023 C 0.27991 0.29675 -0.09971
 C1024 C 0.28242 0.28560 -0.11329
 C1025 C 0.26572 0.32158 -0.08683
 C1026 C 0.27906 0.32696 -0.07557
 C1027 C 0.27590 0.33675 -0.06116
 C1028 C 0.25940 0.34133 -0.05783
 C1029 C 0.24611 0.33643 -0.06917
 C1030 C 0.24924 0.32664 -0.08360
 C1031 C 0.25593 0.34994 -0.04218
 C1032 C 0.25298 0.35649 -0.02876
 H1033 H 0.25639 0.30274 -0.14265
 H1034 H 0.25201 0.32247 -0.11892
 H1035 H 0.28631 0.29467 -0.08774
 H1036 H 0.29083 0.27525 -0.11164
 H1037 H 0.29191 0.32347 -0.07784
 H1038 H 0.28628 0.34044 -0.05244
 H1039 H 0.23327 0.33980 -0.06664
 H1040 H 0.23868 0.32255 -0.09192
 C1041 C 0.71994 0.23955 -0.15547
 C1042 C 0.72213 0.23012 -0.14407
 C1043 C 0.72504 0.21902 -0.13038
 C1044 C 0.71615 0.20353 -0.12998
 C1045 C 0.71912 0.19272 -0.11672
 C1046 C 0.73103 0.19728 -0.10368
 C1047 C 0.73989 0.21289 -0.10422
 C1048 C 0.73691 0.22366 -0.11748
 C1049 C 0.73424 0.18583 -0.08960
 C1050 C 0.73663 0.19232 -0.07297
 C1051 C 0.73983 0.18157 -0.05973
 C1052 C 0.74069 0.16421 -0.06291
 C1053 C 0.73829 0.15760 -0.07939
 C1054 C 0.73507 0.16833 -0.09266
 C1055 C 0.74398 0.15325 -0.04920
 C1056 C 0.74666 0.14431 -0.03748
 H1057 H 0.70692 0.19982 -0.13989
 H1058 H 0.71195 0.18088 -0.11656
 H1059 H 0.74931 0.21666 -0.09451
 H1060 H 0.74393 0.23559 -0.11771
 H1061 H 0.73583 0.20569 -0.07017
 H1062 H 0.74159 0.18681 -0.04700
 H1063 H 0.73895 0.14418 -0.08198
 H1064 H 0.73349 0.16298 -0.10534
 C1065 C 0.22034 0.73997 0.34519
 C1066 C 0.22253 0.73041 0.35648
 C1067 C 0.22543 0.71904 0.36996
 C1068 C 0.24140 0.71875 0.37804
 C1069 C 0.24432 0.70767 0.39106
 C1070 C 0.23128 0.69673 0.39620
 C1071 C 0.21526 0.69714 0.38802
 C1072 C 0.21237 0.70822 0.37498
 C1073 C 0.23436 0.68504 0.41013
 C1074 C 0.22209 0.68240 0.42227
 C1075 C 0.22512 0.67166 0.43556
 C1076 C 0.24042 0.66340 0.43689
 C1077 C 0.25266 0.66583 0.42481
 C1078 C 0.24966 0.67658 0.41151
 C1079 C 0.24367 0.65272 0.45084
 C1080 C 0.24633 0.64397 0.46269
 H1081 H 0.25159 0.72712 0.37429
 H1082 H 0.25671 0.70784 0.39728
 H1083 H 0.20503 0.68874 0.39155
 H1084 H 0.19997 0.70832 0.36879
 H1085 H 0.21029 0.68889 0.42168
 H1086 H 0.21559 0.66992 0.44488
 H1087 H 0.26454 0.65947 0.42571
 H1088 H 0.25926 0.67817 0.40224
 C1089 C 0.27793 0.73476 0.65155
 C1090 C 0.27588 0.72471 0.63991
 C1091 C 0.27342 0.71283 0.62591
 C1092 C 0.28407 0.69921 0.62418
 C1093 C 0.28189 0.68791 0.61034
 C1094 C 0.26898 0.69008 0.59807
 C1095 C 0.25826 0.70375 0.60001
 C1096 C 0.26048 0.71502 0.61383
 C1097 C 0.26687 0.67842 0.58310
 C1098 C 0.25062 0.67329 0.57682
 C1099 C 0.24859 0.66314 0.56215
 C1100 C 0.26276 0.65794 0.55357
 C1101 C 0.27899 0.66266 0.55989
 C1102 C 0.28106 0.67280 0.57458
 C1103 C 0.26055 0.64880 0.53768
 C1104 C 0.25848 0.64181 0.52405
 H1105 H 0.29409 0.69735 0.63349
 H1106 H 0.29021 0.67741 0.60930
 H1107 H 0.24838 0.70592 0.59066
 H1108 H 0.25218 0.72554 0.61502
 H1109 H 0.23946 0.67721 0.58320
 H1110 H 0.23596 0.65962 0.55732
 H1111 H 0.29004 0.65883 0.55325
 H1112 H 0.29373 0.67669 0.57897
 C1113 C 0.77762 0.23347 0.15245
 C1114 C 0.77557 0.22363 0.14062
 C1115 C 0.77307 0.21204 0.12638
 C1116 C 0.78165 0.19691 0.12581
 C1117 C 0.77940 0.18580 0.11183
 C1118 C 0.76850 0.18967 0.09825
 C1119 C 0.75988 0.20488 0.09900
 C1120 C 0.76216 0.21596 0.11296
 C1121 C 0.76630 0.17812 0.08320
 C1122 C 0.75026 0.17532 0.07526
 C1123 C 0.74834 0.16526 0.06052
 C1124 C 0.76238 0.15783 0.05353
 C1125 C 0.77834 0.16021 0.06153
 C1126 C 0.78030 0.17025 0.07631
 C1127 C 0.76048 0.14876 0.03757
 C1128 C 0.75862 0.14184 0.02387
 H1129 H 0.79010 0.19373 0.13615
 H1130 H 0.78608 0.17413 0.11170
 H1131 H 0.75160 0.20835 0.08864
 H1132 H 0.75550 0.22766 0.11323
 H1133 H 0.73922 0.18099 0.08038
 H1134 H 0.73593 0.16354 0.05441
 H1135 H 0.78932 0.15462 0.05615
 H1136 H 0.79283 0.17230 0.08202
 C1137 C 0.47267 0.39938 0.50566
 C1138 C 0.47480 0.38763 0.51465
 C1139 C 0.47707 0.37361 0.52548
 C1140 C 0.46457 0.36932 0.53678
 C1141 C 0.46664 0.35571 0.54729
 C1142 C 0.48128 0.34616 0.54666
 C1143 C 0.49382 0.35058 0.53529
 C1144 C 0.49170 0.36421 0.52476
 C1145 C 0.48338 0.33166 0.55784
 C1146 C 0.49909 0.32880 0.56589
 C1147 C 0.50082 0.31544 0.57684
 C1148 C 0.48690 0.30475 0.57981
 C1149 C 0.47131 0.30736 0.57167
 C1150 C 0.46954 0.32070 0.56077
 C1151 C 0.48832 0.29137 0.59154
 C1152 C 0.48887 0.28022 0.60148
 H1153 H 0.45322 0.37653 0.53749
 H1154 H 0.45687 0.35278 0.55607
 H1155 H 0.50513 0.34336 0.53438
 H1156 H 0.50144 0.36737 0.51602
 H1157 H 0.50993 0.33711 0.56403
 H1158 H 0.51294 0.31358 0.58312
 H1159 H 0.46045 0.29915 0.57386
 H1160 H 0.45735 0.32240 0.55458
 C1161 C -0.02713 0.89992 0.00546
 C1162 C -0.02497 0.88824 0.01455
 C1163 C -0.02267 0.87432 0.02551
 C1164 C -0.00928 0.86348 0.02330
 C1165 C -0.00721 0.84990 0.03390
 C1166 C -0.01857 0.84698 0.04684
 C1167 C -0.03194 0.85801 0.04899
 C1168 C -0.03396 0.87156 0.03839
 C1169 C -0.01662 0.83244 0.05800
 C1170 C -0.03093 0.82303 0.06281
 C1171 C -0.02923 0.80959 0.07359
 C1172 C -0.01322 0.80532 0.07974
 C1173 C 0.00114 0.81449 0.07493
 C1174 C -0.00054 0.82795 0.06411
 C1175 C -0.01176 0.79178 0.09128
 C1176 C -0.01119 0.78053 0.10110
 H1177 H -0.00048 0.86546 0.01333
 H1178 H 0.00309 0.84154 0.03181
 H1179 H -0.04074 0.85626 0.05898
 H1180 H -0.04435 0.87989 0.04026
 H1181 H -0.04346 0.82599 0.05814
 H1182 H -0.04043 0.80258 0.07721
 H1183 H 0.01359 0.81134 0.07967
 H1184 H 0.01070 0.83506 0.06079
 C1185 C 0.03604 0.60506 0.00659
 C1186 C 0.03376 0.61684 0.01611
 C1187 C 0.03083 0.63090 0.02740
 C1188 C 0.03682 0.64708 0.02371
 C1189 C 0.03353 0.66082 0.03441
 C1190 C 0.02419 0.65854 0.04898
 C1191 C 0.01837 0.64217 0.05267
 C1192 C 0.02167 0.62847 0.04194
 C1193 C 0.02021 0.67316 0.06012
 C1194 C 0.02067 0.67178 0.07775
 C1195 C 0.01631 0.68532 0.08819
 C1196 C 0.01144 0.70044 0.08121
 C1197 C 0.01113 0.70203 0.06370
 C1198 C 0.01552 0.68850 0.05322
 C1199 C 0.00613 0.71400 0.09205
 C1200 C 0.00134 0.72496 0.10140
 H1201 H 0.04397 0.64910 0.01250
 H1202 H 0.03838 0.67321 0.03135
 H1203 H 0.01097 0.64001 0.06366
 H1204 H 0.01691 0.61600 0.04490
 H1205 H 0.02443 0.66023 0.08346
 H1206 H 0.01656 0.68394 0.10173
 H1207 H 0.00727 0.71363 0.05815
 H1208 H 0.01481 0.68989 0.03970
 C1209 C 0.53585 0.10481 0.50701
 C1210 C 0.53371 0.11670 0.51642
 C1211 C 0.53087 0.13084 0.52764
 C1212 C 0.52146 0.12855 0.54204
 C1213 C 0.51825 0.14231 0.55272
 C1214 C 0.52440 0.15858 0.54912
 C1215 C 0.53395 0.16074 0.53467
 C1216 C 0.53716 0.14694 0.52401
 C1217 C 0.52058 0.17322 0.56029
 C1218 C 0.51608 0.18864 0.55344
 C1219 C 0.51168 0.20213 0.56397
 C1220 C 0.51178 0.20041 0.58146
 C1221 C 0.51650 0.18522 0.58839
 C1222 C 0.52088 0.17172 0.57790
 C1223 C 0.50634 0.21388 0.59232
 C1224 C 0.50144 0.22477 0.60168
 H1225 H 0.51647 0.11616 0.54493
 H1226 H 0.51065 0.14027 0.56360
 H1227 H 0.53901 0.17307 0.53168
 H1228 H 0.54448 0.14885 0.51291
 H1229 H 0.51552 0.19011 0.53993
 H1230 H 0.50794 0.21380 0.55846
 H1231 H 0.51660 0.18375 0.60191
 H1232 H 0.52450 0.16010 0.58357
 C1233 C -0.03057 0.10696 0.49781
 C1234 C -0.02865 0.11838 0.48836
 C1235 C -0.02628 0.13174 0.47677
 C1236 C -0.01393 0.13050 0.46465
 C1237 C -0.01172 0.14327 0.45315
 C1238 C -0.02188 0.15747 0.45360
 C1239 C -0.03423 0.15864 0.46588
 C1240 C -0.03642 0.14583 0.47738
 C1241 C -0.01953 0.17096 0.44127
 C1242 C -0.02012 0.18806 0.44634
 C1243 C -0.01722 0.20070 0.43480
 C1244 C -0.01377 0.19640 0.41807
 C1245 C -0.01343 0.17944 0.41287
 C1246 C -0.01631 0.16680 0.42436
 C1247 C -0.00979 0.20925 0.40632
 C1248 C -0.00591 0.21962 0.39626
 H1249 H -0.00600 0.11965 0.46406
 H1250 H -0.00194 0.14211 0.44403
 H1251 H -0.04237 0.16932 0.46644
 H1252 H -0.04608 0.14686 0.48667
 H1253 H -0.02240 0.19166 0.45931
 H1254 H -0.01741 0.21380 0.43899
 H1255 H -0.01074 0.17597 0.39995
 H1256 H -0.01602 0.15377 0.42000
 C1257 C 0.46912 0.60678 0.99762
 C1258 C 0.47098 0.61823 0.98820
 C1259 C 0.47327 0.63166 0.97668
 C1260 C 0.48193 0.62880 0.96185
 C1261 C 0.48409 0.64173 0.95051
 C1262 C 0.47758 0.65771 0.95385
 C1263 C 0.46894 0.66049 0.96883
 C1264 C 0.46678 0.64752 0.98016
 C1265 C 0.47993 0.67141 0.94176
 C1266 C 0.48411 0.68799 0.94755
 C1267 C 0.48711 0.70068 0.93611
 C1268 C 0.48592 0.69697 0.91876
 C1269 C 0.48144 0.68059 0.91288
 C1270 C 0.47845 0.66790 0.92429
 C1271 C 0.49020 0.70967 0.90697
 C1272 C 0.49429 0.72001 0.89696
 H1273 H 0.48704 0.61658 0.95905
 H1274 H 0.49105 0.63927 0.93924
 H1275 H 0.46365 0.67261 0.97168
 H1276 H 0.46001 0.64985 0.99159
 H1277 H 0.48552 0.69106 0.96092
 H1278 H 0.49067 0.71330 0.94079
 H1279 H 0.48050 0.67758 0.89947
 H1280 H 0.47500 0.65532 0.91944
 C1281 C 0.52725 0.89912 0.99629
 C1282 C 0.52470 0.88717 0.98671
 C1283 C 0.52183 0.87282 0.97535
 C1284 C 0.50582 0.86481 0.97374
 C1285 C 0.50313 0.85071 0.96286
 C1286 C 0.51645 0.84444 0.95349
 C1287 C 0.53248 0.85264 0.95515
 C1288 C 0.53514 0.86673 0.96601
 C1289 C 0.51375 0.82938 0.94205
 C1290 C 0.52612 0.81711 0.94114
 C1291 C 0.52390 0.80321 0.92999
 C1292 C 0.50929 0.80133 0.91961
 C1293 C 0.49677 0.81334 0.92056
 C1294 C 0.49896 0.82727 0.93174
 C1295 C 0.50758 0.78738 0.90762
 C1296 C 0.50679 0.77575 0.89748
 H1297 H 0.49546 0.86940 0.98096
 H1298 H 0.49071 0.84456 0.96199
 H1299 H 0.54292 0.84827 0.94792
 H1300 H 0.54757 0.87286 0.96712
 H1301 H 0.53751 0.81824 0.94909
 H1302 H 0.53366 0.79399 0.92935
 H1303 H 0.48545 0.81205 0.91252
 H1304 H 0.48929 0.83659 0.93205
 C1305 C 0.02702 0.39838 0.49612
 C1306 C 0.02442 0.38634 0.48665
 C1307 C 0.02149 0.37190 0.47541
 C1308 C 0.00501 0.36692 0.47006
 C1309 C 0.00220 0.35285 0.45917
 C1310 C 0.01587 0.34357 0.45352
 C1311 C 0.03239 0.34872 0.45897
 C1312 C 0.03517 0.36279 0.46984
 C1313 C 0.01300 0.32863 0.44196
 C1314 C 0.02249 0.31415 0.44414
 C1315 C 0.02031 0.30032 0.43290
 C1316 C 0.00860 0.30073 0.41935
 C1317 C -0.00112 0.31495 0.41721
 C1318 C 0.00103 0.32882 0.42846
 C1319 C 0.00719 0.28683 0.40729
 C1320 C 0.00657 0.27524 0.39711
 H1321 H -0.00567 0.37387 0.47435
 H1322 H -0.01067 0.34910 0.45534
 H1323 H 0.04319 0.34200 0.45464
 H1324 H 0.04799 0.36656 0.47386
 H1325 H 0.03161 0.31352 0.45455
 H1326 H 0.02789 0.28937 0.43467
 H1327 H -0.01016 0.31543 0.40670
 H1328 H -0.00634 0.33984 0.42635
 C1329 C 0.40038 0.50541 0.47372
 C1330 C 0.38884 0.51454 0.47644
 C1331 C 0.37511 0.52557 0.47949
 C1332 C 0.37626 0.54232 0.47461
 C1333 C 0.36284 0.55299 0.47719
 C1334 C 0.34802 0.54705 0.48469
 C1335 C 0.34702 0.53021 0.48965
 C1336 C 0.36048 0.51955 0.48707
 C1337 C 0.33360 0.55833 0.48697
 C1338 C 0.31686 0.55229 0.48366
 C1339 C 0.30337 0.56313 0.48503
 C1340 C 0.30640 0.58010 0.48978
 C1341 C 0.32297 0.58615 0.49337
 C1342 C 0.33648 0.57535 0.49200
 C1343 C 0.29263 0.59148 0.49020
 C1344 C 0.28121 0.60115 0.49009
 H1345 H 0.38749 0.54710 0.46868
 H1346 H 0.36392 0.56580 0.47299
 H1347 H 0.33587 0.52531 0.49562
 H1348 H 0.35946 0.50661 0.49093
 H1349 H 0.31424 0.53932 0.47956
 H1350 H 0.29060 0.55834 0.48211
 H1351 H 0.32547 0.59928 0.49702
 H1352 H 0.34918 0.58033 0.49485
 C1353 C 0.90061 0.00586 -0.02685
 C1354 C 0.88906 0.01498 -0.02413
 C1355 C 0.87527 0.02594 -0.02106
 C1356 C 0.87635 0.04272 -0.02585
 C1357 C 0.86287 0.05331 -0.02321
 C1358 C 0.84808 0.04725 -0.01574
 C1359 C 0.84716 0.03037 -0.01088
 C1360 C 0.86067 0.01980 -0.01352
 C1361 C 0.83361 0.05843 -0.01335
 C1362 C 0.81689 0.05234 -0.01671
 C1363 C 0.80335 0.06309 -0.01524
 C1364 C 0.80630 0.08004 -0.01035
 C1365 C 0.82284 0.08614 -0.00668
 C1366 C 0.83640 0.07542 -0.00815
 C1367 C 0.79249 0.09138 -0.00997
 C1368 C 0.78106 0.10104 -0.01014
 H1369 H 0.88756 0.04760 -0.03175
 H1370 H 0.86388 0.06616 -0.02732
 H1371 H 0.83603 0.02538 -0.00494
 H1372 H 0.85972 0.00684 -0.00973
 H1373 H 0.81433 0.03939 -0.02093
 H1374 H 0.79060 0.05826 -0.01822
 H1375 H 0.82527 0.09924 -0.00290
 H1376 H 0.84908 0.08043 -0.00525
 C1377 C 0.60491 0.00580 0.03621
 C1378 C 0.61670 0.01522 0.03353
 C1379 C 0.63069 0.02647 0.03007
 C1380 C 0.64583 0.02609 0.03965
 C1381 C 0.65947 0.03690 0.03610
 C1382 C 0.65811 0.04825 0.02292
 C1383 C 0.64281 0.04855 0.01340
 C1384 C 0.62922 0.03773 0.01696
 C1385 C 0.67259 0.05965 0.01896
 C1386 C 0.66988 0.07639 0.01459
 C1387 C 0.68339 0.08695 0.01027
 C1388 C 0.69982 0.08097 0.01027
 C1389 C 0.70271 0.06441 0.01481
 C1390 C 0.68920 0.05381 0.01916
 C1391 C 0.71353 0.09174 0.00509
 C1392 C 0.72467 0.10098 0.00041
 H1393 H 0.64710 0.01743 0.04985
 H1394 H 0.67101 0.03650 0.04377
 H1395 H 0.64145 0.05696 0.00301
 H1396 H 0.61758 0.03809 0.00942
 H1397 H 0.65729 0.08133 0.01457
 H1398 H 0.68101 0.09976 0.00679
 H1399 H 0.71537 0.05963 0.01478
 H1400 H 0.69168 0.04094 0.02229
 C1401 C 0.10487 0.50510 0.53544
 C1402 C 0.11685 0.51425 0.53270
 C1403 C 0.13109 0.52509 0.52903
 C1404 C 0.13269 0.53111 0.51279
 C1405 C 0.14653 0.54153 0.50906
 C1406 C 0.15902 0.54606 0.52155
 C1407 C 0.15729 0.53998 0.53788
 C1408 C 0.14341 0.52954 0.54158
 C1409 C 0.17376 0.55710 0.51752
 C1410 C 0.17986 0.56994 0.52897
 C1411 C 0.19339 0.58064 0.52488
 C1412 C 0.20102 0.57862 0.50933
 C1413 C 0.19518 0.56575 0.49796
 C1414 C 0.18166 0.55505 0.50201
 C1415 C 0.21431 0.59017 0.50466
 C1416 C 0.22513 0.59998 0.50032
 H1417 H 0.12321 0.52776 0.50299
 H1418 H 0.14736 0.54620 0.49645
 H1419 H 0.16678 0.54310 0.54772
 H1420 H 0.14233 0.52490 0.55419
 H1421 H 0.17392 0.57196 0.54092
 H1422 H 0.19774 0.59064 0.53373
 H1423 H 0.20097 0.56409 0.48588
 H1424 H 0.17742 0.54515 0.49302
 C1425 C 0.10691 0.49844 -0.02943
 C1426 C 0.11834 0.48902 -0.02719
 C1427 C 0.13179 0.47749 -0.02473
 C1428 C 0.14800 0.48141 -0.03028
 C1429 C 0.16096 0.47003 -0.02818
 C1430 C 0.15784 0.45456 -0.02053
 C1431 C 0.14150 0.45076 -0.01497
 C1432 C 0.12858 0.46215 -0.01707
 C1433 C 0.17155 0.44243 -0.01823
 C1434 C 0.16820 0.42503 -0.02084
 C1435 C 0.18090 0.41355 -0.01802
 C1436 C 0.19713 0.41928 -0.01259
 C1437 C 0.20069 0.43658 -0.01021
 C1438 C 0.18800 0.44810 -0.01305
 C1439 C 0.20983 0.40734 -0.00866
 C1440 C 0.22016 0.39717 -0.00491
 H1441 H 0.15060 0.49321 -0.03633
 H1442 H 0.17335 0.47323 -0.03277
 H1443 H 0.13875 0.43907 -0.00882
 H1444 H 0.11607 0.45898 -0.01273
 H1445 H 0.15574 0.42029 -0.02507
 H1446 H 0.17800 0.40018 -0.01986
 H1447 H 0.21319 0.44115 -0.00590
 H1448 H 0.19093 0.46140 -0.01076
 C1449 C 0.60629 0.99814 0.47052
 C1450 C 0.61779 0.98877 0.47266
 C1451 C 0.63132 0.97732 0.47503
 C1452 C 0.64744 0.98127 0.46925
 C1453 C 0.66048 0.96996 0.47125
 C1454 C 0.65752 0.95452 0.47903
 C1455 C 0.64128 0.95070 0.48482
 C1456 C 0.62828 0.96202 0.48282
 C1457 C 0.67131 0.94248 0.48127
 C1458 C 0.66802 0.92505 0.47877
 C1459 C 0.68077 0.91364 0.48167
 C1460 C 0.69698 0.91947 0.48708
 C1461 C 0.70049 0.93679 0.48928
 C1462 C 0.68775 0.94824 0.48636
 C1463 C 0.70970 0.90760 0.49120
 C1464 C 0.72006 0.89752 0.49510
 H1465 H 0.64991 0.99303 0.46311
 H1466 H 0.67280 0.97318 0.46651
 H1467 H 0.63868 0.93903 0.49109
 H1468 H 0.61586 0.95883 0.48736
 H1469 H 0.65557 0.92024 0.47460
 H1470 H 0.67792 0.90025 0.47992
 H1471 H 0.71297 0.94144 0.49356
 H1472 H 0.69063 0.96156 0.48855
 C1473 C 0.89938 0.99712 0.52615
 C1474 C 0.88740 0.98767 0.52301
 C1475 C 0.87313 0.97627 0.51946
 C1476 C 0.87446 0.95913 0.52256
 C1477 C 0.86052 0.94807 0.51953
 C1478 C 0.84503 0.95404 0.51336
 C1479 C 0.84386 0.97128 0.51016
 C1480 C 0.85784 0.98232 0.51319
 C1481 C 0.83009 0.94236 0.51068
 C1482 C 0.81398 0.94731 0.51544
 C1483 C 0.80005 0.93605 0.51365
 C1484 C 0.80202 0.91972 0.50704
 C1485 C 0.81792 0.91476 0.50200
 C1486 C 0.83187 0.92600 0.50379
 C1487 C 0.78790 0.90783 0.50623
 C1488 C 0.77618 0.89776 0.50603
 H1489 H 0.88622 0.95433 0.52748
 H1490 H 0.86175 0.93492 0.52236
 H1491 H 0.83217 0.97622 0.50524
 H1492 H 0.85669 0.99557 0.51072
 H1493 H 0.81224 0.95973 0.52099
 H1494 H 0.78781 0.93997 0.51770
 H1495 H 0.81958 0.90215 0.49688
 H1496 H 0.84406 0.92189 0.49981
 C1497 C 0.39946 0.49685 0.02654
 C1498 C 0.38747 0.48739 0.02338
 C1499 C 0.37320 0.47599 0.01980
 C1500 C 0.35793 0.48203 0.01345
 C1501 C 0.34395 0.47100 0.01040
 C1502 C 0.34509 0.45376 0.01366
 C1503 C 0.36056 0.44780 0.01988
 C1504 C 0.37450 0.45885 0.02293
 C1505 C 0.33014 0.44208 0.01098
 C1506 C 0.33194 0.42570 0.00417
 C1507 C 0.31797 0.41448 0.00234
 C1508 C 0.30205 0.41948 0.00728
 C1509 C 0.30007 0.43582 0.01383
 C1510 C 0.31402 0.44707 0.01566
 C1511 C 0.28792 0.40760 0.00639
 C1512 C 0.27620 0.39753 0.00612
 H1513 H 0.35680 0.49528 0.01093
 H1514 H 0.33229 0.47592 0.00542
 H1515 H 0.36178 0.43465 0.02274
 H1516 H 0.38625 0.45405 0.02789
 H1517 H 0.34414 0.42155 0.00027
 H1518 H 0.31964 0.40184 -0.00271
 H1519 H 0.28782 0.43977 0.01781
 H1520 H 0.31227 0.45950 0.02116
 C1521 C 0.50647 0.47299 0.40023
 C1522 C 0.51564 0.47557 0.38869
 C1523 C 0.52670 0.47847 0.37496
 C1524 C 0.52143 0.48805 0.36139
 C1525 C 0.53212 0.49065 0.34796
 C1526 C 0.54824 0.48370 0.34796
 C1527 C 0.55343 0.47414 0.36171
 C1528 C 0.54273 0.47155 0.37510
 C1529 C 0.55953 0.48614 0.33359
 C1530 C 0.57703 0.48907 0.33645
 C1531 C 0.58775 0.49062 0.32291
 C1532 C 0.58115 0.48929 0.30634
 C1533 C 0.56373 0.48665 0.30336
 C1534 C 0.55297 0.48512 0.31688
 C1535 C 0.59238 0.48972 0.29246
 C1536 C 0.60197 0.48954 0.28098
 H1537 H 0.50906 0.49349 0.36116
 H1538 H 0.52783 0.49821 0.33765
 H1539 H 0.56565 0.46841 0.36197
 H1540 H 0.54691 0.46405 0.38550
 H1541 H 0.58244 0.49014 0.34916
 H1542 H 0.60123 0.49263 0.32537
 H1543 H 0.55850 0.48547 0.29058
 H1544 H 0.53959 0.48266 0.31426
 C1545 C 0.00659 -0.02702 0.89963
 C1546 C 0.01579 -0.02468 0.88806
 C1547 C 0.02695 -0.02216 0.87434
 C1548 C 0.03973 -0.03353 0.87140
 C1549 C 0.05066 -0.03117 0.85815
 C1550 C 0.04897 -0.01738 0.84762
 C1551 C 0.03605 -0.00601 0.85064
 C1552 C 0.02513 -0.00839 0.86393
 C1553 C 0.06057 -0.01497 0.83349
 C1554 C 0.05439 -0.00990 0.81768
 C1555 C 0.06525 -0.00824 0.80424
 C1556 C 0.08242 -0.01156 0.80644
 C1557 C 0.08873 -0.01638 0.82217
 C1558 C 0.07790 -0.01807 0.83560
 C1559 C 0.09348 -0.01077 0.79242
 C1560 C 0.10290 -0.01065 0.78080
 H1561 H 0.04121 -0.04427 0.87932
 H1562 H 0.06029 -0.04029 0.85600
 H1563 H 0.03454 0.00482 0.84287
 H1564 H 0.01531 0.00052 0.86609
 H1565 H 0.04108 -0.00762 0.81560
 H1566 H 0.06020 -0.00461 0.79209
 H1567 H 0.10199 -0.01900 0.82401
 H1568 H 0.08310 -0.02177 0.84766
 C1569 C 0.00536 0.03754 0.60665
 C1570 C 0.01450 0.03511 0.61871
 C1571 C 0.02529 0.03185 0.63309
 C1572 C 0.03820 0.04346 0.63842
 C1573 C 0.04884 0.04007 0.65224
 C1574 C 0.04668 0.02500 0.66090
 C1575 C 0.03359 0.01348 0.65548
 C1576 C 0.02298 0.01689 0.64168
 C1577 C 0.05827 0.02107 0.67524
 C1578 C 0.05204 0.01315 0.68949
 C1579 C 0.06308 0.00866 0.70257
 C1580 C 0.08048 0.01206 0.70163
 C1581 C 0.08676 0.02020 0.68765
 C1582 C 0.07575 0.02470 0.67455
 C1583 C 0.09196 0.00652 0.71458
 C1584 C 0.10172 0.00153 0.72513
 H1585 H 0.04008 0.05509 0.63187
 H1586 H 0.05868 0.04927 0.65621
 H1587 H 0.03175 0.00166 0.66170
 H1588 H 0.01307 0.00779 0.63762
 H1589 H 0.03863 0.01041 0.69049
 H1590 H 0.05808 0.00236 0.71333
 H1591 H 0.10021 0.02280 0.68674
 H1592 H 0.08096 0.03058 0.66368
 C1593 C 0.50609 0.53755 0.10626
 C1594 C 0.51564 0.53487 0.11794
 C1595 C 0.52701 0.53128 0.13180
 C1596 C 0.52799 0.54176 0.14633
 C1597 C 0.53888 0.53805 0.15986
 C1598 C 0.54896 0.52380 0.15899
 C1599 C 0.54786 0.51336 0.14432
 C1600 C 0.53698 0.51709 0.13084
 C1601 C 0.56053 0.51974 0.17330
 C1602 C 0.57668 0.51368 0.17028
 C1603 C 0.58738 0.50927 0.18366
 C1604 C 0.58212 0.51088 0.20026
 C1605 C 0.56617 0.51712 0.20345
 C1606 C 0.55543 0.52155 0.19006
 C1607 C 0.59295 0.50558 0.21387
 C1608 C 0.60223 0.50073 0.22490
 H1609 H 0.52034 0.55279 0.14721
 H1610 H 0.53956 0.54642 0.17090
 H1611 H 0.55524 0.50216 0.14336
 H1612 H 0.53626 0.50883 0.11969
 H1613 H 0.58108 0.51238 0.15756
 H1614 H 0.59970 0.50448 0.18104
 H1615 H 0.56194 0.51835 0.21625
 H1616 H 0.54301 0.52601 0.19280
 C1617 C 0.49793 -0.03028 0.10805
 C1618 C 0.48866 -0.02792 0.11957
 C1619 C 0.47741 -0.02509 0.13316
 C1620 C 0.47503 -0.03737 0.14520
 C1621 C 0.46385 -0.03473 0.15823
 C1622 C 0.45492 -0.01974 0.15939
 C1623 C 0.45743 -0.00748 0.14723
 C1624 C 0.46860 -0.01014 0.13423
 C1625 C 0.44292 -0.01690 0.17311
 C1626 C 0.44189 -0.00085 0.18094
 C1627 C 0.43016 0.00203 0.19338
 C1628 C 0.41932 -0.01108 0.19821
 C1629 C 0.42039 -0.02716 0.19070
 C1630 C 0.43213 -0.03008 0.17824
 C1631 C 0.40671 -0.00774 0.21039
 C1632 C 0.39606 -0.00438 0.22035
 H1633 H 0.48178 -0.04899 0.14449
 H1634 H 0.46233 -0.04433 0.16748
 H1635 H 0.45054 0.00407 0.14760
 H1636 H 0.47027 -0.00059 0.12494
 H1637 H 0.45018 0.00948 0.17747
 H1638 H 0.42944 0.01453 0.19911
 H1639 H 0.41200 -0.03738 0.19430
 H1640 H 0.43248 -0.04253 0.17234
 C1641 C 0.99729 0.46972 0.60711
 C1642 C 0.98782 0.47205 0.61847
 C1643 C 0.97627 0.47475 0.63185
 C1644 C 0.97710 0.46503 0.64623
 C1645 C 0.96563 0.46741 0.65905
 C1646 C 0.95314 0.47952 0.65760
 C1647 C 0.95247 0.48928 0.64313
 C1648 C 0.96396 0.48689 0.63035
 C1649 C 0.94080 0.48196 0.67108
 C1650 C 0.92371 0.48465 0.66690
 C1651 C 0.91216 0.48744 0.67953
 C1652 C 0.91751 0.48758 0.69650
 C1653 C 0.93443 0.48470 0.70082
 C1654 C 0.94601 0.48187 0.68819
 C1655 C 0.90573 0.49147 0.70935
 C1656 C 0.89569 0.49524 0.71979
 H1657 H 0.98653 0.45553 0.64749
 H1658 H 0.96635 0.45958 0.66995
 H1659 H 0.94316 0.49887 0.64176
 H1660 H 0.96320 0.49450 0.61929
 H1661 H 0.91925 0.48454 0.65386
 H1662 H 0.89909 0.48966 0.67605
 H1663 H 0.93871 0.48488 0.71393
 H1664 H 0.95910 0.48001 0.69181
 C1665 C 0.99577 0.52775 0.89868
 C1666 C 0.98626 0.52481 0.88671
 C1667 C 0.97499 0.52134 0.87236
 C1668 C 0.95758 0.52318 0.87381
 C1669 C 0.94664 0.51998 0.85983
 C1670 C 0.95298 0.51489 0.84420
 C1671 C 0.97050 0.51303 0.84289
 C1672 C 0.98143 0.51624 0.85689
 C1673 C 0.94137 0.51190 0.82927
 C1674 C 0.94590 0.51757 0.81338
 C1675 C 0.93462 0.51550 0.79950
 C1676 C 0.91870 0.50772 0.80130
 C1677 C 0.91420 0.50173 0.81696
 C1678 C 0.92546 0.50378 0.83086
 C1679 C 0.90668 0.50671 0.78731
 C1680 C 0.89648 0.50638 0.77570
 H1681 H 0.95248 0.52720 0.88572
 H1682 H 0.93325 0.52179 0.86117
 H1683 H 0.97574 0.50898 0.83107
 H1684 H 0.99489 0.51476 0.85565
 H1685 H 0.95797 0.52403 0.81178
 H1686 H 0.93818 0.52027 0.78744
 H1687 H 0.90190 0.49569 0.81849
 H1688 H 0.92172 0.49906 0.84287
 C1689 C 0.49542 0.02841 0.39852
 C1690 C 0.48589 0.02570 0.38652
 C1691 C 0.47455 0.02267 0.37214
 C1692 C 0.46897 0.03622 0.36288
 C1693 C 0.45805 0.03336 0.34882
 C1694 C 0.45255 0.01687 0.34385
 C1695 C 0.45820 0.00332 0.35328
 C1696 C 0.46915 0.00621 0.36733
 C1697 C 0.44091 0.01389 0.32896
 C1698 C 0.42729 0.00209 0.32938
 C1699 C 0.41598 -0.00024 0.31554
 C1700 C 0.41818 0.00912 0.30110
 C1701 C 0.43184 0.02069 0.30046
 C1702 C 0.44314 0.02306 0.31429
 C1703 C 0.40603 0.00751 0.28723
 C1704 C 0.39575 0.00676 0.27568
 H1705 H 0.47303 0.04901 0.36653
 H1706 H 0.45373 0.04406 0.34197
 H1707 H 0.45432 -0.00951 0.34965
 H1708 H 0.47344 -0.00437 0.37439
 H1709 H 0.42513 -0.00500 0.34057
 H1710 H 0.40537 -0.00914 0.31620
 H1711 H 0.43365 0.02801 0.28935
 H1712 H 0.45363 0.03206 0.31351
   
