data_POSCAR
  _audit_creation_date              2014-09-24
  _audit_creation_method            'ToBaCCo'
  _symmetry_space_group_name_H-M    'P1'
  _symmetry_Int_Tables_number       1
  _symmetry_cell_setting            triclinic
  loop_
  _symmetry_equiv_pos_as_xyz
 x,y,z
_cell_length_a 91.3751
_cell_length_b 91.4944
_cell_length_c 91.6312
_cell_angle_alpha 89.972100
_cell_angle_beta 89.982000
_cell_angle_gamma 89.952500
loop_
  _atom_site_label
  _atom_site_type_symbol
  _atom_site_fract_x
  _atom_site_fract_y
  _atom_site_fract_z
N1 N 0.35580 0.31522 0.32562
 N2 N 0.35574 0.32554 0.31561
 C3 C 0.36719 0.32348 0.30655
 C4 C 0.37471 0.31128 0.31122
 C5 C 0.36727 0.30627 0.32330
 H6 H 0.36990 0.33032 0.29731
 H7 H 0.37007 0.29691 0.32995
 Cu8 Cu 0.34071 0.34061 0.31552
 Cu9 Cu 0.34121 0.31431 0.34109
 Cu10 Cu 0.31447 0.34131 0.34117
 N11 N 0.32575 0.35574 0.31567
 N12 N 0.31546 0.35589 0.32571
 C13 C 0.30657 0.36740 0.32340
 C14 C 0.31161 0.37478 0.31130
 C15 C 0.32375 0.36718 0.30660
 H16 H 0.29721 0.37025 0.33005
 H17 H 0.33057 0.36981 0.29732
 N18 N 0.31536 0.32560 0.35589
 N19 N 0.32552 0.31531 0.35584
 C20 C 0.32330 0.30636 0.36731
 C21 C 0.31123 0.31130 0.37483
 C22 C 0.30642 0.32345 0.36738
 H23 H 0.33000 0.29701 0.37009
 H24 H 0.29716 0.33025 0.37022
 H25 H 0.32467 0.32472 0.32974
 H26 H 0.33652 0.33638 0.34149
 N27 N 0.35606 0.81543 -0.17457
 N28 N 0.35588 0.82559 -0.18474
 C29 C 0.36741 0.82357 -0.19372
 C30 C 0.37509 0.81155 -0.18883
 C31 C 0.36767 0.80661 -0.17670
 H32 H 0.37007 0.83032 -0.20304
 H33 H 0.37055 0.79737 -0.16991
 Cu34 Cu 0.34071 0.84057 -0.18515
 Cu35 Cu 0.34139 0.81457 -0.15918
 Cu36 Cu 0.31460 0.84144 -0.15923
 N37 N 0.32575 0.85578 -0.18485
 N38 N 0.31557 0.85603 -0.17469
 C39 C 0.30674 0.86762 -0.17692
 C40 C 0.31170 0.87494 -0.18909
 C41 C 0.32374 0.86723 -0.19391
 H42 H 0.29748 0.87053 -0.17016
 H43 H 0.33051 0.86981 -0.20325
 N44 N 0.31544 0.82574 -0.14448
 N45 N 0.32564 0.81549 -0.14449
 C46 C 0.32345 0.80657 -0.13299
 C47 C 0.31135 0.81147 -0.12547
 C48 C 0.30650 0.82359 -0.13298
 H49 H 0.33019 0.79726 -0.13018
 H50 H 0.29722 0.83038 -0.13016
 H51 H 0.32479 0.82483 -0.17060
 H52 H 0.33671 0.83671 -0.15909
 N53 N 0.85550 0.31572 -0.17454
 N54 N 0.85533 0.32593 -0.18466
 C55 C 0.86679 0.32389 -0.19371
 C56 C 0.87443 0.31181 -0.18892
 C57 C 0.86704 0.30685 -0.17678
 H58 H 0.86947 0.33070 -0.20298
 H59 H 0.86992 0.29757 -0.17005
 Cu60 Cu 0.84031 0.34101 -0.18462
 Cu61 Cu 0.84092 0.31481 -0.15904
 Cu62 Cu 0.81413 0.34176 -0.15897
 N63 N 0.82534 0.35614 -0.18458
 N64 N 0.81512 0.35636 -0.17445
 C65 C 0.80635 0.36798 -0.17664
 C66 C 0.81140 0.37535 -0.18874
 C67 C 0.82341 0.36764 -0.19358
 H68 H 0.79707 0.37089 -0.16990
 H69 H 0.83025 0.37027 -0.20286
 N70 N 0.81503 0.32603 -0.14426
 N71 N 0.82523 0.31578 -0.14429
 C72 C 0.82301 0.30682 -0.13282
 C73 C 0.81091 0.31171 -0.12532
 C74 C 0.80607 0.32386 -0.13277
 H75 H 0.82974 0.29749 -0.13004
 H76 H 0.79680 0.33063 -0.12995
 H77 H 0.82435 0.32517 -0.17034
 H78 H 0.83621 0.33690 -0.15865
 N79 N 0.85546 0.81562 0.32552
 N80 N 0.85528 0.82580 0.31537
 C81 C 0.86676 0.82378 0.30636
 C82 C 0.87445 0.81175 0.31119
 C83 C 0.86705 0.80679 0.32332
 H84 H 0.86943 0.83058 0.29707
 H85 H 0.86995 0.79755 0.33009
 Cu86 Cu 0.84022 0.84085 0.31534
 Cu87 Cu 0.84087 0.81474 0.34101
 Cu88 Cu 0.81402 0.84163 0.34097
 N89 N 0.82520 0.85593 0.31530
 N90 N 0.81498 0.85617 0.32543
 C91 C 0.80614 0.86773 0.32315
 C92 C 0.81116 0.87504 0.31099
 C93 C 0.82323 0.86736 0.30622
 H94 H 0.79686 0.87066 0.32988
 H95 H 0.83006 0.86998 0.29695
 N96 N 0.81495 0.82596 0.35573
 N97 N 0.82516 0.81572 0.35574
 C98 C 0.82295 0.80678 0.36723
 C99 C 0.81083 0.81168 0.37470
 C100 C 0.80598 0.82380 0.36722
 H101 H 0.82968 0.79747 0.37003
 H102 H 0.79668 0.83056 0.37001
 H103 H 0.82428 0.82504 0.32967
 H104 H 0.83610 0.83683 0.34132
 N105 N 0.64406 0.68456 0.32592
 N106 N 0.64412 0.67423 0.31594
 C107 C 0.63270 0.67628 0.30686
 C108 C 0.62520 0.68851 0.31148
 C109 C 0.63262 0.69353 0.32355
 H110 H 0.62998 0.66943 0.29764
 H111 H 0.62987 0.70295 0.33014
 Cu112 Cu 0.65920 0.65922 0.31588
 Cu113 Cu 0.65870 0.68553 0.34135
 Cu114 Cu 0.68565 0.65874 0.34126
 N115 N 0.67426 0.64419 0.31588
 N116 N 0.68466 0.64415 0.32581
 C117 C 0.69364 0.63273 0.32341
 C118 C 0.68854 0.62529 0.31137
 C119 C 0.67627 0.63276 0.30681
 H120 H 0.70310 0.62999 0.32995
 H121 H 0.66935 0.63002 0.29764
 N122 N 0.68471 0.67443 0.35598
 N123 N 0.67445 0.68462 0.35602
 C124 C 0.67660 0.69352 0.36754
 C125 C 0.68871 0.68863 0.37502
 C126 C 0.69365 0.67658 0.36748
 H127 H 0.66981 0.70278 0.37037
 H128 H 0.70297 0.66985 0.37026
 H129 H 0.67524 0.67524 0.32986
 H130 H 0.66358 0.66349 0.34175
 N131 N 0.64427 0.18413 -0.17422
 N132 N 0.64426 0.17372 -0.18413
 C133 C 0.63267 0.17563 -0.19303
 C134 C 0.62511 0.18781 -0.18836
 C135 C 0.63271 0.19299 -0.17646
 H136 H 0.62988 0.16871 -0.20218
 H137 H 0.63001 0.20244 -0.16991
 Cu138 Cu 0.65943 0.15878 -0.18429
 Cu139 Cu 0.65905 0.18521 -0.15893
 Cu140 Cu 0.68610 0.15851 -0.15912
 N141 N 0.67459 0.14382 -0.18440
 N142 N 0.68508 0.14386 -0.17455
 C143 C 0.69407 0.13244 -0.17696
 C144 C 0.68889 0.12493 -0.18892
 C145 C 0.67655 0.13235 -0.19343
 H146 H 0.70357 0.12975 -0.17045
 H147 H 0.66954 0.12954 -0.20251
 N148 N 0.68519 0.17424 -0.14441
 N149 N 0.67491 0.18441 -0.14436
 C150 C 0.67701 0.19327 -0.13281
 C151 C 0.68911 0.18840 -0.12531
 C152 C 0.69409 0.17638 -0.13288
 H153 H 0.67017 0.20248 -0.12994
 H154 H 0.70340 0.16964 -0.13007
 H155 H 0.67553 0.17491 -0.17049
 H156 H 0.66401 0.16317 -0.15845
 N157 N 0.14446 0.68487 -0.17463
 N158 N 0.14441 0.67448 -0.18455
 C159 C 0.13296 0.67654 -0.19358
 C160 C 0.12554 0.68883 -0.18901
 C161 C 0.13305 0.69389 -0.17700
 H162 H 0.13011 0.66959 -0.20268
 H163 H 0.13033 0.70331 -0.17041
 Cu164 Cu 0.15912 0.65910 -0.18449
 Cu165 Cu 0.15894 0.68563 -0.15908
 Cu166 Cu 0.18561 0.65866 -0.15900
 N167 N 0.17440 0.64430 -0.18452
 N168 N 0.18476 0.64423 -0.17455
 C169 C 0.19374 0.63281 -0.17695
 C170 C 0.18871 0.62542 -0.18903
 C171 C 0.17646 0.63291 -0.19362
 H172 H 0.20314 0.63001 -0.17033
 H173 H 0.16954 0.63016 -0.20278
 N174 N 0.18464 0.67421 -0.14417
 N175 N 0.17449 0.68451 -0.14422
 C176 C 0.17656 0.69331 -0.13262
 C177 C 0.18851 0.68825 -0.12499
 C178 C 0.19343 0.67620 -0.13253
 H179 H 0.16985 0.70264 -0.12983
 H180 H 0.20266 0.66937 -0.12968
 H181 H 0.17531 0.67509 -0.17061
 H182 H 0.16354 0.66353 -0.15861
 N183 N 0.14423 0.18464 0.32563
 N184 N 0.14439 0.17441 0.31554
 C185 C 0.13294 0.17644 0.30650
 C186 C 0.12531 0.18853 0.31124
 C187 C 0.13269 0.19351 0.32336
 H188 H 0.13026 0.16962 0.29724
 H189 H 0.12982 0.20281 0.33006
 Cu190 Cu 0.15941 0.15934 0.31542
 Cu191 Cu 0.15879 0.18551 0.34114
 Cu192 Cu 0.18567 0.15869 0.34110
 N193 N 0.17452 0.14437 0.31548
 N194 N 0.18478 0.14420 0.32557
 C195 C 0.19368 0.13270 0.32325
 C196 C 0.18870 0.12537 0.31111
 C197 C 0.17657 0.13297 0.30640
 H198 H 0.20300 0.12982 0.32994
 H199 H 0.16973 0.13030 0.29715
 N200 N 0.18468 0.17430 0.35588
 N201 N 0.17446 0.18452 0.35590
 C202 C 0.17660 0.19340 0.36743
 C203 C 0.18869 0.18847 0.37494
 C204 C 0.19360 0.17641 0.36741
 H205 H 0.16985 0.20269 0.37024
 H206 H 0.20290 0.16965 0.37019
 H207 H 0.17536 0.17524 0.32969
 H208 H 0.16356 0.16343 0.34140
 N209 N 0.64438 0.31525 0.67451
 N210 N 0.64456 0.32541 0.68465
 C211 C 0.63308 0.32339 0.69368
 C212 C 0.62542 0.31136 0.68886
 C213 C 0.63280 0.30641 0.67672
 H214 H 0.63044 0.33014 0.70300
 H215 H 0.62989 0.29720 0.66993
 Cu216 Cu 0.65969 0.34038 0.68489
 Cu217 Cu 0.65892 0.31442 0.65898
 Cu218 Cu 0.68582 0.34123 0.65908
 N219 N 0.67470 0.35546 0.68477
 N220 N 0.68493 0.35567 0.67468
 C221 C 0.69382 0.36717 0.67701
 C222 C 0.68884 0.37448 0.68919
 C223 C 0.67672 0.36686 0.69389
 H224 H 0.70309 0.37009 0.67028
 H225 H 0.66991 0.36947 0.70318
 N226 N 0.68479 0.32568 0.64421
 N227 N 0.67455 0.31548 0.64419
 C228 C 0.67661 0.30668 0.63257
 C229 C 0.68864 0.31164 0.62501
 C230 C 0.69363 0.32363 0.63261
 H231 H 0.66984 0.29743 0.62974
 H232 H 0.70293 0.33037 0.62981
 H233 H 0.67556 0.32460 0.67035
 H234 H 0.66371 0.33651 0.65880
 N235 N 0.64421 0.81549 1.17445
 N236 N 0.64440 0.82567 1.18459
 C237 C 0.63290 0.82368 1.19359
 C238 C 0.62522 0.81166 1.18877
 C239 C 0.63262 0.80669 1.17666
 H240 H 0.63025 0.83045 1.20290
 H241 H 0.62973 0.79744 1.16991
 Cu242 Cu 0.65955 0.84057 1.18494
 Cu243 Cu 0.65877 0.81462 1.15897
 Cu244 Cu 0.68560 0.84140 1.15901
 N245 N 0.67449 0.85570 1.18463
 N246 N 0.68469 0.85590 1.17449
 C247 C 0.69354 0.86744 1.17672
 C248 C 0.68857 0.87479 1.18885
 C249 C 0.67650 0.86716 1.19365
 H250 H 0.70281 0.87033 1.16998
 H251 H 0.66970 0.86980 1.20295
 N252 N 0.68466 0.82580 1.14424
 N253 N 0.67444 0.81560 1.14422
 C254 C 0.67652 0.80680 1.13262
 C255 C 0.68855 0.81177 1.12506
 C256 C 0.69351 0.82376 1.13265
 H257 H 0.66975 0.79754 1.12977
 H258 H 0.70279 0.83053 1.12983
 H259 H 0.67536 0.82479 1.17037
 H260 H 0.66344 0.83673 1.15888
 N261 N 0.14417 0.31548 1.17447
 N262 N 0.14430 0.32573 1.18454
 C263 C 0.13288 0.32369 1.19363
 C264 C 0.12529 0.31156 1.18893
 C265 C 0.13267 0.30658 1.17679
 H266 H 0.13019 0.33053 1.20287
 H267 H 0.12982 0.29727 1.17011
 Cu268 Cu 0.15935 0.34075 1.18455
 Cu269 Cu 0.15871 0.31459 1.15892
 Cu270 Cu 0.18559 0.34142 1.15896
 N271 N 0.17440 0.35577 1.18456
 N272 N 0.18469 0.35590 1.17451
 C273 C 0.19360 0.36736 1.17684
 C274 C 0.18859 0.37473 1.18896
 C275 C 0.17643 0.36717 1.19364
 H276 H 0.20294 0.37020 1.17016
 H277 H 0.16956 0.36987 1.20287
 N278 N 0.18460 0.32583 1.14415
 N279 N 0.17437 0.31562 1.14413
 C280 C 0.17649 0.30678 1.13256
 C281 C 0.18855 0.31172 1.12503
 C282 C 0.19348 0.32375 1.13258
 H283 H 0.16974 0.29750 1.12974
 H284 H 0.20278 0.33050 1.12979
 H285 H 0.17531 0.32482 1.17033
 H286 H 0.16352 0.33663 1.15860
 N287 N 0.14425 0.81553 0.67447
 N288 N 0.14435 0.82583 0.68449
 C289 C 0.13290 0.82384 0.69354
 C290 C 0.12534 0.81169 0.68889
 C291 C 0.13276 0.80663 0.67681
 H292 H 0.13018 0.83072 0.70275
 H293 H 0.12993 0.79728 0.67017
 Cu294 Cu 0.15937 0.84087 0.68457
 Cu295 Cu 0.15874 0.81467 0.65891
 Cu296 Cu 0.18563 0.84144 0.65890
 N297 N 0.17448 0.85582 0.68448
 N298 N 0.18480 0.85590 0.67447
 C299 C 0.19374 0.86735 0.67681
 C300 C 0.18869 0.87475 0.68889
 C301 C 0.17649 0.86724 0.69354
 H302 H 0.20310 0.87016 0.67016
 H303 H 0.16960 0.86998 0.70274
 N304 N 0.18457 0.82588 0.64406
 N305 N 0.17432 0.81569 0.64407
 C306 C 0.17630 0.80692 0.63243
 C307 C 0.18829 0.81188 0.62481
 C308 C 0.19334 0.82384 0.63241
 H309 H 0.16950 0.79768 0.62961
 H310 H 0.20262 0.83059 0.62956
 H311 H 0.17533 0.82491 0.67032
 H312 H 0.16354 0.83673 0.65861
 N313 N 0.35594 0.68437 0.67410
 N314 N 0.35598 0.67399 0.68404
 C315 C 0.36754 0.67594 0.69297
 C316 C 0.37504 0.68814 0.68830
 C317 C 0.36745 0.69328 0.67636
 H318 H 0.37032 0.66904 0.70215
 H319 H 0.37014 0.70273 0.66979
 Cu320 Cu 0.34091 0.65897 0.68415
 Cu321 Cu 0.34117 0.68540 0.65878
 Cu322 Cu 0.31433 0.65852 0.65889
 N323 N 0.32585 0.64395 0.68425
 N324 N 0.31544 0.64390 0.67433
 C325 C 0.30649 0.63247 0.67675
 C326 C 0.31161 0.62504 0.68878
 C327 C 0.32387 0.63252 0.69333
 H328 H 0.29702 0.62973 0.67022
 H329 H 0.33080 0.62980 0.70250
 N330 N 0.31513 0.67426 0.64420
 N331 N 0.32530 0.68452 0.64419
 C332 C 0.32305 0.69346 0.63272
 C333 C 0.31096 0.68854 0.62524
 C334 C 0.30615 0.67641 0.63273
 H335 H 0.32978 0.70275 0.62988
 H336 H 0.29690 0.66961 0.62991
 H337 H 0.32471 0.67499 0.67028
 H338 H 0.33638 0.66334 0.65829
 N339 N 0.35592 0.18440 1.17434
 N340 N 0.35571 0.17426 1.18452
 C341 C 0.36720 0.17628 1.19353
 C342 C 0.37489 0.18827 1.18866
 C343 C 0.36752 0.19321 1.17651
 H344 H 0.36981 0.16953 1.20287
 H345 H 0.37041 0.20244 1.16974
 Cu346 Cu 0.34055 0.15934 1.18490
 Cu347 Cu 0.34132 0.18532 1.15891
 Cu348 Cu 0.31448 0.15855 1.15899
 N349 N 0.32563 0.14420 1.18456
 N350 N 0.31543 0.14400 1.17443
 C351 C 0.30662 0.13243 1.17664
 C352 C 0.31160 0.12507 1.18877
 C353 C 0.32364 0.13272 1.19358
 H354 H 0.29736 0.12953 1.16989
 H355 H 0.33044 0.13007 1.20287
 N356 N 0.31537 0.17419 1.14424
 N357 N 0.32561 0.18438 1.14420
 C358 C 0.32344 0.19327 1.13266
 C359 C 0.31134 0.18836 1.12519
 C360 C 0.30644 0.17631 1.13274
 H361 H 0.33020 0.20253 1.12982
 H362 H 0.29714 0.16956 1.12996
 H363 H 0.32473 0.17515 1.17034
 H364 H 0.33664 0.16321 1.15884
 N365 N 0.85579 0.68451 1.17422
 N366 N 0.85576 0.67418 1.18422
 C367 C 0.86728 0.67615 1.19319
 C368 C 0.87483 0.68829 1.18848
 C369 C 0.86733 0.69338 1.17647
 H370 H 0.86999 0.66930 1.20242
 H371 H 0.87011 0.70275 1.16982
 Cu372 Cu 0.84070 0.65919 1.18445
 Cu373 Cu 0.84112 0.68546 1.15884
 Cu374 Cu 0.81434 0.65855 1.15889
 N375 N 0.82576 0.64408 1.18430
 N376 N 0.81542 0.64397 1.17431
 C377 C 0.80659 0.63243 1.17660
 C378 C 0.81173 0.62499 1.18862
 C379 C 0.82385 0.63260 1.19330
 H380 H 0.79722 0.62958 1.16998
 H381 H 0.83071 0.62994 1.20254
 N382 N 0.81517 0.67425 1.14420
 N383 N 0.82535 0.68451 1.14419
 C384 C 0.82314 0.69341 1.13268
 C385 C 0.81108 0.68846 1.12518
 C386 C 0.80623 0.67636 1.13269
 H387 H 0.82987 0.70270 1.12984
 H388 H 0.79699 0.66955 1.12987
 H389 H 0.82460 0.67509 1.17028
 H390 H 0.83638 0.66338 1.15849
 N391 N 0.85543 0.18473 0.67456
 N392 N 0.85544 0.17441 0.68457
 C393 C 0.86687 0.17651 0.69361
 C394 C 0.87432 0.18873 0.68894
 C395 C 0.86685 0.19373 0.67688
 H396 H 0.86968 0.16962 0.70278
 H397 H 0.86959 0.20310 0.67022
 Cu398 Cu 0.84070 0.15908 0.68453
 Cu399 Cu 0.84094 0.18552 0.65903
 Cu400 Cu 0.81434 0.15851 0.65894
 N401 N 0.82550 0.14423 0.68457
 N402 N 0.81523 0.14408 0.67450
 C403 C 0.80627 0.13265 0.67688
 C404 C 0.81124 0.12534 0.68904
 C405 C 0.82341 0.13288 0.69371
 H406 H 0.79693 0.12981 0.67022
 H407 H 0.83024 0.13021 0.70297
 N408 N 0.81527 0.17408 0.64414
 N409 N 0.82536 0.18442 0.64421
 C410 C 0.82317 0.19331 0.63269
 C411 C 0.81119 0.18828 0.62511
 C412 C 0.80639 0.17614 0.63258
 H413 H 0.82982 0.20269 0.62995
 H414 H 0.79718 0.16930 0.62973
 H415 H 0.82454 0.17501 0.67052
 H416 H 0.83641 0.16343 0.65863
 N417 N 0.31538 0.35603 0.67413
 N418 N 0.32557 0.35581 0.68428
 C419 C 0.32359 0.36731 0.69326
 C420 C 0.31159 0.37503 0.68840
 C421 C 0.30659 0.36764 0.67630
 H422 H 0.33036 0.36993 0.70257
 H423 H 0.29730 0.37052 0.66958
 Cu424 Cu 0.34048 0.34064 0.68465
 Cu425 Cu 0.31443 0.34144 0.65873
 Cu426 Cu 0.34125 0.31461 0.65876
 N427 N 0.35562 0.32567 0.68436
 N428 N 0.35583 0.31552 0.67420
 C429 C 0.36740 0.30666 0.67643
 C430 C 0.37474 0.31158 0.68859
 C431 C 0.36707 0.32362 0.69341
 H432 H 0.37028 0.29739 0.66970
 H433 H 0.36967 0.33036 0.70274
 N434 N 0.32555 0.31553 0.64404
 N435 N 0.31532 0.32575 0.64405
 C436 C 0.30632 0.32354 0.63261
 C437 C 0.31116 0.31140 0.62516
 C438 C 0.32332 0.30655 0.63261
 H439 H 0.29700 0.33027 0.62983
 H440 H 0.33004 0.29723 0.62982
 H441 H 0.32463 0.32483 0.67015
 H442 H 0.33655 0.33672 0.65862
 N443 N 0.31531 0.85597 0.17418
 N444 N 0.32559 0.85578 0.18424
 C445 C 0.32365 0.86725 0.19326
 C446 C 0.31158 0.87493 0.18852
 C447 C 0.30649 0.86754 0.17645
 H448 H 0.33053 0.86990 0.20248
 H449 H 0.29716 0.87043 0.16978
 Cu450 Cu 0.34067 0.84078 0.18426
 Cu451 Cu 0.31430 0.84141 0.15873
 Cu452 Cu 0.34113 0.81451 0.15869
 N453 N 0.35568 0.82569 0.18414
 N454 N 0.35579 0.81543 0.17408
 C455 C 0.36740 0.80663 0.17625
 C456 C 0.37490 0.81170 0.18827
 C457 C 0.36724 0.82375 0.19307
 H458 H 0.37025 0.79732 0.16955
 H459 H 0.36996 0.83062 0.20228
 N460 N 0.32536 0.81544 0.14404
 N461 N 0.31517 0.82570 0.14403
 C462 C 0.30620 0.82355 0.13256
 C463 C 0.31103 0.81142 0.12510
 C464 C 0.32313 0.80650 0.13258
 H465 H 0.29692 0.83033 0.12975
 H466 H 0.32985 0.79718 0.12977
 H467 H 0.32460 0.82489 0.17011
 H468 H 0.33637 0.83661 0.15831
 N469 N 0.81537 0.35609 0.17422
 N470 N 0.82565 0.35593 0.18427
 C471 C 0.82373 0.36744 0.19324
 C472 C 0.81165 0.37510 0.18848
 C473 C 0.80656 0.36768 0.17644
 H474 H 0.83061 0.37013 0.20246
 H475 H 0.79723 0.37054 0.16977
 Cu476 Cu 0.84068 0.34087 0.18437
 Cu477 Cu 0.81436 0.34152 0.15880
 Cu478 Cu 0.84114 0.31459 0.15879
 N479 N 0.85563 0.32572 0.18431
 N480 N 0.85574 0.31547 0.17425
 C481 C 0.86725 0.30656 0.17652
 C482 C 0.87467 0.31155 0.18860
 C483 C 0.86709 0.32368 0.19334
 H484 H 0.87007 0.29724 0.16983
 H485 H 0.86981 0.33052 0.20256
 N486 N 0.82542 0.31558 0.14409
 N487 N 0.81522 0.32583 0.14409
 C488 C 0.80627 0.32372 0.13259
 C489 C 0.81113 0.31162 0.12509
 C490 C 0.82322 0.30668 0.13258
 H491 H 0.79701 0.33051 0.12978
 H492 H 0.82996 0.29738 0.12976
 H493 H 0.82465 0.32496 0.17021
 H494 H 0.83645 0.33668 0.15842
 N495 N 0.81535 0.85619 0.67436
 N496 N 0.82565 0.85608 0.68439
 C497 C 0.82359 0.86749 0.69346
 C498 C 0.81140 0.87504 0.68879
 C499 C 0.80640 0.86766 0.67669
 H500 H 0.83047 0.87021 0.70267
 H501 H 0.79705 0.87049 0.67002
 Cu502 Cu 0.84088 0.84118 0.68437
 Cu503 Cu 0.81446 0.84167 0.65885
 Cu504 Cu 0.84128 0.81479 0.65887
 N505 N 0.85574 0.82593 0.68440
 N506 N 0.85582 0.81565 0.67437
 C507 C 0.86728 0.80668 0.67670
 C508 C 0.87469 0.81165 0.68879
 C509 C 0.86718 0.82385 0.69347
 H510 H 0.87009 0.79734 0.67003
 H511 H 0.86992 0.83071 0.70267
 N512 N 0.82563 0.81579 0.64410
 N513 N 0.81542 0.82603 0.64409
 C514 C 0.80649 0.82388 0.63259
 C515 C 0.81135 0.81177 0.62512
 C516 C 0.82345 0.80686 0.63262
 H517 H 0.79719 0.83064 0.62979
 H518 H 0.83018 0.79754 0.62984
 H519 H 0.82480 0.82518 0.67037
 H520 H 0.83654 0.83686 0.65847
 N521 N 0.68479 0.64406 0.67445
 N522 N 0.67446 0.64418 0.68446
 C523 C 0.67649 0.63278 0.69356
 C524 C 0.68869 0.62522 0.68895
 C525 C 0.69373 0.63260 0.67684
 H526 H 0.66960 0.63009 0.70278
 H527 H 0.70311 0.62976 0.67021
 Cu528 Cu 0.65933 0.65915 0.68444
 Cu529 Cu 0.68574 0.65861 0.65895
 Cu530 Cu 0.65876 0.68539 0.65885
 N531 N 0.64413 0.67405 0.68421
 N532 N 0.64404 0.68437 0.67421
 C533 C 0.63241 0.69315 0.67643
 C534 C 0.62488 0.68798 0.68840
 C535 C 0.63255 0.67591 0.69314
 H536 H 0.62959 0.70252 0.66980
 H537 H 0.62986 0.66903 0.70235
 N538 N 0.67456 0.68452 0.64420
 N539 N 0.68478 0.67428 0.64420
 C540 C 0.69371 0.67642 0.63268
 C541 C 0.68884 0.68853 0.62519
 C542 C 0.67675 0.69345 0.63270
 H543 H 0.70299 0.66965 0.62987
 H544 H 0.67001 0.70275 0.62989
 H545 H 0.67537 0.67510 0.67030
 H546 H 0.66367 0.66333 0.65849
 N547 N 0.68487 0.14386 0.17441
 N548 N 0.67456 0.14393 0.18443
 C549 C 0.67663 0.13252 0.19352
 C550 C 0.68885 0.12502 0.18888
 C551 C 0.69386 0.13242 0.17677
 H552 H 0.66974 0.12977 0.20271
 H553 H 0.70322 0.12962 0.17011
 Cu554 Cu 0.65931 0.15877 0.18444
 Cu555 Cu 0.68565 0.15832 0.15882
 Cu556 Cu 0.65883 0.18516 0.15891
 N557 N 0.64447 0.17403 0.18451
 N558 N 0.64441 0.18437 0.17452
 C559 C 0.63297 0.19334 0.17691
 C560 C 0.62556 0.18832 0.18899
 C561 C 0.63306 0.17609 0.19361
 H562 H 0.63016 0.20271 0.17027
 H563 H 0.63030 0.16918 0.20278
 N564 N 0.67434 0.18411 0.14401
 N565 N 0.68457 0.17388 0.14396
 C566 C 0.69333 0.17594 0.13230
 C567 C 0.68830 0.18795 0.12474
 C568 C 0.67633 0.19292 0.13239
 H569 H 0.70262 0.16919 0.12945
 H570 H 0.66954 0.20220 0.12961
 H571 H 0.67534 0.17477 0.17037
 H572 H 0.66356 0.16309 0.15851
 N573 N 0.18438 0.64397 0.17409
 N574 N 0.17395 0.64397 0.18400
 C575 C 0.17592 0.63249 0.19302
 C576 C 0.18820 0.62503 0.18846
 C577 C 0.19334 0.63252 0.17646
 H578 H 0.16897 0.62973 0.20217
 H579 H 0.20282 0.62981 0.16994
 Cu580 Cu 0.15892 0.65902 0.18398
 Cu581 Cu 0.18546 0.65865 0.15870
 Cu582 Cu 0.15863 0.68557 0.15874
 N583 N 0.14391 0.67409 0.18403
 N584 N 0.14393 0.68452 0.17413
 C585 C 0.13249 0.69349 0.17652
 C586 C 0.12497 0.68834 0.18849
 C587 C 0.13241 0.67606 0.19304
 H588 H 0.12981 0.70299 0.17002
 H589 H 0.12963 0.66912 0.20218
 N590 N 0.17443 0.68470 0.14408
 N591 N 0.18463 0.67444 0.14407
 C592 C 0.19359 0.67661 0.13258
 C593 C 0.18876 0.68874 0.12511
 C594 C 0.17665 0.69365 0.13261
 H595 H 0.20285 0.66980 0.12975
 H596 H 0.16991 0.70295 0.12979
 H597 H 0.17508 0.67510 0.17017
 H598 H 0.16341 0.66350 0.15816
 N599 N 0.18455 0.14377 0.67449
 N600 N 0.17431 0.14396 0.68459
 C601 C 0.17630 0.13251 0.69363
 C602 C 0.18840 0.12485 0.68889
 C603 C 0.19340 0.13222 0.67675
 H604 H 0.16947 0.12985 0.70290
 H605 H 0.20268 0.12931 0.67001
 Cu606 Cu 0.15930 0.15906 0.68460
 Cu607 Cu 0.18547 0.15833 0.65895
 Cu608 Cu 0.15858 0.18520 0.65895
 N609 N 0.14422 0.17407 0.68459
 N610 N 0.14403 0.18429 0.67449
 C611 C 0.13246 0.19314 0.67675
 C612 C 0.12508 0.18814 0.68887
 C613 C 0.13275 0.17607 0.69364
 H614 H 0.12956 0.20241 0.67002
 H615 H 0.13010 0.16925 0.70291
 N616 N 0.17425 0.18421 0.64417
 N617 N 0.18449 0.17399 0.64418
 C618 C 0.19338 0.17611 0.63263
 C619 C 0.18844 0.18816 0.62509
 C620 C 0.17637 0.19309 0.63262
 H621 H 0.20268 0.16936 0.62982
 H622 H 0.16962 0.20239 0.62982
 H623 H 0.17518 0.17494 0.67026
 H624 H 0.16336 0.16313 0.65861
 N625 N 0.31512 0.64421 0.32545
 N626 N 0.32543 0.64435 0.31543
 C627 C 0.32348 0.63290 0.30639
 C628 C 0.31136 0.62527 0.31109
 C629 C 0.30627 0.63268 0.32315
 H630 H 0.33038 0.63021 0.29718
 H631 H 0.29692 0.62982 0.32981
 Cu632 Cu 0.34056 0.65930 0.31547
 Cu633 Cu 0.31412 0.65874 0.34096
 Cu634 Cu 0.34093 0.68561 0.34100
 N635 N 0.35546 0.67448 0.31548
 N636 N 0.35553 0.68474 0.32554
 C637 C 0.36706 0.69363 0.32329
 C638 C 0.37453 0.68863 0.31123
 C639 C 0.36695 0.67651 0.30648
 H640 H 0.36987 0.70294 0.33000
 H641 H 0.36970 0.66965 0.29727
 N642 N 0.32523 0.68463 0.35572
 N643 N 0.31502 0.67440 0.35571
 C644 C 0.30607 0.67656 0.36721
 C645 C 0.31092 0.68867 0.37469
 C646 C 0.32303 0.69355 0.36721
 H647 H 0.29678 0.66980 0.37002
 H648 H 0.32977 0.70284 0.37003
 H649 H 0.32441 0.67524 0.32950
 H650 H 0.33615 0.66353 0.34138
 N651 N 0.31529 0.14378 0.82567
 N652 N 0.32555 0.14394 0.81559
 C653 C 0.32354 0.13251 0.80654
 C654 C 0.31142 0.12491 0.81126
 C655 C 0.30641 0.13228 0.82338
 H656 H 0.33039 0.12984 0.79729
 H657 H 0.29709 0.12942 0.83008
 Cu658 Cu 0.34062 0.15897 0.81549
 Cu659 Cu 0.31434 0.15832 0.84115
 Cu660 Cu 0.34112 0.18519 0.84113
 N661 N 0.35559 0.17410 0.81557
 N662 N 0.35570 0.18434 0.82565
 C663 C 0.36721 0.19324 0.82340
 C664 C 0.37464 0.18827 0.81130
 C665 C 0.36706 0.17615 0.80654
 H666 H 0.37003 0.20254 0.83011
 H667 H 0.36977 0.16934 0.79729
 N668 N 0.32544 0.18421 0.85588
 N669 N 0.31524 0.17398 0.85590
 C670 C 0.30633 0.17610 0.86743
 C671 C 0.31120 0.18819 0.87492
 C672 C 0.32327 0.19311 0.86740
 H673 H 0.29705 0.16934 0.87025
 H674 H 0.32999 0.20242 0.87020
 H675 H 0.32458 0.17486 0.82974
 H676 H 0.33641 0.16311 0.84147
 N677 N 0.81552 0.64405 0.82576
 N678 N 0.82581 0.64417 0.81573
 C679 C 0.82387 0.63266 0.80674
 C680 C 0.81177 0.62504 0.81149
 C681 C 0.80668 0.63250 0.82353
 H682 H 0.83075 0.62996 0.79753
 H683 H 0.79734 0.62967 0.83020
 Cu684 Cu 0.84087 0.65919 0.81561
 Cu685 Cu 0.81453 0.65866 0.84119
 Cu686 Cu 0.84134 0.68550 0.84118
 N687 N 0.85584 0.67431 0.81567
 N688 N 0.85594 0.68457 0.82573
 C689 C 0.86745 0.69346 0.82346
 C690 C 0.87488 0.68847 0.81138
 C691 C 0.86731 0.67635 0.80664
 H692 H 0.87026 0.70279 0.83014
 H693 H 0.87002 0.66951 0.79740
 N694 N 0.82562 0.68458 0.85589
 N695 N 0.81540 0.67436 0.85588
 C696 C 0.80644 0.67653 0.86737
 C697 C 0.81130 0.68863 0.87485
 C698 C 0.82341 0.69351 0.86737
 H699 H 0.79716 0.66977 0.87019
 H700 H 0.83015 0.70280 0.87018
 H701 H 0.82486 0.67517 0.82975
 H702 H 0.83663 0.66342 0.84156
 N703 N 0.81535 0.14379 0.32560
 N704 N 0.82561 0.14394 0.31552
 C705 C 0.82362 0.13248 0.30649
 C706 C 0.81149 0.12488 0.31123
 C707 C 0.80648 0.13227 0.32333
 H708 H 0.83047 0.12979 0.29726
 H709 H 0.79715 0.12942 0.33002
 Cu710 Cu 0.84068 0.15896 0.31543
 Cu711 Cu 0.81438 0.15834 0.34106
 Cu712 Cu 0.84114 0.18523 0.34101
 N713 N 0.85566 0.17407 0.31549
 N714 N 0.85574 0.18435 0.32554
 C715 C 0.86722 0.19327 0.32323
 C716 C 0.87466 0.18828 0.31114
 C717 C 0.86713 0.17611 0.30646
 H718 H 0.87001 0.20261 0.32989
 H719 H 0.86987 0.16925 0.29724
 N720 N 0.82545 0.18427 0.35575
 N721 N 0.81527 0.17401 0.35578
 C722 C 0.80632 0.17616 0.36727
 C723 C 0.81114 0.18829 0.37473
 C724 C 0.82323 0.19320 0.36723
 H725 H 0.79705 0.16938 0.37009
 H726 H 0.82994 0.20252 0.37003
 H727 H 0.82462 0.17484 0.32962
 H728 H 0.83646 0.16311 0.34139
 N729 N 0.68462 0.35596 0.32568
 N730 N 0.67450 0.35571 0.31547
 C731 C 0.67655 0.36713 0.30641
 C732 C 0.68857 0.37481 0.31125
 C733 C 0.69346 0.36751 0.32346
 H734 H 0.66983 0.36972 0.29705
 H735 H 0.70269 0.37043 0.33024
 Cu736 Cu 0.65958 0.34055 0.31510
 Cu737 Cu 0.68549 0.34144 0.34116
 Cu738 Cu 0.65869 0.31463 0.34114
 N739 N 0.64440 0.32563 0.31546
 N740 N 0.64415 0.31551 0.32566
 C741 C 0.63258 0.30669 0.32346
 C742 C 0.62526 0.31158 0.31127
 C743 C 0.63296 0.32358 0.30641
 H744 H 0.62966 0.29747 0.33025
 H745 H 0.63037 0.33030 0.29705
 N746 N 0.67432 0.31558 0.35590
 N747 N 0.68453 0.32580 0.35592
 C748 C 0.69343 0.32366 0.36744
 C749 C 0.68853 0.31159 0.37495
 C750 C 0.67647 0.30667 0.36742
 H751 H 0.70274 0.33040 0.37024
 H752 H 0.66975 0.29735 0.37020
 H753 H 0.67537 0.32481 0.32977
 H754 H 0.66337 0.33675 0.34118
 N755 N 0.68470 0.85614 0.82580
 N756 N 0.67452 0.85591 0.81566
 C757 C 0.67650 0.86738 0.80663
 C758 C 0.68852 0.87507 0.81145
 C759 C 0.69350 0.86772 0.82359
 H760 H 0.66970 0.87001 0.79733
 H761 H 0.70277 0.87063 0.83032
 Cu762 Cu 0.65959 0.84075 0.81534
 Cu763 Cu 0.68568 0.84157 0.84124
 Cu764 Cu 0.65885 0.81477 0.84132
 N765 N 0.64442 0.82582 0.81573
 N766 N 0.64421 0.81568 0.82591
 C767 C 0.63257 0.80691 0.82377
 C768 C 0.62518 0.81186 0.81164
 C769 C 0.63291 0.82383 0.80675
 H770 H 0.62966 0.79768 0.83056
 H771 H 0.63027 0.83061 0.79744
 N772 N 0.67458 0.81569 0.85600
 N773 N 0.68480 0.82590 0.85596
 C774 C 0.69376 0.82376 0.86745
 C775 C 0.68889 0.81169 0.87498
 C776 C 0.67678 0.80678 0.86751
 H777 H 0.70305 0.83052 0.87023
 H778 H 0.67004 0.79750 0.87034
 H779 H 0.67545 0.82499 0.82989
 H780 H 0.66355 0.83692 0.84139
 N781 N 0.18438 0.35591 0.82570
 N782 N 0.17417 0.35572 0.81557
 C783 C 0.17616 0.36719 0.80655
 C784 C 0.18822 0.37485 0.81133
 C785 C 0.19320 0.36748 0.82347
 H786 H 0.16935 0.36984 0.79726
 H787 H 0.20248 0.37036 0.83019
 Cu788 Cu 0.15925 0.34056 0.81527
 Cu789 Cu 0.18532 0.34134 0.84115
 Cu790 Cu 0.15856 0.31449 0.84116
 N791 N 0.14413 0.32559 0.81558
 N792 N 0.14397 0.31539 0.82570
 C793 C 0.13240 0.30655 0.82348
 C794 C 0.12499 0.31155 0.81136
 C795 C 0.13265 0.32360 0.80657
 H796 H 0.12954 0.29726 0.83019
 H797 H 0.12999 0.33040 0.79729
 N798 N 0.17424 0.31545 0.85590
 N799 N 0.18443 0.32568 0.85590
 C800 C 0.19333 0.32358 0.86745
 C801 C 0.18843 0.31151 0.87498
 C802 C 0.17638 0.30657 0.86744
 H803 H 0.20260 0.33035 0.87026
 H804 H 0.16964 0.29727 0.87026
 H805 H 0.17513 0.32473 0.82976
 H806 H 0.16319 0.33659 0.84130
 N807 N 0.18447 0.85616 0.32562
 N808 N 0.17409 0.85613 0.31567
 C809 C 0.17611 0.86756 0.30660
 C810 C 0.18837 0.87502 0.31118
 C811 C 0.19344 0.86758 0.32323
 H812 H 0.16920 0.87030 0.29742
 H813 H 0.20288 0.87032 0.32980
 Cu814 Cu 0.15902 0.84112 0.31571
 Cu815 Cu 0.18544 0.84159 0.34112
 Cu816 Cu 0.15849 0.81482 0.34121
 N817 N 0.14397 0.82610 0.31572
 N818 N 0.14389 0.81578 0.32573
 C819 C 0.13246 0.80682 0.32336
 C820 C 0.12505 0.81184 0.31126
 C821 C 0.13256 0.82405 0.30663
 H822 H 0.12969 0.79742 0.32997
 H823 H 0.12986 0.83090 0.29739
 N824 N 0.17422 0.81575 0.35592
 N825 N 0.18448 0.82592 0.35587
 C826 C 0.19339 0.82379 0.36739
 C827 C 0.18845 0.81177 0.37496
 C828 C 0.17635 0.80687 0.36747
 H829 H 0.20272 0.83050 0.37016
 H830 H 0.16957 0.79762 0.37032
 H831 H 0.17505 0.82509 0.32976
 H832 H 0.16337 0.83687 0.34160
 C833 C 0.25959 0.96913 0.24090
 C834 C 0.25025 0.96180 0.25039
 C835 C 0.24075 0.96925 0.25961
 C836 C 0.24056 0.98468 0.25963
 C837 C 0.25012 0.99237 0.25007
 C838 C 0.25968 0.98456 0.24061
 C839 C 0.26899 0.99237 0.23121
 C840 C 0.26899 1.00762 0.23113
 C841 C 0.25967 1.01554 0.24043
 C842 C 0.25011 1.00786 0.24998
 C843 C 0.23119 0.99260 0.26887
 C844 C 0.23119 1.00786 0.26878
 C845 C 0.24055 1.01566 0.25944
 C846 C 0.24071 1.03109 0.25921
 C847 C 0.25014 1.03845 0.24983
 C848 C 0.25954 1.03097 0.24052
 H849 H 0.27636 0.98670 0.22388
 H850 H 0.27636 1.01320 0.22373
 H851 H 0.22380 0.98702 0.27625
 H852 H 0.22380 1.01352 0.27610
 H853 H 0.25033 0.94993 0.25060
 H854 H 0.25016 1.05033 0.24978
 C855 C 0.25913 0.46899 0.74100
 C856 C 0.24972 0.46172 0.75047
 C857 C 0.24030 0.46922 0.75973
 C858 C 0.24020 0.48464 0.75975
 C859 C 0.24978 0.49227 0.75017
 C860 C 0.25931 0.48442 0.74070
 C861 C 0.26865 0.49219 0.73130
 C862 C 0.26870 0.50745 0.73120
 C863 C 0.25941 0.51541 0.74050
 C864 C 0.24984 0.50776 0.75007
 C865 C 0.23089 0.49259 0.76902
 C866 C 0.23095 0.50784 0.76892
 C867 C 0.24031 0.51560 0.75954
 C868 C 0.24051 0.53102 0.75929
 C869 C 0.24994 0.53834 0.74990
 C870 C 0.25933 0.53084 0.74059
 H871 H 0.27599 0.48649 0.72396
 H872 H 0.27608 0.51300 0.72379
 H873 H 0.22351 0.48705 0.77643
 H874 H 0.22359 0.51353 0.77625
 H875 H 0.24967 0.44987 0.75068
 H876 H 0.24996 0.55023 0.74983
 C877 C 0.75955 -0.03124 0.25947
 C878 C 0.75013 -0.03864 0.25013
 C879 C 0.74073 -0.03122 0.24077
 C880 C 0.74060 -0.01579 0.24059
 C881 C 0.75014 -0.00805 0.25010
 C882 C 0.75969 -0.01580 0.25962
 C883 C 0.76903 -0.00794 0.26892
 C884 C 0.76901 0.00732 0.26892
 C885 C 0.75966 0.01519 0.25961
 C886 C 0.75012 0.00745 0.25010
 C887 C 0.73127 -0.00793 0.23125
 C888 C 0.73126 0.00733 0.23124
 C889 C 0.74058 0.01519 0.24057
 C890 C 0.74071 0.03063 0.24071
 C891 C 0.75010 0.03804 0.25007
 C892 C 0.75949 0.03063 0.25945
 H893 H 0.77641 -0.01356 0.27627
 H894 H 0.77639 0.01294 0.27627
 H895 H 0.72391 -0.01354 0.22388
 H896 H 0.72390 0.01295 0.22386
 H897 H 0.75011 -0.05053 0.25015
 H898 H 0.75012 0.04992 0.25003
 C899 C 0.75967 0.46895 0.75935
 C900 C 0.75036 0.46157 0.74987
 C901 C 0.74086 0.46897 0.74061
 C902 C 0.74064 0.48440 0.74053
 C903 C 0.75018 0.49214 0.75006
 C904 C 0.75973 0.48439 0.75958
 C905 C 0.76901 0.49225 0.76896
 C906 C 0.76900 0.50752 0.76895
 C907 C 0.75971 0.51539 0.75958
 C908 C 0.75017 0.50763 0.75006
 C909 C 0.73126 0.49226 0.73125
 C910 C 0.73124 0.50752 0.73125
 C911 C 0.74061 0.51538 0.74053
 C912 C 0.74079 0.53080 0.74061
 C913 C 0.75028 0.53820 0.74986
 C914 C 0.75962 0.53082 0.75934
 H915 H 0.77636 0.48662 0.77634
 H916 H 0.77634 0.51314 0.77633
 H917 H 0.72389 0.48665 0.72390
 H918 H 0.72386 0.51314 0.72390
 H919 H 0.75046 0.44970 0.74970
 H920 H 0.75036 0.55007 0.74968
 C921 C 0.25940 0.46903 0.25909
 C922 C 0.25008 0.46166 0.24962
 C923 C 0.24060 0.46908 0.24036
 C924 C 0.24040 0.48450 0.24027
 C925 C 0.24996 0.49223 0.24979
 C926 C 0.25950 0.48447 0.25931
 C927 C 0.26879 0.49232 0.26868
 C928 C 0.26880 0.50759 0.26867
 C929 C 0.25952 0.51547 0.25928
 C930 C 0.24997 0.50772 0.24978
 C931 C 0.23103 0.49237 0.23099
 C932 C 0.23103 0.50762 0.23098
 C933 C 0.24042 0.51547 0.24025
 C934 C 0.24062 0.53089 0.24031
 C935 C 0.25013 0.53829 0.24954
 C936 C 0.25945 0.53090 0.25902
 H937 H 0.27613 0.48669 0.27606
 H938 H 0.27616 0.51321 0.27603
 H939 H 0.22364 0.48676 0.22365
 H940 H 0.22365 0.51324 0.22363
 H941 H 0.25015 0.44979 0.24946
 H942 H 0.25024 0.55015 0.24934
 C943 C 0.75934 0.96929 0.74070
 C944 C 0.74995 0.96186 0.75006
 C945 C 0.74055 0.96926 0.75945
 C946 C 0.74039 0.98469 0.75963
 C947 C 0.74993 0.99245 0.75012
 C948 C 0.75947 0.98472 0.74058
 C949 C 0.76881 0.99261 0.73127
 C950 C 0.76881 1.00786 0.73131
 C951 C 0.75947 1.01571 0.74066
 C952 C 0.74992 1.00795 0.75016
 C953 C 0.73106 0.99254 0.76898
 C954 C 0.73104 1.00781 0.76900
 C955 C 0.74037 1.01569 0.75969
 C956 C 0.74050 1.03114 0.75955
 C957 C 0.74992 1.03854 0.75021
 C958 C 0.75933 1.03113 0.74085
 H959 H 0.77618 0.98701 0.72389
 H960 H 0.77618 1.01349 0.72396
 H961 H 0.72370 0.98691 0.77633
 H962 H 0.72367 1.01341 0.77638
 H963 H 0.74998 0.94998 0.75007
 H964 H 0.74991 1.05043 0.75020
 C965 C 0.75913 0.46915 0.24054
 C966 C 0.74959 0.46175 0.24978
 C967 C 0.74031 0.46913 0.25926
 C968 C 0.74029 0.48454 0.25956
 C969 C 0.74987 0.49230 0.25009
 C970 C 0.75939 0.48458 0.24051
 C971 C 0.76879 0.49247 0.23127
 C972 C 0.76883 0.50773 0.23136
 C973 C 0.75951 0.51557 0.24073
 C974 C 0.74994 0.50779 0.25021
 C975 C 0.73102 0.49237 0.26898
 C976 C 0.73107 0.50761 0.26909
 C977 C 0.74041 0.51549 0.25979
 C978 C 0.74059 0.53090 0.25975
 C979 C 0.75004 0.53833 0.25048
 C980 C 0.75940 0.53100 0.24101
 H981 H 0.77614 0.48686 0.22388
 H982 H 0.77623 0.51338 0.22405
 H983 H 0.72364 0.48673 0.27632
 H984 H 0.72374 0.51321 0.27650
 H985 H 0.74940 0.44990 0.24968
 H986 H 0.75005 0.55018 0.25068
 C987 C 0.25974 -0.03129 0.75941
 C988 C 0.25031 -0.03868 0.75007
 C989 C 0.24086 -0.03125 0.74076
 C990 C 0.24070 -0.01583 0.74061
 C991 C 0.25026 -0.00809 0.75010
 C992 C 0.25986 -0.01585 0.75957
 C993 C 0.26922 -0.00797 0.76885
 C994 C 0.26918 0.00729 0.76886
 C995 C 0.25978 0.01516 0.75958
 C996 C 0.25022 0.00741 0.75010
 C997 C 0.23132 -0.00796 0.73131
 C998 C 0.23129 0.00730 0.73132
 C999 C 0.24062 0.01517 0.74062
 C1000 C 0.24071 0.03060 0.74079
 C1001 C 0.25013 0.03801 0.75013
 C1002 C 0.25959 0.03060 0.75944
 H1003 H 0.27664 -0.01359 0.77617
 H1004 H 0.27657 0.01291 0.77619
 H1005 H 0.22395 -0.01358 0.72397
 H1006 H 0.22389 0.01291 0.72398
 H1007 H 0.25035 -0.05057 0.75002
 H1008 H 0.25008 0.04989 0.75016
 C1009 C 0.25958 0.24057 0.96920
 C1010 C 0.25009 0.24987 0.96180
 C1011 C 0.24053 0.25914 0.96915
 C1012 C 0.24038 0.25931 0.98456
 C1013 C 0.25002 0.24987 0.99231
 C1014 C 0.25968 0.24041 0.98459
 C1015 C 0.26908 0.23114 0.99245
 C1016 C 0.26908 0.23115 1.00768
 C1017 C 0.25966 0.24043 1.01551
 C1018 C 0.25002 0.24988 1.00777
 C1019 C 0.23095 0.26858 0.99240
 C1020 C 0.23095 0.26859 1.00764
 C1021 C 0.24037 0.25934 1.01550
 C1022 C 0.24052 0.25920 1.03091
 C1023 C 0.25006 0.24992 1.03828
 C1024 C 0.25955 0.24061 1.03091
 H1025 H 0.27651 0.22381 0.98685
 H1026 H 0.27650 0.22383 1.01330
 H1027 H 0.22352 0.27589 0.98677
 H1028 H 0.22352 0.27591 1.01324
 H1029 H 0.25016 0.24987 0.94997
 H1030 H 0.25011 0.24994 1.05011
 C1031 C 0.25967 0.74073 0.46916
 C1032 C 0.25039 0.75018 0.46174
 C1033 C 0.24089 0.75954 0.46906
 C1034 C 0.24065 0.75966 0.48448
 C1035 C 0.25016 0.75010 0.49225
 C1036 C 0.25974 0.74056 0.48455
 C1037 C 0.26905 0.73121 0.49242
 C1038 C 0.26902 0.73121 0.50765
 C1039 C 0.25962 0.74052 0.51547
 C1040 C 0.25008 0.75006 0.50772
 C1041 C 0.23127 0.76899 0.49231
 C1042 C 0.23120 0.76895 0.50756
 C1043 C 0.24048 0.75956 0.51544
 C1044 C 0.24053 0.75933 0.53086
 C1045 C 0.24990 0.74989 0.53825
 C1046 C 0.25942 0.74061 0.53087
 H1047 H 0.27646 0.72385 0.48683
 H1048 H 0.27639 0.72384 0.51327
 H1049 H 0.22395 0.77639 0.48667
 H1050 H 0.22381 0.77632 0.51316
 H1051 H 0.25057 0.75020 0.44990
 H1052 H 0.24986 0.74978 0.55010
 C1053 C 0.25999 0.75933 -0.03088
 C1054 C 0.25054 0.75007 -0.03834
 C1055 C 0.24092 0.74080 -0.03107
 C1056 C 0.24069 0.74058 -0.01566
 C1057 C 0.25028 0.75000 -0.00783
 C1058 C 0.25998 0.75946 -0.01548
 C1059 C 0.26933 0.76871 -0.00755
 C1060 C 0.26917 0.76871 0.00768
 C1061 C 0.25969 0.75945 0.01545
 C1062 C 0.25017 0.74997 0.00764
 C1063 C 0.23123 0.73130 -0.00788
 C1064 C 0.23117 0.73123 0.00736
 C1065 C 0.24053 0.74046 0.01530
 C1066 C 0.24061 0.74055 0.03072
 C1067 C 0.24995 0.74993 0.03818
 C1068 C 0.25940 0.75931 0.03085
 H1069 H 0.27681 0.77601 -0.01309
 H1070 H 0.27654 0.77602 0.01336
 H1071 H 0.22384 0.72402 -0.01355
 H1072 H 0.22372 0.72389 0.01292
 H1073 H 0.25071 0.75012 -0.05017
 H1074 H 0.24987 0.74992 0.05005
 C1075 C 0.25940 0.25926 0.46910
 C1076 C 0.25005 0.24981 0.46176
 C1077 C 0.24061 0.24049 0.46919
 C1078 C 0.24044 0.24042 0.48461
 C1079 C 0.25001 0.24996 0.49229
 C1080 C 0.25955 0.25946 0.48450
 C1081 C 0.26893 0.26880 0.49229
 C1082 C 0.26897 0.26883 0.50752
 C1083 C 0.25965 0.25954 0.51542
 C1084 C 0.25006 0.24999 0.50776
 C1085 C 0.23107 0.23116 0.49253
 C1086 C 0.23112 0.23119 0.50777
 C1087 C 0.24053 0.24048 0.51557
 C1088 C 0.24079 0.24062 0.53099
 C1089 C 0.25029 0.25000 0.53827
 C1090 C 0.25958 0.25941 0.53082
 H1091 H 0.27631 0.27612 0.48664
 H1092 H 0.27638 0.27619 0.51309
 H1093 H 0.22365 0.22381 0.48695
 H1094 H 0.22374 0.22387 0.51344
 H1095 H 0.25014 0.24972 0.44990
 H1096 H 0.25050 0.25001 0.55010
 C1097 C 0.75959 0.74075 0.96913
 C1098 C 0.75028 0.75024 0.96177
 C1099 C 0.74083 0.75958 0.96920
 C1100 C 0.74062 0.75962 0.98461
 C1101 C 0.75018 0.75005 0.99230
 C1102 C 0.75974 0.74054 0.98452
 C1103 C 0.76911 0.73120 0.99232
 C1104 C 0.76916 0.73117 1.00754
 C1105 C 0.75980 0.74045 1.01543
 C1106 C 0.75018 0.74998 1.00776
 C1107 C 0.73123 0.76887 0.99251
 C1108 C 0.73121 0.76878 1.00776
 C1109 C 0.74058 0.75944 1.01556
 C1110 C 0.74074 0.75919 1.03098
 C1111 C 0.75027 0.74982 1.03826
 C1112 C 0.75971 0.74054 1.03081
 H1113 H 0.77650 0.72386 0.98667
 H1114 H 0.77658 0.72381 1.01311
 H1115 H 0.72384 0.77626 0.98693
 H1116 H 0.72380 0.77609 1.01341
 H1117 H 0.75038 0.75035 0.94991
 H1118 H 0.75038 0.74973 1.05009
 C1119 C 0.74053 0.25898 0.53084
 C1120 C 0.75007 0.24968 0.53818
 C1121 C 0.75954 0.24037 0.53080
 C1122 C 0.75966 0.24020 0.51542
 C1123 C 0.75006 0.24970 0.50768
 C1124 C 0.74042 0.25918 0.51541
 C1125 C 0.73108 0.26850 0.50753
 C1126 C 0.73117 0.26856 0.49228
 C1127 C 0.74058 0.25926 0.48444
 C1128 C 0.75011 0.24971 0.49222
 C1129 C 0.76904 0.23088 0.50760
 C1130 C 0.76903 0.23084 0.49239
 C1131 C 0.75969 0.24016 0.48452
 C1132 C 0.75960 0.24030 0.46914
 C1133 C 0.75033 0.24976 0.46172
 C1134 C 0.74086 0.25916 0.46902
 H1135 H 0.72366 0.27583 0.51313
 H1136 H 0.72382 0.27593 0.48664
 H1137 H 0.77643 0.22354 0.51323
 H1138 H 0.77643 0.22348 0.48679
 H1139 H 0.75017 0.24965 0.55001
 H1140 H 0.75053 0.24975 0.44989
 C1141 C 0.75961 0.25962 -0.03080
 C1142 C 0.75034 0.25018 -0.03823
 C1143 C 0.74090 0.24075 -0.03093
 C1144 C 0.74066 0.24061 -0.01551
 C1145 C 0.75014 0.25017 -0.00772
 C1146 C 0.75970 0.25973 -0.01541
 C1147 C 0.76903 0.26904 -0.00754
 C1148 C 0.76899 0.26902 0.00768
 C1149 C 0.75958 0.25973 0.01550
 C1150 C 0.75005 0.25020 0.00775
 C1151 C 0.73131 0.23126 -0.00768
 C1152 C 0.73121 0.23130 0.00758
 C1153 C 0.74046 0.24068 0.01547
 C1154 C 0.74049 0.24093 0.03089
 C1155 C 0.74984 0.25038 0.03828
 C1156 C 0.75936 0.25964 0.03089
 H1157 H 0.77644 0.27639 -0.01313
 H1158 H 0.77637 0.27636 0.01331
 H1159 H 0.72400 0.22386 -0.01332
 H1160 H 0.72383 0.22393 0.01317
 H1161 H 0.75053 0.25022 -0.05006
 H1162 H 0.74979 0.25049 0.05013
 C1163 C 0.74086 0.74095 0.46920
 C1164 C 0.75024 0.75046 0.46192
 C1165 C 0.75956 0.75983 0.46937
 C1166 C 0.75970 0.75986 0.48476
 C1167 C 0.75015 0.75026 0.49242
 C1168 C 0.74065 0.74074 0.48461
 C1169 C 0.73130 0.73136 0.49241
 C1170 C 0.73126 0.73131 0.50765
 C1171 C 0.74058 0.74060 0.51557
 C1172 C 0.75013 0.75018 0.50789
 C1173 C 0.76903 0.76914 0.49266
 C1174 C 0.76900 0.76906 0.50789
 C1175 C 0.75964 0.75970 0.51568
 C1176 C 0.75946 0.75949 0.53108
 C1177 C 0.75012 0.75002 0.53842
 C1178 C 0.74073 0.74067 0.53098
 H1179 H 0.72395 0.72402 0.48674
 H1180 H 0.72388 0.72392 0.51323
 H1181 H 0.77642 0.77653 0.48709
 H1182 H 0.77637 0.77639 0.51354
 H1183 H 0.75034 0.75059 0.45009
 H1184 H 0.75016 0.74994 0.55029
 C1185 C 0.96896 0.25938 0.24067
 C1186 C 0.96156 0.24992 0.24998
 C1187 C 0.96899 0.24053 0.25933
 C1188 C 0.98444 0.24044 0.25951
 C1189 C 0.99218 0.25003 0.25003
 C1190 C 0.98441 0.25959 0.24055
 C1191 C 0.99226 0.26902 0.23132
 C1192 C 1.00754 0.26906 0.23132
 C1193 C 1.01544 0.25967 0.24057
 C1194 C 1.00770 0.25006 0.25003
 C1195 C 0.99234 0.23112 0.26883
 C1196 C 1.00762 0.23115 0.26883
 C1197 C 1.01548 0.24051 0.25952
 C1198 C 1.03093 0.24067 0.25935
 C1199 C 1.03833 0.25011 0.25002
 C1200 C 1.03089 0.25953 0.24070
 H1201 H 0.98662 0.27644 0.22402
 H1202 H 1.01315 0.27650 0.22403
 H1203 H 0.98673 0.22373 0.27617
 H1204 H 1.01327 0.22378 0.27618
 H1205 H 0.94966 0.24990 0.24998
 H1206 H 1.05023 0.25017 0.25005
 C1207 C 0.46893 0.25914 0.74066
 C1208 C 0.46159 0.24968 0.75001
 C1209 C 0.46908 0.24031 0.75936
 C1210 C 0.48453 0.24022 0.75945
 C1211 C 0.49220 0.24986 0.74997
 C1212 C 0.48437 0.25941 0.74052
 C1213 C 0.49214 0.26890 0.73128
 C1214 C 0.50741 0.26903 0.73128
 C1215 C 0.51536 0.25965 0.74048
 C1216 C 0.50772 0.24995 0.74993
 C1217 C 0.49250 0.23085 0.76867
 C1218 C 0.50778 0.23089 0.76859
 C1219 C 0.51557 0.24035 0.75932
 C1220 C 0.53103 0.24057 0.75909
 C1221 C 0.53830 0.25017 0.74981
 C1222 C 0.53079 0.25963 0.74059
 H1223 H 0.48645 0.27629 0.72399
 H1224 H 0.51296 0.27652 0.72399
 H1225 H 0.48693 0.22340 0.77599
 H1226 H 0.51348 0.22349 0.77585
 H1227 H 0.44969 0.24962 0.75003
 H1228 H 0.55017 0.25033 0.74973
 C1229 C -0.03119 0.24063 0.74063
 C1230 C -0.03860 0.25006 0.74997
 C1231 C -0.03119 0.25943 0.75933
 C1232 C -0.01574 0.25957 0.75948
 C1233 C -0.00799 0.24998 0.75000
 C1234 C -0.01574 0.24043 0.74051
 C1235 C -0.00787 0.23102 0.73126
 C1236 C 0.00740 0.23097 0.73130
 C1237 C 0.01527 0.24033 0.74057
 C1238 C 0.00752 0.24995 0.75001
 C1239 C -0.00787 0.26894 0.76874
 C1240 C 0.00741 0.26894 0.76872
 C1241 C 0.01528 0.25955 0.75946
 C1242 C 0.03073 0.25939 0.75930
 C1243 C 0.03814 0.24989 0.75003
 C1244 C 0.03072 0.24043 0.74074
 H1245 H -0.01350 0.22364 0.72393
 H1246 H 0.01303 0.22354 0.72400
 H1247 H -0.01349 0.27635 0.77606
 H1248 H 0.01304 0.27635 0.77603
 H1249 H -0.05050 0.25009 0.74995
 H1250 H 0.05003 0.24987 0.75003
 C1251 C 0.46922 0.24034 0.24071
 C1252 C 0.46180 0.24974 0.25007
 C1253 C 0.46920 0.25914 0.25942
 C1254 C 0.48465 0.25932 0.25954
 C1255 C 0.49241 0.24975 0.25006
 C1256 C 0.48467 0.24018 0.24058
 C1257 C 0.49255 0.23081 0.23131
 C1258 C 0.50783 0.23080 0.23133
 C1259 C 0.51569 0.24017 0.24061
 C1260 C 0.50793 0.24975 0.25007
 C1261 C 0.49251 0.26873 0.26878
 C1262 C 0.50779 0.26874 0.26877
 C1263 C 0.51568 0.25934 0.25953
 C1264 C 0.53113 0.25918 0.25939
 C1265 C 0.53856 0.24975 0.25006
 C1266 C 0.53114 0.24032 0.24075
 H1267 H 0.48693 0.22342 0.22398
 H1268 H 0.51346 0.22340 0.22401
 H1269 H 0.48688 0.27615 0.27608
 H1270 H 0.51341 0.27617 0.27606
 H1271 H 0.44990 0.24974 0.25009
 H1272 H 0.55046 0.24980 0.25001
 C1273 C 1.03099 0.74080 0.75940
 C1274 C 1.03841 0.75025 0.75010
 C1275 C 1.03099 0.75968 0.74078
 C1276 C 1.01554 0.75980 0.74058
 C1277 C 1.00778 0.75023 0.75006
 C1278 C 1.01554 0.74065 0.75955
 C1279 C 1.00766 0.73130 0.76884
 C1280 C 0.99239 0.73131 0.76884
 C1281 C 0.98451 0.74067 0.75955
 C1282 C 0.99227 0.75022 0.75004
 C1283 C 1.00767 0.76914 0.73126
 C1284 C 0.99239 0.76912 0.73123
 C1285 C 0.98451 0.75976 0.74052
 C1286 C 0.96906 0.75960 0.74064
 C1287 C 0.96164 0.75022 0.75002
 C1288 C 0.96906 0.74083 0.75939
 H1289 H 1.01329 0.72390 0.77618
 H1290 H 0.98676 0.72392 0.77618
 H1291 H 1.01330 0.77653 0.72393
 H1292 H 0.98677 0.77648 0.72387
 H1293 H 1.05031 0.75026 0.75012
 H1294 H 0.94974 0.75021 0.75000
 C1295 C 0.53103 0.74083 0.25952
 C1296 C 0.53841 0.75029 0.25021
 C1297 C 0.53095 0.75968 0.24087
 C1298 C 0.51550 0.75977 0.24071
 C1299 C 0.50779 0.75015 0.25018
 C1300 C 0.51559 0.74059 0.25964
 C1301 C 0.50776 0.73114 0.26888
 C1302 C 0.49249 0.73103 0.26884
 C1303 C 0.48458 0.74039 0.25958
 C1304 C 0.49228 0.75008 0.25016
 C1305 C 0.50759 0.76912 0.23143
 C1306 C 0.49231 0.76909 0.23146
 C1307 C 0.48448 0.75968 0.24073
 C1308 C 0.46903 0.75950 0.24091
 C1309 C 0.46169 0.74991 0.25014
 C1310 C 0.46914 0.74043 0.25940
 H1311 H 0.51342 0.72375 0.27620
 H1312 H 0.48690 0.72357 0.27613
 H1313 H 0.51318 0.77653 0.22410
 H1314 H 0.48665 0.77647 0.22414
 H1315 H 0.55031 0.75031 0.25019
 H1316 H 0.44983 0.74979 0.25015
 C1317 C -0.03108 0.74072 0.24091
 C1318 C -0.03841 0.75031 0.25015
 C1319 C -0.03096 0.75979 0.25938
 C1320 C -0.01553 0.75984 0.25953
 C1321 C -0.00782 0.75016 0.25010
 C1322 C -0.01562 0.74055 0.24070
 C1323 C -0.00779 0.73113 0.23143
 C1324 C 0.00749 0.73111 0.23138
 C1325 C 0.01540 0.74048 0.24062
 C1326 C 0.00769 0.75010 0.25008
 C1327 C -0.00762 0.76921 0.26875
 C1328 C 0.00766 0.76912 0.26875
 C1329 C 0.01549 0.75968 0.25951
 C1330 C 0.03094 0.75947 0.25935
 C1331 C 0.03832 0.74999 0.25004
 C1332 C 0.03085 0.74058 0.24074
 H1333 H -0.01345 0.72374 0.22414
 H1334 H 0.01309 0.72369 0.22405
 H1335 H -0.01321 0.77667 0.27604
 H1336 H 0.01331 0.77652 0.27605
 H1337 H -0.05027 0.75043 0.25018
 H1338 H 0.05021 0.74998 0.25001
 C1339 C 0.46894 0.74095 0.74106
 C1340 C 0.46159 0.75048 0.75036
 C1341 C 0.46902 0.75997 0.75959
 C1342 C 0.48445 0.76008 0.75970
 C1343 C 0.49219 0.75041 0.75028
 C1344 C 0.48441 0.74079 0.74086
 C1345 C 0.49228 0.73140 0.73160
 C1346 C 0.50758 0.73135 0.73162
 C1347 C 0.51547 0.74070 0.74091
 C1348 C 0.50770 0.75036 0.75030
 C1349 C 0.49232 0.76951 0.76890
 C1350 C 0.50759 0.76947 0.76890
 C1351 C 0.51545 0.76000 0.75973
 C1352 C 0.53089 0.75980 0.75965
 C1353 C 0.53831 0.75021 0.75050
 C1354 C 0.53094 0.74074 0.74116
 H1355 H 0.48664 0.72401 0.72429
 H1356 H 0.51321 0.72392 0.72433
 H1357 H 0.48671 0.77696 0.77618
 H1358 H 0.51321 0.77691 0.77618
 H1359 H 0.44973 0.75057 0.75045
 H1360 H 0.55019 0.75018 0.75065
 C1361 C 0.43770 0.28183 0.28103
 C1362 C 0.42477 0.28304 0.27253
 C1363 C 0.41185 0.28902 0.27879
 C1364 C 0.41193 0.29380 0.29348
 C1365 C 0.42478 0.29239 0.30202
 C1366 C 0.43771 0.28640 0.29576
 C1367 C 0.45035 0.28495 0.30454
 C1368 C 0.45023 0.28925 0.31912
 C1369 C 0.43760 0.29510 0.32525
 C1370 C 0.42499 0.29671 0.31684
 C1371 C 0.39903 0.28992 0.27016
 C1372 C 0.39894 0.28499 0.25577
 C1373 C 0.41156 0.27915 0.24964
 C1374 C 0.42435 0.27820 0.25785
 C1375 C 0.39875 0.30004 0.29980
 C1376 C 0.38778 0.30519 0.30500
 C1377 C 0.45051 0.27490 0.27469
 C1378 C 0.46000 0.26827 0.26839
 H1379 H 0.46042 0.28044 0.30023
 H1380 H 0.45998 0.28802 0.32572
 H1381 H 0.43754 0.29839 0.33660
 H1382 H 0.41542 0.30126 0.32210
 H1383 H 0.38892 0.29434 0.27445
 H1384 H 0.38902 0.28569 0.24936
 H1385 H 0.41143 0.27533 0.23846
 H1386 H 0.43387 0.27359 0.25254
 C1387 C 0.43760 0.78298 0.78105
 C1388 C 0.42443 0.78350 0.77286
 C1389 C 0.41148 0.78928 0.77923
 C1390 C 0.41179 0.79472 0.79369
 C1391 C 0.42494 0.79422 0.80187
 C1392 C 0.43788 0.78832 0.79552
 C1393 C 0.45084 0.78781 0.80394
 C1394 C 0.45103 0.79294 0.81825
 C1395 C 0.43839 0.79871 0.82446
 C1396 C 0.42547 0.79938 0.81641
 C1397 C 0.39841 0.78937 0.77094
 C1398 C 0.39814 0.78398 0.75672
 C1399 C 0.41083 0.77847 0.75042
 C1400 C 0.42383 0.77818 0.75834
 C1401 C 0.39857 0.80080 0.80012
 C1402 C 0.38754 0.80585 0.80534
 C1403 C 0.45039 0.77598 0.77473
 C1404 C 0.45985 0.76925 0.76847
 H1405 H 0.46093 0.78343 0.79954
 H1406 H 0.46102 0.79244 0.82456
 H1407 H 0.43859 0.80266 0.83559
 H1408 H 0.41592 0.80392 0.82172
 H1409 H 0.38825 0.79354 0.77535
 H1410 H 0.38804 0.78409 0.75055
 H1411 H 0.41059 0.77435 0.73935
 H1412 H 0.43337 0.77377 0.75293
 C1413 C -0.06262 0.28226 0.78090
 C1414 C -0.07554 0.28356 0.77240
 C1415 C -0.08842 0.28960 0.77866
 C1416 C -0.08834 0.29433 0.79336
 C1417 C -0.07551 0.29284 0.80191
 C1418 C -0.06260 0.28679 0.79565
 C1419 C -0.04997 0.28525 0.80443
 C1420 C -0.05009 0.28951 0.81903
 C1421 C -0.06270 0.29541 0.82516
 C1422 C -0.07528 0.29711 0.81674
 C1423 C -0.10124 0.29058 0.77001
 C1424 C -0.10134 0.28569 0.75562
 C1425 C -0.08875 0.27979 0.74949
 C1426 C -0.07596 0.27876 0.75770
 C1427 C -0.10150 0.30059 0.79969
 C1428 C -0.11248 0.30574 0.80488
 C1429 C -0.04985 0.27527 0.77457
 C1430 C -0.04038 0.26860 0.76828
 H1431 H -0.03992 0.28070 0.80012
 H1432 H -0.04035 0.28820 0.82563
 H1433 H -0.06275 0.29866 0.83652
 H1434 H -0.08484 0.30170 0.82201
 H1435 H -0.11133 0.29504 0.77430
 H1436 H -0.11126 0.28645 0.74920
 H1437 H -0.08888 0.27599 0.73830
 H1438 H -0.06647 0.27411 0.75239
 C1439 C -0.06246 0.78276 0.28073
 C1440 C -0.07590 0.78228 0.27298
 C1441 C -0.08881 0.78812 0.27938
 C1442 C -0.08820 0.79460 0.29339
 C1443 C -0.07478 0.79510 0.30111
 C1444 C -0.06187 0.78914 0.29476
 C1445 C -0.04863 0.78963 0.30273
 C1446 C -0.04814 0.79583 0.31661
 C1447 C -0.06074 0.80167 0.32282
 C1448 C -0.07394 0.80135 0.31520
 C1449 C -0.10215 0.78722 0.27156
 C1450 C -0.10272 0.78080 0.25778
 C1451 C -0.09008 0.77524 0.25145
 C1452 C -0.07681 0.77593 0.25890
 C1453 C -0.10138 0.80071 0.29982
 C1454 C -0.11240 0.80576 0.30503
 C1455 C -0.04963 0.77582 0.27443
 C1456 C -0.04014 0.76910 0.26821
 H1457 H -0.03856 0.78524 0.29832
 H1458 H -0.03793 0.79610 0.32259
 H1459 H -0.06031 0.80645 0.33362
 H1460 H -0.08346 0.80599 0.32049
 H1461 H -0.11229 0.79140 0.27602
 H1462 H -0.11302 0.78017 0.25199
 H1463 H -0.09056 0.77032 0.24072
 H1464 H -0.06731 0.77146 0.25347
 C1465 C 0.56196 0.71780 0.28172
 C1466 C 0.56661 0.72213 0.29581
 C1467 C 0.57969 0.71623 0.30180
 C1468 C 0.58802 0.70600 0.29370
 C1469 C 0.58354 0.70191 0.27949
 C1470 C 0.57046 0.70781 0.27349
 C1471 C 0.56636 0.70377 0.25915
 C1472 C 0.57497 0.69427 0.25094
 C1473 C 0.58776 0.68850 0.25680
 C1474 C 0.59202 0.69220 0.27093
 C1475 C 0.58430 0.72097 0.31577
 C1476 C 0.57626 0.73131 0.32354
 C1477 C 0.56346 0.73707 0.31768
 C1478 C 0.55861 0.73253 0.30400
 C1479 C 0.60125 0.69980 0.29993
 C1480 C 0.61220 0.69464 0.30516
 C1481 C 0.54952 0.72497 0.27495
 C1482 C 0.54023 0.73169 0.26847
 H1483 H 0.55651 0.70797 0.25409
 H1484 H 0.57173 0.69139 0.23995
 H1485 H 0.59444 0.68116 0.25036
 H1486 H 0.60210 0.68749 0.27498
 H1487 H 0.59423 0.71688 0.32074
 H1488 H 0.58001 0.73492 0.33415
 H1489 H 0.55727 0.74512 0.32376
 H1490 H 0.54860 0.73732 0.29989
 C1491 C 0.56276 0.21798 0.78073
 C1492 C 0.57690 0.22244 0.77609
 C1493 C 0.58958 0.21622 0.78260
 C1494 C 0.58810 0.20543 0.79356
 C1495 C 0.57400 0.20085 0.79808
 C1496 C 0.56129 0.20717 0.79167
 C1497 C 0.54735 0.20245 0.79640
 C1498 C 0.54597 0.19176 0.80716
 C1499 C 0.55837 0.18556 0.81340
 C1500 C 0.57226 0.19001 0.80896
 C1501 C 0.60356 0.22101 0.77791
 C1502 C 0.60498 0.23152 0.76699
 C1503 C 0.59261 0.23747 0.76050
 C1504 C 0.57873 0.23305 0.76498
 C1505 C 0.60110 0.19904 0.80010
 C1506 C 0.61202 0.19387 0.80540
 C1507 C 0.54993 0.22477 0.77421
 C1508 C 0.54037 0.23137 0.76791
 H1509 H 0.53740 0.20696 0.79183
 H1510 H 0.53521 0.18826 0.81066
 H1511 H 0.55724 0.17725 0.82174
 H1512 H 0.58159 0.18488 0.81413
 H1513 H 0.61353 0.21668 0.78259
 H1514 H 0.61574 0.23504 0.76352
 H1515 H 0.59376 0.24553 0.75193
 H1516 H 0.56951 0.23800 0.75958
 C1517 C 1.06221 0.71883 0.78216
 C1518 C 1.06356 0.70347 0.78322
 C1519 C 1.07657 0.69719 0.78900
 C1520 C 1.08814 0.70634 0.79372
 C1521 C 1.08687 0.72171 0.79249
 C1522 C 1.07387 0.72798 0.78671
 C1523 C 1.07297 0.74338 0.78538
 C1524 C 1.08458 0.75231 0.78958
 C1525 C 1.09728 0.74616 0.79524
 C1526 C 1.09846 0.73105 0.79673
 C1527 C 1.07776 0.68179 0.78973
 C1528 C 1.06645 0.67284 0.78483
 C1529 C 1.05373 0.67899 0.77918
 C1530 C 1.05223 0.69413 0.77838
 C1531 C 1.10138 0.69998 0.79975
 C1532 C 1.11241 0.69484 0.80483
 C1533 C 1.04956 0.72534 0.77512
 C1534 C 1.04016 0.73175 0.76847
 H1535 H 1.06334 0.74871 0.78105
 H1536 H 1.08372 0.76405 0.78842
 H1537 H 1.10629 0.75314 0.79845
 H1538 H 1.10859 0.72680 0.80113
 H1539 H 1.08747 0.67651 0.79398
 H1540 H 1.06757 0.66108 0.78539
 H1541 H 1.04498 0.67199 0.77538
 H1542 H 1.04214 0.69842 0.77391
 C1543 C 1.06216 0.21868 0.28213
 C1544 C 1.07350 0.22782 0.28742
 C1545 C 1.08648 0.22153 0.29324
 C1546 C 1.08804 0.20614 0.29376
 C1547 C 1.07681 0.19702 0.28825
 C1548 C 1.06382 0.20331 0.28243
 C1549 C 1.05285 0.19400 0.27679
 C1550 C 1.05468 0.17887 0.27682
 C1551 C 1.06738 0.17272 0.28250
 C1552 C 1.07834 0.18163 0.28819
 C1553 C 1.09775 0.23088 0.29823
 C1554 C 1.09630 0.24602 0.29742
 C1555 C 1.08363 0.25219 0.29172
 C1556 C 1.07231 0.24325 0.28680
 C1557 C 1.10124 0.19975 0.29987
 C1558 C 1.11223 0.19457 0.30501
 C1559 C 1.04954 0.22526 0.27509
 C1560 C 1.04014 0.23166 0.26844
 H1561 H 1.04280 0.19830 0.27225
 H1562 H 1.04622 0.17190 0.27239
 H1563 H 1.06877 0.16097 0.28246
 H1564 H 1.08805 0.17634 0.29243
 H1565 H 1.10785 0.22662 0.30269
 H1566 H 1.10507 0.25301 0.30120
 H1567 H 1.08256 0.26396 0.29108
 H1568 H 1.06268 0.24859 0.28246
 C1569 C 0.56213 0.28271 0.71920
 C1570 C 0.57534 0.28298 0.72733
 C1571 C 0.58829 0.28875 0.72097
 C1572 C 0.58795 0.29439 0.70659
 C1573 C 0.57475 0.29413 0.69847
 C1574 C 0.56181 0.28825 0.70479
 C1575 C 0.54881 0.28794 0.69643
 C1576 C 0.54859 0.29327 0.68218
 C1577 C 0.56124 0.29902 0.67599
 C1578 C 0.57419 0.29949 0.68400
 C1579 C 0.60141 0.28860 0.72920
 C1580 C 0.60172 0.28297 0.74333
 C1581 C 0.58903 0.27748 0.74961
 C1582 C 0.57598 0.27744 0.74177
 C1583 C 0.60118 0.30042 0.70019
 C1584 C 0.61224 0.30541 0.69500
 C1585 C 0.54933 0.27572 0.72548
 C1586 C 0.53989 0.26897 0.73172
 H1587 H 0.53872 0.28358 0.70082
 H1588 H 0.53857 0.29292 0.67591
 H1589 H 0.56102 0.30313 0.66491
 H1590 H 0.58375 0.30403 0.67871
 H1591 H 0.61158 0.29274 0.72479
 H1592 H 0.61186 0.28289 0.74944
 H1593 H 0.58931 0.27316 0.76062
 H1594 H 0.56643 0.27304 0.74718
 C1595 C 0.56229 0.78143 0.21817
 C1596 C 0.56241 0.79639 0.21430
 C1597 C 0.57532 0.80274 0.20839
 C1598 C 0.58801 0.79407 0.20637
 C1599 C 0.58796 0.77915 0.21045
 C1600 C 0.57506 0.77280 0.21634
 C1601 C 0.57533 0.75787 0.22047
 C1602 C 0.58799 0.74951 0.21891
 C1603 C 0.60060 0.75574 0.21317
 C1604 C 0.60064 0.77037 0.20894
 C1605 C 0.57525 0.81778 0.20479
 C1606 C 0.56280 0.82630 0.20700
 C1607 C 0.55018 0.82008 0.21277
 C1608 C 0.54992 0.80528 0.21638
 C1609 C 0.60116 0.80048 0.20017
 C1610 C 0.61213 0.80564 0.19500
 C1611 C 0.54955 0.77502 0.22511
 C1612 C 0.54010 0.76868 0.23174
 H1613 H 0.56582 0.75249 0.22498
 H1614 H 0.58802 0.73815 0.22221
 H1615 H 0.61042 0.74921 0.21202
 H1616 H 0.61074 0.77472 0.20457
 H1617 H 0.58482 0.82312 0.20032
 H1618 H 0.56295 0.83781 0.20426
 H1619 H 0.54055 0.82675 0.21449
 H1620 H 0.53987 0.80091 0.22084
 C1621 C 1.06185 0.28272 0.21871
 C1622 C 1.07163 0.29076 0.22763
 C1623 C 1.08468 0.29663 0.22155
 C1624 C 1.08788 0.29444 0.20659
 C1625 C 1.07823 0.28619 0.19774
 C1626 C 1.06517 0.28033 0.20382
 C1627 C 1.05584 0.27189 0.19484
 C1628 C 1.05936 0.26923 0.18028
 C1629 C 1.07213 0.27495 0.17434
 C1630 C 1.08147 0.28338 0.18290
 C1631 C 1.09442 0.30437 0.23073
 C1632 C 1.09142 0.30617 0.24554
 C1633 C 1.07867 0.30043 0.25149
 C1634 C 1.06883 0.29285 0.24269
 C1635 C 1.10117 0.30051 0.20035
 C1636 C 1.11219 0.30555 0.19516
 C1637 C 1.04936 0.27551 0.22535
 C1638 C 1.04005 0.26874 0.23176
 H1639 H 1.04580 0.26720 0.19899
 H1640 H 1.05215 0.26267 0.17358
 H1641 H 1.07484 0.27281 0.16304
 H1642 H 1.09132 0.28753 0.17781
 H1643 H 1.10452 0.30897 0.22663
 H1644 H 1.09905 0.31201 0.25243
 H1645 H 1.07640 0.30183 0.26300
 H1646 H 1.05907 0.28860 0.24784
 C1647 C 1.06211 0.78177 0.71796
 C1648 C 1.06417 0.79709 0.71841
 C1649 C 1.07719 0.80332 0.71262
 C1650 C 1.08804 0.79420 0.70638
 C1651 C 1.08608 0.77885 0.70613
 C1652 C 1.07307 0.77262 0.71192
 C1653 C 1.07148 0.75722 0.71175
 C1654 C 1.08244 0.74826 0.70610
 C1655 C 1.09515 0.75436 0.70045
 C1656 C 1.09699 0.76947 0.70040
 C1657 C 1.07913 0.81864 0.71343
 C1658 C 1.06854 0.82754 0.71983
 C1659 C 1.05581 0.82144 0.72548
 C1660 C 1.05358 0.80639 0.72478
 C1661 C 1.10126 0.80054 0.70028
 C1662 C 1.11225 0.80568 0.69513
 C1663 C 1.04953 0.77517 0.72505
 C1664 C 1.04017 0.76873 0.73171
 H1665 H 1.06180 0.75192 0.71603
 H1666 H 1.08106 0.73650 0.70615
 H1667 H 1.10365 0.74735 0.69611
 H1668 H 1.10711 0.77370 0.69594
 H1669 H 1.08888 0.82388 0.70925
 H1670 H 1.07024 0.83923 0.72045
 H1671 H 1.04763 0.82840 0.73046
 H1672 H 1.04351 0.80213 0.72933
 C1673 C 0.43729 0.71841 0.71927
 C1674 C 0.42313 0.72309 0.72364
 C1675 C 0.41047 0.71685 0.71713
 C1676 C 0.41199 0.70582 0.70642
 C1677 C 0.42611 0.70100 0.70219
 C1678 C 0.43879 0.70734 0.70861
 C1679 C 0.45276 0.70236 0.70418
 C1680 C 0.45417 0.69140 0.69371
 C1681 C 0.44179 0.68520 0.68745
 C1682 C 0.42789 0.68990 0.69159
 C1683 C 0.39648 0.72184 0.72158
 C1684 C 0.39501 0.73256 0.73226
 C1685 C 0.40735 0.73855 0.73875
 C1686 C 0.42125 0.73395 0.73449
 C1687 C 0.39901 0.69941 0.69987
 C1688 C 0.38810 0.69422 0.69456
 C1689 C 0.45011 0.72519 0.72584
 C1690 C 0.45964 0.73176 0.73218
 H1691 H 0.46269 0.70686 0.70878
 H1692 H 0.46494 0.68769 0.69045
 H1693 H 0.44295 0.67668 0.67934
 H1694 H 0.41859 0.68475 0.68643
 H1695 H 0.38653 0.71749 0.71688
 H1696 H 0.38423 0.73622 0.73556
 H1697 H 0.40617 0.74677 0.74715
 H1698 H 0.43045 0.73896 0.73987
 C1699 C 0.43777 0.21763 0.21907
 C1700 C 0.43803 0.21253 0.20451
 C1701 C 0.42515 0.20652 0.19820
 C1702 C 0.41209 0.20565 0.20650
 C1703 C 0.41178 0.21092 0.22101
 C1704 C 0.42465 0.21690 0.22733
 C1705 C 0.42401 0.22221 0.24185
 C1706 C 0.41103 0.22172 0.24982
 C1707 C 0.39845 0.21589 0.24362
 C1708 C 0.39877 0.21050 0.22941
 C1709 C 0.42562 0.20165 0.18355
 C1710 C 0.43844 0.20272 0.17537
 C1711 C 0.45102 0.20858 0.18156
 C1712 C 0.45089 0.21343 0.19598
 C1713 C 0.39895 0.19944 0.20010
 C1714 C 0.38798 0.19432 0.19487
 C1715 C 0.45055 0.22457 0.22544
 C1716 C 0.46002 0.23120 0.23175
 H1717 H 0.43348 0.22682 0.24721
 H1718 H 0.41074 0.22591 0.26087
 H1719 H 0.38839 0.21556 0.24986
 H1720 H 0.38868 0.20610 0.22506
 H1721 H 0.41610 0.19706 0.17826
 H1722 H 0.43859 0.19901 0.16416
 H1723 H 0.46094 0.20940 0.17515
 H1724 H 0.46093 0.21792 0.20034
 C1725 C -0.06269 0.71792 0.21945
 C1726 C -0.06128 0.70789 0.20780
 C1727 C -0.07402 0.70168 0.20137
 C1728 C -0.08808 0.70562 0.20657
 C1729 C -0.08950 0.71562 0.21826
 C1730 C -0.07679 0.72168 0.22481
 C1731 C -0.07854 0.73144 0.23668
 C1732 C -0.09238 0.73524 0.24180
 C1733 C -0.10480 0.72948 0.23524
 C1734 C -0.10344 0.71976 0.22363
 C1735 C -0.07234 0.69163 0.18977
 C1736 C -0.05849 0.68782 0.18465
 C1737 C -0.04605 0.69392 0.19092
 C1738 C -0.04737 0.70386 0.20237
 C1739 C -0.10111 0.69936 0.20000
 C1740 C -0.11206 0.69429 0.19470
 C1741 C -0.04987 0.72478 0.22588
 C1742 C -0.04035 0.73145 0.23212
 H1743 H -0.06927 0.73617 0.24220
 H1744 H -0.09347 0.74268 0.25092
 H1745 H -0.11554 0.73252 0.23922
 H1746 H -0.11344 0.71553 0.21893
 H1747 H -0.08169 0.68661 0.18454
 H1748 H -0.05740 0.68010 0.17577
 H1749 H -0.03532 0.69092 0.18689
 H1750 H -0.03740 0.70830 0.20695
 C1751 C -0.06264 0.21791 0.71907
 C1752 C -0.06245 0.21285 0.70450
 C1753 C -0.07537 0.20688 0.69823
 C1754 C -0.08839 0.20601 0.70659
 C1755 C -0.08861 0.21121 0.72113
 C1756 C -0.07571 0.21716 0.72741
 C1757 C -0.07626 0.22240 0.74195
 C1758 C -0.08919 0.22187 0.75000
 C1759 C -0.10181 0.21608 0.74385
 C1760 C -0.10158 0.21076 0.72960
 C1761 C -0.07497 0.20204 0.68358
 C1762 C -0.06219 0.20309 0.67534
 C1763 C -0.04957 0.20892 0.68148
 C1764 C -0.04963 0.21374 0.69591
 C1765 C -0.10157 0.19986 0.70025
 C1766 C -0.11257 0.19478 0.69508
 C1767 C -0.04984 0.22485 0.72538
 C1768 C -0.04037 0.23149 0.73168
 H1769 H -0.06676 0.22697 0.74728
 H1770 H -0.08942 0.22599 0.76107
 H1771 H -0.11183 0.21571 0.75014
 H1772 H -0.11169 0.20639 0.72529
 H1773 H -0.08453 0.19747 0.67832
 H1774 H -0.06210 0.19939 0.66412
 H1775 H -0.03968 0.20972 0.67503
 H1776 H -0.03956 0.21820 0.70024
 C1777 C 0.28111 0.43741 0.28153
 C1778 C 0.27420 0.42365 0.27968
 C1779 C 0.28068 0.41084 0.28561
 C1780 C 0.29394 0.41185 0.29352
 C1781 C 0.30085 0.42559 0.29536
 C1782 C 0.29442 0.43840 0.28933
 C1783 C 0.30156 0.45197 0.29122
 C1784 C 0.31470 0.45288 0.29888
 C1785 C 0.32099 0.44036 0.30479
 C1786 C 0.31419 0.42684 0.30309
 C1787 C 0.27369 0.39720 0.28340
 C1788 C 0.26066 0.39624 0.27558
 C1789 C 0.25424 0.40877 0.26988
 C1790 C 0.26086 0.42233 0.27191
 C1791 C 0.30038 0.39877 0.29980
 C1792 C 0.30557 0.38783 0.30502
 C1793 C 0.27468 0.45026 0.27476
 C1794 C 0.26836 0.45980 0.26821
 H1795 H 0.29706 0.46199 0.28681
 H1796 H 0.32004 0.46335 0.30022
 H1797 H 0.33121 0.44112 0.31071
 H1798 H 0.31951 0.41741 0.30784
 H1799 H 0.27824 0.38713 0.28763
 H1800 H 0.25549 0.38572 0.27395
 H1801 H 0.24409 0.40799 0.26384
 H1802 H 0.25536 0.43172 0.26734
 C1803 C 0.28280 -0.06248 0.78129
 C1804 C 0.28080 -0.06555 0.79630
 C1805 C 0.28671 -0.07858 0.80241
 C1806 C 0.29462 -0.08846 0.79349
 C1807 C 0.29634 -0.08555 0.77841
 C1808 C 0.29042 -0.07254 0.77230
 C1809 C 0.29203 -0.07004 0.75712
 C1810 C 0.29919 -0.08013 0.74825
 C1811 C 0.30498 -0.09284 0.75423
 C1812 C 0.30365 -0.09555 0.76914
 C1813 C 0.28429 -0.08155 0.81738
 C1814 C 0.27619 -0.07198 0.82604
 C1815 C 0.27042 -0.05925 0.82005
 C1816 C 0.27270 -0.05600 0.80537
 C1817 C 0.30081 -0.10170 0.79977
 C1818 C 0.30595 -0.11268 0.80498
 C1819 C 0.27566 -0.04990 0.77470
 C1820 C 0.26894 -0.04051 0.76833
 H1821 H 0.28771 -0.06033 0.75193
 H1822 H 0.30022 -0.07809 0.73665
 H1823 H 0.31049 -0.10067 0.74728
 H1824 H 0.30826 -0.10563 0.77326
 H1825 H 0.28849 -0.09135 0.82251
 H1826 H 0.27434 -0.07448 0.83743
 H1827 H 0.26411 -0.05188 0.82682
 H1828 H 0.26799 -0.04598 0.80120
 C1829 C 0.78139 0.43737 0.78185
 C1830 C 0.79461 0.43840 0.78978
 C1831 C 0.80104 0.42560 0.79584
 C1832 C 0.79421 0.41184 0.79389
 C1833 C 0.78103 0.41079 0.78586
 C1834 C 0.77454 0.42359 0.77991
 C1835 C 0.76128 0.42223 0.77202
 C1836 C 0.75474 0.40865 0.76990
 C1837 C 0.76116 0.39613 0.77562
 C1838 C 0.77412 0.39712 0.78355
 C1839 C 0.81430 0.42689 0.80370
 C1840 C 0.82102 0.44043 0.80550
 C1841 C 0.81473 0.45294 0.79957
 C1842 C 0.80167 0.45200 0.79178
 C1843 C 0.80064 0.39875 0.80019
 C1844 C 0.80576 0.38778 0.80539
 C1845 C 0.77495 0.45021 0.77506
 C1846 C 0.76863 0.45973 0.76848
 H1847 H 0.75577 0.43161 0.76744
 H1848 H 0.74464 0.40784 0.76378
 H1849 H 0.75605 0.38559 0.77392
 H1850 H 0.77868 0.38706 0.78779
 H1851 H 0.81961 0.41746 0.80848
 H1852 H 0.83118 0.44122 0.81153
 H1853 H 0.82001 0.46343 0.80100
 H1854 H 0.79716 0.46201 0.78736
 C1855 C 0.78182 -0.06227 0.28228
 C1856 C 0.77301 -0.07196 0.29055
 C1857 C 0.77916 -0.08501 0.29634
 C1858 C 0.79410 -0.08829 0.29385
 C1859 C 0.80283 -0.07876 0.28533
 C1860 C 0.79667 -0.06571 0.27954
 C1861 C 0.80553 -0.05650 0.27084
 C1862 C 0.82004 -0.06012 0.26786
 C1863 C 0.82607 -0.07288 0.27351
 C1864 C 0.81762 -0.08211 0.28220
 C1865 C 0.77006 -0.09466 0.30431
 C1866 C 0.75528 -0.09157 0.30642
 C1867 C 0.74925 -0.07883 0.30076
 C1868 C 0.75797 -0.06908 0.29295
 C1869 C 0.80040 -0.10154 0.29994
 C1870 C 0.80550 -0.11255 0.30509
 C1871 C 0.77508 -0.04976 0.27521
 C1872 C 0.76859 -0.04042 0.26855
 H1873 H 0.80132 -0.04646 0.26619
 H1874 H 0.82664 -0.05300 0.26109
 H1875 H 0.83733 -0.07566 0.27112
 H1876 H 0.82276 -0.09195 0.28628
 H1877 H 0.77422 -0.10476 0.30887
 H1878 H 0.74846 -0.09914 0.31244
 H1879 H 0.73775 -0.07650 0.30240
 H1880 H 0.75275 -0.05932 0.28877
 C1881 C 0.28125 0.56209 0.71793
 C1882 C 0.27235 0.57449 0.71513
 C1883 C 0.27870 0.58743 0.70935
 C1884 C 0.29390 0.58791 0.70637
 C1885 C 0.30281 0.57560 0.70937
 C1886 C 0.29646 0.56264 0.71516
 C1887 C 0.30560 0.55055 0.71823
 C1888 C 0.32063 0.55124 0.71572
 C1889 C 0.32685 0.56390 0.71006
 C1890 C 0.31809 0.57596 0.70687
 C1891 C 0.26963 0.59974 0.70685
 C1892 C 0.25472 0.59931 0.71003
 C1893 C 0.24851 0.58666 0.71568
 C1894 C 0.25715 0.57436 0.71819
 C1895 C 0.30032 0.60108 0.70025
 C1896 C 0.30553 0.61202 0.69508
 C1897 C 0.27478 0.54937 0.72486
 C1898 C 0.26839 0.53995 0.73147
 H1899 H 0.30124 0.54048 0.72265
 H1900 H 0.32748 0.54191 0.71820
 H1901 H 0.33853 0.56439 0.70816
 H1902 H 0.32343 0.58558 0.70254
 H1903 H 0.27396 0.60986 0.70251
 H1904 H 0.24797 0.60885 0.70814
 H1905 H 0.23692 0.58638 0.71817
 H1906 H 0.25176 0.56480 0.72258
 C1907 C 0.28218 1.06165 0.21769
 C1908 C 0.27416 1.06995 0.20737
 C1909 C 0.28021 1.08303 0.20158
 C1910 C 0.29426 1.08770 0.20610
 C1911 C 0.30215 1.07956 0.21663
 C1912 C 0.29610 1.06648 0.22243
 C1913 C 0.30406 1.05868 0.23315
 C1914 C 0.31757 1.06372 0.23810
 C1915 C 0.32347 1.07653 0.23244
 C1916 C 0.31593 1.08437 0.22179
 C1917 C 0.27184 1.09134 0.19155
 C1918 C 0.25786 1.08690 0.18744
 C1919 C 0.25195 1.07410 0.19308
 C1920 C 0.25997 1.06565 0.20289
 C1921 C 0.30049 1.10097 0.20005
 C1922 C 0.30560 1.11198 0.19495
 C1923 C 0.27527 1.04927 0.22478
 C1924 C 0.26866 1.04005 0.23144
 H1925 H 0.29991 1.04867 0.23788
 H1926 H 0.32346 1.05769 0.24639
 H1927 H 0.33393 1.08044 0.23637
 H1928 H 0.32093 1.09431 0.21779
 H1929 H 0.27594 1.10142 0.18692
 H1930 H 0.25156 1.09346 0.17987
 H1931 H 0.24106 1.07072 0.18988
 H1932 H 0.25489 1.05579 0.20698
 C1933 C 0.78133 0.56262 0.21877
 C1934 C 0.79282 0.56121 0.20854
 C1935 C 0.79924 0.57393 0.20231
 C1936 C 0.79414 0.58796 0.20639
 C1937 C 0.78263 0.58939 0.21662
 C1938 C 0.77617 0.57670 0.22278
 C1939 C 0.76459 0.57846 0.23291
 C1940 C 0.75963 0.59228 0.23693
 C1941 C 0.76601 0.60468 0.23095
 C1942 C 0.77736 0.60332 0.22089
 C1943 C 0.81072 0.57226 0.19209
 C1944 C 0.81572 0.55842 0.18812
 C1945 C 0.80944 0.54600 0.19422
 C1946 C 0.79811 0.54731 0.20433
 C1947 C 0.80061 0.60097 0.20003
 C1948 C 0.80576 0.61191 0.19483
 C1949 C 0.77477 0.54979 0.22545
 C1950 C 0.76839 0.54026 0.23194
 H1951 H 0.75921 0.56921 0.23782
 H1952 H 0.75078 0.59337 0.24472
 H1953 H 0.76212 0.61541 0.23410
 H1954 H 0.78195 0.61331 0.21653
 H1955 H 0.81594 0.58160 0.18706
 H1956 H 0.82451 0.55735 0.18027
 H1957 H 0.81337 0.53528 0.19109
 H1958 H 0.79355 0.53735 0.20878
 C1959 C 0.78139 1.06212 0.71791
 C1960 C 0.77225 1.07273 0.71126
 C1961 C 0.77844 1.08575 0.70551
 C1962 C 0.79373 1.08808 0.70641
 C1963 C 0.80283 1.07757 0.71322
 C1964 C 0.79664 1.06453 0.71898
 C1965 C 0.80590 1.05429 0.72594
 C1966 C 0.82087 1.05688 0.72724
 C1967 C 0.82693 1.06962 0.72162
 C1968 C 0.81807 1.07987 0.71465
 C1969 C 0.76907 1.09632 0.69915
 C1970 C 0.75400 1.09412 0.69856
 C1971 C 0.74793 1.08138 0.70418
 C1972 C 0.75689 1.07076 0.71043
 C1973 C 0.80004 1.10131 0.70039
 C1974 C 0.80519 1.11230 0.69528
 C1975 C 0.77477 1.04960 0.72503
 C1976 C 0.76834 1.04028 0.73174
 H1977 H 0.80167 1.04422 0.73049
 H1978 H 0.82780 1.04896 0.73267
 H1979 H 0.83856 1.07160 0.72270
 H1980 H 0.82328 1.08966 0.71051
 H1981 H 0.77326 1.10644 0.69469
 H1982 H 0.74698 1.10236 0.69375
 H1983 H 0.73621 1.07973 0.70372
 H1984 H 0.75164 1.06105 0.71465
 C1985 C 0.71815 0.56196 0.28229
 C1986 C 0.72656 0.57082 0.29180
 C1987 C 0.72050 0.58393 0.29752
 C1988 C 0.70607 0.58810 0.29373
 C1989 C 0.69782 0.57945 0.28392
 C1990 C 0.70387 0.56633 0.27820
 C1991 C 0.69552 0.55801 0.26820
 C1992 C 0.68163 0.56258 0.26389
 C1993 C 0.67571 0.57542 0.26947
 C1994 C 0.68364 0.58377 0.27942
 C1995 C 0.72922 0.59276 0.30675
 C1996 C 0.74356 0.58881 0.31013
 C1997 C 0.74948 0.57599 0.30454
 C1998 C 0.74112 0.56703 0.29552
 C1999 C 0.69979 0.60133 0.29985
 C2000 C 0.69463 0.61228 0.30506
 C2001 C 0.72493 0.54940 0.27534
 C2002 C 0.73148 0.54005 0.26878
 H2003 H 0.69968 0.54796 0.26355
 H2004 H 0.67544 0.55616 0.25613
 H2005 H 0.66494 0.57895 0.26604
 H2006 H 0.67862 0.59372 0.28340
 H2007 H 0.72513 0.60289 0.31130
 H2008 H 0.75011 0.59576 0.31710
 H2009 H 0.76064 0.57299 0.30717
 H2010 H 0.74623 0.55718 0.29144
 C2011 C 0.71801 1.06216 0.78223
 C2012 C 0.72607 1.07049 0.79248
 C2013 C 0.72004 1.08358 0.79829
 C2014 C 0.70596 1.08828 0.79384
 C2015 C 0.69803 1.08013 0.78336
 C2016 C 0.70406 1.06703 0.77755
 C2017 C 0.69606 1.05923 0.76688
 C2018 C 0.68251 1.06427 0.76201
 C2019 C 0.67662 1.07707 0.76768
 C2020 C 0.68422 1.08493 0.77827
 C2021 C 0.72845 1.09187 0.80827
 C2022 C 0.74245 1.08741 0.81233
 C2023 C 0.74835 1.07462 0.80666
 C2024 C 0.74029 1.06618 0.79688
 C2025 C 0.69972 1.10156 0.79996
 C2026 C 0.69461 1.11256 0.80514
 C2027 C 0.72485 1.04966 0.77521
 C2028 C 0.73140 1.04032 0.76860
 H2029 H 0.70020 1.04922 0.76214
 H2030 H 0.67658 1.05823 0.75376
 H2031 H 0.66612 1.08097 0.76382
 H2032 H 0.67922 1.09487 0.78230
 H2033 H 0.72437 1.10195 0.81292
 H2034 H 0.74878 1.09395 0.81988
 H2035 H 0.75925 1.07122 0.80981
 H2036 H 0.74537 1.05632 0.79277
 C2037 C 0.21802 0.56192 0.78205
 C2038 C 0.20409 0.56679 0.77735
 C2039 C 0.19806 0.57988 0.78316
 C2040 C 0.20599 0.58800 0.79366
 C2041 C 0.22002 0.58325 0.79820
 C2042 C 0.22605 0.57017 0.79240
 C2043 C 0.24022 0.56579 0.79689
 C2044 C 0.24822 0.57415 0.80677
 C2045 C 0.24232 0.58695 0.81245
 C2046 C 0.22837 0.59148 0.80829
 C2047 C 0.18426 0.58470 0.77806
 C2048 C 0.17666 0.57685 0.76746
 C2049 C 0.18256 0.56405 0.76178
 C2050 C 0.19610 0.55901 0.76665
 C2051 C 0.19981 0.60131 0.79968
 C2052 C 0.19472 0.61234 0.80477
 C2053 C 0.22490 0.54951 0.77497
 C2054 C 0.23147 0.54024 0.76832
 H2055 H 0.24528 0.55593 0.79279
 H2056 H 0.25908 0.57070 0.81001
 H2057 H 0.24861 0.59343 0.82008
 H2058 H 0.22429 0.60155 0.81295
 H2059 H 0.17926 0.59463 0.78209
 H2060 H 0.16617 0.58075 0.76360
 H2061 H 0.17663 0.55802 0.75353
 H2062 H 0.20025 0.54899 0.76191
 C2063 C 0.21826 1.06204 0.28195
 C2064 C 0.20425 1.06680 0.27737
 C2065 C 0.19817 1.07986 0.28321
 C2066 C 0.20613 1.08807 0.29362
 C2067 C 0.22027 1.08347 0.29798
 C2068 C 0.22635 1.07042 0.29215
 C2069 C 0.24062 1.06621 0.29646
 C2070 C 0.24868 1.07469 0.30619
 C2071 C 0.24273 1.08745 0.31190
 C2072 C 0.22868 1.09182 0.30792
 C2073 C 0.18428 1.08456 0.27823
 C2074 C 0.17665 1.07663 0.26771
 C2075 C 0.18260 1.06386 0.26200
 C2076 C 0.19622 1.05893 0.26676
 C2077 C 0.19987 1.10132 0.29971
 C2078 C 0.19474 1.11231 0.30487
 C2079 C 0.22513 1.04960 0.27490
 C2080 C 0.23167 1.04030 0.26826
 H2081 H 0.24573 1.05638 0.29232
 H2082 H 0.25962 1.07136 0.30929
 H2083 H 0.24906 1.09403 0.31942
 H2084 H 0.22456 1.10187 0.31259
 H2085 H 0.17925 1.09446 0.28228
 H2086 H 0.16610 1.08044 0.26394
 H2087 H 0.17665 1.05777 0.25381
 H2088 H 0.20040 1.04895 0.26200
 C2089 C 0.71834 0.43798 0.71803
 C2090 C 0.70408 0.43359 0.72221
 C2091 C 0.69800 0.42050 0.71645
 C2092 C 0.70619 0.41189 0.70654
 C2093 C 0.72057 0.41612 0.70261
 C2094 C 0.72665 0.42920 0.70836
 C2095 C 0.74116 0.43303 0.70449
 C2096 C 0.74944 0.42415 0.69530
 C2097 C 0.74349 0.41137 0.68968
 C2098 C 0.72921 0.40737 0.69321
 C2099 C 0.68386 0.41617 0.72103
 C2100 C 0.67599 0.42448 0.73108
 C2101 C 0.68194 0.43727 0.73670
 C2102 C 0.69580 0.44185 0.73232
 C2103 C 0.69994 0.39860 0.70051
 C2104 C 0.69484 0.38758 0.69541
 C2105 C 0.72517 0.45048 0.72503
 C2106 C 0.73174 0.45980 0.73160
 H2107 H 0.74628 0.44287 0.70858
 H2108 H 0.76055 0.42719 0.69255
 H2109 H 0.74999 0.40448 0.68259
 H2110 H 0.72510 0.39728 0.68863
 H2111 H 0.67881 0.40626 0.71703
 H2112 H 0.66524 0.42093 0.73457
 H2113 H 0.67579 0.44366 0.74454
 H2114 H 0.69998 0.45188 0.73699
 C2115 C 0.71821 -0.06197 0.21792
 C2116 C 0.72640 -0.07052 0.20793
 C2117 C 0.72030 -0.08356 0.20210
 C2118 C 0.70604 -0.08794 0.20626
 C2119 C 0.69798 -0.07956 0.21645
 C2120 C 0.70407 -0.06653 0.22229
 C2121 C 0.69592 -0.05848 0.23268
 C2122 C 0.68218 -0.06323 0.23725
 C2123 C 0.67622 -0.07598 0.23155
 C2124 C 0.68396 -0.08407 0.22123
 C2125 C 0.72882 -0.09209 0.19240
 C2126 C 0.74299 -0.08793 0.18864
 C2127 C 0.74896 -0.07519 0.19434
 C2128 C 0.74079 -0.06652 0.20384
 C2129 C 0.69977 -0.10117 0.20018
 C2130 C 0.69462 -0.11215 0.19506
 C2131 C 0.72510 -0.04959 0.22503
 C2132 C 0.73167 -0.04035 0.23170
 H2133 H 0.70011 -0.04850 0.23743
 H2134 H 0.67614 -0.05700 0.24529
 H2135 H 0.66556 -0.07965 0.23519
 H2136 H 0.67890 -0.09395 0.21717
 H2137 H 0.72469 -0.10214 0.18774
 H2138 H 0.74940 -0.09466 0.18131
 H2139 H 0.75999 -0.07202 0.19142
 H2140 H 0.74592 -0.05671 0.20798
 C2141 C 0.21787 0.43826 0.21779
 C2142 C 0.20452 0.43274 0.22337
 C2143 C 0.19853 0.41963 0.21761
 C2144 C 0.20590 0.41213 0.20626
 C2145 C 0.21938 0.41749 0.20087
 C2146 C 0.22538 0.43060 0.20663
 C2147 C 0.23902 0.43559 0.20126
 C2148 C 0.24657 0.42779 0.19058
 C2149 C 0.24071 0.41496 0.18495
 C2150 C 0.22725 0.40985 0.18996
 C2151 C 0.18534 0.41415 0.22359
 C2152 C 0.17833 0.42137 0.23501
 C2153 C 0.18418 0.43420 0.24064
 C2154 C 0.19710 0.43989 0.23491
 C2155 C 0.19970 0.39883 0.20025
 C2156 C 0.19461 0.38781 0.19515
 C2157 C 0.22483 0.45068 0.22477
 C2158 C 0.23147 0.45994 0.23135
 H2159 H 0.24404 0.44550 0.20529
 H2160 H 0.25704 0.43170 0.18668
 H2161 H 0.24664 0.40891 0.17670
 H2162 H 0.22319 0.39977 0.18531
 H2163 H 0.18041 0.40416 0.21963
 H2164 H 0.16832 0.41696 0.23954
 H2165 H 0.17870 0.43975 0.24953
 H2166 H 0.20124 0.44990 0.23965
 C2167 C 0.21835 -0.06199 0.71790
 C2168 C 0.22674 -0.07090 0.70841
 C2169 C 0.22061 -0.08393 0.70261
 C2170 C 0.20612 -0.08796 0.70630
 C2171 C 0.19782 -0.07918 0.71597
 C2172 C 0.20395 -0.06614 0.72177
 C2173 C 0.19555 -0.05768 0.73162
 C2174 C 0.18151 -0.06201 0.73569
 C2175 C 0.17552 -0.07477 0.73003
 C2176 C 0.18351 -0.08328 0.72025
 C2177 C 0.22931 -0.09282 0.69340
 C2178 C 0.24368 -0.08899 0.69007
 C2179 C 0.24968 -0.07624 0.69573
 C2180 C 0.24135 -0.06724 0.70476
 C2181 C 0.19983 -0.10120 0.70025
 C2182 C 0.19471 -0.11219 0.69512
 C2183 C 0.22522 -0.04961 0.72501
 C2184 C 0.23179 -0.04037 0.73169
 H2185 H 0.19975 -0.04768 0.73632
 H2186 H 0.17527 -0.05546 0.74331
 H2187 H 0.16463 -0.07812 0.73327
 H2188 H 0.17841 -0.09315 0.71620
 H2189 H 0.22516 -0.10289 0.68879
 H2190 H 0.25021 -0.09598 0.68310
 H2191 H 0.26086 -0.07333 0.69314
 H2192 H 0.24651 -0.05745 0.70889
 C2193 C 0.28221 0.28126 0.43794
 C2194 C 0.28763 0.27208 0.42671
 C2195 C 0.29346 0.27831 0.41374
 C2196 C 0.29386 0.29368 0.41207
 C2197 C 0.28820 0.30285 0.42317
 C2198 C 0.28237 0.29662 0.43615
 C2199 C 0.27659 0.30598 0.44700
 C2200 C 0.27647 0.32109 0.44504
 C2201 C 0.28214 0.32718 0.43234
 C2202 C 0.28799 0.31823 0.42152
 C2203 C 0.29857 0.26890 0.40257
 C2204 C 0.29786 0.25377 0.40413
 C2205 C 0.29217 0.24767 0.41680
 C2206 C 0.28714 0.25665 0.42800
 C2207 C 0.29997 0.30002 0.39887
 C2208 C 0.30509 0.30519 0.38790
 C2209 C 0.27513 0.27471 0.45053
 C2210 C 0.26848 0.26829 0.45991
 H2211 H 0.27205 0.30172 0.45705
 H2212 H 0.27191 0.32810 0.45341
 H2213 H 0.28197 0.33892 0.43085
 H2214 H 0.29221 0.32347 0.41180
 H2215 H 0.30303 0.27312 0.39247
 H2216 H 0.30172 0.24674 0.39543
 H2217 H 0.29162 0.23590 0.41795
 H2218 H 0.28281 0.25135 0.43764
 C2219 C 0.28289 0.78087 -0.06228
 C2220 C 0.28291 0.77286 -0.07554
 C2221 C 0.28857 0.77931 -0.08849
 C2222 C 0.29437 0.79365 -0.08809
 C2223 C 0.29443 0.80161 -0.07482
 C2224 C 0.28865 0.79520 -0.06189
 C2225 C 0.28870 0.80340 -0.04882
 C2226 C 0.29429 0.81756 -0.04850
 C2227 C 0.29995 0.82383 -0.06113
 C2228 C 0.30005 0.81599 -0.07417
 C2229 C 0.28819 0.77120 -0.10165
 C2230 C 0.28246 0.75710 -0.10200
 C2231 C 0.27708 0.75072 -0.08933
 C2232 C 0.27725 0.75846 -0.07624
 C2233 C 0.30032 0.80014 -0.10131
 C2234 C 0.30530 0.80538 -0.11233
 C2235 C 0.27599 0.77451 -0.04947
 C2236 C 0.26929 0.76824 -0.04000
 H2237 H 0.28443 0.79895 -0.03873
 H2238 H 0.29424 0.82371 -0.03841
 H2239 H 0.30426 0.83484 -0.06083
 H2240 H 0.30453 0.82134 -0.08371
 H2241 H 0.29225 0.77568 -0.11180
 H2242 H 0.28222 0.75107 -0.11216
 H2243 H 0.27270 0.73974 -0.08965
 H2244 H 0.27294 0.75298 -0.06671
 C2245 C 0.78217 0.28171 -0.06205
 C2246 C 0.78758 0.27251 -0.07327
 C2247 C 0.79332 0.27871 -0.08629
 C2248 C 0.79361 0.29408 -0.08803
 C2249 C 0.78789 0.30326 -0.07697
 C2250 C 0.78217 0.29706 -0.06393
 C2251 C 0.77632 0.30643 -0.05313
 C2252 C 0.77603 0.32152 -0.05518
 C2253 C 0.78160 0.32759 -0.06793
 C2254 C 0.78752 0.31863 -0.07872
 C2255 C 0.79845 0.26929 -0.09743
 C2256 C 0.79782 0.25416 -0.09581
 C2257 C 0.79220 0.24808 -0.08309
 C2258 C 0.78716 0.25708 -0.07191
 C2259 C 0.79968 0.30041 -0.10126
 C2260 C 0.80478 0.30559 -0.11225
 C2261 C 0.77523 0.27518 -0.04936
 C2262 C 0.76866 0.26873 -0.03995
 H2263 H 0.77185 0.30219 -0.04304
 H2264 H 0.77142 0.32853 -0.04685
 H2265 H 0.78129 0.33931 -0.06950
 H2266 H 0.79165 0.32385 -0.08848
 H2267 H 0.80285 0.27349 -0.10756
 H2268 H 0.80169 0.24711 -0.10448
 H2269 H 0.79170 0.23631 -0.08190
 H2270 H 0.78289 0.25180 -0.06224
 C2271 C 0.78196 0.78163 0.43787
 C2272 C 0.78462 0.77267 0.42551
 C2273 C 0.79041 0.77892 0.41253
 C2274 C 0.79348 0.79407 0.41196
 C2275 C 0.79051 0.80306 0.42419
 C2276 C 0.78475 0.79681 0.43720
 C2277 C 0.78169 0.80602 0.44921
 C2278 C 0.78417 0.82102 0.44837
 C2279 C 0.78978 0.82715 0.43566
 C2280 C 0.79298 0.81831 0.42369
 C2281 C 0.79281 0.76979 0.40028
 C2282 C 0.78947 0.75494 0.40079
 C2283 C 0.78376 0.74884 0.41345
 C2284 C 0.78139 0.75752 0.42571
 C2285 C 0.79958 0.80039 0.39875
 C2286 C 0.80469 0.80556 0.38777
 C2287 C 0.77517 0.77524 0.45071
 C2288 C 0.76864 0.76889 0.46022
 H2289 H 0.77729 0.80174 0.45931
 H2290 H 0.78168 0.82794 0.45763
 H2291 H 0.79164 0.83881 0.43506
 H2292 H 0.79727 0.82359 0.41402
 H2293 H 0.79717 0.77404 0.39015
 H2294 H 0.79129 0.74815 0.39129
 H2295 H 0.78114 0.73730 0.41378
 H2296 H 0.77695 0.75222 0.43528
 C2297 C 0.71797 0.28065 0.56248
 C2298 C 0.72207 0.27554 0.57654
 C2299 C 0.71613 0.28219 0.58924
 C2300 C 0.70589 0.29372 0.58786
 C2301 C 0.70157 0.29864 0.57384
 C2302 C 0.70767 0.29212 0.56112
 C2303 C 0.70324 0.29725 0.54725
 C2304 C 0.69301 0.30849 0.54597
 C2305 C 0.68702 0.31484 0.55840
 C2306 C 0.69122 0.31002 0.57220
 C2307 C 0.72060 0.27707 0.60314
 C2308 C 0.73051 0.26556 0.60446
 C2309 C 0.73614 0.25890 0.59207
 C2310 C 0.73203 0.26380 0.57827
 C2311 C 0.69970 0.30033 0.60089
 C2312 C 0.69465 0.30558 0.61186
 C2313 C 0.72471 0.27415 0.54964
 C2314 C 0.73130 0.26786 0.54009
 H2315 H 0.70758 0.29259 0.53729
 H2316 H 0.68970 0.31227 0.53528
 H2317 H 0.67907 0.32355 0.55734
 H2318 H 0.68627 0.31530 0.58155
 H2319 H 0.71648 0.28186 0.61313
 H2320 H 0.73379 0.26176 0.61517
 H2321 H 0.74370 0.24985 0.59313
 H2322 H 0.73667 0.25820 0.56902
 C2323 C 0.71840 0.78109 1.06265
 C2324 C 0.72307 0.77660 1.07674
 C2325 C 0.71695 0.78316 1.08939
 C2326 C 0.70603 0.79403 1.08794
 C2327 C 0.70121 0.79839 1.07390
 C2328 C 0.70744 0.79192 1.06122
 C2329 C 0.70247 0.79646 1.04732
 C2330 C 0.69161 0.80708 1.04598
 C2331 C 0.68550 0.81339 1.05837
 C2332 C 0.69021 0.80914 1.07220
 C2333 C 0.72193 0.77861 1.10332
 C2334 C 0.73252 0.76775 1.10472
 C2335 C 0.73837 0.76118 1.09237
 C2336 C 0.73379 0.76555 1.07854
 C2337 C 0.69970 0.80056 1.10094
 C2338 C 0.69458 0.80575 1.11190
 C2339 C 0.72509 0.77448 1.04983
 C2340 C 0.73160 0.76812 1.04028
 H2341 H 0.70689 0.79182 1.03739
 H2342 H 0.68790 0.81042 1.03527
 H2343 H 0.67706 0.82162 1.05727
 H2344 H 0.68514 0.81435 1.08152
 H2345 H 0.71768 0.78336 1.11327
 H2346 H 0.73617 0.76437 1.11544
 H2347 H 0.74649 0.75264 1.09350
 H2348 H 0.73869 0.76010 1.06934
 C2349 C 0.21789 0.28088 1.06244
 C2350 C 0.22059 0.27459 1.07635
 C2351 C 0.21476 0.28122 1.08911
 C2352 C 0.20598 0.29391 1.08790
 C2353 C 0.20316 0.30011 1.07401
 C2354 C 0.20917 0.29360 1.06124
 C2355 C 0.20628 0.30003 1.04751
 C2356 C 0.19768 0.31257 1.04640
 C2357 C 0.19179 0.31894 1.05887
 C2358 C 0.19446 0.31282 1.07254
 C2359 C 0.21791 0.27493 1.10289
 C2360 C 0.22644 0.26235 1.10402
 C2361 C 0.23194 0.25572 1.09154
 C2362 C 0.22910 0.26172 1.07786
 C2363 C 0.19976 0.30044 1.10095
 C2364 C 0.19464 0.30566 1.11191
 C2365 C 0.22467 0.27441 1.04962
 C2366 C 0.23128 0.26810 1.04012
 H2367 H 0.21062 0.29543 1.03752
 H2368 H 0.19556 0.31737 1.03581
 H2369 H 0.18511 0.32867 1.05794
 H2370 H 0.18967 0.31817 1.08193
 H2371 H 0.21384 0.27965 1.11292
 H2372 H 0.22875 0.25770 1.11464
 H2373 H 0.23846 0.24587 1.09246
 H2374 H 0.23356 0.25609 1.06853
 C2375 C 0.21860 0.78187 0.56229
 C2376 C 0.22559 0.78031 0.57604
 C2377 C 0.21915 0.78650 0.58873
 C2378 C 0.20581 0.79428 0.58764
 C2379 C 0.19874 0.79571 0.57395
 C2380 C 0.20517 0.78949 0.56123
 C2381 C 0.19787 0.79096 0.54771
 C2382 C 0.18455 0.79834 0.54676
 C2383 C 0.17826 0.80441 0.55918
 C2384 C 0.18524 0.80316 0.57265
 C2385 C 0.22624 0.78463 0.60236
 C2386 C 0.23926 0.77678 0.60344
 C2387 C 0.24556 0.77073 0.59105
 C2388 C 0.23891 0.77251 0.57748
 C2389 C 0.19936 0.80067 0.60065
 C2390 C 0.19425 0.80584 0.61163
 C2391 C 0.22511 0.77502 0.54953
 C2392 C 0.23150 0.76844 0.54006
 H2393 H 0.20235 0.78639 0.53777
 H2394 H 0.17907 0.79933 0.53634
 H2395 H 0.16790 0.81010 0.55839
 H2396 H 0.17991 0.80803 0.58201
 H2397 H 0.22177 0.78912 0.61233
 H2398 H 0.24448 0.77538 0.61396
 H2399 H 0.25563 0.76459 0.59195
 H2400 H 0.24434 0.76768 0.56820
 C2401 C 0.28272 0.71904 0.56198
 C2402 C 0.28533 0.72784 0.57444
 C2403 C 0.29091 0.72142 0.58742
 C2404 C 0.29408 0.70628 0.58781
 C2405 C 0.29159 0.69751 0.57532
 C2406 C 0.28589 0.70391 0.56237
 C2407 C 0.28334 0.69492 0.55008
 C2408 C 0.28631 0.67999 0.55058
 C2409 C 0.29188 0.67371 0.56323
 C2410 C 0.29454 0.68232 0.57549
 C2411 C 0.29306 0.73037 0.59984
 C2412 C 0.28995 0.74527 0.59940
 C2413 C 0.28470 0.75160 0.58665
 C2414 C 0.28233 0.74304 0.57431
 C2415 C 0.29995 0.69979 0.60105
 C2416 C 0.30491 0.69459 0.61209
 C2417 C 0.27555 0.72547 0.54937
 C2418 C 0.26872 0.73175 0.54002
 H2419 H 0.27906 0.69934 0.53999
 H2420 H 0.28428 0.67325 0.54109
 H2421 H 0.29415 0.66210 0.56357
 H2422 H 0.29884 0.67695 0.58510
 H2423 H 0.29712 0.72596 0.61003
 H2424 H 0.29164 0.75195 0.60901
 H2425 H 0.28241 0.76321 0.58633
 H2426 H 0.27817 0.74849 0.56469
 C2427 C 0.28225 0.21900 1.06239
 C2428 C 0.28969 0.20548 1.06150
 C2429 C 0.29561 0.19902 1.07434
 C2430 C 0.29400 0.20611 1.08799
 C2431 C 0.28648 0.21961 1.08889
 C2432 C 0.28071 0.22614 1.07605
 C2433 C 0.27341 0.23976 1.07725
 C2434 C 0.27167 0.24660 1.09072
 C2435 C 0.27713 0.24010 1.10328
 C2436 C 0.28450 0.22678 1.10245
 C2437 C 0.30298 0.18546 1.07319
 C2438 C 0.30443 0.17847 1.05975
 C2439 C 0.29862 0.18479 1.04722
 C2440 C 0.29133 0.19815 1.04802
 C2441 C 0.30015 0.19962 1.10110
 C2442 C 0.30524 0.19443 1.11207
 C2443 C 0.27542 0.22541 1.04957
 C2444 C 0.26878 0.23170 1.04009
 H2445 H 0.26901 0.24532 1.06782
 H2446 H 0.26605 0.25699 1.09140
 H2447 H 0.27569 0.24541 1.11374
 H2448 H 0.28857 0.22218 1.11254
 H2449 H 0.30765 0.18011 1.08264
 H2450 H 0.31008 0.16809 1.05907
 H2451 H 0.29978 0.17930 1.03682
 H2452 H 0.28701 0.20267 1.03799
 C2453 C 0.78260 0.71894 1.06209
 C2454 C 0.78786 0.70441 1.06180
 C2455 C 0.79363 0.69799 1.07472
 C2456 C 0.79406 0.70615 1.08785
 C2457 C 0.78872 0.72067 1.08816
 C2458 C 0.78307 0.72713 1.07523
 C2459 C 0.77786 0.74171 1.07583
 C2460 C 0.77811 0.74962 1.08881
 C2461 C 0.78349 0.74323 1.10148
 C2462 C 0.78878 0.72895 1.10122
 C2463 C 0.79873 0.68340 1.07419
 C2464 C 0.79811 0.67537 1.06129
 C2465 C 0.79247 0.68166 1.04867
 C2466 C 0.78740 0.69603 1.04885
 C2467 C 0.80003 0.69968 1.10103
 C2468 C 0.80503 0.69449 1.11205
 C2469 C 0.77568 0.72532 1.04934
 C2470 C 0.76898 0.73161 1.03991
 H2471 H 0.77355 0.74719 1.06629
 H2472 H 0.77406 0.76074 1.08905
 H2473 H 0.78356 0.74939 1.11157
 H2474 H 0.79284 0.72447 1.11137
 H2475 H 0.80317 0.67803 1.08374
 H2476 H 0.80202 0.66420 1.06109
 H2477 H 0.79201 0.67537 1.03868
 H2478 H 0.78312 0.70048 1.03877
 C2479 C 0.78241 0.21883 0.56218
 C2480 C 0.78842 0.20460 0.56167
 C2481 C 0.79424 0.19817 0.57456
 C2482 C 0.79398 0.20602 0.58788
 C2483 C 0.78790 0.22025 0.58841
 C2484 C 0.78221 0.22672 0.57551
 C2485 C 0.77629 0.24102 0.57631
 C2486 C 0.77588 0.24862 0.58947
 C2487 C 0.78127 0.24220 0.60212
 C2488 C 0.78726 0.22820 0.60165
 C2489 C 0.80010 0.18388 0.57382
 C2490 C 0.80019 0.17614 0.56072
 C2491 C 0.79451 0.18244 0.54812
 C2492 C 0.78868 0.19652 0.54852
 C2493 C 0.80004 0.19956 0.60103
 C2494 C 0.80510 0.19435 0.61201
 C2495 C 0.77549 0.22519 0.54940
 C2496 C 0.76880 0.23147 0.53996
 H2497 H 0.77196 0.24653 0.56680
 H2498 H 0.77130 0.25953 0.58987
 H2499 H 0.78083 0.24811 0.61234
 H2500 H 0.79131 0.22368 0.61179
 H2501 H 0.80461 0.17851 0.58334
 H2502 H 0.80469 0.16520 0.56035
 H2503 H 0.79461 0.17638 0.53798
 H2504 H 0.78440 0.20099 0.53846
 C2505 C 0.71909 0.71873 0.43743
 C2506 C 0.70802 0.70802 0.43881
 C2507 C 0.70169 0.70174 0.42608
 C2508 C 0.70646 0.70622 0.41207
 C2509 C 0.71754 0.71693 0.41068
 C2510 C 0.72390 0.72316 0.42337
 C2511 C 0.73502 0.73380 0.42164
 C2512 C 0.73968 0.73819 0.40784
 C2513 C 0.73341 0.73213 0.39545
 C2514 C 0.72247 0.72161 0.39678
 C2515 C 0.69066 0.69103 0.42773
 C2516 C 0.68599 0.68666 0.44154
 C2517 C 0.69217 0.69282 0.45396
 C2518 C 0.70307 0.70339 0.45268
 C2519 C 0.70002 0.69986 0.39905
 C2520 C 0.69482 0.69471 0.38811
 C2521 C 0.72561 0.72539 0.45029
 C2522 C 0.73194 0.73186 0.45988
 H2523 H 0.74026 0.73883 0.43088
 H2524 H 0.74819 0.74635 0.40678
 H2525 H 0.73704 0.73558 0.38474
 H2526 H 0.71795 0.71720 0.38680
 H2527 H 0.68553 0.68594 0.41838
 H2528 H 0.67753 0.67845 0.44259
 H2529 H 0.68850 0.68938 0.46465
 H2530 H 0.70757 0.70787 0.46263
 C2531 C 0.71882 0.21885 -0.06272
 C2532 C 0.70841 0.20750 -0.06138
 C2533 C 0.70220 0.20113 -0.07412
 C2534 C 0.70645 0.20614 -0.08813
 C2535 C 0.71683 0.21752 -0.08948
 C2536 C 0.72302 0.22390 -0.07677
 C2537 C 0.73336 0.23529 -0.07848
 C2538 C 0.73752 0.24020 -0.09226
 C2539 C 0.73148 0.23394 -0.10467
 C2540 C 0.72124 0.22274 -0.10337
 C2541 C 0.69180 0.18980 -0.07250
 C2542 C 0.68766 0.18489 -0.05871
 C2543 C 0.69375 0.19111 -0.04627
 C2544 C 0.70402 0.20229 -0.04753
 C2545 C 0.70018 0.19965 -0.10117
 C2546 C 0.69511 0.19445 -0.11215
 C2547 C 0.72545 0.22539 -0.04984
 C2548 C 0.73187 0.23175 -0.04025
 H2549 H 0.73834 0.24056 -0.06922
 H2550 H 0.74547 0.24891 -0.09331
 H2551 H 0.73473 0.23778 -0.11537
 H2552 H 0.71684 0.21824 -0.11336
 H2553 H 0.68677 0.18463 -0.08186
 H2554 H 0.67969 0.17621 -0.05767
 H2555 H 0.69050 0.18725 -0.03558
 H2556 H 0.70847 0.20682 -0.03756
 C2557 C 0.21830 0.71913 -0.06267
 C2558 C 0.22260 0.72395 -0.07677
 C2559 C 0.21651 0.71733 -0.08941
 C2560 C 0.20597 0.70611 -0.08793
 C2561 C 0.20149 0.70146 -0.07387
 C2562 C 0.20771 0.70797 -0.06121
 C2563 C 0.20309 0.70312 -0.04730
 C2564 C 0.19258 0.69217 -0.04592
 C2565 C 0.18648 0.68583 -0.05829
 C2566 C 0.19086 0.69037 -0.07214
 C2567 C 0.22116 0.72218 -0.10335
 C2568 C 0.23138 0.73338 -0.10478
 C2569 C 0.23717 0.74000 -0.09244
 C2570 C 0.23290 0.73536 -0.07860
 C2571 C 0.19966 0.69953 -0.10091
 C2572 C 0.19455 0.69429 -0.11185
 C2573 C 0.22510 0.72567 -0.04988
 C2574 C 0.23171 0.73197 -0.04037
 H2575 H 0.20750 0.70778 -0.03738
 H2576 H 0.18913 0.68860 -0.03519
 H2577 H 0.17831 0.67734 -0.05716
 H2578 H 0.18581 0.68512 -0.08144
 H2579 H 0.21693 0.71741 -0.11329
 H2580 H 0.23478 0.73698 -0.11551
 H2581 H 0.24499 0.74881 -0.09358
 H2582 H 0.23770 0.74090 -0.06940
 C2583 C 0.21802 0.21884 0.43772
 C2584 C 0.21871 0.22647 0.42425
 C2585 C 0.21280 0.22007 0.41141
 C2586 C 0.20612 0.20614 0.41211
 C2587 C 0.20550 0.19849 0.42554
 C2588 C 0.21148 0.20486 0.43838
 C2589 C 0.21085 0.19696 0.45163
 C2590 C 0.20450 0.18313 0.45220
 C2591 C 0.19865 0.17689 0.43966
 C2592 C 0.19910 0.18444 0.42645
 C2593 C 0.21384 0.22781 0.39805
 C2594 C 0.22053 0.24147 0.39739
 C2595 C 0.22624 0.24777 0.40994
 C2596 C 0.22533 0.24044 0.42323
 C2597 C 0.19993 0.19972 0.39899
 C2598 C 0.19480 0.19455 0.38803
 C2599 C 0.22485 0.22521 0.45054
 C2600 C 0.23144 0.23152 0.46003
 H2601 H 0.21527 0.20139 0.46166
 H2602 H 0.20414 0.17721 0.46242
 H2603 H 0.19376 0.16614 0.44015
 H2604 H 0.19445 0.17913 0.41698
 H2605 H 0.20957 0.22337 0.38797
 H2606 H 0.22128 0.24720 0.38707
 H2607 H 0.23141 0.25840 0.40938
 H2608 H 0.22988 0.24586 0.43267
 C2609 C 0.28118 0.43729 0.71891
 C2610 C 0.27627 0.42319 0.72312
 C2611 C 0.28269 0.41052 0.71686
 C2612 C 0.29395 0.41199 0.70636
 C2613 C 0.29886 0.42605 0.70214
 C2614 C 0.29246 0.43874 0.70844
 C2615 C 0.29754 0.45266 0.70407
 C2616 C 0.30866 0.45402 0.69374
 C2617 C 0.31493 0.44162 0.68758
 C2618 C 0.31013 0.42776 0.69169
 C2619 C 0.27764 0.39657 0.72130
 C2620 C 0.26654 0.39517 0.73163
 C2621 C 0.26021 0.40755 0.73774
 C2622 C 0.26497 0.42139 0.73356
 C2623 C 0.30038 0.39900 0.69990
 C2624 C 0.30555 0.38809 0.69463
 C2625 C 0.27456 0.45011 0.72556
 C2626 C 0.26814 0.45966 0.73200
 H2627 H 0.29298 0.46261 0.70857
 H2628 H 0.31243 0.46475 0.69050
 H2629 H 0.32356 0.44273 0.67956
 H2630 H 0.31534 0.41844 0.68660
 H2631 H 0.28221 0.38660 0.71687
 H2632 H 0.26281 0.38443 0.73492
 H2633 H 0.25157 0.40643 0.74575
 H2634 H 0.25967 0.43062 0.73860
 C2635 C 0.28126 0.93755 0.21839
 C2636 C 0.27435 0.92378 0.22023
 C2637 C 0.28081 0.91100 0.21423
 C2638 C 0.29404 0.91205 0.20628
 C2639 C 0.30094 0.92579 0.20443
 C2640 C 0.29453 0.93858 0.21053
 C2641 C 0.30166 0.95216 0.20865
 C2642 C 0.31478 0.95309 0.20094
 C2643 C 0.32104 0.94060 0.19496
 C2644 C 0.31424 0.92708 0.19664
 C2645 C 0.27383 0.89735 0.21643
 C2646 C 0.26083 0.89636 0.22431
 C2647 C 0.25445 0.90886 0.23009
 C2648 C 0.26105 0.92243 0.22807
 C2649 C 0.30047 0.89898 0.19997
 C2650 C 0.30561 0.88803 0.19475
 C2651 C 0.27484 0.95037 0.22521
 C2652 C 0.26853 0.95988 0.23179
 H2653 H 0.29718 0.96216 0.21311
 H2654 H 0.32012 0.96357 0.19961
 H2655 H 0.33124 0.94139 0.18899
 H2656 H 0.31954 0.91766 0.19182
 H2657 H 0.27836 0.88730 0.21214
 H2658 H 0.25567 0.88583 0.22592
 H2659 H 0.24432 0.90805 0.23617
 H2660 H 0.25557 0.93180 0.23270
 C2661 C 0.78182 0.43761 0.21899
 C2662 C 0.77888 0.42365 0.22510
 C2663 C 0.78497 0.41091 0.21866
 C2664 C 0.79415 0.41218 0.20629
 C2665 C 0.79713 0.42610 0.20022
 C2666 C 0.79092 0.43886 0.20658
 C2667 C 0.79397 0.45264 0.20028
 C2668 C 0.80294 0.45380 0.18803
 C2669 C 0.80902 0.44133 0.18180
 C2670 C 0.80618 0.42762 0.18778
 C2671 C 0.78164 0.39708 0.22478
 C2672 C 0.77260 0.39588 0.23697
 C2673 C 0.76677 0.40834 0.24338
 C2674 C 0.76987 0.42207 0.23759
 C2675 C 0.80050 0.39914 0.19987
 C2676 C 0.80565 0.38820 0.19466
 C2677 C 0.77498 0.45044 0.22538
 C2678 C 0.76835 0.45995 0.23164
 H2679 H 0.78948 0.46262 0.20477
 H2680 H 0.80518 0.46442 0.18334
 H2681 H 0.81596 0.44229 0.17228
 H2682 H 0.81113 0.41823 0.18255
 H2683 H 0.78593 0.38706 0.22021
 H2684 H 0.77013 0.38523 0.24149
 H2685 H 0.75980 0.40738 0.25290
 H2686 H 0.76516 0.43139 0.24305
 C2687 C 0.78237 0.93853 0.71823
 C2688 C 0.79333 0.93073 0.72593
 C2689 C 0.79925 0.91766 0.71995
 C2690 C 0.79420 0.91247 0.70630
 C2691 C 0.78308 0.92013 0.69872
 C2692 C 0.77716 0.93320 0.70469
 C2693 C 0.76585 0.94051 0.69705
 C2694 C 0.76049 0.93502 0.68392
 C2695 C 0.76627 0.92224 0.67808
 C2696 C 0.77746 0.91486 0.68533
 C2697 C 0.80996 0.90990 0.72800
 C2698 C 0.81463 0.91486 0.74160
 C2699 C 0.80885 0.92763 0.74744
 C2700 C 0.79836 0.93555 0.73973
 C2701 C 0.80031 0.89916 0.70015
 C2702 C 0.80537 0.88813 0.69500
 C2703 C 0.77522 0.95091 0.72512
 C2704 C 0.76849 0.96015 0.73167
 H2705 H 0.76101 0.95049 0.70117
 H2706 H 0.75176 0.94069 0.67827
 H2707 H 0.76202 0.91799 0.66791
 H2708 H 0.78155 0.90492 0.68039
 H2709 H 0.81472 0.89986 0.72394
 H2710 H 0.82274 0.90872 0.74765
 H2711 H 0.81249 0.93142 0.75803
 H2712 H 0.79419 0.94542 0.74474
 C2713 C 0.71822 0.56174 0.71795
 C2714 C 0.72656 0.57055 0.70832
 C2715 C 0.72047 0.58364 0.70256
 C2716 C 0.70607 0.58784 0.70642
 C2717 C 0.69783 0.57919 0.71627
 C2718 C 0.70392 0.56609 0.72203
 C2719 C 0.69559 0.55777 0.73206
 C2720 C 0.68168 0.56231 0.73634
 C2721 C 0.67573 0.57511 0.73072
 C2722 C 0.68364 0.58348 0.72076
 C2723 C 0.72914 0.59242 0.69322
 C2724 C 0.74344 0.58843 0.68974
 C2725 C 0.74939 0.57563 0.69536
 C2726 C 0.74109 0.56673 0.70451
 C2727 C 0.69980 0.60113 0.70036
 C2728 C 0.69470 0.61214 0.69521
 C2729 C 0.72507 0.54927 0.72499
 C2730 C 0.73166 0.53996 0.73159
 H2731 H 0.69977 0.54774 0.73673
 H2732 H 0.67549 0.55586 0.74410
 H2733 H 0.66494 0.57861 0.73413
 H2734 H 0.67859 0.59340 0.71675
 H2735 H 0.72503 0.60252 0.68864
 H2736 H 0.74995 0.59534 0.68268
 H2737 H 0.76051 0.57260 0.69265
 H2738 H 0.74621 0.55689 0.70861
 C2739 C 0.71834 0.06149 0.21776
 C2740 C 0.70390 0.06566 0.22153
 C2741 C 0.69781 0.07873 0.21573
 C2742 C 0.70619 0.08755 0.20616
 C2743 C 0.72070 0.08351 0.20256
 C2744 C 0.72679 0.07044 0.20836
 C2745 C 0.74144 0.06678 0.20483
 C2746 C 0.74984 0.07581 0.19589
 C2747 C 0.74388 0.08858 0.19022
 C2748 C 0.72947 0.09242 0.19344
 C2749 C 0.68347 0.08283 0.21991
 C2750 C 0.67541 0.07430 0.22961
 C2751 C 0.68137 0.06152 0.23528
 C2752 C 0.69543 0.05717 0.23130
 C2753 C 0.69996 0.10087 0.20015
 C2754 C 0.69487 0.11191 0.19506
 C2755 C 0.72515 0.04906 0.22489
 C2756 C 0.73168 0.03978 0.23159
 H2757 H 0.74657 0.05696 0.20897
 H2758 H 0.76104 0.07290 0.19339
 H2759 H 0.75046 0.09559 0.18332
 H2760 H 0.72535 0.10250 0.18882
 H2761 H 0.67840 0.09272 0.21584
 H2762 H 0.66450 0.07765 0.23278
 H2763 H 0.67507 0.05495 0.24284
 H2764 H 0.69961 0.04715 0.23599
 C2765 C 0.21801 0.56179 0.21764
 C2766 C 0.20370 0.56611 0.22171
 C2767 C 0.19759 0.57919 0.21594
 C2768 C 0.20580 0.58784 0.20608
 C2769 C 0.22022 0.58368 0.20223
 C2770 C 0.22633 0.57060 0.20800
 C2771 C 0.24087 0.56681 0.20419
 C2772 C 0.24915 0.57572 0.19504
 C2773 C 0.24318 0.58851 0.18942
 C2774 C 0.22887 0.59247 0.19290
 C2775 C 0.18340 0.58346 0.22044
 C2776 C 0.17550 0.57509 0.23041
 C2777 C 0.18147 0.56229 0.23603
 C2778 C 0.19539 0.55778 0.23174
 C2779 C 0.19947 0.60106 0.19996
 C2780 C 0.19430 0.61201 0.19476
 C2781 C 0.22488 0.54934 0.22469
 C2782 C 0.23149 0.54005 0.23129
 H2783 H 0.24601 0.55697 0.20828
 H2784 H 0.26029 0.57271 0.19233
 H2785 H 0.24969 0.59543 0.18237
 H2786 H 0.22474 0.60257 0.18832
 H2787 H 0.17833 0.59337 0.21643
 H2788 H 0.16471 0.57858 0.23382
 H2789 H 0.17529 0.55584 0.24379
 H2790 H 0.19958 0.54775 0.23642
 C2791 C 0.21808 0.06145 0.71797
 C2792 C 0.20389 0.06594 0.72227
 C2793 C 0.19775 0.07898 0.71643
 C2794 C 0.20582 0.08744 0.70630
 C2795 C 0.22011 0.08309 0.70219
 C2796 C 0.22625 0.07005 0.70803
 C2797 C 0.24067 0.06609 0.70396
 C2798 C 0.24882 0.07479 0.69449
 C2799 C 0.24282 0.08753 0.68879
 C2800 C 0.22862 0.09166 0.69252
 C2801 C 0.18367 0.08340 0.72113
 C2802 C 0.17591 0.07522 0.73136
 C2803 C 0.18191 0.06247 0.73706
 C2804 C 0.19572 0.05781 0.73258
 C2805 C 0.19953 0.10071 0.70022
 C2806 C 0.19440 0.11173 0.69510
 C2807 C 0.22500 0.04904 0.72508
 C2808 C 0.23160 0.03977 0.73174
 H2809 H 0.24583 0.05628 0.70811
 H2810 H 0.25987 0.07165 0.69158
 H2811 H 0.24921 0.09428 0.68147
 H2812 H 0.22446 0.10171 0.68786
 H2813 H 0.17858 0.09327 0.71706
 H2814 H 0.16520 0.07882 0.73492
 H2815 H 0.17585 0.05618 0.74503
 H2816 H 0.19994 0.04782 0.73732
 C2817 C 0.28113 0.56252 0.28144
 C2818 C 0.29432 0.56152 0.28943
 C2819 C 0.30071 0.57434 0.29546
 C2820 C 0.29388 0.58810 0.29341
 C2821 C 0.28073 0.58912 0.28531
 C2822 C 0.27428 0.57630 0.27940
 C2823 C 0.26105 0.57764 0.27144
 C2824 C 0.25452 0.59122 0.26921
 C2825 C 0.26090 0.60375 0.27490
 C2826 C 0.27382 0.60278 0.28291
 C2827 C 0.31393 0.57307 0.30338
 C2828 C 0.32067 0.55953 0.30527
 C2829 C 0.31443 0.54701 0.29936
 C2830 C 0.30139 0.54793 0.29152
 C2831 C 0.30028 0.60120 0.29967
 C2832 C 0.30540 0.61216 0.30486
 C2833 C 0.27473 0.54966 0.27469
 C2834 C 0.26842 0.54012 0.26814
 H2835 H 0.25558 0.56824 0.26689
 H2836 H 0.24445 0.59201 0.26303
 H2837 H 0.25579 0.61429 0.27312
 H2838 H 0.27834 0.61286 0.28712
 H2839 H 0.31921 0.58251 0.30815
 H2840 H 0.33080 0.55876 0.31135
 H2841 H 0.31971 0.53652 0.30085
 H2842 H 0.29692 0.53790 0.28712
 C2843 C 0.28177 0.06159 0.78227
 C2844 C 0.29664 0.06498 0.77964
 C2845 C 0.30277 0.07802 0.78544
 C2846 C 0.29398 0.08759 0.79386
 C2847 C 0.27902 0.08435 0.79625
 C2848 C 0.27290 0.07132 0.79046
 C2849 C 0.25784 0.06847 0.79276
 C2850 C 0.24908 0.07825 0.80048
 C2851 C 0.25507 0.09098 0.80616
 C2852 C 0.26988 0.09404 0.80414
 C2853 C 0.31759 0.08132 0.78241
 C2854 C 0.32609 0.07205 0.77382
 C2855 C 0.32009 0.05930 0.76814
 C2856 C 0.30555 0.05573 0.77102
 C2857 C 0.30026 0.10084 0.79992
 C2858 C 0.30539 0.11184 0.80505
 C2859 C 0.27507 0.04909 0.77519
 C2860 C 0.26861 0.03976 0.76853
 H2861 H 0.25265 0.05871 0.78856
 H2862 H 0.23756 0.07595 0.80204
 H2863 H 0.24821 0.09857 0.81211
 H2864 H 0.27401 0.10412 0.80871
 H2865 H 0.32272 0.09115 0.78651
 H2866 H 0.33737 0.07479 0.77151
 H2867 H 0.32673 0.05215 0.76145
 H2868 H 0.30136 0.04570 0.76637
 C2869 C 0.78133 0.56241 0.78179
 C2870 C 0.79451 0.56136 0.78979
 C2871 C 0.80093 0.57415 0.79584
 C2872 C 0.79414 0.58793 0.79382
 C2873 C 0.78099 0.58900 0.78573
 C2874 C 0.77452 0.57621 0.77978
 C2875 C 0.76130 0.57760 0.77182
 C2876 C 0.75479 0.59120 0.76963
 C2877 C 0.76119 0.60370 0.77536
 C2878 C 0.77411 0.60268 0.78336
 C2879 C 0.81414 0.57283 0.80378
 C2880 C 0.82084 0.55927 0.80565
 C2881 C 0.81457 0.54677 0.79971
 C2882 C 0.80155 0.54774 0.79185
 C2883 C 0.80059 0.60101 0.80009
 C2884 C 0.80576 0.61195 0.80528
 C2885 C 0.77490 0.54957 0.77501
 C2886 C 0.76858 0.54005 0.76845
 H2887 H 0.75581 0.56823 0.76723
 H2888 H 0.74472 0.59203 0.76345
 H2889 H 0.75610 0.61425 0.77362
 H2890 H 0.77865 0.61274 0.78761
 H2891 H 0.81945 0.58225 0.80857
 H2892 H 0.83096 0.55846 0.81173
 H2893 H 0.81983 0.53627 0.80118
 H2894 H 0.79705 0.53774 0.78743
 C2895 C 0.78256 0.06161 0.28141
 C2896 C 0.79021 0.07164 0.27241
 C2897 C 0.79606 0.08466 0.27852
 C2898 C 0.79426 0.08758 0.29358
 C2899 C 0.78637 0.07770 0.30251
 C2900 C 0.78051 0.06467 0.29640
 C2901 C 0.77245 0.05509 0.30548
 C2902 C 0.77016 0.05834 0.32016
 C2903 C 0.77586 0.07108 0.32613
 C2904 C 0.78391 0.08067 0.31747
 C2905 C 0.80340 0.09465 0.26926
 C2906 C 0.80485 0.09190 0.25437
 C2907 C 0.79914 0.07917 0.24840
 C2908 C 0.79193 0.06910 0.25726
 C2909 C 0.80037 0.10082 0.29984
 C2910 C 0.80546 0.11181 0.30502
 C2911 C 0.77539 0.04911 0.27479
 C2912 C 0.76865 0.03979 0.26840
 H2913 H 0.76779 0.04506 0.30131
 H2914 H 0.76388 0.05094 0.32693
 H2915 H 0.77399 0.07358 0.33753
 H2916 H 0.78806 0.09049 0.32259
 H2917 H 0.80796 0.10475 0.27338
 H2918 H 0.81039 0.09971 0.24743
 H2919 H 0.80027 0.07709 0.23682
 H2920 H 0.78768 0.05937 0.25208
 C2921 C 0.71820 0.43812 0.28218
 C2922 C 0.70352 0.43436 0.27898
 C2923 C 0.69744 0.42128 0.28476
 C2924 C 0.70604 0.41207 0.29374
 C2925 C 0.72082 0.41567 0.29668
 C2926 C 0.72691 0.42873 0.29090
 C2927 C 0.74180 0.43194 0.29376
 C2928 C 0.75043 0.42247 0.30200
 C2929 C 0.74446 0.40970 0.30765
 C2930 C 0.72983 0.40631 0.30510
 C2931 C 0.68285 0.41758 0.28113
 C2932 C 0.67454 0.42650 0.27199
 C2933 C 0.68049 0.43930 0.26637
 C2934 C 0.69480 0.44326 0.26982
 C2935 C 0.69977 0.39884 0.29985
 C2936 C 0.69463 0.38787 0.30501
 C2937 C 0.72491 0.45062 0.27509
 C2938 C 0.73135 0.45995 0.26840
 H2939 H 0.74695 0.44174 0.28961
 H2940 H 0.76182 0.42504 0.30399
 H2941 H 0.75123 0.40235 0.31401
 H2942 H 0.72571 0.39620 0.30966
 H2943 H 0.67777 0.40770 0.28517
 H2944 H 0.66345 0.42344 0.26922
 H2945 H 0.67401 0.44618 0.25925
 H2946 H 0.69896 0.45332 0.26518
 C2947 C 0.71814 0.93835 0.78225
 C2948 C 0.70402 0.93377 0.77786
 C2949 C 0.69793 0.92072 0.78370
 C2950 C 0.70598 0.91234 0.79392
 C2951 C 0.72024 0.91675 0.79808
 C2952 C 0.72633 0.92979 0.79224
 C2953 C 0.74072 0.93381 0.79632
 C2954 C 0.74889 0.92515 0.80582
 C2955 C 0.74292 0.91240 0.81153
 C2956 C 0.72875 0.90822 0.80778
 C2957 C 0.68393 0.91619 0.77891
 C2958 C 0.67620 0.92427 0.76856
 C2959 C 0.68216 0.93703 0.76285
 C2960 C 0.69588 0.94180 0.76744
 C2961 C 0.69970 0.89911 0.80004
 C2962 C 0.69456 0.88814 0.80521
 C2963 C 0.72499 0.95078 0.77518
 C2964 C 0.73152 0.96008 0.76853
 H2965 H 0.74585 0.94363 0.79217
 H2966 H 0.75991 0.92832 0.80875
 H2967 H 0.74933 0.90568 0.81887
 H2968 H 0.72463 0.89816 0.81244
 H2969 H 0.67888 0.90630 0.78296
 H2970 H 0.66556 0.92058 0.76491
 H2971 H 0.67613 0.94324 0.75479
 H2972 H 0.70007 0.95178 0.76268
 C2973 C 0.21783 0.43829 0.78242
 C2974 C 0.22626 0.42933 0.79184
 C2975 C 0.22018 0.41624 0.79759
 C2976 C 0.20569 0.41218 0.79391
 C2977 C 0.19739 0.42094 0.78422
 C2978 C 0.20347 0.43404 0.77847
 C2979 C 0.19508 0.44246 0.76858
 C2980 C 0.18111 0.43802 0.76439
 C2981 C 0.17517 0.42522 0.77001
 C2982 C 0.18314 0.41676 0.77985
 C2983 C 0.22892 0.40731 0.80672
 C2984 C 0.24331 0.41114 0.80998
 C2985 C 0.24927 0.42393 0.80436
 C2986 C 0.24088 0.43298 0.79544
 C2987 C 0.19941 0.39892 0.79998
 C2988 C 0.19426 0.38793 0.80511
 C2989 C 0.22463 0.45080 0.77543
 C2990 C 0.23118 0.46012 0.76882
 H2991 H 0.19925 0.45250 0.76391
 H2992 H 0.17489 0.44453 0.75672
 H2993 H 0.16434 0.42178 0.76668
 H2994 H 0.17809 0.40685 0.78385
 H2995 H 0.22481 0.39721 0.81129
 H2996 H 0.24989 0.40411 0.81687
 H2997 H 0.26046 0.42683 0.80690
 H2998 H 0.24601 0.44281 0.79133
 C2999 C 0.21807 0.93835 0.28215
 C3000 C 0.22622 0.92977 0.29215
 C3001 C 0.22015 0.91667 0.29787
 C3002 C 0.20593 0.91224 0.29362
 C3003 C 0.19793 0.92062 0.28336
 C3004 C 0.20401 0.93372 0.27763
 C3005 C 0.19591 0.94177 0.26719
 C3006 C 0.18225 0.93695 0.26246
 C3007 C 0.17631 0.92413 0.26805
 C3008 C 0.18399 0.91604 0.27843
 C3009 C 0.22864 0.90812 0.30758
 C3010 C 0.24277 0.91233 0.31144
 C3011 C 0.24870 0.92514 0.30586
 C3012 C 0.24056 0.93383 0.29636
 C3013 C 0.19963 0.89900 0.29971
 C3014 C 0.19446 0.88804 0.30488
 C3015 C 0.22496 0.95083 0.27517
 C3016 C 0.23158 0.96013 0.26861
 H3017 H 0.20009 0.95180 0.26252
 H3018 H 0.17625 0.94317 0.25438
 H3019 H 0.16573 0.92040 0.26430
 H3020 H 0.17896 0.90610 0.28239
 H3021 H 0.22453 0.89802 0.31216
 H3022 H 0.24916 0.90559 0.31877
 H3023 H 0.25970 0.92835 0.30887
 H3024 H 0.24567 0.94369 0.29231
 C3025 C 0.43748 0.28189 0.71902
 C3026 C 0.43779 0.28714 0.70451
 C3027 C 0.42493 0.29322 0.69820
 C3028 C 0.41185 0.29402 0.70647
 C3029 C 0.41148 0.28859 0.72093
 C3030 C 0.42433 0.28254 0.72724
 C3031 C 0.42365 0.27709 0.74171
 C3032 C 0.41065 0.27751 0.74964
 C3033 C 0.39808 0.28339 0.74345
 C3034 C 0.39844 0.28892 0.72928
 C3035 C 0.42546 0.29824 0.68361
 C3036 C 0.43831 0.29726 0.67547
 C3037 C 0.45088 0.29134 0.68166
 C3038 C 0.45070 0.28633 0.69602
 C3039 C 0.39873 0.30030 0.70008
 C3040 C 0.38779 0.30548 0.69485
 C3041 C 0.45024 0.27492 0.72539
 C3042 C 0.45970 0.26826 0.73171
 H3043 H 0.43310 0.27243 0.74706
 H3044 H 0.41033 0.27322 0.76065
 H3045 H 0.38800 0.28367 0.74965
 H3046 H 0.38837 0.29336 0.72493
 H3047 H 0.41595 0.30288 0.67831
 H3048 H 0.43850 0.30109 0.66429
 H3049 H 0.46083 0.29059 0.67528
 H3050 H 0.46073 0.28180 0.70039
 C3051 C 0.43747 0.78235 0.21940
 C3052 C 0.42339 0.77879 0.22491
 C3053 C 0.41067 0.78474 0.21826
 C3054 C 0.41207 0.79449 0.20635
 C3055 C 0.42612 0.79825 0.20100
 C3056 C 0.43886 0.79212 0.20752
 C3057 C 0.45276 0.79599 0.20196
 C3058 C 0.45406 0.80567 0.19028
 C3059 C 0.44162 0.81168 0.18391
 C3060 C 0.42778 0.80804 0.18916
 C3061 C 0.39674 0.78075 0.22375
 C3062 C 0.39541 0.77131 0.23561
 C3063 C 0.40784 0.76570 0.24229
 C3064 C 0.42167 0.76934 0.23704
 C3065 C 0.39902 0.80070 0.19974
 C3066 C 0.38805 0.80575 0.19444
 C3067 C 0.45028 0.77548 0.22585
 C3068 C 0.45977 0.76879 0.23211
 H3069 H 0.46273 0.79161 0.20660
 H3070 H 0.46478 0.80854 0.18615
 H3071 H 0.44269 0.81919 0.17485
 H3072 H 0.41842 0.81298 0.18386
 H3073 H 0.38673 0.78487 0.21897
 H3074 H 0.38468 0.76838 0.23968
 H3075 H 0.40678 0.75850 0.25161
 H3076 H 0.43095 0.76474 0.24267
 C3077 C 0.93755 0.28222 0.21908
 C3078 C 0.92470 0.28379 0.22762
 C3079 C 0.91181 0.28975 0.22130
 C3080 C 0.91185 0.29416 0.20649
 C3081 C 0.92464 0.29245 0.19792
 C3082 C 0.93754 0.28646 0.20424
 C3083 C 0.95013 0.28470 0.19544
 C3084 C 0.94999 0.28870 0.18076
 C3085 C 0.93739 0.29454 0.17457
 C3086 C 0.92483 0.29644 0.18300
 C3087 C 0.89905 0.29100 0.22998
 C3088 C 0.89900 0.28646 0.24450
 C3089 C 0.91160 0.28066 0.25071
 C3090 C 0.92433 0.27934 0.24244
 C3091 C 0.89870 0.30036 0.20008
 C3092 C 0.88774 0.30548 0.19483
 C3093 C 0.95030 0.27523 0.22546
 C3094 C 0.95976 0.26856 0.23175
 H3095 H 0.96018 0.28019 0.19980
 H3096 H 0.95970 0.28724 0.17416
 H3097 H 0.93732 0.29760 0.16315
 H3098 H 0.91528 0.30097 0.17768
 H3099 H 0.88895 0.29541 0.22564
 H3100 H 0.88912 0.28743 0.25096
 H3101 H 0.91150 0.27713 0.26199
 H3102 H 0.93382 0.27476 0.24780
 C3103 C 0.93821 0.78258 0.71824
 C3104 C 0.93335 0.77798 0.70431
 C3105 C 0.92026 0.78388 0.69833
 C3106 C 0.91212 0.79437 0.70628
 C3107 C 0.91685 0.79879 0.72032
 C3108 C 0.92993 0.79289 0.72630
 C3109 C 0.93428 0.79727 0.74048
 C3110 C 0.92589 0.80710 0.74853
 C3111 C 0.91310 0.81286 0.74268
 C3112 C 0.90860 0.80882 0.72872
 C3113 C 0.91545 0.77887 0.68453
 C3114 C 0.92331 0.76828 0.67690
 C3115 C 0.93611 0.76252 0.68274
 C3116 C 0.94114 0.76730 0.69628
 C3117 C 0.89882 0.80049 0.70012
 C3118 C 0.88779 0.80559 0.69499
 C3119 C 0.95063 0.77541 0.72506
 C3120 C 0.95990 0.76871 0.73160
 H3121 H 0.94414 0.79309 0.74551
 H3122 H 0.92932 0.81025 0.75940
 H3123 H 0.90659 0.82045 0.74900
 H3124 H 0.89852 0.81354 0.72467
 H3125 H 0.90552 0.78296 0.67956
 H3126 H 0.91940 0.76448 0.66641
 H3127 H 0.94215 0.75427 0.67678
 H3128 H 0.95116 0.76250 0.70039
 C3129 C 0.56222 0.28230 0.28116
 C3130 C 0.57324 0.28817 0.27197
 C3131 C 0.58619 0.29411 0.27816
 C3132 C 0.58806 0.29416 0.29349
 C3133 C 0.57719 0.28802 0.30265
 C3134 C 0.56423 0.28208 0.29646
 C3135 C 0.55364 0.27579 0.30580
 C3136 C 0.55583 0.27528 0.32084
 C3137 C 0.56851 0.28107 0.32690
 C3138 C 0.57908 0.28742 0.31797
 C3139 C 0.59716 0.29966 0.26875
 C3140 C 0.59543 0.29926 0.25364
 C3141 C 0.58277 0.29345 0.24758
 C3142 C 0.57175 0.28800 0.25658
 C3143 C 0.60125 0.30036 0.29981
 C3144 C 0.61221 0.30550 0.30503
 C3145 C 0.54965 0.27512 0.27464
 C3146 C 0.54030 0.26838 0.26829
 H3147 H 0.54361 0.27113 0.30158
 H3148 H 0.54767 0.27032 0.32783
 H3149 H 0.57018 0.28060 0.33859
 H3150 H 0.58879 0.29172 0.32318
 H3151 H 0.60723 0.30423 0.27294
 H3152 H 0.60397 0.30344 0.24661
 H3153 H 0.58149 0.29312 0.23584
 H3154 H 0.56212 0.28358 0.25132
 C3155 C 0.56200 0.78330 0.78099
 C3156 C 0.57481 0.78508 0.77242
 C3157 C 0.58775 0.79080 0.77883
 C3158 C 0.58777 0.79497 0.79371
 C3159 C 0.57493 0.79333 0.80223
 C3160 C 0.56201 0.78748 0.79585
 C3161 C 0.54937 0.78582 0.80460
 C3162 C 0.54948 0.78980 0.81927
 C3163 C 0.56211 0.79550 0.82553
 C3164 C 0.57472 0.79729 0.81715
 C3165 C 0.60050 0.79210 0.77013
 C3166 C 0.60043 0.78803 0.75548
 C3167 C 0.58772 0.78265 0.74915
 C3168 C 0.57505 0.78110 0.75748
 C3169 C 0.60100 0.80094 0.80020
 C3170 C 0.61202 0.80591 0.80546
 C3171 C 0.54938 0.77606 0.77465
 C3172 C 0.54003 0.76917 0.76843
 H3173 H 0.53930 0.78146 0.80018
 H3174 H 0.53972 0.78844 0.82583
 H3175 H 0.56215 0.79855 0.83694
 H3176 H 0.58428 0.80174 0.82250
 H3177 H 0.61067 0.79623 0.77456
 H3178 H 0.61028 0.78907 0.74901
 H3179 H 0.58767 0.77961 0.73774
 H3180 H 0.56548 0.77680 0.75203
 C3181 C 0.06217 0.28128 0.78176
 C3182 C 0.06194 0.29593 0.78663
 C3183 C 0.07482 0.30230 0.79259
 C3184 C 0.08784 0.29394 0.79365
 C3185 C 0.08812 0.27933 0.78859
 C3186 C 0.07525 0.27297 0.78266
 C3187 C 0.07586 0.25834 0.77759
 C3188 C 0.08880 0.25031 0.77826
 C3189 C 0.10138 0.25655 0.78403
 C3190 C 0.10110 0.27087 0.78919
 C3191 C 0.07438 0.31704 0.79723
 C3192 C 0.06160 0.32526 0.79599
 C3193 C 0.04901 0.31902 0.79020
 C3194 C 0.04911 0.30451 0.78557
 C3195 C 0.10096 0.30034 0.79991
 C3196 C 0.11192 0.30551 0.80512
 C3197 C 0.04939 0.27484 0.77489
 C3198 C 0.03992 0.26845 0.76833
 H3199 H 0.06638 0.25295 0.77303
 H3200 H 0.08906 0.23918 0.77426
 H3201 H 0.11141 0.25027 0.78450
 H3202 H 0.11118 0.27525 0.79356
 H3203 H 0.08392 0.32238 0.80176
 H3204 H 0.06148 0.33655 0.79954
 H3205 H 0.03911 0.32547 0.78926
 H3206 H 0.03906 0.30011 0.78112
 C3207 C 0.06179 0.78241 0.28175
 C3208 C 0.06887 0.79416 0.27458
 C3209 C 0.08195 0.80012 0.28049
 C3210 C 0.08786 0.79433 0.29355
 C3211 C 0.08095 0.78239 0.30056
 C3212 C 0.06786 0.77643 0.29465
 C3213 C 0.06130 0.76432 0.30170
 C3214 C 0.06755 0.75820 0.31416
 C3215 C 0.08036 0.76401 0.31991
 C3216 C 0.08700 0.77599 0.31327
 C3217 C 0.08901 0.81164 0.27294
 C3218 C 0.08335 0.81705 0.25989
 C3219 C 0.07055 0.81124 0.25413
 C3220 C 0.06332 0.79996 0.26137
 C3221 C 0.10110 0.80056 0.29972
 C3222 C 0.11205 0.80572 0.30494
 C3223 C 0.04940 0.77529 0.27484
 C3224 C 0.04013 0.76860 0.26831
 H3225 H 0.05133 0.75941 0.29763
 H3226 H 0.06245 0.74887 0.31935
 H3227 H 0.08521 0.75917 0.32955
 H3228 H 0.09699 0.78007 0.31811
 H3229 H 0.09904 0.81646 0.27695
 H3230 H 0.08896 0.82577 0.25420
 H3231 H 0.06622 0.81547 0.24398
 H3232 H 0.05340 0.79580 0.25645
 C3233 C 0.56251 0.71839 0.71905
 C3234 C 0.56117 0.70563 0.71045
 C3235 C 0.57386 0.69915 0.70415
 C3236 C 0.58780 0.70550 0.70647
 C3237 C 0.58917 0.71817 0.71521
 C3238 C 0.57651 0.72463 0.72152
 C3239 C 0.57824 0.73724 0.73031
 C3240 C 0.59202 0.74319 0.73291
 C3241 C 0.60437 0.73690 0.72669
 C3242 C 0.60302 0.72456 0.71790
 C3243 C 0.57226 0.68633 0.69568
 C3244 C 0.55854 0.68008 0.69349
 C3245 C 0.54615 0.68642 0.69963
 C3246 C 0.54738 0.69906 0.70802
 C3247 C 0.60079 0.69905 0.69994
 C3248 C 0.61173 0.69393 0.69464
 C3249 C 0.54971 0.72507 0.72577
 C3250 C 0.54020 0.73159 0.73221
 H3251 H 0.56902 0.74263 0.73531
 H3252 H 0.59313 0.75270 0.73981
 H3253 H 0.61505 0.74160 0.72871
 H3254 H 0.61297 0.72006 0.71333
 H3255 H 0.58159 0.68099 0.69072
 H3256 H 0.55752 0.67025 0.68701
 H3257 H 0.53552 0.68151 0.69790
 H3258 H 0.53746 0.70361 0.71261
 C3259 C 0.56212 0.21809 0.21785
 C3260 C 0.57211 0.22700 0.21004
 C3261 C 0.58515 0.22082 0.20426
 C3262 C 0.58813 0.20577 0.20629
 C3263 C 0.57827 0.19692 0.21429
 C3264 C 0.56521 0.20310 0.22007
 C3265 C 0.55565 0.19411 0.22825
 C3266 C 0.55892 0.17944 0.23073
 C3267 C 0.57169 0.17339 0.22508
 C3268 C 0.58127 0.18197 0.21692
 C3269 C 0.59510 0.22999 0.19674
 C3270 C 0.59230 0.24487 0.19508
 C3271 C 0.57956 0.25092 0.20074
 C3272 C 0.56952 0.24214 0.20810
 C3273 C 0.60141 0.19946 0.20028
 C3274 C 0.61245 0.19433 0.19519
 C3275 C 0.54963 0.22481 0.22497
 C3276 C 0.54031 0.23129 0.23166
 H3277 H 0.54559 0.19834 0.23286
 H3278 H 0.55153 0.17274 0.23709
 H3279 H 0.57421 0.16201 0.22708
 H3280 H 0.59109 0.17680 0.21281
 H3281 H 0.60520 0.22581 0.19220
 H3282 H 0.60008 0.25175 0.18940
 H3283 H 0.57744 0.26250 0.19945
 H3284 H 0.55977 0.24738 0.21230
 C3285 C 0.06216 0.71877 0.21803
 C3286 C 0.06235 0.70376 0.21437
 C3287 C 0.07526 0.69738 0.20848
 C3288 C 0.08790 0.70607 0.20627
 C3289 C 0.08777 0.72105 0.21012
 C3290 C 0.07486 0.72743 0.21598
 C3291 C 0.07506 0.74243 0.21985
 C3292 C 0.08765 0.75083 0.21807
 C3293 C 0.10027 0.74457 0.21237
 C3294 C 0.10039 0.72987 0.20838
 C3295 C 0.07525 0.68230 0.20509
 C3296 C 0.06286 0.67376 0.20747
 C3297 C 0.05023 0.68002 0.21320
 C3298 C 0.04991 0.69485 0.21662
 C3299 C 0.10102 0.69964 0.20005
 C3300 C 0.11195 0.69444 0.19481
 C3301 C 0.04944 0.72521 0.22499
 C3302 C 0.04000 0.73157 0.23163
 H3303 H 0.06554 0.74784 0.22433
 H3304 H 0.08761 0.76225 0.22116
 H3305 H 0.11004 0.75113 0.21104
 H3306 H 0.11049 0.72550 0.20404
 H3307 H 0.08484 0.67694 0.20067
 H3308 H 0.06306 0.66222 0.20487
 H3309 H 0.04063 0.67333 0.21504
 H3310 H 0.03985 0.69925 0.22106
 C3311 C 0.06214 0.21848 0.71826
 C3312 C 0.07523 0.22676 0.71741
 C3313 C 0.08812 0.22036 0.71152
 C3314 C 0.08784 0.20575 0.70644
 C3315 C 0.07479 0.19745 0.70742
 C3316 C 0.06190 0.20384 0.71334
 C3317 C 0.04904 0.19531 0.71431
 C3318 C 0.04892 0.18083 0.70962
 C3319 C 0.06152 0.17456 0.70385
 C3320 C 0.07434 0.18273 0.70272
 C3321 C 0.10111 0.22878 0.71097
 C3322 C 0.10138 0.24309 0.71613
 C3323 C 0.08879 0.24937 0.72187
 C3324 C 0.07584 0.24137 0.72249
 C3325 C 0.10098 0.19931 0.70025
 C3326 C 0.11197 0.19415 0.69509
 C3327 C 0.04936 0.22493 0.72513
 C3328 C 0.03990 0.23134 0.73171
 H3329 H 0.03898 0.19974 0.71873
 H3330 H 0.03900 0.17442 0.71049
 H3331 H 0.06138 0.16329 0.70026
 H3332 H 0.08388 0.17737 0.69820
 H3333 H 0.11121 0.22437 0.70663
 H3334 H 0.11142 0.24935 0.71569
 H3335 H 0.08905 0.26050 0.72588
 H3336 H 0.06635 0.24680 0.72702
 C3337 C 0.43765 0.71744 0.28072
 C3338 C 0.43832 0.71068 0.29458
 C3339 C 0.42541 0.70477 0.30094
 C3340 C 0.41190 0.70569 0.29341
 C3341 C 0.41122 0.71250 0.27955
 C3342 C 0.42413 0.71828 0.27313
 C3343 C 0.42316 0.72490 0.25918
 C3344 C 0.40983 0.72594 0.25189
 C3345 C 0.39718 0.72047 0.25826
 C3346 C 0.39780 0.71378 0.27191
 C3347 C 0.42634 0.69812 0.31485
 C3348 C 0.43962 0.69736 0.32228
 C3349 C 0.45223 0.70315 0.31606
 C3350 C 0.45165 0.70975 0.30236
 C3351 C 0.39870 0.69963 0.29986
 C3352 C 0.38768 0.69461 0.30508
 C3353 C 0.45049 0.72438 0.27444
 C3354 C 0.45997 0.73110 0.26823
 H3355 H 0.43267 0.72931 0.25372
 H3356 H 0.40931 0.73105 0.24124
 H3357 H 0.38683 0.72138 0.25259
 H3358 H 0.38765 0.70968 0.27641
 H3359 H 0.41682 0.69349 0.32015
 H3360 H 0.44013 0.69226 0.33293
 H3361 H 0.46252 0.70254 0.32188
 H3362 H 0.46173 0.71409 0.29792
 C3363 C 0.43763 0.21766 0.78105
 C3364 C 0.42465 0.21658 0.77262
 C3365 C 0.41175 0.21062 0.77890
 C3366 C 0.41188 0.20573 0.79356
 C3367 C 0.42477 0.20702 0.80204
 C3368 C 0.43769 0.21299 0.79576
 C3369 C 0.45039 0.21432 0.80448
 C3370 C 0.45032 0.20992 0.81904
 C3371 C 0.43770 0.20410 0.82520
 C3372 C 0.42505 0.20261 0.81684
 C3373 C 0.39887 0.20985 0.77033
 C3374 C 0.39873 0.21489 0.75598
 C3375 C 0.41133 0.22070 0.74982
 C3376 C 0.42418 0.22152 0.75796
 C3377 C 0.39871 0.19950 0.79991
 C3378 C 0.38774 0.19435 0.80511
 C3379 C 0.45045 0.22455 0.77468
 C3380 C 0.45993 0.23116 0.76836
 H3381 H 0.46045 0.21881 0.80015
 H3382 H 0.46011 0.21107 0.82559
 H3383 H 0.43770 0.20074 0.83653
 H3384 H 0.41548 0.19807 0.82213
 H3385 H 0.38877 0.20546 0.77465
 H3386 H 0.38877 0.21429 0.74961
 H3387 H 0.41117 0.22461 0.73866
 H3388 H 0.43368 0.22611 0.75263
 C3389 C 0.93777 0.71790 0.78104
 C3390 C 0.93742 0.71454 0.79610
 C3391 C 0.92452 0.70854 0.80239
 C3392 C 0.91207 0.70592 0.79357
 C3393 C 0.91235 0.70948 0.77853
 C3394 C 0.92524 0.71546 0.77224
 C3395 C 0.92518 0.71907 0.75720
 C3396 C 0.91276 0.71691 0.74867
 C3397 C 0.90016 0.71108 0.75484
 C3398 C 0.89990 0.70736 0.76958
 C3399 C 0.92436 0.70547 0.81752
 C3400 C 0.93657 0.70826 0.82619
 C3401 C 0.94917 0.71411 0.82002
 C3402 C 0.94966 0.71722 0.80514
 C3403 C 0.89892 0.69970 0.79994
 C3404 C 0.88796 0.69455 0.80516
 C3405 C 0.95046 0.72497 0.77465
 C3406 C 0.95989 0.73167 0.76834
 H3407 H 0.93470 0.72364 0.75186
 H3408 H 0.91290 0.71980 0.73721
 H3409 H 0.89052 0.70946 0.74817
 H3410 H 0.88982 0.70290 0.77388
 H3411 H 0.91478 0.70097 0.82282
 H3412 H 0.93623 0.70591 0.83776
 H3413 H 0.95862 0.71628 0.82681
 H3414 H 0.95970 0.72177 0.80081
 C3415 C 0.93801 0.21814 0.28214
 C3416 C 0.92877 0.22667 0.29119
 C3417 C 0.91571 0.22052 0.29697
 C3418 C 0.91197 0.20587 0.29369
 C3419 C 0.92105 0.19744 0.28441
 C3420 C 0.93412 0.20358 0.27864
 C3421 C 0.94288 0.19503 0.26919
 C3422 C 0.93879 0.18085 0.26545
 C3423 C 0.92601 0.17485 0.27108
 C3424 C 0.91722 0.18298 0.28049
 C3425 C 0.90651 0.22935 0.30573
 C3426 C 0.91005 0.24387 0.30863
 C3427 C 0.92281 0.24989 0.30298
 C3428 C 0.93212 0.24143 0.29440
 C3429 C 0.89872 0.19954 0.29977
 C3430 C 0.88773 0.19436 0.30491
 C3431 C 0.95050 0.22495 0.27507
 C3432 C 0.95982 0.23147 0.26841
 H3433 H 0.95291 0.19924 0.26453
 H3434 H 0.94556 0.17449 0.25812
 H3435 H 0.92285 0.16385 0.26809
 H3436 H 0.90733 0.17787 0.28452
 H3437 H 0.89642 0.22520 0.31031
 H3438 H 0.90282 0.25051 0.31525
 H3439 H 0.92549 0.26119 0.30524
 H3440 H 0.94192 0.24662 0.29026
 C3441 C 0.28222 0.28139 0.56204
 C3442 C 0.28235 0.29675 0.56385
 C3443 C 0.28810 0.30296 0.57686
 C3444 C 0.29374 0.29377 0.58797
 C3445 C 0.29331 0.27839 0.58631
 C3446 C 0.28753 0.27219 0.57331
 C3447 C 0.28695 0.25676 0.57204
 C3448 C 0.29187 0.24776 0.58329
 C3449 C 0.29754 0.25384 0.59597
 C3450 C 0.29832 0.26897 0.59751
 C3451 C 0.28785 0.31832 0.57855
 C3452 C 0.28199 0.32730 0.56773
 C3453 C 0.27638 0.32122 0.55500
 C3454 C 0.27657 0.30612 0.55301
 C3455 C 0.29985 0.30009 0.60117
 C3456 C 0.30499 0.30527 0.61213
 C3457 C 0.27528 0.27488 0.54936
 C3458 C 0.26868 0.26847 0.53995
 H3459 H 0.28264 0.25148 0.56240
 H3460 H 0.29125 0.23600 0.58217
 H3461 H 0.30132 0.24680 0.60470
 H3462 H 0.30276 0.27318 0.60761
 H3463 H 0.29202 0.32355 0.58829
 H3464 H 0.28177 0.33903 0.56925
 H3465 H 0.27182 0.32824 0.54665
 H3466 H 0.27207 0.30189 0.54294
 C3467 C 0.28207 0.78113 0.06216
 C3468 C 0.28514 0.77219 0.07444
 C3469 C 0.29098 0.77851 0.08734
 C3470 C 0.29374 0.79372 0.08791
 C3471 C 0.29050 0.80267 0.07571
 C3472 C 0.28466 0.79635 0.06279
 C3473 C 0.28133 0.80552 0.05081
 C3474 C 0.28366 0.82055 0.05159
 C3475 C 0.28936 0.82675 0.06422
 C3476 C 0.29279 0.81796 0.07616
 C3477 C 0.29375 0.76940 0.09953
 C3478 C 0.29078 0.75447 0.09902
 C3479 C 0.28507 0.74828 0.08641
 C3480 C 0.28230 0.75697 0.07422
 C3481 C 0.29981 0.80013 0.10107
 C3482 C 0.30490 0.80532 0.11204
 C3483 C 0.27509 0.77467 0.04949
 C3484 C 0.26847 0.76830 0.04007
 H3485 H 0.27687 0.80118 0.04077
 H3486 H 0.28100 0.82743 0.04235
 H3487 H 0.29111 0.83843 0.06478
 H3488 H 0.29715 0.82328 0.08577
 H3489 H 0.29814 0.77371 0.10962
 H3490 H 0.29289 0.74768 0.10847
 H3491 H 0.28276 0.73668 0.08606
 H3492 H 0.27786 0.75160 0.06469
 C3493 C 0.78270 0.28120 0.06194
 C3494 C 0.78596 0.29631 0.06228
 C3495 C 0.79171 0.30269 0.07522
 C3496 C 0.79415 0.29393 0.08773
 C3497 C 0.79087 0.27881 0.08739
 C3498 C 0.78526 0.27241 0.07443
 C3499 C 0.78218 0.25723 0.07435
 C3500 C 0.78449 0.24868 0.08672
 C3501 C 0.78976 0.25500 0.09945
 C3502 C 0.79296 0.26988 0.09985
 C3503 C 0.79473 0.31786 0.07535
 C3504 C 0.79215 0.32646 0.06306
 C3505 C 0.78655 0.32020 0.05042
 C3506 C 0.78349 0.30529 0.04996
 C3507 C 0.80008 0.30039 0.10094
 C3508 C 0.80508 0.30558 0.11196
 C3509 C 0.77549 0.27479 0.04936
 C3510 C 0.76865 0.26850 0.04003
 H3511 H 0.77801 0.25178 0.06474
 H3512 H 0.78214 0.23709 0.08643
 H3513 H 0.79139 0.24833 0.10908
 H3514 H 0.79703 0.27428 0.11002
 H3515 H 0.79906 0.32322 0.08495
 H3516 H 0.79448 0.33806 0.06337
 H3517 H 0.78457 0.32694 0.04091
 H3518 H 0.77918 0.30088 0.03988
 C3519 C 0.78232 0.78168 0.56208
 C3520 C 0.78095 0.79687 0.56464
 C3521 C 0.78677 0.80309 0.57762
 C3522 C 0.79397 0.79408 0.58794
 C3523 C 0.79512 0.77884 0.58550
 C3524 C 0.78930 0.77263 0.57253
 C3525 C 0.79038 0.75732 0.57047
 C3526 C 0.79692 0.74842 0.58094
 C3527 C 0.80260 0.75450 0.59363
 C3528 C 0.80178 0.76953 0.59592
 C3529 C 0.78499 0.81825 0.58008
 C3530 C 0.77763 0.82702 0.57003
 C3531 C 0.77196 0.82094 0.55733
 C3532 C 0.77360 0.80605 0.55459
 C3533 C 0.80008 0.80043 0.60112
 C3534 C 0.80520 0.80563 0.61208
 C3535 C 0.77519 0.77501 0.54959
 C3536 C 0.76852 0.76853 0.54027
 H3537 H 0.78613 0.75205 0.56079
 H3538 H 0.79756 0.73673 0.57922
 H3539 H 0.80762 0.74753 0.60176
 H3540 H 0.80629 0.77373 0.60599
 H3541 H 0.78915 0.82346 0.58983
 H3542 H 0.77627 0.83858 0.57214
 H3543 H 0.76623 0.82780 0.54958
 H3544 H 0.76900 0.80180 0.54457
 C3545 C 0.28211 0.71799 0.43823
 C3546 C 0.29379 0.72513 0.43099
 C3547 C 0.29957 0.71919 0.41786
 C3548 C 0.29365 0.70613 0.41205
 C3549 C 0.28173 0.69920 0.41909
 C3550 C 0.27595 0.70514 0.43222
 C3551 C 0.26384 0.69818 0.43888
 C3552 C 0.25754 0.68578 0.43270
 C3553 C 0.26318 0.67998 0.41985
 C3554 C 0.27517 0.68654 0.41311
 C3555 C 0.31101 0.72671 0.41064
 C3556 C 0.31652 0.73978 0.41618
 C3557 C 0.31089 0.74558 0.42902
 C3558 C 0.29969 0.73836 0.43641
 C3559 C 0.29972 0.69993 0.39877
 C3560 C 0.30480 0.69478 0.38777
 C3561 C 0.27521 0.72493 0.45071
 C3562 C 0.26868 0.73157 0.46002
 H3563 H 0.25905 0.70229 0.44888
 H3564 H 0.24820 0.68066 0.43787
 H3565 H 0.25821 0.67038 0.41505
 H3566 H 0.27911 0.68168 0.40308
 H3567 H 0.31569 0.72268 0.40056
 H3568 H 0.32517 0.74546 0.41044
 H3569 H 0.31518 0.75575 0.43326
 H3570 H 0.29566 0.74332 0.44636
 C3571 C 0.28231 0.21895 0.93775
 C3572 C 0.28952 0.20530 0.93859
 C3573 C 0.29540 0.19883 0.92574
 C3574 C 0.29397 0.20603 0.91213
 C3575 C 0.28671 0.21967 0.91127
 C3576 C 0.28098 0.22621 0.92412
 C3577 C 0.27391 0.23996 0.92298
 C3578 C 0.27239 0.24693 0.90955
 C3579 C 0.27782 0.24044 0.89697
 C3580 C 0.28494 0.22699 0.89775
 C3581 C 0.30253 0.18514 0.92685
 C3582 C 0.30381 0.17805 0.94025
 C3583 C 0.29805 0.18437 0.95279
 C3584 C 0.29097 0.19786 0.95204
 C3585 C 0.30006 0.19952 0.89900
 C3586 C 0.30512 0.19429 0.88803
 C3587 C 0.27548 0.22536 0.95056
 C3588 C 0.26883 0.23166 0.96003
 H3589 H 0.26954 0.24552 0.93242
 H3590 H 0.26694 0.25743 0.90890
 H3591 H 0.27654 0.24586 0.88654
 H3592 H 0.28900 0.22239 0.88766
 H3593 H 0.30716 0.17978 0.91738
 H3594 H 0.30928 0.16757 0.94089
 H3595 H 0.29907 0.17881 0.96317
 H3596 H 0.28668 0.20239 0.96208
 C3597 C 0.78235 0.71868 0.93799
 C3598 C 0.78261 0.70332 0.93626
 C3599 C 0.78841 0.69708 0.92328
 C3600 C 0.79397 0.70625 0.91211
 C3601 C 0.79348 0.72163 0.91374
 C3602 C 0.78768 0.72786 0.92671
 C3603 C 0.78710 0.74329 0.92796
 C3604 C 0.79203 0.75227 0.91671
 C3605 C 0.79770 0.74616 0.90403
 C3606 C 0.79849 0.73103 0.90252
 C3607 C 0.78829 0.68170 0.92168
 C3608 C 0.78255 0.67274 0.93257
 C3609 C 0.77690 0.67885 0.94527
 C3610 C 0.77693 0.69396 0.94717
 C3611 C 0.80006 0.69990 0.89891
 C3612 C 0.80517 0.69473 0.88793
 C3613 C 0.77529 0.72523 0.95059
 C3614 C 0.76865 0.73168 0.95995
 H3615 H 0.78278 0.74859 0.93760
 H3616 H 0.79141 0.76403 0.91782
 H3617 H 0.80148 0.75319 0.89530
 H3618 H 0.80293 0.72681 0.89242
 H3619 H 0.79251 0.67645 0.91196
 H3620 H 0.78245 0.66100 0.93112
 H3621 H 0.77243 0.67184 0.95368
 H3622 H 0.77241 0.69823 0.95722
 C3623 C 0.78225 0.21824 0.43794
 C3624 C 0.78758 0.22744 0.42668
 C3625 C 0.79337 0.22123 0.41369
 C3626 C 0.79378 0.20586 0.41201
 C3627 C 0.78814 0.19667 0.42311
 C3628 C 0.78238 0.20289 0.43613
 C3629 C 0.77660 0.19352 0.44698
 C3630 C 0.77642 0.17842 0.44498
 C3631 C 0.78203 0.17234 0.43225
 C3632 C 0.78788 0.18130 0.42143
 C3633 C 0.79841 0.23065 0.40250
 C3634 C 0.79765 0.24578 0.40406
 C3635 C 0.79198 0.25187 0.41674
 C3636 C 0.78704 0.24287 0.42798
 C3637 C 0.79987 0.19953 0.39880
 C3638 C 0.80499 0.19438 0.38781
 C3639 C 0.77528 0.22477 0.45060
 C3640 C 0.76868 0.23120 0.46000
 H3641 H 0.77210 0.19776 0.45705
 H3642 H 0.77186 0.17141 0.45334
 H3643 H 0.78181 0.16061 0.43073
 H3644 H 0.79205 0.17607 0.41168
 H3645 H 0.80284 0.22644 0.39239
 H3646 H 0.80146 0.25282 0.39535
 H3647 H 0.79139 0.26363 0.41788
 H3648 H 0.78273 0.24815 0.43762
 C3649 C 0.71881 0.28122 0.43731
 C3650 C 0.70836 0.29255 0.43869
 C3651 C 0.70208 0.29891 0.42597
 C3652 C 0.70629 0.29390 0.41196
 C3653 C 0.71678 0.28261 0.41056
 C3654 C 0.72303 0.27623 0.42325
 C3655 C 0.73346 0.26491 0.42151
 C3656 C 0.73765 0.26008 0.40771
 C3657 C 0.73156 0.26635 0.39532
 C3658 C 0.72123 0.27747 0.39666
 C3659 C 0.69167 0.31024 0.42762
 C3660 C 0.68756 0.31513 0.44143
 C3661 C 0.69370 0.30890 0.45385
 C3662 C 0.70399 0.29772 0.45256
 C3663 C 0.69987 0.30031 0.39895
 C3664 C 0.69465 0.30549 0.38802
 C3665 C 0.72543 0.27462 0.45016
 C3666 C 0.73184 0.26820 0.45973
 H3667 H 0.73849 0.25965 0.43075
 H3668 H 0.74567 0.25142 0.40664
 H3669 H 0.73484 0.26256 0.38461
 H3670 H 0.71680 0.28199 0.38668
 H3671 H 0.68661 0.31542 0.41828
 H3672 H 0.67958 0.32381 0.44249
 H3673 H 0.69047 0.31275 0.46454
 H3674 H 0.70848 0.29319 0.46251
 C3675 C 0.71825 0.78128 0.93774
 C3676 C 0.71162 0.79522 0.93843
 C3677 C 0.70563 0.80160 0.92559
 C3678 C 0.70635 0.79400 0.91214
 C3679 C 0.71311 0.78009 0.91142
 C3680 C 0.71902 0.77368 0.92426
 C3681 C 0.72573 0.75975 0.92324
 C3682 C 0.72671 0.75245 0.90993
 C3683 C 0.72098 0.75877 0.89738
 C3684 C 0.71422 0.77240 0.89805
 C3685 C 0.69913 0.81561 0.92652
 C3686 C 0.69859 0.82310 0.93975
 C3687 C 0.70445 0.81685 0.95229
 C3688 C 0.71090 0.80306 0.95170
 C3689 C 0.70015 0.80043 0.89903
 C3690 C 0.69502 0.80561 0.88807
 C3691 C 0.72508 0.77489 0.95055
 C3692 C 0.73168 0.76857 0.96004
 H3693 H 0.73028 0.75431 0.93267
 H3694 H 0.73194 0.74185 0.90936
 H3695 H 0.72179 0.75307 0.88706
 H3696 H 0.70994 0.77685 0.88798
 H3697 H 0.69447 0.82093 0.91705
 H3698 H 0.69361 0.83383 0.94026
 H3699 H 0.70401 0.82273 0.96253
 H3700 H 0.71531 0.79862 0.96173
 C3701 C 0.21778 0.28071 0.93761
 C3702 C 0.22069 0.27457 0.92368
 C3703 C 0.21482 0.28116 0.91092
 C3704 C 0.20579 0.29367 0.91214
 C3705 C 0.20271 0.29970 0.92605
 C3706 C 0.20876 0.29322 0.93882
 C3707 C 0.20562 0.29948 0.95258
 C3708 C 0.19671 0.31180 0.95370
 C3709 C 0.19077 0.31812 0.94124
 C3710 C 0.19370 0.31219 0.92754
 C3711 C 0.21817 0.27501 0.89713
 C3712 C 0.22695 0.26261 0.89598
 C3713 C 0.23251 0.25601 0.90846
 C3714 C 0.22945 0.26187 0.92215
 C3715 C 0.19959 0.30021 0.89907
 C3716 C 0.19450 0.30544 0.88811
 C3717 C 0.22461 0.27428 0.95043
 C3718 C 0.23126 0.26800 0.95993
 H3719 H 0.20997 0.29490 0.96256
 H3720 H 0.19439 0.31646 0.96431
 H3721 H 0.18385 0.32769 0.94217
 H3722 H 0.18885 0.31750 0.91815
 H3723 H 0.21406 0.27971 0.88710
 H3724 H 0.22941 0.25805 0.88536
 H3725 H 0.23921 0.24630 0.90754
 H3726 H 0.23396 0.25627 0.93148
 C3727 C 0.21846 0.78126 0.43739
 C3728 C 0.20900 0.79342 0.43870
 C3729 C 0.20278 0.79983 0.42598
 C3730 C 0.20610 0.79405 0.41202
 C3731 C 0.21561 0.78192 0.41070
 C3732 C 0.22174 0.77545 0.42340
 C3733 C 0.23112 0.76323 0.42175
 C3734 C 0.23449 0.75768 0.40800
 C3735 C 0.22858 0.76408 0.39558
 C3736 C 0.21922 0.77604 0.39685
 C3737 C 0.19335 0.81200 0.42756
 C3738 C 0.19016 0.81768 0.44130
 C3739 C 0.19625 0.81141 0.45373
 C3740 C 0.20557 0.79941 0.45251
 C3741 C 0.19974 0.80051 0.39900
 C3742 C 0.19456 0.80569 0.38806
 C3743 C 0.22522 0.77478 0.45023
 C3744 C 0.23176 0.76847 0.45978
 H3745 H 0.23592 0.75779 0.43102
 H3746 H 0.24173 0.74836 0.40698
 H3747 H 0.23125 0.75974 0.38491
 H3748 H 0.21488 0.78061 0.38686
 H3749 H 0.18838 0.81725 0.41820
 H3750 H 0.18293 0.82700 0.44231
 H3751 H 0.19374 0.81587 0.46438
 H3752 H 0.21006 0.79488 0.46246
 C3753 C 0.71808 0.71894 0.56237
 C3754 C 0.71806 0.72689 0.57566
 C3755 C 0.71215 0.72049 0.58851
 C3756 C 0.70620 0.70622 0.58799
 C3757 C 0.70630 0.69825 0.57473
 C3758 C 0.71227 0.70463 0.56189
 C3759 C 0.71239 0.69642 0.54882
 C3760 C 0.70679 0.68227 0.54844
 C3761 C 0.70095 0.67602 0.56099
 C3762 C 0.70067 0.68387 0.57401
 C3763 C 0.71246 0.72856 0.60169
 C3764 C 0.71846 0.74254 0.60219
 C3765 C 0.72420 0.74883 0.58964
 C3766 C 0.72399 0.74117 0.57650
 C3767 C 0.70004 0.69978 0.60111
 C3768 C 0.69493 0.69460 0.61209
 C3769 C 0.72495 0.72534 0.54959
 C3770 C 0.73157 0.73167 0.54012
 H3771 H 0.71682 0.70085 0.53879
 H3772 H 0.70700 0.67611 0.53836
 H3773 H 0.69664 0.66501 0.56064
 H3774 H 0.69606 0.67854 0.58350
 H3775 H 0.70815 0.72413 0.61177
 H3776 H 0.71867 0.74852 0.61238
 H3777 H 0.72884 0.75971 0.59007
 H3778 H 0.72854 0.74660 0.56705
 C3779 C 0.71858 0.21834 0.06233
 C3780 C 0.72549 0.21995 0.07611
 C3781 C 0.71908 0.21369 0.08878
 C3782 C 0.70582 0.20579 0.08765
 C3783 C 0.69882 0.20432 0.07393
 C3784 C 0.70522 0.21061 0.06124
 C3785 C 0.69798 0.20909 0.04769
 C3786 C 0.68474 0.20160 0.04670
 C3787 C 0.67847 0.19547 0.05910
 C3788 C 0.68539 0.19676 0.07258
 C3789 C 0.72610 0.21561 0.10243
 C3790 C 0.73902 0.22359 0.10356
 C3791 C 0.74530 0.22971 0.09119
 C3792 C 0.73872 0.22787 0.07760
 C3793 C 0.69940 0.19931 0.10064
 C3794 C 0.69429 0.19406 0.11159
 C3795 C 0.72509 0.22522 0.04957
 C3796 C 0.73147 0.23181 0.04010
 H3797 H 0.70245 0.21370 0.03776
 H3798 H 0.67931 0.20057 0.03625
 H3799 H 0.66817 0.18969 0.05827
 H3800 H 0.68008 0.19185 0.08193
 H3801 H 0.72164 0.21108 0.11239
 H3802 H 0.74419 0.22503 0.11409
 H3803 H 0.75531 0.23595 0.09213
 H3804 H 0.74413 0.23277 0.06833
 C3805 C 0.21775 0.71866 0.06190
 C3806 C 0.21312 0.72784 0.07348
 C3807 C 0.20728 0.72162 0.08645
 C3808 C 0.20608 0.70625 0.08778
 C3809 C 0.21095 0.69707 0.07632
 C3810 C 0.21678 0.70329 0.06333
 C3811 C 0.22178 0.69391 0.05213
 C3812 C 0.22110 0.67877 0.05372
 C3813 C 0.21541 0.67268 0.06641
 C3814 C 0.21034 0.68167 0.07760
 C3815 C 0.20297 0.73100 0.09796
 C3816 C 0.20446 0.74611 0.09674
 C3817 C 0.21017 0.75221 0.08407
 C3818 C 0.21442 0.74324 0.07254
 C3819 C 0.19998 0.69993 0.10100
 C3820 C 0.19487 0.69480 0.11200
 C3821 C 0.22479 0.72513 0.04924
 C3822 C 0.23146 0.73152 0.03984
 H3823 H 0.22630 0.69816 0.04207
 H3824 H 0.22504 0.67174 0.04508
 H3825 H 0.21495 0.66092 0.06761
 H3826 H 0.20607 0.67642 0.08729
 H3827 H 0.19852 0.72679 0.10807
 H3828 H 0.20120 0.75312 0.10569
 H3829 H 0.21133 0.76395 0.08319
 H3830 H 0.21880 0.74854 0.06293
 C3831 C 0.21865 0.21865 0.56272
 C3832 C 0.22275 0.22372 0.57678
 C3833 C 0.21650 0.21734 0.58947
 C3834 C 0.20613 0.20594 0.58807
 C3835 C 0.20203 0.20087 0.57405
 C3836 C 0.20831 0.20724 0.56134
 C3837 C 0.20407 0.20197 0.54747
 C3838 C 0.19389 0.19071 0.54618
 C3839 C 0.18774 0.18448 0.55859
 C3840 C 0.19172 0.18947 0.57240
 C3841 C 0.22083 0.22255 0.60337
 C3842 C 0.23105 0.23376 0.60471
 C3843 C 0.23715 0.24003 0.59232
 C3844 C 0.23306 0.23513 0.57853
 C3845 C 0.19974 0.19949 0.60108
 C3846 C 0.19455 0.19428 0.61201
 C3847 C 0.22530 0.22523 0.54987
 C3848 C 0.23175 0.23162 0.54031
 H3849 H 0.20858 0.20649 0.53752
 H3850 H 0.19076 0.18678 0.53548
 H3851 H 0.17984 0.17574 0.55753
 H3852 H 0.18665 0.18429 0.58174
 H3853 H 0.21639 0.21804 0.61335
 H3854 H 0.23425 0.23760 0.61542
 H3855 H 0.24509 0.24875 0.59340
 H3856 H 0.23808 0.24041 0.56929
   
