data_POSCAR
  _audit_creation_date              2014-09-24
  _audit_creation_method            'ToBaCCo'
  _symmetry_space_group_name_H-M    'P1'
  _symmetry_Int_Tables_number       1
  _symmetry_cell_setting            triclinic
  loop_
  _symmetry_equiv_pos_as_xyz
 x,y,z
_cell_length_a 44.9648
_cell_length_b 56.2483
_cell_length_c 48.5423
_cell_angle_alpha 89.793200
_cell_angle_beta 89.610800
_cell_angle_gamma 89.236100
loop_
  _atom_site_label
  _atom_site_type_symbol
  _atom_site_fract_x
  _atom_site_fract_y
  _atom_site_fract_z
C1 C 1.20472 0.26331 0.28451
 H2 H 1.20305 0.24425 0.28691
 C3 C 1.18631 0.27845 0.30007
 H4 H 1.17034 0.27097 0.31435
 C5 C 1.22766 0.29633 0.26312
 H6 H 1.24424 0.30336 0.24928
 C7 C 1.20941 0.31205 0.27789
 H8 H 1.21202 0.33102 0.27506
 N9 N 1.22469 0.27242 0.26625
 C10 C 1.24134 0.21725 0.20495
 H11 H 1.26533 0.21618 0.20626
 C12 C 1.22634 0.20263 0.18670
 H13 H 1.23901 0.19012 0.17426
 C14 C 1.19585 0.23451 0.22033
 H15 H 1.18412 0.24711 0.23333
 C16 C 1.17991 0.22020 0.20229
 H17 H 1.15592 0.22199 0.20154
 Zn18 Zn 1.24912 0.25097 0.24568
 N19 N 1.22599 0.23256 0.22154
 C20 C 1.26037 0.20736 0.27243
 N21 N 1.26899 0.23037 0.27093
 C22 C 1.29024 0.23873 0.28797
 C23 C 1.30486 0.22344 0.30641
 C24 C 1.27368 0.19161 0.29101
 C25 C 1.26373 0.28237 0.20351
 C26 C 1.28153 0.29654 0.18670
 C27 C 1.32490 0.27990 0.20906
 C28 C 1.30620 0.26611 0.22560
 N29 N 1.27615 0.26807 0.22307
 H30 H 1.24290 0.20109 0.25924
 H31 H 1.29591 0.25735 0.28725
 H32 H 1.32110 0.23122 0.31985
 H33 H 1.26668 0.17333 0.29016
 H34 H 1.23979 0.28324 0.20153
 H35 H 1.27096 0.30854 0.17217
 H36 H 1.34875 0.27820 0.21151
 H37 H 1.31580 0.25395 0.24041
 C38 C 1.19518 0.20388 0.18526
 C39 C 1.18836 0.30316 0.29657
 C40 C 1.31259 0.29569 0.18958
 C41 C 1.29678 0.19920 0.30848
 C42 C 0.70923 -0.23833 0.28679
 H43 H 0.70856 -0.25736 0.29001
 C44 C 0.69071 -0.22326 0.30233
 H45 H 0.67562 -0.23076 0.31741
 C46 C 0.72986 -0.20532 0.26339
 H47 H 0.74561 -0.19823 0.24878
 C48 C 0.71145 -0.18969 0.27810
 H49 H 0.71309 -0.17075 0.27445
 N50 N 0.72811 -0.22921 0.26756
 C51 C 0.74583 -0.28539 0.20761
 H52 H 0.76987 -0.28583 0.20838
 C53 C 0.73096 -0.30043 0.18973
 H54 H 0.74378 -0.31270 0.17710
 C55 C 0.70010 -0.26904 0.22368
 H56 H 0.68822 -0.25654 0.23670
 C57 C 0.68429 -0.28377 0.20602
 H58 H 0.66026 -0.28241 0.20561
 Zn59 Zn 0.75302 -0.25050 0.24729
 N60 N 0.73031 -0.27028 0.22432
 C61 C 0.77069 -0.29320 0.27400
 N62 N 0.77487 -0.26931 0.27284
 C63 C 0.79414 -0.25847 0.29010
 C64 C 0.81130 -0.27195 0.30848
 C65 C 0.78700 -0.30728 0.29237
 C66 C 0.76615 -0.21964 0.20381
 C67 C 0.78363 -0.20547 0.18667
 C68 C 0.82736 -0.22101 0.20948
 C69 C 0.80900 -0.23476 0.22632
 N70 N 0.77892 -0.23331 0.22376
 H71 H 0.75470 -0.30144 0.26071
 H72 H 0.79655 -0.23937 0.28922
 H73 H 0.82693 -0.26315 0.32177
 H74 H 0.78376 -0.32632 0.29269
 H75 H 0.74220 -0.21921 0.20179
 H76 H 0.77282 -0.19389 0.17185
 H77 H 0.85123 -0.22230 0.21200
 H78 H 0.81889 -0.24645 0.24147
 C79 C 0.69975 -0.29980 0.18877
 C80 C 0.69152 -0.19862 0.29780
 C81 C 0.81469 -0.20573 0.18968
 C82 C 0.80788 -0.29669 0.30964
 C83 C 0.71791 0.26435 -0.20437
 H84 H 0.72983 0.24987 -0.19459
 C85 C 0.70025 0.27953 -0.18826
 H86 H 0.69884 0.27649 -0.16625
 C87 C 0.70440 0.28541 -0.24479
 H88 H 0.70584 0.28763 -0.26681
 C89 C 0.68646 0.30100 -0.22946
 H90 H 0.67481 0.31532 -0.23995
 N91 N 0.72012 0.26771 -0.23210
 C92 C 0.73959 0.21570 -0.29642
 H93 H 0.76363 0.21622 -0.29649
 C94 C 0.72490 0.20113 -0.31495
 H95 H 0.73791 0.19022 -0.32900
 C96 C 0.69368 0.22878 -0.27714
 H97 H 0.68168 0.23951 -0.26224
 C98 C 0.67805 0.21450 -0.29541
 H99 H 0.65398 0.21466 -0.29462
 Zn100 Zn 0.74600 0.24750 -0.25312
 N101 N 0.72390 0.22896 -0.27786
 C102 C 0.76223 0.20314 -0.22956
 N103 N 0.76723 0.22694 -0.22868
 C104 C 0.78606 0.23625 -0.20982
 C105 C 0.80134 0.22141 -0.19144
 C106 C 0.77668 0.18772 -0.21131
 C107 C 0.76075 0.27838 -0.29623
 C108 C 0.77847 0.29286 -0.31275
 C109 C 0.82086 0.28100 -0.28560
 C110 C 0.80219 0.26672 -0.26968
 N111 N 0.77254 0.26614 -0.27469
 H112 H 0.74671 0.19605 -0.24418
 H113 H 0.78899 0.25529 -0.20889
 H114 H 0.81622 0.22908 -0.17656
 H115 H 0.77252 0.16883 -0.21239
 H116 H 0.73738 0.27686 -0.30077
 H117 H 0.76706 0.30308 -0.32839
 H118 H 0.84431 0.27993 -0.28106
 H119 H 0.81171 0.25592 -0.25351
 C120 C 0.69369 0.20028 -0.31455
 C121 C 0.68446 0.29834 -0.20074
 C122 C 0.80933 0.29495 -0.30759
 C123 C 0.79660 0.19682 -0.19203
 C124 C 1.20223 -0.23990 -0.21769
 H125 H 1.19834 -0.25883 -0.21836
 C126 C 1.18448 -0.22533 -0.20086
 H127 H 1.16685 -0.23311 -0.18865
 C128 C 1.23054 -0.20681 -0.23211
 H129 H 1.24886 -0.19969 -0.24388
 C130 C 1.21367 -0.19169 -0.21527
 H131 H 1.21876 -0.17293 -0.21471
 N132 N 1.22443 -0.23042 -0.23324
 C133 C 1.24137 -0.28452 -0.29600
 H134 H 1.26535 -0.28554 -0.29450
 C135 C 1.22658 -0.29927 -0.31427
 H136 H 1.23938 -0.31184 -0.32651
 C137 C 1.19571 -0.26723 -0.28115
 H138 H 1.18380 -0.25447 -0.26853
 C139 C 1.17998 -0.28167 -0.29919
 H140 H 1.15600 -0.27989 -0.30017
 Zn141 Zn 1.24869 -0.25094 -0.25499
 N142 N 1.22583 -0.26925 -0.27951
 C143 C 1.26322 -0.29491 -0.22963
 N144 N 1.26962 -0.27134 -0.23045
 C145 C 1.28949 -0.26182 -0.21273
 C146 C 1.30454 -0.27632 -0.19380
 C147 C 1.27740 -0.30996 -0.21079
 C148 C 1.26187 -0.21742 -0.29517
 C149 C 1.27919 -0.20287 -0.31196
 C150 C 1.32323 -0.22095 -0.29226
 C151 C 1.30500 -0.23513 -0.27571
 N152 N 1.27490 -0.23280 -0.27711
 H153 H 1.24671 -0.30206 -0.24323
 H154 H 1.29360 -0.24291 -0.21329
 H155 H 1.32033 -0.26850 -0.17986
 H156 H 1.27214 -0.32869 -0.21052
 H157 H 1.23786 -0.21616 -0.29610
 H158 H 1.26825 -0.19018 -0.32545
 H159 H 1.34714 -0.22306 -0.29088
 H160 H 1.31496 -0.24798 -0.26188
 C161 C 1.19543 -0.29814 -0.31586
 C162 C 1.19023 -0.20090 -0.19947
 C163 C 1.31035 -0.20436 -0.31051
 C164 C 1.29842 -0.30071 -0.19264
 C165 C 0.26574 0.21822 0.71263
 H166 H 0.24190 0.21938 0.70991
 C167 C 0.28280 0.20291 0.69620
 H168 H 0.27181 0.19211 0.68102
 C169 C 0.30870 0.23028 0.73662
 H170 H 0.31861 0.24071 0.75270
 C171 C 0.32663 0.21528 0.72057
 H172 H 0.35037 0.21472 0.72410
 N173 N 0.27886 0.23147 0.73237
 C174 C 0.20981 0.24134 0.79461
 H175 H 0.20551 0.26030 0.79366
 C176 C 0.19238 0.22703 0.81167
 H177 H 0.17528 0.23556 0.82407
 C178 C 0.23833 0.20796 0.78021
 H179 H 0.25614 0.20051 0.76777
 C180 C 0.22198 0.19306 0.79744
 H181 H 0.22723 0.17424 0.79702
 Zn182 Zn 0.25399 0.25107 0.75426
 N183 N 0.23183 0.23158 0.77882
 C184 C 0.19787 0.26469 0.73165
 N185 N 0.22778 0.26807 0.73026
 C186 C 0.23961 0.28308 0.71121
 C187 C 0.22121 0.29645 0.69387
 C188 C 0.17864 0.27765 0.71465
 C189 C 0.27569 0.27285 0.80279
 C190 C 0.29332 0.28816 0.81808
 C191 C 0.31520 0.30229 0.77566
 C192 C 0.29725 0.28668 0.76121
 N193 N 0.27769 0.27249 0.77480
 H194 H 0.18872 0.25181 0.74573
 H195 H 0.26336 0.28473 0.70928
 H196 H 0.23118 0.30886 0.67956
 H197 H 0.15493 0.27472 0.71619
 H198 H 0.26068 0.26109 0.81343
 H199 H 0.29160 0.28792 0.84034
 H200 H 0.33024 0.31363 0.76429
 H201 H 0.29963 0.28552 0.73915
 C202 C 0.19813 0.20234 0.81332
 C203 C 0.31369 0.20125 0.70010
 C204 C 0.31337 0.30322 0.80450
 C205 C 0.19023 0.29407 0.69572
 C206 C 0.75814 0.72064 0.70975
 H207 H 0.73414 0.72204 0.70913
 C208 C 0.77323 0.70554 0.69153
 H209 H 0.76057 0.69514 0.67714
 C210 C 0.80356 0.73196 0.73011
 H211 H 0.81522 0.74211 0.74539
 C212 C 0.81957 0.71714 0.71219
 H213 H 0.84358 0.71636 0.71357
 N214 N 0.77340 0.73337 0.72860
 C215 C 0.70892 0.74289 0.79510
 H216 H 0.70561 0.76198 0.79537
 C217 C 0.69196 0.72851 0.81248
 H218 H 0.67619 0.73707 0.82628
 C219 C 0.73469 0.70925 0.77751
 H220 H 0.75128 0.70174 0.76377
 C221 C 0.71879 0.69424 0.79500
 H222 H 0.72308 0.67533 0.79345
 Zn223 Zn 0.75086 0.75281 0.75274
 N224 N 0.72928 0.73307 0.77755
 C225 C 0.69416 0.76987 0.73419
 N226 N 0.72417 0.77130 0.73073
 C227 C 0.73593 0.78522 0.71055
 C228 C 0.71756 0.79938 0.69403
 C229 C 0.67494 0.78369 0.71807
 C230 C 0.77673 0.77165 0.80108
 C231 C 0.79518 0.78634 0.81636
 C232 C 0.81367 0.80308 0.77385
 C233 C 0.79493 0.78805 0.75939
 N234 N 0.77658 0.77292 0.77307
 H235 H 0.68487 0.75786 0.74918
 H236 H 0.75959 0.78520 0.70693
 H237 H 0.72757 0.81080 0.67866
 H238 H 0.65116 0.78223 0.72117
 H239 H 0.76269 0.75916 0.81173
 H240 H 0.79504 0.78489 0.83861
 H241 H 0.82758 0.81529 0.76247
 H242 H 0.79547 0.78833 0.73721
 C243 C 0.69654 0.70364 0.81266
 C244 C 0.80438 0.70358 0.69264
 C245 C 0.81385 0.80247 0.80275
 C246 C 0.68660 0.79891 0.69785
 C247 C 0.76349 0.21889 0.21100
 H248 H 0.73961 0.21962 0.20851
 C249 C 0.78077 0.20365 0.19462
 H250 H 0.76990 0.19250 0.17972
 C251 C 0.80639 0.23192 0.23437
 H252 H 0.81621 0.24274 0.25015
 C253 C 0.82452 0.21702 0.21837
 H254 H 0.84830 0.21690 0.22168
 N255 N 0.77646 0.23247 0.23053
 C256 C 0.70886 0.24180 0.29453
 H257 H 0.70562 0.26090 0.29471
 C258 C 0.69146 0.22748 0.31159
 H259 H 0.67484 0.23562 0.32491
 C260 C 0.73457 0.20796 0.27710
 H261 H 0.75139 0.20037 0.26366
 C262 C 0.71799 0.19302 0.29412
 H263 H 0.72195 0.17400 0.29337
 Zn264 Zn 0.75156 0.25168 0.25295
 N265 N 0.72949 0.23186 0.27727
 C266 C 0.69518 0.26761 0.23272
 N267 N 0.72520 0.26913 0.22952
 C268 C 0.73708 0.28281 0.20917
 C269 C 0.71879 0.29687 0.19244
 C270 C 0.67605 0.28130 0.21639
 C271 C 0.77518 0.27138 0.30189
 C272 C 0.79261 0.28661 0.31747
 C273 C 0.81051 0.30434 0.27528
 C274 C 0.79280 0.28876 0.26052
 N275 N 0.77529 0.27283 0.27388
 H276 H 0.68580 0.25579 0.24787
 H277 H 0.76079 0.28280 0.20574
 H278 H 0.72890 0.30825 0.17708
 H279 H 0.65226 0.27990 0.21945
 H280 H 0.76190 0.25822 0.31228
 H281 H 0.79241 0.28497 0.33970
 H282 H 0.82385 0.31711 0.26414
 H283 H 0.79351 0.28924 0.23835
 C284 C 0.69586 0.20275 0.31136
 C285 C 0.81173 0.20246 0.19832
 C286 C 0.81053 0.30345 0.30417
 C287 C 0.68782 0.29654 0.19624
 C288 C 0.26016 0.71769 0.21302
 H289 H 0.23660 0.71967 0.20910
 C290 C 0.27745 0.70209 0.19712
 H291 H 0.26690 0.69191 0.18111
 C292 C 0.30217 0.72793 0.23949
 H293 H 0.31160 0.73772 0.25636
 C294 C 0.32030 0.71262 0.22403
 H295 H 0.34375 0.71126 0.22879
 N296 N 0.27273 0.73022 0.23370
 C297 C 0.20407 0.74161 0.29619
 H298 H 0.20025 0.76063 0.29519
 C299 C 0.18666 0.72767 0.31369
 H300 H 0.16951 0.73604 0.32623
 C301 C 0.23106 0.70754 0.28110
 H302 H 0.24833 0.69972 0.26834
 C303 C 0.21448 0.69301 0.29859
 H304 H 0.21894 0.67405 0.29889
 Zn305 Zn 0.24799 0.75033 0.25517
 N306 N 0.22547 0.73136 0.28000
 C307 C 0.19208 0.76486 0.23283
 N308 N 0.22209 0.76752 0.23107
 C309 C 0.23421 0.78232 0.21195
 C310 C 0.21606 0.79618 0.19490
 C311 C 0.17307 0.77834 0.21612
 C312 C 0.26964 0.77343 0.30301
 C313 C 0.28757 0.78893 0.31774
 C314 C 0.31104 0.80041 0.27502
 C315 C 0.29257 0.78475 0.26123
 N316 N 0.27213 0.77178 0.27520
 H317 H 0.18266 0.75225 0.24710
 H318 H 0.25800 0.78353 0.20988
 H319 H 0.22629 0.80844 0.18057
 H320 H 0.14928 0.77604 0.21800
 H321 H 0.25407 0.76244 0.31406
 H322 H 0.28528 0.78850 0.33988
 H323 H 0.32570 0.81088 0.26231
 H324 H 0.29512 0.78267 0.23927
 C325 C 0.19177 0.70304 0.31494
 C326 C 0.30796 0.69936 0.20258
 C327 C 0.30898 0.80309 0.30399
 C328 C 0.18501 0.79457 0.19714
 N329 N 1.05324 0.02413 0.03273
 N330 N 1.07194 0.04143 0.03809
 N331 N 1.03159 -0.02613 0.04962
 N332 N 1.03532 -0.04406 0.06693
 N333 N 1.05302 -0.02593 0.03114
 N334 N 1.07185 -0.04375 0.03528
 N335 N 1.03169 0.02381 0.05109
 N336 N 1.03507 0.04081 0.06938
 C337 C 1.06022 0.05173 0.06102
 C338 C 1.06048 -0.05497 0.05764
 N339 N 0.94773 -0.02435 0.02794
 N340 N 0.92853 -0.04175 0.03096
 N341 N 0.96781 0.02479 0.04908
 N342 N 0.96256 0.04174 0.06726
 N343 N 0.94812 0.02569 0.02926
 N344 N 0.92894 0.04331 0.03339
 N345 N 0.96762 -0.02514 0.04759
 N346 N 0.96250 -0.04301 0.06454
 Mn347 Mn 0.99967 -0.00069 0.04964
 C348 C 0.93809 -0.05329 0.05388
 C349 C 0.93830 0.05323 0.05714
 N350 N 1.05575 -0.02452 -0.02812
 N351 N 1.07551 -0.04165 -0.03263
 N352 N 1.03622 0.02615 -0.04643
 N353 N 1.04242 0.04338 -0.06404
 N354 N 1.05600 0.02530 -0.02667
 N355 N 1.07630 0.04172 -0.03041
 N356 N 1.03581 -0.02394 -0.04776
 N357 N 1.04138 -0.04075 -0.06607
 Mn358 Mn 1.05484 -0.00024 0.00230
 C359 C 1.06616 -0.05174 -0.05628
 C360 C 1.06742 0.05302 -0.05366
 N361 N 0.95060 0.02700 -0.03013
 N362 N 0.93119 0.04426 -0.03519
 N363 N 0.97162 -0.02293 -0.04982
 N364 N 0.96726 -0.03978 -0.06822
 N365 N 0.95028 -0.02288 -0.03123
 N366 N 0.93091 -0.03964 -0.03638
 N367 N 0.97222 0.02714 -0.04845
 N368 N 0.96825 0.04461 -0.06631
 Mn369 Mn 0.94885 0.00139 -0.00104
 Mn370 Mn 1.00398 0.00160 -0.04845
 Cl371 Cl 1.00184 0.00052 0.00058
 C372 C 0.94265 0.05523 -0.05771
 C373 C 0.94179 -0.05014 -0.05944
 N374 N 1.05267 0.52043 0.53482
 N375 N 1.07140 0.53777 0.53985
 N376 N 1.03083 0.46977 0.54984
 N377 N 1.03536 0.45148 0.56644
 N378 N 1.05145 0.47049 0.53062
 N379 N 1.07057 0.45267 0.53358
 N380 N 1.03205 0.51954 0.55404
 N381 N 1.03612 0.53619 0.57262
 C382 C 1.06074 0.54746 0.56355
 C383 C 1.06013 0.44087 0.55594
 N384 N 0.94606 0.47336 0.53186
 N385 N 0.92612 0.45657 0.53525
 N386 N 0.96824 0.52124 0.55481
 N387 N 0.96462 0.53759 0.57397
 N388 N 0.94751 0.52326 0.53602
 N389 N 0.92917 0.54110 0.54191
 N390 N 0.96688 0.47149 0.55058
 N391 N 0.96167 0.45341 0.56724
 Mn392 Mn 0.99951 0.49547 0.55259
 C393 C 0.93625 0.44416 0.55733
 C394 C 0.94022 0.54992 0.56564
 N395 N 1.05112 0.47430 0.47152
 N396 N 1.06959 0.45649 0.46598
 N397 N 1.03181 0.52607 0.45673
 N398 N 1.03735 0.54406 0.43999
 N399 N 1.05255 0.52412 0.47554
 N400 N 1.07281 0.54062 0.47204
 N401 N 1.03060 0.47619 0.45249
 N402 N 1.03472 0.45982 0.43335
 Mn403 Mn 1.05230 0.49733 0.50312
 C404 C 1.05907 0.44758 0.44212
 C405 C 1.06294 0.55306 0.44991
 N406 N 0.94707 0.52704 0.47675
 N407 N 0.92709 0.54414 0.47313
 N408 N 0.96630 0.47790 0.45332
 N409 N 0.96111 0.46166 0.43443
 N410 N 0.94583 0.47733 0.47273
 N411 N 0.92622 0.46073 0.46760
 N412 N 0.96762 0.52783 0.45743
 N413 N 0.96223 0.54560 0.44023
 Mn414 Mn 0.94629 0.50027 0.50434
 Mn415 Mn 0.99908 0.50202 0.45465
 Cl416 Cl 0.99929 0.49878 0.50364
 C417 C 0.93697 0.55575 0.45043
 C418 C 0.93604 0.45103 0.44369
 N419 N 0.55065 0.02269 0.52983
 N420 N 0.56978 0.03964 0.53538
 N421 N 0.52819 -0.02742 0.54621
 N422 N 0.53221 -0.04513 0.56376
 N423 N 0.54943 -0.02734 0.52754
 N424 N 0.56841 -0.04503 0.53180
 N425 N 0.52923 0.02243 0.54833
 N426 N 0.53314 0.03909 0.56691
 C427 C 0.55846 0.04977 0.55859
 C428 C 0.55730 -0.05608 0.55438
 N429 N 0.44415 -0.02451 0.52533
 N430 N 0.42446 -0.04154 0.52861
 N431 N 0.46537 0.02418 0.54689
 N432 N 0.46074 0.04106 0.56527
 N433 N 0.44544 0.02551 0.52730
 N434 N 0.42671 0.04336 0.53179
 N435 N 0.46428 -0.02569 0.54474
 N436 N 0.45888 -0.04347 0.56175
 Mn437 Mn 0.49675 -0.00164 0.54682
 C438 C 0.43404 -0.05329 0.55140
 C439 C 0.43661 0.05295 0.55553
 N440 N 0.55139 -0.02538 0.46831
 N441 N 0.57017 -0.04322 0.46383
 N442 N 0.53281 0.02593 0.45090
 N443 N 0.53901 0.04344 0.43368
 N444 N 0.55281 0.02453 0.47044
 N445 N 0.57320 0.04092 0.46699
 N446 N 0.53154 -0.02403 0.44863
 N447 N 0.53639 -0.04082 0.43014
 Mn448 Mn 0.55142 -0.00138 0.49903
 C449 C 0.56048 -0.05274 0.43996
 C450 C 0.56422 0.05271 0.44409
 N451 N 0.44725 0.02751 0.46793
 N452 N 0.42808 0.04505 0.46336
 N453 N 0.46728 -0.02230 0.44726
 N454 N 0.46277 -0.03920 0.42896
 N455 N 0.44620 -0.02233 0.46611
 N456 N 0.42690 -0.03919 0.46126
 N457 N 0.46876 0.02776 0.44950
 N458 N 0.46496 0.04560 0.43208
 Mn459 Mn 0.44542 0.00156 0.49666
 Mn460 Mn 0.50010 0.00185 0.44873
 Cl461 Cl 0.49843 0.00010 0.49778
 C462 C 0.43956 0.05631 0.44105
 C463 C 0.43749 -0.04963 0.43807
 N464 N 0.55329 0.52467 0.03289
 N465 N 0.57252 0.54152 0.03853
 N466 N 0.53110 0.47451 0.04938
 N467 N 0.53499 0.45659 0.06668
 N468 N 0.55232 0.47466 0.03069
 N469 N 0.57115 0.45681 0.03467
 N470 N 0.53187 0.52440 0.05139
 N471 N 0.53587 0.54099 0.07005
 C472 C 0.56124 0.55162 0.06177
 C473 C 0.56000 0.44562 0.05713
 N474 N 0.44701 0.47716 0.02842
 N475 N 0.42751 0.45998 0.03155
 N476 N 0.46792 0.52594 0.04993
 N477 N 0.46272 0.54257 0.06853
 N478 N 0.44809 0.52718 0.03023
 N479 N 0.42893 0.54470 0.03483
 N480 N 0.46710 0.47605 0.04789
 N481 N 0.46181 0.45818 0.06481
 Mn482 Mn 0.49949 0.50021 0.04994
 C483 C 0.43710 0.44823 0.05433
 C484 C 0.43842 0.55423 0.05874
 N485 N 0.55445 0.47651 -0.02855
 N486 N 0.57361 0.45898 -0.03325
 N487 N 0.53550 0.52762 -0.04609
 N488 N 0.54177 0.54491 -0.06358
 N489 N 0.55552 0.52637 -0.02656
 N490 N 0.57608 0.54258 -0.03036
 N491 N 0.53441 0.47760 -0.04808
 N492 N 0.53939 0.46086 -0.06658
 Mn493 Mn 0.55423 0.50056 0.00214
 C494 C 0.56385 0.44928 -0.05700
 C495 C 0.56709 0.55417 -0.05339
 N496 N 0.45001 0.52905 -0.02914
 N497 N 0.43074 0.54648 -0.03398
 N498 N 0.47024 0.47914 -0.04953
 N499 N 0.46561 0.46237 -0.06796
 N500 N 0.44906 0.47920 -0.03078
 N501 N 0.42952 0.46257 -0.03588
 N502 N 0.47151 0.52917 -0.04758
 N503 N 0.46763 0.54677 -0.06527
 Mn504 Mn 0.44821 0.50317 -0.00032
 Mn505 Mn 0.50292 0.50338 -0.04814
 Cl506 Cl 0.50122 0.50184 0.00088
 C507 C 0.44220 0.55752 -0.05647
 C508 C 0.44013 0.45212 -0.05906
 C509 C 1.19036 0.18219 0.14033
 C510 C 1.17596 0.16593 0.12346
 C511 C 1.14981 0.15504 0.13238
 C512 C 1.13782 0.16096 0.15834
 C513 C 1.15222 0.17718 0.17526
 C514 C 1.17885 0.18780 0.16658
 N515 N 1.13647 0.13752 0.11521
 N516 N 1.11255 0.12717 0.12216
 C517 C 1.09941 0.10906 0.10571
 C518 C 1.07279 0.09901 0.11474
 C519 C 1.05989 0.08060 0.09997
 C520 C 1.07352 0.07185 0.07585
 C521 C 1.10007 0.08216 0.06654
 C522 C 1.11295 0.10065 0.08135
 H523 H 1.21057 0.19032 0.13285
 H524 H 1.18538 0.16159 0.10348
 H525 H 1.11766 0.15273 0.16577
 H526 H 1.14297 0.18088 0.19547
 H527 H 1.06217 0.10531 0.13348
 H528 H 1.03939 0.07305 0.10763
 H529 H 1.11102 0.07578 0.04800
 H530 H 1.13360 0.10814 0.07398
 C531 C 1.19072 0.67949 0.63964
 C532 C 1.17639 0.66291 0.62314
 C533 C 1.15039 0.65199 0.63240
 C534 C 1.13846 0.65821 0.65827
 C535 C 1.15276 0.67477 0.67480
 C536 C 1.17924 0.68543 0.66580
 N537 N 1.13709 0.63414 0.61564
 N538 N 1.11354 0.62355 0.62316
 C539 C 1.10034 0.60517 0.60719
 C540 C 1.07433 0.59469 0.61705
 C541 C 1.06134 0.57609 0.60268
 C542 C 1.07426 0.56760 0.57811
 C543 C 1.10021 0.57832 0.56799
 C544 C 1.11320 0.59698 0.58243
 H545 H 1.21084 0.68763 0.63195
 H546 H 1.18576 0.65833 0.60321
 H547 H 1.11840 0.64998 0.66595
 H548 H 1.14355 0.67871 0.69496
 H549 H 1.06424 0.60083 0.63611
 H550 H 1.04131 0.56824 0.61096
 H551 H 1.11059 0.57215 0.54908
 H552 H 1.13336 0.60481 0.57441
 C553 C 0.68797 0.18033 0.63947
 C554 C 0.67377 0.16420 0.62227
 C555 C 0.64904 0.15167 0.63171
 C556 C 0.63838 0.15565 0.65862
 C557 C 0.65261 0.17167 0.67589
 C558 C 0.67772 0.18410 0.66660
 N559 N 0.63564 0.13456 0.61401
 N560 N 0.61235 0.12349 0.62123
 C561 C 0.59892 0.10579 0.60442
 C562 C 0.57257 0.09546 0.61368
 C563 C 0.55929 0.07750 0.59853
 C564 C 0.57227 0.06942 0.57380
 C565 C 0.59860 0.07998 0.56429
 C566 C 0.61185 0.09808 0.57948
 H567 H 0.70696 0.18986 0.63152
 H568 H 0.68217 0.16135 0.60156
 H569 H 0.61937 0.14609 0.66650
 H570 H 0.64440 0.17384 0.69676
 H571 H 0.56244 0.10124 0.63287
 H572 H 0.53899 0.06974 0.60638
 H573 H 0.60904 0.07411 0.54529
 H574 H 0.63228 0.10580 0.57195
 C575 C 0.69480 0.67876 0.14368
 C576 C 0.68023 0.66275 0.12661
 C577 C 0.65414 0.65176 0.13553
 C578 C 0.64250 0.65720 0.16175
 C579 C 0.65709 0.67316 0.17887
 C580 C 0.68354 0.68401 0.17013
 N581 N 0.64037 0.63475 0.11797
 N582 N 0.61624 0.62463 0.12476
 C583 C 0.60252 0.60710 0.10791
 C584 C 0.57567 0.59736 0.11680
 C585 C 0.56210 0.57957 0.10156
 C586 C 0.57528 0.57113 0.07709
 C587 C 0.60208 0.58112 0.06792
 C588 C 0.61564 0.59900 0.08321
 H589 H 0.71486 0.68708 0.13613
 H590 H 0.68939 0.65877 0.10643
 H591 H 0.62241 0.64888 0.16919
 H592 H 0.64803 0.67656 0.19923
 H593 H 0.56537 0.60344 0.13579
 H594 H 0.54143 0.57226 0.10913
 H595 H 0.61270 0.57495 0.04912
 H596 H 0.63645 0.60626 0.07594
 C597 C 0.85812 -0.17836 0.18514
 C598 C 0.87484 -0.16196 0.17019
 C599 C 0.86732 -0.15617 0.14307
 C600 C 0.84319 -0.16747 0.13067
 C601 C 0.82652 -0.18402 0.14555
 C602 C 0.83355 -0.18945 0.17310
 N603 N 0.88391 -0.13820 0.12905
 N604 N 0.87697 -0.13049 0.10524
 C605 C 0.89341 -0.11199 0.09196
 C606 C 0.88337 -0.10281 0.06679
 C607 C 0.89807 -0.08388 0.05411
 C608 C 0.92317 -0.07393 0.06646
 C609 C 0.93359 -0.08352 0.09141
 C610 C 0.91882 -0.10234 0.10410
 H611 H 0.86390 -0.18179 0.20641
 H612 H 0.89334 -0.15329 0.17998
 H613 H 0.83706 -0.16337 0.10964
 H614 H 0.80807 -0.19251 0.13550
 H615 H 0.86382 -0.11010 0.05722
 H616 H 0.88963 -0.07689 0.03483
 H617 H 0.95292 -0.07625 0.10136
 H618 H 0.92709 -0.10915 0.12352
 C619 C 0.85508 0.31745 0.68682
 C620 C 0.87237 0.33343 0.67176
 C621 C 0.86257 0.34239 0.64656
 C622 C 0.83536 0.33480 0.63612
 C623 C 0.81793 0.31882 0.65102
 C624 C 0.82702 0.30986 0.67710
 N625 N 0.88020 0.35968 0.63244
 N626 N 0.87203 0.36919 0.60984
 C627 C 0.88927 0.38702 0.59622
 C628 C 0.87833 0.39745 0.57205
 C629 C 0.89383 0.41579 0.55906
 C630 C 0.92061 0.42396 0.57013
 C631 C 0.93189 0.41312 0.59407
 C632 C 0.91635 0.39482 0.60705
 H633 H 0.86348 0.31247 0.70683
 H634 H 0.89328 0.33931 0.68014
 H635 H 0.82748 0.34124 0.61639
 H636 H 0.79790 0.31307 0.64105
 H637 H 0.85750 0.39160 0.56350
 H638 H 0.88466 0.42378 0.54059
 H639 H 0.95250 0.41901 0.60302
 H640 H 0.92529 0.38702 0.62571
 C641 C 0.35496 -0.17830 0.68374
 C642 C 0.37164 -0.16204 0.66849
 C643 C 0.36285 -0.15528 0.64198
 C644 C 0.33742 -0.16544 0.63049
 C645 C 0.32077 -0.18181 0.64566
 C646 C 0.32912 -0.18821 0.67262
 N647 N 0.37957 -0.13755 0.62764
 N648 N 0.37184 -0.12927 0.60428
 C649 C 0.38843 -0.11105 0.59061
 C650 C 0.37781 -0.10150 0.56581
 C651 C 0.39279 -0.08288 0.55274
 C652 C 0.41872 -0.07361 0.56432
 C653 C 0.42965 -0.08356 0.58891
 C654 C 0.41464 -0.10207 0.60197
 H655 H 0.36182 -0.18256 0.70453
 H656 H 0.39116 -0.15427 0.67758
 H657 H 0.33028 -0.16060 0.60995
 H658 H 0.30131 -0.18940 0.63630
 H659 H 0.35764 -0.10826 0.55684
 H660 H 0.38392 -0.07560 0.53377
 H661 H 0.44962 -0.07683 0.59828
 H662 H 0.42336 -0.10917 0.62108
 C663 C 0.35671 0.32245 0.18510
 C664 C 0.37358 0.33888 0.17028
 C665 C 0.36585 0.34517 0.14334
 C666 C 0.34140 0.33429 0.13097
 C667 C 0.32459 0.31773 0.14570
 C668 C 0.33177 0.31186 0.17311
 N669 N 0.38256 0.36318 0.12946
 N670 N 0.37542 0.37127 0.10585
 C671 C 0.39191 0.38977 0.09260
 C672 C 0.38170 0.39920 0.06760
 C673 C 0.39652 0.41806 0.05488
 C674 C 0.42194 0.42771 0.06700
 C675 C 0.43249 0.41790 0.09181
 C676 C 0.41760 0.39915 0.10454
 H677 H 0.36266 0.31864 0.20625
 H678 H 0.39234 0.34720 0.18006
 H679 H 0.33510 0.33874 0.11007
 H680 H 0.30587 0.30961 0.13566
 H681 H 0.36193 0.39214 0.05818
 H682 H 0.38795 0.42522 0.03573
 H683 H 0.45206 0.42493 0.10160
 H684 H 0.42600 0.39216 0.12383
 C685 C 0.79636 0.16311 -0.15822
 C686 C 0.81116 0.14737 -0.14051
 C687 C 0.84198 0.14863 -0.13722
 C688 C 0.85788 0.16631 -0.15133
 C689 C 0.84302 0.18231 -0.16874
 C690 C 0.81218 0.18066 -0.17261
 N691 N 0.85658 0.13142 -0.12000
 N692 N 0.88475 0.12893 -0.11964
 C693 C 0.89920 0.11139 -0.10275
 C694 C 0.92932 0.10616 -0.10741
 C695 C 0.94360 0.08808 -0.09250
 C696 C 0.92801 0.07520 -0.07233
 C697 C 0.89804 0.08100 -0.06701
 C698 C 0.88365 0.09883 -0.08224
 H699 H 0.77253 0.16164 -0.16065
 H700 H 0.79867 0.13387 -0.12970
 H701 H 0.88172 0.16767 -0.14903
 H702 H 0.85571 0.19562 -0.17971
 H703 H 0.94154 0.11574 -0.12311
 H704 H 0.96677 0.08405 -0.09691
 H705 H 0.88552 0.07135 -0.05157
 H706 H 0.86038 0.10266 -0.07815
 C707 C 0.85728 0.69127 0.32923
 C708 C 0.87485 0.67619 0.34556
 C709 C 0.86174 0.65838 0.36158
 C710 C 0.83067 0.65588 0.36122
 C711 C 0.81314 0.67069 0.34459
 C712 C 0.82629 0.68844 0.32833
 N713 N 0.88038 0.64246 0.37709
 N714 N 0.86968 0.62823 0.39491
 C715 C 0.88773 0.61134 0.40959
 C716 C 0.87504 0.59881 0.43155
 C717 C 0.89137 0.58119 0.44534
 C718 C 0.92062 0.57556 0.43705
 C719 C 0.93352 0.58836 0.41522
 C720 C 0.91726 0.60623 0.40166
 H721 H 0.86796 0.70468 0.31669
 H722 H 0.89876 0.67823 0.34556
 H723 H 0.82001 0.64217 0.37332
 H724 H 0.78929 0.66826 0.34437
 H725 H 0.85229 0.60253 0.43778
 H726 H 0.88084 0.57159 0.46205
 H727 H 0.95604 0.58440 0.40846
 H728 H 0.92748 0.61561 0.38463
 C729 C 0.29669 0.16259 0.33541
 C730 C 0.31116 0.14646 0.35286
 C731 C 0.34018 0.15043 0.36142
 C732 C 0.35441 0.17132 0.35318
 C733 C 0.33978 0.18790 0.33625
 C734 C 0.31068 0.18373 0.32633
 N735 N 0.35471 0.13274 0.37807
 N736 N 0.38279 0.13198 0.38123
 C737 C 0.39691 0.11391 0.39764
 C738 C 0.42743 0.10952 0.39425
 C739 C 0.44142 0.09090 0.40856
 C740 C 0.42515 0.07673 0.42702
 C741 C 0.39476 0.08170 0.43118
 C742 C 0.38066 0.09999 0.41641
 H743 H 0.27394 0.15865 0.33029
 H744 H 0.29976 0.13056 0.35946
 H745 H 0.37693 0.17477 0.35965
 H746 H 0.35246 0.20313 0.32972
 H747 H 0.44022 0.12013 0.37991
 H748 H 0.46491 0.08751 0.40510
 H749 H 0.38171 0.07104 0.44527
 H750 H 0.35708 0.10316 0.41952
 C751 C 0.29744 0.66695 -0.15705
 C752 C 0.31193 0.65140 -0.13890
 C753 C 0.34288 0.65184 -0.13625
 C754 C 0.35924 0.66857 -0.15146
 C755 C 0.34471 0.68438 -0.16935
 C756 C 0.31371 0.68349 -0.17259
 N757 N 0.35713 0.63469 -0.11868
 N758 N 0.38523 0.63164 -0.11853
 C759 C 0.39942 0.61408 -0.10147
 C760 C 0.42947 0.60859 -0.10609
 C761 C 0.44352 0.59043 -0.09114
 C762 C 0.42777 0.57768 -0.07096
 C763 C 0.39787 0.58374 -0.06564
 C764 C 0.38371 0.60169 -0.08091
 H765 H 0.27350 0.66608 -0.15895
 H766 H 0.29908 0.63863 -0.12725
 H767 H 0.38319 0.66930 -0.14970
 H768 H 0.35775 0.69689 -0.18119
 H769 H 0.44182 0.61803 -0.12182
 H770 H 0.46663 0.58621 -0.09556
 H771 H 0.38523 0.57419 -0.05020
 H772 H 0.36048 0.60571 -0.07687
 C773 C 1.14096 -0.18596 -0.18167
 C774 C 1.12399 -0.17028 -0.16546
 C775 C 1.13789 -0.15379 -0.14847
 C776 C 1.16912 -0.15313 -0.14784
 C777 C 1.18608 -0.16855 -0.16432
 C778 C 1.17217 -0.18506 -0.18146
 N779 N 1.11997 -0.13742 -0.13277
 N780 N 1.13108 -0.12435 -0.11424
 C781 C 1.11374 -0.10716 -0.09921
 C782 C 1.12656 -0.09586 -0.07666
 C783 C 1.11081 -0.07822 -0.06227
 C784 C 1.08207 -0.07133 -0.07054
 C785 C 1.06909 -0.08284 -0.09303
 C786 C 1.08473 -0.10071 -0.10719
 H787 H 1.12972 -0.19841 -0.19486
 H788 H 1.09995 -0.17090 -0.16622
 H789 H 1.18040 -0.14048 -0.13496
 H790 H 1.21011 -0.16763 -0.16362
 H791 H 1.14892 -0.10063 -0.07037
 H792 H 1.12139 -0.06963 -0.04505
 H793 H 1.04694 -0.07790 -0.09979
 H794 H 1.07442 -0.10913 -0.12465
 C795 C 1.15419 0.33860 0.29884
 C796 C 1.13682 0.35490 0.31376
 C797 C 1.13427 0.35293 0.34241
 C798 C 1.14863 0.33392 0.35601
 C799 C 1.16563 0.31734 0.34103
 C800 C 1.16890 0.31974 0.31235
 N801 N 1.11765 0.37076 0.35716
 N802 N 1.11866 0.37259 0.38326
 C803 C 1.10241 0.39072 0.39787
 C804 C 1.10898 0.39473 0.42559
 C805 C 1.09472 0.41312 0.44005
 C806 C 1.07322 0.42757 0.42709
 C807 C 1.06600 0.42310 0.39948
 C808 C 1.08063 0.40493 0.38490
 H809 H 1.15615 0.34070 0.27672
 H810 H 1.12581 0.36942 0.30304
 H811 H 1.14688 0.33197 0.37815
 H812 H 1.17687 0.30302 0.35191
 H813 H 1.12566 0.38389 0.43583
 H814 H 1.10060 0.41609 0.46135
 H815 H 1.04951 0.43397 0.38900
 H816 H 1.07506 0.40209 0.36352
 C817 C 0.65591 -0.16411 0.29973
 C818 C 0.63847 -0.14778 0.31451
 C819 C 0.63710 -0.14888 0.34329
 C820 C 0.65275 -0.16705 0.35720
 C821 C 0.66986 -0.18366 0.34237
 C822 C 0.67193 -0.18211 0.31352
 N823 N 0.62027 -0.13102 0.35775
 N824 N 0.62186 -0.12834 0.38373
 C825 C 0.60525 -0.11010 0.39781
 C826 C 0.61194 -0.10512 0.42529
 C827 C 0.59724 -0.08657 0.43913
 C828 C 0.57524 -0.07293 0.42575
 C829 C 0.56797 -0.07836 0.39840
 C830 C 0.58297 -0.09669 0.38447
 H831 H 0.65695 -0.16267 0.27749
 H832 H 0.62644 -0.13392 0.30356
 H833 H 0.65192 -0.16830 0.37945
 H834 H 0.68212 -0.19731 0.35345
 H835 H 0.62902 -0.11533 0.43582
 H836 H 0.60318 -0.08284 0.46025
 H837 H 0.55109 -0.06815 0.38759
 H838 H 0.57727 -0.10028 0.36327
 C839 C 0.63902 0.32416 -0.19337
 C840 C 0.62269 0.34074 -0.17785
 C841 C 0.63345 0.34878 -0.15261
 C842 C 0.66075 0.33984 -0.14284
 C843 C 0.67712 0.32327 -0.15834
 C844 C 0.66653 0.31533 -0.18387
 N845 N 0.61665 0.36640 -0.13770
 N846 N 0.62520 0.37449 -0.11466
 C847 C 0.60880 0.39253 -0.10006
 C848 C 0.61974 0.40071 -0.07495
 C849 C 0.60492 0.41895 -0.06069
 C850 C 0.57885 0.42932 -0.07142
 C851 C 0.56763 0.42085 -0.09644
 C852 C 0.58247 0.40260 -0.11067
 H853 H 0.63006 0.31818 -0.21276
 H854 H 0.60165 0.34746 -0.18558
 H855 H 0.66962 0.34585 -0.12344
 H856 H 0.69840 0.31708 -0.15061
 H857 H 0.64001 0.39309 -0.06656
 H858 H 0.61406 0.42509 -0.04144
 H859 H 0.54755 0.42848 -0.10517
 H860 H 0.57354 0.39658 -0.13004
 C861 C 1.15014 0.19287 -0.16448
 C862 C 1.13234 0.17741 -0.14915
 C863 C 1.14432 0.15638 -0.13830
 C864 C 1.17443 0.15083 -0.14303
 C865 C 1.19213 0.16594 -0.15883
 C866 C 1.18035 0.18728 -0.17000
 N867 N 1.12546 0.14058 -0.12323
 N868 N 1.13622 0.12409 -0.10813
 C869 C 1.11796 0.10735 -0.09389
 C870 C 1.13076 0.09327 -0.07323
 C871 C 1.11405 0.07601 -0.05968
 C872 C 1.08434 0.07220 -0.06705
 C873 C 1.07141 0.08639 -0.08775
 C874 C 1.08804 0.10400 -0.10095
 H875 H 1.13956 0.20857 -0.17312
 H876 H 1.10907 0.18179 -0.14582
 H877 H 1.18422 0.13464 -0.13480
 H878 H 1.21533 0.16107 -0.16141
 H879 H 1.15383 0.09563 -0.06771
 H880 H 1.12460 0.06527 -0.04387
 H881 H 1.04853 0.08381 -0.09377
 H882 H 1.07777 0.11460 -0.11703
 C883 C 1.14207 0.69006 0.33266
 C884 C 1.12452 0.67463 0.34828
 C885 C 1.13779 0.65690 0.36454
 C886 C 1.16898 0.65483 0.36517
 C887 C 1.18651 0.67003 0.34929
 C888 C 1.17323 0.68770 0.33277
 N889 N 1.11926 0.64065 0.37932
 N890 N 1.12992 0.62610 0.39691
 C891 C 1.11200 0.60895 0.41090
 C892 C 1.12462 0.59565 0.43233
 C893 C 1.10838 0.57786 0.44548
 C894 C 1.07929 0.57286 0.43708
 C895 C 1.06646 0.58642 0.41578
 C896 C 1.08264 0.60443 0.40284
 H897 H 1.13130 0.70341 0.31989
 H898 H 1.10053 0.67634 0.34752
 H899 H 1.17977 0.64121 0.37749
 H900 H 1.21049 0.66797 0.34986
 H901 H 1.14725 0.59893 0.43865
 H902 H 1.11885 0.56767 0.46181
 H903 H 1.04405 0.58297 0.40896
 H904 H 1.07246 0.61443 0.38622
 C905 C 0.64602 0.18994 0.32879
 C906 C 0.62823 0.17434 0.34392
 C907 C 0.64120 0.15595 0.35938
 C908 C 0.67234 0.15331 0.35961
 C909 C 0.69012 0.16867 0.34418
 C910 C 0.67712 0.18708 0.32856
 N911 N 0.62239 0.13972 0.37387
 N912 N 0.63280 0.12486 0.39125
 C913 C 0.61456 0.10781 0.40502
 C914 C 0.62674 0.09454 0.42668
 C915 C 0.61009 0.07699 0.43981
 C916 C 0.58104 0.07218 0.43112
 C917 C 0.56870 0.08565 0.40951
 C918 C 0.58527 0.10345 0.39662
 H919 H 0.63548 0.20386 0.31671
 H920 H 0.60427 0.17649 0.34348
 H921 H 0.68289 0.13916 0.37130
 H922 H 0.71405 0.16620 0.34444
 H923 H 0.64930 0.09770 0.43327
 H924 H 0.62018 0.06685 0.45638
 H925 H 0.54634 0.08232 0.40246
 H926 H 0.57545 0.11343 0.37980
 C927 C 0.64966 0.69483 -0.16282
 C928 C 0.63215 0.67939 -0.14717
 C929 C 0.64380 0.65768 -0.13792
 C930 C 0.67326 0.65141 -0.14462
 C931 C 0.69062 0.66650 -0.16079
 C932 C 0.67917 0.68854 -0.17032
 N933 N 0.62517 0.64195 -0.12249
 N934 N 0.63606 0.62484 -0.10843
 C935 C 0.61786 0.60819 -0.09396
 C936 C 0.63098 0.59352 -0.07402
 C937 C 0.61422 0.57637 -0.06030
 C938 C 0.58414 0.57326 -0.06684
 C939 C 0.57091 0.58803 -0.08681
 C940 C 0.58758 0.60554 -0.10014
 H941 H 0.63930 0.71111 -0.17015
 H942 H 0.60936 0.68434 -0.14232
 H943 H 0.68277 0.63467 -0.13767
 H944 H 0.71336 0.66104 -0.16494
 H945 H 0.65432 0.59534 -0.06919
 H946 H 0.62500 0.56516 -0.04507
 H947 H 0.54774 0.58599 -0.09217
 H948 H 0.57705 0.61659 -0.11566
 C949 C 0.86183 -0.17572 -0.19090
 C950 C 0.87945 -0.15979 -0.17640
 C951 C 0.86878 -0.14918 -0.15220
 C952 C 0.84021 -0.15484 -0.14246
 C953 C 0.82254 -0.17068 -0.15696
 C954 C 0.83307 -0.18124 -0.18143
 N955 N 0.88693 -0.13235 -0.13823
 N956 N 0.87853 -0.12279 -0.11572
 C957 C 0.89570 -0.10544 -0.10162
 C958 C 0.88465 -0.09629 -0.07680
 C959 C 0.89995 -0.07859 -0.06293
 C960 C 0.92665 -0.06966 -0.07374
 C961 C 0.93805 -0.07912 -0.09847
 C962 C 0.92268 -0.09691 -0.11235
 H963 H 0.87079 -0.18379 -0.20944
 H964 H 0.90144 -0.15562 -0.18410
 H965 H 0.83134 -0.14679 -0.12387
 H966 H 0.80036 -0.17425 -0.14932
 H967 H 0.86390 -0.10272 -0.06834
 H968 H 0.89064 -0.07171 -0.04389
 H969 H 0.95860 -0.07257 -0.10722
 H970 H 0.93163 -0.10373 -0.13155
 C971 C 0.85764 0.32623 0.31100
 C972 C 0.87466 0.34236 0.32577
 C973 C 0.86354 0.35254 0.35004
 C974 C 0.83511 0.34625 0.35958
 C975 C 0.81803 0.33017 0.34481
 C976 C 0.82903 0.32005 0.32026
 N977 N 0.88118 0.36953 0.36427
 N978 N 0.87253 0.37885 0.38684
 C979 C 0.88950 0.39627 0.40102
 C980 C 0.87858 0.40518 0.42601
 C981 C 0.89394 0.42277 0.44004
 C982 C 0.92055 0.43183 0.42917
 C983 C 0.93173 0.42269 0.40421
 C984 C 0.91633 0.40502 0.39021
 H985 H 0.86696 0.31848 0.29241
 H986 H 0.89656 0.34702 0.31823
 H987 H 0.82594 0.35395 0.37825
 H988 H 0.79596 0.32605 0.35231
 H989 H 0.85793 0.39858 0.43453
 H990 H 0.88480 0.42944 0.45925
 H991 H 0.95221 0.42933 0.39541
 H992 H 0.92521 0.39840 0.37088
 C993 C 0.35340 -0.17246 0.30614
 C994 C 0.37102 -0.15627 0.32018
 C995 C 0.36294 -0.14842 0.34640
 C996 C 0.33702 -0.15718 0.35874
 C997 C 0.31928 -0.17337 0.34487
 C998 C 0.32677 -0.18141 0.31797
 N999 N 0.38096 -0.13120 0.35981
 N1000 N 0.37431 -0.12325 0.38360
 C1001 C 0.39148 -0.10561 0.39718
 C1002 C 0.38179 -0.09741 0.42288
 C1003 C 0.39705 -0.07944 0.43630
 C1004 C 0.42243 -0.06938 0.42417
 C1005 C 0.43257 -0.07793 0.39857
 C1006 C 0.41715 -0.09592 0.38510
 H1007 H 0.36191 -0.17846 0.28648
 H1008 H 0.39119 -0.14984 0.31056
 H1009 H 0.33011 -0.15118 0.37899
 H1010 H 0.29888 -0.17826 0.35514
 H1011 H 0.36206 -0.10476 0.43238
 H1012 H 0.38878 -0.07328 0.45606
 H1013 H 0.45208 -0.07049 0.38880
 H1014 H 0.42508 -0.10202 0.36521
 C1015 C 0.36171 0.32416 -0.18801
 C1016 C 0.37910 0.34029 -0.17359
 C1017 C 0.36746 0.35224 -0.15064
 C1018 C 0.33811 0.34778 -0.14210
 C1019 C 0.32066 0.33176 -0.15655
 C1020 C 0.33220 0.31982 -0.17975
 N1021 N 0.38552 0.36912 -0.13670
 N1022 N 0.37647 0.37953 -0.11492
 C1023 C 0.39363 0.39693 -0.10093
 C1024 C 0.38220 0.40669 -0.07658
 C1025 C 0.39761 0.42437 -0.06281
 C1026 C 0.42477 0.43269 -0.07329
 C1027 C 0.43650 0.42268 -0.09758
 C1028 C 0.42104 0.40487 -0.11134
 H1029 H 0.37145 0.31499 -0.20551
 H1030 H 0.40170 0.34353 -0.18034
 H1031 H 0.32851 0.35690 -0.12450
 H1032 H 0.29791 0.32911 -0.14989
 H1033 H 0.36111 0.40071 -0.06840
 H1034 H 0.38804 0.43171 -0.04411
 H1035 H 0.45741 0.42875 -0.10607
 H1036 H 0.43029 0.39757 -0.13019
 C1037 C 1.13943 -0.17956 0.19195
 C1038 C 1.12194 -0.16360 0.17675
 C1039 C 1.12999 -0.15751 0.14979
 C1040 C 1.15540 -0.16811 0.13780
 C1041 C 1.17285 -0.18414 0.15293
 C1042 C 1.16531 -0.18979 0.18033
 N1043 N 1.11280 -0.13980 0.13551
 N1044 N 1.12022 -0.13225 0.11174
 C1045 C 1.10379 -0.11390 0.09781
 C1046 C 1.11460 -0.10533 0.07264
 C1047 C 1.10023 -0.08639 0.05932
 C1048 C 1.07466 -0.07580 0.07099
 C1049 C 1.06335 -0.08482 0.09592
 C1050 C 1.07784 -0.10369 0.10929
 H1051 H 1.13319 -0.18329 0.21310
 H1052 H 1.10246 -0.15549 0.18624
 H1053 H 1.16200 -0.16378 0.11691
 H1054 H 1.19234 -0.19202 0.14322
 H1055 H 1.13457 -0.11305 0.06360
 H1056 H 1.10937 -0.07986 0.04007
 H1057 H 1.04364 -0.07701 0.10534
 H1058 H 1.06903 -0.11005 0.12873
 C1059 C 1.14368 0.31859 0.68967
 C1060 C 1.12571 0.33387 0.67407
 C1061 C 1.13388 0.33998 0.64715
 C1062 C 1.15996 0.33011 0.63560
 C1063 C 1.17791 0.31474 0.65114
 C1064 C 1.17020 0.30906 0.67849
 N1065 N 1.11606 0.35704 0.63254
 N1066 N 1.12323 0.36470 0.60874
 C1067 C 1.10590 0.38252 0.59482
 C1068 C 1.11625 0.39159 0.56970
 C1069 C 1.10103 0.41027 0.55665
 C1070 C 1.07511 0.42008 0.56859
 C1071 C 1.06425 0.41045 0.59337
 C1072 C 1.07954 0.39186 0.60643
 H1073 H 1.13728 0.31484 0.71077
 H1074 H 1.10571 0.34145 0.68321
 H1075 H 1.16666 0.33450 0.61475
 H1076 H 1.19791 0.30738 0.64177
 H1077 H 1.13654 0.38454 0.56055
 H1078 H 1.10983 0.41730 0.53751
 H1079 H 1.04427 0.41761 0.60298
 H1080 H 1.07104 0.38510 0.62581
 C1081 C 0.64171 -0.17437 0.69306
 C1082 C 0.62382 -0.15892 0.67758
 C1083 C 0.63059 -0.15434 0.64992
 C1084 C 0.65517 -0.16588 0.63761
 C1085 C 0.67301 -0.18142 0.65302
 C1086 C 0.66671 -0.18563 0.68104
 N1087 N 0.61290 -0.13729 0.63514
 N1088 N 0.61927 -0.13098 0.61063
 C1089 C 0.60223 -0.11333 0.59615
 C1090 C 0.61223 -0.10565 0.57030
 C1091 C 0.59729 -0.08730 0.55643
 C1092 C 0.57194 -0.07646 0.56820
 C1093 C 0.56139 -0.08467 0.59378
 C1094 C 0.57647 -0.10292 0.60772
 H1095 H 0.63644 -0.17699 0.71465
 H1096 H 0.60499 -0.15007 0.68731
 H1097 H 0.66077 -0.16273 0.61619
 H1098 H 0.69176 -0.19013 0.64301
 H1099 H 0.63204 -0.11356 0.56118
 H1100 H 0.60583 -0.08139 0.53668
 H1101 H 0.54187 -0.07665 0.60330
 H1102 H 0.56826 -0.10861 0.62766
 C1103 C 0.64322 0.32363 0.19220
 C1104 C 0.62548 0.33955 0.17719
 C1105 C 0.63222 0.34463 0.14965
 C1106 C 0.65659 0.33312 0.13695
 C1107 C 0.67428 0.31711 0.15189
 C1108 C 0.66802 0.31239 0.17980
 N1109 N 0.61473 0.36218 0.13545
 N1110 N 0.62109 0.36898 0.11111
 C1111 C 0.60426 0.38713 0.09724
 C1112 C 0.61422 0.39521 0.07155
 C1113 C 0.59950 0.41398 0.05825
 C1114 C 0.57441 0.42488 0.07045
 C1115 C 0.56392 0.41631 0.09588
 C1116 C 0.57878 0.39763 0.10925
 H1117 H 0.63800 0.32067 0.21373
 H1118 H 0.60683 0.34837 0.18723
 H1119 H 0.66215 0.33667 0.11561
 H1120 H 0.69289 0.30846 0.14159
 H1121 H 0.63381 0.38725 0.06209
 H1122 H 0.60800 0.42016 0.03860
 H1123 H 0.54460 0.42437 0.10572
 H1124 H 0.57061 0.39164 0.12909
 C1125 C 0.85420 0.17320 0.19432
 C1126 C 0.87115 0.15677 0.17922
 C1127 C 0.86461 0.15231 0.15162
 C1128 C 0.84110 0.16483 0.13900
 C1129 C 0.82419 0.18137 0.15403
 C1130 C 0.83040 0.18562 0.18194
 N1131 N 0.88168 0.13461 0.13717
 N1132 N 0.87574 0.12848 0.11263
 C1133 C 0.89254 0.11037 0.09857
 C1134 C 0.88339 0.10311 0.07246
 C1135 C 0.89847 0.08470 0.05877
 C1136 C 0.92311 0.07335 0.07100
 C1137 C 0.93266 0.08101 0.09696
 C1138 C 0.91747 0.09932 0.11069
 H1139 H 0.85931 0.17576 0.21586
 H1140 H 0.88915 0.14715 0.18919
 H1141 H 0.83571 0.16176 0.11762
 H1142 H 0.80632 0.19088 0.14378
 H1143 H 0.86423 0.11150 0.06291
 H1144 H 0.89069 0.07921 0.03874
 H1145 H 0.95161 0.07261 0.10685
 H1146 H 0.92504 0.10467 0.13083
 C1147 C 0.81172 0.68398 0.64657
 C1148 C 0.82641 0.66762 0.62946
 C1149 C 0.85041 0.65411 0.63936
 C1150 C 0.85985 0.65731 0.66662
 C1151 C 0.84513 0.67357 0.68378
 C1152 C 0.82076 0.68700 0.67402
 N1153 N 0.86425 0.63682 0.62169
 N1154 N 0.88687 0.62471 0.62928
 C1155 C 0.90044 0.60681 0.61230
 C1156 C 0.92589 0.59499 0.62189
 C1157 C 0.93908 0.57673 0.60650
 C1158 C 0.92684 0.56990 0.58122
 C1159 C 0.90147 0.58198 0.57139
 C1160 C 0.88836 0.60034 0.58680
 H1161 H 0.79333 0.69429 0.63828
 H1162 H 0.81896 0.66535 0.60847
 H1163 H 0.87826 0.64697 0.67482
 H1164 H 0.85237 0.67518 0.70491
 H1165 H 0.93537 0.59981 0.64152
 H1166 H 0.95864 0.56776 0.61457
 H1167 H 0.89163 0.57710 0.55195
 H1168 H 0.86862 0.60922 0.57899
 C1169 C 0.35558 0.17154 0.69550
 C1170 C 0.37228 0.15524 0.67999
 C1171 C 0.36580 0.15153 0.65222
 C1172 C 0.34268 0.16468 0.63985
 C1173 C 0.32605 0.18109 0.65529
 C1174 C 0.33214 0.18456 0.68337
 N1175 N 0.38247 0.13388 0.63733
 N1176 N 0.37634 0.12834 0.61264
 C1177 C 0.39266 0.11026 0.59812
 C1178 C 0.38312 0.10349 0.57196
 C1179 C 0.39764 0.08503 0.55786
 C1180 C 0.42208 0.07316 0.56976
 C1181 C 0.43206 0.08035 0.59575
 C1182 C 0.41743 0.09870 0.60988
 H1183 H 0.36058 0.17353 0.71715
 H1184 H 0.38998 0.14513 0.68976
 H1185 H 0.33736 0.16220 0.61834
 H1186 H 0.30847 0.19110 0.64523
 H1187 H 0.36407 0.11229 0.56269
 H1188 H 0.38955 0.07990 0.53781
 H1189 H 0.45089 0.07154 0.60537
 H1190 H 0.42529 0.10367 0.63006
 C1191 C 0.34897 0.66872 0.19931
 C1192 C 0.36628 0.65256 0.18417
 C1193 C 0.36158 0.64968 0.15595
 C1194 C 0.33951 0.66343 0.14282
 C1195 C 0.32226 0.67971 0.15790
 C1196 C 0.32669 0.68246 0.18637
 N1197 N 0.37910 0.63240 0.14130
 N1198 N 0.37454 0.62763 0.11609
 C1199 C 0.39177 0.61003 0.10165
 C1200 C 0.38358 0.60389 0.07489
 C1201 C 0.39900 0.58594 0.06073
 C1202 C 0.42307 0.57397 0.07315
 C1203 C 0.43174 0.58055 0.09977
 C1204 C 0.41616 0.59838 0.11398
 H1205 H 0.35266 0.67012 0.22126
 H1206 H 0.38314 0.64198 0.19453
 H1207 H 0.33555 0.66159 0.12096
 H1208 H 0.30562 0.69027 0.14723
 H1209 H 0.36486 0.61277 0.06517
 H1210 H 0.39191 0.58128 0.04019
 H1211 H 0.45024 0.57163 0.10980
 H1212 H 0.42299 0.60289 0.13463
   
