data_POSCAR
  _audit_creation_date              2014-09-24
  _audit_creation_method            'ToBaCCo'
  _symmetry_space_group_name_H-M    'P1'
  _symmetry_Int_Tables_number       1
  _symmetry_cell_setting            triclinic
  loop_
  _symmetry_equiv_pos_as_xyz
 x,y,z
_cell_length_a 35.5444
_cell_length_b 35.5869
_cell_length_c 35.6645
_cell_angle_alpha 89.968500
_cell_angle_beta 90.054500
_cell_angle_gamma 90.080300
loop_
  _atom_site_label
  _atom_site_type_symbol
  _atom_site_fract_x
  _atom_site_fract_y
  _atom_site_fract_z
O1 O 0.28373 1.03779 0.03674
 O2 O 0.28706 0.97014 -0.04104
 O3 O 0.28237 1.04335 -0.03612
 O4 O 0.28491 0.96469 0.03178
 O5 O 0.22279 0.96295 0.03170
 O6 O 0.22050 1.03893 -0.03760
 O7 O 0.22539 0.96526 -0.04016
 O8 O 0.22166 1.03552 0.03568
 Cu9 Cu 0.29073 1.00431 -0.00220
 Cu10 Cu 0.21638 1.00066 -0.00288
 C11 C 0.25213 1.04795 0.04972
 C12 C 0.25703 0.95560 -0.05374
 C13 C 0.25069 1.05482 -0.04809
 C14 C 0.25412 0.95024 0.04295
 O15 O 0.78286 0.53418 0.54196
 O16 O 0.78671 0.46117 0.46935
 O17 O 0.78407 0.53375 0.46855
 O18 O 0.78098 0.46111 0.54187
 O19 O 0.71893 0.46077 0.53973
 O20 O 0.72214 0.53217 0.46456
 O21 O 0.72496 0.45862 0.46783
 O22 O 0.72086 0.53393 0.53854
 Cu23 Cu 0.78979 0.49787 0.50579
 Cu24 Cu 0.71546 0.49674 0.50226
 C25 C 0.75119 0.54601 0.55316
 C26 C 0.75675 0.44642 0.45689
 C27 C 0.75368 0.54449 0.45318
 C28 C 0.74957 0.44790 0.55278
 O29 O 0.77211 0.95994 1.04239
 O30 O 0.77471 1.03548 0.97127
 O31 O 0.77185 1.03340 1.04369
 O32 O 0.77510 0.96187 0.96944
 O33 O 0.71306 0.95991 0.96790
 O34 O 0.71034 1.03357 1.04035
 O35 O 0.71272 1.03349 0.96809
 O36 O 0.71028 0.96102 1.04112
 Cu37 Cu 0.77968 0.99753 1.00681
 Cu38 Cu 0.70542 0.99676 1.00392
 C39 C 0.74063 0.94832 1.05486
 C40 C 0.74385 1.04798 0.95832
 C41 C 0.74041 1.04679 1.05424
 C42 C 0.74477 0.94799 0.95671
 O43 O 0.21387 0.46991 0.53287
 O44 O 0.22378 0.53972 0.45752
 O45 O 0.21930 0.46687 0.46064
 O46 O 0.21836 0.54330 0.53038
 O47 O 0.27994 0.53918 0.53674
 O48 O 0.28126 0.46564 0.46413
 O49 O 0.28535 0.53863 0.46436
 O50 O 0.27557 0.46526 0.53639
 Cu51 Cu 0.21261 0.50546 0.49502
 Cu52 Cu 0.28671 0.50190 0.50107
 C53 C 0.24301 0.45440 0.54637
 C54 C 0.25627 0.55111 0.44793
 C55 C 0.25063 0.45287 0.45082
 C56 C 0.24891 0.55472 0.54501
 O57 O 1.03015 0.21567 0.03901
 O58 O 0.95510 0.22344 -0.03187
 O59 O 1.02809 0.21691 -0.03430
 O60 O 0.95757 0.22003 0.04098
 O61 O 0.96258 0.28181 0.04210
 O62 O 1.03296 0.27868 -0.03332
 O63 O 0.96101 0.28494 -0.03103
 O64 O 1.03596 0.27728 0.03961
 Cu65 Cu 0.99227 0.21281 0.00327
 Cu66 Cu 0.99856 0.28689 0.00474
 C67 C 1.04624 0.24512 0.05117
 C68 C 0.94577 0.25561 -0.04440
 C69 C 1.04196 0.24714 -0.04729
 C70 C 0.94843 0.25156 0.05478
 O71 O 0.53563 0.71366 0.53781
 O72 O 0.46165 0.71975 0.46553
 O73 O 0.53489 0.71041 0.46472
 O74 O 0.46306 0.71874 0.53836
 O75 O 0.46940 0.78042 0.53717
 O76 O 0.54086 0.77197 0.46283
 O77 O 0.46839 0.78138 0.46446
 O78 O 0.54230 0.77533 0.53623
 Cu79 Cu 0.49829 0.70944 0.50154
 Cu80 Cu 0.50597 0.78343 0.50001
 C81 C 0.55156 0.74351 0.54933
 C82 C 0.45186 0.75184 0.45324
 C83 C 0.54982 0.73960 0.45071
 C84 C 0.45438 0.75099 0.55077
 O85 O 0.03727 0.78205 -0.03880
 O86 O -0.03018 0.78387 0.03907
 O87 O 0.04337 0.78238 0.03421
 O88 O -0.03438 0.78672 -0.03346
 O89 O -0.03586 0.72527 -0.03655
 O90 O 0.03978 0.72046 0.03416
 O91 O -0.03380 0.72207 0.03724
 O92 O 0.03746 0.72013 -0.03817
 Cu93 Cu 0.00433 0.78991 0.00069
 Cu94 Cu 0.00135 0.71575 -0.00073
 C95 C 0.04859 0.75100 -0.05229
 C96 C -0.04360 0.75325 0.05153
 C97 C 0.05524 0.75066 0.04534
 C98 C -0.04754 0.75711 -0.04807
 O99 O 0.53104 0.21426 0.47041
 O100 O 0.45554 0.22408 0.54037
 O101 O 0.45862 0.22185 0.46660
 O102 O 0.52760 0.21482 0.54306
 O103 O 0.53614 0.27597 0.54110
 O104 O 0.46505 0.28339 0.46634
 O105 O 0.46302 0.28548 0.53941
 O106 O 0.53782 0.27586 0.46903
 Cu107 Cu 0.49217 0.21261 0.50518
 Cu108 Cu 0.50095 0.28639 0.50398
 C109 C 0.54780 0.24337 0.45825
 C110 C 0.44699 0.25650 0.55261
 C111 C 0.45053 0.25375 0.45281
 C112 C 0.54471 0.24393 0.55441
 O113 O 1.03987 0.02970 0.27791
 O114 O 0.96428 -0.04034 0.27784
 O115 O 1.03810 -0.04242 0.27222
 O116 O 0.96703 0.03345 0.27758
 O117 O 0.96693 0.03704 0.21579
 O118 O 1.03298 -0.04161 0.21072
 O119 O 0.95965 -0.03514 0.21657
 O120 O 1.03955 0.03125 0.21601
 Cu121 Cu 1.00229 -0.00542 0.28256
 Cu122 Cu 0.99956 -0.00218 0.20862
 C123 C 1.05325 0.04181 0.24726
 C124 C 0.94783 -0.04873 0.24738
 C125 C 1.04840 -0.05426 0.24017
 C126 C 0.95576 0.04889 0.24736
 O127 O 0.53396 0.53558 0.78539
 O128 O 0.45583 0.46842 0.78444
 O129 O 0.52882 0.46295 0.78590
 O130 O 0.46075 0.54120 0.78140
 O131 O 0.46436 0.54059 0.71960
 O132 O 0.52910 0.46060 0.72395
 O133 O 0.45657 0.46855 0.72243
 O134 O 0.53729 0.53329 0.72361
 Cu135 Cu 0.49464 0.50228 0.79053
 Cu136 Cu 0.49714 0.50066 0.71615
 C137 C 0.54958 0.54518 0.75489
 C138 C 0.44249 0.45761 0.75328
 C139 C 0.54008 0.44824 0.75547
 C140 C 0.45114 0.55433 0.74962
 O141 O 0.96090 1.04003 0.78809
 O142 O 1.02800 0.96277 0.78653
 O143 O 1.03311 1.03572 0.78685
 O144 O 0.95536 0.96767 0.78488
 O145 O 0.95680 0.96788 0.72302
 O146 O 1.03322 1.03792 0.72506
 O147 O 1.03150 0.96571 0.72514
 O148 O 0.96042 1.04190 0.72659
 Cu149 Cu 0.99422 1.00117 0.79266
 Cu150 Cu 0.99509 1.00311 0.71862
 C151 C 0.94962 1.05513 0.75801
 C152 C 1.04299 0.95225 0.75618
 C153 C 1.04668 1.04835 0.75637
 C154 C 0.94256 0.95646 0.75362
 O155 O 0.46906 0.53636 0.21673
 O156 O 0.53493 0.45676 0.21807
 O157 O 0.46173 0.46356 0.21865
 O158 O 0.54217 0.52930 0.21900
 O159 O 0.54224 0.52854 0.28090
 O160 O 0.46066 0.46532 0.28048
 O161 O 0.53295 0.45619 0.28005
 O162 O 0.46995 0.53807 0.27869
 Cu163 Cu 0.50197 0.49645 0.21186
 Cu164 Cu 0.50131 0.49709 0.28624
 C165 C 0.45873 0.55102 0.24744
 C166 C 0.54491 0.44286 0.24928
 C167 C 0.44717 0.45362 0.24967
 C168 C 0.55632 0.53956 0.25012
 O169 O 0.25204 0.15110 0.20059
 O170 O 0.29575 0.14280 0.25124
 O171 O 0.15374 0.19243 0.25457
 O172 O 0.13900 0.24015 0.29292
 O173 O 0.19515 0.24509 0.15536
 O174 O 0.24474 0.28968 0.14366
 O175 O 0.25160 0.30093 0.34869
 O176 O 0.20887 0.25108 0.36013
 O177 O 0.34712 0.25557 0.30155
 O178 O 0.35942 0.21226 0.24829
 O179 O 0.29660 0.34801 0.25205
 O180 O 0.24185 0.35746 0.21070
 O181 O 0.24724 0.34587 0.30359
 O182 O 0.20210 0.35476 0.25062
 O183 O 0.34383 0.30503 0.25032
 O184 O 0.35676 0.25183 0.20806
 O185 O 0.30300 0.25206 0.34757
 O186 O 0.25237 0.20726 0.36023
 O187 O 0.24937 0.19566 0.15489
 O188 O 0.28917 0.24986 0.14346
 O189 O 0.15061 0.24422 0.20126
 O190 O 0.14125 0.28822 0.25320
 O191 O 0.20115 0.14947 0.25540
 O192 O 0.25640 0.14061 0.29351
 Zr193 Zr 0.25076 0.18160 0.25109
 O194 O 0.28523 0.21548 0.28506
 Zr195 Zr 0.18164 0.24453 0.25176
 O196 O 0.21305 0.28100 0.28644
 Zr197 Zr 0.24652 0.24678 0.18464
 O198 O 0.28048 0.28392 0.21593
 Zr199 Zr 0.25147 0.25007 0.31878
 O200 O 0.21665 0.21299 0.28785
 Zr201 Zr 0.31604 0.25286 0.25133
 O202 O 0.28504 0.21554 0.21683
 Zr203 Zr 0.24692 0.31569 0.25268
 O204 O 0.21237 0.28191 0.21772
 O205 O 0.21378 0.21082 0.21682
 O206 O 0.28437 0.28671 0.28704
 C207 C 0.25065 0.16130 0.16604
 C208 C 0.16612 0.15852 0.25599
 C209 C 0.16084 0.24416 0.16669
 C210 C 0.25033 0.33538 0.33797
 C211 C 0.33712 0.25485 0.33614
 C212 C 0.33158 0.33892 0.25156
 H213 H 0.30187 0.19922 0.30019
 H214 H 0.29487 0.30010 0.19856
 H215 H 0.19800 0.19377 0.20155
 H216 H 0.19600 0.29571 0.30265
 H217 H 0.18968 0.23241 0.35242
 H218 H 0.14614 0.25671 0.31403
 H219 H 0.34978 0.27118 0.18940
 H220 H 0.30932 0.23245 0.15154
 H221 H 0.27426 0.19081 0.35550
 H222 H 0.24257 0.15046 0.31542
 H223 H 0.26088 0.35216 0.19121
 H224 H 0.22656 0.30862 0.15281
 H225 H 0.31477 0.15265 0.23350
 H226 H 0.35559 0.19408 0.26892
 H227 H 0.14789 0.30615 0.23302
 H228 H 0.18513 0.34941 0.27193
 O229 O 0.74230 0.84168 0.19926
 O230 O 0.70469 0.85153 0.25296
 O231 O 0.84645 0.80471 0.25313
 O232 O 0.86295 0.75709 0.29122
 O233 O 0.80542 0.74933 0.15404
 O234 O 0.75629 0.70333 0.14387
 O235 O 0.75483 0.69290 0.34819
 O236 O 0.79623 0.74577 0.35778
 O237 O 0.65642 0.73534 0.30329
 O238 O 0.64193 0.77942 0.25024
 O239 O 0.70768 0.64504 0.25256
 O240 O 0.76346 0.63917 0.20800
 O241 O 0.75971 0.64835 0.30277
 O242 O 0.79994 0.63788 0.25047
 O243 O 0.65948 0.68690 0.25157
 O244 O 0.64409 0.73972 0.21014
 O245 O 0.70130 0.73944 0.34861
 O246 O 0.74384 0.78493 0.36030
 O247 O 0.74908 0.79726 0.15381
 O248 O 0.71150 0.74248 0.14326
 O249 O 0.85011 0.75367 0.19956
 O250 O 0.86269 0.71034 0.25152
 O251 O 0.79814 0.84643 0.24953
 O252 O 0.74442 0.85312 0.29342
 Zr253 Zr 0.74938 0.81259 0.25029
 O254 O 0.71672 0.77770 0.28520
 Zr255 Zr 0.82006 0.75186 0.25037
 O256 O 0.79038 0.71408 0.28508
 Zr257 Zr 0.75437 0.74686 0.18416
 O258 O 0.72150 0.70931 0.21608
 Zr259 Zr 0.75179 0.74377 0.31830
 O260 O 0.78486 0.78241 0.28697
 Zr261 Zr 0.68607 0.73954 0.25228
 O262 O 0.71552 0.77727 0.21695
 Zr263 Zr 0.75669 0.67849 0.25202
 O264 O 0.79024 0.71312 0.21697
 O265 O 0.78640 0.78426 0.21543
 O266 O 0.71923 0.70628 0.28722
 C267 C 0.74356 0.83118 0.16476
 C268 C 0.83333 0.83828 0.25105
 C269 C 0.83977 0.75246 0.16504
 C270 C 0.75815 0.65866 0.33729
 C271 C 0.66702 0.73595 0.33776
 C272 C 0.67250 0.65332 0.25252
 H273 H 0.70026 0.79343 0.30108
 H274 H 0.70711 0.69282 0.19899
 H275 H 0.80088 0.80161 0.19923
 H276 H 0.80834 0.69971 0.30068
 H277 H 0.81154 0.76821 0.35165
 H278 H 0.85533 0.74185 0.31313
 H279 H 0.65126 0.72092 0.19104
 H280 H 0.69043 0.75834 0.15208
 H281 H 0.75744 0.80761 0.35188
 H282 H 0.76757 0.85178 0.30880
 H283 H 0.74081 0.64036 0.19191
 H284 H 0.77602 0.68559 0.15224
 H285 H 0.68289 0.83909 0.24100
 H286 H 0.64388 0.79552 0.27276
 H287 H 0.85795 0.69319 0.23016
 H288 H 0.82245 0.64979 0.26154
 O289 O 0.74703 0.15365 0.81200
 O290 O 0.70661 0.14027 0.75948
 O291 O 0.84385 0.20205 0.76017
 O292 O 0.85499 0.24919 0.71931
 O293 O 0.79478 0.25420 0.85557
 O294 O 0.74132 0.29548 0.86306
 O295 O 0.74469 0.29918 0.65931
 O296 O 0.78947 0.24637 0.65234
 O297 O 0.64781 0.24578 0.70426
 O298 O 0.63676 0.20366 0.75708
 O299 O 0.68739 0.34384 0.75116
 O300 O 0.73932 0.35919 0.79584
 O301 O 0.74049 0.34556 0.70287
 O302 O 0.78008 0.36053 0.75721
 O303 O 0.64470 0.29675 0.75556
 O304 O 0.63561 0.24161 0.79764
 O305 O 0.69360 0.24667 0.65974
 O306 O 0.74151 0.20829 0.64725
 O307 O 0.74215 0.20002 0.85566
 O308 O 0.70274 0.25287 0.86645
 O309 O 0.84026 0.25786 0.81084
 O310 O 0.84971 0.29686 0.75635
 O311 O 0.80068 0.15469 0.76044
 O312 O 0.74932 0.13990 0.71938
 Zr313 Zr 0.74844 0.18255 0.76067
 O314 O 0.71261 0.21218 0.72427
 Zr315 Zr 0.81141 0.25144 0.75962
 O316 O 0.77821 0.28422 0.72312
 Zr317 Zr 0.74454 0.25041 0.82457
 O318 O 0.70813 0.28284 0.79102
 Zr319 Zr 0.74396 0.24896 0.69047
 O320 O 0.78055 0.21569 0.72370
 Zr321 Zr 0.67713 0.24745 0.75547
 O322 O 0.71009 0.21456 0.79243
 Zr323 Zr 0.73993 0.31662 0.75438
 O324 O 0.77655 0.28726 0.79114
 O325 O 0.78143 0.21622 0.79518
 O326 O 0.70657 0.28337 0.71956
 C327 C 0.74349 0.16522 0.84590
 C328 C 0.83460 0.16714 0.76011
 C329 C 0.82913 0.25797 0.84512
 C330 C 0.74364 0.33395 0.66894
 C331 C 0.65907 0.24539 0.67010
 C332 C 0.65336 0.33158 0.75254
 H333 H 0.69823 0.19409 0.70887
 H334 H 0.69154 0.29783 0.80743
 H335 H 0.79774 0.20136 0.81205
 H336 H 0.79498 0.29985 0.70744
 H337 H 0.80619 0.22568 0.66058
 H338 H 0.84570 0.26186 0.69643
 H339 H 0.63678 0.26408 0.81393
 H340 H 0.68008 0.24132 0.85529
 H341 H 0.73838 0.18362 0.65950
 H342 H 0.76886 0.14701 0.70091
 H343 H 0.71834 0.35383 0.81324
 H344 H 0.75878 0.31514 0.85388
 H345 H 0.68632 0.14868 0.77652
 H346 H 0.64413 0.18452 0.73840
 H347 H 0.83866 0.31750 0.77122
 H348 H 0.79894 0.35616 0.73730
 O349 O 0.25471 0.84976 0.80287
 O350 O 0.28791 0.86640 0.74872
 O351 O 0.15204 0.80763 0.74579
 O352 O 0.13852 0.76002 0.70757
 O353 O 0.19552 0.75241 0.84447
 O354 O 0.24625 0.70951 0.85428
 O355 O 0.25028 0.70617 0.64923
 O356 O 0.20799 0.76019 0.64085
 O357 O 0.34731 0.75729 0.69802
 O358 O 0.36193 0.79083 0.75206
 O359 O 0.30010 0.65696 0.74349
 O360 O 0.24660 0.64416 0.78473
 O361 O 0.24921 0.65945 0.69270
 O362 O 0.20565 0.64749 0.74600
 O363 O 0.34547 0.70192 0.74513
 O364 O 0.35414 0.75537 0.79384
 O365 O 0.30321 0.75586 0.65185
 O366 O 0.25588 0.79806 0.63883
 O367 O 0.25027 0.80365 0.84692
 O368 O 0.28968 0.74948 0.85606
 O369 O 0.15121 0.75415 0.79841
 O370 O 0.14305 0.71172 0.74428
 O371 O 0.19743 0.85235 0.75194
 O372 O 0.24959 0.86301 0.70799
 Zr373 Zr 0.24834 0.82214 0.75107
 O374 O 0.28416 0.79090 0.71620
 Zr375 Zr 0.18195 0.75669 0.74802
 O376 O 0.21444 0.72270 0.71204
 Zr377 Zr 0.24701 0.75398 0.81496
 O378 O 0.28214 0.71928 0.78226
 Zr379 Zr 0.25177 0.75617 0.68088
 O380 O 0.21562 0.79080 0.71314
 Zr381 Zr 0.31624 0.75308 0.74803
 O382 O 0.28420 0.78813 0.78363
 Zr383 Zr 0.24949 0.68779 0.74445
 O384 O 0.21390 0.71902 0.78056
 O385 O 0.21282 0.79027 0.78458
 O386 O 0.28591 0.71924 0.71097
 C387 C 0.25465 0.83808 0.83699
 C388 C 0.16292 0.84190 0.74924
 C389 C 0.16118 0.75304 0.83305
 C390 C 0.24893 0.67130 0.65869
 C391 C 0.33741 0.75747 0.66335
 C392 C 0.33467 0.66757 0.74332
 H393 H 0.30043 0.80845 0.70207
 H394 H 0.29730 0.70302 0.79887
 H395 H 0.19722 0.80612 0.80119
 H396 H 0.19746 0.70825 0.69546
 H397 H 0.19075 0.78032 0.64932
 H398 H 0.14806 0.74818 0.68438
 H399 H 0.35345 0.73079 0.80679
 H400 H 0.30975 0.76737 0.84880
 H401 H 0.26739 0.82053 0.65038
 H402 H 0.22919 0.85653 0.69019
 H403 H 0.26531 0.64967 0.80452
 H404 H 0.22906 0.69013 0.84407
 H405 H 0.31095 0.85698 0.76098
 H406 H 0.35254 0.81542 0.74340
 H407 H 0.14951 0.69369 0.76443
 H408 H 0.18812 0.65315 0.72520
 O409 O 0.23687 0.35195 0.69606
 O410 O 0.19267 0.36051 0.74680
 O411 O 0.33548 0.31410 0.75032
 O412 O 0.35205 0.26757 0.78954
 O413 O 0.29429 0.25755 0.65286
 O414 O 0.24548 0.21144 0.64348
 O415 O 0.24249 0.20585 0.84822
 O416 O 0.28348 0.25763 0.85784
 O417 O 0.14452 0.24852 0.80121
 O418 O 0.13051 0.28991 0.74706
 O419 O 0.19621 0.15570 0.75401
 O420 O 0.25033 0.14639 0.71144
 O421 O 0.24750 0.15998 0.80413
 O422 O 0.29063 0.15050 0.75065
 O423 O 0.14823 0.19779 0.75129
 O424 O 0.13355 0.24991 0.70778
 O425 O 0.18916 0.25267 0.84671
 O426 O 0.23827 0.29968 0.85761
 O427 O 0.23726 0.30573 0.65186
 O428 O 0.20121 0.24983 0.64147
 O429 O 0.33903 0.26189 0.69837
 O430 O 0.35043 0.21890 0.75101
 O431 O 0.28749 0.35601 0.75190
 O432 O 0.23287 0.36487 0.78903
 Zr433 Zr 0.23862 0.32286 0.74757
 O434 O 0.20534 0.28919 0.78295
 Zr435 Zr 0.30884 0.26144 0.74912
 O436 O 0.27880 0.22519 0.78505
 Zr437 Zr 0.24333 0.25576 0.68287
 O438 O 0.21042 0.21903 0.71557
 Zr439 Zr 0.24019 0.25603 0.81714
 O440 O 0.27372 0.29306 0.78480
 Zr441 Zr 0.17488 0.25042 0.75059
 O442 O 0.20467 0.28722 0.71465
 Zr443 Zr 0.24526 0.18891 0.75262
 O444 O 0.27873 0.22240 0.71647
 O445 O 0.27566 0.29352 0.71352
 O446 O 0.20767 0.21797 0.78672
 C447 C 0.23583 0.34038 0.66191
 C448 C 0.32264 0.34786 0.75134
 C449 C 0.32860 0.26031 0.66389
 C450 C 0.24504 0.17125 0.83827
 C451 C 0.15491 0.24922 0.83572
 C452 C 0.16110 0.16423 0.75358
 H453 H 0.18850 0.30542 0.79784
 H454 H 0.19601 0.20219 0.69885
 H455 H 0.29072 0.31058 0.69756
 H456 H 0.29654 0.21131 0.80131
 H457 H 0.30184 0.27680 0.84937
 H458 H 0.34534 0.25174 0.81133
 H459 H 0.13932 0.22887 0.69061
 H460 H 0.17898 0.26354 0.65091
 H461 H 0.21661 0.31610 0.85182
 H462 H 0.24896 0.35709 0.81033
 H463 H 0.23027 0.15036 0.69262
 H464 H 0.26451 0.19342 0.65283
 H465 H 0.17412 0.35009 0.72886
 H466 H 0.13469 0.30917 0.76660
 H467 H 0.34420 0.20056 0.73108
 H468 H 0.30869 0.15761 0.77054
 O469 O 0.75245 0.64993 0.70283
 O470 O 0.79665 0.64156 0.75270
 O471 O 0.65452 0.69098 0.75711
 O472 O 0.63783 0.73871 0.79307
 O473 O 0.69685 0.74397 0.65731
 O474 O 0.74592 0.78845 0.64600
 O475 O 0.75009 0.79804 0.85232
 O476 O 0.70924 0.74746 0.86321
 O477 O 0.84742 0.75514 0.80446
 O478 O 0.86183 0.71454 0.75267
 O479 O 0.79469 0.84778 0.75513
 O480 O 0.74177 0.85817 0.71645
 O481 O 0.74614 0.84352 0.80780
 O482 O 0.69927 0.85090 0.75342
 O483 O 0.84272 0.80572 0.75465
 O484 O 0.85563 0.75158 0.70998
 O485 O 0.80332 0.75017 0.85041
 O486 O 0.75269 0.70420 0.86213
 O487 O 0.75117 0.69486 0.65741
 O488 O 0.79120 0.74997 0.64719
 O489 O 0.65175 0.74190 0.70255
 O490 O 0.64212 0.78694 0.75557
 O491 O 0.70197 0.64804 0.75818
 O492 O 0.75801 0.63919 0.79558
 Zr493 Zr 0.75160 0.68029 0.75336
 O494 O 0.78584 0.71424 0.78752
 Zr495 Zr 0.68209 0.74289 0.75368
 O496 O 0.71280 0.77876 0.78949
 Zr497 Zr 0.74764 0.74589 0.68733
 O498 O 0.78039 0.78353 0.71926
 Zr499 Zr 0.75157 0.74786 0.82159
 O500 O 0.71697 0.71122 0.78996
 Zr501 Zr 0.81624 0.75267 0.75446
 O502 O 0.78604 0.71480 0.71975
 Zr503 Zr 0.74611 0.81430 0.75624
 O504 O 0.71271 0.78065 0.72010
 O505 O 0.71475 0.70950 0.71894
 O506 O 0.78391 0.78554 0.79047
 C507 C 0.75164 0.66040 0.66836
 C508 C 0.66694 0.65718 0.75885
 C509 C 0.66243 0.74213 0.66806
 C510 C 0.74880 0.83260 0.84211
 C511 C 0.83741 0.75372 0.83899
 C512 C 0.82978 0.83943 0.75539
 H513 H 0.80272 0.69805 0.80246
 H514 H 0.79452 0.80020 0.70213
 H515 H 0.69908 0.69239 0.70362
 H516 H 0.69540 0.79295 0.80580
 H517 H 0.68975 0.72946 0.85471
 H518 H 0.64597 0.75221 0.81590
 H519 H 0.85088 0.77367 0.69381
 H520 H 0.81077 0.73168 0.65469
 H521 H 0.77542 0.68876 0.85792
 H522 H 0.74375 0.64849 0.81744
 H523 H 0.75650 0.85053 0.69422
 H524 H 0.72734 0.80721 0.65471
 H525 H 0.81554 0.65167 0.73496
 H526 H 0.85528 0.69293 0.76883
 H527 H 0.64696 0.80339 0.73370
 H528 H 0.68465 0.84796 0.77684
 O529 O 0.26078 0.65597 0.30101
 O530 O 0.22091 0.64139 0.24815
 O531 O 0.35636 0.70535 0.24457
 O532 O 0.37041 0.75663 0.21280
 O533 O 0.30529 0.75862 0.34501
 O534 O 0.25033 0.79558 0.35343
 O535 O 0.25508 0.80014 0.14759
 O536 O 0.30246 0.75259 0.14082
 O537 O 0.16072 0.74656 0.19205
 O538 O 0.15018 0.70384 0.24566
 O539 O 0.19909 0.84491 0.23851
 O540 O 0.25006 0.86164 0.28342
 O541 O 0.25205 0.84672 0.19103
 O542 O 0.29209 0.86204 0.24588
 O543 O 0.15627 0.79745 0.24171
 O544 O 0.14743 0.74405 0.28526
 O545 O 0.20700 0.74625 0.14807
 O546 O 0.26004 0.70815 0.13759
 O547 O 0.25666 0.70215 0.34501
 O548 O 0.21066 0.75207 0.35209
 O549 O 0.35205 0.75663 0.30145
 O550 O 0.35882 0.80252 0.24849
 O551 O 0.31441 0.65783 0.25141
 O552 O 0.26429 0.64202 0.20829
 Zr553 Zr 0.26174 0.68462 0.24954
 O554 O 0.22568 0.71350 0.21273
 Zr555 Zr 0.32369 0.75442 0.24940
 O556 O 0.29062 0.78623 0.21199
 Zr557 Zr 0.25572 0.75220 0.31342
 O558 O 0.21981 0.78449 0.27920
 Zr559 Zr 0.25716 0.75042 0.17919
 O560 O 0.29399 0.71818 0.21297
 Zr561 Zr 0.18949 0.74855 0.24351
 O562 O 0.22241 0.71584 0.28076
 Zr563 Zr 0.25179 0.81829 0.24280
 O564 O 0.28781 0.78956 0.28059
 O565 O 0.29369 0.71879 0.28437
 O566 O 0.21919 0.78445 0.20788
 C567 C 0.25908 0.66754 0.33506
 C568 C 0.34819 0.67037 0.24816
 C569 C 0.34013 0.75896 0.33543
 C570 C 0.25284 0.83486 0.15703
 C571 C 0.17224 0.74553 0.15797
 C572 C 0.16520 0.83229 0.23890
 H573 H 0.21162 0.69513 0.19735
 H574 H 0.20300 0.79967 0.29520
 H575 H 0.31038 0.70405 0.30098
 H576 H 0.30714 0.80197 0.19613
 H577 H 0.32168 0.73460 0.14988
 H578 H 0.36100 0.76571 0.18833
 H579 H 0.15102 0.76500 0.30313
 H580 H 0.19328 0.73181 0.34417
 H581 H 0.25153 0.68451 0.14931
 H582 H 0.28460 0.64914 0.19066
 H583 H 0.22837 0.85681 0.30011
 H584 H 0.26255 0.81793 0.34230
 H585 H 0.20022 0.64948 0.26485
 H586 H 0.15729 0.68527 0.22632
 H587 H 0.35086 0.81883 0.26951
 H588 H 0.31148 0.85709 0.22664
 O589 O 0.74545 0.34025 0.31084
 O590 O 0.78345 0.35519 0.25769
 O591 O 0.64913 0.29065 0.25284
 O592 O 0.63493 0.23899 0.22231
 O593 O 0.69837 0.23859 0.35485
 O594 O 0.75295 0.19963 0.36354
 O595 O 0.74801 0.19515 0.15823
 O596 O 0.70425 0.24442 0.15021
 O597 O 0.84456 0.25191 0.20382
 O598 O 0.85771 0.28797 0.25739
 O599 O 0.80490 0.14940 0.25070
 O600 O 0.75426 0.13338 0.29390
 O601 O 0.75174 0.14866 0.20195
 O602 O 0.71134 0.13453 0.25737
 O603 O 0.84771 0.19680 0.25114
 O604 O 0.85590 0.25056 0.29825
 O605 O 0.79921 0.24761 0.15905
 O606 O 0.74689 0.28819 0.14862
 O607 O 0.75202 0.29414 0.35460
 O608 O 0.79074 0.24155 0.36568
 O609 O 0.65228 0.23989 0.31056
 O610 O 0.64602 0.19379 0.25794
 O611 O 0.69089 0.33808 0.26094
 O612 O 0.74120 0.35242 0.21725
 Zr613 Zr 0.74355 0.31106 0.25978
 O614 O 0.78003 0.28180 0.22382
 Zr615 Zr 0.68141 0.24170 0.25926
 O616 O 0.71466 0.20977 0.22246
 Zr617 Zr 0.74863 0.24357 0.32394
 O618 O 0.78471 0.21080 0.29031
 Zr619 Zr 0.74871 0.24509 0.18968
 O620 O 0.71162 0.27750 0.22299
 Zr621 Zr 0.81551 0.24624 0.25475
 O622 O 0.78258 0.27951 0.29134
 Zr623 Zr 0.75277 0.17716 0.25368
 O624 O 0.71663 0.20634 0.29096
 O625 O 0.71107 0.27744 0.29470
 O626 O 0.78608 0.21048 0.21875
 C627 C 0.75034 0.32883 0.34458
 C628 C 0.65719 0.32556 0.25670
 C629 C 0.66367 0.23782 0.34468
 C630 C 0.74888 0.16043 0.16803
 C631 C 0.83359 0.25139 0.16951
 C632 C 0.83879 0.16186 0.24968
 H633 H 0.79477 0.30023 0.20917
 H634 H 0.80139 0.19561 0.30650
 H635 H 0.69479 0.29267 0.31128
 H636 H 0.69778 0.19428 0.20684
 H637 H 0.68474 0.26191 0.15956
 H638 H 0.64479 0.23128 0.19758
 H639 H 0.85682 0.22620 0.31162
 H640 H 0.81328 0.25335 0.35455
 H641 H 0.76261 0.30932 0.15747
 H642 H 0.72260 0.34353 0.19855
 H643 H 0.77447 0.13918 0.31209
 H644 H 0.73976 0.17783 0.35242
 H645 H 0.80319 0.34923 0.27638
 H646 H 0.84573 0.31170 0.24949
 H647 H 0.65321 0.17771 0.27945
 H648 H 0.69275 0.13891 0.23718
 C649 C 0.22730 0.07052 0.11270
 C650 C 0.25096 0.07521 0.08100
 C651 C 0.27362 0.10734 0.07829
 C652 C 0.27283 0.13496 0.10589
 C653 C 0.24936 0.13142 0.13719
 C654 C 0.22553 0.09943 0.14035
 C655 C 0.20558 0.03762 0.11786
 C656 C 0.18093 0.03440 0.14807
 C657 C 0.17708 0.06376 0.17341
 C658 C 0.19894 0.09603 0.16961
 H659 H 0.20763 0.01394 0.09903
 H660 H 0.16445 0.00915 0.15169
 H661 H 0.15717 0.06144 0.19624
 H662 H 0.19410 0.11840 0.18934
 H663 H 0.29185 0.11132 0.05427
 H664 H 0.29098 0.15927 0.10290
 C665 C 0.72488 0.57097 0.61452
 C666 C 0.74981 0.57416 0.58359
 C667 C 0.77417 0.60507 0.58137
 C668 C 0.77402 0.63289 0.60880
 C669 C 0.74953 0.63069 0.63942
 C670 C 0.72381 0.60011 0.64192
 C671 C 0.70137 0.53923 0.61926
 C672 C 0.67568 0.53744 0.64870
 C673 C 0.67272 0.56710 0.67383
 C674 C 0.69632 0.59822 0.67048
 H675 H 0.70276 0.51529 0.60075
 H676 H 0.65774 0.51303 0.65181
 H677 H 0.65219 0.56587 0.69617
 H678 H 0.69226 0.62088 0.69007
 H679 H 0.79342 0.60784 0.55798
 H680 H 0.79353 0.65618 0.60632
 C681 C 0.70908 0.91648 0.10911
 C682 C 0.73957 0.92059 0.08319
 C683 C 0.76961 0.89492 0.08506
 C684 C 0.76953 0.86534 0.11059
 C685 C 0.73981 0.86052 0.13572
 C686 C 0.70884 0.88544 0.13454
 C687 C 0.67993 0.94346 0.11235
 C688 C 0.64988 0.93797 0.13686
 C689 C 0.64830 0.90602 0.15918
 C690 C 0.67752 0.88005 0.15828
 H691 H 0.68024 0.96972 0.09728
 H692 H 0.62774 0.95875 0.13863
 H693 H 0.62465 0.90166 0.17779
 H694 H 0.67522 0.85562 0.17614
 H695 H 0.79327 0.89715 0.06604
 H696 H 0.79351 0.84655 0.11140
 C697 C 0.20924 0.39721 0.57453
 C698 C 0.23937 0.42373 0.57441
 C699 C 0.26734 0.42107 0.60202
 C700 C 0.26550 0.39385 0.62987
 C701 C 0.23512 0.36903 0.63200
 C702 C 0.20651 0.37058 0.60439
 C703 C 0.18237 0.39548 0.54529
 C704 C 0.15229 0.37034 0.54691
 C705 C 0.14841 0.34619 0.57733
 C706 C 0.17526 0.34613 0.60580
 H707 H 0.18454 0.41257 0.52040
 H708 H 0.13186 0.36958 0.52439
 H709 H 0.12474 0.32706 0.57862
 H710 H 0.17125 0.32689 0.62891
 H711 H 0.29101 0.44030 0.60212
 H712 H 0.28852 0.39165 0.64955
 C713 C 0.71737 0.10967 0.93428
 C714 C 0.74387 0.07992 0.93174
 C715 C 0.76978 0.07967 0.90220
 C716 C 0.76904 0.10749 0.87473
 C717 C 0.74213 0.13627 0.87568
 C718 C 0.71538 0.13701 0.90517
 C719 C 0.69308 0.11325 0.96541
 C720 C 0.66555 0.14106 0.96641
 C721 C 0.66154 0.16572 0.93644
 C722 C 0.68606 0.16372 0.90604
 H723 H 0.69548 0.09513 0.98950
 H724 H 0.64699 0.14321 0.99037
 H725 H 0.63947 0.18665 0.93682
 H726 H 0.68131 0.18273 0.88303
 H727 H 0.79037 0.05735 0.89998
 H728 H 0.78973 0.10655 0.85244
 C729 C 0.29089 0.58337 0.39344
 C730 C 0.25963 0.58029 0.41832
 C731 C 0.23038 0.60670 0.41582
 C732 C 0.23121 0.63542 0.38945
 C733 C 0.26135 0.63885 0.36467
 C734 C 0.29208 0.61363 0.36718
 C735 C 0.32072 0.55704 0.39322
 C736 C 0.35204 0.56221 0.37020
 C737 C 0.35394 0.59282 0.34609
 C738 C 0.32425 0.61821 0.34434
 H739 H 0.32037 0.53194 0.41012
 H740 H 0.37505 0.54236 0.37110
 H741 H 0.37842 0.59677 0.32847
 H742 H 0.32707 0.64172 0.32540
 H743 H 0.20649 0.60521 0.43462
 H744 H 0.20772 0.65475 0.38788
 C745 C 0.28839 0.92432 0.89157
 C746 C 0.25856 0.92754 0.91829
 C747 C 0.22995 0.90012 0.91816
 C748 C 0.23049 0.87008 0.89322
 C749 C 0.25904 0.86670 0.86667
 C750 C 0.28909 0.89289 0.86665
 C751 C 0.31637 0.95240 0.88708
 C752 C 0.34590 0.94772 0.86181
 C753 C 0.34812 0.91544 0.84005
 C754 C 0.31997 0.88831 0.84225
 H755 H 0.31548 0.97882 0.90182
 H756 H 0.36719 0.96934 0.85909
 H757 H 0.37146 0.91167 0.82095
 H758 H 0.32283 0.86349 0.82505
 H759 H 0.20693 0.90141 0.93802
 H760 H 0.20743 0.85012 0.89363
 C761 C 0.78921 0.39022 0.42397
 C762 C 0.75810 0.41531 0.42883
 C763 C 0.72624 0.41081 0.40585
 C764 C 0.72436 0.38275 0.37888
 C765 C 0.75419 0.35788 0.37377
 C766 C 0.78721 0.36182 0.39566
 C767 C 0.82216 0.39190 0.44633
 C768 C 0.85233 0.36773 0.44009
 C769 C 0.85076 0.34140 0.41145
 C770 C 0.81867 0.33847 0.38932
 H771 H 0.82571 0.41128 0.46907
 H772 H 0.87724 0.36964 0.45748
 H773 H 0.87453 0.32311 0.40637
 H774 H 0.81897 0.31807 0.36693
 H775 H 0.70233 0.42947 0.40851
 H776 H 0.69917 0.38028 0.36189
 C777 C 0.10240 0.21207 0.08231
 C778 C 0.07643 0.24249 0.07996
 C779 C 0.07852 0.27148 0.10662
 C780 C 0.10542 0.27107 0.13499
 C781 C 0.13124 0.24168 0.13776
 C782 C 0.12931 0.21134 0.11208
 C783 C 0.10298 0.18262 0.05566
 C784 C 0.12694 0.15197 0.06007
 C785 C 0.15180 0.15052 0.09005
 C786 C 0.15334 0.17995 0.11570
 H787 H 0.08556 0.18273 0.03092
 H788 H 0.12616 0.12906 0.04017
 H789 H 0.17011 0.12654 0.09317
 H790 H 0.17304 0.17758 0.13865
 H791 H 0.05891 0.29475 0.10566
 H792 H 0.10646 0.29426 0.15465
 C793 C 0.61009 0.71444 0.57828
 C794 C 0.58069 0.74137 0.57889
 C795 C 0.57826 0.76658 0.60900
 C796 C 0.60417 0.76553 0.63831
 C797 C 0.63343 0.73930 0.63842
 C798 C 0.63593 0.71267 0.60883
 C799 C 0.61508 0.68979 0.54759
 C800 C 0.64324 0.66260 0.54809
 C801 C 0.66691 0.65935 0.57894
 C802 C 0.66334 0.68399 0.60910
 H803 H 0.59784 0.69150 0.52270
 H804 H 0.64660 0.64381 0.52446
 H805 H 0.68832 0.63781 0.57931
 H806 H 0.68185 0.68003 0.63274
 H807 H 0.55597 0.78730 0.60990
 H808 H 0.60187 0.78598 0.66069
 C809 C 0.07222 0.77865 0.88833
 C810 C 0.07375 0.75104 0.91723
 C811 C 0.10222 0.72371 0.91597
 C812 C 0.13063 0.72538 0.88904
 C813 C 0.13093 0.75358 0.86164
 C814 C 0.10149 0.78056 0.86107
 C815 C 0.04081 0.80273 0.88417
 C816 C 0.03954 0.82970 0.85596
 C817 C 0.06934 0.83329 0.83116
 C818 C 0.10023 0.80936 0.83381
 H819 H 0.01617 0.79995 0.90148
 H820 H 0.01517 0.84770 0.85316
 H821 H 0.06802 0.85418 0.80925
 H822 H 0.12280 0.81359 0.81414
 H823 H 0.10370 0.70189 0.93714
 H824 H 0.15256 0.70426 0.88948
 C825 C 0.60609 0.21080 0.43143
 C826 C 0.57866 0.23991 0.43052
 C827 C 0.58040 0.26704 0.40207
 C828 C 0.60803 0.26557 0.37461
 C829 C 0.63466 0.23670 0.37421
 C830 C 0.63363 0.20867 0.40242
 C831 C 0.60760 0.18429 0.46087
 C832 C 0.63387 0.15525 0.46062
 C833 C 0.65921 0.15196 0.43113
 C834 C 0.65918 0.17834 0.40225
 H835 H 0.58912 0.18592 0.48465
 H836 H 0.63446 0.13510 0.48337
 H837 H 0.67917 0.12902 0.43077
 H838 H 0.67906 0.17455 0.37972
 H839 H 0.56003 0.28965 0.40096
 H840 H 0.60902 0.28767 0.35381
 C841 C 0.92973 0.78017 0.11234
 C842 C 0.92824 0.75397 0.08225
 C843 C 0.89791 0.72881 0.08011
 C844 C 0.86918 0.72937 0.10663
 C845 C 0.86957 0.75530 0.13612
 C846 C 0.89936 0.78190 0.13843
 C847 C 0.96097 0.80426 0.11771
 C848 C 0.96087 0.83137 0.14592
 C849 C 0.92988 0.83506 0.16935
 C850 C 0.89939 0.81068 0.16573
 H851 H 0.98608 0.80214 0.10084
 H852 H 0.98488 0.84979 0.14944
 H853 H 0.92964 0.85667 0.19068
 H854 H 0.87572 0.81506 0.18411
 H855 H 0.89618 0.70868 0.05739
 H856 H 0.84662 0.70898 0.10436
 C857 C 0.41660 0.28939 0.60920
 C858 C 0.41744 0.26007 0.58190
 C859 C 0.38860 0.23305 0.58187
 C860 C 0.35963 0.23419 0.60800
 C861 C 0.35821 0.26254 0.63500
 C862 C 0.38590 0.29129 0.63493
 C863 C 0.44562 0.31650 0.61235
 C864 C 0.44265 0.34642 0.63739
 C865 C 0.41142 0.34958 0.66057
 C866 C 0.38339 0.32223 0.65964
 H867 H 0.47126 0.31492 0.59634
 H868 H 0.46488 0.36720 0.63897
 H869 H 0.40915 0.37306 0.67973
 H870 H 0.35954 0.32596 0.67799
 H871 H 0.38841 0.21063 0.56134
 H872 H 0.33845 0.21226 0.60755
 C873 C 0.91540 0.28908 0.90148
 C874 C 0.91796 0.25841 0.92742
 C875 C 0.89081 0.22964 0.92543
 C876 C 0.86135 0.23107 0.89982
 C877 C 0.85818 0.26081 0.87455
 C878 C 0.88449 0.29065 0.87587
 C879 C 0.94370 0.31705 0.89834
 C880 C 0.93967 0.34726 0.87376
 C881 C 0.90790 0.35017 0.85126
 C882 C 0.88063 0.32210 0.85206
 H883 H 0.96989 0.31569 0.91351
 H884 H 0.96145 0.36849 0.87208
 H885 H 0.90469 0.37395 0.83260
 H886 H 0.85635 0.32538 0.83412
 H887 H 0.89173 0.20594 0.94451
 H888 H 0.84129 0.20810 0.89908
 C889 C 0.39439 0.78413 0.42491
 C890 C 0.42153 0.75475 0.42486
 C891 C 0.42070 0.72794 0.39613
 C892 C 0.39443 0.73023 0.36730
 C893 C 0.36845 0.75970 0.36578
 C894 C 0.36845 0.78721 0.39449
 C895 C 0.39165 0.80999 0.45487
 C896 C 0.36586 0.83946 0.45366
 C897 C 0.34223 0.84374 0.42286
 C898 C 0.34338 0.81793 0.39353
 H899 H 0.40866 0.80746 0.47984
 H900 H 0.36429 0.85915 0.47673
 H901 H 0.32265 0.86700 0.42184
 H902 H 0.32473 0.82246 0.37003
 H903 H 0.44085 0.70510 0.39577
 H904 H 0.39390 0.70828 0.34636
 C905 C 0.11523 0.06503 0.27379
 C906 C 0.08468 0.06902 0.24843
 C907 C 0.08222 0.10131 0.22616
 C908 C 0.10853 0.13012 0.22964
 C909 C 0.13803 0.12773 0.25568
 C910 C 0.14123 0.09518 0.27850
 C911 C 0.12085 0.03149 0.29430
 C912 C 0.14969 0.02873 0.32065
 C913 C 0.17329 0.05920 0.32724
 C914 C 0.16911 0.09217 0.30654
 H915 H 0.10350 0.00691 0.28986
 H916 H 0.15349 0.00294 0.33630
 H917 H 0.19507 0.05726 0.34839
 H918 H 0.18738 0.11537 0.31330
 H919 H 0.05924 0.10468 0.20648
 H920 H 0.10593 0.15449 0.21159
 C921 C 0.61158 0.56766 0.78240
 C922 C 0.58193 0.57117 0.75589
 C923 C 0.58182 0.60148 0.73091
 C924 C 0.60962 0.62890 0.73263
 C925 C 0.63851 0.62691 0.75932
 C926 C 0.63956 0.59629 0.78477
 C927 C 0.61436 0.53614 0.80637
 C928 C 0.64274 0.53388 0.83327
 C929 C 0.66869 0.56290 0.83702
 C930 C 0.66712 0.59390 0.81317
 H931 H 0.59506 0.51278 0.80442
 H932 H 0.64439 0.50962 0.85152
 H933 H 0.69021 0.56137 0.85846
 H934 H 0.68727 0.61608 0.81766
 H935 H 0.55951 0.60445 0.71040
 H936 H 0.60860 0.65195 0.71278
 C937 C 0.91757 0.10737 0.79278
 C938 C 0.92424 0.08573 0.75949
 C939 C 0.90284 0.09391 0.72724
 C940 C 0.87388 0.12018 0.72810
 C941 C 0.86521 0.13938 0.76106
 C942 C 0.88668 0.13294 0.79382
 C943 C 0.94148 0.10581 0.82465
 C944 C 0.93237 0.12460 0.85765
 C945 C 0.90026 0.14661 0.85944
 C946 C 0.87800 0.15155 0.82771
 H947 H 0.96815 0.09146 0.82456
 H948 H 0.95051 0.12228 0.88194
 H949 H 0.89313 0.16050 0.88536
 H950 H 0.85395 0.16994 0.83005
 H951 H 0.90740 0.07881 0.70127
 H952 H 0.85776 0.12530 0.70280
 C953 C 0.44341 0.61911 0.26066
 C954 C 0.43293 0.58332 0.24688
 C955 C 0.39666 0.57754 0.23314
 C956 C 0.37028 0.60627 0.23372
 C957 C 0.37908 0.64201 0.24809
 C958 C 0.41624 0.64868 0.26203
 C959 C 0.48065 0.62621 0.27260
 C960 C 0.49087 0.66129 0.28652
 C961 C 0.46416 0.68952 0.28984
 C962 C 0.42728 0.68340 0.27797
 H963 H 0.50228 0.60493 0.27082
 H964 H 0.51962 0.66660 0.29488
 H965 H 0.47210 0.71646 0.30155
 H966 H 0.40811 0.70634 0.28200
 H967 H 0.38846 0.55024 0.22238
 H968 H 0.34248 0.60032 0.22272
 C969 C 0.10079 0.92129 0.78701
 C970 C 0.07435 0.92444 0.75685
 C971 C 0.07830 0.90076 0.72563
 C972 C 0.10702 0.87426 0.72370
 C973 C 0.13356 0.87109 0.75243
 C974 C 0.13067 0.89454 0.78446
 C975 C 0.09856 0.94356 0.81991
 C976 C 0.12419 0.93952 0.84905
 C977 C 0.15268 0.91328 0.84655
 C978 C 0.15600 0.89083 0.81486
 H979 H 0.07735 0.96427 0.82465
 H980 H 0.12171 0.95673 0.87395
 H981 H 0.17204 0.91028 0.86954
 H982 H 0.17821 0.87023 0.81499
 H983 H 0.05855 0.90238 0.70253
 H984 H 0.10875 0.85622 0.69930
 C985 C 0.56065 0.37518 0.26344
 C986 C 0.57121 0.41105 0.25000
 C987 C 0.60815 0.41758 0.23859
 C988 C 0.63506 0.38944 0.24111
 C989 C 0.62612 0.35366 0.25530
 C990 C 0.58833 0.34631 0.26703
 C991 C 0.52287 0.36736 0.27295
 C992 C 0.51255 0.33221 0.28665
 C993 C 0.53965 0.30473 0.29234
 C994 C 0.57709 0.31161 0.28295
 H995 H 0.50093 0.38812 0.26940
 H996 H 0.48344 0.32632 0.29307
 H997 H 0.53160 0.27780 0.30402
 H998 H 0.59654 0.28933 0.28893
 H999 H 0.61640 0.44500 0.22817
 H1000 H 0.66333 0.39585 0.23172
 C1001 C 0.88773 0.92648 0.22053
 C1002 C 0.91699 0.92628 0.24800
 C1003 C 0.91567 0.89922 0.27675
 C1004 C 0.88846 0.87115 0.27703
 C1005 C 0.86083 0.86942 0.24922
 C1006 C 0.86025 0.89711 0.22051
 C1007 C 0.88352 0.95625 0.19445
 C1008 C 0.85539 0.95541 0.16728
 C1009 C 0.83067 0.92527 0.16551
 C1010 C 0.83303 0.89626 0.19161
 H1011 H 0.90061 0.98130 0.19541
 H1012 H 0.85264 0.97841 0.14760
 H1013 H 0.80903 0.92491 0.14427
 H1014 H 0.81322 0.87343 0.18887
 H1015 H 0.93700 0.89855 0.29848
 H1016 H 0.88909 0.85034 0.29923
 C1017 C 0.37567 0.44143 0.73539
 C1018 C 0.41010 0.43199 0.75296
 C1019 C 0.41417 0.39724 0.77053
 C1020 C 0.38519 0.37112 0.76991
 C1021 C 0.35084 0.37882 0.75198
 C1022 C 0.34568 0.41468 0.73456
 C1023 C 0.37035 0.47724 0.71904
 C1024 C 0.33676 0.48632 0.70119
 C1025 C 0.30787 0.46010 0.69931
 C1026 C 0.31211 0.42478 0.71571
 H1027 H 0.39191 0.49867 0.72009
 H1028 H 0.33315 0.51382 0.68870
 H1029 H 0.28191 0.46717 0.68507
 H1030 H 0.28864 0.40604 0.71279
 H1031 H 0.44038 0.38995 0.78427
 H1032 H 0.38986 0.34436 0.78364
 C1033 C 0.06683 0.22021 0.89107
 C1034 C 0.06942 0.24597 0.92146
 C1035 C 0.09957 0.27138 0.92268
 C1036 C 0.12701 0.27160 0.89492
 C1037 C 0.12551 0.24625 0.86499
 C1038 C 0.09597 0.21935 0.86356
 C1039 C 0.03580 0.19563 0.88682
 C1040 C 0.03512 0.16887 0.85831
 C1041 C 0.06504 0.16603 0.83345
 C1042 C 0.09520 0.19093 0.83598
 H1043 H 0.01148 0.19699 0.90486
 H1044 H 0.01141 0.15000 0.85565
 H1045 H 0.06468 0.14466 0.81189
 H1046 H 0.11812 0.18720 0.81665
 H1047 H 0.10210 0.29123 0.94557
 H1048 H 0.14952 0.29210 0.89668
 C1049 C 0.57918 0.70711 0.39334
 C1050 C 0.57882 0.73627 0.42077
 C1051 C 0.60781 0.76309 0.42055
 C1052 C 0.63654 0.76179 0.39413
 C1053 C 0.63758 0.73352 0.36697
 C1054 C 0.60955 0.70511 0.36716
 C1055 C 0.54990 0.68027 0.39050
 C1056 C 0.55221 0.65055 0.36516
 C1057 C 0.58308 0.64730 0.34151
 C1058 C 0.61140 0.67438 0.34220
 H1059 H 0.52460 0.68198 0.40705
 H1060 H 0.52974 0.63002 0.36369
 H1061 H 0.58472 0.62401 0.32211
 H1062 H 0.63496 0.67070 0.32346
 H1063 H 0.60837 0.78541 0.44119
 H1064 H 0.65787 0.78359 0.39449
 C1065 C 0.91709 0.79192 0.90089
 C1066 C 0.92483 0.75901 0.92316
 C1067 C 0.90375 0.72617 0.91599
 C1068 C 0.87533 0.72533 0.88923
 C1069 C 0.86724 0.75688 0.86761
 C1070 C 0.88793 0.79045 0.87314
 C1071 C 0.93800 0.82590 0.90384
 C1072 C 0.92940 0.85718 0.88206
 C1073 C 0.90021 0.85580 0.85642
 C1074 C 0.87972 0.82285 0.85171
 H1075 H 0.96180 0.82965 0.92190
 H1076 H 0.94571 0.88274 0.88502
 H1077 H 0.89377 0.88040 0.83997
 H1078 H 0.85715 0.82315 0.83138
 H1079 H 0.90851 0.70068 0.93193
 H1080 H 0.85966 0.69951 0.88509
 C1081 C 0.42393 0.28427 0.39310
 C1082 C 0.42312 0.25594 0.42139
 C1083 C 0.39448 0.22877 0.42049
 C1084 C 0.36697 0.22917 0.39282
 C1085 C 0.36682 0.25687 0.36506
 C1086 C 0.39468 0.28544 0.36562
 C1087 C 0.45314 0.31124 0.39089
 C1088 C 0.45157 0.34050 0.36495
 C1089 C 0.42154 0.34314 0.34013
 C1090 C 0.39349 0.31579 0.34013
 H1091 H 0.47781 0.31001 0.40843
 H1092 H 0.47392 0.36118 0.36399
 H1093 H 0.42042 0.36613 0.32030
 H1094 H 0.37063 0.31902 0.32047
 H1095 H 0.39310 0.20702 0.44171
 H1096 H 0.34561 0.20741 0.39299
 C1097 C 0.11693 0.72279 0.06829
 C1098 C 0.08699 0.74889 0.07209
 C1099 C 0.08639 0.77315 0.10297
 C1100 C 0.11407 0.77122 0.13050
 C1101 C 0.14325 0.74488 0.12818
 C1102 C 0.14455 0.71992 0.09718
 C1103 C 0.12049 0.69986 0.03613
 C1104 C 0.14900 0.67313 0.03363
 C1105 C 0.17434 0.66858 0.06300
 C1106 C 0.17216 0.69158 0.09454
 H1107 H 0.10179 0.70260 0.01240
 H1108 H 0.15122 0.65564 0.00891
 H1109 H 0.19592 0.64721 0.06128
 H1110 H 0.19187 0.68646 0.11695
 H1111 H 0.06391 0.79344 0.10615
 H1112 H 0.11283 0.79071 0.15382
 C1113 C 0.59711 0.20865 0.59044
 C1114 C 0.57453 0.24128 0.58374
 C1115 C 0.58094 0.27360 0.60550
 C1116 C 0.60844 0.27437 0.63316
 C1117 C 0.63026 0.24273 0.64062
 C1118 C 0.62478 0.20952 0.61954
 C1119 C 0.59392 0.17540 0.56881
 C1120 C 0.61611 0.14402 0.57636
 C1121 C 0.64204 0.14474 0.60547
 C1122 C 0.64643 0.17708 0.62692
 H1123 H 0.57492 0.17263 0.54561
 H1124 H 0.61311 0.11892 0.55947
 H1125 H 0.65900 0.12018 0.61134
 H1126 H 0.66694 0.17638 0.64929
 H1127 H 0.56446 0.29881 0.60112
 H1128 H 0.61305 0.30017 0.64859
 C1129 C 0.92305 0.27842 0.11590
 C1130 C 0.92043 0.25288 0.08542
 C1131 C 0.88957 0.22840 0.08325
 C1132 C 0.86135 0.22904 0.11023
 C1133 C 0.86274 0.25451 0.14007
 C1134 C 0.89307 0.28045 0.14235
 C1135 C 0.95501 0.30152 0.12132
 C1136 C 0.95595 0.32810 0.14999
 C1137 C 0.92522 0.33232 0.17370
 C1138 C 0.89402 0.30887 0.16993
 H1139 H 0.97984 0.29903 0.10409
 H1140 H 0.98049 0.34579 0.15357
 H1141 H 0.92564 0.35370 0.19527
 H1142 H 0.87043 0.31379 0.18825
 H1143 H 0.88716 0.20860 0.06030
 H1144 H 0.83848 0.20898 0.10808
 C1145 C 0.42891 0.78009 0.61092
 C1146 C 0.42585 0.75410 0.58083
 C1147 C 0.39414 0.73075 0.57861
 C1148 C 0.36554 0.73291 0.60512
 C1149 C 0.36747 0.75872 0.63467
 C1150 C 0.39877 0.78346 0.63708
 C1151 C 0.46147 0.80234 0.61620
 C1152 C 0.46308 0.82917 0.64462
 C1153 C 0.43242 0.83450 0.66819
 C1154 C 0.40051 0.81202 0.66446
 H1155 H 0.48621 0.79905 0.59901
 H1156 H 0.48812 0.84617 0.64812
 H1157 H 0.43343 0.85603 0.68960
 H1158 H 0.37703 0.81780 0.68267
 H1159 H 0.39134 0.71066 0.55595
 H1160 H 0.34190 0.71378 0.60285
 C1161 C 0.22034 0.11454 0.92648
 C1162 C 0.24887 0.08658 0.92499
 C1163 C 0.27523 0.08762 0.89577
 C1164 C 0.27335 0.11504 0.86790
 C1165 C 0.24500 0.14232 0.86819
 C1166 C 0.21757 0.14161 0.89709
 C1167 C 0.19455 0.11652 0.95659
 C1168 C 0.16509 0.14232 0.95613
 C1169 C 0.16075 0.16670 0.92606
 C1170 C 0.18661 0.16642 0.89678
 H1171 H 0.19698 0.09871 0.98100
 H1172 H 0.14524 0.14320 0.97901
 H1173 H 0.13736 0.18609 0.92561
 H1174 H 0.18163 0.18518 0.87362
 H1175 H 0.29713 0.06655 0.89410
 H1176 H 0.29434 0.11501 0.84589
 C1177 C 0.78248 0.56941 0.39280
 C1178 C 0.75524 0.57183 0.42184
 C1179 C 0.72992 0.60196 0.42200
 C1180 C 0.73179 0.62999 0.39474
 C1181 C 0.75920 0.62900 0.36652
 C1182 C 0.78543 0.59895 0.36591
 C1183 C 0.80654 0.53797 0.38939
 C1184 C 0.83455 0.53701 0.36210
 C1185 C 0.83928 0.56720 0.33780
 C1186 C 0.81511 0.59793 0.33967
 H1187 H 0.80372 0.51359 0.40722
 H1188 H 0.85292 0.51286 0.36004
 H1189 H 0.86167 0.56672 0.31725
 H1190 H 0.82043 0.62107 0.32090
 H1191 H 0.70878 0.60413 0.44376
 H1192 H 0.71136 0.65256 0.39551
 C1193 C 0.70740 0.09894 0.08993
 C1194 C 0.73965 0.07597 0.08147
 C1195 C 0.77329 0.08273 0.10155
 C1196 C 0.77557 0.10982 0.12947
 C1197 C 0.74465 0.13199 0.13829
 C1198 C 0.71027 0.12677 0.11884
 C1199 C 0.67270 0.09657 0.07014
 C1200 C 0.64212 0.11914 0.07948
 C1201 C 0.64490 0.14494 0.10841
 C1202 C 0.67853 0.14887 0.12787
 H1203 H 0.66783 0.07837 0.04673
 H1204 H 0.61604 0.11667 0.06395
 H1205 H 0.62097 0.16227 0.11560
 H1206 H 0.67930 0.16952 0.14997
 H1207 H 0.79840 0.06632 0.09633
 H1208 H 0.80195 0.11365 0.14428
 C1209 C 0.22504 0.61835 0.56769
 C1210 C 0.24841 0.58626 0.57221
 C1211 C 0.27137 0.58355 0.60407
 C1212 C 0.27093 0.61126 0.63162
 C1213 C 0.24727 0.64260 0.62853
 C1214 C 0.22323 0.64580 0.59682
 C1215 C 0.20384 0.62425 0.53463
 C1216 C 0.17923 0.65454 0.53163
 C1217 C 0.17509 0.67944 0.56135
 C1218 C 0.19671 0.67515 0.59368
 H1219 H 0.20636 0.60609 0.51053
 H1220 H 0.16298 0.65848 0.50624
 H1221 H 0.15520 0.70235 0.55926
 H1222 H 0.19181 0.69462 0.61629
 H1223 H 0.28956 0.55944 0.60794
 H1224 H 0.28941 0.60824 0.65562
 C1225 C 0.77115 0.88626 0.93313
 C1226 C 0.74655 0.91732 0.92882
 C1227 C 0.72392 0.91983 0.89676
 C1228 C 0.72562 0.89252 0.86882
 C1229 C 0.75007 0.86179 0.87192
 C1230 C 0.77400 0.85912 0.90389
 C1231 C 0.79254 0.88109 0.96623
 C1232 C 0.81806 0.85160 0.96934
 C1233 C 0.82286 0.82677 0.93973
 C1234 C 0.80124 0.83052 0.90733
 H1235 H 0.78950 0.89926 0.99027
 H1236 H 0.83439 0.84818 0.99475
 H1237 H 0.84323 0.80431 0.94200
 H1238 H 0.80670 0.81121 0.88492
 H1239 H 0.70496 0.94337 0.89314
 H1240 H 0.70728 0.89522 0.84469
 C1241 C 0.27688 0.39085 0.42667
 C1242 C 0.25143 0.42146 0.42349
 C1243 C 0.22675 0.42285 0.39283
 C1244 C 0.22719 0.39506 0.36530
 C1245 C 0.25255 0.36503 0.36724
 C1246 C 0.27868 0.36356 0.39745
 C1247 C 0.30024 0.38624 0.45849
 C1248 C 0.32692 0.35763 0.45993
 C1249 C 0.33094 0.33315 0.42990
 C1250 C 0.30723 0.33609 0.39891
 H1251 H 0.29787 0.40403 0.48287
 H1252 H 0.34481 0.35468 0.48434
 H1253 H 0.35229 0.31154 0.43084
 H1254 H 0.31199 0.31720 0.37591
 H1255 H 0.20709 0.44591 0.38995
 H1256 H 0.20726 0.39689 0.34237
 C1257 C 0.23079 0.88661 0.06524
 C1258 C 0.25442 0.91854 0.06972
 C1259 C 0.27680 0.92175 0.10185
 C1260 C 0.27549 0.89455 0.12987
 C1261 C 0.25178 0.86322 0.12670
 C1262 C 0.22859 0.85934 0.09445
 C1263 C 0.20937 0.88102 0.03228
 C1264 C 0.18457 0.85081 0.02921
 C1265 C 0.18048 0.82568 0.05879
 C1266 C 0.20212 0.82985 0.09112
 H1267 H 0.21177 0.89960 0.00845
 H1268 H 0.16816 0.84710 0.00389
 H1269 H 0.16053 0.80276 0.05663
 H1270 H 0.19717 0.81028 0.11364
 H1271 H 0.29486 0.94600 0.10569
 H1272 H 0.29335 0.89794 0.15429
 C1273 C 0.77460 0.38687 0.58053
 C1274 C 0.74871 0.41727 0.58105
 C1275 C 0.72200 0.41920 0.60990
 C1276 C 0.72103 0.39223 0.63828
 C1277 C 0.74692 0.36258 0.63894
 C1278 C 0.77484 0.36043 0.61057
 C1279 C 0.79989 0.38160 0.55047
 C1280 C 0.82679 0.35318 0.55143
 C1281 C 0.82915 0.32949 0.58232
 C1282 C 0.80357 0.33303 0.61168
 H1283 H 0.79874 0.39882 0.52571
 H1284 H 0.84614 0.34978 0.52825
 H1285 H 0.85071 0.30806 0.58343
 H1286 H 0.80705 0.31456 0.63541
 H1287 H 0.70189 0.44203 0.61072
 H1288 H 0.69968 0.39441 0.65984
 C1289 C 0.10754 0.07569 0.78370
 C1290 C 0.07777 0.07627 0.75698
 C1291 C 0.07682 0.10502 0.73011
 C1292 C 0.10405 0.13309 0.72958
 C1293 C 0.13326 0.13348 0.75587
 C1294 C 0.13476 0.10516 0.78383
 C1295 C 0.11141 0.04631 0.81000
 C1296 C 0.13962 0.04700 0.83712
 C1297 C 0.16458 0.07697 0.83871
 C1298 C 0.16216 0.10591 0.81253
 H1299 H 0.09324 0.02228 0.80961
 H1300 H 0.14199 0.02427 0.85715
 H1301 H 0.18609 0.07757 0.86015
 H1302 H 0.18160 0.12897 0.81534
 H1303 H 0.05441 0.10612 0.70952
 H1304 H 0.10232 0.15477 0.70828
 C1305 C 0.61920 0.56233 0.27604
 C1306 C 0.58863 0.56581 0.25054
 C1307 C 0.58729 0.59663 0.22620
 C1308 C 0.61483 0.62436 0.22735
 C1309 C 0.64471 0.62233 0.25290
 C1310 C 0.64681 0.59143 0.27805
 C1311 C 0.62320 0.53051 0.29943
 C1312 C 0.65210 0.52856 0.32582
 C1313 C 0.67748 0.55810 0.32951
 C1314 C 0.67493 0.58927 0.30598
 H1315 H 0.60452 0.50662 0.29731
 H1316 H 0.65464 0.50411 0.34371
 H1317 H 0.69941 0.55676 0.35055
 H1318 H 0.69482 0.61173 0.31041
 H1319 H 0.56413 0.59982 0.20668
 H1320 H 0.61269 0.64784 0.20810
 C1321 C 0.10460 0.91513 0.20686
 C1322 C 0.07862 0.91693 0.23733
 C1323 C 0.08128 0.89022 0.26620
 C1324 C 0.10873 0.86234 0.26563
 C1325 C 0.13446 0.86004 0.23612
 C1326 C 0.13178 0.88562 0.20579
 C1327 C 0.10509 0.94218 0.17772
 C1328 C 0.12882 0.93813 0.14691
 C1329 C 0.15360 0.90811 0.14497
 C1330 C 0.15545 0.88221 0.17418
 H1331 H 0.08795 0.96710 0.17821
 H1332 H 0.12803 0.95852 0.12439
 H1333 H 0.17170 0.90522 0.12084
 H1334 H 0.17509 0.85921 0.17150
 H1335 H 0.06188 0.89093 0.28960
 H1336 H 0.11040 0.84281 0.28889
 C1337 C 0.55739 0.38117 0.74050
 C1338 C 0.56653 0.41646 0.75633
 C1339 C 0.60255 0.42267 0.77064
 C1340 C 0.62994 0.39489 0.76865
 C1341 C 0.62239 0.35981 0.75218
 C1342 C 0.58561 0.35280 0.73746
 C1343 C 0.52044 0.37339 0.72803
 C1344 C 0.51161 0.33893 0.71182
 C1345 C 0.53944 0.31209 0.70666
 C1346 C 0.57603 0.31890 0.71905
 H1347 H 0.49798 0.39362 0.73116
 H1348 H 0.48309 0.33309 0.70303
 H1349 H 0.53264 0.28575 0.69305
 H1350 H 0.59627 0.29731 0.71332
 H1351 H 0.60985 0.44959 0.78279
 H1352 H 0.65741 0.40097 0.78037
 C1353 C 0.93097 0.11186 0.22430
 C1354 C 0.92841 0.08024 0.24857
 C1355 C 0.89730 0.07672 0.27236
 C1356 C 0.86847 0.10317 0.27183
 C1357 C 0.86967 0.13403 0.24743
 C1358 C 0.90079 0.13820 0.22278
 C1359 C 0.96308 0.11822 0.20178
 C1360 C 0.96437 0.14822 0.17665
 C1361 C 0.93383 0.17236 0.17331
 C1362 C 0.90229 0.16744 0.19598
 H1363 H 0.98770 0.10057 0.20367
 H1364 H 0.98909 0.15257 0.15946
 H1365 H 0.93465 0.19514 0.15320
 H1366 H 0.87902 0.18638 0.19177
 H1367 H 0.89483 0.05276 0.29096
 H1368 H 0.84498 0.09957 0.29085
 C1369 C 0.42665 0.61560 0.72209
 C1370 C 0.42308 0.58494 0.74737
 C1371 C 0.39057 0.58173 0.76934
 C1372 C 0.36173 0.60804 0.76666
 C1373 C 0.36435 0.63842 0.74183
 C1374 C 0.39652 0.64178 0.71840
 C1375 C 0.45974 0.62134 0.70086
 C1376 C 0.46212 0.65058 0.67494
 C1377 C 0.43175 0.67456 0.66954
 C1378 C 0.39920 0.67024 0.69088
 H1379 H 0.48428 0.60380 0.70436
 H1380 H 0.48758 0.65448 0.65875
 H1381 H 0.43350 0.69676 0.64886
 H1382 H 0.37606 0.68895 0.68513
 H1383 H 0.38726 0.55833 0.78851
 H1384 H 0.33740 0.60503 0.78471
 C1385 C 0.87959 0.93273 0.77717
 C1386 C 0.91120 0.92923 0.75315
 C1387 C 0.91461 0.89750 0.73025
 C1388 C 0.88805 0.86877 0.73165
 C1389 C 0.85722 0.87077 0.75600
 C1390 C 0.85307 0.90275 0.77956
 C1391 C 0.87370 0.96540 0.79895
 C1392 C 0.84411 0.96734 0.82447
 C1393 C 0.81993 0.93694 0.82888
 C1394 C 0.82429 0.90498 0.80676
 H1395 H 0.89158 0.98986 0.79632
 H1396 H 0.84021 0.99238 0.84123
 H1397 H 0.79765 0.93814 0.84952
 H1398 H 0.80567 0.88178 0.81214
 H1399 H 0.93861 0.89445 0.71179
 H1400 H 0.89165 0.84465 0.71347
 C1401 C 0.38526 0.42921 0.27640
 C1402 C 0.41512 0.42693 0.25001
 C1403 C 0.41617 0.39668 0.22488
 C1404 C 0.38896 0.36854 0.22597
 C1405 C 0.35984 0.36950 0.25235
 C1406 C 0.35837 0.39949 0.27854
 C1407 C 0.38121 0.46037 0.30064
 C1408 C 0.35340 0.46074 0.32818
 C1409 C 0.32917 0.43037 0.33217
 C1410 C 0.33156 0.40001 0.30770
 H1411 H 0.39893 0.48496 0.29836
 H1412 H 0.35080 0.48452 0.34678
 H1413 H 0.30824 0.43051 0.35418
 H1414 H 0.31277 0.37673 0.31234
 H1415 H 0.43880 0.39432 0.20469
 H1416 H 0.39069 0.34569 0.20597
   
