data_POSCAR
  _audit_creation_date              2014-09-24
  _audit_creation_method            'ToBaCCo'
  _symmetry_space_group_name_H-M    'P1'
  _symmetry_Int_Tables_number       1
  _symmetry_cell_setting            triclinic
  loop_
  _symmetry_equiv_pos_as_xyz
 x,y,z
_cell_length_a 61.9024
_cell_length_b 62.0661
_cell_length_c 66.6412
_cell_angle_alpha 88.356000
_cell_angle_beta 90.980700
_cell_angle_gamma 91.195700
loop_
  _atom_site_label
  _atom_site_type_symbol
  _atom_site_fract_x
  _atom_site_fract_y
  _atom_site_fract_z
C1 C 0.41855 0.01560 0.27685
 C2 C 0.40218 0.03375 0.27382
 C3 C 0.38877 0.03141 0.25748
 C4 C 0.39291 0.01085 0.24576
 C5 C 0.40483 -0.00504 0.27764
 C6 C 0.39130 -0.00777 0.26162
 C7 C 0.43040 0.01509 0.25694
 C8 C 0.41714 0.01287 0.24055
 H9 H 0.40181 0.04760 0.28331
 H10 H 0.38201 0.00871 0.23253
 H11 H 0.40551 -0.01634 0.29033
 H12 H 0.44769 0.01782 0.25591
 C13 C 0.08059 -0.00106 0.77302
 C14 C 0.09379 -0.02162 0.77144
 C15 C 0.10736 -0.02135 0.75545
 C16 C 0.10639 -0.00022 0.74253
 C17 C 0.09751 0.01711 0.77347
 C18 C 0.11114 0.01786 0.75767
 C19 C 0.06952 0.00144 0.75385
 C20 C 0.08346 0.00170 0.73695
 H21 H 0.09215 -0.03532 0.78177
 H22 H 0.11753 0.00022 0.72963
 H23 H 0.09854 0.02844 0.78555
 H24 H 0.05206 0.00184 0.75246
 C25 C 0.58223 0.49674 0.27306
 C26 C 0.59574 0.47641 0.27172
 C27 C 0.60958 0.47678 0.25595
 C28 C 0.60866 0.49781 0.24295
 C29 C 0.59876 0.51521 0.27354
 C30 C 0.61268 0.51609 0.25799
 C31 C 0.57093 0.49901 0.25263
 C32 C 0.58452 0.49943 0.23676
 H33 H 0.59404 0.46270 0.28203
 H34 H 0.61989 0.49836 0.23013
 H35 H 0.59930 0.52669 0.28551
 H36 H 0.55349 0.49924 0.25097
 C37 C 0.92029 0.51792 0.77470
 C38 C 0.90382 0.53602 0.77196
 C39 C 0.89001 0.53361 0.75593
 C40 C 0.89385 0.51299 0.74419
 C41 C 0.90662 0.49726 0.77585
 C42 C 0.89269 0.49442 0.76015
 C43 C 0.93163 0.51735 0.75451
 C44 C 0.91793 0.51504 0.73842
 H45 H 0.90376 0.54996 0.78135
 H46 H 0.88260 0.51077 0.73123
 H47 H 0.90766 0.48600 0.78855
 H48 H 0.94887 0.52012 0.75307
 C49 C 0.27390 0.36705 0.99088
 C50 C 0.27189 0.35026 1.00796
 C51 C 0.25369 0.33762 1.00714
 C52 C 0.23895 0.34285 0.98880
 C53 C 0.27198 0.35396 0.97173
 C54 C 0.25377 0.34126 0.97048
 C55 C 0.25289 0.37968 0.99128
 C56 C 0.23451 0.36716 0.99021
 H57 H 0.28372 0.34905 1.02009
 H58 H 0.22414 0.33248 0.98798
 H59 H 0.28391 0.35492 0.96003
 H60 H 0.25271 0.39705 0.99235
 C61 C 0.77281 0.13640 1.00446
 C62 C 0.77309 0.15273 0.98695
 C63 C 0.75557 0.16556 0.98566
 C64 C 0.73897 0.16066 1.00237
 C65 C 0.77006 0.15016 1.02304
 C66 C 0.75226 0.16285 1.02206
 C67 C 0.75257 0.12441 1.00235
 C68 C 0.73380 0.13757 1.00153
 H69 H 0.78633 0.15407 0.97652
 H70 H 0.72473 0.17125 1.00135
 H71 H 0.78060 0.14913 1.03616
 H72 H 0.75168 0.10695 1.00304
 C73 C 0.27078 0.63713 0.50358
 C74 C 0.27099 0.65357 0.48619
 C75 C 0.25358 0.66653 0.48507
 C76 C 0.23707 0.66171 0.50180
 C77 C 0.26801 0.65050 0.52230
 C78 C 0.25033 0.66332 0.52154
 C79 C 0.24921 0.62469 0.50122
 C80 C 0.23149 0.63744 0.50053
 H81 H 0.28395 0.65460 0.47544
 H82 H 0.22281 0.67228 0.50095
 H83 H 0.27858 0.64903 0.53537
 H84 H 0.24802 0.60726 0.50152
 C85 C 0.77319 0.86596 0.49222
 C86 C 0.77056 0.84904 0.50911
 C87 C 0.75211 0.83683 0.50797
 C88 C 0.73771 0.84262 0.48954
 C89 C 0.77116 0.85325 0.47293
 C90 C 0.75270 0.84095 0.47133
 C91 C 0.75243 0.87911 0.49261
 C92 C 0.73380 0.86701 0.49124
 H93 H 0.78207 0.84761 0.52149
 H94 H 0.72270 0.83258 0.48846
 H95 H 0.78335 0.85415 0.46145
 H96 H 0.75252 0.89644 0.49403
 C97 C -0.01227 0.27838 0.39645
 C98 C 0.00836 0.28260 0.38444
 C99 C 0.01157 0.26782 0.37017
 C100 C -0.00626 0.25028 0.36914
 C101 C -0.02962 0.27721 0.38165
 C102 C -0.02634 0.26189 0.36652
 C103 C -0.01001 0.25529 0.40499
 C104 C -0.00672 0.24054 0.39062
 H105 H 0.01981 0.29554 0.38765
 H106 H -0.00355 0.23820 0.35752
 H107 H -0.04382 0.28710 0.38208
 H108 H -0.01015 0.25115 0.42088
 C109 C 0.00045 0.75282 0.10396
 C110 C -0.00946 0.76107 0.12313
 C111 C -0.00957 0.74642 0.13867
 C112 C 0.00047 0.72491 0.13374
 C113 C 0.02306 0.74546 0.11047
 C114 C 0.02306 0.73106 0.12621
 C115 C -0.01214 0.73206 0.09946
 C116 C -0.01196 0.71731 0.11500
 H117 H -0.01662 0.77680 0.12393
 H118 H 0.00053 0.71294 0.14644
 H119 H 0.03782 0.75239 0.10436
 H120 H -0.01886 0.72868 0.08474
 C121 C 0.50669 0.25553 0.60811
 C122 C 0.49613 0.26347 0.62706
 C123 C 0.49421 0.24816 0.64193
 C124 C 0.50320 0.22630 0.63656
 C125 C 0.52830 0.24637 0.61526
 C126 C 0.52651 0.23133 0.63039
 C127 C 0.49306 0.23584 0.60203
 C128 C 0.49144 0.22039 0.61692
 H129 H 0.48969 0.27950 0.62808
 H130 H 0.50184 0.21378 0.64874
 H131 H 0.54371 0.25270 0.61004
 H132 H 0.48709 0.23349 0.58687
 C133 C 0.48565 0.78239 0.89341
 C134 C 0.50782 0.78507 0.88363
 C135 C 0.51162 0.77003 0.86972
 C136 C 0.49285 0.75376 0.86687
 C137 C 0.46943 0.78272 0.87584
 C138 C 0.47321 0.76778 0.86185
 C139 C 0.48490 0.76040 0.90148
 C140 C 0.48919 0.74461 0.88693
 H141 H 0.51964 0.79729 0.88790
 H142 H 0.49584 0.74169 0.85532
 H143 H 0.45609 0.79374 0.87474
 H144 H 0.48286 0.75636 0.91726
 C145 C -0.23199 0.67178 0.97416
 C146 C -0.21446 0.65471 0.97679
 C147 C -0.21724 0.64102 0.99301
 C148 C -0.23766 0.64559 1.00504
 C149 C -0.25317 0.65888 0.97348
 C150 C -0.25640 0.64507 0.98937
 C151 C -0.23203 0.68313 0.99422
 C152 C -0.23471 0.66957 1.01051
 H153 H -0.20058 0.65414 0.96716
 H154 H -0.24018 0.63446 1.01816
 H155 H -0.26444 0.66026 0.96091
 H156 H -0.22865 0.70024 0.99541
 C157 C -0.25449 0.32964 0.47743
 C158 C -0.27481 0.34333 0.47876
 C159 C -0.27427 0.35720 0.49436
 C160 C -0.25318 0.35599 0.50716
 C161 C -0.23589 0.34613 0.47641
 C162 C -0.23493 0.36003 0.49182
 C163 C -0.25231 0.31893 0.49689
 C164 C -0.25173 0.33320 0.51338
 H165 H -0.28850 0.34186 0.46852
 H166 H -0.25253 0.36736 0.51973
 H167 H -0.22448 0.34670 0.46424
 H168 H -0.25214 0.30153 0.49878
 C169 C 0.24995 -0.16796 -0.02318
 C170 C 0.22923 -0.15493 -0.02147
 C171 C 0.22932 -0.14163 -0.00546
 C172 C 0.25042 -0.14266 0.00734
 C173 C 0.26808 -0.15095 -0.02369
 C174 C 0.26862 -0.13758 -0.00787
 C175 C 0.25239 -0.17926 -0.00403
 C176 C 0.25247 -0.16559 0.01290
 H177 H 0.21559 -0.15646 -0.03176
 H178 H 0.25072 -0.13173 0.02025
 H179 H 0.27948 -0.14963 -0.03584
 H180 H 0.25294 -0.19669 -0.00265
 C181 C 0.26682 1.17109 0.47383
 C182 C 0.28451 1.15419 0.47660
 C183 C 0.28188 1.14069 0.49298
 C184 C 0.26147 1.14527 0.50501
 C185 C 0.24574 1.15802 0.47338
 C186 C 0.24269 1.14440 0.48943
 C187 C 0.26678 1.18271 0.49376
 C188 C 0.26426 1.16933 0.51021
 H189 H 0.29837 1.15360 0.46695
 H190 H 0.25908 1.13429 0.51826
 H191 H 0.23441 1.15913 0.46083
 H192 H 0.27007 1.19986 0.49476
 C193 C 0.11686 0.52267 0.25585
 C194 C 0.10023 0.52103 0.23875
 C195 C 0.08741 0.50295 0.23958
 C196 C 0.09231 0.48798 0.25791
 C197 C 0.10347 0.52060 0.27498
 C198 C 0.09059 0.50253 0.27622
 C199 C 0.12936 0.50163 0.25544
 C200 C 0.11665 0.48339 0.25651
 H201 H 0.09925 0.53300 0.22663
 H202 H 0.08179 0.47328 0.25874
 H203 H 0.10437 0.53232 0.28670
 H204 H 0.14679 0.50133 0.25437
 C205 C -0.11384 1.02028 0.24942
 C206 C -0.09812 1.02031 0.26729
 C207 C -0.08480 1.00314 0.26846
 C208 C -0.08867 0.98715 0.25131
 C209 C -0.09926 1.01861 0.23109
 C210 C -0.08610 1.00117 0.23196
 C211 C -0.12539 0.99973 0.25087
 C212 C -0.11172 0.98137 0.25160
 H213 H -0.09745 1.03318 0.27794
 H214 H -0.07773 0.97319 0.25223
 H215 H -0.10011 1.02954 0.21815
 H216 H -0.14286 0.99842 0.24987
 C217 C 0.38520 0.52309 -0.25262
 C218 C 0.40109 0.52351 -0.23495
 C219 C 0.41453 0.50651 -0.23361
 C220 C 0.41064 0.49009 -0.25032
 C221 C 0.39944 0.52093 -0.27106
 C222 C 0.41270 0.50361 -0.26997
 C223 C 0.37318 0.50134 -0.25054
 C224 C 0.38635 0.48395 -0.24960
 H225 H 0.40184 0.53664 -0.22457
 H226 H 0.42155 0.47612 -0.24923
 H227 H 0.39836 0.53155 -0.28420
 H228 H 0.35572 0.49989 -0.25134
 C229 C 0.61865 0.02493 -0.24207
 C230 C 0.60200 0.02351 -0.25916
 C231 C 0.58889 0.00565 -0.25830
 C232 C 0.59356 -0.00938 -0.23995
 C233 C 0.60524 0.02313 -0.22294
 C234 C 0.59208 0.00525 -0.22169
 C235 C 0.63082 0.00370 -0.24243
 C236 C 0.61783 -0.01434 -0.24134
 H237 H 0.60117 0.03550 -0.27128
 H238 H 0.58282 -0.02391 -0.23910
 H239 H 0.60629 0.03488 -0.21126
 H240 H 0.64823 0.00312 -0.24349
 C241 C 0.03107 0.24251 0.84942
 C242 C 0.03461 0.26336 0.86109
 C243 C 0.02038 0.26553 0.87618
 C244 C 0.00399 0.24672 0.87825
 C245 C 0.03225 0.22448 0.86556
 C246 C 0.01802 0.22664 0.88068
 C247 C 0.00874 0.24278 0.84269
 C248 C -0.00623 0.24547 0.85846
 H249 H 0.04685 0.27550 0.85748
 H250 H -0.00748 0.24844 0.89070
 H251 H 0.04343 0.21132 0.86503
 H252 H 0.00400 0.24264 0.82695
 C253 C 0.50388 0.25198 0.14903
 C254 C 0.51344 0.24013 0.13150
 C255 C 0.50026 0.23940 0.11500
 C256 C 0.47878 0.25079 0.11744
 C257 C 0.49824 0.27428 0.14021
 C258 C 0.48534 0.27362 0.12354
 C259 C 0.48213 0.24073 0.15290
 C260 C 0.46888 0.24027 0.13638
 H261 H 0.52894 0.23233 0.13242
 H262 H 0.46798 0.25031 0.10398
 H263 H 0.50521 0.28919 0.14566
 H264 H 0.47714 0.23521 0.16771
 C265 C 0.00573 0.73814 0.64795
 C266 C 0.01202 0.72684 0.62879
 C267 C -0.00143 0.73093 0.61287
 C268 C -0.02002 0.74578 0.61750
 C269 C 0.00462 0.76200 0.64161
 C270 C -0.00876 0.76600 0.62565
 C271 C -0.01763 0.73101 0.65168
 C272 C -0.03116 0.73509 0.63574
 H273 H 0.02567 0.71630 0.62794
 H274 H -0.03102 0.74900 0.60448
 H275 H 0.01463 0.77441 0.64844
 H276 H -0.02308 0.72440 0.66598
 C277 C 0.53013 0.74687 0.34925
 C278 C 0.53454 0.76611 0.36282
 C279 C 0.51994 0.76775 0.37765
 C280 C 0.50231 0.75006 0.37769
 C281 C 0.52925 0.72726 0.36367
 C282 C 0.51469 0.72891 0.37856
 C283 C 0.50694 0.74968 0.34158
 C284 C 0.49237 0.75153 0.35647
 H285 H 0.54759 0.77776 0.36053
 H286 H 0.49039 0.75139 0.38982
 H287 H 0.53950 0.71347 0.36229
 H288 H 0.50269 0.75100 0.32576
 Zr289 Zr 0.02017 -0.02267 1.03127
 O290 O 0.04222 -0.01635 1.05515
 O291 O 0.01482 -0.05614 1.03472
 O292 O 0.00612 -0.02754 1.05989
 O293 O 0.05978 -0.02389 0.99526
 O294 O -0.02620 -0.01067 1.05646
 O295 O 0.05093 -0.03600 1.02679
 O296 O -0.00984 -0.06385 1.00993
 O297 O -0.01288 -0.02638 1.02453
 O298 O 0.01777 -0.03212 1.00144
 O299 O 0.00673 0.00767 1.03592
 O300 O 0.03641 0.00181 1.01429
 Zr301 Zr -0.01404 0.01916 0.98085
 Zr302 Zr -0.02594 0.00411 1.02780
 Zr303 Zr 0.03237 -0.00743 0.98443
 Zr304 Zr -0.01504 -0.03458 0.99439
 O305 O 0.06046 0.01166 0.97881
 O306 O -0.04556 -0.04681 1.00384
 O307 O -0.00029 -0.01100 0.97584
 O308 O -0.02993 -0.00509 0.99799
 O309 O -0.01172 0.02913 1.01057
 O310 O 0.01899 0.02279 0.98758
 C311 C 0.00242 -0.06917 1.02490
 C312 C 0.06388 -0.03432 1.01182
 C313 C -0.01220 -0.02165 1.06661
 O314 O -0.05562 -0.01302 1.03131
 O315 O -0.05150 0.02392 1.01848
 O316 O -0.04377 0.03419 0.98620
 C317 C -0.05575 0.03410 1.00186
 O318 O 0.04417 0.03178 1.04153
 Zr319 Zr 0.02121 0.03153 1.01745
 O320 O -0.00902 0.05242 0.97703
 O321 O -0.02983 0.02788 1.04952
 O322 O 0.00952 0.05221 1.03942
 O323 O 0.05089 0.04531 1.00741
 O324 O 0.01397 0.06123 1.00280
 C325 C 0.00211 0.06602 0.98731
 O326 O -0.03750 0.01331 0.95803
 O327 O 0.03829 -0.03293 0.96494
 O328 O -0.00144 0.02132 0.95148
 O329 O 0.03032 0.00332 0.95440
 O330 O -0.00388 -0.05679 0.97350
 O331 O -0.03542 -0.03451 0.96840
 C332 C 0.01591 0.01370 0.94419
 H333 H 0.02493 -0.04592 0.99912
 H334 H -0.04539 -0.00635 0.99406
 H335 H 0.02631 0.03356 0.97866
 H336 H 0.00851 0.01181 1.05009
 H337 H -0.04717 -0.06174 0.99904
 H338 H -0.06349 -0.00598 1.04209
 H339 H -0.04420 0.02519 1.05555
 H340 H 0.01809 0.06586 1.03851
 H341 H -0.01341 -0.06980 0.97437
 H342 H 0.05256 -0.02987 0.95885
 H343 H 0.06845 0.00445 0.96822
 H344 H 0.05182 0.06029 1.01217
 H345 H -0.04273 -0.04878 0.96729
 H346 H -0.04009 0.02725 0.95079
 H347 H 0.04516 -0.03032 1.06219
 H348 H 0.04851 0.04685 1.04436
 Zr349 Zr 0.51905 0.47951 0.52987
 O350 O 0.54091 0.48774 0.55335
 O351 O 0.51545 0.44601 0.53421
 O352 O 0.50532 0.47469 0.55859
 O353 O 0.55841 0.47840 0.49365
 O354 O 0.47221 0.48996 0.55492
 O355 O 0.55021 0.46710 0.52557
 O356 O 0.49110 0.43620 0.50983
 O357 O 0.48613 0.47408 0.52348
 O358 O 0.51688 0.46899 0.50037
 O359 O 0.50425 0.50931 0.53380
 O360 O 0.53418 0.50407 0.51216
 Zr361 Zr 0.48276 0.51813 0.47860
 Zr362 Zr 0.47171 0.50406 0.52596
 Zr363 Zr 0.53036 0.49370 0.48264
 Zr364 Zr 0.48416 0.46481 0.49365
 O365 O 0.55770 0.51371 0.47658
 O366 O 0.45437 0.45155 0.50393
 O367 O 0.49781 0.48843 0.47437
 O368 O 0.46799 0.49377 0.49647
 O369 O 0.48479 0.52909 0.50799
 O370 O 0.51566 0.52339 0.48505
 C371 C 0.50382 0.43202 0.52480
 C372 C 0.56293 0.46857 0.51043
 C373 C 0.48673 0.47986 0.56523
 O374 O 0.44269 0.48594 0.52998
 O375 O 0.44539 0.52270 0.51633
 O376 O 0.45262 0.53243 0.48381
 C377 C 0.44077 0.53243 0.49956
 O378 O 0.54069 0.53513 0.53853
 Zr379 Zr 0.51763 0.53316 0.51462
 O380 O 0.48644 0.55141 0.47367
 O381 O 0.46693 0.52816 0.54718
 O382 O 0.50512 0.55399 0.53605
 O383 O 0.54661 0.54800 0.50407
 O384 O 0.50895 0.56201 0.49919
 C385 C 0.49696 0.56579 0.48356
 O386 O 0.45935 0.51046 0.45623
 O387 O 0.53718 0.46803 0.46363
 O388 O 0.49513 0.51992 0.44912
 O389 O 0.52782 0.50367 0.45244
 O390 O 0.49602 0.44253 0.47316
 O391 O 0.46346 0.46308 0.46795
 C392 C 0.51290 0.51303 0.44202
 H393 H 0.52462 0.45546 0.49832
 H394 H 0.45256 0.49177 0.49267
 H395 H 0.52250 0.53418 0.47582
 H396 H 0.50591 0.51393 0.54785
 H397 H 0.45342 0.43639 0.49967
 H398 H 0.43462 0.49291 0.54066
 H399 H 0.45270 0.52503 0.55334
 H400 H 0.51307 0.56797 0.53472
 H401 H 0.48710 0.42913 0.47450
 H402 H 0.55132 0.47148 0.45741
 H403 H 0.56596 0.50658 0.46613
 H404 H 0.54687 0.56313 0.50846
 H405 H 0.45662 0.44854 0.46747
 H406 H 0.45610 0.52401 0.44861
 H407 H 0.54457 0.47419 0.56079
 H408 H 0.54433 0.55045 0.54096
 Zr409 Zr 0.47426 0.99637 0.54096
 O410 O 0.45038 0.98029 0.55851
 O411 O 0.47722 1.02607 0.55479
 O412 O 0.48596 0.99111 0.57074
 O413 O 0.43909 1.01252 0.50284
 O414 O 0.51789 0.97405 0.56672
 O415 O 0.44393 1.01155 0.53691
 O416 O 0.50454 1.04319 0.53766
 O417 O 0.50775 1.00205 0.53994
 O418 O 0.47971 1.01730 0.51635
 O419 O 0.48813 0.96592 0.53823
 O420 O 0.46071 0.98065 0.51589
 Zr421 Zr 0.51494 0.97713 0.48588
 Zr422 Zr 0.52142 0.97197 0.53554
 Zr423 Zr 0.46796 1.00126 0.49132
 Zr424 Zr 0.51295 1.02212 0.51484
 O425 O 0.44130 0.98611 0.47679
 O426 O 0.54163 1.02919 0.53142
 O427 O 0.50120 1.00774 0.48851
 O428 O 0.52816 0.99274 0.51103
 O429 O 0.50973 0.95586 0.51038
 O430 O 0.48158 0.97136 0.48717
 C431 C 0.49011 1.04216 0.55138
 C432 C 0.43291 1.01613 0.52074
 C433 C 0.50333 0.98217 0.57761
 O434 O 0.55000 0.98611 0.54766
 O435 O 0.54852 0.95684 0.52379
 O436 O 0.54444 0.96077 0.48977
 C437 C 0.55476 0.95416 0.50569
 O438 O 0.45035 0.94242 0.53139
 Zr439 Zr 0.47634 0.95131 0.51222
 O440 O 0.51196 0.94715 0.47241
 O441 O 0.52356 0.94074 0.54890
 O442 O 0.48531 0.92299 0.52859
 O443 O 0.44895 0.94222 0.49462
 O444 O 0.48696 0.92894 0.49158
 C445 C 0.50073 0.93024 0.47733
 O446 O 0.53995 0.99238 0.46907
 O447 O 0.46352 1.03314 0.48007
 O448 O 0.50482 0.98519 0.45606
 O449 O 0.47360 1.00330 0.46041
 O450 O 0.50362 1.05156 0.50059
 O451 O 0.53646 1.03273 0.49367
 C452 C 0.48844 0.99594 0.44938
 H453 H 0.47245 1.03128 0.51734
 H454 H 0.54391 0.99533 0.50961
 H455 H 0.47561 0.96472 0.47487
 H456 H 0.48492 0.95650 0.55008
 H457 H 0.54307 1.04508 0.53206
 H458 H 0.55681 0.97495 0.55647
 H459 H 0.53708 0.94057 0.55708
 H460 H 0.47721 0.91069 0.52270
 H461 H 0.51216 1.06331 0.50690
 H462 H 0.45010 1.03297 0.47174
 H463 H 0.43429 0.99731 0.46818
 H464 H 0.44808 0.92626 0.49486
 H465 H 0.54314 1.04650 0.49800
 H466 H 0.54405 0.98228 0.45857
 H467 H 0.44609 0.99047 0.56887
 H468 H 0.44592 0.92725 0.52914
 Zr469 Zr -0.02602 0.49435 1.03864
 O470 O -0.05036 0.47798 1.05539
 O471 O -0.02278 0.52338 1.05350
 O472 O -0.01478 0.48804 1.06841
 O473 O -0.06027 0.51253 1.00058
 O474 O 0.01694 0.47063 1.06431
 O475 O -0.05607 0.51007 1.03468
 O476 O 0.00525 0.54058 1.03746
 O477 O 0.00756 0.49951 1.03822
 O478 O -0.01983 0.51610 1.01479
 O479 O -0.01260 0.46382 1.03516
 O480 O -0.03940 0.47983 1.01287
 Zr481 Zr 0.01523 0.47648 0.98350
 Zr482 Zr 0.02081 0.46942 1.03309
 Zr483 Zr -0.03141 0.50121 0.98906
 Zr484 Zr 0.01350 0.52041 1.01386
 O485 O -0.05814 0.48715 0.97371
 O486 O 0.04213 0.52636 1.03090
 O487 O 0.00197 0.50720 0.98689
 O488 O 0.02828 0.49094 1.00932
 O489 O 0.00928 0.45441 1.00725
 O490 O -0.01824 0.47126 0.98419
 C491 C -0.00943 0.53927 1.05095
 C492 C -0.06674 0.51546 1.01851
 C493 C 0.00241 0.47873 1.07525
 O494 O 0.04946 0.48257 1.04598
 O495 O 0.04784 0.45431 1.02123
 O496 O 0.04444 0.45957 0.98728
 C497 C 0.05439 0.45226 1.00315
 O498 O -0.05057 0.44119 1.02714
 Zr499 Zr -0.02421 0.45039 1.00852
 O500 O 0.01194 0.44710 0.96899
 O501 O 0.02215 0.43772 1.04555
 O502 O -0.01581 0.42134 1.02399
 O503 O -0.05158 0.44244 0.99041
 O504 O -0.01384 0.42874 0.98712
 C505 C 0.00017 0.43030 0.97309
 O506 O 0.04070 0.49195 0.96747
 O507 O -0.03500 0.53354 0.97877
 O508 O 0.00564 0.48560 0.95378
 O509 O -0.02531 0.50412 0.95823
 O510 O 0.00480 0.55054 1.00061
 O511 O 0.03740 0.53144 0.99325
 C512 C -0.01048 0.49679 0.94718
 H513 H -0.02688 0.53014 1.01618
 H514 H 0.04408 0.49333 1.00819
 H515 H -0.02416 0.46517 0.97162
 H516 H -0.01615 0.45405 1.04670
 H517 H 0.04382 0.54219 1.03208
 H518 H 0.05593 0.47100 1.05455
 H519 H 0.03554 0.43704 1.05389
 H520 H -0.02400 0.40941 1.01759
 H521 H 0.01344 0.56186 1.00745
 H522 H -0.04829 0.53395 0.97027
 H523 H -0.06481 0.49879 0.96538
 H524 H -0.05275 0.42650 0.99015
 H525 H 0.04420 0.54496 0.99806
 H526 H 0.04481 0.48217 0.95671
 H527 H -0.05465 0.48781 1.06603
 H528 H -0.05509 0.42613 1.02446
 Zr529 Zr -0.02864 0.49327 0.47463
 O530 O -0.04873 0.50050 0.44941
 O531 O -0.02634 0.45977 0.47325
 O532 O -0.01316 0.48751 0.44708
 O533 O -0.07008 0.49319 0.50905
 O534 O 0.02024 0.50317 0.45134
 O535 O -0.06058 0.48093 0.47851
 O536 O -0.00379 0.45060 0.49947
 O537 O 0.00366 0.48815 0.48317
 O538 O -0.02866 0.48378 0.50501
 O539 O -0.01243 0.52291 0.46910
 O540 O -0.04393 0.51821 0.48960
 Zr541 Zr 0.00595 0.53371 0.52465
 Zr542 Zr 0.01940 0.51810 0.47914
 Zr543 Zr -0.04217 0.50897 0.52009
 Zr544 Zr 0.00344 0.47982 0.51372
 O545 O -0.06904 0.52911 0.52304
 O546 O 0.03330 0.46643 0.50597
 O547 O -0.01037 0.50404 0.53041
 O548 O 0.02085 0.50882 0.50956
 O549 O 0.00607 0.54350 0.49431
 O550 O -0.02628 0.53867 0.51602
 C551 C -0.01587 0.44604 0.48422
 C552 C -0.07402 0.48276 0.49295
 C553 C 0.00607 0.49260 0.44104
 O554 O 0.04800 0.50009 0.47822
 O555 O 0.04570 0.53742 0.48862
 O556 O 0.03706 0.54781 0.52001
 C557 C 0.04975 0.54759 0.50484
 O558 O -0.04835 0.54761 0.46087
 Zr559 Zr -0.02617 0.54719 0.48557
 O560 O 0.00380 0.56728 0.52585
 O561 O 0.02637 0.54155 0.45636
 O562 O -0.01235 0.56705 0.46254
 O563 O -0.05472 0.56276 0.49389
 O564 O -0.01637 0.57666 0.49806
 C565 C -0.00485 0.58118 0.51367
 O566 O 0.02750 0.52708 0.54896
 O567 O -0.05110 0.48389 0.54072
 O568 O -0.00838 0.53665 0.55323
 O569 O -0.04126 0.51975 0.54957
 O570 O -0.01057 0.45824 0.53532
 O571 O 0.02266 0.47882 0.54045
 C572 C -0.02677 0.52970 0.56001
 H573 H -0.03703 0.47029 0.50776
 H574 H 0.03597 0.50703 0.51432
 H575 H -0.03313 0.54984 0.52395
 H576 H -0.01305 0.52703 0.45464
 H577 H 0.03336 0.45137 0.51133
 H578 H 0.05702 0.50680 0.46750
 H579 H 0.04086 0.53834 0.45122
 H580 H -0.02013 0.58085 0.46208
 H581 H -0.00222 0.44478 0.53544
 H582 H -0.06549 0.48741 0.54590
 H583 H -0.07826 0.52229 0.53355
 H584 H -0.05412 0.57758 0.48796
 H585 H 0.02875 0.46427 0.54241
 H586 H 0.03076 0.54094 0.55556
 H587 H -0.05246 0.48665 0.44299
 H588 H -0.05170 0.56272 0.45702
 Zr589 Zr 0.47318 -0.00277 -0.02309
 O590 O 0.45326 0.00663 -0.04782
 O591 O 0.47414 -0.03618 -0.02602
 O592 O 0.48826 -0.00799 -0.05092
 O593 O 0.43205 -0.00318 0.01164
 O594 O 0.52228 0.00607 -0.04621
 O595 O 0.44092 -0.01430 -0.01948
 O596 O 0.49638 -0.04751 -0.00030
 O597 O 0.50524 -0.00957 -0.01495
 O598 O 0.47295 -0.01371 0.00689
 O599 O 0.49058 0.02642 -0.02749
 O600 O 0.45902 0.02205 -0.00702
 Zr601 Zr 0.50965 0.03377 0.02844
 Zr602 Zr 0.52218 0.01984 -0.01784
 Zr603 Zr 0.46053 0.01125 0.02306
 Zr604 Zr 0.50485 -0.01936 0.01525
 O605 O 0.43445 0.03220 0.02675
 O606 O 0.53408 -0.03353 0.00678
 O607 O 0.49213 0.00456 0.03304
 O608 O 0.52344 0.00907 0.01220
 O609 O 0.51004 0.04499 -0.00149
 O610 O 0.47764 0.04042 0.02017
 C611 C 0.48410 -0.05083 -0.01572
 C612 C 0.42768 -0.01282 -0.00481
 C613 C 0.50766 -0.00351 -0.05682
 O614 O 0.55005 0.00084 -0.01958
 O615 O 0.54919 0.03777 -0.00778
 O616 O 0.54114 0.04715 0.02406
 C617 C 0.55367 0.04720 0.00876
 O618 O 0.45577 0.05312 -0.03445
 Zr619 Zr 0.47801 0.05045 -0.00989
 O620 O 0.50884 0.06721 0.03136
 O621 O 0.52997 0.04392 -0.03981
 O622 O 0.49260 0.07076 -0.03216
 O623 O 0.45027 0.06685 -0.00076
 O624 O 0.48927 0.07879 0.00391
 C625 C 0.50087 0.08205 0.01978
 O626 O 0.53107 0.02491 0.05224
 O627 O 0.45080 -0.01427 0.04289
 O628 O 0.49554 0.03602 0.05720
 O629 O 0.46192 0.02086 0.05289
 O630 O 0.49010 -0.04142 0.03599
 O631 O 0.52410 -0.02242 0.04186
 C632 C 0.47681 0.02971 0.06368
 H633 H 0.46410 -0.02699 0.00914
 H634 H 0.53848 0.00650 0.01680
 H635 H 0.47129 0.05148 0.02858
 H636 H 0.49005 0.03121 -0.04179
 H637 H 0.53353 -0.04882 0.01148
 H638 H 0.55925 0.00766 -0.03010
 H639 H 0.54427 0.04037 -0.04515
 H640 H 0.48555 0.08493 -0.03190
 H641 H 0.49788 -0.05518 0.03544
 H642 H 0.43659 -0.01044 0.04828
 H643 H 0.42502 0.02533 0.03706
 H644 H 0.45159 0.08192 -0.00598
 H645 H 0.52961 -0.03727 0.04315
 H646 H 0.53497 0.03824 0.05945
 H647 H 0.44891 -0.00669 -0.05485
 H648 H 0.45313 0.06853 -0.03763
 Zr649 Zr 0.53012 0.51828 -0.03239
 O650 O 0.55356 0.50624 -0.05168
 O651 O 0.52611 0.54973 -0.04435
 O652 O 0.51811 0.51546 -0.06231
 O653 O 0.56692 0.52889 0.00607
 O654 O 0.48549 0.49816 -0.05825
 O655 O 0.56117 0.53294 -0.02775
 O656 O 0.49995 0.56304 -0.02468
 O657 O 0.49687 0.52319 -0.02971
 O658 O 0.52613 0.53518 -0.00603
 O659 O 0.51549 0.48727 -0.03140
 O660 O 0.54378 0.49881 -0.00907
 Zr661 Zr 0.49046 0.48989 0.02225
 Zr662 Zr 0.48255 0.49245 -0.02733
 Zr663 Zr 0.53808 0.51541 0.01722
 Zr664 Zr 0.49311 0.53901 -0.00281
 O665 O 0.56492 0.49861 0.02938
 O666 O 0.46350 0.54824 -0.01668
 O667 O 0.50523 0.52086 0.02179
 O668 O 0.47706 0.50910 -0.00110
 O669 O 0.49428 0.47265 -0.00398
 O670 O 0.52359 0.48482 0.01945
 C671 C 0.51302 0.56447 -0.03945
 C672 C 0.57284 0.53505 -0.01159
 C673 C 0.50038 0.50686 -0.06916
 O674 O 0.45460 0.50854 -0.03788
 O675 O 0.45520 0.47577 -0.01632
 O676 O 0.45999 0.47410 0.01773
 C677 C 0.44912 0.47015 0.00145
 O678 O 0.55281 0.46320 -0.02726
 Zr679 Zr 0.52741 0.46875 -0.00710
 O680 O 0.49236 0.45804 0.03271
 O681 O 0.47848 0.46317 -0.04260
 O682 O 0.51728 0.44319 -0.02575
 O683 O 0.55473 0.45729 0.00926
 O684 O 0.51596 0.44295 0.01149
 C685 C 0.50241 0.44197 0.02596
 O686 O 0.46689 0.50223 0.04122
 O687 O 0.54357 0.54542 0.03095
 O688 O 0.50244 0.49267 0.05220
 O689 O 0.53391 0.51208 0.04824
 O690 O 0.50450 0.56649 0.01270
 O691 O 0.47147 0.54585 0.02048
 C692 C 0.51960 0.50234 0.05911
 H693 H 0.53371 0.54938 -0.00632
 H694 H 0.46147 0.51130 0.00094
 H695 H 0.52973 0.47628 0.03087
 H696 H 0.51810 0.47954 -0.04389
 H697 H 0.46243 0.56409 -0.01567
 H698 H 0.44690 0.49868 -0.04714
 H699 H 0.46478 0.46414 -0.05047
 H700 H 0.52505 0.43012 -0.02111
 H701 H 0.49594 0.57893 0.00775
 H702 H 0.55722 0.54425 0.03886
 H703 H 0.57249 0.50842 0.03878
 H704 H 0.55487 0.44143 0.00789
 H705 H 0.46550 0.56040 0.01810
 H706 H 0.46276 0.49042 0.05083
 H707 H 0.55755 0.51813 -0.06127
 H708 H 0.55689 0.44786 -0.02620
 Zr709 Zr 0.03185 1.01274 0.46902
 O710 O 0.05640 1.00043 0.45111
 O711 O 0.02727 1.04334 0.45544
 O712 O 0.02078 1.00809 0.43904
 O713 O 0.06626 1.02811 0.50790
 O714 O -0.01039 0.98822 0.44296
 O715 O 0.06214 1.02887 0.47378
 O716 O -0.00133 1.05599 0.47244
 O717 O -0.00177 1.01581 0.47016
 O718 O 0.02568 1.03125 0.49397
 O719 O 0.01904 0.98104 0.47141
 O720 O 0.04554 0.99583 0.49398
 Zr721 Zr -0.00862 0.98593 0.52374
 Zr722 Zr -0.01436 0.98447 0.47399
 Zr723 Zr 0.03764 1.01392 0.51883
 Zr724 Zr -0.00771 1.03331 0.49567
 O725 O 0.06490 0.99978 0.53312
 O726 O -0.03723 1.03974 0.48024
 O727 O 0.00426 1.01769 0.52181
 O728 O -0.02200 1.00265 0.49877
 O729 O -0.00259 0.96702 0.49896
 O730 O 0.02492 0.98274 0.52241
 C731 C 0.01287 1.05744 0.45859
 C732 C 0.07288 1.03286 0.49013
 C733 C 0.00401 0.99782 0.43211
 O734 O -0.04276 0.99802 0.46137
 O735 O -0.04134 0.96721 0.48504
 O736 O -0.03823 0.96857 0.51917
 C737 C -0.04816 0.96292 0.50285
 O738 O 0.05723 0.95930 0.47814
 Zr739 Zr 0.03091 0.96504 0.49722
 O740 O -0.00513 0.95509 0.53646
 O741 O -0.01592 0.95392 0.46066
 O742 O 0.02262 0.93750 0.48038
 O743 O 0.05860 0.95671 0.51472
 O744 O 0.02097 0.94030 0.51767
 C745 C 0.00687 0.93949 0.53168
 O746 O -0.03361 0.99825 0.54112
 O747 O 0.04057 1.04518 0.53062
 O748 O 0.00196 0.99122 0.55376
 O749 O 0.03224 1.01246 0.54977
 O750 O 0.00135 1.06253 0.50960
 O751 O -0.03086 1.04055 0.51756
 C752 C 0.01820 1.00235 0.56067
 H753 H 0.03252 1.04580 0.49304
 H754 H -0.03780 1.00414 0.50008
 H755 H 0.03116 0.97544 0.53450
 H756 H 0.02265 0.97269 0.45952
 H757 H -0.03926 1.05554 0.48013
 H758 H -0.04941 0.98707 0.45253
 H759 H -0.02930 0.95349 0.45229
 H760 H 0.03088 0.92524 0.48619
 H761 H -0.00766 1.07405 0.50347
 H762 H 0.05392 1.04545 0.53904
 H763 H 0.07141 1.01074 0.54205
 H764 H 0.05989 0.94083 0.51446
 H765 H -0.03746 1.05459 0.51406
 H766 H -0.03749 0.98690 0.55130
 H767 H 0.06024 1.01188 0.44101
 H768 H 0.06187 0.94420 0.48013
 Zr769 Zr 0.72500 0.26607 0.22197
 O770 O 0.73180 0.28743 0.19742
 O771 O 0.69122 0.26216 0.21950
 O772 O 0.71927 0.25184 0.19377
 O773 O 0.72591 0.30629 0.25697
 O774 O 0.73480 0.21891 0.19759
 O775 O 0.71295 0.29735 0.22597
 O776 O 0.68285 0.23841 0.24514
 O777 O 0.71999 0.23335 0.22960
 O778 O 0.71595 0.26459 0.25207
 O779 O 0.75471 0.25130 0.21700
 O780 O 0.75042 0.28157 0.23796
 Zr781 Zr 0.76617 0.23109 0.27229
 Zr782 Zr 0.74991 0.21898 0.22599
 Zr783 Zr 0.74150 0.27847 0.26811
 Zr784 Zr 0.71221 0.23207 0.25997
 O785 O 0.76188 0.30579 0.27248
 O786 O 0.69852 0.20204 0.25142
 O787 O 0.73668 0.24618 0.27760
 O788 O 0.74103 0.21590 0.25610
 O789 O 0.77574 0.23248 0.24230
 O790 O 0.77113 0.26377 0.26466
 C791 C 0.67780 0.25066 0.23003
 C792 C 0.71534 0.31047 0.24056
 C793 C 0.72439 0.23326 0.18731
 O794 O 0.73147 0.19004 0.22365
 O795 O 0.76897 0.19289 0.23550
 O796 O 0.78017 0.20088 0.26729
 C797 C 0.77944 0.18867 0.25193
 O798 O 0.78020 0.28772 0.21000
 Zr799 Zr 0.77946 0.26510 0.23454
 O800 O 0.79971 0.23472 0.27525
 O801 O 0.77318 0.21369 0.20386
 O802 O 0.79923 0.25237 0.21226
 O803 O 0.79480 0.29416 0.24367
 O804 O 0.80909 0.25655 0.24850
 C805 C 0.81363 0.24481 0.26419
 O806 O 0.75973 0.20821 0.29574
 O807 O 0.71661 0.28583 0.28805
 O808 O 0.76909 0.24399 0.30135
 O809 O 0.75265 0.27653 0.29793
 O810 O 0.69084 0.24436 0.28119
 O811 O 0.71189 0.21210 0.28642
 C812 C 0.76237 0.26180 0.30833
 H813 H 0.70249 0.27236 0.25455
 H814 H 0.73923 0.20059 0.26046
 H815 H 0.78237 0.27074 0.27316
 H816 H 0.75873 0.25269 0.20270
 H817 H 0.68360 0.20113 0.25659
 H818 H 0.73803 0.18169 0.21294
 H819 H 0.76981 0.19935 0.19827
 H820 H 0.81324 0.26039 0.21262
 H821 H 0.67745 0.23532 0.28091
 H822 H 0.72036 0.30005 0.29369
 H823 H 0.75520 0.31428 0.28302
 H824 H 0.80973 0.29432 0.23853
 H825 H 0.69740 0.20525 0.28793
 H826 H 0.77367 0.20520 0.30274
 H827 H 0.71783 0.29082 0.19063
 H828 H 0.79539 0.29148 0.20677
 Zr829 Zr 0.74457 0.72639 0.71023
 O830 O 0.72877 0.70145 0.69428
 O831 O 0.77309 0.73094 0.69423
 O832 O 0.73700 0.73720 0.68055
 O833 O 0.76489 0.69308 0.74817
 O834 O 0.71851 0.76818 0.68477
 O835 O 0.76135 0.69693 0.71409
 O836 O 0.78928 0.75992 0.70909
 O837 O 0.74839 0.76003 0.71008
 O838 O 0.76677 0.73349 0.73323
 O839 O 0.71354 0.73854 0.71456
 O840 O 0.73122 0.71262 0.73668
 Zr841 Zr 0.72643 0.76694 0.76546
 Zr842 Zr 0.71787 0.77205 0.71601
 Zr843 Zr 0.75295 0.72151 0.75964
 Zr844 Zr 0.76971 0.76688 0.73364
 O845 O 0.74045 0.69438 0.77594
 O846 O 0.77415 0.79588 0.71646
 O847 O 0.75765 0.75499 0.76122
 O848 O 0.73973 0.78041 0.73896
 O849 O 0.70393 0.76008 0.74253
 O850 O 0.72254 0.73340 0.76534
 C851 C 0.78824 0.74524 0.69580
 C852 C 0.76742 0.68653 0.73025
 C853 C 0.72692 0.75396 0.67376
 O854 O 0.72960 0.80103 0.70224
 O855 O 0.70216 0.79851 0.72802
 O856 O 0.70847 0.79546 0.76184
 C857 C 0.70046 0.80510 0.74608
 O858 O 0.69251 0.69994 0.72379
 Zr859 Zr 0.70123 0.72656 0.74182
 O860 O 0.69750 0.76257 0.78101
 O861 O 0.68575 0.77209 0.70465
 O862 O 0.67139 0.73387 0.72733
 O863 O 0.69486 0.69892 0.76042
 O864 O 0.67978 0.73590 0.76401
 C865 C 0.68112 0.75001 0.77777
 O866 O 0.74139 0.79288 0.78072
 O867 O 0.78578 0.71932 0.76875
 O868 O 0.73648 0.75772 0.79501
 O869 O 0.75636 0.72776 0.79032
 O870 O 0.80067 0.75920 0.74560
 O871 O 0.78042 0.79092 0.75382
 C872 C 0.74850 0.74214 0.80146
 H873 H 0.78105 0.72701 0.73135
 H874 H 0.74157 0.79624 0.73982
 H875 H 0.71699 0.72726 0.77817
 H876 H 0.70360 0.73459 0.70340
 H877 H 0.78991 0.79823 0.71478
 H878 H 0.71754 0.80701 0.69401
 H879 H 0.68432 0.78537 0.69616
 H880 H 0.65993 0.72527 0.73425
 H881 H 0.81144 0.76829 0.73826
 H882 H 0.78698 0.70614 0.77741
 H883 H 0.75263 0.68826 0.78392
 H884 H 0.67896 0.69709 0.76125
 H885 H 0.79375 0.79805 0.74867
 H886 H 0.73170 0.79663 0.79175
 H887 H 0.73853 0.69757 0.68335
 H888 H 0.67763 0.69495 0.72695
 Zr889 Zr 0.24534 0.22281 0.77269
 O890 O 0.25240 0.20266 0.79803
 O891 O 0.21166 0.22481 0.77401
 O892 O 0.23924 0.23809 0.80020
 O893 O 0.24608 0.18164 0.73854
 O894 O 0.25461 0.27157 0.79560
 O895 O 0.23321 0.19090 0.76897
 O896 O 0.20275 0.24704 0.74735
 O897 O 0.24004 0.25501 0.76387
 O898 O 0.23634 0.22284 0.74228
 O899 O 0.27488 0.23921 0.77808
 O900 O 0.27076 0.20788 0.75788
 Zr901 Zr 0.28635 0.25793 0.72239
 Zr902 Zr 0.26988 0.27094 0.76780
 Zr903 Zr 0.26193 0.20963 0.72737
 Zr904 Zr 0.23220 0.25483 0.73329
 O905 O 0.28244 0.18303 0.72481
 O906 O 0.21826 0.28435 0.74094
 O907 O 0.25685 0.24135 0.71676
 O908 O 0.26103 0.27247 0.73736
 O909 O 0.29572 0.25801 0.75273
 O910 O 0.29150 0.22578 0.73128
 C911 C 0.19798 0.23496 0.76272
 C912 C 0.23532 0.17759 0.75460
 C913 C 0.24411 0.25729 0.80608
 O914 O 0.25150 0.29927 0.76847
 O915 O 0.28911 0.29738 0.75820
 O916 O 0.30021 0.28906 0.72692
 C917 C 0.29959 0.30162 0.74202
 O918 O 0.30009 0.20366 0.78660
 Zr919 Zr 0.29963 0.22587 0.76172
 O920 O 0.32001 0.25594 0.72100
 O921 O 0.29302 0.27803 0.79054
 O922 O 0.31907 0.23980 0.78464
 O923 O 0.31564 0.19759 0.75363
 O924 O 0.32923 0.23608 0.74912
 C925 C 0.33387 0.24750 0.73331
 O926 O 0.27988 0.27959 0.69799
 O927 O 0.23723 0.20056 0.70672
 O928 O 0.28946 0.24384 0.69382
 O929 O 0.27317 0.21070 0.69792
 O930 O 0.21114 0.24084 0.71162
 O931 O 0.23139 0.27424 0.70649
 C932 C 0.28288 0.22537 0.68727
 H933 H 0.22294 0.21438 0.73952
 H934 H 0.25915 0.28755 0.73249
 H935 H 0.30286 0.21908 0.72340
 H936 H 0.27884 0.23857 0.79254
 H937 H 0.20323 0.28427 0.73557
 H938 H 0.25799 0.30831 0.77910
 H939 H 0.28961 0.29243 0.79556
 H940 H 0.33303 0.23225 0.78511
 H941 H 0.19754 0.24901 0.71138
 H942 H 0.24098 0.18625 0.70169
 H943 H 0.27590 0.17379 0.71435
 H944 H 0.33047 0.19839 0.75945
 H945 H 0.21678 0.28025 0.70453
 H946 H 0.29385 0.28293 0.69137
 H947 H 0.23844 0.19882 0.80446
 H948 H 0.31524 0.20048 0.79043
 Zr949 Zr 0.26264 0.78038 0.28145
 O950 O 0.24811 0.80338 0.29949
 O951 O 0.29353 0.77807 0.29482
 O952 O 0.25864 0.76845 0.31140
 O953 O 0.27507 0.81691 0.24281
 O954 O 0.24226 0.73550 0.30741
 O955 O 0.27661 0.81172 0.27686
 O956 O 0.30887 0.75154 0.27717
 O957 O 0.26886 0.74738 0.27992
 O958 O 0.28165 0.77662 0.25617
 O959 O 0.23213 0.76479 0.27931
 O960 O 0.24442 0.79311 0.25687
 Zr961 Zr 0.23959 0.73935 0.22660
 Zr962 Zr 0.23870 0.73208 0.27636
 Zr963 Zr 0.26319 0.78766 0.23168
 Zr964 Zr 0.28683 0.74380 0.25407
 O965 O 0.24639 0.81376 0.21810
 O966 O 0.29597 0.71467 0.26900
 O967 O 0.27011 0.75503 0.22827
 O968 O 0.25750 0.72685 0.25121
 O969 O 0.22024 0.74288 0.25175
 O970 O 0.23317 0.77221 0.22830
 C971 C 0.30896 0.76521 0.29130
 C972 C 0.27969 0.82319 0.26061
 C973 C 0.25013 0.75060 0.31831
 O974 O 0.25487 0.70477 0.28831
 O975 O 0.22358 0.70424 0.26511
 O976 O 0.22434 0.70862 0.23099
 C977 C 0.21945 0.69786 0.24723
 O978 O 0.20717 0.80125 0.27291
 Zr979 Zr 0.21499 0.77577 0.25383
 O980 O 0.20842 0.74002 0.21440
 O981 O 0.20840 0.72736 0.29022
 O982 O 0.18836 0.76516 0.27140
 O983 O 0.20361 0.80232 0.23620
 O984 O 0.19090 0.76309 0.23433
 C985 C 0.19145 0.74944 0.22015
 O986 O 0.25427 0.71607 0.20899
 O987 O 0.29408 0.79385 0.21937
 O988 O 0.24400 0.75104 0.19660
 O989 O 0.26215 0.78307 0.20067
 O990 O 0.31528 0.75584 0.24001
 O991 O 0.29616 0.72225 0.23172
 C992 C 0.25355 0.76838 0.18973
 H993 H 0.29562 0.78463 0.25700
 H994 H 0.26034 0.71135 0.24966
 H995 H 0.22522 0.77791 0.21634
 H996 H 0.22345 0.76728 0.29134
 H997 H 0.31196 0.71413 0.26892
 H998 H 0.24454 0.69691 0.29721
 H999 H 0.20923 0.71381 0.29842
 H1000 H 0.17534 0.77238 0.26586
 H1001 H 0.32760 0.74772 0.24589
 H1002 H 0.29305 0.80733 0.21110
 H1003 H 0.25667 0.82152 0.20908
 H1004 H 0.18762 0.80187 0.23678
 H1005 H 0.31076 0.71681 0.23499
 H1006 H 0.24332 0.71140 0.19889
 H1007 H 0.25915 0.80794 0.30956
 H1008 H 0.19173 0.80477 0.27102
 Zr1009 Zr 0.22330 0.76816 0.72116
 O1010 O 0.22802 0.78931 0.69603
 O1011 O 0.18957 0.76285 0.72008
 O1012 O 0.21706 0.75331 0.69329
 O1013 O 0.22502 0.80921 0.75536
 O1014 O 0.23349 0.72085 0.69713
 O1015 O 0.21065 0.79920 0.72517
 O1016 O 0.18322 0.73971 0.74669
 O1017 O 0.21960 0.73551 0.72962
 O1018 O 0.21579 0.76713 0.75166
 O1019 O 0.25318 0.75416 0.71524
 O1020 O 0.24905 0.78469 0.73580
 Zr1021 Zr 0.26790 0.73543 0.77032
 Zr1022 Zr 0.24970 0.72193 0.72497
 Zr1023 Zr 0.24174 0.78203 0.76637
 Zr1024 Zr 0.21341 0.73472 0.76036
 O1025 O 0.26160 0.80993 0.76950
 O1026 O 0.20013 0.70408 0.75314
 O1027 O 0.23831 0.74984 0.77663
 O1028 O 0.24240 0.71926 0.75549
 O1029 O 0.27594 0.73644 0.73992
 O1030 O 0.27157 0.76807 0.76194
 C1031 C 0.17707 0.75113 0.73139
 C1032 C 0.21353 0.81274 0.73936
 C1033 C 0.22245 0.73476 0.68693
 O1034 O 0.23178 0.69256 0.72381
 O1035 O 0.26966 0.69646 0.73417
 O1036 O 0.28217 0.70534 0.76532
 C1037 C 0.28090 0.69276 0.75024
 O1038 O 0.27727 0.79114 0.70656
 Zr1039 Zr 0.27836 0.76899 0.73147
 O1040 O 0.30144 0.73994 0.77163
 O1041 O 0.27216 0.71672 0.70210
 O1042 O 0.29737 0.75640 0.70853
 O1043 O 0.29328 0.79865 0.73950
 O1044 O 0.30889 0.76154 0.74421
 C1045 C 0.31453 0.75017 0.75982
 O1046 O 0.26336 0.71298 0.79450
 O1047 O 0.21757 0.78921 0.78713
 O1048 O 0.27181 0.74905 0.79901
 O1049 O 0.25423 0.78099 0.79579
 O1050 O 0.19278 0.74704 0.78219
 O1051 O 0.21501 0.71546 0.78721
 C1052 C 0.26483 0.76674 0.80602
 H1053 H 0.20224 0.77456 0.75453
 H1054 H 0.24117 0.70401 0.76018
 H1055 H 0.28302 0.77551 0.76984
 H1056 H 0.25653 0.75536 0.70078
 H1057 H 0.18556 0.70288 0.75905
 H1058 H 0.23808 0.68410 0.71304
 H1059 H 0.26891 0.70219 0.69689
 H1060 H 0.31113 0.76484 0.70814
 H1061 H 0.17966 0.73762 0.78271
 H1062 H 0.22122 0.80364 0.79237
 H1063 H 0.25520 0.81846 0.78015
 H1064 H 0.30794 0.79914 0.73375
 H1065 H 0.20077 0.70838 0.78961
 H1066 H 0.27773 0.71053 0.80091
 H1067 H 0.21361 0.79203 0.68981
 H1068 H 0.29219 0.79531 0.70267
 Zr1069 Zr 0.24383 0.22367 0.20892
 O1070 O 0.22774 0.19925 0.19252
 O1071 O 0.27291 0.22733 0.19371
 O1072 O 0.23747 0.23490 0.17910
 O1073 O 0.26217 0.18962 0.24719
 O1074 O 0.21965 0.26633 0.18307
 O1075 O 0.25986 0.19382 0.21307
 O1076 O 0.28957 0.25568 0.20916
 O1077 O 0.24860 0.25721 0.20902
 O1078 O 0.26552 0.23003 0.23252
 O1079 O 0.21305 0.23670 0.21255
 O1080 O 0.22934 0.21014 0.23495
 Zr1081 Zr 0.22530 0.26450 0.26387
 Zr1082 Zr 0.21828 0.27008 0.21427
 Zr1083 Zr 0.25063 0.21830 0.25850
 Zr1084 Zr 0.26943 0.26332 0.23312
 O1085 O 0.23681 0.19149 0.27431
 O1086 O 0.27514 0.29217 0.21604
 O1087 O 0.25626 0.25164 0.26032
 O1088 O 0.23971 0.27771 0.23779
 O1089 O 0.20330 0.25837 0.24036
 O1090 O 0.22043 0.23107 0.26353
 C1091 C 0.28850 0.24107 0.19581
 C1092 C 0.26521 0.18319 0.22931
 C1093 C 0.22799 0.25198 0.17218
 O1094 O 0.23119 0.29882 0.20099
 O1095 O 0.20286 0.29687 0.22602
 O1096 O 0.20814 0.29348 0.25995
 C1097 C 0.20076 0.30337 0.24406
 O1098 O 0.19076 0.19856 0.22116
 Zr1099 Zr 0.19964 0.22494 0.23943
 O1100 O 0.19580 0.26092 0.27863
 O1101 O 0.18652 0.27109 0.20210
 O1102 O 0.17047 0.23299 0.22411
 O1103 O 0.19193 0.19754 0.25789
 O1104 O 0.17774 0.23505 0.26089
 C1105 C 0.17909 0.24904 0.27475
 O1106 O 0.24049 0.29001 0.27956
 O1107 O 0.28309 0.21503 0.26846
 O1108 O 0.23445 0.25496 0.29360
 O1109 O 0.25344 0.22436 0.28925
 O1110 O 0.29977 0.25479 0.24594
 O1111 O 0.28023 0.28707 0.25356
 C1112 C 0.24587 0.23901 0.30024
 H1113 H 0.27967 0.22317 0.23101
 H1114 H 0.24195 0.29349 0.23876
 H1115 H 0.21435 0.22508 0.27620
 H1116 H 0.20333 0.23308 0.20113
 H1117 H 0.29100 0.29404 0.21471
 H1118 H 0.21953 0.30518 0.19248
 H1119 H 0.18570 0.28445 0.19364
 H1120 H 0.15858 0.22468 0.23069
 H1121 H 0.31101 0.26357 0.23889
 H1122 H 0.28363 0.20178 0.27709
 H1123 H 0.24855 0.18496 0.28258
 H1124 H 0.17596 0.19621 0.25833
 H1125 H 0.29383 0.29391 0.24869
 H1126 H 0.23061 0.29398 0.29036
 H1127 H 0.23769 0.19512 0.18184
 H1128 H 0.17572 0.19387 0.22404
 Zr1129 Zr 0.74522 0.72271 0.27327
 O1130 O 0.75198 0.70250 0.29863
 O1131 O 0.71155 0.72516 0.27454
 O1132 O 0.73920 0.73807 0.30076
 O1133 O 0.74573 0.68149 0.23916
 O1134 O 0.75497 0.77139 0.29620
 O1135 O 0.73283 0.69087 0.26953
 O1136 O 0.70301 0.74754 0.24789
 O1137 O 0.74030 0.75496 0.26442
 O1138 O 0.73628 0.72282 0.24284
 O1139 O 0.77493 0.73880 0.27871
 O1140 O 0.77054 0.70753 0.25851
 Zr1141 Zr 0.78668 0.75741 0.22304
 Zr1142 Zr 0.77028 0.77058 0.26843
 Zr1143 Zr 0.76179 0.70935 0.22798
 Zr1144 Zr 0.73252 0.75486 0.23382
 O1145 O 0.78203 0.68255 0.22541
 O1146 O 0.71891 0.78459 0.24132
 O1147 O 0.75705 0.74112 0.21735
 O1148 O 0.76150 0.77222 0.23797
 O1149 O 0.79601 0.75740 0.25340
 O1150 O 0.79150 0.72521 0.23194
 C1151 C 0.69805 0.73559 0.26326
 C1152 C 0.73493 0.67751 0.25520
 C1153 C 0.74427 0.75723 0.30664
 O1154 O 0.75218 0.79910 0.26907
 O1155 O 0.78979 0.79683 0.25886
 O1156 O 0.80082 0.78842 0.22758
 C1157 C 0.80031 0.80098 0.24269
 O1158 O 0.79983 0.70304 0.28729
 Zr1159 Zr 0.79959 0.72522 0.26239
 O1160 O 0.82031 0.75513 0.22174
 O1161 O 0.79345 0.77744 0.29121
 O1162 O 0.81913 0.73901 0.28532
 O1163 O 0.81528 0.69674 0.25434
 O1164 O 0.82933 0.73508 0.24980
 C1165 C 0.83409 0.74652 0.23402
 O1166 O 0.78047 0.77911 0.19862
 O1167 O 0.73700 0.70051 0.20733
 O1168 O 0.78976 0.74326 0.19450
 O1169 O 0.77307 0.71030 0.19855
 O1170 O 0.71131 0.74102 0.21219
 O1171 O 0.73202 0.77417 0.20696
 C1172 C 0.78298 0.72486 0.18792
 H1173 H 0.72280 0.71449 0.24009
 H1174 H 0.75979 0.78732 0.23310
 H1175 H 0.80281 0.71839 0.22408
 H1176 H 0.77885 0.73812 0.29317
 H1177 H 0.70391 0.78467 0.23587
 H1178 H 0.75876 0.80808 0.27971
 H1179 H 0.79018 0.79188 0.29621
 H1180 H 0.83302 0.73135 0.28581
 H1181 H 0.69782 0.74937 0.21191
 H1182 H 0.74061 0.68617 0.20230
 H1183 H 0.77541 0.67338 0.21495
 H1184 H 0.83011 0.69738 0.26016
 H1185 H 0.71748 0.78031 0.20492
 H1186 H 0.79448 0.78232 0.19202
 H1187 H 0.73797 0.69882 0.30503
 H1188 H 0.81494 0.69973 0.29114
 Zr1189 Zr 0.76592 0.28163 0.78301
 O1190 O 0.75194 0.30420 0.80187
 O1191 O 0.79726 0.27919 0.79550
 O1192 O 0.76291 0.26925 0.81296
 O1193 O 0.77583 0.31917 0.74455
 O1194 O 0.74758 0.23585 0.80888
 O1195 O 0.77939 0.31321 0.77841
 O1196 O 0.81249 0.25394 0.77623
 O1197 O 0.77275 0.24885 0.78057
 O1198 O 0.78382 0.27883 0.75689
 O1199 O 0.73567 0.26539 0.78173
 O1200 O 0.74632 0.29442 0.75940
 Zr1201 Zr 0.74128 0.24123 0.72829
 Zr1202 Zr 0.74281 0.23294 0.77791
 Zr1203 Zr 0.76401 0.28994 0.73334
 Zr1204 Zr 0.78958 0.24623 0.75391
 O1205 O 0.74602 0.31590 0.72100
 O1206 O 0.80004 0.21703 0.76785
 O1207 O 0.77148 0.25760 0.72901
 O1208 O 0.76054 0.22864 0.75192
 O1209 O 0.72305 0.24381 0.75427
 O1210 O 0.73421 0.27386 0.73081
 C1211 C 0.81280 0.26686 0.79096
 C1212 C 0.78140 0.32509 0.76225
 C1213 C 0.75515 0.25105 0.81981
 O1214 O 0.76014 0.20585 0.78873
 O1215 O 0.72777 0.20502 0.76675
 O1216 O 0.72676 0.21018 0.73269
 C1217 C 0.72284 0.19899 0.74892
 O1218 O 0.70978 0.30151 0.77687
 Zr1219 Zr 0.71715 0.27648 0.75715
 O1220 O 0.70958 0.24135 0.71739
 O1221 O 0.71327 0.22717 0.79287
 O1222 O 0.69161 0.26518 0.77575
 O1223 O 0.70432 0.30285 0.74024
 O1224 O 0.69239 0.26323 0.73869
 C1225 C 0.69262 0.24988 0.72423
 O1226 O 0.75559 0.21860 0.70971
 O1227 O 0.79413 0.29713 0.71986
 O1228 O 0.74425 0.25350 0.69833
 O1229 O 0.76162 0.28597 0.70227
 O1230 O 0.81710 0.25922 0.73895
 O1231 O 0.79827 0.22547 0.73068
 C1232 C 0.75305 0.27120 0.69140
 H1233 H 0.79767 0.28708 0.75734
 H1234 H 0.76362 0.21326 0.74996
 H1235 H 0.72559 0.27954 0.71926
 H1236 H 0.72744 0.26745 0.79411
 H1237 H 0.81601 0.21687 0.76707
 H1238 H 0.75039 0.19755 0.79787
 H1239 H 0.71477 0.21350 0.80079
 H1240 H 0.67821 0.27223 0.77087
 H1241 H 0.82982 0.25123 0.74412
 H1242 H 0.79242 0.31072 0.71188
 H1243 H 0.75568 0.32407 0.71168
 H1244 H 0.68839 0.30195 0.74145
 H1245 H 0.81310 0.22025 0.73325
 H1246 H 0.74429 0.21388 0.69995
 H1247 H 0.76332 0.30872 0.81164
 H1248 H 0.69424 0.30488 0.77552
 N1249 N 0.44162 1.03084 0.32655
 C1250 C 0.45623 1.01513 0.33016
 N1251 N 0.45944 1.00049 0.31587
 N1252 N 0.44823 1.00139 0.29862
 C1253 C 0.43333 1.01690 0.29505
 N1254 N 0.43038 1.03172 0.30931
 C1255 C 0.46591 1.01243 0.34981
 C1256 C 0.47246 1.00998 0.36688
 C1257 C 0.47806 1.00729 0.38782
 N1258 N 0.49449 0.99449 0.39425
 N1259 N 0.49829 0.99105 0.41388
 C1260 C 0.48566 1.00021 0.42765
 N1261 N 0.46936 1.01304 0.42107
 N1262 N 0.46562 1.01650 0.40155
 N1263 N -0.05639 0.53308 0.82431
 C1264 C -0.04178 0.51737 0.82786
 N1265 N -0.03850 0.50286 0.81346
 N1266 N -0.04970 0.50385 0.79620
 C1267 C -0.06463 0.51934 0.79271
 N1268 N -0.06761 0.53405 0.80706
 C1269 C -0.03222 0.51450 0.84757
 C1270 C -0.02579 0.51192 0.86467
 C1271 C -0.02029 0.50903 0.88563
 N1272 N -0.00418 0.49584 0.89204
 N1273 N -0.00053 0.49216 0.91166
 C1274 C -0.01299 0.50149 0.92547
 N1275 N -0.02897 0.51474 0.91891
 N1276 N -0.03256 0.51843 0.89940
 N1277 N 0.04354 0.02036 0.81046
 C1278 C 0.04399 0.00487 0.82519
 N1279 N 0.05526 -0.01327 0.82237
 N1280 N 0.06601 -0.01575 0.80547
 C1281 C 0.06590 -0.00012 0.79079
 N1282 N 0.05426 0.01788 0.79354
 C1283 C 0.03555 0.00887 0.84460
 C1284 C 0.03033 0.01186 0.86162
 C1285 C 0.02654 0.01437 0.88258
 N1286 N 0.04257 0.00958 0.89591
 N1287 N 0.03923 0.01029 0.91551
 C1288 C 0.01978 0.01595 0.92256
 N1289 N 0.00373 0.02109 0.90918
 N1290 N 0.00707 0.02032 0.88946
 N1291 N 0.55570 0.48464 0.32185
 C1292 C 0.54368 0.50244 0.32397
 N1293 N 0.54328 0.51765 0.30899
 N1294 N 0.55473 0.51522 0.29250
 C1295 C 0.56708 0.49758 0.29044
 N1296 N 0.56717 0.48222 0.30536
 C1297 C 0.53441 0.50655 0.34301
 C1298 C 0.52858 0.50978 0.35979
 C1299 C 0.52427 0.51273 0.38058
 N1300 N 0.50424 0.51726 0.38712
 N1301 N 0.50056 0.51838 0.40676
 C1302 C 0.51683 0.51501 0.42039
 N1303 N 0.53682 0.51078 0.41367
 N1304 N 0.54049 0.50973 0.39415
 N1305 N 0.54649 0.50021 0.19350
 C1306 C 0.55984 0.49840 0.17780
 N1307 N 0.58147 0.49732 0.18134
 N1308 N 0.58947 0.49784 0.20005
 C1309 C 0.57610 0.49957 0.21585
 N1310 N 0.55447 0.50073 0.21216
 C1311 C 0.55113 0.49822 0.15766
 C1312 C 0.54403 0.49859 0.14067
 C1313 C 0.53666 0.49992 0.12010
 N1314 N 0.54767 0.51272 0.10689
 N1315 N 0.54167 0.51371 0.08765
 C1316 C 0.52438 0.50205 0.08083
 N1317 N 0.51317 0.48932 0.09412
 N1318 N 0.51922 0.48830 0.11348
 N1319 N 0.04521 1.00250 0.69521
 C1320 C 0.05835 1.00120 0.67929
 N1321 N 0.08005 1.00043 0.68253
 N1322 N 0.08832 1.00077 0.70115
 C1323 C 0.07517 1.00197 0.71720
 N1324 N 0.05347 1.00285 0.71378
 C1325 C 0.04936 1.00103 0.65924
 C1326 C 0.04206 1.00128 0.64231
 C1327 C 0.03441 1.00230 0.62181
 N1328 N 0.04408 1.01624 0.60865
 N1329 N 0.03817 1.01662 0.58936
 C1330 C 0.02230 1.00318 0.58247
 N1331 N 0.01238 0.98933 0.59573
 N1332 N 0.01834 0.98893 0.61511
 N1333 N -0.08194 0.52095 0.68302
 C1334 C -0.06058 0.52392 0.67927
 N1335 N -0.04626 0.52339 0.69488
 N1336 N -0.05309 0.52021 0.71361
 C1337 C -0.07449 0.51734 0.71747
 N1338 N -0.08878 0.51777 0.70177
 C1339 C -0.05325 0.52734 0.65898
 C1340 C -0.04766 0.52980 0.64175
 C1341 C -0.04222 0.53178 0.62081
 N1342 N -0.02187 0.53722 0.61484
 N1343 N -0.01688 0.53748 0.59539
 C1344 C -0.03212 0.53231 0.58129
 N1345 N -0.05245 0.52712 0.58740
 N1346 N -0.05741 0.52690 0.60674
 N1347 N 0.41905 0.01933 0.18526
 C1348 C 0.44057 0.02202 0.18214
 N1349 N 0.45439 0.02109 0.19811
 N1350 N 0.44692 0.01780 0.21660
 C1351 C 0.42536 0.01522 0.21984
 N1352 N 0.41157 0.01603 0.20378
 C1353 C 0.44858 0.02566 0.16213
 C1354 C 0.45470 0.02835 0.14510
 C1355 C 0.46063 0.03069 0.12433
 N1356 N 0.48136 0.03502 0.11881
 N1357 N 0.48667 0.03562 0.09942
 C1358 C 0.47137 0.03191 0.08497
 N1359 N 0.45068 0.02784 0.09065
 N1360 N 0.44540 0.02729 0.10992
 N1361 N 0.31593 0.40416 0.01226
 C1362 C 0.33182 0.40364 -0.00147
 N1363 N 0.32859 0.39173 -0.01806
 N1364 N 0.31019 0.38054 -0.02074
 C1365 C 0.29425 0.38089 -0.00697
 N1366 N 0.29752 0.39296 0.00958
 C1367 C 0.35192 0.41550 0.00136
 C1368 C 0.36896 0.42531 0.00286
 C1369 C 0.38938 0.43697 0.00310
 N1370 N 0.39781 0.44437 -0.01446
 N1371 N 0.41675 0.45489 -0.01472
 C1372 C 0.42809 0.45848 0.00254
 N1373 N 0.41965 0.45107 0.02021
 N1374 N 0.40061 0.44048 0.02047
 N1375 N -0.16785 0.87824 0.49676
 C1376 C -0.16726 0.89970 0.50008
 N1377 N -0.18614 0.91044 0.50030
 N1378 N -0.20498 0.89999 0.49752
 C1379 C -0.20563 0.87845 0.49426
 N1380 N -0.18666 0.86782 0.49397
 C1381 C -0.14677 0.91092 0.50265
 C1382 C -0.12936 0.92005 0.50406
 C1383 C -0.10842 0.93076 0.50434
 N1384 N -0.09853 0.93665 0.52178
 N1385 N -0.07919 0.94668 0.52158
 C1386 C -0.06911 0.95109 0.50391
 N1387 N -0.07910 0.94507 0.48658
 N1388 N -0.09833 0.93509 0.48678
 N1389 N -0.18529 0.09915 0.98760
 C1390 C -0.17021 0.10030 1.00254
 N1391 N -0.17405 0.11253 1.01858
 N1392 N -0.19228 0.12349 1.01955
 C1393 C -0.20739 0.12253 1.00454
 N1394 N -0.20351 0.11010 0.98856
 C1395 C -0.15027 0.08896 1.00128
 C1396 C -0.13347 0.07947 1.00058
 C1397 C -0.11353 0.06799 1.00056
 N1398 N -0.10088 0.06822 0.98409
 N1399 N -0.08239 0.05750 0.98435
 C1400 C -0.07595 0.04624 1.00112
 N1401 N -0.08868 0.04611 1.01753
 N1402 N -0.10711 0.05679 1.01726
 N1403 N 0.30798 0.59100 0.49930
 C1404 C 0.32762 0.60083 0.50149
 N1405 N 0.32865 0.62221 0.50514
 N1406 N 0.31063 0.63345 0.50631
 C1407 C 0.29090 0.62373 0.50400
 N1408 N 0.28995 0.60225 0.50047
 C1409 C 0.34713 0.58880 0.49996
 C1410 C 0.36358 0.57875 0.49901
 C1411 C 0.38318 0.56669 0.49868
 N1412 N 0.39574 0.56692 0.48216
 N1413 N 0.41407 0.55593 0.48222
 C1414 C 0.42042 0.54437 0.49885
 N1415 N 0.40775 0.54420 0.51530
 N1416 N 0.38948 0.55514 0.51522
 N1417 N 0.18570 0.59828 0.50224
 C1418 C 0.16853 0.61123 0.50408
 N1419 N 0.17192 0.63291 0.50426
 N1420 N 0.19189 0.64131 0.50285
 C1421 C 0.20916 0.62834 0.50110
 N1422 N 0.20562 0.60667 0.50083
 C1423 C 0.14705 0.60189 0.50546
 C1424 C 0.12938 0.59324 0.50615
 C1425 C 0.10873 0.58204 0.50606
 N1426 N 0.10253 0.57064 0.48984
 N1427 N 0.08378 0.55976 0.48962
 C1428 C 0.07047 0.55977 0.50563
 N1429 N 0.07668 0.57122 0.52192
 N1430 N 0.09552 0.58214 0.52214
 N1431 N 0.67540 0.13272 0.00574
 C1432 C 0.67240 0.11098 0.00656
 N1433 N 0.68980 0.09825 0.00516
 N1434 N 0.70956 0.10691 0.00325
 C1435 C 0.71275 0.12866 0.00258
 N1436 N 0.69521 0.14139 0.00383
 C1437 C 0.65109 0.10134 0.00844
 C1438 C 0.63353 0.09249 0.00950
 C1439 C 0.61296 0.08112 0.00972
 N1440 N 0.60655 0.06980 -0.00647
 N1441 N 0.58776 0.05898 -0.00654
 C1442 C 0.57464 0.05896 0.00960
 N1443 N 0.58108 0.07031 0.02589
 N1444 N 0.59996 0.08117 0.02595
 N1445 N 0.67431 0.87267 0.49207
 C1446 C 0.67229 0.89429 0.49371
 N1447 N 0.69043 0.90691 0.49440
 N1448 N 0.70990 0.89823 0.49350
 C1449 C 0.71204 0.87659 0.49188
 N1450 N 0.69382 0.86398 0.49116
 C1451 C 0.65127 0.90380 0.49514
 C1452 C 0.63387 0.91217 0.49663
 C1453 C 0.61335 0.92249 0.49881
 N1454 N 0.60551 0.92574 0.51734
 N1455 N 0.58684 0.93571 0.51947
 C1456 C 0.57530 0.94285 0.50316
 N1457 N 0.58317 0.93954 0.48459
 N1458 N 0.60186 0.92956 0.48246
 N1459 N 0.19037 0.40629 0.99255
 C1460 C 0.17247 0.39334 0.99195
 N1461 N 0.17490 0.37173 0.99068
 N1462 N 0.19458 0.36338 0.99003
 C1463 C 0.21256 0.37633 0.99066
 N1464 N 0.21001 0.39796 0.99190
 C1465 C 0.15127 0.40251 0.99311
 C1466 C 0.13373 0.41064 0.99441
 C1467 C 0.11308 0.42073 0.99644
 N1468 N 0.10205 0.42849 0.98009
 N1469 N 0.08329 0.43838 0.98214
 C1470 C 0.07490 0.44090 1.00063
 N1471 N 0.08598 0.43306 1.01695
 N1472 N 0.10471 0.42318 1.01490
 N1473 N -0.01782 0.30671 0.44447
 C1474 C -0.02008 0.32734 0.43766
 N1475 N -0.02011 0.33180 0.41768
 N1476 N -0.01790 0.31614 0.40477
 C1477 C -0.01559 0.29545 0.41142
 N1478 N -0.01564 0.29097 0.43151
 C1479 C -0.02128 0.34474 0.45098
 C1480 C -0.02188 0.36104 0.46013
 C1481 C -0.02219 0.38192 0.46834
 N1482 N -0.03435 0.39722 0.45906
 N1483 N -0.03250 0.41765 0.46438
 C1484 C -0.01826 0.42346 0.47903
 N1485 N -0.00621 0.40806 0.48847
 N1486 N -0.00802 0.38759 0.48308
 N1487 N 0.47699 -0.18855 -0.05939
 C1488 C 0.47677 -0.16784 -0.06639
 N1489 N 0.47902 -0.16354 -0.08626
 N1490 N 0.48148 -0.17945 -0.09887
 C1491 C 0.48178 -0.20023 -0.09202
 N1492 N 0.47942 -0.20452 -0.07204
 C1493 C 0.47554 -0.15033 -0.05318
 C1494 C 0.47524 -0.13419 -0.04375
 C1495 C 0.47564 -0.11368 -0.03475
 N1496 N 0.46434 -0.09744 -0.04356
 N1497 N 0.46685 -0.07743 -0.03724
 C1498 C 0.48091 -0.07298 -0.02201
 N1499 N 0.49209 -0.08932 -0.01306
 N1500 N 0.48961 -0.10937 -0.01944
 N1501 N -0.01883 -0.20416 1.06910
 C1502 C -0.00002 -0.19582 1.06190
 N1503 N 0.01879 -0.20535 1.06709
 N1504 N 0.01885 -0.22249 1.07950
 C1505 C 0.00012 -0.23056 1.08725
 N1506 N -0.01878 -0.22135 1.08150
 C1507 C 0.00049 -0.17496 1.05253
 C1508 C 0.00127 -0.15668 1.04630
 C1509 C 0.00222 -0.13451 1.04034
 N1510 N 0.01505 -0.12055 1.05063
 N1511 N 0.01517 -0.09959 1.04581
 C1512 C 0.00232 -0.09200 1.03063
 N1513 N -0.01050 -0.10606 1.02038
 N1514 N -0.01061 -0.12699 1.02520
 N1515 N 0.49777 0.29164 0.56353
 C1516 C 0.51178 0.30809 0.56757
 N1517 N 0.52455 0.30689 0.58420
 N1518 N 0.52333 0.28978 0.59657
 C1519 C 0.50930 0.27329 0.59271
 N1520 N 0.49660 0.27442 0.57590
 C1521 C 0.51101 0.32793 0.55644
 C1522 C 0.51036 0.34566 0.54892
 C1523 C 0.50951 0.36747 0.54190
 N1524 N 0.52139 0.38280 0.55141
 N1525 N 0.51953 0.40348 0.54603
 C1526 C 0.50558 0.40945 0.53108
 N1527 N 0.49371 0.39404 0.52158
 N1528 N 0.49555 0.37336 0.52699
 N1529 N 0.48168 1.16214 0.62315
 C1530 C 0.47372 1.15705 0.60480
 N1531 N 0.46999 1.17300 0.59095
 N1532 N 0.47445 1.19344 0.59519
 C1533 C 0.48295 1.19856 0.61339
 N1534 N 0.48611 1.18259 0.62740
 C1535 C 0.47390 1.13530 0.59860
 C1536 C 0.47600 1.11765 0.59212
 C1537 C 0.48026 1.09776 0.58298
 N1538 N 0.46748 1.08009 0.58627
 N1539 N 0.47103 1.06205 0.57660
 C1540 C 0.48745 1.06119 0.56338
 N1541 N 0.50030 1.07888 0.56028
 N1542 N 0.49676 1.09687 0.56996
 N1543 N -0.03262 0.66772 1.09223
 C1544 C -0.02665 0.65259 1.10617
 N1545 N -0.01739 0.65886 1.12366
 N1546 N -0.01390 0.67970 1.12696
 C1547 C -0.01932 0.69488 1.11279
 N1548 N -0.02909 0.68854 1.09551
 C1549 C -0.02564 0.63069 1.10053
 C1550 C -0.02307 0.61306 1.09421
 C1551 C -0.01856 0.59334 1.08488
 N1552 N -0.00173 0.59266 1.07221
 N1553 N 0.00161 0.57511 1.06181
 C1554 C -0.01181 0.55767 1.06379
 N1555 N -0.02853 0.55829 1.07669
 N1556 N -0.03190 0.57589 1.08707
 N1557 N 0.49446 0.69562 -0.08312
 C1558 C 0.50087 0.68161 -0.09692
 N1559 N 0.50275 0.68837 -0.11632
 N1560 N 0.49860 0.70875 -0.12167
 C1561 C 0.49238 0.72296 -0.10782
 N1562 N 0.49033 0.71594 -0.08846
 C1563 C 0.50519 0.65991 -0.09071
 C1564 C 0.50788 0.64213 -0.08366
 C1565 C 0.50944 0.62190 -0.07308
 N1566 N 0.52377 0.60682 -0.07819
 N1567 N 0.52516 0.58836 -0.06751
 C1568 C 0.51233 0.58459 -0.05137
 N1569 N 0.49810 0.59979 -0.04640
 N1570 N 0.49671 0.61812 -0.05704
 N1571 N 0.00327 1.19002 0.41904
 C1572 C 0.00671 1.17613 0.40418
 N1573 N 0.00553 1.18326 0.38480
 N1574 N 0.00122 1.20383 0.38047
 C1575 C -0.00225 1.21781 0.39535
 N1576 N -0.00107 1.21053 0.41471
 C1577 C 0.00990 1.15392 0.40921
 C1578 C 0.01136 1.13558 0.41519
 C1579 C 0.01133 1.11461 0.42448
 N1580 N 0.02806 1.10106 0.42257
 N1581 N 0.02849 1.08243 0.43306
 C1582 C 0.01229 1.07699 0.44588
 N1583 N -0.00441 1.09056 0.44757
 N1584 N -0.00487 1.10905 0.43708
 N1585 N 0.75422 0.71346 0.93519
 C1586 C 0.76858 0.70969 0.92063
 N1587 N 0.78379 0.69454 0.92410
 N1588 N 0.78442 0.68328 0.94143
 C1589 C 0.76986 0.68676 0.95596
 N1590 N 0.75487 0.70222 0.95254
 C1591 C 0.76603 0.71944 0.90090
 C1592 C 0.76366 0.72611 0.88381
 C1593 C 0.76094 0.73200 0.86289
 N1594 N 0.77122 0.72063 0.84903
 N1595 N 0.76754 0.72441 0.82954
 C1596 C 0.75343 0.73969 0.82310
 N1597 N 0.74325 0.75127 0.83700
 N1598 N 0.74691 0.74743 0.85659
 N1599 N 0.25238 0.21209 0.43446
 C1600 C 0.26657 0.20815 0.41980
 N1601 N 0.28190 0.19314 0.42334
 N1602 N 0.28283 0.18219 0.44082
 C1603 C 0.26843 0.18585 0.45545
 N1604 N 0.25331 0.20116 0.45196
 C1605 C 0.26369 0.21753 0.39995
 C1606 C 0.26109 0.22385 0.38278
 C1607 C 0.25816 0.22929 0.36178
 N1608 N 0.26772 0.21716 0.34804
 N1609 N 0.26400 0.22071 0.32853
 C1610 C 0.25057 0.23653 0.32194
 N1611 N 0.24108 0.24885 0.33571
 N1612 N 0.24477 0.24523 0.35533
 N1613 N 0.73365 0.30394 0.42861
 C1614 C 0.75153 0.29203 0.42632
 N1615 N 0.76662 0.29128 0.44126
 N1616 N 0.76404 0.30233 0.45786
 C1617 C 0.74633 0.31460 0.46010
 N1618 N 0.73107 0.31501 0.44521
 C1619 C 0.75583 0.28317 0.40718
 C1620 C 0.75926 0.27756 0.39039
 C1621 C 0.76245 0.27333 0.36961
 N1622 N 0.76678 0.25329 0.36325
 N1623 N 0.76792 0.24960 0.34365
 C1624 C 0.76478 0.26586 0.32985
 N1625 N 0.76077 0.28587 0.33639
 N1626 N 0.75970 0.28955 0.35588
 N1627 N 0.23848 0.80770 0.92728
 C1628 C 0.25671 0.79651 0.92445
 N1629 N 0.27201 0.79578 0.93923
 N1630 N 0.26925 0.80615 0.95619
 C1631 C 0.25115 0.81770 0.95898
 N1632 N 0.23572 0.81810 0.94424
 C1633 C 0.26094 0.78819 0.90506
 C1634 C 0.26410 0.78288 0.88811
 C1635 C 0.26680 0.77874 0.86724
 N1636 N 0.27177 0.75889 0.86081
 N1637 N 0.27232 0.75513 0.84119
 C1638 C 0.26794 0.77112 0.82743
 N1639 N 0.26331 0.79096 0.83401
 N1640 N 0.26281 0.79472 0.85353
 N1641 N 0.25366 0.79586 0.05476
 C1642 C 0.25233 0.80882 0.07067
 N1643 N 0.25137 0.83048 0.06736
 N1644 N 0.25158 0.83888 0.04870
 C1645 C 0.25282 0.82593 0.03267
 N1646 N 0.25387 0.80426 0.03615
 C1647 C 0.25228 0.79972 0.09079
 C1648 C 0.25257 0.79247 0.10781
 C1649 C 0.25355 0.78501 0.12845
 N1650 N 0.26569 0.79622 0.14178
 N1651 N 0.26604 0.79033 0.16112
 C1652 C 0.25434 0.77293 0.16792
 N1653 N 0.24230 0.76150 0.15451
 N1654 N 0.24194 0.76745 0.13507
 N1655 N 0.74958 0.29609 0.55630
 C1656 C 0.74901 0.30965 0.57182
 N1657 N 0.74845 0.33122 0.56788
 N1658 N 0.74834 0.33897 0.54899
 C1659 C 0.74883 0.32540 0.53336
 N1660 N 0.74947 0.30382 0.53745
 C1661 C 0.74934 0.30124 0.59215
 C1662 C 0.74993 0.29450 0.60933
 C1663 C 0.75123 0.28755 0.63008
 N1664 N 0.76248 0.29979 0.64326
 N1665 N 0.76331 0.29411 0.66264
 C1666 C 0.75300 0.27594 0.66962
 N1667 N 0.74183 0.26353 0.65637
 N1668 N 0.74098 0.26925 0.63688
 N1669 N 0.27107 0.17009 0.56547
 C1670 C 0.27466 0.19138 0.56866
 N1671 N 0.27425 0.20547 0.55275
 N1672 N 0.27057 0.19847 0.53424
 C1673 C 0.26708 0.17713 0.53094
 N1674 N 0.26739 0.16308 0.54695
 C1675 C 0.27868 0.19889 0.58870
 C1676 C 0.28164 0.20458 0.60576
 C1677 C 0.28424 0.21007 0.62656
 N1678 N 0.28874 0.23062 0.63213
 N1679 N 0.28938 0.23560 0.65153
 C1680 C 0.28553 0.22014 0.66599
 N1681 N 0.28131 0.19962 0.66027
 N1682 N 0.28073 0.19467 0.64098
 N1683 N 0.77171 0.66977 0.06583
 C1684 C 0.77535 0.69103 0.06921
 N1685 N 0.77509 0.70525 0.05340
 N1686 N 0.77153 0.69843 0.03483
 C1687 C 0.76800 0.67714 0.03133
 N1688 N 0.76815 0.66295 0.04723
 C1689 C 0.77923 0.69836 0.08933
 C1690 C 0.78209 0.70398 0.10643
 C1691 C 0.78455 0.70946 0.12724
 N1692 N 0.78935 0.72995 0.13283
 N1693 N 0.78990 0.73494 0.15223
 C1694 C 0.78566 0.71957 0.16666
 N1695 N 0.78114 0.69911 0.16093
 N1696 N 0.78065 0.69414 0.14164
 N1697 N 0.15466 0.56473 0.23477
 C1698 C 0.15416 0.58022 0.24869
 N1699 N 0.14203 0.57671 0.26526
 N1700 N 0.13059 0.55843 0.26776
 C1701 C 0.13091 0.54288 0.25382
 N1702 N 0.14321 0.54642 0.23727
 C1703 C 0.16619 0.60023 0.24605
 C1704 C 0.17602 0.61726 0.24479
 C1705 C 0.18752 0.63771 0.24484
 N1706 N 0.19364 0.64619 0.26259
 N1707 N 0.20385 0.66525 0.26311
 C1708 C 0.20836 0.67664 0.24592
 N1709 N 0.20224 0.66813 0.22807
 N1710 N 0.19197 0.64898 0.22755
 N1711 N 0.65702 0.06637 0.73676
 C1712 C 0.65674 0.08192 0.75064
 N1713 N 0.64457 0.07863 0.76722
 N1714 N 0.63289 0.06051 0.76977
 C1715 C 0.63299 0.04492 0.75586
 N1716 N 0.64533 0.04822 0.73931
 C1717 C 0.66901 0.10175 0.74794
 C1718 C 0.67906 0.11864 0.74662
 C1719 C 0.69083 0.13893 0.74660
 N1720 N 0.69828 0.14674 0.76422
 N1721 N 0.70859 0.16575 0.76471
 C1722 C 0.71188 0.17773 0.74762
 N1723 N 0.70446 0.16987 0.72988
 N1724 N 0.69408 0.15078 0.72940
 N1725 N 0.86095 0.07282 0.23547
 C1726 C 0.84797 0.07580 0.25130
 N1727 N 0.84686 0.06037 0.26608
 N1728 N 0.85853 0.04263 0.26516
 C1729 C 0.87169 0.03962 0.24938
 N1730 N 0.87263 0.05508 0.23454
 C1731 C 0.83585 0.09523 0.25253
 C1732 C 0.82577 0.11164 0.25323
 C1733 C 0.81370 0.13119 0.25334
 N1734 N 0.80153 0.13701 0.23708
 N1735 N 0.79059 0.15526 0.23681
 C1736 C 0.79140 0.16839 0.25279
 N1737 N 0.80358 0.16252 0.26912
 N1738 N 0.81456 0.14422 0.26939
 N1739 N 0.36069 0.57588 0.73346
 C1740 C 0.34772 0.57897 0.74927
 N1741 N 0.34621 0.56342 0.76391
 N1742 N 0.35756 0.54548 0.76290
 C1743 C 0.37074 0.54238 0.74718
 N1744 N 0.37204 0.55794 0.73245
 C1745 C 0.33609 0.59866 0.75065
 C1746 C 0.32641 0.61529 0.75144
 C1747 C 0.31474 0.63507 0.75156
 N1748 N 0.30215 0.64074 0.73554
 N1749 N 0.29144 0.65912 0.73529
 C1750 C 0.29291 0.67253 0.75103
 N1751 N 0.30555 0.66683 0.76712
 N1752 N 0.31630 0.64839 0.76736
 N1753 N 0.34818 0.43758 0.74669
 C1754 C 0.36163 0.42084 0.74475
 N1755 N 0.38330 0.42469 0.74522
 N1756 N 0.39122 0.44469 0.74734
 C1757 C 0.37776 0.46153 0.74918
 N1758 N 0.35609 0.45753 0.74881
 C1759 C 0.35279 0.39931 0.74271
 C1760 C 0.34445 0.38157 0.74157
 C1761 C 0.33349 0.36083 0.74136
 N1762 N 0.33414 0.34798 0.72520
 N1763 N 0.32341 0.32906 0.72520
 C1764 C 0.31161 0.32243 0.74135
 N1765 N 0.31105 0.33538 0.75742
 N1766 N 0.32175 0.35420 0.75742
 N1767 N 0.88513 0.92317 0.24675
 C1768 C 0.86344 0.91964 0.24553
 N1769 N 0.85015 0.93660 0.24682
 N1770 N 0.85825 0.95647 0.24903
 C1771 C 0.87995 0.96020 0.25013
 N1772 N 0.89324 0.94309 0.24896
 C1773 C 0.85438 0.89820 0.24346
 C1774 C 0.84588 0.88053 0.24230
 C1775 C 0.83474 0.85990 0.24207
 N1776 N 0.82292 0.85337 0.25811
 N1777 N 0.81206 0.83464 0.25810
 C1778 C 0.81251 0.82168 0.24203
 N1779 N 0.82440 0.82821 0.22590
 N1780 N 0.83530 0.84704 0.22591
 N1781 N 0.65599 0.94072 0.75656
 C1782 C 0.64257 0.92319 0.75721
 N1783 N 0.62096 0.92612 0.75843
 N1784 N 0.61306 0.94594 0.75898
 C1785 C 0.62648 0.96356 0.75831
 N1786 N 0.64810 0.96051 0.75711
 C1787 C 0.65125 0.90185 0.75613
 C1788 C 0.65904 0.88422 0.75488
 C1789 C 0.66882 0.86349 0.75290
 N1790 N 0.67718 0.85270 0.76915
 N1791 N 0.68700 0.83396 0.76709
 C1792 C 0.68884 0.82536 0.74867
 N1793 N 0.68038 0.83618 0.73246
 N1794 N 0.67056 0.85489 0.73453
 N1795 N 0.12066 0.42392 0.25612
 C1796 C 0.14231 0.42131 0.25485
 N1797 N 0.15548 0.43904 0.25422
 N1798 N 0.14731 0.45871 0.25483
 C1799 C 0.12564 0.46144 0.25608
 N1800 N 0.11248 0.44363 0.25673
 C1801 C 0.15130 0.40010 0.25374
 C1802 C 0.15929 0.38256 0.25249
 C1803 C 0.16925 0.36190 0.25055
 N1804 N 0.17163 0.35356 0.23215
 N1805 N 0.18147 0.33485 0.23016
 C1806 C 0.18932 0.32377 0.24650
 N1807 N 0.18686 0.33213 0.26494
 N1808 N 0.17702 0.35087 0.26692
 N1809 N 0.07466 0.25345 0.81294
 C1810 C 0.07637 0.23413 0.80428
 N1811 N 0.06280 0.21768 0.80976
 N1812 N 0.04796 0.22053 0.82363
 C1813 C 0.04655 0.23979 0.83268
 N1814 N 0.05994 0.25627 0.82683
 C1815 C 0.09474 0.23046 0.79243
 C1816 C 0.11168 0.22861 0.78430
 C1817 C 0.13304 0.22789 0.77688
 N1818 N 0.14821 0.21683 0.78754
 N1819 N 0.16895 0.21887 0.78283
 C1820 C 0.17518 0.23227 0.76748
 N1821 N 0.15993 0.24319 0.75669
 N1822 N 0.13917 0.24117 0.76143
 N1823 N 0.56085 0.72382 0.30801
 C1824 C 0.57663 0.73900 0.30513
 N1825 N 0.57675 0.75706 0.31601
 N1826 N 0.56166 0.75986 0.32957
 C1827 C 0.54602 0.74460 0.33280
 N1828 N 0.54566 0.72667 0.32155
 C1829 C 0.59492 0.73483 0.29334
 C1830 C 0.61178 0.73236 0.28525
 C1831 C 0.63306 0.73081 0.27779
 N1832 N 0.64791 0.71940 0.28853
 N1833 N 0.66866 0.72063 0.28369
 C1834 C 0.67521 0.73354 0.26810
 N1835 N 0.66027 0.74480 0.25724
 N1836 N 0.63951 0.74358 0.26211
 N1837 N 0.54300 0.27150 0.18727
 C1838 C 0.55128 0.25279 0.19453
 N1839 N 0.54276 0.23382 0.18826
 N1840 N 0.52669 0.23357 0.17475
 C1841 C 0.51885 0.25231 0.16690
 N1842 N 0.52698 0.27126 0.17375
 C1843 C 0.57171 0.25320 0.20457
 C1844 C 0.58989 0.25363 0.21097
 C1845 C 0.61212 0.25392 0.21668
 N1846 N 0.61932 0.24082 0.23179
 N1847 N 0.64036 0.23985 0.23597
 C1848 C 0.65484 0.25176 0.22504
 N1849 N 0.64757 0.26490 0.20990
 N1850 N 0.62651 0.26587 0.20573
 N1851 N 0.03543 0.74761 0.69548
 C1852 C 0.05275 0.73491 0.69359
 N1853 N 0.05351 0.72153 0.67795
 N1854 N 0.03776 0.72137 0.66417
 C1855 C 0.02077 0.73466 0.66552
 N1856 N 0.01958 0.74736 0.68173
 C1857 C 0.07209 0.73904 0.70473
 C1858 C 0.08960 0.74283 0.71186
 C1859 C 0.11131 0.74694 0.71816
 N1860 N 0.12449 0.75945 0.70642
 N1861 N 0.14551 0.76124 0.71076
 C1862 C 0.15395 0.75039 0.72690
 N1863 N 0.14064 0.73804 0.73869
 N1864 N 0.11966 0.73624 0.73435
 N1865 N 0.91497 0.72121 0.65497
 C1866 C 0.90197 0.73035 0.64072
 N1867 N 0.91088 0.74008 0.62430
 N1868 N 0.93224 0.74077 0.62231
 C1869 C 0.94535 0.73197 0.63676
 N1870 N 0.93631 0.72195 0.65301
 C1871 C 0.87970 0.73288 0.64487
 C1872 C 0.86170 0.73582 0.65039
 C1873 C 0.84151 0.73984 0.65934
 N1874 N 0.83997 0.75681 0.67154
 N1875 N 0.82256 0.75898 0.68265
 C1876 C 0.80617 0.74417 0.68197
 N1877 N 0.80759 0.72736 0.66949
 N1878 N 0.82506 0.72516 0.65841
 N1879 N 0.41715 0.22040 0.15640
 C1880 C 0.40314 0.22661 0.14162
 N1881 N 0.41088 0.23595 0.12452
 N1882 N 0.43205 0.23921 0.12239
 C1883 C 0.44609 0.23350 0.13740
 N1884 N 0.43828 0.22372 0.15431
 C1885 C 0.38077 0.22761 0.14602
 C1886 C 0.36273 0.22997 0.15171
 C1887 C 0.34261 0.23405 0.16074
 N1888 N 0.32581 0.21980 0.15942
 N1889 N 0.30814 0.22248 0.17012
 C1890 C 0.30684 0.23936 0.18255
 N1891 N 0.32361 0.25370 0.18364
 N1892 N 0.34121 0.25105 0.17292
 N1893 N 0.43473 0.76171 0.36419
 C1894 C 0.42755 0.76524 0.34508
 N1895 N 0.44157 0.76415 0.32979
 N1896 N 0.46222 0.75982 0.33343
 C1897 C 0.46953 0.75626 0.35251
 N1898 N 0.45545 0.75742 0.36785
 C1899 C 0.40513 0.76767 0.34055
 C1900 C 0.38669 0.76829 0.33475
 C1901 C 0.36584 0.76706 0.32542
 N1902 N 0.36172 0.75101 0.31252
 N1903 N 0.34335 0.75040 0.30199
 C1904 C 0.32843 0.76584 0.30396
 N1905 N 0.33242 0.78188 0.31707
 N1906 N 0.35095 0.78254 0.32760
 N1907 N 0.93774 0.25835 0.86594
 C1908 C 0.93012 0.25881 0.84676
 N1909 N 0.94352 0.25426 0.83169
 N1910 N 0.96406 0.24967 0.83557
 C1911 C 0.97193 0.24935 0.85470
 N1912 N 0.95836 0.25377 0.86983
 C1913 C 0.90799 0.26283 0.84203
 C1914 C 0.88987 0.26496 0.83569
 C1915 C 0.86953 0.26548 0.82536
 N1916 N 0.86627 0.25201 0.80998
 N1917 N 0.84811 0.25266 0.79916
 C1918 C 0.83256 0.26686 0.80327
 N1919 N 0.83576 0.28040 0.81878
 N1920 N 0.85408 0.27978 0.82964
 N1921 N 0.55496 1.01285 0.69616
 C1922 C 0.54626 0.99289 0.69379
 N1923 N 0.55085 0.97710 0.70766
 N1924 N 0.56385 0.98121 0.72337
 C1925 C 0.57283 1.00119 0.72559
 N1926 N 0.56796 1.01692 0.71175
 C1927 C 0.53462 0.98827 0.67550
 C1928 C 0.52635 0.98534 0.65923
 C1929 C 0.51854 0.98259 0.63900
 N1930 N 0.53025 0.97107 0.62628
 N1931 N 0.52487 0.97049 0.60688
 C1932 C 0.50760 0.98145 0.59943
 N1933 N 0.49568 0.99282 0.61223
 N1934 N 0.50113 0.99345 0.63169
 N1935 N 0.05371 0.50951 1.19379
 C1936 C 0.04533 0.48941 1.19142
 N1937 N 0.05006 0.47374 1.20537
 N1938 N 0.06287 0.47809 1.22114
 C1939 C 0.07153 0.49821 1.22337
 N1940 N 0.06653 0.51382 1.20945
 C1941 C 0.03378 0.48459 1.17311
 C1942 C 0.02551 0.48155 1.15686
 C1943 C 0.01759 0.47876 1.13665
 N1944 N 0.02914 0.46709 1.12391
 N1945 N 0.02371 0.46655 1.10452
 C1946 C 0.00655 0.47769 1.09709
 N1947 N -0.00521 0.48920 1.10992
 N1948 N 0.00028 0.48978 1.12937
 N1949 N -0.05253 -0.02993 1.19823
 C1950 C -0.05029 -0.01596 1.18232
 N1951 N -0.05917 0.00376 1.18306
 N1952 N -0.07006 0.00935 1.19908
 C1953 C -0.07252 -0.00458 1.21499
 N1954 N -0.06340 -0.02429 1.21433
 C1955 C -0.04065 -0.02231 1.16399
 C1956 C -0.03408 -0.02614 1.14755
 C1957 C -0.02837 -0.02863 1.12695
 N1958 N -0.04378 -0.02569 1.11254
 N1959 N -0.03858 -0.02468 1.09327
 C1960 C -0.01778 -0.02664 1.08761
 N1961 N -0.00232 -0.03004 1.10204
 N1962 N -0.00754 -0.03095 1.12143
 N1963 N 0.43951 0.50561 0.68109
 C1964 C 0.44881 0.48607 0.68075
 N1965 N 0.44683 0.47239 0.69690
 N1966 N 0.43581 0.47816 0.71287
 C1967 C 0.42628 0.49769 0.71314
 N1968 N 0.42848 0.51133 0.69698
 C1969 C 0.45863 0.47955 0.66259
 C1970 C 0.46529 0.47561 0.64622
 C1971 C 0.47102 0.47298 0.62567
 N1972 N 0.49194 0.47151 0.62010
 N1973 N 0.49706 0.47241 0.60069
 C1974 C 0.48142 0.47499 0.58630
 N1975 N 0.46055 0.47612 0.59200
 N1976 N 0.45545 0.47510 0.61130
 N1977 N 0.45119 0.52280 -0.19249
 C1978 C 0.46040 0.50401 -0.18672
 N1979 N 0.45520 0.48589 -0.19688
 N1980 N 0.44115 0.48661 -0.21233
 C1981 C 0.43162 0.50544 -0.21788
 N1982 N 0.43714 0.52350 -0.20779
 C1983 C 0.47247 0.50304 -0.16812
 C1984 C 0.48050 0.50302 -0.15149
 C1985 C 0.48716 0.50311 -0.13074
 N1986 N 0.50484 0.51451 -0.12432
 N1987 N 0.50944 0.51578 -0.10470
 C1988 C 0.49630 0.50591 -0.09094
 N1989 N 0.47872 0.49457 -0.09754
 N1990 N 0.47420 0.49325 -0.11702
 N1991 N -0.04953 1.01716 0.31140
 C1992 C -0.03935 0.99847 0.31567
 N1993 N -0.04361 0.98119 0.30405
 N1994 N -0.05764 0.98264 0.28863
 C1995 C -0.06807 1.00135 0.28451
 N1996 N -0.06355 1.01857 0.29611
 C1997 C -0.02668 0.99658 0.33390
 C1998 C -0.01786 0.99572 0.35020
 C1999 C -0.00991 0.99485 0.37060
 N2000 N 0.00569 1.00880 0.37723
 N2001 N 0.01083 1.00950 0.39678
 C2002 C 0.00033 0.99642 0.41029
 N2003 N -0.01509 0.98244 0.40348
 N2004 N -0.02013 0.98168 0.38405
 N2005 N 0.05447 0.47431 0.31281
 C2006 C 0.05308 0.48923 0.32724
 N2007 N 0.06367 0.50839 0.32470
 N2008 N 0.07529 0.51257 0.30838
 C2009 C 0.07686 0.49774 0.29390
 N2010 N 0.06611 0.47852 0.29638
 C2011 C 0.04186 0.48475 0.34576
 C2012 C 0.03384 0.48268 0.36216
 C2013 C 0.02635 0.48222 0.38257
 N2014 N 0.04075 0.48630 0.39756
 N2015 N 0.03415 0.48862 0.41624
 C2016 C 0.01286 0.48689 0.42077
 N2017 N -0.00163 0.48245 0.40579
 N2018 N 0.00502 0.48021 0.38698
 N2019 N 0.55535 -0.02220 -0.18518
 C2020 C 0.55408 -0.00715 -0.17085
 N2021 N 0.56496 0.01185 -0.17343
 N2022 N 0.57674 0.01574 -0.18970
 C2023 C 0.57819 0.00079 -0.20407
 N2024 N 0.56714 -0.01826 -0.20155
 C2025 C 0.54277 -0.01137 -0.15236
 C2026 C 0.53475 -0.01326 -0.13595
 C2027 C 0.52734 -0.01359 -0.11554
 N2028 N 0.50600 -0.01512 -0.11106
 N2029 N 0.49952 -0.01288 -0.09220
 C2030 C 0.51418 -0.00888 -0.07725
 N2031 N 0.53546 -0.00760 -0.08185
 N2032 N 0.54191 -0.00992 -0.10059
 N2033 N 0.70365 0.60243 0.00464
 C2034 C 0.68863 0.60413 -0.01045
 N2035 N 0.69161 0.61929 -0.02517
 N2036 N 0.70900 0.63223 -0.02495
 C2037 C 0.72416 0.63065 -0.00999
 N2038 N 0.72115 0.61545 0.00485
 C2039 C 0.66950 0.59046 -0.01092
 C2040 C 0.65304 0.57963 -0.01176
 C2041 C 0.63307 0.56723 -0.01240
 N2042 N 0.62089 0.56610 -0.02954
 N2043 N 0.60186 0.55551 -0.02964
 C2044 C 0.59438 0.54571 -0.01256
 N2045 N 0.60671 0.54682 0.00448
 N2046 N 0.62567 0.55735 0.00457
 N2047 N 0.20320 1.10161 0.50535
 C2048 C 0.18812 1.10293 0.49029
 N2049 N 0.19090 1.11790 0.47536
 N2050 N 0.20817 1.13101 0.47536
 C2051 C 0.22339 1.12980 0.49029
 N2052 N 0.22057 1.11480 0.50534
 C2053 C 0.16909 1.08912 0.49008
 C2054 C 0.15269 1.07819 0.48947
 C2055 C 0.13275 1.06573 0.48911
 N2056 N 0.12160 1.06246 0.47166
 N2057 N 0.10263 1.05174 0.47169
 C2058 C 0.09419 1.04399 0.48922
 N2059 N 0.10549 1.04727 0.50657
 N2060 N 0.12437 1.05792 0.50654
 N2061 N 0.19363 -0.10354 1.01931
 C2062 C 0.17569 -0.10424 1.00730
 N2063 N 0.17546 -0.11709 0.99120
 N2064 N 0.19251 -0.12889 0.98723
 C2065 C 0.21052 -0.12830 0.99916
 N2066 N 0.21074 -0.11540 1.01532
 C2067 C 0.15721 -0.09120 1.01102
 C2068 C 0.14132 -0.08045 1.01291
 C2069 C 0.12212 -0.06771 1.01361
 N2070 N 0.11707 -0.05428 0.99792
 N2071 N 0.09874 -0.04341 0.99767
 C2072 C 0.08470 -0.04554 1.01308
 N2073 N 0.08982 -0.05893 1.02889
 N2074 N 0.10820 -0.06985 1.02913
 N2075 N 0.69149 0.39732 0.51806
 C2076 C 0.67351 0.39688 0.50609
 N2077 N 0.67277 0.38353 0.49035
 N2078 N 0.68938 0.37100 0.48668
 C2079 C 0.70742 0.37133 0.49859
 N2080 N 0.70814 0.38474 0.51438
 C2081 C 0.65547 0.41058 0.50957
 C2082 C 0.63992 0.42182 0.51139
 C2083 C 0.62101 0.43497 0.51216
 N2084 N 0.61586 0.44815 0.49631
 N2085 N 0.59765 0.45922 0.49610
 C2086 C 0.58386 0.45756 0.51174
 N2087 N 0.58911 0.44446 0.52771
 N2088 N 0.60736 0.43334 0.52791
 N2089 N -0.19914 0.40480 0.50905
 C2090 C -0.18524 0.40705 0.49351
 N2091 N -0.18789 0.39416 0.47761
 N2092 N -0.20381 0.37947 0.47721
 C2093 C -0.21776 0.37701 0.49267
 N2094 N -0.21518 0.39004 0.50864
 C2095 C -0.16731 0.42220 0.49385
 C2096 C -0.15166 0.43416 0.49329
 C2097 C -0.13252 0.44772 0.49234
 N2098 N -0.11846 0.44611 0.47705
 N2099 N -0.10007 0.45772 0.47680
 C2100 C -0.09512 0.47136 0.49186
 N2101 N -0.10934 0.47302 0.50704
 N2102 N -0.12770 0.46144 0.50728
 N2103 N 0.30338 -0.09255 0.01057
 C2104 C 0.31703 -0.08927 -0.00507
 N2105 N 0.31451 -0.10156 -0.02140
 N2106 N 0.29898 -0.11664 -0.02213
 C2107 C 0.28529 -0.12013 -0.00659
 N2108 N 0.28772 -0.10771 0.00981
 C2109 C 0.33464 -0.07375 -0.00440
 C2110 C 0.35008 -0.06149 -0.00481
 C2111 C 0.36907 -0.04769 -0.00570
 N2112 N 0.38284 -0.04866 -0.02129
 N2113 N 0.40120 -0.03700 -0.02148
 C2114 C 0.40642 -0.02392 -0.00606
 N2115 N 0.39248 -0.02286 0.00943
 N2116 N 0.37415 -0.03450 0.00960
 N2117 N 0.31058 1.09775 0.52188
 C2118 C 0.32849 1.09539 0.51074
 N2119 N 0.33091 1.10767 0.49374
 N2120 N 0.31603 1.12191 0.48810
 C2121 C 0.29808 1.12441 0.49918
 N2122 N 0.29566 1.11205 0.51621
 C2123 C 0.34470 1.07985 0.51635
 C2124 C 0.35893 1.06705 0.51956
 C2125 C 0.37648 1.05211 0.52124
 N2126 N 0.38905 1.05036 0.53813
 N2127 N 0.40658 1.03809 0.53851
 C2128 C 0.41212 1.02724 0.52198
 N2129 N 0.39932 1.02891 0.50527
 N2130 N 0.38186 1.04105 0.50491
 N2131 N -0.18882 0.59746 1.02133
 C2132 C -0.17096 0.59512 1.01010
 N2133 N -0.16850 0.60763 0.99326
 N2134 N -0.18328 0.62205 0.98783
 C2135 C -0.20117 0.62453 0.99900
 N2136 N -0.20365 0.61194 1.01588
 C2137 C -0.15483 0.57941 1.01546
 C2138 C -0.14061 0.56653 1.01838
 C2139 C -0.12306 0.55158 1.01966
 N2140 N -0.11087 0.54887 1.03669
 N2141 N -0.09336 0.53659 1.03681
 C2142 C -0.08744 0.52668 1.01986
 N2143 N -0.09986 0.52931 1.00299
 N2144 N -0.11731 0.54147 1.00290
 N2145 N -0.01341 0.70983 0.56289
 C2146 C 0.00503 0.69939 0.55910
 N2147 N 0.02172 0.70039 0.57245
 N2148 N 0.01998 0.71126 0.58921
 C2149 C 0.00139 0.72132 0.59329
 N2150 N -0.01512 0.72082 0.57963
 C2151 C 0.00487 0.68287 0.54473
 C2152 C 0.00467 0.66674 0.53528
 C2153 C 0.00434 0.64567 0.52740
 N2154 N 0.01573 0.63015 0.53725
 N2155 N 0.01302 0.60959 0.53259
 C2156 C -0.00133 0.60387 0.51802
 N2157 N -0.01257 0.61948 0.50795
 N2158 N -0.00993 0.64008 0.51271
 N2159 N 0.52734 0.20306 0.08137
 C2160 C 0.51220 0.20053 0.06667
 N2161 N 0.49369 0.21175 0.06726
 N2162 N 0.49035 0.22496 0.08222
 C2163 C 0.50527 0.22717 0.09721
 N2164 N 0.52399 0.21626 0.09634
 C2165 C 0.51346 0.18276 0.05372
 C2166 C 0.51351 0.16629 0.04475
 C2167 C 0.51250 0.14538 0.03648
 N2168 N 0.49918 0.14116 0.02066
 N2169 N 0.49575 0.12094 0.01502
 C2170 C 0.50528 0.10434 0.02524
 N2171 N 0.51872 0.10867 0.04096
 N2172 N 0.52218 0.12886 0.04654
 N2173 N 0.02838 0.18012 0.91462
 C2174 C 0.01263 0.18180 0.92829
 N2175 N -0.00122 0.19841 0.92656
 N2176 N 0.00073 0.21295 0.91158
 C2177 C 0.01642 0.21121 0.89775
 N2178 N 0.03030 0.19461 0.89964
 C2179 C 0.00922 0.16471 0.94274
 C2180 C 0.00649 0.14904 0.95345
 C2181 C 0.00345 0.12901 0.96419
 N2182 N -0.01079 0.11425 0.95688
 N2183 N -0.01167 0.09435 0.96478
 C2184 C 0.00174 0.08852 0.98022
 N2185 N 0.01581 0.10343 0.98775
 N2186 N 0.01673 0.12337 0.97978
 N2187 N 0.49333 0.69876 0.42259
 C2188 C 0.50561 0.68093 0.42294
 N2189 N 0.52085 0.67889 0.40883
 N2190 N 0.52382 0.69425 0.39477
 C2191 C 0.51157 0.71213 0.39429
 N2192 N 0.49633 0.71416 0.40851
 C2193 C 0.50171 0.66361 0.43703
 C2194 C 0.49894 0.64793 0.44771
 C2195 C 0.49631 0.62806 0.45878
 N2196 N 0.50913 0.62347 0.47497
 N2197 N 0.50881 0.60376 0.48343
 C2198 C 0.49578 0.58801 0.47582
 N2199 N 0.48278 0.59277 0.45977
 N2200 N 0.48308 0.61246 0.45137
 N2201 N 0.50344 0.80423 0.41670
 C2202 C 0.51849 0.82029 0.41502
 N2203 N 0.53442 0.81887 0.40148
 N2204 N 0.53519 0.80186 0.38984
 C2205 C 0.52003 0.78579 0.39135
 N2206 N 0.50421 0.78723 0.40506
 C2207 C 0.51662 0.83919 0.42637
 C2208 C 0.51440 0.85526 0.43560
 C2209 C 0.51112 0.87437 0.44632
 N2210 N 0.52223 0.89276 0.44148
 N2211 N 0.51878 0.91072 0.45127
 C2212 C 0.50403 0.91082 0.46610
 N2213 N 0.49291 0.89236 0.47086
 N2214 N 0.49636 0.87441 0.46108
 N2215 N 0.00303 0.30433 0.91287
 C2216 C 0.01706 0.32102 0.90955
 N2217 N 0.03254 0.31937 0.89560
 N2218 N 0.03385 0.30151 0.88515
 C2219 C 0.01973 0.28478 0.88835
 N2220 N 0.00434 0.28648 0.90243
 C2221 C 0.01500 0.34039 0.92018
 C2222 C 0.01270 0.35659 0.92918
 C2223 C 0.00939 0.37556 0.94009
 N2224 N 0.02119 0.39376 0.93613
 N2225 N 0.01809 0.41140 0.94652
 C2226 C 0.00306 0.41134 0.96111
 N2227 N -0.00876 0.39308 0.96497
 N2228 N -0.00566 0.37547 0.95459
 N2229 N 0.47324 0.30829 0.07937
 C2230 C 0.47884 0.32800 0.08625
 N2231 N 0.48527 0.32997 0.10562
 N2232 N 0.48646 0.31267 0.11776
 C2233 C 0.48124 0.29283 0.11092
 N2234 N 0.47438 0.29096 0.09157
 C2235 C 0.48028 0.34631 0.07298
 C2236 C 0.48281 0.36241 0.06288
 C2237 C 0.48685 0.38229 0.05234
 N2238 N 0.50191 0.38379 0.03780
 N2239 N 0.50704 0.40286 0.02931
 C2240 C 0.49746 0.42099 0.03536
 N2241 N 0.48240 0.41937 0.04991
 N2242 N 0.47727 0.40034 0.05835
 N2243 N -0.02082 0.80871 0.58809
 C2244 C -0.00948 0.82566 0.59555
 N2245 N 0.00136 0.82330 0.61325
 N2246 N 0.00107 0.80440 0.62316
 C2247 C -0.01005 0.78727 0.61566
 N2248 N -0.02111 0.78979 0.59802
 C2249 C -0.00766 0.84539 0.58425
 C2250 C -0.00544 0.86197 0.57478
 C2251 C -0.00234 0.88167 0.56367
 N2252 N -0.01396 0.89912 0.56797
 N2253 N -0.01087 0.91762 0.55779
 C2254 C 0.00400 0.91926 0.54305
 N2255 N 0.01565 0.90174 0.53880
 N2256 N 0.01255 0.88321 0.54900
 N2257 N 0.22373 0.30063 0.04185
 C2258 C 0.23938 0.29546 0.05561
 N2259 N 0.25968 0.30340 0.05292
 N2260 N 0.26422 0.31621 0.03714
 C2261 C 0.24864 0.32166 0.02342
 N2262 N 0.22831 0.31345 0.02596
 C2263 C 0.23438 0.28390 0.07405
 C2264 C 0.23123 0.27558 0.09039
 C2265 C 0.22835 0.26753 0.11067
 N2266 N 0.23951 0.25032 0.11801
 N2267 N 0.23882 0.24470 0.13749
 C2268 C 0.22706 0.25623 0.15031
 N2269 N 0.21579 0.27329 0.14282
 N2270 N 0.21643 0.27884 0.12340
 N2271 N 0.75710 0.80196 0.55337
 C2272 C 0.73642 0.79544 0.55656
 N2273 N 0.72079 0.80165 0.54316
 N2274 N 0.72575 0.81415 0.52716
 C2275 C 0.74649 0.82098 0.52415
 N2276 N 0.76203 0.81445 0.53749
 C2277 C 0.73122 0.78436 0.57519
 C2278 C 0.72814 0.77638 0.59167
 C2279 C 0.72563 0.76863 0.61208
 N2280 N 0.71407 0.78017 0.62493
 N2281 N 0.71393 0.77492 0.64444
 C2282 C 0.72537 0.75795 0.65188
 N2283 N 0.73676 0.74621 0.63895
 N2284 N 0.73694 0.75152 0.61939
 N2285 N 0.21768 0.69525 0.55546
 C2286 C 0.23080 0.69633 0.57195
 N2287 N 0.25045 0.68714 0.57161
 N2288 N 0.25677 0.67708 0.55541
 C2289 C 0.24369 0.67580 0.53891
 N2290 N 0.22405 0.68519 0.53920
 C2291 C 0.22376 0.70557 0.59023
 C2292 C 0.21932 0.71204 0.60655
 C2293 C 0.21607 0.71794 0.62699
 N2294 N 0.21812 0.70265 0.64176
 N2295 N 0.21871 0.70805 0.66093
 C2296 C 0.21717 0.72894 0.66613
 N2297 N 0.21460 0.74427 0.65134
 N2298 N 0.21411 0.73885 0.63206
 N2299 N 0.71926 0.19473 0.05568
 C2300 C 0.73265 0.19665 0.07190
 N2301 N 0.75258 0.18809 0.07144
 N2302 N 0.75893 0.17781 0.05539
 C2303 C 0.74559 0.17568 0.03916
 N2304 N 0.72567 0.18447 0.03954
 C2305 C 0.72555 0.20581 0.09017
 C2306 C 0.72115 0.21209 0.10655
 C2307 C 0.71801 0.21763 0.12707
 N2308 N 0.72005 0.20207 0.14158
 N2309 N 0.72076 0.20710 0.16084
 C2310 C 0.71937 0.22789 0.16638
 N2311 N 0.71684 0.24351 0.15184
 N2312 N 0.71624 0.23846 0.13248
 N2313 N 0.73350 0.20458 0.94796
 C2314 C 0.75165 0.21079 0.93793
 N2315 N 0.77089 0.20289 0.94420
 N2316 N 0.77200 0.18912 0.95981
 C2317 C 0.75394 0.18259 0.96976
 N2318 N 0.73464 0.19082 0.96373
 C2319 C 0.75048 0.22256 0.91905
 C2320 C 0.75045 0.23047 0.90229
 C2321 C 0.75074 0.23715 0.88146
 N2322 N 0.74218 0.22366 0.86773
 N2323 N 0.74370 0.22838 0.84823
 C2324 C 0.75395 0.24671 0.84162
 N2325 N 0.76252 0.26038 0.85538
 N2326 N 0.76105 0.25558 0.87501
 N2327 N 0.26785 0.70276 0.44244
 C2328 C 0.24850 0.71071 0.43658
 N2329 N 0.23067 0.70493 0.44726
 N2330 N 0.23221 0.69150 0.46324
 C2331 C 0.25161 0.68322 0.46889
 N2332 N 0.26937 0.68933 0.45828
 C2333 C 0.24681 0.72229 0.41762
 C2334 C 0.24630 0.73017 0.40085
 C2335 C 0.24607 0.73702 0.38004
 N2336 N 0.25739 0.75477 0.37339
 N2337 N 0.25857 0.75955 0.35374
 C2338 C 0.24867 0.74655 0.34014
 N2339 N 0.23736 0.72892 0.34694
 N2340 N 0.23612 0.72422 0.36648
 N2341 N 0.72489 0.80554 0.43453
 C2342 C 0.74005 0.80436 0.42011
 N2343 N 0.75921 0.81495 0.42268
 N2344 N 0.76314 0.82633 0.43902
 C2345 C 0.74808 0.82766 0.45351
 N2346 N 0.72886 0.81694 0.45098
 C2347 C 0.73589 0.79322 0.40164
 C2348 C 0.73401 0.78520 0.38531
 C2349 C 0.73368 0.77762 0.36500
 N2350 N 0.73768 0.79195 0.34975
 N2351 N 0.74003 0.78529 0.33113
 C2352 C 0.73842 0.76403 0.32690
 N2353 N 0.73407 0.74961 0.34214
 N2354 N 0.73179 0.75631 0.36090
 N2355 N 0.25995 0.31504 0.92189
 C2356 C 0.24085 0.30429 0.91956
 N2357 N 0.22586 0.30538 0.93414
 N2358 N 0.22994 0.31688 0.95050
 C2359 C 0.24910 0.32777 0.95279
 N2360 N 0.26399 0.32651 0.93815
 C2361 C 0.23652 0.29310 0.90114
 C2362 C 0.23447 0.28506 0.88485
 C2363 C 0.23389 0.27749 0.86453
 N2364 N 0.23237 0.25615 0.86046
 N2365 N 0.23448 0.24950 0.84168
 C2366 C 0.23830 0.26399 0.82637
 N2367 N 0.23953 0.28527 0.83057
 N2368 N 0.23734 0.29188 0.84922
 N2369 N 0.86505 0.44350 0.77561
 C2370 C 0.85032 0.44060 0.76067
 N2371 N 0.84946 0.45536 0.74519
 N2372 N 0.86289 0.47253 0.74480
 C2373 C 0.87767 0.47545 0.75985
 N2374 N 0.87840 0.46057 0.77521
 C2375 C 0.83634 0.42171 0.76125
 C2376 C 0.82531 0.40541 0.76218
 C2377 C 0.81276 0.38556 0.76295
 N2378 N 0.80277 0.37845 0.74610
 N2379 N 0.79236 0.35947 0.74626
 C2380 C 0.79147 0.34682 0.76324
 N2381 N 0.80134 0.35404 0.78021
 N2382 N 0.81182 0.37309 0.78005
 N2383 N 0.34840 0.95341 0.24544
 C2384 C 0.34876 0.93858 0.26087
 N2385 N 0.36305 0.94136 0.27620
 N2386 N 0.37646 0.95838 0.27621
 C2387 C 0.37624 0.97333 0.26089
 N2388 N 0.36189 0.97053 0.24546
 C2389 C 0.33474 0.91973 0.26100
 C2390 C 0.32367 0.90344 0.26156
 C2391 C 0.31113 0.88359 0.26194
 N2392 N 0.30888 0.87156 0.27918
 N2393 N 0.29840 0.85251 0.27909
 C2394 C 0.28987 0.84486 0.26170
 N2395 N 0.29207 0.85706 0.24456
 N2396 N 0.30249 0.87604 0.24466
 N2397 N 0.13183 0.92487 0.75914
 C2398 C 0.14476 0.92508 0.74294
 N2399 N 0.14559 0.94300 0.73076
 N2400 N 0.13376 0.96011 0.73467
 C2401 C 0.12076 0.95991 0.75093
 N2402 N 0.12006 0.94192 0.76303
 C2403 C 0.15770 0.90656 0.73928
 C2404 C 0.16831 0.89059 0.73748
 C2405 C 0.18085 0.87129 0.73687
 N2406 N 0.19519 0.86675 0.75191
 N2407 N 0.20583 0.84830 0.75237
 C2408 C 0.20254 0.83364 0.73782
 N2409 N 0.18824 0.83825 0.72266
 N2410 N 0.17755 0.85674 0.72221
 N2411 N 0.63443 0.42319 0.26008
 C2412 C 0.64749 0.42339 0.24397
 N2413 N 0.64830 0.44127 0.23173
 N2414 N 0.63634 0.45833 0.23549
 C2415 C 0.62320 0.45813 0.25165
 N2416 N 0.62252 0.44019 0.26383
 C2417 C 0.66047 0.40487 0.24041
 C2418 C 0.67107 0.38888 0.23866
 C2419 C 0.68348 0.36948 0.23808
 N2420 N 0.69707 0.36437 0.25357
 N2421 N 0.70750 0.34580 0.25402
 C2422 C 0.70475 0.33158 0.23902
 N2423 N 0.69122 0.33677 0.22340
 N2424 N 0.68074 0.35539 0.22297
 N2425 N 0.65714 0.55237 0.23978
 C2426 C 0.65946 0.56607 0.25528
 N2427 N 0.64676 0.56309 0.27147
 N2428 N 0.63220 0.54706 0.27217
 C2429 C 0.62965 0.53331 0.25676
 N2430 N 0.64249 0.53621 0.24051
 C2431 C 0.67447 0.58415 0.25466
 C2432 C 0.68632 0.59988 0.25508
 C2433 C 0.69978 0.61909 0.25593
 N2434 N 0.69782 0.63304 0.27111
 N2435 N 0.70943 0.65141 0.27132
 C2436 C 0.72344 0.65644 0.25634
 N2437 N 0.72543 0.64234 0.24127
 N2438 N 0.71385 0.62400 0.24107
 N2439 N 0.15577 0.05358 0.73892
 C2440 C 0.15887 0.06690 0.75462
 N2441 N 0.14666 0.06382 0.77112
 N2442 N 0.13180 0.04806 0.77193
 C2443 C 0.12846 0.03471 0.75631
 N2444 N 0.14083 0.03770 0.73976
 C2445 C 0.17414 0.08475 0.75390
 C2446 C 0.18621 0.10031 0.75430
 C2447 C 0.19987 0.11937 0.75520
 N2448 N 0.19809 0.13325 0.77046
 N2449 N 0.20983 0.15153 0.77072
 C2450 C 0.22381 0.15654 0.75572
 N2451 N 0.22565 0.14250 0.74057
 N2452 N 0.21393 0.12425 0.74031
 N2453 N 0.35668 0.08101 0.25617
 C2454 C 0.34430 0.07868 0.23936
 N2455 N 0.34633 0.06067 0.22851
 N2456 N 0.36039 0.04557 0.23428
 C2457 C 0.37284 0.04789 0.25113
 N2458 N 0.37069 0.06595 0.26192
 C2459 C 0.32892 0.09502 0.23371
 C2460 C 0.31621 0.10933 0.23051
 C2461 C 0.30135 0.12693 0.22893
 N2462 N 0.29080 0.13262 0.24552
 N2463 N 0.27866 0.15006 0.24516
 C2464 C 0.27646 0.16252 0.22819
 N2465 N 0.28680 0.15667 0.21140
 N2466 N 0.29908 0.13917 0.21178
 N2467 N 0.85838 0.58347 0.75504
 C2468 C 0.84569 0.58124 0.73842
 N2469 N 0.84733 0.56318 0.72756
 N2470 N 0.86132 0.54794 0.73314
 C2471 C 0.87409 0.55018 0.74980
 N2472 N 0.87231 0.56827 0.76060
 C2473 C 0.83041 0.59776 0.73301
 C2474 C 0.81786 0.61226 0.73011
 C2475 C 0.80327 0.63010 0.72901
 N2476 N 0.79388 0.63628 0.74604
 N2477 N 0.78192 0.65383 0.74601
 C2478 C 0.77877 0.66593 0.72896
 N2479 N 0.78797 0.65962 0.71174
 N2480 N 0.80007 0.64200 0.71178
 N2481 N 0.96418 0.73595 0.18705
 C2482 C 0.95464 0.75501 0.19005
 N2483 N 0.95808 0.77169 0.17686
 N2484 N 0.97046 0.76931 0.16099
 C2485 C 0.97961 0.75008 0.15766
 N2486 N 0.97660 0.73358 0.17119
 C2487 C 0.93696 0.75579 0.20339
 C2488 C 0.92028 0.75593 0.21228
 C2489 C 0.89892 0.75559 0.21993
 N2490 N 0.88340 0.76647 0.20958
 N2491 N 0.86274 0.76380 0.21435
 C2492 C 0.85691 0.74999 0.22953
 N2493 N 0.87251 0.73926 0.24006
 N2494 N 0.89322 0.74188 0.23522
 N2495 N 0.46038 0.27328 0.67908
 C2496 C 0.45564 0.25631 0.69158
 N2497 N 0.46476 0.23706 0.68853
 N2498 N 0.47803 0.23476 0.67327
 C2499 C 0.48236 0.25158 0.66041
 N2500 N 0.47362 0.27099 0.66382
 C2501 C 0.43733 0.25725 0.70416
 C2502 C 0.42033 0.25742 0.71249
 C2503 C 0.39878 0.25694 0.71968
 N2504 N 0.39304 0.24369 0.73529
 N2505 N 0.37229 0.24094 0.73992
 C2506 C 0.35669 0.25110 0.72888
 N2507 N 0.36255 0.26444 0.71336
 N2508 N 0.38325 0.26723 0.70879
 N2509 N 0.43104 0.77766 0.82346
 C2510 C 0.43242 0.76011 0.81199
 N2511 N 0.44763 0.74525 0.81654
 N2512 N 0.46109 0.74796 0.83213
 C2513 C 0.45952 0.76542 0.84381
 N2514 N 0.44441 0.78031 0.83905
 C2515 C 0.41561 0.75584 0.79765
 C2516 C 0.39976 0.75275 0.78743
 C2517 C 0.37921 0.74967 0.77780
 N2518 N 0.36465 0.73589 0.78644
 N2519 N 0.34416 0.73559 0.78015
 C2520 C 0.33750 0.74916 0.76508
 N2521 N 0.35219 0.76272 0.75617
 N2522 N 0.37272 0.76308 0.76254
 N2523 N 0.92652 0.26782 0.33450
 C2524 C 0.92971 0.25275 0.32065
 N2525 N 0.94770 0.24069 0.32194
 N2526 N 0.96215 0.24376 0.33670
 C2527 C 0.95893 0.25881 0.35073
 N2528 N 0.94089 0.27084 0.34924
 C2529 C 0.91301 0.24850 0.30619
 C2530 C 0.89741 0.24559 0.29560
 C2531 C 0.87726 0.24294 0.28518
 N2532 N 0.86194 0.22962 0.29326
 N2533 N 0.84181 0.22972 0.28602
 C2534 C 0.83627 0.24325 0.27053
 N2535 N 0.85172 0.25636 0.26219
 N2536 N 0.87189 0.25630 0.26950
 N2537 N 0.06549 0.28139 0.35054
 C2538 C 0.06818 0.26535 0.33752
 N2539 N 0.05214 0.25050 0.33484
 N2540 N 0.03392 0.25156 0.34502
 C2541 C 0.03117 0.26750 0.35818
 N2542 N 0.04725 0.28245 0.36071
 C2543 C 0.08796 0.26355 0.32719
 C2544 C 0.10445 0.26136 0.31838
 C2545 C 0.12370 0.25806 0.30762
 N2546 N 0.12392 0.24293 0.29340
 N2547 N 0.14175 0.23987 0.28310
 C2548 C 0.15993 0.25181 0.28676
 N2549 N 0.15969 0.26692 0.30108
 N2550 N 0.14183 0.26998 0.31139
 N2551 N 0.55433 0.75040 0.83783
 C2552 C 0.57073 0.76457 0.84157
 N2553 N 0.56769 0.78080 0.85431
 N2554 N 0.54875 0.78271 0.86318
 C2555 C 0.53228 0.76848 0.85953
 N2556 N 0.53542 0.75231 0.84670
 C2557 C 0.59089 0.76240 0.83196
 C2558 C 0.60752 0.76014 0.82340
 C2559 C 0.62674 0.75702 0.81253
 N2560 N 0.64446 0.76979 0.81550
 N2561 N 0.66204 0.76733 0.80463
 C2562 C 0.66237 0.75204 0.79047
 N2563 N 0.64463 0.73923 0.78763
 N2564 N 0.62708 0.74168 0.79850
 N2565 N 0.56053 0.21445 0.67329
 C2566 C 0.58057 0.21803 0.66588
 N2567 N 0.58278 0.22418 0.64636
 N2568 N 0.56546 0.22716 0.63466
 C2569 C 0.54534 0.22413 0.64211
 N2570 N 0.54317 0.21734 0.66153
 C2571 C 0.59889 0.21947 0.67896
 C2572 C 0.61486 0.22277 0.68889
 C2573 C 0.63438 0.22844 0.69918
 N2574 N 0.65336 0.22102 0.69272
 N2575 N 0.67191 0.22810 0.70068
 C2576 C 0.67211 0.24307 0.71513
 N2577 N 0.65306 0.25050 0.72162
 N2578 N 0.63446 0.24341 0.71362
 N2579 N 0.06020 0.71520 0.16721
 C2580 C 0.07958 0.72068 0.15920
 N2581 N 0.08048 0.72801 0.13991
 N2582 N 0.06245 0.73024 0.12901
 C2583 C 0.04294 0.72525 0.13707
 N2584 N 0.04214 0.71737 0.15626
 C2585 C 0.09842 0.72224 0.17162
 C2586 C 0.11451 0.72539 0.18143
 C2587 C 0.13387 0.73066 0.19216
 N2588 N 0.15283 0.72236 0.18661
 N2589 N 0.17121 0.72859 0.19549
 C2590 C 0.17124 0.74349 0.21001
 N2591 N 0.15221 0.75181 0.21553
 N2592 N 0.13380 0.74557 0.20662
   
