data_POSCAR
  _audit_creation_date              2014-09-24
  _audit_creation_method            'ToBaCCo'
  _symmetry_space_group_name_H-M    'P1'
  _symmetry_Int_Tables_number       1
  _symmetry_cell_setting            triclinic
  loop_
  _symmetry_equiv_pos_as_xyz
 x,y,z
_cell_length_a 30.2332
_cell_length_b 30.2867
_cell_length_c 36.3575
_cell_angle_alpha 89.992800
_cell_angle_beta 89.999800
_cell_angle_gamma 90.007500
loop_
  _atom_site_label
  _atom_site_type_symbol
  _atom_site_fract_x
  _atom_site_fract_y
  _atom_site_fract_z
Zr1 Zr 0.24265 0.24415 0.31450
 O2 O 0.25867 0.26042 0.36965
 O3 O 0.19621 0.19899 0.33745
 O4 O 0.20779 0.29365 0.34429
 O5 O 0.33353 0.17475 0.30053
 O6 O 0.17107 0.33265 0.30040
 O7 O 0.29485 0.21290 0.34375
 O8 O 0.16006 0.16731 0.28947
 O9 O 0.18664 0.24697 0.28064
 O10 O 0.24590 0.18805 0.28087
 O11 O 0.24886 0.30422 0.28540
 O12 O 0.30361 0.24791 0.28610
 Zr13 Zr 0.25398 0.25534 0.18576
 Zr14 Zr 0.19374 0.30558 0.25017
 Zr15 Zr 0.30422 0.19353 0.25018
 Zr16 Zr 0.19226 0.19267 0.24479
 O17 O 0.37402 0.19765 0.24680
 O18 O 0.12282 0.20115 0.23928
 O19 O 0.24997 0.19458 0.21401
 O20 O 0.19390 0.25063 0.21483
 O21 O 0.25230 0.31162 0.21929
 O22 O 0.31029 0.25148 0.21927
 C23 C 0.16697 0.17272 0.32354
 C24 C 0.32631 0.18663 0.33407
 C25 C 0.18164 0.32504 0.33421
 O26 O 0.12404 0.29988 0.25214
 O27 O 0.16683 0.32869 0.20006
 O28 O 0.20549 0.29179 0.15603
 C29 C 0.17433 0.31819 0.16622
 O30 O 0.33272 0.32424 0.30699
 Zr31 Zr 0.30681 0.30548 0.25489
 O32 O 0.29980 0.29978 0.16234
 O33 O 0.20034 0.37508 0.24838
 O34 O 0.29787 0.37486 0.25902
 O35 O 0.37602 0.29386 0.25566
 O36 O 0.33391 0.33578 0.20931
 C37 C 0.32746 0.32814 0.17534
 O38 O 0.23550 0.23835 0.13129
 O39 O 0.29906 0.12394 0.25368
 O40 O 0.28526 0.20339 0.15648
 O41 O 0.32308 0.16439 0.19976
 O42 O 0.20240 0.12334 0.24504
 O43 O 0.17520 0.16763 0.19200
 C44 C 0.31148 0.17194 0.16618
 H45 H 0.24611 0.16038 0.29540
 H46 H 0.16740 0.24895 0.19898
 H47 H 0.33801 0.25062 0.20478
 H48 H 0.25105 0.33064 0.30125
 H49 H 0.10882 0.17155 0.23945
 H50 H 0.11205 0.33033 0.25196
 H51 H 0.16999 0.38745 0.24858
 H52 H 0.32736 0.38906 0.25753
 H53 H 0.17299 0.10892 0.24603
 H54 H 0.32965 0.11227 0.25463
 H55 H 0.38529 0.16696 0.24575
 H56 H 0.39116 0.32279 0.25369
 H57 H 0.15155 0.14524 0.19455
 H58 H 0.25461 0.25550 0.11415
 H59 H 0.24059 0.24120 0.38599
 H60 H 0.35429 0.34851 0.30370
 Zr61 Zr 0.75571 0.75833 0.31418
 O62 O 0.74187 0.74414 0.37012
 O63 O 0.80259 0.80412 0.33545
 O64 O 0.79144 0.70974 0.34411
 O65 O 0.66279 0.82526 0.30037
 O66 O 0.82779 0.67012 0.30030
 O67 O 0.70313 0.78901 0.34368
 O68 O 0.83671 0.83581 0.28644
 O69 O 0.81080 0.75496 0.27924
 O70 O 0.75097 0.81348 0.27966
 O71 O 0.74951 0.69739 0.28633
 O72 O 0.69410 0.75331 0.28713
 Zr73 Zr 0.74008 0.74288 0.18578
 Zr74 Zr 0.80347 0.69552 0.24981
 Zr75 Zr 0.69190 0.80645 0.25006
 Zr76 Zr 0.80366 0.80829 0.24265
 O77 O 0.62209 0.80196 0.24705
 O78 O 0.87296 0.79952 0.23634
 O79 O 0.74508 0.80438 0.21296
 O80 O 0.80120 0.74953 0.21350
 O81 O 0.74377 0.68786 0.22064
 O82 O 0.68499 0.74747 0.22051
 C83 C 0.83125 0.83042 0.32078
 C84 C 0.67067 0.81413 0.33396
 C85 C 0.81777 0.67846 0.33417
 O86 O 0.87315 0.70174 0.25015
 O87 O 0.82917 0.67166 0.19919
 O88 O 0.78913 0.70783 0.15555
 C89 C 0.82077 0.68177 0.16534
 O90 O 0.66697 0.67872 0.31098
 Zr91 Zr 0.69052 0.69485 0.25750
 O92 O 0.69367 0.69604 0.16499
 O93 O 0.79750 0.62595 0.24933
 O94 O 0.69949 0.62567 0.26362
 O95 O 0.62126 0.70608 0.25927
 O96 O 0.66238 0.66190 0.21415
 C97 C 0.66729 0.66753 0.17983
 O98 O 0.75315 0.75600 0.12953
 O99 O 0.69634 0.87613 0.25312
 O100 O 0.70965 0.79562 0.15643
 O101 O 0.67287 0.83544 0.19977
 O102 O 0.79215 0.87739 0.24127
 O103 O 0.81990 0.83254 0.18942
 C104 C 0.68425 0.82781 0.16618
 H105 H 0.75090 0.84146 0.29375
 H106 H 0.82726 0.75131 0.19717
 H107 H 0.65686 0.74752 0.20655
 H108 H 0.74798 0.67129 0.30260
 H109 H 0.88708 0.82906 0.23613
 H110 H 0.88532 0.67136 0.25032
 H111 H 0.82799 0.61393 0.24913
 H112 H 0.66992 0.61154 0.26433
 H113 H 0.82125 0.89244 0.24210
 H114 H 0.66566 0.88752 0.25451
 H115 H 0.61065 0.83257 0.24568
 H116 H 0.60627 0.67697 0.25904
 H117 H 0.84371 0.85484 0.19148
 H118 H 0.73269 0.73747 0.11466
 H119 H 0.76024 0.76426 0.38545
 H120 H 0.64476 0.65481 0.30917
 Zr121 Zr 0.75753 0.24113 -0.31548
 O122 O 0.74338 0.25549 -0.37134
 O123 O 0.80322 0.19424 -0.33700
 O124 O 0.79327 0.28947 -0.34584
 O125 O 0.66456 0.17463 -0.30115
 O126 O 0.83061 0.32864 -0.30238
 O127 O 0.70470 0.21084 -0.34463
 O128 O 0.83734 0.16216 -0.28818
 O129 O 0.81313 0.24377 -0.28111
 O130 O 0.75250 0.18611 -0.28081
 O131 O 0.75214 0.30209 -0.28757
 O132 O 0.69621 0.24690 -0.28791
 Zr133 Zr 0.74389 0.25638 -0.18693
 Zr134 Zr 0.80670 0.30332 -0.25175
 Zr135 Zr 0.69382 0.19372 -0.25088
 Zr136 Zr 0.80572 0.19063 -0.24428
 O137 O 0.62414 0.19943 -0.24765
 O138 O 0.87523 0.19862 -0.23890
 O139 O 0.74753 0.19492 -0.21421
 O140 O 0.80449 0.24943 -0.21527
 O141 O 0.74766 0.31141 -0.22181
 O142 O 0.68815 0.25265 -0.22105
 C143 C 0.83132 0.16725 -0.32244
 C144 C 0.67245 0.18561 -0.33480
 C145 C 0.81999 0.32056 -0.33615
 O146 O 0.87629 0.29622 -0.25260
 O147 O 0.83294 0.32742 -0.20161
 O148 O 0.79311 0.29195 -0.15742
 C149 C 0.82469 0.31782 -0.16768
 O150 O 0.66887 0.32201 -0.31089
 Zr151 Zr 0.69369 0.30530 -0.25794
 O152 O 0.69913 0.30360 -0.16497
 O153 O 0.80152 0.37297 -0.25143
 O154 O 0.70331 0.37435 -0.26439
 O155 O 0.62424 0.29512 -0.25839
 O156 O 0.66779 0.33872 -0.21364
 C157 C 0.67329 0.33282 -0.17936
 O158 O 0.75962 0.24125 -0.13151
 O159 O 0.69720 0.12395 -0.25368
 O160 O 0.71193 0.20474 -0.15727
 O161 O 0.67480 0.16501 -0.20047
 O162 O 0.79364 0.12164 -0.24243
 O163 O 0.82235 0.16668 -0.19104
 C164 C 0.68620 0.17274 -0.16691
 H165 H 0.75184 0.15805 -0.29478
 H166 H 0.83073 0.24761 -0.19914
 H167 H 0.66028 0.25298 -0.20673
 H168 H 0.75064 0.32816 -0.30386
 H169 H 0.88898 0.16891 -0.23872
 H170 H 0.88884 0.32645 -0.25295
 H171 H 0.83212 0.38470 -0.25150
 H172 H 0.67391 0.38884 -0.26418
 H173 H 0.82261 0.10633 -0.24302
 H174 H 0.66635 0.11300 -0.25489
 H175 H 0.61220 0.16901 -0.24627
 H176 H 0.60978 0.32446 -0.25719
 H177 H 0.84622 0.14447 -0.19313
 H178 H 0.74029 0.25966 -0.11552
 H179 H 0.76137 0.23517 -0.38679
 H180 H 0.64670 0.34588 -0.30854
 Zr181 Zr 0.24413 0.75823 -0.31336
 O182 O 0.25888 0.74309 -0.36896
 O183 O 0.19823 0.80462 -0.33522
 O184 O 0.20820 0.70956 -0.34336
 O185 O 0.33612 0.82606 -0.29894
 O186 O 0.17190 0.66993 -0.29954
 O187 O 0.29686 0.78922 -0.34253
 O188 O 0.16341 0.83608 -0.28655
 O189 O 0.18859 0.75494 -0.27889
 O190 O 0.24841 0.81339 -0.27876
 O191 O 0.25004 0.69745 -0.28525
 O192 O 0.30547 0.75337 -0.28577
 Zr193 Zr 0.25794 0.74312 -0.18465
 Zr194 Zr 0.19566 0.69565 -0.24917
 Zr195 Zr 0.30708 0.80654 -0.24870
 Zr196 Zr 0.19522 0.80827 -0.24227
 O197 O 0.37686 0.80189 -0.24562
 O198 O 0.12584 0.79913 -0.23708
 O199 O 0.25341 0.80456 -0.21203
 O200 O 0.19725 0.74965 -0.21292
 O201 O 0.25490 0.68804 -0.21945
 O202 O 0.31351 0.74768 -0.21893
 C203 C 0.16954 0.83128 -0.32093
 C204 C 0.32884 0.81503 -0.33273
 C205 C 0.18203 0.67809 -0.33336
 O206 O 0.12599 0.70181 -0.25004
 O207 O 0.16949 0.67159 -0.19889
 O208 O 0.20868 0.70767 -0.15481
 C209 C 0.17720 0.68143 -0.16484
 O210 O 0.33302 0.67834 -0.30894
 Zr211 Zr 0.30862 0.69501 -0.25585
 O212 O 0.30402 0.69662 -0.16306
 O213 O 0.20176 0.62608 -0.24862
 O214 O 0.29969 0.62580 -0.26179
 O215 O 0.37789 0.70623 -0.25702
 O216 O 0.33607 0.66251 -0.21189
 C217 C 0.33075 0.66827 -0.17761
 O218 O 0.24323 0.75706 -0.12882
 O219 O 0.30262 0.87625 -0.25130
 O220 O 0.28863 0.79542 -0.15509
 O221 O 0.32597 0.83513 -0.19818
 O222 O 0.20647 0.87740 -0.24050
 O223 O 0.17782 0.83258 -0.18933
 C224 C 0.31438 0.82738 -0.16466
 H225 H 0.24876 0.84144 -0.29276
 H226 H 0.17099 0.75129 -0.19679
 H227 H 0.34148 0.74781 -0.20475
 H228 H 0.25175 0.67135 -0.30149
 H229 H 0.11155 0.82858 -0.23734
 H230 H 0.11380 0.67143 -0.25022
 H231 H 0.17130 0.61395 -0.24847
 H232 H 0.32925 0.61163 -0.26179
 H233 H 0.17735 0.89238 -0.24166
 H234 H 0.33330 0.88766 -0.25254
 H235 H 0.38834 0.83248 -0.24412
 H236 H 0.39287 0.67713 -0.25630
 H237 H 0.15349 0.85426 -0.19171
 H238 H 0.26318 0.73869 -0.11334
 H239 H 0.24090 0.76310 -0.38470
 H240 H 0.35520 0.65446 -0.30672
 Zr241 Zr 1.25660 1.25968 0.81368
 O242 O 1.24347 1.24644 0.86989
 O243 O 1.30313 1.30639 0.83433
 O244 O 1.29236 1.21126 0.84394
 O245 O 1.16313 1.32572 0.79956
 O246 O 1.32895 1.17159 0.80032
 O247 O 1.20370 1.28999 0.84302
 O248 O 1.33682 1.33801 0.78508
 O249 O 1.31169 1.25648 0.77876
 O250 O 1.25137 1.31448 0.77882
 O251 O 1.25061 1.19851 0.78610
 O252 O 1.19499 1.25390 0.78663
 Zr253 Zr 1.24110 1.24343 0.68536
 Zr254 Zr 1.30466 1.19674 0.74972
 Zr255 Zr 1.19232 1.30679 0.74936
 Zr256 Zr 1.30408 1.30943 0.74179
 O257 O 1.12256 1.30158 0.74634
 O258 O 1.37347 1.30118 0.73565
 O259 O 1.24552 1.30505 0.71227
 O260 O 1.30216 1.25044 0.71308
 O261 O 1.24513 1.18862 0.72043
 O262 O 1.18585 1.24766 0.71993
 C263 C 1.33137 1.33300 0.81941
 C264 C 1.17109 1.31484 0.83318
 C265 C 1.31877 1.17994 0.83415
 O266 O 1.37428 1.20344 0.75005
 O267 O 1.33019 1.17249 0.69926
 O268 O 1.29014 1.20834 0.65543
 C269 C 1.32168 1.18232 0.66538
 O270 O 1.16773 1.17919 0.81044
 Zr271 Zr 1.19172 1.19529 0.75710
 O272 O 1.19559 1.19609 0.66438
 O273 O 1.29919 1.12712 0.74962
 O274 O 1.20115 1.12624 0.76378
 O275 O 1.12236 1.20599 0.75834
 O276 O 1.16467 1.16156 0.71352
 C277 C 1.16975 1.16711 0.67917
 O278 O 1.25464 1.25688 0.62924
 O279 O 1.19601 1.37654 0.75220
 O280 O 1.21016 1.29573 0.65580
 O281 O 1.17319 1.33549 0.69903
 O282 O 1.29207 1.37843 0.73985
 O283 O 1.31991 1.33299 0.68826
 C284 C 1.18463 1.32785 0.66549
 H285 H 1.25104 1.34261 0.79271
 H286 H 1.32825 1.25219 0.69678
 H287 H 1.15780 1.24738 0.70586
 H288 H 1.24915 1.17253 0.80250
 H289 H 1.38732 1.33084 0.73490
 H290 H 1.38665 1.17314 0.75029
 H291 H 1.32976 1.11529 0.74941
 H292 H 1.17169 1.11188 0.76422
 H293 H 1.32107 1.39371 0.74007
 H294 H 1.16522 1.38763 0.75351
 H295 H 1.11082 1.33206 0.74483
 H296 H 1.10763 1.17676 0.75765
 H297 H 1.34369 1.35535 0.69000
 H298 H 1.23451 1.23823 0.61416
 H299 H 1.26183 1.26700 0.88480
 H300 H 1.14541 1.15539 0.80851
 Zr301 Zr 0.74474 0.74531 0.81460
 O302 O 0.76117 0.76251 0.86948
 O303 O 0.70064 0.69885 0.83770
 O304 O 0.70859 0.79359 0.84477
 O305 O 0.83615 0.67695 0.79996
 O306 O 0.67095 0.83212 0.80110
 O307 O 0.79749 0.71471 0.84346
 O308 O 0.66374 0.66600 0.79059
 O309 O 0.68821 0.74703 0.78126
 O310 O 0.74869 0.68940 0.78076
 O311 O 0.74911 0.80556 0.78586
 O312 O 0.80546 0.74989 0.78618
 Zr313 Zr 0.75526 0.75771 0.68589
 Zr314 Zr 0.69387 0.80578 0.75074
 Zr315 Zr 0.80660 0.69602 0.74974
 Zr316 Zr 0.69445 0.69300 0.74526
 O317 O 0.87626 0.70152 0.74598
 O318 O 0.62489 0.70138 0.74089
 O319 O 0.75197 0.69664 0.71398
 O320 O 0.69526 0.75109 0.71515
 O321 O 0.75236 0.81334 0.72007
 O322 O 0.81167 0.75448 0.71930
 C323 C 0.67195 0.67160 0.82455
 C324 C 0.82890 0.68854 0.83358
 C325 C 0.68187 0.82459 0.83484
 O326 O 0.62430 0.79881 0.75281
 O327 O 0.66633 0.82866 0.70078
 O328 O 0.70542 0.79264 0.65653
 C329 C 0.67386 0.81843 0.66690
 O330 O 0.83243 0.82445 0.80840
 Zr331 Zr 0.80698 0.80774 0.75566
 O332 O 0.80010 0.80438 0.66297
 O333 O 0.69922 0.87539 0.74911
 O334 O 0.79829 0.87696 0.76171
 O335 O 0.87647 0.79791 0.75491
 O336 O 0.83168 0.84051 0.71100
 C337 C 0.82619 0.83372 0.67691
 O338 O 0.73859 0.74196 0.63078
 O339 O 0.80285 0.62630 0.75280
 O340 O 0.78663 0.70595 0.65626
 O341 O 0.82518 0.66717 0.69920
 O342 O 0.70619 0.62393 0.74453
 O343 O 0.67621 0.66747 0.69291
 C344 C 0.81306 0.67453 0.66573
 H345 H 0.74974 0.66160 0.79507
 H346 H 0.66873 0.74890 0.69938
 H347 H 0.83929 0.75451 0.70465
 H348 H 0.75084 0.83192 0.80180
 H349 H 0.61091 0.67180 0.74190
 H350 H 0.61175 0.82904 0.75285
 H351 H 0.66865 0.88722 0.74952
 H352 H 0.82789 0.89104 0.76147
 H353 H 0.67717 0.60880 0.74617
 H354 H 0.83366 0.61519 0.75368
 H355 H 0.88809 0.67104 0.74483
 H356 H 0.89077 0.82734 0.75386
 H357 H 0.65218 0.64558 0.69595
 H358 H 0.75763 0.76019 0.61440
 H359 H 0.74400 0.74287 0.88616
 H360 H 0.85493 0.84798 0.80584
 Zr361 Zr 1.25794 0.74158 0.18449
 O362 O 1.24394 0.75583 0.12858
 O363 O 1.30452 0.69566 0.16293
 O364 O 1.29313 0.79045 0.15442
 O365 O 1.16568 0.67401 0.19821
 O366 O 1.32994 0.82979 0.19808
 O367 O 1.20550 0.71109 0.15505
 O368 O 1.33870 0.66357 0.21171
 O369 O 1.31331 0.74466 0.21906
 O370 O 1.25343 0.68622 0.21883
 O371 O 1.25168 0.80234 0.21255
 O372 O 1.19646 0.74640 0.21188
 Zr373 Zr 1.24344 0.75584 0.31295
 Zr374 Zr 1.30602 0.80398 0.24858
 Zr375 Zr 1.19454 0.69291 0.24863
 Zr376 Zr 1.30637 0.69118 0.25561
 O377 O 1.12475 0.69758 0.25155
 O378 O 1.37575 0.69982 0.26141
 O379 O 1.24799 0.69454 0.28553
 O380 O 1.30424 0.74980 0.28479
 O381 O 1.24671 0.81119 0.27838
 O382 O 1.18798 0.75161 0.27858
 C383 C 1.33288 0.66894 0.17746
 C384 C 1.17346 0.68550 0.16467
 C385 C 1.31958 0.82167 0.16425
 O386 O 1.37569 0.79774 0.24791
 O387 O 1.33184 0.82786 0.29893
 O388 O 1.29207 0.79178 0.34281
 C389 C 1.32355 0.81788 0.33278
 O390 O 1.16852 0.82169 0.18903
 Zr391 Zr 1.19305 0.80460 0.24199
 O392 O 1.19759 0.80196 0.33495
 O393 O 1.30006 0.87356 0.24923
 O394 O 1.20214 0.87383 0.23644
 O395 O 1.12375 0.79356 0.24063
 O396 O 1.16570 0.83669 0.28632
 C397 C 1.17104 0.83054 0.32059
 O398 O 1.25920 0.74072 0.36837
 O399 O 1.19894 0.62323 0.24556
 O400 O 1.21194 0.70378 0.34230
 O401 O 1.17532 0.66392 0.29888
 O402 O 1.29508 0.62204 0.25698
 O403 O 1.32295 0.66710 0.30882
 C404 C 1.18643 0.67171 0.33250
 H405 H 1.25322 0.65828 0.20469
 H406 H 1.33042 0.74814 0.30101
 H407 H 1.15998 0.75141 0.29271
 H408 H 1.24997 0.82851 0.19638
 H409 H 1.38980 0.67024 0.26155
 H410 H 1.38788 0.82812 0.24771
 H411 H 1.33053 0.88562 0.24927
 H412 H 1.17263 0.88807 0.23674
 H413 H 1.32423 0.60708 0.25639
 H414 H 1.16826 0.61186 0.24417
 H415 H 1.11323 0.66698 0.25275
 H416 H 1.10886 0.82269 0.24175
 H417 H 1.34687 0.64494 0.30672
 H418 H 1.23947 0.75868 0.38437
 H419 H 1.26231 0.73581 0.11317
 H420 H 1.14666 0.84585 0.19138
 Zr421 Zr 0.74416 1.25675 0.18680
 O422 O 0.75951 1.24110 0.13141
 O423 O 0.69685 1.30139 0.16475
 O424 O 0.70876 1.20752 0.15718
 O425 O 0.83533 1.32617 0.20050
 O426 O 0.67325 1.16763 0.20129
 O427 O 0.79580 1.28888 0.15724
 O428 O 0.66128 1.33236 0.21337
 O429 O 0.68893 1.25282 0.22153
 O430 O 0.74764 1.31237 0.22096
 O431 O 0.75124 1.19628 0.21513
 O432 O 0.80569 1.25329 0.21419
 Zr433 Zr 0.75900 1.24302 0.31538
 Zr434 Zr 0.69713 1.19389 0.25145
 Zr435 Zr 0.80661 1.30685 0.25091
 Zr436 Zr 0.69478 1.30666 0.25772
 O437 O 0.87649 1.30360 0.25382
 O438 O 0.62562 1.29690 0.26408
 O439 O 0.75320 1.30425 0.28781
 O440 O 0.69803 1.24829 0.28733
 O441 O 0.75669 1.18760 0.28094
 O442 O 0.81426 1.24827 0.28088
 C443 C 0.66738 1.32700 0.17909
 C444 C 0.82765 1.31479 0.16691
 C445 C 0.68294 1.17590 0.16740
 O446 O 0.62734 1.19888 0.25090
 O447 O 0.67158 1.16990 0.30193
 O448 O 0.71057 1.20708 0.34559
 C449 C 0.67948 1.18040 0.33574
 O450 O 0.83436 1.17881 0.19110
 Zr451 Zr 0.81006 1.19520 0.24428
 O452 O 0.80576 1.19728 0.33703
 O453 O 0.70446 1.12445 0.25231
 O454 O 0.80242 1.12580 0.23868
 O455 O 0.87914 1.20752 0.24279
 O456 O 0.83830 1.16351 0.28826
 C457 C 0.83283 1.16923 0.32252
 O458 O 0.74433 1.25722 0.37118
 O459 O 0.80073 1.37641 0.24780
 O460 O 0.78917 1.29578 0.34463
 O461 O 0.82545 1.33603 0.30127
 O462 O 0.70474 1.37602 0.25816
 O463 O 0.67791 1.33136 0.31065
 C464 C 0.81436 1.32808 0.33488
 H465 H 0.74726 1.34021 0.20667
 H466 H 0.67186 1.24970 0.30356
 H467 H 0.84229 1.24894 0.29497
 H468 H 0.75320 1.17011 0.19898
 H469 H 0.61104 1.32622 0.26389
 H470 H 0.61566 1.16830 0.25092
 H471 H 0.67423 1.11180 0.25256
 H472 H 0.83225 1.11222 0.23855
 H473 H 0.67531 1.39035 0.25690
 H474 H 0.83118 1.38841 0.24650
 H475 H 0.88739 1.33442 0.25505
 H476 H 0.89457 1.17865 0.24347
 H477 H 0.65397 1.35346 0.30829
 H478 H 0.76458 1.23924 0.38671
 H479 H 0.74106 1.26035 0.11538
 H480 H 0.85690 1.15527 0.19324
 O481 O 0.55757 1.07801 0.06870
 O482 O 0.61133 1.04147 0.03579
 C483 C 0.59830 1.06922 0.06150
 O484 O 0.44185 0.91685 0.06072
 O485 O 0.38814 0.95999 0.03403
 C486 C 0.40123 0.92818 0.05625
 O487 O 0.55826 0.92409 0.06700
 O488 O 0.61178 0.96201 0.03505
 C489 C 0.59895 0.93354 0.06017
 O490 O 0.44045 1.08205 0.06485
 O491 O 0.38734 1.04212 0.03398
 C492 C 0.39983 1.07185 0.05820
 Zr493 Zr 0.49933 1.05644 0.04543
 O494 O 0.49564 1.05924 0.10356
 O495 O 0.50070 1.12596 0.03976
 Zr496 Zr 0.49969 0.94758 0.04550
 O497 O 0.49740 0.95559 0.10325
 O498 O 0.50091 0.87803 0.05149
 O499 O 0.53996 1.00191 0.05315
 O500 O 0.45976 1.00169 0.05254
 O501 O 0.44210 1.08286 -0.06463
 O502 O 0.38824 1.04331 -0.03435
 C503 C 0.40136 1.07332 -0.05830
 O504 O 0.55776 0.92432 -0.06712
 O505 O 0.61142 0.96156 -0.03469
 C506 C 0.59844 0.93325 -0.06000
 O507 O 0.44103 0.92158 -0.06451
 O508 O 0.38759 0.96111 -0.03380
 C509 C 0.40035 0.93128 -0.05781
 O510 O 0.55857 1.07663 -0.06853
 O511 O 0.61195 1.04116 -0.03452
 C512 C 0.59927 1.06829 -0.06071
 Zr513 Zr 0.50006 1.05695 -0.04435
 O514 O 0.49994 1.06482 -0.10221
 O515 O 0.50142 1.12607 -0.03604
 Zr516 Zr 0.49966 0.94755 -0.04503
 O517 O 0.49621 0.94841 -0.10324
 O518 O 0.50314 0.87767 -0.04370
 Zr519 Zr 0.56911 1.00174 0.00035
 Zr520 Zr 0.43027 1.00179 0.00007
 O521 O 0.46051 1.00229 -0.05205
 O522 O 0.54001 1.00212 -0.05241
 O523 O 0.45863 1.06554 0.00038
 O524 O 0.53944 0.93896 0.00023
 O525 O 0.54013 1.06492 0.00063
 O526 O 0.45921 0.93837 0.00009
 H527 H 0.44060 1.00119 0.07466
 H528 H 0.55879 0.91257 0.00013
 H529 H 0.44164 1.00223 -0.07432
 H530 H 0.55990 1.09105 0.00059
 H531 H 0.51282 0.86532 0.02853
 H532 H 0.47894 0.86673 -0.02777
 H533 H 0.51904 0.96914 -0.11233
 H534 H 0.48831 1.03731 -0.11310
 H535 H 0.50423 1.13967 -0.06072
 H536 H 0.50133 1.13838 0.06498
 H537 H 0.51376 1.03475 0.11339
 H538 H 0.49579 0.92552 0.11392
 O539 O 1.05757 0.57855 0.56836
 O540 O 1.11133 0.54199 0.53548
 C541 C 1.09830 0.56991 0.56109
 O542 O 0.94213 0.41671 0.56064
 O543 O 0.88828 0.45982 0.53412
 C544 C 0.90147 0.42792 0.55622
 O545 O 1.05853 0.42435 0.56682
 O546 O 1.11194 0.46224 0.53471
 C547 C 1.09919 0.43376 0.55984
 O548 O 0.94062 0.58237 0.56473
 O549 O 0.88741 0.54237 0.53407
 C550 C 0.89998 0.57230 0.55813
 Zr551 Zr 0.99937 0.55657 0.54534
 O552 O 0.99579 0.55914 0.60348
 O553 O 1.00062 0.62610 0.53965
 Zr554 Zr 0.99985 0.44776 0.54550
 O555 O 0.99756 0.45594 0.60323
 O556 O 1.00143 0.37826 0.55172
 O557 O 1.04013 0.50213 0.55303
 O558 O 0.95983 0.50181 0.55257
 O559 O 0.94175 0.58269 0.43543
 O560 O 0.88803 0.54304 0.46579
 C561 C 0.90106 0.57299 0.44180
 O562 O 1.05767 0.42451 0.43267
 O563 O 1.11137 0.46181 0.46500
 C564 C 1.09837 0.43353 0.43967
 O565 O 0.94099 0.42173 0.43541
 O566 O 0.88756 0.46113 0.46625
 C567 C 0.90032 0.43142 0.44212
 O568 O 1.05835 0.57643 0.43111
 O569 O 1.11183 0.54121 0.46518
 C570 C 1.09907 0.56814 0.43890
 Zr571 Zr 0.99988 0.55700 0.45556
 O572 O 0.99948 0.56501 0.39771
 O573 O 1.00126 0.62612 0.46380
 Zr574 Zr 0.99962 0.44759 0.45497
 O575 O 0.99607 0.44819 0.39676
 O576 O 1.00318 0.37771 0.45651
 Zr577 Zr 1.06912 0.50194 0.50017
 Zr578 Zr 0.93026 0.50179 0.50014
 O579 O 0.96042 0.50228 0.44797
 O580 O 1.03986 0.50220 0.44748
 O581 O 0.95856 0.56557 0.50034
 O582 O 1.03951 0.43911 0.50017
 O583 O 1.04006 0.56507 0.50044
 O584 O 0.95928 0.43842 0.50015
 H585 H 0.94063 0.50133 0.57466
 H586 H 1.05887 0.41272 0.50001
 H587 H 0.94157 0.50220 0.42569
 H588 H 1.05978 0.59123 0.50028
 H589 H 1.01234 0.36549 0.52844
 H590 H 0.97864 0.36677 0.47208
 H591 H 1.01861 0.46918 0.38759
 H592 H 0.98820 0.53736 0.38681
 H593 H 1.00402 0.63967 0.43910
 H594 H 1.00127 0.63857 0.56486
 H595 H 1.01451 0.53507 0.61325
 H596 H 0.99610 0.42589 0.61396
 O597 O 1.07339 0.44274 0.06926
 O598 O 1.03858 0.38915 0.03501
 C599 C 1.06556 0.40210 0.06133
 O600 O 0.91784 0.55883 0.06391
 O601 O 0.95805 0.61227 0.03373
 C602 C 0.92773 0.59942 0.05760
 O603 O 0.92190 0.44254 0.06689
 O604 O 0.95935 0.38907 0.03456
 C605 C 0.93124 0.40188 0.06000
 O606 O 1.07948 0.55929 0.06443
 O607 O 1.04048 0.61274 0.03327
 C608 C 1.07000 0.59993 0.05756
 Zr609 Zr 1.05411 0.50068 0.04455
 O610 O 1.06117 0.50100 0.10251
 O611 O 1.12351 0.49899 0.03739
 Zr612 Zr 0.94441 0.50111 0.04430
 O613 O 0.94408 0.50390 0.10254
 O614 O 0.87436 0.50475 0.04147
 O615 O 0.99897 0.46092 0.05220
 O616 O 0.99935 0.54022 0.05162
 O617 O 1.08117 0.55787 -0.06520
 O618 O 1.04190 0.61191 -0.03500
 C619 C 1.07194 0.59866 -0.05896
 O620 O 0.92219 0.44327 -0.06858
 O621 O 0.95908 0.38955 -0.03595
 C622 C 0.93114 0.40261 -0.06155
 O623 O 0.91949 0.55993 -0.06539
 O624 O 0.95966 0.61294 -0.03470
 C625 C 0.92983 0.60046 -0.05885
 O626 O 1.07373 0.44164 -0.06934
 O627 O 1.03835 0.38849 -0.03509
 C628 C 1.06546 0.40106 -0.06134
 Zr629 Zr 1.05473 0.50016 -0.04505
 O630 O 1.06246 0.50020 -0.10295
 O631 O 1.12403 0.49815 -0.03725
 Zr632 Zr 0.94504 0.50117 -0.04584
 O633 O 0.94535 0.50483 -0.10403
 O634 O 0.87505 0.49763 -0.04389
 Zr635 Zr 0.99901 0.43150 -0.00043
 Zr636 Zr 0.99984 0.57013 -0.00061
 O637 O 1.00020 0.53995 -0.05274
 O638 O 0.99958 0.46067 -0.05315
 O639 O 1.06358 0.54142 -0.00032
 O640 O 0.93610 0.46110 -0.00077
 O641 O 1.06253 0.45994 -0.00012
 O642 O 0.93605 0.54196 -0.00085
 H643 H 0.99905 0.55916 0.07381
 H644 H 0.90996 0.44141 -0.00107
 H645 H 1.00035 0.55881 -0.07499
 H646 H 1.08852 0.43998 -0.00001
 H647 H 0.86215 0.47592 0.03374
 H648 H 0.86431 0.52154 -0.02763
 H649 H 0.96717 0.48311 -0.11321
 H650 H 1.03557 0.51329 -0.11384
 H651 H 1.13740 0.49533 -0.06202
 H652 H 1.13658 0.49736 0.06235
 H653 H 1.03433 0.51452 0.11313
 H654 H 0.96652 0.48282 0.11171
 O655 O 0.57179 0.94208 0.57027
 O656 O 0.53746 0.88839 0.53579
 C657 C 0.56423 0.90142 0.56223
 O658 O 0.41690 1.05842 0.56414
 O659 O 0.45736 1.11168 0.53397
 C660 C 0.42703 1.09894 0.55778
 O661 O 0.42086 0.94211 0.56771
 O662 O 0.45812 0.88839 0.53554
 C663 C 0.43005 0.90135 0.56102
 O664 O 0.57831 1.05853 0.56529
 O665 O 0.53949 1.11190 0.53390
 C666 C 0.56892 1.09916 0.55832
 Zr667 Zr 0.55295 0.99995 0.54526
 O668 O 0.56028 1.00051 0.60319
 O669 O 0.62231 0.99820 0.53780
 Zr670 Zr 0.44327 1.00046 0.54483
 O671 O 0.44253 1.00344 0.60306
 O672 O 0.37324 1.00409 0.54172
 O673 O 0.49778 0.96024 0.55286
 O674 O 0.49823 1.03950 0.55221
 O675 O 0.58088 1.05708 0.43612
 O676 O 0.54091 1.11103 0.46582
 C677 C 0.57131 1.09779 0.44226
 O678 O 0.42114 0.94227 0.43226
 O679 O 0.45798 0.88857 0.46489
 C680 C 0.43005 0.90163 0.43930
 O681 O 0.41847 1.05893 0.43507
 O682 O 0.45863 1.11200 0.46565
 C683 C 0.42873 1.09947 0.44154
 O684 O 0.57442 0.94056 0.43254
 O685 O 0.53731 0.88755 0.46566
 C686 C 0.56524 0.90003 0.43996
 Zr687 Zr 0.55377 0.99931 0.45561
 O688 O 0.55905 1.00333 0.39763
 O689 O 0.62324 0.99693 0.46249
 Zr690 Zr 0.44405 1.00027 0.45474
 O691 O 0.44349 1.00501 0.39658
 O692 O 0.37407 0.99658 0.45697
 Zr693 Zr 0.49790 0.93066 0.50028
 Zr694 Zr 0.49885 1.06928 0.49994
 O695 O 0.49930 1.03894 0.44780
 O696 O 0.49862 0.95967 0.44743
 O697 O 0.56252 1.04056 0.50037
 O698 O 0.43501 0.96031 0.49987
 O699 O 0.56140 0.95918 0.50067
 O700 O 0.43502 1.04119 0.49963
 H701 H 0.49792 1.05843 0.57441
 H702 H 0.40887 0.94061 0.49966
 H703 H 0.49976 1.05741 0.42531
 H704 H 0.58743 0.93927 0.50097
 H705 H 0.36101 0.97503 0.53466
 H706 H 0.36329 1.02092 0.47277
 H707 H 0.46250 0.98132 0.38662
 H708 H 0.53494 0.98542 0.38701
 H709 H 0.63628 0.99519 0.43752
 H710 H 0.63548 0.99635 0.56270
 H711 H 0.53323 1.01355 0.61384
 H712 H 0.46519 0.98269 0.61237
 O713 O 1.08430 0.92321 0.54961
 O714 O 1.04056 0.95885 0.59195
 C715 C 1.07227 0.93180 0.58288
 O716 O 1.07785 1.07986 0.45167
 O717 O 1.03991 1.03895 0.40875
 C718 C 1.06776 1.06964 0.41837
 O719 O 1.08138 1.07429 0.55077
 O720 O 1.04085 1.03447 0.59277
 C721 C 1.07089 1.06341 0.58388
 O722 O 1.08017 0.91920 0.45023
 O723 O 1.04109 0.96011 0.40797
 C724 C 1.06996 0.93011 0.41704
 Zr725 Zr 1.05674 0.94290 0.50004
 O726 O 1.12647 0.93656 0.49999
 O727 O 1.04897 0.87353 0.50068
 Zr728 Zr 1.05604 1.05336 0.50080
 O729 O 1.12601 1.05334 0.49755
 O730 O 1.05525 1.12307 0.50566
 O731 O 1.06526 0.99794 0.53334
 O732 O 1.06511 0.99863 0.46817
 O733 O 0.92517 0.91740 0.44957
 O734 O 0.96368 0.95919 0.40758
 C735 C 0.93528 0.92860 0.41644
 O736 O 0.91956 1.07320 0.54968
 O737 O 0.96149 1.03557 0.59209
 C738 C 0.93066 1.06349 0.58288
 O739 O 0.92387 1.07794 0.45064
 O740 O 0.96323 1.03784 0.40812
 C741 C 0.93439 1.06777 0.41740
 O742 O 0.91906 0.92241 0.54857
 O743 O 0.96008 0.96024 0.59154
 C744 C 0.92928 0.93251 0.58190
 Zr745 Zr 0.94751 0.94174 0.49944
 O746 O 0.87805 0.93338 0.49803
 O747 O 0.95692 0.87257 0.50044
 Zr748 Zr 0.94587 1.05230 0.50013
 O749 O 0.87595 1.05123 0.49635
 O750 O 0.94580 1.12206 0.50477
 Zr751 Zr 1.00109 0.99737 0.55587
 Zr752 Zr 1.00182 0.99847 0.44423
 O753 O 0.93827 0.99730 0.46757
 O754 O 0.93731 0.99674 0.53254
 O755 O 1.00245 0.93401 0.46615
 O756 O 1.00069 1.06100 0.53285
 O757 O 1.00187 0.93383 0.53270
 O758 O 1.00109 1.06226 0.46736
 H759 H 1.09147 0.99937 0.45199
 H760 H 1.00055 1.08714 0.54926
 H761 H 0.91201 0.99734 0.45127
 H762 H 1.00171 0.90788 0.54934
 H763 H 1.03710 1.13501 0.48534
 H764 H 0.96277 1.13425 0.48385
 H765 H 0.86472 1.03134 0.51584
 H766 H 0.86501 0.96213 0.49121
 H767 H 0.92701 0.85931 0.50187
 H768 H 1.07919 0.86096 0.50204
 H769 H 1.13891 0.96428 0.49012
 H770 H 1.13725 1.03307 0.51676
 O771 O 0.42654 0.41365 0.04544
 O772 O 0.45960 0.45567 0.09005
 C773 C 0.43300 0.42436 0.07921
 O774 O 0.58506 0.42503 -0.04983
 O775 O 0.54348 0.46287 -0.09237
 C776 C 0.57446 0.43517 -0.08311
 O777 O 0.57678 0.41663 0.04951
 O778 O 0.53564 0.45511 0.09198
 C779 C 0.56503 0.42573 0.08274
 O780 O 0.42204 0.42293 -0.05292
 O781 O 0.46418 0.46248 -0.09399
 C782 C 0.43348 0.43388 -0.08576
 Zr783 Zr 0.44566 0.44397 -0.00265
 O784 O 0.43729 0.37471 -0.00576
 O785 O 0.37627 0.45272 -0.00202
 Zr786 Zr 0.55559 0.44241 -0.00045
 O787 O 0.55042 0.37289 -0.00568
 O788 O 0.62511 0.43528 0.00226
 O789 O 0.49968 0.43314 0.03133
 O790 O 0.50166 0.43578 -0.03427
 O791 O 0.42260 0.57728 -0.04968
 O792 O 0.46352 0.53876 -0.09231
 C793 C 0.43332 0.56736 -0.08295
 O794 O 0.57684 0.57689 0.05223
 O795 O 0.53771 0.53455 0.09336
 C796 C 0.56619 0.56532 0.08507
 O797 O 0.58298 0.57595 -0.04610
 O798 O 0.54379 0.53952 -0.09067
 C799 C 0.57409 0.56724 -0.07985
 O800 O 0.42537 0.57942 0.04941
 O801 O 0.46073 0.53550 0.09178
 C802 C 0.43392 0.56731 0.08259
 Zr803 Zr 0.44582 0.55285 -0.00012
 O804 O 0.43886 0.62239 0.00072
 O805 O 0.37638 0.54455 -0.00041
 Zr806 Zr 0.55620 0.55259 0.00210
 O807 O 0.55602 0.62251 0.00028
 O808 O 0.62606 0.55178 0.00695
 Zr809 Zr 0.49961 0.49635 0.05572
 Zr810 Zr 0.50288 0.49997 -0.05626
 O811 O 0.50207 0.56241 -0.03118
 O812 O 0.50023 0.56084 0.03412
 O813 O 0.43800 0.49951 -0.03502
 O814 O 0.56366 0.49649 0.03329
 O815 O 0.43650 0.49735 0.03147
 O816 O 0.56617 0.49866 -0.03192
 H817 H 0.50237 0.41022 -0.05127
 H818 H 0.58950 0.49607 0.05006
 H819 H 0.50272 0.58908 -0.04695
 H820 H 0.41010 0.49691 0.04765
 H821 H 0.63755 0.46425 0.00918
 H822 H 0.63804 0.53401 -0.01361
 H823 H 0.53512 0.63314 0.01928
 H824 H 0.46691 0.63525 -0.00816
 H825 H 0.36351 0.57455 0.00145
 H826 H 0.36322 0.42273 -0.00110
 H827 H 0.46615 0.36187 -0.01261
 H828 H 0.53507 0.36142 0.01640
 C829 C 0.33117 1.14319 0.13604
 C830 C 0.35958 1.17045 0.10964
 C831 C 0.37905 1.14638 0.08270
 C832 C 0.36949 1.09638 0.08439
 C833 C 0.38149 1.08268 0.12398
 C834 C 0.36205 1.10701 0.15065
 C835 C 0.29855 1.11804 0.11051
 C836 C 0.31877 1.09331 0.08336
 H837 H 0.36321 1.20607 0.11139
 H838 H 0.39901 1.16174 0.06140
 H839 H 0.40278 1.05486 0.13053
 H840 H 0.36714 1.09968 0.17957
 H841 H 0.26289 1.11949 0.11363
 H842 H 0.30050 1.07388 0.06342
 C843 C 0.83224 0.64534 0.63558
 C844 C 0.79923 0.62014 0.61039
 C845 C 0.81905 0.59484 0.58337
 C846 C 0.86981 0.59742 0.58415
 C847 C 0.87980 0.64735 0.58200
 C848 C 0.86072 0.67197 0.60881
 C849 C 0.86286 0.60900 0.65033
 C850 C 0.88189 0.58414 0.62381
 H851 H 0.76360 0.62199 0.61363
 H852 H 0.80047 0.57534 0.56369
 H853 H 0.89975 0.66226 0.56047
 H854 H 0.86467 0.70758 0.61022
 H855 H 0.86806 0.60193 0.67928
 H856 H 0.90290 0.55617 0.63054
 C857 C 0.66562 0.85793 0.13644
 C858 C 0.69906 0.88293 0.11149
 C859 C 0.67965 0.90920 0.08489
 C860 C 0.62885 0.90768 0.08585
 C861 C 0.61787 0.85798 0.08305
 C862 C 0.63650 0.83242 0.10945
 C863 C 0.63582 0.89464 0.15178
 C864 C 0.61722 0.92044 0.12568
 H865 H 0.73465 0.88026 0.11459
 H866 H 0.69854 0.92873 0.06543
 H867 H 0.59764 0.84387 0.06133
 H868 H 0.63188 0.79688 0.11033
 H869 H 0.63081 0.90123 0.18083
 H870 H 0.59676 0.94867 0.13283
 C871 C 1.16600 0.35795 0.63577
 C872 C 1.19941 0.38292 0.61079
 C873 C 1.17996 0.40927 0.58426
 C874 C 1.12917 0.40783 0.58536
 C875 C 1.11808 0.35815 0.58252
 C876 C 1.13675 0.33252 0.60884
 C877 C 1.13632 0.39471 0.65123
 C878 C 1.11770 0.42058 0.62522
 H879 H 1.23501 0.38017 0.61379
 H880 H 1.19881 0.42879 0.56477
 H881 H 1.09777 0.34411 0.56082
 H882 H 1.13210 0.29698 0.60970
 H883 H 1.13144 0.40131 0.68029
 H884 H 1.09735 0.44885 0.63245
 C885 C 0.66710 1.14299 -0.13706
 C886 C 0.63819 1.10552 -0.15240
 C887 C 0.61914 1.08004 -0.12628
 C888 C 0.62947 1.09384 -0.08645
 C889 C 0.68025 1.09305 -0.08446
 C890 C 0.70010 1.11896 -0.11108
 C891 C 0.63689 1.16868 -0.11105
 C892 C 0.61778 1.14345 -0.08466
 H893 H 0.63417 1.09821 -0.18143
 H894 H 0.59925 1.05139 -0.13337
 H895 H 0.69882 1.07419 -0.06434
 H896 H 0.73574 1.12203 -0.11351
 H897 H 0.63186 1.20414 -0.11257
 H898 H 0.59670 1.15775 -0.06360
 C899 C 1.16715 0.64211 0.36232
 C900 C 1.13816 0.60466 0.34705
 C901 C 1.11896 0.57941 0.37326
 C902 C 1.12927 0.59342 0.41305
 C903 C 1.18004 0.59249 0.41513
 C904 C 1.20002 0.61816 0.38844
 C905 C 1.13694 0.66805 0.38816
 C906 C 1.11770 0.64306 0.41462
 H907 H 1.13418 0.59724 0.31804
 H908 H 1.09896 0.55079 0.36627
 H909 H 1.19850 0.57369 0.43536
 H910 H 1.23567 0.62109 0.38605
 H911 H 1.13199 0.70351 0.38647
 H912 H 1.09659 0.65754 0.43557
 C913 C 0.33324 0.85694 -0.13466
 C914 C 0.29999 0.88191 -0.10955
 C915 C 0.31958 0.90766 -0.08270
 C916 C 0.37036 0.90568 -0.08360
 C917 C 0.38093 0.85589 -0.08119
 C918 C 0.36211 0.83084 -0.10784
 C919 C 0.36338 0.89356 -0.14967
 C920 C 0.38216 0.91884 -0.12332
 H921 H 0.26437 0.87958 -0.11270
 H922 H 0.30083 0.92708 -0.06308
 H923 H 0.40100 0.84135 -0.05957
 H924 H 0.36641 0.79527 -0.10904
 H925 H 0.36843 0.90051 -0.17865
 H926 H 0.40279 0.94704 -0.13023
 C927 C 0.83325 0.35760 0.36489
 C928 C 0.86336 0.39429 0.35002
 C929 C 0.88214 0.41943 0.37648
 C930 C 0.87034 0.40602 0.41618
 C931 C 0.81956 0.40797 0.41708
 C932 C 0.79998 0.38238 0.39012
 C933 C 0.86214 0.33135 0.39160
 C934 C 0.88093 0.35623 0.41837
 H935 H 0.86840 0.40136 0.32105
 H936 H 0.90277 0.44766 0.36970
 H937 H 0.80080 0.42726 0.43679
 H938 H 0.76437 0.38007 0.38695
 H939 H 0.86650 0.29579 0.39025
 H940 H 0.90101 0.34156 0.43992
 C941 C 1.14373 0.33696 0.13685
 C942 C 1.16819 0.36699 0.10996
 C943 C 1.14175 0.38508 0.08386
 C944 C 1.09225 0.37263 0.08684
 C945 C 1.09225 0.32197 0.08547
 C946 C 1.11935 0.30316 0.11178
 C947 C 1.10624 0.36545 0.15267
 C948 C 1.07950 0.38341 0.12687
 H949 H 1.20365 0.37259 0.11067
 H950 H 1.15509 0.40588 0.06219
 H951 H 1.07305 0.30275 0.06601
 H952 H 1.12307 0.26768 0.11459
 H953 H 1.09990 0.37002 0.18180
 H954 H 1.05068 0.40287 0.13435
 C955 C 0.64294 0.83687 0.63764
 C956 C 0.66708 0.86715 0.61076
 C957 C 0.64047 0.88499 0.58469
 C958 C 0.59109 0.87209 0.58771
 C959 C 0.59156 0.82144 0.58629
 C960 C 0.61886 0.80285 0.61257
 C961 C 0.60522 0.86497 0.65352
 C962 C 0.57828 0.88271 0.62776
 H963 H 0.70250 0.87308 0.61143
 H964 H 0.65361 0.90589 0.56300
 H965 H 0.57251 0.80206 0.56683
 H966 H 0.62292 0.76741 0.61535
 H967 H 0.59887 0.86943 0.68267
 H968 H 0.54927 0.90188 0.63528
 C969 C 1.14858 0.66304 -0.13648
 C970 C 1.11344 0.63464 -0.15084
 C971 C 1.08620 0.61587 -0.12307
 C972 C 1.09870 0.62768 -0.08540
 C973 C 1.14595 0.61688 -0.08245
 C974 C 1.17300 0.63572 -0.11055
 C975 C 1.12506 0.69558 -0.11327
 C976 C 1.09728 0.67583 -0.08490
 H977 H 1.10570 0.63007 -0.17976
 H978 H 1.05683 0.59690 -0.12999
 H979 H 1.16009 0.59781 -0.06002
 H980 H 1.20867 0.63125 -0.11113
 H981 H 1.12777 0.73106 -0.11694
 H982 H 1.07771 0.69496 -0.06563
 C983 C 0.64923 1.16175 0.36555
 C984 C 0.67420 1.13357 0.39356
 C985 C 0.64797 1.11588 0.42007
 C986 C 0.59820 1.12684 0.41639
 C987 C 0.59675 1.17750 0.41611
 C988 C 0.62363 1.19589 0.38944
 C989 C 0.61279 1.13154 0.35039
 C990 C 0.58629 1.11399 0.37656
 H991 H 0.70979 1.12883 0.39319
 H992 H 0.66158 1.09630 0.44240
 H993 H 0.57685 1.19704 0.43485
 H994 H 0.62640 1.23131 0.38559
 H995 H 0.60696 1.12544 0.32138
 H996 H 0.55809 1.09346 0.36942
 C997 C 0.85086 0.66329 0.13526
 C998 C 0.87630 0.69755 0.11131
 C999 C 0.90286 0.67929 0.08433
 C1000 C 0.90131 0.62863 0.08380
 C1001 C 0.91357 0.61551 0.12353
 C1002 C 0.88738 0.63293 0.14999
 C1003 C 0.82556 0.63536 0.10728
 C1004 C 0.85144 0.61787 0.08046
 H1005 H 0.87367 0.73295 0.11536
 H1006 H 0.92260 0.69893 0.06554
 H1007 H 0.94180 0.59487 0.13037
 H1008 H 0.89346 0.62662 0.17894
 H1009 H 0.78996 0.63071 0.10786
 H1010 H 0.83750 0.59859 0.05810
 C1011 C 0.35140 1.16352 0.63542
 C1012 C 0.37689 1.19751 0.61127
 C1013 C 0.40309 1.17894 0.58424
 C1014 C 0.40108 1.12832 0.58393
 C1015 C 0.41360 1.11525 0.62361
 C1016 C 0.38775 1.13297 0.65013
 C1017 C 0.32564 1.13567 0.60769
 C1018 C 0.35115 1.11789 0.58081
 H1019 H 0.37456 1.23295 0.61524
 H1020 H 0.42286 1.19833 0.56528
 H1021 H 0.44174 1.09445 0.63037
 H1022 H 0.39400 1.12678 0.67908
 H1023 H 0.29000 1.13131 0.60846
 H1024 H 0.33691 1.09864 0.55856
 C1025 C 0.85473 0.33701 -0.13809
 C1026 C 0.87954 0.30341 -0.11314
 C1027 C 0.90602 0.32244 -0.08652
 C1028 C 0.90500 0.37310 -0.08744
 C1029 C 0.91785 0.38464 -0.12733
 C1030 C 0.89172 0.36643 -0.15346
 C1031 C 0.82944 0.36625 -0.11109
 C1032 C 0.85526 0.38453 -0.08466
 H1033 H 0.87657 0.26790 -0.11626
 H1034 H 0.92543 0.30336 -0.06710
 H1035 H 0.94642 0.40463 -0.13449
 H1036 H 0.89820 0.37144 -0.18252
 H1037 H 0.79389 0.37118 -0.11199
 H1038 H 0.84133 0.40481 -0.06291
 C1039 C 0.35355 0.83672 0.36251
 C1040 C 0.39080 0.86592 0.34731
 C1041 C 0.41697 0.88381 0.37355
 C1042 C 0.40386 0.87224 0.41337
 C1043 C 0.35417 0.88398 0.41606
 C1044 C 0.32834 0.86600 0.38950
 C1045 C 0.37804 0.80284 0.38743
 C1046 C 0.40455 0.82158 0.41418
 H1047 H 0.39752 0.87090 0.31828
 H1048 H 0.44582 0.90344 0.36650
 H1049 H 0.34028 0.90422 0.43785
 H1050 H 0.29282 0.87116 0.38853
 H1051 H 0.37483 0.76737 0.38421
 H1052 H 0.42375 0.80230 0.43360
 C1053 C 1.13936 1.14486 0.34806
 C1054 C 1.10685 1.11333 0.32770
 C1055 C 1.08217 1.08761 0.35041
 C1056 C 1.09224 1.09586 0.39092
 C1057 C 1.14243 1.08865 0.39487
 C1058 C 1.16710 1.11450 0.37248
 C1059 C 1.11014 1.17149 0.37420
 C1060 C 1.08516 1.14580 0.39660
 H1061 H 1.10323 1.11130 0.29805
 H1062 H 1.05793 1.06408 0.34037
 H1063 H 1.15723 1.06472 0.41342
 H1064 H 1.20298 1.11298 0.37185
 H1065 H 1.10861 1.20730 0.37463
 H1066 H 1.06193 1.15970 0.41622
 C1067 C 0.64633 0.64335 -0.14997
 C1068 C 0.59700 0.65538 -0.14878
 C1069 C 0.57287 0.62925 -0.12599
 C1070 C 0.60039 0.59375 -0.10653
 C1071 C 0.62314 0.56773 -0.13724
 C1072 C 0.64751 0.59380 -0.16011
 C1073 C 0.66224 0.64537 -0.11022
 C1074 C 0.63862 0.61943 -0.08752
 H1075 H 0.58236 0.68209 -0.16455
 H1076 H 0.53746 0.63338 -0.12224
 H1077 H 0.62075 0.53218 -0.14051
 H1078 H 0.66619 0.58043 -0.18305
 H1079 H 0.69066 0.66407 -0.10068
 H1080 H 0.64798 0.61638 -0.05880
 C1081 C 0.85878 1.13864 0.65338
 C1082 C 0.88812 1.16496 0.62714
 C1083 C 0.91293 1.13911 0.60483
 C1084 C 0.90576 1.08919 0.61060
 C1085 C 0.91577 1.08115 0.65120
 C1086 C 0.89112 1.10711 0.67386
 C1087 C 0.83095 1.10820 0.62904
 C1088 C 0.85555 1.08211 0.60672
 H1089 H 0.88984 1.20077 0.62657
 H1090 H 0.93619 1.15291 0.58517
 H1091 H 0.93975 1.05741 0.66131
 H1092 H 0.89449 1.10519 0.70354
 H1093 H 0.79507 1.10676 0.62972
 H1094 H 0.84068 1.05806 0.58832
 C1095 C 0.36092 0.64104 0.15323
 C1096 C 0.33367 0.61227 0.12715
 C1097 C 0.35878 0.58686 0.10473
 C1098 C 0.40891 0.59280 0.11032
 C1099 C 0.41725 0.64277 0.10634
 C1100 C 0.39185 0.66802 0.12871
 C1101 C 0.39180 0.60803 0.17363
 C1102 C 0.41698 0.58269 0.15090
 H1103 H 0.29776 0.61143 0.12671
 H1104 H 0.34429 0.56401 0.08510
 H1105 H 0.44159 0.65698 0.08782
 H1106 H 0.39415 0.70380 0.12933
 H1107 H 0.39383 0.60468 0.20330
 H1108 H 0.44019 0.55816 0.16095
 C1109 C 1.14333 0.85813 0.65538
 C1110 C 1.17026 0.88769 0.63299
 C1111 C 1.14477 0.91435 0.60861
 C1112 C 1.09718 0.90620 0.61107
 C1113 C 1.09155 0.85868 0.60527
 C1114 C 1.11714 0.83216 0.62965
 C1115 C 1.11108 0.88727 0.67406
 C1116 C 1.08563 0.91383 0.64935
 H1117 H 1.20600 0.89065 0.63515
 H1118 H 1.15970 0.93928 0.59105
 H1119 H 1.06895 0.84434 0.58531
 H1120 H 1.11563 0.79631 0.62949
 H1121 H 1.10601 0.88923 0.70358
 H1122 H 1.06060 0.93697 0.65867
 C1123 C 0.63859 0.35375 0.15448
 C1124 C 0.61116 0.32582 0.12785
 C1125 C 0.58551 0.35026 0.10499
 C1126 C 0.59001 0.40045 0.11074
 C1127 C 0.57875 0.40808 0.15122
 C1128 C 0.60423 0.38354 0.17436
 C1129 C 0.66527 0.38546 0.13042
 C1130 C 0.63987 0.41006 0.10762
 H1131 H 0.61126 0.28997 0.12745
 H1132 H 0.56343 0.33528 0.08501
 H1133 H 0.55312 0.43031 0.16090
 H1134 H 0.59997 0.38517 0.20397
 H1135 H 0.70101 0.38878 0.13160
 H1136 H 0.65393 0.43468 0.08930
 C1137 C 0.86023 0.85749 0.34507
 C1138 C 0.88972 0.82944 0.37001
 C1139 C 0.91580 0.85376 0.39259
 C1140 C 0.90965 0.90399 0.38837
 C1141 C 0.91867 0.91348 0.34779
 C1142 C 0.89273 0.88906 0.32486
 C1143 C 0.83387 0.88750 0.37080
 C1144 C 0.85970 0.91200 0.39338
 H1145 H 0.89060 0.79360 0.36953
 H1146 H 0.93923 0.83866 0.41142
 H1147 H 0.94303 0.93697 0.33788
 H1148 H 0.89528 0.89207 0.29519
 H1149 H 0.79803 0.88984 0.37086
 H1150 H 0.84587 0.93555 0.41275
 C1151 C 0.35981 0.36102 -0.15670
 C1152 C 0.39229 0.39241 -0.17726
 C1153 C 0.41779 0.41769 -0.15460
 C1154 C 0.40834 0.40913 -0.11398
 C1155 C 0.35826 0.41686 -0.10950
 C1156 C 0.33290 0.39146 -0.13175
 C1157 C 0.38925 0.33389 -0.13112
 C1158 C 0.41488 0.35901 -0.10889
 H1159 H 0.39509 0.39469 -0.20696
 H1160 H 0.44198 0.44123 -0.16470
 H1161 H 0.34402 0.44090 -0.09076
 H1162 H 0.29704 0.39351 -0.13202
 H1163 H 0.39051 0.29805 -0.13099
 H1164 H 0.43835 0.34455 -0.08974
 C1165 C 1.14095 0.33361 -0.13716
 C1166 C 1.16634 0.36409 -0.11119
 C1167 C 1.14082 0.38301 -0.08493
 C1168 C 1.09122 0.37091 -0.08684
 C1169 C 1.07744 0.38092 -0.12673
 C1170 C 1.10323 0.36204 -0.15271
 C1171 C 1.11710 0.30054 -0.11115
 C1172 C 1.09086 0.32023 -0.08467
 H1173 H 1.20183 0.36940 -0.11261
 H1174 H 1.15491 0.40418 -0.06386
 H1175 H 1.04856 0.40044 -0.13396
 H1176 H 1.09595 0.36584 -0.18177
 H1177 H 1.12050 0.26498 -0.11347
 H1178 H 1.07204 0.30162 -0.06454
 C1179 C 0.64058 0.83281 0.36375
 C1180 C 0.66614 0.86255 0.39021
 C1181 C 0.64067 0.88132 0.41659
 C1182 C 0.59093 0.86988 0.41432
 C1183 C 0.57757 0.88070 0.37446
 C1184 C 0.60332 0.86196 0.34838
 C1185 C 0.61613 0.79961 0.38927
 C1186 C 0.58993 0.81917 0.41586
 H1187 H 0.70170 0.86745 0.38901
 H1188 H 0.65488 0.90196 0.43798
 H1189 H 0.54893 0.90060 0.36731
 H1190 H 0.59626 0.86632 0.31933
 H1191 H 0.61911 0.76406 0.38656
 H1192 H 0.57075 0.80045 0.43569
 C1193 C 0.85795 0.66892 -0.13645
 C1194 C 0.83079 0.64072 -0.10983
 C1195 C 0.85507 0.62133 -0.08298
 C1196 C 0.90517 0.63073 -0.08499
 C1197 C 0.91853 0.61859 -0.12462
 C1198 C 0.89399 0.63797 -0.15120
 C1199 C 0.88344 0.70151 -0.11114
 C1200 C 0.90839 0.68135 -0.08409
 H1201 H 0.79508 0.63721 -0.11134
 H1202 H 0.83980 0.60156 -0.06152
 H1203 H 0.94631 0.59727 -0.13128
 H1204 H 0.90107 0.63280 -0.18015
 H1205 H 0.88205 0.73711 -0.11434
 H1206 H 0.92807 0.69960 -0.06430
 C1207 C 0.35564 1.16733 0.36411
 C1208 C 0.32893 1.13904 0.39097
 C1209 C 0.35359 1.11991 0.41774
 C1210 C 0.40364 1.12963 0.41546
 C1211 C 0.41674 1.11747 0.37577
 C1212 C 0.39183 1.13657 0.34929
 C1213 C 0.38113 1.20018 0.38922
 C1214 C 0.40647 1.18029 0.41619
 H1215 H 0.29323 1.13528 0.38967
 H1216 H 0.33862 1.10014 0.43933
 H1217 H 0.44464 1.09637 0.36900
 H1218 H 0.39876 1.13133 0.32032
 H1219 H 0.37945 1.23575 0.38595
 H1220 H 0.42617 1.19876 0.43581
 C1221 C 1.14395 0.66673 0.13467
 C1222 C 1.17020 0.63763 0.10815
 C1223 C 1.14528 0.61889 0.08140
 C1224 C 1.09545 0.62980 0.08343
 C1225 C 1.08176 0.61828 0.12310
 C1226 C 1.10695 0.63697 0.14956
 C1227 C 1.11942 0.69999 0.10929
 C1228 C 1.09379 0.68048 0.08233
 H1229 H 1.20579 0.63307 0.10964
 H1230 H 1.15991 0.59860 0.05998
 H1231 H 1.05326 0.59799 0.12987
 H1232 H 1.09966 0.63219 0.17852
 H1233 H 1.12195 0.73554 0.11235
 H1234 H 1.07465 0.69922 0.06250
 C1235 C 0.64288 1.16655 0.63528
 C1236 C 0.61836 1.19958 0.60969
 C1237 C 0.59274 1.17986 0.58282
 C1238 C 0.59439 1.12917 0.58417
 C1239 C 0.64421 1.11826 0.58224
 C1240 C 0.66913 1.13722 0.60891
 C1241 C 0.60588 1.13688 0.65029
 C1242 C 0.58071 1.11794 0.62391
 H1243 H 0.62086 1.23515 0.61256
 H1244 H 0.57361 1.19845 0.56290
 H1245 H 0.65886 1.09777 0.56095
 H1246 H 0.70471 1.13265 0.61044
 H1247 H 0.59862 1.13228 0.67928
 H1248 H 0.55226 1.09762 0.63077
 C1249 C 0.85721 0.33409 0.13696
 C1250 C 0.88217 0.30122 0.11153
 C1251 C 0.90784 0.32109 0.08475
 C1252 C 0.90590 0.37179 0.08601
 C1253 C 0.85597 0.38230 0.08386
 C1254 C 0.83097 0.36318 0.11042
 C1255 C 0.89395 0.36408 0.15207
 C1256 C 0.91921 0.38316 0.12578
 H1257 H 0.87990 0.26564 0.11442
 H1258 H 0.92727 0.30259 0.06496
 H1259 H 0.84126 0.40240 0.06237
 H1260 H 0.79533 0.36736 0.11169
 H1261 H 0.90104 0.36875 0.18107
 H1262 H 0.94752 0.40360 0.13274
 C1263 C 0.35685 0.83385 0.63878
 C1264 C 0.37972 0.80229 0.61431
 C1265 C 0.40640 0.82330 0.58583
 C1266 C 0.40467 0.87147 0.58758
 C1267 C 0.35732 0.88196 0.58593
 C1268 C 0.33142 0.86193 0.61409
 C1269 C 0.39235 0.86198 0.65303
 C1270 C 0.41841 0.88209 0.62513
 H1271 H 0.37737 0.76668 0.61721
 H1272 H 0.42550 0.80502 0.56567
 H1273 H 0.34220 0.90127 0.56410
 H1274 H 0.29570 0.86585 0.61536
 H1275 H 0.40149 0.86497 0.68181
 H1276 H 0.44804 0.90081 0.63177
 C1277 C 0.33741 1.15002 -0.13583
 C1278 C 0.30314 1.12482 -0.11172
 C1279 C 0.32149 1.09834 -0.08477
 C1280 C 0.37223 1.09972 -0.08447
 C1281 C 0.38513 1.08729 -0.12420
 C1282 C 0.36761 1.11342 -0.15064
 C1283 C 0.36564 1.17528 -0.10804
 C1284 C 0.38326 1.14945 -0.08126
 H1285 H 0.26766 1.12757 -0.11563
 H1286 H 0.30186 1.07875 -0.06585
 H1287 H 0.40563 1.05900 -0.13106
 H1288 H 0.37372 1.10723 -0.17960
 H1289 H 0.37046 1.21080 -0.10874
 H1290 H 0.40284 1.16333 -0.05904
 C1291 C 0.83663 0.64876 0.36413
 C1292 C 0.80253 0.62355 0.38839
 C1293 C 0.82108 0.59734 0.41541
 C1294 C 0.87180 0.59903 0.41559
 C1295 C 0.88468 0.58639 0.37590
 C1296 C 0.86697 0.61226 0.34938
 C1297 C 0.86479 0.67435 0.39175
 C1298 C 0.88259 0.64880 0.41861
 H1299 H 0.76703 0.62608 0.38452
 H1300 H 0.80161 0.57776 0.43444
 H1301 H 0.90530 0.55816 0.36913
 H1302 H 0.87300 0.60594 0.32043
 H1303 H 0.86941 0.70989 0.39090
 H1304 H 0.90214 0.66292 0.44074
 C1305 C 0.66386 1.14580 0.13784
 C1306 C 0.63453 1.10880 0.15328
 C1307 C 0.61636 1.08259 0.12721
 C1308 C 0.62785 1.09539 0.08731
 C1309 C 0.61622 1.14500 0.08445
 C1310 C 0.63447 1.17089 0.11082
 C1311 C 0.69759 1.12110 0.11292
 C1312 C 0.67860 1.09454 0.08635
 H1313 H 0.62948 1.10240 0.18235
 H1314 H 0.59633 1.05409 0.13442
 H1315 H 0.59582 1.15878 0.06270
 H1316 H 0.62940 1.20636 0.11167
 H1317 H 0.73316 1.12421 0.11601
 H1318 H 0.69776 1.07520 0.06695
 C1319 C 1.16326 0.64774 0.63704
 C1320 C 1.19724 0.62306 0.61231
 C1321 C 1.17851 0.59612 0.58586
 C1322 C 1.12775 0.59656 0.58672
 C1323 C 1.11630 0.58403 0.62668
 C1324 C 1.13417 0.61061 0.65261
 C1325 C 1.13376 0.67237 0.60983
 C1326 C 1.11577 0.64609 0.58357
 H1327 H 1.23277 0.62649 0.61544
 H1328 H 1.19787 0.57676 0.56660
 H1329 H 1.09652 0.55541 0.63404
 H1330 H 1.12910 0.60435 0.68170
 H1331 H 1.12843 0.70781 0.61047
 H1332 H 1.09533 0.65954 0.56170
 C1333 C 0.66330 0.85508 -0.13563
 C1334 C 0.63412 0.89207 -0.15129
 C1335 C 0.61635 0.91878 -0.12544
 C1336 C 0.62793 0.90650 -0.08547
 C1337 C 0.61606 0.85697 -0.08204
 C1338 C 0.63398 0.83057 -0.10823
 C1339 C 0.69736 0.87998 -0.11112
 C1340 C 0.67869 0.90707 -0.08474
 H1341 H 0.62910 0.89827 -0.18040
 H1342 H 0.59675 0.94747 -0.13291
 H1343 H 0.59581 0.84361 -0.06001
 H1344 H 0.62876 0.79510 -0.10866
 H1345 H 0.73288 0.87659 -0.11433
 H1346 H 0.69809 0.92658 -0.06561
 C1347 C 1.16314 0.35561 0.36373
 C1348 C 1.19723 0.38047 0.38824
 C1349 C 1.17859 0.40748 0.41470
 C1350 C 1.12782 0.40689 0.41405
 C1351 C 1.11614 0.41923 0.37409
 C1352 C 1.13390 0.39260 0.34816
 C1353 C 1.13387 0.33103 0.39114
 C1354 C 1.11600 0.35735 0.41741
 H1355 H 1.23274 0.37712 0.38497
 H1356 H 1.19802 0.42696 0.43382
 H1357 H 1.09646 0.44791 0.36671
 H1358 H 1.12881 0.39881 0.31907
 H1359 H 1.12865 0.29556 0.39066
 H1360 H 1.09581 0.34391 0.43944
 C1361 C 0.33806 0.85161 0.13423
 C1362 C 0.36443 0.82607 0.10534
 C1363 C 0.38176 0.85188 0.07842
 C1364 C 0.37240 0.90181 0.08263
 C1365 C 0.32178 0.90477 0.08435
 C1366 C 0.30367 0.87830 0.11140
 C1367 C 0.36994 0.88691 0.14872
 C1368 C 0.38723 0.91301 0.12216
 H1369 H 0.36820 0.79041 0.10546
 H1370 H 0.40002 0.83789 0.05548
 H1371 H 0.30204 0.92532 0.06624
 H1372 H 0.26829 0.87654 0.11624
 H1373 H 0.37737 0.89228 0.17758
 H1374 H 0.40883 0.94053 0.12885
 C1375 C 0.83843 0.35060 0.63383
 C1376 C 0.86482 0.32530 0.60481
 C1377 C 0.88214 0.35135 0.57801
 C1378 C 0.87269 0.40125 0.58246
 C1379 C 0.82206 0.40411 0.58421
 C1380 C 0.80400 0.37741 0.61114
 C1381 C 0.87028 0.38587 0.64846
 C1382 C 0.88751 0.41219 0.62203
 H1383 H 0.86863 0.28965 0.60475
 H1384 H 0.90043 0.33756 0.55501
 H1385 H 0.80229 0.42475 0.56621
 H1386 H 0.76863 0.37555 0.61597
 H1387 H 0.87775 0.39107 0.67733
 H1388 H 0.90908 0.43968 0.62886
 C1389 C 1.14265 1.13804 0.65503
 C1390 C 1.17062 1.10939 0.62937
 C1391 C 1.14613 1.08336 0.60689
 C1392 C 1.09582 1.08874 0.61192
 C1393 C 1.08732 1.07896 0.65253
 C1394 C 1.11194 1.10483 0.67536
 C1395 C 1.11167 1.16432 0.63005
 C1396 C 1.08699 1.13856 0.60759
 H1397 H 1.20653 1.10896 0.62936
 H1398 H 1.16116 1.06041 0.58764
 H1399 H 1.06440 1.05411 0.66251
 H1400 H 1.10968 1.10173 0.70504
 H1401 H 1.10881 1.20006 0.63041
 H1402 H 1.06274 1.15234 0.58876
 C1403 C 0.63929 0.63903 0.15591
 C1404 C 0.66646 0.61001 0.13006
 C1405 C 0.64129 0.58437 0.10786
 C1406 C 0.59106 0.59047 0.11326
 C1407 C 0.58291 0.58074 0.15388
 C1408 C 0.60825 0.60624 0.17650
 C1409 C 0.60836 0.66581 0.13124
 C1410 C 0.58292 0.64043 0.10904
 H1411 H 0.70237 0.60903 0.12972
 H1412 H 0.65579 0.56114 0.08855
 H1413 H 0.55961 0.55634 0.16402
 H1414 H 0.60624 0.60321 0.20620
 H1415 H 0.60603 0.70159 0.13168
 H1416 H 0.55852 0.65458 0.09054
 C1417 C 1.14326 0.85827 0.34518
 C1418 C 1.17054 0.88703 0.37124
 C1419 C 1.14542 0.91192 0.39410
 C1420 C 1.09526 0.90538 0.38897
 C1421 C 1.08652 0.91578 0.34849
 C1422 C 1.11174 0.89105 0.32531
 C1423 C 1.11294 0.83067 0.36982
 C1424 C 1.08764 0.85534 0.39268
 H1425 H 1.20643 0.88831 0.37130
 H1426 H 1.15989 0.93474 0.41376
 H1427 H 1.06290 0.94015 0.33883
 H1428 H 1.10932 0.89469 0.29568
 H1429 H 1.11103 0.79488 0.36897
 H1430 H 1.06383 0.84062 0.41141
 C1431 C 0.64649 0.36159 -0.15478
 C1432 C 0.67455 0.39013 -0.12905
 C1433 C 0.65010 0.41582 -0.10622
 C1434 C 0.59981 0.41022 -0.11108
 C1435 C 0.59099 0.42033 -0.15160
 C1436 C 0.61552 0.39483 -0.17472
 C1437 C 0.61582 0.33494 -0.12979
 C1438 C 0.59125 0.36035 -0.10699
 H1439 H 0.71045 0.39069 -0.12922
 H1440 H 0.66513 0.43860 -0.08682
 H1441 H 0.56800 0.44525 -0.16133
 H1442 H 0.61307 0.39831 -0.20436
 H1443 H 0.61314 0.29918 -0.13034
 H1444 H 0.56730 0.34628 -0.08805
 C1445 C 0.86087 1.14125 0.34678
 C1446 C 0.83378 1.11149 0.37216
 C1447 C 0.85904 1.08612 0.39453
 C1448 C 0.90918 1.09319 0.38967
 C1449 C 0.91815 1.08406 0.34906
 C1450 C 0.89280 1.10927 0.32635
 C1451 C 0.89088 1.16836 0.37202
 C1452 C 0.91637 1.14321 0.39440
 H1453 H 0.79789 1.10993 0.37214
 H1454 H 0.84468 1.06257 0.41364
 H1455 H 0.94207 1.06023 0.33898
 H1456 H 0.89546 1.10657 0.29667
 H1457 H 0.89250 1.20418 0.37188
 H1458 H 0.94009 1.15756 0.41339
 C1459 C 0.35888 0.64026 -0.15341
 C1460 C 0.33204 0.61049 -0.12784
 C1461 C 0.35754 0.58523 -0.10553
 C1462 C 0.40764 0.59245 -0.11063
 C1463 C 0.41636 0.58324 -0.15127
 C1464 C 0.39076 0.60831 -0.17392
 C1465 C 0.38898 0.66750 -0.12835
 C1466 C 0.41468 0.64250 -0.10603
 H1467 H 0.29616 0.60883 -0.12769
 H1468 H 0.34339 0.56169 -0.08630
 H1469 H 0.44017 0.55936 -0.16142
 H1470 H 0.39313 0.60544 -0.20360
 H1471 H 0.39047 0.70333 -0.12852
 H1472 H 0.43842 0.65698 -0.08712
 C1473 C 0.85392 0.86138 0.65237
 C1474 C 0.88456 0.83366 0.62818
 C1475 C 0.91038 0.85823 0.60571
 C1476 C 0.90288 0.90830 0.60937
 C1477 C 0.85284 0.91508 0.60351
 C1478 C 0.82716 0.89019 0.62599
 C1479 C 0.88522 0.89415 0.67264
 C1480 C 0.91094 0.91873 0.64985
 H1481 H 0.88625 0.79785 0.62898
 H1482 H 0.93444 0.84343 0.58726
 H1483 H 0.83889 0.93801 0.58367
 H1484 H 0.79128 0.89151 0.62546
 H1485 H 0.88705 0.89806 0.70227
 H1486 H 0.93428 0.94320 0.65982
 C1487 C 0.35555 0.35367 0.14962
 C1488 C 0.34866 0.34177 0.10929
 C1489 C 0.37462 0.36508 0.08638
 C1490 C 0.40560 0.39878 0.10585
 C1491 C 0.37440 0.42753 0.12892
 C1492 C 0.34803 0.40383 0.15192
 C1493 C 0.40550 0.34732 0.15657
 C1494 C 0.43179 0.37121 0.13358
 H1495 H 0.32562 0.31706 0.09923
 H1496 H 0.37289 0.35938 0.05694
 H1497 H 0.37315 0.46331 0.12730
 H1498 H 0.32402 0.41928 0.17001
 H1499 H 0.41893 0.32579 0.17768
 H1500 H 0.46766 0.37036 0.13493
   
