data_POSCAR
  _audit_creation_date              2014-09-24
  _audit_creation_method            'ToBaCCo'
  _symmetry_space_group_name_H-M    'P1'
  _symmetry_Int_Tables_number       1
  _symmetry_cell_setting            triclinic
  loop_
  _symmetry_equiv_pos_as_xyz
 x,y,z
_cell_length_a 65.2251
_cell_length_b 65.2359
_cell_length_c 65.1722
_cell_angle_alpha 89.261200
_cell_angle_beta 89.314000
_cell_angle_gamma 89.325300
loop_
  _atom_site_label
  _atom_site_type_symbol
  _atom_site_fract_x
  _atom_site_fract_y
  _atom_site_fract_z
C1 C 0.73462 0.65258 0.97497
 H2 H 0.74924 0.65301 0.96698
 C3 C 0.71781 0.66349 0.96713
 H4 H 0.71949 0.67246 0.95311
 C5 C 0.71419 0.63958 1.00242
 H6 H 0.71261 0.62980 1.01582
 C7 C 0.69704 0.65025 0.99512
 H8 H 0.68243 0.64879 1.00306
 N9 N 0.73252 0.64089 0.99230
 C10 C 0.79370 0.62991 1.01686
 H11 H 0.79307 0.61341 1.01854
 C12 C 0.81105 0.64034 1.02307
 H13 H 0.82385 0.63187 1.02958
 C14 C 0.77768 0.66114 1.00649
 H15 H 0.76456 0.66917 1.00021
 C16 C 0.79479 0.67221 1.01255
 H17 H 0.79486 0.68874 1.01083
 Zn18 Zn 0.75499 0.62432 1.00082
 N19 N 0.77756 0.64034 1.00856
 C20 C 0.78185 0.60838 0.97039
 N21 N 0.76253 0.60747 0.97846
 C22 C 0.74795 0.59564 0.96987
 C23 C 0.75263 0.58399 0.95253
 C24 C 0.78716 0.59698 0.95312
 C25 C 0.74338 0.61887 1.04163
 C26 C 0.73689 0.60851 1.05935
 C27 C 0.73925 0.57664 1.04085
 C28 C 0.74574 0.58764 1.02344
 N29 N 0.74729 0.60842 1.02406
 H30 H 0.79309 0.61826 0.97701
 H31 H 0.73260 0.59552 0.97634
 H32 H 0.74090 0.57478 0.94564
 H33 H 0.80251 0.59799 0.94668
 H34 H 0.74497 0.63536 1.04172
 H35 H 0.73342 0.61711 1.07312
 H36 H 0.73767 0.56014 1.04009
 H37 H 0.74929 0.57960 1.00944
 C38 C 0.81164 0.66166 1.02084
 C39 C 0.69882 0.66217 0.97724
 C40 C 0.73460 0.58722 1.05892
 C41 C 0.77242 0.58476 0.94407
 C42 C 0.73383 0.34825 0.51991
 H43 H 0.74847 0.34723 0.52750
 C44 C 0.71717 0.33707 0.52755
 H45 H 0.71899 0.32732 0.54100
 C46 C 0.71321 0.36287 0.49367
 H47 H 0.71151 0.37334 0.48083
 C48 C 0.69621 0.35198 0.50079
 H49 H 0.68159 0.35395 0.49326
 N50 N 0.73158 0.36083 0.50324
 C51 C 0.79268 0.37185 0.47758
 H52 H 0.79199 0.38841 0.47666
 C53 C 0.81009 0.36138 0.47053
 H54 H 0.82288 0.36989 0.46414
 C55 C 0.77678 0.34051 0.48692
 H56 H 0.76368 0.33246 0.49314
 C57 C 0.79395 0.32941 0.48001
 H58 H 0.79410 0.31283 0.48102
 Zn59 Zn 0.75393 0.37740 0.49487
 N60 N 0.77658 0.36137 0.48580
 C61 C 0.78080 0.39155 0.52526
 N62 N 0.76146 0.39313 0.51776
 C63 C 0.74688 0.40497 0.52713
 C64 C 0.75166 0.41606 0.54463
 C65 C 0.78620 0.40237 0.54266
 C66 C 0.74208 0.38489 0.45465
 C67 C 0.73549 0.39615 0.43759
 C68 C 0.73789 0.42710 0.45739
 C69 C 0.74447 0.41523 0.47413
 N70 N 0.74605 0.39447 0.47257
 H71 H 0.79203 0.38166 0.51799
 H72 H 0.73151 0.40563 0.52110
 H73 H 0.73998 0.42540 0.55206
 H74 H 0.80162 0.40094 0.54857
 H75 H 0.74370 0.36840 0.45379
 H76 H 0.73196 0.38833 0.42352
 H77 H 0.73626 0.44356 0.45881
 H78 H 0.74808 0.42259 0.48836
 C79 C 0.81078 0.33999 0.47183
 C80 C 0.69816 0.33908 0.51795
 C81 C 0.73319 0.41741 0.43903
 C82 C 0.77151 0.41471 0.55244
 C83 C 0.23363 -0.15137 0.01969
 H84 H 0.24828 -0.15237 0.02726
 C85 C 0.21698 -0.16254 0.02737
 H86 H 0.21882 -0.17227 0.04083
 C87 C 0.21297 -0.13680 -0.00655
 H88 H 0.21125 -0.12636 -0.01940
 C89 C 0.19599 -0.14769 0.00061
 H90 H 0.18135 -0.14574 -0.00691
 N91 N 0.23135 -0.13882 0.00300
 C92 C 0.29239 -0.12782 -0.02283
 H93 H 0.29168 -0.11126 -0.02382
 C94 C 0.30980 -0.13829 -0.02989
 H95 H 0.32257 -0.12979 -0.03633
 C96 C 0.27655 -0.15915 -0.01334
 H97 H 0.26348 -0.16720 -0.00706
 C98 C 0.29372 -0.17025 -0.02025
 H99 H 0.29390 -0.18683 -0.01918
 Zn100 Zn 0.25368 -0.12225 -0.00545
 N101 N 0.27632 -0.13830 -0.01454
 C102 C 0.28064 -0.10806 0.02483
 N103 N 0.26127 -0.10648 0.01738
 C104 C 0.24673 -0.09462 0.02679
 C105 C 0.25155 -0.08352 0.04426
 C106 C 0.28609 -0.09723 0.04221
 C107 C 0.24178 -0.11489 -0.04566
 C108 C 0.23512 -0.10370 -0.06274
 C109 C 0.23746 -0.07267 -0.04301
 C110 C 0.24411 -0.08449 -0.02626
 N111 N 0.24575 -0.10525 -0.02778
 H112 H 0.29184 -0.11796 0.01755
 H113 H 0.23133 -0.09396 0.02079
 H114 H 0.23990 -0.07417 0.05172
 H115 H 0.30152 -0.09866 0.04808
 H116 H 0.24345 -0.13138 -0.04647
 H117 H 0.23161 -0.11167 -0.07675
 H118 H 0.23582 -0.05619 -0.04153
 H119 H 0.24773 -0.07709 -0.01205
 C120 C 0.31052 -0.15968 -0.02851
 C121 C 0.19797 -0.16057 0.01779
 C122 C 0.23274 -0.08241 -0.06137
 C123 C 0.27143 -0.08488 0.05202
 C124 C 0.23502 0.15249 0.47448
 H125 H 0.24965 0.15297 0.46650
 C126 C 0.21819 0.16338 0.46665
 H127 H 0.21986 0.17239 0.45266
 C128 C 0.21459 0.13937 0.50188
 H129 H 0.21303 0.12955 0.51524
 C130 C 0.19743 0.15002 0.49459
 H131 H 0.18281 0.14851 0.50251
 N132 N 0.23293 0.14075 0.49178
 C133 C 0.29411 0.12980 0.51634
 H134 H 0.29351 0.11329 0.51797
 C135 C 0.31143 0.14024 0.52262
 H136 H 0.32424 0.13177 0.52911
 C137 C 0.27806 0.16104 0.50606
 H138 H 0.26493 0.16907 0.49979
 C139 C 0.29515 0.17211 0.51218
 H140 H 0.29519 0.18865 0.51052
 Zn141 Zn 0.25543 0.12420 0.50027
 N142 N 0.27797 0.14024 0.50806
 C143 C 0.28233 0.10836 0.46982
 N144 N 0.26301 0.10740 0.47788
 C145 C 0.24846 0.09554 0.46929
 C146 C 0.25317 0.08391 0.45194
 C147 C 0.28767 0.09699 0.45254
 C148 C 0.24381 0.11865 0.54107
 C149 C 0.23737 0.10824 0.55878
 C150 C 0.23985 0.07642 0.54025
 C151 C 0.24628 0.08745 0.52284
 N152 N 0.24775 0.10824 0.52348
 H153 H 0.29354 0.11826 0.47645
 H154 H 0.23311 0.09537 0.47576
 H155 H 0.24147 0.07467 0.44505
 H156 H 0.30302 0.09803 0.44611
 H157 H 0.24533 0.13515 0.54118
 H158 H 0.23385 0.11671 0.57259
 H159 H 0.23830 0.05993 0.53957
 H160 H 0.24985 0.07943 0.50883
 C161 C 0.31199 0.16157 0.52046
 C162 C 0.19919 0.16199 0.47674
 C163 C 0.23519 0.08696 0.55831
 C164 C 0.27296 0.08473 0.44348
 C165 C 0.15310 0.47447 0.23500
 H166 H 0.15356 0.46653 0.24967
 C167 C 0.16400 0.46661 0.21819
 H168 H 0.17298 0.45263 0.21991
 C169 C 0.14002 0.50179 0.21446
 H170 H 0.13021 0.51514 0.21285
 C171 C 0.15067 0.49448 0.19731
 H172 H 0.14917 0.50235 0.18266
 N173 N 0.14137 0.49174 0.23285
 C174 C 0.13031 0.51633 0.29401
 H175 H 0.11380 0.51792 0.29338
 C176 C 0.14072 0.52264 0.31135
 H177 H 0.13222 0.52913 0.32414
 C178 C 0.16159 0.50611 0.27800
 H179 H 0.16964 0.49985 0.26489
 C180 C 0.17263 0.51226 0.29511
 H181 H 0.18917 0.51065 0.29518
 Zn182 Zn 0.12478 0.50024 0.25532
 N183 N 0.14078 0.50806 0.27788
 C184 C 0.10889 0.46981 0.28226
 N185 N 0.10797 0.47786 0.26292
 C186 C 0.09614 0.46925 0.24833
 C187 C 0.08451 0.45191 0.25305
 C188 C 0.09751 0.45254 0.28760
 C189 C 0.11924 0.54098 0.24358
 C190 C 0.10881 0.55865 0.23712
 C191 C 0.07699 0.54010 0.23967
 C192 C 0.08804 0.52272 0.24612
 N193 N 0.10883 0.52339 0.24757
 H194 H 0.11877 0.47646 0.29349
 H195 H 0.09601 0.47571 0.23296
 H196 H 0.07530 0.44500 0.24133
 H197 H 0.09852 0.44611 0.30298
 H198 H 0.13573 0.54111 0.24509
 H199 H 0.11728 0.57246 0.23357
 H200 H 0.06049 0.53940 0.23815
 H201 H 0.08002 0.50872 0.24973
 C202 C 0.16204 0.52054 0.31194
 C203 C 0.16262 0.47664 0.19914
 C204 C 0.08753 0.55815 0.23497
 C205 C 0.08529 0.44346 0.27287
 C206 C -0.15247 0.02039 0.23306
 H207 H -0.15351 0.02795 0.24771
 C208 C -0.16359 0.02805 0.21636
 H209 H -0.17333 0.04149 0.21822
 C210 C -0.13780 -0.00579 0.21244
 H211 H -0.12732 -0.01860 0.21076
 C212 C -0.14863 0.00134 0.19540
 H213 H -0.14659 -0.00620 0.18078
 N214 N -0.13988 0.00375 0.23082
 C215 C -0.12887 -0.02196 0.29196
 H216 H -0.11231 -0.02289 0.29124
 C217 C -0.13932 -0.02904 0.30941
 H218 H -0.13080 -0.03544 0.32219
 C219 C -0.16023 -0.01260 0.27612
 H220 H -0.16830 -0.00635 0.26303
 C221 C -0.17131 -0.01953 0.29333
 H222 H -0.18790 -0.01851 0.29351
 Zn223 Zn -0.12333 -0.00462 0.25321
 N224 N -0.13937 -0.01373 0.27587
 C225 C -0.10920 0.02569 0.28014
 N226 N -0.10760 0.01824 0.26077
 C227 C -0.09572 0.02763 0.24621
 C228 C -0.08458 0.04507 0.25102
 C229 C -0.09834 0.04305 0.28558
 C230 C -0.11584 -0.04478 0.24136
 C231 C -0.10457 -0.06182 0.23480
 C232 C -0.07362 -0.04202 0.23725
 C233 C -0.08550 -0.02530 0.24380
 N234 N -0.10626 -0.02688 0.24535
 H235 H -0.11912 0.01842 0.29135
 H236 H -0.09505 0.02162 0.23081
 H237 H -0.07520 0.05251 0.23937
 H238 H -0.09977 0.04892 0.30102
 H239 H -0.13234 -0.04566 0.24295
 H240 H -0.11238 -0.07588 0.23126
 H241 H -0.05714 -0.04059 0.23566
 H242 H -0.07813 -0.01108 0.24743
 C243 C -0.16071 -0.02774 0.31014
 C244 C -0.16154 0.01849 0.19732
 C245 C -0.08330 -0.06037 0.23255
 C246 C -0.08594 0.05283 0.27091
 C247 C 0.34795 0.52008 0.73393
 H248 H 0.34694 0.52761 0.74861
 C249 C 0.33679 0.52777 0.71728
 H250 H 0.32704 0.54120 0.71914
 C251 C 0.36256 0.49395 0.71322
 H252 H 0.37302 0.48114 0.71147
 C253 C 0.35168 0.50113 0.69622
 H254 H 0.35365 0.49366 0.68156
 N255 N 0.36053 0.50344 0.73163
 C256 C 0.37158 0.47761 0.79271
 H257 H 0.38814 0.47672 0.79201
 C258 C 0.36112 0.47046 0.81011
 H259 H 0.36963 0.46404 0.82289
 C260 C 0.34022 0.48694 0.77683
 H261 H 0.33216 0.49319 0.76375
 C262 C 0.32913 0.47993 0.79400
 H263 H 0.31254 0.48090 0.79415
 Zn264 Zn 0.37711 0.49501 0.75396
 N265 N 0.36108 0.48586 0.77662
 C266 C 0.39130 0.52529 0.78092
 N267 N 0.39285 0.51786 0.76153
 C268 C 0.40468 0.52727 0.74695
 C269 C 0.41579 0.54474 0.75175
 C270 C 0.40214 0.54267 0.78634
 C271 C 0.38456 0.45488 0.74201
 C272 C 0.39581 0.43786 0.73538
 C273 C 0.42678 0.45763 0.73782
 C274 C 0.41492 0.47434 0.74444
 N275 N 0.39416 0.47277 0.74602
 H276 H 0.38142 0.51799 0.79215
 H277 H 0.40532 0.52129 0.73155
 H278 H 0.42513 0.55221 0.74007
 H279 H 0.40073 0.54853 0.80178
 H280 H 0.36806 0.45401 0.74362
 H281 H 0.38798 0.42381 0.73182
 H282 H 0.44325 0.45906 0.73620
 H283 H 0.42230 0.48855 0.74809
 C284 C 0.33972 0.47170 0.81081
 C285 C 0.33879 0.51826 0.69823
 C286 C 0.41708 0.43930 0.73309
 C287 C 0.41446 0.55249 0.77164
 C288 C 0.65370 0.97482 0.73549
 H289 H 0.65420 0.96683 0.75013
 C290 C 0.66458 0.96705 0.71863
 H291 H 0.67359 0.95308 0.72028
 C292 C 0.64053 1.00220 0.71507
 H293 H 0.63069 1.01553 0.71352
 C294 C 0.65117 0.99496 0.69788
 H295 H 0.64962 1.00288 0.68325
 N296 N 0.64193 0.99208 0.73342
 C297 C 0.63082 1.01642 0.79468
 H298 H 0.61431 1.01798 0.79405
 C299 C 0.64121 1.02272 0.81204
 H300 H 0.63264 1.02914 0.82483
 C301 C 0.66212 1.00634 0.77864
 H302 H 0.67019 1.00014 0.76550
 C303 C 0.67316 1.01247 0.79576
 H304 H 0.68971 1.01088 0.79577
 Zn305 Zn 0.62533 1.00046 0.75593
 N306 N 0.64131 1.00823 0.77853
 C307 C 0.60948 0.96990 0.78277
 N308 N 0.60856 0.97801 0.76345
 C309 C 0.59676 0.96944 0.74883
 C310 C 0.58514 0.95208 0.75348
 C311 C 0.59810 0.95261 0.78805
 C312 C 0.61968 1.04122 0.74433
 C313 C 0.60922 1.05887 0.73787
 C314 C 0.57745 1.04022 0.74032
 C315 C 0.58854 1.02287 0.74676
 N316 N 0.60932 1.02360 0.74826
 H317 H 0.61933 0.97653 0.79403
 H318 H 0.59664 0.97594 0.73347
 H319 H 0.57594 0.94520 0.74173
 H320 H 0.59910 0.94614 0.80341
 H321 H 0.63618 1.04141 0.74587
 H322 H 0.61765 1.07271 0.73436
 H323 H 0.56096 1.03947 0.73875
 H324 H 0.58055 1.00884 0.75033
 C325 C 0.66256 1.02068 0.81263
 C326 C 0.66315 0.97714 0.69962
 C327 C 0.58795 1.05831 0.73566
 C328 C 0.58589 0.94358 0.77327
 C329 C 0.01954 0.23336 -0.15131
 H330 H 0.02710 0.24803 -0.15226
 C331 C 0.02727 0.21676 -0.16248
 H332 H 0.04075 0.21864 -0.17217
 C333 C -0.00668 0.21264 -0.13685
 H334 H -0.01955 0.21087 -0.12644
 C335 C 0.00052 0.19569 -0.14774
 H336 H -0.00697 0.18105 -0.14583
 N337 N 0.00284 0.23104 -0.13881
 C338 C -0.02301 0.29201 -0.12771
 H339 H -0.02400 0.29124 -0.11113
 C340 C -0.03006 0.30945 -0.13816
 H341 H -0.03651 0.32218 -0.12963
 C342 C -0.01349 0.27629 -0.15909
 H343 H -0.00720 0.26326 -0.16717
 C344 C -0.02039 0.29349 -0.17017
 H345 H -0.01931 0.29373 -0.18677
 Zn346 Zn -0.00564 0.25330 -0.12220
 N347 N -0.01471 0.27599 -0.13822
 C348 C 0.02461 0.28020 -0.10785
 N349 N 0.01716 0.26083 -0.10634
 C350 C 0.02655 0.24624 -0.09451
 C351 C 0.04402 0.25101 -0.08337
 C352 C 0.04198 0.28560 -0.09698
 C353 C -0.04581 0.24135 -0.11493
 C354 C -0.06290 0.23467 -0.10377
 C355 C -0.04322 0.23693 -0.07267
 C356 C -0.02646 0.24361 -0.08446
 N357 N -0.02796 0.24530 -0.10523
 H358 H 0.01733 0.29144 -0.11774
 H359 H 0.02056 0.23085 -0.09391
 H360 H 0.05147 0.23932 -0.07405
 H361 H 0.04786 0.30103 -0.09837
 H362 H -0.04661 0.24306 -0.13143
 H363 H -0.07689 0.23119 -0.11178
 H364 H -0.04175 0.23525 -0.05617
 H365 H -0.01227 0.24720 -0.07702
 C366 C -0.02867 0.31024 -0.15957
 C367 C 0.01772 0.19773 -0.16056
 C368 C -0.06155 0.23224 -0.08246
 C369 C 0.05179 0.27089 -0.08467
 C370 C 0.47496 0.23484 0.15301
 H371 H 0.46696 0.24945 0.15347
 C372 C 0.46718 0.21800 0.16394
 H373 H 0.45321 0.21965 0.17296
 C374 C 0.50235 0.21446 0.13989
 H375 H 0.51569 0.21291 0.13005
 C376 C 0.49511 0.19729 0.15058
 H377 H 0.50304 0.18268 0.14908
 N378 N 0.49223 0.23278 0.14125
 C379 C 0.51659 0.29400 0.13003
 H380 H 0.51817 0.29335 0.11350
 C381 C 0.52283 0.31136 0.14040
 H382 H 0.52927 0.32416 0.13185
 C383 C 0.50645 0.27800 0.16137
 H384 H 0.50024 0.26487 0.16947
 C385 C 0.51254 0.29513 0.17238
 H386 H 0.51093 0.29521 0.18894
 Zn387 Zn 0.50061 0.25526 0.12459
 N388 N 0.50838 0.27786 0.14055
 C389 C 0.47005 0.28203 0.10871
 N390 N 0.47816 0.26273 0.10780
 C391 C 0.46957 0.24812 0.09602
 C392 C 0.45217 0.25274 0.08442
 C393 C 0.45273 0.28728 0.09736
 C394 C 0.54139 0.24372 0.11896
 C395 C 0.55905 0.23731 0.10850
 C396 C 0.54041 0.23969 0.07670
 C397 C 0.52304 0.24610 0.08778
 N398 N 0.52376 0.24761 0.10858
 H399 H 0.47669 0.29328 0.11855
 H400 H 0.47607 0.23279 0.09590
 H401 H 0.44528 0.24099 0.07525
 H402 H 0.44626 0.30261 0.09836
 H403 H 0.54156 0.24527 0.13547
 H404 H 0.57289 0.23383 0.11695
 H405 H 0.53967 0.23811 0.06020
 H406 H 0.50901 0.24962 0.07978
 C407 C 0.52074 0.31197 0.16174
 C408 C 0.47728 0.19902 0.16256
 C409 C 0.55850 0.23509 0.08722
 C410 C 0.44367 0.27250 0.08519
 C411 C 0.97424 0.73495 0.65351
 H412 H 0.96627 0.74958 0.65401
 C413 C 0.96644 0.71811 0.66441
 H414 H 0.95249 0.71976 0.67344
 C415 C 1.00159 0.71456 0.64032
 H416 H 1.01492 0.71301 0.63047
 C417 C 0.99433 0.69737 0.65098
 H418 H 1.00224 0.68276 0.64944
 N419 N 0.99150 0.73289 0.64173
 C420 C 1.01600 0.79409 0.63075
 H421 H 1.01758 0.79351 0.61422
 C422 C 1.02230 0.81139 0.64119
 H423 H 1.02877 0.82421 0.63270
 C424 C 1.00583 0.77799 0.66203
 H425 H 0.99959 0.76484 0.67008
 C426 C 1.01197 0.79505 0.67311
 H427 H 1.01037 0.79507 0.68967
 Zn428 Zn 0.99995 0.75541 0.62516
 N429 N 1.00776 0.77793 0.64121
 C430 C 0.96947 0.78231 0.60933
 N431 N 0.97754 0.76300 0.60836
 C432 C 0.96894 0.74846 0.59650
 C433 C 0.95161 0.75318 0.58485
 C434 C 0.95221 0.78766 0.59794
 C435 C 1.04070 0.74380 0.61953
 C436 C 1.05837 0.73740 0.60907
 C437 C 1.03978 0.73997 0.57725
 C438 C 1.02241 0.74636 0.58834
 N439 N 1.02310 0.74777 0.60914
 H440 H 0.97611 0.79351 0.61924
 H441 H 0.97541 0.73311 0.59633
 H442 H 0.94472 0.74150 0.57559
 H443 H 0.94578 0.80301 0.59897
 H444 H 1.04086 0.74527 0.63605
 H445 H 1.07219 0.73387 0.61752
 H446 H 1.03906 0.73848 0.56074
 H447 H 1.00839 0.74995 0.58033
 C448 C 1.02022 0.81192 0.66254
 C449 C 0.97652 0.69912 0.66298
 C450 C 1.05785 0.73529 0.58777
 C451 C 0.94316 0.77297 0.58565
 C452 C 0.52012 0.73425 0.34728
 H453 H 0.52769 0.74890 0.34624
 C454 C 0.52776 0.71760 0.33611
 H455 H 0.54118 0.71944 0.32634
 C456 C 0.49394 0.71360 0.36196
 H457 H 0.48114 0.71188 0.37245
 C458 C 0.50106 0.69661 0.35107
 H459 H 0.49356 0.68198 0.35307
 N460 N 0.50349 0.73198 0.35989
 C461 C 0.47781 0.79303 0.37098
 H462 H 0.47692 0.79228 0.38756
 C463 C 0.47071 0.81046 0.36055
 H464 H 0.46433 0.82319 0.36914
 C465 C 0.48711 0.77723 0.33958
 H466 H 0.49333 0.76417 0.33149
 C467 C 0.48016 0.79442 0.32849
 H468 H 0.48116 0.79456 0.31188
 Zn469 Zn 0.49512 0.75430 0.37648
 N470 N 0.48602 0.77697 0.36045
 C471 C 0.52547 0.78118 0.39067
 N472 N 0.51799 0.76182 0.39224
 C473 C 0.52736 0.74725 0.40411
 C474 C 0.54481 0.75203 0.41527
 C475 C 0.54283 0.78659 0.40156
 C476 C 0.45495 0.74241 0.38397
 C477 C 0.43791 0.73583 0.39526
 C478 C 0.45771 0.73826 0.42623
 C479 C 0.47443 0.74483 0.41435
 N480 N 0.47285 0.74640 0.39356
 H481 H 0.51822 0.79240 0.38076
 H482 H 0.52134 0.73187 0.40476
 H483 H 0.55223 0.74036 0.42464
 H484 H 0.54872 0.80201 0.40015
 H485 H 0.45408 0.74401 0.36746
 H486 H 0.42385 0.73228 0.38743
 H487 H 0.45914 0.73665 0.44272
 H488 H 0.48865 0.74846 0.42171
 C489 C 0.47196 0.81121 0.33911
 C490 C 0.51819 0.69859 0.33814
 C491 C 0.43936 0.73355 0.41654
 C492 C 0.55259 0.77190 0.41394
 C493 C 0.39891 -0.01671 0.27003
 H494 H 0.39934 -0.00203 0.27753
 C495 C 0.41002 -0.03339 0.27802
 H496 H 0.41914 -0.03155 0.29164
 C497 C 0.38576 -0.03741 0.24370
 H498 H 0.37588 -0.03913 0.23069
 C499 C 0.39662 -0.05444 0.25116
 H500 H 0.39521 -0.06911 0.24373
 N501 N 0.38707 -0.01900 0.25317
 C502 C 0.37604 0.04191 0.22673
 H503 H 0.35955 0.04121 0.22539
 C504 C 0.38642 0.05933 0.21995
 H505 H 0.37793 0.07211 0.21332
 C506 C 0.40727 0.02609 0.23702
 H507 H 0.41532 0.01304 0.24356
 C508 C 0.41828 0.04328 0.23040
 H509 H 0.43480 0.04348 0.23194
 Zn510 Zn 0.37046 0.00342 0.24441
 N511 N 0.38649 0.02586 0.23533
 C512 C 0.35517 0.03075 0.27439
 N513 N 0.35390 0.01135 0.26709
 C514 C 0.34201 -0.00296 0.27669
 C515 C 0.33069 0.00209 0.29432
 C516 C 0.34412 0.03642 0.29190
 C517 C 0.36458 -0.00853 0.20421
 C518 C 0.35400 -0.01485 0.18698
 C519 C 0.32230 -0.01205 0.20639
 C520 C 0.33350 -0.00575 0.22332
 N521 N 0.35429 -0.00444 0.22200
 H522 H 0.36510 0.04176 0.26697
 H523 H 0.34159 -0.01838 0.27081
 H524 H 0.32145 -0.00941 0.30203
 H525 H 0.34544 0.05183 0.29772
 H526 H 0.38109 -0.00713 0.20355
 H527 H 0.36237 -0.01840 0.17299
 H528 H 0.30579 -0.01338 0.20759
 H529 H 0.32558 -0.00206 0.23747
 C530 C 0.40771 0.06008 0.22191
 C531 C 0.40874 -0.05245 0.26855
 C532 C 0.33270 -0.01677 0.18812
 C533 C 0.33186 0.02196 0.30201
 C534 C 0.09313 1.02438 0.77526
 H535 H 0.09198 1.00966 0.78299
 C536 C 0.08217 1.04130 0.78278
 H537 H 0.07245 1.03960 0.79628
 C538 C 0.10786 1.04491 0.74878
 H539 H 0.11829 1.04644 0.73588
 C540 C 0.09719 1.06217 0.75578
 H541 H 0.09928 1.07684 0.74810
 N542 N 0.10566 1.02646 0.75853
 C543 C 0.11600 0.96538 0.73366
 H544 H 0.13256 0.96566 0.73264
 C545 C 0.10546 0.94835 0.72683
 H546 H 0.11392 0.93544 0.72053
 C547 C 0.08473 0.98195 0.74296
 H548 H 0.07674 0.99517 0.74907
 C549 C 0.07356 0.96515 0.73627
 H550 H 0.05697 0.96541 0.73733
 Zn551 Zn 0.12190 1.00366 0.75033
 N552 N 0.10559 0.98163 0.74173
 C553 C 0.13605 0.97596 0.78094
 N554 N 0.13784 0.99531 0.77312
 C555 C 0.15021 1.00925 0.78200
 C556 C 0.16173 1.00376 0.79922
 C557 C 0.14728 0.96986 0.79809
 C558 C 0.12912 1.01574 0.70986
 C559 C 0.14039 1.02154 0.69245
 C560 C 0.17151 1.01701 0.71184
 C561 C 0.15965 1.01127 0.72893
 N562 N 0.13882 1.01106 0.72771
 H563 H 0.12575 0.96526 0.77408
 H564 H 0.15105 1.02465 0.77571
 H565 H 0.17157 1.01490 0.80620
 H566 H 0.14574 0.95442 0.80420
 H567 H 0.11257 1.01517 0.70926
 H568 H 0.13251 1.02554 0.67839
 H569 H 0.18806 1.01742 0.71295
 H570 H 0.16709 1.00706 0.74311
 C571 C 0.08407 0.94819 0.72821
 C572 C 0.08433 1.06038 0.77300
 C573 C 0.16175 1.02230 0.69349
 C574 C 0.16024 0.98385 0.80729
 C575 C 0.59302 0.52503 0.27386
 H576 H 0.59187 0.51031 0.28160
 C577 C 0.58208 0.54195 0.28139
 H578 H 0.57237 0.54026 0.29489
 C579 C 0.60777 0.54554 0.24738
 H580 H 0.61820 0.54707 0.23449
 C581 C 0.59711 0.56281 0.25438
 H582 H 0.59921 0.57748 0.24671
 N583 N 0.60556 0.52710 0.25713
 C584 C 0.61598 0.46602 0.23227
 H585 H 0.63254 0.46634 0.23125
 C586 C 0.60548 0.44896 0.22547
 H587 H 0.61396 0.43607 0.21918
 C588 C 0.58469 0.48252 0.24159
 H589 H 0.57668 0.49573 0.24771
 C590 C 0.57355 0.46569 0.23493
 H591 H 0.55696 0.46591 0.23602
 Zn592 Zn 0.62182 0.50431 0.24895
 N593 N 0.60555 0.48226 0.24035
 C594 C 0.63598 0.47662 0.27957
 N595 N 0.63775 0.49598 0.27176
 C596 C 0.65008 0.50994 0.28066
 C597 C 0.66159 0.50446 0.29789
 C598 C 0.64719 0.47053 0.29674
 C599 C 0.62909 0.51639 0.20848
 C600 C 0.64036 0.52222 0.19110
 C601 C 0.67147 0.51774 0.21054
 C602 C 0.65958 0.51197 0.22760
 N603 N 0.63876 0.51172 0.22635
 H604 H 0.62570 0.46590 0.27270
 H605 H 0.65090 0.52534 0.27438
 H606 H 0.67140 0.51562 0.30489
 H607 H 0.64567 0.45509 0.30285
 H608 H 0.61254 0.51578 0.20786
 H609 H 0.63250 0.52622 0.17703
 H610 H 0.68801 0.51820 0.21168
 H611 H 0.66701 0.50777 0.24179
 C612 C 0.58410 0.44874 0.22688
 C613 C 0.58426 0.56104 0.27161
 C614 C 0.66173 0.52303 0.19218
 C615 C 0.66011 0.48455 0.30596
 C616 C 0.89823 0.48342 0.77068
 H617 H 0.89864 0.49812 0.77817
 C618 C 0.90933 0.46676 0.77871
 H619 H 0.91841 0.46862 0.79235
 C620 C 0.88516 0.46269 0.74434
 H621 H 0.87531 0.46095 0.73130
 C622 C 0.89601 0.44567 0.75185
 H623 H 0.89462 0.43099 0.74443
 N624 N 0.88644 0.48112 0.75379
 C625 C 0.87538 0.54197 0.72726
 H626 H 0.85889 0.54125 0.72588
 C627 C 0.88576 0.55939 0.72045
 H628 H 0.87726 0.57215 0.71379
 C629 C 0.90661 0.52621 0.73763
 H630 H 0.91466 0.51319 0.74421
 C631 C 0.91762 0.54340 0.73100
 H632 H 0.93413 0.54363 0.73256
 Zn633 Zn 0.86982 0.50350 0.74497
 N634 N 0.88583 0.52595 0.73590
 C635 C 0.85444 0.53084 0.77489
 N636 N 0.85320 0.51144 0.76761
 C637 C 0.84132 0.49712 0.77721
 C638 C 0.82999 0.50216 0.79483
 C639 C 0.84336 0.53651 0.79239
 C640 C 0.86405 0.49151 0.70478
 C641 C 0.85354 0.48514 0.68753
 C642 C 0.82178 0.48786 0.70687
 C643 C 0.83292 0.49422 0.72381
 N644 N 0.85372 0.49558 0.72254
 H645 H 0.86436 0.54186 0.76747
 H646 H 0.84094 0.48168 0.77135
 H647 H 0.82076 0.49065 0.80255
 H648 H 0.84465 0.55192 0.79820
 H649 H 0.88056 0.49296 0.70415
 H650 H 0.86195 0.48160 0.67356
 H651 H 0.80527 0.48647 0.70803
 H652 H 0.82497 0.49789 0.73795
 C653 C 0.90704 0.56018 0.72245
 C654 C 0.90808 0.44768 0.76926
 C655 C 0.83224 0.48315 0.68863
 C656 C 0.83112 0.52204 0.80250
 C657 C 0.27004 0.39766 -0.01626
 H658 H 0.27751 0.39805 -0.00154
 C659 C 0.27805 0.40879 -0.03293
 H660 H 0.29167 0.41788 -0.03105
 C661 C 0.24371 0.38460 -0.03704
 H662 H 0.23069 0.37475 -0.03878
 C663 C 0.25120 0.39548 -0.05406
 H664 H 0.24378 0.39412 -0.06876
 N665 N 0.25316 0.38586 -0.01858
 C666 C 0.22667 0.37488 0.04234
 H667 H 0.22531 0.35839 0.04167
 C668 C 0.21989 0.38530 0.05974
 H669 H 0.21325 0.37683 0.07254
 C670 C 0.23700 0.40608 0.02645
 H671 H 0.24355 0.41410 0.01338
 C672 C 0.23039 0.41712 0.04361
 H673 H 0.23194 0.43363 0.04378
 Zn674 Zn 0.24434 0.36926 0.00384
 N675 N 0.23529 0.38530 0.02627
 C676 C 0.27426 0.35393 0.03126
 N677 N 0.26697 0.35266 0.01184
 C678 C 0.27655 0.34077 -0.00246
 C679 C 0.29418 0.32947 0.00262
 C680 C 0.29176 0.34289 0.03696
 C681 C 0.20418 0.36348 -0.00819
 C682 C 0.18694 0.35296 -0.01453
 C683 C 0.20624 0.32121 -0.01168
 C684 C 0.22318 0.33235 -0.00536
 N685 N 0.22193 0.35315 -0.00406
 H686 H 0.26685 0.36386 0.04226
 H687 H 0.27068 0.34036 -0.01791
 H688 H 0.30189 0.32024 -0.00889
 H689 H 0.29759 0.34422 0.05238
 H690 H 0.20357 0.37999 -0.00679
 H691 H 0.17298 0.36137 -0.01810
 H692 H 0.20739 0.30470 -0.01301
 H693 H 0.23730 0.32440 -0.00165
 C694 C 0.22188 0.40658 0.06045
 C695 C 0.26859 0.40757 -0.05203
 C696 C 0.18802 0.33166 -0.01644
 C697 C 0.30187 0.33065 0.02251
 C698 C 0.77489 0.09294 1.02440
 H699 H 0.78260 0.09176 1.00967
 C700 C 0.78239 0.08200 1.04136
 H701 H 0.79586 0.07227 1.03970
 C702 C 0.74845 0.10774 1.04488
 H703 H 0.73559 0.11820 1.04638
 C704 C 0.75543 0.09709 1.06219
 H705 H 0.74777 0.09922 1.07686
 N706 N 0.75819 0.10550 1.02643
 C707 C 0.73334 0.11586 0.96525
 H708 H 0.73236 0.13242 0.96551
 C709 C 0.72650 0.10534 0.94821
 H710 H 0.72021 0.11380 0.93528
 C711 C 0.74259 0.08459 0.98187
 H712 H 0.74869 0.07659 0.99512
 C713 C 0.73588 0.07343 0.96507
 H714 H 0.73691 0.05684 0.96535
 Zn715 Zn 0.75002 0.12174 1.00357
 N716 N 0.74140 0.10544 0.98153
 C717 C 0.78063 0.13583 0.97584
 N718 N 0.77283 0.13764 0.99521
 C719 C 0.78173 0.14998 1.00915
 C720 C 0.79896 0.16147 1.00365
 C721 C 0.79779 0.14702 0.96974
 C722 C 0.70960 0.12903 1.01561
 C723 C 0.69224 0.14032 1.02142
 C724 C 0.71167 0.17141 1.01690
 C725 C 0.72872 0.15952 1.01115
 N726 N 0.72746 0.13870 1.01094
 H727 H 0.77376 0.12555 0.96514
 H728 H 0.77546 0.15083 1.02456
 H729 H 0.80596 0.17128 1.01480
 H730 H 0.80390 0.14547 0.95429
 H731 H 0.70897 0.11249 1.01503
 H732 H 0.67818 0.13246 1.02543
 H733 H 0.71282 0.18795 1.01733
 H734 H 0.74290 0.16694 1.00695
 C735 C 0.72784 0.08395 0.94807
 C736 C 0.77262 0.08422 1.06045
 C737 C 0.69332 0.16167 1.02220
 C738 C 0.80702 0.15996 0.98374
 C739 C 0.27448 0.59361 0.52463
 H740 H 0.28218 0.59248 0.50989
 C741 C 0.28202 0.58266 0.54157
 H742 H 0.29552 0.57296 0.53987
 C743 C 0.24803 0.60831 0.54517
 H744 H 0.23514 0.61872 0.54670
 C745 C 0.25505 0.59764 0.56245
 H746 H 0.24740 0.59971 0.57714
 N747 N 0.25775 0.60612 0.52671
 C748 C 0.23278 0.61642 0.46558
 H749 H 0.23174 0.63298 0.46584
 C750 C 0.22597 0.60587 0.44854
 H751 H 0.21964 0.61431 0.43561
 C752 C 0.24216 0.58518 0.48220
 H753 H 0.24829 0.57720 0.49543
 C754 C 0.23548 0.57399 0.46540
 H755 H 0.23658 0.55741 0.46567
 Zn756 Zn 0.24950 0.62235 0.50387
 N757 N 0.24089 0.60603 0.48186
 C758 C 0.28003 0.63651 0.47609
 N759 N 0.27226 0.63830 0.49547
 C760 C 0.28116 0.65067 0.50940
 C761 C 0.29836 0.66218 0.50387
 C762 C 0.29716 0.64772 0.46996
 C763 C 0.20908 0.62954 0.51599
 C764 C 0.19170 0.64078 0.52182
 C765 C 0.21105 0.67192 0.51727
 C766 C 0.22812 0.66007 0.51149
 N767 N 0.22691 0.63925 0.51128
 H768 H 0.27316 0.62621 0.46540
 H769 H 0.27490 0.65151 0.52482
 H770 H 0.30536 0.67201 0.51500
 H771 H 0.30324 0.64618 0.45450
 H772 H 0.20849 0.61299 0.51541
 H773 H 0.17767 0.63289 0.52585
 H774 H 0.21216 0.68847 0.51769
 H775 H 0.24228 0.66753 0.50727
 C776 C 0.22739 0.58449 0.44840
 C777 C 0.27227 0.58480 0.56067
 C778 C 0.19274 0.66214 0.52259
 C779 C 0.30639 0.66068 0.48394
 C780 C 0.77003 0.89895 0.48358
 H781 H 0.77753 0.89937 0.49828
 C782 C 0.77800 0.91007 0.46688
 H783 H 0.79162 0.91918 0.46873
 C784 C 0.74370 0.88583 0.46286
 H785 H 0.73069 0.87596 0.46114
 C786 C 0.75115 0.89670 0.44581
 H787 H 0.74372 0.89530 0.43113
 N788 N 0.75317 0.88713 0.48130
 C789 C 0.72669 0.87605 0.54221
 H790 H 0.72531 0.85956 0.54150
 C791 C 0.71994 0.88641 0.55966
 H792 H 0.71330 0.87791 0.57244
 C793 C 0.73706 0.90728 0.52642
 H794 H 0.74363 0.91533 0.51338
 C795 C 0.73048 0.91827 0.54363
 H796 H 0.73207 0.93478 0.54385
 Zn797 Zn 0.74440 0.87050 0.50372
 N798 N 0.73532 0.88650 0.52617
 C799 C 0.77431 0.85517 0.53114
 N800 N 0.76705 0.85393 0.51171
 C801 C 0.77666 0.84206 0.49741
 C802 C 0.79427 0.83074 0.50251
 C803 C 0.79179 0.84411 0.53686
 C804 C 0.70423 0.86464 0.49171
 C805 C 0.68704 0.85410 0.48529
 C806 C 0.70644 0.82239 0.48801
 C807 C 0.72333 0.83357 0.49442
 N808 N 0.72201 0.85435 0.49581
 H809 H 0.76687 0.86508 0.54215
 H810 H 0.77082 0.84167 0.48195
 H811 H 0.80199 0.82152 0.49100
 H812 H 0.79758 0.84541 0.55230
 H813 H 0.70357 0.88114 0.49317
 H814 H 0.67306 0.86248 0.48172
 H815 H 0.70765 0.80590 0.48660
 H816 H 0.73747 0.82564 0.49811
 C817 C 0.72196 0.90769 0.56043
 C818 C 0.76853 0.90880 0.44780
 C819 C 0.68820 0.83281 0.48327
 C820 C 0.80191 0.83188 0.52242
 C821 C -0.01628 0.26996 0.39861
 H822 H -0.00155 0.27740 0.39903
 C823 C -0.03292 0.27799 0.40974
 H824 H -0.03100 0.29159 0.41886
 C825 C -0.03712 0.24375 0.38547
 H826 H -0.03890 0.23077 0.37558
 C827 C -0.05411 0.25126 0.39635
 H828 H -0.06882 0.24389 0.39494
 N829 N -0.01865 0.25314 0.38677
 C830 C 0.04213 0.22655 0.37559
 H831 H 0.04140 0.22524 0.35909
 C832 C 0.05954 0.21969 0.38595
 H833 H 0.07229 0.21305 0.37742
 C834 C 0.02640 0.23681 0.40689
 H835 H 0.01340 0.24338 0.41497
 C836 C 0.04358 0.23013 0.41787
 H837 H 0.04382 0.23163 0.43440
 Zn838 Zn 0.00370 0.24434 0.37010
 N839 N 0.02613 0.23517 0.38608
 C840 C 0.03114 0.27424 0.35477
 N841 N 0.01171 0.26701 0.35354
 C842 C -0.00260 0.27667 0.34169
 C843 C 0.00250 0.29431 0.33040
 C844 C 0.03685 0.29175 0.34373
 C845 C -0.00845 0.20424 0.36418
 C846 C -0.01489 0.18709 0.35358
 C847 C -0.01207 0.20655 0.32188
 C848 C -0.00564 0.22340 0.33309
 N849 N -0.00429 0.22203 0.35390
 H850 H 0.04215 0.26676 0.36467
 H851 H -0.01805 0.27085 0.34131
 H852 H -0.00901 0.30207 0.32119
 H853 H 0.05229 0.29751 0.34502
 H854 H -0.00701 0.20354 0.38069
 H855 H -0.01849 0.17310 0.36194
 H856 H -0.01344 0.20780 0.30536
 H857 H -0.00190 0.23755 0.32519
 C858 C 0.06034 0.22161 0.40726
 C859 C -0.05203 0.26861 0.40847
 C860 C -0.01686 0.18829 0.33227
 C861 C 0.02240 0.30192 0.33153
 C862 C 1.02447 0.77470 0.09268
 H863 H 1.00973 0.78238 0.09153
 C864 C 1.04138 0.78227 0.08172
 H865 H 1.03966 0.79575 0.07199
 C866 C 1.04503 0.74830 0.10746
 H867 H 1.04659 0.73543 0.11792
 C868 C 1.06229 0.75535 0.09678
 H869 H 1.07698 0.74773 0.09890
 N870 N 1.02657 0.75799 0.10524
 C871 C 0.96553 0.73299 0.11575
 H872 H 0.96586 0.73199 0.13233
 C873 C 0.94848 0.72613 0.10527
 H874 H 0.93561 0.71980 0.11378
 C875 C 0.98201 0.74232 0.08440
 H876 H 0.99520 0.74847 0.07637
 C877 C 0.96519 0.73560 0.07328
 H878 H 0.96540 0.73665 0.05668
 Zn879 Zn 1.00379 0.74976 0.12154
 N880 N 0.98175 0.74110 0.10528
 C881 C 0.97607 0.78029 0.13569
 N882 N 0.99544 0.77253 0.13746
 C883 C 1.00939 0.78145 0.14980
 C884 C 1.00389 0.79866 0.16129
 C885 C 0.96996 0.79742 0.14688
 C886 C 1.01593 0.70936 0.12883
 C887 C 1.02177 0.69200 0.14011
 C888 C 1.01728 0.71139 0.17124
 C889 C 1.01150 0.72844 0.15935
 N890 N 1.01125 0.72720 0.13851
 H891 H 0.96536 0.77340 0.12541
 H892 H 1.02480 0.77520 0.15062
 H893 H 1.01504 0.80568 0.17109
 H894 H 0.95452 0.80350 0.14535
 H895 H 1.01532 0.70875 0.11226
 H896 H 1.02577 0.67795 0.13225
 H897 H 1.01773 0.71252 0.18780
 H898 H 1.00729 0.74260 0.16678
 C899 C 0.94826 0.72750 0.08386
 C900 C 1.06048 0.77256 0.08391
 C901 C 1.02257 0.69306 0.16149
 C902 C 0.98397 0.80667 0.15980
 C903 C 0.52464 0.27443 0.59287
 H904 H 0.50991 0.28212 0.59172
 C905 C 0.54156 0.28199 0.58190
 H906 H 0.53984 0.29547 0.57216
 C907 C 0.54520 0.24803 0.60766
 H908 H 0.54675 0.23516 0.61812
 C909 C 0.56246 0.25507 0.59697
 H910 H 0.57714 0.24744 0.59909
 N911 N 0.52674 0.25773 0.60544
 C912 C 0.46568 0.23276 0.61591
 H913 H 0.46598 0.23176 0.63249
 C914 C 0.44863 0.22591 0.60541
 H915 H 0.43574 0.21960 0.61390
 C916 C 0.48220 0.24207 0.58458
 H917 H 0.49541 0.24819 0.57656
 C918 C 0.46539 0.23535 0.57344
 H919 H 0.46563 0.23640 0.55684
 Zn920 Zn 0.50395 0.24951 0.62173
 N921 N 0.48192 0.24085 0.60546
 C922 C 0.47623 0.28006 0.63586
 N923 N 0.49560 0.27230 0.63763
 C924 C 0.50956 0.28122 0.64995
 C925 C 0.50407 0.29843 0.66144
 C926 C 0.47014 0.29720 0.64706
 C927 C 0.51609 0.20912 0.62908
 C928 C 0.52194 0.19178 0.64040
 C929 C 0.51742 0.21121 0.67149
 C930 C 0.51163 0.22824 0.65956
 N931 N 0.51139 0.22697 0.63873
 H932 H 0.46552 0.27316 0.62560
 H933 H 0.52497 0.27498 0.65077
 H934 H 0.51523 0.30545 0.67124
 H935 H 0.45469 0.30327 0.64554
 H936 H 0.51549 0.20848 0.61251
 H937 H 0.52596 0.17772 0.63256
 H938 H 0.51786 0.21237 0.68804
 H939 H 0.50741 0.24241 0.66697
 C940 C 0.44844 0.22728 0.58400
 C941 C 0.56065 0.27227 0.58409
 C942 C 0.52274 0.19287 0.66177
 C943 C 0.48415 0.30645 0.65997
 C944 C 0.48359 0.77030 0.89855
 H945 H 0.49832 0.77772 0.89900
 C946 C 0.46693 0.77835 0.90963
 H947 H 0.46883 0.79195 0.91874
 C948 C 0.46277 0.74407 0.88540
 H949 H 0.46100 0.73107 0.87552
 C950 C 0.44576 0.75161 0.89622
 H951 H 0.43105 0.74424 0.89479
 N952 N 0.48124 0.75345 0.88673
 C953 C 0.54201 0.72675 0.87579
 H954 H 0.54132 0.72540 0.85929
 C955 C 0.55938 0.71989 0.88621
 H956 H 0.57213 0.71321 0.87773
 C957 C 0.52622 0.73713 0.90702
 H958 H 0.51320 0.74374 0.91505
 C959 C 0.54336 0.73044 0.91807
 H960 H 0.54356 0.73199 0.93459
 Zn961 Zn 0.50363 0.74459 0.87015
 N962 N 0.52600 0.73543 0.88622
 C963 C 0.53116 0.77441 0.85486
 N964 N 0.51172 0.76721 0.85355
 C965 C 0.49748 0.77687 0.84163
 C966 C 0.50265 0.79449 0.83033
 C967 C 0.53694 0.79190 0.84382
 C968 C 0.49148 0.70449 0.86433
 C969 C 0.48507 0.68729 0.85378
 C970 C 0.48795 0.70664 0.82201
 C971 C 0.49435 0.72354 0.83318
 N972 N 0.49566 0.72223 0.85399
 H973 H 0.54212 0.76694 0.86482
 H974 H 0.48202 0.77107 0.84119
 H975 H 0.49119 0.80226 0.82107
 H976 H 0.55238 0.79765 0.84518
 H977 H 0.49289 0.70384 0.88085
 H978 H 0.48146 0.67334 0.86219
 H979 H 0.48662 0.70782 0.80548
 H980 H 0.49810 0.73765 0.82523
 C981 C 0.56013 0.72187 0.90751
 C982 C 0.44782 0.76897 0.90833
 C983 C 0.48315 0.68842 0.83246
 C984 C 0.52256 0.80208 0.83154
 C985 C 0.44165 -0.12342 0.28171
 C986 C 0.46183 -0.12488 0.29403
 C987 C 0.45069 -0.13783 0.31046
 C988 C 0.43066 -0.13667 0.29830
 C989 C 0.43559 -0.10408 0.29368
 C990 C 0.42449 -0.11706 0.31011
 C991 C 0.45562 -0.10523 0.30584
 C992 C 0.44462 -0.11848 0.32241
 C993 C 0.45874 -0.15655 0.32024
 C994 C 0.46506 -0.17180 0.32882
 C995 C 0.42669 -0.08540 0.28457
 C996 C 0.41883 -0.07023 0.27723
 H997 H 0.44034 -0.12523 0.26487
 H998 H 0.47727 -0.12832 0.28751
 H999 H 0.42049 -0.14979 0.29529
 H1000 H 0.40904 -0.11365 0.31665
 H1001 H 0.46578 -0.09210 0.30884
 H1002 H 0.44592 -0.11666 0.33925
 C1003 C 0.93351 0.39072 0.81749
 C1004 C 0.92710 0.36869 0.81205
 C1005 C 0.94983 0.36226 0.81127
 C1006 C 0.95637 0.38403 0.81685
 C1007 C 0.93483 0.39605 0.79449
 C1008 C 0.95757 0.38965 0.79368
 C1009 C 0.92830 0.37428 0.78891
 C1010 C 0.95117 0.36757 0.78826
 C1011 C 0.95783 0.34350 0.82103
 C1012 C 0.96412 0.32822 0.82957
 C1013 C 0.92598 0.41474 0.78536
 C1014 C 0.91814 0.42991 0.77799
 H1015 H 0.92618 0.40044 0.82943
 H1016 H 0.91465 0.35988 0.81970
 H1017 H 0.96801 0.38783 0.82844
 H1018 H 0.97000 0.39849 0.78603
 H1019 H 0.91665 0.37047 0.77732
 H1020 H 0.95850 0.35783 0.77634
 C1021 C 0.03422 1.11669 0.79919
 C1022 C 0.03829 1.12455 0.82109
 C1023 C 0.04163 1.14617 0.81211
 C1024 C 0.03742 1.13861 0.79034
 C1025 C 0.05729 1.11237 0.79648
 C1026 C 0.06064 1.13398 0.78749
 C1027 C 0.06148 1.11995 0.81824
 C1028 C 0.06470 1.14183 0.80939
 C1029 C 0.03306 1.16486 0.82122
 C1030 C 0.02607 1.18001 0.82922
 C1031 C 0.06637 1.09361 0.78799
 C1032 C 0.07428 1.07833 0.78113
 H1033 H 0.02179 1.10614 0.79492
 H1034 H 0.02900 1.12088 0.83501
 H1035 H 0.02745 1.14651 0.77897
 H1036 H 0.06994 1.13765 0.77357
 H1037 H 0.07146 1.11207 0.82963
 H1038 H 0.07714 1.15237 0.81366
 C1039 C 0.53919 0.61381 0.31031
 C1040 C 0.55109 0.62916 0.32348
 C1041 C 0.54185 0.64694 0.31079
 C1042 C 0.52981 0.63186 0.29775
 C1043 C 0.55737 0.61308 0.29514
 C1044 C 0.54815 0.63084 0.28242
 C1045 C 0.56940 0.62817 0.30818
 C1046 C 0.56004 0.64621 0.29561
 C1047 C 0.53336 0.66566 0.31991
 C1048 C 0.52645 0.68084 0.32792
 C1049 C 0.56639 0.59430 0.28663
 C1050 C 0.57425 0.57900 0.27976
 H1051 H 0.53071 0.60028 0.31627
 H1052 H 0.55222 0.62868 0.34046
 H1053 H 0.51343 0.63361 0.29355
 H1054 H 0.54703 0.63131 0.26544
 H1055 H 0.58577 0.62644 0.31240
 H1056 H 0.56853 0.65973 0.28966
 C1057 C 0.53965 0.39698 0.18863
 C1058 C 0.55240 0.38025 0.17746
 C1059 C 0.54103 0.36373 0.19000
 C1060 C 0.52812 0.38017 0.20105
 C1061 C 0.55596 0.39742 0.20542
 C1062 C 0.54460 0.38093 0.21800
 C1063 C 0.56881 0.38095 0.19436
 C1064 C 0.55734 0.36417 0.20679
 C1065 C 0.53325 0.34503 0.18077
 C1066 C 0.52733 0.32982 0.17249
 C1067 C 0.56502 0.41605 0.21354
 C1068 C 0.57326 0.43114 0.21981
 H1069 H 0.53247 0.41067 0.18125
 H1070 H 0.55555 0.37978 0.16070
 H1071 H 0.51130 0.37962 0.20371
 H1072 H 0.54147 0.38143 0.23477
 H1073 H 0.58564 0.38146 0.19168
 H1074 H 0.56453 0.35048 0.21416
 C1075 C 0.06038 0.87523 0.71463
 C1076 C 0.03724 0.87027 0.71328
 C1077 C 0.04071 0.86346 0.69101
 C1078 C 0.06369 0.86813 0.69224
 C1079 C 0.05579 0.89703 0.70658
 C1080 C 0.05922 0.89017 0.68432
 C1081 C 0.03279 0.89240 0.70537
 C1082 C 0.03612 0.88527 0.68296
 C1083 C 0.03286 0.84484 0.68171
 C1084 C 0.02688 0.82969 0.67336
 C1085 C 0.06490 0.91559 0.71477
 C1086 C 0.07320 0.93063 0.72109
 H1087 H 0.07045 0.87130 0.72775
 H1088 H 0.02812 0.86186 0.72508
 H1089 H 0.07632 0.85796 0.68676
 H1090 H 0.06834 0.89855 0.67249
 H1091 H 0.02019 0.90260 0.71085
 H1092 H 0.02606 0.88919 0.66983
 C1093 C 0.92360 0.63012 0.69199
 C1094 C 0.93516 0.64576 0.70513
 C1095 C 0.95199 0.64683 0.68847
 C1096 C 0.94056 0.63146 0.67523
 C1097 C 0.93569 0.61262 0.70245
 C1098 C 0.95252 0.61370 0.68580
 C1099 C 0.94711 0.62797 0.71573
 C1100 C 0.96410 0.62935 0.69893
 C1101 C 0.96084 0.66577 0.68014
 C1102 C 0.96801 0.68114 0.67268
 C1103 C 0.92616 0.59366 0.70989
 C1104 C 0.91778 0.57825 0.71572
 H1105 H 0.90684 0.63023 0.68919
 H1106 H 0.92811 0.65915 0.71298
 H1107 H 0.93794 0.63311 0.65848
 H1108 H 0.95956 0.60032 0.67793
 H1109 H 0.94972 0.62630 0.73247
 H1110 H 0.98086 0.62926 0.70171
 C1111 C 0.45830 0.11421 0.19321
 C1112 C 0.44988 0.12740 0.17519
 C1113 C 0.45273 0.14674 0.18803
 C1114 C 0.46130 0.13385 0.20594
 C1115 C 0.43640 0.11253 0.20197
 C1116 C 0.43925 0.13185 0.21483
 C1117 C 0.42786 0.12544 0.18407
 C1118 C 0.43084 0.14504 0.19679
 C1119 C 0.46160 0.16568 0.17972
 C1120 C 0.46878 0.18104 0.17226
 C1121 C 0.42686 0.09356 0.20938
 C1122 C 0.41846 0.07815 0.21520
 H1123 H 0.46948 0.10133 0.19182
 H1124 H 0.45433 0.12578 0.15879
 H1125 H 0.47515 0.13754 0.21485
 H1126 H 0.43478 0.13345 0.23122
 H1127 H 0.41402 0.12177 0.17513
 H1128 H 0.41965 0.15791 0.19818
 C1129 C 0.31085 0.42395 -0.11608
 C1130 C 0.29920 0.42932 -0.13603
 C1131 C 0.31053 0.44982 -0.13731
 C1132 C 0.32232 0.44457 -0.11762
 C1133 C 0.29376 0.43458 -0.10360
 C1134 C 0.30508 0.45508 -0.10486
 C1135 C 0.28195 0.43983 -0.12329
 C1136 C 0.29343 0.46048 -0.12486
 C1137 C 0.32030 0.45796 -0.15602
 C1138 C 0.32884 0.46435 -0.17126
 C1139 C 0.28464 0.42561 -0.08494
 C1140 C 0.27729 0.41770 -0.06979
 H1141 H 0.31794 0.40884 -0.11227
 H1142 H 0.29688 0.41882 -0.14904
 H1143 H 0.33903 0.44659 -0.11549
 H1144 H 0.30740 0.46558 -0.09184
 H1145 H 0.26524 0.43779 -0.12540
 H1146 H 0.28636 0.47559 -0.12869
 C1147 C 0.81588 0.93178 0.38922
 C1148 C 0.80838 0.92770 0.36722
 C1149 C 0.81022 0.95069 0.36221
 C1150 C 0.81786 0.95489 0.38396
 C1151 C 0.79356 0.93563 0.39606
 C1152 C 0.79538 0.95863 0.39109
 C1153 C 0.78592 0.93143 0.37432
 C1154 C 0.78789 0.95456 0.36903
 C1155 C 0.81993 0.95872 0.34342
 C1156 C 0.82844 0.96502 0.32812
 C1157 C 0.78451 0.92675 0.41480
 C1158 C 0.77719 0.91889 0.43000
 H1159 H 0.82731 0.92234 0.39773
 H1160 H 0.81381 0.91506 0.35721
 H1161 H 0.83111 0.96464 0.38771
 H1162 H 0.78995 0.97125 0.40112
 H1163 H 0.77268 0.92168 0.37056
 H1164 H 0.77648 0.96401 0.36050
 C1165 C 0.78997 0.03661 1.12221
 C1166 C 0.81297 0.03146 1.12548
 C1167 C 0.81170 0.04178 1.14653
 C1168 C 0.78884 0.04679 1.14357
 C1169 C 0.79608 0.05732 1.11261
 C1170 C 0.79481 0.06764 1.13367
 C1171 C 0.81893 0.05230 1.11559
 C1172 C 0.81779 0.06249 1.13691
 C1173 C 0.82081 0.03327 1.16528
 C1174 C 0.82882 0.02634 1.18048
 C1175 C 0.78760 0.06634 1.09379
 C1176 C 0.78075 0.07421 1.07846
 H1177 H 0.77845 0.02606 1.11594
 H1178 H 0.82054 0.01647 1.12233
 H1179 H 0.77657 0.04444 1.15529
 H1180 H 0.78726 0.08262 1.13682
 H1181 H 0.83122 0.05465 1.10389
 H1182 H 0.82931 0.07305 1.14316
 C1183 C 0.28746 0.56197 0.63444
 C1184 C 0.28934 0.53876 0.63956
 C1185 C 0.31144 0.54211 0.64658
 C1186 C 0.30969 0.56518 0.64174
 C1187 C 0.29580 0.55776 0.61272
 C1188 C 0.31789 0.56110 0.61976
 C1189 C 0.29753 0.53470 0.61754
 C1190 C 0.31977 0.53791 0.62486
 C1191 C 0.32056 0.53355 0.66530
 C1192 C 0.32857 0.52658 0.68048
 C1193 C 0.28729 0.56684 0.59393
 C1194 C 0.28042 0.57475 0.57864
 H1195 H 0.27407 0.57196 0.63817
 H1196 H 0.27769 0.52948 0.64793
 H1197 H 0.31477 0.57762 0.65190
 H1198 H 0.32955 0.57037 0.61141
 H1199 H 0.29245 0.52227 0.60737
 H1200 H 0.33316 0.52793 0.62112
 C1201 C 0.18918 0.56677 0.38430
 C1202 C 0.20157 0.56161 0.36461
 C1203 C 0.19040 0.54106 0.36357
 C1204 C 0.17789 0.54611 0.38302
 C1205 C 0.20588 0.55615 0.39719
 C1206 C 0.19471 0.53560 0.39618
 C1207 C 0.21842 0.55111 0.37775
 C1208 C 0.20710 0.53039 0.37642
 C1209 C 0.18114 0.53320 0.34492
 C1210 C 0.17283 0.52721 0.32974
 C1211 C 0.21402 0.56529 0.41578
 C1212 C 0.22031 0.57360 0.43083
 H1213 H 0.18187 0.58182 0.38773
 H1214 H 0.20430 0.57222 0.35143
 H1215 H 0.16111 0.54399 0.38499
 H1216 H 0.19198 0.52501 0.40937
 H1217 H 0.23520 0.55326 0.37581
 H1218 H 0.21438 0.51535 0.37295
 C1219 C 0.68972 0.06660 0.88382
 C1220 C 0.70210 0.06105 0.86423
 C1221 C 0.69051 0.04073 0.86328
 C1222 C 0.67800 0.04618 0.88263
 C1223 C 0.70613 0.05573 0.89688
 C1224 C 0.69454 0.03541 0.89595
 C1225 C 0.71867 0.05029 0.87754
 C1226 C 0.70692 0.02981 0.87630
 C1227 C 0.68116 0.03292 0.84465
 C1228 C 0.67278 0.02698 0.82949
 C1229 C 0.71435 0.06482 0.91546
 C1230 C 0.72069 0.07309 0.93050
 H1231 H 0.68271 0.08181 0.88711
 H1232 H 0.70512 0.07150 0.85099
 H1233 H 0.66117 0.04442 0.88452
 H1234 H 0.69151 0.02497 0.90920
 H1235 H 0.73549 0.05207 0.87568
 H1236 H 0.71390 0.01459 0.87297
 C1237 C 0.68395 0.92815 0.62560
 C1238 C 0.69655 0.93051 0.64540
 C1239 C 0.68842 0.95261 0.64725
 C1240 C 0.67571 0.95038 0.62772
 C1241 C 0.70222 0.93632 0.61297
 C1242 C 0.69410 0.95842 0.61481
 C1243 C 0.71495 0.93854 0.63250
 C1244 C 0.70669 0.96081 0.63465
 C1245 C 0.68018 0.96147 0.66622
 C1246 C 0.67278 0.96864 0.68161
 C1247 C 0.70956 0.92679 0.59397
 C1248 C 0.71532 0.91841 0.57853
 H1249 H 0.67466 0.91463 0.62167
 H1250 H 0.69748 0.91913 0.65817
 H1251 H 0.65948 0.95533 0.62596
 H1252 H 0.69316 0.96979 0.60203
 H1253 H 0.73118 0.93357 0.63424
 H1254 H 0.71596 0.97433 0.63861
 C1255 C 0.18651 0.45335 0.11371
 C1256 C 0.17454 0.44179 0.13085
 C1257 C 0.18803 0.45187 0.14695
 C1258 C 0.19989 0.46359 0.13010
 C1259 C 0.20195 0.43541 0.11280
 C1260 C 0.21548 0.44549 0.12888
 C1261 C 0.19008 0.42373 0.12968
 C1262 C 0.20347 0.43394 0.14605
 C1263 C 0.17973 0.46082 0.16586
 C1264 C 0.17229 0.46806 0.18119
 C1265 C 0.20936 0.42580 0.09388
 C1266 C 0.21517 0.41736 0.07849
 H1267 H 0.17962 0.46123 0.10022
 H1268 H 0.15761 0.44035 0.13187
 H1269 H 0.20385 0.48008 0.13050
 H1270 H 0.23240 0.44691 0.12784
 H1271 H 0.18611 0.40724 0.12930
 H1272 H 0.21035 0.42606 0.15955
 C1273 C -0.10609 0.30142 0.45740
 C1274 C -0.11639 0.32134 0.44910
 C1275 C -0.13730 0.31074 0.45029
 C1276 C -0.12731 0.29098 0.45873
 C1277 C -0.10358 0.29390 0.43526
 C1278 C -0.12448 0.28330 0.43644
 C1279 C -0.11360 0.31367 0.42685
 C1280 C -0.13476 0.30322 0.42815
 C1281 C -0.15603 0.32054 0.45830
 C1282 C -0.17128 0.32910 0.46459
 C1283 C -0.08492 0.28475 0.42640
 C1284 C -0.06977 0.27735 0.41855
 H1285 H -0.09409 0.30059 0.46933
 H1286 H -0.11327 0.33709 0.45439
 H1287 H -0.13318 0.28174 0.47192
 H1288 H -0.12760 0.26755 0.43114
 H1289 H -0.10776 0.32292 0.41366
 H1290 H -0.14675 0.30404 0.41621
 C1291 C 0.39509 0.81548 0.94498
 C1292 C 0.37552 0.82040 0.93254
 C1293 C 0.36247 0.81109 0.95001
 C1294 C 0.38177 0.80630 0.96259
 C1295 C 0.39622 0.79427 0.93503
 C1296 C 0.38320 0.78492 0.95251
 C1297 C 0.37692 0.79906 0.92248
 C1298 C 0.36360 0.78988 0.94007
 C1299 C 0.34373 0.82088 0.95800
 C1300 C 0.32847 0.82944 0.96428
 C1301 C 0.41490 0.78511 0.92620
 C1302 C 0.43006 0.77772 0.91837
 H1303 H 0.40823 0.82591 0.94690
 H1304 H 0.37216 0.83509 0.92440
 H1305 H 0.38354 0.80938 0.97918
 H1306 H 0.38658 0.77023 0.96063
 H1307 H 0.37512 0.79600 0.90589
 H1308 H 0.35045 0.77946 0.93814
 C1309 C 1.11317 0.81504 0.04260
 C1310 C 1.13101 0.82361 0.05527
 C1311 C 1.14634 0.81197 0.04149
 C1312 C 1.12878 0.80354 0.02867
 C1313 C 1.11250 0.79624 0.05701
 C1314 C 1.12781 0.78457 0.04323
 C1315 C 1.13007 0.80468 0.06981
 C1316 C 1.14567 0.79317 0.05590
 C1317 C 1.16506 0.82115 0.03299
 C1318 C 1.18023 0.82918 0.02607
 C1319 C 1.09372 0.78768 0.06602
 C1320 C 1.07844 0.78076 0.07389
 H1321 H 1.09961 0.82395 0.03723
 H1322 H 1.13253 0.83976 0.06015
 H1323 H 1.12848 0.80315 0.01165
 H1324 H 1.12627 0.76843 0.03836
 H1325 H 1.13039 0.80507 0.08682
 H1326 H 1.15924 0.78427 0.06127
 C1327 C 0.62618 0.31134 0.56818
 C1328 C 0.64543 0.29886 0.56156
 C1329 C 0.64651 0.31163 0.54161
 C1330 C 0.62753 0.32424 0.54812
 C1331 C 0.61267 0.29591 0.55715
 C1332 C 0.61374 0.30868 0.53721
 C1333 C 0.63164 0.28328 0.55066
 C1334 C 0.63302 0.29620 0.53056
 C1335 C 0.66523 0.32080 0.53312
 C1336 C 0.68041 0.32883 0.52620
 C1337 C 0.59389 0.28736 0.56618
 C1338 C 0.57861 0.28045 0.57406
 H1339 H 0.62316 0.31750 0.58375
 H1340 H 0.65866 0.29492 0.57148
 H1341 H 0.62604 0.34118 0.54700
 H1342 H 0.60051 0.31263 0.52730
 H1343 H 0.63312 0.26634 0.55179
 H1344 H 0.63606 0.29006 0.51500
 C1345 C 0.37658 0.21711 0.55438
 C1346 C 0.37423 0.20925 0.53218
 C1347 C 0.36361 0.19003 0.54083
 C1348 C 0.36567 0.19775 0.56287
 C1349 C 0.39722 0.20561 0.55582
 C1350 C 0.38656 0.18640 0.56442
 C1351 C 0.39520 0.19790 0.53377
 C1352 C 0.38427 0.17856 0.54227
 C1353 C 0.34496 0.18073 0.53303
 C1354 C 0.32979 0.17238 0.52708
 C1355 C 0.41581 0.21381 0.56489
 C1356 C 0.43086 0.22014 0.57316
 H1357 H 0.37363 0.23306 0.55946
 H1358 H 0.36892 0.21854 0.51884
 H1359 H 0.35333 0.19761 0.57475
 H1360 H 0.39182 0.17708 0.57776
 H1361 H 0.40756 0.19804 0.52191
 H1362 H 0.38723 0.16260 0.53722
 C1363 C 0.87808 0.71845 0.04936
 C1364 C 0.87692 0.70571 0.02948
 C1365 C 0.86334 0.69015 0.04097
 C1366 C 0.86419 0.70274 0.06070
 C1367 C 0.89699 0.70577 0.05582
 C1368 C 0.88337 0.69022 0.06726
 C1369 C 0.89616 0.69318 0.03609
 C1370 C 0.88227 0.67751 0.04744
 C1371 C 0.84466 0.68083 0.03325
 C1372 C 0.82947 0.67248 0.02738
 C1373 C 0.91560 0.71399 0.06483
 C1374 C 0.93067 0.72034 0.07305
 H1375 H 0.87658 0.73538 0.05024
 H1376 H 0.87403 0.71198 0.01385
 H1377 H 0.85086 0.70658 0.07073
 H1378 H 0.88622 0.68391 0.08289
 H1379 H 0.90950 0.68935 0.02607
 H1380 H 0.88379 0.66058 0.04658
 C1381 C 0.63195 0.69613 0.92400
 C1382 C 0.64491 0.70761 0.93986
 C1383 C 0.64662 0.68771 0.95262
 C1384 C 0.63394 0.67613 0.93689
 C1385 C 0.61246 0.70175 0.93627
 C1386 C 0.61419 0.68185 0.94902
 C1387 C 0.62512 0.71336 0.95200
 C1388 C 0.62714 0.69332 0.96491
 C1389 C 0.66553 0.67936 0.96151
 C1390 C 0.68087 0.67188 0.96870
 C1391 C 0.59353 0.70922 0.92671
 C1392 C 0.57815 0.71509 0.91829
 H1393 H 0.63372 0.69736 0.90707
 H1394 H 0.65776 0.71810 0.93619
 H1395 H 0.63777 0.66074 0.93075
 H1396 H 0.60135 0.67134 0.95270
 H1397 H 0.62126 0.72875 0.95812
 H1398 H 0.62539 0.69208 0.98184
 C1399 C 0.11384 0.18454 0.45240
 C1400 C 0.13177 0.17437 0.44036
 C1401 C 0.14695 0.18749 0.45217
 C1402 C 0.12930 0.19755 0.46437
 C1403 C 0.11276 0.20151 0.43588
 C1404 C 0.12792 0.21466 0.44769
 C1405 C 0.13042 0.19145 0.42370
 C1406 C 0.14588 0.20446 0.43565
 C1407 C 0.16588 0.17915 0.46104
 C1408 C 0.18123 0.17168 0.46821
 C1409 C 0.09380 0.20897 0.42636
 C1410 C 0.07840 0.21484 0.41798
 H1411 H 0.10046 0.17643 0.45919
 H1412 H 0.13356 0.15772 0.43742
 H1413 H 0.12907 0.19998 0.48120
 H1414 H 0.12610 0.23131 0.45061
 H1415 H 0.13068 0.18900 0.40688
 H1416 H 0.15926 0.21256 0.42885
 C1417 C 0.55259 0.14168 0.71515
 C1418 C 0.54093 0.12147 0.71950
 C1419 C 0.55953 0.10934 0.71125
 C1420 C 0.57132 0.12924 0.70707
 C1421 C 0.54390 0.14222 0.69334
 C1422 C 0.56250 0.13005 0.68515
 C1423 C 0.53208 0.12233 0.69751
 C1424 C 0.55083 0.10990 0.68945
 C1425 C 0.56887 0.09104 0.72064
 C1426 C 0.57722 0.07606 0.72780
 C1427 C 0.53575 0.16045 0.68278
 C1428 C 0.52956 0.17532 0.67351
 H1429 H 0.55322 0.15497 0.72559
 H1430 H 0.53217 0.11771 0.73374
 H1431 H 0.58755 0.13189 0.71111
 H1432 H 0.57129 0.13377 0.67092
 H1433 H 0.51585 0.11971 0.69345
 H1434 H 0.55020 0.09664 0.67898
 C1435 C 1.04340 0.62072 0.18374
 C1436 C 1.06615 0.61780 0.18969
 C1437 C 1.05922 0.60931 0.21072
 C1438 C 1.03657 0.61196 0.20492
 C1439 C 1.04365 0.64229 0.19292
 C1440 C 1.03668 0.63384 0.21395
 C1441 C 1.06629 0.63960 0.19873
 C1442 C 1.05948 0.63087 0.21992
 C1443 C 1.06852 0.59096 0.22004
 C1444 C 1.07683 0.57594 0.22715
 C1445 C 1.03554 0.66056 0.18242
 C1446 C 1.02938 0.67547 0.17319
 H1447 H 1.03670 0.61675 0.16875
 H1448 H 1.07836 0.61101 0.17980
 H1449 H 1.02446 0.60037 0.20758
 H1450 H 1.02446 0.64067 0.22381
 H1451 H 1.07842 0.65116 0.19608
 H1452 H 1.06620 0.63482 0.23491
 C1453 C 0.95898 0.85923 0.21363
 C1454 C 0.96834 0.88100 0.21331
 C1455 C 0.94713 0.89003 0.20818
 C1456 C 0.93764 0.86858 0.20866
 C1457 C 0.96350 0.85762 0.19051
 C1458 C 0.94229 0.86670 0.18543
 C1459 C 0.97301 0.87905 0.19001
 C1460 C 0.95165 0.88838 0.18507
 C1461 C 0.93721 0.90794 0.21750
 C1462 C 0.92826 0.92250 0.22464
 C1463 C 0.97179 0.83949 0.18015
 C1464 C 0.97777 0.82453 0.17112
 H1465 H 0.96210 0.84704 0.22525
 H1466 H 0.97894 0.88710 0.22490
 H1467 H 0.92299 0.86446 0.21643
 H1468 H 0.93166 0.86065 0.17386
 H1469 H 0.98766 0.88314 0.18222
 H1470 H 0.94854 0.90056 0.17343
 C1471 C 0.46968 0.36497 0.71207
 C1472 C 0.47034 0.38720 0.70333
 C1473 C 0.44742 0.38974 0.70855
 C1474 C 0.44661 0.36784 0.71745
 C1475 C 0.46373 0.35736 0.69076
 C1476 C 0.44083 0.35996 0.69600
 C1477 C 0.46454 0.37927 0.68186
 C1478 C 0.44152 0.38209 0.68725
 C1479 C 0.43753 0.40764 0.71793
 C1480 C 0.42861 0.42218 0.72512
 C1481 C 0.47199 0.33925 0.68035
 C1482 C 0.47797 0.32430 0.67131
 H1483 H 0.48137 0.35771 0.72215
 H1484 H 0.48235 0.39862 0.70646
 H1485 H 0.43912 0.36335 0.73220
 H1486 H 0.42878 0.34857 0.69289
 H1487 H 0.47201 0.38376 0.66711
 H1488 H 0.42984 0.38930 0.67713
 C1489 C 0.44813 0.63715 0.78425
 C1490 C 0.46000 0.61725 0.77845
 C1491 C 0.44349 0.60462 0.78969
 C1492 C 0.43149 0.62420 0.79534
 C1493 C 0.46011 0.63783 0.80437
 C1494 C 0.44361 0.62516 0.81556
 C1495 C 0.47214 0.61826 0.79874
 C1496 C 0.45548 0.60534 0.80981
 C1497 C 0.43374 0.58605 0.78232
 C1498 C 0.42521 0.57074 0.77704
 C1499 C 0.46889 0.65615 0.81339
 C1500 C 0.47563 0.67101 0.82165
 H1501 H 0.44522 0.65044 0.77384
 H1502 H 0.46662 0.61377 0.76310
 H1503 H 0.41467 0.62644 0.79387
 H1504 H 0.43695 0.62859 0.83091
 H1505 H 0.48896 0.61604 0.80023
 H1506 H 0.45840 0.59207 0.82025
 C1507 C -0.05177 0.13728 0.28370
 C1508 C -0.04000 0.11727 0.27808
 C1509 C -0.05675 0.10480 0.28913
 C1510 C -0.06865 0.12449 0.29460
 C1511 C -0.04003 0.13789 0.30398
 C1512 C -0.05678 0.12537 0.31497
 C1513 C -0.02811 0.11821 0.29852
 C1514 C -0.04501 0.10545 0.30940
 C1515 C -0.06656 0.08630 0.28168
 C1516 C -0.07514 0.07103 0.27635
 C1517 C -0.03120 0.15614 0.31308
 C1518 C -0.02442 0.17094 0.32141
 H1519 H -0.05444 0.15058 0.27324
 H1520 H -0.03322 0.11371 0.26282
 H1521 H -0.08543 0.12688 0.29292
 H1522 H -0.06360 0.12889 0.33024
 H1523 H -0.01133 0.11584 0.30023
 H1524 H -0.04233 0.09217 0.31989
 C1525 C 0.02861 0.37288 0.29413
 C1526 C 0.04004 0.38878 0.30712
 C1527 C 0.05662 0.39025 0.29024
 C1528 C 0.04536 0.37467 0.27709
 C1529 C 0.04126 0.35568 0.30441
 C1530 C 0.05785 0.35714 0.28753
 C1531 C 0.05253 0.37130 0.31749
 C1532 C 0.06921 0.37301 0.30053
 C1533 C 0.06596 0.40940 0.28313
 C1534 C 0.07440 0.42503 0.27805
 C1535 C 0.03353 0.33642 0.31312
 C1536 C 0.02801 0.32063 0.32109
 H1537 H 0.01182 0.37258 0.29159
 H1538 H 0.03282 0.40201 0.31509
 H1539 H 0.04252 0.37630 0.26039
 H1540 H 0.06508 0.34391 0.27957
 H1541 H 0.05541 0.36972 0.33420
 H1542 H 0.08600 0.37325 0.30310
 C1543 C 0.52997 0.87137 0.79098
 C1544 C 0.53802 0.88893 0.80443
 C1545 C 0.55710 0.89037 0.79047
 C1546 C 0.54924 0.87315 0.77687
 C1547 C 0.54162 0.85582 0.80453
 C1548 C 0.56070 0.85727 0.79057
 C1549 C 0.54950 0.87307 0.81808
 C1550 C 0.56868 0.87477 0.80402
 C1551 C 0.56650 0.90952 0.78343
 C1552 C 0.57498 0.92514 0.77840
 C1553 C 0.53381 0.83657 0.81319
 C1554 C 0.52822 0.82078 0.82113
 H1555 H 0.51396 0.86973 0.78572
 H1556 H 0.52879 0.90217 0.81005
 H1557 H 0.54924 0.87342 0.75984
 H1558 H 0.56995 0.84404 0.78496
 H1559 H 0.54953 0.87285 0.83511
 H1560 H 0.58469 0.87635 0.80933
 C1561 C 0.71632 0.54310 0.13693
 C1562 C 0.71175 0.53699 0.11452
 C1563 C 0.71097 0.55981 0.10844
 C1564 C 0.71571 0.56606 0.13052
 C1565 C 0.69316 0.54417 0.14140
 C1566 C 0.69241 0.56698 0.13527
 C1567 C 0.68842 0.53792 0.11932
 C1568 C 0.68781 0.56086 0.11295
 C1569 C 0.72031 0.56917 0.09011
 C1570 C 0.72741 0.57754 0.07509
 C1571 C 0.68265 0.53603 0.15967
 C1572 C 0.67341 0.52985 0.17458
 H1573 H 0.72792 0.53570 0.14702
 H1574 H 0.71982 0.52477 0.10577
 H1575 H 0.72704 0.57774 0.13491
 H1576 H 0.68435 0.57923 0.14398
 H1577 H 0.67708 0.52626 0.11492
 H1578 H 0.67619 0.56826 0.10290
 C1579 C 0.19419 1.06626 0.63744
 C1580 C 0.21713 1.06352 0.63164
 C1581 C 0.21093 1.05873 0.60956
 C1582 C 0.18813 1.06160 0.61512
 C1583 C 0.19314 1.04325 0.64260
 C1584 C 0.18695 1.03846 0.62052
 C1585 C 0.21595 1.04035 0.63709
 C1586 C 0.20992 1.03571 0.61468
 C1587 C 0.22026 1.06799 0.59118
 C1588 C 0.22737 1.07628 0.57612
 C1589 C 0.18265 1.03518 0.66092
 C1590 C 0.17342 1.02906 0.67586
 H1591 H 0.18761 1.07873 0.64699
 H1592 H 0.22966 1.07392 0.63601
 H1593 H 0.17679 1.07042 0.60590
 H1594 H 0.17442 1.02807 0.61615
 H1595 H 0.22726 1.03152 0.64635
 H1596 H 0.21650 1.02326 0.60509
 C1597 C 0.20367 0.94331 0.85808
 C1598 C 0.22031 0.95375 0.87096
 C1599 C 0.20889 0.94699 0.89061
 C1600 C 0.19242 0.93643 0.87798
 C1601 C 0.19109 0.96337 0.85822
 C1602 C 0.17971 0.95659 0.87789
 C1603 C 0.20757 0.97398 0.87081
 C1604 C 0.19632 0.96705 0.89079
 C1605 C 0.21827 0.93704 0.90850
 C1606 C 0.22545 0.92804 0.92305
 C1607 C 0.18067 0.97166 0.84010
 C1608 C 0.17160 0.97766 0.82514
 H1609 H 0.20659 0.93363 0.84444
 H1610 H 0.23712 0.95247 0.86832
 H1611 H 0.18628 0.92088 0.88110
 H1612 H 0.16290 0.95785 0.88055
 H1613 H 0.21367 0.98953 0.86764
 H1614 H 0.19341 0.97669 0.90445
 C1615 C 0.68400 0.46790 0.37921
 C1616 C 0.68616 0.44463 0.38371
 C1617 C 0.70870 0.44779 0.38937
 C1618 C 0.70671 0.47095 0.38515
 C1619 C 0.69092 0.46412 0.35694
 C1620 C 0.71346 0.46732 0.36255
 C1621 C 0.69294 0.44098 0.36123
 C1622 C 0.71560 0.44401 0.36711
 C1623 C 0.71807 0.43789 0.40730
 C1624 C 0.72525 0.42895 0.42187
 C1625 C 0.68052 0.47239 0.33880
 C1626 C 0.67146 0.47837 0.32383
 H1627 H 0.67090 0.47782 0.38398
 H1628 H 0.67503 0.43519 0.39260
 H1629 H 0.71250 0.48315 0.39521
 H1630 H 0.72456 0.47676 0.35363
 H1631 H 0.68717 0.42873 0.35121
 H1632 H 0.72870 0.43408 0.36233
 C1633 C 0.81462 0.46121 0.61667
 C1634 C 0.81039 0.43812 0.61403
 C1635 C 0.78952 0.44367 0.60466
 C1636 C 0.79362 0.46665 0.60703
 C1637 C 0.80421 0.46021 0.63792
 C1638 C 0.78332 0.46581 0.62860
 C1639 C 0.80009 0.43723 0.63552
 C1640 C 0.77908 0.44265 0.62590
 C1641 C 0.78216 0.43394 0.58605
 C1642 C 0.77689 0.42544 0.57072
 C1643 C 0.81321 0.46895 0.65628
 C1644 C 0.82146 0.47567 0.67117
 H1645 H 0.82933 0.46893 0.61307
 H1646 H 0.82146 0.42663 0.60785
 H1647 H 0.79087 0.47863 0.59510
 H1648 H 0.77229 0.47731 0.63483
 H1649 H 0.80285 0.42523 0.64743
 H1650 H 0.76437 0.43491 0.62947
 C1651 C 0.29160 -0.05911 0.13731
 C1652 C 0.27648 -0.04837 0.12234
 C1653 C 0.28963 -0.05599 0.10420
 C1654 C 0.30460 -0.06686 0.11889
 C1655 C 0.30445 -0.03953 0.13746
 C1656 C 0.31755 -0.04717 0.11929
 C1657 C 0.28949 -0.02861 0.12280
 C1658 C 0.30249 -0.03641 0.10435
 C1659 C 0.28219 -0.06567 0.08561
 C1660 C 0.27687 -0.07416 0.07028
 C1661 C 0.31354 -0.03085 0.15580
 C1662 C 0.32185 -0.02418 0.17068
 H1663 H 0.28723 -0.06835 0.15107
 H1664 H 0.25950 -0.04897 0.12336
 H1665 H 0.31074 -0.08268 0.11709
 H1666 H 0.33453 -0.04659 0.11822
 H1667 H 0.28338 -0.01278 0.12464
 H1668 H 0.30688 -0.02718 0.09060
 C1669 C 0.31429 0.03693 0.37686
 C1670 C 0.31191 0.06006 0.38138
 C1671 C 0.29039 0.05608 0.39028
 C1672 C 0.29263 0.03304 0.38605
 C1673 C 0.30464 0.04073 0.35574
 C1674 C 0.28310 0.03670 0.36457
 C1675 C 0.30238 0.06376 0.36003
 C1676 C 0.28073 0.05989 0.36916
 C1677 C 0.28325 0.06541 0.40943
 C1678 C 0.27816 0.07384 0.42505
 C1679 C 0.31339 0.03302 0.33649
 C1680 C 0.32139 0.02752 0.32071
 H1681 H 0.32818 0.02740 0.37982
 H1682 H 0.32370 0.06976 0.38847
 H1683 H 0.28852 0.02051 0.39698
 H1684 H 0.27136 0.02699 0.35743
 H1685 H 0.30648 0.07632 0.34913
 H1686 H 0.26685 0.06944 0.36621
 C1687 C 0.78882 0.52979 0.87079
 C1688 C 0.80212 0.53599 0.88924
 C1689 C 0.78974 0.55610 0.89083
 C1690 C 0.77630 0.55008 0.87273
 C1691 C 0.80394 0.54079 0.85626
 C1692 C 0.79156 0.56090 0.85787
 C1693 C 0.81733 0.54683 0.87439
 C1694 C 0.80486 0.56703 0.87625
 C1695 C 0.78264 0.56543 0.91000
 C1696 C 0.77757 0.57386 0.92563
 C1697 C 0.81266 0.53308 0.83700
 C1698 C 0.82066 0.52760 0.82121
 H1699 H 0.78232 0.51438 0.86830
 H1700 H 0.80637 0.52585 0.90236
 H1701 H 0.75933 0.55152 0.87228
 H1702 H 0.78731 0.57106 0.84477
 H1703 H 0.83430 0.54542 0.87489
 H1704 H 0.81140 0.58244 0.87868
 C1705 C 0.13991 0.71649 0.54799
 C1706 C 0.11833 0.71653 0.53824
 C1707 C 0.10898 0.71116 0.55935
 C1708 C 0.13025 0.71129 0.56924
 C1709 C 0.14195 0.69345 0.54373
 C1710 C 0.13256 0.68812 0.56483
 C1711 C 0.12070 0.69331 0.53382
 C1712 C 0.11107 0.68812 0.55507
 C1713 C 0.09064 0.72045 0.56869
 C1714 C 0.07563 0.72751 0.57703
 C1715 C 0.16023 0.68299 0.53559
 C1716 C 0.17514 0.67379 0.52941
 H1717 H 0.15199 0.72803 0.54499
 H1718 H 0.11224 0.72832 0.52741
 H1719 H 0.13397 0.71879 0.58391
 H1720 H 0.13861 0.67634 0.57569
 H1721 H 0.11698 0.68579 0.51916
 H1722 H 0.09901 0.67656 0.55807
 C1723 C 0.64147 0.20300 1.06451
 C1724 C 0.63011 0.22171 1.05491
 C1725 C 0.60962 0.21087 1.05884
 C1726 C 0.62073 0.19233 1.06856
 C1727 C 0.64258 0.19309 1.04327
 C1728 C 0.62208 0.18228 1.04721
 C1729 C 0.63152 0.21164 1.03349
 C1730 C 0.61071 0.20097 1.03759
 C1731 C 0.59129 0.22019 1.06816
 C1732 C 0.57628 0.22729 1.07649
 C1733 C 0.66085 0.18259 1.03515
 C1734 C 0.67574 0.17336 1.02899
 H1735 H 0.65432 0.20372 1.07549
 H1736 H 0.63319 0.23804 1.05818
 H1737 H 0.61610 0.18447 1.08308
 H1738 H 0.61897 0.16595 1.04396
 H1739 H 0.63618 0.21945 1.01898
 H1740 H 0.59784 0.20025 1.02663
 C1741 C 0.87992 0.18803 0.97129
 C1742 C 0.88769 0.18512 0.94895
 C1743 C 0.89041 0.20842 0.94687
 C1744 C 0.88294 0.21151 0.96908
 C1745 C 0.85799 0.19069 0.96325
 C1746 C 0.86068 0.21400 0.96119
 C1747 C 0.86552 0.18764 0.94106
 C1748 C 0.86847 0.21106 0.93886
 C1749 C 0.90831 0.21777 0.93694
 C1750 C 0.92286 0.22494 0.92796
 C1751 C 0.83986 0.18031 0.97155
 C1752 C 0.82489 0.17128 0.97754
 H1753 H 0.88442 0.17844 0.98473
 H1754 H 0.89898 0.17334 0.94382
 H1755 H 0.89032 0.22145 0.98048
 H1756 H 0.84936 0.22575 0.96633
 H1757 H 0.85818 0.17772 0.92962
 H1758 H 0.86395 0.22063 0.92541
 C1759 C 0.37331 0.68053 0.44975
 C1760 C 0.37273 0.69904 0.43470
 C1761 C 0.38974 0.70914 0.44701
 C1762 C 0.39058 0.69075 0.46195
 C1763 C 0.35732 0.69143 0.46339
 C1764 C 0.37430 0.70152 0.47576
 C1765 C 0.35650 0.70982 0.44845
 C1766 C 0.37378 0.72009 0.46064
 C1767 C 0.40765 0.71848 0.43707
 C1768 C 0.42222 0.72563 0.42811
 C1769 C 0.33919 0.68106 0.47170
 C1770 C 0.32424 0.67202 0.47772
 H1771 H 0.37294 0.66416 0.44536
 H1772 H 0.37226 0.69811 0.41772
 H1773 H 0.40479 0.68302 0.46739
 H1774 H 0.37472 0.70241 0.49274
 H1775 H 0.34229 0.71755 0.44299
 H1776 H 0.37419 0.73647 0.46500
 C1777 C 0.61875 0.81760 0.45417
 C1778 C 0.61820 0.80653 0.43335
 C1779 C 0.60459 0.78998 0.44323
 C1780 C 0.60488 0.80095 0.46394
 C1781 C 0.63771 0.80470 0.46001
 C1782 C 0.62413 0.78815 0.46994
 C1783 C 0.63741 0.79374 0.43930
 C1784 C 0.62352 0.77703 0.44905
 C1785 C 0.58607 0.78259 0.43338
 C1786 C 0.57080 0.77731 0.42477
 C1787 C 0.65598 0.81374 0.46888
 C1788 C 0.67081 0.82200 0.47569
 H1789 H 0.61697 0.83438 0.45636
 H1790 H 0.61558 0.81403 0.41820
 H1791 H 0.59130 0.80383 0.47396
 H1792 H 0.62679 0.78069 0.48510
 H1793 H 0.65099 0.79087 0.42926
 H1794 H 0.62525 0.76026 0.44683
 C1795 C 0.13399 0.28082 -0.04373
 C1796 C 0.11201 0.28263 -0.03446
 C1797 C 0.10401 0.28890 -0.05574
 C1798 C 0.12564 0.28694 -0.06515
 C1799 C 0.13729 0.30360 -0.03924
 C1800 C 0.12923 0.30982 -0.06051
 C1801 C 0.11566 0.30555 -0.02983
 C1802 C 0.10737 0.31166 -0.05123
 C1803 C 0.08540 0.28153 -0.06543
 C1804 C 0.07006 0.27626 -0.07393
 C1805 C 0.15566 0.31261 -0.03055
 C1806 C 0.17055 0.32087 -0.02387
 H1807 H 0.14515 0.26824 -0.04053
 H1808 H 0.10471 0.27136 -0.02386
 H1809 H 0.12954 0.27921 -0.07978
 H1810 H 0.13650 0.32109 -0.07114
 H1811 H 0.11176 0.31330 -0.01520
 H1812 H 0.09624 0.32427 -0.05442
 C1813 C 0.37531 0.29966 0.02861
 C1814 C 0.38787 0.31033 0.04536
 C1815 C 0.39032 0.28963 0.05661
 C1816 C 0.37808 0.27879 0.04001
 C1817 C 0.35569 0.30366 0.04129
 C1818 C 0.35811 0.28294 0.05254
 C1819 C 0.36799 0.31443 0.05788
 C1820 C 0.37068 0.29364 0.06924
 C1821 C 0.40952 0.28260 0.06592
 C1822 C 0.42519 0.27760 0.07433
 C1823 C 0.33640 0.31230 0.03358
 C1824 C 0.32059 0.32024 0.02808
 H1825 H 0.37698 0.30223 0.01181
 H1826 H 0.40031 0.32152 0.04251
 H1827 H 0.38248 0.26404 0.03277
 H1828 H 0.34566 0.27178 0.05539
 H1829 H 0.36365 0.32917 0.06517
 H1830 H 0.36897 0.29110 0.08605
 C1831 C 0.85941 0.80139 0.56440
 C1832 C 0.86910 0.78015 0.55972
 C1833 C 0.89004 0.79041 0.55684
 C1834 C 0.88059 0.81152 0.56164
 C1835 C 0.85556 0.80466 0.54137
 C1836 C 0.87651 0.81490 0.53850
 C1837 C 0.86494 0.78353 0.53652
 C1838 C 0.88624 0.79366 0.53380
 C1839 C 0.90916 0.78327 0.56624
 C1840 C 0.92475 0.77817 0.57472
 C1841 C 0.83635 0.81340 0.53358
 C1842 C 0.82059 0.82141 0.52803
 H1843 H 0.84819 0.80465 0.57690
 H1844 H 0.86627 0.76577 0.56855
 H1845 H 0.88721 0.82296 0.57206
 H1846 H 0.87935 0.82929 0.52969
 H1847 H 0.85827 0.77213 0.52610
 H1848 H 0.89751 0.79039 0.52133
   
