data_POSCAR
  _audit_creation_date              2014-09-24
  _audit_creation_method            'ToBaCCo'
  _symmetry_space_group_name_H-M    'P1'
  _symmetry_Int_Tables_number       1
  _symmetry_cell_setting            triclinic
  loop_
  _symmetry_equiv_pos_as_xyz
 x,y,z
_cell_length_a 39.1357
_cell_length_b 39.6565
_cell_length_c 49.0231
_cell_angle_alpha 89.935900
_cell_angle_beta 89.968600
_cell_angle_gamma 90.031400
loop_
  _atom_site_label
  _atom_site_type_symbol
  _atom_site_fract_x
  _atom_site_fract_y
  _atom_site_fract_z
Zr1 Zr 0.24597 0.25115 0.29710
 O2 O 0.27205 0.27925 0.32735
 O3 O 0.21169 0.22273 0.32066
 O4 O 0.21267 0.28463 0.31721
 O5 O 0.30795 0.18929 0.29102
 O6 O 0.18644 0.31346 0.28269
 O7 O 0.27711 0.22013 0.32173
 O8 O 0.18025 0.19440 0.28882
 O9 O 0.20181 0.25236 0.27304
 O10 O 0.24493 0.20561 0.27572
 O11 O 0.25096 0.29416 0.27224
 O12 O 0.29252 0.24927 0.27539
 Zr13 Zr 0.25155 0.24719 0.20219
 Zr14 Zr 0.20798 0.29365 0.24676
 Zr15 Zr 0.28953 0.20462 0.25252
 Zr16 Zr 0.20208 0.20764 0.25078
 O17 O 0.34358 0.20613 0.25277
 O18 O 0.14914 0.21866 0.24853
 O19 O 0.24657 0.20372 0.22684
 O20 O 0.20542 0.24892 0.22419
 O21 O 0.25266 0.29304 0.22325
 O22 O 0.29533 0.24597 0.22661
 C23 C 0.18771 0.20246 0.31354
 C24 C 0.29980 0.19795 0.31546
 C25 C 0.19158 0.30675 0.30802
 O26 O 0.15414 0.29188 0.24306
 O27 O 0.19362 0.31281 0.20827
 O28 O 0.22313 0.28072 0.17760
 C29 C 0.20209 0.30444 0.18384
 O30 O 0.31759 0.31032 0.28480
 Zr31 Zr 0.29537 0.29069 0.24859
 O32 O 0.28592 0.27565 0.17869
 O33 O 0.21497 0.34656 0.24723
 O34 O 0.28953 0.34381 0.24697
 O35 O 0.34881 0.28183 0.24856
 O36 O 0.31449 0.30693 0.21045
 C37 C 0.30797 0.29799 0.18577
 O38 O 0.22371 0.22106 0.17179
 O39 O 0.28240 0.15184 0.25547
 O40 O 0.28197 0.21120 0.18202
 O41 O 0.30677 0.18111 0.21654
 O42 O 0.20557 0.15447 0.25458
 O43 O 0.18337 0.18401 0.21486
 C44 C 0.30131 0.18755 0.19120
 H45 H 0.24386 0.18559 0.28776
 H46 H 0.18552 0.24888 0.21174
 H47 H 0.31673 0.24387 0.21598
 H48 H 0.25184 0.31496 0.28338
 H49 H 0.13659 0.19800 0.25397
 H50 H 0.14603 0.31555 0.24285
 H51 H 0.19200 0.35679 0.24525
 H52 H 0.31209 0.35356 0.24222
 H53 H 0.18240 0.14591 0.25891
 H54 H 0.30543 0.14169 0.25718
 H55 H 0.35155 0.18242 0.25330
 H56 H 0.36018 0.30332 0.24358
 H57 H 0.16297 0.17033 0.21941
 H58 H 0.23341 0.22770 0.15386
 H59 H 0.26256 0.27238 0.34530
 H60 H 0.33384 0.32855 0.28003
 Zr61 Zr 0.75370 0.74883 0.29725
 O62 O 0.72793 0.72058 0.32764
 O63 O 0.78763 0.77773 0.32070
 O64 O 0.78731 0.71578 0.31749
 O65 O 0.69101 0.80996 0.29091
 O66 O 0.81392 0.68708 0.28311
 O67 O 0.72217 0.77959 0.32175
 O68 O 0.81875 0.80634 0.28874
 O69 O 0.79792 0.74803 0.27319
 O70 O 0.75424 0.79430 0.27567
 O71 O 0.74927 0.70567 0.27256
 O72 O 0.70716 0.75005 0.27553
 Zr73 Zr 0.74823 0.75235 0.20232
 Zr74 Zr 0.79229 0.70658 0.24708
 Zr75 Zr 0.70965 0.79465 0.25248
 Zr76 Zr 0.79714 0.79267 0.25075
 O77 O 0.65562 0.79240 0.25277
 O78 O 0.85021 0.78226 0.24859
 O79 O 0.75264 0.79597 0.22679
 O80 O 0.79433 0.75126 0.22433
 O81 O 0.74764 0.70656 0.22356
 O82 O 0.70440 0.75315 0.22673
 C83 C 0.81137 0.79827 0.31350
 C84 C 0.69924 0.80149 0.31539
 C85 C 0.80863 0.69382 0.30840
 O86 O 0.84611 0.70900 0.24345
 O87 O 0.80702 0.68750 0.20867
 O88 O 0.77714 0.71910 0.17787
 C89 C 0.79850 0.69570 0.18420
 O90 O 0.68287 0.68866 0.28517
 Zr91 Zr 0.70486 0.70851 0.24889
 O92 O 0.71419 0.72343 0.17893
 O93 O 0.78594 0.65360 0.24772
 O94 O 0.71133 0.65546 0.24743
 O95 O 0.65132 0.71677 0.24889
 O96 O 0.68589 0.69199 0.21081
 C97 C 0.69232 0.70093 0.18610
 O98 O 0.77574 0.77870 0.17179
 O99 O 0.71605 0.84753 0.25516
 O100 O 0.71737 0.78789 0.18201
 O101 O 0.69214 0.81777 0.21640
 O102 O 0.79299 0.84581 0.25429
 O103 O 0.81565 0.81634 0.21472
 C104 C 0.69770 0.81130 0.19109
 H105 H 0.75505 0.81437 0.28763
 H106 H 0.81426 0.75149 0.21189
 H107 H 0.68298 0.75495 0.21610
 H108 H 0.74861 0.68490 0.28378
 H109 H 0.86250 0.80309 0.25390
 H110 H 0.85452 0.68543 0.24334
 H111 H 0.80903 0.64363 0.24580
 H112 H 0.68890 0.64544 0.24271
 H113 H 0.81606 0.85467 0.25858
 H114 H 0.69288 0.85738 0.25682
 H115 H 0.64733 0.81600 0.25319
 H116 H 0.64019 0.69516 0.24398
 H117 H 0.83587 0.83028 0.21921
 H118 H 0.76614 0.77188 0.15389
 H119 H 0.73730 0.72764 0.34555
 H120 H 0.66681 0.67027 0.28046
 Zr121 Zr 0.75397 0.25106 -0.29701
 O122 O 0.72815 0.27915 -0.32744
 O123 O 0.78818 0.22238 -0.32037
 O124 O 0.78749 0.28434 -0.31717
 O125 O 0.69157 0.18956 -0.29077
 O126 O 0.81374 0.31319 -0.28270
 O127 O 0.72270 0.22010 -0.32156
 O128 O 0.81930 0.19399 -0.28834
 O129 O 0.79805 0.25217 -0.27285
 O130 O 0.75467 0.20561 -0.27542
 O131 O 0.74916 0.29420 -0.27233
 O132 O 0.70733 0.24954 -0.27538
 Zr133 Zr 0.74807 0.24757 -0.20207
 Zr134 Zr 0.79204 0.29359 -0.24675
 Zr135 Zr 0.70999 0.20498 -0.25231
 Zr136 Zr 0.79745 0.20754 -0.25040
 O137 O 0.65595 0.20675 -0.25268
 O138 O 0.85042 0.21842 -0.24814
 O139 O 0.75286 0.20397 -0.22653
 O140 O 0.79426 0.24894 -0.22399
 O141 O 0.74730 0.29334 -0.22332
 O142 O 0.70436 0.24645 -0.22658
 C143 C 0.81200 0.20200 -0.31311
 C144 C 0.69985 0.19807 -0.31524
 C145 C 0.80863 0.30643 -0.30800
 O146 O 0.84587 0.29165 -0.24299
 O147 O 0.80651 0.31279 -0.20833
 O148 O 0.77667 0.28103 -0.17756
 C149 C 0.79793 0.30456 -0.18387
 O150 O 0.68271 0.31074 -0.28509
 Zr151 Zr 0.70465 0.29108 -0.24875
 O152 O 0.71374 0.27627 -0.17877
 O153 O 0.78529 0.34651 -0.24742
 O154 O 0.71086 0.34417 -0.24732
 O155 O 0.65116 0.28249 -0.24885
 O156 O 0.68542 0.30752 -0.21073
 C157 C 0.69180 0.29864 -0.18600
 O158 O 0.77559 0.22143 -0.17147
 O159 O 0.71680 0.15215 -0.25498
 O160 O 0.71738 0.21180 -0.18184
 O161 O 0.69249 0.18172 -0.21628
 O162 O 0.79357 0.15437 -0.25391
 O163 O 0.81603 0.18395 -0.21439
 C164 C 0.69793 0.18823 -0.19096
 H165 H 0.75564 0.18554 -0.28737
 H166 H 0.81413 0.24884 -0.21150
 H167 H 0.68291 0.24450 -0.21599
 H168 H 0.74843 0.31495 -0.28356
 H169 H 0.86291 0.19773 -0.25351
 H170 H 0.85409 0.31529 -0.24288
 H171 H 0.80829 0.35669 -0.24546
 H172 H 0.68837 0.35406 -0.24264
 H173 H 0.81667 0.14564 -0.25823
 H174 H 0.69372 0.14210 -0.25671
 H175 H 0.64783 0.18309 -0.25313
 H176 H 0.63990 0.30404 -0.24398
 H177 H 0.83636 0.17018 -0.21889
 H178 H 0.76587 0.22821 -0.15360
 H179 H 0.73765 0.27218 -0.34533
 H180 H 0.66656 0.32906 -0.28042
 Zr181 Zr 0.24588 0.75013 -0.29760
 O182 O 0.27165 0.72216 -0.32809
 O183 O 0.21207 0.77930 -0.32099
 O184 O 0.21228 0.71720 -0.31800
 O185 O 0.30871 0.81112 -0.29087
 O186 O 0.18557 0.68821 -0.28376
 O187 O 0.27762 0.78110 -0.32190
 O188 O 0.18092 0.80760 -0.28899
 O189 O 0.20159 0.74911 -0.27361
 O190 O 0.24536 0.79539 -0.27584
 O191 O 0.25016 0.70675 -0.27303
 O192 O 0.29235 0.75109 -0.27576
 Zr193 Zr 0.25106 0.75275 -0.20258
 Zr194 Zr 0.20707 0.70744 -0.24762
 Zr195 Zr 0.28986 0.79548 -0.25254
 Zr196 Zr 0.20238 0.79356 -0.25100
 O197 O 0.34389 0.79327 -0.25271
 O198 O 0.14931 0.78305 -0.24897
 O199 O 0.24680 0.79657 -0.22693
 O200 O 0.20503 0.75192 -0.22471
 O201 O 0.25164 0.70715 -0.22400
 O202 O 0.29496 0.75376 -0.22692
 C203 C 0.18833 0.79982 -0.31380
 C204 C 0.30062 0.80293 -0.31544
 C205 C 0.19095 0.69514 -0.30902
 O206 O 0.15323 0.70979 -0.24414
 O207 O 0.19208 0.68807 -0.20930
 O208 O 0.22194 0.71928 -0.17832
 C209 C 0.20049 0.69597 -0.18474
 O210 O 0.31652 0.68973 -0.28558
 Zr211 Zr 0.29450 0.70932 -0.24926
 O212 O 0.28504 0.72361 -0.17926
 O213 O 0.21342 0.65447 -0.24840
 O214 O 0.28793 0.65626 -0.24800
 O215 O 0.34805 0.71759 -0.24917
 O216 O 0.31339 0.69246 -0.21123
 C217 C 0.30693 0.70119 -0.18649
 O218 O 0.22351 0.77882 -0.17197
 O219 O 0.28348 0.84838 -0.25504
 O220 O 0.28188 0.78817 -0.18208
 O221 O 0.30724 0.81831 -0.21635
 O222 O 0.20651 0.84673 -0.25434
 O223 O 0.18391 0.81703 -0.21493
 C224 C 0.30158 0.81168 -0.19107
 H225 H 0.24464 0.81557 -0.28772
 H226 H 0.18506 0.75207 -0.21230
 H227 H 0.31635 0.75548 -0.21625
 H228 H 0.25082 0.68608 -0.28433
 H229 H 0.13703 0.80390 -0.25427
 H230 H 0.14482 0.68622 -0.24413
 H231 H 0.19032 0.64446 -0.24657
 H232 H 0.31033 0.64619 -0.24329
 H233 H 0.18344 0.85560 -0.25859
 H234 H 0.30666 0.85826 -0.25663
 H235 H 0.35219 0.81688 -0.25300
 H236 H 0.35915 0.69594 -0.24431
 H237 H 0.16350 0.83073 -0.21935
 H238 H 0.23304 0.77180 -0.15409
 H239 H 0.26232 0.72942 -0.34598
 H240 H 0.33257 0.67132 -0.28090
 Zr241 Zr 1.25366 1.25021 0.79717
 O242 O 1.22648 1.22398 0.82795
 O243 O 1.28859 1.27837 0.82021
 O244 O 1.28581 1.21651 0.81820
 O245 O 1.19392 1.31387 0.78935
 O246 O 1.31139 1.18578 0.78449
 O247 O 1.22349 1.28307 0.82090
 O248 O 1.32116 1.30468 0.78789
 O249 O 1.29793 1.24685 0.77335
 O250 O 1.25630 1.29496 0.77471
 O251 O 1.24746 1.20655 0.77334
 O252 O 1.20732 1.25279 0.77524
 Zr253 Zr 1.24885 1.25120 0.70223
 Zr254 Zr 1.29060 1.20491 0.74805
 Zr255 Zr 1.21191 1.29654 0.75132
 Zr256 Zr 1.29925 1.29080 0.75004
 O257 O 1.15784 1.29666 0.75155
 O258 O 1.35180 1.27798 0.74830
 O259 O 1.25506 1.29531 0.72583
 O260 O 1.29476 1.24876 0.72443
 O261 O 1.24614 1.20612 0.72435
 O262 O 1.20496 1.25453 0.72640
 C263 C 1.31322 1.29770 0.81276
 C264 C 1.20169 1.30581 0.81400
 C265 C 1.30634 1.19353 0.80962
 O266 O 1.34447 1.20483 0.74439
 O267 O 1.30442 1.18393 0.71012
 O268 O 1.27626 1.21596 0.67858
 C269 C 1.29637 1.19176 0.68548
 O270 O 1.18022 1.19288 0.78598
 Zr271 Zr 1.20333 1.21059 0.74943
 O272 O 1.21383 1.22301 0.67925
 O273 O 1.28192 1.15229 0.74987
 O274 O 1.20745 1.15728 0.74912
 O275 O 1.15021 1.22111 0.74891
 O276 O 1.18405 1.19364 0.71156
 C277 C 1.19106 1.20156 0.68672
 O278 O 1.27769 1.27547 0.67135
 O279 O 1.22067 1.34916 0.75288
 O280 O 1.21959 1.28726 0.68105
 O281 O 1.19547 1.31918 0.71474
 O282 O 1.29762 1.34415 0.75259
 O283 O 1.31883 1.31264 0.71364
 C284 C 1.20082 1.31168 0.68959
 H285 H 1.25795 1.31535 0.78625
 H286 H 1.31473 1.24775 0.71206
 H287 H 1.18370 1.25689 0.71565
 H288 H 1.24586 1.18618 0.78498
 H289 H 1.36498 1.29839 0.75330
 H290 H 1.35181 1.18092 0.74478
 H291 H 1.30454 1.14127 0.74820
 H292 H 1.18463 1.14809 0.74449
 H293 H 1.32108 1.35207 0.75670
 H294 H 1.19796 1.36006 0.75430
 H295 H 1.15061 1.32061 0.75145
 H296 H 1.13820 1.19984 0.74434
 H297 H 1.33984 1.32554 0.71787
 H298 H 1.26794 1.26849 0.65355
 H299 H 1.23607 1.23113 0.84576
 H300 H 1.16335 1.17510 0.78156
 Zr301 Zr 0.74617 0.74998 0.79697
 O302 O 0.77332 0.77641 0.82759
 O303 O 0.71111 0.72206 0.82016
 O304 O 0.71398 0.78386 0.81778
 O305 O 0.80589 0.68625 0.78959
 O306 O 0.68853 0.81437 0.78384
 O307 O 0.77627 0.71729 0.82094
 O308 O 0.67858 0.69559 0.78798
 O309 O 0.70197 0.75322 0.77309
 O310 O 0.74351 0.70507 0.77480
 O311 O 0.75248 0.79347 0.77289
 O312 O 0.79254 0.74716 0.77509
 Zr313 Zr 0.75121 0.74832 0.70204
 Zr314 Zr 0.70941 0.79497 0.74754
 Zr315 Zr 0.78796 0.70326 0.75144
 Zr316 Zr 0.70064 0.70911 0.75007
 O317 O 0.84203 0.70297 0.75166
 O318 O 0.64811 0.72194 0.74820
 O319 O 0.74488 0.70437 0.72591
 O320 O 0.70526 0.75097 0.72420
 O321 O 0.75393 0.79354 0.72388
 O322 O 0.79503 0.74509 0.72628
 C323 C 0.68645 0.70276 0.81280
 C324 C 0.79810 0.69451 0.81419
 C325 C 0.69349 0.80679 0.80902
 O326 O 0.65554 0.79507 0.74385
 O327 O 0.69570 0.81568 0.70947
 O328 O 0.72391 0.78344 0.67814
 C329 C 0.70380 0.80770 0.68489
 O330 O 0.81969 0.80713 0.78549
 Zr331 Zr 0.79665 0.78919 0.74903
 O332 O 0.78637 0.77628 0.67893
 O333 O 0.71812 0.84760 0.74901
 O334 O 0.79247 0.84249 0.74832
 O335 O 0.84979 0.77870 0.74869
 O336 O 0.81613 0.80578 0.71110
 C337 C 0.80917 0.79770 0.68631
 O338 O 0.72240 0.72389 0.67130
 O339 O 0.77905 0.65067 0.75338
 O340 O 0.78046 0.71206 0.68110
 O341 O 0.80442 0.68031 0.71500
 O342 O 0.70236 0.65578 0.75295
 O343 O 0.68097 0.68707 0.71383
 C344 C 0.79914 0.68764 0.68980
 H345 H 0.74182 0.68477 0.78649
 H346 H 0.68532 0.75191 0.71180
 H347 H 0.81633 0.74261 0.71556
 H348 H 0.75406 0.81391 0.78439
 H349 H 0.63489 0.70157 0.75334
 H350 H 0.64823 0.81899 0.74407
 H351 H 0.69551 0.85862 0.74725
 H352 H 0.81528 0.85167 0.74362
 H353 H 0.67893 0.64786 0.75722
 H354 H 0.80173 0.63972 0.75487
 H355 H 0.84919 0.67900 0.75173
 H356 H 0.86181 0.79995 0.74405
 H357 H 0.66013 0.67396 0.71821
 H358 H 0.73221 0.73072 0.65345
 H359 H 0.76369 0.76940 0.84545
 H360 H 0.83638 0.82507 0.78097
 Zr361 Zr 1.25399 0.75011 0.20309
 O362 O 1.22709 0.77672 0.17240
 O363 O 1.28900 0.72209 0.17999
 O364 O 1.28638 0.78393 0.18236
 O365 O 1.19388 0.68663 0.21033
 O366 O 1.31188 0.81425 0.21634
 O367 O 1.22382 0.71757 0.17905
 O368 O 1.32122 0.69534 0.21226
 O369 O 1.29812 0.75312 0.22707
 O370 O 1.25630 0.70516 0.22528
 O371 O 1.24784 0.79357 0.22717
 O372 O 1.20751 0.74750 0.22486
 Zr373 Zr 1.24860 0.74831 0.29801
 Zr374 Zr 1.29083 0.79484 0.25260
 Zr375 Zr 1.21175 0.70353 0.24852
 Zr376 Zr 1.29911 0.70895 0.25011
 O377 O 1.15768 0.70361 0.24817
 O378 O 1.35171 0.72157 0.25206
 O379 O 1.25476 0.70440 0.27416
 O380 O 1.29465 0.75078 0.27596
 O381 O 1.24622 0.79359 0.27616
 O382 O 1.20484 0.74532 0.27369
 C383 C 1.31350 0.70261 0.18741
 C384 C 1.20184 0.69487 0.18575
 C385 C 1.30692 0.80677 0.19116
 O386 O 1.34469 0.79472 0.25639
 O387 O 1.30454 0.81541 0.29069
 O388 O 1.27601 0.78325 0.32197
 C389 C 1.29629 0.80743 0.31527
 O390 O 1.18075 0.80765 0.21442
 Zr391 Zr 1.20355 0.78947 0.25093
 O392 O 1.21355 0.77640 0.32107
 O393 O 1.28240 0.84751 0.25109
 O394 O 1.20793 0.84277 0.25155
 O395 O 1.15037 0.77911 0.25122
 O396 O 1.18411 0.80617 0.28883
 C397 C 1.19094 0.79801 0.31365
 O398 O 1.27719 0.72367 0.32881
 O399 O 1.22024 0.65089 0.24663
 O400 O 1.21911 0.71212 0.31887
 O401 O 1.19506 0.68056 0.28492
 O402 O 1.29708 0.65563 0.24731
 O403 O 1.31854 0.68676 0.28641
 C404 C 1.20033 0.68781 0.31012
 H405 H 1.25792 0.68487 0.21362
 H406 H 1.31455 0.75161 0.28840
 H407 H 1.18351 0.74293 0.28438
 H408 H 1.24640 0.81405 0.21565
 H409 H 1.36484 0.70116 0.24697
 H410 H 1.35212 0.81861 0.25617
 H411 H 1.30506 0.85844 0.25291
 H412 H 1.18513 0.85200 0.25618
 H413 H 1.32047 0.64760 0.24309
 H414 H 1.19749 0.64009 0.24509
 H415 H 1.15033 0.67969 0.24811
 H416 H 1.13843 0.80036 0.25591
 H417 H 1.33936 0.67363 0.28208
 H418 H 1.26738 0.73050 0.34664
 H419 H 1.23674 0.76971 0.15456
 H420 H 1.16385 0.82537 0.21892
 Zr421 Zr 0.74732 1.25007 0.20262
 O422 O 0.77444 1.22390 0.17183
 O423 O 0.71261 1.27856 0.17956
 O424 O 0.71503 1.21663 0.18142
 O425 O 0.80752 1.31332 0.21080
 O426 O 0.68917 1.18580 0.21500
 O427 O 0.77788 1.28295 0.17906
 O428 O 0.68010 1.30481 0.21189
 O429 O 0.70293 1.24675 0.22634
 O430 O 0.74486 1.29466 0.22520
 O431 O 0.75312 1.20621 0.22638
 O432 O 0.79356 1.25222 0.22470
 Zr433 Zr 0.75171 1.25031 0.29765
 Zr434 Zr 0.70986 1.20461 0.25157
 Zr435 Zr 0.78916 1.29582 0.24872
 Zr436 Zr 0.70179 1.29054 0.24975
 O437 O 0.84323 1.29562 0.24870
 O438 O 0.64916 1.27795 0.25129
 O439 O 0.74589 1.29461 0.27411
 O440 O 0.70590 1.24831 0.27528
 O441 O 0.75423 1.20537 0.27540
 O442 O 0.79572 1.25362 0.27357
 C443 C 0.68805 1.29794 0.18702
 C444 C 0.79985 1.30551 0.18609
 C445 C 0.69437 1.19367 0.18990
 O446 O 0.65596 1.20480 0.25498
 O447 O 0.69554 1.18351 0.28940
 O448 O 0.72385 1.21507 0.32112
 C449 C 0.70349 1.19109 0.31410
 O450 O 0.82026 1.19216 0.21390
 Zr451 Zr 0.79716 1.20983 0.25043
 O452 O 0.78654 1.22180 0.32062
 O453 O 0.71823 1.15196 0.24971
 O454 O 0.79263 1.15654 0.25066
 O455 O 0.85035 1.22006 0.25102
 O456 O 0.81632 1.19258 0.28828
 C457 C 0.80928 1.20037 0.31313
 O458 O 0.72294 1.27448 0.32855
 O459 O 0.78077 1.34850 0.24723
 O460 O 0.78106 1.28617 0.31897
 O461 O 0.80548 1.31820 0.28541
 O462 O 0.70392 1.34391 0.24742
 O463 O 0.68203 1.31223 0.28611
 C464 C 0.79995 1.31060 0.31053
 H465 H 0.74341 1.31514 0.21370
 H466 H 0.68586 1.24734 0.28759
 H467 H 0.81695 1.25581 0.28439
 H468 H 0.75463 1.18591 0.21470
 H469 H 0.63611 1.29844 0.24628
 H470 H 0.64846 1.18093 0.25449
 H471 H 0.69553 1.14104 0.25125
 H472 H 0.81536 1.14718 0.25533
 H473 H 0.68059 1.35203 0.24314
 H474 H 0.80356 1.35929 0.24593
 H475 H 0.85063 1.31952 0.24892
 H476 H 0.86222 1.19871 0.25556
 H477 H 0.66122 1.32539 0.28178
 H478 H 0.73258 1.26730 0.34635
 H479 H 0.76498 1.23125 0.15401
 H480 H 0.83693 1.17420 0.21832
 O481 O 0.46095 1.06353 0.01986
 O482 O 0.53888 0.93556 0.01910
 O483 O 0.43448 0.96030 0.01803
 O484 O 0.56542 1.03876 0.01822
 O485 O 0.48147 0.94184 0.03345
 O486 O 0.51851 1.05703 0.03397
 O487 O 0.55834 0.98218 0.03389
 O488 O 0.44134 1.01666 0.03416
 C489 C 0.44527 1.04716 0.03763
 C490 C 0.55434 0.95165 0.03711
 C491 C 0.45048 0.94538 0.03632
 C492 C 0.54957 1.05372 0.03656
 O493 O 0.53908 1.06366 -0.01923
 O494 O 0.46059 0.93600 -0.01973
 O495 O 0.43454 1.03931 -0.01786
 O496 O 0.56514 0.96035 -0.01841
 O497 O 0.51807 0.94240 -0.03406
 O498 O 0.48153 1.05773 -0.03340
 O499 O 0.55840 1.01696 -0.03401
 O500 O 0.44124 0.98293 -0.03404
 Co501 Co 0.50001 1.05460 0.00027
 Co502 Co 0.49976 0.94482 -0.00029
 Co503 Co 0.44402 0.99978 0.00006
 Co504 Co 0.55569 0.99957 -0.00006
 O505 O 0.49987 0.99970 -0.00001
 C506 C 0.55453 1.04750 -0.03722
 C507 C 0.44508 0.95243 -0.03754
 C508 C 0.45049 1.05440 -0.03611
 C509 C 0.54911 0.94567 -0.03680
 O510 O 0.96006 0.56405 0.51854
 O511 O 1.03980 0.43519 0.51830
 O512 O 0.93520 0.46079 0.51932
 O513 O 1.06472 0.53842 0.51923
 O514 O 0.98256 0.44180 0.53399
 O515 O 1.01742 0.55739 0.53404
 O516 O 1.05828 0.48169 0.53371
 O517 O 0.94145 0.51746 0.53384
 C518 C 0.94461 0.54810 0.53663
 C519 C 1.05514 0.45104 0.53645
 C520 C 0.95167 0.44580 0.53738
 C521 C 1.04839 0.55366 0.53722
 O522 O 1.03956 0.56423 0.48163
 O523 O 0.96018 0.43511 0.48166
 O524 O 0.93498 0.53829 0.48088
 O525 O 1.06473 0.46108 0.48067
 O526 O 1.01742 0.44205 0.46595
 O527 O 0.98224 0.55752 0.46613
 O528 O 1.05821 0.51777 0.46625
 O529 O 0.94149 0.48161 0.46633
 Co530 Co 0.99983 0.55475 0.50008
 Co531 Co 0.99998 0.44457 0.49998
 Co532 Co 0.94426 0.49955 0.50008
 Co533 Co 1.05550 0.49973 0.49998
 O534 O 0.99989 0.49965 0.50003
 C535 C 1.05494 0.54840 0.46349
 C536 C 0.94472 0.45098 0.46356
 C537 C 0.95131 0.55361 0.46290
 C538 C 1.04834 0.44602 0.46262
 O539 O 1.02372 0.46178 0.05176
 O540 O 1.02310 0.54016 -0.05337
 O541 O 1.02514 0.43688 -0.03166
 O542 O 1.02566 0.56513 0.03009
 O543 O 1.04328 0.48359 -0.04749
 O544 O 1.04377 0.51843 0.04599
 O545 O 1.04317 0.55873 -0.01618
 O546 O 1.04318 0.44324 0.01433
 C547 C 1.04640 0.44626 0.03921
 C548 C 1.04595 0.55581 -0.04111
 C549 C 1.04721 0.45294 -0.04465
 C550 C 1.04769 0.54909 0.04313
 O551 O 0.97858 0.54057 0.05165
 O552 O 0.97796 0.46133 -0.05277
 O553 O 0.97646 0.43703 0.03083
 O554 O 0.97616 0.56480 -0.03195
 O555 O 0.95786 0.51794 -0.04730
 O556 O 0.95837 0.48382 0.04644
 O557 O 0.95873 0.55897 0.01428
 O558 O 0.95837 0.44322 -0.01523
 Co559 Co 1.00107 0.50113 0.04395
 Co560 Co 1.00058 0.50077 -0.04522
 Co561 Co 1.00079 0.44607 -0.00046
 Co562 Co 1.00094 0.55594 -0.00091
 O563 O 1.00085 0.50098 -0.00065
 C564 C 0.95574 0.55598 0.03919
 C565 C 0.95518 0.44600 -0.04012
 C566 C 0.95452 0.45311 0.04392
 C567 C 0.95394 0.54861 -0.04462
 O568 O 0.54270 0.98362 0.54732
 O569 O 0.54240 1.01534 0.45333
 O570 O 0.54089 0.94165 0.48466
 O571 O 0.54136 1.05691 0.51616
 O572 O 0.51976 0.95902 0.44764
 O573 O 0.52027 1.03986 0.55329
 O574 O 0.52590 1.06249 0.46986
 O575 O 0.52587 0.93644 0.53103
 C576 C 0.54756 0.95311 0.54405
 C577 C 0.54729 1.04587 0.45646
 C578 C 0.54284 0.94361 0.45968
 C579 C 0.54340 1.05512 0.54113
 O580 O 0.45644 1.01561 0.54744
 O581 O 0.45607 0.98330 0.45368
 O582 O 0.45754 0.94201 0.51687
 O583 O 0.45774 1.05705 0.48456
 O584 O 0.47861 1.03955 0.44751
 O585 O 0.47893 0.95940 0.55375
 O586 O 0.47317 1.06266 0.53077
 O587 O 0.47264 0.93625 0.47048
 Co588 Co 0.49956 0.99961 0.54527
 Co589 Co 0.49923 0.99932 0.45571
 Co590 Co 0.49924 0.94481 0.50074
 Co591 Co 0.49954 1.05405 0.50036
 O592 O 0.49940 0.99944 0.50051
 C593 C 0.45159 1.04610 0.54404
 C594 C 0.45115 0.95281 0.45714
 C595 C 0.45574 0.94395 0.54186
 C596 C 0.45561 1.05502 0.45961
 O597 O 1.05917 1.04108 0.48527
 O598 O 0.94219 1.04124 0.51564
 O599 O 0.98381 1.04186 0.45359
 O600 O 1.01731 1.04194 0.54719
 O601 O 0.93616 1.02466 0.46957
 O602 O 1.06498 1.02466 0.53137
 O603 O 0.96019 1.02100 0.55282
 O604 O 1.04098 1.02090 0.44815
 C605 C 1.05573 1.04402 0.46045
 C606 C 0.94545 1.04411 0.54048
 C607 C 0.95284 1.04620 0.45655
 C608 C 1.04827 1.04632 0.54416
 O609 O 1.05895 0.95797 0.51599
 O610 O 0.94208 0.95807 0.48520
 O611 O 1.01754 0.95728 0.45376
 O612 O 0.98362 0.95735 0.54724
 O613 O 0.93604 0.97460 0.53125
 O614 O 1.06514 0.97444 0.46983
 O615 O 1.04069 0.97829 0.55306
 O616 O 0.96043 0.97819 0.44804
 Co617 Co 1.05616 0.99953 0.50061
 Co618 Co 0.94501 0.99965 0.50043
 Co619 Co 1.00068 0.99957 0.45586
 Co620 Co 1.00046 0.99964 0.54509
 O621 O 1.00058 0.99959 0.50049
 C622 C 1.05570 0.95525 0.54086
 C623 C 0.94540 0.95521 0.46037
 C624 C 1.04848 0.95289 0.45687
 C625 C 0.95269 0.95293 0.54409
 O626 O 0.55830 0.54181 -0.01513
 O627 O 0.44133 0.54193 0.01513
 O628 O 0.48255 0.54249 -0.04679
 O629 O 0.51698 0.54232 0.04670
 O630 O 0.43501 0.52497 -0.03092
 O631 O 0.56448 0.52473 0.03089
 O632 O 0.45975 0.52187 0.05230
 O633 O 0.53977 0.52196 -0.05231
 C634 C 0.55460 0.54497 -0.03992
 C635 C 0.44499 0.54497 0.03993
 C636 C 0.45155 0.54665 -0.04386
 C637 C 0.54798 0.54647 0.04374
 O638 O 0.55818 0.45840 0.01504
 O639 O 0.44111 0.45860 -0.01503
 O640 O 0.51676 0.45804 -0.04682
 O641 O 0.48262 0.45793 0.04671
 O642 O 0.43507 0.47554 0.03102
 O643 O 0.56434 0.47548 -0.03104
 O644 O 0.53984 0.47834 0.05225
 O645 O 0.45956 0.47857 -0.05225
 Co646 Co 0.55538 0.50011 -0.00006
 Co647 Co 0.44408 0.50026 0.00005
 Co648 Co 0.49967 0.50026 -0.04461
 Co649 Co 0.49979 0.50013 0.04455
 O650 O 0.49973 0.50019 -0.00002
 C651 C 0.55474 0.45536 0.03987
 C652 C 0.44469 0.45554 -0.03985
 C653 C 0.54775 0.45380 -0.04388
 C654 C 0.45164 0.45373 0.04376
 C655 C 0.31916 1.16743 0.17161
 C656 C 0.33483 1.15108 0.15514
 C657 C 0.35401 1.13228 0.13534
 C658 C 0.35353 1.14220 0.10793
 C659 C 0.37278 1.12453 0.08868
 C660 C 0.39263 1.09690 0.09677
 C661 C 0.39308 1.08689 0.12418
 C662 C 0.37381 1.10459 0.14346
 C663 C 0.41212 1.07880 0.07673
 C664 C 0.42776 1.06410 0.05927
 H665 H 0.33839 1.16364 0.10147
 H666 H 0.37222 1.13242 0.06752
 H667 H 0.40831 1.06550 0.13061
 H668 H 0.37442 1.09680 0.16465
 C669 C 0.81662 0.66777 0.66985
 C670 C 0.83219 0.65163 0.65319
 C671 C 0.85151 0.63303 0.63335
 C672 C 0.85354 0.64476 0.60645
 C673 C 0.87313 0.62731 0.58728
 C674 C 0.89081 0.59811 0.59496
 C675 C 0.88873 0.58630 0.62185
 C676 C 0.86911 0.60377 0.64104
 C677 C 0.91064 0.58016 0.57505
 C678 C 0.92663 0.56539 0.55783
 H679 H 0.84012 0.66744 0.60035
 H680 H 0.87453 0.63659 0.56651
 H681 H 0.90225 0.56368 0.62795
 H682 H 0.86779 0.59459 0.66184
 C683 C 0.67950 0.83106 0.17146
 C684 C 0.66345 0.84711 0.15504
 C685 C 0.64373 0.86562 0.13539
 C686 C 0.62606 0.84826 0.11491
 C687 C 0.60684 0.86608 0.09572
 C688 C 0.60516 0.90132 0.09697
 C689 C 0.62268 0.91871 0.11753
 C690 C 0.64192 0.90086 0.13675
 C691 C 0.58644 0.91955 0.07654
 C692 C 0.57134 0.93442 0.05886
 H693 H 0.62726 0.82101 0.11374
 H694 H 0.59350 0.85244 0.07982
 H695 H 0.62164 0.94598 0.11857
 H696 H 0.65544 0.91449 0.15256
 C697 C 1.18327 0.33132 0.66954
 C698 C 1.16755 0.34727 0.65285
 C699 C 1.14797 0.36563 0.63303
 C700 C 1.13557 0.34905 0.60986
 C701 C 1.11585 0.36659 0.59081
 C702 C 1.10841 0.40074 0.59492
 C703 C 1.12080 0.41736 0.61810
 C704 C 1.14053 0.39980 0.63716
 C705 C 1.08881 0.41880 0.57494
 C706 C 1.07297 0.43366 0.55768
 H707 H 1.14109 0.32260 0.60655
 H708 H 1.10648 0.35357 0.57289
 H709 H 1.11527 0.44381 0.62138
 H710 H 1.14991 0.41279 0.65509
 C711 C 0.67992 1.16829 -0.17135
 C712 C 0.66411 1.15208 -0.15487
 C713 C 0.64478 1.13344 -0.13506
 C714 C 0.64004 1.14677 -0.10890
 C715 C 0.62083 1.12902 -0.08965
 C716 C 0.60626 1.09791 -0.09651
 C717 C 0.61095 1.08455 -0.12268
 C718 C 0.63018 1.10233 -0.14197
 C719 C 0.58714 1.07958 -0.07639
 C720 C 0.57176 1.06468 -0.05887
 H721 H 0.65115 1.17086 -0.10342
 H722 H 0.61741 1.13949 -0.06943
 H723 H 0.59984 1.06045 -0.12812
 H724 H 0.63364 1.09190 -0.16219
 C725 C 1.18274 0.66795 0.33003
 C726 C 1.16708 0.65185 0.34667
 C727 C 1.14771 0.63334 0.36653
 C728 C 1.14537 0.64536 0.39331
 C729 C 1.12576 0.62796 0.41252
 C730 C 1.10837 0.59853 0.40500
 C731 C 1.11074 0.58645 0.37823
 C732 C 1.13038 0.60388 0.35899
 C733 C 1.08863 0.58059 0.42496
 C734 C 1.07275 0.56578 0.44224
 H735 H 1.15859 0.66820 0.39929
 H736 H 1.12414 0.63742 0.43321
 H737 H 1.09745 0.56365 0.37226
 H738 H 1.13194 0.59449 0.33828
 C739 C 0.31965 0.83147 -0.17139
 C740 C 0.33563 0.84778 -0.15510
 C741 C 0.35533 0.86685 -0.13579
 C742 C 0.38828 0.85616 -0.12876
 C743 C 0.40736 0.87433 -0.10969
 C744 C 0.39356 0.90328 -0.09763
 C745 C 0.36071 0.91412 -0.10482
 C746 C 0.34162 0.89594 -0.12389
 C747 C 0.41251 0.92107 -0.07710
 C748 C 0.42782 0.93560 -0.05936
 H749 H 0.39910 0.83369 -0.13787
 H750 H 0.43269 0.86566 -0.10416
 H751 H 0.34976 0.93640 -0.09549
 H752 H 0.31616 0.90441 -0.12922
 C753 C 0.81736 0.33025 0.33066
 C754 C 0.83290 0.34634 0.34735
 C755 C 0.85220 0.36500 0.36715
 C756 C 0.86538 0.39684 0.36057
 C757 C 0.88491 0.41455 0.37966
 C758 C 0.89134 0.40041 0.40534
 C759 C 0.87812 0.36859 0.41191
 C760 C 0.85861 0.35090 0.39284
 C761 C 0.91096 0.41863 0.42520
 C762 C 0.92683 0.43358 0.44239
 H763 H 0.86066 0.40788 0.34070
 H764 H 0.89496 0.43919 0.37443
 H765 H 0.88288 0.35750 0.43176
 H766 H 0.84863 0.32624 0.39808
 C767 C 1.18637 0.32289 0.16189
 C768 C 1.17234 0.33856 0.14395
 C769 C 1.15455 0.35742 0.12313
 C770 C 1.15459 0.39277 0.12374
 C771 C 1.13513 0.41108 0.10487
 C772 C 1.11553 0.39416 0.08525
 C773 C 1.11605 0.35883 0.08429
 C774 C 1.13551 0.34052 0.10316
 C775 C 1.09276 0.41284 0.06768
 C776 C 1.07239 0.42827 0.05399
 H777 H 1.16903 0.40615 0.13916
 H778 H 1.13471 0.43835 0.10602
 H779 H 1.10076 0.34542 0.06941
 H780 H 1.13508 0.31322 0.10255
 C781 C 0.68872 0.82731 0.66339
 C782 C 0.67512 0.84401 0.64590
 C783 C 0.65767 0.86405 0.62570
 C784 C 0.64214 0.84846 0.60326
 C785 C 0.62254 0.86751 0.58500
 C786 C 0.61840 0.90225 0.58908
 C787 C 0.63462 0.91798 0.61114
 C788 C 0.65422 0.89893 0.62939
 C789 C 0.59511 0.92105 0.57212
 C790 C 0.57421 0.93614 0.55877
 H791 H 0.64443 0.82149 0.60027
 H792 H 0.60987 0.85501 0.56817
 H793 H 0.63135 0.94475 0.61467
 H794 H 0.66592 0.91123 0.64676
 C795 C 1.18576 0.67923 -0.16495
 C796 C 1.17145 0.66361 -0.14705
 C797 C 1.15339 0.64481 -0.12623
 C798 C 1.13414 0.66177 -0.10639
 C799 C 1.11468 0.64353 -0.08742
 C800 C 1.11432 0.60817 -0.08810
 C801 C 1.13408 0.59120 -0.10762
 C802 C 1.15354 0.60944 -0.12659
 C803 C 1.09176 0.58947 -0.07023
 C804 C 1.07165 0.57397 -0.05626
 H805 H 1.13361 0.68907 -0.10594
 H806 H 1.09933 0.65701 -0.07262
 H807 H 1.13385 0.56391 -0.10857
 H808 H 1.16813 0.59598 -0.14188
 C809 C 0.68791 1.17140 0.33542
 C810 C 0.67394 1.15473 0.35280
 C811 C 0.65618 1.13477 0.37298
 C812 C 0.64145 1.15033 0.39580
 C813 C 0.62192 1.13139 0.41423
 C814 C 0.61700 1.09677 0.40999
 C815 C 0.63231 1.08108 0.38748
 C816 C 0.65184 1.10002 0.36904
 C817 C 0.59406 1.07803 0.42741
 C818 C 0.57352 1.06293 0.44120
 H819 H 0.64442 1.17720 0.39901
 H820 H 0.60998 1.14390 0.43141
 H821 H 0.62846 1.05441 0.38381
 H822 H 0.66290 1.08771 0.35141
 C823 C 0.81456 0.67745 0.16231
 C824 C 0.82886 0.66200 0.14439
 C825 C 0.84693 0.64346 0.12354
 C826 C 0.86593 0.66068 0.10367
 C827 C 0.88558 0.64270 0.08474
 C828 C 0.88634 0.60736 0.08552
 C829 C 0.86679 0.59012 0.10505
 C830 C 0.84714 0.60810 0.12397
 C831 C 0.90926 0.58899 0.06786
 C832 C 0.92970 0.57379 0.05408
 H833 H 0.86616 0.68800 0.10319
 H834 H 0.90080 0.65636 0.06993
 H835 H 0.86738 0.56284 0.10606
 H836 H 0.83273 0.59447 0.13931
 C837 C 0.31150 1.17204 0.66409
 C838 C 0.32509 1.15531 0.64663
 C839 C 0.34247 1.13531 0.62639
 C840 C 0.35783 1.15093 0.60385
 C841 C 0.37725 1.13191 0.58548
 C842 C 0.38140 1.09715 0.58954
 C843 C 0.36538 1.08140 0.61174
 C844 C 0.34596 1.10043 0.63010
 C845 C 0.40444 1.07834 0.57240
 C846 C 0.42515 1.06318 0.55891
 H847 H 0.35551 1.17790 0.60086
 H848 H 0.38978 1.14443 0.56856
 H849 H 0.36867 1.05462 0.61525
 H850 H 0.33440 1.08810 0.64755
 C851 C 0.81383 0.32295 -0.16198
 C852 C 0.82805 0.33856 -0.14412
 C853 C 0.84609 0.35736 -0.12341
 C854 C 0.84607 0.39272 -0.12399
 C855 C 0.86577 0.41096 -0.10526
 C856 C 0.88559 0.39398 -0.08578
 C857 C 0.88504 0.35865 -0.08484
 C858 C 0.86535 0.34040 -0.10358
 C859 C 0.90856 0.41262 -0.06835
 C860 C 0.92906 0.42802 -0.05478
 H861 H 0.83147 0.40615 -0.13930
 H862 H 0.86620 0.43824 -0.10639
 H863 H 0.90047 0.34519 -0.07007
 H864 H 0.86577 0.31310 -0.10299
 C865 C 0.31136 0.82695 0.33681
 C866 C 0.32490 0.84356 0.35436
 C867 C 0.34223 0.86352 0.37466
 C868 C 0.34549 0.89846 0.37112
 C869 C 0.36487 0.91748 0.38952
 C870 C 0.38106 0.90167 0.41159
 C871 C 0.37713 0.86686 0.41549
 C872 C 0.35776 0.84784 0.39708
 C873 C 0.40406 0.92052 0.42875
 C874 C 0.42473 0.93570 0.44226
 H875 H 0.33379 0.91084 0.35377
 H876 H 0.36798 0.94430 0.38613
 H877 H 0.38980 0.85429 0.43231
 H878 H 0.35562 0.82082 0.39995
 C879 C 1.16848 1.18672 0.33494
 C880 C 1.15303 1.17276 0.35297
 C881 C 1.13529 1.15501 0.37431
 C882 C 1.15372 1.14116 0.39611
 C883 C 1.13706 1.12135 0.41563
 C884 C 1.10189 1.11537 0.41345
 C885 C 1.08330 1.12994 0.39205
 C886 C 1.09997 1.14974 0.37252
 C887 C 1.08551 1.09179 0.43154
 C888 C 1.07190 1.07069 0.44552
 H889 H 1.18108 1.14494 0.39761
 H890 H 1.15173 1.10993 0.43194
 H891 H 1.05615 1.12520 0.39002
 H892 H 1.08551 1.16019 0.35567
 C893 C 0.66691 0.68711 -0.16595
 C894 C 0.65133 0.67326 -0.14793
 C895 C 0.63357 0.65569 -0.12652
 C896 C 0.65185 0.64291 -0.10422
 C897 C 0.63526 0.62327 -0.08455
 C898 C 0.60030 0.61639 -0.08709
 C899 C 0.58183 0.62989 -0.10902
 C900 C 0.59843 0.64952 -0.12869
 C901 C 0.58411 0.59287 -0.06885
 C902 C 0.57064 0.57175 -0.05481
 H903 H 0.67907 0.64738 -0.10243
 H904 H 0.64985 0.61265 -0.06785
 H905 H 0.55486 0.62441 -0.11133
 H906 H 0.58410 0.65912 -0.14593
 C907 C 0.83128 1.18613 0.66559
 C908 C 0.84683 1.17210 0.64767
 C909 C 0.86473 1.15435 0.62643
 C910 C 0.84640 1.13995 0.60483
 C911 C 0.86327 1.12029 0.58537
 C912 C 0.89856 1.11498 0.58740
 C913 C 0.91704 1.13007 0.60862
 C914 C 0.90015 1.14973 0.62809
 C915 C 0.91523 1.09160 0.56934
 C916 C 0.92907 1.07065 0.55538
 H917 H 0.81897 1.14322 0.60342
 H918 H 0.84868 1.10847 0.56921
 H919 H 0.94428 1.12586 0.61055
 H920 H 0.91455 1.16061 0.64478
 C921 C 0.33299 0.68686 0.16620
 C922 C 0.34851 0.67295 0.14819
 C923 C 0.36617 0.65533 0.12677
 C924 C 0.34770 0.64211 0.10475
 C925 C 0.36423 0.62253 0.08505
 C926 C 0.39931 0.61615 0.08725
 C927 C 0.41795 0.63008 0.10890
 C928 C 0.40142 0.64965 0.12861
 C929 C 0.41550 0.59273 0.06896
 C930 C 0.42897 0.57169 0.05487
 H931 H 0.32040 0.64621 0.10320
 H932 H 0.34950 0.61159 0.06857
 H933 H 0.44503 0.62501 0.11095
 H934 H 0.41591 0.65960 0.14562
 C935 C 1.17106 0.81454 0.66685
 C936 C 1.15558 0.82870 0.64890
 C937 C 1.13766 0.84648 0.62764
 C938 C 1.10217 0.85066 0.62916
 C939 C 1.08516 0.87010 0.60958
 C940 C 1.10355 0.88542 0.58838
 C941 C 1.13895 0.88062 0.58652
 C942 C 1.15595 0.86118 0.60610
 C943 C 1.08661 0.90843 0.57010
 C944 C 1.07248 0.92905 0.55596
 H945 H 1.08778 0.83956 0.64578
 H946 H 1.05784 0.87392 0.61138
 H947 H 1.15349 0.89261 0.57039
 H948 H 1.18343 0.85825 0.60479
 C949 C 0.66869 0.31398 0.16583
 C950 C 0.65317 0.32805 0.14789
 C951 C 0.63535 0.34577 0.12656
 C952 C 0.65367 0.35961 0.10468
 C953 C 0.63687 0.37911 0.08504
 C954 C 0.60164 0.38479 0.08717
 C955 C 0.58317 0.37028 0.10870
 C956 C 0.59999 0.35079 0.12835
 C957 C 0.58504 0.40800 0.06889
 C958 C 0.57119 0.42884 0.05481
 H959 H 0.68105 0.35602 0.10316
 H960 H 0.65146 0.39049 0.06865
 H961 H 0.55599 0.37479 0.11071
 H962 H 0.58559 0.34034 0.14524
 C963 C 0.83047 0.81423 0.33484
 C964 C 0.84592 0.82828 0.35281
 C965 C 0.86380 0.84600 0.37406
 C966 C 0.89924 0.85054 0.37239
 C967 C 0.91619 0.87004 0.39192
 C968 C 0.89778 0.88505 0.41322
 C969 C 0.86245 0.87988 0.41524
 C970 C 0.84551 0.86036 0.39571
 C971 C 0.91462 0.90818 0.43138
 C972 C 0.92869 0.92891 0.44541
 H973 H 0.91361 0.83970 0.35567
 H974 H 0.94346 0.87417 0.39000
 H975 H 0.84791 0.89165 0.43145
 H976 H 0.81807 0.85716 0.39712
 C977 C 0.33261 0.31360 -0.16605
 C978 C 0.34804 0.32762 -0.14807
 C979 C 0.36564 0.34534 -0.12667
 C980 C 0.40082 0.35134 -0.12867
 C981 C 0.41733 0.37094 -0.10897
 C982 C 0.39873 0.38457 -0.08717
 C983 C 0.36370 0.37790 -0.08483
 C984 C 0.34719 0.35829 -0.10453
 C985 C 0.41493 0.40793 -0.06884
 C986 C 0.42849 0.42891 -0.05475
 H987 H 0.41529 0.34161 -0.14579
 H988 H 0.44436 0.37625 -0.11114
 H989 H 0.34899 0.38862 -0.06824
 H990 H 0.31994 0.35395 -0.10286
 C991 C 1.18517 0.32438 -0.16462
 C992 C 1.17101 0.34072 -0.14725
 C993 C 1.15348 0.36082 -0.12718
 C994 C 1.15320 0.39604 -0.12958
 C995 C 1.13415 0.41554 -0.11130
 C996 C 1.11536 0.39989 -0.09050
 C997 C 1.11621 0.36471 -0.08777
 C998 C 1.13524 0.34522 -0.10605
 C999 C 1.09305 0.41954 -0.07340
 C1000 C 1.07296 0.43532 -0.05981
 H1001 H 1.16708 0.40837 -0.14592
 H1002 H 1.13343 0.44268 -0.11378
 H1003 H 1.10152 0.35232 -0.07192
 H1004 H 1.13514 0.31800 -0.10408
 C1005 C 0.68182 0.81850 0.33722
 C1006 C 0.66689 0.83352 0.35503
 C1007 C 0.64856 0.85213 0.37564
 C1008 C 0.65341 0.88702 0.37817
 C1009 C 0.63400 0.90554 0.39689
 C1010 C 0.60964 0.88927 0.41324
 C1011 C 0.60522 0.85429 0.41106
 C1012 C 0.62463 0.83577 0.39233
 C1013 C 0.58753 0.90869 0.43077
 C1014 C 0.56786 0.92480 0.44455
 H1015 H 0.67170 0.90000 0.36529
 H1016 H 0.63747 0.93260 0.39821
 H1017 H 0.58628 0.84146 0.42341
 H1018 H 0.62051 0.80885 0.39049
 C1019 C 0.81465 0.67616 -0.16431
 C1020 C 0.82889 0.65998 -0.14685
 C1021 C 0.84653 0.64005 -0.12673
 C1022 C 0.84684 0.60481 -0.12893
 C1023 C 0.86606 0.58545 -0.11065
 C1024 C 0.88501 0.60124 -0.09007
 C1025 C 0.88410 0.63643 -0.08750
 C1026 C 0.86489 0.65579 -0.10578
 C1027 C 0.90759 0.58174 -0.07307
 C1028 C 0.92791 0.56608 -0.05961
 H1029 H 0.83287 0.59237 -0.14513
 H1030 H 0.86681 0.55829 -0.11299
 H1031 H 0.89890 0.64894 -0.07182
 H1032 H 0.86497 0.68302 -0.10396
 C1033 C 0.31702 1.18084 0.33737
 C1034 C 0.33179 1.16573 0.35521
 C1035 C 0.34997 1.14701 0.37586
 C1036 C 0.34499 1.11213 0.37838
 C1037 C 0.36432 1.09348 0.39708
 C1038 C 0.38874 1.10960 0.41341
 C1039 C 0.39327 1.14458 0.41126
 C1040 C 0.37394 1.16323 0.39255
 C1041 C 0.41086 1.09006 0.43085
 C1042 C 0.43055 1.07387 0.44456
 H1043 H 0.32666 1.09926 0.36550
 H1044 H 0.36077 1.06642 0.39838
 H1045 H 0.41226 1.15731 0.42360
 H1046 H 0.37816 1.19014 0.39071
 C1047 C 1.18532 0.67659 0.16420
 C1048 C 1.17115 0.66048 0.14667
 C1049 C 1.15364 0.64066 0.12641
 C1050 C 1.15378 0.60537 0.12823
 C1051 C 1.13481 0.58609 0.10976
 C1052 C 1.11564 0.60199 0.08933
 C1053 C 1.11606 0.63724 0.08716
 C1054 C 1.13502 0.65653 0.10565
 C1055 C 1.09341 0.58247 0.07205
 C1056 C 1.07338 0.56674 0.05835
 H1057 H 1.16796 0.59283 0.14428
 H1058 H 1.13445 0.55888 0.11179
 H1059 H 1.10109 0.64983 0.07161
 H1060 H 1.13458 0.68378 0.10410
 C1061 C 0.68255 1.18096 0.66291
 C1062 C 0.66770 1.16585 0.64512
 C1063 C 0.64940 1.14712 0.62456
 C1064 C 0.65429 1.11223 0.62211
 C1065 C 0.63486 1.09358 0.60349
 C1066 C 0.61044 1.10971 0.58716
 C1067 C 0.60599 1.14470 0.58924
 C1068 C 0.62542 1.16335 0.60787
 C1069 C 0.58826 1.09017 0.56977
 C1070 C 0.56851 1.07398 0.55611
 H1071 H 0.67263 1.09935 0.63498
 H1072 H 0.63835 1.06652 0.60225
 H1073 H 0.58700 1.15743 0.57690
 H1074 H 0.62126 1.19026 0.60965
 C1075 C 0.81670 0.32415 0.16481
 C1076 C 0.83113 0.34058 0.14753
 C1077 C 0.84891 0.36078 0.12756
 C1078 C 0.86638 0.34534 0.10597
 C1079 C 0.88540 0.36488 0.08763
 C1080 C 0.88705 0.39999 0.09075
 C1081 C 0.86908 0.41549 0.11205
 C1082 C 0.85006 0.39595 0.13039
 C1083 C 0.90916 0.41967 0.07337
 C1084 C 0.92902 0.43547 0.05949
 H1085 H 0.86582 0.31818 0.10362
 H1086 H 0.89941 0.35257 0.07139
 H1087 H 0.87038 0.44256 0.11484
 H1088 H 0.83678 0.40818 0.14706
 C1089 C 0.31659 0.81851 0.66482
 C1090 C 0.33164 0.83359 0.64703
 C1091 C 0.35013 0.85226 0.62644
 C1092 C 0.37413 0.83597 0.60981
 C1093 C 0.39357 0.85452 0.59105
 C1094 C 0.38914 0.88950 0.58877
 C1095 C 0.36474 0.90571 0.60508
 C1096 C 0.34530 0.88716 0.62383
 C1097 C 0.41121 0.90895 0.57110
 C1098 C 0.43080 0.92509 0.55718
 H1099 H 0.37826 0.80905 0.61170
 H1100 H 0.41252 0.84170 0.57874
 H1101 H 0.36124 0.93276 0.60369
 H1102 H 0.32697 0.90012 0.63664
 C1103 C 0.32522 1.17505 -0.17038
 C1104 C 0.34131 1.15945 -0.15370
 C1105 C 0.36061 1.14090 -0.13383
 C1106 C 0.37857 1.11187 -0.14155
 C1107 C 0.39736 1.09386 -0.12216
 C1108 C 0.39822 1.10488 -0.09504
 C1109 C 0.38030 1.13392 -0.08735
 C1110 C 0.36153 1.15191 -0.10672
 C1111 C 0.41720 1.08641 -0.07493
 C1112 C 0.43269 1.07144 -0.05753
 H1113 H 0.37801 1.10319 -0.16249
 H1114 H 0.41113 1.07141 -0.12827
 H1115 H 0.38082 1.14260 -0.06641
 H1116 H 0.34774 1.17434 -0.10058
 C1117 C 0.82800 0.67523 0.32805
 C1118 C 0.84424 0.65953 0.34457
 C1119 C 0.86349 0.64086 0.36441
 C1120 C 0.87772 0.60958 0.35755
 C1121 C 0.89614 0.59130 0.37702
 C1122 C 0.90034 0.60431 0.40335
 C1123 C 0.88620 0.63563 0.41015
 C1124 C 0.86780 0.65387 0.39071
 C1125 C 0.91879 0.58555 0.42362
 C1126 C 0.93388 0.57051 0.44121
 H1127 H 0.87449 0.59931 0.33724
 H1128 H 0.90697 0.56708 0.37159
 H1129 H 0.88929 0.64586 0.43049
 H1130 H 0.85687 0.67803 0.39620
 C1131 C 0.67549 1.17529 0.16984
 C1132 C 0.65937 1.15965 0.15321
 C1133 C 0.64000 1.14093 0.13350
 C1134 C 0.62289 1.11140 0.14130
 C1135 C 0.60402 1.09319 0.12210
 C1136 C 0.60223 1.10451 0.09507
 C1137 C 0.61931 1.13405 0.08729
 C1138 C 0.63816 1.15224 0.10648
 C1139 C 0.58313 1.08586 0.07515
 C1140 C 0.56752 1.07079 0.05788
 H1141 H 0.62416 1.10248 0.16218
 H1142 H 0.59092 1.07036 0.12829
 H1143 H 0.61808 1.14297 0.06642
 H1144 H 0.65128 1.17506 0.10027
 C1145 C 1.17169 0.67657 0.67126
 C1146 C 1.15553 0.66077 0.65475
 C1147 C 1.13637 0.64188 0.63501
 C1148 C 1.11923 0.61236 0.64279
 C1149 C 1.10083 0.59386 0.62347
 C1150 C 1.09957 0.60487 0.59633
 C1151 C 1.11665 0.63442 0.58859
 C1152 C 1.13502 0.65289 0.60789
 C1153 C 1.08101 0.58593 0.57625
 C1154 C 1.06585 0.57073 0.55880
 H1155 H 1.12015 0.60364 0.66374
 H1156 H 1.08772 0.57102 0.62964
 H1157 H 1.11583 0.64312 0.56764
 H1158 H 1.14821 0.67567 0.60168
 C1159 C 0.67450 0.82542 -0.17113
 C1160 C 0.65823 0.84115 -0.15464
 C1161 C 0.63862 0.85986 -0.13507
 C1162 C 0.64457 0.89441 -0.13148
 C1163 C 0.62563 0.91252 -0.11226
 C1164 C 0.60068 0.89611 -0.09663
 C1165 C 0.59461 0.86160 -0.10034
 C1166 C 0.61354 0.84351 -0.11955
 C1167 C 0.58207 0.91430 -0.07614
 C1168 C 0.56679 0.92900 -0.05847
 H1169 H 0.66391 0.90727 -0.14342
 H1170 H 0.63059 0.93917 -0.10945
 H1171 H 0.57546 0.84867 -0.08826
 H1172 H 0.60875 0.81680 -0.12220
 C1173 C 1.17220 0.32554 0.32754
 C1174 C 1.15580 0.34142 0.34386
 C1175 C 1.13622 0.36034 0.36333
 C1176 C 1.14343 0.39451 0.36774
 C1177 C 1.12476 0.41273 0.38707
 C1178 C 1.09883 0.39681 0.40200
 C1179 C 1.09146 0.36271 0.39744
 C1180 C 1.11011 0.34451 0.37812
 C1181 C 1.08062 0.41499 0.42274
 C1182 C 1.06567 0.42958 0.44064
 H1183 H 1.16358 0.40696 0.35639
 H1184 H 1.13074 0.43905 0.39054
 H1185 H 1.07155 0.35015 0.40898
 H1186 H 1.10436 0.31809 0.37486
 C1187 C 0.32590 0.82548 0.17135
 C1188 C 0.34206 0.84136 0.15487
 C1189 C 0.36142 0.86032 0.13529
 C1190 C 0.39507 0.85095 0.12923
 C1191 C 0.41377 0.86912 0.10988
 C1192 C 0.39885 0.89671 0.09660
 C1193 C 0.36528 0.90622 0.10281
 C1194 C 0.34659 0.88805 0.12216
 C1195 C 0.41752 0.91448 0.07590
 C1196 C 0.43281 0.92891 0.05809
 H1197 H 0.40674 0.82953 0.13931
 H1198 H 0.43968 0.86151 0.10510
 H1199 H 0.35351 0.92744 0.09254
 H1200 H 0.32057 0.89547 0.12674
 C1201 C 0.82801 0.32522 0.67248
 C1202 C 0.84435 0.34125 0.65621
 C1203 C 0.86378 0.36049 0.63685
 C1204 C 0.89655 0.34985 0.62927
 C1205 C 0.91518 0.36824 0.61001
 C1206 C 0.90108 0.39730 0.59832
 C1207 C 0.86843 0.40811 0.60608
 C1208 C 0.84981 0.38973 0.62535
 C1209 C 0.91944 0.41515 0.57748
 C1210 C 0.93442 0.42953 0.55947
 H1211 H 0.90755 0.32726 0.63808
 H1212 H 0.94035 0.35961 0.60401
 H1213 H 0.85726 0.43048 0.59703
 H1214 H 0.82447 0.39813 0.63110
 C1215 C 1.17175 1.18530 0.66570
 C1216 C 1.15550 1.17130 0.64820
 C1217 C 1.13615 1.15387 0.62767
 C1218 C 1.10057 1.15135 0.63003
 C1219 C 1.08201 1.13221 0.61123
 C1220 C 1.09898 1.11559 0.58997
 C1221 C 1.13447 1.11878 0.58723
 C1222 C 1.15303 1.13791 0.60603
 C1223 C 1.08052 1.09283 0.57258
 C1224 C 1.06549 1.07235 0.55899
 H1225 H 1.08730 1.16349 0.64675
 H1226 H 1.05462 1.12964 0.61368
 H1227 H 1.14787 1.10576 0.57102
 H1228 H 1.18055 1.13959 0.60409
 C1229 C 0.67323 0.68470 0.16493
 C1230 C 0.65696 0.67070 0.14742
 C1231 C 0.63740 0.65328 0.12699
 C1232 C 0.60175 0.65155 0.12921
 C1233 C 0.58291 0.63246 0.11054
 C1234 C 0.59966 0.61510 0.08957
 C1235 C 0.63523 0.61747 0.08698
 C1236 C 0.65407 0.63655 0.10565
 C1237 C 0.58079 0.59254 0.07225
 C1238 C 0.56546 0.57227 0.05867
 H1239 H 0.58862 0.66428 0.14571
 H1240 H 0.55544 0.63053 0.11288
 H1241 H 0.64847 0.60389 0.07098
 H1242 H 0.68164 0.63761 0.10382
 C1243 C 1.17161 0.81422 0.33471
 C1244 C 1.15541 0.82823 0.35225
 C1245 C 1.13616 0.84569 0.37285
 C1246 C 1.15317 0.86187 0.39430
 C1247 C 1.13471 0.88098 0.41318
 C1248 C 1.09918 0.88395 0.41070
 C1249 C 1.08208 0.86714 0.38961
 C1250 C 1.10054 0.84801 0.37073
 C1251 C 1.08077 0.90662 0.42821
 C1252 C 1.06575 0.92699 0.44192
 H1253 H 1.18072 0.86035 0.39604
 H1254 H 1.14821 0.89415 0.42925
 H1255 H 1.05465 0.86954 0.38735
 H1256 H 1.08716 0.83570 0.35415
 C1257 C 0.67259 0.31486 -0.16486
 C1258 C 0.65628 0.32890 -0.14739
 C1259 C 0.63676 0.34644 -0.12699
 C1260 C 0.65351 0.36338 -0.10579
 C1261 C 0.63473 0.38259 -0.08717
 C1262 C 0.59915 0.38490 -0.08965
 C1263 C 0.58232 0.36733 -0.11047
 C1264 C 0.60110 0.34811 -0.12910
 C1265 C 0.58036 0.40757 -0.07238
 C1266 C 0.56512 0.42793 -0.05881
 H1267 H 0.68109 0.36237 -0.10405
 H1268 H 0.64803 0.39633 -0.07130
 H1269 H 0.55485 0.36920 -0.11273
 H1270 H 0.58791 0.33522 -0.14549
 C1271 C 0.82861 1.18400 0.33414
 C1272 C 0.84491 1.16995 0.35162
 C1273 C 0.86437 1.15253 0.37214
 C1274 C 0.89996 1.15019 0.36976
 C1275 C 0.91864 1.13123 0.38864
 C1276 C 0.90177 1.11460 0.41000
 C1277 C 0.86626 1.11757 0.41272
 C1278 C 0.84760 1.13653 0.39384
 C1279 C 0.92040 1.09215 0.42759
 C1280 C 0.93554 1.07195 0.44141
 H1281 H 0.91317 1.16237 0.35300
 H1282 H 0.94604 1.12883 0.38620
 H1283 H 0.85294 1.10455 0.42900
 H1284 H 0.82006 1.13808 0.39580
 C1285 C 0.32604 0.68480 -0.16534
 C1286 C 0.34234 0.67071 -0.14787
 C1287 C 0.36194 0.65321 -0.12746
 C1288 C 0.39763 0.65184 -0.12952
 C1289 C 0.41652 0.63278 -0.11084
 C1290 C 0.39979 0.61506 -0.09000
 C1291 C 0.36416 0.61705 -0.08758
 C1292 C 0.34528 0.63611 -0.10626
 C1293 C 0.41873 0.59259 -0.07261
 C1294 C 0.43409 0.57239 -0.05893
 H1295 H 0.41076 0.66487 -0.14590
 H1296 H 0.44402 0.63117 -0.11304
 H1297 H 0.35094 0.60320 -0.07170
 H1298 H 0.31769 0.63690 -0.10455
 C1299 C 0.82861 0.81378 0.66524
 C1300 C 0.84497 0.82770 0.64774
 C1301 C 0.86445 0.84509 0.62724
 C1302 C 0.89999 0.84781 0.62984
 C1303 C 0.91864 0.86700 0.61109
 C1304 C 0.90181 0.88348 0.58968
 C1305 C 0.86638 0.88010 0.58671
 C1306 C 0.84772 0.86091 0.60546
 C1307 C 0.92033 0.90632 0.57237
 C1308 C 0.93542 0.92685 0.55885
 H1309 H 0.91313 0.83581 0.64670
 H1310 H 0.94599 0.86976 0.61372
 H1311 H 0.85309 0.89303 0.57039
 H1312 H 0.82023 0.85908 0.60336
 C1313 C 0.32711 0.31412 0.16453
 C1314 C 0.34336 0.32813 0.14699
 C1315 C 0.36284 0.34565 0.12654
 C1316 C 0.34611 0.36219 0.10511
 C1317 C 0.36484 0.38151 0.08649
 C1318 C 0.40036 0.38433 0.08923
 C1319 C 0.41718 0.36714 0.11027
 C1320 C 0.39845 0.34781 0.12889
 C1321 C 0.41904 0.40720 0.07202
 C1322 C 0.43425 0.42771 0.05854
 H1323 H 0.31856 0.36080 0.10320
 H1324 H 0.35155 0.39497 0.07045
 H1325 H 0.44460 0.36942 0.11272
 H1326 H 0.41162 0.33524 0.14547
   
