data_POSCAR
  _audit_creation_date              2014-09-24
  _audit_creation_method            'ToBaCCo'
  _symmetry_space_group_name_H-M    'P1'
  _symmetry_Int_Tables_number       1
  _symmetry_cell_setting            triclinic
  loop_
  _symmetry_equiv_pos_as_xyz
 x,y,z
_cell_length_a 53.0960
_cell_length_b 55.7593
_cell_length_c 55.0030
_cell_angle_alpha 90.027200
_cell_angle_beta 90.090100
_cell_angle_gamma 90.193300
loop_
  _atom_site_label
  _atom_site_type_symbol
  _atom_site_fract_x
  _atom_site_fract_y
  _atom_site_fract_z
O1 O 0.35638 0.32226 -0.02368
 O2 O 0.32229 0.35630 0.02293
 O3 O 0.35460 0.32184 0.02311
 O4 O 0.32430 0.35778 -0.02434
 O5 O 0.29257 0.33226 -0.02590
 O6 O 0.32396 0.29510 0.02079
 O7 O 0.29106 0.33013 0.02138
 O8 O 0.32457 0.29680 -0.02654
 Cu9 Cu 0.34245 0.34222 -0.00043
 Cu10 Cu 0.30486 0.31096 -0.00275
 C11 C 0.34644 0.30360 -0.03290
 C12 C 0.30096 0.34897 0.03028
 C13 C 0.34473 0.30220 0.02989
 C14 C 0.30314 0.35148 -0.03311
 O15 O 0.67923 0.64511 0.02519
 O16 O 0.64847 0.67940 -0.02356
 O17 O 0.68045 0.64426 -0.02213
 O18 O 0.64692 0.68016 0.02318
 O19 O 0.67861 0.70582 0.02475
 O20 O 0.71169 0.67037 -0.02228
 O21 O 0.67943 0.70587 -0.02262
 O22 O 0.71118 0.67053 0.02499
 Cu23 Cu 0.66072 0.65956 0.00066
 Cu24 Cu 0.69840 0.69076 0.00128
 C25 C 0.70060 0.65176 0.03321
 C26 C 0.65843 0.69874 -0.03113
 C27 C 0.70175 0.65105 -0.03010
 C28 C 0.65677 0.69923 0.03152
 O29 O 0.68083 0.35201 0.97540
 O30 O 0.64805 0.31500 1.02067
 O31 O 0.67972 0.35051 1.02263
 O32 O 0.64885 0.31688 0.97345
 O33 O 0.67959 0.29034 0.97391
 O34 O 0.71198 0.32578 1.02146
 O35 O 0.67994 0.28976 1.02118
 O36 O 0.71194 0.32592 0.97423
 Cu37 Cu 0.66123 0.33616 0.99809
 Cu38 Cu 0.69904 0.30535 0.99770
 C39 C 0.70193 0.34531 0.96697
 C40 C 0.65832 0.29605 1.02869
 C41 C 0.70134 0.34426 1.03024
 C42 C 0.65872 0.29774 0.96546
 O43 O 0.31762 0.64803 0.97856
 O44 O 0.35463 0.68057 1.02439
 O45 O 0.32140 0.64611 1.02576
 O46 O 0.35127 0.68194 0.97773
 O47 O 0.32166 0.70936 0.98139
 O48 O 0.29046 0.67223 1.02823
 O49 O 0.32394 0.70685 1.02861
 O50 O 0.28766 0.67522 0.98104
 Cu51 Cu 0.33916 0.66140 1.00134
 Cu52 Cu 0.30285 0.69358 1.00514
 C53 C 0.29639 0.65609 0.97181
 C54 C 0.34579 0.69938 1.03416
 C55 C 0.30068 0.65277 1.03509
 C56 C 0.34193 0.70199 0.97164
 O57 O -0.02614 0.35162 0.32284
 O58 O 0.02367 0.32027 0.35617
 O59 O 0.02206 0.35293 0.32224
 O60 O -0.02532 0.31845 0.35642
 O61 O -0.02489 0.29038 0.32821
 O62 O 0.02348 0.32431 0.29450
 O63 O 0.02407 0.29164 0.32848
 O64 O -0.02576 0.32353 0.29453
 Cu65 Cu -0.00152 0.33854 0.34232
 Cu66 Cu -0.00075 0.30462 0.30860
 C67 C -0.03408 0.34328 0.30277
 C68 C 0.03233 0.30057 0.34822
 C69 C 0.03067 0.34461 0.30244
 C70 C -0.03319 0.29842 0.34828
 O71 O 0.02276 0.68111 0.64278
 O72 O -0.02568 0.64740 0.67577
 O73 O -0.02570 0.68204 0.64414
 O74 O 0.02322 0.64654 0.67467
 O75 O 0.02435 0.67263 0.70480
 O76 O -0.02371 0.70895 0.67343
 O77 O -0.02461 0.67397 0.70547
 O78 O 0.02530 0.70720 0.67290
 Cu79 Cu -0.00150 0.66157 0.65643
 Cu80 Cu 0.00042 0.69336 0.69216
 C81 C 0.03219 0.69996 0.65203
 C82 C -0.03343 0.65478 0.69626
 C83 C -0.03275 0.70186 0.65323
 C84 C 0.03202 0.65335 0.69504
 O85 O 0.97455 0.67787 0.35322
 O86 O 1.02626 0.64509 0.32397
 O87 O 1.02305 0.67948 0.35586
 O88 O 0.97751 0.64328 0.32122
 O89 O 0.97643 0.67103 0.29264
 O90 O 1.02585 0.70501 0.32539
 O91 O 1.02558 0.67060 0.29333
 O92 O 0.97680 0.70571 0.32481
 Cu93 Cu 1.00022 0.65873 0.34148
 Cu94 Cu 1.00118 0.69076 0.30604
 C95 C 0.96736 0.69777 0.34445
 C96 C 1.03449 0.65199 0.30346
 C97 C 1.03248 0.69835 0.34657
 C98 C 0.96904 0.65101 0.30111
 O99 O 0.97852 0.31955 0.64624
 O100 O 1.02824 0.35432 0.67670
 O101 O 1.02740 0.31980 0.64521
 O102 O 0.97939 0.35455 0.67758
 O103 O 0.98009 0.32858 0.70780
 O104 O 1.02766 0.29300 0.67464
 O105 O 1.02914 0.32793 0.70655
 O106 O 0.97876 0.29335 0.67627
 Cu107 Cu 1.00329 0.33968 0.65846
 Cu108 Cu 1.00396 0.30808 0.69434
 C109 C 0.97023 0.30042 0.65591
 C110 C 1.03720 0.34715 0.69683
 C111 C 1.03566 0.30034 0.65414
 C112 C 0.97168 0.34774 0.69830
 O113 O 0.34915 0.02388 0.31316
 O114 O 0.31797 -0.02405 0.34773
 O115 O 0.35070 -0.02267 0.31283
 O116 O 0.31617 0.02252 0.34826
 O117 O 0.28548 0.02194 0.32119
 O118 O 0.32003 -0.02338 0.28571
 O119 O 0.28684 -0.02463 0.32109
 O120 O 0.31849 0.02310 0.28606
 Cu121 Cu 0.33656 0.00005 0.33320
 Cu122 Cu 0.29960 -0.00086 0.30081
 C123 C 0.33937 0.03152 0.29356
 C124 C 0.29700 -0.03241 0.34047
 C125 C 0.34138 -0.03060 0.29311
 C126 C 0.29484 0.02986 0.34090
 O127 O 0.64162 0.01830 0.68176
 O128 O 0.67716 -0.02376 0.64392
 O129 O 0.64440 -0.02764 0.67844
 O130 O 0.67444 0.02271 0.64673
 O131 O 0.70582 0.02237 0.67305
 O132 O 0.67446 -0.02708 0.70617
 O133 O 0.70773 -0.02437 0.67112
 O134 O 0.67287 0.01961 0.70826
 Cu135 Cu 0.65640 -0.00251 0.65996
 Cu136 Cu 0.69336 -0.00235 0.69235
 C137 C 0.65100 0.02599 0.70154
 C138 C 0.69838 -0.03149 0.65107
 C139 C 0.65398 -0.03577 0.69790
 C140 C 0.69537 0.03101 0.65420
 O141 O 0.35230 0.97669 0.68591
 O142 O 0.31743 1.02138 0.64997
 O143 O 0.35078 1.02339 0.68447
 O144 O 0.31979 0.97489 0.65055
 O145 O 0.28835 0.97490 0.67676
 O146 O 0.32092 1.02209 0.71231
 O147 O 0.28730 1.02144 0.67753
 O148 O 0.32121 0.97540 0.71243
 Cu149 Cu 0.33817 0.99913 0.66506
 Cu150 Cu 0.30138 0.99836 0.69750
 C151 C 0.34269 0.96835 0.70531
 C152 C 0.29638 1.02908 0.65763
 C153 C 0.34136 1.03094 0.70423
 C154 C 0.29860 0.96688 0.65753
 O155 O 0.67795 1.02547 0.35511
 O156 O 0.64797 0.97892 0.31756
 O157 O 0.67998 0.97895 0.35318
 O158 O 0.64542 1.02530 0.31992
 O159 O 0.67641 1.02832 0.29341
 O160 O 0.71119 0.98129 0.32687
 O161 O 0.67878 0.98192 0.29083
 O162 O 0.70923 1.02806 0.32895
 Cu163 Cu 0.65977 1.00189 0.33910
 Cu164 Cu 0.69709 1.00515 0.30740
 C165 C 0.69876 1.03476 0.34858
 C166 C 0.65807 0.97265 0.29764
 C167 C 0.70143 0.97211 0.34583
 C168 C 0.65480 1.03469 0.30095
 C169 C 0.89272 0.78593 0.48622
 C170 C 0.89296 0.78666 0.51113
 C171 C 0.87116 0.79836 0.51816
 N172 N 0.85763 0.80482 0.49837
 C173 C 0.87081 0.79726 0.47882
 C174 C 0.86324 0.80137 0.54249
 C175 C 0.84289 0.81624 0.54918
 C176 C 0.83110 0.81591 0.57166
 C177 C 0.81310 0.83360 0.57119
 C178 C 0.81440 0.84424 0.54844
 N179 N 0.83274 0.83368 0.53521
 C180 C 0.79952 0.86382 0.54085
 C181 C 0.79762 0.87139 0.51642
 C182 C 0.78564 0.89215 0.50885
 C183 C 0.78592 0.89188 0.48394
 C184 C 0.79806 0.87098 0.47711
 N185 N 0.80515 0.85845 0.49699
 C186 C 0.80043 0.86285 0.45291
 C187 C 0.81487 0.84269 0.44622
 C188 C 0.81344 0.83120 0.42391
 C189 C 0.83085 0.81299 0.42441
 C190 C 0.84253 0.81396 0.44697
 N191 N 0.83280 0.83222 0.46008
 C192 C 0.86251 0.79895 0.45444
 H193 H 0.90701 0.77789 0.47485
 H194 H 0.90746 0.77926 0.52273
 H195 H 0.83977 0.83870 0.47649
 H196 H 0.83503 0.80415 0.58683
 H197 H 0.80051 0.83811 0.58595
 H198 H 0.77725 0.90589 0.52011
 H199 H 0.77774 0.90536 0.47220
 H200 H 0.83452 0.80051 0.40977
 H201 H 0.83967 0.83963 0.51861
 H202 H 0.80110 0.83546 0.40885
 C203 C 0.21368 0.10716 0.51246
 C204 C 0.21351 0.10714 0.48753
 C205 C 0.20390 0.12912 0.48036
 N206 N 0.19826 0.14257 0.50007
 C207 C 0.20418 0.12915 0.51971
 C208 C 0.20187 0.13694 0.45600
 C209 C 0.18857 0.15780 0.44915
 C210 C 0.19022 0.16883 0.42661
 C211 C 0.17340 0.18755 0.42678
 C212 C 0.16195 0.18742 0.44942
 N213 N 0.17120 0.16917 0.46288
 C214 C 0.14249 0.20309 0.45662
 C215 C 0.13449 0.20558 0.48096
 C216 C 0.11307 0.21778 0.48818
 C217 C 0.11303 0.21761 0.51310
 C218 C 0.13452 0.20543 0.52028
 N219 N 0.14761 0.19808 0.50059
 C220 C 0.14267 0.20281 0.54461
 C221 C 0.16245 0.18729 0.55142
 C222 C 0.17451 0.18756 0.57380
 C223 C 0.19148 0.16896 0.57363
 C224 C 0.18934 0.15787 0.55114
 N225 N 0.17155 0.16910 0.53775
 C226 C 0.20254 0.13703 0.54409
 H227 H 0.22012 0.09264 0.52391
 H228 H 0.21979 0.09261 0.47601
 H229 H 0.16408 0.16301 0.52139
 H230 H 0.20221 0.16384 0.41155
 H231 H 0.16988 0.19976 0.41188
 H232 H 0.09899 0.22606 0.47670
 H233 H 0.09888 0.22570 0.52459
 H234 H 0.20389 0.16408 0.58844
 H235 H 0.16408 0.16320 0.47940
 H236 H 0.17135 0.19980 0.58875
 C237 C 0.13647 0.76275 0.48646
 C238 C 0.13675 0.76282 0.51138
 C239 C 0.14495 0.78541 0.51844
 N240 N 0.14971 0.79910 0.49871
 C241 C 0.14443 0.78531 0.47913
 C242 C 0.14559 0.79385 0.54265
 C243 C 0.15901 0.81474 0.54951
 C244 C 0.15701 0.82624 0.57179
 C245 C 0.17450 0.84449 0.57183
 C246 C 0.18638 0.84394 0.54940
 N247 N 0.17696 0.82565 0.53600
 C248 C 0.20650 0.85906 0.54240
 C249 C 0.21412 0.86210 0.51798
 C250 C 0.23458 0.87574 0.51054
 C251 C 0.23431 0.87566 0.48561
 C252 C 0.21368 0.86197 0.47859
 N253 N 0.20125 0.85391 0.49841
 C254 C 0.20550 0.85884 0.45431
 C255 C 0.18513 0.84383 0.44765
 C256 C 0.17269 0.84451 0.42548
 C257 C 0.15516 0.82628 0.42575
 C258 C 0.15772 0.81463 0.44789
 N259 N 0.17602 0.82548 0.46111
 C260 C 0.14448 0.79367 0.45488
 H261 H 0.13077 0.74787 0.47504
 H262 H 0.13128 0.74804 0.52300
 H263 H 0.18386 0.81906 0.47717
 H264 H 0.14449 0.82181 0.58664
 H265 H 0.17805 0.85670 0.58674
 H266 H 0.24801 0.88522 0.52185
 H267 H 0.24749 0.88509 0.47403
 H268 H 0.14224 0.82199 0.41114
 H269 H 0.18435 0.81928 0.51974
 H270 H 0.17588 0.85681 0.41058
 C271 C 0.77604 0.11561 0.49117
 C272 C 0.77599 0.11553 0.51608
 C273 C 0.78832 0.13627 0.52339
 N274 N 0.79578 0.14906 0.50381
 C275 C 0.78834 0.13643 0.48407
 C276 C 0.79092 0.14382 0.54778
 C277 C 0.80645 0.16318 0.55496
 C278 C 0.80592 0.17400 0.57765
 C279 C 0.82456 0.19120 0.57770
 C280 C 0.83600 0.19036 0.55505
 N281 N 0.82494 0.17314 0.54137
 C282 C 0.85704 0.20433 0.54807
 C283 C 0.86522 0.20656 0.52372
 C284 C 0.88781 0.21692 0.51662
 C285 C 0.88787 0.21699 0.49170
 C286 C 0.86532 0.20668 0.48437
 N287 N 0.85146 0.20036 0.50397
 C288 C 0.85726 0.20454 0.45995
 C289 C 0.83611 0.19071 0.45288
 C290 C 0.82458 0.19178 0.43026
 C291 C 0.80585 0.17467 0.43020
 C292 C 0.80644 0.16365 0.45278
 N293 N 0.82501 0.17344 0.46644
 C294 C 0.79093 0.14421 0.45976
 H295 H 0.76778 0.10197 0.47961
 H296 H 0.76769 0.10183 0.52750
 H297 H 0.83156 0.16691 0.48296
 H298 H 0.79346 0.16986 0.59264
 H299 H 0.82925 0.20290 0.59276
 H300 H 0.90270 0.22375 0.52818
 H301 H 0.90283 0.22388 0.48030
 H302 H 0.79330 0.17071 0.41518
 H303 H 0.83145 0.16679 0.52478
 H304 H 0.82926 0.20357 0.41530
 C305 C 0.48770 0.78580 0.89344
 C306 C 0.51351 0.78517 0.89297
 C307 C 0.52084 0.79553 0.87118
 N308 N 0.50038 0.80244 0.85833
 C309 C 0.48010 0.79655 0.87195
 C310 C 0.54599 0.79709 0.86287
 C311 C 0.55322 0.81071 0.84234
 C312 C 0.57632 0.80901 0.83072
 C313 C 0.57641 0.82600 0.81257
 C314 C 0.55337 0.83757 0.81362
 N315 N 0.53943 0.82826 0.83191
 C316 C 0.54629 0.85703 0.79871
 C317 C 0.52138 0.86566 0.79703
 C318 C 0.51450 0.88674 0.78548
 C319 C 0.48874 0.88781 0.78638
 C320 C 0.48070 0.86725 0.79827
 N321 N 0.50070 0.85372 0.80476
 C322 C 0.45524 0.86050 0.80148
 C323 C 0.44768 0.84109 0.81634
 C324 C 0.42391 0.83071 0.81610
 C325 C 0.42379 0.81339 0.83391
 C326 C 0.44748 0.81369 0.84457
 N327 N 0.46188 0.83069 0.83382
 C328 C 0.45475 0.79940 0.86459
 H329 H 0.47590 0.77905 0.90794
 H330 H 0.52548 0.77784 0.90704
 H331 H 0.47936 0.83666 0.83986
 H332 H 0.59157 0.79686 0.83492
 H333 H 0.59175 0.82951 0.80012
 H334 H 0.52677 0.89992 0.77717
 H335 H 0.47726 0.90203 0.77893
 H336 H 0.40799 0.80197 0.83856
 H337 H 0.52267 0.83521 0.83856
 H338 H 0.40824 0.83518 0.80436
 C339 C 0.48505 0.10925 0.21153
 C340 C 0.51085 0.10952 0.21239
 C341 C 0.51853 0.13037 0.20083
 N342 N 0.49832 0.14292 0.19309
 C343 C 0.47781 0.13003 0.19961
 C344 C 0.54377 0.13830 0.19920
 C345 C 0.55156 0.15735 0.18403
 C346 C 0.57497 0.16841 0.18507
 C347 C 0.57549 0.18516 0.16671
 C348 C 0.55237 0.18388 0.15500
 N349 N 0.53799 0.16676 0.16555
 C350 C 0.54553 0.19757 0.13442
 C351 C 0.52041 0.19974 0.12619
 C352 C 0.51329 0.21029 0.10443
 C353 C 0.48748 0.21070 0.10424
 C354 C 0.47967 0.20031 0.12585
 N355 N 0.49982 0.19365 0.13926
 C356 C 0.45437 0.19880 0.13364
 C357 C 0.44660 0.18470 0.15363
 C358 C 0.42317 0.18603 0.16464
 C359 C 0.42265 0.16865 0.18238
 C360 C 0.44582 0.15727 0.18177
 N361 N 0.46024 0.16705 0.16410
 C362 C 0.45264 0.13760 0.19653
 H363 H 0.47302 0.09542 0.21904
 H364 H 0.52261 0.09598 0.22069
 H365 H 0.47729 0.16035 0.15785
 H366 H 0.59014 0.16475 0.19768
 H367 H 0.59112 0.19694 0.16247
 H368 H 0.52542 0.21719 0.09024
 H369 H 0.47579 0.21795 0.08989
 H370 H 0.40699 0.16484 0.19436
 H371 H 0.52097 0.16018 0.15893
 H372 H 0.40796 0.19818 0.16030
 C373 C 0.49054 0.23331 0.86994
 C374 C 0.51632 0.23242 0.86936
 C375 C 0.52264 0.21057 0.85902
 N376 N 0.50154 0.19798 0.85358
 C377 C 0.48189 0.21185 0.86024
 C378 C 0.54743 0.20168 0.85682
 C379 C 0.55331 0.18038 0.84413
 C380 C 0.57600 0.16824 0.84571
 C381 C 0.57456 0.14931 0.82969
 C382 C 0.55117 0.15061 0.81851
 N383 N 0.53841 0.16967 0.82734
 C384 C 0.54274 0.13525 0.79968
 C385 C 0.51746 0.13455 0.79153
 C386 C 0.50923 0.12291 0.77068
 C387 C 0.48348 0.12453 0.77048
 C388 C 0.47681 0.13732 0.79109
 N389 N 0.49759 0.14332 0.80399
 C390 C 0.45182 0.14134 0.79882
 C391 C 0.44574 0.15621 0.81872
 C392 C 0.42267 0.15652 0.83046
 C393 C 0.42406 0.17427 0.84781
 C394 C 0.44781 0.18457 0.84592
 N395 N 0.46087 0.17346 0.82811
 C396 C 0.45632 0.20464 0.85944
 H397 H 0.47947 0.24799 0.87701
 H398 H 0.52889 0.24618 0.87615
 H399 H 0.47796 0.17910 0.82088
 H400 H 0.59201 0.17257 0.85710
 H401 H 0.58922 0.13625 0.82649
 H402 H 0.52055 0.11391 0.75714
 H403 H 0.47114 0.11682 0.75688
 H404 H 0.40913 0.17916 0.86021
 H405 H 0.52171 0.17654 0.82041
 H406 H 0.40648 0.14522 0.82688
 C407 C 0.49094 0.76648 0.13275
 C408 C 0.51673 0.76691 0.13244
 C409 C 0.52397 0.78918 0.14128
 N410 N 0.50350 0.80233 0.14702
 C411 C 0.48328 0.78852 0.14173
 C412 C 0.54894 0.79797 0.14139
 C413 C 0.55632 0.81842 0.15486
 C414 C 0.57946 0.82985 0.15298
 C415 C 0.57953 0.84808 0.16984
 C416 C 0.55625 0.84756 0.18129
 N417 N 0.54239 0.82922 0.17229
 C418 C 0.54886 0.86303 0.20035
 C419 C 0.52357 0.86609 0.20785
 C420 C 0.51603 0.88068 0.22691
 C421 C 0.49023 0.88050 0.22695
 C422 C 0.48272 0.86577 0.20794
 N423 N 0.50315 0.85716 0.19616
 C424 C 0.45742 0.86225 0.20055
 C425 C 0.45016 0.84636 0.18171
 C426 C 0.42676 0.84616 0.17043
 C427 C 0.42704 0.82776 0.15376
 C428 C 0.45044 0.81694 0.15560
 N429 N 0.46431 0.82827 0.17281
 C430 C 0.45809 0.79654 0.14227
 H431 H 0.47913 0.75182 0.12661
 H432 H 0.52879 0.75265 0.12602
 H433 H 0.48145 0.82249 0.17977
 H434 H 0.59480 0.82545 0.14087
 H435 H 0.59501 0.86031 0.17319
 H436 H 0.52782 0.89097 0.23916
 H437 H 0.47844 0.89060 0.23924
 H438 H 0.41167 0.82286 0.14180
 H439 H 0.52546 0.82298 0.17937
 H440 H 0.41105 0.85800 0.17374
 C441 C 0.89132 0.51404 0.78110
 C442 C 0.89190 0.48947 0.78107
 C443 C 0.87101 0.48184 0.79407
 N444 N 0.85770 0.50093 0.80203
 C445 C 0.87014 0.52064 0.79416
 C446 C 0.86360 0.45761 0.79676
 C447 C 0.84386 0.45009 0.81222
 C448 C 0.83275 0.42756 0.81168
 C449 C 0.81484 0.42724 0.82974
 C450 C 0.81554 0.44957 0.84083
 N451 N 0.83347 0.46329 0.83022
 C452 C 0.80044 0.45639 0.86079
 C453 C 0.79807 0.48029 0.86901
 C454 C 0.78604 0.48699 0.89030
 C455 C 0.78586 0.51156 0.89067
 C456 C 0.79775 0.51908 0.86958
 N457 N 0.80518 0.49994 0.85634
 C458 C 0.79971 0.54324 0.86202
 C459 C 0.81431 0.55072 0.84193
 C460 C 0.81283 0.57312 0.83111
 C461 C 0.83031 0.57345 0.81268
 C462 C 0.84199 0.55124 0.81277
 N463 N 0.83234 0.53760 0.83083
 C464 C 0.86169 0.54449 0.79696
 H465 H 0.90484 0.52571 0.77229
 H466 H 0.90594 0.47848 0.77224
 H467 H 0.83931 0.52122 0.83672
 H468 H 0.83701 0.41289 0.79948
 H469 H 0.80267 0.41226 0.83416
 H470 H 0.77797 0.47538 0.90402
 H471 H 0.77762 0.52262 0.90472
 H472 H 0.83396 0.58835 0.80057
 H473 H 0.83990 0.47982 0.83641
 H474 H 0.80038 0.58770 0.83592
 C475 C 0.22916 0.48563 0.12070
 C476 C 0.22925 0.51017 0.12039
 C477 C 0.21288 0.51757 0.13851
 N478 N 0.20258 0.49826 0.14961
 C479 C 0.21252 0.47870 0.13881
 C480 C 0.20833 0.54186 0.14467
 C481 C 0.19166 0.54946 0.16325
 C482 C 0.18997 0.57291 0.17151
 C483 C 0.17252 0.57303 0.18990
 C484 C 0.16398 0.54963 0.19254
 N485 N 0.17545 0.53546 0.17594
 C486 C 0.14645 0.54225 0.21048
 C487 C 0.14050 0.51809 0.21611
 C488 C 0.12472 0.51107 0.23490
 C489 C 0.12429 0.48654 0.23484
 C490 C 0.13936 0.47918 0.21568
 N491 N 0.14937 0.49854 0.20441
 C492 C 0.14267 0.45497 0.20846
 C493 C 0.15891 0.44756 0.18942
 C494 C 0.15953 0.42449 0.17997
 C495 C 0.17760 0.42430 0.16216
 C496 C 0.18735 0.44736 0.16080
 N497 N 0.17616 0.46134 0.17776
 C498 C 0.20617 0.45458 0.14410
 H499 H 0.23980 0.47423 0.10857
 H500 H 0.24013 0.52122 0.10809
 H501 H 0.18151 0.47864 0.18242
 H502 H 0.20057 0.58834 0.16529
 H503 H 0.16720 0.58855 0.20051
 H504 H 0.11463 0.52236 0.24754
 H505 H 0.11391 0.47547 0.24752
 H506 H 0.18260 0.40895 0.15117
 H507 H 0.17127 0.51764 0.17248
 H508 H 0.14801 0.40929 0.18516
 C509 C 0.76485 0.48495 0.12562
 C510 C 0.76494 0.50952 0.12598
 C511 C 0.78545 0.51647 0.13997
 N512 N 0.79798 0.49694 0.14799
 C513 C 0.78528 0.47761 0.13945
 C514 C 0.79344 0.54047 0.14333
 C515 C 0.81391 0.54710 0.15838
 C516 C 0.82606 0.56915 0.15779
 C517 C 0.84392 0.56884 0.17593
 C518 C 0.84188 0.54679 0.18744
 N519 N 0.82353 0.53367 0.17661
 C520 C 0.85567 0.53979 0.20831
 C521 C 0.85622 0.51579 0.21656
 C522 C 0.86489 0.50851 0.23915
 C523 C 0.86455 0.48392 0.23902
 C524 C 0.85570 0.47699 0.21634
 N525 N 0.85054 0.49650 0.20267
 C526 C 0.85465 0.45308 0.20781
 C527 C 0.84094 0.44639 0.18677
 C528 C 0.84270 0.42441 0.17510
 C529 C 0.82502 0.42441 0.15680
 C530 C 0.81325 0.44657 0.15746
 N531 N 0.82293 0.45977 0.17591
 C532 C 0.79303 0.45352 0.14228
 H533 H 0.75157 0.47385 0.11576
 H534 H 0.75174 0.52091 0.11646
 H535 H 0.81571 0.47582 0.18246
 H536 H 0.82246 0.58398 0.14562
 H537 H 0.85674 0.58336 0.18026
 H538 H 0.87101 0.51974 0.25410
 H539 H 0.87038 0.47244 0.25385
 H540 H 0.82129 0.40967 0.14452
 H541 H 0.81605 0.51762 0.18301
 H542 H 0.85520 0.40973 0.17942
 C543 C 0.11555 0.51222 0.77582
 C544 C 0.11665 0.48768 0.77591
 C545 C 0.13806 0.48155 0.78894
 N546 N 0.15009 0.50152 0.79676
 C547 C 0.13631 0.52030 0.78880
 C548 C 0.14701 0.45790 0.79191
 C549 C 0.16692 0.45176 0.80775
 C550 C 0.17940 0.42996 0.80766
 C551 C 0.19667 0.43077 0.82633
 C552 C 0.19419 0.45302 0.83733
 N553 N 0.17588 0.46561 0.82602
 C554 C 0.20786 0.46069 0.85799
 C555 C 0.20838 0.48472 0.86615
 C556 C 0.21847 0.49219 0.88815
 C557 C 0.21691 0.51672 0.88845
 C558 C 0.20601 0.52345 0.86658
 N559 N 0.20084 0.50385 0.85295
 C560 C 0.20268 0.54741 0.85887
 C561 C 0.18873 0.55381 0.83797
 C562 C 0.18924 0.57623 0.82707
 C563 C 0.17240 0.57544 0.80804
 C564 C 0.16206 0.55257 0.80787
 N565 N 0.17199 0.53956 0.82627
 C566 C 0.14307 0.54466 0.79168
 H567 H 0.10117 0.52290 0.76707
 H568 H 0.10331 0.47572 0.76720
 H569 H 0.16575 0.52286 0.83211
 H570 H 0.17637 0.41501 0.79543
 H571 H 0.20952 0.41655 0.83128
 H572 H 0.22626 0.48113 0.90245
 H573 H 0.22327 0.52828 0.90305
 H574 H 0.16821 0.59008 0.79578
 H575 H 0.16812 0.48164 0.83198
 H576 H 0.20054 0.59159 0.83230
 C577 C 0.26173 0.38968 0.08392
 C578 C 0.28769 0.39323 0.08063
 C579 C 0.30049 0.37980 0.06326
 C580 C 0.28759 0.36268 0.04925
 C581 C 0.26169 0.35946 0.05326
 N582 N 0.24951 0.37306 0.07007
 C583 C 0.24717 0.40468 0.10096
 N584 N 0.22293 0.41044 0.09534
 C585 C 0.20907 0.42554 0.10935
 C586 C 0.21964 0.43574 0.13030
 C587 C 0.24421 0.42948 0.13691
 C588 C 0.25804 0.41391 0.12233
 H589 H 0.32045 0.38291 0.06070
 H590 H 0.25101 0.34656 0.04271
 H591 H 0.19011 0.43011 0.10381
 H592 H 0.25282 0.43715 0.15301
 H593 H 0.29791 0.40676 0.09078
 H594 H 0.27705 0.40932 0.12765
 C595 C 0.73866 0.60812 0.08531
 C596 C 0.71242 0.60611 0.08272
 C597 C 0.69993 0.62056 0.06592
 C598 C 0.71343 0.63720 0.05190
 C599 C 0.73958 0.63894 0.05534
 N600 N 0.75142 0.62434 0.07149
 C601 C 0.75289 0.59196 0.10152
 N602 N 0.77633 0.58470 0.09474
 C603 C 0.78993 0.56883 0.10812
 C604 C 0.77999 0.55947 0.12972
 C605 C 0.75626 0.56719 0.13745
 C606 C 0.74260 0.58341 0.12338
 H607 H 0.67975 0.61859 0.06375
 H608 H 0.75071 0.65141 0.04474
 H609 H 0.80823 0.56316 0.10171
 H610 H 0.74814 0.56023 0.15408
 H611 H 0.70175 0.59298 0.09294
 H612 H 0.72423 0.58915 0.12954
 C613 C 0.74060 0.39010 0.91603
 C614 C 0.71605 0.39599 0.92338
 C615 C 0.70336 0.38117 0.93969
 C616 C 0.71497 0.36049 0.94884
 C617 C 0.73945 0.35511 0.94095
 N618 N 0.75154 0.36994 0.92513
 C619 C 0.75546 0.40603 0.89994
 N620 N 0.78109 0.40556 0.90136
 C621 C 0.79590 0.42077 0.88832
 C622 C 0.78491 0.43784 0.87300
 C623 C 0.75868 0.43812 0.87051
 C624 C 0.74388 0.42217 0.88382
 H625 H 0.68457 0.38612 0.94540
 H626 H 0.74916 0.33940 0.94763
 H627 H 0.81616 0.42006 0.89047
 H628 H 0.74971 0.45099 0.85860
 H629 H 0.70692 0.41223 0.91733
 H630 H 0.72366 0.42265 0.88149
 C631 C 0.25373 0.61584 0.91976
 C632 C 0.24354 0.63701 0.92949
 C633 C 0.25754 0.65037 0.94628
 C634 C 0.28167 0.64280 0.95330
 C635 C 0.29138 0.62191 0.94266
 N636 N 0.27738 0.60918 0.92648
 C637 C 0.23971 0.60011 0.90273
 N638 N 0.25295 0.58384 0.88946
 C639 C 0.24159 0.56754 0.87470
 C640 C 0.21529 0.56668 0.87304
 C641 C 0.20115 0.58344 0.88612
 C642 C 0.21325 0.60019 0.90103
 H643 H 0.24941 0.66650 0.95387
 H644 H 0.30997 0.61549 0.94737
 H645 H 0.25302 0.55485 0.86476
 H646 H 0.18077 0.58305 0.88532
 H647 H 0.22512 0.64337 0.92423
 H648 H 0.20187 0.61228 0.91170
 C649 C 0.08640 0.26247 0.39091
 C650 C 0.07945 0.28586 0.39756
 C651 C 0.06224 0.29842 0.38332
 C652 C 0.05180 0.28783 0.36246
 C653 C 0.05947 0.26455 0.35621
 N654 N 0.07614 0.25256 0.37052
 C655 C 0.10303 0.24770 0.40648
 N656 N 0.10089 0.22334 0.40552
 C657 C 0.11413 0.20868 0.42056
 C658 C 0.13038 0.21849 0.43803
 C659 C 0.13369 0.24339 0.43877
 C660 C 0.12021 0.25806 0.42294
 H661 H 0.05676 0.31627 0.38893
 H662 H 0.05182 0.25566 0.34033
 H663 H 0.11133 0.18947 0.41948
 H664 H 0.14633 0.25144 0.45195
 H665 H 0.08639 0.29419 0.41402
 H666 H 0.12315 0.27724 0.42381
 C667 C 0.08409 0.74088 0.60980
 C668 C 0.08537 0.74227 0.63526
 C669 C 0.06842 0.72891 0.64927
 C670 C 0.05074 0.71386 0.63790
 C671 C 0.05043 0.71274 0.61243
 N672 N 0.06664 0.72631 0.59922
 C673 C 0.10037 0.75547 0.59396
 N674 N 0.09048 0.76419 0.57294
 C675 C 0.10442 0.77696 0.55682
 C676 C 0.13013 0.78100 0.56110
 C677 C 0.14078 0.77218 0.58267
 C678 C 0.12588 0.75958 0.59930
 H679 H 0.06915 0.73028 0.66890
 H680 H 0.03689 0.70155 0.60298
 H681 H 0.09552 0.78363 0.54045
 H682 H 0.16063 0.77481 0.58645
 H683 H 0.09879 0.75402 0.64416
 H684 H 0.13436 0.75249 0.61569
 C685 C 0.91631 0.74006 0.38626
 C686 C 0.92790 0.75015 0.36572
 C687 C 0.94391 0.73614 0.35150
 C688 C 0.94852 0.71215 0.35777
 C689 C 0.93599 0.70256 0.37803
 N690 N 0.92054 0.71657 0.39159
 C691 C 0.90081 0.75480 0.40289
 N692 N 0.90081 0.77916 0.40074
 C693 C 0.88824 0.79355 0.41655
 C694 C 0.87489 0.78349 0.43601
 C695 C 0.87412 0.75847 0.43829
 C696 C 0.88709 0.74408 0.42182
 H697 H 0.95322 0.74427 0.33605
 H698 H 0.93885 0.68411 0.38343
 H699 H 0.88912 0.81281 0.41427
 H700 H 0.86383 0.75017 0.45306
 H701 H 0.92498 0.76876 0.36092
 H702 H 0.88662 0.72480 0.42410
 C703 C 0.91705 0.25789 0.61627
 C704 C 0.92590 0.24970 0.63887
 C705 C 0.94287 0.26378 0.65212
 C706 C 0.95096 0.28601 0.64299
 C707 C 0.94101 0.29387 0.62074
 N708 N 0.92464 0.27981 0.60814
 C709 C 0.90019 0.24342 0.60055
 N710 N 0.88694 0.25483 0.58278
 C711 C 0.87242 0.24281 0.56645
 C712 C 0.87105 0.21773 0.56714
 C713 C 0.88419 0.20552 0.58540
 C714 C 0.89881 0.21827 0.60214
 H715 H 0.94991 0.25711 0.66932
 H716 H 0.94652 0.31098 0.61310
 H717 H 0.86244 0.25275 0.55258
 H718 H 0.88366 0.18611 0.58623
 H719 H 0.91986 0.23272 0.64638
 H720 H 0.90956 0.20837 0.61546
 C721 C 0.38081 0.08189 0.25066
 C722 C 0.35757 0.07320 0.24206
 C723 C 0.34370 0.05717 0.25628
 C724 C 0.35281 0.04987 0.27906
 C725 C 0.37566 0.05966 0.28734
 N726 N 0.38888 0.07510 0.27312
 C727 C 0.39733 0.09768 0.23600
 N728 N 0.41549 0.11065 0.24766
 C729 C 0.43267 0.12416 0.23551
 C730 C 0.43255 0.12472 0.21005
 C731 C 0.41385 0.11189 0.19757
 C732 C 0.39621 0.09832 0.21045
 H733 H 0.32605 0.05023 0.24928
 H734 H 0.38330 0.05472 0.30488
 H735 H 0.44683 0.13397 0.24566
 H736 H 0.41340 0.11185 0.17788
 H737 H 0.35007 0.07862 0.22463
 H738 H 0.38263 0.08779 0.20037
 C739 C 0.60690 0.07118 0.74707
 C740 C 0.59499 0.05458 0.73170
 C741 C 0.60948 0.04015 0.71658
 C742 C 0.63581 0.04190 0.71705
 C743 C 0.64706 0.05869 0.73274
 N744 N 0.63248 0.07299 0.74699
 C745 C 0.59182 0.08701 0.76272
 N746 N 0.59705 0.11092 0.76355
 C747 C 0.58225 0.12658 0.77599
 C748 C 0.56085 0.11828 0.78840
 C749 C 0.55590 0.09357 0.78869
 C750 C 0.57120 0.07792 0.77571
 H751 H 0.60011 0.02736 0.70478
 H752 H 0.66734 0.06062 0.73344
 H753 H 0.58669 0.14553 0.77555
 H754 H 0.53970 0.08656 0.79834
 H755 H 0.57466 0.05306 0.73112
 H756 H 0.56682 0.05893 0.77557
 C757 C 0.38505 0.91863 0.74807
 C758 C 0.36166 0.92676 0.75659
 C759 C 0.34765 0.94272 0.74250
 C760 C 0.35680 0.95058 0.71992
 C761 C 0.37995 0.94155 0.71181
 N762 N 0.39326 0.92606 0.72587
 C763 C 0.40134 0.90247 0.76249
 N764 N 0.41897 0.88917 0.75067
 C765 C 0.43567 0.87503 0.76265
 C766 C 0.43560 0.87414 0.78811
 C767 C 0.41748 0.88739 0.80074
 C768 C 0.40031 0.90159 0.78804
 H769 H 0.32977 0.94907 0.74939
 H770 H 0.38763 0.94694 0.69443
 H771 H 0.44942 0.86496 0.75236
 H772 H 0.41710 0.88722 0.82043
 H773 H 0.35408 0.92082 0.77381
 H774 H 0.38712 0.91236 0.79823
 C775 C 0.61803 0.92313 0.25266
 C776 C 0.63709 0.93739 0.24240
 C777 C 0.65073 0.95311 0.25720
 C778 C 0.64524 0.95480 0.28209
 C779 C 0.62646 0.93981 0.29170
 N780 N 0.61357 0.92453 0.27697
 C781 C 0.60215 0.90705 0.23778
 N782 N 0.59263 0.88677 0.24811
 C783 C 0.57648 0.87198 0.23609
 C784 C 0.56847 0.87773 0.21254
 C785 C 0.57798 0.89847 0.20147
 C786 C 0.59501 0.91310 0.21396
 H787 H 0.66513 0.96433 0.24910
 H788 H 0.62185 0.94037 0.31085
 H789 H 0.56925 0.85617 0.24516
 H790 H 0.57182 0.90350 0.18340
 H791 H 0.64143 0.93639 0.22320
 H792 H 0.60163 0.92943 0.20544
 C793 C 0.38921 0.26096 0.91795
 C794 C 0.36285 0.26093 0.91603
 C795 C 0.34870 0.27494 0.93203
 C796 C 0.36086 0.28932 0.94942
 C797 C 0.38725 0.28914 0.95039
 N798 N 0.40056 0.27492 0.93508
 C799 C 0.40504 0.24561 0.90251
 N800 N 0.42567 0.23509 0.91254
 C801 C 0.44169 0.22140 0.89931
 C802 C 0.43781 0.21830 0.87427
 C803 C 0.41662 0.22893 0.86353
 C804 C 0.40002 0.24242 0.87766
 H805 H 0.32834 0.27457 0.93082
 H806 H 0.39729 0.29978 0.96374
 H807 H 0.45776 0.21333 0.90822
 H808 H 0.41316 0.22702 0.84422
 H809 H 0.35330 0.24971 0.90282
 H810 H 0.38396 0.25089 0.86913
 C811 C 0.61693 0.74213 0.91884
 C812 C 0.64061 0.75006 0.92712
 C813 C 0.65449 0.73568 0.94301
 C814 C 0.64498 0.71338 0.95057
 C815 C 0.62169 0.70577 0.94117
 N816 N 0.60847 0.72014 0.92588
 C817 C 0.60043 0.75695 0.90316
 N818 N 0.58136 0.74590 0.89084
 C819 C 0.56432 0.75824 0.87735
 C820 C 0.56562 0.78330 0.87606
 C821 C 0.58519 0.79515 0.88829
 C822 C 0.60262 0.78208 0.90189
 H823 H 0.67247 0.74218 0.94965
 H824 H 0.61370 0.68863 0.94632
 H825 H 0.54945 0.74856 0.86804
 H826 H 0.58655 0.81453 0.88777
 H827 H 0.64846 0.76709 0.92150
 H828 H 0.61694 0.79174 0.91191
 C829 C 0.39199 0.74131 0.08138
 C830 C 0.40310 0.72487 0.06542
 C831 C 0.38790 0.71070 0.05059
 C832 C 0.36163 0.71309 0.05134
 C833 C 0.35118 0.72946 0.06789
 N834 N 0.36643 0.74293 0.08246
 C835 C 0.40786 0.75704 0.09653
 N836 N 0.40273 0.75983 0.12063
 C837 C 0.41798 0.77293 0.13555
 C838 C 0.43966 0.78407 0.12623
 C839 C 0.44456 0.78222 0.10126
 C840 C 0.42885 0.76859 0.08643
 H841 H 0.39673 0.69832 0.03806
 H842 H 0.33097 0.73165 0.06912
 H843 H 0.41359 0.77415 0.15471
 H844 H 0.46095 0.79086 0.09343
 H845 H 0.42337 0.72302 0.06444
 H846 H 0.43312 0.76696 0.06725
 C847 C 0.61667 0.25213 0.07822
 C848 C 0.64028 0.24428 0.06991
 C849 C 0.65416 0.25877 0.05407
 C850 C 0.64467 0.28104 0.04656
 C851 C 0.62136 0.28847 0.05585
 N852 N 0.60819 0.27405 0.07114
 C853 C 0.60028 0.23736 0.09408
 N854 N 0.58159 0.24851 0.10665
 C855 C 0.56456 0.23626 0.12026
 C856 C 0.56543 0.21118 0.12138
 C857 C 0.58468 0.19922 0.10896
 C858 C 0.60215 0.21222 0.09526
 H859 H 0.67216 0.25242 0.04749
 H860 H 0.61339 0.30559 0.05074
 H861 H 0.54996 0.24602 0.12972
 H862 H 0.58570 0.17983 0.10936
 H863 H 0.64809 0.22729 0.07554
 H864 H 0.61621 0.20251 0.08507
 C865 C 0.25452 0.07841 0.61397
 C866 C 0.24500 0.07130 0.63669
 C867 C 0.25879 0.05544 0.65108
 C868 C 0.28212 0.04675 0.64306
 C869 C 0.29129 0.05481 0.62057
 N870 N 0.27745 0.07015 0.60682
 C871 C 0.24046 0.09442 0.59732
 N872 N 0.25338 0.10590 0.57936
 C873 C 0.24179 0.11999 0.56261
 C874 C 0.21560 0.12287 0.56315
 C875 C 0.20185 0.11142 0.58150
 C876 C 0.21416 0.09714 0.59859
 H877 H 0.25111 0.04989 0.66843
 H878 H 0.30927 0.04872 0.61373
 H879 H 0.25294 0.12863 0.54865
 H880 H 0.18155 0.11314 0.58222
 H881 H 0.22725 0.07793 0.64350
 H882 H 0.20297 0.08782 0.61203
 C883 C 0.73394 0.08651 0.39291
 C884 C 0.71037 0.07715 0.39959
 C885 C 0.69863 0.06017 0.38479
 C886 C 0.71022 0.05233 0.36324
 C887 C 0.73376 0.06232 0.35715
 N888 N 0.74493 0.07871 0.37202
 C889 C 0.74789 0.10336 0.40883
 N890 N 0.77354 0.10360 0.40802
 C891 C 0.78765 0.11733 0.42332
 C892 C 0.77590 0.13164 0.44087
 C893 C 0.74956 0.13250 0.44139
 C894 C 0.73547 0.11848 0.42535
 H895 H 0.68057 0.05302 0.39045
 H896 H 0.74354 0.05689 0.34080
 H897 H 0.80799 0.11644 0.42239
 H898 H 0.73998 0.14360 0.45461
 H899 H 0.70134 0.08221 0.41643
 H900 H 0.71514 0.11940 0.42609
 C901 C 0.73869 0.91919 0.60616
 C902 C 0.71433 0.92643 0.59950
 C903 C 0.70119 0.94232 0.61429
 C904 C 0.71218 0.95120 0.63570
 C905 C 0.73658 0.94356 0.64175
 N906 N 0.74910 0.92810 0.62695
 C907 C 0.75381 0.90322 0.59043
 N908 N 0.77943 0.90461 0.59143
 C909 C 0.79446 0.89155 0.57646
 C910 C 0.78371 0.87624 0.55909
 C911 C 0.75748 0.87383 0.55828
 C912 C 0.74246 0.88715 0.57399
 H913 H 0.68249 0.94784 0.60878
 H914 H 0.74581 0.95005 0.65804
 H915 H 0.81470 0.89363 0.57759
 H916 H 0.74869 0.86191 0.54520
 H917 H 0.70563 0.92053 0.58273
 H918 H 0.72225 0.88486 0.57313
 C919 C 0.25924 0.91602 0.38479
 C920 C 0.28548 0.91863 0.38660
 C921 C 0.29784 0.93521 0.37185
 C922 C 0.28422 0.94899 0.35507
 C923 C 0.25807 0.94550 0.35345
 N924 N 0.24635 0.92956 0.36840
 C925 C 0.24521 0.90008 0.40141
 N926 N 0.22196 0.90683 0.40925
 C927 C 0.20866 0.89370 0.42566
 C928 C 0.21873 0.87241 0.43499
 C929 C 0.24227 0.86473 0.42671
 C930 C 0.25562 0.87853 0.40994
 H931 H 0.31803 0.93743 0.37372
 H932 H 0.24687 0.95593 0.34089
 H933 H 0.19048 0.90002 0.43173
 H934 H 0.25045 0.84831 0.43361
 H935 H 0.29625 0.90863 0.39986
 H936 H 0.27384 0.87242 0.40376
 C937 C 0.09170 0.39053 0.73373
 C938 C 0.08447 0.39634 0.70987
 C939 C 0.06710 0.38189 0.69771
 C940 C 0.05680 0.36164 0.70915
 C941 C 0.06480 0.35619 0.73285
 N942 N 0.08160 0.37070 0.74445
 C943 C 0.10834 0.40643 0.74820
 N944 N 0.10631 0.40620 0.77289
 C945 C 0.11942 0.42166 0.78730
 C946 C 0.13536 0.43881 0.77684
 C947 C 0.13862 0.43878 0.75160
 C948 C 0.12529 0.42253 0.73720
 H949 H 0.06138 0.38685 0.67949
 H950 H 0.05728 0.34078 0.74238
 H951 H 0.11667 0.42118 0.80679
 H952 H 0.15104 0.45172 0.74306
 H953 H 0.09128 0.41234 0.70090
 H954 H 0.12812 0.42283 0.71774
 C955 C 0.08942 0.60963 0.26661
 C956 C 0.08500 0.60581 0.29147
 C957 C 0.06738 0.61991 0.30361
 C958 C 0.05426 0.63791 0.29112
 C959 C 0.05961 0.64150 0.26640
 N960 N 0.07657 0.62727 0.25487
 C961 C 0.10604 0.59372 0.25239
 N962 N 0.10073 0.59001 0.22844
 C963 C 0.11399 0.57434 0.21458
 C964 C 0.13375 0.56120 0.22484
 C965 C 0.14033 0.56541 0.24914
 C966 C 0.12650 0.58166 0.26301
 H967 H 0.06377 0.61648 0.32267
 H968 H 0.04983 0.65511 0.25606
 H969 H 0.10868 0.57162 0.19576
 H970 H 0.15572 0.55567 0.25743
 H971 H 0.09424 0.59151 0.30130
 H972 H 0.13172 0.58459 0.28181
 C973 C 0.91497 0.38567 0.26113
 C974 C 0.91387 0.36059 0.25897
 C975 C 0.93051 0.34648 0.27254
 C976 C 0.94762 0.35739 0.28861
 C977 C 0.94774 0.38247 0.29047
 N978 N 0.93190 0.39579 0.27664
 C979 C 0.89904 0.40160 0.24637
 N980 N 0.90930 0.42225 0.23764
 C981 C 0.89564 0.43843 0.22482
 C982 C 0.86984 0.43463 0.22078
 C983 C 0.85883 0.41344 0.22962
 C984 C 0.87345 0.39672 0.24221
 H985 H 0.92998 0.32716 0.27057
 H986 H 0.96088 0.39156 0.30243
 H987 H 0.90483 0.45447 0.21811
 H988 H 0.83892 0.41001 0.22699
 H989 H 0.90083 0.35208 0.24647
 H990 H 0.86472 0.38061 0.24930
 C991 C 0.91455 0.61132 0.73608
 C992 C 0.92014 0.60566 0.71180
 C993 C 0.93660 0.62021 0.69869
 C994 C 0.94763 0.64042 0.70961
 C995 C 0.94126 0.64574 0.73378
 N996 N 0.92531 0.63114 0.74629
 C997 C 0.89886 0.59533 0.75137
 N998 N 0.90234 0.59551 0.77594
 C999 C 0.88997 0.58011 0.79097
 C1000 C 0.87327 0.56311 0.78130
 C1001 C 0.86865 0.56311 0.75625
 C1002 C 0.88125 0.57928 0.74123
 H1003 H 0.94108 0.61532 0.68014
 H1004 H 0.94943 0.66110 0.74293
 H1005 H 0.89374 0.58062 0.81030
 H1006 H 0.85560 0.55032 0.74835
 H1007 H 0.91278 0.58969 0.70314
 H1008 H 0.87726 0.57902 0.72195
 C1009 C 0.74010 0.60785 0.91931
 C1010 C 0.71602 0.60111 0.92737
 C1011 C 0.70327 0.61558 0.94387
 C1012 C 0.71432 0.63687 0.95262
 C1013 C 0.73844 0.64303 0.94398
 N1014 N 0.75058 0.62849 0.92797
 C1015 C 0.75489 0.59233 0.90280
 N1016 N 0.78053 0.59333 0.90363
 C1017 C 0.79526 0.57850 0.89013
 C1018 C 0.78417 0.56127 0.87493
 C1019 C 0.75789 0.56047 0.87306
 C1020 C 0.74318 0.57602 0.88682
 H1021 H 0.68482 0.60983 0.94998
 H1022 H 0.74785 0.65917 0.95018
 H1023 H 0.81555 0.57964 0.89178
 H1024 H 0.74883 0.54751 0.86122
 H1025 H 0.70730 0.58448 0.92167
 H1026 H 0.72292 0.57514 0.88496
 C1027 C 0.26674 0.39597 0.91606
 C1028 C 0.29060 0.40241 0.92504
 C1029 C 0.30279 0.38748 0.94157
 C1030 C 0.29134 0.36607 0.94945
 C1031 C 0.26751 0.36021 0.93986
 N1032 N 0.25596 0.37516 0.92383
 C1033 C 0.25237 0.41187 0.89953
 N1034 N 0.22677 0.40999 0.89890
 C1035 C 0.21222 0.42481 0.88520
 C1036 C 0.22343 0.44296 0.87129
 C1037 C 0.24972 0.44480 0.87099
 C1038 C 0.26427 0.42923 0.88494
 H1039 H 0.32104 0.39300 0.94845
 H1040 H 0.25782 0.34397 0.94533
 H1041 H 0.19194 0.42287 0.88566
 H1042 H 0.25889 0.45850 0.86018
 H1043 H 0.29958 0.41913 0.92008
 H1044 H 0.28455 0.43089 0.88420
 C1045 C 0.26464 0.60878 0.08665
 C1046 C 0.28874 0.60273 0.07829
 C1047 C 0.30076 0.61741 0.06137
 C1048 C 0.28900 0.63833 0.05277
 C1049 C 0.26497 0.64391 0.06195
 N1050 N 0.25347 0.62905 0.07815
 C1051 C 0.25055 0.59279 0.10326
 N1052 N 0.22504 0.59114 0.10103
 C1053 C 0.21112 0.57561 0.11459
 C1054 C 0.22294 0.56052 0.13144
 C1055 C 0.24902 0.56259 0.13479
 C1056 C 0.26291 0.57865 0.12069
 H1057 H 0.31921 0.61217 0.05490
 H1058 H 0.25503 0.65975 0.05589
 H1059 H 0.19096 0.57457 0.11179
 H1060 H 0.25861 0.55135 0.14790
 H1061 H 0.29794 0.58641 0.08411
 H1062 H 0.28307 0.57990 0.12338
 C1063 C 0.73868 0.38684 0.08222
 C1064 C 0.71338 0.39142 0.07669
 C1065 C 0.70097 0.37724 0.05955
 C1066 C 0.71352 0.35811 0.04813
 C1067 C 0.73877 0.35385 0.05467
 N1068 N 0.75064 0.36835 0.07100
 C1069 C 0.75284 0.40261 0.09895
 N1070 N 0.77688 0.40909 0.09329
 C1071 C 0.79030 0.42481 0.10714
 C1072 C 0.77956 0.43479 0.12809
 C1073 C 0.75514 0.42781 0.13467
 C1074 C 0.74165 0.41183 0.12007
 H1075 H 0.68155 0.38136 0.05523
 H1076 H 0.74933 0.33945 0.04634
 H1077 H 0.80914 0.42988 0.10161
 H1078 H 0.74638 0.43522 0.15077
 H1079 H 0.70351 0.40630 0.08494
 H1080 H 0.72267 0.40680 0.12517
 C1081 C 0.91848 0.74569 0.61254
 C1082 C 0.92703 0.75361 0.63537
 C1083 C 0.94273 0.73887 0.64923
 C1084 C 0.94995 0.71620 0.64048
 C1085 C 0.94012 0.70867 0.61795
 N1086 N 0.92500 0.72338 0.60481
 C1087 C 0.90301 0.76080 0.59619
 N1088 N 0.88966 0.74987 0.57812
 C1089 C 0.87633 0.76239 0.56132
 C1090 C 0.87634 0.78751 0.56180
 C1091 C 0.88967 0.79926 0.58032
 C1092 C 0.90305 0.78600 0.59756
 H1093 H 0.94951 0.74546 0.66658
 H1094 H 0.94478 0.69129 0.61044
 H1095 H 0.86613 0.75278 0.54729
 H1096 H 0.89016 0.81867 0.58107
 H1097 H 0.92175 0.77091 0.64258
 H1098 H 0.91395 0.79551 0.61112
 C1099 C 0.91666 0.25716 0.39040
 C1100 C 0.92448 0.24859 0.36762
 C1101 C 0.94078 0.26242 0.35344
 C1102 C 0.94931 0.28491 0.36175
 C1103 C 0.94030 0.29312 0.38430
 N1104 N 0.92456 0.27924 0.39780
 C1105 C 0.90034 0.24295 0.40689
 N1106 N 0.88767 0.25459 0.42487
 C1107 C 0.87336 0.24281 0.44152
 C1108 C 0.87151 0.21774 0.44090
 C1109 C 0.88418 0.20530 0.42252
 C1110 C 0.89864 0.21779 0.40550
 H1111 H 0.94685 0.25533 0.33608
 H1112 H 0.94603 0.31038 0.39148
 H1113 H 0.86377 0.25295 0.45549
 H1114 H 0.88331 0.18590 0.42172
 H1115 H 0.91809 0.23150 0.36061
 H1116 H 0.90894 0.20767 0.39204
 C1117 C 0.08688 0.25980 0.61287
 C1118 C 0.07776 0.25045 0.63485
 C1119 C 0.06122 0.26407 0.64896
 C1120 C 0.05338 0.28686 0.64102
 C1121 C 0.06332 0.29559 0.61901
 N1122 N 0.07950 0.28207 0.60578
 C1123 C 0.10332 0.24555 0.59667
 N1124 N 0.10403 0.22119 0.59868
 C1125 C 0.11720 0.20726 0.58288
 C1126 C 0.13043 0.21780 0.56358
 C1127 C 0.13070 0.24286 0.56168
 C1128 C 0.11709 0.25677 0.57807
 H1129 H 0.05419 0.25651 0.66578
 H1130 H 0.05814 0.31307 0.61211
 H1131 H 0.11672 0.18795 0.58492
 H1132 H 0.14091 0.25157 0.54709
 H1133 H 0.08325 0.23278 0.64101
 H1134 H 0.11703 0.27608 0.57599
 C1135 C 0.08303 0.73966 0.38813
 C1136 C 0.07997 0.74493 0.36341
 C1137 C 0.06313 0.73131 0.34948
 C1138 C 0.04994 0.71198 0.36001
 C1139 C 0.05426 0.70702 0.38476
 N1140 N 0.07008 0.72103 0.39805
 C1141 C 0.09904 0.75450 0.40400
 N1142 N 0.08953 0.76228 0.42553
 C1143 C 0.10346 0.77535 0.44150
 C1144 C 0.12884 0.78057 0.43657
 C1145 C 0.13903 0.77268 0.41443
 C1146 C 0.12406 0.75991 0.39792
 H1147 H 0.06055 0.73588 0.33050
 H1148 H 0.04454 0.69246 0.39383
 H1149 H 0.09485 0.78131 0.45826
 H1150 H 0.15859 0.77618 0.41008
 H1151 H 0.08990 0.75985 0.35518
 H1152 H 0.13210 0.75367 0.38099
 C1153 C 0.61308 0.91089 0.73755
 C1154 C 0.60577 0.91679 0.71374
 C1155 C 0.61955 0.93370 0.70067
 C1156 C 0.64064 0.94489 0.71114
 C1157 C 0.64767 0.93820 0.73480
 N1158 N 0.63375 0.92180 0.74732
 C1159 C 0.59765 0.89469 0.75291
 N1160 N 0.59845 0.89734 0.77754
 C1161 C 0.58317 0.88460 0.79265
 C1162 C 0.56556 0.86843 0.78300
 C1163 C 0.56506 0.86465 0.75787
 C1164 C 0.58121 0.87756 0.74276
 H1165 H 0.61333 0.93838 0.68253
 H1166 H 0.66375 0.94647 0.74360
 H1167 H 0.58404 0.88779 0.81205
 H1168 H 0.55176 0.85210 0.74996
 H1169 H 0.58902 0.90927 0.70548
 H1170 H 0.58049 0.87428 0.72340
 C1171 C 0.38579 0.92134 0.25064
 C1172 C 0.36590 0.93379 0.23957
 C1173 C 0.35090 0.94901 0.25356
 C1174 C 0.35586 0.95203 0.27844
 C1175 C 0.37561 0.93888 0.28888
 N1176 N 0.38979 0.92401 0.27494
 C1177 C 0.40281 0.90569 0.23659
 N1178 N 0.41311 0.88619 0.24766
 C1179 C 0.42988 0.87169 0.23622
 C1180 C 0.43767 0.87691 0.21247
 C1181 C 0.42748 0.89694 0.20072
 C1182 C 0.40987 0.91128 0.21264
 H1183 H 0.33582 0.95880 0.24481
 H1184 H 0.37989 0.94051 0.30805
 H1185 H 0.43761 0.85645 0.24582
 H1186 H 0.43342 0.90160 0.18249
 H1187 H 0.36190 0.93174 0.22038
 H1188 H 0.40259 0.92700 0.20353
 C1189 C 0.61070 0.08516 0.26089
 C1190 C 0.60282 0.07771 0.28406
 C1191 C 0.61750 0.06165 0.29723
 C1192 C 0.64005 0.05284 0.28749
 C1193 C 0.64747 0.06090 0.26439
 N1194 N 0.63269 0.07645 0.25176
 C1195 C 0.59479 0.10084 0.24553
 N1196 N 0.59664 0.09924 0.22087
 C1197 C 0.58130 0.11176 0.20568
 C1198 C 0.56260 0.12668 0.21524
 C1199 C 0.56094 0.12936 0.24049
 C1200 C 0.57708 0.11662 0.25570
 H1201 H 0.61094 0.05582 0.31491
 H1202 H 0.66466 0.05446 0.25614
 H1203 H 0.58313 0.10949 0.18622
 H1204 H 0.54683 0.14098 0.24836
 H1205 H 0.58509 0.08346 0.29172
 H1206 H 0.57549 0.11906 0.27514
 C1207 C 0.38190 0.08421 0.74425
 C1208 C 0.38521 0.08240 0.71901
 C1209 C 0.37169 0.06521 0.70595
 C1210 C 0.35462 0.05001 0.71787
 C1211 C 0.35140 0.05274 0.74305
 N1212 N 0.36523 0.06929 0.75551
 C1213 C 0.39765 0.10062 0.75897
 N1214 N 0.40551 0.09346 0.78140
 C1215 C 0.42187 0.10672 0.79496
 C1216 C 0.43131 0.12845 0.78594
 C1217 C 0.42274 0.13668 0.76337
 C1218 C 0.40591 0.12281 0.74980
 H1219 H 0.37476 0.06366 0.68655
 H1220 H 0.33854 0.04122 0.75292
 H1221 H 0.42816 0.09996 0.81238
 H1222 H 0.42974 0.15341 0.75597
 H1223 H 0.39879 0.09348 0.70954
 H1224 H 0.39971 0.12923 0.73222
 C1225 C 0.61347 0.74371 0.07867
 C1226 C 0.60137 0.72716 0.06340
 C1227 C 0.61565 0.71234 0.04852
 C1228 C 0.64200 0.71415 0.04848
 C1229 C 0.65347 0.73080 0.06422
 N1230 N 0.63910 0.74489 0.07893
 C1231 C 0.59843 0.75977 0.09417
 N1232 N 0.60413 0.76234 0.11820
 C1233 C 0.58926 0.77523 0.13355
 C1234 C 0.56728 0.78623 0.12481
 C1235 C 0.56184 0.78468 0.09991
 C1236 C 0.57723 0.77136 0.08461
 H1237 H 0.60602 0.69980 0.03664
 H1238 H 0.67377 0.73258 0.06482
 H1239 H 0.59408 0.77623 0.15265
 H1240 H 0.54519 0.79318 0.09251
 H1241 H 0.58103 0.72562 0.06309
 H1242 H 0.57245 0.76983 0.06552
 C1243 C 0.38624 0.25861 0.07957
 C1244 C 0.39220 0.28303 0.07713
 C1245 C 0.37823 0.29730 0.06137
 C1246 C 0.35810 0.28747 0.04812
 C1247 C 0.35210 0.26318 0.05168
 N1248 N 0.36628 0.24949 0.06692
 C1249 C 0.40220 0.24273 0.09472
 N1250 N 0.42144 0.25241 0.10793
 C1251 C 0.43772 0.23879 0.12096
 C1252 C 0.43539 0.21377 0.12090
 C1253 C 0.41546 0.20329 0.10792
 C1254 C 0.39876 0.21773 0.09483
 H1255 H 0.38345 0.31598 0.05930
 H1256 H 0.33672 0.25490 0.04181
 H1257 H 0.45281 0.24743 0.13096
 H1258 H 0.41318 0.18398 0.10755
 H1259 H 0.40791 0.29098 0.08683
 H1260 H 0.38374 0.20937 0.08450
 C1261 C 0.61786 0.25704 0.91272
 C1262 C 0.61476 0.28201 0.91378
 C1263 C 0.62841 0.29532 0.93077
 C1264 C 0.64545 0.28392 0.94643
 C1265 C 0.64852 0.25901 0.94436
 N1266 N 0.63452 0.24630 0.92806
 C1267 C 0.60186 0.24211 0.89673
 N1268 N 0.59330 0.22059 0.90507
 C1269 C 0.57674 0.20692 0.89218
 C1270 C 0.56790 0.21482 0.86955
 C1271 C 0.57721 0.23642 0.86014
 C1272 C 0.59414 0.25018 0.87371
 H1273 H 0.62547 0.31451 0.93184
 H1274 H 0.66135 0.24955 0.95627
 H1275 H 0.56991 0.19026 0.89987
 H1276 H 0.57070 0.24293 0.84268
 H1277 H 0.60122 0.29105 0.90229
 H1278 H 0.60088 0.26705 0.86642
 C1279 C 0.38339 0.74594 0.92190
 C1280 C 0.36083 0.75466 0.93189
 C1281 C 0.34691 0.74017 0.94773
 C1282 C 0.35529 0.71702 0.95355
 C1283 C 0.37745 0.70874 0.94253
 N1284 N 0.39072 0.72319 0.92733
 C1285 C 0.39997 0.76057 0.90601
 N1286 N 0.41786 0.74909 0.89267
 C1287 C 0.43495 0.76105 0.87885
 C1288 C 0.43495 0.78616 0.87822
 C1289 C 0.41659 0.79848 0.89150
 C1290 C 0.39908 0.78579 0.90545
 H1291 H 0.32981 0.74721 0.95567
 H1292 H 0.38455 0.69095 0.94631
 H1293 H 0.44886 0.75101 0.86874
 H1294 H 0.41625 0.81790 0.89150
 H1295 H 0.35385 0.77235 0.92763
 H1296 H 0.38572 0.79578 0.91623
 C1297 C 0.74114 0.91951 0.38743
 C1298 C 0.71611 0.92515 0.39325
 C1299 C 0.70317 0.94202 0.37943
 C1300 C 0.71499 0.95347 0.35980
 C1301 C 0.73998 0.94726 0.35441
 N1302 N 0.75232 0.93082 0.36829
 C1303 C 0.75612 0.90285 0.40262
 N1304 N 0.78165 0.90548 0.40349
 C1305 C 0.79636 0.89209 0.41850
 C1306 C 0.78533 0.87516 0.43402
 C1307 C 0.75930 0.87143 0.43281
 C1308 C 0.74464 0.88507 0.41701
 H1309 H 0.68398 0.94633 0.38438
 H1310 H 0.74986 0.95573 0.33950
 H1311 H 0.81647 0.89525 0.41900
 H1312 H 0.75033 0.85833 0.44451
 H1313 H 0.70672 0.91732 0.40878
 H1314 H 0.72457 0.88179 0.41634
 C1315 C 0.26069 0.91594 0.61230
 C1316 C 0.28697 0.91835 0.61083
 C1317 C 0.29935 0.93467 0.62593
 C1318 C 0.28572 0.94842 0.64269
 C1319 C 0.25953 0.94514 0.64396
 N1320 N 0.24779 0.92944 0.62871
 C1321 C 0.24667 0.90019 0.59536
 N1322 N 0.22335 0.90695 0.58764
 C1323 C 0.21000 0.89394 0.57110
 C1324 C 0.22006 0.87276 0.56151
 C1325 C 0.24370 0.86510 0.56961
 C1326 C 0.25710 0.87878 0.58651
 H1327 H 0.31957 0.93672 0.62429
 H1328 H 0.24832 0.95557 0.65650
 H1329 H 0.19172 0.90023 0.56521
 H1330 H 0.25187 0.84875 0.56255
 H1331 H 0.29779 0.90840 0.59759
 H1332 H 0.27536 0.87261 0.59260
 C1333 C 0.25309 0.07868 0.38525
 C1334 C 0.24317 0.07135 0.36272
 C1335 C 0.25692 0.05567 0.34808
 C1336 C 0.28060 0.04740 0.35567
 C1337 C 0.29013 0.05568 0.37797
 N1338 N 0.27634 0.07082 0.39196
 C1339 C 0.23916 0.09454 0.40217
 N1340 N 0.25228 0.10601 0.42006
 C1341 C 0.24089 0.11999 0.43701
 C1342 C 0.21468 0.12279 0.43678
 C1343 C 0.20070 0.11133 0.41853
 C1344 C 0.21282 0.09715 0.40122
 H1345 H 0.24894 0.04993 0.33090
 H1346 H 0.30837 0.04991 0.38449
 H1347 H 0.25222 0.12863 0.45088
 H1348 H 0.18039 0.11299 0.41802
 H1349 H 0.22515 0.07765 0.35623
 H1350 H 0.20147 0.08786 0.38786
 C1351 C 0.73238 0.08573 0.61286
 C1352 C 0.70778 0.07860 0.60668
 C1353 C 0.69559 0.06113 0.62048
 C1354 C 0.70775 0.05058 0.64043
 C1355 C 0.73221 0.05839 0.64623
 N1356 N 0.74381 0.07534 0.63237
 C1357 C 0.74688 0.10282 0.59764
 N1358 N 0.77252 0.10174 0.59788
 C1359 C 0.78704 0.11552 0.58301
 C1360 C 0.77571 0.13123 0.56646
 C1361 C 0.74946 0.13341 0.56652
 C1362 C 0.73497 0.11939 0.58219
 H1363 H 0.67679 0.05557 0.61522
 H1364 H 0.74232 0.05068 0.66142
 H1365 H 0.80731 0.11355 0.58344
 H1366 H 0.74022 0.14558 0.55405
 H1367 H 0.69823 0.08568 0.59087
 H1368 H 0.71473 0.12145 0.58193
 C1369 C 0.91770 0.60711 0.26092
 C1370 C 0.91653 0.63214 0.25835
 C1371 C 0.93337 0.64662 0.27137
 C1372 C 0.95086 0.63621 0.28730
 C1373 C 0.95114 0.61115 0.28954
 N1374 N 0.93503 0.59742 0.27626
 C1375 C 0.90128 0.59087 0.24679
 N1376 N 0.91105 0.57000 0.23823
 C1377 C 0.89699 0.55386 0.22558
 C1378 C 0.87127 0.55799 0.22145
 C1379 C 0.86073 0.57935 0.23027
 C1380 C 0.87574 0.59597 0.24272
 H1381 H 0.93263 0.66590 0.26913
 H1382 H 0.96454 0.60243 0.30145
 H1383 H 0.90583 0.53766 0.21895
 H1384 H 0.84090 0.58303 0.22764
 H1385 H 0.90321 0.64034 0.24599
 H1386 H 0.86734 0.61225 0.24967
 C1387 C 0.91983 0.39203 0.73730
 C1388 C 0.92624 0.39773 0.71320
 C1389 C 0.94276 0.38302 0.70043
 C1390 C 0.95310 0.36263 0.71149
 C1391 C 0.94610 0.35741 0.73553
 N1392 N 0.93005 0.37212 0.74770
 C1393 C 0.90357 0.40789 0.75212
 N1394 N 0.90595 0.40756 0.77681
 C1395 C 0.89278 0.42263 0.79148
 C1396 C 0.87627 0.43944 0.78133
 C1397 C 0.87280 0.43960 0.75611
 C1398 C 0.88626 0.42379 0.74144
 H1399 H 0.94774 0.38788 0.68199
 H1400 H 0.95372 0.34193 0.74482
 H1401 H 0.89569 0.42198 0.81094
 H1402 H 0.85992 0.45221 0.74780
 H1403 H 0.91933 0.41376 0.70442
 H1404 H 0.88309 0.42416 0.72203
 C1405 C 0.08515 0.60928 0.73265
 C1406 C 0.07774 0.60323 0.70888
 C1407 C 0.06075 0.61782 0.69648
 C1408 C 0.05101 0.63843 0.70763
 C1409 C 0.05905 0.64399 0.73131
 N1410 N 0.07549 0.62938 0.74311
 C1411 C 0.10183 0.59360 0.74723
 N1412 N 0.10022 0.59437 0.77194
 C1413 C 0.11384 0.57957 0.78652
 C1414 C 0.13006 0.56261 0.77624
 C1415 C 0.13276 0.56203 0.75093
 C1416 C 0.11878 0.57753 0.73635
 H1417 H 0.05495 0.61275 0.67830
 H1418 H 0.05194 0.65965 0.74065
 H1419 H 0.11149 0.58054 0.80604
 H1420 H 0.14538 0.54927 0.74250
 H1421 H 0.08424 0.58704 0.70011
 H1422 H 0.12128 0.57681 0.71686
 C1423 C 0.08116 0.38757 0.26075
 C1424 C 0.08456 0.36263 0.26127
 C1425 C 0.06797 0.34839 0.27478
 C1426 C 0.04862 0.35912 0.28824
 C1427 C 0.04613 0.38413 0.28747
 N1428 N 0.06203 0.39753 0.27367
 C1429 C 0.09750 0.40334 0.24618
 N1430 N 0.08681 0.42122 0.23291
 C1431 C 0.10081 0.43720 0.22004
 C1432 C 0.12720 0.43630 0.22092
 C1433 C 0.13863 0.41790 0.23434
 C1434 C 0.12381 0.40119 0.24678
 H1435 H 0.07036 0.32911 0.27492
 H1436 H 0.03121 0.39298 0.29739
 H1437 H 0.09139 0.45104 0.20970
 H1438 H 0.15895 0.41672 0.23541
 H1439 H 0.09949 0.35427 0.25094
 H1440 H 0.13277 0.38730 0.25745
   
