data_POSCAR
  _audit_creation_date              2014-09-24
  _audit_creation_method            'ToBaCCo'
  _symmetry_space_group_name_H-M    'P1'
  _symmetry_Int_Tables_number       1
  _symmetry_cell_setting            triclinic
  loop_
  _symmetry_equiv_pos_as_xyz
 x,y,z
_cell_length_a 72.9657
_cell_length_b 72.8630
_cell_length_c 72.9481
_cell_angle_alpha 89.995400
_cell_angle_beta 89.992500
_cell_angle_gamma 90.000500
loop_
  _atom_site_label
  _atom_site_type_symbol
  _atom_site_fract_x
  _atom_site_fract_y
  _atom_site_fract_z
N1 N 0.32754 0.42278 0.92283
 N2 N 0.42435 0.82560 0.42403
 N3 N 0.92130 0.92122 0.82882
 N4 N 0.42301 -0.07720 0.32724
 N5 N 0.82572 0.32580 0.32586
 N6 N -0.17278 0.82699 0.82711
 N7 N 0.92248 0.32759 0.42278
 N8 N 0.42130 0.42146 0.82847
 N9 N 0.82711 0.92324 0.92308
 N10 N 0.32601 0.82568 0.32554
 N11 N 0.82575 0.42463 0.42419
 N12 N 0.92268 0.82736 -0.07720
 N13 N 0.32731 0.32735 0.82742
 N14 N 0.17418 0.57582 0.57592
 N15 N 0.57741 0.67267 0.07691
 N16 N 0.67424 0.17435 0.67432
 N17 N 1.07465 0.07458 0.17551
 N18 N 0.07602 0.17410 1.07617
 N19 N 0.17398 0.67401 0.67389
 N20 N 1.17400 0.17434 0.17412
 N21 N 0.67395 1.07592 0.57620
 N22 N 0.57720 0.57704 0.17265
 N23 N 0.67152 0.67176 0.17125
 N24 N 0.17423 0.07577 1.07578
 N25 N 0.57591 0.17427 0.57589
 N26 N 0.07473 0.57463 0.67531
 N27 N 0.67277 0.57711 0.07716
 N28 N 0.07582 0.67462 0.57568
 N29 N 0.57472 1.07445 0.67533
 N30 N 0.42315 0.32674 0.92309
 N31 N 0.92255 0.42289 0.32716
 N32 N 0.32748 0.92266 0.42234
 O33 O 0.20127 0.52392 0.74899
 O34 O 0.20722 0.52148 0.78037
 O35 O 0.24924 0.54902 0.72669
 O36 O 0.27952 0.54365 0.72631
 O37 O 0.22648 0.50100 0.70121
 O38 O 0.22796 0.46895 0.70798
 O39 O 0.29788 0.49916 0.77431
 O40 O 0.29280 0.53052 0.77049
 O41 O 0.25160 0.47637 0.79797
 O42 O 0.21845 0.47776 0.79169
 O43 O 0.27383 0.45220 0.75155
 O44 O 0.27279 0.45846 0.71865
 O45 O 0.29793 0.47694 0.75230
 O46 O 0.29140 0.47899 0.71817
 O47 O 0.25172 0.45206 0.77356
 O48 O 0.21788 0.45890 0.77138
 O49 O 0.27394 0.49819 0.79786
 O50 O 0.26772 0.53147 0.79197
 O51 O 0.20111 0.50142 0.72721
 O52 O 0.20799 0.46879 0.72881
 O53 O 0.24857 0.52310 0.70104
 O54 O 0.28176 0.52007 0.70848
 O55 O 0.22676 0.54899 0.74838
 O56 O 0.23104 0.54187 0.78150
 Zr57 Zr 0.22788 0.52251 0.75999
 O58 O 0.24382 0.50609 0.77760
 Zr59 Zr 0.26000 0.52225 0.72757
 O60 O 0.27755 0.50637 0.74412
 Zr61 Zr 0.22771 0.49003 0.72788
 O62 O 0.24406 0.47244 0.74394
 Zr63 Zr 0.27164 0.51070 0.77196
 O64 O 0.25578 0.52856 0.75546
 Zr65 Zr 0.23957 0.47820 0.77180
 O66 O 0.22180 0.49453 0.75573
 Zr67 Zr 0.27194 0.47844 0.73969
 O68 O 0.25558 0.49431 0.72166
 O69 O 0.23234 0.51777 0.73225
 O70 O 0.26736 0.48279 0.76748
 C71 C 0.19349 0.51448 0.73631
 C72 C 0.23620 0.55671 0.73568
 C73 C 0.23568 0.51383 0.69342
 C74 C 0.30538 0.48586 0.76554
 C75 C 0.26498 0.48505 0.80539
 C76 C 0.26498 0.44462 0.76472
 H77 H 0.24093 0.50910 0.79051
 H78 H 0.24116 0.45955 0.74091
 H79 H 0.22451 0.52559 0.72441
 H80 H 0.29046 0.50947 0.74142
 H81 H 0.28697 0.54215 0.76659
 H82 H 0.28905 0.54080 0.73550
 H83 H 0.22011 0.45033 0.76111
 H84 H 0.20174 0.46984 0.74081
 H85 H 0.27818 0.53094 0.80063
 H86 H 0.22130 0.55130 0.78036
 H87 H 0.26129 0.45131 0.71931
 H88 H 0.24024 0.46927 0.70222
 H89 H 0.20207 0.50891 0.78009
 H90 H 0.21963 0.48898 0.79923
 H91 H 0.27954 0.50880 0.70124
 H92 H 0.30011 0.48909 0.72067
 O93 O 0.24910 0.04897 0.22592
 O94 O 0.28050 0.04308 0.22845
 O95 O 0.22692 0.00091 0.20093
 O96 O 0.22658 -0.02942 0.20633
 O97 O 0.20137 0.02366 0.24893
 O98 O 0.20818 0.02230 0.28091
 O99 O 0.27445 -0.04777 0.25070
 O100 O 0.27079 -0.04262 0.21943
 O101 O 0.29814 -0.00130 0.27353
 O102 O 0.29183 0.03187 0.27210
 O103 O 0.25181 -0.02365 0.29765
 O104 O 0.21889 -0.02259 0.29144
 O105 O 0.25243 -0.04782 0.27289
 O106 O 0.21837 -0.04123 0.27098
 O107 O 0.27373 -0.00142 0.29780
 O108 O 0.27150 0.03245 0.29091
 O109 O 0.29805 -0.02375 0.25182
 O110 O 0.29225 -0.01751 0.21855
 O111 O 0.22730 0.04913 0.24837
 O112 O 0.22899 0.04232 0.28100
 O113 O 0.20125 0.00154 0.22686
 O114 O 0.20874 -0.03166 0.22984
 O115 O 0.24861 0.02342 0.20094
 O116 O 0.28171 0.01920 0.20809
 Zr117 Zr 0.26018 0.02235 0.22740
 O118 O 0.27779 0.00642 0.24383
 Zr119 Zr 0.22780 -0.00985 0.22769
 O120 O 0.24435 -0.02738 0.24357
 Zr121 Zr 0.22805 0.02252 0.25983
 O122 O 0.24412 0.00618 0.27743
 Zr123 Zr 0.27219 -0.02145 0.23926
 O124 O 0.25568 -0.00560 0.22139
 Zr125 Zr 0.27197 0.01070 0.27168
 O126 O 0.25589 0.02846 0.25534
 Zr127 Zr 0.23991 -0.02175 0.27146
 O128 O 0.22187 -0.00540 0.25559
 O129 O 0.23244 0.01786 0.23213
 O130 O 0.26769 -0.01715 0.26713
 C131 C 0.23638 0.05674 0.23530
 C132 C 0.23592 0.01395 0.19323
 C133 C 0.19359 0.01441 0.23613
 C134 C 0.26563 -0.05531 0.26393
 C135 C 0.30557 -0.01473 0.26492
 C136 C 0.26494 -0.01473 0.30523
 H137 H 0.29069 0.00932 0.24082
 H138 H 0.24108 0.00909 0.29030
 H139 H 0.22458 0.02566 0.22430
 H140 H 0.24165 -0.04031 0.24048
 H141 H 0.26689 -0.03676 0.20781
 H142 H 0.23581 -0.03892 0.20916
 H143 H 0.26122 0.03023 0.29947
 H144 H 0.24095 0.04863 0.27989
 H145 H 0.30092 -0.02797 0.21912
 H146 H 0.28058 0.02896 0.19867
 H147 H 0.21961 -0.01111 0.29864
 H148 H 0.20250 0.00997 0.28068
 H149 H 0.28016 0.04829 0.24097
 H150 H 0.29934 0.03072 0.26087
 H151 H 0.20150 -0.02946 0.24110
 H152 H 0.22078 -0.04987 0.26081
 O153 O 0.47625 0.79890 0.25098
 O154 O 0.47884 0.79306 0.21954
 O155 O 0.45129 0.75081 0.27309
 O156 O 0.45672 0.72049 0.27346
 O157 O 0.49926 0.77361 0.29866
 O158 O 0.53126 0.77222 0.29185
 O159 O 0.50112 0.70222 0.22549
 O160 O 0.46983 0.70732 0.22921
 O161 O 0.52388 0.74870 0.20185
 O162 O 0.52247 0.78186 0.20820
 O163 O 0.54799 0.72629 0.24817
 O164 O 0.54180 0.72736 0.28111
 O165 O 0.52328 0.70215 0.24753
 O166 O 0.52132 0.70871 0.28163
 O167 O 0.54813 0.74850 0.22624
 O168 O 0.54129 0.78240 0.22853
 O169 O 0.50217 0.72624 0.20193
 O170 O 0.46891 0.73245 0.20777
 O171 O 0.49871 0.79905 0.27277
 O172 O 0.53135 0.79226 0.27104
 O173 O 0.47718 0.75150 0.29877
 O174 O 0.48023 0.71827 0.29128
 O175 O 0.45130 0.77334 0.25140
 O176 O 0.45848 0.76918 0.21830
 Zr177 Zr 0.47777 0.77230 0.23985
 O178 O 0.49420 0.75638 0.22222
 Zr179 Zr 0.47805 0.74008 0.27222
 O180 O 0.49394 0.72256 0.25565
 Zr181 Zr 0.51019 0.77246 0.27198
 O182 O 0.52778 0.75613 0.25590
 Zr183 Zr 0.48963 0.72851 0.22781
 O184 O 0.47176 0.74435 0.24433
 Zr185 Zr 0.52204 0.76067 0.22804
 O186 O 0.50570 0.77842 0.24414
 Zr187 Zr 0.52182 0.72820 0.26010
 O188 O 0.50594 0.74454 0.27815
 O189 O 0.48250 0.76779 0.26758
 O190 O 0.51748 0.73282 0.23232
 C191 C 0.48562 0.80666 0.26373
 C192 C 0.44360 0.76386 0.26409
 C193 C 0.48643 0.76438 0.30642
 C194 C 0.51437 0.69468 0.23429
 C195 C 0.51527 0.73527 0.19441
 C196 C 0.55555 0.73518 0.23501
 H197 H 0.49119 0.75929 0.20932
 H198 H 0.54066 0.75904 0.25893
 H199 H 0.47466 0.77558 0.27545
 H200 H 0.49085 0.70963 0.25834
 H201 H 0.45821 0.71315 0.23313
 H202 H 0.45955 0.71100 0.26421
 H203 H 0.54987 0.78013 0.23878
 H204 H 0.53023 0.79857 0.25908
 H205 H 0.46948 0.72199 0.19908
 H206 H 0.44906 0.77894 0.21944
 H207 H 0.54899 0.73884 0.28040
 H208 H 0.53100 0.75989 0.29755
 H209 H 0.49135 0.79829 0.21993
 H210 H 0.51123 0.78073 0.20071
 H211 H 0.49147 0.72050 0.29855
 H212 H 0.51118 0.70003 0.27919
 O213 O 0.04893 0.72625 0.74882
 O214 O 0.04307 0.72877 0.78024
 O215 O 0.00093 0.70118 0.72669
 O216 O -0.02933 0.70660 0.72621
 O217 O 0.02369 0.74929 0.70114
 O218 O 0.02222 0.78132 0.70797
 O219 O -0.04768 0.75096 0.77426
 O220 O -0.04254 0.71963 0.77050
 O221 O -0.00132 0.77378 0.79796
 O222 O 0.03180 0.77244 0.79162
 O223 O -0.02371 0.79795 0.75164
 O224 O -0.02260 0.79180 0.71870
 O225 O -0.04777 0.77317 0.75224
 O226 O -0.04118 0.77125 0.71814
 O227 O -0.00155 0.79810 0.77360
 O228 O 0.03232 0.79132 0.77131
 O229 O -0.02371 0.75201 0.79784
 O230 O -0.01745 0.71872 0.79196
 O231 O 0.04907 0.74879 0.72707
 O232 O 0.04221 0.78144 0.72879
 O233 O 0.00165 0.72714 0.70100
 O234 O -0.03155 0.73016 0.70846
 O235 O 0.02341 0.70120 0.74837
 O236 O 0.01926 0.70837 0.78147
 Zr237 Zr 0.02236 0.72771 0.75992
 O238 O 0.00641 0.74410 0.77756
 Zr239 Zr -0.00979 0.72798 0.72753
 O240 O -0.02733 0.74383 0.74411
 Zr241 Zr 0.02249 0.76020 0.72783
 O242 O 0.00614 0.77778 0.74391
 Zr243 Zr -0.02140 0.73949 0.77194
 O244 O -0.00555 0.72164 0.75541
 Zr245 Zr 0.01065 0.77200 0.77176
 O246 O 0.02842 0.75568 0.75567
 Zr247 Zr -0.02175 0.77176 0.73969
 O248 O -0.00538 0.75592 0.72163
 O249 O 0.01787 0.73246 0.73219
 O250 O -0.01714 0.76739 0.76747
 C251 C 0.05669 0.73569 0.73611
 C252 C 0.01394 0.69347 0.73570
 C253 C 0.01450 0.73644 0.69336
 C254 C -0.05522 0.76421 0.76546
 C255 C -0.01473 0.76513 0.80537
 C256 C -0.01487 0.80551 0.76482
 H257 H 0.00932 0.74109 0.79046
 H258 H 0.00902 0.79068 0.74089
 H259 H 0.02567 0.72462 0.72433
 H260 H -0.04024 0.74072 0.74140
 H261 H -0.03669 0.70801 0.76659
 H262 H -0.03879 0.70936 0.73551
 H263 H 0.03003 0.79993 0.76108
 H264 H 0.04849 0.78034 0.74077
 H265 H -0.02790 0.71926 0.80064
 H266 H 0.02901 0.69895 0.78032
 H267 H -0.01114 0.79901 0.71942
 H268 H 0.00991 0.78105 0.70226
 H269 H 0.04826 0.74132 0.77989
 H270 H 0.03068 0.76118 0.79910
 H271 H -0.02932 0.74141 0.70118
 H272 H -0.04983 0.76109 0.72057
 O273 O 0.04885 0.02395 0.00107
 O274 O 0.04289 0.02144 -0.03032
 O275 O 0.00095 0.04906 0.02338
 O276 O -0.02935 0.04372 0.02375
 O277 O 0.02361 0.00097 0.04888
 O278 O 0.02219 -0.03105 0.04207
 O279 O -0.04782 -0.00071 -0.02411
 O280 O -0.04264 0.03062 -0.02041
 O281 O -0.00157 -0.02366 -0.04784
 O282 O 0.03160 -0.02223 -0.04164
 O283 O -0.02378 -0.04774 -0.00147
 O284 O -0.02267 -0.04149 0.03147
 O285 O -0.04787 -0.02295 -0.00211
 O286 O -0.04128 -0.02099 0.03197
 O287 O -0.00162 -0.04793 -0.02343
 O288 O 0.03221 -0.04108 -0.02130
 O289 O -0.02393 -0.00186 -0.04771
 O290 O -0.01761 0.03144 -0.04194
 O291 O 0.04900 0.00148 0.02289
 O292 O 0.04214 -0.03118 0.02123
 O293 O 0.00156 0.02310 0.04904
 O294 O -0.03161 0.02018 0.04161
 O295 O 0.02338 0.04901 0.00163
 O296 O 0.01908 0.04186 -0.03147
 Zr297 Zr 0.02224 0.02252 -0.00994
 O298 O 0.00627 0.00610 -0.02753
 Zr299 Zr -0.00986 0.02229 0.02251
 O300 O -0.02742 0.00642 0.00598
 Zr301 Zr 0.02241 -0.00995 0.02219
 O302 O 0.00604 -0.02754 0.00616
 Zr303 Zr -0.02154 0.01073 -0.02186
 O304 O -0.00565 0.02859 -0.00539
 Zr305 Zr 0.01051 -0.02179 -0.02171
 O306 O 0.02831 -0.00546 -0.00566
 Zr307 Zr -0.02184 -0.02151 0.01042
 O308 O -0.00545 -0.00565 0.02843
 O309 O 0.01780 0.01779 0.01781
 O310 O -0.01728 -0.01718 -0.01737
 C311 C 0.05662 0.01454 0.01379
 C312 C 0.01397 0.05674 0.01435
 C313 C 0.01441 0.01380 0.05668
 C314 C -0.05535 -0.01398 -0.01532
 C315 C -0.01500 -0.01503 -0.05523
 C316 C -0.01491 -0.05534 -0.01461
 H317 H 0.00914 0.00910 -0.04044
 H318 H 0.00893 -0.04043 0.00919
 H319 H 0.02562 0.02561 0.02566
 H320 H -0.04032 0.00953 0.00871
 H321 H -0.03676 0.04224 -0.01654
 H322 H -0.03888 0.04088 0.01455
 H323 H 0.03001 -0.04962 -0.01100
 H324 H 0.04842 -0.03008 0.00925
 H325 H -0.02808 0.03089 -0.05060
 H326 H 0.02884 0.05128 -0.03035
 H327 H -0.01122 -0.04873 0.03072
 H328 H 0.00989 -0.03079 0.04779
 H329 H 0.04804 0.00887 -0.03001
 H330 H 0.03040 -0.01103 -0.04919
 H331 H -0.02944 0.00888 0.04883
 H332 H -0.04992 -0.01082 0.02954
 O333 O 0.04883 0.52420 0.50094
 O334 O 0.04291 0.52169 0.46954
 O335 O 0.00090 0.54929 0.52320
 O336 O -0.02939 0.54395 0.52357
 O337 O 0.02356 0.50118 0.54870
 O338 O 0.02215 0.46917 0.54186
 O339 O -0.04784 0.49957 0.47567
 O340 O -0.04264 0.53087 0.47936
 O341 O -0.00150 0.47665 0.45192
 O342 O 0.03162 0.47801 0.45819
 O343 O -0.02381 0.45251 0.49828
 O344 O -0.02271 0.45872 0.53121
 O345 O -0.04791 0.47734 0.49768
 O346 O -0.04130 0.47923 0.53175
 O347 O -0.00164 0.45234 0.47633
 O348 O 0.03220 0.45918 0.47852
 O349 O -0.02388 0.49843 0.45204
 O350 O -0.01760 0.53172 0.45787
 O351 O 0.04897 0.50171 0.52274
 O352 O 0.04211 0.46906 0.52103
 O353 O 0.00151 0.52332 0.54886
 O354 O -0.03165 0.52040 0.54140
 O355 O 0.02335 0.54926 0.50147
 O356 O 0.01910 0.54212 0.46837
 Zr357 Zr 0.02223 0.52277 0.48989
 O358 O 0.00627 0.50636 0.47228
 Zr359 Zr -0.00989 0.52252 0.52232
 O360 O -0.02744 0.50666 0.50576
 Zr361 Zr 0.02238 0.49028 0.52200
 O362 O 0.00601 0.47271 0.50595
 Zr363 Zr -0.02154 0.51098 0.47792
 O364 O -0.00566 0.52884 0.49442
 Zr365 Zr 0.01051 0.47847 0.47809
 O366 O 0.02829 0.49479 0.49416
 Zr367 Zr -0.02187 0.47873 0.51019
 O368 O -0.00549 0.49458 0.52822
 O369 O 0.01777 0.51803 0.51764
 O370 O -0.01729 0.48307 0.48240
 C371 C 0.05659 0.51479 0.51366
 C372 C 0.01393 0.55698 0.51418
 C373 C 0.01435 0.51400 0.55650
 C374 C -0.05539 0.48633 0.48449
 C375 C -0.01491 0.48530 0.44451
 C376 C -0.01493 0.44492 0.48513
 H377 H 0.00917 0.50937 0.45938
 H378 H 0.00890 0.45981 0.50897
 H379 H 0.02558 0.52585 0.52550
 H380 H -0.04034 0.50978 0.50849
 H381 H -0.03678 0.54249 0.48326
 H382 H -0.03890 0.54113 0.51434
 H383 H 0.02997 0.45061 0.48880
 H384 H 0.04840 0.47017 0.50906
 H385 H -0.02805 0.53118 0.44920
 H386 H 0.02886 0.55153 0.46949
 H387 H -0.01126 0.45149 0.53048
 H388 H 0.00984 0.46942 0.54757
 H389 H 0.04809 0.50914 0.46987
 H390 H 0.03049 0.48927 0.45069
 H391 H -0.02947 0.50911 0.54863
 H392 H -0.04992 0.48943 0.52935
 O393 O 0.50125 0.04873 0.52392
 O394 O 0.46985 0.04283 0.52134
 O395 O 0.52337 0.00061 0.54892
 O396 O 0.52386 -0.02969 0.54343
 O397 O 0.54900 0.02353 0.50099
 O398 O 0.54227 0.02213 0.46898
 O399 O 0.47599 -0.04800 0.49901
 O400 O 0.47962 -0.04288 0.53030
 O401 O 0.45230 -0.00152 0.47622
 O402 O 0.45858 0.03164 0.47766
 O403 O 0.49868 -0.02382 0.45212
 O404 O 0.53157 -0.02276 0.45835
 O405 O 0.49804 -0.04802 0.47686
 O406 O 0.53211 -0.04138 0.47884
 O407 O 0.47674 -0.00162 0.45197
 O408 O 0.47894 0.03226 0.45888
 O409 O 0.45238 -0.02399 0.49791
 O410 O 0.45815 -0.01780 0.53118
 O411 O 0.52305 0.04893 0.50147
 O412 O 0.52144 0.04213 0.46884
 O413 O 0.54911 0.00140 0.52306
 O414 O 0.54169 -0.03184 0.51994
 O415 O 0.50168 0.02312 0.54890
 O416 O 0.46861 0.01893 0.54166
 Zr417 Zr 0.49018 0.02211 0.52240
 O418 O 0.47261 0.00617 0.50594
 Zr419 Zr 0.52260 -0.01007 0.52212
 O420 O 0.50607 -0.02760 0.50621
 Zr421 Zr 0.52235 0.02234 0.49001
 O422 O 0.50633 0.00600 0.47238
 Zr423 Zr 0.47823 -0.02169 0.51049
 O424 O 0.49470 -0.00585 0.52839
 Zr425 Zr 0.47846 0.01049 0.47810
 O426 O 0.49450 0.02825 0.49448
 Zr427 Zr 0.51055 -0.02194 0.47833
 O428 O 0.52855 -0.00558 0.49424
 O429 O 0.51793 0.01764 0.51771
 O430 O 0.48276 -0.01736 0.48263
 C431 C 0.51396 0.05653 0.51454
 C432 C 0.51435 0.01363 0.55662
 C433 C 0.55675 0.01431 0.51382
 C434 C 0.48483 -0.05552 0.48579
 C435 C 0.44487 -0.01496 0.48481
 C436 C 0.48555 -0.01491 0.44454
 H437 H 0.45970 0.00906 0.50893
 H438 H 0.50938 0.00892 0.45951
 H439 H 0.52575 0.02545 0.52557
 H440 H 0.50878 -0.04053 0.50930
 H441 H 0.48351 -0.03705 0.54192
 H442 H 0.51459 -0.03916 0.54062
 H443 H 0.48922 0.03003 0.45032
 H444 H 0.50947 0.04843 0.46993
 H445 H 0.44948 -0.02826 0.53060
 H446 H 0.46972 0.02868 0.55110
 H447 H 0.53091 -0.01122 0.45123
 H448 H 0.54800 0.00981 0.46925
 H449 H 0.47022 0.04805 0.50882
 H450 H 0.45108 0.03049 0.48889
 H451 H 0.54898 -0.02957 0.50873
 H452 H 0.52968 -0.05006 0.48898
 O453 O 0.54914 0.52369 0.00092
 O454 O 0.54320 0.52112 -0.03050
 O455 O 0.50123 0.54876 0.02318
 O456 O 0.47092 0.54339 0.02355
 O457 O 0.52399 0.50077 0.04869
 O458 O 0.52250 0.46870 0.04195
 O459 O 0.45249 0.49892 -0.02427
 O460 O 0.45766 0.53026 -0.02060
 O461 O 0.49876 0.47598 -0.04799
 O462 O 0.53192 0.47743 -0.04179
 O463 O 0.47658 0.45192 -0.00157
 O464 O 0.47766 0.45818 0.03132
 O465 O 0.45246 0.47670 -0.00226
 O466 O 0.45908 0.47872 0.03185
 O467 O 0.49873 0.45173 -0.02355
 O468 O 0.53256 0.45862 -0.02143
 O469 O 0.47639 0.49777 -0.04788
 O470 O 0.48268 0.53108 -0.04213
 O471 O 0.54931 0.50123 0.02274
 O472 O 0.54248 0.46855 0.02109
 O473 O 0.50191 0.52288 0.04884
 O474 O 0.46871 0.51985 0.04145
 O475 O 0.52368 0.54871 0.00145
 O476 O 0.51937 0.54154 -0.03166
 Zr477 Zr 0.52254 0.52221 -0.01013
 O478 O 0.50658 0.50577 -0.02770
 Zr479 Zr 0.49044 0.52199 0.02233
 O480 O 0.47289 0.50609 0.00582
 Zr481 Zr 0.52274 0.48977 0.02204
 O482 O 0.50637 0.47216 0.00602
 Zr483 Zr 0.47877 0.51038 -0.02203
 O484 O 0.49465 0.52827 -0.00558
 Zr485 Zr 0.51084 0.47789 -0.02186
 O486 O 0.52863 0.49424 -0.00582
 Zr487 Zr 0.47849 0.47816 0.01028
 O488 O 0.49487 0.49406 0.02828
 O489 O 0.51809 0.51750 0.01762
 O490 O 0.48305 0.48248 -0.01751
 C491 C 0.55690 0.51432 0.01366
 C492 C 0.51427 0.55643 0.01418
 C493 C 0.51482 0.51364 0.05646
 C494 C 0.44498 0.48565 -0.01547
 C495 C 0.48532 0.48460 -0.05539
 C496 C 0.48545 0.44431 -0.01471
 H497 H 0.50945 0.50876 -0.04061
 H498 H 0.50928 0.45927 0.00907
 H499 H 0.52591 0.52534 0.02545
 H500 H 0.45998 0.50920 0.00854
 H501 H 0.46352 0.54188 -0.01672
 H502 H 0.46138 0.54052 0.01438
 H503 H 0.53036 0.45008 -0.01112
 H504 H 0.54877 0.46966 0.00912
 H505 H 0.47222 0.53052 -0.05078
 H506 H 0.52913 0.55096 -0.03055
 H507 H 0.48916 0.45104 0.03066
 H508 H 0.51023 0.46903 0.04772
 H509 H 0.54838 0.50857 -0.03015
 H510 H 0.53074 0.48865 -0.04933
 H511 H 0.47094 0.50859 0.04872
 H512 H 0.45040 0.48885 0.02938
 O513 O 0.79877 0.25147 0.47627
 O514 O 0.79288 0.22001 0.47889
 O515 O 0.75080 0.27365 0.45126
 O516 O 0.72052 0.27408 0.45668
 O517 O 0.77359 0.29927 0.49922
 O518 O 0.77217 0.29250 0.53123
 O519 O 0.70217 0.22614 0.50111
 O520 O 0.70728 0.22981 0.46984
 O521 O 0.74855 0.20240 0.52392
 O522 O 0.78165 0.20870 0.52255
 O523 O 0.72629 0.24891 0.54805
 O524 O 0.72731 0.28181 0.54178
 O525 O 0.70212 0.24821 0.52327
 O526 O 0.70873 0.28233 0.52128
 O527 O 0.74844 0.22692 0.54821
 O528 O 0.78226 0.22907 0.54131
 O529 O 0.72616 0.20248 0.50218
 O530 O 0.73236 0.20833 0.46893
 O531 O 0.79895 0.27331 0.49871
 O532 O 0.79215 0.27163 0.53135
 O533 O 0.75151 0.29939 0.47713
 O534 O 0.71832 0.29195 0.48019
 O535 O 0.77326 0.25191 0.45131
 O536 O 0.76905 0.21878 0.45851
 Zr537 Zr 0.77220 0.24037 0.47779
 O538 O 0.75626 0.22277 0.49423
 Zr539 Zr 0.74007 0.27283 0.47803
 O540 O 0.72254 0.25628 0.49393
 Zr541 Zr 0.77239 0.27257 0.51018
 O542 O 0.75605 0.25652 0.52779
 Zr543 Zr 0.72844 0.22840 0.48965
 O544 O 0.74429 0.24490 0.47176
 Zr545 Zr 0.76053 0.22862 0.52208
 O546 O 0.77829 0.24468 0.50572
 Zr547 Zr 0.72816 0.26075 0.52182
 O548 O 0.74451 0.27879 0.50592
 O549 O 0.76773 0.26815 0.48249
 O550 O 0.73273 0.23292 0.51752
 C551 C 0.80653 0.26423 0.48563
 C552 C 0.76382 0.26462 0.44358
 C553 C 0.76439 0.30704 0.48638
 C554 C 0.69464 0.23498 0.51433
 C555 C 0.73517 0.19494 0.51527
 C556 C 0.73519 0.23578 0.55565
 H557 H 0.75915 0.20985 0.49124
 H558 H 0.75896 0.25958 0.54066
 H559 H 0.77552 0.27600 0.47464
 H560 H 0.70964 0.25899 0.49083
 H561 H 0.71312 0.23373 0.45822
 H562 H 0.71101 0.26485 0.45953
 H563 H 0.78006 0.23940 0.54983
 H564 H 0.79845 0.25965 0.53023
 H565 H 0.72190 0.19965 0.46949
 H566 H 0.77881 0.21990 0.44910
 H567 H 0.73883 0.28119 0.54888
 H568 H 0.75988 0.29826 0.53093
 H569 H 0.79811 0.22041 0.49140
 H570 H 0.78055 0.20123 0.51128
 H571 H 0.72056 0.29924 0.49142
 H572 H 0.70007 0.27989 0.51114
 O573 O 0.79880 0.75132 -0.02396
 O574 O 0.79287 0.71986 -0.02142
 O575 O 0.75088 0.77361 -0.04896
 O576 O 0.72057 0.77397 -0.04358
 O577 O 0.77364 0.79911 -0.00100
 O578 O 0.77217 0.79233 0.03102
 O579 O 0.70219 0.72599 0.00085
 O580 O 0.70729 0.72974 -0.03046
 O581 O 0.74853 0.70225 0.02361
 O582 O 0.78166 0.70854 0.02223
 O583 O 0.72622 0.74867 0.04773
 O584 O 0.72735 0.78164 0.04154
 O585 O 0.70214 0.74806 0.02301
 O586 O 0.70875 0.78220 0.02103
 O587 O 0.74835 0.72665 0.04788
 O588 O 0.78222 0.72890 0.04107
 O589 O 0.72613 0.70237 0.00188
 O590 O 0.73235 0.70822 -0.03138
 O591 O 0.79898 0.77314 -0.00149
 O592 O 0.79214 0.77145 0.03115
 O593 O 0.75157 0.79927 -0.02309
 O594 O 0.71836 0.79185 -0.02004
 O595 O 0.77333 0.75186 -0.04893
 O596 O 0.76904 0.71871 -0.04180
 Zr597 Zr 0.77221 0.74025 -0.02248
 O598 O 0.75626 0.72263 -0.00606
 Zr599 Zr 0.74010 0.77272 -0.02221
 O600 O 0.72256 0.75616 -0.00634
 Zr601 Zr 0.77240 0.77241 0.00996
 O602 O 0.75605 0.75634 0.02754
 Zr603 Zr 0.72845 0.72828 -0.01065
 O604 O 0.74431 0.74479 -0.02851
 Zr605 Zr 0.76053 0.72845 0.02179
 O606 O 0.77830 0.74453 0.00546
 Zr607 Zr 0.72817 0.76060 0.02155
 O608 O 0.74454 0.77865 0.00569
 O609 O 0.76775 0.76802 -0.01774
 O610 O 0.73274 0.73278 0.01721
 C611 C 0.80657 0.76406 -0.01457
 C612 C 0.76392 0.76460 -0.05663
 C613 C 0.76447 0.80690 -0.01385
 C614 C 0.69467 0.73481 0.01409
 C615 C 0.73512 0.69482 0.01498
 C616 C 0.73506 0.73547 0.05529
 H617 H 0.75915 0.70971 -0.00907
 H618 H 0.75895 0.75938 0.04042
 H619 H 0.77557 0.77587 -0.02557
 H620 H 0.70965 0.75888 -0.00943
 H621 H 0.71313 0.73366 -0.04207
 H622 H 0.71103 0.76478 -0.04072
 H623 H 0.77995 0.73915 0.04965
 H624 H 0.79842 0.75945 0.03005
 H625 H 0.72189 0.69955 -0.03083
 H626 H 0.77880 0.71983 -0.05121
 H627 H 0.73883 0.78093 0.04871
 H628 H 0.75988 0.79808 0.03072
 H629 H 0.79810 0.72023 -0.00890
 H630 H 0.78052 0.70104 0.01099
 H631 H 0.72060 0.79913 -0.00880
 H632 H 0.70008 0.77975 0.01090
 O633 O 1.04869 0.22615 0.24903
 O634 O 1.04277 0.22871 0.28043
 O635 O 1.00072 0.20104 0.22685
 O636 O 0.97045 0.20646 0.22633
 O637 O 1.02352 0.24909 0.20126
 O638 O 1.02205 0.28113 0.20801
 O639 O 0.95202 0.25086 0.27423
 O640 O 0.95721 0.21955 0.27058
 O641 O 0.99836 0.27378 0.29798
 O642 O 1.03148 0.27241 0.29172
 O643 O 0.97609 0.29788 0.25158
 O644 O 0.97719 0.29166 0.21868
 O645 O 0.95197 0.27306 0.25219
 O646 O 0.95864 0.27110 0.21811
 O647 O 0.99823 0.29807 0.27355
 O648 O 1.03208 0.29122 0.27137
 O649 O 0.97597 0.25201 0.29787
 O650 O 0.98224 0.21871 0.29208
 O651 O 1.04887 0.24864 0.22723
 O652 O 1.04200 0.28129 0.22887
 O653 O 1.00148 0.22695 0.20112
 O654 O 0.96827 0.22998 0.20852
 O655 O 1.02318 0.20109 0.24856
 O656 O 1.01896 0.20831 0.28164
 Zr657 Zr 1.02210 0.22762 0.26008
 O658 O 1.00613 0.24405 0.27766
 Zr659 Zr 0.99000 0.22784 0.22763
 O660 O 0.97244 0.24372 0.24416
 Zr661 Zr 1.02228 0.26006 0.22792
 O662 O 1.00591 0.27766 0.24395
 Zr663 Zr 0.97832 0.23943 0.27201
 O664 O 0.99420 0.22155 0.25554
 Zr665 Zr 1.01038 0.27193 0.27182
 O666 O 1.02817 0.25559 0.25578
 Zr667 Zr 0.97803 0.27165 0.23970
 O668 O 0.99442 0.25577 0.22169
 O669 O 1.01765 0.23232 0.23233
 O670 O 0.98258 0.26734 0.26749
 C671 C 1.05647 0.23556 0.23632
 C672 C 1.01372 0.19335 0.23589
 C673 C 1.01435 0.23623 0.19349
 C674 C 0.94449 0.26409 0.26539
 C675 C 0.98494 0.26514 0.30540
 C676 C 0.98495 0.30548 0.26472
 H677 H 1.00901 0.24106 0.29056
 H678 H 1.00881 0.29055 0.24091
 H679 H 1.02547 0.22447 0.22450
 H680 H 0.95954 0.24060 0.24143
 H681 H 0.96307 0.20793 0.26669
 H682 H 0.96098 0.20925 0.23561
 H683 H 1.02985 0.29979 0.26109
 H684 H 1.04828 0.28020 0.24085
 H685 H 0.97178 0.21927 0.30074
 H686 H 1.02871 0.19889 0.28053
 H687 H 0.98868 0.29881 0.21935
 H688 H 1.00976 0.28084 0.20228
 H689 H 1.04795 0.24126 0.28007
 H690 H 1.03035 0.26116 0.29922
 H691 H 0.97052 0.24122 0.20123
 H692 H 0.94999 0.26093 0.22053
 O693 O 0.74896 1.04882 0.72617
 O694 O 0.78036 1.04292 0.72871
 O695 O 0.72679 1.00078 0.70112
 O696 O 0.72648 0.97044 0.70648
 O697 O 0.70120 1.02347 0.74910
 O698 O 0.70798 1.02209 0.78109
 O699 O 0.77433 0.95209 0.75091
 O700 O 0.77065 0.95724 0.71961
 O701 O 0.79793 0.99847 0.77382
 O702 O 0.79166 1.03168 0.77235
 O703 O 0.75159 0.97617 0.79785
 O704 O 0.71868 0.97720 0.79158
 O705 O 0.75233 0.95201 0.77311
 O706 O 0.71824 0.95854 0.77112
 O707 O 0.77350 0.99840 0.79804
 O708 O 0.77131 1.03227 0.79115
 O709 O 0.79787 0.97606 0.75206
 O710 O 0.79212 0.98235 0.71879
 O711 O 0.72713 1.04895 0.74860
 O712 O 0.72877 1.04211 0.78122
 O713 O 0.70111 1.00136 0.72702
 O714 O 0.70861 0.96817 0.72998
 O715 O 0.74848 1.02330 0.70116
 O716 O 0.78157 1.01906 0.70833
 Zr717 Zr 0.76003 1.02220 0.72763
 O718 O 0.77764 1.00625 0.74406
 Zr719 Zr 0.72766 0.98999 0.72786
 O720 O 0.74421 0.97245 0.74375
 Zr721 Zr 0.72788 1.02234 0.76003
 O722 O 0.74393 1.00599 0.77763
 Zr723 Zr 0.77204 0.97840 0.73946
 O724 O 0.75555 0.99425 0.72159
 Zr725 Zr 0.77178 1.01052 0.77191
 O726 O 0.75571 1.02829 0.75557
 Zr727 Zr 0.73973 0.97805 0.77164
 O728 O 0.72171 0.99442 0.75576
 O729 O 0.73229 1.01770 0.73234
 O730 O 0.76751 0.98268 0.76733
 C731 C 0.73623 1.05658 0.73555
 C732 C 0.73578 1.01384 0.69344
 C733 C 0.69344 1.01423 0.73629
 C734 C 0.76555 0.94455 0.76417
 C735 C 0.80536 0.98503 0.76521
 C736 C 0.76470 0.98509 0.80545
 H737 H 0.79054 1.00916 0.74107
 H738 H 0.74087 1.00889 0.79050
 H739 H 0.72443 1.02550 0.72451
 H740 H 0.74151 0.95952 0.74065
 H741 H 0.76677 0.96311 0.70800
 H742 H 0.73569 0.96092 0.70933
 H743 H 0.76100 1.03005 0.79967
 H744 H 0.74074 1.04843 0.78012
 H745 H 0.80079 0.97189 0.71935
 H746 H 0.78045 1.02882 0.69892
 H747 H 0.71938 0.98867 0.79878
 H748 H 0.70229 1.00976 0.78083
 H749 H 0.78003 1.04809 0.74125
 H750 H 0.79923 1.03048 0.76116
 H751 H 0.70137 0.97034 0.74126
 H752 H 0.72070 0.94987 0.76097
 O753 O 0.79871 0.49899 0.27385
 O754 O 0.79281 0.53044 0.27122
 O755 O 0.75075 0.47679 0.29886
 O756 O 0.72046 0.47637 0.29345
 O757 O 0.77354 0.45117 0.25091
 O758 O 0.77214 0.45793 0.21890
 O759 O 0.70211 0.52428 0.24899
 O760 O 0.70724 0.52061 0.28029
 O761 O 0.74843 0.54798 0.22612
 O762 O 0.78158 0.54174 0.22758
 O763 O 0.72622 0.50152 0.20209
 O764 O 0.72730 0.46857 0.20837
 O765 O 0.70209 0.50221 0.22682
 O766 O 0.70867 0.46808 0.22885
 O767 O 0.74838 0.52350 0.20191
 O768 O 0.78221 0.52134 0.20880
 O769 O 0.72602 0.54789 0.24785
 O770 O 0.73228 0.54214 0.28113
 O771 O 0.79890 0.47713 0.25142
 O772 O 0.79211 0.47880 0.21878
 O773 O 0.75146 0.45104 0.27300
 O774 O 0.71827 0.45848 0.26996
 O775 O 0.77319 0.49855 0.29881
 O776 O 0.76897 0.53167 0.29159
 Zr777 Zr 0.77213 0.51008 0.27232
 O778 O 0.75619 0.52767 0.25587
 Zr779 Zr 0.74001 0.47760 0.27210
 O780 O 0.72248 0.49414 0.25619
 Zr781 Zr 0.77234 0.47786 0.23995
 O782 O 0.75600 0.49390 0.22233
 Zr783 Zr 0.72838 0.52202 0.26046
 O784 O 0.74422 0.50554 0.27835
 Zr785 Zr 0.76048 0.52180 0.22803
 O786 O 0.77824 0.50575 0.24440
 Zr787 Zr 0.72811 0.48965 0.22831
 O788 O 0.74447 0.47164 0.24421
 O789 O 0.76767 0.48229 0.26764
 O790 O 0.73268 0.51748 0.23260
 C791 C 0.80648 0.48622 0.26450
 C792 C 0.76376 0.48583 0.30654
 C793 C 0.76434 0.44339 0.26375
 C794 C 0.69461 0.51545 0.23574
 C795 C 0.73499 0.55540 0.23471
 C796 C 0.73511 0.51467 0.19449
 H797 H 0.75907 0.54060 0.25885
 H798 H 0.75892 0.49084 0.20946
 H799 H 0.77547 0.47444 0.27549
 H800 H 0.70957 0.49142 0.25929
 H801 H 0.71308 0.51673 0.29191
 H802 H 0.71095 0.48560 0.29060
 H803 H 0.78001 0.51102 0.20027
 H804 H 0.79841 0.49078 0.21989
 H805 H 0.72182 0.55081 0.28056
 H806 H 0.77871 0.53057 0.30101
 H807 H 0.73878 0.46926 0.20119
 H808 H 0.75984 0.45219 0.21918
 H809 H 0.79801 0.53007 0.25870
 H810 H 0.78040 0.54928 0.23879
 H811 H 0.72050 0.45120 0.25872
 H812 H 0.70000 0.47054 0.23898
 O813 O 0.50116 0.20127 0.72602
 O814 O 0.46978 0.20717 0.72848
 O815 O 0.52336 0.24940 0.70102
 O816 O 0.52368 0.27972 0.70645
 O817 O 0.54890 0.22656 0.74893
 O818 O 0.54214 0.22796 0.78095
 O819 O 0.47568 0.29792 0.75094
 O820 O 0.47949 0.29291 0.71962
 O821 O 0.45213 0.25149 0.77364
 O822 O 0.45846 0.21831 0.77218
 O823 O 0.49851 0.27378 0.79779
 O824 O 0.53140 0.27282 0.79151
 O825 O 0.49770 0.29797 0.77313
 O826 O 0.53183 0.29150 0.77105
 O827 O 0.47655 0.25160 0.79791
 O828 O 0.47878 0.21773 0.79100
 O829 O 0.45218 0.27390 0.75188
 O830 O 0.45806 0.26776 0.71863
 O831 O 0.52295 0.20110 0.74847
 O832 O 0.52136 0.20793 0.78108
 O833 O 0.54901 0.24873 0.72690
 O834 O 0.54151 0.28194 0.72998
 O835 O 0.50170 0.22685 0.70102
 O836 O 0.46859 0.23107 0.70816
 Zr837 Zr 0.49011 0.22790 0.72748
 O838 O 0.47249 0.24380 0.74393
 Zr839 Zr 0.52247 0.26012 0.72779
 O840 O 0.50589 0.27763 0.74369
 Zr841 Zr 0.52224 0.22772 0.75990
 O842 O 0.50616 0.24403 0.77751
 Zr843 Zr 0.47807 0.27167 0.73937
 O844 O 0.49459 0.25586 0.72148
 Zr845 Zr 0.47831 0.23950 0.77177
 O846 O 0.49440 0.22176 0.75541
 Zr847 Zr 0.51035 0.27197 0.77157
 O848 O 0.52840 0.25564 0.75568
 O849 O 0.51784 0.23240 0.73221
 O850 O 0.48258 0.26734 0.76724
 C851 C 0.51386 0.19348 0.73542
 C852 C 0.51439 0.23634 0.69332
 C853 C 0.55666 0.23582 0.73613
 C854 C 0.48444 0.30543 0.76424
 C855 C 0.44468 0.26490 0.76500
 C856 C 0.48538 0.26487 0.80536
 H857 H 0.45959 0.24089 0.74092
 H858 H 0.50921 0.24110 0.79038
 H859 H 0.52569 0.22459 0.72437
 H860 H 0.50857 0.29057 0.74062
 H861 H 0.48340 0.28710 0.70798
 H862 H 0.51447 0.28924 0.70932
 H863 H 0.48906 0.21996 0.79956
 H864 H 0.50938 0.20164 0.78002
 H865 H 0.44938 0.27822 0.71918
 H866 H 0.46974 0.22134 0.69872
 H867 H 0.53077 0.26129 0.79863
 H868 H 0.54787 0.24027 0.78065
 H869 H 0.47008 0.20199 0.74102
 H870 H 0.45092 0.21950 0.76099
 H871 H 0.54876 0.27971 0.74124
 H872 H 0.52931 0.30024 0.76098
 O873 O 0.27410 0.79875 0.49845
 O874 O 0.27152 0.79290 0.52988
 O875 O 0.29900 0.75064 0.47633
 O876 O 0.29355 0.72032 0.47598
 O877 O 0.25107 0.77350 0.45077
 O878 O 0.21907 0.77214 0.45756
 O879 O 0.24914 0.70209 0.52392
 O880 O 0.28040 0.70715 0.52021
 O881 O 0.22643 0.74861 0.54758
 O882 O 0.22785 0.78174 0.54125
 O883 O 0.20223 0.72630 0.50118
 O884 O 0.20848 0.72725 0.46831
 O885 O 0.22696 0.70205 0.50190
 O886 O 0.22893 0.70861 0.46781
 O887 O 0.20212 0.74851 0.52312
 O888 O 0.20908 0.78236 0.52091
 O889 O 0.24813 0.72615 0.54751
 O890 O 0.28138 0.73229 0.54163
 O891 O 0.25165 0.79893 0.47666
 O892 O 0.21900 0.79218 0.47837
 O893 O 0.27312 0.75135 0.45065
 O894 O 0.27003 0.71813 0.45814
 O895 O 0.29902 0.77316 0.49802
 O896 O 0.29185 0.76900 0.53112
 Zr897 Zr 0.27255 0.77215 0.50957
 O898 O 0.25611 0.75625 0.52720
 Zr899 Zr 0.27223 0.73993 0.47720
 O900 O 0.25632 0.72244 0.49378
 Zr901 Zr 0.24014 0.77235 0.47745
 O902 O 0.22253 0.75604 0.49352
 Zr903 Zr 0.26064 0.72838 0.52161
 O904 O 0.27853 0.74419 0.50509
 Zr905 Zr 0.22827 0.76057 0.52138
 O906 O 0.24463 0.77830 0.50528
 Zr907 Zr 0.22845 0.72810 0.48933
 O908 O 0.24435 0.74442 0.47128
 O909 O 0.26782 0.76765 0.48184
 O910 O 0.23277 0.73271 0.51712
 C911 C 0.26474 0.80652 0.48571
 C912 C 0.30671 0.76368 0.48532
 C913 C 0.26388 0.76425 0.44300
 C914 C 0.23590 0.69456 0.51511
 C915 C 0.23506 0.73520 0.55504
 C916 C 0.19465 0.73524 0.51429
 H917 H 0.25912 0.75916 0.54009
 H918 H 0.20966 0.75898 0.49047
 H919 H 0.27567 0.77543 0.47398
 H920 H 0.25940 0.70950 0.49108
 H921 H 0.29203 0.71297 0.51628
 H922 H 0.29069 0.71081 0.48520
 H923 H 0.20055 0.78016 0.51060
 H924 H 0.22014 0.79851 0.49032
 H925 H 0.28081 0.72183 0.55032
 H926 H 0.30127 0.77875 0.52998
 H927 H 0.20139 0.73880 0.46892
 H928 H 0.21935 0.75983 0.45183
 H929 H 0.25901 0.79815 0.52950
 H930 H 0.23912 0.78063 0.54870
 H931 H 0.25879 0.72038 0.45088
 H932 H 0.23906 0.69993 0.47025
 O933 O 0.25136 0.27406 0.95131
 O934 O 0.21993 0.27155 0.95721
 O935 O 0.27359 0.29909 0.99926
 O936 O 0.27388 0.29373 1.02958
 O937 O 0.29903 0.25106 0.97654
 O938 O 0.29223 0.21900 0.97802
 O939 O 0.22595 0.24934 1.04794
 O940 O 0.22969 0.28064 1.04281
 O941 O 0.20225 0.22652 1.00156
 O942 O 0.20856 0.22786 0.96845
 O943 O 0.24863 0.20228 1.02386
 O944 O 0.28149 0.20849 1.02288
 O945 O 0.24794 0.22711 1.04802
 O946 O 0.28204 0.22903 1.04143
 O947 O 0.22668 0.20215 1.00169
 O948 O 0.22887 0.20903 0.96787
 O949 O 0.20235 0.24831 1.02393
 O950 O 0.20826 0.28158 1.01772
 O951 O 0.27313 0.25155 0.95117
 O952 O 0.27141 0.21889 0.95801
 O953 O 0.29918 0.27317 0.99862
 O954 O 0.29173 0.27015 1.03182
 O955 O 0.25189 0.29908 0.97678
 O956 O 0.21878 0.29198 0.98103
 Zr957 Zr 0.24027 0.27261 0.97789
 O958 O 0.22265 0.25620 0.99383
 Zr959 Zr 0.27266 0.27232 1.01006
 O960 O 0.25608 0.25645 1.02758
 Zr961 Zr 0.27236 0.24011 0.97775
 O962 O 0.25628 0.22253 0.99409
 Zr963 Zr 0.22826 0.26079 1.02166
 O964 O 0.24478 0.27866 1.00581
 Zr965 Zr 0.22843 0.22830 0.98958
 O966 O 0.24453 0.24463 0.97182
 Zr967 Zr 0.26050 0.22852 1.02199
 O968 O 0.27855 0.24438 1.00563
 O969 O 0.26799 0.26784 0.98239
 O970 O 0.23272 0.23288 1.01740
 C971 C 0.26409 0.26466 0.94356
 C972 C 0.26462 0.30678 0.98620
 C973 C 0.30681 0.26391 0.98573
 C974 C 0.23475 0.23609 1.05549
 C975 C 0.19481 0.23520 1.01493
 C976 C 0.23551 0.19469 1.01495
 H977 H 0.20975 0.25922 0.99093
 H978 H 0.25931 0.20964 0.99119
 H979 H 0.27586 0.27567 0.97458
 H980 H 0.25879 0.25956 1.04049
 H981 H 0.23364 0.29226 1.03697
 H982 H 0.26471 0.29086 1.03913
 H983 H 0.23916 0.20048 0.97007
 H984 H 0.25946 0.22002 0.95170
 H985 H 0.19958 0.28104 1.02817
 H986 H 0.21992 0.30140 0.97127
 H987 H 0.28089 0.20140 1.01134
 H988 H 0.29800 0.21933 0.99030
 H989 H 0.22030 0.25902 0.95199
 H990 H 0.20111 0.23914 0.96955
 H991 H 0.29898 0.25888 1.02959
 H992 H 0.27960 0.23919 1.05009
 C993 C 0.29966 0.36594 0.79928
 N994 N 0.28401 0.37314 0.80628
 N995 N 0.27619 0.38769 0.79843
 C996 C 0.28379 0.39548 0.78335
 N997 N 0.29940 0.38823 0.77631
 N998 N 0.30721 0.37368 0.78415
 C999 C 0.30905 0.35150 0.80880
 C1000 C 0.31739 0.34001 0.81728
 C1001 C 0.27647 0.41223 0.77606
 C1002 C 0.27089 0.42678 0.77054
 C1003 C 0.29909 -0.13486 0.29789
 N1004 N 0.28357 -0.12742 0.30493
 N1005 N 0.27608 -0.11262 0.29724
 C1006 C 0.28386 -0.10481 0.28227
 N1007 N 0.29934 -0.11229 0.27518
 N1008 N 0.30684 -0.12709 0.28287
 C1009 C 0.30817 -0.14961 0.30723
 C1010 C 0.31628 -0.16137 0.31557
 C1011 C 0.27683 -0.08788 0.27510
 C1012 C 0.27143 -0.07322 0.26967
 C1013 C 0.79996 0.86575 0.79881
 N1014 N 0.78414 0.87283 0.80555
 N1015 N 0.77643 0.88742 0.79768
 C1016 C 0.78429 0.89537 0.78282
 N1017 N 0.80007 0.88825 0.77603
 N1018 N 0.80778 0.87366 0.78390
 C1019 C 0.80922 0.85125 0.80837
 C1020 C 0.81743 0.83971 0.81690
 C1021 C 0.77703 0.91215 0.77552
 C1022 C 0.77147 0.92671 0.76999
 C1023 C 0.45148 0.88538 0.29833
 N1024 N 0.46703 0.87803 0.30538
 N1025 N 0.47495 0.86365 0.29733
 C1026 C 0.46758 0.85620 0.28198
 N1027 N 0.45208 0.86362 0.27487
 N1028 N 0.44416 0.87799 0.28292
 C1029 C 0.44184 0.89946 0.30813
 C1030 C 0.43325 0.91059 0.31685
 C1031 C 0.47479 0.83941 0.27465
 C1032 C 0.48015 0.82474 0.26923
 C1033 C -0.05038 0.88336 0.80033
 N1034 N -0.05766 0.87593 0.78492
 N1035 N -0.04964 0.86161 0.77687
 C1036 C -0.03410 0.85429 0.78398
 N1037 N -0.02678 0.86177 0.79935
 N1038 N -0.03480 0.87609 0.80740
 C1039 C -0.06001 0.89753 0.81001
 C1040 C -0.06854 0.90880 0.81860
 C1041 C -0.02659 0.83771 0.77647
 C1042 C -0.02089 0.82327 0.77079
 C1043 C -0.04947 -0.13403 -0.04928
 N1044 N -0.05679 -0.12658 -0.03390
 N1045 N -0.04899 -0.11203 -0.02604
 C1046 C -0.03364 -0.10449 -0.03332
 N1047 N -0.02627 -0.11199 -0.04866
 N1048 N -0.03407 -0.12654 -0.05652
 C1049 C -0.05888 -0.14848 -0.05876
 C1050 C -0.06728 -0.15998 -0.06718
 C1051 C -0.02636 -0.08774 -0.02599
 C1052 C -0.02081 -0.07318 -0.02044
 C1053 C -0.04957 0.36621 0.45058
 N1054 N -0.03423 0.37374 0.44325
 N1055 N -0.02641 0.38830 0.45107
 C1056 C -0.03369 0.39577 0.46646
 N1057 N -0.04898 0.38819 0.47384
 N1058 N -0.05680 0.37364 0.46602
 C1059 C -0.05902 0.35176 0.44114
 C1060 C -0.06745 0.34026 0.43277
 C1061 C -0.02639 0.41253 0.47376
 C1062 C -0.02083 0.42708 0.47930
 C1063 C 0.45131 -0.13500 0.45174
 N1064 N 0.44359 -0.12725 0.46678
 N1065 N 0.45110 -0.11247 0.47448
 C1066 C 0.46658 -0.10499 0.46739
 N1067 N 0.47434 -0.11278 0.45240
 N1068 N 0.46683 -0.12756 0.44469
 C1069 C 0.44222 -0.14973 0.44238
 C1070 C 0.43409 -0.16147 0.43402
 C1071 C 0.47363 -0.08807 0.47457
 C1072 C 0.47904 -0.07342 0.48002
 C1073 C 0.45098 0.36546 -0.04912
 N1074 N 0.46635 0.37296 -0.05641
 N1075 N 0.47413 0.38755 -0.04861
 C1076 C 0.46678 0.39509 -0.03329
 N1077 N 0.45144 0.38754 -0.02596
 N1078 N 0.44367 0.37295 -0.03375
 C1079 C 0.44157 0.35097 -0.05855
 C1080 C 0.43318 0.33944 -0.06693
 C1081 C 0.47404 0.41188 -0.02602
 C1082 C 0.47957 0.42645 -0.02051
 C1083 C 0.79793 0.38655 0.45287
 N1084 N 0.80561 0.37871 0.46788
 N1085 N 0.79786 0.36413 0.47572
 C1086 C 0.78218 0.35693 0.46879
 N1087 N 0.77444 0.36482 0.45383
 N1088 N 0.78220 0.37941 0.44599
 C1089 C 0.80736 0.40088 0.44322
 C1090 C 0.81575 0.41221 0.43456
 C1091 C 0.77508 0.33998 0.47586
 C1092 C 0.76980 0.32520 0.48108
 C1093 C 0.79869 0.88578 -0.04801
 N1094 N 0.78301 0.87860 -0.05496
 N1095 N 0.77508 0.86420 -0.04696
 C1096 C 0.78258 0.85653 -0.03177
 N1097 N 0.79821 0.86377 -0.02477
 N1098 N 0.80614 0.87818 -0.03276
 C1099 C 0.80832 0.89988 -0.05779
 C1100 C 0.81689 0.91103 -0.06651
 C1101 C 0.77534 0.83971 -0.02455
 C1102 C 0.76996 0.82501 -0.01922
 C1103 C 0.79733 0.29783 0.36403
 N1104 N 0.78210 0.30535 0.37158
 N1105 N 0.77426 0.29765 0.38618
 C1106 C 0.78140 0.28219 0.39367
 N1107 N 0.79658 0.27462 0.38606
 N1108 N 0.80442 0.28232 0.37146
 C1109 C 0.80694 0.30725 0.34967
 C1110 C 0.81551 0.31569 0.33832
 C1111 C 0.77430 0.27520 0.41063
 C1112 C 0.76908 0.26998 0.42542
 C1113 C 0.79820 0.79870 -0.13544
 N1114 N 0.78302 0.80627 -0.12783
 N1115 N 0.77499 0.79838 -0.11344
 C1116 C 0.78188 0.78267 -0.10622
 N1117 N 0.79701 0.77506 -0.11390
 N1118 N 0.80504 0.78294 -0.12829
 C1119 C 0.80803 0.80828 -0.14954
 C1120 C 0.81678 0.81682 -0.16068
 C1121 C 0.77462 0.77547 -0.08942
 C1122 C 0.76928 0.77010 -0.07473
 C1123 C 0.29975 0.45042 0.88398
 N1124 N 0.28443 0.44302 0.87649
 N1125 N 0.27660 0.45079 0.86191
 C1126 C 0.28386 0.46618 0.85438
 N1127 N 0.29914 0.47361 0.86192
 N1128 N 0.30697 0.46585 0.87650
 C1129 C 0.30918 0.44107 0.89849
 C1130 C 0.31756 0.43274 0.91007
 C1131 C 0.27652 0.47347 0.83766
 C1132 C 0.27092 0.47906 0.82315
 C1133 C 0.29960 -0.04934 0.38382
 N1134 N 0.30693 -0.03399 0.37627
 N1135 N 0.29908 -0.02617 0.36174
 C1136 C 0.28367 -0.03345 0.35432
 N1137 N 0.27630 -0.04875 0.36192
 N1138 N 0.28415 -0.05658 0.37645
 C1139 C 0.30907 -0.05880 0.39823
 C1140 C 0.31747 -0.06724 0.40971
 C1141 C 0.27634 -0.02616 0.33759
 C1142 C 0.27078 -0.02062 0.32305
 C1143 C -0.05049 -0.05061 -0.13302
 N1144 N -0.05762 -0.03507 -0.12570
 N1145 N -0.04963 -0.02708 -0.11134
 C1146 C -0.03426 -0.03439 -0.10387
 N1147 N -0.02708 -0.04990 -0.11124
 N1148 N -0.03507 -0.05788 -0.12560
 C1149 C -0.06008 -0.06019 -0.14728
 C1150 C -0.06858 -0.06868 -0.15865
 C1151 C -0.02676 -0.02688 -0.08731
 C1152 C -0.02105 -0.02114 -0.07291
 C1153 C -0.04954 0.45045 0.36596
 N1154 N -0.05658 0.46608 0.37319
 N1155 N -0.04878 0.47389 0.38775
 C1156 C -0.03370 0.46630 0.39554
 N1157 N -0.02661 0.45071 0.38826
 N1158 N -0.03441 0.44290 0.37370
 C1159 C -0.05897 0.44108 0.35147
 C1160 C -0.06739 0.43278 0.33990
 C1161 C -0.02641 0.47366 0.41226
 C1162 C -0.02084 0.47929 0.42676
 C1163 C 0.45090 -0.04935 0.36585
 N1164 N 0.46631 -0.05667 0.37326
 N1165 N 0.47415 -0.04890 0.38782
 C1166 C 0.46684 -0.03356 0.39540
 N1167 N 0.45149 -0.02620 0.38794
 N1168 N 0.44364 -0.03397 0.37339
 C1169 C 0.44143 -0.05876 0.35140
 C1170 C 0.43302 -0.06716 0.33990
 C1171 C 0.47417 -0.02631 0.41216
 C1172 C 0.47972 -0.02079 0.42671
 C1173 C 0.44974 0.44924 -0.13326
 N1174 N 0.46493 0.44169 -0.12564
 N1175 N 0.47295 0.44959 -0.11125
 C1176 C 0.46604 0.46529 -0.10405
 N1177 N 0.45090 0.47289 -0.11172
 N1178 N 0.44288 0.46499 -0.12611
 C1179 C 0.44009 0.43979 -0.14756
 C1180 C 0.43152 0.43142 -0.15896
 C1181 C 0.47356 0.47276 -0.08747
 C1182 C 0.47928 0.47848 -0.07306
 C1183 C 0.45297 0.79779 0.38592
 N1184 N 0.46800 0.80548 0.37813
 N1185 N 0.47583 0.79775 0.36354
 C1186 C 0.46887 0.78209 0.35630
 N1187 N 0.45390 0.77434 0.36415
 N1188 N 0.44607 0.78207 0.37874
 C1189 C 0.44333 0.80721 0.40026
 C1190 C 0.43470 0.81560 0.41160
 C1191 C 0.47593 0.77502 0.33935
 C1192 C 0.48115 0.76976 0.32458
 C1193 C -0.04937 0.79985 0.88397
 N1194 N -0.03426 0.80744 0.87624
 N1195 N -0.02644 0.79966 0.86166
 C1196 C -0.03351 0.78406 0.85438
 N1197 N -0.04857 0.77644 0.86216
 N1198 N -0.05639 0.78421 0.87674
 C1199 C -0.05882 0.80919 0.89848
 C1200 C -0.06725 0.81748 0.91005
 C1201 C -0.02621 0.77673 0.83765
 C1202 C -0.02064 0.77112 0.82314
 C1203 C 0.36411 0.79730 0.29749
 N1204 N 0.37148 0.80441 0.28197
 N1205 N 0.38606 0.79659 0.27423
 C1206 C 0.39372 0.78140 0.28177
 N1207 N 0.38629 0.77422 0.29724
 N1208 N 0.37171 0.78205 0.30498
 C1209 C 0.34978 0.80689 0.30695
 C1210 C 0.33844 0.81546 0.31541
 C1211 C 0.41067 0.77432 0.27473
 C1212 C 0.42544 0.76911 0.26949
 C1213 C -0.13398 0.79892 0.79968
 N1214 N -0.12662 0.80593 0.78412
 N1215 N -0.11203 0.79805 0.77644
 C1216 C -0.10436 0.78292 0.78408
 N1217 N -0.11178 0.77586 0.79961
 N1218 N -0.12636 0.78374 0.80729
 C1219 C -0.14849 0.80844 0.80895
 C1220 C -0.16005 0.81691 0.81722
 C1221 C -0.08759 0.77558 0.77688
 C1222 C -0.07304 0.77003 0.77137
 C1223 C 0.88517 0.29872 0.45139
 N1224 N 0.87783 0.30583 0.46692
 N1225 N 0.86348 0.29779 0.47488
 C1226 C 0.85603 0.28240 0.46755
 N1227 N 0.86343 0.27523 0.45207
 N1228 N 0.87778 0.28326 0.44411
 C1229 C 0.89921 0.30850 0.44170
 C1230 C 0.91031 0.31721 0.43307
 C1231 C 0.83926 0.27510 0.47479
 C1232 C 0.82460 0.26970 0.48016
 C1233 C 0.88528 0.79848 -0.04871
 N1234 N 0.87785 0.78308 -0.05604
 N1235 N 0.86348 0.77506 -0.04810
 C1236 C 0.85610 0.78219 -0.03259
 N1237 N 0.86359 0.79754 -0.02522
 N1238 N 0.87796 0.80556 -0.03315
 C1239 C 0.89935 0.80826 -0.05837
 C1240 C 0.91048 0.81697 -0.06696
 C1241 C 0.83932 0.77491 -0.02537
 C1242 C 0.82464 0.76953 -0.02002
 C1243 C -0.13413 -0.04855 -0.04960
 N1244 N -0.12631 -0.03355 -0.05735
 N1245 N -0.11172 -0.02569 -0.04965
 C1246 C -0.10451 -0.03260 -0.03397
 N1247 N -0.11237 -0.04756 -0.02618
 N1248 N -0.12696 -0.05541 -0.03387
 C1249 C -0.14863 -0.05809 -0.05886
 C1250 C -0.16017 -0.06660 -0.06709
 C1251 C -0.08773 -0.02531 -0.02673
 C1252 C -0.07318 -0.01978 -0.02120
 C1253 C -0.13484 0.45237 0.45106
 N1254 N -0.12704 0.46735 0.44326
 N1255 N -0.11226 0.47505 0.45075
 C1256 C -0.10484 0.46801 0.46627
 N1257 N -0.11269 0.45308 0.47412
 N1258 N -0.12746 0.44537 0.46663
 C1259 C -0.14958 0.44299 0.44200
 C1260 C -0.16132 0.43463 0.43390
 C1261 C -0.08792 0.47518 0.47330
 C1262 C -0.07328 0.48061 0.47870
 C1263 C 0.36631 -0.04947 0.44989
 N1264 N 0.37411 -0.03436 0.44234
 N1265 N 0.38868 -0.02658 0.45015
 C1266 C 0.39590 -0.03368 0.46575
 N1267 N 0.38805 -0.04874 0.47334
 N1268 N 0.37348 -0.05652 0.46553
 C1269 C 0.35181 -0.05888 0.44053
 C1270 C 0.34023 -0.06728 0.43222
 C1271 C 0.41262 -0.02641 0.47312
 C1272 C 0.42712 -0.02087 0.47877
 C1273 C 0.36627 0.45101 -0.04983
 N1274 N 0.37344 0.44414 -0.03410
 N1275 N 0.38801 0.45201 -0.02638
 C1276 C 0.39586 0.46698 -0.03415
 N1277 N 0.38864 0.47390 -0.04983
 N1278 N 0.37407 0.46603 -0.05755
 C1279 C 0.35179 0.44146 -0.05911
 C1280 C 0.34025 0.43295 -0.06735
 C1281 C 0.41261 0.47429 -0.02690
 C1282 C 0.42716 0.47983 -0.02136
 C1283 C 0.38328 0.45020 0.80065
 N1284 N 0.37615 0.44343 0.78487
 N1285 N 0.36180 0.45153 0.77699
 C1286 C 0.35414 0.46666 0.78464
 N1287 N 0.36131 0.47348 0.80038
 N1288 N 0.37567 0.46538 0.80826
 C1289 C 0.39750 0.44043 0.81010
 C1290 C 0.40883 0.43177 0.81848
 C1291 C 0.33755 0.47421 0.77723
 C1292 C 0.32312 0.47991 0.77156
 C1293 C 0.38415 -0.04927 0.29976
 N1294 N 0.37633 -0.03420 0.30736
 N1295 N 0.36175 -0.02642 0.29957
 C1296 C 0.35455 -0.03346 0.28394
 N1297 N 0.36242 -0.04849 0.27630
 N1298 N 0.37700 -0.05628 0.28409
 C1299 C 0.39867 -0.05870 0.30910
 C1300 C 0.41025 -0.06712 0.31738
 C1301 C 0.33783 -0.02619 0.27658
 C1302 C 0.32332 -0.02064 0.27094
 C1303 C 0.11342 0.54703 0.70333
 N1304 N 0.12098 0.53165 0.69609
 N1305 N 0.13573 0.52409 0.70377
 C1306 C 0.14339 0.53169 0.71892
 N1307 N 0.13578 0.54702 0.72620
 N1308 N 0.12102 0.55458 0.71853
 C1309 C 0.09888 0.55632 0.69389
 C1310 C 0.08736 0.56465 0.68543
 C1311 C 0.16045 0.52483 0.72587
 C1312 C 0.17530 0.51972 0.73103
 C1313 C 0.11342 0.04703 0.20346
 N1314 N 0.12088 0.03156 0.19628
 N1315 N 0.13566 0.02401 0.20391
 C1316 C 0.14344 0.03168 0.21896
 N1317 N 0.13593 0.04709 0.22619
 N1318 N 0.12115 0.05465 0.21856
 C1319 C 0.09885 0.05630 0.19405
 C1320 C 0.08731 0.06461 0.18562
 C1321 C 0.16053 0.02481 0.22585
 C1322 C 0.17538 0.01969 0.23095
 C1323 C 0.63352 0.69993 0.19968
 N1324 N 0.62624 0.71553 0.19262
 N1325 N 0.61188 0.72349 0.20064
 C1326 C 0.60437 0.71610 0.21596
 N1327 N 0.61170 0.70054 0.22306
 N1328 N 0.62606 0.69258 0.21505
 C1329 C 0.64774 0.69036 0.19003
 C1330 C 0.65906 0.68187 0.18146
 C1331 C 0.58776 0.72354 0.22343
 C1332 C 0.57331 0.72920 0.22908
 C1333 C 0.13599 0.70229 0.70220
 N1334 N 0.12836 0.71760 0.69488
 N1335 N 0.11381 0.72537 0.70275
 C1336 C 0.10646 0.71807 0.71819
 N1337 N 0.11414 0.70282 0.72556
 N1338 N 0.12869 0.69505 0.71769
 C1339 C 0.15028 0.69277 0.69260
 C1340 C 0.16158 0.68424 0.68407
 C1341 C 0.08955 0.72511 0.72537
 C1342 C 0.07481 0.73033 0.73069
 C1343 C 0.61525 0.20134 0.54826
 N1344 N 0.62300 0.19365 0.53320
 N1345 N 0.63776 0.20120 0.52552
 C1346 C 0.64523 0.21667 0.53266
 N1347 N 0.63743 0.22441 0.54767
 N1348 N 0.62268 0.21686 0.55535
 C1349 C 0.60055 0.19220 0.55759
 C1350 C 0.58882 0.18404 0.56592
 C1351 C 0.66213 0.22375 0.52551
 C1352 C 0.67676 0.22918 0.52007
 C1353 C 0.61605 0.70040 0.04893
 N1354 N 0.62349 0.69298 0.03358
 N1355 N 0.63804 0.70073 0.02569
 C1356 C 0.64559 0.71613 0.03291
 N1357 N 0.63810 0.72358 0.04821
 N1358 N 0.62356 0.71584 0.05610
 C1359 C 0.60160 0.69103 0.05844
 C1360 C 0.59008 0.68268 0.06688
 C1361 C 0.66233 0.72337 0.02553
 C1362 C 0.67686 0.72891 0.01995
 C1363 C 0.13610 0.04786 0.04731
 N1364 N 0.12877 0.03228 0.05437
 N1365 N 0.11418 0.02455 0.04656
 C1366 C 0.10647 0.03215 0.03144
 N1367 N 0.11386 0.04768 0.02432
 N1368 N 0.12846 0.05541 0.03213
 C1369 C 0.15044 0.05730 0.05690
 C1370 C 0.16179 0.06572 0.06549
 C1371 C 0.08953 0.02511 0.02437
 C1372 C 0.07476 0.01988 0.01913
 C1373 C 0.13604 0.54803 0.54735
 N1374 N 0.12840 0.55564 0.53220
 N1375 N 0.11381 0.54793 0.52436
 C1376 C 0.10642 0.53238 0.53141
 N1377 N 0.11412 0.52472 0.54650
 N1378 N 0.12871 0.53242 0.55435
 C1379 C 0.15039 0.55743 0.55699
 C1380 C 0.16174 0.56582 0.56560
 C1381 C 0.08948 0.52536 0.52430
 C1382 C 0.07472 0.52013 0.51903
 C1383 C 0.63603 0.04793 0.54751
 N1384 N 0.62883 0.03224 0.55444
 N1385 N 0.61430 0.02445 0.54657
 C1386 C 0.60653 0.03212 0.53151
 N1387 N 0.61379 0.04777 0.52453
 N1388 N 0.62832 0.05555 0.53241
 C1389 C 0.65030 0.05741 0.55719
 C1390 C 0.66158 0.06585 0.56584
 C1391 C 0.58962 0.02502 0.52441
 C1392 C 0.57488 0.01973 0.51915
 C1393 C 0.63551 0.54853 0.04821
 N1394 N 0.62812 0.55586 0.03280
 N1395 N 0.61378 0.54791 0.02474
 C1396 C 0.60640 0.53237 0.03184
 N1397 N 0.61384 0.52499 0.04719
 N1398 N 0.62819 0.53294 0.05525
 C1399 C 0.64954 0.55821 0.05802
 C1400 C 0.66062 0.56683 0.06676
 C1401 C 0.58963 0.52514 0.02452
 C1402 C 0.57497 0.51978 0.01912
 C1403 C 0.04713 0.04653 0.13679
 N1404 N 0.05478 0.03146 0.12901
 N1405 N 0.04722 0.02381 0.11424
 C1406 C 0.03176 0.03099 0.10681
 N1407 N 0.02405 0.04600 0.11465
 N1408 N 0.03162 0.05365 0.12941
 C1409 C 0.05640 0.05597 0.15135
 C1410 C 0.06470 0.06443 0.16287
 C1411 C 0.02486 0.02408 0.08973
 C1412 C 0.01972 0.01898 0.07488
 C1413 C 0.04713 0.54663 0.63662
 N1414 N 0.03164 0.55379 0.62925
 N1415 N 0.02405 0.54616 0.61448
 C1416 C 0.03171 0.53113 0.60664
 N1417 N 0.04715 0.52391 0.61407
 N1418 N 0.05475 0.53154 0.62883
 C1419 C 0.05644 0.55605 0.65116
 C1420 C 0.06477 0.56450 0.66268
 C1421 C 0.02480 0.52425 0.58956
 C1422 C 0.01965 0.51917 0.57470
 C1423 C 0.54710 0.04636 0.63671
 N1424 N 0.55472 0.03127 0.62895
 N1425 N 0.54714 0.02360 0.61420
 C1426 C 0.53169 0.03079 0.60676
 N1427 N 0.52401 0.04583 0.61458
 N1428 N 0.53160 0.05350 0.62932
 C1429 C 0.55640 0.05582 0.65123
 C1430 C 0.56474 0.06430 0.66273
 C1431 C 0.52479 0.02388 0.58969
 C1432 C 0.51964 0.01879 0.57483
 C1433 C 0.54894 0.54798 0.13522
 N1434 N 0.55648 0.53278 0.12760
 N1435 N 0.54858 0.52474 0.11322
 C1436 C 0.53290 0.53165 0.10602
 N1437 N 0.52530 0.54680 0.11370
 N1438 N 0.53320 0.55484 0.12809
 C1439 C 0.55852 0.55781 0.14931
 C1440 C 0.56704 0.56658 0.16045
 C1441 C 0.52568 0.52439 0.08922
 C1442 C 0.52031 0.51903 0.07454
 C1443 C 0.20225 0.54740 0.61398
 N1444 N 0.21775 0.55452 0.62136
 N1445 N 0.22550 0.54668 0.63594
 C1446 C 0.21798 0.53147 0.64357
 N1447 N 0.20253 0.52429 0.63614
 N1448 N 0.19479 0.53213 0.62156
 C1449 C 0.19278 0.55701 0.59967
 C1450 C 0.18431 0.56559 0.58834
 C1451 C 0.22503 0.52437 0.66051
 C1452 C 0.23028 0.51913 0.67528
 C1453 C 0.20242 0.04741 0.11379
 N1454 N 0.19502 0.03210 0.12134
 N1455 N 0.20278 0.02428 0.13592
 C1456 C 0.21820 0.03151 0.14337
 N1457 N 0.22566 0.04677 0.13576
 N1458 N 0.21789 0.05459 0.12119
 C1459 C 0.19292 0.05700 0.09948
 C1460 C 0.18441 0.06556 0.08817
 C1461 C 0.22526 0.02443 0.16031
 C1462 C 0.23052 0.01922 0.17508
 C1463 C 0.70147 0.20196 0.63505
 N1464 N 0.71691 0.19476 0.62760
 N1465 N 0.72450 0.20242 0.61285
 C1466 C 0.71688 0.21752 0.60509
 N1467 N 0.70148 0.22477 0.61259
 N1468 N 0.69389 0.21710 0.62734
 C1469 C 0.69227 0.19263 0.64973
 C1470 C 0.68407 0.18431 0.66143
 C1471 C 0.72398 0.22465 0.58819
 C1472 C 0.72940 0.23006 0.57355
 C1473 C 0.69974 0.70016 0.13326
 N1474 N 0.69244 0.71557 0.12581
 N1475 N 0.70042 0.72358 0.11145
 C1476 C 0.71594 0.71643 0.10411
 N1477 N 0.72327 0.70106 0.11162
 N1478 N 0.71530 0.69306 0.12598
 C1479 C 0.69016 0.69051 0.14748
 C1480 C 0.68165 0.68196 0.15880
 C1481 C 0.72339 0.72389 0.08751
 C1482 C 0.72907 0.72954 0.07305
 C1483 C 0.55002 0.70068 0.11578
 N1484 N 0.55769 0.71570 0.12364
 N1485 N 0.54992 0.72351 0.13822
 C1486 C 0.53425 0.71653 0.14540
 N1487 N 0.52655 0.70155 0.13750
 N1488 N 0.53431 0.69375 0.12292
 C1489 C 0.55933 0.69122 0.10126
 C1490 C 0.56758 0.68277 0.08967
 C1491 C 0.52692 0.72381 0.16214
 C1492 C 0.52129 0.72937 0.17665
 C1493 C 0.04796 0.70314 0.61382
 N1494 N 0.05560 0.71820 0.62163
 N1495 N 0.04786 0.72600 0.63623
 C1496 C 0.03223 0.71898 0.64346
 N1497 N 0.02454 0.70398 0.63559
 N1498 N 0.03228 0.69618 0.62099
 C1499 C 0.05740 0.69354 0.59947
 C1500 C 0.06580 0.68493 0.58812
 C1501 C 0.02516 0.72600 0.66042
 C1502 C 0.01990 0.73119 0.67520
 C1503 C 0.54914 0.61587 0.20007
 N1504 N 0.55615 0.62327 0.21562
 N1505 N 0.54826 0.63786 0.22331
 C1506 C 0.53313 0.64551 0.21567
 N1507 N 0.52608 0.63806 0.20016
 N1508 N 0.53396 0.62346 0.19248
 C1509 C 0.55867 0.60135 0.19081
 C1510 C 0.56713 0.58978 0.18254
 C1511 C 0.52578 0.66229 0.22287
 C1512 C 0.52021 0.67685 0.22839
 C1513 C 0.04669 0.61332 0.70292
 N1514 N 0.05382 0.62072 0.71842
 N1515 N 0.04616 0.63549 0.72600
 C1516 C 0.03113 0.64330 0.71832
 N1517 N 0.02395 0.63584 0.70288
 N1518 N 0.03161 0.62108 0.69529
 C1519 C 0.05614 0.59878 0.69362
 C1520 C 0.06460 0.58726 0.68529
 C1521 C 0.02422 0.66039 0.72523
 C1522 C 0.01912 0.67525 0.73038
 C1523 C 0.04766 0.13614 0.04789
 N1524 N 0.05487 0.12865 0.03247
 N1525 N 0.04701 0.11410 0.02469
 C1526 C 0.03169 0.10659 0.03208
 N1527 N 0.02442 0.11413 0.04745
 N1528 N 0.03229 0.12869 0.05523
 C1529 C 0.05727 0.15042 0.05742
 C1530 C 0.06583 0.16172 0.06595
 C1531 C 0.02455 0.08966 0.02502
 C1532 C 0.01929 0.07489 0.01976
 C1533 C 0.04747 0.63652 0.54758
 N1534 N 0.03218 0.62898 0.55502
 N1535 N 0.02435 0.61438 0.54728
 C1536 C 0.03155 0.60689 0.53186
 N1537 N 0.04678 0.61449 0.52437
 N1538 N 0.05461 0.62908 0.53211
 C1539 C 0.05706 0.65085 0.55705
 C1540 C 0.06561 0.66219 0.56553
 C1541 C 0.02445 0.58993 0.52482
 C1542 C 0.01922 0.57515 0.51958
 C1543 C 0.54763 0.13606 0.54785
 N1544 N 0.53228 0.12859 0.55524
 N1545 N 0.52446 0.11399 0.54752
 C1546 C 0.53173 0.10641 0.53217
 N1547 N 0.54702 0.11394 0.52473
 N1548 N 0.55484 0.12855 0.53245
 C1549 C 0.55719 0.15043 0.55731
 C1550 C 0.56573 0.16180 0.56576
 C1551 C 0.52461 0.08945 0.52515
 C1552 C 0.51933 0.07468 0.51992
 C1553 C 0.54850 0.63524 0.04845
 N1554 N 0.55546 0.62806 0.03278
 N1555 N 0.54745 0.61367 0.02483
 C1556 C 0.53223 0.60604 0.03231
 N1557 N 0.52522 0.61329 0.04793
 N1558 N 0.53323 0.62767 0.05588
 C1559 C 0.55829 0.64933 0.05810
 C1560 C 0.56700 0.66046 0.06669
 C1561 C 0.52499 0.58924 0.02506
 C1562 C 0.51965 0.57454 0.01967
 C1563 C 0.70131 0.11552 0.54918
 N1564 N 0.71637 0.12331 0.55681
 N1565 N 0.72399 0.13811 0.54924
 C1566 C 0.71677 0.14558 0.53381
 N1567 N 0.70175 0.13775 0.52615
 N1568 N 0.69413 0.12295 0.53372
 C1569 C 0.69207 0.10074 0.55832
 C1570 C 0.68382 0.08893 0.56646
 C1571 C 0.72390 0.16248 0.52668
 C1572 C 0.72935 0.17710 0.52118
 C1573 C 0.70062 0.61608 0.04972
 N1574 N 0.71570 0.62388 0.05730
 N1575 N 0.72347 0.63849 0.04953
 C1576 C 0.71640 0.64575 0.03394
 N1577 N 0.70137 0.63790 0.02631
 N1578 N 0.69359 0.62329 0.03409
 C1579 C 0.69121 0.60153 0.05905
 C1580 C 0.68282 0.58991 0.06732
 C1581 C 0.72366 0.66251 0.02660
 C1582 C 0.72921 0.67704 0.02098
 C1583 C 0.20262 0.63608 0.70193
 N1584 N 0.21771 0.62832 0.69433
 N1585 N 0.22557 0.61377 0.70214
 C1586 C 0.21859 0.60655 0.71778
 N1587 N 0.20355 0.61437 0.72543
 N1588 N 0.19569 0.62891 0.71763
 C1589 C 0.19296 0.65035 0.69243
 C1590 C 0.18432 0.66164 0.68397
 C1591 C 0.22568 0.58963 0.72492
 C1592 C 0.23090 0.57486 0.73023
 C1593 C 0.20262 0.13622 0.20193
 N1594 N 0.21775 0.12854 0.19433
 N1595 N 0.22561 0.11395 0.20205
 C1596 C 0.21859 0.10660 0.21762
 N1597 N 0.20352 0.11434 0.22528
 N1598 N 0.19566 0.12893 0.21756
 C1599 C 0.19298 0.15055 0.19252
 C1600 C 0.18434 0.16190 0.18413
 C1601 C 0.22571 0.08966 0.22468
 C1602 C 0.23099 0.07489 0.22993
 C1603 C 0.70267 1.13615 0.70221
 N1604 N 0.69559 1.12880 0.71775
 N1605 N 0.70340 1.11419 0.72548
 C1606 C 0.71854 1.10648 0.71791
 N1607 N 0.72567 1.11389 0.70242
 N1608 N 0.71787 1.12851 0.69469
 C1609 C 0.69309 1.15051 0.69277
 C1610 C 0.68451 1.16188 0.68436
 C1611 C 0.72561 1.08952 0.72496
 C1612 C 0.73086 1.07474 0.73020
 C1613 C 0.69969 0.63343 0.19925
 N1614 N 0.71500 0.62587 0.19188
 N1615 N 0.72296 0.61146 0.19983
 C1616 C 0.71584 0.60415 0.21538
 N1617 N 0.70057 0.61175 0.22278
 N1618 N 0.69262 0.62617 0.21484
 C1619 C 0.69013 0.64775 0.18973
 C1620 C 0.68164 0.65917 0.18130
 C1621 C 0.72330 0.58754 0.22286
 C1622 C 0.72898 0.57311 0.22860
 C1623 C 0.54678 0.11330 0.70283
 N1624 N 0.55401 0.12083 0.71822
 N1625 N 0.54636 0.13562 0.72577
 C1626 C 0.53125 0.14333 0.71816
 N1627 N 0.52397 0.13574 0.70282
 N1628 N 0.53162 0.12095 0.69527
 C1629 C 0.55619 0.09870 0.69356
 C1630 C 0.56462 0.08714 0.68527
 C1631 C 0.52430 0.16042 0.72503
 C1632 C 0.51915 0.17528 0.73015
 C1633 C 1.04656 0.11321 0.20314
 N1634 N 1.05369 0.12064 0.21863
 N1635 N 1.04601 0.13539 0.22621
 C1636 C 1.03096 0.14318 0.21855
 N1637 N 1.02377 0.13569 0.20312
 N1638 N 1.03145 0.12093 0.19554
 C1639 C 1.05602 0.09868 0.19384
 C1640 C 1.06450 0.08718 0.18550
 C1641 C 1.02403 0.16026 0.22545
 C1642 C 1.01892 0.17512 0.23059
 C1643 C 0.20186 0.61517 0.54884
 N1644 N 0.21692 0.62291 0.55652
 N1645 N 0.22462 0.63767 0.54895
 C1646 C 0.21749 0.64514 0.53348
 N1647 N 0.20248 0.63735 0.52576
 N1648 N 0.19478 0.62259 0.53333
 C1649 C 0.19250 0.60046 0.55798
 C1650 C 0.18416 0.58874 0.56615
 C1651 C 0.22467 0.66204 0.52639
 C1652 C 0.23013 0.67667 0.52094
 C1653 C 0.20173 0.11516 1.04860
 N1654 N 0.21688 0.12285 1.05616
 N1655 N 0.22452 0.13764 1.04858
 C1656 C 0.21725 0.14518 1.03322
 N1657 N 0.20215 0.13745 1.02562
 N1658 N 0.19451 0.12266 1.03319
 C1659 C 0.19245 0.10044 1.05778
 C1660 C 0.18415 0.08870 1.06597
 C1661 C 0.22437 0.16212 1.02614
 C1662 C 0.22978 0.17678 1.02073
 C1663 C 0.20106 0.70140 0.63437
 N1664 N 0.21653 0.69420 0.62698
 N1665 N 0.22413 0.70181 0.61221
 C1666 C 0.21648 0.71684 0.60436
 N1667 N 0.20104 0.72408 0.61178
 N1668 N 0.19345 0.71648 0.62656
 C1669 C 0.19190 0.69216 0.64913
 C1670 C 0.18373 0.68390 0.66091
 C1671 C 0.22364 0.72396 0.58747
 C1672 C 0.22914 0.72940 0.57287
 C1673 C 0.20105 0.20209 1.13483
 N1674 N 0.21661 0.19507 1.12748
 N1675 N 0.22417 0.20278 1.11274
 C1676 C 0.21639 0.21774 1.10489
 N1677 N 0.20086 0.22481 1.11228
 N1678 N 0.19330 0.21710 1.12702
 C1679 C 0.19191 0.19271 1.14952
 C1680 C 0.18376 0.18435 1.16123
 C1681 C 0.22348 0.22491 1.08799
 C1682 C 0.22892 0.23035 1.07337
 C1683 C 0.70063 0.54924 0.11579
 N1684 N 0.71599 0.55654 0.12330
 N1685 N 0.72377 0.54870 0.13786
 C1686 C 0.71644 0.53333 0.14535
 N1687 N 0.70112 0.52599 0.13779
 N1688 N 0.69333 0.53382 0.12323
 C1689 C 0.69121 0.55870 0.10134
 C1690 C 0.68282 0.56710 0.08983
 C1691 C 0.72370 0.52602 0.16210
 C1692 C 0.72923 0.52048 0.17666
 C1693 C 0.70221 1.04750 0.61412
 N1694 N 0.71766 1.05470 0.62155
 N1695 N 0.72545 1.04684 0.63609
 C1696 C 0.71803 1.03153 0.64364
 N1697 N 0.70264 1.02428 0.63614
 N1698 N 0.69486 1.03214 0.62160
 C1699 C 0.69269 1.05713 0.59985
 C1700 C 0.68416 1.06570 0.58856
 C1701 C 0.72511 1.02440 0.66055
 C1702 C 0.73037 1.01915 0.67530
 C1703 C 0.54799 0.20292 0.61389
 N1704 N 0.55566 0.21796 0.62172
 N1705 N 0.54789 0.22580 0.63628
 C1706 C 0.53221 0.21884 0.64347
 N1707 N 0.52450 0.20386 0.63559
 N1708 N 0.53226 0.19602 0.62102
 C1709 C 0.55744 0.19327 0.59959
 C1710 C 0.56586 0.18462 0.58828
 C1711 C 0.52511 0.22590 0.66040
 C1712 C 0.51982 0.23109 0.67517
 C1713 C 1.04804 0.20271 0.11415
 N1714 N 1.05563 0.21781 0.12191
 N1715 N 1.04783 0.22566 0.13646
 C1716 C 1.03220 0.21864 0.14368
 N1717 N 1.02456 0.20359 0.13586
 N1718 N 1.03235 0.19575 0.12131
 C1719 C 1.05752 0.19307 0.09986
 C1720 C 1.06596 0.18444 0.08856
 C1721 C 1.02508 0.22571 0.16060
 C1722 C 1.01978 0.23093 0.17536
 C1723 C 0.63615 0.20250 0.70261
 N1724 N 0.62866 0.21792 0.69539
 N1725 N 0.61407 0.22566 0.70321
 C1726 C 0.60653 0.21822 0.71850
 N1727 N 0.61408 0.20285 0.72577
 N1728 N 0.62867 0.19511 0.71795
 C1729 C 0.65048 0.19301 0.69304
 C1730 C 0.66182 0.18452 0.68450
 C1731 C 0.58959 0.22524 0.72559
 C1732 C 0.57481 0.23046 0.73082
 C1733 C 1.13590 0.20235 0.20253
 N1734 N 1.12845 0.19492 0.21787
 N1735 N 1.11387 0.20262 0.22573
 C1736 C 1.10630 0.21801 0.21851
 N1737 N 1.11380 0.22549 0.20323
 N1738 N 1.12838 0.21779 0.19536
 C1739 C 1.15023 0.19291 0.19291
 C1740 C 1.16157 0.18446 0.18434
 C1741 C 1.08937 0.22501 0.22566
 C1742 C 1.07460 0.23022 0.23094
 C1743 C 0.11517 0.70174 0.54811
 N1744 N 0.12284 0.69414 0.53298
 N1745 N 0.13762 0.70169 0.52532
 C1746 C 0.14517 0.71707 0.53257
 N1747 N 0.13746 0.72471 0.54766
 N1748 N 0.12269 0.71717 0.55532
 C1749 C 0.10046 0.69259 0.55743
 C1750 C 0.08873 0.68441 0.56574
 C1751 C 0.16210 0.72411 0.52543
 C1752 C 0.17675 0.72950 0.52002
 C1753 C 0.11551 0.20125 1.04880
 N1754 N 0.12296 0.21668 1.05604
 N1755 N 0.13773 0.22428 1.04842
 C1756 C 0.14550 0.21667 1.03333
 N1757 N 0.13800 0.20128 1.02605
 N1758 N 0.12323 0.19368 1.03367
 C1759 C 0.10076 0.19207 1.05804
 C1760 C 0.08899 0.18389 1.06629
 C1761 C 0.16238 0.22382 1.02620
 C1762 C 0.17698 0.22931 1.02075
 C1763 C 0.61591 0.54977 0.20099
 N1764 N 0.62374 0.55759 0.21593
 N1765 N 0.63831 0.54989 0.22382
 C1766 C 0.64549 0.53413 0.21702
 N1767 N 0.63762 0.52627 0.20212
 N1768 N 0.62305 0.53397 0.19422
 C1769 C 0.60143 0.55902 0.19141
 C1770 C 0.58990 0.56724 0.18287
 C1771 C 0.66225 0.52689 0.22434
 C1772 C 0.67679 0.52135 0.22990
 C1773 C 0.61338 1.04688 0.70341
 N1774 N 0.62082 1.03139 0.69628
 N1775 N 0.63557 1.02383 0.70396
 C1776 C 0.64333 1.03152 0.71901
 N1777 N 0.63582 1.04695 0.72620
 N1778 N 0.62107 1.05452 0.71852
 C1779 C 0.59884 1.05616 0.69395
 C1780 C 0.58734 1.06448 0.68548
 C1781 C 0.66039 1.02464 0.72595
 C1782 C 0.67524 1.01951 0.73108
 C1783 C 0.88516 0.45176 0.29866
 N1784 N 0.87774 0.46717 0.30598
 N1785 N 0.86337 0.47520 0.29805
 C1786 C 0.85599 0.46807 0.28255
 N1787 N 0.86347 0.45271 0.27517
 N1788 N 0.87783 0.44468 0.28310
 C1789 C 0.89923 0.44197 0.30831
 C1790 C 0.91035 0.43326 0.31691
 C1791 C 0.83921 0.47536 0.27533
 C1792 C 0.82455 0.48076 0.26997
 C1793 C 0.88315 0.94955 0.80077
 N1794 N 0.87594 0.94252 0.78514
 N1795 N 0.86158 0.95052 0.77717
 C1796 C 0.85400 0.96581 0.78459
 N1797 N 0.86125 0.97288 0.80018
 N1798 N 0.87561 0.96488 0.80815
 C1799 C 0.89741 0.93992 0.81031
 C1800 C 0.90877 0.93139 0.81876
 C1801 C 0.83744 0.97330 0.77708
 C1802 C 0.82304 0.97901 0.77133
 C1803 C 0.36611 0.29957 0.79971
 N1804 N 0.37356 0.30682 0.78429
 N1805 N 0.38812 0.29900 0.77651
 C1806 C 0.39568 0.28370 0.78391
 N1807 N 0.38819 0.27640 0.79929
 N1808 N 0.37362 0.28422 0.80707
 C1809 C 0.35161 0.30899 0.80909
 C1810 C 0.34005 0.31737 0.81744
 C1811 C 0.41241 0.27637 0.77660
 C1812 C 0.42692 0.27080 0.77100
 C1813 C 0.86506 0.29806 0.29889
 N1814 N 0.87247 0.30510 0.28335
 N1815 N 0.88723 0.29740 0.27583
 C1816 C 0.89505 0.28242 0.28362
 N1817 N 0.88760 0.27533 0.29912
 N1818 N 0.87283 0.28303 0.30664
 C1819 C 0.85035 0.30743 0.30799
 C1820 C 0.83863 0.31579 0.31612
 C1821 C 0.91196 0.27526 0.27658
 C1822 C 0.92660 0.26982 0.27118
 C1823 C 0.38622 0.79716 0.45199
 N1824 N 0.37887 0.80422 0.46755
 N1825 N 0.36428 0.79637 0.47526
 C1826 C 0.35660 0.78123 0.46766
 N1827 N 0.36401 0.77412 0.45215
 N1828 N 0.37860 0.78196 0.44444
 C1829 C 0.40057 0.80678 0.44257
 C1830 C 0.41191 0.81536 0.43413
 C1831 C 0.33965 0.77414 0.47468
 C1832 C 0.32487 0.76893 0.47992
 C1833 C 0.38568 0.29796 0.95158
 N1834 N 0.37814 0.28263 0.94421
 N1835 N 0.36374 0.27466 0.95214
 C1836 C 0.35643 0.28177 0.96769
 N1837 N 0.36402 0.29705 0.97511
 N1838 N 0.37843 0.30502 0.96718
 C1839 C 0.39979 0.30770 0.94193
 C1840 C 0.41094 0.31638 0.93334
 C1841 C 0.33961 0.27457 0.97490
 C1842 C 0.32491 0.26926 0.98026
 C1843 C 0.79733 0.45260 0.38606
 N1844 N 0.78210 0.44507 0.37851
 N1845 N 0.77424 0.45277 0.36391
 C1846 C 0.78137 0.46824 0.35643
 N1847 N 0.79655 0.47582 0.36405
 N1848 N 0.80440 0.46812 0.37864
 C1849 C 0.80695 0.44317 0.40040
 C1850 C 0.81552 0.43474 0.41175
 C1851 C 0.77427 0.47524 0.33948
 C1852 C 0.76903 0.48046 0.32470
 C1853 C 0.79923 0.95084 0.88428
 N1854 N 0.78394 0.94339 0.87677
 N1855 N 0.77611 0.95111 0.86218
 C1856 C 0.78333 0.96652 0.85465
 N1857 N 0.79858 0.97401 0.86220
 N1858 N 0.80641 0.96629 0.87680
 C1859 C 0.80869 0.94151 0.89879
 C1860 C 0.81709 0.93319 0.91035
 C1861 C 0.77604 0.97372 0.83786
 C1862 C 0.77051 0.97923 0.82330
 C1863 C 0.29737 0.79776 0.36356
 N1864 N 0.30429 0.78206 0.37074
 N1865 N 0.29646 0.77429 0.38531
 C1866 C 0.28146 0.78199 0.39314
 N1867 N 0.27448 0.79765 0.38590
 N1868 N 0.28231 0.80541 0.37133
 C1869 C 0.30701 0.80722 0.34925
 C1870 C 0.31565 0.81564 0.33793
 C1871 C 0.27440 0.77491 0.41008
 C1872 C 0.26918 0.76964 0.42485
 C1873 C 0.29854 0.29877 0.86483
 N1874 N 0.28307 0.30603 0.87217
 N1875 N 0.27506 0.29809 0.88655
 C1876 C 0.28225 0.28264 0.89402
 N1877 N 0.29766 0.27533 0.88662
 N1878 N 0.30568 0.28326 0.87224
 C1879 C 0.30829 0.30844 0.85076
 C1880 C 0.31697 0.31706 0.83963
 C1881 C 0.27496 0.27543 0.91081
 C1882 C 0.26957 0.27009 0.92548
 C1883 C 0.45107 0.29921 0.88425
 N1884 N 0.46622 0.30676 0.87656
 N1885 N 0.47400 0.29901 0.86195
 C1886 C 0.46686 0.28348 0.85459
 N1887 N 0.45176 0.27589 0.86233
 N1888 N 0.44398 0.28363 0.87694
 C1889 C 0.44164 0.30854 0.89878
 C1890 C 0.43322 0.31684 0.91034
 C1891 C 0.47409 0.27624 0.83779
 C1892 C 0.47958 0.27072 0.82321
 C1893 C 0.95034 0.30001 0.38395
 N1894 N 0.94327 0.28440 0.37671
 N1895 N 0.95106 0.27659 0.36214
 C1896 C 0.96617 0.28416 0.35437
 N1897 N 0.97328 0.29973 0.36166
 N1898 N 0.96549 0.30753 0.37623
 C1899 C 0.94092 0.30938 0.39846
 C1900 C 0.93253 0.31769 0.41003
 C1901 C 0.97345 0.27680 0.33765
 C1902 C 0.97902 0.27116 0.32315
 C1903 C 0.44920 0.38339 0.79984
 N1904 N 0.44166 0.37579 0.78463
 N1905 N 0.44957 0.36142 0.77656
 C1906 C 0.46527 0.35422 0.78344
 N1907 N 0.47285 0.36187 0.79859
 N1908 N 0.46494 0.37624 0.80667
 C1909 C 0.43972 0.39764 0.80956
 C1910 C 0.43132 0.40898 0.81819
 C1911 C 0.47271 0.33762 0.77591
 C1912 C 0.47839 0.32317 0.77021
 C1913 C 0.95040 0.38423 0.29930
 N1914 N 0.96579 0.37673 0.30656
 N1915 N 0.97358 0.36217 0.29873
 C1916 C 0.96623 0.35465 0.28339
 N1917 N 0.95088 0.36220 0.27608
 N1918 N 0.94309 0.37676 0.28392
 C1919 C 0.94098 0.39869 0.30876
 C1920 C 0.93259 0.41021 0.31716
 C1921 C 0.97350 0.33789 0.27608
 C1922 C 0.97905 0.32333 0.27054
 C1923 C 0.29894 0.88525 0.45119
 N1924 N 0.30624 0.87786 0.46661
 N1925 N 0.29830 0.86348 0.47465
 C1926 C 0.28281 0.85607 0.46751
 N1927 N 0.27547 0.86353 0.45214
 N1928 N 0.28340 0.87790 0.44411
 C1929 C 0.30861 0.89933 0.44141
 C1930 C 0.31721 0.91046 0.43271
 C1931 C 0.27558 0.83928 0.47481
 C1932 C 0.27022 0.82460 0.48022
 C1933 C 0.29901 0.38549 0.95184
 N1934 N 0.30644 0.37793 0.96711
 N1935 N 0.29848 0.36357 0.97516
 C1936 C 0.28283 0.35635 0.96819
 N1937 N 0.27535 0.36398 0.95297
 N1938 N 0.28331 0.37833 0.94493
 C1939 C 0.30868 0.39954 0.94201
 C1940 C 0.31728 0.41063 0.93326
 C1941 C 0.27556 0.33956 0.97546
 C1942 C 0.27015 0.32488 0.98081
 C1943 C 0.79787 0.36388 0.29724
 N1944 N 0.78216 0.37104 0.30414
 N1945 N 0.77441 0.38563 0.29631
 C1946 C 0.78211 0.39350 0.28133
 N1947 N 0.79777 0.38628 0.27436
 N1948 N 0.80552 0.37169 0.28219
 C1949 C 0.80731 0.34955 0.30687
 C1950 C 0.81571 0.33822 0.31551
 C1951 C 0.77502 0.41045 0.27427
 C1952 C 0.76974 0.42523 0.26905
   
