data_POSCAR
  _audit_creation_date              2014-09-24
  _audit_creation_method            'ToBaCCo'
  _symmetry_space_group_name_H-M    'P1'
  _symmetry_Int_Tables_number       1
  _symmetry_cell_setting            triclinic
  loop_
  _symmetry_equiv_pos_as_xyz
 x,y,z
_cell_length_a 53.1836
_cell_length_b 53.1838
_cell_length_c 54.7852
_cell_angle_alpha 90.005000
_cell_angle_beta 89.995200
_cell_angle_gamma 90.000100
loop_
  _atom_site_label
  _atom_site_type_symbol
  _atom_site_fract_x
  _atom_site_fract_y
  _atom_site_fract_z
C1 C 0.38918 0.00002 0.25001
 C2 C 0.11085 -0.00000 0.75000
 C3 C 0.61085 0.50002 0.24999
 C4 C 0.88918 0.49999 0.75000
 C5 C 0.25002 0.36287 1.00005
 C6 C 0.75003 0.13715 0.99995
 C7 C 0.25002 0.63715 0.49997
 C8 C 0.75001 0.86287 0.50003
 C9 C 0.00004 0.24997 0.36877
 C10 C 0.00012 0.75005 0.13123
 C11 C 0.50008 0.25006 0.63123
 C12 C 0.50007 0.74998 0.86877
 C13 C -0.25003 0.63918 0.99997
 C14 C -0.25003 0.36084 0.50001
 C15 C 0.24998 -0.13915 0.00003
 C16 C 0.24997 1.13918 0.50000
 C17 C 0.11285 0.50002 0.24999
 C18 C -0.11287 1.00002 0.25001
 C19 C 0.38713 0.50000 -0.24999
 C20 C 0.61285 -0.00001 -0.25000
 C21 C -0.00012 0.24994 0.88123
 C22 C 0.49993 0.25006 0.11877
 C23 C -0.00004 0.75005 0.61877
 C24 C 0.49992 0.74995 0.38123
 Zr25 Zr 0.02120 -0.02009 1.03358
 O26 O 0.04609 -0.00618 1.06054
 O27 O 0.01834 -0.05794 1.04329
 O28 O 0.00476 -0.02104 1.06895
 O29 O 0.06705 -0.02801 0.98902
 O30 O -0.03369 -0.00269 1.06347
 O31 O 0.05809 -0.03483 1.02928
 O32 O -0.00959 -0.07399 1.01566
 O33 O -0.01692 -0.02774 1.02706
 O34 O 0.01918 -0.03752 0.99937
 O35 O 0.00286 0.01492 1.03487
 O36 O 0.03814 0.00516 1.00877
 Zr37 Zr -0.02202 0.01537 0.96742
 Zr38 Zr -0.03482 0.00731 1.02647
 Zr39 Zr 0.03407 -0.01200 0.97449
 Zr40 Zr -0.01868 -0.04386 0.99236
 O41 O 0.06539 0.01025 0.96447
 O42 O -0.05295 -0.05771 1.00687
 O43 O -0.00361 -0.01976 0.96573
 O44 O -0.03848 -0.00988 0.99228
 O45 O -0.02014 0.03309 1.00151
 O46 O 0.01603 0.02281 0.97418
 C47 C 0.00525 -0.07581 1.03406
 C48 C 0.07269 -0.03602 1.01047
 C49 C -0.01677 -0.01314 1.07672
 O50 O -0.06759 -0.01368 1.03449
 O51 O -0.06630 0.02669 1.01278
 O52 O -0.05801 0.03205 0.97219
 C53 C -0.07194 0.03471 0.99134
 O54 O 0.04548 0.04476 1.03617
 Zr55 Zr 0.01791 0.03910 1.00862
 O56 O -0.01981 0.05342 0.95820
 O57 O -0.04154 0.03946 1.04830
 O58 O 0.00377 0.06670 1.03297
 O59 O 0.05039 0.05553 0.99280
 O60 O 0.00547 0.06992 0.98789
 C61 C -0.00884 0.07171 0.96911
 O62 O -0.04802 0.00174 0.94131
 O63 O 0.04249 -0.04505 0.95456
 O64 O -0.00648 0.01449 0.93167
 O65 O 0.03128 -0.00535 0.93685
 O66 O -0.00390 -0.07319 0.97040
 O67 O -0.04270 -0.05082 0.96210
 C68 C 0.01436 0.00518 0.92363
 H69 H 0.02863 -0.05353 0.99853
 H70 H -0.05633 -0.01306 0.98817
 H71 H 0.02359 0.03406 0.96180
 H72 H 0.00463 0.02278 1.05117
 H73 H -0.05337 -0.07608 1.00388
 H74 H -0.07749 -0.00363 1.04631
 H75 H -0.05795 0.03685 1.05651
 H76 H 0.01284 0.08261 1.02962
 H77 H -0.01361 -0.08864 0.97408
 H78 H 0.05887 -0.04220 0.94639
 H79 H 0.07534 0.00021 0.95268
 H80 H 0.05001 0.07373 0.99667
 H81 H -0.04981 -0.06797 0.96342
 H82 H -0.05252 0.01610 0.93061
 H83 H 0.05071 -0.02057 1.07115
 H84 H 0.04972 0.06286 1.03719
 Zr85 Zr 0.52118 0.47988 0.53356
 O86 O 0.54606 0.49377 0.56054
 O87 O 0.51830 0.44202 0.54324
 O88 O 0.50473 0.47892 0.56892
 O89 O 0.56704 0.47198 0.48900
 O90 O 0.46629 0.49728 0.56345
 O91 O 0.55806 0.46514 0.52926
 O92 O 0.49037 0.42600 0.51560
 O93 O 0.48306 0.47224 0.52703
 O94 O 0.51916 0.46248 0.49934
 O95 O 0.50285 0.51490 0.53487
 O96 O 0.53813 0.50514 0.50877
 Zr97 Zr 0.47798 0.51540 0.46741
 Zr98 Zr 0.46516 0.50731 0.52646
 Zr99 Zr 0.53406 0.48801 0.47448
 Zr100 Zr 0.48130 0.45615 0.49232
 O101 O 0.56539 0.51026 0.46448
 O102 O 0.44702 0.44230 0.50681
 O103 O 0.49639 0.48026 0.46570
 O104 O 0.46150 0.49014 0.49225
 O105 O 0.47986 0.53309 0.50151
 O106 O 0.51603 0.52282 0.47419
 C107 C 0.50521 0.42417 0.53400
 C108 C 0.57267 0.46396 0.51045
 C109 C 0.48320 0.48682 0.57670
 O110 O 0.43239 0.48632 0.53446
 O111 O 0.43369 0.52670 0.51276
 O112 O 0.44199 0.53209 0.47219
 C113 C 0.42806 0.53473 0.49133
 O114 O 0.54548 0.54473 0.53619
 Zr115 Zr 0.51791 0.53909 0.50864
 O116 O 0.48020 0.55345 0.45821
 O117 O 0.45845 0.53944 0.54830
 O118 O 0.50377 0.56668 0.53300
 O119 O 0.55040 0.55552 0.49283
 O120 O 0.50549 0.56993 0.48792
 C121 C 0.49118 0.57173 0.46914
 O122 O 0.45199 0.50180 0.44129
 O123 O 0.54248 0.45496 0.45454
 O124 O 0.49353 0.51453 0.43167
 O125 O 0.53128 0.49468 0.43684
 O126 O 0.49608 0.42683 0.47035
 O127 O 0.45728 0.44922 0.46205
 C128 C 0.51437 0.50521 0.42362
 H129 H 0.52860 0.44647 0.49849
 H130 H 0.44366 0.48697 0.48814
 H131 H 0.52360 0.53407 0.46181
 H132 H 0.50462 0.52274 0.55117
 H133 H 0.44659 0.42393 0.50381
 H134 H 0.42249 0.49636 0.54628
 H135 H 0.44204 0.53683 0.55650
 H136 H 0.51285 0.58259 0.52966
 H137 H 0.48635 0.41138 0.47401
 H138 H 0.55886 0.45781 0.44637
 H139 H 0.57534 0.50021 0.45268
 H140 H 0.55003 0.57371 0.49672
 H141 H 0.45016 0.43207 0.46335
 H142 H 0.44749 0.51616 0.43060
 H143 H 0.55068 0.47936 0.57114
 H144 H 0.54971 0.56282 0.53723
 Zr145 Zr 0.47889 1.02032 0.53354
 O146 O 0.45398 1.00662 0.56059
 O147 O 0.48193 1.05820 0.54312
 O148 O 0.49537 1.02131 0.56890
 O149 O 0.43302 1.02821 0.48901
 O150 O 0.53373 1.00280 0.56344
 O151 O 0.44205 1.03515 0.52924
 O152 O 0.50989 1.07403 0.51541
 O153 O 0.51704 1.02780 0.52697
 O154 O 0.48095 1.03761 0.49928
 O155 O 0.49710 0.98524 0.53494
 O156 O 0.46184 0.99504 0.50884
 Zr157 Zr 0.52193 0.98445 0.46746
 Zr158 Zr 0.53481 0.99267 0.52648
 Zr159 Zr 0.46595 1.01206 0.47450
 Zr160 Zr 0.51883 1.04378 0.49221
 O161 O 0.43454 0.98988 0.46456
 O162 O 0.55317 1.05755 0.50662
 O163 O 0.50365 1.01964 0.46567
 O164 O 0.53851 1.00973 0.49222
 O165 O 0.52001 0.96686 0.50162
 O166 O 0.48386 0.97718 0.47429
 C167 C 0.49508 1.07598 0.53383
 C168 C 0.42743 1.03631 0.51044
 C169 C 0.51686 1.01335 0.57668
 O170 O 0.56765 1.01359 0.53441
 O171 O 0.56622 0.97316 0.51281
 O172 O 0.55788 0.96767 0.47226
 C173 C 0.57182 0.96505 0.49140
 O174 O 0.45438 0.95557 0.53638
 Zr175 Zr 0.48194 0.96102 0.50878
 O176 O 0.51956 0.94636 0.45837
 O177 O 0.54143 0.96057 0.54838
 O178 O 0.49601 0.93345 0.53320
 O179 O 0.44937 0.94467 0.49305
 O180 O 0.49422 0.93008 0.48813
 C181 C 0.50851 0.92816 0.46935
 O182 O 0.54796 0.99786 0.44128
 O183 O 0.45762 1.04508 0.45449
 O184 O 0.50637 0.98527 0.43173
 O185 O 0.46870 1.00528 0.43688
 O186 O 0.50413 1.07308 0.47017
 O187 O 0.54284 1.05053 0.46190
 C188 C 0.48556 0.99465 0.42367
 H189 H 0.47156 1.05365 0.49840
 H190 H 0.55636 1.01283 0.48809
 H191 H 0.47624 0.96592 0.46194
 H192 H 0.49532 0.97745 0.55126
 H193 H 0.55366 1.07591 0.50356
 H194 H 0.57753 1.00354 0.54625
 H195 H 0.55785 0.96315 0.55657
 H196 H 0.48687 0.91757 0.52991
 H197 H 0.51391 1.08851 0.47378
 H198 H 0.44123 1.04226 0.44634
 H199 H 0.42463 0.99992 0.45275
 H200 H 0.44968 0.92649 0.49699
 H201 H 0.55002 1.06767 0.46314
 H202 H 0.55239 0.98344 0.43062
 H203 H 0.44942 1.02107 0.57115
 H204 H 0.45008 0.93749 0.53747
 Zr205 Zr -0.02108 0.52035 1.03352
 O206 O -0.04600 0.50667 1.06058
 O207 O -0.01803 0.55823 1.04308
 O208 O -0.00460 0.52136 1.06887
 O209 O -0.06696 0.52822 0.98899
 O210 O 0.03376 0.50282 1.06342
 O211 O -0.05793 0.53519 1.02922
 O212 O 0.00993 0.57404 1.01535
 O213 O 0.01706 0.52782 1.02694
 O214 O -0.01903 0.53762 0.99925
 O215 O -0.00288 0.48526 1.03493
 O216 O -0.03815 0.49506 1.00884
 Zr217 Zr 0.02193 0.48442 0.96745
 Zr218 Zr 0.03482 0.49268 1.02646
 Zr219 Zr -0.03405 0.51205 0.97449
 Zr220 Zr 0.01885 0.54377 0.99217
 O221 O -0.06546 0.48988 0.96456
 O222 O 0.05320 0.55755 1.00656
 O223 O 0.00365 0.51962 0.96565
 O224 O 0.03851 0.50971 0.99219
 O225 O 0.02001 0.46686 1.00162
 O226 O -0.01615 0.47717 0.97429
 C227 C -0.00488 0.57600 1.03377
 C228 C -0.07255 0.53634 1.01042
 C229 C 0.01689 0.51339 1.07666
 O230 O 0.06767 0.51359 1.03438
 O231 O 0.06623 0.47315 1.01280
 O232 O 0.05787 0.46764 0.97225
 C233 C 0.07181 0.46503 0.99139
 O234 O -0.04562 0.45561 1.03641
 Zr235 Zr -0.01806 0.46104 1.00880
 O236 O 0.01953 0.44633 0.95839
 O237 O 0.04144 0.46059 1.04838
 O238 O -0.00400 0.43348 1.03323
 O239 O -0.05064 0.44469 0.99308
 O240 O -0.00580 0.43007 0.98816
 C241 C 0.00848 0.42814 0.96937
 O242 O 0.04795 0.49781 0.94126
 O243 O -0.04237 0.54506 0.95446
 O244 O 0.00636 0.48523 0.93172
 O245 O -0.03131 0.50526 0.93687
 O246 O 0.00415 0.57306 0.97011
 O247 O 0.04286 0.55050 0.96184
 C248 C -0.01445 0.49461 0.92366
 H249 H -0.02841 0.55366 0.99836
 H250 H 0.05637 0.51281 0.98805
 H251 H -0.02377 0.46590 0.96196
 H252 H -0.00467 0.47748 1.05126
 H253 H 0.05370 0.57590 1.00349
 H254 H 0.07755 0.50355 1.04622
 H255 H 0.05787 0.46317 1.05657
 H256 H -0.01314 0.41759 1.02995
 H257 H 0.01393 0.58849 0.97371
 H258 H -0.05877 0.54224 0.94631
 H259 H -0.07537 0.49992 0.95275
 H260 H -0.05034 0.42651 0.99703
 H261 H 0.05003 0.56763 0.96307
 H262 H 0.05238 0.48338 0.93061
 H263 H -0.05054 0.52114 1.07114
 H264 H -0.04992 0.43753 1.03750
 Zr265 Zr -0.02111 0.47972 0.46646
 O266 O -0.04602 0.49344 0.43943
 O267 O -0.01810 0.44184 0.45687
 O268 O -0.00464 0.47872 0.43110
 O269 O -0.06698 0.47183 0.51101
 O270 O 0.03373 0.49722 0.43655
 O271 O -0.05796 0.46490 0.47077
 O272 O 0.00986 0.42598 0.48457
 O273 O 0.01703 0.47222 0.47302
 O274 O -0.01906 0.46242 0.50072
 O275 O -0.00289 0.51479 0.46507
 O276 O -0.03815 0.50500 0.49118
 Zr277 Zr 0.02195 0.51555 0.53254
 Zr278 Zr 0.03482 0.50734 0.47352
 Zr279 Zr -0.03405 0.48797 0.52551
 Zr280 Zr 0.01881 0.45623 0.50778
 O281 O -0.06545 0.51016 0.53546
 O282 O 0.05315 0.44244 0.49335
 O283 O 0.00365 0.48036 0.53433
 O284 O 0.03851 0.49027 0.50777
 O285 O 0.02003 0.53315 0.49839
 O286 O -0.01612 0.52284 0.52573
 C287 C -0.00495 0.42405 0.46616
 C288 C -0.07258 0.46374 0.48957
 C289 C 0.01686 0.48668 0.42332
 O290 O 0.06765 0.48641 0.46558
 O291 O 0.06623 0.52684 0.48719
 O292 O 0.05790 0.53232 0.52774
 C293 C 0.07183 0.53494 0.50860
 O294 O -0.04560 0.54448 0.46365
 Zr295 Zr -0.01804 0.53901 0.49124
 O296 O 0.01959 0.55363 0.54164
 O297 O 0.04145 0.53944 0.45162
 O298 O -0.00396 0.56658 0.46682
 O299 O -0.05059 0.55537 0.50698
 O300 O -0.00574 0.56994 0.51189
 C301 C 0.00855 0.57184 0.53067
 O302 O 0.04797 0.50212 0.55871
 O303 O -0.04239 0.45495 0.54552
 O304 O 0.00639 0.51473 0.56828
 O305 O -0.03130 0.49474 0.56313
 O306 O 0.00411 0.42692 0.52981
 O307 O 0.04283 0.44946 0.53808
 C308 C -0.01443 0.50535 0.57634
 H309 H -0.02846 0.44638 0.50160
 H310 H 0.05636 0.48716 0.51190
 H311 H -0.02374 0.53410 0.53808
 H312 H -0.00467 0.52259 0.44876
 H313 H 0.05363 0.42408 0.49641
 H314 H 0.07753 0.49645 0.45374
 H315 H 0.05787 0.53686 0.44343
 H316 H -0.01309 0.58246 0.47012
 H317 H 0.01388 0.41149 0.52620
 H318 H -0.05878 0.45777 0.55367
 H319 H -0.07536 0.50012 0.54727
 H320 H -0.05028 0.57355 0.50305
 H321 H 0.05000 0.43232 0.53683
 H322 H 0.05241 0.51653 0.56937
 H323 H -0.05059 0.47899 0.42886
 H324 H -0.04989 0.56256 0.46257
 Zr325 Zr 0.47891 -0.02030 -0.03352
 O326 O 0.45399 -0.00659 -0.06056
 O327 O 0.48193 -0.05818 -0.04310
 O328 O 0.49538 -0.02130 -0.06888
 O329 O 0.43303 -0.02818 0.01102
 O330 O 0.53375 -0.00279 -0.06343
 O331 O 0.44206 -0.03512 -0.02921
 O332 O 0.50989 -0.07402 -0.01539
 O333 O 0.51705 -0.02779 -0.02695
 O334 O 0.48096 -0.03759 0.00074
 O335 O 0.49712 0.01478 -0.03492
 O336 O 0.46186 0.00499 -0.00882
 Zr337 Zr 0.52195 0.01557 0.03255
 Zr338 Zr 0.53483 0.00734 -0.02646
 Zr339 Zr 0.46596 -0.01203 0.02552
 Zr340 Zr 0.51883 -0.04376 0.00781
 O341 O 0.43456 0.01016 0.03547
 O342 O 0.55317 -0.05755 -0.00661
 O343 O 0.50365 -0.01962 0.03435
 O344 O 0.53852 -0.00971 0.00779
 O345 O 0.52004 0.03315 -0.00160
 O346 O 0.48388 0.02284 0.02573
 C347 C 0.49508 -0.07596 -0.03380
 C348 C 0.42744 -0.03628 -0.01041
 C349 C 0.51688 -0.01334 -0.07666
 O350 O 0.56766 -0.01359 -0.03440
 O351 O 0.56624 0.02684 -0.01280
 O352 O 0.55790 0.03234 0.02775
 C353 C 0.57184 0.03495 0.00861
 O354 O 0.45441 0.04446 -0.03636
 Zr355 Zr 0.48196 0.03900 -0.00877
 O356 O 0.51958 0.05365 0.04164
 O357 O 0.54146 0.03943 -0.04838
 O358 O 0.49603 0.06657 -0.03319
 O359 O 0.44940 0.05536 0.00697
 O360 O 0.49425 0.06995 0.01188
 C361 C 0.50854 0.07186 0.03066
 O362 O 0.54797 0.00215 0.05873
 O363 O 0.45763 -0.04504 0.04554
 O364 O 0.50639 0.01475 0.06829
 O365 O 0.46871 -0.00525 0.06315
 O366 O 0.50413 -0.07306 0.02985
 O367 O 0.54285 -0.05052 0.03812
 C368 C 0.48557 0.00538 0.07635
 H369 H 0.47157 -0.05363 0.00163
 H370 H 0.55637 -0.01282 0.01192
 H371 H 0.47626 0.03411 0.03807
 H372 H 0.49534 0.02257 -0.05124
 H373 H 0.55366 -0.07590 -0.00355
 H374 H 0.57754 -0.00354 -0.04624
 H375 H 0.55788 0.03685 -0.05657
 H376 H 0.48690 0.08245 -0.02990
 H377 H 0.51390 -0.08849 0.02624
 H378 H 0.44123 -0.04222 0.05369
 H379 H 0.42464 0.00012 0.04728
 H380 H 0.44971 0.07354 0.00303
 H381 H 0.55002 -0.06765 0.03687
 H382 H 0.55241 0.01657 0.06939
 H383 H 0.44944 -0.02105 -0.07113
 H384 H 0.45011 0.06254 -0.03745
 Zr385 Zr 0.52118 0.52014 -0.03357
 O386 O 0.54607 0.50626 -0.06055
 O387 O 0.51829 0.55800 -0.04326
 O388 O 0.50473 0.52110 -0.06893
 O389 O 0.56704 0.52805 0.01098
 O390 O 0.46630 0.50273 -0.06345
 O391 O 0.55806 0.53489 -0.02928
 O392 O 0.49036 0.57402 -0.01561
 O393 O 0.48306 0.52777 -0.02704
 O394 O 0.51916 0.53755 0.00064
 O395 O 0.50286 0.48512 -0.03488
 O396 O 0.53814 0.49488 -0.00878
 Zr397 Zr 0.47799 0.48462 0.03259
 Zr398 Zr 0.46517 0.49270 -0.02646
 Zr399 Zr 0.53406 0.51202 0.02551
 Zr400 Zr 0.48130 0.54386 0.00767
 O401 O 0.56540 0.48978 0.03551
 O402 O 0.44701 0.55770 -0.00681
 O403 O 0.49638 0.51976 0.03429
 O404 O 0.46151 0.50987 0.00775
 O405 O 0.47987 0.46692 -0.00152
 O406 O 0.51604 0.47721 0.02580
 C407 C 0.50519 0.57585 -0.03402
 C408 C 0.57267 0.53607 -0.01047
 C409 C 0.48321 0.51319 -0.07670
 O410 O 0.43239 0.51369 -0.03446
 O411 O 0.43370 0.47331 -0.01276
 O412 O 0.44200 0.46793 0.02782
 C413 C 0.42807 0.46528 0.00867
 O414 O 0.54549 0.45530 -0.03620
 Zr415 Zr 0.51792 0.46094 -0.00865
 O416 O 0.48022 0.44656 0.04179
 O417 O 0.45846 0.46057 -0.04830
 O418 O 0.50379 0.43334 -0.03300
 O419 O 0.55042 0.44452 0.00716
 O420 O 0.50551 0.43009 0.01208
 C421 C 0.49120 0.42829 0.03086
 O422 O 0.45199 0.49822 0.05871
 O423 O 0.54247 0.54507 0.04545
 O424 O 0.49353 0.48549 0.06833
 O425 O 0.53128 0.50535 0.06315
 O426 O 0.49606 0.57319 0.02964
 O427 O 0.45728 0.55079 0.03795
 C428 C 0.51437 0.49481 0.07637
 H429 H 0.52859 0.55356 0.00149
 H430 H 0.44366 0.51304 0.01186
 H431 H 0.52361 0.46595 0.03818
 H432 H 0.50463 0.47727 -0.05117
 H433 H 0.44658 0.57607 -0.00381
 H434 H 0.42249 0.50364 -0.04628
 H435 H 0.44206 0.46317 -0.05650
 H436 H 0.51287 0.41743 -0.02966
 H437 H 0.48634 0.58864 0.02598
 H438 H 0.55886 0.54222 0.05362
 H439 H 0.57534 0.49982 0.04730
 H440 H 0.55005 0.42632 0.00328
 H441 H 0.45015 0.56794 0.03664
 H442 H 0.44749 0.48385 0.06941
 H443 H 0.55068 0.52066 -0.07115
 H444 H 0.54973 0.43720 -0.03724
 Zr445 Zr 0.02116 1.02016 0.46645
 O446 O 0.04605 1.00629 0.43946
 O447 O 0.01826 1.05802 0.45677
 O448 O 0.00471 1.02112 0.43109
 O449 O 0.06702 1.02806 0.51099
 O450 O -0.03372 1.00274 0.43657
 O451 O 0.05804 1.03491 0.47074
 O452 O -0.00967 1.07402 0.48443
 O453 O -0.01696 1.02778 0.47299
 O454 O 0.01914 1.03755 0.50067
 O455 O 0.00285 0.98513 0.46513
 O456 O 0.03813 0.99490 0.49123
 Zr457 Zr -0.02202 0.98460 0.53260
 Zr458 Zr -0.03484 0.99271 0.47356
 Zr459 Zr 0.03405 1.01202 0.52552
 Zr460 Zr -0.01872 1.04386 0.50770
 O461 O 0.06540 0.98978 0.53551
 O462 O -0.05301 1.05770 0.49323
 O463 O -0.00362 1.01975 0.53431
 O464 O -0.03850 1.00986 0.50777
 O465 O -0.02014 0.96692 0.49849
 O466 O 0.01604 0.97720 0.52581
 C467 C 0.00516 1.07586 0.46602
 C468 C 0.07265 1.03609 0.48955
 C469 C -0.01681 1.01321 0.42331
 O470 O -0.06762 1.01369 0.46557
 O471 O -0.06630 0.97330 0.48725
 O472 O -0.05800 0.96790 0.52782
 C473 C -0.07193 0.96526 0.50868
 O474 O 0.04549 0.95532 0.46379
 Zr475 Zr 0.01792 0.96094 0.49135
 O476 O -0.01977 0.94654 0.54179
 O477 O -0.04154 0.96057 0.45171
 O478 O 0.00379 0.93335 0.46699
 O479 O 0.05042 0.94452 0.50715
 O480 O 0.00552 0.93009 0.51207
 C481 C -0.00879 0.92827 0.53085
 O482 O -0.04801 0.99818 0.55873
 O483 O 0.04246 1.04506 0.54547
 O484 O -0.00647 0.98547 0.56834
 O485 O 0.03127 1.00534 0.56316
 O486 O -0.00396 1.07318 0.52968
 O487 O -0.04274 1.05077 0.53798
 C488 C 0.01438 0.99479 0.57638
 H489 H 0.02857 1.05357 0.50152
 H490 H -0.05635 1.01303 0.51188
 H491 H 0.02361 0.96595 0.53818
 H492 H 0.00462 0.97729 0.44883
 H493 H -0.05345 1.07606 0.49624
 H494 H -0.07752 1.00364 0.45375
 H495 H -0.05795 0.96318 0.44351
 H496 H 0.01287 0.91744 0.47033
 H497 H -0.01368 1.08863 0.52602
 H498 H 0.05885 1.04222 0.55363
 H499 H 0.07533 0.99982 0.54731
 H500 H 0.05006 0.92633 0.50326
 H501 H -0.04986 1.06792 0.53669
 H502 H -0.05250 0.98381 0.56942
 H503 H 0.05066 1.02070 0.42886
 H504 H 0.04973 0.93723 0.46275
 Zr505 Zr 0.72986 0.27118 0.21640
 O506 O 0.74372 0.29609 0.18943
 O507 O 0.69201 0.26823 0.20669
 O508 O 0.72894 0.25473 0.18104
 O509 O 0.72187 0.31703 0.26096
 O510 O 0.74736 0.21632 0.18652
 O511 O 0.71506 0.30805 0.22069
 O512 O 0.67602 0.24027 0.23432
 O513 O 0.72228 0.23305 0.22292
 O514 O 0.71243 0.26913 0.25060
 O515 O 0.76490 0.25291 0.21511
 O516 O 0.75507 0.28817 0.24121
 Zr517 Zr 0.76540 0.22803 0.28257
 Zr518 Zr 0.75737 0.21521 0.22351
 Zr519 Zr 0.73792 0.28407 0.27549
 Zr520 Zr 0.70617 0.23126 0.25762
 O521 O 0.76011 0.31544 0.28551
 O522 O 0.69238 0.19695 0.24314
 O523 O 0.73023 0.24638 0.28426
 O524 O 0.74018 0.21152 0.25771
 O525 O 0.78311 0.22994 0.24847
 O526 O 0.77276 0.26609 0.27580
 C527 C 0.67417 0.25510 0.21591
 C528 C 0.71385 0.32265 0.23950
 C529 C 0.73688 0.23322 0.17326
 O530 O 0.73643 0.18240 0.21549
 O531 O 0.77679 0.18376 0.23721
 O532 O 0.78214 0.19206 0.27779
 C533 C 0.78481 0.17814 0.25865
 O534 O 0.79467 0.29557 0.21380
 Zr535 Zr 0.78905 0.26800 0.24136
 O536 O 0.80345 0.23032 0.29179
 O537 O 0.78953 0.20855 0.20169
 O538 O 0.81669 0.25390 0.21702
 O539 O 0.80541 0.30053 0.25717
 O540 O 0.81990 0.25565 0.26211
 C541 C 0.82171 0.24134 0.28089
 O542 O 0.75182 0.20201 0.30868
 O543 O 0.70485 0.29243 0.29541
 O544 O 0.76449 0.24357 0.31831
 O545 O 0.74458 0.28129 0.31313
 O546 O 0.67680 0.24600 0.27957
 O547 O 0.69925 0.20724 0.28789
 C548 C 0.75514 0.26440 0.32635
 H549 H 0.69640 0.27855 0.25144
 H550 H 0.73703 0.19367 0.26182
 H551 H 0.78400 0.27368 0.28818
 H552 H 0.77275 0.25469 0.19881
 H553 H 0.67401 0.19650 0.24613
 H554 H 0.74650 0.17252 0.20368
 H555 H 0.78695 0.19214 0.19348
 H556 H 0.83258 0.26300 0.22038
 H557 H 0.66137 0.23625 0.27589
 H558 H 0.70767 0.30881 0.30358
 H559 H 0.75005 0.32536 0.29730
 H560 H 0.82361 0.30019 0.25329
 H561 H 0.68211 0.20010 0.28659
 H562 H 0.76619 0.19754 0.31938
 H563 H 0.72931 0.30068 0.17882
 H564 H 0.81276 0.29983 0.21277
 Zr565 Zr 0.77028 0.72887 0.71646
 O566 O 0.75655 0.70397 0.68941
 O567 O 0.80817 0.73183 0.70690
 O568 O 0.77131 0.74534 0.68111
 O569 O 0.77809 0.68298 0.76100
 O570 O 0.75286 0.78374 0.68656
 O571 O 0.78506 0.69200 0.72077
 O572 O 0.82405 0.75976 0.73462
 O573 O 0.77783 0.76699 0.72304
 O574 O 0.78756 0.73089 0.75073
 O575 O 0.73523 0.74714 0.71506
 O576 O 0.74496 0.71185 0.74116
 Zr577 Zr 0.73446 0.77196 0.78254
 Zr578 Zr 0.74273 0.78483 0.72352
 Zr579 Zr 0.76197 0.71593 0.77550
 Zr580 Zr 0.79380 0.76876 0.75780
 O581 O 0.73974 0.68456 0.78543
 O582 O 0.80764 0.80307 0.74338
 O583 O 0.76962 0.75361 0.78433
 O584 O 0.75978 0.78849 0.75778
 O585 O 0.71689 0.77007 0.74837
 O586 O 0.72713 0.73390 0.77570
 C587 C 0.82597 0.74494 0.71621
 C588 C 0.78619 0.67738 0.73957
 C589 C 0.76339 0.76685 0.67332
 O590 O 0.76370 0.81764 0.71560
 O591 O 0.72326 0.81626 0.73718
 O592 O 0.71774 0.80793 0.77773
 C593 C 0.71514 0.82187 0.75859
 O594 O 0.70549 0.70445 0.71361
 Zr595 Zr 0.71098 0.73201 0.74120
 O596 O 0.69637 0.76966 0.79160
 O597 O 0.71065 0.79151 0.70160
 O598 O 0.68345 0.74611 0.71676
 O599 O 0.69456 0.69948 0.75694
 O600 O 0.68005 0.74436 0.76183
 C601 C 0.67815 0.75866 0.78061
 O602 O 0.74791 0.79796 0.80872
 O603 O 0.79497 0.70754 0.79553
 O604 O 0.73525 0.75640 0.81827
 O605 O 0.75519 0.71869 0.81312
 O606 O 0.82306 0.75402 0.77986
 O607 O 0.80058 0.79277 0.78812
 C608 C 0.74459 0.73557 0.82633
 H609 H 0.80359 0.72148 0.75162
 H610 H 0.76291 0.80634 0.76192
 H611 H 0.71585 0.72630 0.78804
 H612 H 0.72745 0.74536 0.69874
 H613 H 0.82599 0.80353 0.74645
 H614 H 0.75368 0.82753 0.70376
 H615 H 0.71326 0.80792 0.69341
 H616 H 0.66755 0.73700 0.72005
 H617 H 0.83851 0.76377 0.77626
 H618 H 0.79212 0.69115 0.80368
 H619 H 0.74976 0.67463 0.79724
 H620 H 0.67638 0.69982 0.75299
 H621 H 0.81772 0.79992 0.78687
 H622 H 0.73350 0.80242 0.81937
 H623 H 0.77100 0.69939 0.67885
 H624 H 0.68741 0.70017 0.71252
 Zr625 Zr 0.22987 0.22883 0.78360
 O626 O 0.24374 0.20392 0.81055
 O627 O 0.19203 0.23178 0.79334
 O628 O 0.22896 0.24527 0.81897
 O629 O 0.22185 0.18301 0.73903
 O630 O 0.24739 0.28368 0.81349
 O631 O 0.21506 0.19197 0.77931
 O632 O 0.17602 0.25976 0.76573
 O633 O 0.22229 0.26697 0.77710
 O634 O 0.21242 0.23090 0.74941
 O635 O 0.26492 0.24711 0.78488
 O636 O 0.25507 0.21185 0.75877
 Zr637 Zr 0.26538 0.27200 0.71742
 Zr638 Zr 0.25738 0.28481 0.77649
 Zr639 Zr 0.23790 0.21597 0.72451
 Zr640 Zr 0.20616 0.26877 0.74241
 O641 O 0.26008 0.18460 0.71446
 O642 O 0.19238 0.30307 0.75691
 O643 O 0.23021 0.25366 0.71575
 O644 O 0.24018 0.28851 0.74230
 O645 O 0.28311 0.27009 0.75151
 O646 O 0.27274 0.23394 0.72418
 C647 C 0.17419 0.24492 0.78414
 C648 C 0.21384 0.17737 0.76049
 C649 C 0.23691 0.26679 0.82674
 O650 O 0.23645 0.31761 0.78453
 O651 O 0.27680 0.31626 0.76278
 O652 O 0.28212 0.30797 0.72220
 C653 C 0.28481 0.32189 0.74135
 O654 O 0.29468 0.20444 0.78615
 Zr655 Zr 0.28905 0.23202 0.75861
 O656 O 0.30342 0.26971 0.70817
 O657 O 0.28955 0.29146 0.79830
 O658 O 0.31670 0.24611 0.78293
 O659 O 0.30540 0.19949 0.74278
 O660 O 0.31988 0.24437 0.73784
 C661 C 0.32169 0.25869 0.71906
 O662 O 0.25179 0.29803 0.69133
 O663 O 0.20482 0.20762 0.70460
 O664 O 0.26446 0.25647 0.68168
 O665 O 0.24454 0.21875 0.68686
 O666 O 0.17678 0.25404 0.72048
 O667 O 0.19923 0.29280 0.71215
 C668 C 0.25510 0.23564 0.67364
 H669 H 0.19639 0.22148 0.74858
 H670 H 0.23703 0.30636 0.73820
 H671 H 0.28397 0.22635 0.71179
 H672 H 0.27277 0.24532 0.80117
 H673 H 0.17401 0.30354 0.75393
 H674 H 0.24652 0.32749 0.79635
 H675 H 0.28698 0.30787 0.80651
 H676 H 0.33259 0.23702 0.77956
 H677 H 0.16135 0.26379 0.72417
 H678 H 0.20763 0.19123 0.69642
 H679 H 0.25001 0.17468 0.70267
 H680 H 0.32360 0.19983 0.74664
 H681 H 0.18209 0.29994 0.71347
 H682 H 0.26616 0.30251 0.68062
 H683 H 0.22934 0.19932 0.82117
 H684 H 0.31277 0.20018 0.78717
 Zr685 Zr 0.27031 0.77113 0.28353
 O686 O 0.25660 0.79602 0.31060
 O687 O 0.30820 0.76817 0.29306
 O688 O 0.27136 0.75465 0.31888
 O689 O 0.27808 0.81703 0.23900
 O690 O 0.25290 0.71626 0.31343
 O691 O 0.28509 0.80800 0.27922
 O692 O 0.32406 0.74025 0.26531
 O693 O 0.27785 0.73301 0.27693
 O694 O 0.28756 0.76912 0.24925
 O695 O 0.23526 0.75287 0.28496
 O696 O 0.24497 0.78816 0.25886
 Zr697 Zr 0.23444 0.72807 0.21747
 Zr698 Zr 0.24275 0.71518 0.27648
 Zr699 Zr 0.26196 0.78409 0.22450
 Zr700 Zr 0.29379 0.73126 0.24216
 O701 O 0.23971 0.81546 0.21460
 O702 O 0.30764 0.69694 0.25655
 O703 O 0.26960 0.74641 0.21565
 O704 O 0.25977 0.71152 0.24220
 O705 O 0.21689 0.72994 0.25165
 O706 O 0.22711 0.76612 0.22432
 C707 C 0.32600 0.75506 0.28373
 C708 C 0.28620 0.82263 0.26043
 C709 C 0.26343 0.73314 0.32667
 O710 O 0.26373 0.68237 0.28437
 O711 O 0.22326 0.68374 0.26282
 O712 O 0.21772 0.69210 0.22228
 C713 C 0.21513 0.67815 0.24142
 O714 O 0.20553 0.79555 0.28644
 Zr715 Zr 0.21099 0.76800 0.25884
 O716 O 0.19634 0.73037 0.20844
 O717 O 0.21068 0.70849 0.29842
 O718 O 0.18347 0.75390 0.28330
 O719 O 0.19456 0.80053 0.24312
 O720 O 0.18004 0.75565 0.23824
 C721 C 0.17812 0.74136 0.21946
 O722 O 0.24786 0.70207 0.19127
 O723 O 0.29494 0.79248 0.20445
 O724 O 0.23520 0.74364 0.18174
 O725 O 0.25515 0.78134 0.18689
 O726 O 0.32304 0.74600 0.22007
 O727 O 0.30055 0.70725 0.21183
 C728 C 0.24454 0.76447 0.17368
 H729 H 0.30359 0.77853 0.24834
 H730 H 0.26289 0.69367 0.23805
 H731 H 0.21582 0.77372 0.21199
 H732 H 0.22748 0.75464 0.30129
 H733 H 0.32599 0.69648 0.25347
 H734 H 0.25371 0.67247 0.29622
 H735 H 0.21329 0.69207 0.30660
 H736 H 0.16757 0.76302 0.28003
 H737 H 0.33849 0.73625 0.22366
 H738 H 0.29208 0.80888 0.19631
 H739 H 0.24973 0.82540 0.20278
 H740 H 0.17638 0.80019 0.24708
 H741 H 0.31769 0.70010 0.21306
 H742 H 0.23344 0.69761 0.18063
 H743 H 0.27106 0.80059 0.32115
 H744 H 0.18744 0.79984 0.28754
 Zr745 Zr 0.22985 0.77115 0.71645
 O746 O 0.24370 0.79606 0.68947
 O747 O 0.19200 0.76820 0.70674
 O748 O 0.22892 0.75470 0.68108
 O749 O 0.22186 0.81700 0.76100
 O750 O 0.24735 0.71629 0.68656
 O751 O 0.21505 0.80801 0.72074
 O752 O 0.17602 0.74023 0.73437
 O753 O 0.22227 0.73302 0.72297
 O754 O 0.21243 0.76910 0.75065
 O755 O 0.26490 0.75288 0.71514
 O756 O 0.25507 0.78815 0.74124
 Zr757 Zr 0.26541 0.72801 0.78261
 Zr758 Zr 0.25737 0.71518 0.72355
 Zr759 Zr 0.23792 0.78404 0.77552
 Zr760 Zr 0.20617 0.73123 0.75767
 O761 O 0.26011 0.81541 0.78555
 O762 O 0.19239 0.69692 0.74318
 O763 O 0.23024 0.74635 0.78430
 O764 O 0.24019 0.71149 0.75775
 O765 O 0.28312 0.72992 0.74851
 O766 O 0.27276 0.76607 0.77583
 C767 C 0.17416 0.75507 0.71596
 C768 C 0.21384 0.82262 0.73954
 C769 C 0.23687 0.73319 0.67330
 O770 O 0.23643 0.68237 0.71554
 O771 O 0.27679 0.68374 0.73725
 O772 O 0.28215 0.69204 0.77783
 C773 C 0.28482 0.67812 0.75868
 O774 O 0.29466 0.79555 0.71383
 Zr775 Zr 0.28905 0.76798 0.74139
 O776 O 0.30346 0.73030 0.79182
 O777 O 0.28952 0.70852 0.70172
 O778 O 0.31668 0.75388 0.71705
 O779 O 0.30540 0.80051 0.75719
 O780 O 0.31990 0.75564 0.76214
 C781 C 0.32172 0.74133 0.78092
 O782 O 0.25184 0.70199 0.80872
 O783 O 0.20485 0.79240 0.79545
 O784 O 0.26451 0.74355 0.81834
 O785 O 0.24458 0.78127 0.81317
 O786 O 0.17681 0.74596 0.77962
 O787 O 0.19926 0.70720 0.78794
 C788 C 0.25515 0.76438 0.82639
 H789 H 0.19640 0.77851 0.75149
 H790 H 0.23704 0.69364 0.76186
 H791 H 0.28400 0.77366 0.78821
 H792 H 0.27274 0.75467 0.69885
 H793 H 0.17402 0.69646 0.74618
 H794 H 0.24650 0.67249 0.70372
 H795 H 0.28695 0.69211 0.69352
 H796 H 0.33257 0.76298 0.72040
 H797 H 0.16138 0.73621 0.77595
 H798 H 0.20767 0.80878 0.80362
 H799 H 0.25004 0.82533 0.79734
 H800 H 0.32360 0.80017 0.75331
 H801 H 0.18212 0.70006 0.78664
 H802 H 0.26622 0.69752 0.81942
 H803 H 0.22929 0.80065 0.67886
 H804 H 0.31275 0.79981 0.71280
 Zr805 Zr 0.27029 0.22890 0.21650
 O806 O 0.25657 0.20400 0.18945
 O807 O 0.30818 0.23186 0.20695
 O808 O 0.27133 0.24537 0.18115
 O809 O 0.27809 0.18301 0.26104
 O810 O 0.25287 0.28377 0.18660
 O811 O 0.28507 0.19203 0.22081
 O812 O 0.32405 0.25979 0.23468
 O813 O 0.27783 0.26703 0.22308
 O814 O 0.28756 0.23092 0.25077
 O815 O 0.23524 0.24716 0.21509
 O816 O 0.24497 0.21188 0.24119
 Zr817 Zr 0.23445 0.27198 0.28257
 Zr818 Zr 0.24273 0.28486 0.22356
 Zr819 Zr 0.26197 0.21595 0.27554
 Zr820 Zr 0.29379 0.26879 0.25785
 O821 O 0.23974 0.18458 0.28546
 O822 O 0.30763 0.30310 0.24344
 O823 O 0.26962 0.25364 0.28437
 O824 O 0.25977 0.28852 0.25783
 O825 O 0.21688 0.27010 0.24840
 O826 O 0.22713 0.23392 0.27574
 C827 C 0.32598 0.24498 0.21627
 C828 C 0.28620 0.17741 0.23961
 C829 C 0.26340 0.26688 0.17336
 O830 O 0.26370 0.31767 0.21565
 O831 O 0.22325 0.31629 0.23722
 O832 O 0.21772 0.30795 0.27777
 C833 C 0.21513 0.32189 0.25863
 O834 O 0.20551 0.20448 0.21363
 Zr835 Zr 0.21099 0.23203 0.24123
 O836 O 0.19636 0.26967 0.29163
 O837 O 0.21066 0.29153 0.20163
 O838 O 0.18346 0.24613 0.21679
 O839 O 0.19457 0.19950 0.25696
 O840 O 0.18004 0.24438 0.26185
 C841 C 0.17814 0.25867 0.28063
 O842 O 0.24789 0.29799 0.30876
 O843 O 0.29496 0.20757 0.29557
 O844 O 0.23523 0.25642 0.31830
 O845 O 0.25518 0.21871 0.31316
 O846 O 0.32306 0.25405 0.27992
 O847 O 0.30056 0.29280 0.28817
 C848 C 0.24458 0.23559 0.32636
 H849 H 0.30359 0.22151 0.25167
 H850 H 0.26290 0.30637 0.26196
 H851 H 0.21584 0.22632 0.28807
 H852 H 0.22746 0.24539 0.19877
 H853 H 0.32599 0.30357 0.24651
 H854 H 0.25368 0.32756 0.20380
 H855 H 0.21327 0.30795 0.19345
 H856 H 0.16756 0.23702 0.22007
 H857 H 0.33850 0.26380 0.27632
 H858 H 0.29211 0.19118 0.30372
 H859 H 0.24975 0.17465 0.29727
 H860 H 0.17639 0.19984 0.25301
 H861 H 0.31771 0.29995 0.28693
 H862 H 0.23347 0.30244 0.31941
 H863 H 0.27102 0.19943 0.17889
 H864 H 0.18742 0.20020 0.21254
 Zr865 Zr 0.72987 0.72886 0.28356
 O866 O 0.74375 0.70394 0.31052
 O867 O 0.69203 0.73181 0.29330
 O868 O 0.72896 0.74530 0.31893
 O869 O 0.72185 0.68303 0.23900
 O870 O 0.74739 0.78371 0.31345
 O871 O 0.71507 0.69200 0.27927
 O872 O 0.67603 0.75978 0.26569
 O873 O 0.72229 0.76699 0.27706
 O874 O 0.71243 0.73092 0.24937
 O875 O 0.76492 0.74713 0.28484
 O876 O 0.75507 0.71188 0.25874
 Zr877 Zr 0.76538 0.77203 0.21739
 Zr878 Zr 0.75738 0.78483 0.27645
 Zr879 Zr 0.73790 0.71599 0.22447
 Zr880 Zr 0.70616 0.76879 0.24237
 O881 O 0.76009 0.68462 0.21442
 O882 O 0.69239 0.80310 0.25687
 O883 O 0.73021 0.75368 0.21571
 O884 O 0.74018 0.78853 0.24227
 O885 O 0.78311 0.77011 0.25147
 O886 O 0.77274 0.73396 0.22415
 C887 C 0.67419 0.74494 0.28410
 C888 C 0.71385 0.67740 0.26046
 C889 C 0.73691 0.76681 0.32671
 O890 O 0.73645 0.81764 0.28449
 O891 O 0.77680 0.81628 0.26275
 O892 O 0.78213 0.80799 0.22216
 C893 C 0.78481 0.82191 0.24131
 O894 O 0.79468 0.70447 0.28612
 Zr895 Zr 0.78905 0.73204 0.25857
 O896 O 0.80342 0.76973 0.20813
 O897 O 0.78955 0.79149 0.29826
 O898 O 0.81670 0.74614 0.28289
 O899 O 0.80540 0.69952 0.24275
 O900 O 0.81989 0.74439 0.23780
 C901 C 0.82169 0.75870 0.21902
 O902 O 0.75180 0.79805 0.19129
 O903 O 0.70482 0.70764 0.20457
 O904 O 0.76446 0.75649 0.18164
 O905 O 0.74455 0.71878 0.18683
 O906 O 0.67678 0.75407 0.22044
 O907 O 0.69923 0.79283 0.21211
 C908 C 0.75510 0.73567 0.17360
 H909 H 0.69640 0.72151 0.24854
 H910 H 0.73703 0.80639 0.23816
 H911 H 0.78397 0.72638 0.21175
 H912 H 0.77278 0.74534 0.30113
 H913 H 0.67401 0.80356 0.25389
 H914 H 0.74652 0.82752 0.29630
 H915 H 0.78698 0.80789 0.30647
 H916 H 0.83259 0.73705 0.27952
 H917 H 0.66135 0.76381 0.22413
 H918 H 0.70763 0.69126 0.19639
 H919 H 0.75001 0.67470 0.20264
 H920 H 0.82360 0.69986 0.24661
 H921 H 0.68209 0.79996 0.21343
 H922 H 0.76616 0.80253 0.18058
 H923 H 0.72935 0.69935 0.32114
 H924 H 0.81278 0.70021 0.28714
 Zr925 Zr 0.77031 0.27111 0.78349
 O926 O 0.75659 0.29599 0.81056
 O927 O 0.80820 0.26814 0.79302
 O928 O 0.77136 0.25463 0.81884
 O929 O 0.77808 0.31701 0.73897
 O930 O 0.75290 0.21623 0.81339
 O931 O 0.78508 0.30797 0.77919
 O932 O 0.82406 0.24023 0.76527
 O933 O 0.77785 0.23298 0.77690
 O934 O 0.78756 0.26910 0.74921
 O935 O 0.73526 0.25284 0.78492
 O936 O 0.74497 0.28813 0.75883
 Zr937 Zr 0.73443 0.22804 0.71744
 Zr938 Zr 0.74275 0.21515 0.77644
 Zr939 Zr 0.76196 0.28407 0.72447
 Zr940 Zr 0.79379 0.23123 0.74212
 O941 O 0.73971 0.31544 0.71457
 O942 O 0.80764 0.19691 0.75652
 O943 O 0.76960 0.24639 0.71562
 O944 O 0.75977 0.21150 0.74216
 O945 O 0.71689 0.22992 0.75161
 O946 O 0.72711 0.26610 0.72428
 C947 C 0.82600 0.25503 0.78369
 C948 C 0.78620 0.32260 0.76039
 C949 C 0.76343 0.23311 0.82663
 O950 O 0.76372 0.18234 0.78433
 O951 O 0.72326 0.18372 0.76278
 O952 O 0.71771 0.19207 0.72224
 C953 C 0.71513 0.17812 0.74138
 O954 O 0.70552 0.29553 0.78641
 Zr955 Zr 0.71099 0.26798 0.75880
 O956 O 0.69634 0.23035 0.70840
 O957 O 0.71068 0.20846 0.79838
 O958 O 0.68347 0.25387 0.78326
 O959 O 0.69456 0.30051 0.74309
 O960 O 0.68004 0.25563 0.73820
 C961 C 0.67812 0.24135 0.71941
 O962 O 0.74786 0.20204 0.69123
 O963 O 0.79494 0.29246 0.70442
 O964 O 0.73521 0.24361 0.68171
 O965 O 0.75515 0.28132 0.68685
 O966 O 0.82304 0.24598 0.72004
 O967 O 0.80055 0.20723 0.71180
 C968 C 0.74455 0.26444 0.67365
 H969 H 0.80359 0.27851 0.74831
 H970 H 0.76289 0.19365 0.73802
 H971 H 0.71582 0.27370 0.71196
 H972 H 0.72748 0.25461 0.80125
 H973 H 0.82599 0.19645 0.75344
 H974 H 0.75371 0.17244 0.79618
 H975 H 0.71329 0.19204 0.80656
 H976 H 0.66757 0.26299 0.77999
 H977 H 0.83849 0.23622 0.72362
 H978 H 0.79208 0.30886 0.69628
 H979 H 0.74973 0.32537 0.70275
 H980 H 0.67638 0.30017 0.74705
 H981 H 0.81769 0.20007 0.71302
 H982 H 0.73344 0.19759 0.68059
 H983 H 0.77105 0.30057 0.82111
 H984 H 0.68744 0.29981 0.78751
 C985 C 0.43387 0.99785 0.31145
 N986 N 0.43706 0.97534 0.32270
 N987 N 0.45022 0.97370 0.34337
 C988 C 0.46081 0.99450 0.35337
 N989 N 0.45768 1.01700 0.34207
 N990 N 0.44451 1.01865 0.32140
 C991 C 0.41850 0.99968 0.28985
 C992 C 0.40530 1.00046 0.27187
 C993 C 0.47219 0.99334 0.37722
 C994 C 0.47975 0.99325 0.39804
 C995 C -0.06615 0.49781 0.81145
 N996 N -0.05548 0.51860 0.82138
 N997 N -0.04231 0.51696 0.84205
 C998 C -0.03921 0.49446 0.85337
 N999 N -0.04982 0.47366 0.84337
 N1000 N -0.06298 0.47530 0.82271
 C1001 C -0.08151 0.49965 0.78984
 C1002 C -0.09471 0.50043 0.77186
 C1003 C -0.02782 0.49330 0.87722
 C1004 C -0.02027 0.49320 0.89803
 C1005 C 0.06612 0.00205 0.81143
 N1006 N 0.05560 -0.01880 0.82141
 N1007 N 0.04241 -0.01719 0.84207
 C1008 C 0.03914 0.00531 0.85333
 N1009 N 0.04959 0.02616 0.84329
 N1010 N 0.06277 0.02456 0.82263
 C1011 C 0.08151 0.00027 0.78983
 C1012 C 0.09472 -0.00048 0.77186
 C1013 C 0.02773 0.00645 0.87718
 C1014 C 0.02017 0.00655 0.89799
 C1015 C 0.56613 0.50208 0.31142
 N1016 N 0.55559 0.48125 0.32139
 N1017 N 0.54240 0.48285 0.34205
 C1018 C 0.53915 0.50536 0.35333
 N1019 N 0.54963 0.52620 0.34330
 N1020 N 0.56281 0.52460 0.32264
 C1021 C 0.58151 0.50030 0.28982
 C1022 C 0.59472 0.49955 0.27185
 C1023 C 0.52775 0.50650 0.37717
 C1024 C 0.52018 0.50659 0.39799
 C1025 C 0.56613 0.49796 0.18856
 N1026 N 0.56281 0.47544 0.17735
 N1027 N 0.54963 0.47384 0.15669
 C1028 C 0.53915 0.49468 0.14666
 N1029 N 0.54240 0.51718 0.15793
 N1030 N 0.55559 0.51879 0.17859
 C1031 C 0.58151 0.49975 0.21016
 C1032 C 0.59473 0.50050 0.22813
 C1033 C 0.52775 0.49354 0.12282
 C1034 C 0.52019 0.49344 0.10200
 C1035 C 0.06613 0.99793 0.68857
 N1036 N 0.06282 0.97542 0.67735
 N1037 N 0.04964 0.97381 0.65670
 C1038 C 0.03916 0.99465 0.64667
 N1039 N 0.04240 1.01715 0.65795
 N1040 N 0.05558 1.01876 0.67860
 C1041 C 0.08152 0.99972 0.71017
 C1042 C 0.09473 1.00047 0.72814
 C1043 C 0.02775 0.99351 0.62283
 C1044 C 0.02019 0.99341 0.60201
 C1045 C -0.06612 0.50216 0.68856
 N1046 N -0.06292 0.52467 0.67731
 N1047 N -0.04975 0.52631 0.65665
 C1048 C -0.03918 0.50550 0.64664
 N1049 N -0.04232 0.48300 0.65794
 N1050 N -0.05549 0.48136 0.67861
 C1051 C -0.08149 0.50033 0.71017
 C1052 C -0.09470 0.49955 0.72814
 C1053 C -0.02779 0.50666 0.62279
 C1054 C -0.02024 0.50676 0.60197
 C1055 C 0.43387 0.00219 0.18857
 N1056 N 0.43707 0.02470 0.17732
 N1057 N 0.45023 0.02633 0.15665
 C1058 C 0.46081 0.00553 0.14665
 N1059 N 0.45769 -0.01697 0.15796
 N1060 N 0.44452 -0.01861 0.17863
 C1061 C 0.41850 0.00036 0.21017
 C1062 C 0.40530 -0.00042 0.22815
 C1063 C 0.47220 0.00669 0.12280
 C1064 C 0.47976 0.00678 0.10198
 C1065 C 0.31596 0.40378 0.00385
 N1066 N 0.31702 0.42922 0.00197
 N1067 N 0.33886 0.44132 0.00456
 C1068 C 0.36037 0.42844 0.00928
 N1069 N 0.35930 0.40301 0.01117
 N1070 N 0.33747 0.39092 0.00859
 C1071 C 0.29235 0.39051 0.00139
 C1072 C 0.27293 0.37860 0.00009
 C1073 C 0.38425 0.44140 0.01077
 C1074 C 0.40430 0.45226 0.01080
 C1075 C -0.18404 0.90377 0.50384
 N1076 N -0.18299 0.92921 0.50198
 N1077 N -0.16114 0.94131 0.50457
 C1078 C -0.13963 0.92842 0.50928
 N1079 N -0.14070 0.90300 0.51116
 N1080 N -0.16253 0.89091 0.50857
 C1081 C -0.20766 0.89050 0.50138
 C1082 C -0.22707 0.87859 0.50007
 C1083 C -0.11575 0.94139 0.51077
 C1084 C -0.09570 0.95224 0.51081
 C1085 C -0.18404 0.09622 0.99616
 N1086 N -0.16254 0.10906 0.99132
 N1087 N -0.14071 0.09696 0.98874
 C1088 C -0.13963 0.07155 0.99073
 N1089 N -0.16114 0.05868 0.99556
 N1090 N -0.18298 0.07079 0.99814
 C1091 C -0.20765 0.10950 0.99862
 C1092 C -0.22706 0.12142 0.99992
 C1093 C -0.11576 0.05858 0.98925
 C1094 C -0.09571 0.04772 0.98922
 C1095 C 0.31596 0.59623 0.49617
 N1096 N 0.33748 0.60910 0.49146
 N1097 N 0.35930 0.59700 0.48887
 C1098 C 0.36037 0.57158 0.49073
 N1099 N 0.33885 0.55869 0.49544
 N1100 N 0.31701 0.57079 0.49802
 C1101 C 0.29235 0.60951 0.49864
 C1102 C 0.27293 0.62142 0.49994
 C1103 C 0.38424 0.55861 0.48924
 C1104 C 0.40430 0.54775 0.48921
 C1105 C 0.18397 0.59638 0.50373
 N1106 N 0.18297 0.57090 0.50243
 N1107 N 0.16111 0.55884 0.50502
 C1108 C 0.13952 0.57180 0.50918
 N1109 N 0.14054 0.59727 0.51049
 N1110 N 0.16239 0.60933 0.50790
 C1111 C 0.20762 0.60961 0.50129
 C1112 C 0.22706 0.62148 0.50000
 C1113 C 0.11564 0.55885 0.51067
 C1114 C 0.09559 0.54799 0.51071
 C1115 C 0.68398 0.09639 0.00372
 N1116 N 0.68298 0.07091 0.00246
 N1117 N 0.66112 0.05885 0.00506
 C1118 C 0.63952 0.07182 0.00918
 N1119 N 0.64054 0.09729 0.01045
 N1120 N 0.66239 0.10934 0.00786
 C1121 C 0.70762 0.10962 0.00127
 C1122 C 0.72706 0.12148 -0.00002
 C1123 C 0.61564 0.05886 0.01068
 C1124 C 0.59559 0.04800 0.01072
 C1125 C 0.68396 0.90363 0.49626
 N1126 N 0.66238 0.89067 0.49212
 N1127 N 0.64053 0.90272 0.48953
 C1128 C 0.63950 0.92819 0.49081
 N1129 N 0.66110 0.94117 0.49494
 N1130 N 0.68296 0.92911 0.49753
 C1131 C 0.70761 0.89040 0.49871
 C1132 C 0.72705 0.87853 0.50000
 C1133 C 0.61562 0.94114 0.48932
 C1134 C 0.59557 0.95200 0.48928
 C1135 C 0.18396 0.40361 0.99628
 N1136 N 0.16236 0.39064 0.99225
 N1137 N 0.14051 0.40269 0.98965
 C1138 C 0.13950 0.42816 0.99082
 N1139 N 0.16110 0.44115 0.99484
 N1140 N 0.18297 0.42910 0.99743
 C1141 C 0.20761 0.39039 0.99873
 C1142 C 0.22705 0.37853 1.00002
 C1143 C 0.11562 0.44112 0.98932
 C1144 C 0.09557 0.45198 0.98927
 C1145 C -0.01132 0.31186 0.41060
 N1146 N -0.02385 0.33186 0.40135
 N1147 N -0.02390 0.35365 0.41325
 C1148 C -0.01135 0.35595 0.43464
 N1149 N 0.00104 0.33590 0.44398
 N1150 N 0.00108 0.31412 0.43207
 C1151 C -0.00862 0.28971 0.39649
 C1152 C -0.00517 0.27152 0.38410
 C1153 C -0.00945 0.37974 0.44612
 C1154 C -0.00739 0.39998 0.45538
 C1155 C 0.48873 -0.18815 -0.08936
 N1156 N 0.50120 -0.18588 -0.06792
 N1157 N 0.50115 -0.16410 -0.05601
 C1158 C 0.48869 -0.14408 -0.06531
 N1159 N 0.47608 -0.14639 -0.08665
 N1160 N 0.47613 -0.16817 -0.09856
 C1161 C 0.49143 -0.21030 -0.10348
 C1162 C 0.49486 -0.22848 -0.11588
 C1163 C 0.49060 -0.12028 -0.05383
 C1164 C 0.49265 -0.10004 -0.04458
 C1165 C 0.01189 -0.18792 1.08973
 N1166 N 0.00016 -0.18587 1.06788
 N1167 N 0.00020 -0.16408 1.05599
 C1168 C 0.01191 -0.14382 1.06572
 N1169 N 0.02380 -0.14591 1.08748
 N1170 N 0.02375 -0.16770 1.09936
 C1171 C 0.00909 -0.21011 1.10375
 C1172 C 0.00552 -0.22834 1.11604
 C1173 C 0.00993 -0.12004 1.05421
 C1174 C 0.00779 -0.09984 1.04491
 C1175 C 0.51181 0.31205 0.58965
 N1176 N 0.49997 0.31413 0.56787
 N1177 N 0.50002 0.33591 0.55597
 C1178 C 0.51184 0.35614 0.56564
 N1179 N 0.52383 0.35402 0.58734
 N1180 N 0.52378 0.33223 0.59923
 C1181 C 0.50902 0.28987 0.60370
 C1182 C 0.50546 0.27165 0.61601
 C1183 C 0.50987 0.37992 0.55413
 C1184 C 0.50773 0.40013 0.54484
 C1185 C 0.48876 1.18818 0.58938
 N1186 N 0.50123 1.18590 0.56794
 N1187 N 0.50118 1.16412 0.55604
 C1188 C 0.48872 1.14409 0.56534
 N1189 N 0.47610 1.14642 0.58668
 N1190 N 0.47615 1.16820 0.59859
 C1191 C 0.49146 1.21032 0.60350
 C1192 C 0.49489 1.22851 0.61589
 C1193 C 0.49061 1.12029 0.55386
 C1194 C 0.49266 1.10006 0.54460
 C1195 C -0.01115 0.68821 1.08932
 N1196 N -0.02387 0.66826 1.09846
 N1197 N -0.02393 0.64649 1.08654
 C1198 C -0.01120 0.64413 1.06526
 N1199 N 0.00137 0.66412 1.05603
 N1200 N 0.00142 0.68590 1.06794
 C1201 C -0.00847 0.71034 1.10345
 C1202 C -0.00505 0.72852 1.11587
 C1203 C -0.00932 0.62033 1.05379
 C1204 C -0.00728 0.60009 1.04454
 C1205 C 0.51177 0.68797 -0.08967
 N1206 N 0.52375 0.66779 -0.09924
 N1207 N 0.52380 0.64600 -0.08735
 C1208 C 0.51180 0.64387 -0.06566
 N1209 N 0.49997 0.66410 -0.05599
 N1210 N 0.49992 0.68589 -0.06788
 C1211 C 0.50898 0.71016 -0.10371
 C1212 C 0.50544 0.72838 -0.11602
 C1213 C 0.50984 0.62010 -0.05415
 C1214 C 0.50771 0.59989 -0.04485
 C1215 C 0.01172 1.18799 0.41037
 N1216 N -0.00019 1.18589 0.43213
 N1217 N -0.00014 1.16410 0.44402
 C1218 C 0.01175 1.14390 0.43440
 N1219 N 0.02382 1.14604 0.41273
 N1220 N 0.02377 1.16783 0.40084
 C1221 C 0.00894 1.21016 0.39632
 C1222 C 0.00540 1.22838 0.38400
 C1223 C 0.00980 1.12012 0.44590
 C1224 C 0.00768 1.09991 0.45519
 C1225 C 0.74779 0.68387 0.93854
 N1226 N 0.76858 0.69454 0.92860
 N1227 N 0.76693 0.70772 0.90794
 C1228 C 0.74443 0.71082 0.89662
 N1229 N 0.72364 0.70021 0.90661
 N1230 N 0.72528 0.68704 0.92727
 C1231 C 0.74962 0.66850 0.96014
 C1232 C 0.75041 0.65530 0.97812
 C1233 C 0.74327 0.72221 0.87277
 C1234 C 0.74318 0.72976 0.85196
 C1235 C 0.24778 0.18388 0.43857
 N1236 N 0.26856 0.19456 0.42864
 N1237 N 0.26692 0.20773 0.40797
 C1238 C 0.24442 0.21083 0.39666
 N1239 N 0.22362 0.20022 0.40664
 N1240 N 0.22526 0.18705 0.42730
 C1241 C 0.24961 0.16850 0.46016
 C1242 C 0.25040 0.15530 0.47814
 C1243 C 0.24326 0.22222 0.37281
 C1244 C 0.24316 0.22978 0.35199
 C1245 C 0.75201 0.31614 0.43857
 N1246 N 0.73117 0.30563 0.42858
 N1247 N 0.73277 0.29245 0.40791
 C1248 C 0.75527 0.28918 0.39665
 N1249 N 0.77612 0.29962 0.40669
 N1250 N 0.77453 0.31279 0.42736
 C1251 C 0.75023 0.33152 0.46017
 C1252 C 0.74949 0.34473 0.47815
 C1253 C 0.75641 0.27778 0.37280
 C1254 C 0.75651 0.27022 0.35199
 C1255 C 0.25202 0.81613 0.93860
 N1256 N 0.23118 0.80561 0.92861
 N1257 N 0.23278 0.79243 0.90795
 C1258 C 0.25529 0.78916 0.89668
 N1259 N 0.27613 0.79961 0.90673
 N1260 N 0.27454 0.81279 0.92739
 C1261 C 0.25024 0.83151 0.96020
 C1262 C 0.24950 0.84472 0.97817
 C1263 C 0.25643 0.77776 0.87284
 C1264 C 0.25652 0.77019 0.85202
 C1265 C 0.24776 0.81616 0.06147
 N1266 N 0.22525 0.81302 0.07275
 N1267 N 0.22360 0.79986 0.09341
 C1268 C 0.24438 0.78922 0.10339
 N1269 N 0.26688 0.79229 0.09206
 N1270 N 0.26854 0.80546 0.07139
 C1271 C 0.24961 0.83153 0.03987
 C1272 C 0.25040 0.84473 0.02189
 C1273 C 0.24322 0.77783 0.12724
 C1274 C 0.24313 0.77028 0.14805
 C1275 C 0.74776 0.31615 0.56144
 N1276 N 0.72525 0.31300 0.57271
 N1277 N 0.72360 0.29984 0.59337
 C1278 C 0.74438 0.28920 0.60335
 N1279 N 0.76688 0.29228 0.59202
 N1280 N 0.76854 0.30545 0.57136
 C1281 C 0.74960 0.33152 0.53984
 C1282 C 0.75040 0.34472 0.52186
 C1283 C 0.74322 0.27781 0.62720
 C1284 C 0.74313 0.27026 0.64802
 C1285 C 0.25198 0.18390 0.56143
 N1286 N 0.27450 0.18727 0.57263
 N1287 N 0.27609 0.20044 0.59329
 C1288 C 0.25524 0.21087 0.60334
 N1289 N 0.23273 0.20757 0.59209
 N1290 N 0.23113 0.19439 0.57143
 C1291 C 0.25021 0.16851 0.53983
 C1292 C 0.24948 0.15530 0.52186
 C1293 C 0.25637 0.22227 0.62719
 C1294 C 0.25647 0.22983 0.64800
 C1295 C 0.75199 0.68391 0.06140
 N1296 N 0.77450 0.68728 0.07259
 N1297 N 0.77609 0.70046 0.09325
 C1298 C 0.75524 0.71088 0.10331
 N1299 N 0.73273 0.70758 0.09206
 N1300 N 0.73113 0.69439 0.07140
 C1301 C 0.75021 0.66852 0.03980
 C1302 C 0.74948 0.65530 0.02183
 C1303 C 0.75637 0.72229 0.12715
 C1304 C 0.75647 0.72985 0.14797
 C1305 C 0.15368 0.56602 0.24627
 N1306 N 0.14075 0.58759 0.24198
 N1307 N 0.15282 0.60943 0.23940
 C1308 C 0.17827 0.61046 0.24084
 N1309 N 0.19122 0.58888 0.24511
 N1310 N 0.17915 0.56703 0.24769
 C1311 C 0.14043 0.54239 0.24870
 C1312 C 0.12854 0.52296 0.24998
 C1313 C 0.19124 0.63434 0.23935
 C1314 C 0.20210 0.65439 0.23931
 C1315 C 0.65368 0.06600 0.74625
 N1316 N 0.64075 0.08756 0.74194
 N1317 N 0.65282 0.10940 0.73935
 C1318 C 0.67827 0.11044 0.74081
 N1319 N 0.69122 0.08886 0.74511
 N1320 N 0.67915 0.06701 0.74769
 C1321 C 0.64043 0.04236 0.74869
 C1322 C 0.62855 0.02293 0.74998
 C1323 C 0.69123 0.13431 0.73931
 C1324 C 0.70209 0.15436 0.73927
 C1325 C 0.84628 0.06601 0.25383
 N1326 N 0.82083 0.06706 0.25209
 N1327 N 0.80874 0.08891 0.25468
 C1328 C 0.82165 0.11044 0.25927
 N1329 N 0.84709 0.10937 0.26101
 N1330 N 0.85917 0.08754 0.25843
 C1331 C 0.85954 0.04239 0.25136
 C1332 C 0.87143 0.02296 0.25006
 C1333 C 0.80869 0.13432 0.26075
 C1334 C 0.79784 0.15437 0.26078
 C1335 C 0.34629 0.56599 0.75384
 N1336 N 0.32083 0.56703 0.75218
 N1337 N 0.30875 0.58888 0.75477
 C1338 C 0.32167 0.61042 0.75929
 N1339 N 0.34711 0.60936 0.76096
 N1340 N 0.35919 0.58753 0.75837
 C1341 C 0.35954 0.54236 0.75137
 C1342 C 0.37143 0.52294 0.75006
 C1343 C 0.30871 0.63430 0.76078
 C1344 C 0.29785 0.65435 0.76081
 C1345 C 0.34628 0.43401 0.74618
 N1346 N 0.35917 0.41248 0.74160
 N1347 N 0.34709 0.39065 0.73901
 C1348 C 0.32165 0.38958 0.74074
 N1349 N 0.30874 0.41112 0.74531
 N1350 N 0.32083 0.43297 0.74790
 C1351 C 0.35954 0.45763 0.74865
 C1352 C 0.37143 0.47706 0.74996
 C1353 C 0.30869 0.36570 0.73924
 C1354 C 0.29784 0.34565 0.73921
 C1355 C 0.84628 0.93403 0.24616
 N1356 N 0.85917 0.91251 0.24157
 N1357 N 0.84709 0.89067 0.23897
 C1358 C 0.82166 0.88961 0.24070
 N1359 N 0.80874 0.91114 0.24529
 N1360 N 0.82083 0.93299 0.24789
 C1361 C 0.85954 0.95766 0.24864
 C1362 C 0.87143 0.97708 0.24995
 C1363 C 0.80870 0.86573 0.23921
 C1364 C 0.79784 0.84568 0.23918
 C1365 C 0.65368 0.93399 0.75373
 N1366 N 0.67915 0.93298 0.75227
 N1367 N 0.69123 0.91113 0.75485
 C1368 C 0.67828 0.88956 0.75917
 N1369 N 0.65283 0.89059 0.76065
 N1370 N 0.64076 0.91243 0.75806
 C1371 C 0.64044 0.95763 0.75129
 C1372 C 0.62855 0.97705 0.75001
 C1373 C 0.69125 0.86568 0.76066
 C1374 C 0.70211 0.84563 0.76070
 C1375 C 0.15367 0.43401 0.25374
 N1376 N 0.17915 0.43301 0.25235
 N1377 N 0.19122 0.41116 0.25495
 C1378 C 0.17827 0.38958 0.25919
 N1379 N 0.15281 0.39060 0.26059
 N1380 N 0.14074 0.41244 0.25799
 C1381 C 0.14043 0.45765 0.25129
 C1382 C 0.12854 0.47708 0.25001
 C1383 C 0.19123 0.36570 0.26069
 C1384 C 0.20209 0.34565 0.26073
 C1385 C 0.06207 0.23847 0.83985
 N1386 N 0.06415 0.25024 0.81803
 N1387 N 0.08595 0.25020 0.80615
 C1388 C 0.10619 0.23845 0.81587
 N1389 N 0.10407 0.22653 0.83761
 N1390 N 0.08227 0.22657 0.84948
 C1391 C 0.03984 0.24120 0.85384
 C1392 C 0.02156 0.24468 0.86609
 C1393 C 0.12996 0.24037 0.80435
 C1394 C 0.15016 0.24246 0.79502
 C1395 C 0.56208 0.73847 0.33981
 N1396 N 0.56416 0.75027 0.31800
 N1397 N 0.58595 0.75023 0.30613
 C1398 C 0.60619 0.73846 0.31582
 N1399 N 0.60407 0.72651 0.33755
 N1400 N 0.58227 0.72655 0.34943
 C1401 C 0.53985 0.74120 0.35381
 C1402 C 0.52158 0.74468 0.36608
 C1403 C 0.62996 0.74039 0.30430
 C1404 C 0.65016 0.74247 0.29498
 C1405 C 0.56206 0.26155 0.16022
 N1406 N 0.58223 0.27353 0.15064
 N1407 N 0.60402 0.27358 0.16252
 C1408 C 0.60617 0.26158 0.18421
 N1409 N 0.58595 0.24974 0.19388
 N1410 N 0.56415 0.24970 0.18200
 C1411 C 0.53984 0.25882 0.14621
 C1412 C 0.52158 0.25533 0.13394
 C1413 C 0.62994 0.25965 0.19573
 C1414 C 0.65014 0.25757 0.20504
 C1415 C 0.06205 0.76153 0.66028
 N1416 N 0.08221 0.77358 0.65074
 N1417 N 0.10400 0.77362 0.66263
 C1418 C 0.10615 0.76155 0.68429
 N1419 N 0.08595 0.74966 0.69391
 N1420 N 0.06415 0.74962 0.68203
 C1421 C 0.03984 0.75880 0.64626
 C1422 C 0.02159 0.75532 0.63396
 C1423 C 0.12992 0.75962 0.69580
 C1424 C 0.15013 0.75754 0.70511
 C1425 C 0.93817 0.73848 0.66069
 N1426 N 0.91817 0.72595 0.65143
 N1427 N 0.89639 0.72590 0.66335
 C1428 C 0.89410 0.73843 0.68474
 N1429 N 0.91415 0.75081 0.69409
 N1430 N 0.93593 0.75086 0.68217
 C1431 C 0.96030 0.74123 0.64655
 C1432 C 0.97846 0.74474 0.63413
 C1433 C 0.87030 0.74037 0.69621
 C1434 C 0.85006 0.74246 0.70545
 C1435 C 0.43818 0.23851 0.16074
 N1436 N 0.41819 0.22592 0.15153
 N1437 N 0.39642 0.22586 0.16346
 C1438 C 0.39411 0.23847 0.18481
 N1439 N 0.41415 0.25090 0.19411
 N1440 N 0.43593 0.25095 0.18219
 C1441 C 0.46030 0.24125 0.14658
 C1442 C 0.47844 0.24476 0.13415
 C1443 C 0.37031 0.24040 0.19628
 C1444 C 0.35007 0.24250 0.20552
 C1445 C 0.43820 0.76151 0.33922
 N1446 N 0.43593 0.74900 0.31781
 N1447 N 0.41416 0.74906 0.30588
 C1448 C 0.39414 0.76156 0.31515
 N1449 N 0.39646 0.77422 0.33647
 N1450 N 0.41823 0.77416 0.34839
 C1451 C 0.46031 0.75876 0.35339
 C1452 C 0.47844 0.75525 0.36583
 C1453 C 0.37034 0.75963 0.30369
 C1454 C 0.35009 0.75753 0.29446
 C1455 C 0.93820 0.26151 0.83919
 N1456 N 0.93593 0.24899 0.81778
 N1457 N 0.91416 0.24904 0.80585
 C1458 C 0.89414 0.26155 0.81511
 N1459 N 0.89646 0.27423 0.83642
 N1460 N 0.91823 0.27417 0.84835
 C1461 C 0.96030 0.25876 0.85337
 C1462 C 0.97842 0.25525 0.86582
 C1463 C 0.87034 0.25961 0.80365
 C1464 C 0.85009 0.25751 0.79442
 C1465 C 0.56863 1.00651 0.68857
 N1466 N 0.55413 0.98761 0.67971
 N1467 N 0.54112 0.99069 0.65911
 C1468 C 0.54199 1.01282 0.64679
 N1469 N 0.55642 1.03175 0.65570
 N1470 N 0.56943 1.02867 0.67630
 C1471 C 0.58370 1.00295 0.71016
 C1472 C 0.59676 1.00085 0.72814
 C1473 C 0.53066 1.01490 0.62298
 C1474 C 0.52301 1.01527 0.60220
 C1475 C 0.06865 0.50655 1.18855
 N1476 N 0.05412 0.48766 1.17971
 N1477 N 0.04111 0.49074 1.15910
 C1478 C 0.04202 0.51287 1.14677
 N1479 N 0.05648 0.53178 1.15567
 N1480 N 0.06948 0.52870 1.17627
 C1481 C 0.08372 0.50299 1.21014
 C1482 C 0.09676 0.50088 1.22813
 C1483 C 0.03069 0.51495 1.12295
 C1484 C 0.02305 0.51531 1.10217
 C1485 C -0.06859 -0.00637 1.18860
 N1486 N -0.05422 0.01261 1.17971
 N1487 N -0.04118 0.00957 1.15911
 C1488 C -0.04191 -0.01260 1.14683
 N1489 N -0.05622 -0.03160 1.15579
 N1490 N -0.06925 -0.02856 1.17638
 C1491 C -0.08370 -0.00286 1.21018
 C1492 C -0.09677 -0.00079 1.22815
 C1493 C -0.03056 -0.01466 1.12302
 C1494 C -0.02291 -0.01502 1.10225
 C1495 C 0.43138 0.49359 0.68858
 N1496 N 0.43070 0.47141 0.67635
 N1497 N 0.44373 0.46837 0.65575
 C1498 C 0.45806 0.48735 0.64681
 N1499 N 0.45882 0.50951 0.65910
 N1500 N 0.44578 0.51256 0.67970
 C1501 C 0.41629 0.49711 0.71017
 C1502 C 0.40322 0.49918 0.72815
 C1503 C 0.46940 0.48529 0.62300
 C1504 C 0.47706 0.48493 0.60222
 C1505 C 0.43139 0.50640 -0.18858
 N1506 N 0.43071 0.52859 -0.17635
 N1507 N 0.44373 0.53163 -0.15575
 C1508 C 0.45807 0.51265 -0.14681
 N1509 N 0.45882 0.49049 -0.15910
 N1510 N 0.44578 0.48744 -0.17969
 C1511 C 0.41629 0.50289 -0.21016
 C1512 C 0.40323 0.50082 -0.22813
 C1513 C 0.46941 0.51472 -0.12300
 C1514 C 0.47706 0.51508 -0.10223
 C1515 C -0.06863 1.00643 0.31144
 N1516 N -0.06933 1.02861 0.32368
 N1517 N -0.05631 1.03165 0.34427
 C1518 C -0.04196 1.01268 0.35321
 N1519 N -0.04119 0.99052 0.34092
 N1520 N -0.05423 0.98747 0.32032
 C1521 C -0.08373 1.00291 0.28986
 C1522 C -0.09678 1.00084 0.27188
 C1523 C -0.03062 1.01474 0.37702
 C1524 C -0.02296 1.01510 0.39779
 C1525 C 0.06861 0.49351 0.31142
 N1526 N 0.06941 0.47134 0.32368
 N1527 N 0.05640 0.46827 0.34428
 C1528 C 0.04198 0.48720 0.35320
 N1529 N 0.04111 0.50934 0.34088
 N1530 N 0.05413 0.51242 0.32028
 C1531 C 0.08369 0.49706 0.28983
 C1532 C 0.09675 0.49916 0.27185
 C1533 C 0.03065 0.48512 0.37702
 C1534 C 0.02300 0.48476 0.39780
 C1535 C 0.56863 -0.00652 -0.18857
 N1536 N 0.56944 -0.02868 -0.17630
 N1537 N 0.55644 -0.03175 -0.15569
 C1538 C 0.54200 -0.01283 -0.14678
 N1539 N 0.54112 0.00931 -0.15911
 N1540 N 0.55413 0.01239 -0.17971
 C1541 C 0.58371 -0.00297 -0.21016
 C1542 C 0.59676 -0.00086 -0.22814
 C1543 C 0.53067 -0.01490 -0.12296
 C1544 C 0.52303 -0.01526 -0.10218
 C1545 C 0.68486 0.59721 -0.00612
 N1546 N 0.68179 0.57429 0.00436
 N1547 N 0.66021 0.56173 0.00177
 C1548 C 0.64101 0.57158 -0.01149
 N1549 N 0.64410 0.59448 -0.02200
 N1550 N 0.66567 0.60704 -0.01941
 C1551 C 0.70803 0.61111 -0.00311
 C1552 C 0.72716 0.62336 -0.00116
 C1553 C 0.61710 0.55869 -0.01292
 C1554 C 0.59688 0.54817 -0.01283
 C1555 C 0.18484 1.09722 0.49390
 N1556 N 0.18178 1.07429 0.50436
 N1557 N 0.16020 1.06173 0.50177
 C1558 C 0.14099 1.07160 0.48853
 N1559 N 0.14408 1.09451 0.47805
 N1560 N 0.16565 1.10706 0.48063
 C1561 C 0.20801 1.11112 0.49691
 C1562 C 0.22715 1.12337 0.49886
 C1563 C 0.11709 1.05871 0.48709
 C1564 C 0.09686 1.04819 0.48719
 C1565 C 0.18487 -0.09717 1.00612
 N1566 N 0.16569 -0.10697 1.01943
 N1567 N 0.14413 -0.09441 1.02202
 C1568 C 0.14103 -0.07152 1.01148
 N1569 N 0.16022 -0.06170 0.99819
 N1570 N 0.18179 -0.07426 0.99560
 C1571 C 0.20804 -0.11108 1.00311
 C1572 C 0.22717 -0.12334 1.00116
 C1573 C 0.11713 -0.05863 1.01292
 C1574 C 0.09691 -0.04811 1.01282
 C1575 C 0.68485 0.40282 0.50610
 N1576 N 0.66567 0.39299 0.51939
 N1577 N 0.64410 0.40555 0.52198
 C1578 C 0.64101 0.42845 0.51147
 N1579 N 0.66021 0.43830 0.49820
 N1580 N 0.68178 0.42574 0.49561
 C1581 C 0.70802 0.38891 0.50309
 C1582 C 0.72716 0.37666 0.50114
 C1583 C 0.61711 0.44134 0.51290
 C1584 C 0.59688 0.45186 0.51281
 C1585 C -0.18480 0.40265 0.49394
 N1586 N -0.18182 0.42572 0.50413
 N1587 N -0.16023 0.43825 0.50154
 C1588 C -0.14091 0.42821 0.48856
 N1589 N -0.14391 0.40515 0.47836
 N1590 N -0.16550 0.39262 0.48094
 C1591 C -0.20800 0.38879 0.49694
 C1592 C -0.22717 0.37659 0.49887
 C1593 C -0.11700 0.44109 0.48713
 C1594 C -0.09678 0.45161 0.48722
 C1595 C 0.31522 -0.09736 -0.00604
 N1596 N 0.31819 -0.07428 0.00412
 N1597 N 0.33978 -0.06175 0.00153
 C1598 C 0.35911 -0.07181 -0.01142
 N1599 N 0.35611 -0.09488 -0.02160
 N1600 N 0.33453 -0.10740 -0.01901
 C1601 C 0.29201 -0.11121 -0.00304
 C1602 C 0.27284 -0.12341 -0.00110
 C1603 C 0.38302 -0.05893 -0.01285
 C1604 C 0.40324 -0.04840 -0.01276
 C1605 C 0.31520 1.09739 0.50608
 N1606 N 0.33451 1.10743 0.51904
 N1607 N 0.35610 1.09491 0.52163
 C1608 C 0.35910 1.07184 0.51145
 N1609 N 0.33977 1.06178 0.49851
 N1610 N 0.31818 1.07430 0.49591
 C1611 C 0.29200 1.11123 0.50307
 C1612 C 0.27283 1.12343 0.50113
 C1613 C 0.38301 1.05896 0.51288
 C1614 C 0.40323 1.04844 0.51279
 C1615 C -0.18478 0.59740 1.00606
 N1616 N -0.16546 0.60747 1.01899
 N1617 N -0.14387 0.59495 1.02159
 C1618 C -0.14088 0.57186 1.01144
 N1619 N -0.16022 0.56178 0.99852
 N1620 N -0.18182 0.57430 0.99592
 C1621 C -0.20799 0.61124 1.00305
 C1622 C -0.22716 0.62344 1.00111
 C1623 C -0.11697 0.55899 1.01287
 C1624 C -0.09675 0.54847 1.01278
 C1625 C 0.01366 0.68735 0.57883
 N1626 N 0.02726 0.66867 0.58921
 N1627 N 0.02846 0.64619 0.57868
 C1628 C 0.01606 0.64186 0.55752
 N1629 N 0.00265 0.66061 0.54701
 N1630 N 0.00144 0.68309 0.55755
 C1631 C 0.00957 0.71002 0.59177
 C1632 C 0.00535 0.72845 0.60359
 C1633 C 0.01462 0.61717 0.54794
 C1634 C 0.01225 0.59634 0.54012
 C1635 C 0.51360 0.18736 0.07881
 N1636 N 0.52724 0.16870 0.08918
 N1637 N 0.52845 0.14622 0.07864
 C1638 C 0.51602 0.14189 0.05750
 N1639 N 0.50257 0.16061 0.04701
 N1640 N 0.50136 0.18309 0.05755
 C1641 C 0.50951 0.21004 0.09176
 C1642 C 0.50530 0.22846 0.10358
 C1643 C 0.51459 0.11719 0.04792
 C1644 C 0.51222 0.09636 0.04011
 C1645 C -0.01420 0.18714 0.92089
 N1646 N -0.00253 0.18304 0.94247
 N1647 N -0.00375 0.16056 0.95299
 C1648 C -0.01664 0.14165 0.94216
 N1649 N -0.02851 0.14581 0.92068
 N1650 N -0.02730 0.16830 0.91017
 C1651 C -0.01002 0.20985 0.90803
 C1652 C -0.00568 0.22831 0.89630
 C1653 C -0.01512 0.11697 0.95175
 C1654 C -0.01265 0.09616 0.95960
 C1655 C 0.48586 0.68717 0.42093
 N1656 N 0.49761 0.68305 0.44247
 N1657 N 0.49639 0.66057 0.45300
 C1658 C 0.48342 0.64168 0.44221
 N1659 N 0.47148 0.64587 0.42077
 N1660 N 0.47269 0.66836 0.41026
 C1661 C 0.49004 0.70988 0.40806
 C1662 C 0.49437 0.72832 0.39632
 C1663 C 0.48493 0.61700 0.45179
 C1664 C 0.48738 0.59619 0.45964
 C1665 C 0.51355 0.81266 0.42119
 N1666 N 0.52721 0.83131 0.41083
 N1667 N 0.52842 0.85379 0.42137
 C1668 C 0.51597 0.85813 0.44251
 N1669 N 0.50250 0.83941 0.45298
 N1670 N 0.50129 0.81693 0.44244
 C1671 C 0.50948 0.78998 0.40824
 C1672 C 0.50528 0.77156 0.39642
 C1673 C 0.51454 0.88283 0.45208
 C1674 C 0.51218 0.90366 0.45990
 C1675 C 0.01349 0.31263 0.92123
 N1676 N 0.00115 0.31692 0.94244
 N1677 N 0.00236 0.33940 0.95298
 C1678 C 0.01590 0.35810 0.94256
 N1679 N 0.02842 0.35374 0.92147
 N1680 N 0.02722 0.33125 0.91093
 C1681 C 0.00942 0.28996 0.90827
 C1682 C 0.00523 0.27154 0.89644
 C1683 C 0.01449 0.38280 0.95213
 C1684 C 0.01214 0.40364 0.95994
 C1685 C 0.48589 0.31284 0.07907
 N1686 N 0.49766 0.31697 0.05753
 N1687 N 0.49644 0.33946 0.04701
 C1688 C 0.48345 0.35834 0.05780
 N1689 N 0.47150 0.35415 0.07922
 N1690 N 0.47271 0.33165 0.08974
 C1691 C 0.49007 0.29014 0.09194
 C1692 C 0.49439 0.27169 0.10368
 C1693 C 0.48496 0.38302 0.04821
 C1694 C 0.48741 0.40383 0.04036
 C1695 C -0.01405 0.81283 0.57906
 N1696 N -0.00225 0.81696 0.55754
 N1697 N -0.00348 0.83945 0.54702
 C1698 C -0.01650 0.85832 0.55778
 N1699 N -0.02849 0.85411 0.57919
 N1700 N -0.02727 0.83162 0.58971
 C1701 C -0.00988 0.79012 0.59194
 C1702 C -0.00557 0.77168 0.60368
 C1703 C -0.01501 0.88300 0.54819
 C1704 C -0.01257 0.90381 0.54035
 C1705 C 0.25656 0.31865 0.06148
 N1706 N 0.23767 0.30412 0.07032
 N1707 N 0.24076 0.29110 0.09092
 C1708 C 0.26289 0.29200 0.10325
 N1709 N 0.28179 0.30647 0.09435
 N1710 N 0.27871 0.31947 0.07376
 C1711 C 0.25299 0.33372 0.03989
 C1712 C 0.25088 0.34678 0.02191
 C1713 C 0.26497 0.28067 0.12707
 C1714 C 0.26533 0.27303 0.14784
 C1715 C 0.75654 0.81863 0.56145
 N1716 N 0.73764 0.80411 0.57029
 N1717 N 0.74073 0.79109 0.59089
 C1718 C 0.76287 0.79197 0.60321
 N1719 N 0.78178 0.80643 0.59431
 N1720 N 0.77870 0.81944 0.57371
 C1721 C 0.75298 0.83371 0.53986
 C1722 C 0.75087 0.84677 0.52189
 C1723 C 0.76495 0.78064 0.62702
 C1724 C 0.76531 0.77299 0.64780
 C1725 C 0.24363 0.68139 0.56141
 N1726 N 0.26260 0.69577 0.57030
 N1727 N 0.25956 0.70879 0.59090
 C1728 C 0.23740 0.70805 0.60319
 N1729 N 0.21841 0.69373 0.59424
 N1730 N 0.22144 0.68071 0.57364
 C1731 C 0.24713 0.66630 0.53982
 C1732 C 0.24920 0.65324 0.52183
 C1733 C 0.23534 0.71939 0.62700
 C1734 C 0.23498 0.72704 0.64778
 C1735 C 0.74364 0.18141 0.06138
 N1736 N 0.76262 0.19577 0.07027
 N1737 N 0.75958 0.20881 0.09087
 C1738 C 0.73741 0.20808 0.10315
 N1739 N 0.71842 0.19377 0.09420
 N1740 N 0.72145 0.18075 0.07360
 C1741 C 0.74715 0.16631 0.03979
 C1742 C 0.74921 0.15325 0.02181
 C1743 C 0.73535 0.21942 0.12696
 C1744 C 0.73499 0.22707 0.14774
 C1745 C 0.75658 0.18136 0.93852
 N1746 N 0.77873 0.18051 0.92623
 N1747 N 0.78181 0.19351 0.90563
 C1748 C 0.76292 0.20799 0.89674
 N1749 N 0.74079 0.20891 0.90908
 N1750 N 0.73770 0.19590 0.92969
 C1751 C 0.75301 0.16628 0.96011
 C1752 C 0.75089 0.15324 0.97809
 C1753 C 0.76500 0.21932 0.87293
 C1754 C 0.76536 0.22697 0.85215
 C1755 C 0.25657 0.68137 0.43855
 N1756 N 0.27873 0.68053 0.42627
 N1757 N 0.28181 0.69354 0.40567
 C1758 C 0.26291 0.70802 0.39677
 N1759 N 0.24079 0.70893 0.40911
 N1760 N 0.23769 0.69591 0.42971
 C1761 C 0.25300 0.66630 0.46013
 C1762 C 0.25088 0.65324 0.47811
 C1763 C 0.26500 0.71935 0.37296
 C1764 C 0.26536 0.72699 0.35218
 C1765 C 0.74365 0.81862 0.43860
 N1766 N 0.72145 0.81926 0.42638
 N1767 N 0.71843 0.80624 0.40578
 C1768 C 0.73744 0.79195 0.39682
 N1769 N 0.75961 0.79124 0.40909
 N1770 N 0.76264 0.80426 0.42970
 C1771 C 0.74715 0.83371 0.46019
 C1772 C 0.74920 0.84677 0.47817
 C1773 C 0.73538 0.78061 0.37301
 C1774 C 0.73502 0.77296 0.35223
 C1775 C 0.24366 0.31860 0.93863
 N1776 N 0.22146 0.31924 0.92642
 N1777 N 0.21843 0.30622 0.90582
 C1778 C 0.23744 0.29193 0.89685
 N1779 N 0.25961 0.29122 0.90913
 N1780 N 0.26265 0.30425 0.92973
 C1781 C 0.24715 0.33370 0.96022
 C1782 C 0.24921 0.34677 0.97819
 C1783 C 0.23539 0.28058 0.87304
 C1784 C 0.23502 0.27293 0.85227
 C1785 C 0.84730 0.43481 0.75604
 N1786 N 0.85723 0.41557 0.76918
 N1787 N 0.84470 0.39399 0.77176
 C1788 C 0.82172 0.39094 0.76140
 N1789 N 0.81177 0.41019 0.74828
 N1790 N 0.82431 0.43178 0.74569
 C1791 C 0.86117 0.45800 0.75305
 C1792 C 0.87340 0.47716 0.75112
 C1793 C 0.80884 0.36703 0.76283
 C1794 C 0.79831 0.34681 0.76274
 C1795 C 0.34731 0.93484 0.25606
 N1796 N 0.35724 0.91559 0.26920
 N1797 N 0.34471 0.89401 0.27178
 C1798 C 0.32172 0.89096 0.26143
 N1799 N 0.31177 0.91022 0.24832
 N1800 N 0.32431 0.93181 0.24573
 C1801 C 0.36118 0.95803 0.25307
 C1802 C 0.37340 0.97718 0.25113
 C1803 C 0.30884 0.86705 0.26286
 C1804 C 0.29832 0.84683 0.26277
 C1805 C 0.15273 0.93483 0.74389
 N1806 N 0.17574 0.93181 0.75422
 N1807 N 0.18828 0.91022 0.75163
 C1808 C 0.17833 0.89096 0.73851
 N1809 N 0.15534 0.89400 0.72817
 N1810 N 0.14280 0.91558 0.73075
 C1811 C 0.13885 0.95801 0.74690
 C1812 C 0.12663 0.97716 0.74885
 C1813 C 0.19122 0.86705 0.73708
 C1814 C 0.20173 0.84683 0.73718
 C1815 C 0.65274 0.43485 0.24387
 N1816 N 0.67575 0.43184 0.25419
 N1817 N 0.68829 0.41025 0.25159
 C1818 C 0.67834 0.39099 0.23848
 N1819 N 0.65534 0.39403 0.22814
 N1820 N 0.64280 0.41560 0.23074
 C1821 C 0.63886 0.45804 0.24688
 C1822 C 0.62663 0.47719 0.24884
 C1823 C 0.69122 0.36708 0.23705
 C1824 C 0.70174 0.34686 0.23714
 C1825 C 0.65274 0.56519 0.25611
 N1826 N 0.64280 0.58445 0.26923
 N1827 N 0.65534 0.60602 0.27183
 C1828 C 0.67833 0.60906 0.26149
 N1829 N 0.68829 0.58979 0.24838
 N1830 N 0.67574 0.56821 0.24578
 C1831 C 0.63886 0.54201 0.25309
 C1832 C 0.62663 0.52286 0.25114
 C1833 C 0.69122 0.63297 0.26292
 C1834 C 0.70174 0.65319 0.26282
 C1835 C 0.15273 0.06517 0.75613
 N1836 N 0.14279 0.08443 0.76925
 N1837 N 0.15533 0.10600 0.77184
 C1838 C 0.17833 0.10904 0.76151
 N1839 N 0.18829 0.08977 0.74842
 N1840 N 0.17575 0.06818 0.74582
 C1841 C 0.13885 0.04199 0.75311
 C1842 C 0.12662 0.02284 0.75115
 C1843 C 0.19122 0.13294 0.76295
 C1844 C 0.20174 0.15316 0.76285
 C1845 C 0.34731 0.06520 0.24397
 N1846 N 0.32431 0.06823 0.25431
 N1847 N 0.31177 0.08982 0.25172
 C1848 C 0.32172 0.10908 0.23860
 N1849 N 0.34471 0.10603 0.22825
 N1850 N 0.35724 0.08445 0.23083
 C1851 C 0.36118 0.04201 0.24696
 C1852 C 0.37340 0.02286 0.24890
 C1853 C 0.30884 0.13298 0.23717
 C1854 C 0.29832 0.15320 0.23726
 C1855 C 0.84730 0.56517 0.74394
 N1856 N 0.82430 0.56820 0.75427
 N1857 N 0.81176 0.58979 0.75168
 C1858 C 0.82171 0.60905 0.73857
 N1859 N 0.84470 0.60600 0.72822
 N1860 N 0.85724 0.58442 0.73081
 C1861 C 0.86117 0.54199 0.74694
 C1862 C 0.87340 0.52283 0.74888
 C1863 C 0.80883 0.63295 0.73713
 C1864 C 0.79831 0.65317 0.73722
 C1865 C 0.93713 0.76383 0.17072
 N1866 N 0.93301 0.75213 0.19229
 N1867 N 0.91051 0.75336 0.20280
 C1868 C 0.89162 0.76628 0.19197
 N1869 N 0.89581 0.77816 0.17050
 N1870 N 0.91831 0.77694 0.16000
 C1871 C 0.95988 0.75971 0.15791
 C1872 C 0.97839 0.75547 0.14623
 C1873 C 0.86694 0.76482 0.20159
 C1874 C 0.84614 0.76243 0.20947
 C1875 C 0.43713 0.26386 0.67077
 N1876 N 0.43300 0.25214 0.69233
 N1877 N 0.41051 0.25336 0.70284
 C1878 C 0.39162 0.26629 0.69202
 N1879 N 0.39581 0.27820 0.67057
 N1880 N 0.41830 0.27699 0.66007
 C1881 C 0.45987 0.25974 0.65794
 C1882 C 0.47837 0.25550 0.64625
 C1883 C 0.36694 0.26482 0.70164
 C1884 C 0.34614 0.26242 0.70952
 C1885 C 0.43716 0.73619 0.82918
 N1886 N 0.41836 0.72298 0.83984
 N1887 N 0.39587 0.72177 0.82933
 C1888 C 0.39166 0.73375 0.80792
 N1889 N 0.41053 0.74676 0.79715
 N1890 N 0.43302 0.74799 0.80767
 C1891 C 0.45989 0.74031 0.84203
 C1892 C 0.47838 0.74455 0.85373
 C1893 C 0.36698 0.73521 0.79831
 C1894 C 0.34618 0.73760 0.79044
 C1895 C 0.93714 0.23616 0.32917
 N1896 N 0.91834 0.22296 0.33982
 N1897 N 0.89585 0.22175 0.32931
 C1898 C 0.89165 0.23373 0.30790
 N1899 N 0.91052 0.24674 0.29713
 N1900 N 0.93301 0.24795 0.30764
 C1901 C 0.95987 0.24028 0.34201
 C1902 C 0.97836 0.24453 0.35373
 C1903 C 0.86697 0.23520 0.29829
 C1904 C 0.84617 0.23761 0.29041
 C1905 C 0.06262 0.26386 0.32872
 N1906 N 0.08129 0.27748 0.33910
 N1907 N 0.10377 0.27869 0.32856
 C1908 C 0.10810 0.26628 0.30740
 N1909 N 0.08936 0.25286 0.29690
 N1910 N 0.06688 0.25164 0.30744
 C1911 C 0.03997 0.25972 0.34170
 C1912 C 0.02159 0.25544 0.35354
 C1913 C 0.13280 0.26482 0.29784
 C1914 C 0.15364 0.26241 0.29005
 C1915 C 0.56264 0.76389 0.82871
 N1916 N 0.58132 0.77750 0.83909
 N1917 N 0.60380 0.77870 0.82855
 C1918 C 0.60811 0.76630 0.80738
 N1919 N 0.58937 0.75289 0.79688
 N1920 N 0.56689 0.75168 0.80743
 C1921 C 0.53999 0.75975 0.84169
 C1922 C 0.52161 0.75547 0.85354
 C1923 C 0.63281 0.76482 0.79782
 C1924 C 0.65365 0.76240 0.79003
 C1925 C 0.56261 0.23616 0.67135
 N1926 N 0.56688 0.24843 0.69259
 N1927 N 0.58935 0.24722 0.70314
 C1928 C 0.60808 0.23373 0.69268
 N1929 N 0.60374 0.22127 0.67155
 N1930 N 0.58126 0.22248 0.66101
 C1931 C 0.53997 0.24030 0.65835
 C1932 C 0.52160 0.24458 0.64648
 C1933 C 0.63278 0.23520 0.70223
 C1934 C 0.65362 0.23761 0.71001
 C1935 C 0.06261 0.73613 0.17140
 N1936 N 0.06688 0.74842 0.19263
 N1937 N 0.08935 0.74721 0.20318
 C1938 C 0.10807 0.73372 0.19274
 N1939 N 0.10373 0.72123 0.17163
 N1940 N 0.08126 0.72243 0.16108
 C1941 C 0.03998 0.74027 0.15839
 C1942 C 0.02162 0.74456 0.14651
 C1943 C 0.13277 0.73520 0.20228
 C1944 C 0.15362 0.73762 0.21006
   
