data_POSCAR
  _audit_creation_date              2014-09-24
  _audit_creation_method            'ToBaCCo'
  _symmetry_space_group_name_H-M    'P1'
  _symmetry_Int_Tables_number       1
  _symmetry_cell_setting            triclinic
  loop_
  _symmetry_equiv_pos_as_xyz
 x,y,z
_cell_length_a 89.2952
_cell_length_b 88.9862
_cell_length_c 89.1387
_cell_angle_alpha 90.053400
_cell_angle_beta 90.153400
_cell_angle_gamma 89.960100
loop_
  _atom_site_label
  _atom_site_type_symbol
  _atom_site_fract_x
  _atom_site_fract_y
  _atom_site_fract_z
C1 C 0.29985 0.43991 0.92907
 C2 C 0.29978 0.42889 0.94031
 C3 C 0.31099 0.42869 0.95110
 C4 C 0.32240 0.43950 0.95077
 C5 C 0.32246 0.45040 0.93966
 C6 C 0.31112 0.45060 0.92876
 C7 C 0.29102 0.44216 0.91657
 N8 N 0.29669 0.45392 0.90883
 C9 C 0.30896 0.45918 0.91609
 C10 C 0.33531 0.45875 0.94149
 N11 N 0.34292 0.45316 0.95340
 C12 C 0.33524 0.44140 0.95917
 C13 C 0.30868 0.41622 0.95993
 N14 N 0.29638 0.40898 0.95474
 C15 C 0.29084 0.41654 0.94277
 H16 H 0.28151 0.43545 0.91310
 H17 H 0.31605 0.46822 0.91216
 H18 H 0.33906 0.46790 0.93443
 H19 H 0.33892 0.43449 0.96847
 H20 H 0.31568 0.41242 0.96911
 H21 H 0.28131 0.41303 0.93609
 C22 C 0.43682 0.82399 0.44968
 C23 C 0.42583 0.81274 0.44938
 C24 C 0.42628 0.80164 0.43849
 C25 C 0.43773 0.80165 0.42775
 C26 C 0.44859 0.81276 0.42803
 C27 C 0.44814 0.82400 0.43906
 C28 C 0.43865 0.83664 0.45840
 N29 N 0.45078 0.84419 0.45330
 C30 C 0.45667 0.83666 0.44149
 C31 C 0.45771 0.81050 0.41579
 N32 N 0.45261 0.79832 0.40823
 C33 C 0.44041 0.79281 0.41535
 C34 C 0.41378 0.79279 0.44035
 N35 N 0.40589 0.79829 0.45209
 C36 C 0.41306 0.81047 0.45771
 H37 H 0.43149 0.84030 0.46749
 H38 H 0.46619 0.84033 0.43494
 H39 H 0.46707 0.81741 0.41238
 H40 H 0.43378 0.78336 0.41155
 H41 H 0.41044 0.78334 0.43346
 H42 H 0.40906 0.81736 0.46687
 C43 C 0.93662 0.92558 0.80297
 C44 C 0.92536 0.93657 0.80294
 C45 C 0.92517 0.94756 0.81397
 C46 C 0.93623 0.94769 0.82516
 C47 C 0.94736 0.93682 0.82519
 C48 C 0.94756 0.92570 0.81404
 C49 C 0.93901 0.91304 0.79423
 N50 N 0.95111 0.90569 0.79976
 C51 C 0.95643 0.91323 0.81185
 C52 C 0.95600 0.93911 0.83782
 N53 N 0.95034 0.95108 0.84530
 C54 C 0.93827 0.95642 0.83777
 C55 C 0.91252 0.95613 0.81171
 N56 N 0.90516 0.95058 0.79961
 C57 C 0.91282 0.93864 0.79415
 H58 H 0.93222 0.90931 0.78486
 H59 H 0.96577 0.90967 0.81878
 H60 H 0.96540 0.93234 0.84150
 H61 H 0.93127 0.96567 0.84141
 H62 H 0.90871 0.96542 0.81856
 H63 H 0.90930 0.93175 0.78477
 C64 C 0.44038 -0.07134 0.29949
 C65 C 0.42923 -0.06024 0.29944
 C66 C 0.42886 -0.04952 0.31072
 C67 C 0.43963 -0.04978 0.32219
 C68 C 0.45065 -0.06076 0.32225
 C69 C 0.45103 -0.07160 0.31083
 C70 C 0.44283 -0.08374 0.29057
 N71 N 0.45468 -0.09137 0.29625
 C72 C 0.45979 -0.08415 0.30863
 C73 C 0.45893 -0.05889 0.33518
 N74 N 0.45317 -0.04708 0.34282
 C75 C 0.44139 -0.04142 0.33508
 C76 C 0.41629 -0.04085 0.30841
 N77 N 0.40915 -0.04607 0.29604
 C78 C 0.41688 -0.05791 0.29045
 H79 H 0.43621 -0.08722 0.28097
 H80 H 0.46887 -0.08801 0.31574
 H81 H 0.46814 -0.06585 0.33897
 H82 H 0.43438 -0.03221 0.33878
 H83 H 0.41234 -0.03176 0.31546
 H84 H 0.41348 -0.06460 0.28088
 C85 C 0.80170 0.31164 0.32224
 C86 C 0.80204 0.32290 0.31126
 C87 C 0.81336 0.32302 0.30065
 C88 C 0.82447 0.31187 0.30091
 C89 C 0.82413 0.30074 0.31177
 C90 C 0.81267 0.30063 0.32250
 C91 C 0.79263 0.30933 0.33450
 N92 N 0.79787 0.29722 0.34206
 C93 C 0.81010 0.29180 0.33491
 C94 C 0.83675 0.29205 0.30991
 N95 N 0.84461 0.29765 0.29822
 C96 C 0.83729 0.30976 0.29262
 C97 C 0.81144 0.33572 0.29204
 N98 N 0.79927 0.34318 0.29719
 C99 C 0.79343 0.33554 0.30893
 H100 H 0.78323 0.31620 0.33794
 H101 H 0.81686 0.28244 0.33873
 H102 H 0.84020 0.28263 0.31679
 H103 H 0.84124 0.31673 0.28350
 H104 H 0.81859 0.33950 0.28301
 H105 H 0.78392 0.33914 0.31553
 C106 C -0.18762 0.82379 0.80070
 C107 C -0.17652 0.81264 0.80094
 C108 C -0.17684 0.80153 0.81181
 C109 C -0.18827 0.80142 0.82256
 C110 C -0.19925 0.81243 0.82233
 C111 C -0.19892 0.82369 0.81133
 C112 C -0.18958 0.83645 0.79202
 N113 N -0.20177 0.84389 0.79717
 C114 C -0.20758 0.83629 0.80896
 C115 C -0.20833 0.81008 0.83457
 N116 N -0.20309 0.79794 0.84208
 C117 C -0.19084 0.79254 0.83494
 C118 C -0.16424 0.79280 0.80990
 N119 N -0.15642 0.79838 0.79817
 C120 C -0.16373 0.81049 0.79259
 H121 H -0.18246 0.84018 0.78295
 H122 H -0.21711 0.83988 0.81555
 H123 H -0.21776 0.81693 0.83800
 H124 H -0.18409 0.78315 0.83870
 H125 H -0.16079 0.78337 0.81677
 H126 H -0.15982 0.81744 0.78344
 C127 C 0.94859 0.32399 0.43777
 C128 C 0.94876 0.31294 0.42654
 C129 C 0.93810 0.30163 0.42654
 C130 C 0.92714 0.30123 0.43777
 C131 C 0.92697 0.31215 0.44887
 C132 C 0.93775 0.32360 0.44886
 C133 C 0.95699 0.33677 0.44002
 N134 N 0.95147 0.34401 0.45219
 C135 C 0.93972 0.33616 0.45769
 C136 C 0.91461 0.30950 0.45769
 N137 N 0.90742 0.29728 0.45219
 C138 C 0.91489 0.29212 0.44003
 C139 C 0.94042 0.29304 0.41390
 N140 N 0.95220 0.29889 0.40636
 C141 C 0.95739 0.31104 0.41390
 H142 H 0.96613 0.34072 0.43312
 H143 H 0.93289 0.33954 0.46714
 H144 H 0.91088 0.31619 0.46712
 H145 H 0.91141 0.28273 0.43312
 H146 H 0.93381 0.28352 0.41023
 H147 H 0.96649 0.31817 0.41023
 C148 C 0.44947 0.43808 0.82389
 C149 C 0.44937 0.42693 0.81276
 C150 C 0.43854 0.42717 0.80160
 C151 C 0.42768 0.43857 0.80142
 C152 C 0.42779 0.44959 0.81242
 C153 C 0.43874 0.44934 0.82372
 C154 C 0.45799 0.44004 0.83665
 N155 N 0.45265 0.45219 0.84408
 C156 C 0.44089 0.45797 0.83638
 C157 C 0.41541 0.45853 0.81009
 N158 N 0.40793 0.45318 0.79799
 C159 C 0.41524 0.44099 0.79259
 C160 C 0.44053 0.41448 0.79297
 N161 N 0.45227 0.40669 0.79865
 C162 C 0.45777 0.41411 0.81074
 H163 H 0.46705 0.43290 0.84048
 H164 H 0.43414 0.46743 0.83996
 H165 H 0.41182 0.46790 0.81697
 H166 H 0.41150 0.43414 0.78326
 H167 H 0.43370 0.41094 0.78355
 H168 H 0.46689 0.41022 0.81776
 C169 C 0.80125 0.92689 0.93778
 C170 C 0.80155 0.93774 0.92638
 C171 C 0.81280 0.94845 0.92616
 C172 C 0.82388 0.94846 0.93733
 C173 C 0.82359 0.93774 0.94860
 C174 C 0.81221 0.92689 0.94883
 C175 C 0.79224 0.91459 0.94024
 N176 N 0.79750 0.90726 0.95249
 C177 C 0.80969 0.91459 0.95784
 C178 C 0.83615 0.93986 0.95735
 N179 N 0.84392 0.95159 0.95162
 C180 C 0.83663 0.95694 0.93940
 C181 C 0.81082 0.95692 0.91338
 N182 N 0.79867 0.95158 0.90598
 C183 C 0.79291 0.93986 0.91374
 H184 H 0.78286 0.91098 0.93340
 H185 H 0.81646 0.91098 0.96727
 H186 H 0.83959 0.93315 0.96689
 H187 H 0.84052 0.96601 0.93232
 H188 H 0.81789 0.96601 0.90953
 H189 H 0.78341 0.93316 0.91022
 C190 C 0.30080 0.82218 0.31139
 C191 C 0.30084 0.81130 0.32275
 C192 C 0.31173 0.80019 0.32290
 C193 C 0.32271 0.79984 0.31168
 C194 C 0.32267 0.81060 0.30046
 C195 C 0.31165 0.82184 0.30031
 C196 C 0.29222 0.83485 0.30904
 N197 N 0.29765 0.84204 0.29683
 C198 C 0.30951 0.83430 0.29139
 C199 C 0.33514 0.80814 0.29174
 N200 N 0.34261 0.79618 0.29743
 C201 C 0.33520 0.79101 0.30961
 C202 C 0.30964 0.79180 0.33570
 N203 N 0.29778 0.79757 0.34319
 C204 C 0.29230 0.80948 0.33547
 H205 H 0.28306 0.83878 0.31596
 H206 H 0.31636 0.83772 0.28198
 H207 H 0.33878 0.81481 0.28228
 H208 H 0.33889 0.78182 0.31667
 H209 H 0.31647 0.78249 0.33951
 H210 H 0.28310 0.81653 0.33908
 C211 C 0.80215 0.42688 0.43718
 C212 C 0.80242 0.43768 0.42575
 C213 C 0.81364 0.44843 0.42548
 C214 C 0.82473 0.44849 0.43664
 C215 C 0.82447 0.43781 0.44795
 C216 C 0.81311 0.42694 0.44822
 C217 C 0.79316 0.41458 0.43971
 N218 N 0.79843 0.40730 0.45197
 C219 C 0.81061 0.41467 0.45727
 C220 C 0.83705 0.43997 0.45666
 N221 N 0.84479 0.45169 0.45088
 C222 C 0.83747 0.45700 0.43866
 C223 C 0.81164 0.45684 0.41267
 N224 N 0.79951 0.45143 0.40529
 C225 C 0.79378 0.43973 0.41309
 H226 H 0.78377 0.41093 0.43291
 H227 H 0.81738 0.41110 0.46672
 H228 H 0.84053 0.43328 0.46620
 H229 H 0.84132 0.46606 0.43155
 H230 H 0.81869 0.46593 0.40878
 H231 H 0.78431 0.43298 0.40959
 C232 C 0.93758 0.82288 -0.05147
 C233 C 0.92680 0.81143 -0.05146
 C234 C 0.92690 0.80057 -0.06261
 C235 C 0.93781 0.80101 -0.07389
 C236 C 0.94847 0.81233 -0.07389
 C237 C 0.94835 0.82332 -0.06262
 C238 C 0.93957 0.83541 -0.04262
 N239 N 0.95126 0.84332 -0.04815
 C240 C 0.95672 0.83613 -0.06036
 C241 C 0.95702 0.81051 -0.08661
 N242 N 0.95177 0.79839 -0.09416
 C243 C 0.94003 0.79249 -0.08659
 C244 C 0.91462 0.79150 -0.06036
 N245 N 0.90720 0.79664 -0.04816
 C246 C 0.91446 0.80880 -0.04262
 H247 H 0.93278 0.83877 -0.03314
 H248 H 0.96581 0.84015 -0.06730
 H249 H 0.96609 0.81767 -0.09029
 H250 H 0.93339 0.78299 -0.09027
 H251 H 0.91107 0.78218 -0.06732
 H252 H 0.91076 0.81548 -0.03317
 C253 C 0.30068 0.32163 0.81071
 C254 C 0.30048 0.31061 0.82194
 C255 C 0.31151 0.29966 0.82234
 C256 C 0.32288 0.29961 0.81152
 C257 C 0.32308 0.31050 0.80042
 C258 C 0.31191 0.32157 0.80001
 C259 C 0.29197 0.33415 0.80816
 N260 N 0.29767 0.34156 0.79621
 C261 C 0.30985 0.33406 0.79113
 C262 C 0.33584 0.30826 0.79207
 N263 N 0.34326 0.29632 0.79787
 C264 C 0.33553 0.29093 0.80975
 C265 C 0.30906 0.29106 0.83493
 N266 N 0.29684 0.29655 0.84205
 C267 C 0.29150 0.30849 0.83430
 H268 H 0.28249 0.33786 0.81475
 H269 H 0.31691 0.33769 0.78196
 H270 H 0.33969 0.31505 0.78277
 H271 H 0.33908 0.28168 0.81680
 H272 H 0.31589 0.28180 0.83888
 H273 H 0.28207 0.31535 0.83765
 C274 C 0.17884 0.55993 0.54947
 C275 C 0.19004 0.57097 0.54950
 C276 C 0.20085 0.57104 0.56069
 C277 C 0.20058 0.56009 0.57198
 C278 C 0.18951 0.54918 0.57195
 C279 C 0.17859 0.54909 0.56062
 C280 C 0.16630 0.55781 0.54068
 N281 N 0.15859 0.54598 0.54626
 C282 C 0.16591 0.54056 0.55844
 C283 C 0.19134 0.54074 0.58477
 N284 N 0.20322 0.54629 0.59245
 C285 C 0.20896 0.55811 0.58482
 C286 C 0.20959 0.58359 0.55855
 N287 N 0.20433 0.59101 0.54637
 C288 C 0.19239 0.58349 0.54074
 H289 H 0.16276 0.56466 0.53128
 H290 H 0.16200 0.53146 0.56546
 H291 H 0.18429 0.53159 0.58849
 H292 H 0.21820 0.56502 0.58860
 H293 H 0.21875 0.58734 0.56560
 H294 H 0.18564 0.58714 0.53132
 C295 C 0.57338 0.68823 0.05170
 C296 C 0.56198 0.67740 0.05168
 C297 C 0.55113 0.67760 0.06277
 C298 C 0.55156 0.68862 0.07401
 C299 C 0.56282 0.69933 0.07402
 C300 C 0.57379 0.69913 0.06280
 C301 C 0.58589 0.69018 0.04290
 N302 N 0.59373 0.70198 0.04842
 C303 C 0.58653 0.70755 0.06057
 C304 C 0.56099 0.70800 0.08670
 N305 N 0.54893 0.70277 0.09424
 C306 C 0.54307 0.69095 0.08668
 C307 C 0.54207 0.66528 0.06051
 N308 N 0.54718 0.65775 0.04835
 C309 C 0.55933 0.66496 0.04285
 H310 H 0.58926 0.68331 0.03346
 H311 H 0.59049 0.71674 0.06749
 H312 H 0.56813 0.71712 0.09039
 H313 H 0.53362 0.68429 0.09036
 H314 H 0.53274 0.66181 0.06742
 H315 H 0.56597 0.66119 0.03342
 C316 C 0.68903 0.20080 0.67735
 C317 C 0.67816 0.20089 0.68868
 C318 C 0.67841 0.18998 0.69976
 C319 C 0.68953 0.17885 0.69965
 C320 C 0.70027 0.17876 0.68846
 C321 C 0.70002 0.18980 0.67724
 C322 C 0.69090 0.20936 0.66463
 N323 N 0.70272 0.20379 0.65694
 C324 C 0.70839 0.19185 0.66445
 C325 C 0.70897 0.16614 0.69053
 N326 N 0.70373 0.15870 0.70268
 C327 C 0.69187 0.16628 0.70835
 C328 C 0.66599 0.19220 0.70862
 N329 N 0.65835 0.20416 0.70315
 C330 C 0.66559 0.20956 0.69098
 H331 H 0.68392 0.21863 0.66099
 H332 H 0.71761 0.18492 0.66065
 H333 H 0.71807 0.16236 0.68347
 H334 H 0.68516 0.16263 0.71777
 H335 H 0.66250 0.18536 0.71803
 H336 H 0.66174 0.21880 0.68406
 C337 C 1.07259 0.05985 0.20038
 C338 C 1.06130 0.07081 0.20051
 C339 C 1.05016 0.07061 0.18965
 C340 C 1.05019 0.05946 0.17853
 C341 C 1.06135 0.04863 0.17839
 C342 C 1.07263 0.04883 0.18938
 C343 C 1.08537 0.05795 0.20885
 N344 N 1.09302 0.04607 0.20323
 C345 C 1.08543 0.04041 0.19134
 C346 C 1.05920 0.03994 0.16577
 N347 N 1.04703 0.04526 0.15840
 C348 C 1.04142 0.05719 0.16599
 C349 C 1.04140 0.08316 0.19185
 N350 N 1.04696 0.09083 0.20375
 C351 C 1.05911 0.08347 0.20914
 H352 H 1.08908 0.06494 0.21808
 H353 H 1.08919 0.03118 0.18438
 H354 H 1.06624 0.03078 0.16197
 H355 H 1.03200 0.06398 0.16240
 H356 H 1.03202 0.08675 0.18500
 H357 H 1.06612 0.08733 0.21829
 C358 C 0.06119 0.17816 1.05071
 C359 C 0.07264 0.18895 1.05087
 C360 C 0.07280 0.20002 1.06182
 C361 C 0.06152 0.20044 1.07273
 C362 C 0.05021 0.18979 1.07255
 C363 C 0.05005 0.17859 1.06148
 C364 C 0.05878 0.16555 1.04206
 N365 N 0.04647 0.15845 1.04736
 C366 C 0.04103 0.16624 1.05922
 C367 C 0.04140 0.19229 1.08496
 N368 N 0.04712 0.20418 1.09254
 C369 C 0.05942 0.20927 1.08526
 C370 C 0.08564 0.20834 1.05981
 N371 N 0.09314 0.20255 1.04794
 C372 C 0.08538 0.19071 1.04239
 H373 H 0.06570 0.16156 1.03293
 H374 H 0.03154 0.16289 1.06597
 H375 H 0.03184 0.18569 1.08848
 H376 H 0.06653 0.21838 1.08904
 H377 H 0.08946 0.21762 1.06668
 H378 H 0.08896 0.18368 1.03314
 C379 C 0.17804 0.70045 0.68936
 C380 C 0.18912 0.70041 0.67823
 C381 C 0.19988 0.68918 0.67803
 C382 C 0.19968 0.67784 0.68895
 C383 C 0.18874 0.67788 0.69995
 C384 C 0.17786 0.68925 0.70015
 C385 C 0.16561 0.70931 0.69165
 N386 N 0.15802 0.70374 0.70354
 C387 C 0.16532 0.69150 0.70883
 C388 C 0.19065 0.66506 0.70838
 N389 N 0.20246 0.65738 0.70274
 C390 C 0.20808 0.66500 0.69088
 C391 C 0.20853 0.69137 0.66546
 N392 N 0.20325 0.70362 0.65815
 C393 C 0.19140 0.70925 0.66577
 H394 H 0.16206 0.71878 0.68488
 H395 H 0.16150 0.68447 0.71797
 H396 H 0.18372 0.66136 0.71761
 H397 H 0.21727 0.66123 0.68392
 H398 H 0.21765 0.68433 0.66164
 H399 H 0.18468 0.71875 0.66223
 C400 C 1.18907 0.17678 0.19828
 C401 C 1.17816 0.18812 0.19871
 C402 C 1.17799 0.19921 0.18781
 C403 C 1.18873 0.19911 0.17636
 C404 C 1.19951 0.18791 0.17594
 C405 C 1.19968 0.17668 0.18697
 C406 C 1.19133 0.16409 0.20682
 N407 N 1.20303 0.15642 0.20093
 C408 C 1.20822 0.16392 0.18880
 C409 C 1.20783 0.19006 0.16313
 N410 N 1.20233 0.20227 0.15592
 C411 C 1.19065 0.20790 0.16381
 C412 C 1.16565 0.20812 0.19044
 N413 N 1.15846 0.20267 0.20263
 C414 C 1.16592 0.19046 0.20779
 H415 H 1.18474 0.16047 0.21633
 H416 H 1.21725 0.16014 0.18164
 H417 H 1.21691 0.18304 0.15914
 H418 H 1.18383 0.21739 0.16044
 H419 H 1.16191 0.21756 0.18374
 H420 H 1.16243 0.18356 0.21714
 C421 C 0.67796 1.05049 0.55978
 C422 C 0.68900 1.05041 0.57100
 C423 C 0.69985 1.06154 0.57130
 C424 C 0.69979 1.07287 0.56038
 C425 C 0.68888 1.07295 0.54929
 C426 C 0.67790 1.06170 0.54899
 C427 C 0.66547 1.04174 0.55737
 N428 N 0.65797 1.04738 0.54541
 C429 C 0.66538 1.05956 0.54019
 C430 C 0.69095 1.08575 0.54086
 N431 N 0.70282 1.09330 0.54661
 C432 C 0.70832 1.08563 0.55853
 C433 C 0.70842 1.05927 0.58397
 N434 N 0.70300 1.04708 0.59123
 C435 C 0.69114 1.04157 0.58349
 H436 H 0.66184 1.03228 0.56407
 H437 H 0.66166 1.06661 0.53100
 H438 H 0.68408 1.08952 0.53157
 H439 H 0.71753 1.08929 0.56558
 H440 H 0.71756 1.06624 0.58789
 H441 H 0.68430 1.03216 0.58697
 C442 C 0.56049 0.54973 0.17894
 C443 C 0.57180 0.54982 0.18989
 C444 C 0.57210 0.56104 0.20068
 C445 C 0.56111 0.57230 0.20066
 C446 C 0.54994 0.57221 0.18984
 C447 C 0.54963 0.56086 0.17892
 C448 C 0.55806 0.54088 0.16649
 N449 N 0.54602 0.54640 0.15904
 C450 C 0.54076 0.55859 0.16645
 C451 C 0.54148 0.58500 0.19188
 N452 N 0.54727 0.59270 0.20365
 C453 C 0.55926 0.58513 0.20910
 C454 C 0.58485 0.55894 0.20916
 N455 N 0.59216 0.54676 0.20375
 C456 C 0.58438 0.54109 0.19198
 H457 H 0.56483 0.53147 0.16282
 H458 H 0.53152 0.56557 0.16276
 H459 H 0.53213 0.58868 0.18505
 H460 H 0.56637 0.58893 0.21821
 H461 H 0.58879 0.56601 0.21824
 H462 H 0.58787 0.53164 0.18517
 C463 C 0.67710 0.68856 0.19800
 C464 C 0.68850 0.67771 0.19802
 C465 C 0.69933 0.67785 0.18691
 C466 C 0.69889 0.68885 0.17566
 C467 C 0.68764 0.69958 0.17565
 C468 C 0.67667 0.69943 0.18688
 C469 C 0.66458 0.69053 0.20678
 N470 N 0.65671 0.70229 0.20124
 C471 C 0.66391 0.70783 0.18909
 C472 C 0.68943 0.70817 0.16294
 N473 N 0.70147 0.70289 0.15538
 C474 C 0.70735 0.69109 0.16296
 C475 C 0.70831 0.66546 0.18911
 N476 N 0.70317 0.65793 0.20124
 C477 C 0.69107 0.66523 0.20679
 H478 H 0.66121 0.68366 0.21621
 H479 H 0.65991 0.71698 0.18215
 H480 H 0.68229 0.71728 0.15923
 H481 H 0.71678 0.68440 0.15927
 H482 H 0.71756 0.66189 0.18213
 H483 H 0.68438 0.66145 0.21616
 C484 C 0.17728 0.06169 1.05035
 C485 C 0.18833 0.07287 1.05060
 C486 C 0.19911 0.07290 1.06181
 C487 C 0.19896 0.06175 1.07292
 C488 C 0.18804 0.05070 1.07267
 C489 C 0.17714 0.05066 1.06132
 C490 C 0.16481 0.05954 1.04148
 N491 N 0.15725 0.04750 1.04683
 C492 C 0.16459 0.04199 1.05894
 C493 C 0.18999 0.04203 1.08532
 N494 N 0.20180 0.04757 1.09309
 C495 C 0.20738 0.05961 1.08571
 C496 C 0.20771 0.08559 1.05987
 N497 N 0.20238 0.09313 1.04779
 C498 C 0.19054 0.08555 1.04203
 H499 H 0.16121 0.06649 1.03218
 H500 H 0.16078 0.03271 1.06579
 H501 H 0.18307 0.03269 1.08885
 H502 H 0.21657 0.06655 1.08960
 H503 H 0.21684 0.08933 1.06697
 H504 H 0.18378 0.08924 1.03263
 C505 C 0.57277 0.20074 0.56085
 C506 C 0.56150 0.20107 0.57177
 C507 C 0.55027 0.19032 0.57163
 C508 C 0.55018 0.17912 0.56055
 C509 C 0.56131 0.17880 0.54975
 C510 C 0.57267 0.18967 0.54990
 C511 C 0.58559 0.20909 0.55889
 N512 N 0.59315 0.20333 0.54705
 C513 C 0.58544 0.19147 0.54146
 C514 C 0.55904 0.16615 0.54114
 N515 N 0.54684 0.15891 0.54648
 C516 C 0.54132 0.16664 0.55833
 C517 C 0.54151 0.19275 0.58409
 N518 N 0.54717 0.20467 0.59165
 C519 C 0.55938 0.20985 0.58432
 H520 H 0.58939 0.21834 0.56581
 H521 H 0.58909 0.18443 0.53226
 H522 H 0.56601 0.16221 0.53203
 H523 H 0.53190 0.16316 0.56512
 H524 H 0.53203 0.18608 0.58766
 H525 H 0.56644 0.21900 0.58809
 C526 C 0.07220 0.56090 0.70097
 C527 C 0.06081 0.57177 0.70095
 C528 C 0.04973 0.57137 0.69004
 C529 C 0.04990 0.56011 0.67903
 C530 C 0.06115 0.54937 0.67905
 C531 C 0.07236 0.54977 0.69009
 C532 C 0.08493 0.55915 0.70955
 N533 N 0.09268 0.54726 0.70411
 C534 C 0.08519 0.54143 0.69223
 C535 C 0.05911 0.54052 0.66653
 N536 N 0.04693 0.54566 0.65904
 C537 C 0.04121 0.55762 0.66648
 C538 C 0.04079 0.58382 0.69213
 N539 N 0.04621 0.59161 0.70401
 C540 C 0.05843 0.58444 0.70949
 H541 H 0.08853 0.56625 0.71875
 H542 H 0.08903 0.53213 0.68540
 H543 H 0.06621 0.53137 0.66286
 H544 H 0.03175 0.56429 0.66277
 H545 H 0.03136 0.58721 0.68526
 H546 H 0.06531 0.58841 0.71870
 C547 C 0.67846 0.54964 0.05930
 C548 C 0.68972 0.54961 0.07030
 C549 C 0.70058 0.56074 0.07033
 C550 C 0.70030 0.57202 0.05936
 C551 C 0.68916 0.57205 0.04850
 C552 C 0.67818 0.56080 0.04847
 C553 C 0.66587 0.54094 0.05725
 N554 N 0.65810 0.54657 0.04546
 C555 C 0.66543 0.55870 0.04000
 C556 C 0.69100 0.58485 0.04004
 N557 N 0.70295 0.59246 0.04552
 C558 C 0.70872 0.58482 0.05733
 C559 C 0.70934 0.55858 0.08288
 N560 N 0.70405 0.54644 0.09033
 C561 C 0.69207 0.54087 0.08283
 H562 H 0.66234 0.53156 0.06411
 H563 H 0.66149 0.56576 0.03092
 H564 H 0.68392 0.58862 0.03091
 H565 H 0.71804 0.58854 0.06419
 H566 H 0.71853 0.56560 0.08662
 H567 H 0.68527 0.53150 0.08651
 C568 C 0.06010 0.70169 0.57104
 C569 C 0.07108 0.70150 0.55981
 C570 C 0.07089 0.69037 0.54892
 C571 C 0.05973 0.67930 0.54913
 C572 C 0.04889 0.67947 0.56022
 C573 C 0.04908 0.69073 0.57124
 C574 C 0.05819 0.71045 0.58363
 N575 N 0.04630 0.70506 0.59133
 C576 C 0.04064 0.69302 0.58395
 C577 C 0.04020 0.66683 0.55831
 N578 N 0.04553 0.65913 0.54635
 C579 C 0.05745 0.66655 0.54065
 C580 C 0.08342 0.69232 0.54016
 N581 N 0.09108 0.70433 0.54549
 C582 C 0.08373 0.71004 0.55749
 H583 H 0.06520 0.71972 0.58721
 H584 H 0.03142 0.68616 0.58782
 H585 H 0.03101 0.66324 0.56536
 H586 H 0.06424 0.66270 0.53136
 H587 H 0.08698 0.68525 0.53094
 H588 H 0.08757 0.71936 0.56429
 C589 C 0.55971 1.04921 0.67887
 C590 C 0.57077 1.04930 0.69008
 C591 C 0.57057 1.06027 0.70112
 C592 C 0.55932 1.07128 0.70109
 C593 C 0.54840 1.07119 0.69001
 C594 C 0.54860 1.06009 0.67884
 C595 C 0.55776 1.04059 0.66616
 N596 N 0.54576 1.04601 0.65858
 C597 C 0.54007 1.05792 0.66612
 C598 C 0.53963 1.08375 0.69211
 N599 N 0.54499 1.09131 0.70418
 C600 C 0.55701 1.08389 0.70976
 C601 C 0.58316 1.05827 0.70984
 N602 N 0.59087 1.04639 0.70434
 C603 C 0.58349 1.04081 0.69227
 H604 H 0.56482 1.03141 0.66246
 H605 H 0.53075 1.06478 0.66239
 H606 H 0.53037 1.08738 0.68511
 H607 H 0.56385 1.08764 0.71910
 H608 H 0.58672 1.06522 0.71917
 H609 H 0.58735 1.03160 0.68534
 C610 C 0.44817 0.32400 0.93762
 C611 C 0.44818 0.31290 0.92644
 C612 C 0.43743 0.30168 0.92657
 C613 C 0.42653 0.30143 0.93786
 C614 C 0.42652 0.31240 0.94891
 C615 C 0.43740 0.32376 0.94879
 C616 C 0.45669 0.33673 0.93976
 N617 N 0.45131 0.34407 0.95193
 C618 C 0.43953 0.33634 0.95755
 C619 C 0.41419 0.30992 0.95781
 N620 N 0.40685 0.29774 0.95241
 C621 C 0.41421 0.29245 0.94023
 C622 C 0.43959 0.29301 0.91395
 N623 N 0.45136 0.29873 0.90630
 C624 C 0.45671 0.31087 0.91375
 H625 H 0.46582 0.34058 0.93278
 H626 H 0.43278 0.33983 0.96701
 H627 H 0.41057 0.31668 0.96724
 H628 H 0.41062 0.28306 0.93339
 H629 H 0.43287 0.28353 0.91037
 H630 H 0.46585 0.31791 0.90999
 C631 C 0.94878 0.43744 0.32443
 C632 C 0.94881 0.42630 0.31330
 C633 C 0.93786 0.42631 0.30225
 C634 C 0.92676 0.43747 0.30220
 C635 C 0.92674 0.44848 0.31320
 C636 C 0.93781 0.44847 0.32438
 C637 C 0.95742 0.43961 0.33708
 N638 N 0.95192 0.45166 0.34455
 C639 C 0.93995 0.45718 0.33699
 C640 C 0.91418 0.45719 0.31096
 N641 N 0.90672 0.45171 0.29891
 C642 C 0.91422 0.43966 0.29345
 C643 C 0.94006 0.41370 0.29355
 N644 N 0.95204 0.40617 0.29909
 C645 C 0.95748 0.41368 0.31115
 H646 H 0.96670 0.43269 0.34080
 H647 H 0.93307 0.46652 0.34062
 H648 H 0.91050 0.46653 0.31783
 H649 H 0.91056 0.43278 0.28411
 H650 H 0.93322 0.41003 0.28420
 H651 H 0.96676 0.40999 0.31807
 C652 C 0.30179 0.93775 0.42650
 C653 C 0.30190 0.92650 0.43750
 C654 C 0.31304 0.92632 0.44835
 C655 C 0.32421 0.93739 0.44833
 C656 C 0.32410 0.94852 0.43745
 C657 C 0.31282 0.94870 0.42647
 C658 C 0.29288 0.94012 0.41409
 N659 N 0.29828 0.95222 0.40666
 C660 C 0.31046 0.95757 0.41402
 C661 C 0.33671 0.95718 0.43961
 N662 N 0.34431 0.95154 0.45152
 C663 C 0.33687 0.93946 0.45694
 C664 C 0.31090 0.91365 0.45695
 N665 N 0.29877 0.90628 0.45155
 C666 C 0.29317 0.91394 0.43968
 H667 H 0.28347 0.93332 0.41050
 H668 H 0.31731 0.96690 0.41036
 H669 H 0.34029 0.96659 0.43282
 H670 H 0.34059 0.93248 0.46618
 H671 H 0.31788 0.90984 0.46615
 H672 H 0.28373 0.91040 0.43289
 O673 O 0.29013 0.49930 0.76983
 O674 O 0.28518 0.52491 0.76787
 O675 O 0.25101 0.48085 0.79027
 O676 O 0.22641 0.47987 0.78575
 O677 O 0.27003 0.46006 0.75064
 O678 O 0.26792 0.46507 0.72519
 O679 O 0.21094 0.51956 0.74988
 O680 O 0.21535 0.51667 0.77527
 O681 O 0.24886 0.53929 0.73101
 O682 O 0.27477 0.53506 0.73108
 O683 O 0.23057 0.50107 0.71114
 O684 O 0.23128 0.47432 0.71615
 O685 O 0.21080 0.50151 0.73171
 O686 O 0.21659 0.47355 0.73317
 O687 O 0.24878 0.51894 0.71090
 O688 O 0.27720 0.51645 0.71781
 O689 O 0.23066 0.53913 0.74886
 O690 O 0.23578 0.53425 0.77601
 O691 O 0.29032 0.48146 0.75142
 O692 O 0.28427 0.48477 0.72431
 O693 O 0.25189 0.45971 0.76860
 O694 O 0.22461 0.46573 0.76652
 O695 O 0.26921 0.49879 0.79033
 O696 O 0.26567 0.52589 0.78440
 Zr697 Zr 0.26833 0.50818 0.76866
 O698 O 0.25523 0.52251 0.75520
 Zr699 Zr 0.24232 0.48143 0.76832
 O700 O 0.22782 0.49500 0.75548
 Zr701 Zr 0.26860 0.48195 0.74195
 O702 O 0.25493 0.49495 0.72764
 Zr703 Zr 0.23253 0.51785 0.75900
 O704 O 0.24558 0.50432 0.77356
 Zr705 Zr 0.25856 0.51779 0.73239
 O706 O 0.27323 0.50479 0.74580
 Zr707 Zr 0.23220 0.49144 0.73262
 O708 O 0.24584 0.47680 0.74548
 O709 O 0.26486 0.48544 0.76467
 O710 O 0.23585 0.51424 0.73614
 C711 C 0.29656 0.48901 0.76205
 C712 C 0.26148 0.48842 0.79665
 C713 C 0.26240 0.45353 0.76093
 C714 C 0.20465 0.51221 0.73920
 C715 C 0.23803 0.54540 0.73823
 C716 C 0.23798 0.51164 0.70481
 H717 H 0.25760 0.53310 0.75763
 H718 H 0.25727 0.49247 0.71709
 H719 H 0.27127 0.47902 0.77109
 H720 H 0.21731 0.49270 0.75811
 H721 H 0.22016 0.51340 0.78474
 H722 H 0.21901 0.48795 0.78402
 H723 H 0.27454 0.50958 0.70949
 H724 H 0.29211 0.47692 0.72525
 H725 H 0.22723 0.54136 0.77559
 H726 H 0.27359 0.52499 0.79217
 H727 H 0.24076 0.47466 0.71045
 H728 H 0.25767 0.46087 0.72528
 H729 H 0.28947 0.52461 0.75765
 H730 H 0.27573 0.53949 0.74121
 H731 H 0.22648 0.45973 0.75735
 H732 H 0.20945 0.47555 0.74140
 O733 O 0.27037 -0.04051 0.25061
 O734 O 0.26810 -0.03582 0.22502
 O735 O 0.29085 -0.00091 0.26848
 O736 O 0.28622 0.02376 0.26932
 O737 O 0.25164 -0.02006 0.28974
 O738 O 0.22614 -0.01806 0.28496
 O739 O 0.24991 0.03863 0.22984
 O740 O 0.27531 0.03439 0.23257
 O741 O 0.23099 0.00026 0.21064
 O742 O 0.23122 -0.02570 0.21509
 O743 O 0.21153 0.01890 0.24876
 O744 O 0.21685 0.01847 0.27547
 O745 O 0.23196 0.03884 0.24798
 O746 O 0.23377 0.03338 0.27592
 O747 O 0.21117 0.00044 0.23108
 O748 O 0.21820 -0.02802 0.23381
 O749 O 0.24873 0.01863 0.21050
 O750 O 0.27593 0.01372 0.21520
 O751 O 0.25218 -0.04062 0.26855
 O752 O 0.22509 -0.03474 0.26547
 O753 O 0.26949 -0.00174 0.28978
 O754 O 0.26717 0.02558 0.28355
 O755 O 0.29077 -0.01937 0.25076
 O756 O 0.28450 -0.01618 0.22372
 Zr757 Zr 0.26901 -0.01874 0.24156
 O758 O 0.25537 -0.00582 0.22724
 Zr759 Zr 0.26888 0.00765 0.26803
 O760 O 0.25585 0.02198 0.25446
 Zr761 Zr 0.24265 -0.01888 0.26797
 O762 O 0.22816 -0.00539 0.25498
 Zr763 Zr 0.25912 0.01703 0.23167
 O764 O 0.27387 0.00416 0.24517
 Zr765 Zr 0.23266 -0.00925 0.23218
 O766 O 0.24625 -0.02375 0.24518
 Zr767 Zr 0.23308 0.01749 0.25824
 O768 O 0.24615 0.00403 0.27287
 O769 O 0.26528 -0.01503 0.26426
 O770 O 0.23636 0.01360 0.23549
 C771 C 0.26272 -0.04689 0.26099
 C772 C 0.29717 -0.01146 0.26097
 C773 C 0.26198 -0.01229 0.29611
 C774 C 0.23929 0.04494 0.23719
 C775 C 0.23807 0.01111 0.20439
 C776 C 0.20513 0.01133 0.23831
 H777 H 0.25768 -0.00829 0.21668
 H778 H 0.21767 -0.00777 0.25756
 H779 H 0.27180 -0.02136 0.27066
 H780 H 0.25845 0.03256 0.25664
 H781 H 0.28484 0.02964 0.23575
 H782 H 0.28437 0.03106 0.26118
 H783 H 0.20995 -0.02530 0.24070
 H784 H 0.22613 -0.04248 0.27341
 H785 H 0.27535 0.02218 0.20799
 H786 H 0.29231 -0.02407 0.22463
 H787 H 0.21114 0.00895 0.27520
 H788 H 0.22628 -0.00772 0.28907
 H789 H 0.25793 -0.04022 0.22546
 H790 H 0.24130 -0.02669 0.21064
 H791 H 0.25811 0.02370 0.28965
 H792 H 0.24195 0.04055 0.27379
 O793 O 0.50007 0.77023 0.29097
 O794 O 0.52559 0.76826 0.28615
 O795 O 0.48177 0.79064 0.25153
 O796 O 0.48077 0.78601 0.22691
 O797 O 0.46101 0.75099 0.27068
 O798 O 0.46603 0.72550 0.26869
 O799 O 0.52045 0.75004 0.21182
 O800 O 0.51753 0.77551 0.21612
 O801 O 0.54002 0.73117 0.24994
 O802 O 0.53580 0.73138 0.27590
 O803 O 0.50203 0.71131 0.23154
 O804 O 0.47532 0.71635 0.23211
 O805 O 0.50249 0.73184 0.21167
 O806 O 0.47462 0.73334 0.21726
 O807 O 0.51978 0.71109 0.24990
 O808 O 0.51723 0.71810 0.27832
 O809 O 0.53988 0.74903 0.23165
 O810 O 0.53503 0.77624 0.23668
 O811 O 0.48233 0.75179 0.29113
 O812 O 0.48562 0.72464 0.28519
 O813 O 0.46069 0.76892 0.25241
 O814 O 0.46678 0.76677 0.22511
 O815 O 0.49959 0.79075 0.26987
 O816 O 0.52660 0.78475 0.26655
 Zr817 Zr 0.50895 0.76901 0.26918
 O818 O 0.52328 0.75549 0.25618
 Zr819 Zr 0.48236 0.76862 0.24296
 O820 O 0.49592 0.75571 0.22856
 Zr821 Zr 0.48284 0.74227 0.26940
 O822 O 0.49585 0.72789 0.25584
 Zr823 Zr 0.51868 0.75924 0.23340
 O824 O 0.50515 0.77387 0.24634
 Zr825 Zr 0.51859 0.73264 0.25959
 O826 O 0.50559 0.74612 0.27415
 Zr827 Zr 0.49238 0.73283 0.23303
 O828 O 0.47775 0.74575 0.24656
 O829 O 0.48630 0.76503 0.26558
 O830 O 0.51509 0.73636 0.23681
 C831 C 0.48983 0.76242 0.29739
 C832 C 0.48930 0.79707 0.26201
 C833 C 0.45451 0.76127 0.26294
 C834 C 0.51317 0.73930 0.20554
 C835 C 0.54611 0.73836 0.23908
 C836 C 0.51255 0.70498 0.23904
 H837 H 0.53382 0.75792 0.25860
 H838 H 0.49338 0.71733 0.25821
 H839 H 0.47989 0.77148 0.27195
 H840 H 0.49366 0.75832 0.21802
 H841 H 0.51431 0.78502 0.22090
 H842 H 0.48893 0.78432 0.21963
 H843 H 0.51037 0.70978 0.27566
 H844 H 0.47776 0.72560 0.29298
 H845 H 0.54212 0.77581 0.22815
 H846 H 0.52571 0.79255 0.27447
 H847 H 0.47571 0.71061 0.24160
 H848 H 0.46190 0.72555 0.25837
 H849 H 0.52531 0.75802 0.29047
 H850 H 0.54019 0.74154 0.27684
 H851 H 0.46079 0.75761 0.22699
 H852 H 0.47663 0.74158 0.21010
 O853 O 0.03993 0.73072 0.74913
 O854 O 0.03516 0.73253 0.77472
 O855 O 0.00049 0.71041 0.73077
 O856 O -0.02407 0.71510 0.72977
 O857 O 0.01969 0.75014 0.71018
 O858 O 0.01763 0.77564 0.71533
 O859 O -0.03906 0.75081 0.76978
 O860 O -0.03478 0.72536 0.76670
 O861 O -0.00090 0.76949 0.78947
 O862 O 0.02506 0.76929 0.78513
 O863 O -0.01937 0.78962 0.75162
 O864 O -0.01882 0.78482 0.72483
 O865 O -0.03921 0.76911 0.75190
 O866 O -0.03361 0.76778 0.72395
 O867 O -0.00103 0.78968 0.76939
 O868 O 0.02733 0.78278 0.76671
 O869 O -0.01922 0.75169 0.78924
 O870 O -0.01424 0.72448 0.78418
 O871 O 0.04007 0.74929 0.73149
 O872 O 0.03414 0.77642 0.73495
 O873 O 0.00147 0.73219 0.70979
 O874 O -0.02581 0.73444 0.71586
 O875 O 0.01886 0.71020 0.74856
 O876 O 0.01560 0.71603 0.77566
 Zr877 Zr 0.01819 0.73188 0.75808
 O878 O 0.00524 0.74530 0.77254
 Zr879 Zr -0.00801 0.73245 0.73147
 O880 O -0.02236 0.74528 0.74517
 Zr881 Zr 0.01839 0.75879 0.73208
 O882 O 0.00489 0.77309 0.74524
 Zr883 Zr -0.01751 0.74160 0.76794
 O884 O -0.00462 0.72706 0.75427
 Zr885 Zr 0.00867 0.76817 0.76798
 O886 O 0.02317 0.75478 0.75484
 Zr887 Zr -0.01789 0.76819 0.74177
 O888 O -0.00442 0.75535 0.72700
 O889 O 0.01457 0.73601 0.73542
 O890 O -0.01409 0.76451 0.76448
 C891 C 0.04632 0.73860 0.73891
 C892 C 0.01098 0.70394 0.73824
 C893 C 0.01201 0.73984 0.70364
 C894 C -0.04532 0.76159 0.76255
 C895 C -0.01176 0.76229 0.79554
 C896 C -0.01189 0.79585 0.76223
 H897 H 0.00767 0.74280 0.78308
 H898 H 0.00726 0.78366 0.74284
 H899 H 0.02092 0.72959 0.72897
 H900 H -0.03289 0.74269 0.74289
 H901 H -0.03003 0.71586 0.76341
 H902 H -0.03132 0.71675 0.73797
 H903 H 0.02466 0.79113 0.75989
 H904 H 0.04191 0.77552 0.72706
 H905 H -0.02272 0.72491 0.79133
 H906 H 0.02348 0.70822 0.77468
 H907 H -0.00931 0.79049 0.72520
 H908 H 0.00735 0.77555 0.71115
 H909 H 0.03948 0.74277 0.77450
 H910 H 0.02586 0.75915 0.78959
 H911 H -0.02388 0.74360 0.70989
 H912 H -0.04076 0.75952 0.72590
 O913 O 0.00001 0.04010 0.02049
 O914 O -0.02554 0.03512 0.01872
 O915 O 0.01860 0.00063 0.04066
 O916 O 0.01952 -0.02405 0.03599
 O917 O 0.03896 0.02001 0.00111
 O918 O 0.03381 0.01799 -0.02435
 O919 O -0.02038 -0.03921 0.00025
 O920 O -0.01727 -0.03497 0.02569
 O921 O -0.04015 -0.00101 -0.01832
 O922 O -0.03590 0.02506 -0.01805
 O923 O -0.00233 -0.01931 -0.03841
 O924 O 0.02443 -0.01863 -0.03359
 O925 O -0.00254 -0.03924 -0.01800
 O926 O 0.02534 -0.03352 -0.01664
 O927 O -0.02013 -0.00100 -0.03846
 O928 O -0.01750 0.02748 -0.03148
 O929 O -0.03984 -0.01942 -0.00059
 O930 O -0.03478 -0.01445 0.02660
 O931 O 0.01762 0.04037 0.00198
 O932 O 0.01417 0.03445 -0.02512
 O933 O 0.03944 0.00165 0.01894
 O934 O 0.03342 -0.02573 0.01668
 O935 O 0.00079 0.01898 0.04093
 O936 O -0.02629 0.01547 0.03517
 Zr937 Zr -0.00882 0.01823 0.01931
 O938 O -0.02324 0.00520 0.00587
 Zr939 Zr 0.01781 -0.00793 0.01868
 O940 O 0.00417 -0.02237 0.00584
 Zr941 Zr 0.01709 0.01862 -0.00755
 O942 O 0.00399 0.00504 -0.02186
 Zr943 Zr -0.01857 -0.01761 0.00951
 O944 O -0.00495 -0.00465 0.02407
 Zr945 Zr -0.01872 0.00871 -0.01696
 O946 O -0.00564 0.02329 -0.00354
 Zr947 Zr 0.00752 -0.01781 -0.01702
 O948 O 0.02224 -0.00425 -0.00416
 O949 O 0.01380 0.01472 0.01517
 O950 O -0.01515 -0.01411 -0.01334
 C951 C 0.01018 0.04659 0.01265
 C952 C 0.01118 0.01115 0.04714
 C953 C 0.04553 0.01229 0.01135
 C954 C -0.01316 -0.04543 -0.01052
 C955 C -0.04616 -0.01195 -0.01117
 C956 C -0.01296 -0.01185 -0.04463
 H957 H -0.03376 0.00758 0.00836
 H958 H 0.00636 0.00745 -0.03242
 H959 H 0.02023 0.02112 0.02158
 H960 H 0.00647 -0.03293 0.00839
 H961 H -0.01398 -0.03020 0.03518
 H962 H 0.01139 -0.03139 0.03429
 H963 H -0.01074 0.02483 -0.03985
 H964 H 0.02203 0.04227 -0.02420
 H965 H -0.04190 -0.02299 0.02613
 H966 H -0.02531 0.02337 0.04298
 H967 H 0.02400 -0.00909 -0.03927
 H968 H 0.03799 0.00768 -0.02431
 H969 H -0.02536 0.03949 0.00851
 H970 H -0.04033 0.02583 -0.00792
 H971 H 0.03935 -0.02378 0.00753
 H972 H 0.02339 -0.04074 -0.00844
 O973 O 0.00089 0.53991 0.52022
 O974 O -0.02464 0.53508 0.51829
 O975 O 0.01913 0.50032 0.54050
 O976 O 0.01995 0.47564 0.53581
 O977 O 0.03988 0.51961 0.50109
 O978 O 0.03489 0.51764 0.47561
 O979 O -0.01978 0.46072 0.49982
 O980 O -0.01684 0.46494 0.52526
 O981 O -0.03921 0.49905 0.48111
 O982 O -0.03481 0.52510 0.48141
 O983 O -0.00135 0.48054 0.46126
 O984 O 0.02534 0.48105 0.46626
 O985 O -0.00183 0.46060 0.48168
 O986 O 0.02609 0.46618 0.48324
 O987 O -0.01904 0.49896 0.46110
 O988 O -0.01631 0.52742 0.46812
 O989 O -0.03913 0.48063 0.49883
 O990 O -0.03423 0.48556 0.52606
 O991 O 0.01863 0.54010 0.50184
 O992 O 0.01534 0.53421 0.47472
 O993 O 0.04014 0.50122 0.51890
 O994 O 0.03396 0.47389 0.51661
 O995 O 0.00141 0.51875 0.54066
 O996 O -0.02566 0.51540 0.53468
 Zr997 Zr -0.00804 0.51808 0.51897
 O998 O -0.02244 0.50515 0.50541
 Zr999 Zr 0.01845 0.49178 0.51850
 O1000 O 0.00481 0.47743 0.50556
 Zr1001 Zr 0.01806 0.51836 0.49229
 O1002 O 0.00498 0.50485 0.47788
 Zr1003 Zr -0.01793 0.48231 0.50908
 O1004 O -0.00433 0.49518 0.52374
 Zr1005 Zr -0.01774 0.50864 0.48262
 O1006 O -0.00467 0.52315 0.49614
 Zr1007 Zr 0.00835 0.48198 0.48274
 O1008 O 0.02305 0.49545 0.49570
 O1009 O 0.01459 0.51446 0.51499
 O1010 O -0.01433 0.48580 0.48625
 C1011 C 0.01113 0.54635 0.51245
 C1012 C 0.01171 0.51085 0.54694
 C1013 C 0.04635 0.51182 0.51136
 C1014 C -0.01253 0.45445 0.48910
 C1015 C -0.04534 0.48814 0.48821
 C1016 C -0.01187 0.48808 0.45498
 H1017 H -0.03297 0.50759 0.50784
 H1018 H 0.00744 0.50725 0.46735
 H1019 H 0.02102 0.52081 0.52145
 H1020 H 0.00704 0.46685 0.50813
 H1021 H -0.01357 0.46968 0.53478
 H1022 H 0.01178 0.46835 0.53406
 H1023 H -0.00949 0.52474 0.45981
 H1024 H 0.02323 0.54200 0.47570
 H1025 H -0.04140 0.47707 0.52553
 H1026 H -0.02469 0.52327 0.54252
 H1027 H 0.02508 0.49063 0.46065
 H1028 H 0.03901 0.50731 0.47567
 H1029 H -0.02442 0.53941 0.50807
 H1030 H -0.03935 0.52586 0.49149
 H1031 H 0.03998 0.47581 0.50750
 H1032 H 0.02403 0.45895 0.49141
 O1033 O 0.50058 0.04050 0.51988
 O1034 O 0.47501 0.03572 0.51801
 O1035 O 0.51881 0.00117 0.54054
 O1036 O 0.51956 -0.02355 0.53617
 O1037 O 0.53944 0.01989 0.50077
 O1038 O 0.53430 0.01770 0.47533
 O1039 O 0.47971 -0.03889 0.50044
 O1040 O 0.48278 -0.03439 0.52581
 O1041 O 0.46027 -0.00081 0.48132
 O1042 O 0.46459 0.02518 0.48132
 O1043 O 0.49808 -0.01949 0.46156
 O1044 O 0.52481 -0.01898 0.46656
 O1045 O 0.49757 -0.03924 0.48222
 O1046 O 0.52547 -0.03374 0.48362
 O1047 O 0.48043 -0.00104 0.46123
 O1048 O 0.48311 0.02746 0.46801
 O1049 O 0.46037 -0.01897 0.49931
 O1050 O 0.46539 -0.01374 0.52645
 O1051 O 0.51825 0.04044 0.50143
 O1052 O 0.51480 0.03427 0.47438
 O1053 O 0.53975 0.00175 0.51883
 O1054 O 0.53352 -0.02559 0.51693
 O1055 O 0.50107 0.01959 0.54053
 O1056 O 0.47400 0.01623 0.53467
 Zr1057 Zr 0.49157 0.01869 0.51887
 O1058 O 0.47712 0.00560 0.50552
 Zr1059 Zr 0.51803 -0.00765 0.51864
 O1060 O 0.50434 -0.02214 0.50591
 Zr1061 Zr 0.51757 0.01860 0.49211
 O1062 O 0.50444 0.00495 0.47791
 Zr1063 Zr 0.48163 -0.01720 0.50944
 O1064 O 0.49528 -0.00416 0.52391
 Zr1065 Zr 0.48174 0.00881 0.48268
 O1066 O 0.49486 0.02347 0.49597
 Zr1067 Zr 0.50780 -0.01787 0.48302
 O1068 O 0.52256 -0.00426 0.49577
 O1069 O 0.51419 0.01498 0.51486
 O1070 O 0.48514 -0.01399 0.48656
 C1071 C 0.51084 0.04682 0.51202
 C1072 C 0.51139 0.01177 0.54687
 C1073 C 0.54595 0.01222 0.51109
 C1074 C 0.48691 -0.04528 0.48975
 C1075 C 0.45415 -0.01161 0.48860
 C1076 C 0.48759 -0.01197 0.45520
 H1077 H 0.46660 0.00807 0.50795
 H1078 H 0.50688 0.00723 0.46734
 H1079 H 0.52066 0.02140 0.52122
 H1080 H 0.50657 -0.03269 0.50860
 H1081 H 0.48606 -0.02954 0.53527
 H1082 H 0.51144 -0.03091 0.53449
 H1083 H 0.48995 0.02473 0.45973
 H1084 H 0.52270 0.04206 0.47524
 H1085 H 0.45823 -0.02225 0.52607
 H1086 H 0.47499 0.02421 0.54239
 H1087 H 0.52446 -0.00952 0.46076
 H1088 H 0.53843 0.00737 0.47549
 H1089 H 0.47529 0.03999 0.50776
 H1090 H 0.46027 0.02624 0.49146
 H1091 H 0.53947 -0.02382 0.50774
 H1092 H 0.52348 -0.04082 0.49193
 O1093 O 0.50002 0.54002 0.02028
 O1094 O 0.47451 0.53512 0.01815
 O1095 O 0.51829 0.50061 0.04076
 O1096 O 0.51918 0.47592 0.03618
 O1097 O 0.53918 0.51979 0.00137
 O1098 O 0.53429 0.51781 -0.02414
 O1099 O 0.47972 0.46072 -0.00013
 O1100 O 0.48257 0.46494 0.02533
 O1101 O 0.46023 0.49896 -0.01890
 O1102 O 0.46456 0.52496 -0.01874
 O1103 O 0.49837 0.48053 -0.03857
 O1104 O 0.52506 0.48118 -0.03334
 O1105 O 0.49781 0.46063 -0.01813
 O1106 O 0.52568 0.46629 -0.01640
 O1107 O 0.48054 0.49881 -0.03886
 O1108 O 0.48313 0.52731 -0.03193
 O1109 O 0.46028 0.48060 -0.00111
 O1110 O 0.46511 0.48553 0.02608
 O1111 O 0.51787 0.54023 0.00200
 O1112 O 0.51470 0.53430 -0.02512
 O1113 O 0.53940 0.50149 0.01927
 O1114 O 0.53337 0.47416 0.01706
 O1115 O 0.50045 0.51893 0.04074
 O1116 O 0.47344 0.51549 0.03461
 Zr1117 Zr 0.49115 0.51817 0.01900
 O1118 O 0.47690 0.50513 0.00541
 Zr1119 Zr 0.51775 0.49197 0.01879
 O1120 O 0.50426 0.47752 0.00579
 Zr1121 Zr 0.51740 0.51847 -0.00752
 O1122 O 0.50446 0.50488 -0.02196
 Zr1123 Zr 0.48148 0.48231 0.00915
 O1124 O 0.49492 0.49530 0.02387
 Zr1125 Zr 0.48169 0.50858 -0.01737
 O1126 O 0.49463 0.52318 -0.00382
 Zr1127 Zr 0.50791 0.48204 -0.01703
 O1128 O 0.52247 0.49561 -0.00401
 O1129 O 0.51382 0.51462 0.01517
 O1130 O 0.48518 0.48576 -0.01366
 C1131 C 0.51031 0.54647 0.01257
 C1132 C 0.51075 0.51112 0.04711
 C1133 C 0.54563 0.51206 0.01169
 C1134 C 0.48707 0.45447 -0.01081
 C1135 C 0.45408 0.48809 -0.01174
 C1136 C 0.48782 0.48797 -0.04493
 H1137 H 0.46635 0.50754 0.00777
 H1138 H 0.50697 0.50726 -0.03249
 H1139 H 0.52020 0.52101 0.02165
 H1140 H 0.50651 0.46696 0.00839
 H1141 H 0.48580 0.46969 0.03485
 H1142 H 0.51116 0.46849 0.03432
 H1143 H 0.49000 0.52462 -0.04020
 H1144 H 0.52258 0.54210 -0.02413
 H1145 H 0.45800 0.47699 0.02559
 H1146 H 0.47433 0.52339 0.04242
 H1147 H 0.52467 0.49067 -0.03910
 H1148 H 0.53847 0.50750 -0.02405
 H1149 H 0.47484 0.53947 0.00794
 H1150 H 0.46005 0.52582 -0.00866
 H1151 H 0.53938 0.47603 0.00793
 H1152 H 0.52363 0.45910 -0.00820
 O1153 O 0.75104 0.26941 0.45955
 O1154 O 0.72551 0.26751 0.46436
 O1155 O 0.76937 0.28989 0.49893
 O1156 O 0.77028 0.28538 0.52357
 O1157 O 0.79005 0.25015 0.47987
 O1158 O 0.78498 0.22465 0.48197
 O1159 O 0.73056 0.24958 0.53871
 O1160 O 0.73354 0.27500 0.53438
 O1161 O 0.71097 0.23068 0.50055
 O1162 O 0.71530 0.23074 0.47457
 O1163 O 0.74891 0.21072 0.51908
 O1164 O 0.77560 0.21564 0.51853
 O1165 O 0.74849 0.23133 0.53891
 O1166 O 0.77638 0.23273 0.53330
 O1167 O 0.73116 0.21051 0.50072
 O1168 O 0.73376 0.21733 0.47229
 O1169 O 0.71112 0.24859 0.51882
 O1170 O 0.71608 0.27577 0.51380
 O1171 O 0.76876 0.25091 0.45942
 O1172 O 0.76542 0.22379 0.46542
 O1173 O 0.79036 0.26815 0.49811
 O1174 O 0.78429 0.26608 0.52541
 O1175 O 0.75159 0.28998 0.48055
 O1176 O 0.72455 0.28414 0.48391
 Zr1177 Zr 0.74214 0.26830 0.48133
 O1178 O 0.72777 0.25488 0.49433
 Zr1179 Zr 0.76870 0.26792 0.50757
 O1180 O 0.75510 0.25511 0.52197
 Zr1181 Zr 0.76821 0.24147 0.48117
 O1182 O 0.75516 0.22719 0.49474
 Zr1183 Zr 0.73236 0.25869 0.51711
 O1184 O 0.74592 0.27323 0.50416
 Zr1185 Zr 0.73243 0.23200 0.49096
 O1186 O 0.74547 0.24538 0.47639
 Zr1187 Zr 0.75860 0.23219 0.51754
 O1188 O 0.77328 0.24502 0.50401
 O1189 O 0.76478 0.26425 0.48495
 O1190 O 0.73591 0.23578 0.51375
 C1191 C 0.76128 0.26156 0.45315
 C1192 C 0.76190 0.29629 0.48839
 C1193 C 0.79655 0.26047 0.48758
 C1194 C 0.73783 0.23886 0.54502
 C1195 C 0.70487 0.23795 0.51137
 C1196 C 0.73837 0.20440 0.51159
 H1197 H 0.71724 0.25734 0.49189
 H1198 H 0.75761 0.21661 0.49239
 H1199 H 0.77120 0.27065 0.47857
 H1200 H 0.75737 0.25775 0.53251
 H1201 H 0.73679 0.28449 0.52960
 H1202 H 0.76218 0.28368 0.53090
 H1203 H 0.74063 0.20902 0.47498
 H1204 H 0.77328 0.22470 0.45762
 H1205 H 0.70896 0.27537 0.52231
 H1206 H 0.72550 0.29191 0.47599
 H1207 H 0.77525 0.20989 0.50903
 H1208 H 0.78913 0.22477 0.49227
 H1209 H 0.72578 0.25726 0.46005
 H1210 H 0.71084 0.24087 0.47369
 H1211 H 0.79027 0.25691 0.52354
 H1212 H 0.77438 0.24098 0.54046
 O1213 O 0.75030 0.76987 -0.04137
 O1214 O 0.72480 0.76804 -0.03654
 O1215 O 0.76862 0.79027 -0.00182
 O1216 O 0.76931 0.78567 0.02281
 O1217 O 0.78940 0.75069 -0.02066
 O1218 O 0.78364 0.72461 -0.01981
 O1219 O 0.72992 0.74969 0.03775
 O1220 O 0.73295 0.77520 0.03356
 O1221 O 0.71022 0.73111 -0.00035
 O1222 O 0.71525 0.73214 -0.02734
 O1223 O 0.74822 0.71093 0.01773
 O1224 O 0.77496 0.71594 0.01709
 O1225 O 0.74779 0.73138 0.03774
 O1226 O 0.77557 0.73268 0.03224
 O1227 O 0.73026 0.71093 -0.00043
 O1228 O 0.73183 0.71681 -0.02803
 O1229 O 0.71043 0.74893 0.01799
 O1230 O 0.71540 0.77609 0.01306
 O1231 O 0.76798 0.75134 -0.04159
 O1232 O 0.76663 0.72466 -0.03603
 O1233 O 0.78967 0.76874 -0.00253
 O1234 O 0.78356 0.76635 0.02456
 O1235 O 0.75087 0.79042 -0.02023
 O1236 O 0.72385 0.78457 -0.01695
 Zr1237 Zr 0.74143 0.76872 -0.01957
 O1238 O 0.72701 0.75531 -0.00657
 Zr1239 Zr 0.76798 0.76826 0.00671
 O1240 O 0.75441 0.75530 0.02101
 Zr1241 Zr 0.76751 0.74200 -0.01983
 O1242 O 0.75437 0.72763 -0.00648
 Zr1243 Zr 0.73167 0.75897 0.01621
 O1244 O 0.74521 0.77356 0.00330
 Zr1245 Zr 0.73161 0.73245 -0.01011
 O1246 O 0.74476 0.74581 -0.02461
 Zr1247 Zr 0.75788 0.73242 0.01638
 O1248 O 0.77264 0.74536 0.00301
 O1249 O 0.76412 0.76475 -0.01597
 O1250 O 0.73517 0.73608 0.01268
 C1251 C 0.76050 0.76201 -0.04782
 C1252 C 0.76115 0.79671 -0.01234
 C1253 C 0.79589 0.76101 -0.01297
 C1254 C 0.73717 0.73888 0.04394
 C1255 C 0.70416 0.73830 0.01054
 C1256 C 0.73758 0.70471 0.01030
 H1257 H 0.71649 0.75785 -0.00895
 H1258 H 0.75681 0.71708 -0.00891
 H1259 H 0.77055 0.77115 -0.02234
 H1260 H 0.75669 0.75784 0.03158
 H1261 H 0.73620 0.78470 0.02881
 H1262 H 0.76154 0.78359 0.03040
 H1263 H 0.74025 0.70979 -0.02632
 H1264 H 0.75685 0.72562 -0.04120
 H1265 H 0.70833 0.77569 0.02161
 H1266 H 0.72480 0.79237 -0.02485
 H1267 H 0.77454 0.71026 0.00755
 H1268 H 0.78832 0.72468 -0.00973
 H1269 H 0.72487 0.75771 -0.04069
 H1270 H 0.70930 0.74148 -0.02652
 H1271 H 0.78943 0.75709 0.02274
 H1272 H 0.77371 0.74103 0.03933
 O1273 O 1.04109 0.23031 0.24933
 O1274 O 1.03633 0.23218 0.27491
 O1275 O 1.00169 0.20958 0.23118
 O1276 O 0.97706 0.21403 0.23068
 O1277 O 1.02009 0.24914 0.21017
 O1278 O 1.01908 0.27524 0.21584
 O1279 O 0.96208 0.25018 0.27005
 O1280 O 0.96640 0.22466 0.26709
 O1281 O 1.00014 0.26898 0.28955
 O1282 O 1.02708 0.26804 0.28430
 O1283 O 0.98170 0.28890 0.25152
 O1284 O 0.98230 0.28378 0.22470
 O1285 O 0.96189 0.26839 0.25207
 O1286 O 0.96722 0.26699 0.22424
 O1287 O 0.99988 0.28905 0.26946
 O1288 O 1.02746 0.28340 0.26772
 O1289 O 0.98190 0.25111 0.28948
 O1290 O 0.98699 0.22394 0.28454
 O1291 O 1.04109 0.24875 0.23154
 O1292 O 1.03535 0.27539 0.23282
 O1293 O 1.00211 0.23100 0.21005
 O1294 O 0.97510 0.23326 0.21629
 O1295 O 1.02016 0.20961 0.24887
 O1296 O 1.01692 0.21553 0.27593
 Zr1297 Zr 1.01935 0.23134 0.25829
 O1298 O 1.00637 0.24476 0.27275
 Zr1299 Zr 0.99299 0.23155 0.23183
 O1300 O 0.97870 0.24450 0.24544
 Zr1301 Zr 1.01930 0.25795 0.23207
 O1302 O 1.00596 0.27231 0.24527
 Zr1303 Zr 0.98362 0.24097 0.26822
 O1304 O 0.99655 0.22638 0.25464
 Zr1305 Zr 1.00974 0.26761 0.26806
 O1306 O 1.02422 0.25426 0.25484
 Zr1307 Zr 0.98317 0.26739 0.24187
 O1308 O 0.99651 0.25444 0.22705
 O1309 O 1.01563 0.23520 0.23557
 O1310 O 0.98699 0.26386 0.26462
 C1311 C 1.04742 0.23817 0.23906
 C1312 C 1.01229 0.20324 0.23860
 C1313 C 1.01245 0.23875 0.20374
 C1314 C 0.95580 0.26093 0.26278
 C1315 C 0.98933 0.26178 0.29569
 C1316 C 0.98908 0.29518 0.26218
 H1317 H 1.00881 0.24228 0.28329
 H1318 H 1.00831 0.28287 0.24278
 H1319 H 1.02200 0.22880 0.22911
 H1320 H 0.96816 0.24191 0.24322
 H1321 H 0.97118 0.21516 0.26384
 H1322 H 0.96948 0.21614 0.23847
 H1323 H 1.02566 0.29037 0.25927
 H1324 H 1.04051 0.27454 0.24263
 H1325 H 0.97849 0.22433 0.29167
 H1326 H 1.02487 0.20779 0.27497
 H1327 H 0.99173 0.28958 0.22513
 H1328 H 1.00898 0.27511 0.21122
 H1329 H 1.04044 0.24251 0.27477
 H1330 H 1.02626 0.25880 0.29039
 H1331 H 0.97679 0.24253 0.21040
 H1332 H 0.96026 0.25856 0.22613
 O1333 O 0.74881 1.03996 0.72995
 O1334 O 0.77435 1.03493 0.73181
 O1335 O 0.73021 1.00067 0.70955
 O1336 O 0.72934 0.97596 0.71405
 O1337 O 0.70977 1.01987 0.74919
 O1338 O 0.71490 1.01784 0.77463
 O1339 O 0.76906 0.96055 0.74989
 O1340 O 0.76602 0.96488 0.72447
 O1341 O 0.78880 0.99864 0.76872
 O1342 O 0.78462 1.02470 0.76855
 O1343 O 0.75092 0.98039 0.78861
 O1344 O 0.72416 0.98117 0.78368
 O1345 O 0.75118 0.96051 0.76810
 O1346 O 0.72331 0.96629 0.76668
 O1347 O 0.76872 0.99867 0.78879
 O1348 O 0.76616 1.02717 0.78192
 O1349 O 0.78854 0.98029 0.75089
 O1350 O 0.78357 0.98535 0.72371
 O1351 O 0.73111 1.04023 0.74838
 O1352 O 0.73454 1.03426 0.77547
 O1353 O 0.70931 1.00157 0.73126
 O1354 O 0.71534 0.97420 0.73332
 O1355 O 0.74810 1.01892 0.70944
 O1356 O 0.77516 1.01530 0.71528
 Zr1357 Zr 0.75763 1.01807 0.73108
 O1358 O 0.77199 1.00497 0.74450
 Zr1359 Zr 0.73096 0.99198 0.73149
 O1360 O 0.74455 0.97747 0.74431
 Zr1361 Zr 0.73163 1.01846 0.75785
 O1362 O 0.74468 1.00480 0.77214
 Zr1363 Zr 0.76730 0.98218 0.74073
 O1364 O 0.75374 0.99522 0.72619
 Zr1365 Zr 0.76740 1.00843 0.76733
 O1366 O 0.75438 1.02309 0.75394
 Zr1367 Zr 0.74113 0.98197 0.76718
 O1368 O 0.72648 0.99561 0.75434
 O1369 O 0.73499 1.01461 0.73513
 O1370 O 0.76382 0.98562 0.76359
 C1371 C 0.73860 1.04644 0.73775
 C1372 C 0.73770 1.01117 0.70316
 C1373 C 0.70320 1.01216 0.73892
 C1374 C 0.76181 0.95431 0.76062
 C1375 C 0.79483 0.98770 0.76153
 C1376 C 0.76152 0.98782 0.79489
 H1377 H 0.78252 1.00732 0.74205
 H1378 H 0.74227 1.00719 0.78270
 H1379 H 0.72856 1.02103 0.72874
 H1380 H 0.74224 0.96692 0.74170
 H1381 H 0.76275 0.96968 0.71499
 H1382 H 0.73736 0.96850 0.71583
 H1383 H 0.75935 1.02452 0.79025
 H1384 H 0.72670 1.04211 0.77456
 H1385 H 0.79067 0.97678 0.72415
 H1386 H 0.77424 1.02323 0.70751
 H1387 H 0.72461 0.99067 0.78943
 H1388 H 0.71071 1.00754 0.77456
 H1389 H 0.77413 1.03928 0.74203
 H1390 H 0.78904 1.02553 0.75843
 H1391 H 0.70942 0.97610 0.74251
 H1392 H 0.72527 0.95910 0.75845
 O1393 O 0.71093 0.51963 0.24786
 O1394 O 0.71579 0.51771 0.27344
 O1395 O 0.75024 0.54010 0.22970
 O1396 O 0.77486 0.53556 0.22902
 O1397 O 0.73118 0.50061 0.20874
 O1398 O 0.73325 0.47505 0.21364
 O1399 O 0.78991 0.49943 0.26866
 O1400 O 0.78567 0.52491 0.26577
 O1401 O 0.75180 0.48060 0.28795
 O1402 O 0.72584 0.48080 0.28347
 O1403 O 0.77026 0.46078 0.24995
 O1404 O 0.76969 0.46584 0.22321
 O1405 O 0.79006 0.48128 0.25060
 O1406 O 0.78450 0.48287 0.22262
 O1407 O 0.75195 0.46056 0.26766
 O1408 O 0.72356 0.46748 0.26487
 O1409 O 0.77008 0.49843 0.28799
 O1410 O 0.76512 0.52567 0.28316
 O1411 O 0.71076 0.50124 0.22999
 O1412 O 0.71675 0.47409 0.23315
 O1413 O 0.74945 0.51851 0.20861
 O1414 O 0.77670 0.51631 0.21485
 O1415 O 0.73189 0.54017 0.24741
 O1416 O 0.73535 0.53423 0.27452
 Zr1417 Zr 0.73269 0.51846 0.25683
 O1418 O 0.74563 0.50492 0.27122
 Zr1419 Zr 0.75888 0.51812 0.23036
 O1420 O 0.77323 0.50518 0.24399
 Zr1421 Zr 0.73247 0.49176 0.23056
 O1422 O 0.74598 0.47736 0.24364
 Zr1423 Zr 0.76838 0.50867 0.26677
 O1424 O 0.75549 0.52334 0.25319
 Zr1425 Zr 0.74222 0.48208 0.26641
 O1426 O 0.72771 0.49558 0.25334
 Zr1427 Zr 0.76876 0.48230 0.24033
 O1428 O 0.75528 0.49526 0.22563
 O1429 O 0.73629 0.51450 0.23415
 O1430 O 0.76497 0.48580 0.26306
 C1431 C 0.70451 0.51184 0.23754
 C1432 C 0.73969 0.54649 0.23712
 C1433 C 0.73890 0.51093 0.20233
 C1434 C 0.79617 0.48870 0.26138
 C1435 C 0.76263 0.48777 0.29415
 C1436 C 0.76280 0.45446 0.26047
 H1437 H 0.74321 0.50733 0.28177
 H1438 H 0.74363 0.46680 0.24112
 H1439 H 0.72992 0.52094 0.22772
 H1440 H 0.78376 0.50778 0.24180
 H1441 H 0.78092 0.53443 0.26252
 H1442 H 0.78223 0.53373 0.23711
 H1443 H 0.72626 0.45916 0.25802
 H1444 H 0.70898 0.47505 0.22523
 H1445 H 0.77362 0.52521 0.29032
 H1446 H 0.72747 0.54204 0.27357
 H1447 H 0.76020 0.46014 0.22348
 H1448 H 0.74353 0.47518 0.20952
 H1449 H 0.71148 0.50747 0.27314
 H1450 H 0.72503 0.49090 0.28803
 H1451 H 0.77482 0.50716 0.20880
 H1452 H 0.79168 0.49107 0.22474
 O1453 O 0.54025 0.23026 0.74917
 O1454 O 0.53547 0.23202 0.77475
 O1455 O 0.50089 0.20970 0.73084
 O1456 O 0.47631 0.21423 0.72986
 O1457 O 0.51980 0.24957 0.71023
 O1458 O 0.51765 0.27502 0.71537
 O1459 O 0.46114 0.24980 0.76987
 O1460 O 0.46562 0.22438 0.76680
 O1461 O 0.49916 0.26880 0.78952
 O1462 O 0.52510 0.26875 0.78520
 O1463 O 0.48056 0.28878 0.75167
 O1464 O 0.48109 0.28396 0.72490
 O1465 O 0.46084 0.26811 0.75200
 O1466 O 0.46641 0.26683 0.72406
 O1467 O 0.49894 0.28899 0.76940
 O1468 O 0.52735 0.28220 0.76673
 O1469 O 0.48097 0.25088 0.78931
 O1470 O 0.48616 0.22369 0.78428
 O1471 O 0.54024 0.24883 0.73153
 O1472 O 0.53413 0.27592 0.73498
 O1473 O 0.50168 0.23152 0.70983
 O1474 O 0.47441 0.23354 0.71598
 O1475 O 0.51928 0.20959 0.74860
 O1476 O 0.51601 0.21540 0.77570
 Zr1477 Zr 0.51850 0.23127 0.75812
 O1478 O 0.50548 0.24462 0.77260
 Zr1479 Zr 0.49226 0.23169 0.73155
 O1480 O 0.47785 0.24441 0.74525
 Zr1481 Zr 0.51850 0.25818 0.73213
 O1482 O 0.50492 0.27240 0.74529
 Zr1483 Zr 0.48275 0.24077 0.76802
 O1484 O 0.49572 0.22631 0.75434
 Zr1485 Zr 0.50875 0.26752 0.76803
 O1486 O 0.52332 0.25421 0.75488
 Zr1487 Zr 0.48216 0.26735 0.74185
 O1488 O 0.49571 0.25460 0.72707
 O1489 O 0.51483 0.23538 0.73546
 O1490 O 0.48601 0.26370 0.76456
 C1491 C 0.54658 0.23819 0.73896
 C1492 C 0.51141 0.20328 0.73830
 C1493 C 0.51215 0.23926 0.70367
 C1494 C 0.45479 0.26053 0.76264
 C1495 C 0.48835 0.26154 0.79559
 C1496 C 0.48804 0.29508 0.76224
 H1497 H 0.50793 0.24214 0.78314
 H1498 H 0.50721 0.28299 0.74288
 H1499 H 0.52121 0.22900 0.72900
 H1500 H 0.46733 0.24175 0.74299
 H1501 H 0.47045 0.21491 0.76352
 H1502 H 0.46909 0.21580 0.73810
 H1503 H 0.52464 0.29052 0.75989
 H1504 H 0.54191 0.27506 0.72709
 H1505 H 0.47769 0.22408 0.79144
 H1506 H 0.52395 0.20765 0.77472
 H1507 H 0.49056 0.28970 0.72525
 H1508 H 0.50735 0.27493 0.71125
 H1509 H 0.53969 0.24230 0.77457
 H1510 H 0.52599 0.25861 0.78964
 H1511 H 0.47627 0.24272 0.70999
 H1512 H 0.45933 0.25853 0.72601
 O1513 O 0.20975 0.73016 0.50065
 O1514 O 0.21458 0.73207 0.47508
 O1515 O 0.24918 0.70975 0.51896
 O1516 O 0.27374 0.71437 0.51990
 O1517 O 0.23000 0.74935 0.53981
 O1518 O 0.23197 0.77486 0.53483
 O1519 O 0.28872 0.75033 0.48020
 O1520 O 0.28448 0.72487 0.48312
 O1521 O 0.25054 0.76911 0.46064
 O1522 O 0.22458 0.76892 0.46501
 O1523 O 0.26900 0.78903 0.49867
 O1524 O 0.26845 0.78409 0.52540
 O1525 O 0.28885 0.76852 0.49823
 O1526 O 0.28323 0.76703 0.52618
 O1527 O 0.25068 0.78921 0.48088
 O1528 O 0.22232 0.78232 0.48353
 O1529 O 0.26887 0.75130 0.46074
 O1530 O 0.26395 0.72408 0.46562
 O1531 O 0.20957 0.74861 0.51845
 O1532 O 0.21550 0.77576 0.51522
 O1533 O 0.24827 0.73143 0.54006
 O1534 O 0.27552 0.73363 0.53397
 O1535 O 0.23081 0.70962 0.50117
 O1536 O 0.23416 0.71555 0.47410
 Zr1537 Zr 0.23151 0.73134 0.49176
 O1538 O 0.24443 0.74485 0.47741
 Zr1539 Zr 0.25770 0.73177 0.51836
 O1540 O 0.27203 0.74466 0.50478
 Zr1541 Zr 0.23125 0.75811 0.51796
 O1542 O 0.24474 0.77247 0.50492
 Zr1543 Zr 0.26718 0.74112 0.48198
 O1544 O 0.25432 0.72649 0.49553
 Zr1545 Zr 0.24098 0.76770 0.48213
 O1546 O 0.22650 0.75423 0.49517
 Zr1547 Zr 0.26753 0.76755 0.50835
 O1548 O 0.25407 0.75463 0.52302
 O1549 O 0.23510 0.73535 0.51445
 O1550 O 0.26374 0.76400 0.48561
 C1551 C 0.20333 0.73798 0.51090
 C1552 C 0.23868 0.70332 0.51147
 C1553 C 0.23774 0.73905 0.54628
 C1554 C 0.29497 0.76106 0.48752
 C1555 C 0.26140 0.76193 0.45451
 C1556 C 0.26153 0.79533 0.48809
 H1557 H 0.24201 0.74240 0.46685
 H1558 H 0.24237 0.78304 0.50739
 H1559 H 0.22876 0.72891 0.52087
 H1560 H 0.28257 0.74206 0.50704
 H1561 H 0.27974 0.71535 0.48634
 H1562 H 0.28103 0.71608 0.51176
 H1563 H 0.22500 0.79064 0.49039
 H1564 H 0.20771 0.77481 0.52308
 H1565 H 0.27245 0.72453 0.45849
 H1566 H 0.22630 0.70774 0.47502
 H1567 H 0.25893 0.78977 0.52508
 H1568 H 0.24227 0.77479 0.53898
 H1569 H 0.21027 0.74232 0.47534
 H1570 H 0.22382 0.75882 0.46043
 H1571 H 0.27361 0.74277 0.54000
 H1572 H 0.29041 0.75881 0.52415
 O1573 O 0.25045 0.27005 0.96012
 O1574 O 0.22493 0.26801 0.96488
 O1575 O 0.26853 0.29054 0.99967
 O1576 O 0.26943 0.28592 1.02428
 O1577 O 0.28955 0.25103 0.98048
 O1578 O 0.28469 0.22549 0.98247
 O1579 O 0.22992 0.24974 1.03917
 O1580 O 0.23273 0.27524 1.03495
 O1581 O 0.21058 0.23089 1.00091
 O1582 O 0.21497 0.23109 0.97492
 O1583 O 0.24863 0.21115 1.01945
 O1584 O 0.27525 0.21621 1.01898
 O1585 O 0.24802 0.23165 1.03933
 O1586 O 0.27594 0.23332 1.03377
 O1587 O 0.23089 0.21088 1.00107
 O1588 O 0.23352 0.21779 0.97267
 O1589 O 0.21056 0.24873 1.01924
 O1590 O 0.21535 0.27598 1.01434
 O1591 O 0.26828 0.25166 0.95998
 O1592 O 0.26518 0.22452 0.96588
 O1593 O 0.28971 0.26896 0.99878
 O1594 O 0.28361 0.26673 1.02604
 O1595 O 0.25078 0.29059 0.98127
 O1596 O 0.22379 0.28450 0.98450
 Zr1597 Zr 0.24152 0.26882 0.98189
 O1598 O 0.22722 0.25524 0.99481
 Zr1599 Zr 0.26803 0.26852 1.00819
 O1600 O 0.25449 0.25556 1.02252
 Zr1601 Zr 0.26778 0.24218 0.98170
 O1602 O 0.25480 0.22774 0.99517
 Zr1603 Zr 0.23173 0.25899 1.01761
 O1604 O 0.24522 0.27368 1.00476
 Zr1605 Zr 0.23205 0.23241 0.99137
 O1606 O 0.24502 0.24594 0.97689
 Zr1607 Zr 0.25817 0.23269 1.01801
 O1608 O 0.27278 0.24568 1.00456
 O1609 O 0.26418 0.26492 0.98555
 O1610 O 0.23546 0.23612 1.01417
 C1611 C 0.26072 0.26225 0.95371
 C1612 C 0.26101 0.29694 0.98918
 C1613 C 0.29596 0.26136 0.98824
 C1614 C 0.23727 0.23905 1.04544
 C1615 C 0.20440 0.23806 1.01175
 C1616 C 0.23812 0.20480 1.01194
 H1617 H 0.21667 0.25763 0.99236
 H1618 H 0.25733 0.21719 0.99280
 H1619 H 0.27056 0.27139 0.97921
 H1620 H 0.25671 0.25816 1.03308
 H1621 H 0.23606 0.28473 1.03023
 H1622 H 0.26131 0.28415 1.03157
 H1623 H 0.24040 0.20950 0.97536
 H1624 H 0.27307 0.22550 0.95813
 H1625 H 0.20820 0.27549 1.02282
 H1626 H 0.22469 0.29231 0.97662
 H1627 H 0.27504 0.21061 1.00940
 H1628 H 0.28888 0.22565 0.99276
 H1629 H 0.22525 0.25777 0.96056
 H1630 H 0.21041 0.24119 0.97410
 H1631 H 0.28967 0.25761 1.02414
 H1632 H 0.27382 0.24148 1.04100
 C1633 C 0.29255 0.35542 0.79078
 C1634 C 0.28825 0.36743 0.78623
 C1635 C 0.28332 0.38192 0.78103
 C1636 C 0.26895 0.38713 0.78460
 C1637 C 0.26439 0.40147 0.78005
 C1638 C 0.27419 0.41064 0.77191
 C1639 C 0.28850 0.40537 0.76822
 C1640 C 0.29306 0.39104 0.77276
 C1641 C 0.26978 0.42564 0.76779
 C1642 C 0.26628 0.43832 0.76454
 H1643 H 0.26135 0.38019 0.79103
 H1644 H 0.25332 0.40546 0.78302
 H1645 H 0.29619 0.41240 0.76198
 H1646 H 0.30421 0.38714 0.76999
 C1647 C 0.29295 -0.14474 0.29181
 C1648 C 0.28881 -0.13263 0.28736
 C1649 C 0.28414 -0.11802 0.28227
 C1650 C 0.29389 -0.10577 0.28366
 C1651 C 0.28935 -0.09149 0.27900
 C1652 C 0.27502 -0.08937 0.27291
 C1653 C 0.26527 -0.10162 0.27144
 C1654 C 0.26983 -0.11593 0.27612
 C1655 C 0.27034 -0.07456 0.26842
 C1656 C 0.26670 -0.06201 0.26489
 H1657 H 0.30498 -0.10725 0.28843
 H1658 H 0.29697 -0.08209 0.28021
 H1659 H 0.25416 -0.10010 0.26678
 H1660 H 0.26218 -0.12532 0.27501
 C1661 C 0.79343 0.85709 0.79219
 C1662 C 0.78918 0.86916 0.78775
 C1663 C 0.78431 0.88371 0.78262
 C1664 C 0.76974 0.88571 0.77709
 C1665 C 0.76501 0.89993 0.77233
 C1666 C 0.77483 0.91219 0.77309
 C1667 C 0.78940 0.91016 0.77858
 C1668 C 0.79414 0.89596 0.78333
 C1669 C 0.76996 0.92690 0.76846
 C1670 C 0.76611 0.93935 0.76477
 H1671 H 0.76205 0.87632 0.77651
 H1672 H 0.75370 0.90138 0.76813
 H1673 H 0.79708 0.91957 0.77925
 H1674 H 0.80541 0.89455 0.78762
 C1675 C 0.45965 0.89550 0.29127
 C1676 C 0.46405 0.88348 0.28686
 C1677 C 0.46908 0.86897 0.28180
 C1678 C 0.48163 0.86223 0.28845
 C1679 C 0.48613 0.84784 0.28398
 C1680 C 0.47809 0.84015 0.27285
 C1681 C 0.46564 0.84697 0.26609
 C1682 C 0.46115 0.86135 0.27055
 C1683 C 0.48228 0.82508 0.26876
 C1684 C 0.48559 0.81235 0.26555
 H1685 H 0.48782 0.86800 0.29719
 H1686 H 0.49574 0.84266 0.28933
 H1687 H 0.45931 0.84110 0.25751
 H1688 H 0.45140 0.86644 0.26538
 C1689 C -0.04381 0.89258 0.79485
 C1690 C -0.03930 0.88058 0.79048
 C1691 C -0.03411 0.86612 0.78546
 C1692 C -0.03432 0.85386 0.79529
 C1693 C -0.02955 0.83972 0.79040
 C1694 C -0.02454 0.83778 0.77564
 C1695 C -0.02427 0.85005 0.76581
 C1696 C -0.02904 0.86420 0.77071
 C1697 C -0.01989 0.82314 0.77061
 C1698 C -0.01614 0.81075 0.76663
 H1699 H -0.03824 0.85520 0.80671
 H1700 H -0.02983 0.83030 0.79809
 H1701 H -0.02044 0.84866 0.75437
 H1702 H -0.02886 0.87361 0.76300
 C1703 C -0.04385 -0.14270 -0.04280
 C1704 C -0.03977 -0.13061 -0.03828
 C1705 C -0.03509 -0.11604 -0.03304
 C1706 C -0.02083 -0.11409 -0.02674
 C1707 C -0.01626 -0.09986 -0.02185
 C1708 C -0.02595 -0.08754 -0.02324
 C1709 C -0.04022 -0.08951 -0.02950
 C1710 C -0.04478 -0.10373 -0.03438
 C1711 C -0.02123 -0.07283 -0.01850
 C1712 C -0.01744 -0.06038 -0.01473
 H1713 H -0.01324 -0.12354 -0.02567
 H1714 H -0.00518 -0.09846 -0.01706
 H1715 H -0.04778 -0.08005 -0.03066
 H1716 H -0.05582 -0.10510 -0.03926
 C1717 C -0.04386 0.35723 0.45724
 C1718 C -0.03971 0.36932 0.46174
 C1719 C -0.03491 0.38386 0.46694
 C1720 C -0.02013 0.38605 0.47181
 C1721 C -0.01545 0.40027 0.47660
 C1722 C -0.02552 0.41235 0.47654
 C1723 C -0.04031 0.41014 0.47173
 C1724 C -0.04499 0.39593 0.46695
 C1725 C -0.02070 0.42707 0.48118
 C1726 C -0.01686 0.43952 0.48489
 H1727 H -0.01224 0.37680 0.47183
 H1728 H -0.00398 0.40187 0.48027
 H1729 H -0.04819 0.41941 0.47162
 H1730 H -0.05644 0.39437 0.46319
 C1731 C 0.45547 -0.14261 0.45836
 C1732 C 0.45964 -0.13053 0.46288
 C1733 C 0.46445 -0.11601 0.46810
 C1734 C 0.47956 -0.11344 0.47154
 C1735 C 0.48425 -0.09920 0.47628
 C1736 C 0.47385 -0.08748 0.47761
 C1737 C 0.45873 -0.09007 0.47424
 C1738 C 0.45405 -0.10430 0.46951
 C1739 C 0.47867 -0.07272 0.48212
 C1740 C 0.48254 -0.06025 0.48571
 H1741 H 0.48771 -0.12241 0.47046
 H1742 H 0.49598 -0.09731 0.47882
 H1743 H 0.45060 -0.08108 0.47519
 H1744 H 0.44234 -0.10614 0.46685
 C1745 C 0.45610 0.35728 -0.04313
 C1746 C 0.46037 0.36937 -0.03875
 C1747 C 0.46532 0.38392 -0.03372
 C1748 C 0.46573 0.39596 -0.04381
 C1749 C 0.47034 0.41017 -0.03895
 C1750 C 0.47457 0.41240 -0.02397
 C1751 C 0.47422 0.40034 -0.01387
 C1752 C 0.46960 0.38612 -0.01874
 C1753 C 0.47912 0.42710 -0.01900
 C1754 C 0.48281 0.43953 -0.01510
 H1755 H 0.46244 0.39438 -0.05541
 H1756 H 0.47057 0.41941 -0.04685
 H1757 H 0.47746 0.40195 -0.00226
 H1758 H 0.46931 0.37689 -0.01084
 C1759 C 0.79294 0.39365 0.45751
 C1760 C 0.78832 0.38181 0.46215
 C1761 C 0.78301 0.36752 0.46746
 C1762 C 0.77127 0.36022 0.45997
 C1763 C 0.76655 0.34601 0.46469
 C1764 C 0.77355 0.33905 0.47694
 C1765 C 0.78518 0.34641 0.48454
 C1766 C 0.78989 0.36063 0.47981
 C1767 C 0.76920 0.32412 0.48131
 C1768 C 0.76574 0.31148 0.48471
 H1769 H 0.76589 0.36542 0.45037
 H1770 H 0.75760 0.34038 0.45869
 H1771 H 0.79071 0.34110 0.49398
 H1772 H 0.79902 0.36615 0.48566
 C1773 C 0.79231 0.89431 -0.04236
 C1774 C 0.78769 0.88244 -0.03779
 C1775 C 0.78238 0.86811 -0.03256
 C1776 C 0.76969 0.86155 -0.03911
 C1777 C 0.76493 0.84731 -0.03451
 C1778 C 0.77285 0.83958 -0.02333
 C1779 C 0.78544 0.84621 -0.01666
 C1780 C 0.79020 0.86045 -0.02126
 C1781 C 0.76844 0.82461 -0.01916
 C1782 C 0.76498 0.81193 -0.01591
 H1783 H 0.76359 0.86735 -0.04790
 H1784 H 0.75522 0.84226 -0.03980
 H1785 H 0.79169 0.84030 -0.00806
 H1786 H 0.80006 0.86539 -0.01616
 C1787 C 0.79233 0.29198 0.35578
 C1788 C 0.78767 0.28764 0.36770
 C1789 C 0.78230 0.28273 0.38209
 C1790 C 0.77641 0.29323 0.39220
 C1791 C 0.77168 0.28862 0.40641
 C1792 C 0.77281 0.27348 0.41057
 C1793 C 0.77857 0.26294 0.40041
 C1794 C 0.78331 0.26756 0.38619
 C1795 C 0.76850 0.26892 0.42543
 C1796 C 0.76508 0.26539 0.43801
 H1797 H 0.77561 0.30499 0.38917
 H1798 H 0.76730 0.29688 0.41419
 H1799 H 0.77955 0.25122 0.40353
 H1800 H 0.78788 0.25935 0.37847
 C1801 C 0.79161 0.79286 -0.14500
 C1802 C 0.78691 0.78833 -0.13317
 C1803 C 0.78153 0.78311 -0.11889
 C1804 C 0.77048 0.79123 -0.11124
 C1805 C 0.76572 0.78653 -0.09706
 C1806 C 0.77199 0.77367 -0.09048
 C1807 C 0.78292 0.76546 -0.09821
 C1808 C 0.78768 0.77016 -0.11239
 C1809 C 0.76765 0.76927 -0.07559
 C1810 C 0.76424 0.76582 -0.06298
 H1811 H 0.76568 0.80129 -0.11614
 H1812 H 0.75732 0.79301 -0.09115
 H1813 H 0.78790 0.75555 -0.09320
 H1814 H 0.79627 0.76383 -0.11818
 C1815 C 0.29156 0.45897 0.89484
 C1816 C 0.28731 0.46323 0.88272
 C1817 C 0.28255 0.46815 0.86809
 C1818 C 0.26730 0.47029 0.86496
 C1819 C 0.26274 0.47475 0.85060
 C1820 C 0.27340 0.47709 0.83934
 C1821 C 0.28864 0.47504 0.84251
 C1822 C 0.29320 0.47058 0.85685
 C1823 C 0.26879 0.48129 0.82445
 C1824 C 0.26526 0.48464 0.81183
 H1825 H 0.25896 0.46842 0.87357
 H1826 H 0.25092 0.47628 0.84827
 H1827 H 0.29699 0.47679 0.83388
 H1828 H 0.30502 0.46895 0.85913
 C1829 C 0.29317 -0.04275 0.39361
 C1830 C 0.28859 -0.03834 0.38166
 C1831 C 0.28324 -0.03336 0.36726
 C1832 C 0.28586 -0.01860 0.36249
 C1833 C 0.28110 -0.01397 0.34825
 C1834 C 0.27369 -0.02410 0.33874
 C1835 C 0.27096 -0.03882 0.34357
 C1836 C 0.27572 -0.04344 0.35779
 C1837 C 0.26932 -0.01960 0.32386
 C1838 C 0.26585 -0.01610 0.31125
 H1839 H 0.29170 -0.01072 0.36970
 H1840 H 0.28332 -0.00258 0.34461
 H1841 H 0.26530 -0.04676 0.33629
 H1842 H 0.27366 -0.05490 0.36134
 C1843 C -0.04486 -0.04396 -0.14151
 C1844 C -0.04059 -0.03955 -0.12944
 C1845 C -0.03567 -0.03449 -0.11490
 C1846 C -0.04277 -0.03983 -0.10197
 C1847 C -0.03801 -0.03501 -0.08781
 C1848 C -0.02611 -0.02483 -0.08651
 C1849 C -0.01901 -0.01946 -0.09944
 C1850 C -0.02378 -0.02429 -0.11362
 C1851 C -0.02123 -0.01999 -0.07189
 C1852 C -0.01733 -0.01615 -0.05951
 H1853 H -0.05197 -0.04772 -0.10283
 H1854 H -0.04357 -0.03923 -0.07789
 H1855 H -0.00980 -0.01159 -0.09856
 H1856 H -0.01820 -0.02009 -0.12355
 C1857 C -0.04327 0.45653 0.35777
 C1858 C -0.03903 0.46087 0.36987
 C1859 C -0.03418 0.46589 0.38444
 C1860 C -0.04336 0.46356 0.39695
 C1861 C -0.03866 0.46830 0.41115
 C1862 C -0.02477 0.47539 0.41293
 C1863 C -0.01560 0.47777 0.40043
 C1864 C -0.02030 0.47303 0.38620
 C1865 C -0.01996 0.48008 0.42762
 C1866 C -0.01614 0.48384 0.44005
 H1867 H -0.05411 0.45806 0.39572
 H1868 H -0.04584 0.46640 0.42075
 H1869 H -0.00483 0.48325 0.40168
 H1870 H -0.01312 0.47489 0.37660
 C1871 C 0.45791 -0.04224 0.35703
 C1872 C 0.46187 -0.03818 0.36931
 C1873 C 0.46645 -0.03350 0.38409
 C1874 C 0.45967 -0.03985 0.39674
 C1875 C 0.46408 -0.03536 0.41112
 C1876 C 0.47530 -0.02450 0.41291
 C1877 C 0.48209 -0.01815 0.40027
 C1878 C 0.47767 -0.02264 0.38587
 C1879 C 0.47980 -0.01992 0.42774
 C1880 C 0.48343 -0.01621 0.44024
 H1881 H 0.45099 -0.04826 0.39549
 H1882 H 0.45876 -0.04035 0.42082
 H1883 H 0.49079 -0.00975 0.40153
 H1884 H 0.48300 -0.01767 0.37616
 C1885 C 0.45736 0.45689 -0.14260
 C1886 C 0.46153 0.46106 -0.13041
 C1887 C 0.46632 0.46585 -0.11574
 C1888 C 0.46113 0.45830 -0.10299
 C1889 C 0.46568 0.46294 -0.08871
 C1890 C 0.47545 0.47515 -0.08710
 C1891 C 0.48066 0.48270 -0.09984
 C1892 C 0.47610 0.47806 -0.11415
 C1893 C 0.48003 0.47990 -0.07235
 C1894 C 0.48369 0.48370 -0.05989
 H1895 H 0.45355 0.44886 -0.10410
 H1896 H 0.46157 0.45703 -0.07893
 H1897 H 0.48821 0.49217 -0.09872
 H1898 H 0.48017 0.48398 -0.12393
 C1899 C 0.45830 0.79299 0.39459
 C1900 C 0.46306 0.78850 0.38276
 C1901 C 0.46848 0.78330 0.36848
 C1902 C 0.48045 0.79066 0.36149
 C1903 C 0.48527 0.78601 0.34730
 C1904 C 0.47815 0.77398 0.34006
 C1905 C 0.46629 0.76652 0.34712
 C1906 C 0.46147 0.77117 0.36130
 C1907 C 0.48260 0.76967 0.32516
 C1908 C 0.48606 0.76625 0.31254
 H1909 H 0.48590 0.80009 0.36691
 H1910 H 0.49440 0.79190 0.34190
 H1911 H 0.46065 0.75726 0.34159
 H1912 H 0.45216 0.76545 0.36658
 C1913 C -0.04335 0.79370 0.89260
 C1914 C -0.03899 0.78952 0.88050
 C1915 C -0.03395 0.78470 0.86595
 C1916 C -0.03524 0.79440 0.85364
 C1917 C -0.03053 0.78971 0.83945
 C1918 C -0.02450 0.77530 0.83749
 C1919 C -0.02318 0.76561 0.84980
 C1920 C -0.02789 0.77030 0.86401
 C1921 C -0.01983 0.77048 0.82281
 C1922 C -0.01606 0.76663 0.81042
 H1923 H -0.03992 0.80555 0.85502
 H1924 H -0.03163 0.79729 0.83000
 H1925 H -0.01856 0.75443 0.84841
 H1926 H -0.02687 0.76271 0.87346
 C1927 C 0.35646 0.79085 0.29232
 C1928 C 0.36847 0.78641 0.28803
 C1929 C 0.38294 0.78134 0.28306
 C1930 C 0.38997 0.78845 0.27096
 C1931 C 0.40430 0.78394 0.26652
 C1932 C 0.41165 0.77232 0.27416
 C1933 C 0.40455 0.76510 0.28615
 C1934 C 0.39022 0.76960 0.29060
 C1935 C 0.42665 0.76815 0.27000
 C1936 C 0.43932 0.76488 0.26668
 H1937 H 0.38445 0.79756 0.26508
 H1938 H 0.40970 0.78963 0.25725
 H1939 H 0.41016 0.75613 0.29217
 H1940 H 0.38490 0.76406 0.29999
 C1941 C -0.14245 0.79314 0.79330
 C1942 C -0.13036 0.78873 0.78923
 C1943 C -0.11580 0.78363 0.78454
 C1944 C -0.10341 0.78564 0.79401
 C1945 C -0.08921 0.78089 0.78944
 C1946 C -0.08732 0.77410 0.77539
 C1947 C -0.09972 0.77204 0.76593
 C1948 C -0.11393 0.77680 0.77050
 C1949 C -0.07263 0.76945 0.77066
 C1950 C -0.06022 0.76574 0.76686
 H1951 H -0.10472 0.79093 0.80488
 H1952 H -0.07970 0.78256 0.79684
 H1953 H -0.09838 0.76684 0.75502
 H1954 H -0.12343 0.77522 0.76308
 C1955 C 0.89378 0.29163 0.45748
 C1956 C 0.88195 0.28690 0.46192
 C1957 C 0.86767 0.28149 0.46704
 C1958 C 0.86075 0.28821 0.47944
 C1959 C 0.84655 0.28343 0.48400
 C1960 C 0.83923 0.27190 0.47618
 C1961 C 0.84621 0.26507 0.46388
 C1962 C 0.86041 0.26985 0.45932
 C1963 C 0.82431 0.26752 0.48041
 C1964 C 0.81170 0.26413 0.48378
 H1965 H 0.86623 0.29727 0.48545
 H1966 H 0.84122 0.28884 0.49348
 H1967 H 0.84062 0.25619 0.45770
 H1968 H 0.86564 0.26462 0.44967
 C1969 C 0.89350 0.79110 -0.04289
 C1970 C 0.88162 0.78650 -0.03845
 C1971 C 0.86727 0.78128 -0.03332
 C1972 C 0.86019 0.78848 -0.02129
 C1973 C 0.84593 0.78388 -0.01674
 C1974 C 0.83871 0.77205 -0.02420
 C1975 C 0.84587 0.76473 -0.03612
 C1976 C 0.86013 0.76933 -0.04067
 C1977 C 0.82374 0.76784 -0.02001
 C1978 C 0.81108 0.76457 -0.01669
 H1979 H 0.86559 0.79777 -0.01557
 H1980 H 0.84047 0.78966 -0.00755
 H1981 H 0.84036 0.75561 -0.04201
 H1982 H 0.86548 0.76372 -0.05002
 C1983 C -0.14288 -0.04365 -0.04346
 C1984 C -0.13081 -0.03942 -0.03907
 C1985 C -0.11629 -0.03456 -0.03399
 C1986 C -0.11492 -0.02194 -0.02467
 C1987 C -0.10076 -0.01722 -0.01982
 C1988 C -0.08793 -0.02511 -0.02428
 C1989 C -0.08931 -0.03773 -0.03358
 C1990 C -0.10346 -0.04245 -0.03842
 C1991 C -0.07333 -0.02026 -0.01942
 C1992 C -0.06099 -0.01636 -0.01554
 H1993 H -0.12477 -0.01575 -0.02119
 H1994 H -0.09982 -0.00743 -0.01265
 H1995 H -0.07947 -0.04391 -0.03711
 H1996 H -0.10439 -0.05221 -0.04564
 C1997 C -0.14201 0.45650 0.45576
 C1998 C -0.12995 0.46077 0.46011
 C1999 C -0.11543 0.46570 0.46514
 C2000 C -0.10250 0.45930 0.45897
 C2001 C -0.08836 0.46402 0.46382
 C2002 C -0.08708 0.47517 0.47485
 C2003 C -0.10002 0.48160 0.48101
 C2004 C -0.11417 0.47687 0.47616
 C2005 C -0.07249 0.47997 0.47978
 C2006 C -0.06016 0.48381 0.48374
 H2007 H -0.10335 0.45066 0.45043
 H2008 H -0.07844 0.45899 0.45897
 H2009 H -0.09916 0.49024 0.48954
 H2010 H -0.12410 0.48190 0.48099
 C2011 C 0.35748 -0.04360 0.45642
 C2012 C 0.36952 -0.03930 0.46082
 C2013 C 0.38401 -0.03437 0.46594
 C2014 C 0.38576 -0.02009 0.47236
 C2015 C 0.39991 -0.01531 0.47719
 C2016 C 0.41234 -0.02480 0.47563
 C2017 C 0.41057 -0.03909 0.46925
 C2018 C 0.39644 -0.04386 0.46442
 C2019 C 0.42695 -0.01990 0.48040
 C2020 C 0.43931 -0.01599 0.48424
 H2021 H 0.37623 -0.01266 0.47358
 H2022 H 0.40115 -0.00424 0.48209
 H2023 H 0.42011 -0.04651 0.46798
 H2024 H 0.39522 -0.05492 0.45947
 C2025 C 0.35630 0.45776 -0.04204
 C2026 C 0.36853 0.46187 -0.03801
 C2027 C 0.38322 0.46666 -0.03339
 C2028 C 0.39530 0.46535 -0.04331
 C2029 C 0.40962 0.46986 -0.03883
 C2030 C 0.41194 0.47572 -0.02442
 C2031 C 0.39986 0.47706 -0.01450
 C2032 C 0.38552 0.47254 -0.01898
 C2033 C 0.42673 0.48022 -0.01981
 C2034 C 0.43918 0.48388 -0.01606
 H2035 H 0.39364 0.46081 -0.05447
 H2036 H 0.41889 0.46875 -0.04658
 H2037 H 0.40153 0.48155 -0.00332
 H2038 H 0.37626 0.47360 -0.01122
 C2039 C 0.39408 0.45851 0.79280
 C2040 C 0.38207 0.46299 0.78851
 C2041 C 0.36755 0.46812 0.78370
 C2042 C 0.36499 0.47193 0.76865
 C2043 C 0.35073 0.47655 0.76399
 C2044 C 0.33900 0.47740 0.77437
 C2045 C 0.34159 0.47367 0.78942
 C2046 C 0.35583 0.46905 0.79407
 C2047 C 0.32421 0.48176 0.76963
 C2048 C 0.31167 0.48520 0.76597
 H2049 H 0.37397 0.47122 0.76052
 H2050 H 0.34884 0.47937 0.75232
 H2051 H 0.33260 0.47424 0.79754
 H2052 H 0.35767 0.46611 0.80573
 C2053 C 0.39528 -0.04096 0.29070
 C2054 C 0.38325 -0.03672 0.28622
 C2055 C 0.36872 -0.03194 0.28107
 C2056 C 0.35853 -0.04257 0.27554
 C2057 C 0.34421 -0.03807 0.27103
 C2058 C 0.34001 -0.02293 0.27202
 C2059 C 0.35023 -0.01227 0.27743
 C2060 C 0.36457 -0.01677 0.28195
 C2061 C 0.32505 -0.01849 0.26790
 C2062 C 0.31239 -0.01509 0.26463
 H2063 H 0.36160 -0.05433 0.27487
 H2064 H 0.33637 -0.04642 0.26692
 H2065 H 0.34708 -0.00054 0.27829
 H2066 H 0.37235 -0.00847 0.28625
 C2067 C 0.10677 0.54250 0.70918
 C2068 C 0.11897 0.53850 0.71342
 C2069 C 0.13364 0.53387 0.71828
 C2070 C 0.13585 0.51953 0.72440
 C2071 C 0.15018 0.51500 0.72888
 C2072 C 0.16236 0.52479 0.72725
 C2073 C 0.16013 0.53913 0.72118
 C2074 C 0.14581 0.54366 0.71670
 C2075 C 0.17717 0.52012 0.73163
 C2076 C 0.18967 0.51640 0.73516
 H2077 H 0.12652 0.51186 0.72563
 H2078 H 0.15178 0.50387 0.73354
 H2079 H 0.16947 0.54678 0.71985
 H2080 H 0.14424 0.55476 0.71196
 C2081 C 0.10715 0.04123 0.20813
 C2082 C 0.11938 0.03718 0.21221
 C2083 C 0.13410 0.03250 0.21689
 C2084 C 0.13604 0.02441 0.23024
 C2085 C 0.15040 0.01997 0.23476
 C2086 C 0.16285 0.02360 0.22595
 C2087 C 0.16090 0.03166 0.21260
 C2088 C 0.14656 0.03610 0.20808
 C2089 C 0.17765 0.01911 0.23056
 C2090 C 0.19015 0.01548 0.23422
 H2091 H 0.12648 0.02157 0.23714
 H2092 H 0.15178 0.01373 0.24511
 H2093 H 0.17045 0.03452 0.20570
 H2094 H 0.14519 0.04235 0.19774
 C2095 C 0.64277 0.70720 0.20651
 C2096 C 0.63070 0.71133 0.21094
 C2097 C 0.61617 0.71611 0.21604
 C2098 C 0.61491 0.72636 0.22792
 C2099 C 0.60076 0.73099 0.23281
 C2100 C 0.58783 0.72538 0.22584
 C2101 C 0.58911 0.71513 0.21398
 C2102 C 0.60324 0.71050 0.20909
 C2103 C 0.57324 0.73012 0.23078
 C2104 C 0.56091 0.73396 0.23470
 H2105 H 0.62484 0.73076 0.23337
 H2106 H 0.59989 0.73893 0.24199
 H2107 H 0.57918 0.71073 0.20850
 H2108 H 0.60409 0.70258 0.19990
 C2109 C 0.14411 0.70894 0.70862
 C2110 C 0.13204 0.71327 0.71283
 C2111 C 0.11746 0.71822 0.71757
 C2112 C 0.11484 0.72194 0.73262
 C2113 C 0.10054 0.72640 0.73721
 C2114 C 0.08881 0.72715 0.72676
 C2115 C 0.09145 0.72351 0.71171
 C2116 C 0.10574 0.71905 0.70713
 C2117 C 0.07398 0.73140 0.73143
 C2118 C 0.06143 0.73478 0.73503
 H2119 H 0.12382 0.72130 0.74080
 H2120 H 0.09860 0.72917 0.74889
 H2121 H 0.08246 0.72402 0.70354
 H2122 H 0.10762 0.71617 0.69547
 C2123 C 0.60725 0.20810 0.54213
 C2124 C 0.61946 0.21210 0.53800
 C2125 C 0.63415 0.21669 0.53323
 C2126 C 0.63578 0.22728 0.52172
 C2127 C 0.65009 0.23169 0.51713
 C2128 C 0.66281 0.22553 0.52403
 C2129 C 0.66116 0.21495 0.53553
 C2130 C 0.64687 0.21054 0.54012
 C2131 C 0.67755 0.23005 0.51937
 C2132 C 0.68998 0.23372 0.51562
 H2133 H 0.62602 0.23210 0.51632
 H2134 H 0.65124 0.23989 0.50822
 H2135 H 0.67092 0.21012 0.54094
 H2136 H 0.64574 0.20234 0.54902
 C2137 C 0.60764 0.70693 0.04312
 C2138 C 0.61968 0.71112 0.03870
 C2139 C 0.63418 0.71598 0.03362
 C2140 C 0.63549 0.72476 0.02064
 C2141 C 0.64962 0.72944 0.01576
 C2142 C 0.66247 0.72536 0.02384
 C2143 C 0.66115 0.71658 0.03681
 C2144 C 0.64704 0.71191 0.04169
 C2145 C 0.67704 0.73011 0.01888
 C2146 C 0.68936 0.73394 0.01494
 H2147 H 0.62562 0.72797 0.01432
 H2148 H 0.65052 0.73623 0.00572
 H2149 H 0.67102 0.71336 0.04314
 H2150 H 0.64615 0.70513 0.05173
 C2151 C 0.14330 0.04251 0.04160
 C2152 C 0.13118 0.03836 0.03728
 C2153 C 0.11654 0.03365 0.03241
 C2154 C 0.10381 0.03984 0.03917
 C2155 C 0.08953 0.03530 0.03458
 C2156 C 0.08791 0.02456 0.02320
 C2157 C 0.10064 0.01836 0.01641
 C2158 C 0.11494 0.02291 0.02101
 C2159 C 0.07316 0.01992 0.01862
 C2160 C 0.06063 0.01629 0.01511
 H2161 H 0.10491 0.04815 0.04800
 H2162 H 0.07977 0.04015 0.03991
 H2163 H 0.09951 0.01003 0.00761
 H2164 H 0.12472 0.01805 0.01572
 C2165 C 0.14455 0.54107 0.54119
 C2166 C 0.13237 0.53697 0.53701
 C2167 C 0.11767 0.53227 0.53232
 C2168 C 0.11560 0.52498 0.51852
 C2169 C 0.10123 0.52057 0.51401
 C2170 C 0.08890 0.52344 0.52328
 C2171 C 0.09099 0.53068 0.53709
 C2172 C 0.10534 0.53508 0.54159
 C2173 C 0.07406 0.51909 0.51869
 C2174 C 0.06148 0.51565 0.51516
 H2175 H 0.12505 0.52276 0.51126
 H2176 H 0.09973 0.51498 0.50331
 H2177 H 0.08154 0.53295 0.54434
 H2178 H 0.10681 0.54071 0.55228
 C2179 C 0.64409 0.04224 0.54013
 C2180 C 0.63206 0.03793 0.53572
 C2181 C 0.61755 0.03300 0.53067
 C2182 C 0.60832 0.04283 0.52257
 C2183 C 0.59398 0.03828 0.51816
 C2184 C 0.58881 0.02388 0.52182
 C2185 C 0.59810 0.01400 0.52980
 C2186 C 0.61245 0.01855 0.53422
 C2187 C 0.57382 0.01947 0.51782
 C2188 C 0.56115 0.01602 0.51464
 H2189 H 0.61213 0.05404 0.51981
 H2190 H 0.58687 0.04603 0.51204
 H2191 H 0.59420 0.00286 0.53275
 H2192 H 0.61948 0.01088 0.54052
 C2193 C 0.64402 0.54156 0.04064
 C2194 C 0.63180 0.53738 0.03665
 C2195 C 0.61706 0.53261 0.03216
 C2196 C 0.60481 0.53548 0.04152
 C2197 C 0.59043 0.53105 0.03717
 C2198 C 0.58822 0.52372 0.02343
 C2199 C 0.60046 0.52081 0.01406
 C2200 C 0.61487 0.52524 0.01842
 C2201 C 0.57334 0.51936 0.01896
 C2202 C 0.56075 0.51591 0.01549
 H2203 H 0.60638 0.54118 0.05216
 H2204 H 0.58104 0.53338 0.04448
 H2205 H 0.59887 0.51516 0.00340
 H2206 H 0.62426 0.52298 0.01109
 C2207 C 0.04221 0.04046 0.14515
 C2208 C 0.03796 0.03621 0.13302
 C2209 C 0.03315 0.03137 0.11837
 C2210 C 0.04270 0.03314 0.10606
 C2211 C 0.03802 0.02870 0.09176
 C2212 C 0.02376 0.02247 0.08968
 C2213 C 0.01421 0.02064 0.10199
 C2214 C 0.01890 0.02508 0.11632
 C2215 C 0.01895 0.01818 0.07485
 C2216 C 0.01522 0.01483 0.06228
 H2217 H 0.05373 0.03801 0.10751
 H2218 H 0.04549 0.03019 0.08231
 H2219 H 0.00315 0.01585 0.10051
 H2220 H 0.01141 0.02368 0.12577
 C2221 C 0.04192 0.54037 0.64509
 C2222 C 0.03776 0.53594 0.63299
 C2223 C 0.03305 0.53089 0.61839
 C2224 C 0.01796 0.52755 0.61559
 C2225 C 0.01339 0.52307 0.60124
 C2226 C 0.02390 0.52190 0.58965
 C2227 C 0.03900 0.52515 0.59248
 C2228 C 0.04356 0.52963 0.60681
 C2229 C 0.01924 0.51773 0.57475
 C2230 C 0.01562 0.51446 0.56213
 H2231 H 0.00973 0.52853 0.62445
 H2232 H 0.00168 0.52062 0.59916
 H2233 H 0.04721 0.52433 0.58359
 H2234 H 0.05525 0.53222 0.60883
 C2235 C 0.54115 0.04129 0.64523
 C2236 C 0.53704 0.03716 0.63301
 C2237 C 0.53232 0.03252 0.61827
 C2238 C 0.52439 0.01908 0.61628
 C2239 C 0.51989 0.01462 0.60189
 C2240 C 0.52331 0.02361 0.58945
 C2241 C 0.53122 0.03706 0.59147
 C2242 C 0.53571 0.04150 0.60583
 C2243 C 0.51884 0.01908 0.57460
 C2244 C 0.51531 0.01557 0.56201
 H2245 H 0.52171 0.01205 0.62582
 H2246 H 0.51379 0.00420 0.60045
 H2247 H 0.53393 0.04408 0.58193
 H2248 H 0.54184 0.05191 0.60724
 C2249 C 0.54073 0.54122 0.14515
 C2250 C 0.53630 0.53694 0.13310
 C2251 C 0.53120 0.53214 0.11854
 C2252 C 0.52998 0.51680 0.11517
 C2253 C 0.52544 0.51222 0.10084
 C2254 C 0.52210 0.52297 0.08984
 C2255 C 0.52321 0.53830 0.09326
 C2256 C 0.52774 0.54287 0.10757
 C2257 C 0.51788 0.51837 0.07494
 C2258 C 0.51452 0.51486 0.06231
 H2259 H 0.53265 0.50840 0.12356
 H2260 H 0.52465 0.50033 0.09831
 H2261 H 0.52069 0.54670 0.08484
 H2262 H 0.52867 0.55476 0.11004
 C2263 C 0.20798 0.54143 0.60663
 C2264 C 0.21197 0.53737 0.61890
 C2265 C 0.21657 0.53271 0.63367
 C2266 C 0.22812 0.52219 0.63545
 C2267 C 0.23258 0.51774 0.64984
 C2268 C 0.22550 0.52380 0.66249
 C2269 C 0.21394 0.53431 0.66069
 C2270 C 0.20949 0.53875 0.64632
 C2271 C 0.23006 0.51932 0.67732
 C2272 C 0.23376 0.51573 0.68983
 H2273 H 0.23368 0.51745 0.62575
 H2274 H 0.24154 0.50962 0.65111
 H2275 H 0.20840 0.53908 0.67039
 H2276 H 0.20055 0.54690 0.64506
 C2277 C 0.20670 0.04242 0.10712
 C2278 C 0.21081 0.03809 0.11927
 C2279 C 0.21556 0.03310 0.13387
 C2280 C 0.20686 0.03647 0.14649
 C2281 C 0.21150 0.03177 0.16073
 C2282 C 0.22486 0.02368 0.16242
 C2283 C 0.23356 0.02028 0.14980
 C2284 C 0.22892 0.02498 0.13555
 C2285 C 0.22968 0.01904 0.17712
 C2286 C 0.23358 0.01532 0.18953
 H2287 H 0.19653 0.04276 0.14533
 H2288 H 0.20470 0.03449 0.17042
 H2289 H 0.24392 0.01405 0.15098
 H2290 H 0.23574 0.02233 0.12587
 C2291 C 0.70753 0.20880 0.64285
 C2292 C 0.71155 0.21300 0.63065
 C2293 C 0.71616 0.21782 0.61597
 C2294 C 0.72992 0.22513 0.61402
 C2295 C 0.73443 0.22962 0.59969
 C2296 C 0.72520 0.22683 0.58726
 C2297 C 0.71144 0.21956 0.58922
 C2298 C 0.70693 0.21507 0.60354
 C2299 C 0.72985 0.23126 0.57247
 C2300 C 0.73359 0.23482 0.55998
 H2301 H 0.73716 0.22730 0.62356
 H2302 H 0.74511 0.23522 0.59830
 H2303 H 0.70422 0.21732 0.57968
 H2304 H 0.69628 0.20941 0.60491
 C2305 C 0.70635 0.70804 0.14136
 C2306 C 0.71044 0.71236 0.12923
 C2307 C 0.71517 0.71734 0.11464
 C2308 C 0.70519 0.71667 0.10250
 C2309 C 0.70979 0.72126 0.08825
 C2310 C 0.72440 0.72655 0.08606
 C2311 C 0.73438 0.72726 0.09820
 C2312 C 0.72977 0.72267 0.11247
 C2313 C 0.72913 0.73106 0.07131
 C2314 C 0.73292 0.73471 0.05887
 H2315 H 0.69388 0.71255 0.10405
 H2316 H 0.70200 0.72064 0.07893
 H2317 H 0.74570 0.73131 0.09663
 H2318 H 0.73758 0.72321 0.12177
 C2319 C 0.54404 0.70800 0.10823
 C2320 C 0.53994 0.71239 0.12034
 C2321 C 0.53522 0.71744 0.13492
 C2322 C 0.54475 0.71567 0.14730
 C2323 C 0.54015 0.72035 0.16153
 C2324 C 0.52599 0.72685 0.16346
 C2325 C 0.51646 0.72868 0.15107
 C2326 C 0.52107 0.72398 0.13683
 C2327 C 0.52124 0.73145 0.17817
 C2328 C 0.51744 0.73514 0.19061
 H2329 H 0.55571 0.71061 0.14596
 H2330 H 0.54760 0.71886 0.17103
 H2331 H 0.50547 0.73366 0.15244
 H2332 H 0.51360 0.72539 0.12733
 C2333 C 0.04151 0.71019 0.60539
 C2334 C 0.03752 0.71444 0.61759
 C2335 C 0.03297 0.71925 0.63231
 C2336 C 0.04028 0.71351 0.64499
 C2337 C 0.03584 0.71800 0.65934
 C2338 C 0.02407 0.72825 0.66109
 C2339 C 0.01676 0.73404 0.64841
 C2340 C 0.02120 0.72954 0.63404
 C2341 C 0.01950 0.73269 0.67592
 C2342 C 0.01592 0.73612 0.68849
 H2343 H 0.04939 0.70554 0.64379
 H2344 H 0.04157 0.71345 0.66906
 H2345 H 0.00764 0.74197 0.64963
 H2346 H 0.01547 0.73405 0.62430
 C2347 C 0.54244 0.60685 0.20856
 C2348 C 0.53840 0.61911 0.21268
 C2349 C 0.53377 0.63386 0.21742
 C2350 C 0.54064 0.64659 0.21129
 C2351 C 0.53619 0.66095 0.21584
 C2352 C 0.52485 0.66265 0.22653
 C2353 C 0.51797 0.64992 0.23268
 C2354 C 0.52243 0.63555 0.22812
 C2355 C 0.52032 0.67747 0.23115
 C2356 C 0.51668 0.68998 0.23485
 H2357 H 0.54942 0.64541 0.20301
 H2358 H 0.54159 0.67072 0.21102
 H2359 H 0.50919 0.65111 0.24096
 H2360 H 0.51704 0.62577 0.23293
 C2361 C 0.04080 0.60553 0.70901
 C2362 C 0.03627 0.61759 0.71318
 C2363 C 0.03105 0.63213 0.71796
 C2364 C 0.02247 0.64100 0.70822
 C2365 C 0.01790 0.65538 0.71261
 C2366 C 0.02189 0.66094 0.72678
 C2367 C 0.03036 0.65201 0.73658
 C2368 C 0.03493 0.63763 0.73218
 C2369 C 0.01775 0.67598 0.73103
 C2370 C 0.01451 0.68869 0.73442
 H2371 H 0.01945 0.63688 0.69718
 H2372 H 0.01141 0.66221 0.70492
 H2373 H 0.03357 0.65623 0.74754
 H2374 H 0.04162 0.63089 0.73979
 C2375 C 0.04103 0.14457 0.04230
 C2376 C 0.03645 0.13253 0.03813
 C2377 C 0.03115 0.11799 0.03344
 C2378 C 0.03020 0.11440 0.01815
 C2379 C 0.02547 0.10008 0.01369
 C2380 C 0.02169 0.08931 0.02450
 C2381 C 0.02254 0.09295 0.03977
 C2382 C 0.02726 0.10725 0.04423
 C2383 C 0.01736 0.07440 0.02001
 C2384 C 0.01395 0.06177 0.01651
 H2385 H 0.03321 0.12260 0.00971
 H2386 H 0.02489 0.09737 0.00185
 H2387 H 0.01969 0.08470 0.04823
 H2388 H 0.02800 0.10989 0.05608
 C2389 C 0.04039 0.64505 0.54152
 C2390 C 0.03609 0.63285 0.53750
 C2391 C 0.03116 0.61814 0.53294
 C2392 C 0.02804 0.60722 0.54380
 C2393 C 0.02363 0.59279 0.53943
 C2394 C 0.02231 0.58921 0.52418
 C2395 C 0.02534 0.60015 0.51330
 C2396 C 0.02975 0.61459 0.51767
 C2397 C 0.01817 0.57421 0.51976
 C2398 C 0.01486 0.56155 0.51629
 H2399 H 0.02911 0.60983 0.55563
 H2400 H 0.02134 0.58441 0.54794
 H2401 H 0.02438 0.59748 0.50148
 H2402 H 0.03216 0.62294 0.50918
 C2403 C 0.54165 0.14492 0.54145
 C2404 C 0.53736 0.13278 0.53723
 C2405 C 0.53255 0.11813 0.53238
 C2406 C 0.51792 0.11591 0.52708
 C2407 C 0.51326 0.10157 0.52261
 C2408 C 0.52322 0.08941 0.52344
 C2409 C 0.53785 0.09166 0.52869
 C2410 C 0.54250 0.10598 0.53315
 C2411 C 0.51846 0.07457 0.51915
 C2412 C 0.51479 0.06198 0.51577
 H2413 H 0.51013 0.12523 0.52646
 H2414 H 0.50192 0.09995 0.51859
 H2415 H 0.54563 0.08234 0.52940
 H2416 H 0.55382 0.10756 0.53726
 C2417 C 0.54155 0.64404 0.04306
 C2418 C 0.53682 0.63214 0.03864
 C2419 C 0.53138 0.61778 0.03358
 C2420 C 0.52192 0.60929 0.04278
 C2421 C 0.51715 0.59504 0.03818
 C2422 C 0.52182 0.58923 0.02434
 C2423 C 0.53115 0.59778 0.01507
 C2424 C 0.53592 0.61203 0.01967
 C2425 C 0.51747 0.57429 0.01994
 C2426 C 0.51406 0.56165 0.01645
 H2427 H 0.51839 0.61360 0.05358
 H2428 H 0.50999 0.58850 0.04547
 H2429 H 0.53488 0.59336 0.00438
 H2430 H 0.54328 0.61848 0.01249
 C2431 C 0.70755 0.10665 0.54203
 C2432 C 0.71174 0.11886 0.53797
 C2433 C 0.71656 0.13355 0.53328
 C2434 C 0.71024 0.14637 0.53985
 C2435 C 0.71484 0.16068 0.53532
 C2436 C 0.72578 0.16223 0.52420
 C2437 C 0.73211 0.14942 0.51762
 C2438 C 0.72750 0.13510 0.52215
 C2439 C 0.73044 0.17699 0.51956
 C2440 C 0.73416 0.18945 0.51583
 H2441 H 0.70176 0.14531 0.54846
 H2442 H 0.70986 0.17051 0.54048
 H2443 H 0.74057 0.15049 0.50900
 H2444 H 0.73246 0.12526 0.51699
 C2445 C 0.70775 0.60661 0.04060
 C2446 C 0.71175 0.61886 0.03647
 C2447 C 0.71632 0.63360 0.03171
 C2448 C 0.72867 0.63536 0.02219
 C2449 C 0.73310 0.64973 0.01766
 C2450 C 0.72519 0.66240 0.02263
 C2451 C 0.71285 0.66063 0.03213
 C2452 C 0.70842 0.64627 0.03665
 C2453 C 0.72974 0.67722 0.01808
 C2454 C 0.73341 0.68972 0.01444
 H2455 H 0.73486 0.62564 0.01831
 H2456 H 0.74267 0.65097 0.01032
 H2457 H 0.70666 0.67035 0.03604
 H2458 H 0.69887 0.64505 0.04402
 C2459 C 0.20733 0.64323 0.70765
 C2460 C 0.21141 0.63099 0.71177
 C2461 C 0.21611 0.61628 0.71655
 C2462 C 0.20778 0.60362 0.71232
 C2463 C 0.21233 0.58930 0.71688
 C2464 C 0.22524 0.58756 0.72568
 C2465 C 0.23357 0.60022 0.72992
 C2466 C 0.22901 0.61456 0.72537
 C2467 C 0.22992 0.57278 0.73026
 C2468 C 0.23370 0.56032 0.73398
 H2469 H 0.19779 0.60483 0.70550
 H2470 H 0.20582 0.57958 0.71352
 H2471 H 0.24357 0.59900 0.73672
 H2472 H 0.23554 0.62427 0.72869
 C2473 C 0.20818 0.14239 0.20588
 C2474 C 0.21250 0.13025 0.21004
 C2475 C 0.21749 0.11565 0.21484
 C2476 C 0.21566 0.10322 0.20536
 C2477 C 0.22032 0.08897 0.21003
 C2478 C 0.22683 0.08707 0.22422
 C2479 C 0.22871 0.09950 0.23371
 C2480 C 0.22404 0.11377 0.22902
 C2481 C 0.23142 0.07234 0.22903
 C2482 C 0.23511 0.05989 0.23287
 H2483 H 0.21058 0.10454 0.19438
 H2484 H 0.21879 0.07943 0.20262
 H2485 H 0.23371 0.09816 0.24471
 H2486 H 0.22548 0.12330 0.23646
 C2487 C 0.70886 1.14468 0.70769
 C2488 C 0.71313 1.13252 0.71184
 C2489 C 0.71801 1.11783 0.71651
 C2490 C 0.72484 1.11580 0.73054
 C2491 C 0.72934 1.10143 0.73509
 C2492 C 0.72702 1.08906 0.72561
 C2493 C 0.72024 1.09113 0.71157
 C2494 C 0.71575 1.10547 0.70704
 C2495 C 0.73139 1.07421 0.73027
 C2496 C 0.73481 1.06161 0.73386
 H2497 H 0.72662 1.12528 0.73797
 H2498 H 0.73455 1.09995 0.74597
 H2499 H 0.71837 1.08164 0.70417
 H2500 H 0.71045 1.10691 0.69618
 C2501 C 0.70859 0.64406 0.20633
 C2502 C 0.71310 0.63201 0.21055
 C2503 C 0.71824 0.61744 0.21532
 C2504 C 0.72633 0.61583 0.22872
 C2505 C 0.73108 0.60157 0.23337
 C2506 C 0.72775 0.58890 0.22464
 C2507 C 0.71971 0.59054 0.21122
 C2508 C 0.71497 0.60477 0.20658
 C2509 C 0.73234 0.57416 0.22943
 C2510 C 0.73588 0.56162 0.23313
 H2511 H 0.72891 0.62555 0.23558
 H2512 H 0.73727 0.60043 0.24378
 H2513 H 0.71704 0.58082 0.20439
 H2514 H 0.70870 0.60588 0.19621
 C2515 C 0.54009 0.10455 0.70892
 C2516 C 0.53575 0.11668 0.71311
 C2517 C 0.53077 0.13130 0.71789
 C2518 C 0.53383 0.13633 0.73248
 C2519 C 0.52949 0.15077 0.73691
 C2520 C 0.52208 0.16024 0.72676
 C2521 C 0.51891 0.15516 0.71221
 C2522 C 0.52324 0.14072 0.70779
 C2523 C 0.51811 0.17531 0.73108
 C2524 C 0.51496 0.18803 0.73450
 H2525 H 0.53969 0.12915 0.74037
 H2526 H 0.53205 0.15461 0.74817
 H2527 H 0.51323 0.16240 0.70426
 H2528 H 0.52086 0.13697 0.69646
 C2529 C 1.04190 0.10488 0.20871
 C2530 C 1.03768 0.11708 0.21283
 C2531 C 1.03289 0.13180 0.21748
 C2532 C 1.02385 0.13359 0.23018
 C2533 C 1.01936 0.14798 0.23469
 C2534 C 1.02390 0.16061 0.22650
 C2535 C 1.03291 0.15880 0.21379
 C2536 C 1.03740 0.14444 0.20929
 C2537 C 1.01948 0.17546 0.23111
 C2538 C 1.01604 0.18806 0.23470
 H2539 H 1.02031 0.12390 0.23661
 H2540 H 1.01240 0.14925 0.24455
 H2541 H 1.03651 0.16848 0.20739
 H2542 H 1.04440 0.14319 0.19946
 C2543 C 0.20953 0.60496 0.54129
 C2544 C 0.21389 0.61706 0.53709
 C2545 C 0.21891 0.63166 0.53236
 C2546 C 0.21930 0.63533 0.51707
 C2547 C 0.22374 0.64972 0.51257
 C2548 C 0.22780 0.66047 0.52334
 C2549 C 0.22751 0.65675 0.53861
 C2550 C 0.22307 0.64238 0.54310
 C2551 C 0.23188 0.67543 0.51882
 C2552 C 0.23510 0.68810 0.51531
 H2553 H 0.21606 0.62714 0.50867
 H2554 H 0.22387 0.65249 0.50074
 H2555 H 0.23057 0.66498 0.54703
 H2556 H 0.22277 0.63968 0.55495
 C2557 C 0.20745 0.10717 1.04285
 C2558 C 0.21168 0.11934 1.03871
 C2559 C 0.21652 0.13400 1.03395
 C2560 C 0.22656 0.13552 1.02199
 C2561 C 0.23114 0.14981 1.01736
 C2562 C 0.22569 0.16264 1.02468
 C2563 C 0.21567 0.16111 1.03664
 C2564 C 0.21110 0.14683 1.04127
 C2565 C 0.23029 0.17737 1.01995
 C2566 C 0.23398 0.18983 1.01617
 H2567 H 0.23083 0.12567 1.01626
 H2568 H 0.23889 0.15087 1.00809
 H2569 H 0.21138 0.17095 1.04238
 H2570 H 0.20333 0.14579 1.05053
 C2571 C 0.20840 0.70884 0.64427
 C2572 C 0.21273 0.71318 0.63223
 C2573 C 0.21773 0.71811 0.61771
 C2574 C 0.21548 0.73302 0.61318
 C2575 C 0.21990 0.73763 0.59885
 C2576 C 0.22660 0.72734 0.58902
 C2577 C 0.22895 0.71246 0.59361
 C2578 C 0.22453 0.70786 0.60792
 C2579 C 0.23069 0.73185 0.57409
 C2580 C 0.23399 0.73533 0.56146
 H2581 H 0.21019 0.74103 0.62064
 H2582 H 0.21798 0.74914 0.59540
 H2583 H 0.23406 0.70440 0.58608
 H2584 H 0.22628 0.69629 0.61129
 C2585 C 0.20687 0.20721 1.14266
 C2586 C 0.21090 0.21161 1.13054
 C2587 C 0.21553 0.21668 1.11595
 C2588 C 0.20789 0.21169 1.10313
 C2589 C 0.21240 0.21648 1.08891
 C2590 C 0.22457 0.22629 1.08744
 C2591 C 0.23221 0.23131 1.10025
 C2592 C 0.22769 0.22651 1.11449
 C2593 C 0.22924 0.23106 1.07276
 C2594 C 0.23299 0.23484 1.06035
 H2595 H 0.19848 0.20408 1.10413
 H2596 H 0.20643 0.21252 1.07908
 H2597 H 0.24166 0.23888 1.09924
 H2598 H 0.23368 0.23042 1.12432
 C2599 C 0.70919 0.54139 0.10431
 C2600 C 0.71347 0.53718 0.11644
 C2601 C 0.71832 0.53242 0.13109
 C2602 C 0.72498 0.51830 0.13310
 C2603 C 0.72944 0.51366 0.14744
 C2604 C 0.72724 0.52314 0.15980
 C2605 C 0.72063 0.53728 0.15777
 C2606 C 0.71619 0.54191 0.14346
 C2607 C 0.73160 0.51841 0.17462
 C2608 C 0.73505 0.51479 0.18719
 H2609 H 0.72666 0.51086 0.12362
 H2610 H 0.73452 0.50270 0.14889
 H2611 H 0.71886 0.54469 0.16725
 H2612 H 0.71102 0.55284 0.14204
 C2613 C 0.70794 1.04188 0.60523
 C2614 C 0.71205 1.03757 0.61738
 C2615 C 0.71672 1.03268 0.63205
 C2616 C 0.71158 1.04031 0.64478
 C2617 C 0.71603 1.03563 0.65908
 C2618 C 0.72565 1.02329 0.66072
 C2619 C 0.73081 1.01565 0.64799
 C2620 C 0.72635 1.02034 0.63367
 C2621 C 0.73017 1.01860 0.67550
 C2622 C 0.73373 1.01500 0.68804
 H2623 H 0.70413 1.04986 0.64366
 H2624 H 0.71197 1.04162 0.66885
 H2625 H 0.73826 1.00611 0.64913
 H2626 H 0.73040 1.01436 0.62389
 C2627 C 0.54204 0.20997 0.60553
 C2628 C 0.53776 0.21441 0.61756
 C2629 C 0.53290 0.21953 0.63207
 C2630 C 0.54308 0.22661 0.64174
 C2631 C 0.53856 0.23107 0.65608
 C2632 C 0.52384 0.22848 0.66081
 C2633 C 0.51361 0.22152 0.65109
 C2634 C 0.51813 0.21705 0.63674
 C2635 C 0.51942 0.23252 0.67579
 C2636 C 0.51596 0.23571 0.68846
 H2637 H 0.55454 0.22853 0.63827
 H2638 H 0.54658 0.23639 0.66352
 H2639 H 0.50221 0.21941 0.65465
 H2640 H 0.51018 0.21154 0.62937
 C2641 C 1.04222 0.20920 0.10564
 C2642 C 1.03781 0.21360 0.11765
 C2643 C 1.03269 0.21857 0.13212
 C2644 C 1.02261 0.20973 0.14027
 C2645 C 1.01807 0.21422 0.15459
 C2646 C 1.02359 0.22758 0.16082
 C2647 C 1.03356 0.23651 0.15261
 C2648 C 1.03810 0.23201 0.13829
 C2649 C 1.01943 0.23183 0.17583
 C2650 C 1.01613 0.23513 0.18851
 H2651 H 1.01839 0.19930 0.13563
 H2652 H 1.01041 0.20721 0.16086
 H2653 H 1.03794 0.24683 0.15735
 H2654 H 1.04593 0.23891 0.13210
 C2655 C 0.64449 0.20929 0.70844
 C2656 C 0.63248 0.21360 0.71285
 C2657 C 0.61800 0.21856 0.71788
 C2658 C 0.60882 0.22698 0.70828
 C2659 C 0.59451 0.23135 0.71291
 C2660 C 0.58932 0.22732 0.72717
 C2661 C 0.59855 0.21902 0.73683
 C2662 C 0.61286 0.21464 0.73220
 C2663 C 0.57438 0.23133 0.73166
 C2664 C 0.56174 0.23455 0.73515
 H2665 H 0.61265 0.23004 0.69717
 H2666 H 0.58745 0.23773 0.70533
 H2667 H 0.59463 0.21580 0.74786
 H2668 H 0.61985 0.20809 0.73970
 C2669 C 1.14480 0.20801 0.20820
 C2670 C 1.13294 0.21249 0.21285
 C2671 C 1.11863 0.21766 0.21815
 C2672 C 1.11148 0.21017 0.22995
 C2673 C 1.09727 0.21477 0.23466
 C2674 C 1.09014 0.22688 0.22758
 C2675 C 1.09735 0.23447 0.21588
 C2676 C 1.11156 0.22987 0.21118
 C2677 C 1.07521 0.23113 0.23191
 C2678 C 1.06259 0.23447 0.23531
 H2679 H 1.11681 0.20067 0.23538
 H2680 H 1.09176 0.20877 0.24366
 H2681 H 1.09190 0.24381 0.21028
 H2682 H 1.11695 0.23570 0.20199
 C2683 C 0.10507 0.70917 0.54031
 C2684 C 0.11720 0.71317 0.53596
 C2685 C 0.13183 0.71769 0.53097
 C2686 C 0.14275 0.70678 0.52802
 C2687 C 0.15711 0.71111 0.52357
 C2688 C 0.16063 0.72637 0.52205
 C2689 C 0.14968 0.73729 0.52489
 C2690 C 0.13530 0.73296 0.52935
 C2691 C 0.17556 0.73076 0.51790
 C2692 C 0.18818 0.73419 0.51460
 H2693 H 0.14020 0.69494 0.52927
 H2694 H 0.16550 0.70257 0.52144
 H2695 H 0.15229 0.74913 0.52378
 H2696 H 0.12695 0.74150 0.53163
 C2697 C 0.10718 0.20737 1.04289
 C2698 C 0.11934 0.21141 1.03864
 C2699 C 0.13395 0.21607 1.03373
 C2700 C 0.14667 0.20814 1.03846
 C2701 C 0.16090 0.21268 1.03380
 C2702 C 0.16248 0.22517 1.02438
 C2703 C 0.14977 0.23308 1.01960
 C2704 C 0.13552 0.22854 1.02427
 C2705 C 0.17717 0.22986 1.01972
 C2706 C 0.18956 0.23367 1.01598
 H2707 H 0.14558 0.19849 1.04578
 H2708 H 0.17066 0.20649 1.03756
 H2709 H 0.15087 0.24275 1.01232
 H2710 H 0.12576 0.23475 1.02054
 C2711 C 0.60620 0.54170 0.20867
 C2712 C 0.61837 0.53751 0.21281
 C2713 C 0.63304 0.53280 0.21759
 C2714 C 0.63629 0.51750 0.21942
 C2715 C 0.65068 0.51298 0.22377
 C2716 C 0.66184 0.52376 0.22631
 C2717 C 0.65855 0.53905 0.22456
 C2718 C 0.64419 0.54356 0.22021
 C2719 C 0.67676 0.51920 0.23045
 C2720 C 0.68937 0.51567 0.23378
 H2721 H 0.62776 0.50908 0.21740
 H2722 H 0.65312 0.50112 0.22507
 H2723 H 0.66711 0.54748 0.22646
 H2724 H 0.64180 0.55542 0.21880
 C2725 C 0.60489 1.04152 0.70949
 C2726 C 0.61705 1.03749 0.71382
 C2727 C 0.63171 1.03293 0.71881
 C2728 C 0.63479 1.01775 0.72166
 C2729 C 0.64916 1.01335 0.72616
 C2730 C 0.66050 1.02411 0.72782
 C2731 C 0.65738 1.03929 0.72505
 C2732 C 0.64302 1.04369 0.72056
 C2733 C 0.67542 1.01962 0.73201
 C2734 C 0.68804 1.01608 0.73530
 H2735 H 0.62613 1.00933 0.72031
 H2736 H 0.65146 1.00157 0.72823
 H2737 H 0.66608 1.04770 0.72624
 H2738 H 0.64078 1.05545 0.71835
 C2739 C 0.89283 0.45690 0.29370
 C2740 C 0.88079 0.46127 0.28936
 C2741 C 0.86630 0.46632 0.28439
 C2742 C 0.85350 0.46246 0.29258
 C2743 C 0.83938 0.46724 0.28775
 C2744 C 0.83798 0.47591 0.27471
 C2745 C 0.85077 0.47979 0.26652
 C2746 C 0.86491 0.47501 0.27135
 C2747 C 0.82338 0.48067 0.26975
 C2748 C 0.81102 0.48446 0.26580
 H2749 H 0.85444 0.45575 0.30267
 H2750 H 0.82955 0.46416 0.29416
 H2751 H 0.84981 0.48648 0.25641
 H2752 H 0.87474 0.47805 0.26493
 C2753 C 0.89127 0.95565 0.79430
 C2754 C 0.87924 0.95991 0.78983
 C2755 C 0.86476 0.96482 0.78467
 C2756 C 0.85181 0.95783 0.79008
 C2757 C 0.83771 0.96259 0.78516
 C2758 C 0.83649 0.97437 0.77481
 C2759 C 0.84944 0.98136 0.76938
 C2760 C 0.86356 0.97659 0.77430
 C2761 C 0.82193 0.97927 0.76988
 C2762 C 0.80962 0.98322 0.76594
 H2763 H 0.85261 0.94872 0.79810
 H2764 H 0.82776 0.95711 0.78944
 H2765 H 0.84862 0.99048 0.76138
 H2766 H 0.87351 0.98208 0.77005
 C2767 C 0.35727 0.29110 0.79307
 C2768 C 0.36939 0.28672 0.78905
 C2769 C 0.38397 0.28167 0.78441
 C2770 C 0.39578 0.28130 0.79479
 C2771 C 0.41005 0.27670 0.79026
 C2772 C 0.41258 0.27245 0.77534
 C2773 C 0.40075 0.27276 0.76497
 C2774 C 0.38648 0.27737 0.76950
 C2775 C 0.42736 0.26804 0.77067
 C2776 C 0.43983 0.26451 0.76691
 H2777 H 0.39398 0.28464 0.80633
 H2778 H 0.41912 0.27654 0.79836
 H2779 H 0.40259 0.26954 0.75340
 H2780 H 0.37743 0.27765 0.76138
 C2781 C 0.85863 0.29247 0.29341
 C2782 C 0.87075 0.28812 0.28937
 C2783 C 0.88534 0.28310 0.28471
 C2784 C 0.89815 0.28843 0.29211
 C2785 C 0.91235 0.28368 0.28756
 C2786 C 0.91384 0.27358 0.27559
 C2787 C 0.90104 0.26823 0.26819
 C2788 C 0.88681 0.27298 0.27275
 C2789 C 0.92851 0.26886 0.27088
 C2790 C 0.94091 0.26511 0.26709
 H2791 H 0.89715 0.29626 0.30136
 H2792 H 0.92218 0.28790 0.29334
 H2793 H 0.90206 0.26043 0.25891
 H2794 H 0.87699 0.26880 0.26694
 C2795 C 0.39196 0.79293 0.45692
 C2796 C 0.37991 0.78841 0.46097
 C2797 C 0.36540 0.78319 0.46563
 C2798 C 0.36323 0.77793 0.48028
 C2799 C 0.34904 0.77311 0.48484
 C2800 C 0.33697 0.77355 0.47476
 C2801 C 0.33916 0.77876 0.46010
 C2802 C 0.35334 0.78356 0.45555
 C2803 C 0.32228 0.76892 0.47947
 C2804 C 0.30987 0.76522 0.48325
 H2805 H 0.37247 0.77762 0.48817
 H2806 H 0.34746 0.76914 0.49621
 H2807 H 0.32990 0.77918 0.45223
 H2808 H 0.35489 0.78764 0.44421
 C2809 C 0.39319 0.29224 0.95780
 C2810 C 0.38134 0.28763 0.96231
 C2811 C 0.36704 0.28232 0.96750
 C2812 C 0.36019 0.28912 0.97990
 C2813 C 0.34600 0.28441 0.98453
 C2814 C 0.33861 0.27287 0.97679
 C2815 C 0.34553 0.26595 0.96450
 C2816 C 0.35973 0.27066 0.95987
 C2817 C 0.32371 0.26853 0.98109
 C2818 C 0.31110 0.26512 0.98448
 H2819 H 0.36574 0.29817 0.98586
 H2820 H 0.34072 0.28987 0.99401
 H2821 H 0.33990 0.25705 0.95841
 H2822 H 0.36491 0.26534 0.95026
 C2823 C 0.79440 0.45640 0.39127
 C2824 C 0.79009 0.46058 0.37914
 C2825 C 0.78512 0.46540 0.36455
 C2826 C 0.77388 0.47631 0.36318
 C2827 C 0.76912 0.48098 0.34895
 C2828 C 0.77558 0.47473 0.33606
 C2829 C 0.78681 0.46381 0.33744
 C2830 C 0.79156 0.45916 0.35165
 C2831 C 0.77077 0.47951 0.32140
 C2832 C 0.76694 0.48337 0.30901
 H2833 H 0.76883 0.48121 0.37308
 H2834 H 0.76044 0.48943 0.34800
 H2835 H 0.79188 0.45891 0.32755
 H2836 H 0.80026 0.45071 0.35259
 C2837 C 0.79355 0.95663 0.89199
 C2838 C 0.78925 0.96087 0.87988
 C2839 C 0.78429 0.96577 0.86531
 C2840 C 0.79286 0.96239 0.85260
 C2841 C 0.78806 0.96702 0.83840
 C2842 C 0.77465 0.97506 0.83683
 C2843 C 0.76606 0.97846 0.84953
 C2844 C 0.77088 0.97381 0.86375
 C2845 C 0.76974 0.97974 0.82217
 C2846 C 0.76585 0.98352 0.80978
 H2847 H 0.80324 0.95615 0.85367
 H2848 H 0.79477 0.96432 0.82866
 H2849 H 0.75567 0.98466 0.84844
 H2850 H 0.76415 0.97647 0.87350
 C2851 C 0.29271 0.79273 0.35724
 C2852 C 0.28845 0.78867 0.36939
 C2853 C 0.28352 0.78397 0.38401
 C2854 C 0.27411 0.77147 0.38553
 C2855 C 0.26943 0.76689 0.39978
 C2856 C 0.27412 0.77481 0.41255
 C2857 C 0.28350 0.78733 0.41101
 C2858 C 0.28818 0.79190 0.39678
 C2859 C 0.26943 0.77009 0.42724
 C2860 C 0.26566 0.76628 0.43964
 H2861 H 0.27044 0.76526 0.37573
 H2862 H 0.26218 0.75719 0.40084
 H2863 H 0.28720 0.79353 0.42081
 H2864 H 0.29545 0.80159 0.39572
 C2865 C 0.29136 0.29145 0.85585
 C2866 C 0.28676 0.28717 0.86781
 C2867 C 0.28152 0.28225 0.88224
 C2868 C 0.26988 0.28997 0.88941
 C2869 C 0.26522 0.28557 0.90372
 C2870 C 0.27218 0.27342 0.91091
 C2871 C 0.28375 0.26563 0.90369
 C2872 C 0.28841 0.27003 0.88939
 C2873 C 0.26785 0.26930 0.92589
 C2874 C 0.26445 0.26600 0.93854
 H2875 H 0.26453 0.29948 0.88403
 H2876 H 0.25633 0.29173 0.90924
 H2877 H 0.28927 0.25628 0.90919
 H2878 H 0.29748 0.26404 0.88398
 C2879 C 0.45647 0.29358 0.89236
 C2880 C 0.46075 0.28925 0.88029
 C2881 C 0.46568 0.28424 0.86577
 C2882 C 0.47761 0.27407 0.86451
 C2883 C 0.48237 0.26927 0.85035
 C2884 C 0.47522 0.27461 0.83740
 C2885 C 0.46329 0.28477 0.83866
 C2886 C 0.45854 0.28957 0.85281
 C2887 C 0.48008 0.26977 0.82280
 C2888 C 0.48397 0.26589 0.81044
 H2889 H 0.48322 0.26989 0.87446
 H2890 H 0.49161 0.26142 0.84950
 H2891 H 0.45769 0.28898 0.82872
 H2892 H 0.44931 0.29743 0.85365
 C2893 C 0.95746 0.29384 0.39245
 C2894 C 0.96188 0.28960 0.38040
 C2895 C 0.96698 0.28469 0.36589
 C2896 C 0.96440 0.29369 0.35326
 C2897 C 0.96917 0.28890 0.33911
 C2898 C 0.97654 0.27509 0.33753
 C2899 C 0.97915 0.26609 0.35016
 C2900 C 0.97438 0.27089 0.36432
 C2901 C 0.98126 0.27015 0.32291
 C2902 C 0.98504 0.26621 0.31055
 H2903 H 0.95866 0.30437 0.35434
 H2904 H 0.96706 0.29594 0.32941
 H2905 H 0.98481 0.25538 0.34906
 H2906 H 0.97640 0.26382 0.37402
 C2907 C 0.45719 0.39263 0.79358
 C2908 C 0.46134 0.38045 0.78935
 C2909 C 0.46615 0.36580 0.78450
 C2910 C 0.47434 0.36414 0.77120
 C2911 C 0.47894 0.34985 0.76652
 C2912 C 0.47536 0.33718 0.77512
 C2913 C 0.46720 0.33885 0.78841
 C2914 C 0.46260 0.35312 0.79309
 C2915 C 0.48000 0.32245 0.77034
 C2916 C 0.48376 0.31001 0.76653
 H2917 H 0.47715 0.37387 0.76448
 H2918 H 0.48525 0.34868 0.75623
 H2919 H 0.46438 0.32913 0.79515
 H2920 H 0.45628 0.35427 0.80339
 C2921 C 0.95721 0.39223 0.29394
 C2922 C 0.96155 0.38014 0.28964
 C2923 C 0.96655 0.36558 0.28471
 C2924 C 0.97597 0.36424 0.27222
 C2925 C 0.98074 0.35003 0.26746
 C2926 C 0.97611 0.33713 0.27517
 C2927 C 0.96672 0.33850 0.28766
 C2928 C 0.96195 0.35268 0.29242
 C2929 C 0.98091 0.32248 0.27032
 C2930 C 0.98475 0.31008 0.26647
 H2931 H 0.97960 0.37414 0.26618
 H2932 H 0.98801 0.34910 0.25779
 H2933 H 0.96307 0.32860 0.29371
 H2934 H 0.95468 0.35359 0.30208
 C2935 C 0.29356 0.89234 0.45665
 C2936 C 0.28918 0.88027 0.46091
 C2937 C 0.28410 0.86572 0.46576
 C2938 C 0.28718 0.85300 0.45702
 C2939 C 0.28236 0.83883 0.46171
 C2940 C 0.27444 0.83729 0.47516
 C2941 C 0.27133 0.85001 0.48391
 C2942 C 0.27615 0.86420 0.47921
 C2943 C 0.26964 0.82264 0.47998
 C2944 C 0.26582 0.81024 0.48381
 H2945 H 0.29332 0.85404 0.44661
 H2946 H 0.28484 0.82907 0.45487
 H2947 H 0.26523 0.84895 0.49434
 H2948 H 0.27372 0.87396 0.48606
 C2949 C 0.29103 0.39519 0.96006
 C2950 C 0.28656 0.38322 0.96451
 C2951 C 0.28146 0.36876 0.96959
 C2952 C 0.26834 0.36249 0.96362
 C2953 C 0.26377 0.34814 0.96805
 C2954 C 0.27230 0.34000 0.97847
 C2955 C 0.28532 0.34634 0.98456
 C2956 C 0.28989 0.36070 0.98014
 C2957 C 0.26803 0.32495 0.98249
 C2958 C 0.26469 0.31222 0.98566
 H2959 H 0.26176 0.36862 0.95542
 H2960 H 0.25372 0.34331 0.96322
 H2961 H 0.29204 0.34012 0.99258
 H2962 H 0.30008 0.36542 0.98479
 C2963 C 0.79425 0.35717 0.29202
 C2964 C 0.79003 0.36930 0.28770
 C2965 C 0.78515 0.38390 0.28276
 C2966 C 0.79115 0.39683 0.28942
 C2967 C 0.78645 0.41105 0.28471
 C2968 C 0.77571 0.41242 0.27330
 C2969 C 0.76970 0.39949 0.26662
 C2970 C 0.77441 0.38525 0.27134
 C2971 C 0.77092 0.42710 0.26852
 C2972 C 0.76710 0.43952 0.26472
 H2973 H 0.79946 0.39592 0.29826
 H2974 H 0.79116 0.42097 0.28995
 H2975 H 0.76139 0.40042 0.25779
 H2976 H 0.76970 0.37532 0.26611
   
