data_POSCAR
  _audit_creation_date              2014-09-24
  _audit_creation_method            'ToBaCCo'
  _symmetry_space_group_name_H-M    'P1'
  _symmetry_Int_Tables_number       1
  _symmetry_cell_setting            triclinic
  loop_
  _symmetry_equiv_pos_as_xyz
 x,y,z
_cell_length_a 55.4462
_cell_length_b 55.2933
_cell_length_c 55.1916
_cell_angle_alpha 89.919700
_cell_angle_beta 89.982000
_cell_angle_gamma 89.938800
loop_
  _atom_site_label
  _atom_site_type_symbol
  _atom_site_fract_x
  _atom_site_fract_y
  _atom_site_fract_z
N1 N 0.36857 1.35573 0.30501
 N2 N 0.34875 1.36816 0.30104
 C3 C 0.35086 1.38018 0.27994
 C4 C 0.37342 1.37524 0.27018
 C5 C 0.38420 1.35975 0.28680
 H6 H 0.33701 1.39174 0.27243
 H7 H 0.40173 1.35129 0.28540
 Cu8 Cu 0.32234 1.36766 0.32414
 Cu9 Cu 0.37209 1.33463 0.33313
 Cu10 Cu 0.31812 1.32065 0.36196
 N11 N 0.29879 1.36740 0.35022
 N12 N 0.29636 1.34839 0.36431
 C13 C 0.27802 1.35224 0.37981
 C14 C 0.26872 1.37521 0.37558
 C15 C 0.28248 1.38427 0.35661
 H16 H 0.27250 1.33958 0.39369
 H17 H 0.28062 1.40164 0.34779
 N18 N 0.34765 1.30103 0.36547
 N19 N 0.36837 1.30685 0.35525
 C20 C 0.38527 1.29066 0.36198
 C21 C 0.37471 1.27384 0.37728
 C22 C 0.35083 1.28105 0.37907
 H23 H 0.40385 1.29111 0.35606
 H24 H 0.33690 1.27277 0.38999
 H25 H 0.33674 1.32615 0.32915
 H26 H 0.34378 1.34562 0.35579
 N27 N 0.37024 0.85569 0.80727
 N28 N 0.35053 0.86822 0.80314
 C29 C 0.35324 0.88091 0.78252
 C30 C 0.37609 0.87641 0.77331
 C31 C 0.38637 0.86031 0.78964
 H32 H 0.33948 0.89241 0.77485
 H33 H 0.40399 0.85198 0.78853
 Cu34 Cu 0.32345 0.86720 0.82542
 Cu35 Cu 0.37298 0.83384 0.83489
 Cu36 Cu 0.31861 0.81987 0.86279
 N37 N 0.29975 0.86688 0.85138
 N38 N 0.29745 0.84794 0.86560
 C39 C 0.27929 0.85189 0.88128
 C40 C 0.26989 0.87470 0.87685
 C41 C 0.28336 0.88370 0.85772
 H42 H 0.27369 0.83928 0.89518
 H43 H 0.28128 0.90107 0.84893
 N44 N 0.34760 0.79956 0.86583
 N45 N 0.36850 0.80537 0.85600
 C46 C 0.38471 0.78800 0.86127
 C47 C 0.37348 0.77040 0.87513
 C48 C 0.34993 0.77840 0.87769
 H49 H 0.40307 0.78774 0.85470
 H50 H 0.33546 0.76949 0.88730
 H51 H 0.33762 0.82562 0.83018
 H52 H 0.34442 0.84473 0.85716
 N53 N 0.86691 1.35098 0.80087
 N54 N 0.85328 1.37020 0.80398
 C55 C 0.85924 1.38697 0.78726
 C56 C 0.87744 1.37763 0.77271
 C57 C 0.88170 1.35469 0.78193
 H58 H 0.85083 1.40455 0.78574
 H59 H 0.89527 1.34197 0.77597
 Cu60 Cu 0.82892 1.37089 0.82947
 Cu61 Cu 0.86626 1.32335 0.82282
 Cu62 Cu 0.82435 1.32531 0.86935
 N63 N 0.80492 1.37153 0.85533
 N64 N 0.80307 1.35326 0.87048
 C65 C 0.78487 1.35746 0.88598
 C66 C 0.77469 1.37960 0.88041
 C67 C 0.78792 1.38812 0.86086
 H68 H 0.77949 1.34536 0.90040
 H69 H 0.78509 1.40491 0.85119
 N70 N 0.84738 1.29855 0.86523
 N71 N 0.86292 1.29740 0.84714
 C72 C 0.87616 1.27706 0.84949
 C73 C 0.86871 1.26502 0.87016
 C74 C 0.85044 1.27914 0.87963
 H75 H 0.89063 1.27175 0.83750
 H76 H 0.84020 1.27549 0.89589
 H77 H 0.83061 1.32690 0.83251
 H78 H 0.85324 1.34210 0.85235
 N79 N 0.86842 0.85184 0.30138
 N80 N 0.85355 0.87026 0.30336
 C81 C 0.85934 0.88701 0.28655
 C82 C 0.87867 0.87839 0.27307
 C83 C 0.88382 0.85596 0.28304
 H84 H 0.84994 0.90396 0.28408
 H85 H 0.89829 0.84388 0.27793
 Cu86 Cu 0.82774 0.86976 0.32732
 Cu87 Cu 0.86821 0.82472 0.32386
 Cu88 Cu 0.82242 0.82362 0.36663
 N89 N 0.80219 0.86922 0.35155
 N90 N 0.79981 0.85064 0.36624
 C91 C 0.78095 0.85453 0.38107
 C92 C 0.77099 0.87681 0.37552
 C93 C 0.78495 0.88566 0.35667
 H94 H 0.77535 0.84240 0.39537
 H95 H 0.78275 0.90279 0.34747
 N96 N 0.84725 0.79817 0.36418
 N97 N 0.86501 0.79893 0.34827
 C98 C 0.88057 0.78081 0.35298
 C99 C 0.87218 0.76797 0.37274
 C100 C 0.85093 0.77934 0.37926
 H101 H 0.89722 0.77767 0.34329
 H102 H 0.83982 0.77506 0.39478
 H103 H 0.83164 0.82594 0.33054
 H104 H 0.85144 0.84233 0.35239
 N105 N 0.63055 0.64699 0.30241
 N106 N 0.64559 0.62870 0.30438
 C107 C 0.63983 0.61187 0.28768
 C108 C 0.62022 0.62022 0.27454
 C109 C 0.61487 0.64254 0.28442
 H110 H 0.64923 0.59492 0.28517
 H111 H 0.60029 0.65445 0.27920
 Cu112 Cu 0.67121 0.62905 0.32854
 Cu113 Cu 0.63134 0.67480 0.32392
 Cu114 Cu 0.67566 0.67503 0.36807
 N115 N 0.69607 0.62947 0.35350
 N116 N 0.69792 0.64784 0.36848
 C117 C 0.71655 0.64400 0.38359
 C118 C 0.72691 0.62197 0.37796
 C119 C 0.71341 0.61317 0.35878
 H120 H 0.72190 0.65613 0.39796
 H121 H 0.71611 0.59627 0.34935
 N122 N 0.65149 0.70092 0.36476
 N123 N 0.63500 0.70119 0.34753
 C124 C 0.62131 0.72119 0.35002
 C125 C 0.62945 0.73394 0.36991
 C126 C 0.64856 0.72058 0.37882
 H127 H 0.60615 0.72585 0.33861
 H128 H 0.65954 0.72497 0.39438
 H129 H 0.66765 0.67292 0.33161
 H130 H 0.64688 0.65670 0.35275
 N131 N 0.62815 0.14412 0.80491
 N132 N 0.64748 0.13070 0.80194
 C133 C 0.64364 0.11508 0.78367
 C134 C 0.62056 0.11882 0.77466
 C135 C 0.61123 0.13736 0.78879
 H136 H 0.65660 0.10181 0.77759
 H137 H 0.59379 0.14593 0.78699
 Cu138 Cu 0.67604 0.13476 0.82197
 Cu139 Cu 0.62730 0.17082 0.82784
 Cu140 Cu 0.67636 0.17688 0.86611
 N141 N 0.70088 0.13546 0.84685
 N142 N 0.70140 0.15238 0.86354
 C143 C 0.72094 0.14911 0.87765
 C144 C 0.73321 0.12890 0.86950
 C145 C 0.71993 0.12065 0.84997
 H146 H 0.72570 0.16041 0.89288
 H147 H 0.72408 0.10526 0.83863
 N148 N 0.64905 0.19963 0.86603
 N149 N 0.62998 0.19687 0.85202
 C150 C 0.61458 0.21529 0.85601
 C151 C 0.62451 0.23045 0.87323
 C152 C 0.64637 0.21995 0.87919
 H153 H 0.59779 0.21804 0.84644
 H154 H 0.65945 0.22673 0.89200
 H155 H 0.66403 0.17636 0.83062
 H156 H 0.65037 0.15396 0.85206
 N157 N 1.12970 0.64569 0.80376
 N158 N 1.14525 0.62780 0.80524
 C159 C 1.14006 0.61135 0.78798
 C160 C 1.12031 0.61958 0.77497
 C161 C 1.11426 0.64139 0.78552
 H162 H 1.15009 0.59487 0.78484
 H163 H 1.09951 0.65315 0.78042
 Cu164 Cu 1.17110 0.62857 0.82915
 Cu165 Cu 1.13016 0.67323 0.82556
 Cu166 Cu 1.17602 0.67523 0.86800
 N167 N 1.19623 0.62939 0.85380
 N168 N 1.19839 0.64807 0.86835
 C169 C 1.21712 0.64437 0.88337
 C170 C 1.22724 0.62213 0.87809
 C171 C 1.21351 0.61308 0.85921
 H172 H 1.22259 0.65666 0.89756
 H173 H 1.21595 0.59596 0.85011
 N174 N 1.15142 0.70080 0.86487
 N175 N 1.13359 0.69962 0.84910
 C176 C 1.11913 0.71894 0.85205
 C177 C 1.12833 0.73306 0.87047
 C178 C 1.14887 0.72108 0.87816
 H179 H 1.10313 0.72264 0.84150
 H180 H 1.16076 0.72651 0.89268
 H181 H 1.16687 0.67240 0.83199
 H182 H 1.14737 0.65601 0.85416
 N183 N 1.13040 0.14703 0.30373
 N184 N 1.14487 0.12840 0.30650
 C185 C 1.14172 0.11311 0.28777
 C186 C 1.12448 0.12286 0.27240
 C187 C 1.11770 0.14437 0.28316
 H188 H 1.15180 0.09657 0.28507
 H189 H 1.10472 0.15732 0.27639
 Cu190 Cu 1.16749 0.12664 0.33346
 Cu191 Cu 1.12970 0.17389 0.32626
 Cu192 Cu 1.17530 0.17591 0.36874
 N193 N 1.19509 0.12990 0.35502
 N194 N 1.19831 0.14934 0.36830
 C195 C 1.21905 0.14716 0.38076
 C196 C 1.22942 0.12512 0.37505
 C197 C 1.21368 0.11462 0.35866
 H198 H 1.22603 0.16062 0.39308
 H199 H 1.21589 0.09742 0.34963
 N200 N 1.15005 0.20085 0.36636
 N201 N 1.13223 0.19960 0.35058
 C202 C 1.11760 0.21876 0.35362
 C203 C 1.12674 0.23288 0.37207
 C204 C 1.14735 0.22103 0.37974
 H205 H 1.10172 0.22251 0.34288
 H206 H 1.15936 0.22660 0.39411
 H207 H 1.16634 0.17048 0.33286
 H208 H 1.14551 0.15735 0.35620
 N209 N 0.63291 1.35052 0.69856
 N210 N 0.64961 1.36739 0.69830
 C211 C 0.64509 1.38333 0.71619
 C212 C 0.62459 1.37585 0.72841
 C213 C 0.61744 1.35493 0.71678
 H214 H 0.65567 1.39932 0.71989
 H215 H 0.60157 1.34427 0.72071
 Cu216 Cu 0.67469 1.36699 0.67367
 Cu217 Cu 0.63099 1.32532 0.67395
 Cu218 Cu 0.67523 1.32582 0.62932
 N219 N 0.69938 1.36759 0.64867
 N220 N 0.69913 1.35161 0.63104
 C221 C 0.71683 1.35684 0.61519
 C222 C 0.72891 1.37710 0.62339
 C223 C 0.71742 1.38340 0.64473
 H224 H 0.72047 1.34679 0.59880
 H225 H 0.72141 1.39886 0.65600
 N226 N 0.64943 1.30134 0.63083
 N227 N 0.63228 1.30146 0.64745
 C228 C 0.61651 1.28359 0.64258
 C229 C 0.62423 1.27156 0.62206
 C230 C 0.64518 1.28320 0.61518
 H231 H 0.60050 1.27970 0.65305
 H232 H 0.65602 1.27919 0.59940
 H233 H 0.66727 1.32432 0.66577
 H234 H 0.64809 1.34456 0.64681
 N235 N 0.62748 0.85586 1.19420
 N236 N 0.64469 0.87218 1.19480
 C237 C 0.63941 0.88861 1.21207
 C238 C 0.61790 0.88196 1.22297
 C239 C 0.61089 0.86113 1.21114
 H240 H 0.65063 0.90387 1.21679
 H241 H 0.59495 0.85047 1.21477
 Cu242 Cu 0.67258 0.86961 1.17348
 Cu243 Cu 0.62808 0.82838 1.17236
 Cu244 Cu 0.68051 0.81979 1.13931
 N245 N 0.69891 0.86707 1.15024
 N246 N 0.70208 0.84745 1.13719
 C247 C 0.72216 0.84992 1.12370
 C248 C 0.73208 0.87240 1.12841
 C249 C 0.71679 0.88278 1.14532
 H250 H 0.72906 0.83627 1.11152
 H251 H 0.71895 0.90022 1.15387
 N252 N 0.65270 0.79766 1.13763
 N253 N 0.63245 0.80149 1.14959
 C254 C 0.61683 0.78360 1.14455
 C255 C 0.62772 0.76767 1.12868
 C256 C 0.65048 0.77715 1.12465
 H257 H 0.59907 0.78185 1.15242
 H258 H 0.66439 0.76972 1.11312
 H259 H 0.66482 0.82599 1.17313
 H260 H 0.65185 0.84216 1.14634
 N261 N 1.12826 1.35655 1.19420
 N262 N 1.14666 1.37145 1.19563
 C263 C 1.14237 1.38768 1.21327
 C264 C 1.12005 1.38273 1.22339
 C265 C 1.11158 1.36288 1.21077
 H266 H 1.15455 1.40205 1.21839
 H267 H 1.09487 1.35332 1.21388
 Cu268 Cu 1.17469 1.36820 1.17465
 Cu269 Cu 1.12818 1.32904 1.17228
 Cu270 Cu 1.17612 1.32418 1.13242
 N271 N 1.19869 1.36788 1.14890
 N272 N 1.19969 1.35018 1.13307
 C273 C 1.21783 1.35440 1.11745
 C274 C 1.22869 1.37604 1.12363
 C275 C 1.21605 1.38414 1.14370
 H276 H 1.22224 1.34304 1.10214
 H277 H 1.21913 1.40068 1.15366
 N278 N 1.15019 1.29999 1.13439
 N279 N 1.13144 1.30234 1.14894
 C280 C 1.11651 1.28346 1.14558
 C281 C 1.12638 1.26845 1.12817
 C282 C 1.14775 1.27947 1.12150
 H283 H 1.09991 1.28049 1.15542
 H284 H 1.16046 1.27312 1.10808
 H285 H 1.16508 1.32556 1.16827
 H286 H 1.14930 1.34610 1.14642
 N287 N 1.13333 0.85109 0.69740
 N288 N 1.14701 0.87023 0.69425
 C289 C 1.14406 0.88530 0.71316
 C290 C 1.12767 0.87501 0.72905
 C291 C 1.12127 0.85328 0.71845
 H292 H 1.15342 0.90230 0.71537
 H293 H 1.10856 0.84015 0.72536
 Cu294 Cu 1.16784 0.87352 0.66609
 Cu295 Cu 1.13137 0.82538 0.67348
 Cu296 Cu 1.17310 0.82693 0.62704
 N297 N 1.19459 0.87120 0.64342
 N298 N 1.19682 0.85280 0.62853
 C299 C 1.21744 0.85518 0.61588
 C300 C 1.22873 0.87626 0.62318
 C301 C 1.21366 0.88600 0.64065
 H302 H 1.22382 0.84240 0.60252
 H303 H 1.21674 0.90222 0.65112
 N304 N 1.14759 0.80228 0.62911
 N305 N 1.13216 0.80127 0.64730
 C306 C 1.11692 0.78272 0.64364
 C307 C 1.12288 0.77165 0.62201
 C308 C 1.14242 0.78451 0.61326
 H309 H 1.10199 0.77810 0.65535
 H310 H 1.15202 0.78129 0.59653
 H311 H 1.16721 0.82977 0.66389
 H312 H 1.14415 0.84411 0.64354
 N313 N 0.36536 0.65177 0.70134
 N314 N 0.35194 0.63233 0.69901
 C315 C 0.35930 0.61553 0.71506
 C316 C 0.37825 0.62509 0.72829
 C317 C 0.38152 0.64816 0.71913
 H318 H 0.35128 0.59783 0.71712
 H319 H 0.39493 0.66123 0.72465
 Cu320 Cu 0.32563 0.63149 0.67579
 Cu321 Cu 0.36099 0.68009 0.68080
 Cu322 Cu 0.33198 0.66670 0.62679
 N323 N 0.30239 0.63057 0.64952
 N324 N 0.30517 0.64411 0.63013
 C325 C 0.28686 0.63992 0.61472
 C326 C 0.27158 0.62307 0.62518
 C327 C 0.28204 0.61752 0.64728
 H328 H 0.28446 0.64905 0.59755
 H329 H 0.27532 0.60505 0.66078
 N330 N 0.35267 0.69536 0.63116
 N331 N 0.36287 0.70091 0.65201
 C332 C 0.37470 0.72200 0.64966
 C333 C 0.37178 0.73024 0.62614
 C334 C 0.35768 0.71286 0.61495
 H335 H 0.38477 0.73059 0.66403
 H336 H 0.35098 0.71325 0.59656
 H337 H 0.32822 0.67361 0.66256
 H338 H 0.35554 0.65568 0.65429
 N339 N 0.36653 0.14979 1.19797
 N340 N 0.35060 0.13222 1.19738
 C341 C 0.35418 0.11762 1.21660
 C342 C 0.37317 0.12673 1.23003
 C343 C 0.38056 0.14717 1.21768
 H344 H 0.34343 0.10189 1.22091
 H345 H 0.39506 0.15924 1.22266
 Cu346 Cu 0.32614 0.13077 1.17215
 Cu347 Cu 0.36774 0.17486 1.17335
 Cu348 Cu 0.32527 0.17223 1.12734
 N349 N 0.30286 0.12919 1.14585
 N350 N 0.30287 0.14512 1.12814
 C351 C 0.28548 0.13937 1.11214
 C352 C 0.27382 0.11882 1.12037
 C353 C 0.28529 0.11290 1.14182
 H354 H 0.28147 0.14949 1.09585
 H355 H 0.28131 0.09762 1.15338
 N356 N 0.34954 0.19815 1.12978
 N357 N 0.36613 0.19861 1.14692
 C358 C 0.38030 0.21805 1.14359
 C359 C 0.37212 0.23061 1.12360
 C360 C 0.35254 0.21757 1.11528
 H361 H 0.39513 0.22315 1.15521
 H362 H 0.34141 0.22188 1.09978
 H363 H 0.33151 0.17382 1.16414
 H364 H 0.35233 0.15451 1.14586
 N365 N 0.87111 0.64679 1.19520
 N366 N 0.85707 0.62784 1.19258
 C367 C 0.86235 0.61157 1.21001
 C368 C 0.88060 0.62097 1.22432
 C369 C 0.88565 0.64334 1.21436
 H370 H 0.85355 0.59425 1.21211
 H371 H 0.89932 0.65594 1.22029
 Cu372 Cu 0.83341 0.62605 1.16656
 Cu373 Cu 0.87064 0.67389 1.17288
 Cu374 Cu 0.82347 0.67585 1.13232
 N375 N 0.80504 0.62929 1.14602
 N376 N 0.80077 0.64910 1.13358
 C377 C 0.78027 0.64631 1.12089
 C378 C 0.77115 0.62343 1.12545
 C379 C 0.78746 0.61312 1.14148
 H380 H 0.77314 0.65960 1.10842
 H381 H 0.78688 0.59511 1.14905
 N382 N 0.84862 0.70091 1.13369
 N383 N 0.86702 0.69976 1.14879
 C384 C 0.88255 0.71773 1.14363
 C385 C 0.87346 0.73088 1.12437
 C386 C 0.85185 0.71982 1.11863
 H387 H 0.89957 0.72060 1.15273
 H388 H 0.84010 0.72439 1.10367
 H389 H 0.83379 0.66987 1.16775
 H390 H 0.85397 0.65743 1.14342
 N391 N 0.86786 0.14887 0.69813
 N392 N 0.85190 0.13133 0.69778
 C393 C 0.85758 0.11511 0.71516
 C394 C 0.87803 0.12317 0.72709
 C395 C 0.88396 0.14466 0.71583
 H396 H 0.84765 0.09869 0.71884
 H397 H 0.89931 0.15602 0.71981
 Cu398 Cu 0.82547 0.13134 0.67445
 Cu399 Cu 0.86765 0.17510 0.67485
 Cu400 Cu 0.82317 0.17452 0.63099
 N401 N 0.80109 0.13106 0.64900
 N402 N 0.80070 0.14747 0.63174
 C403 C 0.78294 0.14215 0.61599
 C404 C 0.77145 0.12139 0.62390
 C405 C 0.78339 0.11490 0.64494
 H406 H 0.77866 0.15262 0.60000
 H407 H 0.77980 0.09918 0.65604
 N408 N 0.84758 0.20035 0.63333
 N409 N 0.86474 0.20019 0.64989
 C410 C 0.87899 0.21958 0.64664
 C411 C 0.87035 0.23275 0.62724
 C412 C 0.85033 0.22012 0.61925
 H413 H 0.89440 0.22405 0.65774
 H414 H 0.83884 0.22485 0.60414
 H415 H 0.83094 0.17461 0.66745
 H416 H 0.85065 0.15560 0.64760
 N417 N 1.35420 0.37074 0.69524
 N418 N 1.37249 0.35569 0.69350
 C419 C 1.38918 0.36163 0.71025
 C420 C 1.38072 0.38136 0.72320
 C421 C 1.35851 0.38661 0.71312
 H422 H 1.40598 0.35212 0.71310
 H423 H 1.34643 0.40104 0.71835
 Cu424 Cu 1.37179 0.32946 0.66994
 Cu425 Cu 1.32610 0.36897 0.67431
 Cu426 Cu 1.32408 0.32189 0.63300
 N427 N 1.37103 0.30364 0.64598
 N428 N 1.35183 0.30021 0.63245
 C429 C 1.35558 0.28109 0.61791
 C430 C 1.37852 0.27208 0.62226
 C431 C 1.38782 0.28694 0.64023
 H432 H 1.34287 0.27484 0.60447
 H433 H 1.40537 0.28566 0.64862
 N434 N 1.29801 0.34600 0.63628
 N435 N 1.29917 0.36422 0.65166
 C436 C 1.27965 0.37837 0.64869
 C437 C 1.26545 0.36863 0.63062
 C438 C 1.27756 0.34803 0.62321
 H439 H 1.27599 0.39466 0.65884
 H440 H 1.27220 0.33587 0.60887
 H441 H 1.32788 0.33205 0.66863
 H442 H 1.34267 0.35164 0.64540
 N443 N 1.35295 0.87005 1.19732
 N444 N 1.37069 0.85432 1.19627
 C445 C 1.38714 0.85987 1.21336
 C446 C 1.37899 0.87993 1.22608
 C447 C 1.35715 0.88576 1.21539
 H448 H 1.40359 0.84984 1.21650
 H449 H 1.34562 0.90091 1.21976
 Cu450 Cu 1.37006 0.82790 1.17292
 Cu451 Cu 1.32668 0.87043 1.17407
 Cu452 Cu 1.32705 0.82609 1.12985
 N453 N 1.36956 0.80270 1.14827
 N454 N 1.35352 0.80301 1.13075
 C455 C 1.35733 0.78405 1.11601
 C456 C 1.37649 0.77069 1.12502
 C457 C 1.38382 0.78312 1.14557
 H458 H 1.34612 0.77956 1.10065
 H459 H 1.39841 0.77834 1.15765
 N460 N 1.30172 0.85096 1.13214
 N461 N 1.30174 0.86796 1.14890
 C462 C 1.28219 0.88208 1.14587
 C463 C 1.26908 0.87339 1.12649
 C464 C 1.28192 0.85362 1.11822
 H465 H 1.27745 0.89725 1.15725
 H466 H 1.27715 0.84204 1.10320
 H467 H 1.32693 0.83373 1.16640
 H468 H 1.34578 0.85362 1.14662
 N469 N 0.84716 0.36531 1.20016
 N470 N 0.86570 0.35061 1.19824
 C471 C 0.88113 0.35496 1.21655
 C472 C 0.87157 0.37311 1.23100
 C473 C 0.84991 0.37920 1.21996
 H474 H 0.89760 0.34498 1.21972
 H475 H 0.83711 0.39278 1.22571
 Cu476 Cu 0.86707 0.32599 1.17308
 Cu477 Cu 0.82071 0.36518 1.17700
 Cu478 Cu 0.82516 0.32526 1.12897
 N479 N 0.86641 0.30063 1.14865
 N480 N 0.85048 0.30101 1.13102
 C481 C 0.85410 0.28182 1.11653
 C482 C 0.87316 0.26851 1.12566
 C483 C 0.88054 0.28094 1.14612
 H484 H 0.84317 0.27739 1.10093
 H485 H 0.89505 0.27599 1.15823
 N486 N 0.80073 0.35099 1.13051
 N487 N 0.79917 0.36645 1.14864
 C488 C 0.78123 0.38227 1.14399
 C489 C 0.77081 0.37615 1.12208
 C490 C 0.78355 0.35622 1.11411
 H491 H 0.77602 0.39703 1.15571
 H492 H 0.78070 0.34653 1.09735
 H493 H 0.82382 0.32918 1.16583
 H494 H 0.84171 0.35253 1.14901
 N495 N 0.85140 0.86730 0.69655
 N496 N 0.86471 0.84783 0.69941
 C497 C 0.87895 0.85073 0.71897
 C498 C 0.87430 0.87329 0.72885
 C499 C 0.85676 0.88328 0.71407
 H500 H 0.89148 0.83730 0.72565
 H501 H 0.84783 0.90049 0.71654
 Cu502 Cu 0.86170 0.82020 0.67786
 Cu503 Cu 0.82628 0.86941 0.67206
 Cu504 Cu 0.82470 0.82388 0.62938
 N505 N 0.86426 0.79799 0.65067
 N506 N 0.85007 0.79971 0.63167
 C507 C 0.85648 0.78287 0.61530
 C508 C 0.87568 0.76982 0.62456
 C509 C 0.88010 0.77988 0.64709
 H510 H 0.84786 0.78041 0.59791
 H511 H 0.89423 0.77484 0.65963
 N512 N 0.80088 0.85024 0.63031
 N513 N 0.80203 0.86811 0.64608
 C514 C 0.78323 0.88308 0.64244
 C515 C 0.76946 0.87409 0.62364
 C516 C 0.78117 0.85323 0.61635
 H517 H 0.77918 0.89879 0.65335
 H518 H 0.77558 0.84099 0.60218
 H519 H 0.82135 0.83278 0.66574
 H520 H 0.84583 0.84825 0.64808
 N521 N 0.64667 0.62995 0.69645
 N522 N 0.62860 0.64526 0.69477
 C523 C 0.61249 0.64033 0.71241
 C524 C 0.62108 0.62098 0.72586
 C525 C 0.64280 0.61492 0.71520
 H526 H 0.59587 0.65013 0.71535
 H527 H 0.65468 0.60030 0.72042
 Cu528 Cu 0.62796 0.67016 0.66975
 Cu529 Cu 0.67337 0.62972 0.67374
 Cu530 Cu 0.67509 0.67576 0.63140
 N531 N 0.62976 0.69627 0.64608
 N532 N 0.64861 0.69882 0.63186
 C533 C 0.64507 0.71788 0.61712
 C534 C 0.62272 0.72777 0.62220
 C535 C 0.61350 0.71361 0.64073
 H536 H 0.65737 0.72352 0.60300
 H537 H 0.59614 0.71562 0.64942
 N538 N 0.70004 0.65049 0.63360
 N539 N 0.69895 0.63248 0.64927
 C540 C 0.71694 0.61678 0.64459
 C541 C 0.73004 0.62537 0.62509
 C542 C 0.71891 0.64684 0.61868
 H543 H 0.71996 0.60004 0.65426
 H544 H 0.72350 0.65822 0.60343
 H545 H 0.67169 0.66658 0.66753
 H546 H 0.65602 0.64670 0.64508
 N547 N 0.64870 1.13264 1.19859
 N548 N 0.62940 1.14604 1.19529
 C549 C 0.61438 1.14300 1.21422
 C550 C 0.62497 1.12698 1.23044
 C551 C 0.64681 1.12085 1.21984
 H552 H 0.59739 1.15237 1.21634
 H553 H 0.66028 1.10853 1.22680
 Cu554 Cu 0.62605 1.16716 1.16722
 Cu555 Cu 0.67453 1.13091 1.17489
 Cu556 Cu 0.67403 1.17456 1.13027
 N557 N 0.62816 1.19409 1.14456
 N558 N 0.64728 1.19733 1.13084
 C559 C 0.64384 1.21691 1.11678
 C560 C 0.62132 1.22645 1.12180
 C561 C 0.61185 1.21149 1.13957
 H562 H 0.65641 1.22320 1.10319
 H563 H 0.59435 1.21298 1.14809
 N564 N 0.69927 1.14960 1.13259
 N565 N 0.69898 1.13238 1.14915
 C566 C 0.71696 1.11664 1.14457
 C567 C 0.72924 1.12444 1.12421
 C568 C 0.71761 1.14544 1.11717
 H569 H 0.72059 1.10048 1.15500
 H570 H 0.72155 1.15618 1.10127
 H571 H 0.66974 1.16717 1.16674
 H572 H 0.65662 1.14480 1.14481
 N573 N 0.14769 0.63128 1.19658
 N574 N 0.13588 0.65149 1.20061
 C575 C 0.12124 0.64841 1.21984
 C576 C 0.12385 0.62485 1.22828
 C577 C 0.14086 0.61458 1.21295
 H578 H 0.10901 0.66206 1.22662
 H579 H 0.14801 0.59641 1.21371
 Cu580 Cu 0.13938 0.67941 1.17934
 Cu581 Cu 0.17185 0.62836 1.17111
 Cu582 Cu 0.17735 0.67706 1.13210
 N583 N 0.13611 0.70130 1.15177
 N584 N 0.15034 0.69950 1.13283
 C585 C 0.14358 0.71577 1.11599
 C586 C 0.12404 0.72874 1.12487
 C587 C 0.11990 0.71904 1.14776
 H588 H 0.15257 0.71812 1.09876
 H589 H 0.10571 0.72395 1.16026
 N590 N 0.19800 0.64822 1.13003
 N591 N 0.19553 0.62931 1.14442
 C592 C 0.21216 0.61257 1.13835
 C593 C 0.22578 0.62146 1.11929
 C594 C 0.21623 0.64409 1.11449
 H595 H 0.21456 0.59542 1.14746
 H596 H 0.22207 0.65657 1.10059
 H597 H 0.17950 0.66441 1.16785
 H598 H 0.15483 0.65257 1.14814
 N599 N 0.14977 1.13529 0.69970
 N600 N 0.12966 1.14725 0.69574
 C601 C 0.11448 1.14340 0.71443
 C602 C 0.12578 1.12828 0.73108
 C603 C 0.14821 1.12362 0.72103
 H604 H 0.09677 1.15143 0.71599
 H605 H 0.16227 1.11220 0.72833
 Cu606 Cu 0.12531 1.16725 0.66689
 Cu607 Cu 0.17593 1.13434 0.67635
 Cu608 Cu 0.17226 1.17407 0.62844
 N609 N 0.12611 1.19299 0.64262
 N610 N 0.14486 1.19598 0.62838
 C611 C 0.14112 1.21525 0.61400
 C612 C 0.11864 1.22491 0.61922
 C613 C 0.10956 1.21017 0.63751
 H614 H 0.15360 1.22134 0.60026
 H615 H 0.09244 1.21195 0.64670
 N616 N 0.19854 1.15042 0.63182
 N617 N 0.20040 1.13585 0.65064
 C618 C 0.22027 1.12209 0.64806
 C619 C 0.23128 1.12798 0.62632
 C620 C 0.21699 1.14611 0.61658
 H621 H 0.22592 1.10847 0.66087
 H622 H 0.21990 1.15560 0.59970
 H623 H 0.16895 1.16951 0.66550
 H624 H 0.15669 1.14466 0.64586
 N625 N 1.35469 0.62809 0.30566
 N626 N 1.37312 0.64285 0.30785
 C627 C 1.38918 0.63804 0.29013
 C628 C 1.38015 0.61935 0.27608
 C629 C 1.35825 0.61356 0.28651
 H630 H 1.40607 0.64748 0.28761
 H631 H 1.34604 0.59943 0.28086
 Cu632 Cu 1.37433 0.66693 0.33364
 Cu633 Cu 1.32804 0.62771 0.32838
 Cu634 Cu 1.32474 0.67529 0.36843
 N635 N 1.37014 0.69556 0.35382
 N636 N 1.35038 0.69920 0.36646
 C637 C 1.35204 0.72050 0.37809
 C638 C 1.37421 0.73080 0.37271
 C639 C 1.38520 0.71436 0.35720
 H640 H 1.33832 0.72758 0.39005
 H641 H 1.40262 0.71614 0.34860
 N642 N 1.30085 0.64898 0.36775
 N643 N 1.30248 0.63048 0.35279
 C644 C 1.28495 0.61447 0.35801
 C645 C 1.27157 0.62337 0.37715
 C646 C 1.28208 0.64534 0.38279
 H647 H 1.28239 0.59740 0.34886
 H648 H 1.27705 0.65722 0.39750
 H649 H 1.33067 0.66488 0.33306
 H650 H 1.34420 0.64540 0.35745
 N651 N 1.35515 1.12778 0.80506
 N652 N 1.36971 1.14643 0.80320
 C653 C 1.38526 1.14255 0.78489
 C654 C 1.38026 1.12025 0.77476
 C655 C 1.36105 1.11132 0.78807
 H656 H 1.39937 1.15487 0.77944
 H657 H 1.35184 1.09431 0.78539
 Cu658 Cu 1.36732 1.17389 0.82502
 Cu659 Cu 1.32929 1.12665 0.82897
 Cu660 Cu 1.32389 1.17601 0.86742
 N661 N 1.36509 1.20056 0.84783
 N662 N 1.34762 1.20171 0.86388
 C663 C 1.35016 1.22201 0.87710
 C664 C 1.37048 1.23411 0.86903
 C665 C 1.37950 1.21996 0.85047
 H666 H 1.33846 1.22727 0.89185
 H667 H 1.39534 1.22366 0.83965
 N668 N 1.30181 1.14815 0.86835
 N669 N 1.30423 1.12904 0.85423
 C670 C 1.28722 1.11267 0.86018
 C671 C 1.27340 1.12198 0.87884
 C672 C 1.28314 1.14449 0.88350
 H673 H 1.28502 1.09527 0.85156
 H674 H 1.27740 1.15699 0.89739
 H675 H 1.32513 1.16359 0.83205
 H676 H 1.34586 1.14873 0.85420
 N677 N 0.85366 0.63065 0.80325
 N678 N 0.86920 0.64856 0.80231
 C679 C 0.88485 0.64447 0.78413
 C680 C 0.87892 0.62276 0.77325
 C681 C 0.85903 0.61446 0.78587
 H682 H 0.89984 0.65607 0.77946
 H683 H 0.84920 0.59789 0.78266
 Cu684 Cu 0.86819 0.67492 0.82557
 Cu685 Cu 0.82789 0.62953 0.82710
 Cu686 Cu 0.82621 0.67554 0.86967
 N687 N 0.86741 0.70018 0.85004
 N688 N 0.85065 0.70067 0.86689
 C689 C 0.85372 0.72049 0.88069
 C690 C 0.87363 0.73294 0.87218
 C691 C 0.88192 0.71949 0.85278
 H692 H 0.84238 0.72544 0.89584
 H693 H 0.89707 0.72382 0.84124
 N694 N 0.80305 0.64852 0.86937
 N695 N 0.80325 0.63149 0.85266
 C696 C 0.78487 0.61617 0.85683
 C697 C 0.77257 0.62375 0.87727
 C698 C 0.78475 0.64425 0.88484
 H699 H 0.78100 0.60032 0.84609
 H700 H 0.78057 0.65539 0.90031
 H701 H 0.82575 0.66636 0.83343
 H702 H 0.84642 0.64861 0.85344
 N703 N 0.84819 1.13423 0.29932
 N704 N 0.86349 1.15234 0.29842
 C705 C 0.88020 1.14772 0.28134
 C706 C 0.87512 1.12545 0.27105
 C707 C 0.85463 1.11743 0.28291
 H708 H 0.89512 1.15953 0.27694
 H709 H 0.84496 1.10076 0.27976
 Cu710 Cu 0.86025 1.18010 0.31981
 Cu711 Cu 0.82068 1.13442 0.32112
 Cu712 Cu 0.82649 1.17306 0.37020
 N713 N 0.86298 1.20202 0.34712
 N714 N 0.85045 1.19870 0.36707
 C715 C 0.85576 1.21642 0.38288
 C716 C 0.87247 1.23174 0.37227
 C717 C 0.87664 1.22200 0.34953
 H718 H 0.84742 1.21853 0.40046
 H719 H 0.88859 1.22895 0.33570
 N720 N 0.80301 1.14622 0.36928
 N721 N 0.80032 1.13219 0.35015
 C722 C 0.78232 1.11647 0.35433
 C723 C 0.77311 1.12074 0.37721
 C724 C 0.78671 1.13971 0.38621
 H725 H 0.77651 1.10269 0.34174
 H726 H 0.78454 1.14844 0.40359
 H727 H 0.81945 1.17004 0.33414
 H728 H 0.84319 1.14946 0.34635
 N729 N 0.64971 0.36518 0.29984
 N730 N 0.63168 0.34991 0.30184
 C731 C 0.61661 0.35303 0.28295
 C732 C 0.62595 0.37095 0.26805
 C733 C 0.64705 0.37818 0.27939
 H734 H 0.60050 0.34251 0.27981
 H735 H 0.65939 0.39212 0.27352
 Cu736 Cu 0.63063 0.32655 0.32819
 Cu737 Cu 0.67495 0.36758 0.32418
 Cu738 Cu 0.67229 0.32731 0.37242
 N739 N 0.62952 0.30376 0.35503
 N740 N 0.64530 0.30471 0.37277
 C741 C 0.63996 0.28756 0.38927
 C742 C 0.61995 0.27484 0.38124
 C743 C 0.61388 0.28568 0.35940
 H744 H 0.65032 0.28424 0.40553
 H745 H 0.59887 0.28106 0.34783
 N746 N 0.69813 0.35154 0.36869
 N747 N 0.69875 0.36722 0.35063
 C748 C 0.71825 0.38145 0.35318
 C749 C 0.73070 0.37419 0.37359
 C750 C 0.71750 0.35515 0.38298
 H751 H 0.72349 0.39565 0.34077
 H752 H 0.72174 0.34475 0.39902
 H753 H 0.67369 0.33185 0.33531
 H754 H 0.65492 0.35387 0.35267
 N755 N 0.64640 0.86946 0.80339
 N756 N 0.62757 0.85545 0.80676
 C757 C 0.61226 0.85830 0.78801
 C758 C 0.62218 0.87487 0.77201
 C759 C 0.64384 0.88157 0.78241
 H760 H 0.59554 0.84850 0.78578
 H761 H 0.65692 0.89412 0.77515
 Cu762 Cu 0.62536 0.83388 0.83461
 Cu763 Cu 0.67331 0.87038 0.82579
 Cu764 Cu 0.67440 0.82649 0.87023
 N765 N 0.62788 0.80735 0.85771
 N766 N 0.64728 0.80425 0.87105
 C767 C 0.64415 0.78486 0.88545
 C768 C 0.62154 0.77529 0.88102
 C769 C 0.61169 0.79005 0.86327
 H770 H 0.65708 0.77861 0.89871
 H771 H 0.59406 0.78839 0.85507
 N772 N 0.69998 0.85091 0.86657
 N773 N 0.69904 0.86820 0.85010
 C774 C 0.71838 0.88264 0.85263
 C775 C 0.73228 0.87392 0.87148
 C776 C 0.72013 0.85376 0.87990
 H777 H 0.72234 0.89814 0.84136
 H778 H 0.72540 0.84225 0.89484
 H779 H 0.66913 0.83399 0.83398
 H780 H 0.65651 0.85615 0.85636
 N781 N 0.14687 0.36866 0.80278
 N782 N 0.12928 0.35283 0.80421
 C783 C 0.11305 0.35752 0.78661
 C784 C 0.12114 0.37723 0.77340
 C785 C 0.14265 0.38375 0.78415
 H786 H 0.09658 0.34751 0.78368
 H787 H 0.15404 0.39882 0.77921
 Cu788 Cu 0.12956 0.32826 0.82951
 Cu789 Cu 0.17330 0.36972 0.82584
 Cu790 Cu 0.17327 0.32670 0.87168
 N791 N 0.12987 0.30370 0.85477
 N792 N 0.14633 0.30395 0.87191
 C793 C 0.14142 0.28635 0.88807
 C794 C 0.12098 0.27409 0.88043
 C795 C 0.11425 0.28560 0.85914
 H796 H 0.15225 0.28253 0.90390
 H797 H 0.09859 0.28166 0.84819
 N798 N 0.19885 0.35133 0.86801
 N799 N 0.19847 0.36794 0.85080
 C800 C 0.21797 0.38220 0.85310
 C801 C 0.23145 0.37408 0.87248
 C802 C 0.21887 0.35443 0.88152
 H803 H 0.22242 0.39711 0.84123
 H804 H 0.22391 0.34329 0.89682
 H805 H 0.17280 0.33331 0.83501
 H806 H 0.15483 0.35412 0.85455
 N807 N 0.14792 0.86802 0.30234
 N808 N 0.13148 0.85092 0.30276
 C809 C 0.11695 0.85350 0.28338
 C810 C 0.12493 0.87308 0.27001
 C811 C 0.14462 0.88187 0.28254
 H812 H 0.10217 0.84161 0.27883
 H813 H 0.15580 0.89710 0.27756
 Cu814 Cu 0.13171 0.82608 0.32767
 Cu815 Cu 0.17274 0.87066 0.32705
 Cu816 Cu 0.17278 0.82715 0.37243
 N817 N 0.13227 0.80144 0.35277
 N818 N 0.14758 0.80261 0.37090
 C819 C 0.14393 0.78363 0.38575
 C820 C 0.12564 0.76947 0.37616
 C821 C 0.11870 0.78140 0.35517
 H822 H 0.15461 0.77978 0.40168
 H823 H 0.10479 0.77598 0.34260
 N824 N 0.19677 0.85343 0.37060
 N825 N 0.19637 0.87026 0.35362
 C826 C 0.21538 0.88506 0.35671
 C827 C 0.22857 0.87698 0.37633
 C828 C 0.21628 0.85689 0.38473
 H829 H 0.22001 0.89996 0.34490
 H830 H 0.22148 0.84539 0.39969
 H831 H 0.17417 0.83418 0.33568
 H832 H 0.15364 0.85349 0.35424
 O833 O 0.97756 0.91418 0.87719
 O834 O 0.97765 0.88590 0.84905
 C835 C 0.96932 0.90554 0.85754
 C836 C 0.94905 0.91781 0.84510
 C837 C 0.93875 0.90770 0.82416
 H838 H 0.94696 0.89188 0.81610
 O839 O 1.02528 1.08864 0.88069
 O840 O 1.02550 1.11728 0.85285
 C841 C 1.03395 1.09768 0.86139
 C842 C 1.05449 1.08567 0.84909
 C843 C 1.06479 1.09610 0.82835
 H844 H 1.05731 1.11277 0.82127
 O845 O 0.88077 0.97728 0.91080
 O846 O 0.85294 0.97760 0.88226
 C847 C 0.86130 0.96907 0.90194
 C848 C 0.84877 0.94883 0.91421
 C849 C 0.82844 0.93811 0.90354
 H850 H 0.82169 0.94519 0.88655
 O851 O 1.12131 1.02391 0.91297
 O852 O 1.14998 1.02390 0.88527
 C853 C 1.14114 1.03211 0.90484
 C854 C 1.15362 1.05183 0.91796
 C855 C 1.17609 1.06050 0.90995
 H856 H 1.18442 1.05245 0.89417
 O857 O 0.91249 0.88178 0.97513
 O858 O 0.88443 0.85357 0.97463
 C859 C 0.90401 0.86229 0.96644
 C860 C 0.91645 0.85018 0.94593
 C861 C 0.90653 0.82925 0.93551
 H862 H 0.89084 0.82108 0.94379
 O863 O 1.08781 1.12065 0.97707
 O864 O 1.11595 1.14879 0.97736
 C865 C 1.09637 1.14034 0.96891
 C866 C 1.08349 1.15325 0.94921
 C867 C 1.09181 1.17569 0.94060
 H868 H 1.10802 1.18320 0.94839
 O869 O 0.91440 1.02439 0.87821
 O870 O 0.88673 1.02474 0.84952
 C871 C 0.90625 1.03282 0.85843
 C872 C 0.91933 1.05261 0.84600
 C873 C 0.91126 1.06144 0.82355
 H874 H 0.89539 1.05352 0.81539
 O875 O 1.08830 0.97728 0.87905
 O876 O 1.11685 0.97733 0.85124
 C877 C 1.09717 0.96898 0.85954
 C878 C 1.08503 0.94872 0.84694
 C879 C 1.09551 0.93830 0.82628
 H880 H 1.11211 0.94577 0.81915
 O881 O 1.02421 0.88089 0.91109
 O882 O 1.02414 0.85265 0.88292
 C883 C 1.03250 0.86124 0.90253
 C884 C 1.05270 0.84873 0.91489
 C885 C 1.06358 0.82848 0.90411
 H886 H 1.05661 0.82176 0.88708
 O887 O 0.97657 1.12058 0.91286
 O888 O 0.97645 1.14892 0.88472
 C889 C 0.96788 1.13999 0.90411
 C890 C 0.94696 1.15169 0.91603
 C891 C 0.93579 1.17193 0.90538
 H892 H 0.94370 1.17997 0.88937
 O893 O 0.87908 1.08645 0.97577
 O894 O 0.85104 1.11477 0.97591
 C895 C 0.85966 1.09531 0.96729
 C896 C 0.84773 1.08351 0.94638
 C897 C 0.82713 1.09389 0.93570
 H898 H 0.81886 1.10948 0.94414
 O899 O 1.11902 0.91214 0.97708
 O900 O 1.14729 0.88405 0.97703
 C901 C 1.13874 0.90380 0.96886
 C902 C 1.15154 0.91672 0.94911
 C903 C 1.17388 0.90818 0.94080
 H904 H 1.18226 0.89300 0.94992
 O905 O 0.97818 1.08782 0.87938
 O906 O 0.97844 1.11614 0.85120
 C907 C 0.97031 1.09629 0.85948
 C908 C 0.95091 1.08337 0.84634
 C909 C 0.94293 1.09160 0.82362
 H910 H 0.95218 1.10655 0.81502
 O911 O 1.02472 0.91409 0.87794
 O912 O 1.02481 0.88583 0.84978
 C913 C 1.03322 0.90538 0.85842
 C914 C 1.05377 0.91758 0.84632
 C915 C 1.06443 0.90753 0.82550
 H916 H 1.05646 0.89166 0.81733
 O917 O 1.12049 0.97664 0.91295
 O918 O 1.14916 0.97657 0.88525
 C919 C 1.14014 0.96814 0.90470
 C920 C 1.15222 0.94787 0.91758
 C921 C 1.17440 0.93868 0.90925
 H922 H 1.18271 0.94664 0.89340
 O923 O 0.88068 1.02454 0.91065
 O924 O 0.85295 1.02492 0.88202
 C925 C 0.86131 1.03310 0.90180
 C926 C 0.84882 1.05331 0.91417
 C927 C 0.82852 1.06418 0.90353
 H928 H 0.82182 1.05725 0.88649
 O929 O 0.91237 1.11910 0.97613
 O930 O 0.88426 1.14735 0.97639
 C931 C 0.90368 1.13868 0.96778
 C932 C 0.91560 1.15094 0.94712
 C933 C 0.90450 1.17088 0.93596
 H934 H 0.88758 1.17756 0.94311
 O935 O 1.08635 0.87873 0.97650
 O936 O 1.11456 0.85059 0.97617
 C937 C 1.09509 0.85936 0.96777
 C938 C 1.08313 0.84761 0.94687
 C939 C 1.09350 0.82709 0.93602
 H940 H 1.10917 0.81882 0.94427
 O941 O 1.08855 1.02463 0.87961
 O942 O 1.11709 1.02487 0.85179
 C943 C 1.09748 1.03331 0.86027
 C944 C 1.08541 1.05410 0.84824
 C945 C 1.09525 1.06466 0.82723
 H946 H 1.11087 1.05643 0.81886
 O947 O 0.91369 0.97718 0.87755
 O948 O 0.88585 0.97755 0.84902
 C949 C 0.90524 0.96899 0.85779
 C950 C 0.91757 0.94872 0.84538
 C951 C 0.90739 0.93821 0.82461
 H952 H 0.89080 0.94556 0.81731
 O953 O 1.02371 1.12150 0.91407
 O954 O 1.02358 1.15020 0.88628
 C955 C 1.03167 1.14148 0.90599
 C956 C 1.05128 1.15413 0.91909
 C957 C 1.05916 1.17702 0.91147
 H958 H 1.04931 1.18618 0.89726
 O959 O 0.97690 0.88184 0.91110
 O960 O 0.97685 0.85359 0.88295
 C961 C 0.96832 0.86241 0.90243
 C962 C 0.94765 0.85040 0.91458
 C963 C 0.93707 0.82982 0.90416
 H964 H 0.94449 0.82262 0.88752
 O965 O 1.12055 1.08718 0.97724
 O966 O 1.14885 1.11518 0.97754
 C967 C 1.14032 1.09556 0.96921
 C968 C 1.15318 1.08271 0.94954
 C969 C 1.17580 1.09083 0.94160
 H970 H 1.18437 1.10576 0.95089
 O971 O 0.87913 0.91464 0.97546
 O972 O 0.85107 0.88642 0.97511
 C973 C 0.85969 0.90605 0.96687
 C974 C 0.84773 0.91829 0.94621
 C975 C 0.82709 0.90814 0.93554
 H976 H 0.81879 0.89252 0.94390
 Cu977 Cu 1.00087 0.90059 0.89714
 Cu978 Cu 1.00087 0.86662 0.86340
 Cu979 Cu 1.00092 1.10180 0.89957
 Cu980 Cu 1.00102 1.13600 0.86597
 Cu981 Cu 0.90017 1.00082 0.89717
 Cu982 Cu 0.86680 1.00127 0.86286
 Cu983 Cu 1.10180 1.00064 0.89889
 Cu984 Cu 1.13610 1.00066 0.86556
 C985 C 0.93850 0.93849 0.85537
 H986 H 0.94611 0.94614 0.87172
 C987 C 0.91767 0.91753 0.81394
 C988 C 1.06485 1.06462 0.85883
 H989 H 1.05730 1.05681 0.87516
 C990 C 1.08523 1.08589 0.81724
 C991 C 0.85822 0.93884 0.93560
 H992 H 0.87431 0.94657 0.94355
 C993 C 0.81752 0.91761 0.91391
 C994 C 1.14240 1.06298 0.93785
 H995 H 1.12485 1.05674 0.94380
 C996 C 1.18744 1.07998 0.92173
 C997 C 0.93721 0.86046 0.93550
 H998 H 0.94482 0.87673 0.94324
 C999 C 0.91638 0.81913 0.91432
 C1000 C 1.06326 1.14264 0.93829
 H1001 H 1.05723 1.12498 0.94427
 C1002 C 1.07963 1.18801 0.92183
 C1003 C 0.93924 1.06361 0.85717
 H1004 H 0.94518 1.05727 0.87477
 C1005 C 0.92301 1.08085 0.81204
 C1006 C 1.06406 0.93834 0.85670
 H1007 H 1.05620 0.94597 0.87296
 C1008 C 1.08552 0.91758 0.81549
 C1009 C 1.06255 0.85811 0.93633
 H1010 H 1.05467 0.87413 0.94438
 C1011 C 1.08413 0.81760 0.91436
 C1012 C 0.93687 1.14151 0.93706
 H1013 H 0.94518 1.12572 0.94518
 C1014 C 0.91427 1.18146 0.91496
 C1015 C 0.85821 1.06303 0.93565
 H1016 H 0.87425 1.05511 0.94358
 C1017 C 0.81755 1.08461 0.91399
 C1018 C 1.14099 0.93679 0.93759
 H1019 H 1.12365 0.94337 0.94379
 C1020 C 1.18545 0.91882 0.92079
 O1021 O 1.02324 0.91148 1.11963
 O1022 O 1.02301 0.88308 1.14772
 C1023 C 1.03158 0.90261 1.13914
 C1024 C 1.05188 0.91476 1.15157
 C1025 C 1.06236 0.90430 1.17221
 H1026 H 1.05518 0.88745 1.17914
 O1027 O 0.97662 1.08636 1.12116
 O1028 O 0.97662 1.11450 1.14944
 C1029 C 0.96842 1.09484 1.14090
 C1030 C 0.94856 1.08223 1.15362
 C1031 C 0.94018 1.09079 1.17601
 H1032 H 0.94946 1.10569 1.18461
 O1033 O 0.87940 1.02339 1.08824
 O1034 O 0.85120 1.02334 1.11643
 C1035 C 0.85974 1.03161 1.09672
 C1036 C 0.84711 1.05136 1.08372
 C1037 C 0.82507 1.06058 1.09232
 H1038 H 0.81728 1.05301 1.10862
 O1039 O 1.11917 0.97488 1.08783
 O1040 O 1.14722 0.97464 1.11615
 C1041 C 1.13853 0.96624 1.09661
 C1042 C 1.15066 0.94569 1.08449
 C1043 C 1.17135 0.93525 1.09476
 H1044 H 1.17854 0.94271 1.11137
 O1045 O 1.08622 0.87797 1.02398
 O1046 O 1.11425 0.84966 1.02372
 C1047 C 1.09470 0.85822 1.03216
 C1048 C 1.08194 0.84552 1.05211
 C1049 C 1.09070 0.82350 1.06145
 H1050 H 1.10694 0.81584 1.05379
 O1051 O 0.91231 1.11862 1.02370
 O1052 O 0.88417 1.14682 1.02391
 C1053 C 0.90366 1.13808 1.03232
 C1054 C 0.91587 1.15028 1.05287
 C1055 C 0.90556 1.17097 1.06335
 H1056 H 0.88892 1.17809 1.05595
 O1057 O 0.91271 0.97633 1.12122
 O1058 O 0.88480 0.97624 1.14970
 C1059 C 0.90434 0.96797 1.14094
 C1060 C 0.91727 0.94810 1.15347
 C1061 C 0.90921 0.93948 1.17602
 H1062 H 0.89332 0.94750 1.18404
 O1063 O 1.08680 1.02286 1.12064
 O1064 O 1.11501 1.02261 1.14879
 C1065 C 1.09554 1.03117 1.14020
 C1066 C 1.08343 1.05152 1.15266
 C1067 C 1.09355 1.06150 1.17369
 H1068 H 1.10992 1.05374 1.18105
 O1069 O 0.97524 0.87958 1.08688
 O1070 O 0.97461 0.85128 1.11507
 C1071 C 0.96650 0.86014 1.09542
 C1072 C 0.94642 0.84804 1.08258
 C1073 C 0.93692 0.82610 1.09121
 H1074 H 0.94451 0.81800 1.10737
 O1075 O 1.02370 1.11964 1.08798
 O1076 O 1.02337 1.14788 1.11615
 C1077 C 1.03194 1.13924 1.09665
 C1078 C 1.05235 1.15159 1.08455
 C1079 C 1.06282 1.17213 1.09512
 H1080 H 1.05532 1.17926 1.11175
 O1081 O 0.87901 0.91392 1.02301
 O1082 O 0.85104 0.88560 1.02268
 C1083 C 0.85960 0.90503 1.03144
 C1084 C 0.84756 0.91682 1.05236
 C1085 C 0.82695 0.90642 1.06301
 H1086 H 0.81889 0.89062 1.05478
 O1087 O 1.12024 1.08709 1.02442
 O1088 O 1.14868 1.11495 1.02474
 C1089 C 1.13993 1.09529 1.03282
 C1090 C 1.15247 1.08193 1.05242
 C1091 C 1.17520 1.08947 1.06077
 H1092 H 1.18347 1.10529 1.05278
 O1093 O 1.02369 1.08667 1.12126
 O1094 O 1.02367 1.11490 1.14944
 C1095 C 1.03205 1.09530 1.14086
 C1096 C 1.05236 1.08287 1.15316
 C1097 C 1.06263 1.09249 1.17436
 H1098 H 1.05455 1.10827 1.18264
 O1099 O 0.97625 0.91234 1.12044
 O1100 O 0.97600 0.88416 1.14875
 C1101 C 0.96814 0.90405 1.14032
 C1102 C 0.94881 0.91726 1.15333
 C1103 C 0.94108 0.90949 1.17627
 H1104 H 0.95063 0.89485 1.18508
 O1105 O 1.11970 1.02215 1.08724
 O1106 O 1.14795 1.02177 1.11536
 C1107 C 1.13949 1.03009 1.09563
 C1108 C 1.15238 1.04972 1.08276
 C1109 C 1.17532 1.05714 1.09046
 H1110 H 1.18414 1.04734 1.10497
 O1111 O 0.87982 0.97622 1.08808
 O1112 O 0.85179 0.97598 1.11643
 C1113 C 0.86038 0.96769 1.09676
 C1114 C 0.84813 0.94737 1.08434
 C1115 C 0.82770 0.93661 1.09477
 H1116 H 0.82064 0.94375 1.11160
 O1117 O 1.08741 1.12037 1.02439
 O1118 O 1.11572 1.14834 1.02483
 C1119 C 1.09606 1.13981 1.03300
 C1120 C 1.08366 1.15199 1.05341
 C1121 C 1.09368 1.17275 1.06407
 H1122 H 1.10958 1.18084 1.05610
 O1123 O 0.91218 0.88099 1.02249
 O1124 O 0.88422 0.85266 1.02192
 C1125 C 0.90369 0.86120 1.03048
 C1126 C 0.91604 0.84844 1.05055
 C1127 C 0.90708 0.82632 1.05917
 H1128 H 0.89198 0.81793 1.05003
 O1129 O 1.08610 0.97557 1.12078
 O1130 O 1.11419 0.97534 1.14907
 C1131 C 1.09462 0.96710 1.14041
 C1132 C 1.08234 0.94662 1.15253
 C1133 C 1.09223 0.93618 1.17353
 H1134 H 1.10768 0.94462 1.18195
 O1135 O 0.91236 1.02356 1.12144
 O1136 O 0.88433 1.02357 1.14978
 C1137 C 0.90388 1.03188 1.14113
 C1138 C 0.91669 1.05179 1.15368
 C1139 C 0.90817 1.06100 1.17586
 H1140 H 0.89209 1.05331 1.18385
 O1141 O 0.97643 1.11931 1.08771
 O1142 O 0.97608 1.14748 1.11594
 C1143 C 0.96784 1.13880 1.09630
 C1144 C 0.94734 1.15086 1.08391
 C1145 C 0.93698 1.17188 1.09378
 H1146 H 0.94529 1.18018 1.10942
 O1147 O 1.02236 0.87804 1.08690
 O1148 O 1.02175 0.84959 1.11493
 C1149 C 1.03021 0.85812 1.09531
 C1150 C 1.05005 0.84530 1.08266
 C1151 C 1.05860 0.82296 1.09127
 H1152 H 1.04932 0.81431 1.10619
 O1153 O 1.11922 0.91109 1.02434
 O1154 O 1.14731 0.88282 1.02428
 C1155 C 1.13873 0.90238 1.03272
 C1156 C 1.15097 0.91462 1.05313
 C1157 C 1.17202 0.90474 1.06336
 H1158 H 1.18021 0.88909 1.05498
 O1159 O 0.87911 1.08565 1.02315
 O1160 O 0.85095 1.11385 1.02318
 C1161 C 0.85946 1.09415 1.03139
 C1162 C 0.84686 1.08155 1.05140
 C1163 C 0.82459 1.09012 1.05986
 H1164 H 0.81591 1.10495 1.05045
 Cu1165 Cu 0.99929 0.89816 1.10061
 Cu1166 Cu 0.99875 0.86418 1.13445
 Cu1167 Cu 1.00012 1.10019 1.10168
 Cu1168 Cu 0.99987 1.13407 1.13552
 Cu1169 Cu 0.89846 0.90071 0.99907
 Cu1170 Cu 0.86486 0.86677 0.99852
 Cu1171 Cu 1.09984 0.89775 1.00054
 Cu1172 Cu 1.13365 0.86393 1.00025
 Cu1173 Cu 0.89854 1.09962 0.99970
 Cu1174 Cu 0.86485 1.13358 0.99995
 Cu1175 Cu 1.10114 1.10106 1.00073
 Cu1176 Cu 1.13511 1.13467 1.00111
 Cu1177 Cu 0.89888 0.99994 1.10193
 Cu1178 Cu 0.86519 0.99978 1.13592
 Cu1179 Cu 1.10010 0.99894 1.10129
 Cu1180 Cu 1.13390 0.99863 1.13520
 C1181 C 1.06194 0.93597 1.14190
 H1182 H 1.05437 0.94377 1.12557
 C1183 C 1.08265 0.91473 1.18331
 C1184 C 0.93694 1.06250 1.14279
 H1185 H 0.94326 1.05593 1.12543
 C1186 C 0.91986 1.08052 1.18727
 C1187 C 0.85779 1.06193 1.06320
 H1188 H 0.87507 1.05535 1.05683
 C1189 C 0.81354 1.07996 1.08044
 C1190 C 1.14063 0.93529 1.06364
 H1191 H 1.12429 0.94287 1.05601
 C1192 C 1.18220 0.91469 1.08446
 C1193 C 1.06159 0.85618 1.06283
 H1194 H 1.05514 0.87346 1.05619
 C1195 C 1.07908 0.81186 1.08100
 C1196 C 0.93682 1.14038 1.06325
 H1197 H 0.94451 1.12404 1.05568
 C1198 C 0.91582 1.18191 1.08390
 C1199 C 0.93709 0.93688 1.14230
 H1200 H 0.94295 0.94295 1.12458
 C1201 C 0.92109 0.92024 1.18779
 C1202 C 1.06275 1.06221 1.14264
 H1203 H 1.05518 1.05488 1.12612
 C1204 C 1.08344 1.08208 1.18466
 C1205 C 0.93591 0.85899 1.06216
 H1206 H 0.94279 0.87616 1.05570
 C1207 C 0.91729 0.81499 1.07955
 C1208 C 1.06282 1.14174 1.06361
 H1209 H 1.05519 1.12553 1.05571
 C1210 C 1.08361 1.18278 1.08519
 C1211 C 0.85783 0.93745 1.06305
 H1212 H 0.87391 0.94535 1.05520
 C1213 C 0.81701 0.91603 1.08441
 C1214 C 1.14127 1.06199 1.06349
 H1215 H 1.12351 1.05643 1.05754
 C1216 C 1.18693 1.07708 1.07972
 O1217 O 0.97540 0.41361 0.37803
 O1218 O 0.97559 0.38535 0.34988
 C1219 C 0.96701 0.40482 0.35852
 C1220 C 0.94652 0.41691 0.34624
 C1221 C 0.93565 0.40631 0.32588
 H1222 H 0.94270 0.38937 0.31908
 O1223 O 1.02419 0.58810 0.37939
 O1224 O 1.02416 0.61652 0.35132
 C1225 C 1.03252 0.59686 0.35981
 C1226 C 1.05261 0.58444 0.34719
 C1227 C 1.06108 0.59308 0.32483
 H1228 H 1.05189 0.60809 0.31624
 O1229 O 0.88004 0.47700 0.41131
 O1230 O 0.85184 0.47734 0.38315
 C1231 C 0.86052 0.46870 0.40265
 C1232 C 0.84827 0.44828 0.41497
 C1233 C 0.82768 0.43768 0.40467
 H1234 H 0.82065 0.44487 0.38785
 O1235 O 1.12075 0.52350 0.41238
 O1236 O 1.14905 0.52338 0.38430
 C1237 C 1.14053 0.53157 0.40404
 C1238 C 1.15326 0.55112 0.41717
 C1239 C 1.17547 0.56012 0.40878
 H1240 H 1.18349 0.55240 0.39267
 O1241 O 0.91265 0.38054 0.47543
 O1242 O 0.88445 0.35246 0.47540
 C1243 C 0.90399 0.36105 0.46695
 C1244 C 0.91624 0.34873 0.44647
 C1245 C 0.90608 0.32793 0.43610
 H1246 H 0.88964 0.32056 0.44369
 O1247 O 1.08789 0.61909 0.47646
 O1248 O 1.11611 0.64717 0.47640
 C1249 C 1.09660 0.63859 0.46796
 C1250 C 1.08431 0.65109 0.44763
 C1251 C 1.09457 0.67186 0.43725
 H1252 H 1.11142 0.67864 0.44442
 O1253 O 0.91302 0.52440 0.37850
 O1254 O 0.88496 0.52491 0.35020
 C1255 C 0.90464 0.53290 0.35885
 C1256 C 0.91775 0.55258 0.34629
 C1257 C 0.90999 0.56105 0.32357
 H1258 H 0.89431 0.55297 0.31520
 O1259 O 1.08647 0.47769 0.37876
 O1260 O 1.11456 0.47755 0.35046
 C1261 C 1.09473 0.46964 0.35888
 C1262 C 1.08153 0.45038 0.34580
 C1263 C 1.08926 0.44290 0.32282
 H1264 H 1.10399 0.45242 0.31417
 O1265 O 1.02318 0.38138 0.41126
 O1266 O 1.02350 0.35329 0.38294
 C1267 C 1.03182 0.36198 0.40253
 C1268 C 1.05229 0.34981 0.41474
 C1269 C 1.06302 0.32942 0.40413
 H1270 H 1.05584 0.32245 0.38729
 O1271 O 0.97640 0.62058 0.41230
 O1272 O 0.97637 0.64907 0.38430
 C1273 C 0.96792 0.64019 0.40377
 C1274 C 0.94763 0.65236 0.41633
 C1275 C 0.93782 0.67399 0.40717
 H1276 H 0.94536 0.68183 0.39088
 O1277 O 0.87984 0.58692 0.47646
 O1278 O 0.85170 0.61514 0.47659
 C1279 C 0.86021 0.59549 0.46824
 C1280 C 0.84756 0.58286 0.44829
 C1281 C 0.82495 0.59100 0.44025
 H1282 H 0.81621 0.60575 0.44969
 O1283 O 1.11964 0.41319 0.47686
 O1284 O 1.14765 0.38485 0.47673
 C1285 C 1.13922 0.40463 0.46853
 C1286 C 1.15180 0.41724 0.44843
 C1287 C 1.17411 0.40869 0.43997
 H1288 H 1.18282 0.39393 0.44945
 O1289 O 0.97713 0.58746 0.37921
 O1290 O 0.97716 0.61584 0.35109
 C1291 C 0.96903 0.59603 0.35946
 C1292 C 0.94945 0.58322 0.34652
 C1293 C 0.94171 0.59117 0.32365
 H1294 H 0.95111 0.60597 0.31493
 O1295 O 1.02258 0.41410 0.37766
 O1296 O 1.02280 0.38610 0.34925
 C1297 C 1.03090 0.40578 0.35788
 C1298 C 1.05060 0.41891 0.34527
 C1299 C 1.05903 0.41127 0.32245
 H1300 H 1.05085 0.39568 0.31396
 O1301 O 1.11979 0.47627 0.41171
 O1302 O 1.14804 0.47599 0.38360
 C1303 C 1.13927 0.46764 0.40318
 C1304 C 1.15157 0.44750 0.41606
 C1305 C 1.17358 0.43817 0.40745
 H1306 H 1.18134 0.44574 0.39115
 O1307 O 0.87977 0.52426 0.41147
 O1308 O 0.85152 0.52473 0.38336
 C1309 C 0.86015 0.53273 0.40310
 C1310 C 0.84760 0.55242 0.41625
 C1311 C 0.82516 0.56112 0.40817
 H1312 H 0.81703 0.55322 0.39222
 O1313 O 0.91304 0.61984 0.47648
 O1314 O 0.88497 0.64813 0.47660
 C1315 C 0.90451 0.63952 0.46821
 C1316 C 0.91693 0.65210 0.44807
 C1317 C 0.90775 0.67397 0.43901
 H1318 H 0.89248 0.68231 0.44794
 O1319 O 1.08657 0.38023 0.47601
 O1320 O 1.11455 0.35186 0.47555
 C1321 C 1.09513 0.36080 0.46723
 C1322 C 1.08301 0.34905 0.44645
 C1323 C 1.09316 0.32833 0.43580
 H1324 H 1.10881 0.32004 0.44406
 O1325 O 1.08809 0.52486 0.37896
 O1326 O 1.11623 0.52479 0.35073
 C1327 C 1.09679 0.53336 0.35942
 C1328 C 1.08429 0.55366 0.34704
 C1329 C 1.09281 0.56288 0.32485
 H1330 H 1.10875 0.55498 0.31675
 O1331 O 0.91247 0.47727 0.37769
 O1332 O 0.88431 0.47769 0.34948
 C1333 C 0.90381 0.46912 0.35801
 C1334 C 0.91593 0.44867 0.34565
 C1335 C 0.90576 0.43825 0.32481
 H1336 H 0.89022 0.44679 0.31662
 O1337 O 1.02363 0.62060 0.41310
 O1338 O 1.02370 0.64908 0.38510
 C1339 C 1.03199 0.64027 0.40470
 C1340 C 1.05239 0.65232 0.41716
 C1341 C 1.06248 0.67360 0.40758
 H1342 H 1.05373 0.68224 0.39235
 O1343 O 0.97596 0.38052 0.41120
 O1344 O 0.97621 0.35225 0.38306
 C1345 C 0.96775 0.36084 0.40266
 C1346 C 0.94744 0.34850 0.41510
 C1347 C 0.93707 0.32754 0.40514
 H1348 H 0.94510 0.31947 0.38920
 O1349 O 1.12084 0.58588 0.47711
 O1350 O 1.14909 0.61394 0.47724
 C1351 C 1.14056 0.59428 0.46900
 C1352 C 1.15327 0.58154 0.44920
 C1353 C 1.17563 0.58994 0.44091
 H1354 H 1.18424 0.60483 0.45022
 O1355 O 0.87957 0.41370 0.47568
 O1356 O 0.85137 0.38561 0.47562
 C1357 C 0.86000 0.40521 0.46729
 C1358 C 0.84777 0.41757 0.44684
 C1359 C 0.82677 0.40767 0.43665
 H1360 H 0.81850 0.39219 0.44528
 Cu1361 Cu 0.99926 0.40022 0.39735
 Cu1362 Cu 0.99960 0.36639 0.36349
 Cu1363 Cu 1.00032 0.60137 0.39884
 Cu1364 Cu 1.00033 0.63553 0.36518
 Cu1365 Cu 0.89914 0.50074 0.39757
 Cu1366 Cu 0.86530 0.50128 0.36374
 Cu1367 Cu 1.10098 0.50061 0.39827
 Cu1368 Cu 1.13481 0.50034 0.36445
 C1369 C 0.93655 0.43810 0.35595
 H1370 H 0.94438 0.44594 0.37210
 C1371 C 0.91515 0.41670 0.31497
 C1372 C 1.06414 0.56456 0.35798
 H1373 H 1.05775 0.55791 0.37529
 C1374 C 1.08124 0.58256 0.31345
 C1375 C 0.85816 0.43810 0.43608
 H1376 H 0.87447 0.44570 0.44371
 C1377 C 0.81679 0.41723 0.41523
 C1378 C 1.14241 0.56188 0.43748
 H1379 H 1.12503 0.55545 0.44372
 C1380 C 1.18688 0.57956 0.42060
 C1381 C 0.93702 0.35878 0.43593
 H1382 H 0.94463 0.37515 0.44348
 C1383 C 0.91617 0.31726 0.41530
 C1384 C 1.06321 0.64144 0.43746
 H1385 H 1.05564 0.62497 0.44487
 C1386 C 1.08393 0.68334 0.41714
 C1387 C 0.93758 0.56368 0.35752
 H1388 H 0.94335 0.55756 0.37525
 C1389 C 0.92195 0.58028 0.31198
 C1390 C 1.06195 0.43855 0.35670
 H1391 H 1.05600 0.44418 0.37453
 C1392 C 1.07835 0.42325 0.31096
 C1393 C 1.06238 0.35950 0.43596
 H1394 H 1.05461 0.37563 0.44389
 C1395 C 1.08358 0.31860 0.41436
 C1396 C 0.93709 0.64162 0.43684
 H1397 H 0.94417 0.62467 0.44367
 C1398 C 0.91787 0.68504 0.41845
 C1399 C 0.85858 0.56335 0.43639
 H1400 H 0.87611 0.55709 0.44239
 C1401 C 0.81356 0.58036 0.42013
 C1402 C 1.14087 0.43690 0.43658
 H1403 H 1.12361 0.44353 0.44296
 C1404 C 1.18517 0.41882 0.41936
 O1405 O 1.02330 0.41222 0.62034
 O1406 O 1.02335 0.38393 0.64856
 C1407 C 1.03162 0.40358 0.63997
 C1408 C 1.05137 0.41638 0.65266
 C1409 C 1.05990 0.40805 0.67517
 H1410 H 1.05191 0.39208 0.68316
 O1411 O 0.97697 0.58616 0.62050
 O1412 O 0.97709 0.61435 0.64874
 C1413 C 0.96886 0.59468 0.64026
 C1414 C 0.94916 0.58200 0.65313
 C1415 C 0.94114 0.59031 0.67572
 H1416 H 0.95050 0.60516 0.68432
 O1417 O 0.87976 0.52387 0.58839
 O1418 O 0.85154 0.52391 0.61656
 C1419 C 0.86020 0.53227 0.59695
 C1420 C 0.84780 0.55231 0.58417
 C1421 C 0.82585 0.56165 0.59288
 H1422 H 0.81793 0.55395 0.60907
 O1423 O 1.12019 0.47509 0.58795
 O1424 O 1.14801 0.47470 0.61650
 C1425 C 1.13935 0.46626 0.59695
 C1426 C 1.15113 0.44535 0.58509
 C1427 C 1.17095 0.43397 0.59606
 H1428 H 1.17783 0.44106 0.61297
 O1429 O 1.08599 0.37929 0.52332
 O1430 O 1.11363 0.35059 0.52280
 C1431 C 1.09407 0.35923 0.53115
 C1432 C 1.08103 0.34631 0.55074
 C1433 C 1.08873 0.32339 0.55856
 H1434 H 1.10327 0.31454 0.54897
 O1435 O 0.91280 0.61990 0.52383
 O1436 O 0.88481 0.64827 0.52396
 C1437 C 0.90435 0.63954 0.53225
 C1438 C 0.91713 0.65193 0.55228
 C1439 C 0.90867 0.67410 0.56144
 H1440 H 0.89275 0.68227 0.55357
 O1441 O 0.91245 0.47613 0.62116
 O1442 O 0.88436 0.47605 0.64946
 C1443 C 0.90391 0.46772 0.64081
 C1444 C 0.91671 0.44778 0.65339
 C1445 C 0.90837 0.43893 0.67578
 H1446 H 0.89237 0.44683 0.68372
 O1447 O 1.08804 0.52316 0.62058
 O1448 O 1.11583 0.52291 0.64916
 C1449 C 1.09641 0.53137 0.64035
 C1450 C 1.08357 0.55119 0.65291
 C1451 C 1.09146 0.55959 0.67560
 H1452 H 1.10721 0.55148 0.68386
 O1453 O 0.97552 0.38000 0.58744
 O1454 O 0.97527 0.35179 0.61572
 C1455 C 0.96686 0.36060 0.59618
 C1456 C 0.94628 0.34864 0.58394
 C1457 C 0.93521 0.32838 0.59450
 H1458 H 0.94216 0.32138 0.61144
 O1459 O 1.02384 0.61933 0.58710
 O1460 O 1.02387 0.64757 0.61529
 C1461 C 1.03203 0.63903 0.59557
 C1462 C 1.05172 0.65176 0.58273
 C1463 C 1.05985 0.67434 0.59089
 H1464 H 1.05061 0.68303 0.60581
 O1465 O 0.87963 0.41335 0.52310
 O1466 O 0.85130 0.38538 0.52300
 C1467 C 0.86000 0.40488 0.53145
 C1468 C 0.84757 0.41756 0.55158
 C1469 C 0.82537 0.40909 0.56055
 H1470 H 0.81733 0.39320 0.55252
 O1471 O 1.12067 0.58631 0.52433
 O1472 O 1.14869 0.61459 0.52441
 C1473 C 1.14015 0.59497 0.53276
 C1474 C 1.15259 0.58253 0.55299
 C1475 C 1.17354 0.59247 0.56316
 H1476 H 1.18089 0.60900 0.55566
 O1477 O 1.02398 0.58617 0.62034
 O1478 O 1.02400 0.61434 0.64860
 C1479 C 1.03218 0.59465 0.64006
 C1480 C 1.05187 0.58183 0.65285
 C1481 C 1.05960 0.58961 0.67574
 H1482 H 1.05007 0.60425 0.68457
 O1483 O 0.97629 0.41270 0.62090
 O1484 O 0.97635 0.38455 0.64926
 C1485 C 0.96819 0.40429 0.64074
 C1486 C 0.94848 0.41715 0.65353
 C1487 C 0.94034 0.40902 0.67621
 H1488 H 0.94972 0.39425 0.68499
 O1489 O 1.12113 0.52243 0.58752
 O1490 O 1.14901 0.52220 0.61600
 C1491 C 1.14066 0.53061 0.59627
 C1492 C 1.15308 0.55089 0.58391
 C1493 C 1.17421 0.56095 0.59371
 H1494 H 1.18243 0.55260 0.60941
 O1495 O 0.88008 0.47676 0.58737
 O1496 O 0.85181 0.47668 0.61550
 C1497 C 0.86038 0.46858 0.59572
 C1498 C 0.84771 0.44893 0.58272
 C1499 C 0.82530 0.44063 0.59099
 H1500 H 0.81669 0.44978 0.60601
 O1501 O 1.08772 0.61949 0.52384
 O1502 O 1.11569 0.64781 0.52377
 C1503 C 1.09612 0.63920 0.53206
 C1504 C 1.08325 0.65182 0.55186
 C1505 C 1.09149 0.67420 0.56061
 H1506 H 1.10736 0.68230 0.55258
 O1507 O 0.91257 0.38016 0.52292
 O1508 O 0.88428 0.35216 0.52288
 C1509 C 0.90382 0.36065 0.53134
 C1510 C 0.91579 0.34839 0.55199
 C1511 C 0.90536 0.32772 0.56250
 H1512 H 0.88973 0.31968 0.55403
 O1513 O 1.08681 0.47611 0.62054
 O1514 O 1.11455 0.47587 0.64919
 C1515 C 1.09492 0.46787 0.64042
 C1516 C 1.08188 0.44818 0.65304
 C1517 C 1.08972 0.44003 0.67577
 H1518 H 1.10435 0.44939 0.68470
 O1519 O 0.91296 0.52333 0.62122
 O1520 O 0.88490 0.52341 0.64955
 C1521 C 0.90452 0.53162 0.64093
 C1522 C 0.91745 0.55140 0.65347
 C1523 C 0.90930 0.56032 0.67588
 H1524 H 0.89342 0.55245 0.68410
 O1525 O 0.97678 0.61922 0.58720
 O1526 O 0.97689 0.64745 0.61539
 C1527 C 0.96858 0.63890 0.59575
 C1528 C 0.94871 0.65160 0.58312
 C1529 C 0.94028 0.67391 0.59174
 H1530 H 0.94937 0.68240 0.60687
 O1531 O 1.02272 0.37900 0.58732
 O1532 O 1.02259 0.35057 0.61537
 C1533 C 1.03084 0.35918 0.59569
 C1534 C 1.05044 0.34640 0.58261
 C1535 C 1.05889 0.32378 0.59067
 H1536 H 1.05087 0.31576 0.60662
 O1537 O 1.11975 0.41172 0.52432
 O1538 O 1.14742 0.38306 0.52418
 C1539 C 1.13903 0.40260 0.53283
 C1540 C 1.15117 0.41431 0.55366
 C1541 C 1.17136 0.40345 0.56464
 H1542 H 1.17911 0.38739 0.55660
 O1543 O 0.87992 0.58673 0.52377
 O1544 O 0.85186 0.61504 0.52382
 C1545 C 0.86036 0.59535 0.53210
 C1546 C 0.84781 0.58285 0.55219
 C1547 C 0.82566 0.59159 0.56080
 H1548 H 0.81712 0.60663 0.55160
 Cu1549 Cu 0.99951 0.39877 0.60115
 Cu1550 Cu 0.99941 0.36482 0.63501
 Cu1551 Cu 1.00040 0.59988 0.60094
 Cu1552 Cu 1.00047 0.63378 0.63483
 Cu1553 Cu 0.89893 0.39974 0.49930
 Cu1554 Cu 0.86506 0.36607 0.49920
 Cu1555 Cu 1.10023 0.39899 0.50022
 Cu1556 Cu 1.13363 0.36476 0.49979
 Cu1557 Cu 0.89923 0.60052 0.50013
 Cu1558 Cu 0.86552 0.63449 0.50023
 Cu1559 Cu 1.10143 0.59989 0.50046
 Cu1560 Cu 1.13520 0.63373 0.50043
 Cu1561 Cu 0.89915 0.50003 0.60174
 Cu1562 Cu 0.86532 0.49996 0.63561
 Cu1563 Cu 1.10130 0.49929 0.60124
 Cu1564 Cu 1.13473 0.49888 0.63551
 C1565 C 1.06244 0.43649 0.64179
 H1566 H 1.05638 0.44263 0.62417
 C1567 C 1.07904 0.41984 0.68699
 C1568 C 0.93745 0.56232 0.64232
 H1569 H 0.94350 0.55594 0.62479
 C1570 C 0.92112 0.57976 0.68727
 C1571 C 0.85856 0.56299 0.56376
 H1572 H 0.87573 0.55626 0.55726
 C1573 C 0.81452 0.58128 0.58124
 C1574 C 1.14142 0.43543 0.56384
 H1575 H 1.12573 0.44377 0.55562
 C1576 C 1.18124 0.41295 0.58610
 C1577 C 1.06161 0.35744 0.56262
 H1578 H 1.05563 0.37516 0.55672
 C1579 C 1.07798 0.31192 0.57868
 C1580 C 0.93724 0.64092 0.56318
 H1581 H 0.94357 0.62360 0.55656
 C1582 C 0.92021 0.68533 0.58117
 C1583 C 0.93681 0.43680 0.64248
 H1584 H 0.94296 0.44312 0.62496
 C1585 C 0.92016 0.41962 0.68752
 C1586 C 1.06374 0.56240 0.64175
 H1587 H 1.05790 0.55637 0.62403
 C1588 C 1.07946 0.57874 0.68731
 C1589 C 0.93645 0.35850 0.56265
 H1590 H 0.94444 0.37457 0.55480
 C1591 C 0.91462 0.31779 0.58405
 C1592 C 1.06329 0.64082 0.56299
 H1593 H 1.05720 0.62331 0.55673
 C1594 C 1.07982 0.68574 0.58009
 C1595 C 0.85854 0.43753 0.56277
 H1596 H 0.87592 0.44380 0.55637
 C1597 C 0.81397 0.42058 0.58024
 C1598 C 1.14263 0.56163 0.56336
 H1599 H 1.12616 0.55419 0.55590
 C1600 C 1.18446 0.58196 0.58362
 O1601 O 0.47536 0.91308 0.37852
 O1602 O 0.47533 0.88527 0.34991
 C1603 C 0.46711 0.90482 0.35872
 C1604 C 0.44757 0.91799 0.34607
 C1605 C 0.43896 0.90996 0.32354
 H1606 H 0.44661 0.89374 0.31577
 O1607 O 0.52366 1.08971 0.38036
 O1608 O 0.52392 1.11822 0.35239
 C1609 C 0.53227 1.09857 0.36096
 C1610 C 0.55267 1.08635 0.34861
 C1611 C 0.56322 1.09685 0.32801
 H1612 H 0.55604 1.11371 0.32108
 O1613 O 0.38051 0.97716 0.41191
 O1614 O 0.35252 0.97743 0.38353
 C1615 C 0.36104 0.96884 0.40310
 C1616 C 0.34858 0.94853 0.41536
 C1617 C 0.32758 0.93849 0.40532
 H1618 H 0.32035 0.94599 0.38871
 O1619 O 0.61978 1.02355 0.41188
 O1620 O 0.64789 1.02345 0.38361
 C1621 C 0.63958 1.03150 0.40350
 C1622 C 0.65268 1.05077 0.41664
 C1623 C 0.67540 1.05854 0.40863
 H1624 H 0.68388 1.04931 0.39358
 O1625 O 0.41206 0.87938 0.47524
 O1626 O 0.38355 0.85162 0.47499
 C1627 C 0.40322 0.86000 0.46666
 C1628 C 0.41547 0.84772 0.44614
 C1629 C 0.40555 0.82679 0.43566
 H1630 H 0.38982 0.81864 0.44388
 O1631 O 0.58840 1.11995 0.47598
 O1632 O 0.61668 1.14796 0.47609
 C1633 C 0.59697 1.13965 0.46782
 C1634 C 0.58387 1.15282 0.44843
 C1635 C 0.59193 1.17551 0.44020
 H1636 H 0.60816 1.18306 0.44794
 O1637 O 0.41346 1.02523 0.37974
 O1638 O 0.38529 1.02562 0.35154
 C1639 C 0.40478 1.03392 0.36029
 C1640 C 0.41696 1.05444 0.34811
 C1641 C 0.40676 1.06481 0.32730
 H1642 H 0.39027 1.05726 0.32006
 O1643 O 0.58602 0.97739 0.37816
 O1644 O 0.61383 0.97747 0.34959
 C1645 C 0.59426 0.96925 0.35830
 C1646 C 0.58116 0.94968 0.34557
 C1647 C 0.58887 0.94154 0.32271
 H1648 H 0.60459 0.94975 0.31455
 O1649 O 0.52274 0.87988 0.41110
 O1650 O 0.52296 0.85209 0.38250
 C1651 C 0.53133 0.86055 0.40216
 C1652 C 0.55200 0.84850 0.41419
 C1653 C 0.56286 0.82800 0.40376
 H1654 H 0.55477 0.81993 0.38788
 O1655 O 0.47590 1.12278 0.41274
 O1656 O 0.47605 1.15130 0.38477
 C1657 C 0.46759 1.14250 0.40426
 C1658 C 0.44746 1.15481 0.41693
 C1659 C 0.43822 1.17701 0.40850
 H1660 H 0.44620 1.18548 0.39273
 O1661 O 0.37995 1.08799 0.47655
 O1662 O 0.35175 1.11613 0.47690
 C1663 C 0.36031 1.09658 0.46836
 C1664 C 0.34793 1.08419 0.44803
 C1665 C 0.32674 1.09391 0.43787
 H1666 H 0.31857 1.10971 0.44603
 O1667 O 0.61951 0.91351 0.47545
 O1668 O 0.64781 0.88544 0.47552
 C1669 C 0.63923 0.90511 0.46726
 C1670 C 0.65181 0.91781 0.44727
 C1671 C 0.67417 0.90942 0.43882
 H1672 H 0.68290 0.89456 0.44814
 O1673 O 0.47649 1.08938 0.37991
 O1674 O 0.47659 1.11780 0.35185
 C1675 C 0.46826 1.09809 0.36028
 C1676 C 0.44808 1.08568 0.34781
 C1677 C 0.43781 1.09556 0.32669
 H1678 H 0.44597 1.11135 0.31852
 O1679 O 0.52225 0.91370 0.37851
 O1680 O 0.52217 0.88600 0.34979
 C1681 C 0.53024 0.90566 0.35850
 C1682 C 0.54960 0.91892 0.34559
 C1683 C 0.55701 0.91161 0.32241
 H1684 H 0.54729 0.89721 0.31347
 O1685 O 0.61937 0.97652 0.41096
 O1686 O 0.64733 0.97638 0.38254
 C1687 C 0.63886 0.96809 0.40226
 C1688 C 0.65148 0.94819 0.41510
 C1689 C 0.67367 0.93922 0.40659
 H1690 H 0.68158 0.94701 0.39045
 O1691 O 0.38027 1.02448 0.41266
 O1692 O 0.35213 1.02470 0.38444
 C1693 C 0.36068 1.03287 0.40415
 C1694 C 0.34821 1.05297 0.41671
 C1695 C 0.32716 1.06301 0.40679
 H1696 H 0.31970 1.05535 0.39038
 O1697 O 0.41271 1.12137 0.47633
 O1698 O 0.38453 1.14955 0.47685
 C1699 C 0.40405 1.14110 0.46829
 C1700 C 0.41644 1.15400 0.44835
 C1701 C 0.40757 1.17620 0.43983
 H1702 H 0.39223 1.18443 0.44875
 O1703 O 0.58652 0.88052 0.47456
 O1704 O 0.61482 0.85247 0.47436
 C1705 C 0.59536 0.86118 0.46588
 C1706 C 0.58343 0.84911 0.44517
 C1707 C 0.59426 0.82897 0.43421
 H1708 H 0.61110 0.82216 0.44141
 O1709 O 0.58661 1.02478 0.37885
 O1710 O 0.61462 1.02496 0.35048
 C1711 C 0.59525 1.03349 0.35939
 C1712 C 0.58320 1.05441 0.34759
 C1713 C 0.59312 1.06494 0.32664
 H1714 H 0.60856 1.05647 0.31816
 O1715 O 0.41341 0.97800 0.37849
 O1716 O 0.38544 0.97851 0.35009
 C1717 C 0.40504 0.97015 0.35857
 C1718 C 0.41774 0.95043 0.34567
 C1719 C 0.40998 0.94275 0.32272
 H1720 H 0.39573 0.95267 0.31372
 O1721 O 0.52297 1.12214 0.41407
 O1722 O 0.52315 1.15079 0.38622
 C1723 C 0.53125 1.14193 0.40588
 C1724 C 0.55117 1.15422 0.41883
 C1725 C 0.55888 1.17725 0.41153
 H1726 H 0.54882 1.18667 0.39763
 O1727 O 0.47545 0.87991 0.41154
 O1728 O 0.47552 0.85205 0.38299
 C1729 C 0.46706 0.86048 0.40266
 C1730 C 0.44664 0.84811 0.41480
 C1731 C 0.43620 0.82748 0.40436
 H1732 H 0.44368 0.82037 0.38770
 O1733 O 0.62120 1.08651 0.47615
 O1734 O 0.64964 1.11434 0.47631
 C1735 C 0.64092 1.09483 0.46792
 C1736 C 0.65337 1.08193 0.44797
 C1737 C 0.67592 1.08982 0.43935
 H1738 H 0.68435 1.10540 0.44762
 O1739 O 0.37967 0.91321 0.47568
 O1740 O 0.35112 0.88548 0.47556
 C1741 C 0.35997 0.90502 0.46732
 C1742 C 0.34782 0.91768 0.44705
 C1743 C 0.32650 0.90828 0.43710
 H1744 H 0.31800 0.89291 0.44572
 Cu1745 Cu 0.49897 0.89935 0.39785
 Cu1746 Cu 0.49904 0.86596 0.36352
 Cu1747 Cu 0.49968 1.10316 0.39956
 Cu1748 Cu 0.49999 1.13734 0.36595
 Cu1749 Cu 0.39972 1.00112 0.39855
 Cu1750 Cu 0.36601 1.00159 0.36458
 Cu1751 Cu 0.60010 1.00053 0.39775
 Cu1752 Cu 0.63366 1.00057 0.36363
 C1753 C 0.43686 0.93823 0.35695
 H1754 H 0.44295 0.94408 0.37464
 C1755 C 0.42029 0.92235 0.31145
 C1756 C 0.56278 1.06511 0.35827
 H1757 H 0.55515 1.05727 0.37454
 C1758 C 0.58353 1.08643 0.31688
 C1759 C 0.35853 0.93802 0.43627
 H1760 H 0.37510 0.94522 0.44372
 C1761 C 0.31643 0.91821 0.41592
 C1762 C 0.64199 1.06233 0.43654
 H1763 H 0.62437 1.05651 0.44269
 C1764 C 0.68719 1.07816 0.41969
 C1765 C 0.43621 0.85801 0.43574
 H1766 H 0.44380 0.87428 0.44352
 C1767 C 0.41557 0.81665 0.41449
 C1768 C 0.56349 1.14236 0.43759
 H1769 H 0.55758 1.12458 0.44333
 C1770 C 0.57944 1.18810 0.42183
 C1771 C 0.43770 1.06491 0.35817
 H1772 H 0.44529 1.05734 0.37460
 C1773 C 0.41689 1.08543 0.31642
 C1774 C 0.56151 0.93825 0.35682
 H1775 H 0.55590 0.94395 0.37473
 C1776 C 0.57679 0.92258 0.31077
 C1777 C 0.56225 0.85870 0.43509
 H1778 H 0.55417 0.87466 0.44308
 C1779 C 0.58428 0.81826 0.41341
 C1780 C 0.43653 1.14360 0.43696
 H1781 H 0.44327 1.12633 0.44332
 C1782 C 0.41823 1.18790 0.41988
 C1783 C 0.35835 1.06356 0.43744
 H1784 H 0.37490 1.05622 0.44485
 C1785 C 0.31634 1.08360 0.41703
 C1786 C 0.64079 0.93742 0.43551
 H1787 H 0.62346 0.94388 0.44186
 C1788 C 0.68528 0.91985 0.41840
 O1789 O 0.52262 0.91096 0.61936
 O1790 O 0.52271 0.88248 0.64737
 C1791 C 0.53098 0.90218 0.63891
 C1792 C 0.55103 0.91455 0.65154
 C1793 C 0.56091 0.90450 0.67269
 H1794 H 0.55331 0.88801 0.68003
 O1795 O 0.47750 1.08709 0.62047
 O1796 O 0.47751 1.11515 0.64883
 C1797 C 0.46932 1.09548 0.64024
 C1798 C 0.44965 1.08255 0.65297
 C1799 C 0.44179 1.09034 0.67582
 H1800 H 0.45117 1.10507 0.68463
 O1801 O 0.38057 1.02353 0.58735
 O1802 O 0.35257 1.02353 0.61573
 C1803 C 0.36103 1.03185 0.59602
 C1804 C 0.34855 1.05209 0.58359
 C1805 C 0.32709 1.06169 0.59314
 H1806 H 0.31916 1.05291 0.60859
 O1807 O 0.61866 0.97538 0.58763
 O1808 O 0.64678 0.97495 0.61588
 C1809 C 0.63814 0.96680 0.59621
 C1810 C 0.65041 0.94661 0.58365
 C1811 C 0.67134 0.93627 0.59355
 H1812 H 0.67868 0.94359 0.61017
 O1813 O 0.58594 0.87961 0.52195
 O1814 O 0.61400 0.85132 0.52166
 C1815 C 0.59433 0.85975 0.52994
 C1816 C 0.58154 0.84675 0.54962
 C1817 C 0.59007 0.82431 0.55793
 H1818 H 0.60519 0.81589 0.54882
 O1819 O 0.41375 1.12072 0.52357
 O1820 O 0.38564 1.14896 0.52400
 C1821 C 0.40539 1.14038 0.53198
 C1822 C 0.41833 1.15301 0.55177
 C1823 C 0.41028 1.17563 0.55994
 H1824 H 0.39556 1.18442 0.55053
 O1825 O 0.41392 0.97639 0.62053
 O1826 O 0.38593 0.97647 0.64892
 C1827 C 0.40547 0.96811 0.64026
 C1828 C 0.41787 0.94786 0.65273
 C1829 C 0.40892 0.93887 0.67475
 H1830 H 0.39408 0.94821 0.68306
 O1831 O 0.58603 1.02256 0.62123
 O1832 O 0.61407 1.02201 0.64956
 C1833 C 0.59454 1.03051 0.64104
 C1834 C 0.58202 1.05040 0.65385
 C1835 C 0.58987 1.05799 0.67677
 H1836 H 0.60420 1.04810 0.68566
 O1837 O 0.47525 0.87804 0.58644
 O1838 O 0.47525 0.84963 0.61452
 C1839 C 0.46685 0.85843 0.59500
 C1840 C 0.44646 0.84634 0.58262
 C1841 C 0.43577 0.82556 0.59266
 H1842 H 0.44348 0.81747 0.60877
 O1843 O 0.52449 1.12028 0.58740
 O1844 O 0.52464 1.14856 0.61553
 C1845 C 0.53289 1.13988 0.59587
 C1846 C 0.55279 1.15230 0.58294
 C1847 C 0.56172 1.17461 0.59121
 H1848 H 0.55385 1.18271 0.60719
 O1849 O 0.37978 0.91269 0.52307
 O1850 O 0.35124 0.88495 0.52297
 C1851 C 0.36016 0.90431 0.53152
 C1852 C 0.34817 0.91666 0.55214
 C1853 C 0.32699 0.90707 0.56233
 H1854 H 0.31856 0.89157 0.55391
 O1855 O 0.62066 1.08645 0.52363
 O1856 O 0.64908 1.11430 0.52391
 C1857 C 0.64018 1.09482 0.53226
 C1858 C 0.65227 1.08199 0.55256
 C1859 C 0.67445 1.09023 0.56171
 H1860 H 0.68267 1.10609 0.55373
 O1861 O 0.52442 1.08772 0.62112
 O1862 O 0.52456 1.11581 0.64943
 C1863 C 0.53268 1.09610 0.64087
 C1864 C 0.55216 1.08286 0.65366
 C1865 C 0.56068 1.09065 0.67635
 H1866 H 0.55291 1.10666 0.68446
 O1867 O 0.47561 0.91108 0.61963
 O1868 O 0.47562 0.88275 0.64779
 C1869 C 0.46742 0.90252 0.63935
 C1870 C 0.44778 0.91548 0.65216
 C1871 C 0.43818 0.90640 0.67393
 H1872 H 0.44538 0.88973 0.68121
 O1873 O 0.61901 1.02263 0.58782
 O1874 O 0.64714 1.02217 0.61605
 C1875 C 0.63871 1.03064 0.59637
 C1876 C 0.65160 1.05046 0.58366
 C1877 C 0.67405 1.05859 0.59213
 H1878 H 0.68247 1.04931 0.60720
 O1879 O 0.38081 0.97621 0.58747
 O1880 O 0.35280 0.97620 0.61584
 C1881 C 0.36134 0.96779 0.59620
 C1882 C 0.34891 0.94752 0.58384
 C1883 C 0.32795 0.93742 0.59392
 H1884 H 0.32069 0.94492 0.61050
 O1885 O 0.58776 1.11962 0.52312
 O1886 O 0.61603 1.14765 0.52330
 C1887 C 0.59627 1.13925 0.53139
 C1888 C 0.58346 1.15205 0.55114
 C1889 C 0.59167 1.17461 0.55922
 H1890 H 0.60647 1.18324 0.54980
 O1891 O 0.41228 0.87907 0.52260
 O1892 O 0.38376 0.85130 0.52241
 C1893 C 0.40341 0.85955 0.53084
 C1894 C 0.41551 0.84689 0.55113
 C1895 C 0.40510 0.82614 0.56140
 H1896 H 0.38866 0.81886 0.55374
 O1897 O 0.58574 0.97527 0.62079
 O1898 O 0.61385 0.97475 0.64904
 C1899 C 0.59429 0.96657 0.64031
 C1900 C 0.58189 0.94607 0.65238
 C1901 C 0.59141 0.93581 0.67366
 H1902 H 0.60698 0.94402 0.68213
 O1903 O 0.41360 1.02366 0.62059
 O1904 O 0.38566 1.02366 0.64903
 C1905 C 0.40520 1.03195 0.64034
 C1906 C 0.41810 1.05173 0.65299
 C1907 C 0.41016 1.06013 0.67568
 H1908 H 0.39445 1.05196 0.68396
 O1909 O 0.47731 1.12072 0.58784
 O1910 O 0.47730 1.14898 0.61598
 C1911 C 0.46896 1.14035 0.59637
 C1912 C 0.44904 1.15291 0.58353
 C1913 C 0.44020 1.17525 0.59192
 H1914 H 0.44812 1.18321 0.60794
 O1915 O 0.52240 0.87822 0.58593
 O1916 O 0.52252 0.84963 0.61383
 C1917 C 0.53075 0.85849 0.59423
 C1918 C 0.55067 0.84616 0.58124
 C1919 C 0.55975 0.82391 0.58957
 H1920 H 0.55187 0.81565 0.60549
 O1921 O 0.61911 0.91268 0.52282
 O1922 O 0.64718 0.88439 0.52279
 C1923 C 0.63856 0.90391 0.53128
 C1924 C 0.65077 0.91600 0.55182
 C1925 C 0.67197 0.90617 0.56175
 H1926 H 0.68026 0.89069 0.55313
 O1927 O 0.38047 1.08788 0.52399
 O1928 O 0.35229 1.11604 0.52440
 C1929 C 0.36101 1.09643 0.53262
 C1930 C 0.34876 1.08383 0.55288
 C1931 C 0.32762 1.09349 0.56304
 H1932 H 0.32056 1.11022 0.55576
 Cu1933 Cu 0.49894 0.89738 0.60000
 Cu1934 Cu 0.49905 0.86324 0.63368
 Cu1935 Cu 0.50096 1.10118 0.60136
 Cu1936 Cu 0.50098 1.13500 0.63524
 Cu1937 Cu 0.39881 0.89886 0.49914
 Cu1938 Cu 0.36455 0.86557 0.49896
 Cu1939 Cu 0.59995 0.89943 0.49876
 Cu1940 Cu 0.63376 0.86557 0.49860
 Cu1941 Cu 0.39951 1.10163 0.50004
 Cu1942 Cu 0.36569 1.13545 0.50062
 Cu1943 Cu 0.60174 1.10028 0.49964
 Cu1944 Cu 0.63575 1.13382 0.49992
 Cu1945 Cu 0.40003 0.99999 0.60114
 Cu1946 Cu 0.36640 0.99997 0.63520
 Cu1947 Cu 0.59953 0.99906 0.60156
 Cu1948 Cu 0.63328 0.99850 0.63547
 C1949 C 0.56153 0.93544 0.64161
 H1950 H 0.55432 0.94298 0.62500
 C1951 C 0.58122 0.91482 0.68382
 C1952 C 0.43791 1.06302 0.64186
 H1953 H 0.44382 1.05700 0.62415
 C1954 C 0.42198 1.07939 0.68737
 C1955 C 0.35900 1.06303 0.56319
 H1956 H 0.37565 1.05585 0.55585
 C1957 C 0.31633 1.08250 0.58311
 C1958 C 0.64031 0.93640 0.56272
 H1959 H 0.62381 0.94390 0.55533
 C1960 C 0.68224 0.91594 0.58288
 C1961 C 0.56161 0.85735 0.56117
 H1962 H 0.55507 0.87476 0.55499
 C1963 C 0.57943 0.81274 0.57798
 C1964 C 0.43798 1.14198 0.56342
 H1965 H 0.44424 1.12448 0.55724
 C1966 C 0.42086 1.18691 0.58017
 C1967 C 0.43757 0.93631 0.64180
 H1968 H 0.44443 0.94307 0.62471
 C1969 C 0.41872 0.91801 0.68562
 C1970 C 0.56292 1.06270 0.64264
 H1971 H 0.55686 1.05693 0.62491
 C1972 C 0.57949 1.07821 0.68823
 C1973 C 0.43632 0.85670 0.56171
 H1974 H 0.44416 0.87298 0.55415
 C1975 C 0.41490 0.81547 0.58232
 C1976 C 0.56376 1.14122 0.56285
 H1977 H 0.55741 1.12374 0.55674
 C1978 C 0.58113 1.18605 0.57937
 C1979 C 0.35883 0.93707 0.56288
 H1980 H 0.37532 0.94439 0.55534
 C1981 C 0.31688 0.91708 0.58346
 C1982 C 0.64104 1.06205 0.56364
 H1983 H 0.62369 1.05593 0.55706
 C1984 C 0.68568 1.07855 0.58142
 O1985 O 0.58582 0.52221 1.12190
 O1986 O 0.61366 0.52186 1.15042
 C1987 C 0.59415 0.53028 1.14173
 C1988 C 0.58119 0.54999 1.15441
 C1989 C 0.58916 0.55845 1.17705
 H1990 H 0.60497 0.55039 1.18523
 O1991 O 0.41202 0.47576 1.12076
 O1992 O 0.38375 0.47563 1.14886
 C1993 C 0.40335 0.46728 1.14030
 C1994 C 0.41566 0.44685 1.15260
 C1995 C 0.40584 0.43662 1.17373
 H1996 H 0.39024 0.44501 1.18198
 O1997 O 0.52364 0.61959 1.08871
 O1998 O 0.52362 0.64749 1.11721
 C1999 C 0.53220 0.63890 1.09768
 C2000 C 0.55288 0.65099 1.08577
 C2001 C 0.56345 0.67152 1.09627
 H2002 H 0.55588 0.67892 1.11277
 O2003 O 0.47500 0.37972 1.08638
 O2004 O 0.47458 0.35105 1.11420
 C2005 C 0.46633 0.36016 1.09473
 C2006 C 0.44591 0.34830 1.08220
 C2007 C 0.43519 0.32760 1.09222
 H2008 H 0.44234 0.32024 1.10892
 O2009 O 0.62022 0.58610 1.02480
 O2010 O 0.64873 0.61388 1.02509
 C2011 C 0.63990 0.59429 1.03324
 C2012 C 0.65206 0.58149 1.05346
 C2013 C 0.67387 0.59027 1.06290
 H2014 H 0.68266 0.60521 1.05383
 O2015 O 0.37890 0.41389 1.02200
 O2016 O 0.35048 0.38602 1.02164
 C2017 C 0.35917 0.40548 1.03016
 C2018 C 0.34665 0.41798 1.05034
 C2019 C 0.32431 0.40952 1.05878
 H2020 H 0.31559 0.39475 1.04940
 O2021 O 0.47540 0.58713 1.12087
 O2022 O 0.47534 0.61502 1.14941
 C2023 C 0.46705 0.59552 1.14060
 C2024 C 0.44729 0.58259 1.15319
 C2025 C 0.43902 0.59043 1.17595
 H2026 H 0.44719 0.60615 1.18421
 O2027 O 0.52259 0.41136 1.12017
 O2028 O 0.52237 0.38257 1.14787
 C2029 C 0.53095 0.40220 1.13955
 C2030 C 0.55140 0.41407 1.15205
 C2031 C 0.56219 0.40314 1.17233
 H2032 H 0.55514 0.38612 1.17893
 O2033 O 0.61870 0.47521 1.08852
 O2034 O 0.64687 0.47484 1.11671
 C2035 C 0.63825 0.46672 1.09699
 C2036 C 0.65071 0.44689 1.08396
 C2037 C 0.67304 0.43801 1.09216
 H2038 H 0.68102 0.44583 1.10821
 O2039 O 0.37920 0.52333 1.08777
 O2040 O 0.35086 0.52344 1.11580
 C2041 C 0.35957 0.53172 1.09617
 C2042 C 0.34712 0.55160 1.08311
 C2043 C 0.32447 0.56015 1.09086
 H2044 H 0.31603 0.55203 1.10656
 O2045 O 0.41292 0.62035 1.02406
 O2046 O 0.38470 0.64847 1.02411
 C2047 C 0.40420 0.63982 1.03258
 C2048 C 0.41650 0.65210 1.05300
 C2049 C 0.40650 0.67299 1.06346
 H2050 H 0.38977 0.68004 1.05627
 O2051 O 0.58565 0.37924 1.02273
 O2052 O 0.61360 0.35084 1.02268
 C2053 C 0.59395 0.35940 1.03086
 C2054 C 0.58105 0.34654 1.05054
 C2055 C 0.58942 0.32408 1.05891
 H2056 H 0.60454 0.31558 1.04987
 O2057 O 0.41236 0.52295 1.12079
 O2058 O 0.38421 0.52293 1.14904
 C2059 C 0.40389 0.53112 1.14053
 C2060 C 0.41671 0.55084 1.15329
 C2061 C 0.40900 0.55862 1.17621
 H2062 H 0.39437 0.54915 1.18509
 O2063 O 0.58571 0.47503 1.12163
 O2064 O 0.61378 0.47457 1.14992
 C2065 C 0.59424 0.46638 1.14117
 C2066 C 0.58198 0.44578 1.15314
 C2067 C 0.59200 0.43507 1.17392
 H2068 H 0.60743 0.44351 1.18234
 O2069 O 0.52214 0.37863 1.08671
 O2070 O 0.52173 0.34981 1.11437
 C2071 C 0.53018 0.35870 1.09490
 C2072 C 0.55004 0.34618 1.08199
 C2073 C 0.55894 0.32385 1.09037
 H2074 H 0.55091 0.31561 1.10623
 O2075 O 0.47648 0.62024 1.08759
 O2076 O 0.47638 0.64819 1.11604
 C2077 C 0.46828 0.63989 1.09619
 C2078 C 0.44827 0.65251 1.08362
 C2079 C 0.43862 0.67398 1.09316
 H2080 H 0.44762 0.68236 1.10833
 O2081 O 0.38020 0.58696 1.02355
 O2082 O 0.35192 0.61505 1.02350
 C2083 C 0.36044 0.59532 1.03168
 C2084 C 0.34757 0.58238 1.05131
 C2085 C 0.32477 0.59030 1.05894
 H2086 H 0.31613 0.60504 1.04936
 O2087 O 0.61858 0.41252 1.02350
 O2088 O 0.64662 0.38420 1.02361
 C2089 C 0.63810 0.40387 1.03189
 C2090 C 0.65070 0.41647 1.05191
 C2091 C 0.67332 0.40836 1.05989
 H2092 H 0.68209 0.39376 1.05026
 O2093 O 0.47537 0.41188 1.12031
 O2094 O 0.47509 0.38324 1.14815
 C2095 C 0.46688 0.40302 1.13977
 C2096 C 0.44661 0.41534 1.15224
 C2097 C 0.43622 0.40511 1.17308
 H2098 H 0.44361 0.38848 1.18035
 O2099 O 0.52235 0.58594 1.12134
 O2100 O 0.52223 0.61378 1.14993
 C2101 C 0.53028 0.59404 1.14133
 C2102 C 0.54961 0.58081 1.15430
 C2103 C 0.55735 0.58853 1.17720
 H2104 H 0.54790 0.60324 1.18600
 O2105 O 0.37922 0.47611 1.08739
 O2106 O 0.35083 0.47610 1.11538
 C2107 C 0.35951 0.46786 1.09573
 C2108 C 0.34692 0.44816 1.08265
 C2109 C 0.32479 0.43907 1.09116
 H2110 H 0.31695 0.44670 1.10739
 O2111 O 0.61903 0.52246 1.08895
 O2112 O 0.64700 0.52217 1.11734
 C2113 C 0.63857 0.53067 1.09769
 C2114 C 0.65124 0.55074 1.08521
 C2115 C 0.67281 0.56013 1.09469
 H2116 H 0.68008 0.55212 1.11088
 O2117 O 0.41191 0.38063 1.02184
 O2118 O 0.38353 0.35272 1.02164
 C2119 C 0.40314 0.36106 1.03008
 C2120 C 0.41528 0.34849 1.05042
 C2121 C 0.40521 0.32738 1.06036
 H2122 H 0.38967 0.31934 1.05172
 O2123 O 0.58762 0.61960 1.02545
 O2124 O 0.61610 0.64740 1.02592
 C2125 C 0.59647 0.63890 1.03417
 C2126 C 0.58428 0.65103 1.05471
 C2127 C 0.59450 0.67168 1.06539
 H2128 H 0.61052 0.67961 1.05750
 Cu2129 Cu 0.59951 0.49879 1.10241
 Cu2130 Cu 0.63315 0.49834 1.13645
 Cu2131 Cu 0.39851 0.49955 1.10137
 Cu2132 Cu 0.36459 0.49955 1.13511
 Cu2133 Cu 0.49945 0.60047 1.10173
 Cu2134 Cu 0.49939 0.63399 1.13595
 Cu2135 Cu 0.49885 0.39829 1.10063
 Cu2136 Cu 0.49841 0.36380 1.13395
 C2137 C 0.56136 0.56125 1.14325
 H2138 H 0.55552 0.55525 1.12552
 C2139 C 0.57726 0.57769 1.18873
 C2140 C 0.43625 0.43627 1.14221
 H2141 H 0.44375 0.44388 1.12576
 C2142 C 0.41570 0.41547 1.18393
 C2143 C 0.56333 0.64099 1.06488
 H2144 H 0.55556 0.62488 1.05695
 C2145 C 0.58439 0.68192 1.08636
 C2146 C 0.43585 0.35861 1.06125
 H2147 H 0.44357 0.37501 1.05382
 C2148 C 0.41475 0.31697 1.08156
 C2149 C 0.64104 0.56153 1.06458
 H2150 H 0.62408 0.55481 1.05756
 C2151 C 0.68429 0.58012 1.08388
 C2152 C 0.35763 0.43753 1.06218
 H2153 H 0.37495 0.44404 1.05585
 C2154 C 0.31321 0.41978 1.07929
 C2155 C 0.43608 0.56274 1.14208
 H2156 H 0.44206 0.55690 1.12434
 C2157 C 0.41995 0.57847 1.18775
 C2158 C 0.56143 0.43538 1.14260
 H2159 H 0.55370 0.44346 1.12648
 C2160 C 0.58264 0.41337 1.18342
 C2161 C 0.63972 0.43600 1.06381
 H2162 H 0.62223 0.44232 1.05775
 C2163 C 0.68468 0.41881 1.08013
 C2164 C 0.35844 0.56282 1.06328
 H2165 H 0.37612 0.55673 1.05753
 C2166 C 0.31304 0.57950 1.07879
 C2167 C 0.43736 0.64199 1.06325
 H2168 H 0.44466 0.62539 1.05586
 C2169 C 0.41733 0.68419 1.08364
 C2170 C 0.56115 0.35728 1.06199
 H2171 H 0.55475 0.37474 1.05576
 C2172 C 0.57864 0.31257 1.07891
 O2173 O 0.58796 0.47628 0.87957
 O2174 O 0.61620 0.47635 0.85143
 C2175 C 0.59658 0.46804 0.85991
 C2176 C 0.58383 0.44827 0.84715
 C2177 C 0.59259 0.43916 0.82504
 H2178 H 0.60886 0.44677 0.81738
 O2179 O 0.41391 0.52570 0.87873
 O2180 O 0.38612 0.52651 0.85016
 C2181 C 0.40569 0.53444 0.85911
 C2182 C 0.41886 0.55428 0.84685
 C2183 C 0.41106 0.56313 0.82429
 H2184 H 0.39530 0.55528 0.81586
 O2185 O 0.47767 0.62146 0.91357
 O2186 O 0.47789 0.64980 0.88542
 C2187 C 0.46926 0.64100 0.90487
 C2188 C 0.44864 0.65308 0.91697
 C2189 C 0.43826 0.67391 0.90677
 H2190 H 0.44598 0.68162 0.89047
 O2191 O 0.52261 0.38067 0.91137
 O2192 O 0.52273 0.35270 0.88294
 C2193 C 0.53102 0.36117 0.90264
 C2194 C 0.55131 0.34875 0.91497
 C2195 C 0.56157 0.32790 0.90477
 H2196 H 0.55401 0.32055 0.88826
 O2197 O 0.61968 0.41268 0.97629
 O2198 O 0.64781 0.38444 0.97650
 C2199 C 0.63950 0.40425 0.96834
 C2200 C 0.65261 0.41727 0.94893
 C2201 C 0.67547 0.40944 0.94130
 H2202 H 0.68408 0.39460 0.95076
 O2203 O 0.38031 0.58744 0.97632
 O2204 O 0.35202 0.61552 0.97641
 C2205 C 0.36063 0.59591 0.96809
 C2206 C 0.34798 0.58323 0.94819
 C2207 C 0.32531 0.59127 0.94023
 H2208 H 0.31653 0.60596 0.94972
 O2209 O 0.52530 0.58875 0.88076
 O2210 O 0.52575 0.61710 0.85261
 C2211 C 0.53375 0.59729 0.86114
 C2212 C 0.55327 0.58416 0.84836
 C2213 C 0.56161 0.59211 0.82564
 H2214 H 0.55369 0.60808 0.81755
 O2215 O 0.47619 0.41418 0.87761
 O2216 O 0.47633 0.38632 0.84905
 C2217 C 0.46821 0.40600 0.85766
 C2218 C 0.44894 0.41932 0.84471
 C2219 C 0.44074 0.41158 0.82190
 H2220 H 0.44876 0.39571 0.81373
 O2221 O 0.62047 0.52335 0.91324
 O2222 O 0.64872 0.52369 0.88511
 C2223 C 0.64004 0.53181 0.90481
 C2224 C 0.65234 0.55186 0.91760
 C2225 C 0.67443 0.56088 0.90905
 H2226 H 0.68313 0.55149 0.89429
 O2227 O 0.38069 0.47764 0.91037
 O2228 O 0.35295 0.47807 0.88176
 C2229 C 0.36136 0.46930 0.90131
 C2230 C 0.34901 0.44874 0.91330
 C2231 C 0.32871 0.43796 0.90258
 H2232 H 0.32193 0.44506 0.88561
 O2233 O 0.58748 0.62058 0.97820
 O2234 O 0.61577 0.64858 0.97867
 C2235 C 0.59607 0.64038 0.97031
 C2236 C 0.58339 0.65353 0.95069
 C2237 C 0.59153 0.67627 0.94287
 H2238 H 0.60642 0.68478 0.95223
 O2239 O 0.41174 0.38069 0.97446
 O2240 O 0.38341 0.35273 0.97425
 C2241 C 0.40299 0.36126 0.96590
 C2242 C 0.41511 0.34914 0.94525
 C2243 C 0.40473 0.32866 0.93436
 H2244 H 0.38885 0.32065 0.94245
 O2245 O 0.41387 0.47865 0.87745
 O2246 O 0.38622 0.47942 0.84873
 C2247 C 0.40572 0.47095 0.85739
 C2248 C 0.41864 0.45138 0.84449
 C2249 C 0.41102 0.44375 0.82150
 H2250 H 0.39650 0.45337 0.81259
 O2251 O 0.58755 0.52347 0.88005
 O2252 O 0.61564 0.52362 0.85175
 C2253 C 0.59602 0.53183 0.86038
 C2254 C 0.58333 0.55183 0.84786
 C2255 C 0.59104 0.55969 0.82497
 H2256 H 0.60544 0.55001 0.81593
 O2257 O 0.47531 0.38109 0.91085
 O2258 O 0.47536 0.35320 0.88233
 C2259 C 0.46679 0.36176 0.90189
 C2260 C 0.44613 0.34960 0.91381
 C2261 C 0.43521 0.32945 0.90294
 H2262 H 0.44245 0.32256 0.88609
 O2263 O 0.52482 0.62185 0.91397
 O2264 O 0.52515 0.65035 0.88599
 C2265 C 0.53315 0.64161 0.90571
 C2266 C 0.55273 0.65411 0.91893
 C2267 C 0.56133 0.67672 0.91111
 H2268 H 0.55330 0.68517 0.89536
 O2269 O 0.37934 0.41438 0.97458
 O2270 O 0.35104 0.38638 0.97428
 C2271 C 0.35986 0.40591 0.96598
 C2272 C 0.34800 0.41817 0.94528
 C2273 C 0.32731 0.40809 0.93469
 H2274 H 0.31895 0.39259 0.94319
 O2275 O 0.62000 0.58692 0.97738
 O2276 O 0.64837 0.61483 0.97769
 C2277 C 0.63959 0.59545 0.96907
 C2278 C 0.65197 0.58307 0.94875
 C2279 C 0.67382 0.59212 0.93961
 H2280 H 0.68142 0.60773 0.94824
 O2281 O 0.52315 0.41403 0.87851
 O2282 O 0.52321 0.38611 0.85001
 C2283 C 0.53153 0.40561 0.85883
 C2284 C 0.55170 0.41811 0.84651
 C2285 C 0.56030 0.40970 0.82415
 H2286 H 0.55097 0.39500 0.81527
 O2287 O 0.47832 0.58875 0.88017
 O2288 O 0.47877 0.61702 0.85194
 C2289 C 0.47040 0.59734 0.86035
 C2290 C 0.45073 0.58474 0.84736
 C2291 C 0.44294 0.59307 0.82465
 H2292 H 0.45232 0.60796 0.81608
 O2293 O 0.38034 0.52488 0.91134
 O2294 O 0.35236 0.52549 0.88296
 C2295 C 0.36076 0.53332 0.90288
 C2296 C 0.34804 0.55282 0.91613
 C2297 C 0.32553 0.56143 0.90812
 H2298 H 0.31738 0.55350 0.89219
 O2299 O 0.62082 0.47622 0.91281
 O2300 O 0.64922 0.47644 0.88483
 C2301 C 0.64054 0.46805 0.90442
 C2302 C 0.65308 0.44826 0.91740
 C2303 C 0.67574 0.43985 0.90962
 H2304 H 0.68409 0.44809 0.89394
 O2305 O 0.58615 0.38001 0.97536
 O2306 O 0.61423 0.35174 0.97529
 C2307 C 0.59477 0.36051 0.96682
 C2308 C 0.58250 0.34840 0.94627
 C2309 C 0.59233 0.32737 0.93592
 H2310 H 0.60810 0.31917 0.94407
 O2311 O 0.41327 0.62067 0.97655
 O2312 O 0.38503 0.64877 0.97653
 C2313 C 0.40463 0.64026 0.96817
 C2314 C 0.41700 0.65271 0.94785
 C2315 C 0.40691 0.67359 0.93737
 H2316 H 0.39078 0.68142 0.94517
 Cu2317 Cu 0.60137 0.49977 0.89924
 Cu2318 Cu 0.63528 0.50007 0.86544
 Cu2319 Cu 0.39995 0.50168 0.89736
 Cu2320 Cu 0.36657 0.50248 0.86307
 Cu2321 Cu 0.60099 0.60049 1.00139
 Cu2322 Cu 0.63513 0.63394 1.00184
 Cu2323 Cu 0.59968 0.39892 0.99945
 Cu2324 Cu 0.63333 0.36492 0.99956
 Cu2325 Cu 0.39956 0.60109 1.00011
 Cu2326 Cu 0.36565 0.63483 1.00015
 Cu2327 Cu 0.39831 0.40019 0.99828
 Cu2328 Cu 0.36427 0.36667 0.99798
 Cu2329 Cu 0.50156 0.60240 0.89997
 Cu2330 Cu 0.50196 0.63647 0.86621
 Cu2331 Cu 0.49926 0.40025 0.89749
 Cu2332 Cu 0.49942 0.36669 0.86331
 C2333 C 0.56334 0.43764 0.85767
 H2334 H 0.55683 0.44415 0.87498
 C2335 C 0.58088 0.41989 0.81327
 C2336 C 0.43879 0.56513 0.85816
 H2337 H 0.44461 0.55873 0.87578
 C2338 C 0.42306 0.58249 0.81295
 C2339 C 0.43798 0.64273 0.93762
 H2340 H 0.44560 0.62638 0.94530
 C2341 C 0.41725 0.68418 0.91665
 C2342 C 0.56182 0.35879 0.93581
 H2343 H 0.55435 0.37521 0.94344
 C2344 C 0.58221 0.31714 0.91494
 C2345 C 0.64177 0.43692 0.93713
 H2346 H 0.62409 0.44296 0.94288
 C2347 C 0.68724 0.42050 0.92157
 C2348 C 0.35903 0.56377 0.93625
 H2349 H 0.37661 0.55760 0.94220
 C2350 C 0.31390 0.58060 0.92015
 C2351 C 0.56420 0.56396 0.85925
 H2352 H 0.55824 0.55805 0.87699
 C2353 C 0.58043 0.57990 0.81367
 C2354 C 0.43785 0.43930 0.85575
 H2355 H 0.44371 0.44501 0.87357
 C2356 C 0.42181 0.42375 0.81002
 C2357 C 0.64136 0.56296 0.93760
 H2358 H 0.62421 0.55624 0.94418
 C2359 C 0.68524 0.58152 0.91943
 C2360 C 0.35851 0.43870 0.93466
 H2361 H 0.37459 0.44643 0.94264
 C2362 C 0.31776 0.41748 0.91302
 C2363 C 0.56377 0.64279 0.93884
 H2364 H 0.55755 0.62515 0.94465
 C2365 C 0.58068 0.68807 0.92305
 C2366 C 0.43599 0.35926 0.93500
 H2367 H 0.44392 0.37521 0.94311
 C2368 C 0.41438 0.31885 0.91292
 C2369 C 1.11957 1.08895 1.24277
 C2370 C 1.11621 1.11325 1.24886
 C2371 C 1.10492 1.12825 1.23153
 C2372 C 1.09487 1.11839 1.21028
 C2373 C 1.09559 1.09322 1.20597
 C2374 C 1.10946 1.07921 1.22197
 C2375 C 1.10356 1.05595 1.23436
 C2376 C 1.11463 1.06662 1.25716
 H2377 H 1.10317 1.14749 1.23462
 H2378 H 1.08606 1.13048 1.19764
 H2379 H 1.11409 1.04053 1.22694
 H2380 H 1.08381 1.05281 1.23585
 H2381 H 1.13151 1.05733 1.26281
 H2382 H 1.10131 1.06968 1.27192
 C2383 C 1.09328 0.62172 0.73894
 C2384 C 1.10799 0.60803 0.75429
 C2385 C 1.11007 0.58308 0.74945
 C2386 C 1.09990 0.57308 0.72827
 C2387 C 1.08774 0.58791 0.71128
 C2388 C 1.08357 0.61198 0.71800
 C2389 C 1.08741 0.63481 0.70403
 C2390 C 1.09803 0.64550 0.72700
 H2391 H 1.12013 0.57144 0.76157
 H2392 H 1.10231 0.55395 0.72493
 H2393 H 1.07012 0.64346 0.69863
 H2394 H 1.10082 0.63268 0.68919
 H2395 H 1.08681 0.66025 0.73477
 H2396 H 1.11761 0.64962 0.72552
 C2397 C 0.62248 1.09088 0.74037
 C2398 C 0.60940 1.10666 0.75529
 C2399 C 0.58464 1.10975 0.74987
 C2400 C 0.57446 1.09956 0.72880
 C2401 C 0.58881 1.08639 0.71226
 C2402 C 0.61252 1.08121 0.71945
 C2403 C 0.63554 1.08360 0.70563
 C2404 C 0.64650 1.09420 0.72845
 H2405 H 0.57313 1.12055 0.76141
 H2406 H 0.55556 1.10279 0.72521
 H2407 H 0.63420 1.09679 0.69046
 H2408 H 0.64336 1.06574 0.70073
 H2409 H 0.65158 1.11356 0.72653
 H2410 H 0.66062 1.08241 0.73654
 C2411 C 0.59198 0.62152 1.23939
 C2412 C 0.60723 0.60819 1.25453
 C2413 C 0.60931 0.58317 1.25006
 C2414 C 0.59862 0.57275 1.22933
 C2415 C 0.58590 0.58722 1.21245
 C2416 C 0.58174 0.61136 1.21892
 C2417 C 0.58498 0.63400 1.20448
 C2418 C 0.59622 0.64512 1.22693
 H2419 H 0.61982 0.57180 1.26203
 H2420 H 0.60109 0.55361 1.22622
 H2421 H 0.56745 0.64244 1.19953
 H2422 H 0.59792 0.63173 1.18926
 H2423 H 0.58512 0.65991 1.23480
 H2424 H 0.61571 0.64934 1.22476
 C2425 C 0.90754 0.87699 1.23969
 C2426 C 0.89094 0.88979 1.25393
 C2427 C 0.88748 0.91449 1.24832
 C2428 C 0.89836 0.92493 1.22770
 C2429 C 0.91241 0.91080 1.21165
 C2430 C 0.91773 0.88712 1.21908
 C2431 C 0.91619 0.86395 1.20530
 C2432 C 0.90504 0.85283 1.22780
 H2433 H 0.87604 0.92578 1.25946
 H2434 H 0.89497 0.94385 1.22410
 H2435 H 0.93426 0.85636 1.20102
 H2436 H 0.90353 0.86503 1.18971
 H2437 H 0.91676 0.83890 1.23635
 H2438 H 0.88590 0.84738 1.22528
 C2439 C 0.90563 0.37586 0.73869
 C2440 C 0.88967 0.38893 0.75344
 C2441 C 0.88692 0.41383 0.74825
 C2442 C 0.89779 0.42426 0.72761
 C2443 C 0.91126 0.40999 0.71120
 C2444 C 0.91591 0.38604 0.71815
 C2445 C 0.91353 0.36322 0.70396
 C2446 C 0.90227 0.35202 0.72637
 H2447 H 0.87600 0.42531 0.75972
 H2448 H 0.89492 0.44332 0.72426
 H2449 H 0.93134 0.35519 0.69934
 H2450 H 0.90076 0.36499 0.68852
 H2451 H 0.91363 0.33758 0.73452
 H2452 H 0.88294 0.34722 0.72396
 C2453 C 0.37274 0.89801 0.73330
 C2454 C 0.38675 0.88574 0.75047
 C2455 C 0.41139 0.88246 0.74499
 C2456 C 0.42175 0.89310 0.72423
 C2457 C 0.40782 0.90727 0.70805
 C2458 C 0.38292 0.90861 0.71284
 C2459 C 0.36607 0.92976 0.71453
 C2460 C 0.35483 0.91784 0.73649
 H2461 H 0.42305 0.87262 0.75723
 H2462 H 0.44096 0.89099 0.72157
 H2463 H 0.35359 0.93084 0.69880
 H2464 H 0.37532 0.94694 0.71931
 H2465 H 0.33605 0.91163 0.73322
 H2466 H 0.35761 0.92824 0.75349
 C2467 C 0.40707 0.37880 1.24166
 C2468 C 0.38297 0.38328 1.24798
 C2469 C 0.36867 0.39569 1.23076
 C2470 C 0.37897 0.40534 1.20952
 C2471 C 0.40399 0.40337 1.20505
 C2472 C 0.41725 0.38867 1.22089
 C2473 C 0.44076 0.39338 1.23311
 C2474 C 0.42969 0.38265 1.25589
 H2475 H 0.34958 0.39847 1.23371
 H2476 H 0.36730 0.41482 1.19700
 H2477 H 0.44484 0.41300 1.23469
 H2478 H 0.45557 0.38213 1.22553
 H2479 H 0.42736 0.39603 1.27073
 H2480 H 0.43825 0.36530 1.26137
 C2481 C 0.90695 1.12482 0.76169
 C2482 C 0.89152 1.11136 0.74691
 C2483 C 0.88994 1.08631 0.75133
 C2484 C 0.90130 1.07593 0.77171
 C2485 C 0.91411 1.09047 0.78842
 C2486 C 0.91779 1.11471 0.78194
 C2487 C 0.91451 1.13725 0.79647
 C2488 C 0.90265 1.14833 0.77426
 H2489 H 0.87934 1.07486 0.73954
 H2490 H 0.89922 1.05671 0.77473
 H2491 H 0.93198 1.14590 0.80113
 H2492 H 0.90190 1.13474 0.81194
 H2493 H 0.91334 1.16329 0.76616
 H2494 H 0.88315 1.15230 0.77682
 C2495 C 0.90716 0.62355 0.26073
 C2496 C 0.89300 0.60961 0.24512
 C2497 C 0.89168 0.58455 0.24972
 C2498 C 0.90200 0.57460 0.27088
 C2499 C 0.91362 0.58955 0.28805
 C2500 C 0.91707 0.61382 0.28163
 C2501 C 0.91237 0.63628 0.29585
 C2502 C 0.90150 0.64697 0.27296
 H2503 H 0.88208 0.57274 0.23745
 H2504 H 0.90014 0.55538 0.27405
 H2505 H 0.92933 0.64540 0.30147
 H2506 H 0.89898 0.63347 0.31060
 H2507 H 0.91223 0.66221 0.26545
 H2508 H 0.88178 0.65041 0.27438
 C2509 C 0.37873 1.09312 0.25975
 C2510 C 0.38267 1.11717 0.25310
 C2511 C 0.39551 1.13191 0.26945
 C2512 C 0.40616 1.12193 0.29040
 C2513 C 0.40458 1.09686 0.29527
 C2514 C 0.38950 1.08324 0.28013
 C2515 C 0.39401 1.05965 0.26779
 C2516 C 0.38218 1.07050 0.24543
 H2517 H 0.39782 1.15101 0.26584
 H2518 H 0.41595 1.13386 0.30238
 H2519 H 0.38335 1.04468 0.27591
 H2520 H 0.41355 1.05579 0.26536
 H2521 H 0.36474 1.06178 0.24077
 H2522 H 0.39484 1.07293 0.22998
 C2523 C 0.40671 0.62704 0.76335
 C2524 C 0.39227 0.61334 0.74779
 C2525 C 0.39171 0.58810 0.75149
 C2526 C 0.40282 0.57766 0.77197
 C2527 C 0.41451 0.59229 0.78935
 C2528 C 0.41744 0.61681 0.78360
 C2529 C 0.41293 0.63875 0.79867
 C2530 C 0.40115 0.64998 0.77650
 H2531 H 0.38192 0.57649 0.73917
 H2532 H 0.40135 0.55833 0.77461
 H2533 H 0.42995 0.64793 0.80400
 H2534 H 0.40008 0.63530 0.81376
 H2535 H 0.41141 0.66560 0.76912
 H2536 H 0.38144 0.65308 0.77870
 C2537 C 1.12242 0.90940 0.75806
 C2538 C 1.11916 0.88498 0.75239
 C2539 C 1.10762 0.87035 0.76985
 C2540 C 1.09730 0.88066 0.79079
 C2541 C 1.09803 0.90592 0.79464
 C2542 C 1.11210 0.91957 0.77855
 C2543 C 1.10632 0.94260 0.76568
 C2544 C 1.11761 0.93147 0.74320
 H2545 H 1.10585 0.85107 0.76706
 H2546 H 1.08826 0.86886 0.80352
 H2547 H 1.11678 0.95814 0.77291
 H2548 H 1.08658 0.94575 0.76394
 H2549 H 1.13453 0.94064 0.73754
 H2550 H 1.10444 0.92815 0.72839
 C2551 C 1.12181 0.41002 0.25941
 C2552 C 1.10833 0.39549 0.24378
 C2553 C 1.08339 0.39336 0.24846
 C2554 C 1.07320 0.40322 0.26972
 C2555 C 1.08779 0.41517 0.28696
 C2556 C 1.11186 0.41945 0.28042
 C2557 C 1.13452 0.41541 0.29449
 C2558 C 1.14542 0.40508 0.27146
 H2559 H 1.07189 0.38337 0.23621
 H2560 H 1.05411 0.40073 0.27290
 H2561 H 1.13229 0.40177 0.30915
 H2562 H 1.14307 0.43267 0.30018
 H2563 H 1.14956 0.38544 0.27274
 H2564 H 1.16017 0.41644 0.26395
 C2565 C 0.58914 0.88057 0.25771
 C2566 C 0.60528 0.89370 0.24338
 C2567 C 0.60883 0.91824 0.24920
 C2568 C 0.59858 0.92821 0.27038
 C2569 C 0.58498 0.91370 0.28654
 C2570 C 0.57945 0.89021 0.27874
 C2571 C 0.58127 0.86660 0.29183
 C2572 C 0.59186 0.85607 0.26876
 H2573 H 0.62014 0.92952 0.23789
 H2574 H 0.60213 0.94702 0.27433
 H2575 H 0.56328 0.85896 0.29632
 H2576 H 0.59429 0.86716 0.30714
 H2577 H 0.57991 0.84251 0.26004
 H2578 H 0.61105 0.85048 0.27066
 C2579 C 0.59582 0.37532 0.76314
 C2580 C 0.61189 0.38811 0.74845
 C2581 C 0.61480 0.41301 0.75308
 C2582 C 0.60391 0.42381 0.77349
 C2583 C 0.59020 0.40984 0.78999
 C2584 C 0.58544 0.38582 0.78341
 C2585 C 0.58765 0.36307 0.79786
 C2586 C 0.59901 0.35157 0.77563
 H2587 H 0.62596 0.42402 0.74137
 H2588 H 0.60689 0.44288 0.77659
 H2589 H 0.56979 0.35520 0.80248
 H2590 H 0.60034 0.36489 0.81335
 H2591 H 0.58763 0.33718 0.76747
 H2592 H 0.61830 0.34666 0.77819
 C2593 C 1.23883 1.09048 1.12251
 C2594 C 1.25366 1.10573 1.10886
 C2595 C 1.24859 1.10802 1.08394
 C2596 C 1.22759 1.09765 1.07396
 C2597 C 1.21095 1.08511 1.08881
 C2598 C 1.21801 1.08059 1.11279
 C2599 C 1.20436 1.08382 1.13590
 C2600 C 1.22719 1.09464 1.14654
 H2601 H 1.26032 1.11851 1.07230
 H2602 H 1.22407 1.10029 1.05487
 H2603 H 1.19937 1.06625 1.14433
 H2604 H 1.18933 1.09705 1.13417
 H2605 H 1.23531 1.08326 1.16102
 H2606 H 1.22544 1.11416 1.15103
 C2607 C 1.24242 0.61772 0.59103
 C2608 C 1.24840 0.61422 0.61539
 C2609 C 1.23116 0.60272 0.63026
 C2610 C 1.21002 0.59277 0.62022
 C2611 C 1.20572 0.59384 0.59499
 C2612 C 1.22172 0.60775 0.58112
 C2613 C 1.23409 0.60186 0.55785
 C2614 C 1.25680 0.61274 0.56870
 H2615 H 1.23420 0.60082 0.64953
 H2616 H 1.19741 0.58382 0.63220
 H2617 H 1.22681 0.61254 0.54242
 H2618 H 1.23545 0.58206 0.55462
 H2619 H 1.26257 0.62965 0.55947
 H2620 H 1.27139 0.59927 0.57180
 C2621 C 0.73634 1.09307 0.62552
 C2622 C 0.75138 1.10835 0.61214
 C2623 C 0.74677 1.11054 0.58711
 C2624 C 0.72610 1.09992 0.57671
 C2625 C 0.70925 1.08723 0.59119
 C2626 C 0.71579 1.08297 0.61539
 C2627 C 0.70160 1.08632 0.63815
 C2628 C 0.72412 1.09736 0.64923
 H2629 H 0.75868 1.12106 0.57568
 H2630 H 0.72306 1.10240 0.55751
 H2631 H 0.69651 1.06880 0.64663
 H2632 H 0.68655 1.09945 0.63596
 H2633 H 0.73198 1.08615 0.66399
 H2634 H 0.72216 1.11691 0.65351
 C2635 C 0.74575 0.58715 1.11478
 C2636 C 0.74975 0.61215 1.11397
 C2637 C 0.73279 0.62625 1.10120
 C2638 C 0.71169 0.61586 1.09167
 C2639 C 0.70680 0.59088 1.09430
 C2640 C 0.72483 0.57680 1.10544
 C2641 C 0.72376 0.55895 1.12586
 C2642 C 0.74676 0.57004 1.13561
 H2643 H 0.73509 0.64560 1.09948
 H2644 H 0.69872 0.62783 1.08324
 H2645 H 0.72616 0.54001 1.11956
 H2646 H 0.70827 0.56198 1.13830
 H2647 H 0.76252 0.55765 1.13448
 H2648 H 0.74428 0.57917 1.15339
 C2649 C 1.23437 0.87348 0.90474
 C2650 C 1.25012 0.88680 0.89014
 C2651 C 1.24651 0.91204 0.88891
 C2652 C 1.22610 0.92283 0.89972
 C2653 C 1.20867 0.90858 0.91179
 C2654 C 1.21419 0.88405 0.91515
 C2655 C 1.19907 0.86214 0.91085
 C2656 C 1.22117 0.85057 0.89943
 H2657 H 1.25895 0.92339 0.87895
 H2658 H 1.22368 0.94217 0.89788
 H2659 H 1.18420 0.86551 0.89774
 H2660 H 1.19352 0.85325 0.92804
 H2661 H 1.21916 0.84719 0.87967
 H2662 H 1.22829 0.83505 0.91008
 C2663 C 1.23545 0.37418 0.40471
 C2664 C 1.24995 0.38684 0.38820
 C2665 C 1.24500 0.41176 0.38516
 C2666 C 1.22476 0.42258 0.39623
 C2667 C 1.20848 0.40871 0.41020
 C2668 C 1.21524 0.38476 0.41519
 C2669 C 1.20088 0.36201 0.41343
 C2670 C 1.22291 0.35041 0.40196
 H2671 H 1.25634 0.42298 0.37384
 H2672 H 1.22162 0.44163 0.39309
 H2673 H 1.18533 0.36369 0.40082
 H2674 H 1.19649 0.35434 0.43153
 H2675 H 1.22016 0.34530 0.38268
 H2676 H 1.23109 0.33610 0.41350
 C2677 C 0.73532 0.87544 0.40318
 C2678 C 0.75064 0.88874 0.38810
 C2679 C 0.74624 0.91380 0.38603
 C2680 C 0.72557 0.92432 0.39665
 C2681 C 0.70864 0.90996 0.40934
 C2682 C 0.71490 0.88571 0.41338
 C2683 C 0.70039 0.86325 0.40982
 C2684 C 0.72278 0.85199 0.39864
 H2685 H 0.75831 0.92519 0.37569
 H2686 H 0.72261 0.94351 0.39425
 H2687 H 0.68539 0.86579 0.39669
 H2688 H 0.69518 0.85472 0.42730
 H2689 H 0.72079 0.84794 0.37901
 H2690 H 0.73040 0.83702 0.40972
 C2691 C 0.73873 0.37740 0.90756
 C2692 C 0.75408 0.39113 0.89289
 C2693 C 0.74923 0.41610 0.89091
 C2694 C 0.72811 0.42610 0.90114
 C2695 C 0.71116 0.41127 0.91327
 C2696 C 0.71785 0.38715 0.91733
 C2697 C 0.70394 0.36439 0.91328
 C2698 C 0.72683 0.35370 0.90258
 H2699 H 0.76129 0.42777 0.88085
 H2700 H 0.72481 0.44524 0.89880
 H2701 H 0.68921 0.36668 0.89979
 H2702 H 0.69850 0.35562 0.93056
 H2703 H 0.72540 0.34974 0.88289
 H2704 H 0.73450 0.33884 0.91377
 C2705 C 0.76039 0.90709 1.12215
 C2706 C 0.75478 0.88268 1.11875
 C2707 C 0.77193 0.86830 1.10650
 C2708 C 0.79250 0.87885 1.09580
 C2709 C 0.79632 0.90410 1.09687
 C2710 C 0.78052 0.91748 1.11147
 C2711 C 0.76751 0.94054 1.10624
 C2712 C 0.74543 0.92917 1.11794
 H2713 H 0.76923 0.84902 1.10459
 H2714 H 0.80505 0.86723 1.08632
 H2715 H 0.76534 0.94393 1.08650
 H2716 H 0.77489 0.95596 1.11679
 H2717 H 0.73039 0.92598 1.10500
 H2718 H 0.74015 0.93810 1.13518
 C2719 C 0.76388 0.40544 0.62470
 C2720 C 0.74884 0.39016 0.61143
 C2721 C 0.75324 0.38808 0.58635
 C2722 C 0.77376 0.39883 0.57577
 C2723 C 0.79060 0.41158 0.59014
 C2724 C 0.78426 0.41569 0.61440
 C2725 C 0.79869 0.41232 0.63701
 C2726 C 0.77634 0.40111 0.64829
 H2727 H 0.74128 0.37756 0.57500
 H2728 H 0.77670 0.39643 0.55655
 H2729 H 0.80376 0.42983 0.64546
 H2730 H 0.81379 0.39928 0.63464
 H2731 H 0.76856 0.41222 0.66314
 H2732 H 0.77845 0.38155 0.65252
 C2733 C 0.25882 0.90978 0.61937
 C2734 C 0.25235 0.88572 0.61515
 C2735 C 0.26939 0.87085 0.60338
 C2736 C 0.29080 0.88072 0.59379
 C2737 C 0.29554 0.90579 0.59540
 C2738 C 0.27975 0.91954 0.60969
 C2739 C 0.26784 0.94320 0.60445
 C2740 C 0.24490 0.93251 0.61506
 H2741 H 0.26595 0.85175 0.60095
 H2742 H 0.30321 0.86873 0.58460
 H2743 H 0.26656 0.94706 0.58472
 H2744 H 0.27540 0.95812 0.61559
 H2745 H 0.23026 0.93017 0.60150
 H2746 H 0.23931 0.94128 0.63228
 C2747 C 0.26342 0.37517 1.09477
 C2748 C 0.24856 0.38819 1.11054
 C2749 C 0.25295 0.41320 1.11285
 C2750 C 0.27328 0.42392 1.10180
 C2751 C 0.28993 0.40978 1.08849
 C2752 C 0.28357 0.38562 1.08419
 C2753 C 0.29813 0.36304 1.08693
 C2754 C 0.27605 0.35160 1.09852
 H2755 H 0.24114 0.42438 1.12373
 H2756 H 0.27623 0.44307 1.10441
 H2757 H 0.31350 0.36525 1.09967
 H2758 H 0.30284 0.35486 1.06916
 H2759 H 0.27858 0.34714 1.11801
 H2760 H 0.26810 0.33690 1.08739
 C2761 C 0.76231 1.09464 0.87432
 C2762 C 0.75591 1.11862 0.87906
 C2763 C 0.77209 1.13259 0.89289
 C2764 C 0.79254 1.12189 0.90370
 C2765 C 0.79708 1.09682 0.90131
 C2766 C 0.78222 1.08403 0.88525
 C2767 C 0.76949 1.06047 0.88853
 C2768 C 0.74769 1.07209 0.87653
 H2769 H 0.76869 1.15164 0.89590
 H2770 H 0.80436 1.13327 0.91429
 H2771 H 0.76653 1.05588 0.90793
 H2772 H 0.77765 1.04582 0.87745
 H2773 H 0.73203 1.07423 0.88894
 H2774 H 0.74339 1.06414 0.85856
 C2775 C 0.76276 0.62400 0.40529
 C2776 C 0.74746 0.61038 0.39050
 C2777 C 0.75212 0.58537 0.38864
 C2778 C 0.77301 0.57519 0.39914
 C2779 C 0.78990 0.58986 0.41147
 C2780 C 0.78340 0.61405 0.41538
 C2781 C 0.79761 0.63665 0.41143
 C2782 C 0.77499 0.64754 0.40033
 H2783 H 0.74009 0.57378 0.37851
 H2784 H 0.77618 0.55602 0.39687
 H2785 H 0.81254 0.63419 0.39820
 H2786 H 0.80286 0.64539 0.42876
 H2787 H 0.77677 0.65141 0.38063
 H2788 H 0.76731 0.66254 0.41129
 C2789 C 0.25848 1.09086 0.38084
 C2790 C 0.25269 1.11530 0.38379
 C2791 C 0.27005 1.13018 0.39504
 C2792 C 0.29107 1.12013 0.40535
 C2793 C 0.29512 1.09490 0.40490
 C2794 C 0.27906 1.08097 0.39116
 C2795 C 0.26648 1.05795 0.39745
 C2796 C 0.24391 1.06878 0.38616
 H2797 H 0.26718 1.14948 0.39653
 H2798 H 0.30376 1.13213 0.41409
 H2799 H 0.26496 1.05510 0.41734
 H2800 H 0.27371 1.04229 0.38712
 H2801 H 0.22926 1.07222 0.39948
 H2802 H 0.23820 1.05933 0.36936
 C2803 C 0.26308 0.62420 0.90540
 C2804 C 0.24772 0.61054 0.89074
 C2805 C 0.25228 0.58549 0.88907
 C2806 C 0.27321 0.57533 0.89951
 C2807 C 0.29020 0.59006 0.91162
 C2808 C 0.28375 0.61428 0.91543
 C2809 C 0.29794 0.63686 0.91134
 C2810 C 0.27527 0.64775 0.90037
 H2811 H 0.24017 0.57386 0.87908
 H2812 H 0.27637 0.55615 0.89734
 H2813 H 0.31277 0.63437 0.89800
 H2814 H 0.30332 0.64563 0.92862
 H2815 H 0.27691 0.65161 0.88065
 H2816 H 0.26765 0.66273 0.91138
 C2817 C 1.09206 1.23967 1.12271
 C2818 C 1.11638 1.24537 1.11925
 C2819 C 1.13089 1.22814 1.10732
 C2820 C 1.12053 1.20734 1.09687
 C2821 C 1.09534 1.20347 1.09781
 C2822 C 1.08184 1.21936 1.11220
 C2823 C 1.05884 1.23230 1.10672
 C2824 C 1.07004 1.25458 1.11822
 H2825 H 1.15011 1.23098 1.10541
 H2826 H 1.13226 1.19474 1.08760
 H2827 H 1.04341 1.22496 1.11726
 H2828 H 1.05558 1.23428 1.08693
 H2829 H 1.06101 1.26001 1.13536
 H2830 H 1.07327 1.26954 1.10513
 C2831 C 1.09513 0.73619 0.62401
 C2832 C 1.11003 0.75138 0.61038
 C2833 C 1.11173 0.74693 0.58529
 C2834 C 1.10101 0.72622 0.57502
 C2835 C 1.08864 0.70930 0.58969
 C2836 C 1.08486 0.71567 0.61398
 C2837 C 1.08868 0.70126 0.63657
 C2838 C 1.09994 0.72375 0.64755
 H2839 H 1.12191 0.75898 0.57370
 H2840 H 1.10314 0.72319 0.55578
 H2841 H 1.10171 0.68617 0.63401
 H2842 H 1.07138 0.69611 0.64535
 H2843 H 1.11953 0.72175 0.65139
 H2844 H 1.08910 0.73150 0.66260
 C2845 C 0.62530 1.23646 0.59375
 C2846 C 0.61223 1.25149 0.60928
 C2847 C 0.58732 1.24698 0.61180
 C2848 C 0.57675 1.22637 0.60117
 C2849 C 0.59096 1.20955 0.58816
 C2850 C 0.61501 1.21600 0.58364
 C2851 C 0.63763 1.20162 0.58667
 C2852 C 0.64890 1.22407 0.59772
 H2853 H 0.57614 1.25893 0.62252
 H2854 H 0.55767 1.22336 0.60389
 H2855 H 0.64583 1.19657 0.56900
 H2856 H 0.63554 1.18647 0.59977
 H2857 H 0.66349 1.23193 0.58636
 H2858 H 0.65339 1.22197 0.61725
 C2859 C 0.59280 0.73989 1.12198
 C2860 C 0.61742 0.74482 1.11944
 C2861 C 0.63193 0.72680 1.10872
 C2862 C 0.62143 0.70593 1.09857
 C2863 C 0.59614 0.70269 1.09871
 C2864 C 0.58248 0.71943 1.11189
 C2865 C 0.56008 0.73266 1.10486
 C2866 C 0.57139 0.75513 1.11585
 H2867 H 0.65128 0.72903 1.10756
 H2868 H 0.63312 0.69270 1.09015
 H2869 H 0.54405 0.72616 1.11505
 H2870 H 0.55769 0.73385 1.08489
 H2871 H 0.56177 0.76157 1.13230
 H2872 H 0.57559 0.76939 1.10227
 C2873 C 0.87433 1.23642 0.90478
 C2874 C 0.87835 1.24232 0.88048
 C2875 C 0.89170 1.22577 0.86642
 C2876 C 0.90279 1.20550 0.87728
 C2877 C 0.90113 1.20154 0.90257
 C2878 C 0.88549 1.21669 0.91552
 C2879 C 0.88938 1.22991 0.93875
 C2880 C 0.87716 1.25154 0.92699
 H2881 H 0.89419 1.22880 0.84720
 H2882 H 0.91308 1.19341 0.86587
 H2883 H 0.90881 1.23292 0.94274
 H2884 H 0.87873 1.22206 0.95390
 H2885 H 0.88947 1.26716 0.92416
 H2886 H 0.85951 1.25608 0.93540
 C2887 C 0.87175 0.73306 0.40155
 C2888 C 0.88454 0.74831 0.38598
 C2889 C 0.90968 0.74479 0.38421
 C2890 C 0.92087 0.72488 0.39558
 C2891 C 0.90711 0.70778 0.40868
 C2892 C 0.88268 0.71327 0.41244
 C2893 C 0.86079 0.69787 0.40928
 C2894 C 0.84882 0.71958 0.39737
 H2895 H 0.92067 0.75701 0.37358
 H2896 H 0.94013 0.72261 0.39343
 H2897 H 0.85242 0.69289 0.42689
 H2898 H 0.86386 0.68253 0.39664
 H2899 H 0.83363 0.72706 0.40816
 H2900 H 0.84490 0.71684 0.37780
 C2901 C 0.37276 1.23640 0.40288
 C2902 C 0.38646 1.25329 0.38994
 C2903 C 0.41176 1.25019 0.39003
 C2904 C 0.42237 1.22938 0.40040
 C2905 C 0.40793 1.21113 0.41090
 C2906 C 0.38320 1.21596 0.41303
 C2907 C 0.36210 1.20045 0.40678
 C2908 C 0.35065 1.22281 0.39560
 H2909 H 0.42339 1.26335 0.38144
 H2910 H 0.44176 1.22734 0.39955
 H2911 H 0.35243 1.19392 0.42317
 H2912 H 0.36663 1.18623 0.39329
 H2913 H 0.33437 1.22903 0.40556
 H2914 H 0.34853 1.22159 0.37560
 C2915 C 0.40886 0.74294 0.88203
 C2916 C 0.38406 0.74737 0.88385
 C2917 C 0.36962 0.72874 0.89364
 C2918 C 0.38022 0.70785 0.90373
 C2919 C 0.40555 0.70511 0.90440
 C2920 C 0.41928 0.72240 0.89202
 C2921 C 0.44118 0.73583 0.90001
 C2922 C 0.42981 0.75837 0.88911
 H2923 H 0.35020 0.73052 0.89424
 H2924 H 0.36856 0.69421 0.91151
 H2925 H 0.45765 0.72981 0.89022
 H2926 H 0.44292 0.73659 0.92007
 H2927 H 0.43980 0.76531 0.87309
 H2928 H 0.42494 0.77226 0.90282
 C2929 C 1.09404 0.76196 0.87534
 C2930 C 1.11815 0.75594 0.87970
 C2931 C 1.13220 0.77262 0.89283
 C2932 C 1.12148 0.79316 0.90346
 C2933 C 1.09635 0.79727 0.90157
 C2934 C 1.08344 0.78197 0.88607
 C2935 C 1.06016 0.76903 0.89006
 C2936 C 1.07177 0.74708 0.87829
 H2937 H 1.15129 0.76950 0.89549
 H2938 H 1.13286 0.80536 0.91362
 H2939 H 1.04525 0.77683 0.87909
 H2940 H 1.05601 0.76637 0.90959
 H2941 H 1.06352 0.74232 0.86058
 H2942 H 1.07434 0.73164 0.89097
 C2943 C 1.09273 0.26212 0.37649
 C2944 C 1.11678 0.25597 0.38091
 C2945 C 1.13109 0.27282 0.39353
 C2946 C 1.12064 0.29371 0.40370
 C2947 C 1.09554 0.29798 0.40186
 C2948 C 1.08239 0.28248 0.38678
 C2949 C 1.05899 0.26988 0.39116
 C2950 C 1.07033 0.24754 0.37988
 H2951 H 1.15017 0.26959 0.39614
 H2952 H 1.13219 0.30604 0.41350
 H2953 H 1.04411 0.27758 0.38007
 H2954 H 1.05488 0.26774 0.41077
 H2955 H 1.06196 0.24244 0.36231
 H2956 H 1.07279 0.23238 0.39291
 C2957 C 0.62408 0.76309 0.40399
 C2958 C 0.61979 0.75673 0.37989
 C2959 C 0.60620 0.77294 0.36563
 C2960 C 0.59520 0.79340 0.37616
 C2961 C 0.59713 0.79785 0.40133
 C2962 C 0.61294 0.78295 0.41443
 C2963 C 0.60934 0.77012 0.43797
 C2964 C 0.62160 0.74835 0.42654
 H2965 H 0.60353 0.76954 0.34651
 H2966 H 0.58480 0.80527 0.36459
 H2967 H 0.58998 0.76705 0.44222
 H2968 H 0.62008 0.77830 0.45286
 H2969 H 0.60939 0.73259 0.42419
 H2970 H 0.63938 0.74410 0.43483
 C2971 C 0.59021 0.25940 0.87859
 C2972 C 0.61454 0.25363 0.88201
 C2973 C 0.62916 0.27104 0.89350
 C2974 C 0.61892 0.29208 0.90359
 C2975 C 0.59375 0.29609 0.90272
 C2976 C 0.58011 0.27998 0.88873
 C2977 C 0.55710 0.26728 0.89461
 C2978 C 0.56816 0.24471 0.88349
 H2979 H 0.64838 0.26819 0.89531
 H2980 H 0.63073 0.30482 0.91254
 H2981 H 0.54163 0.27450 0.88401
 H2982 H 0.55394 0.26571 0.91444
 H2983 H 0.55903 0.23899 0.86651
 H2984 H 0.57141 0.22999 0.89685
 C2985 C 0.87204 0.76623 1.09615
 C2986 C 0.88535 0.75071 1.11103
 C2987 C 0.91051 0.75431 1.11219
 C2988 C 0.92124 0.77456 1.10105
 C2989 C 0.90700 0.79188 1.08876
 C2990 C 0.88255 0.78633 1.08544
 C2991 C 0.86066 0.80154 1.08955
 C2992 C 0.84914 0.77950 1.10127
 H2993 H 0.92185 0.74194 1.12227
 H2994 H 0.94052 0.77697 1.10280
 H2995 H 0.85181 0.80690 1.07228
 H2996 H 0.86396 0.81660 1.10246
 H2997 H 0.83372 0.77220 1.09071
 H2998 H 0.84572 0.78176 1.12099
 C2999 C 0.90438 0.26188 0.62277
 C3000 C 0.88050 0.25554 0.61776
 C3001 C 0.86659 0.27198 0.60412
 C3002 C 0.87730 0.29272 0.59379
 C3003 C 0.90231 0.29721 0.59644
 C3004 C 0.91499 0.28201 0.61230
 C3005 C 0.93853 0.26930 0.60895
 C3006 C 0.92690 0.24723 0.62046
 H3007 H 0.84763 0.26860 0.60095
 H3008 H 0.86598 0.30478 0.58335
 H3009 H 0.95307 0.27724 0.62028
 H3010 H 0.94322 0.26670 0.58953
 H3011 H 0.93473 0.24256 0.63841
 H3012 H 0.92486 0.23177 0.60777
 C3013 C 0.37916 0.75757 0.59062
 C3014 C 0.38082 0.75310 0.61553
 C3015 C 0.39096 0.77145 0.63007
 C3016 C 0.40154 0.79206 0.61945
 C3017 C 0.40233 0.79479 0.59402
 C3018 C 0.38961 0.77785 0.58019
 C3019 C 0.39732 0.76423 0.55820
 C3020 C 0.38592 0.74197 0.56961
 H3021 H 0.39148 0.76965 0.64957
 H3022 H 0.40959 0.80549 0.63117
 H3023 H 0.41727 0.76295 0.55650
 H3024 H 0.38777 0.77050 0.54164
 H3025 H 0.39923 0.72773 0.57453
 H3026 H 0.36985 0.73543 0.55952
 C3027 C 0.40565 0.26023 1.11929
 C3028 C 0.38191 0.25354 1.11419
 C3029 C 0.36768 0.26986 1.10074
 C3030 C 0.37797 0.29092 1.09071
 C3031 C 0.40288 0.29586 1.09345
 C3032 C 0.41587 0.28068 1.10907
 C3033 C 0.43962 0.26842 1.10550
 C3034 C 0.42840 0.24600 1.11674
 H3035 H 0.34878 0.26616 1.09756
 H3036 H 0.36640 0.30292 1.08047
 H3037 H 0.45405 0.27645 1.11692
 H3038 H 0.44432 0.26618 1.08604
 H3039 H 0.43634 0.24121 1.13460
 H3040 H 0.42659 0.23068 1.10383
 C3041 C 1.09258 1.12367 0.76001
 C3042 C 1.11667 1.11978 0.75333
 C3043 C 1.13136 1.10718 0.77011
 C3044 C 1.12147 1.09678 0.79122
 C3045 C 1.09650 1.09829 0.79605
 C3046 C 1.08283 1.11313 0.78066
 C3047 C 1.05926 1.10829 0.76859
 C3048 C 1.06986 1.11976 0.74596
 H3049 H 1.15045 1.10476 0.76689
 H3050 H 1.13341 1.08714 0.80336
 H3051 H 1.04434 1.11907 0.77661
 H3052 H 1.05552 1.08864 0.76658
 H3053 H 1.06094 1.13709 0.74100
 H3054 H 1.07224 1.10679 0.73076
 C3055 C 1.09656 0.62711 0.26312
 C3056 C 1.11150 0.61373 0.24761
 C3057 C 1.11321 0.58858 0.25213
 C3058 C 1.10255 0.57813 0.27286
 C3059 C 1.09016 0.59253 0.28993
 C3060 C 1.08633 0.61682 0.28367
 C3061 C 1.08995 0.63915 0.29836
 C3062 C 1.10121 0.65045 0.27597
 H3063 H 1.12325 0.57686 0.24012
 H3064 H 1.10471 0.55889 0.27574
 H3065 H 1.10295 0.63646 0.31347
 H3066 H 1.07258 0.64775 0.30358
 H3067 H 1.12077 0.65434 0.27806
 H3068 H 1.09031 0.66557 0.26844
 C3069 C 0.59202 1.12422 0.25983
 C3070 C 0.61581 1.11915 0.25287
 C3071 C 0.63015 1.10605 0.26955
 C3072 C 0.62005 1.09625 0.29082
 C3073 C 0.59519 1.09875 0.29584
 C3074 C 0.58202 1.11417 0.28060
 C3075 C 0.55812 1.11043 0.26879
 C3076 C 0.56899 1.12138 0.24604
 H3077 H 0.64908 1.10280 0.26611
 H3078 H 0.63174 1.08621 0.30289
 H3079 H 0.54379 1.12191 0.27695
 H3080 H 0.55344 1.09098 0.26685
 H3081 H 0.56083 1.13910 0.24115
 H3082 H 0.57059 1.10831 0.23083
 C3083 C 0.62318 0.59367 0.76180
 C3084 C 0.60961 0.60870 0.74665
 C3085 C 0.58479 0.61110 0.75175
 C3086 C 0.57484 0.60088 0.77295
 C3087 C 0.58957 0.58833 0.78971
 C3088 C 0.61348 0.58389 0.78276
 C3089 C 0.63636 0.58739 0.79658
 C3090 C 0.64701 0.59810 0.77360
 H3091 H 0.57321 0.62144 0.73981
 H3092 H 0.55582 0.60353 0.77647
 H3093 H 0.64483 0.56992 0.80182
 H3094 H 0.63445 0.60073 0.81153
 H3095 H 0.66156 0.58676 0.76566
 H3096 H 0.65132 0.61767 0.77518
 C3097 C 0.88074 0.90831 0.75675
 C3098 C 0.88410 0.88381 0.75141
 C3099 C 0.89609 0.86954 0.76886
 C3100 C 0.90650 0.88024 0.78954
 C3101 C 0.90544 0.90555 0.79314
 C3102 C 0.89116 0.91886 0.77697
 C3103 C 0.89670 0.94170 0.76367
 C3104 C 0.88529 0.93015 0.74148
 H3105 H 0.89793 0.85022 0.76637
 H3106 H 0.91573 0.86867 0.80236
 H3107 H 0.91640 0.94489 0.76171
 H3108 H 0.88621 0.95732 0.77074
 H3109 H 0.89836 0.92664 0.72660
 H3110 H 0.86827 0.93917 0.73582
 C3111 C 0.90488 0.37673 0.25977
 C3112 C 0.88128 0.38236 0.25260
 C3113 C 0.86765 0.39716 0.26836
 C3114 C 0.87822 0.40759 0.28907
 C3115 C 0.90296 0.40420 0.29431
 C3116 C 0.91541 0.38749 0.27986
 C3117 C 0.93933 0.38970 0.26765
 C3118 C 0.92786 0.37795 0.24565
 H3119 H 0.84887 0.40103 0.26473
 H3120 H 0.86691 0.41867 0.30053
 H3121 H 0.95331 0.37815 0.27630
 H3122 H 0.94469 0.40883 0.26457
 H3123 H 0.93532 0.35970 0.24172
 H3124 H 0.92660 0.39024 0.22973
 C3125 C 0.37786 0.90960 0.25881
 C3126 C 0.39036 0.89228 0.24515
 C3127 C 0.41475 0.88815 0.25128
 C3128 C 0.42507 0.89907 0.27188
 C3129 C 0.41109 0.91378 0.28748
 C3130 C 0.38784 0.91979 0.27947
 C3131 C 0.36438 0.91928 0.29275
 C3132 C 0.35342 0.90817 0.27019
 H3133 H 0.42586 0.87615 0.24055
 H3134 H 0.44377 0.89516 0.27584
 H3135 H 0.35736 0.93772 0.29657
 H3136 H 0.36464 0.90680 0.30856
 H3137 H 0.34018 0.92028 0.26113
 H3138 H 0.34723 0.88923 0.27289
 C3139 C 0.37880 0.40935 0.75860
 C3140 C 0.39236 0.39427 0.74350
 C3141 C 0.41726 0.39222 0.74834
 C3142 C 0.42732 0.40278 0.76930
 C3143 C 0.41263 0.41532 0.78609
 C3144 C 0.38862 0.41946 0.77932
 C3145 C 0.36589 0.41594 0.79342
 C3146 C 0.35512 0.40486 0.77071
 H3147 H 0.42881 0.38182 0.73645
 H3148 H 0.44639 0.40031 0.77267
 H3149 H 0.35732 0.43339 0.79849
 H3150 H 0.36805 0.40279 0.80854
 H3151 H 0.34040 0.41599 0.76277
 H3152 H 0.35098 0.38528 0.77262
 C3153 C 1.09144 0.87670 1.24000
 C3154 C 1.11522 0.88170 1.24669
 C3155 C 1.12956 0.89477 1.23018
 C3156 C 1.11936 0.90478 1.20906
 C3157 C 1.09441 0.90239 1.20423
 C3158 C 1.08129 0.88690 1.21943
 C3159 C 1.05755 0.89064 1.23164
 C3160 C 1.06868 0.87943 1.25418
 H3161 H 1.14850 0.89782 1.23384
 H3162 H 1.13098 0.91488 1.19699
 H3163 H 1.04309 0.87930 1.22359
 H3164 H 1.05294 0.91009 1.23381
 H3165 H 1.06064 0.86166 1.25903
 H3166 H 1.07052 0.89236 1.26948
 C3167 C 1.12262 0.40498 0.73784
 C3168 C 1.10932 0.38965 0.75290
 C3169 C 1.08444 0.38732 0.74818
 C3170 C 1.07411 0.39799 0.72736
 C3171 C 1.08854 0.41091 0.71063
 C3172 C 1.11257 0.41517 0.71726
 C3173 C 1.13524 0.41193 0.70299
 C3174 C 1.14626 0.40075 0.72558
 H3175 H 1.07309 0.37675 0.76011
 H3176 H 1.05505 0.39539 0.72413
 H3177 H 1.14363 0.42949 0.69799
 H3178 H 1.13312 0.39890 0.68782
 H3179 H 1.16092 0.41190 0.73351
 H3180 H 1.15052 0.38120 0.72355
 C3181 C 0.58822 0.87935 0.74240
 C3182 C 0.61250 0.88269 0.74831
 C3183 C 0.62742 0.89358 0.73069
 C3184 C 0.61750 0.90337 0.70933
 C3185 C 0.59237 0.90273 0.70517
 C3186 C 0.57843 0.88917 0.72145
 C3187 C 0.55532 0.89546 0.73380
 C3188 C 0.56604 0.88473 0.75678
 H3189 H 0.64663 0.89528 0.73366
 H3190 H 0.62949 0.91197 0.69648
 H3191 H 0.53987 0.88486 0.72664
 H3192 H 0.55228 0.91531 0.73489
 H3193 H 0.55673 0.86797 0.76281
 H3194 H 0.56923 0.89833 0.77124
 C3195 C 0.59294 0.37341 1.23875
 C3196 C 0.61641 0.37937 1.24602
 C3197 C 0.63008 0.39390 1.23005
 C3198 C 0.61958 0.40403 1.20914
 C3199 C 0.59484 0.40063 1.20394
 C3200 C 0.58243 0.38393 1.21846
 C3201 C 0.55840 0.38600 1.23047
 C3202 C 0.56983 0.37451 1.25267
 H3203 H 0.64883 0.39788 1.23371
 H3204 H 0.63088 0.41499 1.19756
 H3205 H 0.54461 0.37427 1.22182
 H3206 H 0.55280 0.40511 1.23333
 H3207 H 0.56256 0.35621 1.25671
 H3208 H 0.57082 0.38691 1.26849
 C3209 C 0.90436 1.12588 1.23656
 C3210 C 0.88878 1.11301 1.25173
 C3211 C 0.88668 1.08789 1.24779
 C3212 C 0.89766 1.07689 1.22753
 C3213 C 0.91072 1.09084 1.21051
 C3214 C 0.91489 1.11514 1.21648
 C3215 C 0.91198 1.13745 1.20146
 C3216 C 0.90045 1.14921 1.22347
 H3217 H 0.87589 1.07685 1.25983
 H3218 H 0.89515 1.05768 1.22487
 H3219 H 0.89925 1.13489 1.18611
 H3220 H 0.92960 1.14566 1.19652
 H3221 H 0.88102 1.15351 1.22092
 H3222 H 0.91148 1.16412 1.23116
 C3223 C 0.90662 0.62415 0.73763
 C3224 C 0.89172 0.61083 0.75308
 C3225 C 0.88970 0.58577 0.74880
 C3226 C 0.90012 0.57525 0.72801
 C3227 C 0.91248 0.58963 0.71084
 C3228 C 0.91657 0.61388 0.71703
 C3229 C 0.91284 0.63638 0.70248
 C3230 C 0.90195 0.64763 0.72507
 H3231 H 0.87947 0.57442 0.76104
 H3232 H 0.89776 0.55605 0.72512
 H3233 H 0.89962 0.63389 0.68755
 H3234 H 0.93017 0.64490 0.69704
 H3235 H 0.88239 0.65171 0.72328
 H3236 H 0.91305 0.66256 0.73261
 C3237 C 0.40752 1.12255 0.73879
 C3238 C 0.39297 1.10877 0.75422
 C3239 C 0.39123 1.08377 0.74947
 C3240 C 0.40153 1.07378 0.72833
 C3241 C 0.41353 1.08864 0.71129
 C3242 C 0.41739 1.11279 0.71791
 C3243 C 0.41326 1.13549 0.70380
 C3244 C 0.40244 1.14619 0.72669
 H3245 H 0.38128 1.07206 0.76159
 H3246 H 0.39934 1.05462 0.72507
 H3247 H 0.39993 1.13309 0.68894
 H3248 H 0.43044 1.14431 0.69836
 H3249 H 0.38281 1.15005 0.72514
 H3250 H 0.41342 1.16113 0.73437
 C3251 C 0.37744 0.59278 1.23966
 C3252 C 0.39134 0.60724 1.25502
 C3253 C 0.41622 0.60901 1.25000
 C3254 C 0.42596 0.59878 1.22871
 C3255 C 0.41097 0.58683 1.21179
 C3256 C 0.38694 0.58299 1.21862
 C3257 C 0.36420 0.58728 1.20477
 C3258 C 0.35376 0.59800 1.22783
 H3259 H 0.42803 0.61883 1.26208
 H3260 H 0.44505 0.60092 1.22526
 H3261 H 0.35533 0.57011 1.19934
 H3262 H 0.36649 0.60074 1.18996
 H3263 H 0.33891 0.58695 1.23561
 H3264 H 0.34993 0.61769 1.22643
 C3265 C 1.09132 1.24146 0.87972
 C3266 C 1.10916 1.25468 0.89183
 C3267 C 1.11435 1.24782 0.91592
 C3268 C 1.10377 1.22707 0.92630
 C3269 C 1.08833 1.21197 0.91261
 C3270 C 1.08146 1.22061 0.88969
 C3271 C 1.08101 1.20801 0.86576
 C3272 C 1.09173 1.23078 0.85486
 H3273 H 1.12684 1.25818 0.92680
 H3274 H 1.10849 1.22266 0.94479
 H3275 H 1.06234 1.20445 0.85934
 H3276 H 1.09341 1.19221 0.86510
 H3277 H 1.07917 1.24021 0.84231
 H3278 H 1.11035 1.22822 0.84781
 C3279 C 1.12311 0.73926 0.40842
 C3280 C 1.11699 0.74733 0.38514
 C3281 C 1.10228 0.73196 0.37104
 C3282 C 1.09231 0.71072 0.38096
 C3283 C 1.09605 0.70456 0.40555
 C3284 C 1.11274 0.71867 0.41837
 C3285 C 1.11080 0.72984 0.44289
 C3286 C 1.12215 0.75237 0.43207
 H3287 H 1.09814 0.73629 0.35238
 H3288 H 1.08130 0.69958 0.36930
 H3289 H 1.12261 0.72076 0.45641
 H3290 H 1.09179 0.73252 0.44872
 H3291 H 1.14044 0.75615 0.43938
 H3292 H 1.10976 0.76820 0.43165
 C3293 C 0.59092 1.24168 0.38003
 C3294 C 0.60818 1.25533 0.39252
 C3295 C 0.61299 1.24862 0.41676
 C3296 C 0.60271 1.22758 0.42690
 C3297 C 0.58789 1.21220 0.41287
 C3298 C 0.58132 1.22066 0.38982
 C3299 C 0.58163 1.20795 0.36596
 C3300 C 0.59211 1.23090 0.35522
 H3301 H 0.62505 1.25922 0.42789
 H3302 H 0.60712 1.22315 0.44546
 H3303 H 0.56318 1.20396 0.35918
 H3304 H 0.59435 1.19239 0.36565
 H3305 H 0.57963 1.24000 0.34234
 H3306 H 0.61092 1.22868 0.34858
 C3307 C 0.62416 0.73880 0.90772
 C3308 C 0.61024 0.75458 0.89367
 C3309 C 0.58518 0.75027 0.89267
 C3310 C 0.57520 0.72923 0.90313
 C3311 C 0.59008 0.71188 0.91462
 C3312 C 0.61438 0.71804 0.91782
 C3313 C 0.63662 0.70360 0.91293
 C3314 C 0.64735 0.72634 0.90184
 H3315 H 0.57336 0.76265 0.88319
 H3316 H 0.55598 0.72628 0.90147
 H3317 H 0.63357 0.68890 0.89955
 H3318 H 0.64584 0.69793 0.92989
 H3319 H 0.65055 0.72486 0.88200
 H3320 H 0.66272 0.73367 0.91244
 C3321 C 0.87801 1.23869 1.09208
 C3322 C 0.88252 1.24542 1.11605
 C3323 C 0.89549 1.22903 1.13066
 C3324 C 0.90571 1.20794 1.12058
 C3325 C 0.90360 1.20299 1.09551
 C3326 C 0.88837 1.21818 1.08208
 C3327 C 0.89244 1.23034 1.05826
 C3328 C 0.88107 1.25283 1.06922
 H3329 H 0.89822 1.23269 1.14972
 H3330 H 0.91565 1.19594 1.13243
 H3331 H 0.88137 1.22227 1.04357
 H3332 H 0.91191 1.23253 1.05394
 H3333 H 0.86347 1.25762 1.06083
 H3334 H 0.89392 1.26812 1.07124
 C3335 C 0.90387 0.73452 0.62621
 C3336 C 0.88926 0.75012 0.61269
 C3337 C 0.88823 0.74641 0.58742
 C3338 C 0.89918 0.72597 0.57681
 C3339 C 0.91118 0.70862 0.59127
 C3340 C 0.91442 0.71430 0.61581
 C3341 C 0.91018 0.69923 0.63788
 C3342 C 0.89861 0.72139 0.64927
 H3343 H 0.87831 0.75877 0.57592
 H3344 H 0.89748 0.72344 0.55745
 H3345 H 0.92731 0.69384 0.64685
 H3346 H 0.89726 0.68421 0.63461
 H3347 H 0.90910 0.72870 0.66477
 H3348 H 0.87895 0.71925 0.65264
 C3349 C 0.37694 1.23780 0.59444
 C3350 C 0.38988 1.25272 0.61029
 C3351 C 0.41473 1.24765 0.61318
 C3352 C 0.42524 1.22699 0.60252
 C3353 C 0.41112 1.21048 0.58909
 C3354 C 0.38721 1.21726 0.58435
 C3355 C 0.36452 1.20299 0.58690
 C3356 C 0.35322 1.22541 0.59795
 H3357 H 0.42610 1.25923 0.62405
 H3358 H 0.44424 1.22373 0.60549
 H3359 H 0.36634 1.18772 0.59991
 H3360 H 0.35656 1.19815 0.56907
 H3361 H 0.34842 1.22317 0.61739
 H3362 H 0.33880 1.23335 0.58643
 C3363 C 0.37840 0.74030 1.09301
 C3364 C 0.38529 0.74866 1.11595
 C3365 C 0.40066 0.73357 1.12968
 C3366 C 0.41029 0.71218 1.11972
 C3367 C 0.40563 0.70563 1.09537
 C3368 C 0.38847 0.71960 1.08297
 C3369 C 0.38954 0.73058 1.05826
 C3370 C 0.37851 0.75320 1.06920
 H3371 H 0.40546 0.73818 1.14809
 H3372 H 0.42169 0.70123 1.13121
 H3373 H 0.37729 0.72141 1.04526
 H3374 H 0.40833 0.73321 1.05175
 H3375 H 0.35997 0.75691 1.06248
 H3376 H 0.39087 0.76903 1.06901
 C3377 C 0.90743 0.76249 0.87635
 C3378 C 0.88352 0.75606 0.88105
 C3379 C 0.86921 0.77269 0.89401
 C3380 C 0.87953 0.79367 0.90412
 C3381 C 0.90456 0.79827 0.90197
 C3382 C 0.91768 0.78291 0.88664
 C3383 C 0.94125 0.77044 0.89066
 C3384 C 0.93001 0.74808 0.87935
 H3385 H 0.85021 0.76924 0.89687
 H3386 H 0.86790 0.80583 0.91406
 H3387 H 0.94561 0.76820 0.91020
 H3388 H 0.95594 0.77831 0.87944
 H3389 H 0.92785 0.73282 0.89232
 H3390 H 0.93821 0.74317 0.86165
 C3391 C 0.87942 0.25987 0.40709
 C3392 C 0.88223 0.25445 0.38250
 C3393 C 0.89384 0.27188 0.36789
 C3394 C 0.90442 0.29260 0.37830
 C3395 C 0.90388 0.29631 0.40364
 C3396 C 0.88998 0.28015 0.41734
 C3397 C 0.89610 0.26700 0.44015
 C3398 C 0.88454 0.24476 0.42894
 H3399 H 0.89529 0.26932 0.34851
 H3400 H 0.91337 0.30538 0.36647
 H3401 H 0.88594 0.27409 0.45599
 H3402 H 0.91588 0.26514 0.44291
 H3403 H 0.86776 0.23908 0.43838
 H3404 H 0.89759 0.22994 0.42521
 C3405 C 0.40744 0.75971 0.37660
 C3406 C 0.38344 0.75302 0.38097
 C3407 C 0.36898 0.76976 0.39383
 C3408 C 0.37906 0.79083 0.40400
 C3409 C 0.40402 0.79562 0.40210
 C3410 C 0.41740 0.78028 0.38698
 C3411 C 0.44107 0.76820 0.39134
 C3412 C 0.43025 0.74566 0.38004
 H3413 H 0.34994 0.76654 0.39659
 H3414 H 0.36726 0.80294 0.41381
 H3415 H 0.44522 0.76612 0.41094
 H3416 H 0.45577 0.77622 0.38024
 H3417 H 0.42815 0.73044 0.39307
 H3418 H 0.43881 0.74077 0.36250
 C3419 C 0.40469 0.26313 0.87383
 C3420 C 0.38061 0.25705 0.87818
 C3421 C 0.36650 0.27371 0.89133
 C3422 C 0.37712 0.29429 0.90197
 C3423 C 0.40224 0.29847 0.90009
 C3424 C 0.41521 0.28317 0.88458
 C3425 C 0.43853 0.27023 0.88855
 C3426 C 0.42700 0.24828 0.87676
 H3427 H 0.34742 0.27054 0.89401
 H3428 H 0.36566 0.30645 0.91211
 H3429 H 0.44270 0.26757 0.90808
 H3430 H 0.45343 0.27806 0.87758
 H3431 H 0.42448 0.23283 0.88944
 H3432 H 0.43527 0.24354 0.85904
 C3433 C 1.09415 0.76138 1.12571
 C3434 C 1.11102 0.74725 1.11316
 C3435 C 1.11415 0.75239 1.08824
 C3436 C 1.10279 0.77249 1.07736
 C3437 C 1.08845 0.78854 1.09116
 C3438 C 1.08341 0.78152 1.11509
 C3439 C 1.08466 0.79579 1.13799
 C3440 C 1.09638 0.77384 1.14962
 H3441 H 1.12577 0.74131 1.07708
 H3442 H 1.10602 0.77573 1.05831
 H3443 H 1.06649 0.79980 1.14551
 H3444 H 1.09692 0.81163 1.13654
 H3445 H 1.08491 0.76533 1.16377
 H3446 H 1.11546 0.77694 1.15499
 C3447 C 1.12065 0.25955 0.59175
 C3448 C 1.10760 0.24481 0.60776
 C3449 C 1.08301 0.25063 0.61127
 C3450 C 1.07290 0.27171 0.60093
 C3451 C 1.08721 0.28795 0.58727
 C3452 C 1.11081 0.28051 0.58201
 C3453 C 1.13397 0.29406 0.58424
 C3454 C 1.14479 0.27119 0.59490
 H3455 H 1.07156 0.23927 0.62233
 H3456 H 1.05406 0.27545 0.60432
 H3457 H 1.13285 0.30923 0.59739
 H3458 H 1.14176 0.29884 0.56630
 H3459 H 1.15001 0.27308 0.61426
 H3460 H 1.15877 0.26296 0.58305
 C3461 C 0.62430 0.76355 0.59455
 C3462 C 0.61085 0.74789 0.60916
 C3463 C 0.58570 0.75163 0.61020
 C3464 C 0.57512 0.77208 0.59916
 C3465 C 0.58949 0.78942 0.58706
 C3466 C 0.61394 0.78377 0.58392
 C3467 C 0.63582 0.79886 0.58831
 C3468 C 0.64717 0.77670 0.59998
 H3469 H 0.57426 0.73923 0.62010
 H3470 H 0.55583 0.77459 0.60082
 H3471 H 0.63243 0.81385 0.60129
 H3472 H 0.64483 0.80429 0.57116
 H3473 H 0.65040 0.77881 0.61975
 H3474 H 0.66270 0.76944 0.58951
 C3475 C 0.62318 0.26295 1.09512
 C3476 C 0.60960 0.24706 1.10935
 C3477 C 0.58448 0.25101 1.11048
 C3478 C 0.57405 0.27176 1.09981
 C3479 C 0.58855 0.28918 1.08798
 C3480 C 0.61298 0.28343 1.08484
 C3481 C 0.63492 0.29832 1.08960
 C3482 C 0.64611 0.27588 1.10087
 H3483 H 0.57293 0.23851 1.12011
 H3484 H 0.55479 0.27439 1.10149
 H3485 H 0.63157 0.31307 1.10285
 H3486 H 0.64403 0.30403 1.07259
 H3487 H 0.64928 0.27759 1.12069
 H3488 H 0.66163 0.26874 1.09032
 C3489 C 1.23757 1.12404 0.90624
 C3490 C 1.25317 1.11034 0.89183
 C3491 C 1.24902 1.08519 0.89063
 C3492 C 1.22825 1.07492 0.90125
 C3493 C 1.21101 1.08962 0.91308
 C3494 C 1.21705 1.11399 0.91646
 C3495 C 1.20248 1.13627 0.91196
 C3496 C 1.22496 1.14729 0.90075
 H3497 H 1.26131 1.07354 0.88085
 H3498 H 1.22541 1.05566 0.89943
 H3499 H 1.19696 1.14529 0.92907
 H3500 H 1.18769 1.13328 0.89869
 H3501 H 1.23232 1.16261 0.91145
 H3502 H 1.22324 1.15074 0.88097
 C3503 C 1.23614 0.62457 0.40506
 C3504 C 1.25160 0.61134 0.39010
 C3505 C 1.24766 0.58619 0.38836
 C3506 C 1.22722 0.57546 0.39910
 C3507 C 1.21008 0.58970 0.41157
 C3508 C 1.21590 0.61408 0.41537
 C3509 C 1.20101 0.63627 0.41148
 C3510 C 1.22321 0.64777 0.40019
 H3511 H 1.25990 0.57488 0.37813
 H3512 H 1.22455 0.55621 0.39690
 H3513 H 1.19561 0.64490 0.42884
 H3514 H 1.18608 0.63336 0.39837
 H3515 H 1.23056 0.66297 0.41107
 H3516 H 1.22118 0.65157 0.38050
 C3517 C 0.73735 1.09335 0.37543
 C3518 C 0.75302 1.10772 0.38906
 C3519 C 0.74889 1.10902 0.41425
 C3520 C 0.72810 1.09852 0.42464
 C3521 C 0.71082 1.08670 0.41000
 C3522 C 0.71684 1.08325 0.38558
 C3523 C 0.70224 1.08769 0.36328
 C3524 C 0.72471 1.09879 0.35214
 H3525 H 0.76121 1.11882 0.42584
 H3526 H 0.72529 1.10041 0.44394
 H3527 H 0.68745 1.10096 0.36625
 H3528 H 0.69670 1.07058 0.35431
 H3529 H 0.72300 1.11852 0.34863
 H3530 H 0.73203 1.08804 0.33680
 C3531 C 0.74548 0.61517 0.91294
 C3532 C 0.75141 0.61187 0.88853
 C3533 C 0.73646 0.59647 0.87491
 C3534 C 0.71519 0.58682 0.88486
 C3535 C 0.70824 0.59166 0.90911
 C3536 C 0.72457 0.60544 0.92298
 C3537 C 0.72103 0.62750 0.93838
 C3538 C 0.74393 0.63771 0.92755
 H3539 H 0.74032 0.59297 0.85602
 H3540 H 0.70370 0.57666 0.87280
 H3541 H 0.72272 0.62345 0.95804
 H3542 H 0.70484 0.63822 0.93317
 H3543 H 0.75891 0.63917 0.94086
 H3544 H 0.74064 0.65411 0.91634
 C3545 C 1.23899 0.90668 1.12218
 C3546 C 1.24588 0.88284 1.11746
 C3547 C 1.22963 0.86821 1.10445
 C3548 C 1.20848 0.87819 1.09434
 C3549 C 1.20335 0.90317 1.09659
 C3550 C 1.21843 0.91659 1.11189
 C3551 C 1.23039 0.94045 1.10785
 C3552 C 1.25292 0.92957 1.11916
 H3553 H 1.23347 0.84924 1.10157
 H3554 H 1.19659 0.86633 1.08438
 H3555 H 1.22227 0.95503 1.11905
 H3556 H 1.23252 0.94486 1.08830
 H3557 H 1.25766 0.93786 1.13686
 H3558 H 1.26817 0.92769 1.10621
 C3559 C 1.23666 0.40296 0.62530
 C3560 C 1.24265 0.37875 0.62115
 C3561 C 1.22608 0.36465 0.60793
 C3562 C 1.20562 0.37539 0.59712
 C3563 C 1.20151 0.40060 0.59893
 C3564 C 1.21677 0.41356 0.61442
 C3565 C 1.22975 0.43686 0.61033
 C3566 C 1.25157 0.42524 0.62227
 H3567 H 1.22920 0.34550 0.60536
 H3568 H 1.19351 0.36396 0.58693
 H3569 H 1.22199 0.45191 0.62117
 H3570 H 1.23247 0.44092 0.59078
 H3571 H 1.25627 0.43361 0.63994
 H3572 H 1.26700 0.42256 0.60967
 C3573 C 0.73977 0.90780 0.61935
 C3574 C 0.74627 0.88381 0.61481
 C3575 C 0.72953 0.86922 0.60236
 C3576 C 0.70831 0.87933 0.59258
 C3577 C 0.70353 0.90438 0.59465
 C3578 C 0.71908 0.91782 0.60943
 C3579 C 0.73117 0.94149 0.60479
 C3580 C 0.75385 0.93051 0.61570
 H3581 H 0.73302 0.85015 0.59968
 H3582 H 0.69605 0.86752 0.58301
 H3583 H 0.72345 0.95629 0.61599
 H3584 H 0.73287 0.94563 0.58514
 H3585 H 0.75911 0.93897 0.63317
 H3586 H 0.76877 0.92830 0.60241
 C3587 C 0.73619 0.37533 1.09330
 C3588 C 0.75066 0.38820 1.10946
 C3589 C 0.74543 0.41290 1.11291
 C3590 C 0.72469 0.42338 1.10244
 C3591 C 0.70837 0.40922 1.08876
 C3592 C 0.71553 0.38547 1.08343
 C3593 C 0.70187 0.36227 1.08554
 C3594 C 0.72454 0.35118 1.09629
 H3595 H 0.75694 0.42394 1.12422
 H3596 H 0.72121 0.44232 1.10581
 H3597 H 0.69715 0.35458 1.06756
 H3598 H 0.68665 0.36344 1.09862
 H3599 H 0.73288 0.33725 1.08445
 H3600 H 0.72251 0.34586 1.11562
 C3601 C 0.76399 1.12499 1.09547
 C3602 C 0.74912 1.11215 1.11135
 C3603 C 0.75342 1.08714 1.11397
 C3604 C 0.77371 1.07624 1.10308
 C3605 C 0.79039 1.09019 1.08964
 C3606 C 0.78413 1.11436 1.08508
 C3607 C 0.79875 1.13689 1.08768
 C3608 C 0.77666 1.14852 1.09906
 H3609 H 0.74156 1.07611 1.12494
 H3610 H 0.77659 1.05709 1.10588
 H3611 H 0.80358 1.14493 1.06987
 H3612 H 0.81405 1.13467 1.10053
 H3613 H 0.76879 1.16318 1.08774
 H3614 H 0.77911 1.15311 1.11851
 C3615 C 0.76529 0.62641 0.59694
 C3616 C 0.75005 0.61329 0.61223
 C3617 C 0.75408 0.58817 0.61418
 C3618 C 0.77442 0.57737 0.60330
 C3619 C 0.79141 0.59153 0.59049
 C3620 C 0.78546 0.61587 0.58651
 C3621 C 0.80028 0.63814 0.58996
 C3622 C 0.77816 0.64969 0.60138
 H3623 H 0.74195 0.57692 0.62463
 H3624 H 0.77710 0.55812 0.60560
 H3625 H 0.80543 0.64663 0.57244
 H3626 H 0.81538 0.63539 0.60294
 H3627 H 0.77060 0.66476 0.59040
 H3628 H 0.78039 0.65368 0.62100
 C3629 C 0.27013 1.10453 0.62968
 C3630 C 0.25346 1.11742 0.61565
 C3631 C 0.25866 1.12011 0.59081
 C3632 C 0.27864 1.10844 0.58028
 C3633 C 0.29448 1.09396 0.59427
 C3634 C 0.29004 1.09312 0.61937
 C3635 C 0.28773 1.07215 0.63644
 C3636 C 0.26631 1.08486 0.64774
 H3637 H 0.24667 1.13021 0.57910
 H3638 H 0.28093 1.11008 0.56089
 H3639 H 0.30339 1.07066 0.64892
 H3640 H 0.28246 1.05508 0.62724
 H3641 H 0.26976 1.09101 0.66659
 H3642 H 0.24908 1.07497 0.64496
 C3643 C 0.26199 0.62327 1.09235
 C3644 C 0.24628 0.60972 1.10679
 C3645 C 0.25080 0.58466 1.10876
 C3646 C 0.27195 0.57441 1.09885
 C3647 C 0.28921 0.58904 1.08696
 C3648 C 0.28284 0.61324 1.08282
 C3649 C 0.29699 0.63583 1.08693
 C3650 C 0.27414 0.64682 1.09741
 H3651 H 0.23849 0.57310 1.11863
 H3652 H 0.27502 0.55523 1.10123
 H3653 H 0.30267 0.64449 1.06966
 H3654 H 0.31159 0.63340 1.10053
 H3655 H 0.26676 0.66177 1.08615
 H3656 H 0.27546 0.65079 1.11711
 C3657 C 0.76158 0.90797 0.87542
 C3658 C 0.75532 0.88396 0.88025
 C3659 C 0.77195 0.86980 0.89337
 C3660 C 0.79270 0.88037 0.90359
 C3661 C 0.79706 0.90549 0.90133
 C3662 C 0.78180 0.91846 0.88577
 C3663 C 0.76922 0.94205 0.88950
 C3664 C 0.74705 0.93056 0.87815
 H3665 H 0.76865 0.85073 0.89634
 H3666 H 0.80486 0.86889 0.91374
 H3667 H 0.77706 0.95672 0.87821
 H3668 H 0.76685 0.94655 0.90899
 H3669 H 0.74220 0.93863 0.86035
 H3670 H 0.73177 0.92839 0.89103
 C3671 C 0.76057 0.40776 0.37694
 C3672 C 0.75373 0.38408 0.38250
 C3673 C 0.76991 0.36996 0.39619
 C3674 C 0.79091 0.38032 0.40611
 C3675 C 0.79593 0.40526 0.40308
 C3676 C 0.78097 0.41810 0.38709
 C3677 C 0.76884 0.44204 0.39008
 C3678 C 0.74650 0.43070 0.37892
 H3679 H 0.76612 0.35108 0.39971
 H3680 H 0.80275 0.36880 0.41656
 H3681 H 0.77702 0.45624 0.37842
 H3682 H 0.76646 0.44714 0.40941
 H3683 H 0.74192 0.43833 0.36085
 H3684 H 0.73111 0.42923 0.39175
 C3685 C 0.25872 0.91035 0.37963
 C3686 C 0.25194 0.88654 0.38473
 C3687 C 0.26862 0.87189 0.39722
 C3688 C 0.29007 0.88182 0.40658
 C3689 C 0.29511 0.90679 0.40413
 C3690 C 0.27963 0.92024 0.38920
 C3691 C 0.26786 0.94416 0.39344
 C3692 C 0.24496 0.93333 0.38293
 H3693 H 0.26492 0.85291 0.40025
 H3694 H 0.30227 0.86993 0.41620
 H3695 H 0.27568 0.95864 0.38188
 H3696 H 0.26636 0.94867 0.41301
 H3697 H 0.23967 0.94155 0.36532
 H3698 H 0.23012 0.93157 0.39637
 C3699 C 0.26135 0.40773 0.87520
 C3700 C 0.25470 0.38399 0.88083
 C3701 C 0.27127 0.36988 0.89405
 C3702 C 0.29238 0.38034 0.90361
 C3703 C 0.29714 0.40533 0.90067
 C3704 C 0.28190 0.41814 0.88496
 C3705 C 0.26982 0.44208 0.88809
 C3706 C 0.24729 0.43067 0.87739
 H3707 H 0.26767 0.35096 0.89758
 H3708 H 0.30447 0.36887 0.91386
 H3709 H 0.27779 0.45623 0.87624
 H3710 H 0.26779 0.44724 0.90746
 H3711 H 0.24238 0.43827 0.85940
 H3712 H 0.23215 0.42921 0.89052
   
