data_POSCAR
  _audit_creation_date              2014-09-24
  _audit_creation_method            'ToBaCCo'
  _symmetry_space_group_name_H-M    'P1'
  _symmetry_Int_Tables_number       1
  _symmetry_cell_setting            triclinic
  loop_
  _symmetry_equiv_pos_as_xyz
 x,y,z
_cell_length_a 60.3413
_cell_length_b 60.2482
_cell_length_c 60.4385
_cell_angle_alpha 90.012600
_cell_angle_beta 90.012800
_cell_angle_gamma 89.982900
loop_
  _atom_site_label
  _atom_site_type_symbol
  _atom_site_fract_x
  _atom_site_fract_y
  _atom_site_fract_z
N1 N 0.34980 1.35019 0.34942
 N2 N 0.35013 0.85048 0.84965
 N3 N 0.85011 1.35037 0.84973
 N4 N 0.85005 0.85024 0.34958
 N5 N 0.64975 0.64932 0.34998
 N6 N 0.64982 0.14967 0.84976
 N7 N 1.14985 0.64959 0.84995
 N8 N 1.14989 0.14982 0.34967
 N9 N 0.65013 1.35000 0.65043
 N10 N 0.64998 0.85035 1.15013
 N11 N 1.15012 1.35032 1.15028
 N12 N 1.15022 0.85021 0.65033
 N13 N 0.35030 0.64959 0.65007
 N14 N 0.35000 0.14983 1.15041
 N15 N 0.84968 0.65001 1.15069
 N16 N 0.84985 0.14980 0.65017
 N17 N 1.35026 0.35020 0.65032
 N18 N 1.35035 0.85086 1.14996
 N19 N 0.84985 0.35018 1.15044
 N20 N 0.85035 0.85064 0.65000
 N21 N 0.64991 0.64982 0.65032
 N22 N 0.64976 1.14951 1.15014
 N23 N 0.15025 0.65004 1.15060
 N24 N 0.15008 1.14983 0.65038
 N25 N 1.34999 0.64953 0.34976
 N26 N 1.34989 1.14980 0.84952
 N27 N 0.85006 0.64958 0.84983
 N28 N 0.84982 1.14986 0.34950
 N29 N 0.65028 0.34982 0.34942
 N30 N 0.65008 0.85023 0.84976
 N31 N 0.14981 0.35039 0.85004
 N32 N 0.14985 0.85015 0.34953
 O33 O 0.97851 0.91951 0.88995
 O34 O 0.97855 0.89362 0.86415
 C35 C 0.97097 0.91169 0.87194
 C36 C 0.95287 0.92348 0.86029
 C37 C 0.94541 0.91613 0.83953
 H38 H 0.95360 0.90229 0.83153
 O39 O 1.02104 1.08008 0.88965
 O40 O 1.02090 1.10589 0.86378
 C41 C 1.02855 1.08787 0.87162
 C42 C 1.04671 1.07613 0.85999
 C43 C 1.05426 1.08359 0.83931
 H44 H 1.04608 1.09747 0.83136
 O45 O 0.88978 0.97783 0.92014
 O46 O 0.86384 0.97762 0.89442
 C47 C 0.87176 0.97016 0.91243
 C48 C 0.86020 0.95201 0.92428
 C49 C 0.83953 0.94433 0.91689
 H50 H 0.83153 0.95239 0.90300
 O51 O 1.11011 1.02197 0.91966
 O52 O 1.13596 1.02205 0.89388
 C53 C 1.12811 1.02961 0.91187
 C54 C 1.13967 1.04783 0.92364
 C55 C 1.16036 1.05554 0.91624
 H56 H 1.16814 1.04782 0.90204
 O57 O 0.92023 0.88925 0.97878
 O58 O 0.89452 0.86324 0.97883
 C59 C 0.91251 0.87115 0.97125
 C60 C 0.92430 0.85952 0.95313
 C61 C 0.91690 0.83877 0.94554
 H62 H 0.90304 0.83075 0.95366
 O63 O 1.07955 1.11086 0.97804
 O64 O 1.10520 1.13691 0.97790
 C65 C 1.08719 1.12896 0.97044
 C66 C 1.07524 1.14053 0.95240
 C67 C 1.08247 1.16132 0.94476
 H68 H 1.09669 1.16917 0.95241
 O69 O 0.91977 1.02121 0.88962
 O70 O 0.89396 1.02105 0.86378
 C71 C 0.91195 1.02872 0.87160
 C72 C 0.92365 1.04692 0.85998
 C73 C 0.91621 1.05453 0.83929
 H74 H 0.90202 1.04673 0.83154
 O75 O 1.07987 0.97846 0.88953
 O76 O 1.10556 0.97848 0.86359
 C77 C 1.08761 0.97085 0.87152
 C78 C 1.07585 0.95257 0.86004
 C79 C 1.08322 0.94483 0.83938
 H80 H 1.09737 0.95259 0.83154
 O81 O 1.02181 0.88930 0.92032
 O82 O 1.02189 0.86325 0.89468
 C83 C 1.02943 0.87122 0.91263
 C84 C 1.04762 0.85971 0.92445
 C85 C 1.05532 0.83895 0.91717
 H86 H 1.04758 0.83105 0.90304
 O87 O 0.97767 1.11029 0.91997
 O88 O 0.97750 1.13625 0.89425
 C89 C 0.97001 1.12834 0.91224
 C90 C 0.95185 1.13989 0.92406
 C91 C 0.94419 1.16067 0.91677
 H92 H 0.95192 1.16850 0.90261
 O93 O 0.88902 1.07953 0.97839
 O94 O 0.86298 1.10523 0.97836
 C95 C 0.87093 1.08721 0.97082
 C96 C 0.85940 1.07532 0.95271
 C97 C 0.83869 1.08264 0.94499
 H98 H 0.83083 1.09686 0.95266
 O99 O 1.11059 0.92043 0.97827
 O100 O 1.13660 0.89471 0.97827
 C101 C 1.12865 0.91270 0.97069
 C102 C 1.14016 0.92448 0.95250
 C103 C 1.16085 0.91704 0.94486
 H104 H 1.16890 0.90320 0.95299
 O105 O 0.97781 1.07993 0.88962
 O106 O 0.97764 1.10576 0.86377
 C107 C 0.97019 1.08767 0.87161
 C108 C 0.95212 1.07577 0.86002
 C109 C 0.94447 1.08313 0.83934
 H110 H 0.95251 1.09705 0.83134
 O111 O 1.02173 0.91965 0.88999
 O112 O 1.02181 0.89375 0.86421
 C113 C 1.02931 0.91185 0.87199
 C114 C 1.04738 0.92370 0.86032
 C115 C 1.05496 0.91622 0.83966
 H116 H 1.04690 0.90226 0.83175
 O117 O 1.11032 0.97868 0.91972
 O118 O 1.13617 0.97868 0.89393
 C119 C 1.12838 0.97114 0.91196
 C120 C 1.14007 0.95305 0.92379
 C121 C 1.16076 0.94536 0.91636
 H122 H 1.16846 0.95302 0.90208
 O123 O 0.88952 1.02111 0.92002
 O124 O 0.86358 1.02094 0.89431
 C125 C 0.87142 1.02857 0.91229
 C126 C 0.85969 1.04667 0.92405
 C127 C 0.83898 1.05421 0.91660
 H128 H 0.83106 1.04605 0.90271
 O129 O 0.91925 1.11003 0.97830
 O130 O 0.89336 1.13587 0.97827
 C131 C 0.91141 1.12806 0.97073
 C132 C 0.92316 1.13973 0.95263
 C133 C 0.91576 1.16051 0.94511
 H134 H 0.90189 1.16850 0.95324
 O135 O 1.08038 0.88989 0.97844
 O136 O 1.10627 0.86406 0.97843
 C137 C 1.08819 0.87182 0.97093
 C138 C 1.07638 0.86005 0.95293
 C139 C 1.08383 0.83928 0.94544
 H140 H 1.09776 0.83136 0.95354
 O141 O 1.07969 1.02178 0.88943
 O142 O 1.10539 1.02187 0.86349
 C143 C 1.08736 1.02938 0.87138
 C144 C 1.07544 1.04750 0.85983
 C145 C 1.08276 1.05522 0.83915
 H146 H 1.09701 1.04756 0.83136
 O147 O 0.92002 0.97791 0.88974
 O148 O 0.89423 0.97771 0.86388
 C149 C 0.91229 0.97025 0.87173
 C150 C 0.92420 0.95215 0.86016
 C151 C 0.91696 0.94456 0.83940
 H152 H 0.90277 0.95230 0.83158
 O153 O 1.02092 1.11053 0.91991
 O154 O 1.02078 1.13647 0.89417
 C155 C 1.02839 1.12863 0.91215
 C156 C 1.04649 1.14035 0.92389
 C157 C 1.05395 1.16114 0.91650
 H158 H 1.04574 1.16913 0.90269
 O159 O 0.97856 0.88922 0.92036
 O160 O 0.97859 0.86319 0.89470
 C161 C 0.97102 0.87111 0.91267
 C162 C 0.95292 0.85948 0.92450
 C163 C 0.94526 0.83873 0.91713
 H164 H 0.95295 0.83095 0.90291
 O165 O 1.10998 1.08054 0.97798
 O166 O 1.13578 1.10645 0.97784
 C167 C 1.12797 1.08836 0.97035
 C168 C 1.13957 1.07656 0.95222
 C169 C 1.16025 1.08401 0.94460
 H170 H 1.16824 1.09792 0.95270
 O171 O 0.88979 0.91955 0.97874
 O172 O 0.86393 0.89369 0.97879
 C173 C 0.87176 0.91173 0.97120
 C174 C 0.86014 0.92347 0.95303
 C175 C 0.83946 0.91599 0.94537
 H176 H 0.83169 0.90177 0.95311
 Cu177 Cu 1.00014 0.90701 0.90773
 Cu178 Cu 1.00021 0.87584 0.87685
 Cu179 Cu 0.99937 1.09262 0.90737
 Cu180 Cu 0.99919 1.12369 0.87640
 Cu181 Cu 0.90737 0.99954 0.90745
 Cu182 Cu 0.87630 0.99931 0.87651
 Cu183 Cu 1.09242 1.00022 0.90716
 Cu184 Cu 1.12335 1.00027 0.87612
 C185 C 0.94229 0.94163 0.87035
 H186 H 0.94777 0.94719 0.88650
 C187 C 0.92747 0.92657 0.82895
 C188 C 1.05728 1.05794 0.87000
 H189 H 1.05174 1.05229 0.88609
 C190 C 1.07228 1.07327 0.82877
 C191 C 0.87027 0.94161 0.94250
 H192 H 0.88636 0.94727 0.94809
 C193 C 0.82904 0.92631 0.92729
 C194 C 1.12952 1.05833 0.94176
 H195 H 1.11343 1.05268 0.94736
 C196 C 1.17078 1.07362 0.92662
 C197 C 0.94245 0.86962 0.94264
 H198 H 0.94805 0.88576 0.94821
 C199 C 0.92726 0.82825 0.92754
 C200 C 1.05710 1.13029 0.94198
 H201 H 1.05163 1.11411 0.94758
 C202 C 1.07193 1.17175 0.92682
 C203 C 0.94174 1.05752 0.87009
 H204 H 0.94736 1.05195 0.88617
 C205 C 0.92652 1.07263 0.82884
 C206 C 1.05779 0.94201 0.87027
 H207 H 1.05222 0.94767 0.88634
 C208 C 1.07288 0.92666 0.82906
 C209 C 1.05813 0.87001 0.94247
 H210 H 1.05249 0.88617 0.94797
 C211 C 1.07342 0.82860 0.92756
 C212 C 0.94135 1.12967 0.94213
 H213 H 0.94696 1.11352 0.94765
 C214 C 0.92617 1.17111 0.92719
 C215 C 0.86966 1.05720 0.94225
 H216 H 0.88578 1.05166 0.94789
 C217 C 0.82835 1.07220 0.92693
 C218 C 1.13002 0.94262 0.94200
 H219 H 1.11393 0.94824 0.94762
 C220 C 1.17127 0.92735 0.92678
 O221 O 1.02217 0.92011 1.11018
 O222 O 1.02240 0.89435 1.13609
 C223 C 1.02984 0.91242 1.12819
 C224 C 1.04793 0.92438 1.13972
 C225 C 1.05567 0.91707 1.16040
 H226 H 1.04806 0.90279 1.16820
 O227 O 0.97827 1.08039 1.10996
 O228 O 0.97818 1.10630 1.13575
 C229 C 0.97072 1.08818 1.12798
 C230 C 0.95272 1.07629 1.13968
 C231 C 0.94519 1.08369 1.16040
 H232 H 0.95327 1.09763 1.16833
 O233 O 0.88981 1.02141 1.08016
 O234 O 0.86399 1.02139 1.10598
 C235 C 0.87175 1.02892 1.08794
 C236 C 0.85998 1.04698 1.07614
 C237 C 0.83927 1.05452 1.08361
 H238 H 0.83140 1.04641 1.09754
 O239 O 1.11067 0.97910 1.07973
 O240 O 1.13661 0.97920 1.10543
 C241 C 1.12875 0.97159 1.08746
 C242 C 1.14040 0.95345 1.07566
 C243 C 1.16111 0.94579 1.08306
 H244 H 1.16887 0.95352 1.09727
 O245 O 1.08049 0.89000 1.02159
 O246 O 1.10639 0.86416 1.02160
 C247 C 1.08834 0.87196 1.02915
 C248 C 1.07662 0.86028 1.04725
 C249 C 1.08410 0.83954 1.05480
 H250 H 1.09800 0.83159 1.04667
 O251 O 0.91934 1.11011 1.02145
 O252 O 0.89344 1.13594 1.02147
 C253 C 0.91153 1.12817 1.02898
 C254 C 0.92333 1.13991 1.04701
 C255 C 0.91586 1.16065 1.05456
 H256 H 0.90192 1.16857 1.04648
 O257 O 0.92039 0.97829 1.11050
 O258 O 0.89470 0.97822 1.13645
 C259 C 0.91272 0.97071 1.12856
 C260 C 0.92464 0.95262 1.14015
 C261 C 0.91736 0.94498 1.16087
 H262 H 0.90313 0.95268 1.16866
 O263 O 1.08017 1.02232 1.10998
 O264 O 1.10596 1.02250 1.13583
 C265 C 1.08790 1.02998 1.12798
 C266 C 1.07600 1.04811 1.13954
 C267 C 1.08333 1.05581 1.16023
 H268 H 1.09757 1.04815 1.16802
 O269 O 0.97890 0.88951 1.08011
 O270 O 0.97907 0.86360 1.10587
 C271 C 0.97140 0.87143 1.08790
 C272 C 0.95322 0.85977 1.07620
 C273 C 0.94555 0.83908 1.08370
 H274 H 0.95329 0.83135 1.09792
 O275 O 1.02127 1.11088 1.07946
 O276 O 1.02122 1.13690 1.10513
 C277 C 1.02879 1.12900 1.08715
 C278 C 1.04689 1.14065 1.07536
 C279 C 1.05450 1.16138 1.08278
 H280 H 1.04637 1.16939 1.09663
 O281 O 0.88981 0.91962 1.02193
 O282 O 0.86395 0.89376 1.02203
 C283 C 0.87180 0.91183 1.02953
 C284 C 0.86022 0.92366 1.04766
 C285 C 0.83953 0.91627 1.05536
 H286 H 0.83172 0.90203 1.04768
 O287 O 1.11014 1.08066 1.02116
 O288 O 1.13595 1.10657 1.02106
 C289 C 1.12817 1.08851 1.02866
 C290 C 1.13986 1.07679 1.04678
 C291 C 1.16058 1.08427 1.05431
 H292 H 1.16853 1.09814 1.04614
 O293 O 1.02149 1.08057 1.10982
 O294 O 1.02143 1.10646 1.13562
 C295 C 1.02905 1.08842 1.12781
 C296 C 1.04725 1.07670 1.13942
 C297 C 1.05479 1.08416 1.16010
 H298 H 1.04660 1.09802 1.16808
 O299 O 0.97895 0.91996 1.11035
 O300 O 0.97912 0.89419 1.13625
 C301 C 0.97148 0.91221 1.12841
 C302 C 0.95336 0.92399 1.14005
 C303 C 0.94586 0.91660 1.16077
 H304 H 0.95404 0.90275 1.16876
 O305 O 1.11047 1.02239 1.07964
 O306 O 1.13641 1.02255 1.10534
 C307 C 1.12850 1.03004 1.08734
 C308 C 1.14005 1.04819 1.07547
 C309 C 1.16076 1.05592 1.08278
 H310 H 1.16858 1.04826 1.09699
 O311 O 0.89000 0.97812 1.08023
 O312 O 0.86417 0.97806 1.10604
 C313 C 0.87200 0.97051 1.08803
 C314 C 0.86037 0.95233 1.07629
 C315 C 0.83969 0.94473 1.08373
 H316 H 0.83172 0.95288 1.09759
 O317 O 1.07969 1.11096 1.02119
 O318 O 1.10536 1.13701 1.02110
 C319 C 1.08739 1.12908 1.02869
 C320 C 1.07555 1.14071 1.04678
 C321 C 1.08294 1.16145 1.05446
 H322 H 1.09719 1.16922 1.04679
 O323 O 0.92031 0.88936 1.02195
 O324 O 0.89459 0.86336 1.02206
 C325 C 0.91261 0.87129 1.02956
 C326 C 0.92446 0.85974 1.04769
 C327 C 0.91705 0.83905 1.05541
 H328 H 0.90314 0.83102 1.04739
 O329 O 1.08028 0.97901 1.10996
 O330 O 1.10608 0.97913 1.13581
 C331 C 1.08809 0.97147 1.12798
 C332 C 1.07641 0.95325 1.13959
 C333 C 1.08388 0.94572 1.16027
 H334 H 1.09769 0.95396 1.16824
 O335 O 0.92022 1.02159 1.11040
 O336 O 0.89454 1.02157 1.13636
 C337 C 0.91249 1.02919 1.12843
 C338 C 0.92427 1.04742 1.13994
 C339 C 0.91696 1.05506 1.16065
 H340 H 0.90282 1.04726 1.16850
 O341 O 0.97802 1.11067 1.07955
 O342 O 0.97793 1.13671 1.10520
 C343 C 0.97037 1.12873 1.08725
 C344 C 0.95213 1.14022 1.07548
 C345 C 0.94440 1.16096 1.08280
 H346 H 0.95213 1.16883 1.09695
 O347 O 1.02215 0.88965 1.07995
 O348 O 1.02238 0.86373 1.10571
 C349 C 1.02983 0.87161 1.08769
 C350 C 1.04797 0.86006 1.07585
 C351 C 1.05571 0.83933 1.08318
 H352 H 1.04804 0.83150 1.09737
 O353 O 1.11069 0.92055 1.02146
 O354 O 1.13670 0.89484 1.02148
 C355 C 1.12878 0.91287 1.02900
 C356 C 1.14038 0.92473 1.04708
 C357 C 1.16109 0.91734 1.05469
 H358 H 1.16910 0.90344 1.04659
 O359 O 0.88910 1.07962 1.02158
 O360 O 0.86306 1.10531 1.02160
 C361 C 0.87104 1.08733 1.02918
 C362 C 0.85958 1.07551 1.04738
 C363 C 0.83888 1.08284 1.05511
 H364 H 0.83098 1.09701 1.04739
 Cu365 Cu 1.00052 0.90738 1.09256
 Cu366 Cu 1.00076 0.87637 1.12357
 Cu367 Cu 0.99976 1.09304 1.09212
 Cu368 Cu 0.99968 1.12421 1.12300
 Cu369 Cu 0.90760 0.90704 1.00034
 Cu370 Cu 0.87666 0.87590 1.00044
 Cu371 Cu 1.09294 0.90780 0.99994
 Cu372 Cu 1.12411 0.87686 0.99994
 Cu373 Cu 0.90676 1.09224 0.99993
 Cu374 Cu 0.87559 1.12317 0.99993
 Cu375 Cu 1.09227 1.09315 0.99961
 Cu376 Cu 1.12317 1.12434 0.99946
 Cu377 Cu 0.90769 0.99986 1.09274
 Cu378 Cu 0.87676 0.99981 1.12381
 Cu379 Cu 1.09281 1.00070 1.09225
 Cu380 Cu 1.12386 1.00086 1.12320
 C381 C 1.05829 0.94261 1.12956
 H382 H 1.05263 0.94814 1.11346
 C383 C 1.07364 0.92763 1.17081
 C384 C 0.94229 1.05801 1.12970
 H385 H 0.94781 1.05241 1.11359
 C386 C 0.92732 1.07319 1.17102
 C387 C 0.86989 1.05744 1.05788
 H388 H 0.88600 1.05190 1.05223
 C389 C 0.82860 1.07245 1.07323
 C390 C 1.13028 0.94293 1.05754
 H391 H 1.11416 0.94853 1.05195
 C392 C 1.17158 0.92773 1.07268
 C393 C 1.05841 0.87028 1.05775
 H394 H 1.05274 0.88641 1.05220
 C395 C 1.07377 0.82894 1.07276
 C396 C 0.94161 1.12994 1.05744
 H397 H 0.94727 1.11381 1.05190
 C398 C 0.92627 1.17130 1.07245
 C399 C 0.94278 0.94215 1.12999
 H400 H 0.94829 0.94774 1.11387
 C401 C 0.92786 0.92698 1.17131
 C402 C 1.05783 1.05854 1.12938
 H403 H 1.05229 1.05289 1.11329
 C404 C 1.07282 1.07383 1.17064
 C405 C 0.94268 0.86985 1.05806
 H406 H 0.94830 0.88595 1.05239
 C407 C 0.92746 0.82859 1.07342
 C408 C 1.05739 1.13056 1.05722
 H409 H 1.05181 1.11443 1.05161
 C410 C 1.07252 1.17190 1.07246
 C411 C 0.87039 0.94183 1.05811
 H412 H 0.88649 0.94742 1.05248
 C413 C 0.82914 0.92670 1.07340
 C414 C 1.12985 1.05861 1.05734
 H415 H 1.11373 1.05295 1.05181
 C416 C 1.17116 1.07395 1.07230
 O417 O 0.97833 0.41964 0.39010
 O418 O 0.97833 0.39375 0.36430
 C419 C 0.97075 0.41181 0.37211
 C420 C 0.95259 0.42357 0.36050
 C421 C 0.94501 0.41613 0.33982
 H422 H 0.95317 0.40225 0.33185
 O423 O 1.02107 0.58020 0.38983
 O424 O 1.02090 0.60603 0.36398
 C425 C 1.02854 0.58800 0.37179
 C426 C 1.04667 0.57624 0.36012
 C427 C 1.05421 0.58372 0.33944
 H428 H 1.04605 0.59763 0.33152
 O429 O 0.88961 0.47790 0.42044
 O430 O 0.86365 0.47777 0.39475
 C431 C 0.87158 0.47024 0.41273
 C432 C 0.86004 0.45205 0.42453
 C433 C 0.83941 0.44431 0.41708
 H434 H 0.83141 0.45237 0.40319
 O435 O 1.11002 0.52194 0.41967
 O436 O 1.13586 0.52203 0.39387
 C437 C 1.12803 0.52957 0.41189
 C438 C 1.13962 0.54774 0.42369
 C439 C 1.16032 0.55544 0.41629
 H440 H 1.16807 0.54774 0.40207
 O441 O 0.92016 0.38925 0.47891
 O442 O 0.89448 0.36322 0.47899
 C443 C 0.91245 0.37114 0.47139
 C444 C 0.92423 0.35953 0.45325
 C445 C 0.91683 0.33879 0.44565
 H446 H 0.90298 0.33077 0.45376
 O447 O 1.07964 0.61070 0.47825
 O448 O 1.10534 0.63671 0.47814
 C449 C 1.08732 0.62879 0.47067
 C450 C 1.07543 0.64039 0.45260
 C451 C 1.08278 0.66113 0.44496
 H452 H 1.09667 0.66917 0.45301
 O453 O 0.91967 0.52130 0.39002
 O454 O 0.89384 0.52123 0.36419
 C455 C 0.91185 0.52886 0.37201
 C456 C 0.92357 0.54706 0.36040
 C457 C 0.91612 0.55468 0.33973
 H458 H 0.90192 0.54690 0.33198
 O459 O 1.07975 0.47849 0.38952
 O460 O 1.10542 0.47850 0.36356
 C461 C 1.08747 0.47088 0.37150
 C462 C 1.07569 0.45262 0.36001
 C463 C 1.08304 0.44488 0.33935
 H464 H 1.09721 0.45263 0.33151
 O465 O 1.02171 0.38943 0.42037
 O466 O 1.02176 0.36340 0.39471
 C467 C 1.02933 0.37136 0.41266
 C468 C 1.04755 0.35985 0.42444
 C469 C 1.05526 0.33911 0.41711
 H470 H 1.04752 0.33123 0.40296
 O471 O 0.97779 0.61044 0.42027
 O472 O 0.97760 0.63641 0.39456
 C473 C 0.97012 0.62849 0.41256
 C474 C 0.95198 0.64005 0.42441
 C475 C 0.94430 0.66082 0.41711
 H476 H 0.95201 0.66865 0.40293
 O477 O 0.88923 0.57962 0.47876
 O478 O 0.86322 0.60534 0.47878
 C479 C 0.87114 0.58732 0.47123
 C480 C 0.85955 0.57546 0.45314
 C481 C 0.83879 0.58279 0.44559
 H482 H 0.83073 0.59664 0.45372
 O483 O 1.11064 0.42045 0.47831
 O484 O 1.13663 0.39471 0.47823
 C485 C 1.12868 0.41272 0.47069
 C486 C 1.14017 0.42451 0.45250
 C487 C 1.16088 0.41714 0.44486
 H488 H 1.16898 0.40332 0.45300
 O489 O 0.97784 0.58003 0.38998
 O490 O 0.97763 0.60586 0.36412
 C491 C 0.97018 0.58778 0.37198
 C492 C 0.95208 0.57589 0.36042
 C493 C 0.94442 0.58325 0.33975
 H494 H 0.95247 0.59717 0.33174
 O495 O 1.02156 0.41974 0.38999
 O496 O 1.02160 0.39385 0.36420
 C497 C 1.02911 0.41195 0.37198
 C498 C 1.04718 0.42378 0.36029
 C499 C 1.05476 0.41630 0.33962
 H500 H 1.04667 0.40234 0.33172
 O501 O 1.11021 0.47866 0.41971
 O502 O 1.13604 0.47868 0.39390
 C503 C 1.12826 0.47113 0.41194
 C504 C 1.13999 0.45307 0.42377
 C505 C 1.16071 0.44545 0.41635
 H506 H 1.16839 0.45313 0.40208
 O507 O 0.88936 0.52119 0.42035
 O508 O 0.86338 0.52111 0.39468
 C509 C 0.87126 0.52870 0.41266
 C510 C 0.85958 0.54679 0.42450
 C511 C 0.83882 0.55437 0.41717
 H512 H 0.83107 0.54664 0.40296
 O513 O 0.91942 0.61017 0.47866
 O514 O 0.89355 0.63603 0.47868
 C515 C 0.91159 0.62822 0.47111
 C516 C 0.92332 0.63989 0.45300
 C517 C 0.91590 0.66066 0.44547
 H518 H 0.90203 0.66864 0.45361
 O519 O 1.08040 0.38995 0.47845
 O520 O 1.10627 0.36408 0.47837
 C521 C 1.08819 0.37188 0.47090
 C522 C 1.07635 0.36015 0.45289
 C523 C 1.08381 0.33940 0.44534
 H524 H 1.09775 0.33147 0.45341
 O525 O 1.07959 0.52181 0.38946
 O526 O 1.10527 0.52190 0.36350
 C527 C 1.08726 0.52942 0.37142
 C528 C 1.07536 0.54757 0.35990
 C529 C 1.08267 0.55530 0.33922
 H530 H 1.09690 0.54763 0.33141
 O531 O 0.91979 0.47799 0.38999
 O532 O 0.89398 0.47787 0.36415
 C533 C 0.91203 0.47037 0.37198
 C534 C 0.92389 0.45223 0.36040
 C535 C 0.91653 0.44453 0.33972
 H536 H 0.90230 0.45222 0.33194
 O537 O 1.02104 0.61062 0.42013
 O538 O 1.02089 0.63658 0.39441
 C539 C 1.02853 0.62872 0.41237
 C540 C 1.04666 0.64039 0.42411
 C541 C 1.05427 0.66113 0.41669
 H542 H 1.04650 0.66889 0.40250
 O543 O 0.97846 0.38928 0.42044
 O544 O 0.97847 0.36326 0.39477
 C545 C 0.97092 0.37116 0.41275
 C546 C 0.95284 0.35952 0.42460
 C547 C 0.94517 0.33878 0.41721
 H548 H 0.95284 0.33102 0.40298
 O549 O 1.11004 0.58036 0.47815
 O550 O 1.13588 0.60624 0.47803
 C551 C 1.12803 0.58817 0.47051
 C552 C 1.13960 0.57639 0.45235
 C553 C 1.16029 0.58383 0.44473
 H554 H 1.16830 0.59770 0.45286
 O555 O 0.88969 0.41952 0.47891
 O556 O 0.86386 0.39363 0.47897
 C557 C 0.87166 0.41168 0.47137
 C558 C 0.86003 0.42343 0.45322
 C559 C 0.83938 0.41590 0.44550
 H560 H 0.83166 0.40162 0.45318
 Cu561 Cu 1.00001 0.40711 0.40780
 Cu562 Cu 1.00004 0.37596 0.37691
 Cu563 Cu 0.99946 0.59274 0.40763
 Cu564 Cu 0.99923 0.62382 0.37668
 Cu565 Cu 0.90720 0.49961 0.40776
 Cu566 Cu 0.87611 0.49948 0.37686
 Cu567 Cu 1.09231 0.50022 0.40717
 Cu568 Cu 1.12323 0.50028 0.37610
 C569 C 0.94206 0.44176 0.37054
 H570 H 0.94762 0.44740 0.38663
 C571 C 0.92699 0.42648 0.32930
 C572 C 1.05722 0.55802 0.37010
 H573 H 1.05169 0.55236 0.38618
 C574 C 1.07221 0.57338 0.32887
 C575 C 0.87011 0.44163 0.44274
 H576 H 0.88617 0.44733 0.44838
 C577 C 0.82896 0.42623 0.42742
 C578 C 1.12951 0.55821 0.44185
 H579 H 1.11341 0.55258 0.44744
 C580 C 1.17078 0.57348 0.42671
 C581 C 0.94238 0.36965 0.44276
 H582 H 0.94799 0.38578 0.44834
 C583 C 0.92717 0.32829 0.42763
 C584 C 1.05723 0.63027 0.44221
 H585 H 1.05166 0.61413 0.44782
 C586 C 1.07232 0.67163 0.42701
 C587 C 0.94168 0.55765 0.37050
 H588 H 0.94731 0.55207 0.38659
 C589 C 0.92644 0.57277 0.32927
 C590 C 1.05762 0.44208 0.37024
 H591 H 1.05205 0.44774 0.38632
 C592 C 1.07268 0.42673 0.32902
 C593 C 1.05808 0.37012 0.44246
 H594 H 1.05244 0.38626 0.44801
 C595 C 1.07338 0.32875 0.42745
 C596 C 0.94151 0.62984 0.44249
 H597 H 0.94713 0.61369 0.44801
 C598 C 0.92628 0.67126 0.42754
 C599 C 0.86970 0.55732 0.44262
 H600 H 0.88585 0.55177 0.44817
 C601 C 0.82830 0.57237 0.42761
 C602 C 1.12997 0.44262 0.44198
 H603 H 1.11386 0.44820 0.44759
 C604 C 1.17128 0.42748 0.42679
 O605 O 1.02233 0.42008 0.61036
 O606 O 1.02251 0.39427 0.63622
 C607 C 1.02998 0.41235 0.62836
 C608 C 1.04807 0.42427 0.63993
 C609 C 1.05572 0.41697 0.66065
 H610 H 1.04804 0.40272 0.66844
 O611 O 0.97844 0.58020 0.61024
 O612 O 0.97840 0.60608 0.63606
 C613 C 0.97090 0.58798 0.62827
 C614 C 0.95288 0.57611 0.63996
 C615 C 0.94537 0.58348 0.66069
 H616 H 0.95347 0.59740 0.66864
 O617 O 0.88986 0.52138 0.58036
 O618 O 0.86406 0.52135 0.60620
 C619 C 0.87182 0.52891 0.58817
 C620 C 0.86009 0.54701 0.57642
 C621 C 0.83939 0.55458 0.58391
 H622 H 0.83150 0.54645 0.59781
 O623 O 1.11084 0.47884 0.57991
 O624 O 1.13681 0.47893 0.60559
 C625 C 1.12893 0.47132 0.58762
 C626 C 1.14056 0.45319 0.57580
 C627 C 1.16125 0.44547 0.58320
 H628 H 1.16900 0.45315 0.59745
 O629 O 1.08055 0.39000 0.52160
 O630 O 1.10641 0.36413 0.52154
 C631 C 1.08839 0.37194 0.52913
 C632 C 1.07668 0.36026 0.54724
 C633 C 1.08415 0.33951 0.55477
 H634 H 1.09802 0.33155 0.54661
 O635 O 0.91958 0.61019 0.52181
 O636 O 0.89370 0.63605 0.52188
 C637 C 0.91178 0.62825 0.52936
 C638 C 0.92362 0.63996 0.54739
 C639 C 0.91623 0.66074 0.55492
 H640 H 0.90233 0.66871 0.54683
 O641 O 0.92045 0.47821 0.61062
 O642 O 0.89478 0.47814 0.63659
 C643 C 0.91280 0.47063 0.62868
 C644 C 0.92474 0.45255 0.64027
 C645 C 0.91747 0.44492 0.66099
 H646 H 0.90325 0.45261 0.66879
 O647 O 1.08038 0.52207 0.61017
 O648 O 1.10619 0.52225 0.63600
 C649 C 1.08812 0.52972 0.62816
 C650 C 1.07622 0.54784 0.63974
 C651 C 1.08355 0.55553 0.66044
 H652 H 1.09779 0.54785 0.66822
 O653 O 0.97905 0.38962 0.58014
 O654 O 0.97920 0.36368 0.60588
 C655 C 0.97155 0.37154 0.58792
 C656 C 0.95336 0.35987 0.57625
 C657 C 0.94580 0.33915 0.58374
 H658 H 0.95400 0.33119 0.59757
 O659 O 1.02146 0.61067 0.57975
 O660 O 1.02147 0.63666 0.60545
 C661 C 1.02900 0.62877 0.58746
 C662 C 1.04710 0.64041 0.57566
 C663 C 1.05471 0.66115 0.58306
 H664 H 1.04659 0.66915 0.59692
 O665 O 0.88977 0.41959 0.52209
 O666 O 0.86394 0.39371 0.52222
 C667 C 0.87177 0.41179 0.52972
 C668 C 0.86021 0.42362 0.54785
 C669 C 0.83953 0.41622 0.55557
 H670 H 0.83173 0.40197 0.54790
 O671 O 1.11025 0.58042 0.52133
 O672 O 1.13608 0.60631 0.52124
 C673 C 1.12830 0.58825 0.52882
 C674 C 1.14001 0.57650 0.54691
 C675 C 1.16076 0.58395 0.55438
 H676 H 1.16871 0.59781 0.54620
 O677 O 1.02167 0.58033 0.61009
 O678 O 1.02166 0.60619 0.63592
 C679 C 1.02925 0.58815 0.62808
 C680 C 1.04745 0.57642 0.63967
 C681 C 1.05499 0.58385 0.66036
 H682 H 1.04679 0.59769 0.66836
 O683 O 0.97910 0.41997 0.61048
 O684 O 0.97924 0.39416 0.63635
 C685 C 0.97162 0.41219 0.62853
 C686 C 0.95349 0.42395 0.64017
 C687 C 0.94600 0.41657 0.66090
 H688 H 0.95421 0.40273 0.66889
 O689 O 1.11065 0.52212 0.57981
 O690 O 1.13663 0.52228 0.60548
 C691 C 1.12870 0.52977 0.58749
 C692 C 1.14023 0.54790 0.57559
 C693 C 1.16097 0.55560 0.58285
 H694 H 1.16881 0.54793 0.59704
 O695 O 0.89000 0.47809 0.58040
 O696 O 0.86420 0.47802 0.60624
 C697 C 0.87200 0.47047 0.58821
 C698 C 0.86037 0.45230 0.57648
 C699 C 0.83969 0.44468 0.58394
 H700 H 0.83174 0.45283 0.59781
 O701 O 1.07981 0.61075 0.52141
 O702 O 1.10551 0.63677 0.52133
 C703 C 1.08753 0.62886 0.52893
 C704 C 1.07573 0.64048 0.54704
 C705 C 1.08312 0.66122 0.55470
 H706 H 1.09735 0.66900 0.54701
 O707 O 0.92027 0.38933 0.52207
 O708 O 0.89459 0.36330 0.52222
 C709 C 0.91261 0.37125 0.52970
 C710 C 0.92454 0.35970 0.54778
 C711 C 0.91721 0.33898 0.55555
 H712 H 0.90294 0.33117 0.54796
 O713 O 1.08052 0.47878 0.61021
 O714 O 1.10633 0.47889 0.63604
 C715 C 1.08833 0.47125 0.62822
 C716 C 1.07661 0.45306 0.63985
 C717 C 1.08401 0.44554 0.66056
 H718 H 1.09783 0.45375 0.66856
 O719 O 0.92029 0.52151 0.61059
 O720 O 0.89462 0.52147 0.63656
 C721 C 0.91258 0.52908 0.62864
 C722 C 0.92438 0.54728 0.64017
 C723 C 0.91709 0.55490 0.66089
 H724 H 0.90295 0.54711 0.66873
 O725 O 0.97822 0.61056 0.57990
 O726 O 0.97819 0.63657 0.60558
 C727 C 0.97061 0.62863 0.58763
 C728 C 0.95241 0.64018 0.57586
 C729 C 0.94477 0.66096 0.58317
 H730 H 0.95255 0.66881 0.59730
 O731 O 1.02230 0.38968 0.58005
 O732 O 1.02250 0.36373 0.60577
 C733 C 1.02996 0.37163 0.58775
 C734 C 1.04808 0.36007 0.57589
 C735 C 1.05581 0.33933 0.58320
 H736 H 1.04815 0.33149 0.59740
 O737 O 1.11082 0.42047 0.52150
 O738 O 1.13680 0.39472 0.52145
 C739 C 1.12891 0.41274 0.52902
 C740 C 1.14052 0.42454 0.54714
 C741 C 1.16121 0.41709 0.55476
 H742 H 1.16921 0.40320 0.54664
 O743 O 0.88928 0.57975 0.52195
 O744 O 0.86327 0.60547 0.52202
 C745 C 0.87123 0.58747 0.52956
 C746 C 0.85975 0.57563 0.54774
 C747 C 0.83906 0.58298 0.55549
 H748 H 0.83119 0.59719 0.54781
 Cu749 Cu 1.00069 0.40743 0.59268
 Cu750 Cu 1.00089 0.37635 0.62364
 Cu751 Cu 0.99994 0.59285 0.59242
 Cu752 Cu 0.99993 0.62398 0.62334
 Cu753 Cu 0.90754 0.40702 0.50049
 Cu754 Cu 0.87663 0.37586 0.50061
 Cu755 Cu 1.09302 0.40781 0.49997
 Cu756 Cu 1.12414 0.37683 0.49989
 Cu757 Cu 0.90696 0.59235 0.50029
 Cu758 Cu 0.87582 0.62331 0.50034
 Cu759 Cu 1.09236 0.59296 0.49980
 Cu760 Cu 1.12330 0.62411 0.49967
 Cu761 Cu 0.90773 0.49980 0.59291
 Cu762 Cu 0.87682 0.49974 0.62400
 Cu763 Cu 1.09301 0.50044 0.59245
 Cu764 Cu 1.12409 0.50060 0.62337
 C765 C 1.05850 0.44245 0.62978
 H766 H 1.05289 0.44797 0.61366
 C767 C 1.07368 0.42750 0.67110
 C768 C 0.94242 0.55786 0.62995
 H769 H 0.94793 0.55228 0.61382
 C770 C 0.92748 0.57299 0.67129
 C771 C 0.87002 0.55751 0.55819
 H772 H 0.88612 0.55196 0.55252
 C773 C 0.82875 0.57256 0.57358
 C774 C 1.13045 0.44273 0.55763
 H775 H 1.11435 0.44837 0.55204
 C776 C 1.17170 0.42742 0.57279
 C777 C 1.05850 0.37029 0.55778
 H778 H 1.05285 0.38643 0.55225
 C779 C 1.07383 0.32892 0.57274
 C780 C 0.94185 0.62993 0.55783
 H781 H 0.94745 0.61377 0.55231
 C782 C 0.92670 0.67137 0.57280
 C783 C 0.94288 0.44209 0.63010
 H784 H 0.94837 0.44768 0.61398
 C785 C 0.92800 0.42694 0.67144
 C786 C 1.05804 0.55828 0.62960
 H787 H 1.05250 0.55265 0.61350
 C788 C 1.07303 0.57352 0.67088
 C789 C 0.94275 0.36990 0.55813
 H790 H 0.94830 0.38602 0.55245
 C791 C 0.92773 0.32859 0.57353
 C792 C 1.05758 0.63032 0.55750
 H793 H 1.05200 0.61419 0.55190
 C794 C 1.07271 0.67168 0.57271
 C795 C 0.87038 0.44180 0.55829
 H796 H 0.88647 0.44739 0.55264
 C797 C 0.82915 0.42665 0.57362
 C798 C 1.13000 0.55834 0.55749
 H799 H 1.11386 0.55270 0.55200
 C800 C 1.17137 0.57362 0.57235
 O801 O 0.47831 0.91922 0.39017
 O802 O 0.47829 0.89331 0.36439
 C803 C 0.47072 0.91137 0.37220
 C804 C 0.45256 0.92314 0.36060
 C805 C 0.44510 0.91582 0.33983
 H806 H 0.45333 0.90202 0.33179
 O807 O 0.52074 1.07983 0.38944
 O808 O 0.52053 1.10557 0.36351
 C809 C 0.52819 1.08757 0.37137
 C810 C 0.54633 1.07581 0.35972
 C811 C 0.55384 1.08324 0.33901
 H812 H 0.54564 1.09710 0.33105
 O813 O 0.38931 0.97743 0.42048
 O814 O 0.36335 0.97720 0.39479
 C815 C 0.37128 0.96975 0.41280
 C816 C 0.35975 0.95162 0.42470
 C817 C 0.33904 0.94387 0.41742
 H818 H 0.33122 0.95150 0.40320
 O819 O 0.60997 1.02174 0.41930
 O820 O 0.63576 1.02179 0.39346
 C821 C 0.62796 1.02936 0.41147
 C822 C 0.63956 1.04755 0.42322
 C823 C 0.66023 1.05527 0.41579
 H824 H 0.66798 1.04758 0.40155
 O825 O 0.42023 0.88905 0.47902
 O826 O 0.39456 0.86300 0.47921
 C827 C 0.41252 0.87091 0.47156
 C828 C 0.42428 0.85926 0.45344
 C829 C 0.41688 0.83850 0.44589
 H830 H 0.40303 0.83049 0.45402
 O831 O 0.57943 1.11042 0.47768
 O832 O 0.60513 1.13645 0.47749
 C833 C 0.58710 1.12850 0.47004
 C834 C 0.57522 1.14005 0.45194
 C835 C 0.58265 1.16072 0.44420
 H836 H 0.59658 1.16873 0.45220
 O837 O 0.41942 1.02079 0.39003
 O838 O 0.39359 1.02060 0.36421
 C839 C 0.41159 1.02828 0.37200
 C840 C 0.42325 1.04647 0.36033
 C841 C 0.41577 1.05395 0.33963
 H842 H 0.40194 1.04570 0.33169
 O843 O 0.57962 0.97822 0.38933
 O844 O 0.60524 0.97821 0.36332
 C845 C 0.58731 0.97059 0.37130
 C846 C 0.57551 0.95232 0.35987
 C847 C 0.58278 0.94462 0.33917
 H848 H 0.59690 0.95240 0.33128
 O849 O 0.52175 0.88907 0.42040
 O850 O 0.52179 0.86301 0.39478
 C851 C 0.52938 0.87100 0.41270
 C852 C 0.54762 0.85953 0.42447
 C853 C 0.55535 0.83878 0.41718
 H854 H 0.54760 0.83087 0.40307
 O855 O 0.47748 1.11017 0.41980
 O856 O 0.47724 1.13606 0.39401
 C857 C 0.46979 1.12819 0.41204
 C858 C 0.45164 1.13976 0.42388
 C859 C 0.44390 1.16049 0.41652
 H860 H 0.45157 1.16830 0.40231
 O861 O 0.38896 1.07944 0.47846
 O862 O 0.36293 1.10514 0.47846
 C863 C 0.37085 1.08711 0.47094
 C864 C 0.35926 1.07517 0.45289
 C865 C 0.33856 1.08254 0.44516
 H866 H 0.33077 1.09683 0.45277
 O867 O 0.61062 0.92040 0.47814
 O868 O 0.63665 0.89469 0.47814
 C869 C 0.62867 0.91266 0.47054
 C870 C 0.64014 0.92440 0.45230
 C871 C 0.66081 0.91697 0.44463
 H872 H 0.66890 0.90317 0.45279
 O873 O 0.47751 1.07965 0.38962
 O874 O 0.47724 1.10538 0.36367
 C875 C 0.46982 1.08732 0.37160
 C876 C 0.45173 1.07533 0.36011
 C877 C 0.44399 1.08259 0.33942
 H878 H 0.45160 1.09685 0.33158
 O879 O 0.52153 0.91938 0.39002
 O880 O 0.52155 0.89345 0.36425
 C881 C 0.52905 0.91157 0.37199
 C882 C 0.54706 0.92343 0.36025
 C883 C 0.55456 0.91599 0.33954
 H884 H 0.54647 0.90202 0.33166
 O885 O 0.61015 0.97847 0.41944
 O886 O 0.63593 0.97844 0.39359
 C887 C 0.62819 0.97092 0.41165
 C888 C 0.63993 0.95288 0.42349
 C889 C 0.66061 0.94519 0.41604
 H890 H 0.66827 0.95281 0.40172
 O891 O 0.38916 1.02073 0.42040
 O892 O 0.36321 1.02055 0.39471
 C893 C 0.37107 1.02821 0.41266
 C894 C 0.35941 1.04638 0.42438
 C895 C 0.33871 1.05396 0.41691
 H896 H 0.33076 1.04577 0.40306
 O897 O 0.41920 1.10994 0.47824
 O898 O 0.39331 1.13579 0.47825
 C899 C 0.41134 1.12797 0.47067
 C900 C 0.42303 1.13962 0.45251
 C901 C 0.41554 1.16034 0.44494
 H902 H 0.40167 1.16831 0.45307
 O903 O 0.58046 0.88982 0.47837
 O904 O 0.60636 0.86399 0.47837
 C905 C 0.58827 0.87174 0.47087
 C906 C 0.57645 0.85993 0.45289
 C907 C 0.58393 0.83918 0.44539
 H908 H 0.59789 0.83129 0.45347
 O909 O 0.57944 1.02154 0.38919
 O910 O 0.60506 1.02159 0.36319
 C911 C 0.58706 1.02911 0.37112
 C912 C 0.57510 1.04721 0.35956
 C913 C 0.58238 1.05490 0.33886
 H914 H 0.59661 1.04724 0.33106
 O915 O 0.41964 0.97748 0.39014
 O916 O 0.39382 0.97726 0.36431
 C917 C 0.41190 0.96982 0.37215
 C918 C 0.42382 0.95174 0.36055
 C919 C 0.41658 0.94418 0.33978
 H920 H 0.40238 0.95191 0.33198
 O921 O 0.52073 1.11033 0.41963
 O922 O 0.52055 1.13621 0.39384
 C923 C 0.52822 1.12840 0.41181
 C924 C 0.54641 1.14006 0.42348
 C925 C 0.55411 1.16074 0.41595
 H926 H 0.54637 1.16847 0.40173
 O927 O 0.47850 0.88893 0.42056
 O928 O 0.47848 0.86288 0.39493
 C929 C 0.47096 0.87081 0.41291
 C930 C 0.45288 0.85918 0.42479
 C931 C 0.44522 0.83842 0.41746
 H932 H 0.45290 0.83063 0.40324
 O933 O 0.60996 1.08018 0.47765
 O934 O 0.63576 1.10609 0.47747
 C935 C 0.62794 1.08800 0.47000
 C936 C 0.63952 1.07622 0.45186
 C937 C 0.66019 1.08369 0.44421
 H938 H 0.66818 1.09758 0.45232
 O939 O 0.38971 0.91926 0.47904
 O940 O 0.36390 0.89336 0.47924
 C941 C 0.37166 0.91139 0.47158
 C942 C 0.35995 0.92307 0.45345
 C943 C 0.33924 0.91557 0.44594
 H944 H 0.33129 0.90170 0.45414
 Cu945 Cu 0.50003 0.90674 0.40786
 Cu946 Cu 0.50003 0.87555 0.37701
 Cu947 Cu 0.49913 1.09242 0.40721
 Cu948 Cu 0.49887 1.12340 0.37616
 Cu949 Cu 0.40697 0.99912 0.40784
 Cu950 Cu 0.37589 0.99888 0.37692
 Cu951 Cu 0.59222 0.99999 0.40690
 Cu952 Cu 0.62307 1.00001 0.37577
 C953 C 0.44195 0.94124 0.37071
 H954 H 0.44742 0.94678 0.38686
 C955 C 0.42713 0.92624 0.32928
 C956 C 0.55694 1.05765 0.36975
 H957 H 0.55144 1.05202 0.38586
 C958 C 0.57185 1.07291 0.32846
 C959 C 0.36996 0.94124 0.44285
 H960 H 0.38607 0.94692 0.44836
 C961 C 0.32865 0.92585 0.42794
 C962 C 0.62946 1.05801 0.44139
 H963 H 0.61338 1.05235 0.44701
 C964 C 0.67067 1.07334 0.42618
 C965 C 0.44243 0.86935 0.44292
 H966 H 0.44803 0.88550 0.44846
 C967 C 0.42723 0.82796 0.42790
 C968 C 0.55696 1.12997 0.44161
 H969 H 0.55134 1.11388 0.44731
 C970 C 0.57224 1.17118 0.42620
 C971 C 0.44137 1.05713 0.37033
 H972 H 0.44704 1.05164 0.38643
 C973 C 0.42601 1.07200 0.32905
 C974 C 0.55751 0.94174 0.37017
 H975 H 0.55200 0.94738 0.38627
 C976 C 0.57241 0.92646 0.32887
 C977 C 0.55816 0.86986 0.44247
 H978 H 0.55249 0.88600 0.44798
 C979 C 0.57350 0.82848 0.42754
 C980 C 0.44122 1.12958 0.44201
 H981 H 0.44689 1.11346 0.44757
 C982 C 0.42586 1.17091 0.42695
 C983 C 0.36943 1.05696 0.44251
 H984 H 0.38554 1.05139 0.44817
 C985 C 0.32817 1.07204 0.42716
 C986 C 0.62994 0.94249 0.44176
 H987 H 0.61385 0.94811 0.44740
 C988 C 0.67117 0.92723 0.42650
 O989 O 0.52241 0.92025 0.61028
 O990 O 0.52263 0.89446 0.63617
 C991 C 0.53007 0.91253 0.62828
 C992 C 0.54818 0.92443 0.63983
 C993 C 0.55587 0.91704 0.66048
 H994 H 0.54782 0.90312 0.66848
 O995 O 0.47848 1.08046 0.60993
 O996 O 0.47843 1.10642 0.63566
 C997 C 0.47095 1.08829 0.62794
 C998 C 0.45295 1.07642 0.63967
 C999 C 0.44545 1.08383 0.66040
 H1000 H 0.45353 1.09778 0.66831
 O1001 O 0.38997 1.02144 0.58028
 O1002 O 0.36419 1.02144 0.60613
 C1003 C 0.37192 1.02896 0.58807
 C1004 C 0.36014 1.04700 0.57628
 C1005 C 0.33944 1.05455 0.58377
 H1006 H 0.33158 1.04645 0.59771
 O1007 O 0.61074 0.97896 0.57976
 O1008 O 0.63675 0.97913 0.60540
 C1009 C 0.62885 0.97148 0.58745
 C1010 C 0.64049 0.95335 0.57564
 C1011 C 0.66121 0.94568 0.58302
 H1012 H 0.66896 0.95337 0.59726
 O1013 O 0.58058 0.89001 0.52152
 O1014 O 0.60648 0.86418 0.52153
 C1015 C 0.58844 0.87199 0.52909
 C1016 C 0.57675 0.86033 0.54723
 C1017 C 0.58421 0.83958 0.55475
 H1018 H 0.59806 0.83160 0.54659
 O1019 O 0.41943 1.11007 0.52138
 O1020 O 0.39354 1.13591 0.52145
 C1021 C 0.41164 1.12814 0.52892
 C1022 C 0.42351 1.13990 0.54689
 C1023 C 0.41612 1.16070 0.55438
 H1024 H 0.40219 1.16864 0.54630
 O1025 O 0.42062 0.97837 0.61062
 O1026 O 0.39496 0.97833 0.63660
 C1027 C 0.41298 0.97082 0.62869
 C1028 C 0.42491 0.95274 0.64028
 C1029 C 0.41765 0.94512 0.66101
 H1030 H 0.40343 0.95283 0.66881
 O1031 O 0.58031 1.02224 0.60998
 O1032 O 0.60615 1.02249 0.63578
 C1033 C 0.58807 1.02995 0.62795
 C1034 C 0.57619 1.04810 0.63948
 C1035 C 0.58349 1.05581 0.66017
 H1036 H 0.59771 1.04812 0.66799
 O1037 O 0.47916 0.88964 0.58019
 O1038 O 0.47936 0.86374 0.60596
 C1039 C 0.47170 0.87155 0.58799
 C1040 C 0.45355 0.85982 0.57633
 C1041 C 0.44609 0.83906 0.58381
 H1042 H 0.45433 0.83111 0.59762
 O1043 O 0.52145 1.11087 0.57933
 O1044 O 0.52148 1.13696 0.60494
 C1045 C 0.52900 1.12901 0.58697
 C1046 C 0.54707 1.14060 0.57508
 C1047 C 0.55480 1.16133 0.58242
 H1048 H 0.54716 1.16914 0.59665
 O1049 O 0.38995 0.91947 0.52221
 O1050 O 0.36413 0.89357 0.52247
 C1051 C 0.37197 0.91168 0.52989
 C1052 C 0.36042 0.92356 0.54800
 C1053 C 0.33973 0.91620 0.55573
 H1054 H 0.33192 0.90194 0.54809
 O1055 O 0.61009 1.08030 0.52085
 O1056 O 0.63590 1.10621 0.52068
 C1057 C 0.62813 1.08817 0.52832
 C1058 C 0.63985 1.07650 0.54645
 C1059 C 0.66059 1.08400 0.55390
 H1060 H 0.66853 1.09784 0.54567
 O1061 O 0.52169 1.08057 0.60972
 O1062 O 0.52169 1.10652 0.63546
 C1063 C 0.52928 1.08845 0.62768
 C1064 C 0.54746 1.07673 0.63931
 C1065 C 0.55499 1.08418 0.66001
 H1066 H 0.54679 1.09804 0.66797
 O1067 O 0.47919 0.92007 0.61046
 O1068 O 0.47937 0.89430 0.63636
 C1069 C 0.47173 0.91231 0.62852
 C1070 C 0.45362 0.92410 0.64017
 C1071 C 0.44613 0.91672 0.66090
 H1072 H 0.45431 0.90287 0.66889
 O1073 O 0.61054 1.02223 0.57959
 O1074 O 0.63655 1.02248 0.60523
 C1075 C 0.62859 1.02991 0.58722
 C1076 C 0.64009 1.04801 0.57525
 C1077 C 0.66082 1.05576 0.58248
 H1078 H 0.66867 1.04815 0.59670
 O1079 O 0.39020 0.97815 0.58039
 O1080 O 0.36440 0.97812 0.60624
 C1081 C 0.37221 0.97054 0.58823
 C1082 C 0.36059 0.95233 0.57654
 C1083 C 0.33990 0.94475 0.58401
 H1084 H 0.33194 0.95294 0.59784
 O1085 O 0.57966 1.11063 0.52084
 O1086 O 0.60535 1.13665 0.52067
 C1087 C 0.58739 1.12876 0.52830
 C1088 C 0.57564 1.14044 0.54641
 C1089 C 0.58311 1.16118 0.55397
 H1090 H 0.59698 1.16914 0.54583
 O1091 O 0.42040 0.88917 0.52217
 O1092 O 0.39473 0.86312 0.52242
 C1093 C 0.41276 0.87109 0.52983
 C1094 C 0.42475 0.85957 0.54789
 C1095 C 0.41750 0.83881 0.55562
 H1096 H 0.40327 0.83095 0.54802
 O1097 O 0.58054 0.97894 0.61019
 O1098 O 0.60639 0.97911 0.63598
 C1099 C 0.58839 0.97144 0.62820
 C1100 C 0.57669 0.95325 0.63984
 C1101 C 0.58416 0.94561 0.66050
 H1102 H 0.59838 0.95338 0.66824
 O1103 O 0.42043 1.02168 0.61047
 O1104 O 0.39479 1.02168 0.63646
 C1105 C 0.41273 1.02929 0.62850
 C1106 C 0.42451 1.04754 0.63998
 C1107 C 0.41723 1.05519 0.66070
 H1108 H 0.40311 1.04739 0.66856
 O1109 O 0.47821 1.11064 0.57943
 O1110 O 0.47818 1.13674 0.60501
 C1111 C 0.47059 1.12873 0.58710
 C1112 C 0.45236 1.14022 0.57531
 C1113 C 0.44472 1.16101 0.58257
 H1114 H 0.45251 1.16892 0.59666
 O1115 O 0.52239 0.88978 0.58004
 O1116 O 0.52263 0.86386 0.60580
 C1117 C 0.53007 0.87175 0.58777
 C1118 C 0.54818 0.86017 0.57590
 C1119 C 0.55590 0.83943 0.58321
 H1120 H 0.54824 0.83161 0.59742
 O1121 O 0.61080 0.92054 0.52135
 O1122 O 0.63681 0.89482 0.52136
 C1123 C 0.62889 0.91285 0.52889
 C1124 C 0.64048 0.92469 0.54699
 C1125 C 0.66119 0.91728 0.55459
 H1126 H 0.66921 0.90341 0.54647
 O1127 O 0.38917 1.07960 0.52164
 O1128 O 0.36313 1.10529 0.52170
 C1129 C 0.37113 1.08732 0.52927
 C1130 C 0.35970 1.07551 0.54750
 C1131 C 0.33900 1.08285 0.55526
 H1132 H 0.33110 1.09701 0.54754
 Cu1133 Cu 0.50077 0.90752 0.59266
 Cu1134 Cu 0.50102 0.87649 0.62367
 Cu1135 Cu 0.49996 1.09304 0.59203
 Cu1136 Cu 0.49994 1.12428 0.62284
 Cu1137 Cu 0.40764 0.90684 0.50059
 Cu1138 Cu 0.37674 0.87565 0.50086
 Cu1139 Cu 0.59302 0.90778 0.49984
 Cu1140 Cu 0.62420 0.87684 0.49985
 Cu1141 Cu 0.40677 1.09218 0.49993
 Cu1142 Cu 0.37561 1.12312 0.49997
 Cu1143 Cu 0.59221 1.09278 0.49927
 Cu1144 Cu 0.62313 1.12396 0.49906
 Cu1145 Cu 0.40789 0.99992 0.59286
 Cu1146 Cu 0.37700 0.99989 0.62396
 Cu1147 Cu 0.59294 1.00057 0.59232
 Cu1148 Cu 0.62407 1.00083 0.62319
 C1149 C 0.55856 0.94267 0.62975
 H1150 H 0.55290 0.94826 0.61368
 C1151 C 0.57386 0.92750 0.67094
 C1152 C 0.44251 1.05813 0.62972
 H1153 H 0.44802 1.05252 0.61360
 C1154 C 0.42760 1.07332 0.67104
 C1155 C 0.37002 1.05745 0.55800
 H1156 H 0.38613 1.05191 0.55233
 C1157 C 0.32875 1.07247 0.57339
 C1158 C 0.63038 0.94287 0.55748
 H1159 H 0.61427 0.94848 0.55190
 C1160 C 0.67168 0.92764 0.57261
 C1161 C 0.55859 0.87038 0.55777
 H1162 H 0.55294 0.88652 0.55224
 C1163 C 0.57390 0.82900 0.57274
 C1164 C 0.44177 1.12991 0.55733
 H1165 H 0.44737 1.11374 0.55184
 C1166 C 0.42661 1.17138 0.57220
 C1167 C 0.44304 0.94225 0.63011
 H1168 H 0.44853 0.94783 0.61398
 C1169 C 0.42815 0.92712 0.67146
 C1170 C 0.55804 1.05855 0.62929
 H1171 H 0.55251 1.05290 0.61319
 C1172 C 0.57299 1.07384 0.67057
 C1173 C 0.44291 0.86983 0.55823
 H1174 H 0.44838 0.88598 0.55257
 C1175 C 0.42807 0.82843 0.57357
 C1176 C 0.55748 1.13041 0.55693
 H1177 H 0.55183 1.11428 0.55138
 C1178 C 0.57282 1.17174 0.57198
 C1179 C 0.37061 0.94176 0.55840
 H1180 H 0.38670 0.94733 0.55274
 C1181 C 0.32934 0.92669 0.57373
 C1182 C 0.62985 1.05836 0.55710
 H1183 H 0.61372 1.05268 0.55163
 C1184 C 0.67120 1.07374 0.57191
 O1185 O 0.47844 0.41941 0.89007
 O1186 O 0.47842 0.39350 0.86429
 C1187 C 0.47087 0.41158 0.87208
 C1188 C 0.45275 0.42340 0.86046
 C1189 C 0.44507 0.41596 0.83979
 H1190 H 0.45275 0.40168 0.83206
 O1191 O 0.52135 0.58005 0.88953
 O1192 O 0.52131 0.60581 0.86361
 C1193 C 0.52889 0.58778 0.87149
 C1194 C 0.54701 0.57592 0.85989
 C1195 C 0.55464 0.58328 0.83920
 H1196 H 0.54693 0.59753 0.83143
 O1197 O 0.38974 0.47805 0.92027
 O1198 O 0.36384 0.47793 0.89452
 C1199 C 0.37170 0.47044 0.91253
 C1200 C 0.36007 0.45232 0.92434
 C1201 C 0.33939 0.44468 0.91690
 H1202 H 0.33143 0.45278 0.90301
 O1203 O 0.61024 0.52161 0.91976
 O1204 O 0.63611 0.52162 0.89399
 C1205 C 0.62826 0.52920 0.91199
 C1206 C 0.63986 0.54738 0.92377
 C1207 C 0.66055 0.55508 0.91637
 H1208 H 0.66832 0.54739 0.90215
 O1209 O 0.41998 0.38941 0.97875
 O1210 O 0.39421 0.36345 0.97880
 C1211 C 0.41222 0.37131 0.97124
 C1212 C 0.42403 0.35963 0.95316
 C1213 C 0.41661 0.33888 0.94559
 H1214 H 0.40272 0.33091 0.95367
 O1215 O 0.57976 0.61047 0.97802
 O1216 O 0.60553 0.63642 0.97793
 C1217 C 0.58750 0.62853 0.97042
 C1218 C 0.57569 0.64014 0.95232
 C1219 C 0.58311 0.66086 0.94469
 H1220 H 0.59700 0.66886 0.95277
 O1221 O 0.42000 0.52131 0.88982
 O1222 O 0.39420 0.52119 0.86396
 C1223 C 0.41221 0.52882 0.87178
 C1224 C 0.42392 0.54697 0.86012
 C1225 C 0.41647 0.55448 0.83941
 H1226 H 0.40264 0.54625 0.83146
 O1227 O 0.57992 0.47817 0.88965
 O1228 O 0.60563 0.47811 0.86372
 C1229 C 0.58765 0.47053 0.87164
 C1230 C 0.57584 0.45229 0.86016
 C1231 C 0.58318 0.44456 0.83948
 H1232 H 0.59736 0.45230 0.83165
 O1233 O 0.52173 0.38922 0.92049
 O1234 O 0.52179 0.36316 0.89486
 C1235 C 0.52935 0.37114 0.91281
 C1236 C 0.54755 0.35964 0.92462
 C1237 C 0.55527 0.33889 0.91732
 H1238 H 0.54754 0.33100 0.90318
 O1239 O 0.47806 0.61041 0.91981
 O1240 O 0.47796 0.63633 0.89405
 C1241 C 0.47043 0.62845 0.91205
 C1242 C 0.45227 0.64006 0.92385
 C1243 C 0.44461 0.66080 0.91649
 H1244 H 0.45232 0.66860 0.90230
 O1245 O 0.38933 0.57995 0.97837
 O1246 O 0.36332 0.60568 0.97829
 C1247 C 0.37125 0.58763 0.97080
 C1248 C 0.35970 0.57571 0.95272
 C1249 C 0.33897 0.58302 0.94502
 H1250 H 0.33113 0.59726 0.95267
 O1251 O 0.61061 0.42024 0.97856
 O1252 O 0.63660 0.39450 0.97860
 C1253 C 0.62867 0.41249 0.97101
 C1254 C 0.64020 0.42423 0.95282
 C1255 C 0.66090 0.41681 0.94521
 H1256 H 0.66896 0.40299 0.95338
 O1257 O 0.47814 0.58001 0.88951
 O1258 O 0.47802 0.60577 0.86360
 C1259 C 0.47053 0.58771 0.87148
 C1260 C 0.45245 0.57578 0.85994
 C1261 C 0.44474 0.58307 0.83924
 H1262 H 0.45238 0.59732 0.83142
 O1263 O 0.52165 0.41950 0.89009
 O1264 O 0.52170 0.39359 0.86432
 C1265 C 0.52922 0.41168 0.87209
 C1266 C 0.54730 0.42350 0.86042
 C1267 C 0.55486 0.41603 0.83974
 H1268 H 0.54675 0.40209 0.83182
 O1269 O 0.61033 0.47834 0.91989
 O1270 O 0.63619 0.47828 0.89412
 C1271 C 0.62839 0.47078 0.91215
 C1272 C 0.64009 0.45273 0.92403
 C1273 C 0.66079 0.44505 0.91663
 H1274 H 0.66849 0.45268 0.90235
 O1275 O 0.38970 0.52134 0.92018
 O1276 O 0.36379 0.52123 0.89444
 C1277 C 0.37163 0.52885 0.91242
 C1278 C 0.35994 0.54698 0.92415
 C1279 C 0.33921 0.55451 0.91670
 H1280 H 0.33127 0.54632 0.90285
 O1281 O 0.41966 0.61035 0.97820
 O1282 O 0.39380 0.63623 0.97811
 C1283 C 0.41184 0.62837 0.97059
 C1284 C 0.42360 0.63998 0.95244
 C1285 C 0.41619 0.66073 0.94486
 H1286 H 0.40233 0.66875 0.95297
 O1287 O 0.58033 0.38978 0.97865
 O1288 O 0.60619 0.36391 0.97868
 C1289 C 0.58813 0.37170 0.97114
 C1290 C 0.57633 0.35996 0.95311
 C1291 C 0.58379 0.33921 0.94559
 H1292 H 0.59772 0.33128 0.95368
 O1293 O 0.57978 0.52149 0.88957
 O1294 O 0.60550 0.52149 0.86366
 C1295 C 0.58749 0.52905 0.87153
 C1296 C 0.57566 0.54720 0.85994
 C1297 C 0.58303 0.55479 0.83924
 H1298 H 0.59688 0.54663 0.83124
 O1299 O 0.42012 0.47799 0.89000
 O1300 O 0.39433 0.47787 0.86414
 C1301 C 0.41236 0.47034 0.87201
 C1302 C 0.42414 0.45214 0.86046
 C1303 C 0.41672 0.44450 0.83980
 H1304 H 0.40288 0.45265 0.83179
 O1305 O 0.52130 0.61052 0.91975
 O1306 O 0.52127 0.63644 0.89399
 C1307 C 0.52885 0.62859 0.91198
 C1308 C 0.54699 0.64022 0.92376
 C1309 C 0.55467 0.66093 0.91634
 H1310 H 0.54696 0.66871 0.90213
 O1311 O 0.47847 0.38915 0.92050
 O1312 O 0.47847 0.36310 0.89486
 C1313 C 0.47090 0.37104 0.91282
 C1314 C 0.45275 0.35946 0.92463
 C1315 C 0.44508 0.33871 0.91728
 H1316 H 0.45280 0.33089 0.90310
 O1317 O 0.61016 0.58009 0.97809
 O1318 O 0.63604 0.60593 0.97801
 C1319 C 0.62819 0.58787 0.97051
 C1320 C 0.63980 0.57606 0.95239
 C1321 C 0.66049 0.58350 0.94478
 H1322 H 0.66848 0.59739 0.95290
 O1323 O 0.38956 0.41973 0.97872
 O1324 O 0.36364 0.39393 0.97877
 C1325 C 0.37151 0.41195 0.97118
 C1326 C 0.35992 0.42373 0.95304
 C1327 C 0.33923 0.41630 0.94533
 H1328 H 0.33144 0.40207 0.95304
 Cu1329 Cu 0.50006 0.40691 0.90786
 Cu1330 Cu 0.50010 0.37572 0.87701
 Cu1331 Cu 0.49972 0.59267 0.90723
 Cu1332 Cu 0.49963 0.62369 0.87622
 Cu1333 Cu 0.40748 0.49969 0.90764
 Cu1334 Cu 0.37645 0.49954 0.87667
 Cu1335 Cu 0.59249 0.49990 0.90729
 Cu1336 Cu 0.62344 0.49987 0.87627
 C1337 C 0.44230 0.44162 0.87054
 H1338 H 0.44791 0.44725 0.88662
 C1339 C 0.42705 0.42641 0.82934
 C1340 C 0.55751 0.55774 0.87002
 H1341 H 0.55193 0.55218 0.88612
 C1342 C 0.57265 0.57282 0.82874
 C1343 C 0.37009 0.44187 0.94255
 H1344 H 0.38618 0.44749 0.94818
 C1345 C 0.32885 0.42667 0.92726
 C1346 C 0.62973 0.55786 0.94191
 H1347 H 0.61364 0.55222 0.94751
 C1348 C 0.67099 0.57315 0.92677
 C1349 C 0.44224 0.36967 0.94271
 H1350 H 0.44786 0.38581 0.94826
 C1351 C 0.42702 0.32829 0.92765
 C1352 C 0.55749 0.63007 0.94188
 H1353 H 0.55187 0.61395 0.94748
 C1354 C 0.57273 0.67138 0.92670
 C1355 C 0.44205 0.55759 0.87013
 H1356 H 0.44769 0.55208 0.88623
 C1357 C 0.42676 0.57252 0.82885
 C1358 C 0.55776 0.44177 0.87038
 H1359 H 0.55221 0.44743 0.88646
 C1360 C 0.57279 0.42644 0.82914
 C1361 C 0.55807 0.36993 0.94265
 H1362 H 0.55242 0.38607 0.94817
 C1363 C 0.57338 0.32855 0.92770
 C1364 C 0.44178 0.62989 0.94196
 H1365 H 0.44740 0.61375 0.94753
 C1366 C 0.42658 0.67128 0.92690
 C1367 C 0.36993 0.55755 0.94230
 H1368 H 0.38606 0.55202 0.94794
 C1369 C 0.32861 0.57253 0.92700
 C1370 C 0.63004 0.44234 0.94226
 H1371 H 0.61393 0.44795 0.94785
 C1372 C 0.67132 0.42709 0.92712
 O1373 O 0.52189 0.42003 1.11019
 O1374 O 0.52199 0.39424 1.13608
 C1375 C 0.52949 0.41230 1.12822
 C1376 C 0.54758 0.42418 1.13982
 C1377 C 0.55525 0.41675 1.16047
 H1378 H 0.54722 0.40279 1.16841
 O1379 O 0.47828 0.58068 1.10992
 O1380 O 0.47823 0.60659 1.13570
 C1381 C 0.47074 0.58848 1.12793
 C1382 C 0.45273 0.57660 1.13963
 C1383 C 0.44522 0.58396 1.16037
 H1384 H 0.45330 0.59790 1.16831
 O1385 O 0.38992 0.52175 1.08006
 O1386 O 0.36408 0.52180 1.10586
 C1387 C 0.37189 0.52933 1.08783
 C1388 C 0.36020 0.54745 1.07605
 C1389 C 0.33953 0.55507 1.08354
 H1390 H 0.33163 0.54697 1.09745
 O1391 O 0.61028 0.47888 1.08004
 O1392 O 0.63618 0.47898 1.10579
 C1393 C 0.62834 0.47137 1.08780
 C1394 C 0.64002 0.45322 1.07606
 C1395 C 0.66072 0.44565 1.08353
 H1396 H 0.66866 0.45381 1.09740
 O1397 O 0.58038 0.38984 1.02179
 O1398 O 0.60625 0.36397 1.02185
 C1399 C 0.58819 0.37179 1.02936
 C1400 C 0.57641 0.36010 1.04742
 C1401 C 0.58384 0.33936 1.05498
 H1402 H 0.59774 0.33139 1.04688
 O1403 O 0.41967 0.61060 1.02136
 O1404 O 0.39381 0.63647 1.02132
 C1405 C 0.41188 0.62869 1.02885
 C1406 C 0.42369 0.64043 1.04687
 C1407 C 0.41631 0.66123 1.05435
 H1408 H 0.40243 0.66920 1.04623
 O1409 O 0.42033 0.47852 1.11044
 O1410 O 0.39460 0.47852 1.13635
 C1411 C 0.41261 0.47095 1.12848
 C1412 C 0.42444 0.45278 1.14004
 C1413 C 0.41706 0.44508 1.16071
 H1414 H 0.40284 0.45279 1.16849
 O1415 O 0.57984 0.52217 1.11027
 O1416 O 0.60559 0.52231 1.13617
 C1417 C 0.58756 0.52982 1.12827
 C1418 C 0.57570 0.54799 1.13979
 C1419 C 0.58298 0.55566 1.16051
 H1420 H 0.59715 0.54791 1.16836
 O1421 O 0.47866 0.38949 1.08001
 O1422 O 0.47872 0.36357 1.10576
 C1423 C 0.47111 0.37142 1.08778
 C1424 C 0.45296 0.35978 1.07604
 C1425 C 0.44534 0.33904 1.08346
 H1426 H 0.45311 0.33127 1.09764
 O1427 O 0.52140 0.61102 1.07949
 O1428 O 0.52144 0.63707 1.10512
 C1429 C 0.52898 0.62912 1.08716
 C1430 C 0.54710 0.64068 1.07531
 C1431 C 0.55482 0.66142 1.08263
 H1432 H 0.54714 0.66926 1.09683
 O1433 O 0.38966 0.41986 1.02189
 O1434 O 0.36374 0.39406 1.02201
 C1435 C 0.37163 0.41212 1.02951
 C1436 C 0.36008 0.42399 1.04763
 C1437 C 0.33939 0.41662 1.05536
 H1438 H 0.33158 0.40237 1.04771
 O1439 O 0.61017 0.58024 1.02130
 O1440 O 0.63604 0.60608 1.02122
 C1441 C 0.62819 0.58806 1.02884
 C1442 C 0.63980 0.57638 1.04704
 C1443 C 0.66048 0.58389 1.05463
 H1444 H 0.66847 0.59773 1.04644
 O1445 O 0.52147 0.58073 1.10988
 O1446 O 0.52148 0.60664 1.13566
 C1447 C 0.52902 0.58856 1.12788
 C1448 C 0.54711 0.57675 1.13955
 C1449 C 0.55461 0.58416 1.16028
 H1450 H 0.54646 0.59806 1.16822
 O1451 O 0.47868 0.41996 1.11024
 O1452 O 0.47873 0.39417 1.13613
 C1453 C 0.47115 0.41221 1.12828
 C1454 C 0.45304 0.42403 1.13990
 C1455 C 0.44545 0.41659 1.16056
 H1456 H 0.45356 0.40268 1.16852
 O1457 O 0.61023 0.52215 1.08002
 O1458 O 0.63613 0.52232 1.10576
 C1459 C 0.62826 0.52980 1.08774
 C1460 C 0.63985 0.54790 1.07585
 C1461 C 0.66053 0.55567 1.08322
 H1462 H 0.66829 0.54807 1.09750
 O1463 O 0.38996 0.47845 1.08015
 O1464 O 0.36410 0.47847 1.10594
 C1465 C 0.37193 0.47088 1.08794
 C1466 C 0.36028 0.45272 1.07621
 C1467 C 0.33959 0.44513 1.08368
 H1468 H 0.33164 0.45330 1.09754
 O1469 O 0.57979 0.61062 1.02118
 O1470 O 0.60556 0.63658 1.02110
 C1471 C 0.58754 0.62873 1.02867
 C1472 C 0.57576 0.64045 1.04672
 C1473 C 0.58321 0.66119 1.05426
 H1474 H 0.59710 0.66914 1.04614
 O1475 O 0.42003 0.38949 1.02189
 O1476 O 0.39426 0.36353 1.02201
 C1477 C 0.41230 0.37142 1.02949
 C1478 C 0.42417 0.35982 1.04757
 C1479 C 0.41681 0.33908 1.05520
 H1480 H 0.40291 0.33105 1.04715
 O1481 O 0.58000 0.47884 1.11038
 O1482 O 0.60575 0.47893 1.13627
 C1483 C 0.58778 0.47129 1.12841
 C1484 C 0.57605 0.45305 1.13996
 C1485 C 0.58350 0.44535 1.16061
 H1486 H 0.59770 0.45312 1.16839
 O1487 O 0.42027 0.52185 1.11036
 O1488 O 0.39456 0.52188 1.13629
 C1489 C 0.41254 0.52946 1.12838
 C1490 C 0.42432 0.54768 1.13990
 C1491 C 0.41703 0.55529 1.16063
 H1492 H 0.40293 0.54746 1.16849
 O1493 O 0.47816 0.61099 1.07954
 O1494 O 0.47814 0.63705 1.10517
 C1495 C 0.47058 0.62909 1.08722
 C1496 C 0.45243 0.64066 1.07540
 C1497 C 0.44480 0.66145 1.08266
 H1498 H 0.45255 0.66932 1.09680
 O1499 O 0.52191 0.38954 1.07998
 O1500 O 0.52201 0.36361 1.10573
 C1501 C 0.52953 0.37149 1.08773
 C1502 C 0.54769 0.35991 1.07594
 C1503 C 0.55538 0.33917 1.08328
 H1504 H 0.54766 0.33133 1.09745
 O1505 O 0.61064 0.42032 1.02176
 O1506 O 0.63664 0.39459 1.02183
 C1507 C 0.62870 0.41262 1.02935
 C1508 C 0.64024 0.42451 1.04746
 C1509 C 0.66095 0.41716 1.05520
 H1510 H 0.66877 0.40291 1.04755
 O1511 O 0.38946 0.58009 1.02155
 O1512 O 0.36345 0.60581 1.02153
 C1513 C 0.37141 0.58783 1.02913
 C1514 C 0.35992 0.57604 1.04734
 C1515 C 0.33924 0.58344 1.05510
 H1516 H 0.33140 0.59766 1.04741
 Cu1517 Cu 0.50028 0.40733 1.09251
 Cu1518 Cu 0.50037 0.37630 1.12352
 Cu1519 Cu 0.49982 0.59327 1.09213
 Cu1520 Cu 0.49982 0.62446 1.12299
 Cu1521 Cu 0.40738 0.40721 1.00030
 Cu1522 Cu 0.37637 0.37614 1.00041
 Cu1523 Cu 0.59291 0.40764 1.00019
 Cu1524 Cu 0.62403 0.37666 1.00025
 Cu1525 Cu 0.40711 0.59266 0.99988
 Cu1526 Cu 0.37599 0.62364 0.99981
 Cu1527 Cu 0.59240 0.59276 0.99965
 Cu1528 Cu 0.62339 0.62385 0.99955
 Cu1529 Cu 0.40771 0.50014 1.09268
 Cu1530 Cu 0.37675 0.50017 1.12371
 Cu1531 Cu 0.59249 0.50050 1.09261
 Cu1532 Cu 0.62350 0.50065 1.12360
 C1533 C 0.55795 0.44248 1.12982
 H1534 H 0.55232 0.44811 1.11375
 C1535 C 0.57321 0.42720 1.17098
 C1536 C 0.44230 0.55832 1.12965
 H1537 H 0.44781 0.55274 1.11352
 C1538 C 0.42739 0.57341 1.17100
 C1539 C 0.37015 0.55790 1.05781
 H1540 H 0.38623 0.55230 1.05213
 C1541 C 0.32893 0.57307 1.07321
 C1542 C 0.63003 0.44268 1.05789
 H1543 H 0.61392 0.44824 1.05223
 C1544 C 0.67130 0.42762 1.07323
 C1545 C 0.55819 0.37013 1.05788
 H1546 H 0.55256 0.38627 1.05233
 C1547 C 0.57345 0.32876 1.07290
 C1548 C 0.44189 0.63040 1.05736
 H1549 H 0.44748 0.61422 1.05188
 C1550 C 0.42675 0.67187 1.07224
 C1551 C 0.44256 0.44227 1.12988
 H1552 H 0.44814 0.44791 1.11380
 C1553 C 0.42746 0.42698 1.17109
 C1554 C 0.55763 0.55853 1.12956
 H1555 H 0.55213 0.55291 1.11344
 C1556 C 0.57254 0.57373 1.17088
 C1557 C 0.44238 0.36992 1.05797
 H1558 H 0.44796 0.38606 1.05236
 C1559 C 0.42727 0.32856 1.07314
 C1560 C 0.55756 0.63044 1.05722
 H1561 H 0.55192 0.61430 1.05169
 C1562 C 0.57287 0.67180 1.07221
 C1563 C 0.37028 0.44217 1.05804
 H1564 H 0.38638 0.44774 1.05239
 C1565 C 0.32902 0.42709 1.07339
 C1566 C 0.62973 0.55825 1.05763
 H1567 H 0.61364 0.55257 1.05205
 C1568 C 0.67097 0.57366 1.07272
 C1569 C 1.12207 1.12304 1.29070
 C1570 C 1.12410 1.14604 1.29324
 C1571 C 1.13308 1.15485 1.31265
 C1572 C 1.14015 1.14074 1.32979
 C1573 C 1.13795 1.11765 1.32716
 C1574 C 1.12896 1.10886 1.30771
 C1575 C 1.11321 1.11406 1.27048
 C1576 C 1.10590 1.10679 1.25339
 C1577 C 1.09731 1.09844 1.23279
 C1578 C 1.09084 1.11326 1.21619
 C1579 C 1.08278 1.10527 1.19603
 C1580 C 1.08109 1.08229 1.19220
 C1581 C 1.08760 1.06751 1.20902
 C1582 C 1.09564 1.07555 1.22919
 H1583 H 1.11888 1.15716 1.28014
 H1584 H 1.13482 1.17266 1.31421
 H1585 H 1.14318 1.10649 1.34019
 H1586 H 1.12746 1.09103 1.30591
 H1587 H 1.09215 1.13101 1.21877
 H1588 H 1.07823 1.11706 1.18330
 H1589 H 1.08627 1.04974 1.20664
 H1590 H 1.10059 1.06393 1.24195
 C1591 C 1.12206 0.62272 0.79101
 C1592 C 1.12403 0.64573 0.79355
 C1593 C 1.13299 0.65456 0.81296
 C1594 C 1.14010 0.64048 0.83010
 C1595 C 1.13796 0.61739 0.82747
 C1596 C 1.12899 0.60856 0.80803
 C1597 C 1.11325 0.61371 0.77079
 C1598 C 1.10599 0.60643 0.75369
 C1599 C 1.09744 0.59809 0.73307
 C1600 C 1.09098 0.61292 0.71647
 C1601 C 1.08296 0.60494 0.69630
 C1602 C 1.08130 0.58196 0.69244
 C1603 C 1.08779 0.56717 0.70926
 C1604 C 1.09581 0.57520 0.72945
 H1605 H 1.11878 0.65683 0.78045
 H1606 H 1.13468 0.67239 0.81451
 H1607 H 1.14323 0.60624 0.84050
 H1608 H 1.12755 0.59073 0.80624
 H1609 H 1.09228 0.63067 0.71907
 H1610 H 1.07841 0.61674 0.68357
 H1611 H 1.08648 0.54940 0.70686
 H1612 H 1.10075 0.56357 0.74220
 C1613 C 0.62200 1.12294 0.79076
 C1614 C 0.62400 1.14594 0.79333
 C1615 C 0.63298 1.15473 0.81276
 C1616 C 0.64007 1.14060 0.82988
 C1617 C 0.63789 1.11752 0.82721
 C1618 C 0.62891 1.10874 0.80775
 C1619 C 0.61317 1.11397 0.77053
 C1620 C 0.60590 1.10672 0.75341
 C1621 C 0.59735 1.09839 0.73279
 C1622 C 0.59093 1.11323 0.71618
 C1623 C 0.58292 1.10525 0.69600
 C1624 C 0.58122 1.08228 0.69215
 C1625 C 0.58767 1.06748 0.70898
 C1626 C 0.59568 1.07550 0.72917
 H1627 H 0.61878 1.15707 0.78025
 H1628 H 0.63469 1.17254 0.81434
 H1629 H 0.64313 1.10634 0.84022
 H1630 H 0.62744 1.09091 0.80593
 H1631 H 0.59226 1.13097 0.71877
 H1632 H 0.57841 1.11705 0.68326
 H1633 H 0.58633 1.04972 0.70659
 H1634 H 0.60058 1.06387 0.74194
 C1635 C 0.62176 0.62267 1.29103
 C1636 C 0.62388 0.64566 1.29358
 C1637 C 0.63292 0.65443 1.31299
 C1638 C 0.63995 0.64028 1.33011
 C1639 C 0.63764 0.61721 1.32748
 C1640 C 0.62860 0.60846 1.30804
 C1641 C 0.61287 0.61373 1.27082
 C1642 C 0.60555 0.60650 1.25372
 C1643 C 0.59695 0.59820 1.23311
 C1644 C 0.59062 0.61306 1.21648
 C1645 C 0.58259 0.60511 1.19630
 C1646 C 0.58077 0.58214 1.19247
 C1647 C 0.58712 0.56732 1.20932
 C1648 C 0.59515 0.57532 1.22951
 H1649 H 0.61871 0.65680 1.28049
 H1650 H 0.63474 0.67223 1.31455
 H1651 H 0.64284 0.60602 1.34050
 H1652 H 0.62703 0.59064 1.30624
 H1653 H 0.59205 0.63080 1.21906
 H1654 H 0.57815 0.61693 1.18355
 H1655 H 0.58569 0.54957 1.20694
 H1656 H 0.59998 0.56367 1.24229
 C1657 C 0.87750 0.87828 1.29104
 C1658 C 0.89145 0.87129 1.30819
 C1659 C 0.88244 0.86223 1.32750
 C1660 C 0.85936 0.86005 1.32985
 C1661 C 0.84548 0.86723 1.31259
 C1662 C 0.85450 0.87629 1.29331
 C1663 C 0.88673 0.88708 1.27093
 C1664 C 0.89430 0.89425 1.25391
 C1665 C 0.90314 0.90253 1.23340
 C1666 C 0.90490 0.92541 1.22979
 C1667 C 0.91307 0.93340 1.20965
 C1668 C 0.91958 0.91857 1.19287
 C1669 C 0.91783 0.89561 1.19672
 C1670 C 0.90966 0.88766 1.21685
 H1671 H 0.90928 0.87274 1.30660
 H1672 H 0.89343 0.85692 1.34063
 H1673 H 0.82767 0.86553 1.31393
 H1674 H 0.84356 0.88157 1.28010
 H1675 H 0.89991 0.93706 1.24250
 H1676 H 0.91444 0.95116 1.20726
 H1677 H 0.92239 0.88378 1.18402
 H1678 H 0.90826 0.86992 1.21943
 C1679 C 0.87758 0.37844 0.79123
 C1680 C 0.85458 0.37651 0.79351
 C1681 C 0.84554 0.36746 0.81279
 C1682 C 0.85942 0.36023 0.83003
 C1683 C 0.88251 0.36237 0.82767
 C1684 C 0.89153 0.37142 0.80837
 C1685 C 0.88683 0.38721 0.77111
 C1686 C 0.89442 0.39434 0.75408
 C1687 C 0.90328 0.40258 0.73357
 C1688 C 0.90982 0.38769 0.71705
 C1689 C 0.91800 0.39560 0.69691
 C1690 C 0.91975 0.41856 0.69303
 C1691 C 0.91323 0.43341 0.70979
 C1692 C 0.90506 0.42545 0.72993
 H1693 H 0.84365 0.38182 0.78031
 H1694 H 0.82773 0.36579 0.81414
 H1695 H 0.89349 0.35702 0.84079
 H1696 H 0.90935 0.37282 0.80677
 H1697 H 0.90842 0.36995 0.71966
 H1698 H 0.92257 0.38376 0.68423
 H1699 H 0.91461 0.45116 0.70737
 H1700 H 0.90006 0.43713 0.74262
 C1701 C 0.37764 0.87862 0.79120
 C1702 C 0.39157 0.87161 0.80836
 C1703 C 0.38253 0.86254 0.82764
 C1704 C 0.35945 0.86038 0.82997
 C1705 C 0.34558 0.86760 0.81272
 C1706 C 0.35463 0.87667 0.79345
 C1707 C 0.38690 0.88740 0.77109
 C1708 C 0.39450 0.89453 0.75407
 C1709 C 0.40338 0.90277 0.73357
 C1710 C 0.40520 0.92564 0.72994
 C1711 C 0.41339 0.93359 0.70980
 C1712 C 0.41989 0.91874 0.69304
 C1713 C 0.41810 0.89578 0.69691
 C1714 C 0.40990 0.88787 0.71704
 H1715 H 0.40939 0.87303 0.80677
 H1716 H 0.39351 0.85719 0.84077
 H1717 H 0.32777 0.86590 0.81405
 H1718 H 0.34371 0.88197 0.78024
 H1719 H 0.40022 0.93732 0.74264
 H1720 H 0.41480 0.95135 0.70739
 H1721 H 0.42265 0.88394 0.68422
 H1722 H 0.40847 0.87014 0.71964
 C1723 C 0.37796 0.37730 1.29079
 C1724 C 0.37107 0.39137 1.30789
 C1725 C 0.36199 0.38247 1.32723
 C1726 C 0.35970 0.35937 1.32968
 C1727 C 0.36679 0.34536 1.31247
 C1728 C 0.37587 0.35428 1.29315
 C1729 C 0.38686 0.38640 1.27066
 C1730 C 0.39418 0.39376 1.25362
 C1731 C 0.40279 0.40219 1.23308
 C1732 C 0.40455 0.42509 1.22959
 C1733 C 0.41264 0.43320 1.20947
 C1734 C 0.41910 0.41847 1.19258
 C1735 C 0.41730 0.39548 1.19629
 C1736 C 0.40920 0.38742 1.21640
 H1737 H 0.37261 0.40921 1.30623
 H1738 H 0.35674 0.39356 1.34032
 H1739 H 0.36499 0.32754 1.31389
 H1740 H 0.38108 0.34324 1.27999
 H1741 H 0.39965 0.43667 1.24241
 H1742 H 0.41404 0.45097 1.20718
 H1743 H 0.42181 0.38373 1.18350
 H1744 H 0.40781 0.36967 1.21888
 C1745 C 0.87655 1.12136 0.70889
 C1746 C 0.85358 1.12344 0.70635
 C1747 C 0.84480 1.13261 0.68701
 C1748 C 0.85890 1.13983 0.66994
 C1749 C 0.88194 1.13755 0.67256
 C1750 C 0.89071 1.12838 0.69193
 C1751 C 0.88555 1.11249 0.72908
 C1752 C 0.89296 1.10529 0.74617
 C1753 C 0.90166 1.09701 0.76674
 C1754 C 0.90805 1.11190 0.78334
 C1755 C 0.91621 1.10397 0.80348
 C1756 C 0.91811 1.08101 0.80731
 C1757 C 0.91169 1.06617 0.79050
 C1758 C 0.90353 1.07414 0.77035
 H1759 H 0.84248 1.11814 0.71941
 H1760 H 0.82701 1.13439 0.68547
 H1761 H 0.89310 1.14289 0.65958
 H1762 H 0.90851 1.12687 0.69372
 H1763 H 0.90658 1.12963 0.78076
 H1764 H 0.92070 1.11581 0.81620
 H1765 H 0.91317 1.04842 0.79288
 H1766 H 0.89865 1.06248 0.75760
 C1767 C 0.87640 0.62154 0.20938
 C1768 C 0.85344 0.62371 0.20690
 C1769 C 0.84465 0.63289 0.18757
 C1770 C 0.85874 0.64003 0.17046
 C1771 C 0.88178 0.63766 0.17302
 C1772 C 0.89055 0.62847 0.19237
 C1773 C 0.88541 0.61265 0.22956
 C1774 C 0.89284 0.60545 0.24663
 C1775 C 0.90156 0.59717 0.26720
 C1776 C 0.90796 0.61205 0.28379
 C1777 C 0.91614 0.60412 0.30392
 C1778 C 0.91803 0.58116 0.30774
 C1779 C 0.91160 0.56632 0.29094
 C1780 C 0.90342 0.57430 0.27079
 H1781 H 0.84234 0.61848 0.21999
 H1782 H 0.82686 0.63475 0.18606
 H1783 H 0.89292 0.64293 0.16001
 H1784 H 0.90835 0.62689 0.19413
 H1785 H 0.90649 0.62979 0.28121
 H1786 H 0.92064 0.61595 0.31664
 H1787 H 0.91308 0.54857 0.29331
 H1788 H 0.89853 0.56263 0.25805
 C1789 C 0.37667 1.12147 0.20917
 C1790 C 0.35371 1.12364 0.20667
 C1791 C 0.34493 1.13279 0.18731
 C1792 C 0.35904 1.13989 0.17020
 C1793 C 0.38208 1.13753 0.17279
 C1794 C 0.39084 1.12837 0.19217
 C1795 C 0.38563 1.11249 0.22933
 C1796 C 0.39290 1.10511 0.24639
 C1797 C 0.40129 1.09645 0.26694
 C1798 C 0.38653 1.08995 0.28357
 C1799 C 0.39456 1.08189 0.30371
 C1800 C 0.41751 1.08023 0.30749
 C1801 C 0.43223 1.08674 0.29064
 C1802 C 0.42415 1.09480 0.27049
 H1803 H 0.34260 1.11841 0.21975
 H1804 H 0.32715 1.13464 0.18579
 H1805 H 0.39324 1.14277 0.15978
 H1806 H 0.40863 1.12677 0.19394
 H1807 H 0.36880 1.09126 0.28102
 H1808 H 0.38282 1.07732 0.31646
 H1809 H 0.44997 1.08544 0.29299
 H1810 H 0.43572 1.09977 0.25772
 C1811 C 0.37724 0.62150 0.70883
 C1812 C 0.35427 0.62353 0.70637
 C1813 C 0.34540 0.63257 0.68700
 C1814 C 0.35943 0.63969 0.66984
 C1815 C 0.38249 0.63746 0.67239
 C1816 C 0.39134 0.62842 0.69178
 C1817 C 0.38629 0.61266 0.72902
 C1818 C 0.39361 0.60540 0.74611
 C1819 C 0.40202 0.59687 0.76670
 C1820 C 0.38727 0.59043 0.78335
 C1821 C 0.39531 0.58243 0.80352
 C1822 C 0.41826 0.58077 0.80730
 C1823 C 0.43298 0.58725 0.79044
 C1824 C 0.42489 0.59524 0.77026
 H1825 H 0.34321 0.61829 0.71949
 H1826 H 0.32761 0.63432 0.68551
 H1827 H 0.39359 0.64274 0.65934
 H1828 H 0.40915 0.62693 0.69352
 H1829 H 0.36954 0.59172 0.78081
 H1830 H 0.38357 0.57789 0.81629
 H1831 H 0.45072 0.58595 0.79278
 H1832 H 0.43645 0.60017 0.75746
 C1833 C 1.12227 0.87717 0.70917
 C1834 C 1.12939 0.89130 0.69222
 C1835 C 1.13841 0.88245 0.67281
 C1836 C 1.14042 0.85935 0.67015
 C1837 C 1.13311 0.84528 0.68722
 C1838 C 1.12410 0.85415 0.70659
 C1839 C 1.11340 0.88621 0.72935
 C1840 C 1.10609 0.89352 0.74643
 C1841 C 1.09749 0.90193 0.76700
 C1842 C 1.09564 0.92482 0.77049
 C1843 C 1.08756 0.93291 0.79063
 C1844 C 1.08121 0.91816 0.80754
 C1845 C 1.08310 0.89518 0.80382
 C1846 C 1.09118 0.88714 0.78369
 H1847 H 1.12805 0.90914 0.69404
 H1848 H 1.14382 0.89359 0.65983
 H1849 H 1.13469 0.82745 0.68564
 H1850 H 1.11871 0.84306 0.71964
 H1851 H 1.10046 0.93641 0.75766
 H1852 H 1.08609 0.95067 0.79292
 H1853 H 1.07867 0.88342 0.81663
 H1854 H 1.09264 0.86939 0.78121
 C1855 C 1.12218 0.37723 0.20916
 C1856 C 1.12929 0.39138 0.19221
 C1857 C 1.13831 0.38255 0.17280
 C1858 C 1.14034 0.35945 0.17012
 C1859 C 1.13305 0.34537 0.18719
 C1860 C 1.12403 0.35422 0.20657
 C1861 C 1.11329 0.38626 0.22934
 C1862 C 1.10596 0.39357 0.24641
 C1863 C 1.09733 0.40197 0.26697
 C1864 C 1.09550 0.42487 0.27047
 C1865 C 1.08740 0.43296 0.29060
 C1866 C 1.08101 0.41822 0.30750
 C1867 C 1.08288 0.39523 0.30378
 C1868 C 1.09098 0.38719 0.28366
 H1869 H 1.12793 0.40922 0.19404
 H1870 H 1.14371 0.39370 0.15983
 H1871 H 1.13464 0.32754 0.18560
 H1872 H 1.11865 0.34312 0.21961
 H1873 H 1.10035 0.43646 0.25765
 H1874 H 1.08594 0.45072 0.29289
 H1875 H 1.07842 0.38347 0.31657
 H1876 H 1.09242 0.36944 0.28117
 C1877 C 0.62200 0.87726 0.20897
 C1878 C 0.62390 0.85425 0.20641
 C1879 C 0.63296 0.84540 0.18705
 C1880 C 0.64022 0.85949 0.16997
 C1881 C 0.63815 0.88258 0.17263
 C1882 C 0.62909 0.89141 0.19203
 C1883 C 0.61304 0.88626 0.22913
 C1884 C 0.60566 0.89353 0.24619
 C1885 C 0.59698 0.90188 0.26675
 C1886 C 0.59071 0.88705 0.28342
 C1887 C 0.58261 0.89503 0.30356
 C1888 C 0.58067 0.91801 0.30731
 C1889 C 0.58695 0.93279 0.29041
 C1890 C 0.59505 0.92476 0.27026
 H1891 H 0.61853 0.84315 0.21945
 H1892 H 0.63458 0.82758 0.18548
 H1893 H 0.64353 0.89373 0.15965
 H1894 H 0.62769 0.90925 0.19384
 H1895 H 0.59223 0.86930 0.28091
 H1896 H 0.57823 0.88324 0.31636
 H1897 H 0.58543 0.95055 0.29273
 H1898 H 0.59984 0.93638 0.25745
 C1899 C 0.62225 0.37699 0.70927
 C1900 C 0.62410 0.35398 0.70673
 C1901 C 0.63311 0.34510 0.68735
 C1902 C 0.64038 0.35916 0.67026
 C1903 C 0.63836 0.38226 0.67290
 C1904 C 0.62935 0.39112 0.69231
 C1905 C 0.61336 0.38604 0.72945
 C1906 C 0.60603 0.39334 0.74651
 C1907 C 0.59740 0.40173 0.76707
 C1908 C 0.59104 0.38694 0.78374
 C1909 C 0.58295 0.39496 0.80388
 C1910 C 0.58110 0.41794 0.80761
 C1911 C 0.58749 0.43270 0.79073
 C1912 C 0.59557 0.42462 0.77059
 H1913 H 0.61873 0.34290 0.71978
 H1914 H 0.63470 0.32727 0.68579
 H1915 H 0.64375 0.39339 0.65991
 H1916 H 0.62799 0.40896 0.69411
 H1917 H 0.59248 0.36919 0.78124
 H1918 H 0.57849 0.38319 0.81666
 H1919 H 0.58604 0.45046 0.79304
 H1920 H 0.60043 0.43622 0.75778
 C1921 C 1.29114 1.12318 1.12206
 C1922 C 1.29374 1.14618 1.12407
 C1923 C 1.31312 1.15494 1.13323
 C1924 C 1.33017 1.14079 1.14049
 C1925 C 1.32748 1.11771 1.13831
 C1926 C 1.30807 1.10896 1.12915
 C1927 C 1.27096 1.11424 1.11304
 C1928 C 1.25389 1.10698 1.10562
 C1929 C 1.23332 1.09862 1.09691
 C1930 C 1.21668 1.11343 1.09041
 C1931 C 1.19653 1.10541 1.08229
 C1932 C 1.19274 1.08243 1.08057
 C1933 C 1.20959 1.06767 1.08709
 C1934 C 1.22976 1.07573 1.09520
 H1935 H 1.28071 1.15733 1.11870
 H1936 H 1.31471 1.17276 1.13494
 H1937 H 1.34044 1.10651 1.14369
 H1938 H 1.30623 1.09113 1.12767
 H1939 H 1.21923 1.13118 1.09176
 H1940 H 1.18377 1.11719 1.07772
 H1941 H 1.20725 1.04990 1.08574
 H1942 H 1.24254 1.06412 1.10017
 C1943 C 1.29144 0.62280 0.62188
 C1944 C 1.29398 0.64580 0.62389
 C1945 C 1.31336 0.65461 0.63300
 C1946 C 1.33046 0.64050 0.64022
 C1947 C 1.32783 0.61741 0.63804
 C1948 C 1.30842 0.60862 0.62893
 C1949 C 1.27126 0.61382 0.61291
 C1950 C 1.25418 0.60656 0.60552
 C1951 C 1.23359 0.59821 0.59684
 C1952 C 1.21696 0.61304 0.59038
 C1953 C 1.19678 0.60505 0.58230
 C1954 C 1.19297 0.58207 0.58057
 C1955 C 1.20983 0.56729 0.58704
 C1956 C 1.23001 0.57533 0.59512
 H1957 H 1.28092 0.65692 0.61855
 H1958 H 1.31492 0.67243 0.63470
 H1959 H 1.34083 0.60625 0.64339
 H1960 H 1.30662 0.59079 0.62746
 H1961 H 1.21952 0.63079 0.59174
 H1962 H 1.18402 0.61684 0.57777
 H1963 H 1.20746 0.54952 0.58569
 H1964 H 1.24279 0.56371 0.60006
 C1965 C 0.79109 1.12309 0.62169
 C1966 C 0.79361 1.14609 0.62382
 C1967 C 0.81295 1.15487 0.63302
 C1968 C 0.83004 1.14074 0.64022
 C1969 C 0.82744 1.11766 0.63793
 C1970 C 0.80806 1.10890 0.62872
 C1971 C 0.77094 1.11413 0.61262
 C1972 C 0.75390 1.10687 0.60517
 C1973 C 0.73336 1.09848 0.59643
 C1974 C 0.71672 1.11328 0.58988
 C1975 C 0.69657 1.10524 0.58178
 C1976 C 0.69279 1.08225 0.58011
 C1977 C 0.70965 1.06751 0.58665
 C1978 C 0.72981 1.07559 0.59475
 H1979 H 0.78054 1.15722 0.61850
 H1980 H 0.81449 1.17268 0.63482
 H1981 H 0.84043 1.10648 0.64326
 H1982 H 0.80628 1.09107 0.62716
 H1983 H 0.71926 1.13103 0.59121
 H1984 H 0.68381 1.11700 0.57719
 H1985 H 0.70731 1.04974 0.58534
 H1986 H 0.74259 1.06399 0.59975
 C1987 C 0.79086 0.62325 1.12238
 C1988 C 0.79341 0.64625 1.12439
 C1989 C 0.81278 0.65506 1.13352
 C1990 C 0.82987 0.64094 1.14075
 C1991 C 0.82724 0.61785 1.13855
 C1992 C 0.80784 0.60907 1.12941
 C1993 C 0.77067 0.61425 1.11341
 C1994 C 0.75360 0.60694 1.10604
 C1995 C 0.73305 0.59851 1.09738
 C1996 C 0.71641 0.61327 1.09077
 C1997 C 0.69627 0.60519 1.08266
 C1998 C 0.69251 0.58220 1.08105
 C1999 C 0.70936 0.56748 1.08768
 C2000 C 0.72950 0.57561 1.09579
 H2001 H 0.78034 0.65737 1.11906
 H2002 H 0.81434 0.67287 1.13525
 H2003 H 0.84024 0.60668 1.14390
 H2004 H 0.80604 0.59124 1.12793
 H2005 H 0.71894 0.63103 1.09203
 H2006 H 0.68351 0.61694 1.07801
 H2007 H 0.70703 0.54971 1.08642
 H2008 H 0.74229 0.56404 1.10084
 C2009 C 1.29122 0.87767 0.87738
 C2010 C 1.29363 0.85465 0.87539
 C2011 C 1.31303 0.84571 0.86644
 C2012 C 1.33028 0.85970 0.85938
 C2013 C 1.32778 0.88280 0.86155
 C2014 C 1.30835 0.89173 0.87050
 C2015 C 1.27103 0.88679 0.88619
 C2016 C 1.25394 0.89415 0.89347
 C2017 C 1.23335 0.90258 0.90205
 C2018 C 1.21671 0.88781 0.90860
 C2019 C 1.19657 0.89586 0.91670
 C2020 C 1.19279 0.91885 0.91838
 C2021 C 1.20962 0.93359 0.91177
 C2022 C 1.22978 0.92549 0.90368
 H2023 H 1.28045 0.84362 0.88060
 H2024 H 1.31449 0.82788 0.86473
 H2025 H 1.34090 0.89388 0.85632
 H2026 H 1.30666 0.90957 0.87197
 H2027 H 1.21926 0.87005 0.90731
 H2028 H 1.18382 0.88410 0.92132
 H2029 H 1.20728 0.95136 0.91308
 H2030 H 1.24256 0.93707 0.89867
 C2031 C 1.29119 0.37864 0.37649
 C2032 C 1.30823 0.37152 0.39051
 C2033 C 1.32757 0.36234 0.38163
 C2034 C 1.33006 0.36016 0.35860
 C2035 C 1.31290 0.36748 0.34463
 C2036 C 1.29360 0.37666 0.35354
 C2037 C 1.27102 0.38752 0.38560
 C2038 C 1.25396 0.39473 0.39309
 C2039 C 1.23340 0.40303 0.40188
 C2040 C 1.21687 0.38817 0.40849
 C2041 C 1.19673 0.39611 0.41669
 C2042 C 1.19284 0.41908 0.41839
 C2043 C 1.20959 0.43391 0.41176
 C2044 C 1.22974 0.42591 0.40357
 H2045 H 1.30653 0.37295 0.40830
 H2046 H 1.34061 0.35691 0.39267
 H2047 H 1.31435 0.36578 0.32686
 H2048 H 1.28047 0.38204 0.34254
 H2049 H 1.21949 0.37042 0.40715
 H2050 H 1.18404 0.38429 0.42134
 H2051 H 1.20716 0.45167 0.41309
 H2052 H 1.24244 0.43756 0.39851
 C2053 C 0.79113 0.87752 0.37717
 C2054 C 0.79354 0.85449 0.37524
 C2055 C 0.81295 0.84552 0.36634
 C2056 C 0.83020 0.85949 0.35926
 C2057 C 0.82770 0.88260 0.36137
 C2058 C 0.80827 0.89156 0.37027
 C2059 C 0.77093 0.88666 0.38595
 C2060 C 0.75384 0.89404 0.39320
 C2061 C 0.73324 0.90247 0.40176
 C2062 C 0.71663 0.88770 0.40837
 C2063 C 0.69649 0.89575 0.41647
 C2064 C 0.69268 0.91874 0.41808
 C2065 C 0.70949 0.93347 0.41140
 C2066 C 0.72965 0.92537 0.40331
 H2067 H 0.78035 0.84348 0.38047
 H2068 H 0.81440 0.82769 0.36468
 H2069 H 0.84083 0.89366 0.35612
 H2070 H 0.80658 0.90940 0.37169
 H2071 H 0.71921 0.86994 0.40715
 H2072 H 0.68376 0.88399 0.42115
 H2073 H 0.70712 0.95125 0.41265
 H2074 H 0.74241 0.93696 0.39825
 C2075 C 0.79123 0.37753 0.87752
 C2076 C 0.79364 0.35451 0.87551
 C2077 C 0.81303 0.34558 0.86653
 C2078 C 0.83026 0.35958 0.85945
 C2079 C 0.82776 0.38268 0.86163
 C2080 C 0.80834 0.39160 0.87062
 C2081 C 0.77106 0.38663 0.88640
 C2082 C 0.75399 0.39398 0.89373
 C2083 C 0.73341 0.40238 0.90238
 C2084 C 0.71682 0.38759 0.90898
 C2085 C 0.69668 0.39562 0.91711
 C2086 C 0.69286 0.41861 0.91874
 C2087 C 0.70966 0.43336 0.91210
 C2088 C 0.72981 0.42528 0.90398
 H2089 H 0.78047 0.34348 0.88074
 H2090 H 0.81449 0.32775 0.86481
 H2091 H 0.84086 0.39377 0.85639
 H2092 H 0.80665 0.40944 0.87210
 H2093 H 0.71939 0.36983 0.90771
 H2094 H 0.68395 0.38385 0.92176
 H2095 H 0.70728 0.45113 0.91338
 H2096 H 0.74257 0.43688 0.89893
 C2097 C 0.70889 0.87807 1.12303
 C2098 C 0.70649 0.87611 1.14598
 C2099 C 0.68707 0.86721 1.15490
 C2100 C 0.66979 0.86016 1.14095
 C2101 C 0.67228 0.86234 1.11792
 C2102 C 0.69172 0.87124 1.10902
 C2103 C 0.72914 0.88676 1.11392
 C2104 C 0.74628 0.89391 1.10656
 C2105 C 0.76693 0.90233 1.09814
 C2106 C 0.78368 0.90867 1.11285
 C2107 C 0.80387 0.91664 1.10481
 C2108 C 0.80759 0.91837 1.08189
 C2109 C 0.79066 0.91195 1.06721
 C2110 C 0.77045 0.90399 1.07531
 H2111 H 0.71970 0.88128 1.15697
 H2112 H 0.68563 0.86549 1.17267
 H2113 H 0.65914 0.85712 1.10688
 H2114 H 0.69341 0.87269 1.09123
 H2115 H 0.78117 0.90735 1.13056
 H2116 H 0.81669 0.92112 1.11652
 H2117 H 0.79296 0.91331 1.04950
 H2118 H 0.75759 0.89913 1.06377
 C2119 C 0.70903 0.37776 0.62331
 C2120 C 0.69185 0.37094 0.60930
 C2121 C 0.67241 0.36201 0.61821
 C2122 C 0.66995 0.35979 0.64124
 C2123 C 0.68724 0.36682 0.65518
 C2124 C 0.70665 0.37575 0.64626
 C2125 C 0.72925 0.38650 0.61420
 C2126 C 0.74637 0.39370 0.60684
 C2127 C 0.76700 0.40217 0.59840
 C2128 C 0.77049 0.40385 0.57557
 C2129 C 0.79068 0.41185 0.56746
 C2130 C 0.80761 0.41830 0.58212
 C2131 C 0.80390 0.41656 0.60504
 C2132 C 0.78373 0.40855 0.61310
 H2133 H 0.69352 0.37243 0.59151
 H2134 H 0.65927 0.35681 0.60717
 H2135 H 0.68582 0.36507 0.67295
 H2136 H 0.71987 0.38091 0.65724
 H2137 H 0.75763 0.39897 0.56404
 H2138 H 0.79297 0.41321 0.54974
 H2139 H 0.81673 0.42106 0.61675
 H2140 H 0.78124 0.40722 0.63081
 C2141 C 0.20913 0.87802 0.62333
 C2142 C 0.20673 0.87596 0.64627
 C2143 C 0.18731 0.86702 0.65516
 C2144 C 0.17004 0.86003 0.64118
 C2145 C 0.17251 0.86230 0.61816
 C2146 C 0.19196 0.87124 0.60929
 C2147 C 0.22937 0.88675 0.61426
 C2148 C 0.24650 0.89393 0.60692
 C2149 C 0.26714 0.90237 0.59849
 C2150 C 0.28387 0.90876 0.61320
 C2151 C 0.30406 0.91672 0.60515
 C2152 C 0.30779 0.91841 0.58223
 C2153 C 0.29087 0.91195 0.56756
 C2154 C 0.27066 0.90399 0.57566
 H2155 H 0.21994 0.88109 0.65728
 H2156 H 0.18587 0.86523 0.67292
 H2157 H 0.15938 0.85713 0.60710
 H2158 H 0.19365 0.87277 0.59151
 H2159 H 0.28135 0.90747 0.63091
 H2160 H 0.31688 0.92124 0.61686
 H2161 H 0.29318 0.91327 0.54984
 H2162 H 0.25781 0.89910 0.56413
 C2163 C 0.20895 0.37823 1.12318
 C2164 C 0.19176 0.37143 1.10917
 C2165 C 0.17235 0.36246 1.11808
 C2166 C 0.16991 0.36017 1.14111
 C2167 C 0.18720 0.36719 1.15505
 C2168 C 0.20660 0.37616 1.14613
 C2169 C 0.22917 0.38698 1.11407
 C2170 C 0.24627 0.39419 1.10670
 C2171 C 0.26689 0.40267 1.09824
 C2172 C 0.27037 0.40432 1.07540
 C2173 C 0.29055 0.41231 1.06727
 C2174 C 0.30749 0.41877 1.08192
 C2175 C 0.30380 0.41706 1.10484
 C2176 C 0.28363 0.40906 1.11292
 H2177 H 0.19342 0.37296 1.09139
 H2178 H 0.15919 0.35727 1.10704
 H2179 H 0.18580 0.36539 1.17282
 H2180 H 0.21982 0.38130 1.15711
 H2181 H 0.25750 0.39943 1.06389
 H2182 H 0.29283 0.41365 1.04955
 H2183 H 0.31664 0.42157 1.11653
 H2184 H 0.28115 0.40775 1.13063
 C2185 C 0.70844 1.12145 0.87703
 C2186 C 0.69127 1.12838 0.89099
 C2187 C 0.67192 1.13746 0.88203
 C2188 C 0.66954 1.13972 0.85900
 C2189 C 0.68682 1.13258 0.84510
 C2190 C 0.70614 1.12350 0.85408
 C2191 C 0.72859 1.11258 0.88619
 C2192 C 0.74566 1.10528 0.89359
 C2193 C 0.76624 1.09671 0.90205
 C2194 C 0.76968 1.09497 0.92489
 C2195 C 0.78985 1.08693 0.93303
 C2196 C 0.80682 1.08051 0.91839
 C2197 C 0.80315 1.08229 0.89546
 C2198 C 0.78300 1.09034 0.88738
 H2199 H 0.69288 1.12687 0.90878
 H2200 H 0.65878 1.14275 0.89303
 H2201 H 0.68545 1.13435 0.82733
 H2202 H 0.71936 1.11825 0.84313
 H2203 H 0.75681 1.09985 0.93640
 H2204 H 0.79211 1.08554 0.95075
 H2205 H 0.81600 1.07781 0.88378
 H2206 H 0.78054 1.09172 0.86967
 C2207 C 0.70828 0.62084 0.37720
 C2208 C 0.69115 0.62786 0.39117
 C2209 C 0.67183 0.63702 0.38223
 C2210 C 0.66944 0.63929 0.35920
 C2211 C 0.68667 0.63205 0.34529
 C2212 C 0.70596 0.62288 0.35425
 C2213 C 0.72844 0.61202 0.38638
 C2214 C 0.74551 0.60487 0.39393
 C2215 C 0.76607 0.59664 0.40276
 C2216 C 0.76975 0.57377 0.40456
 C2217 C 0.78993 0.56584 0.41276
 C2218 C 0.80669 0.58071 0.41928
 C2219 C 0.80277 0.60367 0.41749
 C2220 C 0.78260 0.61155 0.40928
 H2221 H 0.69278 0.62637 0.40896
 H2222 H 0.65873 0.64238 0.39324
 H2223 H 0.68529 0.63382 0.32752
 H2224 H 0.71915 0.61759 0.34329
 H2225 H 0.75705 0.56208 0.39958
 H2226 H 0.79238 0.54809 0.41417
 H2227 H 0.81546 0.61553 0.42205
 H2228 H 0.77996 0.62929 0.40786
 C2229 C 0.20844 1.12156 0.37706
 C2230 C 0.19127 1.12854 0.39099
 C2231 C 0.17194 1.13764 0.38199
 C2232 C 0.16959 1.13987 0.35895
 C2233 C 0.18687 1.13268 0.34509
 C2234 C 0.20617 1.12359 0.35410
 C2235 C 0.22857 1.11266 0.38625
 C2236 C 0.24560 1.10533 0.39368
 C2237 C 0.26615 1.09671 0.40218
 C2238 C 0.26960 1.09507 0.42503
 C2239 C 0.28973 1.08698 0.43320
 C2240 C 0.30667 1.08041 0.41859
 C2241 C 0.30300 1.08210 0.39565
 C2242 C 0.28288 1.09019 0.38753
 H2243 H 0.19286 1.12705 0.40878
 H2244 H 0.15879 1.14297 0.39296
 H2245 H 0.18554 1.13443 0.32731
 H2246 H 0.21939 1.11830 0.34317
 H2247 H 0.25675 1.10007 0.43651
 H2248 H 0.29200 1.08567 0.45092
 H2249 H 0.31582 1.07750 0.38399
 H2250 H 0.28042 1.09150 0.36982
 C2251 C 0.20856 0.62153 0.87721
 C2252 C 0.19139 0.62845 0.89118
 C2253 C 0.17202 0.63747 0.88222
 C2254 C 0.16960 0.63969 0.85919
 C2255 C 0.18688 0.63256 0.84528
 C2256 C 0.20623 0.62353 0.85425
 C2257 C 0.22874 0.61271 0.88635
 C2258 C 0.24583 0.60546 0.89374
 C2259 C 0.26644 0.59694 0.90218
 C2260 C 0.26992 0.59526 0.92502
 C2261 C 0.29011 0.58726 0.93314
 C2262 C 0.30706 0.58081 0.91848
 C2263 C 0.30335 0.58254 0.89556
 C2264 C 0.28317 0.59055 0.88749
 H2265 H 0.19303 0.62697 0.90897
 H2266 H 0.15888 0.64276 0.89323
 H2267 H 0.18549 0.63431 0.82751
 H2268 H 0.21944 0.61829 0.84329
 H2269 H 0.25706 0.60015 0.93654
 H2270 H 0.29241 0.58591 0.95086
 H2271 H 0.31618 0.57804 0.88387
 H2272 H 0.28068 0.59188 0.86979
 C2273 C 1.12288 1.29174 1.12181
 C2274 C 1.10887 1.30883 1.12893
 C2275 C 1.11781 1.32815 1.13814
 C2276 C 1.14088 1.33057 1.14035
 C2277 C 1.15482 1.31336 1.13304
 C2278 C 1.14587 1.29407 1.12383
 C2279 C 1.11372 1.27160 1.11285
 C2280 C 1.10621 1.25456 1.10556
 C2281 C 1.09741 1.23401 1.09717
 C2282 C 1.09566 1.23050 1.07435
 C2283 C 1.08747 1.21035 1.06627
 C2284 C 1.08092 1.19346 1.08095
 C2285 C 1.08269 1.19720 1.10387
 C2286 C 1.09088 1.21734 1.11190
 H2287 H 1.09105 1.30718 1.12746
 H2288 H 1.10677 1.34124 1.14355
 H2289 H 1.17263 1.31476 1.13477
 H2290 H 1.15686 1.28091 1.11846
 H2291 H 1.10066 1.24331 1.06280
 H2292 H 1.08609 1.20804 1.04855
 H2293 H 1.07811 1.18441 1.11558
 H2294 H 1.09227 1.21984 1.12960
 C2295 C 1.12300 0.79159 0.62190
 C2296 C 1.14598 0.79393 0.62394
 C2297 C 1.15493 0.81323 0.63314
 C2298 C 1.14098 0.83045 0.64040
 C2299 C 1.11791 0.82803 0.63817
 C2300 C 1.10898 0.80870 0.62897
 C2301 C 1.11384 0.77144 0.61296
 C2302 C 1.10634 0.75439 0.60570
 C2303 C 1.09756 0.73383 0.59734
 C2304 C 1.09108 0.71716 0.61209
 C2305 C 1.08290 0.69700 0.60408
 C2306 C 1.08110 0.69324 0.58117
 C2307 C 1.08760 0.71013 0.56647
 C2308 C 1.09577 0.73030 0.57452
 H2309 H 1.15698 0.78075 0.61860
 H2310 H 1.17273 0.81462 0.63488
 H2311 H 1.10687 0.84113 0.64354
 H2312 H 1.09116 0.80705 0.62748
 H2313 H 1.09249 0.71968 0.62979
 H2314 H 1.07835 0.68421 0.61582
 H2315 H 1.08619 0.70781 0.54876
 H2316 H 1.10074 0.74311 0.56296
 C2317 C 0.62275 1.29141 0.62211
 C2318 C 0.60878 1.30855 0.62919
 C2319 C 0.61776 1.32787 0.63835
 C2320 C 0.64084 1.33025 0.64054
 C2321 C 0.65475 1.31299 0.63328
 C2322 C 0.64575 1.29370 0.62412
 C2323 C 0.61358 1.27132 0.61307
 C2324 C 0.60619 1.25430 0.60561
 C2325 C 0.59772 1.23378 0.59684
 C2326 C 0.57485 1.23033 0.59511
 C2327 C 0.56671 1.21020 0.58692
 C2328 C 0.58138 1.19328 0.58034
 C2329 C 0.60434 1.19696 0.58210
 C2330 C 0.61243 1.21707 0.59029
 H2331 H 0.59095 1.30694 0.62771
 H2332 H 0.60676 1.34100 0.64373
 H2333 H 0.67255 1.31436 0.63499
 H2334 H 0.65671 1.28051 0.61876
 H2335 H 0.56332 1.24317 0.60012
 H2336 H 0.54896 1.20794 0.58555
 H2337 H 0.61604 1.18414 0.57750
 H2338 H 0.63016 1.21953 0.59166
 C2339 C 0.62266 0.79169 1.12192
 C2340 C 0.64565 0.79400 1.12394
 C2341 C 0.65463 0.81332 1.13305
 C2342 C 0.64071 0.83059 1.14025
 C2343 C 0.61764 0.82819 1.13805
 C2344 C 0.60867 0.80884 1.12894
 C2345 C 0.61351 0.77156 1.11296
 C2346 C 0.60613 0.75450 1.10557
 C2347 C 0.59769 0.73394 1.09689
 C2348 C 0.61242 0.71720 1.09046
 C2349 C 0.60435 0.69705 1.08234
 C2350 C 0.58140 0.69336 1.08054
 C2351 C 0.56671 0.71031 1.08700
 C2352 C 0.57482 0.73048 1.09511
 H2353 H 0.65663 0.78080 1.11862
 H2354 H 0.67244 0.81470 1.13478
 H2355 H 0.60662 0.84133 1.14339
 H2356 H 0.59085 0.80721 1.12745
 H2357 H 0.63015 0.71967 1.09187
 H2358 H 0.61607 0.68421 1.07782
 H2359 H 0.54896 0.70804 1.08559
 H2360 H 0.56328 0.74334 1.10003
 C2361 C 0.87794 1.29147 0.87699
 C2362 C 0.87089 1.30861 0.89096
 C2363 C 0.86192 1.32804 0.88201
 C2364 C 0.85990 1.33054 0.85897
 C2365 C 0.86717 1.31330 0.84506
 C2366 C 0.87613 1.29389 0.85402
 C2367 C 0.88663 1.27122 0.88616
 C2368 C 0.89370 1.25410 0.89370
 C2369 C 0.90190 1.23349 0.90252
 C2370 C 0.88702 1.21690 0.90894
 C2371 C 0.89489 1.19668 0.91710
 C2372 C 0.91781 1.19277 0.91894
 C2373 C 0.93266 1.20960 0.91253
 C2374 C 0.92473 1.22982 0.90438
 H2375 H 0.87220 1.30690 0.90876
 H2376 H 0.85654 1.34115 0.89303
 H2377 H 0.86558 1.31476 0.82728
 H2378 H 0.88146 1.28070 0.84306
 H2379 H 0.86931 1.21952 0.90747
 H2380 H 0.88306 1.18395 0.92159
 H2381 H 0.95038 1.20717 0.91398
 H2382 H 0.93641 1.24257 0.89947
 C2383 C 0.87790 0.79144 0.37703
 C2384 C 0.87614 0.79381 0.35406
 C2385 C 0.86717 0.81318 0.34503
 C2386 C 0.85985 0.83045 0.35888
 C2387 C 0.86182 0.82800 0.38194
 C2388 C 0.87079 0.80860 0.39095
 C2389 C 0.88660 0.77123 0.38628
 C2390 C 0.89370 0.75414 0.39387
 C2391 C 0.90192 0.73356 0.40275
 C2392 C 0.92476 0.72992 0.40461
 C2393 C 0.93271 0.70973 0.41281
 C2394 C 0.91789 0.69290 0.41926
 C2395 C 0.89497 0.69678 0.41744
 C2396 C 0.88706 0.71697 0.40923
 H2397 H 0.88152 0.78060 0.34314
 H2398 H 0.86562 0.81460 0.32724
 H2399 H 0.85640 0.84113 0.39291
 H2400 H 0.87207 0.80694 0.40875
 H2401 H 0.93641 0.74267 0.39966
 H2402 H 0.95044 0.70732 0.41425
 H2403 H 0.88315 0.68404 0.42196
 H2404 H 0.86935 0.71957 0.40776
 C2405 C 0.37655 1.29113 0.37742
 C2406 C 0.35358 1.29371 0.37546
 C2407 C 0.34478 1.31316 0.36641
 C2408 C 0.35887 1.33029 0.35922
 C2409 C 0.38193 1.32761 0.36136
 C2410 C 0.39071 1.30814 0.37041
 C2411 C 0.38553 1.27089 0.38634
 C2412 C 0.39280 1.25377 0.39369
 C2413 C 0.40117 1.23315 0.40233
 C2414 C 0.38641 1.21647 0.40880
 C2415 C 0.39443 1.19629 0.41690
 C2416 C 0.41737 1.19250 0.41864
 C2417 C 0.43210 1.20939 0.41214
 C2418 C 0.42403 1.22959 0.40405
 H2419 H 0.34248 1.28063 0.38077
 H2420 H 0.32699 1.31474 0.36473
 H2421 H 0.39308 1.34063 0.35603
 H2422 H 0.40851 1.30632 0.37185
 H2423 H 0.36868 1.21902 0.40745
 H2424 H 0.38268 1.18350 0.42145
 H2425 H 0.44984 1.20705 0.41350
 H2426 H 0.43561 1.24240 0.39911
 C2427 C 0.37805 0.79156 0.87677
 C2428 C 0.37622 0.79403 0.85381
 C2429 C 0.36721 0.81344 0.84490
 C2430 C 0.35991 0.83063 0.85885
 C2431 C 0.36193 0.82807 0.88189
 C2432 C 0.37094 0.80864 0.89079
 C2433 C 0.38681 0.77132 0.88589
 C2434 C 0.39394 0.75420 0.89339
 C2435 C 0.40220 0.73359 0.90216
 C2436 C 0.42504 0.72995 0.90396
 C2437 C 0.43300 0.70974 0.91211
 C2438 C 0.41819 0.69290 0.91858
 C2439 C 0.39526 0.69678 0.91678
 C2440 C 0.38734 0.71698 0.90862
 H2441 H 0.38159 0.78088 0.84282
 H2442 H 0.36562 0.81493 0.82712
 H2443 H 0.35653 0.84115 0.89293
 H2444 H 0.37227 0.80690 0.90858
 H2445 H 0.43668 0.74270 0.89903
 H2446 H 0.45073 0.70733 0.91353
 H2447 H 0.38345 0.68404 0.92131
 H2448 H 0.36963 0.71959 0.90720
 C2449 C 1.12281 0.70844 0.87806
 C2450 C 1.14579 0.70598 0.87612
 C2451 C 1.15468 0.68660 0.86704
 C2452 C 1.14067 0.66942 0.85978
 C2453 C 1.11761 0.67198 0.86189
 C2454 C 1.10873 0.69139 0.87097
 C2455 C 1.11375 0.72863 0.88700
 C2456 C 1.10644 0.74572 0.89437
 C2457 C 1.09807 0.76633 0.90303
 C2458 C 1.11285 0.78307 0.90934
 C2459 C 1.10484 0.80326 0.91742
 C2460 C 1.08189 0.80699 0.91930
 C2461 C 1.06716 0.79004 0.91297
 C2462 C 1.07521 0.76983 0.90489
 H2463 H 1.15682 0.71910 0.88148
 H2464 H 1.17248 0.68510 0.86538
 H2465 H 1.10653 0.65892 0.85651
 H2466 H 1.09092 0.69314 0.87239
 H2467 H 1.13057 0.78056 0.90787
 H2468 H 1.11659 0.81610 0.92184
 H2469 H 1.04942 0.79235 0.91444
 H2470 H 1.06363 0.75697 0.90006
 C2471 C 1.12284 0.20868 0.37778
 C2472 C 1.14582 0.20619 0.37589
 C2473 C 1.15472 0.18681 0.36681
 C2474 C 1.14071 0.16966 0.35950
 C2475 C 1.11764 0.17224 0.36156
 C2476 C 1.10876 0.19165 0.37065
 C2477 C 1.11378 0.22886 0.38673
 C2478 C 1.10647 0.24595 0.39411
 C2479 C 1.09808 0.26655 0.40279
 C2480 C 1.11284 0.28329 0.40911
 C2481 C 1.10482 0.30346 0.41723
 C2482 C 1.08187 0.30717 0.41913
 C2483 C 1.06715 0.29021 0.41278
 C2484 C 1.07522 0.27003 0.40467
 H2485 H 1.15687 0.21929 0.38130
 H2486 H 1.17252 0.18529 0.36519
 H2487 H 1.10656 0.15920 0.35614
 H2488 H 1.09095 0.19341 0.37203
 H2489 H 1.13057 0.28080 0.40763
 H2490 H 1.11656 0.31631 0.42166
 H2491 H 1.04941 0.29250 0.41427
 H2492 H 1.06365 0.25716 0.39983
 C2493 C 0.62290 0.70825 0.37814
 C2494 C 0.64588 0.70568 0.37625
 C2495 C 0.65471 0.68627 0.36717
 C2496 C 0.64064 0.66917 0.35985
 C2497 C 0.61758 0.67182 0.36192
 C2498 C 0.60877 0.69126 0.37101
 C2499 C 0.61390 0.72847 0.38706
 C2500 C 0.60660 0.74558 0.39441
 C2501 C 0.59822 0.76620 0.40304
 C2502 C 0.61298 0.78297 0.40931
 C2503 C 0.60495 0.80317 0.41737
 C2504 C 0.58200 0.80687 0.41927
 C2505 C 0.56728 0.78989 0.41298
 C2506 C 0.57536 0.76968 0.40492
 H2507 H 0.65696 0.71875 0.38165
 H2508 H 0.67250 0.68469 0.36554
 H2509 H 0.60645 0.65882 0.35650
 H2510 H 0.59096 0.69308 0.37239
 H2511 H 0.63070 0.78049 0.40782
 H2512 H 0.61668 0.81603 0.42176
 H2513 H 0.54954 0.79217 0.41447
 H2514 H 0.56379 0.75680 0.40013
 C2515 C 0.62280 0.20849 0.87797
 C2516 C 0.64578 0.20600 0.87605
 C2517 C 0.65467 0.18663 0.86693
 C2518 C 0.64065 0.16949 0.85962
 C2519 C 0.61758 0.17207 0.86171
 C2520 C 0.60872 0.19147 0.87083
 C2521 C 0.61375 0.22866 0.88696
 C2522 C 0.60645 0.24574 0.89436
 C2523 C 0.59807 0.26633 0.90306
 C2524 C 0.61284 0.28306 0.90940
 C2525 C 0.60481 0.30324 0.91752
 C2526 C 0.58187 0.30695 0.91941
 C2527 C 0.56714 0.29000 0.91305
 C2528 C 0.57521 0.26981 0.90494
 H2529 H 0.65683 0.21910 0.88145
 H2530 H 0.67247 0.18512 0.86529
 H2531 H 0.60649 0.15903 0.85629
 H2532 H 0.59090 0.19323 0.87224
 H2533 H 0.63056 0.28057 0.90792
 H2534 H 0.61656 0.31608 0.92196
 H2535 H 0.54941 0.29229 0.91453
 H2536 H 0.56364 0.25695 0.90009
 C2537 C 0.87831 0.70869 1.12383
 C2538 C 0.87627 0.70624 1.14677
 C2539 C 0.86703 0.68690 1.15561
 C2540 C 0.85971 0.66978 1.14159
 C2541 C 0.86195 0.67232 1.11857
 C2542 C 0.87119 0.69167 1.10975
 C2543 C 0.88726 0.72888 1.11478
 C2544 C 0.89452 0.74596 1.10731
 C2545 C 0.90287 0.76652 1.09853
 C2546 C 0.92572 0.77005 1.09670
 C2547 C 0.93376 0.79019 1.08846
 C2548 C 0.91901 0.80706 1.08191
 C2549 C 0.89607 0.80330 1.08377
 C2550 C 0.88808 0.78317 1.09202
 H2551 H 0.88164 0.71934 1.15782
 H2552 H 0.86528 0.68542 1.17337
 H2553 H 0.85654 0.65929 1.10747
 H2554 H 0.87268 0.69341 1.09197
 H2555 H 0.93732 0.75726 1.10167
 H2556 H 0.95150 0.79251 1.08701
 H2557 H 0.88430 0.81608 1.07919
 H2558 H 0.87036 0.78066 1.09345
 C2559 C 0.87825 0.20857 0.62328
 C2560 C 0.87123 0.19150 0.60921
 C2561 C 0.86209 0.17211 0.61804
 C2562 C 0.85985 0.16958 0.64106
 C2563 C 0.86707 0.18675 0.65507
 C2564 C 0.87622 0.20612 0.64622
 C2565 C 0.88719 0.22877 0.61424
 C2566 C 0.89454 0.24585 0.60690
 C2567 C 0.90317 0.26643 0.59844
 C2568 C 0.90478 0.26992 0.57560
 C2569 C 0.91285 0.29009 0.56745
 C2570 C 0.91943 0.30703 0.58209
 C2571 C 0.91778 0.30332 0.60501
 C2572 C 0.90971 0.28316 0.61311
 H2573 H 0.87273 0.19323 0.59143
 H2574 H 0.85674 0.15905 0.60695
 H2575 H 0.86532 0.18527 0.67283
 H2576 H 0.88153 0.21925 0.65726
 H2577 H 0.89977 0.25707 0.56409
 H2578 H 0.91413 0.29238 0.54973
 H2579 H 0.92239 0.31615 0.61669
 H2580 H 0.90843 0.28068 0.63082
 C2581 C 0.37863 0.70835 0.62311
 C2582 C 0.37162 0.69127 0.60905
 C2583 C 0.36247 0.67188 0.61790
 C2584 C 0.36023 0.66938 0.64093
 C2585 C 0.36744 0.68658 0.65492
 C2586 C 0.37658 0.70593 0.64605
 C2587 C 0.38760 0.72852 0.61406
 C2588 C 0.39498 0.74560 0.60675
 C2589 C 0.40363 0.76619 0.59834
 C2590 C 0.40529 0.76971 0.57551
 C2591 C 0.41334 0.78990 0.56741
 C2592 C 0.41985 0.80683 0.58208
 C2593 C 0.41819 0.80308 0.60500
 C2594 C 0.41013 0.78290 0.61305
 H2595 H 0.37313 0.69297 0.59127
 H2596 H 0.35714 0.65880 0.60683
 H2597 H 0.36568 0.68512 0.67268
 H2598 H 0.38189 0.71908 0.65707
 H2599 H 0.40031 0.75687 0.56397
 H2600 H 0.41464 0.79222 0.54969
 H2601 H 0.42275 0.81590 0.61671
 H2602 H 0.40882 0.78038 0.63075
 C2603 C 0.37857 0.20847 1.12344
 C2604 C 0.37652 0.20607 1.14639
 C2605 C 0.36732 0.18674 1.15526
 C2606 C 0.36004 0.16956 1.14127
 C2607 C 0.36231 0.17204 1.11825
 C2608 C 0.37152 0.19140 1.10940
 C2609 C 0.38745 0.22867 1.11435
 C2610 C 0.39464 0.24576 1.10686
 C2611 C 0.40290 0.26635 1.09807
 C2612 C 0.42574 0.26993 1.09619
 C2613 C 0.43371 0.29012 1.08798
 C2614 C 0.41889 0.30697 1.08154
 C2615 C 0.39597 0.30315 1.08343
 C2616 C 0.38805 0.28298 1.09165
 H2617 H 0.38185 0.21921 1.15740
 H2618 H 0.36554 0.18529 1.17302
 H2619 H 0.35693 0.15898 1.10718
 H2620 H 0.37301 0.19310 1.09161
 H2621 H 0.43739 0.25716 1.10110
 H2622 H 0.45143 0.29249 1.08650
 H2623 H 0.38416 0.31591 1.07893
 H2624 H 0.37034 0.28041 1.09313
 C2625 C 1.12194 1.12281 0.70907
 C2626 C 1.12396 1.14582 0.70663
 C2627 C 1.13306 1.15471 0.68731
 C2628 C 1.14023 1.14067 0.67016
 C2629 C 1.13803 1.11757 0.67268
 C2630 C 1.12893 1.10870 0.69204
 C2631 C 1.11298 1.11375 0.72919
 C2632 C 1.10560 1.10643 0.74623
 C2633 C 1.09692 1.09802 0.76676
 C2634 C 1.09042 1.11280 0.78339
 C2635 C 1.08231 1.10476 0.80350
 C2636 C 1.08058 1.08177 0.80725
 C2637 C 1.08711 1.06703 0.79040
 C2638 C 1.09522 1.07512 0.77028
 H2639 H 1.11867 1.15689 0.71974
 H2640 H 1.13479 1.17253 0.68583
 H2641 H 1.14334 1.10646 0.65964
 H2642 H 1.12744 1.09086 0.69375
 H2643 H 1.09177 1.13056 0.78087
 H2644 H 1.07774 1.11652 0.81626
 H2645 H 1.08576 1.04926 0.79272
 H2646 H 1.10019 1.06353 0.75750
 C2647 C 1.12211 0.62298 0.20928
 C2648 C 1.12916 0.60887 0.19226
 C2649 C 1.13827 0.61776 0.17292
 C2650 C 1.14044 0.64085 0.17038
 C2651 C 1.13322 0.65489 0.18752
 C2652 C 1.12411 0.64599 0.20684
 C2653 C 1.11311 0.61391 0.22938
 C2654 C 1.10568 0.60658 0.24639
 C2655 C 1.09695 0.59817 0.26690
 C2656 C 1.09519 0.57527 0.27039
 C2657 C 1.08704 0.56717 0.29049
 C2658 C 1.08053 0.58190 0.30735
 C2659 C 1.08229 0.60489 0.30363
 C2660 C 1.09045 0.61294 0.28354
 H2661 H 1.12769 0.59104 0.19398
 H2662 H 1.14361 0.60665 0.15988
 H2663 H 1.13492 0.67271 0.18605
 H2664 H 1.11878 0.65705 0.21993
 H2665 H 1.10016 0.56369 0.25760
 H2666 H 1.08566 0.54940 0.29279
 H2667 H 1.07773 0.61664 0.31640
 H2668 H 1.09183 0.63070 0.28105
 C2669 C 0.62158 1.12242 0.20878
 C2670 C 0.62361 1.14543 0.20637
 C2671 C 0.63272 1.15434 0.18706
 C2672 C 0.63991 1.14032 0.16990
 C2673 C 0.63772 1.11722 0.17240
 C2674 C 0.62861 1.10833 0.19174
 C2675 C 0.61260 1.11334 0.22888
 C2676 C 0.60519 1.10601 0.24590
 C2677 C 0.59649 1.09762 0.26642
 C2678 C 0.58996 1.11241 0.28304
 C2679 C 0.58184 1.10439 0.30315
 C2680 C 0.58014 1.08140 0.30692
 C2681 C 0.58668 1.06665 0.29009
 C2682 C 0.59479 1.07472 0.26997
 H2683 H 0.61830 1.15648 0.21948
 H2684 H 0.63444 1.17217 0.18561
 H2685 H 0.64304 1.10612 0.15935
 H2686 H 0.62711 1.09049 0.19343
 H2687 H 0.59130 1.13017 0.28051
 H2688 H 0.57726 1.11616 0.31590
 H2689 H 0.58534 1.04888 0.29243
 H2690 H 0.59978 1.06313 0.25720
 C2691 C 0.62153 0.62283 0.70891
 C2692 C 0.62357 0.64584 0.70648
 C2693 C 0.63274 0.65472 0.68718
 C2694 C 0.63998 0.64067 0.67006
 C2695 C 0.63774 0.61757 0.67258
 C2696 C 0.62857 0.60872 0.69191
 C2697 C 0.61264 0.61375 0.72906
 C2698 C 0.60543 0.60630 0.74611
 C2699 C 0.59712 0.59757 0.76666
 C2700 C 0.61194 0.59108 0.78324
 C2701 C 0.60399 0.58293 0.80338
 C2702 C 0.58106 0.58117 0.80720
 C2703 C 0.56627 0.58768 0.79040
 C2704 C 0.57427 0.59582 0.77025
 H2705 H 0.61826 0.65692 0.71957
 H2706 H 0.63449 0.67254 0.68571
 H2707 H 0.64310 0.60645 0.65957
 H2708 H 0.62709 0.59088 0.69363
 H2709 H 0.62966 0.59246 0.78067
 H2710 H 0.61578 0.57838 0.81610
 H2711 H 0.54854 0.58630 0.79278
 H2712 H 0.56265 0.60078 0.75751
 C2713 C 0.87754 0.87853 0.70874
 C2714 C 0.89156 0.87157 0.69165
 C2715 C 0.88264 0.86259 0.67226
 C2716 C 0.85957 0.86045 0.66978
 C2717 C 0.84560 0.86762 0.68698
 C2718 C 0.85455 0.87661 0.70634
 C2719 C 0.88669 0.88722 0.72895
 C2720 C 0.89419 0.89428 0.74604
 C2721 C 0.90296 0.90244 0.76663
 C2722 C 0.90477 0.92530 0.77036
 C2723 C 0.91287 0.93318 0.79057
 C2724 C 0.91927 0.91827 0.80731
 C2725 C 0.91748 0.89532 0.80334
 C2726 C 0.90938 0.88749 0.78314
 H2727 H 0.90938 0.87298 0.69335
 H2728 H 0.89369 0.85728 0.65918
 H2729 H 0.82780 0.86594 0.68553
 H2730 H 0.84355 0.88186 0.71950
 H2731 H 0.89987 0.93702 0.75767
 H2732 H 0.91428 0.95092 0.79305
 H2733 H 0.92196 0.88343 0.81601
 H2734 H 0.90795 0.86976 0.78046
 C2735 C 0.87772 0.37712 0.20932
 C2736 C 0.87575 0.35411 0.20681
 C2737 C 0.86676 0.34525 0.18742
 C2738 C 0.85963 0.35932 0.17027
 C2739 C 0.86179 0.38241 0.17287
 C2740 C 0.87078 0.39126 0.19229
 C2741 C 0.88657 0.38616 0.22951
 C2742 C 0.89386 0.39346 0.24660
 C2743 C 0.90244 0.40184 0.26718
 C2744 C 0.90889 0.38703 0.28381
 C2745 C 0.91696 0.39504 0.30396
 C2746 C 0.91868 0.41802 0.30776
 C2747 C 0.91219 0.43279 0.29093
 C2748 C 0.90413 0.42473 0.27076
 H2749 H 0.88101 0.34303 0.21992
 H2750 H 0.86506 0.32743 0.18590
 H2751 H 0.85651 0.39354 0.15983
 H2752 H 0.87224 0.40909 0.19405
 H2753 H 0.90756 0.36928 0.28125
 H2754 H 0.92150 0.38325 0.31671
 H2755 H 0.91354 0.45055 0.29329
 H2756 H 0.89920 0.43634 0.25799
 C2757 C 0.37742 0.87852 0.20886
 C2758 C 0.39147 0.87166 0.19175
 C2759 C 0.38258 0.86276 0.17232
 C2760 C 0.35952 0.86059 0.16979
 C2761 C 0.34553 0.86765 0.18701
 C2762 C 0.35443 0.87656 0.20642
 C2763 C 0.38653 0.88714 0.22911
 C2764 C 0.39400 0.89415 0.24624
 C2765 C 0.40273 0.90226 0.26687
 C2766 C 0.40448 0.92511 0.27067
 C2767 C 0.41254 0.93294 0.29091
 C2768 C 0.41896 0.91798 0.30761
 C2769 C 0.41723 0.89505 0.30357
 C2770 C 0.40916 0.88726 0.28333
 H2771 H 0.40929 0.87309 0.19348
 H2772 H 0.39366 0.85753 0.15922
 H2773 H 0.32773 0.86595 0.18554
 H2774 H 0.34341 0.88174 0.21960
 H2775 H 0.39956 0.93686 0.25802
 H2776 H 0.41392 0.95068 0.29345
 H2777 H 0.42173 0.88313 0.31621
 H2778 H 0.40777 0.86954 0.28060
 C2779 C 0.37747 0.37763 0.70927
 C2780 C 0.35448 0.37573 0.70685
 C2781 C 0.34553 0.36689 0.68743
 C2782 C 0.35948 0.35986 0.67017
 C2783 C 0.38256 0.36196 0.67267
 C2784 C 0.39149 0.37079 0.69212
 C2785 C 0.38659 0.38630 0.72950
 C2786 C 0.39395 0.39346 0.74661
 C2787 C 0.40236 0.40190 0.76724
 C2788 C 0.38760 0.40832 0.78390
 C2789 C 0.39563 0.41633 0.80406
 C2790 C 0.41858 0.41803 0.80784
 C2791 C 0.43331 0.41153 0.79098
 C2792 C 0.42523 0.40353 0.77080
 H2793 H 0.34348 0.38091 0.72005
 H2794 H 0.32772 0.36524 0.68597
 H2795 H 0.39360 0.35675 0.65955
 H2796 H 0.40931 0.37220 0.69383
 H2797 H 0.36988 0.40703 0.78135
 H2798 H 0.38389 0.42088 0.81683
 H2799 H 0.45105 0.41286 0.79333
 H2800 H 0.43680 0.39862 0.75800
 C2801 C 1.12310 0.87839 1.29074
 C2802 C 1.14607 0.87624 1.29323
 C2803 C 1.15487 0.86715 1.31260
 C2804 C 1.14079 0.86009 1.32974
 C2805 C 1.11774 0.86244 1.32717
 C2806 C 1.10896 0.87154 1.30778
 C2807 C 1.11411 0.88729 1.27056
 C2808 C 1.10681 0.89461 1.25348
 C2809 C 1.09840 0.90319 1.23291
 C2810 C 1.11315 0.90970 1.21627
 C2811 C 1.10510 0.91774 1.19613
 C2812 C 1.08215 0.91937 1.19234
 C2813 C 1.06744 0.91282 1.20919
 C2814 C 1.07554 0.90479 1.22935
 H2815 H 1.15716 0.88143 1.28012
 H2816 H 1.17265 0.86530 1.31410
 H2817 H 1.10660 0.85722 1.34021
 H2818 H 1.09116 0.87313 1.30603
 H2819 H 1.13088 0.90843 1.21882
 H2820 H 1.11684 0.92232 1.18337
 H2821 H 1.04969 0.91410 1.20684
 H2822 H 1.06398 0.89981 1.24213
 C2823 C 1.12208 0.37755 0.79120
 C2824 C 1.12919 0.39163 0.80821
 C2825 C 1.13815 0.38272 0.82761
 C2826 C 1.14010 0.35961 0.83021
 C2827 C 1.13281 0.34560 0.81308
 C2828 C 1.12386 0.35453 0.79370
 C2829 C 1.11336 0.38669 0.77099
 C2830 C 1.10625 0.39417 0.75390
 C2831 C 1.09802 0.40292 0.73333
 C2832 C 1.11288 0.40943 0.71679
 C2833 C 1.10498 0.41755 0.69662
 C2834 C 1.08205 0.41925 0.69270
 C2835 C 1.06723 0.41274 0.70946
 C2836 C 1.07518 0.40463 0.72964
 H2837 H 1.12791 0.40948 0.80643
 H2838 H 1.14355 0.39381 0.84064
 H2839 H 1.13435 0.32776 0.81461
 H2840 H 1.11848 0.34349 0.78061
 H2841 H 1.13059 0.40808 0.71943
 H2842 H 1.11680 0.42211 0.68394
 H2843 H 1.04950 0.41408 0.70702
 H2844 H 1.06352 0.39965 0.74234
 C2845 C 0.62280 0.87780 0.79090
 C2846 C 0.62455 0.85475 0.79327
 C2847 C 0.63334 0.84569 0.81266
 C2848 C 0.64049 0.85958 0.82994
 C2849 C 0.63856 0.88271 0.82748
 C2850 C 0.62976 0.89176 0.80806
 C2851 C 0.61414 0.88702 0.77071
 C2852 C 0.60698 0.89443 0.75362
 C2853 C 0.59852 0.90284 0.73300
 C2854 C 0.59219 0.88804 0.71632
 C2855 C 0.58414 0.89606 0.69617
 C2856 C 0.58229 0.91904 0.69243
 C2857 C 0.58871 0.93381 0.70930
 C2858 C 0.59676 0.92574 0.72947
 H2859 H 0.61926 0.84380 0.78007
 H2860 H 0.63486 0.82784 0.81407
 H2861 H 0.64386 0.89371 0.84062
 H2862 H 0.62848 0.90962 0.80640
 H2863 H 0.59358 0.87029 0.71884
 H2864 H 0.57966 0.88428 0.68340
 H2865 H 0.58728 0.95157 0.70699
 H2866 H 0.60160 0.93734 0.74229
 C2867 C 0.62285 0.37739 1.29063
 C2868 C 0.62466 0.35435 1.29297
 C2869 C 0.63354 0.34529 1.31232
 C2870 C 0.64071 0.35918 1.32959
 C2871 C 0.63874 0.38231 1.32715
 C2872 C 0.62986 0.39136 1.30777
 C2873 C 0.61403 0.38660 1.27050
 C2874 C 0.60673 0.39401 1.25346
 C2875 C 0.59810 0.40244 1.23292
 C2876 C 0.59173 0.38766 1.21623
 C2877 C 0.58357 0.39571 1.19614
 C2878 C 0.58166 0.41870 1.19246
 C2879 C 0.58808 0.43343 1.20935
 C2880 C 0.59624 0.42534 1.22946
 H2881 H 0.61934 0.34339 1.27978
 H2882 H 0.63509 0.32744 1.31372
 H2883 H 0.64406 0.39331 1.34028
 H2884 H 0.62853 0.40921 1.30612
 H2885 H 0.59319 0.36991 1.21869
 H2886 H 0.57908 0.38396 1.18334
 H2887 H 0.58659 0.45120 1.20708
 H2888 H 0.60110 0.43692 1.24228
 C2889 C 0.87706 1.12176 1.29088
 C2890 C 0.89106 1.12861 1.30805
 C2891 C 0.88212 1.13767 1.32738
 C2892 C 0.85905 1.14000 1.32975
 C2893 C 0.84512 1.13296 1.31248
 C2894 C 0.85408 1.12389 1.29317
 C2895 C 0.88624 1.11297 1.27073
 C2896 C 0.89377 1.10583 1.25368
 C2897 C 0.90258 1.09757 1.23315
 C2898 C 0.90455 1.07470 1.22957
 C2899 C 0.91271 1.06673 1.20942
 C2900 C 0.91903 1.08158 1.19259
 C2901 C 0.91708 1.10454 1.19640
 C2902 C 0.90890 1.11245 1.21654
 H2903 H 0.90888 1.12705 1.30644
 H2904 H 0.89315 1.14288 1.34052
 H2905 H 0.82732 1.13478 1.31384
 H2906 H 0.84310 1.11872 1.27995
 H2907 H 0.89972 1.06303 1.24233
 H2908 H 0.91424 1.04898 1.20706
 H2909 H 0.92149 1.11637 1.18366
 H2910 H 0.90736 1.13019 1.21910
 C2911 C 0.87727 0.62144 0.79122
 C2912 C 0.89128 0.62833 0.80836
 C2913 C 0.88235 0.63739 0.82770
 C2914 C 0.85928 0.63970 0.83010
 C2915 C 0.84533 0.63260 0.81285
 C2916 C 0.85429 0.62354 0.79353
 C2917 C 0.88644 0.61267 0.77106
 C2918 C 0.89397 0.60554 0.75400
 C2919 C 0.90278 0.59731 0.73346
 C2920 C 0.90471 0.57444 0.72984
 C2921 C 0.91287 0.56650 0.70968
 C2922 C 0.91921 0.58136 0.69287
 C2923 C 0.91729 0.60431 0.69673
 C2924 C 0.90912 0.61221 0.71688
 H2925 H 0.90910 0.62680 0.80673
 H2926 H 0.89338 0.64264 0.84082
 H2927 H 0.82754 0.63441 0.81423
 H2928 H 0.84330 0.61834 0.78033
 H2929 H 0.89986 0.56276 0.74258
 H2930 H 0.91437 0.54875 0.70729
 H2931 H 0.92172 0.61616 0.68400
 H2932 H 0.90760 0.62994 0.71947
 C2933 C 0.37723 1.12174 0.79092
 C2934 C 0.39120 1.12860 0.80811
 C2935 C 0.38223 1.13763 0.82744
 C2936 C 0.35916 1.13993 0.82980
 C2937 C 0.34524 1.13286 0.81251
 C2938 C 0.35424 1.12383 0.79320
 C2939 C 0.38644 1.11300 0.77077
 C2940 C 0.39401 1.10589 0.75372
 C2941 C 0.40286 1.09766 0.73319
 C2942 C 0.40486 1.07479 0.72961
 C2943 C 0.41304 1.06685 0.70946
 C2944 C 0.41933 1.08170 0.69263
 C2945 C 0.41736 1.10466 0.69645
 C2946 C 0.40917 1.11256 0.71660
 H2947 H 0.40902 1.12707 0.80651
 H2948 H 0.39324 1.14286 0.84060
 H2949 H 0.32744 1.13466 0.81385
 H2950 H 0.34328 1.11865 0.77996
 H2951 H 0.40003 1.06312 0.74236
 H2952 H 0.41459 1.04910 0.70709
 H2953 H 0.42176 1.11650 0.68371
 H2954 H 0.40760 1.13029 0.71916
 C2955 C 0.37720 0.62155 1.29107
 C2956 C 0.35422 0.62366 1.29337
 C2957 C 0.34526 0.63267 1.31271
 C2958 C 0.35921 0.63968 1.33000
 C2959 C 0.38227 0.63736 1.32761
 C2960 C 0.39121 0.62835 1.30824
 C2961 C 0.38638 0.61285 1.27088
 C2962 C 0.39391 0.60577 1.25380
 C2963 C 0.40272 0.59759 1.23324
 C2964 C 0.40899 0.61253 1.21666
 C2965 C 0.41715 0.60468 1.19649
 C2966 C 0.41914 0.58174 1.19262
 C2967 C 0.41288 0.56684 1.20942
 C2968 C 0.40473 0.57474 1.22960
 H2969 H 0.34323 0.61853 1.28015
 H2970 H 0.32747 0.63450 1.31409
 H2971 H 0.39331 0.64254 1.34076
 H2972 H 0.40902 0.62681 1.30662
 H2973 H 0.40740 0.63026 1.21927
 H2974 H 0.42151 0.61656 1.18377
 H2975 H 0.41445 0.54910 1.20701
 H2976 H 0.39994 0.56303 1.24234
 C2977 C 1.12226 1.29179 0.87812
 C2978 C 1.14526 1.29403 0.87616
 C2979 C 1.15432 1.31334 0.86710
 C2980 C 1.14047 1.33065 0.85988
 C2981 C 1.11738 1.32833 0.86202
 C2982 C 1.10834 1.30900 0.87109
 C2983 C 1.11299 1.27165 0.88692
 C2984 C 1.10541 1.25459 0.89408
 C2985 C 1.09657 1.23404 0.90236
 C2986 C 1.09006 1.21741 0.88756
 C2987 C 1.08191 1.19722 0.89551
 C2988 C 1.08017 1.19339 0.91841
 C2989 C 1.08666 1.21025 0.93316
 C2990 C 1.09480 1.23045 0.92517
 H2991 H 1.15618 1.28079 0.88147
 H2992 H 1.17214 1.31466 0.86542
 H2993 H 1.10642 1.34150 0.85667
 H2994 H 1.09051 1.30742 0.87251
 H2995 H 1.09146 1.21998 0.86988
 H2996 H 1.07737 1.18446 0.88374
 H2997 H 1.08528 1.20787 0.95087
 H2998 H 1.09978 1.24322 0.93677
 C2999 C 1.12116 0.79159 0.37656
 C3000 C 1.12324 0.79395 0.35362
 C3001 C 1.13249 0.81325 0.34472
 C3002 C 1.13977 0.83044 0.35869
 C3003 C 1.13748 0.82800 0.38171
 C3004 C 1.12823 0.80868 0.39059
 C3005 C 1.11225 0.77142 0.38568
 C3006 C 1.10504 0.75436 0.39319
 C3007 C 1.09675 0.73379 0.40200
 C3008 C 1.11158 0.71716 0.40846
 C3009 C 1.10365 0.69700 0.41669
 C3010 C 1.08072 0.69320 0.41858
 C3011 C 1.06592 0.71005 0.41211
 C3012 C 1.07390 0.73022 0.40388
 H3013 H 1.11791 0.78079 0.34262
 H3014 H 1.13428 0.81466 0.32696
 H3015 H 1.14287 0.84108 0.39276
 H3016 H 1.12672 0.80701 0.40837
 H3017 H 1.12930 0.71971 0.40698
 H3018 H 1.11545 0.68424 0.42122
 H3019 H 1.04819 0.70769 0.41358
 H3020 H 1.06227 0.74300 0.39894
 C3021 C 0.62244 1.29103 0.37683
 C3022 C 0.64546 1.29326 0.37505
 C3023 C 0.65461 1.31262 0.36621
 C3024 C 0.64084 1.33002 0.35905
 C3025 C 0.61773 1.32771 0.36101
 C3026 C 0.60859 1.30831 0.36985
 C3027 C 0.61312 1.27087 0.38555
 C3028 C 0.60564 1.25379 0.39276
 C3029 C 0.59714 1.23319 0.40130
 C3030 C 0.61184 1.21641 0.40769
 C3031 C 0.60374 1.19629 0.41582
 C3032 C 0.58078 1.19266 0.41768
 C3033 C 0.56611 1.20963 0.41121
 C3034 C 0.57427 1.22977 0.40308
 H3035 H 0.65633 1.27996 0.38034
 H3036 H 0.67244 1.31393 0.36466
 H3037 H 0.60682 1.34094 0.35569
 H3038 H 0.59075 1.30676 0.37116
 H3039 H 0.62957 1.21885 0.40628
 H3040 H 0.61544 1.18343 0.42034
 H3041 H 0.54837 1.20739 0.41265
 H3042 H 0.56274 1.24267 0.39820
 C3043 C 0.62250 0.79137 0.87728
 C3044 C 0.64550 0.79367 0.87544
 C3045 C 0.65457 0.81305 0.86655
 C3046 C 0.64072 0.83039 0.85938
 C3047 C 0.61763 0.82799 0.86138
 C3048 C 0.60857 0.80859 0.87028
 C3049 C 0.61328 0.77121 0.88608
 C3050 C 0.60588 0.75412 0.89336
 C3051 C 0.59745 0.73352 0.90196
 C3052 C 0.61220 0.71680 0.90838
 C3053 C 0.60417 0.69664 0.91650
 C3054 C 0.58122 0.69292 0.91831
 C3055 C 0.56650 0.70984 0.91183
 C3056 C 0.57459 0.73002 0.90372
 H3057 H 0.65643 0.78043 0.88075
 H3058 H 0.67239 0.81442 0.86497
 H3059 H 0.60666 0.84118 0.85606
 H3060 H 0.59074 0.80697 0.87163
 H3061 H 0.62993 0.71930 0.90699
 H3062 H 0.61591 0.68382 0.92102
 H3063 H 0.54876 0.70755 0.91325
 H3064 H 0.56302 0.74287 0.89882
 C3065 C 0.87685 1.29132 1.12230
 C3066 C 0.85387 1.29380 1.12425
 C3067 C 0.84500 1.31317 1.13336
 C3068 C 0.85902 1.33033 1.14062
 C3069 C 0.88208 1.32776 1.13850
 C3070 C 0.89094 1.30835 1.12939
 C3071 C 0.88590 1.27114 1.11330
 C3072 C 0.89320 1.25407 1.10588
 C3073 C 0.90158 1.23349 1.09717
 C3074 C 0.88681 1.21676 1.09082
 C3075 C 0.89484 1.19659 1.08267
 C3076 C 0.91778 1.19288 1.08077
 C3077 C 0.93251 1.20983 1.08713
 C3078 C 0.92444 1.23001 1.09527
 H3079 H 0.84283 1.28068 1.11888
 H3080 H 0.82720 1.31468 1.13503
 H3081 H 0.89317 1.34081 1.14388
 H3082 H 0.90875 1.30660 1.12795
 H3083 H 0.86909 1.21924 1.09231
 H3084 H 0.88310 1.18375 1.07822
 H3085 H 0.95024 1.20755 1.08564
 H3086 H 0.93601 1.24287 1.10012
 C3087 C 0.87830 0.79174 0.62285
 C3088 C 0.87132 0.80888 0.60885
 C3089 C 0.86230 0.82831 0.61776
 C3090 C 0.86016 0.83080 0.64080
 C3091 C 0.86735 0.81355 0.65474
 C3092 C 0.87637 0.79415 0.64581
 C3093 C 0.88705 0.77150 0.61372
 C3094 C 0.89416 0.75437 0.60622
 C3095 C 0.90239 0.73375 0.59745
 C3096 C 0.88751 0.71711 0.59110
 C3097 C 0.89541 0.69689 0.58296
 C3098 C 0.91833 0.69303 0.58107
 C3099 C 0.93316 0.70989 0.58741
 C3100 C 0.92522 0.73012 0.59555
 H3101 H 0.87273 0.80718 0.59106
 H3102 H 0.85698 0.84142 0.60673
 H3103 H 0.86568 0.81500 0.67251
 H3104 H 0.88165 0.78096 0.65679
 H3105 H 0.86981 0.71971 0.59260
 H3106 H 0.88359 0.68412 0.57852
 H3107 H 0.95088 0.70749 0.58593
 H3108 H 0.93688 0.74290 0.60040
 C3109 C 0.37822 1.29154 0.62271
 C3110 C 0.37626 1.29375 0.64567
 C3111 C 0.36724 1.31308 0.65476
 C3112 C 0.36008 1.33045 0.64096
 C3113 C 0.36225 1.32815 0.61791
 C3114 C 0.37126 1.30880 0.60884
 C3115 C 0.38696 1.27136 0.61341
 C3116 C 0.39406 1.25429 0.60580
 C3117 C 0.40229 1.23372 0.59692
 C3118 C 0.42512 1.23014 0.59492
 C3119 C 0.43306 1.20993 0.58675
 C3120 C 0.41824 1.19304 0.58045
 C3121 C 0.39532 1.19686 0.58242
 C3122 C 0.38742 1.21706 0.59061
 H3123 H 0.38151 1.28046 0.65655
 H3124 H 0.36554 1.31438 0.67254
 H3125 H 0.35695 1.34137 0.60698
 H3126 H 0.37270 1.30725 0.59104
 H3127 H 0.43677 1.24293 0.59975
 H3128 H 0.45079 1.20756 0.58520
 H3129 H 0.38350 1.18407 0.57803
 H3130 H 0.36971 1.21962 0.59218
 C3131 C 0.37837 0.79213 1.12255
 C3132 C 0.37138 0.80933 1.10862
 C3133 C 0.36235 0.82871 1.11762
 C3134 C 0.36020 0.83109 1.14067
 C3135 C 0.36740 0.81378 1.15453
 C3136 C 0.37643 0.79443 1.14551
 C3137 C 0.38712 0.77192 1.11331
 C3138 C 0.39422 0.75483 1.10575
 C3139 C 0.40245 0.73424 1.09691
 C3140 C 0.38757 0.71762 1.09051
 C3141 C 0.39546 0.69741 1.08235
 C3142 C 0.41839 0.69354 1.08048
 C3143 C 0.43322 0.71039 1.08686
 C3144 C 0.42528 0.73061 1.09502
 H3145 H 0.37280 0.80771 1.09083
 H3146 H 0.35702 0.84187 1.10665
 H3147 H 0.36571 0.81514 1.17231
 H3148 H 0.38171 0.78118 1.15643
 H3149 H 0.36987 0.72022 1.09200
 H3150 H 0.38364 0.68465 1.07788
 H3151 H 0.45094 0.70798 1.08539
 H3152 H 0.43694 0.74337 1.09991
 C3153 C 0.87835 0.70826 0.87709
 C3154 C 0.87119 0.69117 0.89107
 C3155 C 0.86205 0.67182 0.88212
 C3156 C 0.85997 0.66935 0.85908
 C3157 C 0.86733 0.68654 0.84517
 C3158 C 0.87646 0.70586 0.85413
 C3159 C 0.88721 0.72843 0.88627
 C3160 C 0.89441 0.74550 0.89381
 C3161 C 0.90273 0.76606 0.90264
 C3162 C 0.88792 0.78268 0.90919
 C3163 C 0.89588 0.80284 0.91740
 C3164 C 0.91882 0.80666 0.91918
 C3165 C 0.93359 0.78981 0.91262
 C3166 C 0.92558 0.76964 0.90441
 H3167 H 0.87255 0.69286 0.90886
 H3168 H 0.85660 0.65875 0.89313
 H3169 H 0.86570 0.68510 0.82739
 H3170 H 0.88187 0.71902 0.84317
 H3171 H 0.87020 0.78012 0.90779
 H3172 H 0.88410 0.81559 0.92199
 H3173 H 0.95133 0.79218 0.91401
 H3174 H 0.93719 0.75688 0.89941
 C3175 C 0.87815 0.20845 0.37692
 C3176 C 0.87630 0.20610 0.35395
 C3177 C 0.86716 0.18680 0.34493
 C3178 C 0.85974 0.16960 0.35880
 C3179 C 0.86179 0.17203 0.38185
 C3180 C 0.87094 0.19135 0.39085
 C3181 C 0.88703 0.22859 0.38615
 C3182 C 0.89425 0.24563 0.39373
 C3183 C 0.90258 0.26617 0.40261
 C3184 C 0.92544 0.26973 0.40438
 C3185 C 0.93347 0.28988 0.41263
 C3186 C 0.91872 0.30672 0.41923
 C3187 C 0.89577 0.30292 0.41746
 C3188 C 0.88779 0.28278 0.40921
 H3189 H 0.88175 0.21926 0.34302
 H3190 H 0.86555 0.18540 0.32715
 H3191 H 0.85631 0.15894 0.39283
 H3192 H 0.87228 0.19300 0.40865
 H3193 H 0.93704 0.25697 0.39933
 H3194 H 0.95121 0.29223 0.41401
 H3195 H 0.88400 0.31567 0.42209
 H3196 H 0.87007 0.28024 0.40781
 C3197 C 0.37834 0.70806 0.37724
 C3198 C 0.37647 0.70576 0.35427
 C3199 C 0.36733 0.68647 0.34523
 C3200 C 0.35994 0.66924 0.35907
 C3201 C 0.36202 0.67162 0.38212
 C3202 C 0.37116 0.69094 0.39115
 C3203 C 0.38719 0.72821 0.38649
 C3204 C 0.39439 0.74525 0.39409
 C3205 C 0.40270 0.76578 0.40298
 C3206 C 0.42555 0.76936 0.40477
 C3207 C 0.43356 0.78952 0.41300
 C3208 C 0.41879 0.80636 0.41956
 C3209 C 0.39585 0.80255 0.41778
 C3210 C 0.38789 0.78240 0.40954
 H3211 H 0.38189 0.71895 0.34336
 H3212 H 0.36570 0.68510 0.32744
 H3213 H 0.35654 0.65852 0.39309
 H3214 H 0.37251 0.69256 0.40895
 H3215 H 0.43716 0.75659 0.39976
 H3216 H 0.45130 0.79188 0.41440
 H3217 H 0.38407 0.81530 0.42237
 H3218 H 0.37017 0.77984 0.40812
 C3219 C 0.37817 0.20838 0.87698
 C3220 C 0.37632 0.20605 0.85402
 C3221 C 0.36720 0.18675 0.84498
 C3222 C 0.35982 0.16952 0.85883
 C3223 C 0.36187 0.17194 0.88189
 C3224 C 0.37098 0.19126 0.89090
 C3225 C 0.38701 0.22854 0.88623
 C3226 C 0.39419 0.24558 0.89382
 C3227 C 0.40250 0.26612 0.90271
 C3228 C 0.42534 0.26967 0.90459
 C3229 C 0.43336 0.28982 0.91283
 C3230 C 0.41858 0.30670 0.91930
 C3231 C 0.39565 0.30292 0.91743
 C3232 C 0.38768 0.28277 0.90919
 H3233 H 0.38175 0.21923 0.84310
 H3234 H 0.36560 0.18536 0.82720
 H3235 H 0.35639 0.15883 0.89285
 H3236 H 0.37232 0.19290 0.90870
 H3237 H 0.43696 0.25688 0.89964
 H3238 H 0.45109 0.29216 0.91429
 H3239 H 0.38387 0.31570 0.92196
 H3240 H 0.36997 0.28024 0.90771
 C3241 C 1.12325 0.70893 1.12253
 C3242 C 1.10917 0.69185 1.12951
 C3243 C 1.11803 0.67243 1.13859
 C3244 C 1.14109 0.66989 1.14080
 C3245 C 1.15510 0.68710 1.13365
 C3246 C 1.14623 0.70648 1.12457
 C3247 C 1.11420 0.72911 1.11355
 C3248 C 1.10689 0.74618 1.10615
 C3249 C 1.09850 0.76676 1.09744
 C3250 C 1.07564 0.77027 1.09566
 C3251 C 1.06756 0.79045 1.08753
 C3252 C 1.08227 0.80736 1.08107
 C3253 C 1.10522 0.80362 1.08286
 C3254 C 1.11326 0.78346 1.09100
 H3255 H 1.09136 0.69357 1.12800
 H3256 H 1.10694 0.65935 1.14389
 H3257 H 1.17290 0.68561 1.13538
 H3258 H 1.15727 0.71963 1.11928
 H3259 H 1.06407 0.75744 1.10058
 H3260 H 1.04982 0.79276 1.08612
 H3261 H 1.11696 0.81643 1.07835
 H3262 H 1.13098 0.78095 1.09241
 C3263 C 1.12319 0.20877 0.62231
 C3264 C 1.10908 0.19172 0.62929
 C3265 C 1.11790 0.17228 0.63837
 C3266 C 1.14096 0.16970 0.64057
 C3267 C 1.15501 0.18687 0.63341
 C3268 C 1.14617 0.20628 0.62433
 C3269 C 1.11418 0.22897 0.61336
 C3270 C 1.10689 0.24607 0.60598
 C3271 C 1.09852 0.26668 0.59732
 C3272 C 1.07566 0.27022 0.59557
 C3273 C 1.06759 0.29042 0.58748
 C3274 C 1.08232 0.30732 0.58101
 C3275 C 1.10527 0.30354 0.58277
 C3276 C 1.11329 0.28336 0.59087
 H3277 H 1.09127 0.19348 0.62780
 H3278 H 1.10679 0.15922 0.64367
 H3279 H 1.17280 0.18535 0.63514
 H3280 H 1.15724 0.21940 0.61905
 H3281 H 1.06408 0.25740 0.60050
 H3282 H 1.04985 0.29275 0.58610
 H3283 H 1.11702 0.31634 0.57824
 H3284 H 1.13101 0.28082 0.59224
 C3285 C 0.62314 0.70878 0.62220
 C3286 C 0.64610 0.70629 0.62432
 C3287 C 0.65491 0.68687 0.63340
 C3288 C 0.64083 0.66968 0.64048
 C3289 C 0.61778 0.67227 0.63818
 C3290 C 0.60899 0.69171 0.62910
 C3291 C 0.61416 0.72900 0.61326
 C3292 C 0.60689 0.74611 0.60590
 C3293 C 0.59853 0.76673 0.59726
 C3294 C 0.61332 0.78340 0.59081
 C3295 C 0.60531 0.80360 0.58274
 C3296 C 0.58237 0.80740 0.58100
 C3297 C 0.56763 0.79051 0.58746
 C3298 C 0.57568 0.77030 0.59553
 H3299 H 0.65719 0.71942 0.61910
 H3300 H 0.67269 0.68535 0.63521
 H3301 H 0.60665 0.65920 0.64342
 H3302 H 0.59119 0.69348 0.62753
 H3303 H 0.63104 0.78084 0.59218
 H3304 H 0.61707 0.81639 0.57821
 H3305 H 0.54989 0.79287 0.58610
 H3306 H 0.56409 0.75749 0.60046
 C3307 C 0.62278 0.20849 1.12222
 C3308 C 0.60869 0.19139 1.12914
 C3309 C 0.61755 0.17194 1.13816
 C3310 C 0.64061 0.16938 1.14035
 C3311 C 0.65463 0.18660 1.13325
 C3312 C 0.64576 0.20602 1.12424
 C3313 C 0.61374 0.22872 1.11335
 C3314 C 0.60644 0.24584 1.10604
 C3315 C 0.59807 0.26648 1.09745
 C3316 C 0.57521 0.27002 1.09565
 C3317 C 0.56717 0.29024 1.08759
 C3318 C 0.58191 0.30716 1.08120
 C3319 C 0.60485 0.30339 1.08303
 C3320 C 0.61285 0.28318 1.09110
 H3321 H 0.59088 0.19313 1.12766
 H3322 H 0.60645 0.15885 1.14342
 H3323 H 0.67242 0.18510 1.13497
 H3324 H 0.65681 0.21918 1.11899
 H3325 H 0.56363 0.25719 1.10051
 H3326 H 0.54943 0.29258 1.08616
 H3327 H 0.61661 0.31620 1.07857
 H3328 H 0.63058 0.28065 1.09251
 C3329 C 1.29085 1.12293 0.87722
 C3330 C 1.30787 1.10877 0.87024
 C3331 C 1.32734 1.11759 0.86128
 C3332 C 1.32999 1.14068 0.85921
 C3333 C 1.31285 1.15477 0.86636
 C3334 C 1.29341 1.14594 0.87532
 C3335 C 1.27062 1.11392 0.88606
 C3336 C 1.25352 1.10663 0.89337
 C3337 C 1.23292 1.09826 0.90197
 C3338 C 1.22937 1.07537 0.90372
 C3339 C 1.20919 1.06732 0.91181
 C3340 C 1.19232 1.08209 0.91827
 C3341 C 1.19610 1.10507 0.91649
 C3342 C 1.21625 1.11307 0.90839
 H3343 H 1.30606 1.09093 0.87164
 H3344 H 1.34037 1.10643 0.85599
 H3345 H 1.31442 1.17260 0.86473
 H3346 H 1.28031 1.15704 0.88061
 H3347 H 1.24217 1.06376 0.89882
 H3348 H 1.20686 1.04955 0.91321
 H3349 H 1.18332 1.11685 0.92100
 H3350 H 1.21879 1.13082 0.90701
 C3351 C 1.29093 0.62269 0.37744
 C3352 C 1.29352 0.64570 0.37557
 C3353 C 1.31296 0.65453 0.36663
 C3354 C 1.33009 0.64043 0.35945
 C3355 C 1.32740 0.61733 0.36149
 C3356 C 1.30793 0.60852 0.37043
 C3357 C 1.27069 0.61370 0.38626
 C3358 C 1.25357 0.60642 0.39354
 C3359 C 1.23295 0.59807 0.40212
 C3360 C 1.21632 0.61289 0.40857
 C3361 C 1.19615 0.60490 0.41665
 C3362 C 1.19233 0.58192 0.41838
 C3363 C 1.20918 0.56714 0.41187
 C3364 C 1.22936 0.57518 0.40381
 H3365 H 1.28044 0.65682 0.38088
 H3366 H 1.31456 0.67235 0.36502
 H3367 H 1.34042 0.60617 0.35617
 H3368 H 1.30610 0.59069 0.37180
 H3369 H 1.21889 0.63064 0.40724
 H3370 H 1.18339 0.61669 0.42120
 H3371 H 1.20681 0.54937 0.41323
 H3372 H 1.24215 0.56356 0.39887
 C3373 C 0.79079 1.12289 0.37712
 C3374 C 0.80784 1.10876 0.37015
 C3375 C 0.82731 1.11762 0.36125
 C3376 C 0.82994 1.14072 0.35920
 C3377 C 0.81277 1.15478 0.36636
 C3378 C 0.79333 1.14591 0.37526
 C3379 C 0.77054 1.11384 0.38587
 C3380 C 0.75342 1.10651 0.39309
 C3381 C 0.73280 1.09810 0.40160
 C3382 C 0.72925 1.07520 0.40326
 C3383 C 0.70908 1.06710 0.41131
 C3384 C 0.69220 1.08184 0.41781
 C3385 C 0.69595 1.10483 0.41609
 C3386 C 0.71612 1.11288 0.40805
 H3387 H 0.80605 1.09092 0.37152
 H3388 H 0.84036 1.10649 0.35595
 H3389 H 0.81433 1.17261 0.36475
 H3390 H 0.78021 1.15699 0.38054
 H3391 H 0.74207 1.06361 0.39834
 H3392 H 0.70675 1.04933 0.41265
 H3393 H 0.68317 1.11659 0.42065
 H3394 H 0.71865 1.13063 0.40673
 C3395 C 0.79108 0.62263 0.87758
 C3396 C 0.80813 0.60849 0.87062
 C3397 C 0.82758 0.61734 0.86167
 C3398 C 0.83019 0.64044 0.85957
 C3399 C 0.81303 0.65451 0.86673
 C3400 C 0.79360 0.64564 0.87567
 C3401 C 0.77085 0.61358 0.88638
 C3402 C 0.75374 0.60626 0.89364
 C3403 C 0.73313 0.59786 0.90219
 C3404 C 0.72958 0.57496 0.90387
 C3405 C 0.70940 0.56688 0.91193
 C3406 C 0.69253 0.58163 0.91842
 C3407 C 0.69629 0.60462 0.91669
 C3408 C 0.71645 0.61265 0.90863
 H3409 H 0.80635 0.59066 0.87202
 H3410 H 0.84063 0.60621 0.85637
 H3411 H 0.81457 0.67233 0.86508
 H3412 H 0.78048 0.65673 0.88095
 H3413 H 0.74239 0.56337 0.89895
 H3414 H 0.70707 0.54911 0.91328
 H3415 H 0.68351 0.61639 0.92123
 H3416 H 0.71899 0.63041 0.90729
 C3417 C 1.29154 0.87813 1.12212
 C3418 C 1.30860 0.89218 1.12920
 C3419 C 1.32800 0.88322 1.13819
 C3420 C 1.33054 0.86011 1.14020
 C3421 C 1.31335 0.84613 1.13293
 C3422 C 1.29398 0.85510 1.12395
 C3423 C 1.27136 0.88727 1.11328
 C3424 C 1.25428 0.89463 1.10599
 C3425 C 1.23369 0.90304 1.09739
 C3426 C 1.23015 0.92593 1.09565
 C3427 C 1.20998 0.93401 1.08755
 C3428 C 1.19311 0.91925 1.08107
 C3429 C 1.19687 0.89627 1.08285
 C3430 C 1.21702 0.88824 1.09096
 H3431 H 1.30688 0.91003 1.12786
 H3432 H 1.34107 0.89429 1.14357
 H3433 H 1.31483 0.82829 1.13452
 H3434 H 1.28085 0.84409 1.11859
 H3435 H 1.24296 0.93753 1.10057
 H3436 H 1.20765 0.95178 1.08616
 H3437 H 1.18409 0.88450 1.07832
 H3438 H 1.21955 0.87049 1.09233
 C3439 C 1.29147 0.37759 0.62251
 C3440 C 1.30853 0.39161 0.62968
 C3441 C 1.32791 0.38262 0.63867
 C3442 C 1.33044 0.35949 0.64060
 C3443 C 1.31326 0.34555 0.63327
 C3444 C 1.29391 0.35455 0.62428
 C3445 C 1.27133 0.38675 0.61362
 C3446 C 1.25428 0.39414 0.60628
 C3447 C 1.23373 0.40259 0.59761
 C3448 C 1.23021 0.42549 0.59592
 C3449 C 1.21008 0.43361 0.58777
 C3450 C 1.19321 0.41889 0.58119
 C3451 C 1.19695 0.39590 0.58292
 C3452 C 1.21707 0.38783 0.59108
 H3453 H 1.30682 0.40946 0.62839
 H3454 H 1.34098 0.39366 0.64411
 H3455 H 1.31474 0.32771 0.63479
 H3456 H 1.28079 0.34355 0.61885
 H3457 H 1.24301 0.43707 0.60091
 H3458 H 1.20777 0.45139 0.58642
 H3459 H 1.18418 0.38416 0.57832
 H3460 H 1.21957 0.37007 0.59242
 C3461 C 0.79158 0.87792 0.62208
 C3462 C 0.80869 0.89196 0.62909
 C3463 C 0.82807 0.88300 0.63810
 C3464 C 0.83056 0.85989 0.64020
 C3465 C 0.81334 0.84592 0.63301
 C3466 C 0.79398 0.85489 0.62400
 C3467 C 0.77142 0.88707 0.61323
 C3468 C 0.75435 0.89444 0.60592
 C3469 C 0.73377 0.90287 0.59731
 C3470 C 0.73023 0.92577 0.59563
 C3471 C 0.71007 0.93388 0.58753
 C3472 C 0.69320 0.91914 0.58099
 C3473 C 0.69696 0.89615 0.58273
 C3474 C 0.71710 0.88810 0.59083
 H3475 H 0.80700 0.90980 0.62768
 H3476 H 0.84117 0.89406 0.64343
 H3477 H 0.81478 0.82809 0.63466
 H3478 H 0.78082 0.84388 0.61869
 H3479 H 0.74303 0.93736 0.60059
 H3480 H 0.70774 0.95165 0.58617
 H3481 H 0.68418 0.88439 0.57816
 H3482 H 0.71963 0.87034 0.59217
 C3483 C 0.79119 0.37832 1.12316
 C3484 C 0.80835 0.37136 1.10920
 C3485 C 0.82771 0.36230 1.11816
 C3486 C 0.83011 0.36009 1.14120
 C3487 C 0.81285 0.36726 1.15509
 C3488 C 0.79352 0.37632 1.14611
 C3489 C 0.77104 0.38718 1.11400
 C3490 C 0.75397 0.39447 1.10660
 C3491 C 0.73339 0.40305 1.09813
 C3492 C 0.72994 0.40475 1.07529
 C3493 C 0.70978 0.41280 1.06715
 C3494 C 0.69283 0.41928 1.08178
 C3495 C 0.69650 0.41753 1.10471
 C3496 C 0.71665 0.40947 1.11280
 H3497 H 0.80672 0.37283 1.09141
 H3498 H 0.84084 0.35699 1.10716
 H3499 H 0.81423 0.36553 1.17287
 H3500 H 0.78031 0.38160 1.15707
 H3501 H 0.74280 0.39983 1.06379
 H3502 H 0.70751 0.41416 1.04942
 H3503 H 0.68367 0.42206 1.11638
 H3504 H 0.71911 0.40813 1.13051
 C3505 C 0.70854 1.12150 1.12298
 C3506 C 0.69144 1.12853 1.10898
 C3507 C 0.67204 1.13755 1.11789
 C3508 C 0.66953 1.13964 1.14093
 C3509 C 0.68674 1.13240 1.15487
 C3510 C 0.70611 1.12338 1.14594
 C3511 C 0.72873 1.11268 1.11387
 C3512 C 0.74583 1.10543 1.10650
 C3513 C 0.76644 1.09690 1.09806
 C3514 C 0.76987 1.09509 1.07523
 C3515 C 0.79005 1.08707 1.06710
 C3516 C 0.80705 1.08075 1.08175
 C3517 C 0.80340 1.08261 1.10468
 C3518 C 0.78323 1.09063 1.11275
 H3519 H 0.69315 1.12715 1.09119
 H3520 H 0.65896 1.14292 1.10686
 H3521 H 0.68528 1.13404 1.17265
 H3522 H 0.71927 1.11805 1.15692
 H3523 H 0.75697 1.09988 1.06371
 H3524 H 0.79230 1.08562 1.04939
 H3525 H 0.81627 1.07821 1.11636
 H3526 H 0.78079 1.09207 1.13045
 C3527 C 0.70870 0.62166 0.62332
 C3528 C 0.70622 0.62356 0.64627
 C3529 C 0.68684 0.63261 0.65516
 C3530 C 0.66968 0.63988 0.64117
 C3531 C 0.67224 0.63777 0.61814
 C3532 C 0.69165 0.62872 0.60928
 C3533 C 0.72891 0.61283 0.61425
 C3534 C 0.74601 0.60556 0.60690
 C3535 C 0.76661 0.59703 0.59845
 C3536 C 0.78339 0.59069 0.61313
 C3537 C 0.80355 0.58266 0.60504
 C3538 C 0.80721 0.58087 0.58212
 C3539 C 0.79024 0.58726 0.56748
 C3540 C 0.77006 0.59528 0.57561
 H3541 H 0.71934 0.61822 0.65729
 H3542 H 0.68534 0.63427 0.67293
 H3543 H 0.65920 0.64315 0.60707
 H3544 H 0.69339 0.62732 0.59149
 H3545 H 0.78093 0.59207 0.63083
 H3546 H 0.81641 0.57820 0.61673
 H3547 H 0.79249 0.58586 0.54976
 H3548 H 0.75717 0.60013 0.56410
 C3549 C 0.20880 1.12167 0.62323
 C3550 C 0.19170 1.12870 0.60923
 C3551 C 0.17232 1.13776 0.61814
 C3552 C 0.16984 1.13991 0.64118
 C3553 C 0.18705 1.13268 0.65512
 C3554 C 0.20640 1.12362 0.64618
 C3555 C 0.22897 1.11281 0.61412
 C3556 C 0.24605 1.10553 0.60674
 C3557 C 0.26664 1.09696 0.59828
 C3558 C 0.27003 1.09512 0.57545
 C3559 C 0.29020 1.08709 0.56731
 C3560 C 0.30722 1.08077 0.58194
 C3561 C 0.30360 1.08266 0.60486
 C3562 C 0.28344 1.09070 0.61296
 H3563 H 0.19338 1.12727 0.59144
 H3564 H 0.15923 1.14312 0.60711
 H3565 H 0.18561 1.13437 0.67289
 H3566 H 0.21956 1.11830 0.65717
 H3567 H 0.25712 1.09992 0.56394
 H3568 H 0.29242 1.08561 0.54959
 H3569 H 0.31648 1.07826 0.61654
 H3570 H 0.28102 1.09216 0.63066
 C3571 C 0.20898 0.62206 1.12329
 C3572 C 0.19183 0.62906 1.10933
 C3573 C 0.17244 0.63804 1.11830
 C3574 C 0.17000 0.64015 1.14134
 C3575 C 0.18725 0.63293 1.15524
 C3576 C 0.20662 0.62395 1.14625
 C3577 C 0.22917 0.61330 1.11411
 C3578 C 0.24626 0.60609 1.10669
 C3579 C 0.26686 0.59760 1.09818
 C3580 C 0.27027 0.59586 1.07534
 C3581 C 0.29043 0.58784 1.06717
 C3582 C 0.30743 0.58144 1.08178
 C3583 C 0.30382 0.58325 1.10471
 C3584 C 0.28367 0.59128 1.11283
 H3585 H 0.19349 0.62767 1.09153
 H3586 H 0.15932 0.64339 1.10730
 H3587 H 0.18585 0.63459 1.17302
 H3588 H 0.21982 0.61865 1.15720
 H3589 H 0.25735 0.60070 1.06386
 H3590 H 0.29265 0.58643 1.04944
 H3591 H 0.31670 0.57879 1.11637
 H3592 H 0.28125 0.59266 1.13054
 C3593 C 0.70894 0.87756 0.87741
 C3594 C 0.69167 0.87069 0.89128
 C3595 C 0.67224 0.86190 0.88219
 C3596 C 0.66989 0.85987 0.85913
 C3597 C 0.68727 0.86694 0.84534
 C3598 C 0.70666 0.87573 0.85444
 C3599 C 0.72914 0.88618 0.88668
 C3600 C 0.74626 0.89330 0.89411
 C3601 C 0.76691 0.90172 0.90256
 C3602 C 0.77039 0.90348 0.92539
 C3603 C 0.79059 0.91150 0.93349
 C3604 C 0.80753 0.91788 0.91881
 C3605 C 0.80383 0.91603 0.89590
 C3606 C 0.78366 0.90801 0.88785
 H3607 H 0.69326 0.87203 0.90908
 H3608 H 0.65903 0.85665 0.89311
 H3609 H 0.68593 0.86533 0.82755
 H3610 H 0.71995 0.88093 0.84356
 H3611 H 0.75752 0.89867 0.93692
 H3612 H 0.79287 0.91294 0.95120
 H3613 H 0.81667 0.92047 0.88419
 H3614 H 0.78118 0.90661 0.87015
 C3615 C 0.70910 0.37716 0.37718
 C3616 C 0.69183 0.37022 0.39102
 C3617 C 0.67243 0.36142 0.38190
 C3618 C 0.67008 0.35945 0.35883
 C3619 C 0.68746 0.36658 0.34507
 C3620 C 0.70684 0.37537 0.35420
 C3621 C 0.72928 0.38581 0.38649
 C3622 C 0.74636 0.39297 0.39397
 C3623 C 0.76697 0.40145 0.40248
 C3624 C 0.77041 0.40315 0.42532
 C3625 C 0.79055 0.41122 0.43349
 C3626 C 0.80750 0.41773 0.41887
 C3627 C 0.80385 0.41594 0.39594
 C3628 C 0.78373 0.40786 0.38783
 H3629 H 0.69340 0.37153 0.40883
 H3630 H 0.65921 0.35614 0.39280
 H3631 H 0.68614 0.36502 0.32727
 H3632 H 0.72013 0.38063 0.34335
 H3633 H 0.75753 0.39824 0.43681
 H3634 H 0.79280 0.41261 0.45121
 H3635 H 0.81669 0.42048 0.38427
 H3636 H 0.78128 0.40652 0.37011
 C3637 C 0.20873 0.87669 0.37792
 C3638 C 0.19186 0.89094 0.37077
 C3639 C 0.17245 0.88223 0.36158
 C3640 C 0.16971 0.85916 0.35942
 C3641 C 0.18671 0.84497 0.36673
 C3642 C 0.20609 0.85370 0.37592
 C3643 C 0.22891 0.88559 0.38700
 C3644 C 0.24597 0.89282 0.39449
 C3645 C 0.26651 0.90118 0.40326
 C3646 C 0.27007 0.92407 0.40497
 C3647 C 0.29022 0.93213 0.41312
 C3648 C 0.30707 0.91736 0.41968
 C3649 C 0.30326 0.89438 0.41798
 C3650 C 0.28312 0.88637 0.40982
 H3651 H 0.19373 0.90877 0.37224
 H3652 H 0.15952 0.89345 0.35617
 H3653 H 0.18507 0.82716 0.36504
 H3654 H 0.21908 0.84252 0.38133
 H3655 H 0.25731 0.93568 0.39996
 H3656 H 0.29257 0.94989 0.41445
 H3657 H 0.31601 0.88260 0.42258
 H3658 H 0.28057 0.86862 0.40848
 C3659 C 0.20872 0.37795 0.87736
 C3660 C 0.19150 0.37115 0.89131
 C3661 C 0.17206 0.36229 0.88234
 C3662 C 0.16963 0.36013 0.85930
 C3663 C 0.18696 0.36714 0.84541
 C3664 C 0.20638 0.37600 0.85440
 C3665 C 0.22896 0.38661 0.88654
 C3666 C 0.24608 0.39375 0.89395
 C3667 C 0.26672 0.40218 0.90241
 C3668 C 0.27019 0.40389 0.92525
 C3669 C 0.29038 0.41189 0.93338
 C3670 C 0.30734 0.41828 0.91874
 C3671 C 0.30366 0.41648 0.89581
 C3672 C 0.28349 0.40849 0.88773
 H3673 H 0.19315 0.37259 0.90911
 H3674 H 0.15888 0.35710 0.89333
 H3675 H 0.18557 0.36544 0.82764
 H3676 H 0.21963 0.38115 0.84346
 H3677 H 0.25730 0.39906 0.93676
 H3678 H 0.29265 0.41329 0.95110
 H3679 H 0.31651 0.42095 0.88413
 H3680 H 0.28102 0.40713 0.87003
   
