data_POSCAR
  _audit_creation_date              2014-09-24
  _audit_creation_method            'ToBaCCo'
  _symmetry_space_group_name_H-M    'P1'
  _symmetry_Int_Tables_number       1
  _symmetry_cell_setting            triclinic
  loop_
  _symmetry_equiv_pos_as_xyz
 x,y,z
_cell_length_a 68.4296
_cell_length_b 68.1041
_cell_length_c 66.5355
_cell_angle_alpha 90.012100
_cell_angle_beta 90.028000
_cell_angle_gamma 90.049800
loop_
  _atom_site_label
  _atom_site_type_symbol
  _atom_site_fract_x
  _atom_site_fract_y
  _atom_site_fract_z
C1 C 0.31506 0.37331 0.01904
 C2 C 0.30888 0.38018 0.00032
 C3 C 0.31613 0.37249 -0.01778
 C4 C 0.33093 0.35781 -0.01691
 C5 C 0.33737 0.35064 0.00206
 C6 C 0.32941 0.35844 0.02008
 C7 C 0.33660 0.35180 0.03866
 C8 C 0.35130 0.33775 0.03962
 C9 C 0.35941 0.32979 0.02204
 C10 C 0.35241 0.33621 0.00304
 C11 C 0.34081 0.35150 -0.03428
 C12 C 0.35544 0.33740 -0.03332
 C13 C 0.36097 0.32885 -0.01494
 C14 C 0.37611 0.31454 -0.01385
 C15 C 0.38301 0.30893 0.00518
 C16 C 0.37494 0.31618 0.02295
 H17 H 0.33127 0.35774 0.05270
 H18 H 0.35652 0.33351 0.05434
 H19 H 0.33796 0.35797 -0.04882
 H20 H 0.36292 0.33393 -0.04717
 H21 H 0.29736 0.39112 -0.00005
 H22 H 0.39432 0.29783 0.00639
 C23 C 0.63914 0.69929 0.01947
 C24 C 0.63146 0.70571 0.00114
 C25 C 0.64035 0.70101 -0.01716
 C26 C 0.65735 0.68917 -0.01729
 C27 C 0.66512 0.68219 0.00114
 C28 C 0.65594 0.68719 0.01959
 C29 C 0.66365 0.67976 0.03763
 C30 C 0.68042 0.66825 0.03766
 C31 C 0.68997 0.66347 0.01963
 C32 C 0.68218 0.67028 0.00115
 C33 C 0.66670 0.68406 -0.03534
 C34 C 0.68355 0.67265 -0.03531
 C35 C 0.69139 0.66521 -0.01729
 C36 C 0.70879 0.65378 -0.01706
 C37 C 0.71679 0.64825 0.00154
 C38 C 0.70727 0.65222 0.01964
 H39 H 0.65678 0.68275 0.05194
 H40 H 0.68596 0.66329 0.05203
 H41 H 0.66116 0.68892 -0.04973
 H42 H 0.69055 0.67005 -0.04963
 H43 H 0.61872 0.71518 0.00114
 H44 H 0.72972 0.63903 0.00194
 C45 C 0.63696 0.30173 1.01614
 C46 C 0.62961 0.29370 0.99832
 C47 C 0.63485 0.30115 0.97953
 C48 C 0.64796 0.31715 0.97831
 C49 C 0.65577 0.32540 0.99620
 C50 C 0.65019 0.31773 1.01519
 C51 C 0.65790 0.32632 1.03266
 C52 C 0.67039 0.34241 1.03161
 C53 C 0.67667 0.34999 1.01300
 C54 C 0.66893 0.34156 0.99509
 C55 C 0.65300 0.32547 0.95970
 C56 C 0.66572 0.34135 0.95860
 C57 C 0.67397 0.34950 0.97605
 C58 C 0.68666 0.36582 0.97496
 C59 C 0.69370 0.37427 0.99265
 C60 C 0.68938 0.36653 1.01171
 H61 H 0.65420 0.32087 1.04744
 H62 H 0.67467 0.34904 1.04568
 H63 H 0.64694 0.31999 0.94577
 H64 H 0.66874 0.34739 0.94388
 H65 H 0.61937 0.28154 0.99908
 H66 H 0.70390 0.38641 0.99135
 C67 C 0.36129 0.69522 1.01538
 C68 C 0.36777 0.70309 0.99703
 C69 C 0.36274 0.69479 0.97859
 C70 C 0.35023 0.67833 0.97798
 C71 C 0.34279 0.67041 0.99618
 C72 C 0.34837 0.67875 1.01495
 C73 C 0.34014 0.67092 1.03258
 C74 C 0.32795 0.65459 1.03201
 C75 C 0.32199 0.64619 1.01368
 C76 C 0.32977 0.65407 0.99555
 C77 C 0.34527 0.66940 0.95965
 C78 C 0.33288 0.65325 0.95907
 C79 C 0.32477 0.64550 0.97676
 C80 C 0.31220 0.62907 0.97617
 C81 C 0.30521 0.62109 0.99410
 C82 C 0.30937 0.62952 1.01291
 H83 H 0.34285 0.67733 1.04715
 H84 H 0.32351 0.64857 1.04630
 H85 H 0.35106 0.67471 0.94553
 H86 H 0.32990 0.64676 0.94454
 H87 H 0.37790 0.71537 0.99700
 H88 H 0.29511 0.60882 0.99316
 C89 C 0.01650 0.29952 0.35770
 C90 C -0.00166 0.29142 0.36238
 C91 C -0.01925 0.29984 0.35568
 C92 C -0.01830 0.31655 0.34276
 C93 C 0.00018 0.32474 0.33763
 C94 C 0.01758 0.31636 0.34542
 C95 C 0.03563 0.32525 0.34108
 C96 C 0.03670 0.34172 0.32885
 C97 C 0.01980 0.34985 0.32026
 C98 C 0.00131 0.34139 0.32470
 C99 C -0.03514 0.32480 0.33407
 C100 C -0.03409 0.34138 0.32195
 C101 C -0.01601 0.34967 0.31647
 C102 C -0.01474 0.36659 0.30391
 C103 C 0.00373 0.37490 0.30031
 C104 C 0.02089 0.36656 0.30775
 H105 H 0.04915 0.31967 0.34726
 H106 H 0.05096 0.34815 0.32639
 H107 H -0.04946 0.31851 0.33635
 H108 H -0.04779 0.34769 0.31718
 H109 H -0.00201 0.27890 0.37245
 H110 H 0.00503 0.38735 0.29022
 C111 C 0.02309 0.63028 0.69234
 C112 C 0.00587 0.62254 0.70030
 C113 C -0.01245 0.63123 0.69688
 C114 C -0.01352 0.64796 0.68403
 C115 C 0.00386 0.65563 0.67529
 C116 C 0.02220 0.64677 0.67952
 C117 C 0.03914 0.65425 0.67039
 C118 C 0.03827 0.67044 0.65775
 C119 C 0.02041 0.67973 0.65362
 C120 C 0.00294 0.67207 0.66207
 C121 C -0.03148 0.65659 0.67870
 C122 C -0.03233 0.67298 0.66627
 C123 C -0.01542 0.68072 0.65725
 C124 C -0.01613 0.69738 0.64429
 C125 C 0.00152 0.70501 0.63684
 C126 C 0.01952 0.69627 0.64091
 H127 H 0.05327 0.64751 0.67275
 H128 H 0.05180 0.67551 0.65112
 H129 H -0.04525 0.65069 0.68382
 H130 H -0.04652 0.67953 0.66399
 H131 H 0.00705 0.61023 0.71058
 H132 H 0.00129 0.71740 0.62659
 C133 C 0.98269 0.63066 0.30705
 C134 C 1.00122 0.62459 0.30082
 C135 C 1.01823 0.63238 0.30925
 C136 C 1.01682 0.64675 0.32453
 C137 C 0.99814 0.65329 0.33090
 C138 C 0.98098 0.64510 0.32224
 C139 C 0.96265 0.65102 0.32952
 C140 C 0.96113 0.66490 0.34477
 C141 C 0.97788 0.67348 0.35331
 C142 C 0.99660 0.66764 0.34637
 C143 C 1.03353 0.65404 0.33421
 C144 C 1.03203 0.66795 0.34942
 C145 C 1.01379 0.67564 0.35526
 C146 C 1.01211 0.68992 0.37083
 C147 C 0.99337 0.69494 0.37773
 C148 C 0.97640 0.68720 0.36914
 H149 H 0.94925 0.64471 0.32377
 H150 H 0.94663 0.66858 0.35004
 H151 H 1.04796 0.64869 0.33046
 H152 H 1.04540 0.67209 0.35695
 H153 H 1.00244 0.61362 0.28905
 H154 H 0.99174 0.70607 0.38929
 C155 C 1.01259 0.30702 0.63164
 C156 C 0.99430 0.30277 0.62335
 C157 C 0.97718 0.31125 0.63080
 C158 C 0.97835 0.32505 0.64665
 C159 C 0.99680 0.32954 0.65531
 C160 C 1.01395 0.32030 0.64795
 C161 C 1.03196 0.32464 0.65703
 C162 C 1.03316 0.33774 0.67301
 C163 C 1.01659 0.34798 0.67993
 C164 C 0.99810 0.34334 0.67133
 C165 C 0.96164 0.33477 0.65376
 C166 C 0.96287 0.34817 0.66947
 C167 C 0.98086 0.35239 0.67873
 C168 C 0.98211 0.36567 0.69498
 C169 C 1.00032 0.36994 0.70343
 C170 C 1.01775 0.36184 0.69597
 H171 H 1.04536 0.31782 0.65201
 H172 H 1.04729 0.33944 0.68004
 H173 H 0.94743 0.33225 0.64710
 H174 H 0.94951 0.35528 0.67420
 H175 H 0.99332 0.29220 0.61117
 H176 H 1.00089 0.38067 0.71547
 C177 C 0.29627 -0.01658 0.35504
 C178 C 0.28923 0.00190 0.36099
 C179 C 0.29856 0.01930 0.35555
 C180 C 0.31512 0.01870 0.34297
 C181 C 0.32225 0.00033 0.33607
 C182 C 0.31294 -0.01739 0.34220
 C183 C 0.32007 -0.03525 0.33456
 C184 C 0.33663 -0.03590 0.32250
 C185 C 0.34598 -0.01862 0.31599
 C186 C 0.33879 -0.00030 0.32308
 C187 C 0.32491 0.03599 0.33743
 C188 C 0.34120 0.03536 0.32501
 C189 C 0.34826 0.01744 0.31747
 C190 C 0.36487 0.01679 0.30490
 C191 C 0.37225 -0.00134 0.29873
 C192 C 0.36294 -0.01912 0.30354
 H193 H 0.31294 -0.04906 0.33768
 H194 H 0.34203 -0.05029 0.31861
 H195 H 0.32012 0.05021 0.34275
 H196 H 0.34837 0.04912 0.32159
 H197 H 0.27687 0.00284 0.37116
 H198 H 0.38479 -0.00143 0.28874
 C199 C 0.70386 -0.01465 0.64156
 C200 C 0.71092 0.00356 0.63473
 C201 C 0.70171 0.02122 0.63948
 C202 C 0.68505 0.02116 0.65195
 C203 C 0.67787 0.00311 0.65963
 C204 C 0.68724 -0.01487 0.65451
 C205 C 0.68038 -0.03232 0.66346
 C206 C 0.66385 -0.03240 0.67564
 C207 C 0.65405 -0.01490 0.68035
 C208 C 0.66128 0.00308 0.67251
 C209 C 0.67523 0.03868 0.65667
 C210 C 0.65896 0.03862 0.66915
 C211 C 0.65190 0.02104 0.67748
 C212 C 0.63544 0.02090 0.69033
 C213 C 0.62817 0.00300 0.69736
 C214 C 0.63716 -0.01483 0.69263
 H215 H 0.68783 -0.04615 0.66144
 H216 H 0.65896 -0.04638 0.68148
 H217 H 0.67999 0.05266 0.65068
 H218 H 0.65185 0.05251 0.67206
 H219 H 0.72328 0.00407 0.62454
 H220 H 0.61552 0.00298 0.70720
 C221 C 0.35059 1.01800 0.70592
 C222 C 0.35927 1.00025 0.71197
 C223 C 0.35460 0.98235 0.70292
 C224 C 0.34072 0.98178 0.68725
 C225 C 0.33109 0.99930 0.68137
 C226 C 0.33576 1.01742 0.69088
 C227 C 0.32451 1.03408 0.68604
 C228 C 0.31036 1.03345 0.67103
 C229 C 0.30650 1.01601 0.66051
 C230 C 0.31658 0.99864 0.66608
 C231 C 0.33638 0.96417 0.67716
 C232 C 0.32235 0.96358 0.66206
 C233 C 0.31202 0.98055 0.65654
 C234 C 0.29743 0.97999 0.64151
 C235 C 0.28802 0.99732 0.63585
 C236 C 0.29232 1.01528 0.64504
 H237 H 0.32614 1.04775 0.69413
 H238 H 0.30223 1.04674 0.66802
 H239 H 0.34388 0.95064 0.68076
 H240 H 0.31974 0.94965 0.65471
 H241 H 0.37062 1.00032 0.72335
 H242 H 0.27697 0.99678 0.62415
 C243 C 0.69661 1.01315 0.36404
 C244 C 0.70377 0.99498 0.37081
 C245 C 0.69444 0.97729 0.36635
 C246 C 0.67775 0.97726 0.35389
 C247 C 0.67050 0.99528 0.34616
 C248 C 0.67980 1.01330 0.35135
 C249 C 0.67250 1.03077 0.34296
 C250 C 0.65582 1.03082 0.33105
 C251 C 0.64648 1.01324 0.32544
 C252 C 0.65382 0.99526 0.33332
 C253 C 0.66791 0.95972 0.34931
 C254 C 0.65153 0.95971 0.33697
 C255 C 0.64436 0.97724 0.32865
 C256 C 0.62762 0.97726 0.31623
 C257 C 0.62018 0.99507 0.30923
 C258 C 0.62939 1.01311 0.31315
 H259 H 0.67961 1.04474 0.34535
 H260 H 0.65030 1.04499 0.32655
 H261 H 0.67271 0.94578 0.35534
 H262 H 0.64436 0.94580 0.33424
 H263 H 0.71626 0.99457 0.38086
 H264 H 0.60761 0.99463 0.29928
 O265 O 0.84464 0.81329 0.48480
 O266 O 0.82014 0.84243 0.52374
 O267 O 0.84594 0.81463 0.52375
 O268 O 0.81890 0.84141 0.48491
 O269 O 0.79514 0.81956 0.48622
 O270 O 0.82260 0.79230 0.52523
 O271 O 0.79635 0.82059 0.52526
 O272 O 0.82106 0.79123 0.48612
 Cu273 Cu 0.83477 0.83010 0.50413
 Cu274 Cu 0.80642 0.80368 0.50588
 C275 C 0.83718 0.79721 0.47888
 C276 C 0.80397 0.83667 0.53102
 C277 C 0.83907 0.79886 0.53106
 C278 C 0.80230 0.83532 0.47908
 O279 O 0.14906 0.17578 0.47764
 O280 O 0.17324 0.14862 0.51824
 O281 O 0.14634 0.17554 0.51634
 O282 O 0.17602 0.14906 0.47921
 O283 O 0.19853 0.17221 0.48074
 O284 O 0.16914 0.19834 0.51876
 O285 O 0.19632 0.17121 0.51983
 O286 O 0.17136 0.19909 0.47978
 Cu287 Cu 0.15896 0.15990 0.49770
 Cu288 Cu 0.18614 0.18751 0.50001
 C289 C 0.15587 0.19220 0.47192
 C290 C 0.18899 0.15511 0.52587
 C291 C 0.15251 0.19158 0.52375
 C292 C 0.19228 0.15611 0.47350
 O293 O 0.15116 0.82121 0.51779
 O294 O 0.17725 0.84800 0.47830
 O295 O 0.14990 0.82160 0.47900
 O296 O 0.17868 0.84748 0.51730
 O297 O 0.20099 0.82413 0.51637
 O298 O 0.17210 0.79816 0.47778
 O299 O 0.19984 0.82492 0.47731
 O300 O 0.17324 0.79766 0.51683
 Cu301 Cu 0.16207 0.83693 0.49820
 Cu302 Cu 0.18881 0.80887 0.49693
 C303 C 0.15751 0.80477 0.52393
 C304 C 0.19306 0.84123 0.47116
 C305 C 0.15589 0.80533 0.47201
 C306 C 0.19477 0.84033 0.52337
 O307 O 0.84297 0.18691 0.51450
 O308 O 0.81693 0.15712 0.47708
 O309 O 0.84269 0.18512 0.47555
 O310 O 0.81725 0.15881 0.51601
 O311 O 0.79347 0.18065 0.51527
 O312 O 0.81916 0.20724 0.47475
 O313 O 0.79305 0.17884 0.47626
 O314 O 0.81936 0.20894 0.51376
 Cu315 Cu 0.83232 0.16982 0.49586
 Cu316 Cu 0.80387 0.19613 0.49489
 C317 C 0.83576 0.20308 0.52045
 C318 C 0.80045 0.16269 0.47044
 C319 C 0.83545 0.20079 0.46838
 C320 C 0.80094 0.16508 0.52247
 O321 O 0.48087 0.84874 0.81967
 O322 O 0.51957 0.82262 0.84693
 O323 O 0.51866 0.85041 0.81995
 O324 O 0.48170 0.82101 0.84638
 O325 O 0.48274 0.79879 0.82229
 O326 O 0.52018 0.82812 0.79595
 O327 O 0.52076 0.80025 0.82300
 O328 O 0.48216 0.82676 0.79536
 Cu329 Cu 0.50013 0.83790 0.83565
 Cu330 Cu 0.50160 0.81124 0.80672
 C331 C 0.47496 0.84235 0.80280
 C332 C 0.52667 0.80687 0.83980
 C333 C 0.52562 0.84445 0.80335
 C334 C 0.47588 0.80487 0.83891
 O335 O 0.48415 0.15461 0.18268
 O336 O 0.52323 0.18196 0.15710
 O337 O 0.52191 0.15355 0.18308
 O338 O 0.48538 0.18304 0.15636
 O339 O 0.48517 0.20462 0.18108
 O340 O 0.52256 0.17526 0.20768
 O341 O 0.52309 0.20403 0.18139
 O342 O 0.48456 0.17606 0.20752
 Cu343 Cu 0.50361 0.16614 0.16735
 Cu344 Cu 0.50387 0.19217 0.19691
 C345 C 0.47790 0.16042 0.19965
 C346 C 0.52965 0.19781 0.16470
 C347 C 0.52841 0.15920 0.20000
 C348 C 0.47916 0.19897 0.16394
 O349 O 0.47821 0.18080 0.84445
 O350 O 0.51369 0.15302 0.81441
 O351 O 0.51593 0.17975 0.84222
 O352 O 0.47580 0.15401 0.81681
 O353 O 0.47508 0.17686 0.79333
 O354 O 0.51522 0.20295 0.81911
 O355 O 0.51312 0.17602 0.79110
 O356 O 0.47737 0.20393 0.82126
 Cu357 Cu 0.49598 0.16456 0.83175
 Cu358 Cu 0.49511 0.19223 0.80381
 C359 C 0.47187 0.19721 0.83817
 C360 C 0.51948 0.15969 0.79761
 C361 C 0.52230 0.19587 0.83522
 C362 C 0.46859 0.16092 0.80071
 O363 O 0.47785 0.81397 0.15607
 O364 O 0.51383 0.84255 0.18492
 O365 O 0.51577 0.81556 0.15707
 O366 O 0.47613 0.84118 0.18326
 O367 O 0.47623 0.81855 0.20697
 O368 O 0.51598 0.79259 0.18043
 O369 O 0.51417 0.81970 0.20840
 O370 O 0.47802 0.79102 0.17947
 Cu371 Cu 0.49595 0.83056 0.16796
 Cu372 Cu 0.49614 0.80316 0.19617
 C373 C 0.47180 0.79760 0.16278
 C374 C 0.51992 0.83621 0.20175
 C375 C 0.52253 0.79960 0.16405
 C376 C 0.46951 0.83443 0.19968
 O377 O 0.81775 0.48113 0.84817
 O378 O 0.84828 0.51993 0.82604
 O379 O 0.81960 0.51886 0.85181
 O380 O 0.84677 0.48214 0.82297
 O381 O 0.82575 0.48475 0.79797
 O382 O 0.79889 0.52270 0.82668
 O383 O 0.82754 0.52274 0.80082
 O384 O 0.79647 0.48447 0.82351
 Cu385 Cu 0.83517 0.50021 0.83975
 Cu386 Cu 0.81000 0.50393 0.80975
 C387 C 0.80178 0.47631 0.83979
 C388 C 0.84332 0.52777 0.80948
 C389 C 0.80466 0.52707 0.84429
 C390 C 0.84112 0.47725 0.80549
 O391 O 0.15528 0.52146 0.18371
 O392 O 0.18179 0.48353 0.15545
 O393 O 0.15560 0.48337 0.18393
 O394 O 0.18102 0.52142 0.15497
 O395 O 0.20479 0.52198 0.17737
 O396 O 0.17893 0.48392 0.20679
 O397 O 0.20528 0.48385 0.17816
 O398 O 0.17882 0.52214 0.20635
 Cu399 Cu 0.16605 0.50237 0.16730
 Cu400 Cu 0.19431 0.50302 0.19447
 C401 C 0.16242 0.52823 0.19992
 C402 C 0.19821 0.47741 0.16176
 C403 C 0.16272 0.47725 0.20039
 C404 C 0.19738 0.52801 0.16096
 O405 O 0.85148 0.47832 0.17054
 O406 O 0.82384 0.51661 0.14425
 O407 O 0.85151 0.51627 0.17123
 O408 O 0.82374 0.47865 0.14386
 O409 O 0.80139 0.47854 0.16773
 O410 O 0.82962 0.51591 0.19554
 O411 O 0.80193 0.51686 0.16857
 O412 O 0.82940 0.47778 0.19468
 Cu413 Cu 0.83983 0.49751 0.15506
 Cu414 Cu 0.81332 0.49721 0.18404
 C415 C 0.84534 0.47161 0.18719
 C416 C 0.80814 0.52325 0.15180
 C417 C 0.84552 0.52234 0.18820
 C418 C 0.80771 0.47229 0.15095
 O419 O 0.19006 0.51204 0.83817
 O420 O 0.16254 0.47370 0.81159
 O421 O 0.19043 0.47399 0.83816
 O422 O 0.16227 0.51177 0.81135
 O423 O 0.18421 0.51204 0.78708
 O424 O 0.21249 0.47416 0.81400
 O425 O 0.18431 0.47388 0.78714
 O426 O 0.21216 0.51227 0.81405
 Cu427 Cu 0.17413 0.49287 0.82722
 Cu428 Cu 0.20049 0.49308 0.79812
 C429 C 0.20593 0.51857 0.83086
 C430 C 0.16854 0.46736 0.79473
 C431 C 0.20640 0.46778 0.83082
 C432 C 0.16828 0.51825 0.79455
 C433 C 0.28401 0.40040 0.06773
 C434 C 0.28324 0.37993 0.06514
 C435 C 0.29396 0.37091 0.04979
 C436 C 0.30583 0.38220 0.03703
 C437 C 0.30715 0.40253 0.04010
 C438 C 0.29637 0.41155 0.05531
 C439 C 0.27104 0.41035 0.08237
 C440 C 0.26062 0.42717 0.07654
 C441 C 0.24817 0.43660 0.09002
 C442 C 0.24591 0.42950 0.10970
 C443 C 0.25638 0.41272 0.11563
 C444 C 0.26873 0.40313 0.10201
 C445 C 0.23288 0.43995 0.12392
 C446 C 0.23915 0.44438 0.14351
 C447 C 0.22761 0.45603 0.15613
 C448 C 0.20952 0.46333 0.14943
 C449 C 0.20290 0.45811 0.13015
 C450 C 0.21448 0.44661 0.11752
 H451 H 0.27368 0.37104 0.07439
 H452 H 0.29249 0.35524 0.04741
 H453 H 0.31615 0.41148 0.03033
 H454 H 0.29740 0.42732 0.05713
 H455 H 0.26193 0.43292 0.06142
 H456 H 0.24046 0.44963 0.08512
 H457 H 0.25484 0.40693 0.13070
 H458 H 0.27665 0.39021 0.10689
 H459 H 0.25332 0.43951 0.14877
 H460 H 0.23310 0.45977 0.17091
 H461 H 0.18902 0.46341 0.12453
 H462 H 0.20918 0.44317 0.10259
 C463 C 0.73157 0.61926 0.06837
 C464 C 0.71283 0.61488 0.06100
 C465 C 0.70448 0.62637 0.04591
 C466 C 0.71478 0.64235 0.03786
 C467 C 0.73322 0.64718 0.04564
 C468 C 0.74149 0.63582 0.06095
 C469 C 0.74149 0.60552 0.08223
 C470 C 0.75129 0.61236 0.09943
 C471 C 0.76158 0.59927 0.11172
 C472 C 0.76257 0.57926 0.10670
 C473 C 0.75259 0.57244 0.08965
 C474 C 0.74203 0.58541 0.07762
 C475 C 0.77463 0.56555 0.11861
 C476 C 0.78852 0.55374 0.10891
 C477 C 0.79965 0.54033 0.11983
 C478 C 0.79688 0.53819 0.14064
 C479 C 0.78302 0.55007 0.15039
 C480 C 0.77212 0.56382 0.13947
 H481 H 0.70490 0.60221 0.06653
 H482 H 0.69033 0.62233 0.03987
 H483 H 0.74144 0.65932 0.03938
 H484 H 0.75605 0.63934 0.06625
 H485 H 0.75104 0.62782 0.10326
 H486 H 0.76926 0.60482 0.12478
 H487 H 0.75311 0.55704 0.08557
 H488 H 0.73478 0.57982 0.06432
 H489 H 0.79076 0.55495 0.09284
 H490 H 0.81017 0.53132 0.11190
 H491 H 0.78064 0.54875 0.16642
 H492 H 0.76143 0.57277 0.14721
 C493 C 0.71336 0.39110 0.92263
 C494 C 0.71513 0.37087 0.92653
 C495 C 0.70565 0.36241 0.94300
 C496 C 0.69404 0.37396 0.95573
 C497 C 0.69157 0.39396 0.95140
 C498 C 0.70110 0.40245 0.93500
 C499 C 0.72557 0.40074 0.90701
 C500 C 0.71825 0.41652 0.89565
 C501 C 0.73054 0.42715 0.88286
 C502 C 0.75041 0.42221 0.88113
 C503 C 0.75748 0.40583 0.89171
 C504 C 0.74522 0.39525 0.90453
 C505 C 0.76401 0.43495 0.86960
 C506 C 0.78254 0.43946 0.87748
 C507 C 0.79493 0.45251 0.86753
 C508 C 0.78910 0.46141 0.84945
 C509 C 0.77077 0.45657 0.84127
 C510 C 0.75834 0.44348 0.85126
 H511 H 0.72429 0.36169 0.91716
 H512 H 0.70796 0.34701 0.94627
 H513 H 0.68286 0.40315 0.96120
 H514 H 0.69965 0.41811 0.93265
 H515 H 0.70312 0.42095 0.89702
 H516 H 0.72466 0.43975 0.87501
 H517 H 0.77264 0.40148 0.89047
 H518 H 0.75141 0.38331 0.91317
 H519 H 0.78724 0.43340 0.89173
 H520 H 0.80893 0.45593 0.87427
 H521 H 0.76588 0.46314 0.82734
 H522 H 0.74424 0.44014 0.84471
 C523 C 0.28652 0.60251 0.92379
 C524 C 0.29873 0.59154 0.93656
 C525 C 0.30775 0.60038 0.95310
 C526 C 0.30484 0.62038 0.95715
 C527 C 0.29309 0.63151 0.94415
 C528 C 0.28409 0.62269 0.92758
 C529 C 0.27530 0.59261 0.90754
 C530 C 0.25560 0.59745 0.90417
 C531 C 0.24443 0.58694 0.89025
 C532 C 0.25268 0.57133 0.87936
 C533 C 0.27257 0.56695 0.88217
 C534 C 0.28375 0.57746 0.89612
 C535 C 0.24030 0.55890 0.86610
 C536 C 0.24740 0.55183 0.84764
 C537 C 0.23605 0.53914 0.83587
 C538 C 0.21742 0.53319 0.84238
 C539 C 0.21019 0.54061 0.86063
 C540 C 0.22149 0.55331 0.87233
 H541 H 0.30066 0.57592 0.93428
 H542 H 0.31655 0.59150 0.96312
 H543 H 0.29043 0.64690 0.94720
 H544 H 0.27493 0.63158 0.91793
 H545 H 0.24857 0.60889 0.91284
 H546 H 0.22922 0.59084 0.88823
 H547 H 0.27933 0.55491 0.87413
 H548 H 0.29894 0.57353 0.89820
 H549 H 0.26176 0.55604 0.84234
 H550 H 0.24204 0.53369 0.82188
 H551 H 0.19592 0.53631 0.86612
 H552 H 0.21570 0.55825 0.88660
 C553 C 0.06603 0.27147 0.38501
 C554 C 0.06340 0.27068 0.36405
 C555 C 0.04746 0.28006 0.35505
 C556 C 0.03397 0.29039 0.36687
 C557 C 0.03662 0.29132 0.38773
 C558 C 0.05253 0.28200 0.39672
 C559 C 0.08220 0.26062 0.39488
 C560 C 0.09225 0.26890 0.41125
 C561 C 0.10606 0.25793 0.42187
 C562 C 0.11011 0.23844 0.41637
 C563 C 0.10066 0.23043 0.39949
 C564 C 0.08686 0.24141 0.38884
 C565 C 0.12297 0.22609 0.42912
 C566 C 0.11750 0.20673 0.43378
 C567 C 0.12850 0.19559 0.44725
 C568 C 0.14527 0.20352 0.45637
 C569 C 0.15115 0.22265 0.45122
 C570 C 0.14008 0.23384 0.43776
 H571 H 0.07363 0.26277 0.35465
 H572 H 0.04551 0.27913 0.33892
 H573 H 0.02622 0.29911 0.39705
 H574 H 0.05395 0.28258 0.41292
 H575 H 0.08916 0.28376 0.41608
 H576 H 0.11297 0.26447 0.43490
 H577 H 0.10365 0.21552 0.39475
 H578 H 0.07928 0.23458 0.37638
 H579 H 0.10426 0.20043 0.42761
 H580 H 0.12358 0.18089 0.45087
 H581 H 0.16403 0.22915 0.45795
 H582 H 0.14477 0.24864 0.43428
 C583 C 0.06685 0.72376 0.60938
 C584 C 0.05264 0.71285 0.59898
 C585 C 0.03775 0.70330 0.60941
 C586 C 0.03680 0.70438 0.63042
 C587 C 0.05132 0.71468 0.64096
 C588 C 0.06634 0.72423 0.63051
 C589 C 0.08124 0.73568 0.59803
 C590 C 0.10106 0.73619 0.60357
 C591 C 0.11439 0.74762 0.59265
 C592 C 0.10802 0.75893 0.57624
 C593 C 0.08820 0.75840 0.57080
 C594 C 0.07498 0.74691 0.58154
 C595 C 0.12180 0.77126 0.56457
 C596 C 0.11635 0.79030 0.55878
 C597 C 0.12830 0.80137 0.54616
 C598 C 0.14601 0.79365 0.53896
 C599 C 0.15187 0.77488 0.54538
 C600 C 0.13989 0.76380 0.55813
 H601 H 0.05284 0.71204 0.58273
 H602 H 0.02662 0.69543 0.60106
 H603 H 0.05066 0.71583 0.65718
 H604 H 0.07702 0.73267 0.63886
 H605 H 0.10625 0.72762 0.61619
 H606 H 0.12959 0.74783 0.59718
 H607 H 0.08293 0.76678 0.55807
 H608 H 0.05976 0.74699 0.57709
 H609 H 0.10263 0.79653 0.56380
 H610 H 0.12340 0.81583 0.54165
 H611 H 0.16544 0.76854 0.54011
 H612 H 0.14439 0.74912 0.56232
 C613 C 0.92443 0.71315 0.39358
 C614 C 0.92882 0.71522 0.37303
 C615 C 0.94527 0.70605 0.36481
 C616 C 0.95749 0.69454 0.37695
 C617 C 0.95279 0.69191 0.39728
 C618 C 0.93639 0.70106 0.40551
 C619 C 0.90849 0.72476 0.40301
 C620 C 0.89703 0.71671 0.41850
 C621 C 0.88374 0.72841 0.42903
 C622 C 0.88162 0.74841 0.42431
 C623 C 0.89240 0.75621 0.40820
 C624 C 0.90569 0.74453 0.39769
 C625 C 0.86934 0.76139 0.43707
 C626 C 0.87615 0.78012 0.44252
 C627 C 0.86546 0.79189 0.45570
 C628 C 0.84769 0.78521 0.46379
 C629 C 0.84060 0.76668 0.45797
 C630 C 0.85134 0.75487 0.44477
 H631 H 0.91979 0.72428 0.36342
 H632 H 0.94883 0.70846 0.34914
 H633 H 0.96221 0.68327 0.40692
 H634 H 0.93364 0.69942 0.42144
 H635 H 0.89867 0.70146 0.42278
 H636 H 0.87575 0.72198 0.44144
 H637 H 0.89087 0.77149 0.40401
 H638 H 0.91440 0.75125 0.38597
 H639 H 0.89010 0.78546 0.43712
 H640 H 0.87136 0.80607 0.45988
 H641 H 0.82694 0.76113 0.46390
 H642 H 0.84562 0.74059 0.44069
 C643 C 0.92545 0.28660 0.60429
 C644 C 0.93864 0.29754 0.59257
 C645 C 0.95500 0.30632 0.60137
 C646 C 0.95842 0.30446 0.62206
 C647 C 0.94496 0.29412 0.63394
 C648 C 0.92858 0.28532 0.62515
 C649 C 0.90949 0.27529 0.59450
 C650 C 0.90555 0.25589 0.60050
 C651 C 0.89207 0.24443 0.58997
 C652 C 0.88219 0.25207 0.57319
 C653 C 0.88551 0.27172 0.56768
 C654 C 0.89904 0.28319 0.57820
 C655 C 0.86951 0.23923 0.56070
 C656 C 0.85185 0.24622 0.55262
 C657 C 0.84060 0.23434 0.53991
 C658 C 0.84685 0.21529 0.53493
 C659 C 0.86433 0.20822 0.54332
 C660 C 0.87550 0.22003 0.55606
 H661 H 0.93683 0.29855 0.57643
 H662 H 0.96536 0.31405 0.59193
 H663 H 0.94750 0.29231 0.64990
 H664 H 0.91859 0.27715 0.63460
 H665 H 0.91348 0.24929 0.61286
 H666 H 0.88963 0.22942 0.59473
 H667 H 0.87823 0.27799 0.55474
 H668 H 0.90161 0.29815 0.57336
 H669 H 0.84678 0.26089 0.55607
 H670 H 0.82719 0.24021 0.53369
 H671 H 0.86959 0.19362 0.53980
 H672 H 0.88917 0.21431 0.56180
 C673 C 0.39336 0.06648 0.27779
 C674 C 0.37327 0.06320 0.27480
 C675 C 0.36389 0.04740 0.28411
 C676 C 0.37436 0.03469 0.29674
 C677 C 0.39431 0.03811 0.30005
 C678 C 0.40372 0.05388 0.29073
 C679 C 0.40372 0.08229 0.26667
 C680 C 0.41859 0.09329 0.27597
 C681 C 0.42923 0.10719 0.26505
 C682 C 0.42527 0.11041 0.24458
 C683 C 0.41005 0.09980 0.23544
 C684 C 0.39941 0.08590 0.24635
 C685 C 0.43762 0.12401 0.23258
 C686 C 0.44357 0.11880 0.21309
 C687 C 0.45621 0.13089 0.20221
 C688 C 0.46322 0.14850 0.21056
 C689 C 0.45688 0.15399 0.22986
 C690 C 0.44422 0.14186 0.24075
 H691 H 0.36485 0.07274 0.26509
 H692 H 0.34854 0.04482 0.28113
 H693 H 0.40268 0.02829 0.30954
 H694 H 0.41926 0.05580 0.29309
 H695 H 0.42211 0.09101 0.29167
 H696 H 0.44098 0.11499 0.27250
 H697 H 0.40648 0.10210 0.21976
 H698 H 0.38819 0.07755 0.23867
 H699 H 0.43897 0.10503 0.20646
 H700 H 0.46085 0.12620 0.18741
 H701 H 0.46197 0.16748 0.23671
 H702 H 0.43969 0.14641 0.25563
 C703 C 0.60614 0.07078 0.71586
 C704 C 0.62634 0.06816 0.71870
 C705 C 0.63606 0.05239 0.70973
 C706 C 0.62579 0.03904 0.69761
 C707 C 0.60576 0.04193 0.69425
 C708 C 0.59603 0.05768 0.70322
 C709 C 0.59533 0.08616 0.72713
 C710 C 0.57990 0.09654 0.71809
 C711 C 0.56863 0.10969 0.72931
 C712 C 0.57251 0.11269 0.74983
 C713 C 0.58835 0.10281 0.75868
 C714 C 0.59962 0.08970 0.74747
 C715 C 0.55950 0.12525 0.76223
 C716 C 0.55389 0.11911 0.78155
 C717 C 0.54108 0.13041 0.79305
 C718 C 0.53356 0.14815 0.78554
 C719 C 0.53933 0.15444 0.76630
 C720 C 0.55214 0.14307 0.75475
 H721 H 0.63457 0.07811 0.72819
 H722 H 0.65147 0.05023 0.71271
 H723 H 0.59755 0.03164 0.68513
 H724 H 0.58043 0.05909 0.70097
 H725 H 0.57638 0.09428 0.70239
 H726 H 0.55645 0.11698 0.72210
 H727 H 0.59187 0.10502 0.77439
 H728 H 0.61126 0.08180 0.75495
 H729 H 0.55905 0.10531 0.78762
 H730 H 0.53691 0.12511 0.80779
 H731 H 0.53382 0.16805 0.76010
 H732 H 0.55634 0.14826 0.73999
 C733 C 0.38516 0.93258 0.72707
 C734 C 0.39526 0.94725 0.71642
 C735 C 0.38522 0.96315 0.70815
 C736 C 0.36490 0.96462 0.71024
 C737 C 0.35468 0.94987 0.72053
 C738 C 0.36472 0.93395 0.72885
 C739 C 0.39612 0.91662 0.73725
 C740 C 0.39123 0.91100 0.75694
 C741 C 0.40268 0.89738 0.76731
 C742 C 0.41926 0.88906 0.75821
 C743 C 0.42371 0.89410 0.73825
 C744 C 0.41227 0.90776 0.72789
 C745 C 0.43257 0.87622 0.76992
 C746 C 0.44115 0.85954 0.76116
 C747 C 0.45460 0.84822 0.77196
 C748 C 0.45983 0.85346 0.79169
 C749 C 0.45097 0.86994 0.80053
 C750 C 0.43749 0.88116 0.78979
 H751 H 0.41102 0.94679 0.71507
 H752 H 0.39334 0.97453 0.70040
 H753 H 0.33899 0.95090 0.72242
 H754 H 0.35653 0.92281 0.73685
 H755 H 0.37898 0.91768 0.76462
 H756 H 0.39876 0.89360 0.78259
 H757 H 0.43646 0.88805 0.73089
 H758 H 0.41626 0.91164 0.71265
 H759 H 0.43749 0.85529 0.74593
 H760 H 0.46116 0.83559 0.76474
 H761 H 0.45468 0.87438 0.81569
 H762 H 0.43137 0.89409 0.79686
 C763 C 0.59785 0.92825 0.28955
 C764 C 0.61815 0.93045 0.28712
 C765 C 0.62807 0.94581 0.29666
 C766 C 0.61793 0.95906 0.30900
 C767 C 0.59784 0.95634 0.31216
 C768 C 0.58790 0.94107 0.30255
 C769 C 0.58684 0.91374 0.27731
 C770 C 0.56940 0.91936 0.26777
 C771 C 0.55939 0.90623 0.25537
 C772 C 0.56651 0.88714 0.25228
 C773 C 0.58378 0.88135 0.26207
 C774 C 0.59393 0.89459 0.27436
 C775 C 0.55588 0.87349 0.23874
 C776 C 0.55226 0.85397 0.24447
 C777 C 0.54097 0.84164 0.23224
 C778 C 0.53326 0.84855 0.21397
 C779 C 0.53751 0.86787 0.20796
 C780 C 0.54863 0.88021 0.22023
 H781 H 0.62615 0.92093 0.27701
 H782 H 0.64350 0.94790 0.29373
 H783 H 0.58973 0.96649 0.32151
 H784 H 0.57230 0.93958 0.30488
 H785 H 0.56371 0.93409 0.26953
 H786 H 0.54600 0.91102 0.24821
 H787 H 0.58962 0.86673 0.25988
 H788 H 0.60731 0.88986 0.28159
 H789 H 0.55760 0.84845 0.25871
 H790 H 0.53797 0.82683 0.23729
 H791 H 0.53184 0.87367 0.19396
 H792 H 0.55144 0.89510 0.21530
 C793 C 0.40076 0.28249 0.93761
 C794 C 0.38060 0.28629 0.93807
 C795 C 0.37244 0.29737 0.95369
 C796 C 0.38432 0.30510 0.96912
 C797 C 0.40460 0.30159 0.96822
 C798 C 0.41269 0.29057 0.95266
 C799 C 0.40938 0.26939 0.92215
 C800 C 0.42350 0.25545 0.92773
 C801 C 0.43204 0.24327 0.91338
 C802 C 0.42666 0.24466 0.89305
 C803 C 0.41242 0.25848 0.88742
 C804 C 0.40378 0.27068 0.90186
 C805 C 0.43639 0.23198 0.87790
 C806 C 0.44262 0.23972 0.85939
 C807 C 0.45359 0.22823 0.84609
 C808 C 0.45852 0.20879 0.85105
 C809 C 0.45155 0.20083 0.86917
 C810 C 0.44059 0.21228 0.88241
 H811 H 0.37101 0.27999 0.92683
 H812 H 0.35671 0.29898 0.95423
 H813 H 0.41434 0.30752 0.97954
 H814 H 0.42834 0.28824 0.95248
 H815 H 0.42792 0.25390 0.94328
 H816 H 0.44315 0.23297 0.91817
 H817 H 0.40790 0.25980 0.87188
 H818 H 0.39299 0.28134 0.89713
 H819 H 0.43972 0.25489 0.85556
 H820 H 0.45875 0.23479 0.83225
 H821 H 0.45492 0.18585 0.87337
 H822 H 0.43566 0.20578 0.89637
 C823 C 0.61353 0.72872 0.93181
 C824 C 0.60338 0.71444 0.94297
 C825 C 0.61237 0.70497 0.95912
 C826 C 0.63170 0.70950 0.96438
 C827 C 0.64202 0.72347 0.95310
 C828 C 0.63306 0.73292 0.93688
 C829 C 0.60333 0.74001 0.91584
 C830 C 0.60627 0.76036 0.91401
 C831 C 0.59537 0.77134 0.90028
 C832 C 0.58121 0.76226 0.88811
 C833 C 0.57876 0.74181 0.88941
 C834 C 0.58970 0.73080 0.90312
 C835 C 0.56825 0.77421 0.87502
 C836 C 0.56255 0.76745 0.85593
 C837 C 0.54936 0.77823 0.84426
 C838 C 0.54158 0.79599 0.85145
 C839 C 0.54762 0.80293 0.87035
 C840 C 0.56076 0.79217 0.88200
 H841 H 0.58823 0.71111 0.93972
 H842 H 0.60411 0.69441 0.96785
 H843 H 0.65686 0.72735 0.95714
 H844 H 0.64133 0.74371 0.92848
 H845 H 0.61651 0.76795 0.92370
 H846 H 0.59780 0.78703 0.89943
 H847 H 0.56787 0.73438 0.88036
 H848 H 0.58728 0.71511 0.90397
 H849 H 0.56824 0.75377 0.85004
 H850 H 0.54505 0.77251 0.82973
 H851 H 0.54187 0.81653 0.87638
 H852 H 0.56459 0.79764 0.89676
 C853 C 0.38677 0.72172 0.06701
 C854 C 0.38572 0.70116 0.06541
 C855 C 0.37689 0.69232 0.04870
 C856 C 0.36865 0.70383 0.03326
 C857 C 0.36972 0.72442 0.03504
 C858 C 0.37854 0.73321 0.05166
 C859 C 0.39730 0.73133 0.08393
 C860 C 0.39048 0.74914 0.09201
 C861 C 0.40147 0.75934 0.10630
 C862 C 0.41946 0.75189 0.11300
 C863 C 0.42588 0.73365 0.10568
 C864 C 0.41495 0.72351 0.09124
 C865 C 0.43205 0.76369 0.12655
 C866 C 0.44174 0.75497 0.14288
 C867 C 0.45432 0.76607 0.15500
 C868 C 0.45764 0.78603 0.15081
 C869 C 0.44777 0.79476 0.13459
 C870 C 0.43504 0.78374 0.12267
 H871 H 0.39195 0.69187 0.07695
 H872 H 0.37732 0.67647 0.04747
 H873 H 0.36361 0.73384 0.02352
 H874 H 0.37943 0.74907 0.05216
 H875 H 0.37674 0.75536 0.08705
 H876 H 0.39604 0.77322 0.11194
 H877 H 0.43978 0.72766 0.11045
 H878 H 0.42077 0.70997 0.08518
 H879 H 0.43960 0.73956 0.14625
 H880 H 0.46175 0.75893 0.16737
 H881 H 0.44999 0.81011 0.13100
 H882 H 0.42794 0.79079 0.11004
 C883 C 0.61312 0.27514 0.06944
 C884 C 0.61094 0.29542 0.06602
 C885 C 0.61910 0.30423 0.04898
 C886 C 0.62999 0.29304 0.03529
 C887 C 0.63260 0.27292 0.03889
 C888 C 0.62424 0.26405 0.05574
 C889 C 0.60289 0.26528 0.08644
 C890 C 0.61126 0.24892 0.09610
 C891 C 0.60077 0.23844 0.11059
 C892 C 0.58183 0.24428 0.11600
 C893 C 0.57376 0.26109 0.10706
 C894 C 0.58411 0.27140 0.09235
 C895 C 0.56992 0.23216 0.12983
 C896 C 0.55918 0.24090 0.14543
 C897 C 0.54667 0.22957 0.15735
 C898 C 0.54441 0.20938 0.15361
 C899 C 0.55551 0.20060 0.13830
 C900 C 0.56825 0.21185 0.12663
 H901 H 0.60269 0.30448 0.07634
 H902 H 0.61661 0.31971 0.04627
 H903 H 0.64072 0.26398 0.02833
 H904 H 0.62590 0.24835 0.05757
 H905 H 0.62584 0.24403 0.09228
 H906 H 0.60737 0.22564 0.11745
 H907 H 0.55907 0.26574 0.11081
 H908 H 0.57702 0.28367 0.08505
 H909 H 0.56030 0.25653 0.14821
 H910 H 0.53824 0.23674 0.16900
 H911 H 0.55409 0.18506 0.13512
 H912 H 0.57625 0.20481 0.11458
 C913 C 0.26078 0.06323 0.61868
 C914 C 0.25081 0.04805 0.62866
 C915 C 0.26114 0.03297 0.63807
 C916 C 0.28164 0.03280 0.63772
 C917 C 0.29167 0.04830 0.62839
 C918 C 0.28132 0.06348 0.61905
 C919 C 0.24976 0.07782 0.60666
 C920 C 0.25461 0.09786 0.60718
 C921 C 0.24437 0.11135 0.59530
 C922 C 0.22921 0.10502 0.58253
 C923 C 0.22449 0.08493 0.58204
 C924 C 0.23457 0.07153 0.59401
 C925 C 0.21860 0.11905 0.56932
 C926 C 0.19857 0.11644 0.56540
 C927 C 0.18891 0.12843 0.55160
 C928 C 0.19896 0.14351 0.54159
 C929 C 0.21876 0.14673 0.54610
 C930 C 0.22852 0.13455 0.55976
 H931 H 0.23499 0.04762 0.62880
 H932 H 0.25315 0.02110 0.64513
 H933 H 0.30749 0.04824 0.62769
 H934 H 0.28936 0.07489 0.61129
 H935 H 0.26620 0.10309 0.61689
 H936 H 0.24824 0.12674 0.59621
 H937 H 0.21328 0.07943 0.57203
 H938 H 0.23081 0.05611 0.59298
 H939 H 0.19035 0.10498 0.57286
 H940 H 0.17357 0.12575 0.54863
 H941 H 0.22689 0.15821 0.53856
 H942 H 0.24398 0.13686 0.56225
 C943 C 0.72605 0.06214 0.38949
 C944 C 0.70554 0.06175 0.38880
 C945 C 0.69571 0.04593 0.37988
 C946 C 0.70619 0.03030 0.37111
 C947 C 0.72677 0.03107 0.37154
 C948 C 0.73653 0.04679 0.38048
 C949 C 0.73662 0.07786 0.40049
 C950 C 0.75227 0.07296 0.41319
 C951 C 0.76249 0.08752 0.42354
 C952 C 0.75743 0.10741 0.42138
 C953 C 0.74161 0.11234 0.40883
 C954 C 0.73126 0.09768 0.39854
 C955 C 0.76861 0.12275 0.43243
 C956 C 0.75910 0.13892 0.44121
 C957 C 0.76955 0.15239 0.45297
 C958 C 0.78967 0.14986 0.45630
 C959 C 0.79928 0.13411 0.44693
 C960 C 0.78891 0.12080 0.43506
 H961 H 0.69709 0.07322 0.39596
 H962 H 0.67992 0.04546 0.38084
 H963 H 0.73541 0.01945 0.36486
 H964 H 0.75236 0.04684 0.38053
 H965 H 0.75645 0.05777 0.41536
 H966 H 0.77422 0.08313 0.43348
 H967 H 0.73742 0.12752 0.40672
 H968 H 0.71930 0.10187 0.38877
 H969 H 0.74346 0.14078 0.43962
 H970 H 0.76173 0.16435 0.46006
 H971 H 0.81482 0.13189 0.44900
 H972 H 0.79679 0.10882 0.42810
 C973 C 0.73265 0.93633 0.61554
 C974 C 0.74337 0.95179 0.62410
 C975 C 0.73386 0.96752 0.63325
 C976 C 0.71329 0.96820 0.63434
 C977 C 0.70259 0.95242 0.62610
 C978 C 0.71217 0.93661 0.61695
 C979 C 0.74289 0.92067 0.60418
 C980 C 0.73764 0.90082 0.60628
 C981 C 0.74762 0.88624 0.59555
 C982 C 0.76296 0.89126 0.58244
 C983 C 0.76793 0.91117 0.58017
 C984 C 0.75807 0.92566 0.59093
 C985 C 0.77370 0.87601 0.57085
 C986 C 0.79389 0.87800 0.56748
 C987 C 0.80378 0.86485 0.55504
 C988 C 0.79379 0.84924 0.54582
 C989 C 0.77380 0.84664 0.54991
 C990 C 0.76383 0.85994 0.56225
 H991 H 0.75919 0.95182 0.62353
 H992 H 0.74267 0.97921 0.63958
 H993 H 0.68677 0.95278 0.62569
 H994 H 0.70354 0.92504 0.61015
 H995 H 0.72605 0.89657 0.61647
 H996 H 0.74353 0.87103 0.59775
 H997 H 0.77928 0.91563 0.56979
 H998 H 0.76215 0.94086 0.58865
 H999 H 0.80204 0.88991 0.57428
 H1000 H 0.81923 0.86712 0.55238
 H1001 H 0.76570 0.83478 0.54296
 H1002 H 0.74827 0.85806 0.56443
 C1003 C 0.26706 0.93583 0.38318
 C1004 C 0.28756 0.93611 0.38225
 C1005 C 0.29731 0.95144 0.37243
 C1006 C 0.28675 0.96666 0.36301
 C1007 C 0.26617 0.96596 0.36367
 C1008 C 0.25650 0.95072 0.37350
 C1009 C 0.25661 0.92083 0.39523
 C1010 C 0.24133 0.92659 0.40800
 C1011 C 0.23119 0.91272 0.41932
 C1012 C 0.23594 0.89268 0.41808
 C1013 C 0.25142 0.88690 0.40549
 C1014 C 0.26171 0.90087 0.39421
 C1015 C 0.22475 0.87811 0.43011
 C1016 C 0.23419 0.86230 0.43965
 C1017 C 0.22376 0.84974 0.45241
 C1018 C 0.20376 0.85287 0.45597
 C1019 C 0.19421 0.86816 0.44580
 C1020 C 0.20454 0.88053 0.43293
 H1021 H 0.29605 0.92499 0.38991
 H1022 H 0.31311 0.95193 0.37320
 H1023 H 0.25749 0.97727 0.35651
 H1024 H 0.24067 0.95072 0.37375
 H1025 H 0.23738 0.94192 0.40944
 H1026 H 0.21974 0.91777 0.42929
 H1027 H 0.25537 0.87157 0.40411
 H1028 H 0.27340 0.89606 0.38442
 H1029 H 0.24976 0.86010 0.43789
 H1030 H 0.23150 0.83809 0.46010
 H1031 H 0.17875 0.87077 0.44802
 H1032 H 0.19672 0.89222 0.42540
 C1033 C 0.06985 0.38489 0.72171
 C1034 C 0.05426 0.37875 0.73391
 C1035 C 0.03736 0.37082 0.72542
 C1036 C 0.03558 0.36853 0.70444
 C1037 C 0.05126 0.37473 0.69223
 C1038 C 0.06820 0.38271 0.70077
 C1039 C 0.08724 0.39443 0.73091
 C1040 C 0.09565 0.41118 0.72207
 C1041 C 0.11066 0.42136 0.73184
 C1042 C 0.11753 0.41505 0.75067
 C1043 C 0.10970 0.39784 0.75909
 C1044 C 0.09476 0.38763 0.74930
 C1045 C 0.13169 0.42717 0.76217
 C1046 C 0.12857 0.43077 0.78271
 C1047 C 0.14085 0.44342 0.79335
 C1048 C 0.15664 0.45269 0.78375
 C1049 C 0.16017 0.44863 0.76335
 C1050 C 0.14775 0.43607 0.75264
 H1051 H 0.05488 0.38056 0.75006
 H1052 H 0.02568 0.36627 0.73537
 H1053 H 0.05014 0.37417 0.67601
 H1054 H 0.07993 0.38737 0.69096
 H1055 H 0.09005 0.41693 0.70805
 H1056 H 0.11627 0.43469 0.72510
 H1057 H 0.11493 0.39246 0.77343
 H1058 H 0.08887 0.37454 0.75629
 H1059 H 0.11618 0.42434 0.79042
 H1060 H 0.13773 0.44622 0.80905
 H1061 H 0.17221 0.45557 0.75553
 H1062 H 0.15058 0.43343 0.73685
 C1063 C 0.07067 0.60934 0.28291
 C1064 C 0.05835 0.59725 0.29445
 C1065 C 0.04169 0.60496 0.30361
 C1066 C 0.03712 0.62492 0.30156
 C1067 C 0.04964 0.63719 0.29057
 C1068 C 0.06631 0.62947 0.28132
 C1069 C 0.08711 0.60058 0.27145
 C1070 C 0.09043 0.60604 0.25137
 C1071 C 0.10431 0.59615 0.23978
 C1072 C 0.11520 0.58062 0.24801
 C1073 C 0.11252 0.57577 0.26836
 C1074 C 0.09860 0.58563 0.27994
 C1075 C 0.12822 0.56858 0.23511
 C1076 C 0.14627 0.56171 0.24233
 C1077 C 0.15769 0.54903 0.23068
 C1078 C 0.15123 0.54290 0.21162
 C1079 C 0.13344 0.55021 0.20421
 C1080 C 0.12208 0.56291 0.21581
 H1081 H 0.06111 0.58165 0.29568
 H1082 H 0.03206 0.59526 0.31187
 H1083 H 0.04619 0.65260 0.28868
 H1084 H 0.07560 0.63915 0.27265
 H1085 H 0.08171 0.61738 0.24435
 H1086 H 0.10624 0.60038 0.22421
 H1087 H 0.12058 0.56379 0.27510
 H1088 H 0.09653 0.58126 0.29544
 H1089 H 0.15147 0.56599 0.25707
 H1090 H 0.17135 0.54370 0.23680
 H1091 H 0.12804 0.54579 0.18959
 H1092 H 0.10812 0.56772 0.20993
 C1093 C 0.93924 0.39327 0.27101
 C1094 C 0.94078 0.37272 0.27172
 C1095 C 0.95563 0.36379 0.28294
 C1096 C 0.96904 0.37522 0.29403
 C1097 C 0.96716 0.39581 0.29341
 C1098 C 0.95242 0.40468 0.28216
 C1099 C 0.92462 0.40294 0.25791
 C1100 C 0.93024 0.41888 0.24584
 C1101 C 0.91662 0.42837 0.23367
 C1102 C 0.89704 0.42220 0.23331
 C1103 C 0.89137 0.40620 0.24532
 C1104 C 0.90509 0.39655 0.25742
 C1105 C 0.88268 0.43289 0.22073
 C1106 C 0.86442 0.43842 0.22854
 C1107 C 0.85189 0.45045 0.21738
 C1108 C 0.85737 0.45709 0.19818
 C1109 C 0.87524 0.45075 0.19005
 C1110 C 0.88775 0.43881 0.20120
 H1111 H 0.93101 0.36361 0.26294
 H1112 H 0.95718 0.34799 0.28210
 H1113 H 0.97708 0.40514 0.30179
 H1114 H 0.95141 0.42055 0.28207
 H1115 H 0.94524 0.42397 0.24575
 H1116 H 0.92137 0.44081 0.22477
 H1117 H 0.87637 0.40111 0.24525
 H1118 H 0.90039 0.38434 0.26665
 H1119 H 0.86021 0.43414 0.24360
 H1120 H 0.83821 0.45507 0.22405
 H1121 H 0.87985 0.45546 0.17524
 H1122 H 0.90160 0.43450 0.19469
 C1123 C 0.94149 0.60604 0.73098
 C1124 C 0.94351 0.62653 0.72993
 C1125 C 0.95836 0.63499 0.71832
 C1126 C 0.97131 0.62312 0.70718
 C1127 C 0.96897 0.60258 0.70817
 C1128 C 0.95423 0.59419 0.71979
 C1129 C 0.92663 0.59683 0.74418
 C1130 C 0.93167 0.58054 0.75604
 C1131 C 0.91766 0.57117 0.76785
 C1132 C 0.89824 0.57783 0.76806
 C1133 C 0.89323 0.59435 0.75648
 C1134 C 0.90733 0.60383 0.74472
 C1135 C 0.88324 0.56689 0.77964
 C1136 C 0.86494 0.56267 0.77108
 C1137 C 0.85166 0.55049 0.78107
 C1138 C 0.85640 0.54233 0.79986
 C1139 C 0.87435 0.54726 0.80880
 C1140 C 0.88763 0.55940 0.79880
 H1141 H 0.93408 0.63599 0.73871
 H1142 H 0.96027 0.65077 0.71886
 H1143 H 0.97852 0.59292 0.69975
 H1144 H 0.95283 0.57835 0.72007
 H1145 H 0.94650 0.57499 0.75612
 H1146 H 0.92193 0.55835 0.77640
 H1147 H 0.87839 0.59987 0.75647
 H1148 H 0.90305 0.61633 0.73567
 H1149 H 0.86122 0.56810 0.75627
 H1150 H 0.83794 0.54700 0.77379
 H1151 H 0.87841 0.54133 0.82331
 H1152 H 0.90150 0.56265 0.80590
 C1153 C 0.73671 0.62542 0.93410
 C1154 C 0.74745 0.63723 0.94751
 C1155 C 0.73815 0.64711 0.96318
 C1156 C 0.71774 0.64621 0.96544
 C1157 C 0.70684 0.63536 0.95132
 C1158 C 0.71622 0.62498 0.93595
 C1159 C 0.74698 0.61242 0.91945
 C1160 C 0.73839 0.60728 0.90094
 C1161 C 0.74750 0.59379 0.88809
 C1162 C 0.76554 0.58531 0.89333
 C1163 C 0.77443 0.59106 0.91145
 C1164 C 0.76520 0.60418 0.92441
 C1165 C 0.77491 0.57009 0.88043
 C1166 C 0.78553 0.55468 0.88931
 C1167 C 0.79509 0.54081 0.87749
 C1168 C 0.79395 0.54165 0.85646
 C1169 C 0.78284 0.55658 0.84744
 C1170 C 0.77354 0.57078 0.85931
 H1171 H 0.76316 0.63852 0.94624
 H1172 H 0.74698 0.65546 0.97368
 H1173 H 0.69118 0.63372 0.95300
 H1174 H 0.70743 0.61580 0.92623
 H1175 H 0.72454 0.61352 0.89640
 H1176 H 0.74014 0.58967 0.87432
 H1177 H 0.78854 0.58528 0.91581
 H1178 H 0.77221 0.60737 0.93862
 H1179 H 0.78642 0.55322 0.90548
 H1180 H 0.80328 0.52926 0.88485
 H1181 H 0.78179 0.55756 0.83123
 H1182 H 0.76565 0.58250 0.85192
 C1183 C 0.28885 0.39400 0.92928
 C1184 C 0.29195 0.37377 0.93175
 C1185 C 0.30144 0.36662 0.94890
 C1186 C 0.30793 0.37957 0.96405
 C1187 C 0.30462 0.39984 0.96146
 C1188 C 0.29541 0.40695 0.94423
 C1189 C 0.27797 0.40174 0.91171
 C1190 C 0.28457 0.41864 0.90169
 C1191 C 0.27330 0.42723 0.88656
 C1192 C 0.25509 0.41920 0.88126
 C1193 C 0.24880 0.40188 0.89078
 C1194 C 0.26019 0.39317 0.90579
 C1195 C 0.24214 0.42976 0.86702
 C1196 C 0.22235 0.43265 0.87175
 C1197 C 0.21058 0.44450 0.85962
 C1198 C 0.21830 0.45358 0.84240
 C1199 C 0.23788 0.44999 0.83718
 C1200 C 0.24971 0.43828 0.84943
 H1201 H 0.28690 0.36347 0.92048
 H1202 H 0.30296 0.35089 0.95070
 H1203 H 0.30941 0.41031 0.97270
 H1204 H 0.29295 0.42260 0.94285
 H1205 H 0.29830 0.42544 0.90587
 H1206 H 0.27844 0.44065 0.87962
 H1207 H 0.23489 0.39531 0.88687
 H1208 H 0.25471 0.38022 0.91336
 H1209 H 0.21617 0.42645 0.88532
 H1210 H 0.19554 0.44693 0.86402
 H1211 H 0.24426 0.45678 0.82400
 H1212 H 0.26488 0.43616 0.84536
 C1213 C 0.27816 0.60382 0.06142
 C1214 C 0.28839 0.59210 0.04764
 C1215 C 0.29908 0.60064 0.03210
 C1216 C 0.30005 0.62121 0.02995
 C1217 C 0.28988 0.63294 0.04395
 C1218 C 0.27924 0.62433 0.05962
 C1219 C 0.26566 0.59449 0.07691
 C1220 C 0.26580 0.60108 0.09694
 C1221 C 0.25422 0.59177 0.11146
 C1222 C 0.24211 0.57592 0.10613
 C1223 C 0.24185 0.56954 0.08605
 C1224 C 0.25350 0.57869 0.07164
 C1225 C 0.22998 0.56563 0.12132
 C1226 C 0.21077 0.56001 0.11661
 C1227 C 0.19996 0.54845 0.12988
 C1228 C 0.20811 0.54219 0.14818
 C1229 C 0.22703 0.54854 0.15333
 C1230 C 0.23785 0.56020 0.14002
 H1231 H 0.28802 0.57624 0.04883
 H1232 H 0.30675 0.59108 0.02176
 H1233 H 0.28934 0.64875 0.04223
 H1234 H 0.27117 0.63369 0.06982
 H1235 H 0.27511 0.61318 0.10140
 H1236 H 0.25463 0.59702 0.12682
 H1237 H 0.23285 0.55722 0.08154
 H1238 H 0.25291 0.57345 0.05628
 H1239 H 0.20422 0.56426 0.10244
 H1240 H 0.18538 0.54396 0.12549
 H1241 H 0.23371 0.54398 0.16732
 H1242 H 0.25266 0.56425 0.14399
 C1243 C 0.72132 0.39378 0.05873
 C1244 C 0.71082 0.40504 0.04478
 C1245 C 0.69975 0.39600 0.02982
 C1246 C 0.69865 0.37538 0.02848
 C1247 C 0.70881 0.36410 0.04286
 C1248 C 0.71990 0.37322 0.05791
 C1249 C 0.73461 0.40359 0.07319
 C1250 C 0.73538 0.39785 0.09346
 C1251 C 0.74777 0.40759 0.10695
 C1252 C 0.75979 0.42304 0.10030
 C1253 C 0.75912 0.42857 0.07998
 C1254 C 0.74669 0.41897 0.06660
 C1255 C 0.77274 0.43382 0.11438
 C1256 C 0.79168 0.43919 0.10839
 C1257 C 0.80324 0.45113 0.12060
 C1258 C 0.79614 0.45800 0.13912
 C1259 C 0.77750 0.45195 0.14554
 C1260 C 0.76592 0.43994 0.13328
 H1261 H 0.71138 0.42093 0.04526
 H1262 H 0.69201 0.40522 0.01920
 H1263 H 0.70914 0.34823 0.04181
 H1264 H 0.72812 0.36419 0.06830
 H1265 H 0.72617 0.38607 0.09892
 H1266 H 0.74808 0.40298 0.12252
 H1267 H 0.76801 0.44058 0.07447
 H1268 H 0.74661 0.42354 0.05101
 H1269 H 0.79745 0.43440 0.09404
 H1270 H 0.81759 0.45536 0.11527
 H1271 H 0.77162 0.45698 0.15974
 H1272 H 0.75133 0.43612 0.13823
 C1273 C 0.93454 0.72524 0.61835
 C1274 C 0.93522 0.70466 0.61964
 C1275 C 0.95103 0.69531 0.62903
 C1276 C 0.96637 0.70639 0.63757
 C1277 C 0.96509 0.72703 0.63687
 C1278 C 0.94938 0.73628 0.62753
 C1279 C 0.91934 0.73532 0.60624
 C1280 C 0.92481 0.75050 0.59312
 C1281 C 0.91081 0.76046 0.58185
 C1282 C 0.89090 0.75563 0.58347
 C1283 C 0.88540 0.74015 0.59629
 C1284 C 0.89952 0.73003 0.60754
 C1285 C 0.87620 0.76686 0.57165
 C1286 C 0.86029 0.75741 0.56234
 C1287 C 0.84764 0.76793 0.54972
 C1288 C 0.85078 0.78802 0.54610
 C1289 C 0.86617 0.79757 0.55608
 C1290 C 0.87862 0.78717 0.56879
 H1291 H 0.92410 0.69579 0.61244
 H1292 H 0.95185 0.67944 0.62841
 H1293 H 0.97644 0.73609 0.64344
 H1294 H 0.94905 0.75218 0.62708
 H1295 H 0.94003 0.75456 0.59141
 H1296 H 0.91566 0.77188 0.57168
 H1297 H 0.87018 0.73611 0.59792
 H1298 H 0.89492 0.71838 0.61756
 H1299 H 0.85807 0.74177 0.56416
 H1300 H 0.83591 0.76018 0.54219
 H1301 H 0.86879 0.81310 0.55383
 H1302 H 0.89037 0.79502 0.57616
 C1303 C 0.92944 0.27433 0.38064
 C1304 C 0.93154 0.29485 0.37980
 C1305 C 0.94818 0.30335 0.37118
 C1306 C 0.96306 0.29155 0.36289
 C1307 C 0.96079 0.27100 0.36375
 C1308 C 0.94424 0.26254 0.37240
 C1309 C 0.91254 0.26507 0.39106
 C1310 C 0.90442 0.24744 0.38382
 C1311 C 0.89009 0.23753 0.39482
 C1312 C 0.88339 0.24512 0.41318
 C1313 C 0.89076 0.26320 0.41996
 C1314 C 0.90523 0.27304 0.40905
 C1315 C 0.86992 0.23351 0.42597
 C1316 C 0.85412 0.24247 0.43585
 C1317 C 0.84240 0.23167 0.44908
 C1318 C 0.84647 0.21179 0.45291
 C1319 C 0.86201 0.20276 0.44268
 C1320 C 0.87353 0.21347 0.42928
 H1321 H 0.92043 0.30437 0.38604
 H1322 H 0.94976 0.31916 0.37183
 H1323 H 0.97186 0.26135 0.35759
 H1324 H 0.94334 0.24669 0.37315
 H1325 H 0.90939 0.24112 0.36980
 H1326 H 0.88445 0.22375 0.38912
 H1327 H 0.88599 0.26927 0.43418
 H1328 H 0.91130 0.28643 0.41522
 H1329 H 0.85097 0.25788 0.43346
 H1330 H 0.83055 0.23903 0.45679
 H1331 H 0.86548 0.18745 0.44529
 H1332 H 0.88573 0.20624 0.42204
 C1333 C 0.05939 0.27530 0.60354
 C1334 C 0.05531 0.27241 0.62404
 C1335 C 0.04047 0.28314 0.63345
 C1336 C 0.02975 0.29715 0.62260
 C1337 C 0.03419 0.30041 0.60230
 C1338 C 0.04887 0.28960 0.59286
 C1339 C 0.07371 0.26270 0.59296
 C1340 C 0.06886 0.25442 0.57428
 C1341 C 0.08208 0.24233 0.56422
 C1342 C 0.10051 0.23835 0.57254
 C1343 C 0.10548 0.24671 0.59117
 C1344 C 0.09212 0.25866 0.60138
 C1345 C 0.11442 0.22559 0.56156
 C1346 C 0.13402 0.23122 0.55904
 C1347 C 0.14662 0.21993 0.54716
 C1348 C 0.13987 0.20272 0.53775
 C1349 C 0.12045 0.19674 0.54096
 C1350 C 0.10786 0.20809 0.55266
 H1351 H 0.06306 0.26132 0.63254
 H1352 H 0.03698 0.28018 0.64904
 H1353 H 0.02596 0.31105 0.59365
 H1354 H 0.05184 0.29224 0.57710
 H1355 H 0.05470 0.25710 0.56755
 H1356 H 0.07795 0.23625 0.54978
 H1357 H 0.11958 0.24379 0.59793
 H1358 H 0.09622 0.26493 0.61574
 H1359 H 0.13941 0.24470 0.56567
 H1360 H 0.16150 0.22490 0.54500
 H1361 H 0.11479 0.18354 0.53399
 H1362 H 0.09289 0.20329 0.55459
 C1363 C 0.05853 0.72296 0.39650
 C1364 C 0.05806 0.71946 0.37571
 C1365 C 0.04305 0.70821 0.36721
 C1366 C 0.02829 0.69995 0.37936
 C1367 C 0.02903 0.70341 0.40023
 C1368 C 0.04398 0.71463 0.40867
 C1369 C 0.07365 0.73586 0.40554
 C1370 C 0.06838 0.74961 0.42030
 C1371 C 0.08248 0.76150 0.42929
 C1372 C 0.10223 0.75998 0.42374
 C1373 C 0.10753 0.74636 0.40882
 C1374 C 0.09335 0.73447 0.39973
 C1375 C 0.11713 0.77221 0.43407
 C1376 C 0.13494 0.76402 0.44042
 C1377 C 0.14797 0.77501 0.45211
 C1378 C 0.14342 0.79440 0.45767
 C1379 C 0.12603 0.80284 0.45050
 C1380 C 0.11306 0.79188 0.43882
 H1381 H 0.06889 0.72602 0.36593
 H1382 H 0.04252 0.70677 0.35101
 H1383 H 0.01813 0.69717 0.41017
 H1384 H 0.04414 0.71680 0.42479
 H1385 H 0.05328 0.75121 0.42489
 H1386 H 0.07795 0.77165 0.44092
 H1387 H 0.12262 0.74495 0.40416
 H1388 H 0.09783 0.72393 0.38845
 H1389 H 0.13841 0.74885 0.43711
 H1390 H 0.16125 0.76809 0.45741
 H1391 H 0.12217 0.81779 0.45434
 H1392 H 0.09963 0.79871 0.43380
 C1393 C 0.60841 0.93664 0.72113
 C1394 C 0.59906 0.94732 0.70585
 C1395 C 0.60885 0.96243 0.69589
 C1396 C 0.62818 0.96714 0.70099
 C1397 C 0.63781 0.95609 0.71579
 C1398 C 0.62805 0.94082 0.72568
 C1399 C 0.59719 0.92230 0.73326
 C1400 C 0.60492 0.90374 0.73797
 C1401 C 0.59416 0.89048 0.74966
 C1402 C 0.57567 0.89572 0.75713
 C1403 C 0.56803 0.91429 0.75245
 C1404 C 0.57862 0.92739 0.74059
 C1405 C 0.56419 0.88201 0.76975
 C1406 C 0.55499 0.88882 0.78726
 C1407 C 0.54296 0.87642 0.79848
 C1408 C 0.53971 0.85695 0.79232
 C1409 C 0.54931 0.84996 0.77506
 C1410 C 0.56155 0.86235 0.76394
 H1411 H 0.58399 0.94427 0.70194
 H1412 H 0.60114 0.97091 0.68462
 H1413 H 0.65261 0.95978 0.72018
 H1414 H 0.63551 0.93293 0.73754
 H1415 H 0.61918 0.89947 0.73245
 H1416 H 0.60038 0.87627 0.75314
 H1417 H 0.55373 0.91861 0.75784
 H1418 H 0.57242 0.94168 0.73739
 H1419 H 0.55697 0.90386 0.79218
 H1420 H 0.53582 0.88226 0.81171
 H1421 H 0.54713 0.83502 0.76996
 H1422 H 0.56841 0.85679 0.75043
 C1423 C 0.38727 0.92996 0.27649
 C1424 C 0.36704 0.93335 0.27561
 C1425 C 0.35889 0.94994 0.28476
 C1426 C 0.37077 0.96345 0.29518
 C1427 C 0.39107 0.96010 0.29571
 C1428 C 0.39917 0.94351 0.28667
 C1429 C 0.39622 0.91292 0.26608
 C1430 C 0.41166 0.90252 0.27506
 C1431 C 0.42147 0.88782 0.26446
 C1432 C 0.41609 0.88322 0.24463
 C1433 C 0.40010 0.89304 0.23596
 C1434 C 0.39025 0.90772 0.24658
 C1435 C 0.42812 0.86945 0.23255
 C1436 C 0.43306 0.87419 0.21264
 C1437 C 0.44601 0.86244 0.20180
 C1438 C 0.45431 0.84563 0.21058
 C1439 C 0.44881 0.84044 0.23023
 C1440 C 0.43588 0.85227 0.24113
 H1441 H 0.35752 0.92323 0.26774
 H1442 H 0.34335 0.95252 0.28309
 H1443 H 0.40074 0.97022 0.30342
 H1444 H 0.41486 0.94154 0.28724
 H1445 H 0.41641 0.90603 0.29016
 H1446 H 0.43382 0.88066 0.27150
 H1447 H 0.39548 0.88965 0.22078
 H1448 H 0.37849 0.91554 0.23921
 H1449 H 0.42756 0.88745 0.20569
 H1450 H 0.44990 0.86684 0.18669
 H1451 H 0.45492 0.82756 0.23740
 H1452 H 0.43217 0.84815 0.25637
 C1453 C 0.60394 0.06123 0.28217
 C1454 C 0.59236 0.04824 0.29339
 C1455 C 0.60087 0.03285 0.30405
 C1456 C 0.62128 0.03006 0.30399
 C1457 C 0.63289 0.04331 0.29289
 C1458 C 0.62432 0.05884 0.28228
 C1459 C 0.59452 0.07646 0.26955
 C1460 C 0.60150 0.09588 0.26923
 C1461 C 0.59212 0.11015 0.25753
 C1462 C 0.57582 0.10514 0.24571
 C1463 C 0.56903 0.08568 0.24592
 C1464 C 0.57824 0.07153 0.25772
 C1465 C 0.56554 0.12002 0.23334
 C1466 C 0.55948 0.11532 0.21377
 C1467 C 0.54804 0.12839 0.20273
 C1468 C 0.54232 0.14647 0.21102
 C1469 C 0.54905 0.15156 0.23031
 C1470 C 0.56062 0.13846 0.24135
 H1471 H 0.57662 0.04990 0.29377
 H1472 H 0.59141 0.02309 0.31246
 H1473 H 0.64851 0.04110 0.29153
 H1474 H 0.63353 0.06845 0.27343
 H1475 H 0.61399 0.10006 0.27828
 H1476 H 0.59767 0.12505 0.25756
 H1477 H 0.55637 0.08144 0.23715
 H1478 H 0.57269 0.05663 0.25750
 H1479 H 0.56333 0.10134 0.20711
 H1480 H 0.54325 0.12405 0.18786
 H1481 H 0.54491 0.16539 0.23711
 H1482 H 0.56503 0.14241 0.25646
 C1483 C 0.37581 0.06925 0.73154
 C1484 C 0.37149 0.06856 0.71091
 C1485 C 0.36264 0.05195 0.70250
 C1486 C 0.35777 0.03563 0.71456
 C1487 C 0.36200 0.03655 0.73527
 C1488 C 0.37077 0.05314 0.74363
 C1489 C 0.38666 0.08606 0.74037
 C1490 C 0.38203 0.09296 0.75970
 C1491 C 0.39376 0.10703 0.76908
 C1492 C 0.41033 0.11457 0.75931
 C1493 C 0.41440 0.10846 0.73958
 C1494 C 0.40269 0.09432 0.73021
 C1495 C 0.42420 0.12748 0.77023
 C1496 C 0.43293 0.14370 0.76073
 C1497 C 0.44701 0.15494 0.77078
 C1498 C 0.45277 0.15002 0.79043
 C1499 C 0.44376 0.13402 0.80001
 C1500 C 0.42961 0.12292 0.79005
 H1501 H 0.37525 0.08075 0.70120
 H1502 H 0.36048 0.05154 0.68638
 H1503 H 0.35842 0.02441 0.74512
 H1504 H 0.37419 0.05306 0.75952
 H1505 H 0.36955 0.08715 0.76775
 H1506 H 0.39009 0.11174 0.78416
 H1507 H 0.42719 0.11387 0.73176
 H1508 H 0.40678 0.08916 0.71541
 H1509 H 0.42894 0.14761 0.74549
 H1510 H 0.45370 0.16719 0.76300
 H1511 H 0.44784 0.12986 0.81515
 H1512 H 0.42335 0.11035 0.79766
 C1513 C 0.61059 0.72403 0.07113
 C1514 C 0.60038 0.71147 0.05801
 C1515 C 0.60985 0.70289 0.04161
 C1516 C 0.62972 0.70658 0.03809
 C1517 C 0.64006 0.71879 0.05135
 C1518 C 0.63062 0.72734 0.06779
 C1519 C 0.60005 0.73459 0.08739
 C1520 C 0.60406 0.75448 0.09123
 C1521 C 0.59300 0.76497 0.10523
 C1522 C 0.57765 0.75584 0.11569
 C1523 C 0.57409 0.73576 0.11240
 C1524 C 0.58517 0.72525 0.09839
 C1525 C 0.56462 0.76749 0.12897
 C1526 C 0.55753 0.75968 0.14712
 C1527 C 0.54425 0.77030 0.15885
 C1528 C 0.53773 0.78890 0.15262
 C1529 C 0.54518 0.79686 0.13470
 C1530 C 0.55845 0.78629 0.12303
 H1531 H 0.58489 0.70888 0.05995
 H1532 H 0.60158 0.69371 0.03138
 H1533 H 0.65534 0.72205 0.04869
 H1534 H 0.63893 0.73679 0.07771
 H1535 H 0.61528 0.76218 0.08289
 H1536 H 0.59627 0.78036 0.10762
 H1537 H 0.56228 0.72833 0.12010
 H1538 H 0.58189 0.70988 0.09595
 H1539 H 0.56218 0.74532 0.15220
 H1540 H 0.53880 0.76377 0.17259
 H1541 H 0.54046 0.81113 0.12943
 H1542 H 0.56340 0.79260 0.10899
 C1543 C 0.40189 0.28882 0.07385
 C1544 C 0.38176 0.28633 0.07039
 C1545 C 0.37258 0.29616 0.05449
 C1546 C 0.38336 0.30878 0.04202
 C1547 C 0.40318 0.31209 0.04617
 C1548 C 0.41235 0.30224 0.06195
 C1549 C 0.41240 0.27609 0.08835
 C1550 C 0.42996 0.26706 0.08255
 C1551 C 0.43965 0.25432 0.09556
 C1552 C 0.43208 0.25037 0.11475
 C1553 C 0.41469 0.25962 0.12077
 C1554 C 0.40482 0.27225 0.10759
 C1555 C 0.44245 0.23646 0.12816
 C1556 C 0.44636 0.24127 0.14830
 C1557 C 0.45784 0.22885 0.16021
 C1558 C 0.46543 0.21130 0.15224
 C1559 C 0.46074 0.20615 0.13236
 C1560 C 0.44945 0.21861 0.12045
 H1561 H 0.37340 0.27594 0.07921
 H1562 H 0.35734 0.29320 0.05129
 H1563 H 0.41174 0.32168 0.03662
 H1564 H 0.42782 0.30461 0.06444
 H1565 H 0.43601 0.26953 0.06773
 H1566 H 0.45314 0.24756 0.09063
 H1567 H 0.40855 0.25675 0.13548
 H1568 H 0.39132 0.27906 0.11243
 H1569 H 0.44118 0.25499 0.15456
 H1570 H 0.46117 0.23321 0.17549
 H1571 H 0.46626 0.19272 0.12575
 H1572 H 0.44640 0.21442 0.10506
 C1573 C 0.60779 0.27317 0.92875
 C1574 C 0.59665 0.28434 0.94234
 C1575 C 0.60556 0.29364 0.95864
 C1576 C 0.62577 0.29208 0.96159
 C1577 C 0.63702 0.28111 0.94802
 C1578 C 0.62810 0.27174 0.93170
 C1579 C 0.59800 0.26240 0.91216
 C1580 C 0.60327 0.24294 0.90769
 C1581 C 0.59279 0.23216 0.89342
 C1582 C 0.57684 0.24060 0.88329
 C1583 C 0.57209 0.26031 0.88718
 C1584 C 0.58254 0.27108 0.90147
 C1585 C 0.56433 0.22856 0.86983
 C1586 C 0.55660 0.23646 0.85200
 C1587 C 0.54340 0.22562 0.84036
 C1588 C 0.53763 0.20670 0.84636
 C1589 C 0.54585 0.19860 0.86385
 C1590 C 0.55905 0.20939 0.87543
 H1591 H 0.58094 0.28543 0.94070
 H1592 H 0.59667 0.30192 0.96911
 H1593 H 0.65263 0.27965 0.95022
 H1594 H 0.63706 0.26334 0.92142
 H1595 H 0.61502 0.23580 0.91577
 H1596 H 0.59694 0.21707 0.89057
 H1597 H 0.55979 0.26719 0.87976
 H1598 H 0.57831 0.28613 0.90440
 H1599 H 0.56057 0.25112 0.84719
 H1600 H 0.53737 0.23226 0.82694
 H1601 H 0.54172 0.18406 0.86890
 H1602 H 0.56454 0.20299 0.88922
 C1603 C 0.39007 0.72255 0.92793
 C1604 C 0.36974 0.72406 0.93076
 C1605 C 0.36066 0.71452 0.94688
 C1606 C 0.37177 0.70334 0.96038
 C1607 C 0.39196 0.70149 0.95740
 C1608 C 0.40102 0.71094 0.94130
 C1609 C 0.40013 0.73395 0.91197
 C1610 C 0.41579 0.72572 0.90122
 C1611 C 0.42662 0.73713 0.88777
 C1612 C 0.42204 0.75703 0.88480
 C1613 C 0.40588 0.76504 0.89494
 C1614 C 0.39503 0.75362 0.90836
 C1615 C 0.43483 0.76967 0.87223
 C1616 C 0.43999 0.78856 0.87888
 C1617 C 0.45305 0.80007 0.86787
 C1618 C 0.46125 0.79298 0.84992
 C1619 C 0.45577 0.77425 0.84301
 C1620 C 0.44273 0.76270 0.85409
 H1621 H 0.36092 0.73279 0.92063
 H1622 H 0.34507 0.71619 0.94910
 H1623 H 0.40074 0.69305 0.96783
 H1624 H 0.41672 0.70976 0.93975
 H1625 H 0.41992 0.71054 0.90351
 H1626 H 0.43906 0.73057 0.88030
 H1627 H 0.40185 0.78026 0.89276
 H1628 H 0.38314 0.76043 0.91651
 H1629 H 0.43439 0.79424 0.89294
 H1630 H 0.45695 0.81442 0.87362
 H1631 H 0.46179 0.76839 0.82921
 H1632 H 0.43888 0.74827 0.84849
 C1633 C 0.72111 0.92848 0.39648
 C1634 C 0.71054 0.94266 0.40730
 C1635 C 0.70115 0.95799 0.39731
 C1636 C 0.70208 0.95942 0.37631
 C1637 C 0.71197 0.94490 0.36534
 C1638 C 0.72134 0.92945 0.37536
 C1639 C 0.73298 0.91371 0.40740
 C1640 C 0.73325 0.89389 0.40149
 C1641 C 0.74465 0.88022 0.41200
 C1642 C 0.75620 0.88623 0.42837
 C1643 C 0.75592 0.90605 0.43418
 C1644 C 0.74444 0.91961 0.42386
 C1645 C 0.76856 0.87209 0.43959
 C1646 C 0.78765 0.87735 0.44515
 C1647 C 0.79879 0.86504 0.45736
 C1648 C 0.79109 0.84718 0.46440
 C1649 C 0.77224 0.84153 0.45821
 C1650 C 0.76110 0.85386 0.44584
 H1651 H 0.70990 0.94213 0.42355
 H1652 H 0.69362 0.96911 0.40599
 H1653 H 0.71299 0.94594 0.34913
 H1654 H 0.72950 0.91880 0.36669
 H1655 H 0.72450 0.88897 0.38889
 H1656 H 0.74466 0.86503 0.40718
 H1657 H 0.76449 0.91106 0.44688
 H1658 H 0.74472 0.93482 0.42860
 H1659 H 0.79388 0.89118 0.44027
 H1660 H 0.81329 0.86981 0.46172
 H1661 H 0.76591 0.82785 0.46335
 H1662 H 0.74638 0.84950 0.44183
 C1663 C 0.27426 0.92892 0.61216
 C1664 C 0.28450 0.94322 0.60114
 C1665 C 0.29271 0.95945 0.61082
 C1666 C 0.29097 0.96158 0.63170
 C1667 C 0.28129 0.94706 0.64285
 C1668 C 0.27304 0.93083 0.63317
 C1669 C 0.26362 0.91300 0.60155
 C1670 C 0.24445 0.90810 0.60724
 C1671 C 0.23355 0.89471 0.59595
 C1672 C 0.24158 0.88591 0.57874
 C1673 C 0.26102 0.89017 0.57352
 C1674 C 0.27192 0.90361 0.58479
 C1675 C 0.22930 0.87342 0.56553
 C1676 C 0.23683 0.85622 0.55680
 C1677 C 0.22548 0.84518 0.54343
 C1678 C 0.20645 0.85122 0.53842
 C1679 C 0.19885 0.86824 0.54743
 C1680 C 0.21013 0.87918 0.56085
 H1681 H 0.28543 0.94233 0.58492
 H1682 H 0.29995 0.97064 0.60198
 H1683 H 0.27962 0.94862 0.65896
 H1684 H 0.26537 0.91997 0.64207
 H1685 H 0.23758 0.91521 0.61996
 H1686 H 0.21868 0.89153 0.60046
 H1687 H 0.26756 0.88371 0.56026
 H1688 H 0.28672 0.90696 0.58017
 H1689 H 0.25151 0.85136 0.56027
 H1690 H 0.23175 0.83213 0.53674
 H1691 H 0.18425 0.87329 0.54390
 H1692 H 0.20403 0.89251 0.56711
 C1693 C 0.27307 0.06997 0.38340
 C1694 C 0.27087 0.06686 0.36259
 C1695 C 0.27983 0.05080 0.35325
 C1696 C 0.29110 0.03766 0.36458
 C1697 C 0.29378 0.04101 0.38517
 C1698 C 0.28491 0.05704 0.39449
 C1699 C 0.26195 0.08562 0.39391
 C1700 C 0.27048 0.09620 0.40980
 C1701 C 0.25929 0.10916 0.42131
 C1702 C 0.23932 0.11182 0.41719
 C1703 C 0.23102 0.10190 0.40073
 C1704 C 0.24221 0.08895 0.38921
 C1705 C 0.22695 0.12384 0.43077
 C1706 C 0.20833 0.11713 0.43643
 C1707 C 0.19703 0.12773 0.45011
 C1708 C 0.20407 0.14533 0.45846
 C1709 C 0.22257 0.15224 0.45256
 C1710 C 0.23391 0.14158 0.43889
 H1711 H 0.26196 0.07666 0.35364
 H1712 H 0.27753 0.04829 0.33735
 H1713 H 0.30229 0.03084 0.39412
 H1714 H 0.28663 0.05880 0.41057
 H1715 H 0.28572 0.09411 0.41363
 H1716 H 0.26609 0.11649 0.43395
 H1717 H 0.21574 0.10386 0.39700
 H1718 H 0.23516 0.08091 0.37718
 H1719 H 0.20268 0.10336 0.43071
 H1720 H 0.18286 0.12198 0.45433
 H1721 H 0.22838 0.16578 0.45867
 H1722 H 0.24813 0.14722 0.43467
 C1723 C 0.72675 0.07211 0.61132
 C1724 C 0.72833 0.06949 0.63224
 C1725 C 0.71975 0.05320 0.64157
 C1726 C 0.70949 0.03932 0.63011
 C1727 C 0.70766 0.04201 0.60932
 C1728 C 0.71615 0.05828 0.60001
 C1729 C 0.73693 0.08854 0.60104
 C1730 C 0.72794 0.09848 0.58499
 C1731 C 0.73824 0.11255 0.57397
 C1732 C 0.75776 0.11698 0.57872
 C1733 C 0.76650 0.10759 0.59525
 C1734 C 0.75619 0.09354 0.60631
 C1735 C 0.76931 0.13032 0.56565
 C1736 C 0.78852 0.12537 0.56021
 C1737 C 0.79893 0.13694 0.54658
 C1738 C 0.79039 0.15377 0.53809
 C1739 C 0.77139 0.15908 0.54398
 C1740 C 0.76094 0.14745 0.55758
 H1741 H 0.73630 0.07996 0.64135
 H1742 H 0.72139 0.05122 0.65763
 H1743 H 0.69993 0.03130 0.60027
 H1744 H 0.71495 0.05968 0.58385
 H1745 H 0.71304 0.09510 0.58073
 H1746 H 0.73114 0.11941 0.56123
 H1747 H 0.78145 0.11087 0.59941
 H1748 H 0.76356 0.08605 0.61849
 H1749 H 0.79529 0.11214 0.56593
 H1750 H 0.81354 0.13244 0.54238
 H1751 H 0.76441 0.17198 0.53775
 H1752 H 0.74623 0.15174 0.56166
 C1753 C 0.93636 0.60201 0.27490
 C1754 C 0.94890 0.59125 0.28748
 C1755 C 0.96341 0.60075 0.29856
 C1756 C 0.96564 0.62118 0.29731
 C1757 C 0.95281 0.63207 0.28521
 C1758 C 0.93817 0.62256 0.27418
 C1759 C 0.92229 0.59160 0.26172
 C1760 C 0.90295 0.59823 0.25957
 C1761 C 0.88984 0.58815 0.24712
 C1762 C 0.89594 0.57147 0.23638
 C1763 C 0.91531 0.56499 0.23845
 C1764 C 0.92831 0.57490 0.25101
 C1765 C 0.88221 0.56049 0.22329
 C1766 C 0.88834 0.55377 0.20436
 C1767 C 0.87614 0.54194 0.19269
 C1768 C 0.85755 0.53647 0.19973
 C1769 C 0.85114 0.54376 0.21837
 C1770 C 0.86334 0.55573 0.23001
 H1771 H 0.94767 0.57543 0.28850
 H1772 H 0.97324 0.59212 0.30776
 H1773 H 0.95454 0.64782 0.28383
 H1774 H 0.92880 0.63116 0.26446
 H1775 H 0.89794 0.61103 0.26773
 H1776 H 0.87500 0.59349 0.24571
 H1777 H 0.92034 0.55204 0.23055
 H1778 H 0.94319 0.56961 0.25218
 H1779 H 0.90272 0.55746 0.19870
 H1780 H 0.88150 0.53665 0.17837
 H1781 H 0.83689 0.53984 0.22420
 H1782 H 0.85831 0.56063 0.24460
 C1783 C 0.93457 0.39666 0.72269
 C1784 C 0.93501 0.37602 0.72304
 C1785 C 0.95016 0.36581 0.71354
 C1786 C 0.96491 0.37608 0.70332
 C1787 C 0.96414 0.39663 0.70244
 C1788 C 0.94911 0.40683 0.71200
 C1789 C 0.91980 0.40769 0.73446
 C1790 C 0.92566 0.42373 0.74628
 C1791 C 0.91208 0.43400 0.75782
 C1792 C 0.89228 0.42853 0.75776
 C1793 C 0.88631 0.41264 0.74576
 C1794 C 0.89999 0.40219 0.73432
 C1795 C 0.87815 0.43947 0.77039
 C1796 C 0.86016 0.44584 0.76256
 C1797 C 0.84776 0.45770 0.77411
 C1798 C 0.85309 0.46324 0.79373
 C1799 C 0.87072 0.45613 0.80176
 C1800 C 0.88311 0.44444 0.79022
 H1801 H 0.92409 0.36785 0.73135
 H1802 H 0.95069 0.34995 0.71459
 H1803 H 0.97543 0.40479 0.69466
 H1804 H 0.94900 0.42272 0.71130
 H1805 H 0.94085 0.42816 0.74687
 H1806 H 0.91705 0.44632 0.76675
 H1807 H 0.87114 0.40810 0.74552
 H1808 H 0.89509 0.38993 0.72526
 H1809 H 0.85604 0.44225 0.74728
 H1810 H 0.83426 0.46291 0.76751
 H1811 H 0.87524 0.46000 0.81685
 H1812 H 0.89674 0.43947 0.79674
 C1813 C 0.07453 0.60286 0.71649
 C1814 C 0.07126 0.62307 0.71929
 C1815 C 0.05497 0.63219 0.71070
 C1816 C 0.04174 0.62131 0.69903
 C1817 C 0.04526 0.60128 0.69572
 C1818 C 0.06153 0.59215 0.70430
 C1819 C 0.09057 0.59267 0.72734
 C1820 C 0.10122 0.57754 0.71803
 C1821 C 0.11511 0.56682 0.72886
 C1822 C 0.11863 0.57096 0.74925
 C1823 C 0.10843 0.58649 0.75836
 C1824 C 0.09457 0.59721 0.74754
 C1825 C 0.13206 0.55844 0.76123
 C1826 C 0.12687 0.55259 0.78077
 C1827 C 0.13885 0.53989 0.79171
 C1828 C 0.15632 0.53274 0.78340
 C1829 C 0.16175 0.53893 0.76402
 C1830 C 0.14973 0.55162 0.75305
 H1831 H 0.08110 0.63176 0.72843
 H1832 H 0.05234 0.64760 0.71366
 H1833 H 0.03506 0.59260 0.68698
 H1834 H 0.06344 0.57652 0.70211
 H1835 H 0.09863 0.57383 0.70243
 H1836 H 0.12261 0.55485 0.72145
 H1837 H 0.11098 0.59018 0.77397
 H1838 H 0.08649 0.60863 0.75522
 H1839 H 0.11323 0.55736 0.78740
 H1840 H 0.13420 0.53540 0.80658
 H1841 H 0.17514 0.53371 0.75720
 H1842 H 0.15422 0.55604 0.73811
 C1843 C 0.07262 0.39284 0.28281
 C1844 C 0.06888 0.37269 0.28016
 C1845 C 0.05249 0.36395 0.28896
 C1846 C 0.03967 0.37512 0.30078
 C1847 C 0.04370 0.39507 0.30400
 C1848 C 0.06003 0.40385 0.29515
 C1849 C 0.08862 0.40271 0.27153
 C1850 C 0.09951 0.41799 0.28033
 C1851 C 0.11312 0.42857 0.26897
 C1852 C 0.11613 0.42412 0.24858
 C1853 C 0.10582 0.40833 0.24003
 C1854 C 0.09222 0.39777 0.25136
 C1855 C 0.12889 0.43671 0.23590
 C1856 C 0.12286 0.44204 0.21646
 C1857 C 0.13410 0.45482 0.20484
 C1858 C 0.15166 0.46262 0.21234
 C1859 C 0.15796 0.45698 0.23161
 C1860 C 0.14666 0.44419 0.24329
 H1861 H 0.07839 0.36376 0.27092
 H1862 H 0.04946 0.34860 0.28605
 H1863 H 0.03383 0.40399 0.31286
 H1864 H 0.06229 0.41945 0.29724
 H1865 H 0.09725 0.42200 0.29590
 H1866 H 0.12073 0.44074 0.27597
 H1867 H 0.10801 0.40436 0.22443
 H1868 H 0.08397 0.38624 0.24404
 H1869 H 0.10911 0.43680 0.21043
 H1870 H 0.12879 0.45888 0.19007
 H1871 H 0.17143 0.46273 0.23781
 H1872 H 0.15177 0.44020 0.25814
   
