data_POSCAR
  _audit_creation_date              2014-09-24
  _audit_creation_method            'ToBaCCo'
  _symmetry_space_group_name_H-M    'P1'
  _symmetry_Int_Tables_number       1
  _symmetry_cell_setting            triclinic
  loop_
  _symmetry_equiv_pos_as_xyz
 x,y,z
_cell_length_a 82.1675
_cell_length_b 81.1004
_cell_length_c 81.7095
_cell_angle_alpha 89.980100
_cell_angle_beta 90.335200
_cell_angle_gamma 89.508400
loop_
  _atom_site_label
  _atom_site_type_symbol
  _atom_site_fract_x
  _atom_site_fract_y
  _atom_site_fract_z
N1 N 0.30402 0.43311 0.90337
 N2 N 0.31474 0.44507 0.90334
 C3 C 0.31205 0.45464 0.89010
 C4 C 0.29897 0.44831 0.88147
 C5 C 0.29422 0.43463 0.89024
 H6 H 0.31899 0.46546 0.88700
 H7 H 0.28416 0.42655 0.88753
 Cu8 Cu 0.33116 0.44724 0.92060
 Cu9 Cu 0.30263 0.41722 0.92095
 Cu10 Cu 0.33176 0.41934 0.95117
 N11 N 0.34923 0.44574 0.93625
 N12 N 0.34921 0.43446 0.94776
 C13 C 0.36254 0.43585 0.95710
 C14 C 0.37161 0.44884 0.95132
 C15 C 0.36281 0.45488 0.93797
 H16 H 0.36511 0.42802 0.96750
 H17 H 0.36598 0.46520 0.93025
 N18 N 0.31595 0.40170 0.94984
 N19 N 0.30476 0.40060 0.93830
 C20 C 0.29604 0.38685 0.94084
 C21 C 0.30225 0.37898 0.95458
 C22 C 0.31483 0.38874 0.95994
 H23 H 0.28602 0.38277 0.93325
 H24 H 0.32261 0.38663 0.97044
 H25 H 0.31308 0.43151 0.93844
 H26 H 0.32715 0.41818 0.92613
 N27 N 0.43267 0.85489 0.44334
 N28 N 0.44381 0.85413 0.43184
 C29 C 0.45410 0.86683 0.43360
 C30 C 0.44933 0.87623 0.44695
 C31 C 0.43563 0.86821 0.45286
 H32 H 0.46424 0.86907 0.42557
 H33 H 0.42827 0.87191 0.46318
 Cu34 Cu 0.44413 0.83698 0.41513
 Cu35 Cu 0.41493 0.83860 0.44460
 Cu36 Cu 0.41435 0.80934 0.41383
 N37 N 0.44322 0.82024 0.39789
 N38 N 0.43120 0.80971 0.39759
 C39 C 0.43299 0.79944 0.38489
 C40 C 0.44695 0.80358 0.37661
 C41 C 0.45319 0.81694 0.38516
 H42 H 0.42469 0.78960 0.38201
 H43 H 0.46416 0.82364 0.38235
 N44 N 0.39806 0.81021 0.43095
 N45 N 0.39812 0.82087 0.44315
 C46 C 0.38535 0.81742 0.45300
 C47 C 0.37695 0.80409 0.44638
 C48 C 0.38547 0.79996 0.43254
 H49 H 0.38224 0.82417 0.46397
 H50 H 0.38284 0.78986 0.42435
 H51 H 0.42748 0.82034 0.43328
 H52 H 0.41509 0.83464 0.42020
 N53 N 0.93856 0.90072 0.80124
 N54 N 0.95116 0.90195 0.81113
 C55 C 0.96097 0.88882 0.80923
 C56 C 0.95432 0.87872 0.79738
 C57 C 0.94004 0.88663 0.79256
 H58 H 0.97215 0.88691 0.81600
 H59 H 0.93145 0.88250 0.78339
 Cu60 Cu 0.95415 0.92059 0.82539
 Cu61 Cu 0.92162 0.91783 0.80051
 Cu62 Cu 0.92468 0.94885 0.82979
 N63 N 0.95419 0.93565 0.84364
 N64 N 0.94291 0.94709 0.84514
 C65 C 0.94616 0.95616 0.85854
 C66 C 0.96017 0.94991 0.86590
 C67 C 0.96490 0.93682 0.85609
 H68 H 0.93877 0.96639 0.86277
 H69 H 0.97535 0.92880 0.85770
 N70 N 0.90724 0.94821 0.81315
 N71 N 0.90596 0.93644 0.80204
 C72 C 0.89297 0.93975 0.79240
 C73 C 0.88577 0.95427 0.79769
 C74 C 0.89514 0.95926 0.81088
 H75 H 0.88905 0.93224 0.78220
 H76 H 0.89337 0.97017 0.81825
 H77 H 0.93490 0.93725 0.80958
 H78 H 0.92475 0.92372 0.82487
 N79 N 0.44204 -0.09730 0.29950
 N80 N 0.45343 -0.09571 0.31070
 C81 C 0.46482 -0.10750 0.30865
 C82 C 0.46036 -0.11699 0.29534
 C83 C 0.44583 -0.11016 0.28981
 H84 H 0.47538 -0.10914 0.31645
 H85 H 0.43844 -0.11446 0.27971
 Cu86 Cu 0.45220 -0.07873 0.32713
 Cu87 Cu 0.42303 -0.08279 0.29878
 Cu88 Cu 0.41851 -0.05539 0.33122
 N89 N 0.44822 -0.06628 0.34676
 N90 N 0.43538 -0.05663 0.34829
 C91 C 0.43642 -0.04865 0.36273
 C92 C 0.45056 -0.05381 0.37062
 C93 C 0.45769 -0.06501 0.36013
 H94 H 0.42765 -0.03968 0.36711
 H95 H 0.46921 -0.07136 0.36179
 N96 N 0.40300 -0.05649 0.31256
 N97 N 0.40477 -0.06702 0.30036
 C98 C 0.39254 -0.06481 0.28955
 C99 C 0.38252 -0.05227 0.29514
 C100 C 0.38951 -0.04727 0.30977
 H101 H 0.39114 -0.07177 0.27837
 H102 H 0.38509 -0.03760 0.31773
 H103 H 0.43227 -0.06269 0.31150
 H104 H 0.42283 -0.07931 0.32399
 N105 N 0.80439 0.30672 0.34721
 N106 N 0.81518 0.29469 0.34644
 C107 C 0.81362 0.28478 0.35951
 C108 C 0.80106 0.29081 0.36901
 C109 C 0.79543 0.30474 0.36083
 H110 H 0.82107 0.27398 0.36182
 H111 H 0.78568 0.31291 0.36462
 Cu112 Cu 0.83034 0.29290 0.32858
 Cu113 Cu 0.80329 0.32415 0.33059
 Cu114 Cu 0.83436 0.32392 0.30195
 N115 N 0.84913 0.29432 0.31461
 N116 N 0.85065 0.30643 0.30407
 C117 C 0.86452 0.30422 0.29567
 C118 C 0.87210 0.29001 0.30133
 C119 C 0.86200 0.28404 0.31340
 H120 H 0.86881 0.31232 0.28613
 H121 H 0.86374 0.27301 0.32066
 N122 N 0.81669 0.34045 0.30190
 N123 N 0.80474 0.34051 0.31264
 C124 C 0.79448 0.35309 0.30906
 C125 C 0.80030 0.36131 0.29546
 C126 C 0.81439 0.35294 0.29127
 H127 H 0.78359 0.35611 0.31583
 H128 H 0.82234 0.35563 0.28115
 H129 H 0.81440 0.31185 0.31162
 H130 H 0.82795 0.32267 0.32650
 N131 N -0.18645 0.84979 0.80509
 N132 N -0.19528 0.84980 0.81845
 C133 C -0.20554 0.86285 0.81810
 C134 C -0.20301 0.87141 0.80365
 C135 C -0.19083 0.86271 0.79573
 H136 H -0.21423 0.86573 0.82758
 H137 H -0.18548 0.86564 0.78403
 Cu138 Cu -0.19279 0.83275 0.83500
 Cu139 Cu -0.16977 0.83327 0.80077
 Cu140 Cu -0.17011 0.79913 0.82577
 N141 N -0.19300 0.81292 0.84838
 N142 N -0.18405 0.79991 0.84483
 C143 C -0.18652 0.78813 0.85611
 C144 C -0.19770 0.79405 0.86731
 C145 C -0.20157 0.80981 0.86201
 H146 H -0.18068 0.77614 0.85606
 H147 H -0.20999 0.81836 0.86768
 N148 N -0.15431 0.80188 0.80805
 N149 N -0.15408 0.81500 0.79852
 C150 C -0.14161 0.81355 0.78796
 C151 C -0.13359 0.79879 0.79109
 C152 C -0.14196 0.79176 0.80390
 H153 H -0.13845 0.82271 0.77894
 H154 H -0.13902 0.78026 0.80997
 H155 H -0.18397 0.81619 0.81198
 H156 H -0.16646 0.82442 0.82438
 N157 N 0.94330 0.34937 0.43724
 N158 N 0.93191 0.34808 0.44837
 C159 C 0.93379 0.36032 0.45942
 C160 C 0.94709 0.36975 0.45485
 C161 C 0.95275 0.36237 0.44072
 H162 H 0.92604 0.36221 0.46992
 H163 H 0.96307 0.36618 0.43353
 Cu164 Cu 0.91581 0.33043 0.44702
 Cu165 Cu 0.94536 0.33409 0.41912
 Cu166 Cu 0.91682 0.30315 0.41568
 N167 N 0.89938 0.31324 0.44460
 N168 N 0.89982 0.30271 0.43237
 C169 C 0.88711 0.29238 0.43357
 C170 C 0.87815 0.29665 0.44730
 C171 C 0.88634 0.30993 0.45399
 H172 H 0.88459 0.28253 0.42505
 H173 H 0.88294 0.31671 0.46486
 N174 N 0.93503 0.30578 0.40006
 N175 N 0.94578 0.31768 0.40154
 C176 C 0.95670 0.31643 0.38941
 C177 C 0.95272 0.30311 0.37970
 C178 C 0.93890 0.29659 0.38683
 H179 H 0.96689 0.32458 0.38787
 H180 H 0.93223 0.28593 0.38266
 H181 H 0.92082 0.32791 0.41778
 H182 H 0.93421 0.31390 0.43019
 N183 N 0.44654 0.43545 0.85024
 N184 N 0.43511 0.44686 0.84911
 C185 C 0.43788 0.45868 0.86027
 C186 C 0.45176 0.45451 0.86900
 C187 C 0.45695 0.43967 0.86233
 H188 H 0.43010 0.46934 0.86204
 H189 H 0.46737 0.43237 0.86618
 Cu190 Cu 0.41715 0.44559 0.83378
 Cu191 Cu 0.44659 0.41576 0.83630
 Cu192 Cu 0.41793 0.41613 0.80533
 N193 N 0.40391 0.44705 0.81412
 N194 N 0.40454 0.43549 0.80292
 C195 C 0.39384 0.43896 0.79094
 C196 C 0.38596 0.45349 0.79485
 C197 C 0.39263 0.45835 0.80967
 H198 H 0.39152 0.43110 0.78053
 H199 H 0.38913 0.46894 0.81693
 N200 N 0.43228 0.39750 0.80936
 N201 N 0.44385 0.39728 0.82062
 C202 C 0.45226 0.38295 0.81922
 C203 C 0.44527 0.37382 0.80669
 C204 C 0.43272 0.38345 0.80081
 H205 H 0.46264 0.37943 0.82667
 H206 H 0.42487 0.38067 0.79054
 H207 H 0.43639 0.42943 0.81835
 H208 H 0.42269 0.41634 0.83119
 N209 N 0.80276 0.89931 0.93376
 N210 N 0.81397 0.89889 0.94524
 C211 C 0.81059 0.88649 0.95572
 C212 C 0.79635 0.87898 0.95054
 C213 C 0.79179 0.88746 0.93653
 H214 H 0.81785 0.88324 0.96633
 H215 H 0.78143 0.88505 0.92869
 Cu216 Cu 0.83168 0.91486 0.94508
 Cu217 Cu 0.80325 0.91481 0.91570
 Cu218 Cu 0.83490 0.94273 0.91455
 N219 N 0.84957 0.93053 0.94432
 N220 N 0.85075 0.94145 0.93252
 C221 C 0.86387 0.95095 0.93533
 C222 C 0.87139 0.94562 0.94963
 C223 C 0.86198 0.93260 0.95496
 H224 H 0.86765 0.96106 0.92760
 H225 H 0.86377 0.92538 0.96593
 N226 N 0.81757 0.94190 0.89757
 N227 N 0.80555 0.93124 0.89824
 C228 C 0.79564 0.93355 0.88528
 C229 C 0.80159 0.94632 0.87593
 C230 C 0.81555 0.95133 0.88406
 H231 H 0.78487 0.92641 0.88286
 H232 H 0.82358 0.96114 0.88039
 H233 H 0.82824 0.91849 0.91569
 H234 H 0.81584 0.93351 0.92763
 N235 N 0.30110 0.84346 0.31011
 N236 N 0.31476 0.84642 0.30241
 C237 C 0.31291 0.86046 0.29369
 C238 C 0.29725 0.86651 0.29621
 C239 C 0.29012 0.85526 0.30657
 H240 H 0.32228 0.86604 0.28633
 H241 H 0.27793 0.85565 0.31145
 Cu242 Cu 0.33338 0.83137 0.30505
 Cu243 Cu 0.29834 0.82490 0.32459
 Cu244 Cu 0.33385 0.80582 0.33739
 N245 N 0.35004 0.81413 0.30740
 N246 N 0.35014 0.80422 0.32015
 C247 C 0.36301 0.79390 0.31920
 C248 C 0.37148 0.79746 0.30501
 C249 C 0.36288 0.81041 0.29785
 H250 H 0.36592 0.78460 0.32826
 H251 H 0.36588 0.81680 0.28666
 N252 N 0.31316 0.80403 0.34936
 N253 N 0.29961 0.81124 0.34426
 C254 C 0.28773 0.80854 0.35516
 C255 C 0.29405 0.79893 0.36764
 C256 C 0.31017 0.79612 0.36350
 H257 H 0.27547 0.81340 0.35410
 H258 H 0.31912 0.78913 0.37045
 H259 H 0.32199 0.82800 0.33223
 H260 H 0.31855 0.80959 0.31889
 N261 N 0.80378 0.40717 0.44114
 N262 N 0.81553 0.40786 0.45210
 C263 C 0.81331 0.39605 0.46340
 C264 C 0.79944 0.38745 0.45930
 C265 C 0.79368 0.39483 0.44511
 H266 H 0.82137 0.39369 0.47364
 H267 H 0.78311 0.39127 0.43806
 Cu268 Cu 0.83273 0.42390 0.45056
 Cu269 Cu 0.80259 0.42217 0.42248
 Cu270 Cu 0.83369 0.45058 0.41935
 N271 N 0.85013 0.43969 0.44843
 N272 N 0.85031 0.45013 0.43615
 C273 C 0.86324 0.46001 0.43765
 C274 C 0.87164 0.45552 0.45166
 C275 C 0.86305 0.44256 0.45820
 H276 H 0.86629 0.46966 0.42913
 H277 H 0.86598 0.43585 0.46928
 N278 N 0.81583 0.44924 0.40355
 N279 N 0.80386 0.43856 0.40466
 C280 C 0.79338 0.44120 0.39215
 C281 C 0.79909 0.45417 0.38285
 C282 C 0.81335 0.45889 0.39040
 H283 H 0.78240 0.43427 0.38997
 H284 H 0.82132 0.46871 0.38670
 H285 H 0.82725 0.42585 0.42131
 H286 H 0.81506 0.44096 0.43350
 N287 N 0.93351 0.84695 -0.05189
 N288 N 0.94135 0.84992 -0.06555
 C289 C 0.94830 0.86491 -0.06436
 C290 C 0.94433 0.87160 -0.04923
 C291 C 0.93502 0.85979 -0.04168
 H292 H 0.95565 0.87052 -0.07373
 H293 H 0.92997 0.86028 -0.02950
 Cu294 Cu 0.94155 0.83357 -0.08327
 Cu295 Cu 0.92247 0.82644 -0.04777
 Cu296 Cu 0.91074 0.80665 -0.08309
 N297 N 0.93991 0.81605 -0.09979
 N298 N 0.92757 0.80584 -0.09962
 C299 C 0.92886 0.79521 -0.11214
 C300 C 0.94289 0.79870 -0.12067
 C301 C 0.94959 0.81211 -0.11254
 H302 H 0.92016 0.78561 -0.11471
 H303 H 0.96071 0.81841 -0.11563
 N304 N 0.90012 0.80317 -0.06195
 N305 N 0.90506 0.81022 -0.04829
 C306 C 0.89540 0.80551 -0.03593
 C307 C 0.88385 0.79490 -0.04219
 C308 C 0.88727 0.79361 -0.05868
 H309 H 0.89646 0.80987 -0.02347
 H310 H 0.88067 0.78653 -0.06769
 H311 H 0.92922 0.81133 -0.06757
 H312 H 0.91490 0.82903 -0.07105
 N313 N 0.30417 0.35171 0.82207
 N314 N 0.31580 0.35268 0.81110
 C315 C 0.31339 0.36656 0.80217
 C316 C 0.29960 0.37469 0.80791
 C317 C 0.29412 0.36482 0.82053
 H318 H 0.32113 0.37056 0.79230
 H319 H 0.28354 0.36692 0.82807
 Cu320 Cu 0.33311 0.33570 0.80994
 Cu321 Cu 0.30255 0.33359 0.83772
 Cu322 Cu 0.33260 0.30381 0.83609
 N323 N 0.35008 0.31827 0.80947
 N324 N 0.34959 0.30621 0.82020
 C325 C 0.36233 0.29605 0.81811
 C326 C 0.37155 0.30180 0.80537
 C327 C 0.36337 0.31594 0.79997
 H328 H 0.36457 0.28502 0.82521
 H329 H 0.36694 0.32394 0.79005
 N330 N 0.31469 0.30289 0.85156
 N331 N 0.30312 0.31421 0.85246
 C332 C 0.29290 0.31002 0.86465
 C333 C 0.29841 0.29539 0.87162
 C334 C 0.31221 0.29130 0.86297
 H335 H 0.28236 0.31715 0.86834
 H336 H 0.32003 0.28072 0.86493
 H337 H 0.32694 0.32897 0.83831
 H338 H 0.31442 0.31694 0.82337
 N339 N 0.15541 0.56165 0.55118
 N340 N 0.15733 0.54863 0.56061
 C341 C 0.14544 0.53781 0.55761
 C342 C 0.13535 0.54417 0.54553
 C343 C 0.14204 0.55941 0.54171
 H344 H 0.14416 0.52628 0.56406
 H345 H 0.13744 0.56821 0.53284
 Cu346 Cu 0.17463 0.54674 0.57658
 Cu347 Cu 0.17070 0.58029 0.55241
 Cu348 Cu 0.20077 0.57717 0.58255
 N349 N 0.18742 0.54791 0.59649
 N350 N 0.19777 0.55995 0.59867
 C351 C 0.20589 0.55754 0.61278
 C352 C 0.20026 0.54325 0.61990
 C353 C 0.18846 0.53743 0.60926
 H354 H 0.21537 0.56547 0.61742
 H355 H 0.18151 0.52623 0.61043
 N356 N 0.19879 0.59608 0.56779
 N357 N 0.18772 0.59739 0.55605
 C358 C 0.19046 0.61150 0.54772
 C359 C 0.20367 0.61942 0.55481
 C360 C 0.20854 0.60928 0.56748
 H361 H 0.18347 0.61570 0.53725
 H362 H 0.21877 0.61114 0.57562
 H363 H 0.19001 0.56742 0.56133
 H364 H 0.17620 0.57664 0.57688
 N365 N 0.60061 0.68922 0.05396
 N366 N 0.59890 0.70039 0.06545
 C367 C 0.61184 0.71045 0.06543
 C368 C 0.62213 0.70539 0.05305
 C369 C 0.61461 0.69191 0.04600
 H370 H 0.61333 0.72095 0.07344
 H371 H 0.61893 0.68472 0.03572
 Cu372 Cu 0.57939 0.70138 0.07846
 Cu373 Cu 0.58409 0.67265 0.04981
 Cu374 Cu 0.55524 0.66823 0.08063
 N375 N 0.56413 0.69872 0.09602
 N376 N 0.55471 0.68577 0.09724
 C377 C 0.54581 0.68721 0.11103
 C378 C 0.55005 0.70182 0.11879
 C379 C 0.56170 0.70873 0.10883
 H380 H 0.53708 0.67826 0.11521
 H381 H 0.56816 0.72011 0.11073
 N382 N 0.55799 0.65223 0.06241
 N383 N 0.56911 0.65392 0.05092
 C384 C 0.56808 0.64123 0.04038
 C385 C 0.55560 0.63111 0.04529
 C386 C 0.54941 0.63847 0.05926
 H387 H 0.57565 0.63966 0.02971
 H388 H 0.53936 0.63410 0.06653
 H389 H 0.56355 0.68211 0.06170
 H390 H 0.57942 0.67173 0.07448
 N391 N 0.68396 0.19633 0.65216
 N392 N 0.69387 0.18344 0.65156
 C393 C 0.70375 0.18487 0.63862
 C394 C 0.69996 0.19935 0.63048
 C395 C 0.68727 0.20632 0.63937
 H396 H 0.71330 0.17614 0.63569
 H397 H 0.68109 0.21788 0.63682
 Cu398 Cu 0.69491 0.16604 0.66830
 Cu399 Cu 0.66775 0.19915 0.67001
 Cu400 Cu 0.67161 0.17234 0.70093
 N401 N 0.69898 0.15456 0.68881
 N402 N 0.68991 0.15721 0.70172
 C403 C 0.69441 0.14675 0.71372
 C404 C 0.70697 0.13690 0.70797
 C405 C 0.70957 0.14223 0.69210
 H406 H 0.68833 0.14577 0.72536
 H407 H 0.71795 0.13696 0.68333
 N408 N 0.65130 0.18380 0.69691
 N409 N 0.64975 0.19503 0.68536
 C410 C 0.63505 0.20243 0.68693
 C411 C 0.62695 0.19506 0.69991
 C412 C 0.63769 0.18334 0.70589
 H413 H 0.63072 0.21261 0.67946
 H414 H 0.63614 0.17571 0.71663
 H415 H 0.68776 0.18687 0.68066
 H416 H 0.67092 0.17490 0.67116
 N417 N 1.09741 0.06571 0.19782
 N418 N 1.09877 0.05397 0.18680
 C419 C 1.11223 0.04490 0.19014
 C420 C 1.11970 0.05128 0.20397
 C421 C 1.10990 0.06447 0.20852
 H422 H 1.11639 0.03444 0.18307
 H423 H 1.11163 0.07253 0.21889
 Cu424 Cu 1.08266 0.05160 0.16933
 Cu425 Cu 1.07940 0.08161 0.19759
 Cu426 Cu 1.05337 0.08046 0.16407
 N427 N 1.06679 0.05003 0.15159
 N428 N 1.05534 0.06130 0.14967
 C429 C 1.04605 0.05729 0.13666
 C430 C 1.05206 0.04284 0.12990
 C431 C 1.06522 0.03856 0.13974
 H432 H 1.03567 0.06437 0.13233
 H433 H 1.07308 0.02791 0.13834
 N434 N 1.05319 0.09871 0.18015
 N435 N 1.06290 0.09897 0.19308
 C436 C 1.05965 0.11268 0.20186
 C437 C 1.04732 0.12150 0.19411
 C438 C 1.04350 0.11223 0.18038
 H439 H 1.06582 0.11603 0.21310
 H440 H 1.03429 0.11503 0.17127
 H441 H 1.06240 0.06825 0.18406
 H442 H 1.07727 0.08093 0.17248
 N443 N 0.06489 0.14942 1.05872
 N444 N 0.05658 0.14912 1.07239
 C445 C 0.04559 0.13695 1.07178
 C446 C 0.04710 0.12911 1.05685
 C447 C 0.05946 0.13733 1.04886
 H448 H 0.03708 0.13422 1.08143
 H449 H 0.06421 0.13463 1.03682
 Cu450 Cu 0.06052 0.16482 1.08956
 Cu451 Cu 0.08215 0.16544 1.05505
 Cu452 Cu 0.08480 0.19729 1.08337
 N453 N 0.05883 0.18443 1.10270
 N454 N 0.06849 0.19709 1.10072
 C455 C 0.06448 0.20881 1.11173
 C456 C 0.05142 0.20318 1.12077
 C457 C 0.04823 0.18765 1.11470
 H458 H 0.07045 0.22059 1.11293
 H459 H 0.03900 0.17917 1.11875
 N460 N 0.09985 0.19492 1.06471
 N461 N 0.09871 0.18290 1.05386
 C462 C 0.11094 0.18424 1.04306
 C463 C 0.12025 0.19774 1.04731
 C464 C 0.11284 0.20423 1.06106
 H465 H 0.11315 0.17572 1.03315
 H466 H 0.11688 0.21472 1.06811
 H467 H 0.08716 0.17211 1.07902
 H468 H 0.07006 0.18322 1.06844
 N469 N 0.15275 0.70540 0.68697
 N470 N 0.15028 0.69278 0.69667
 C471 C 0.13699 0.69577 0.70571
 C472 C 0.13081 0.71102 0.70124
 C473 C 0.14108 0.71682 0.68931
 H474 H 0.13199 0.68737 0.71462
 H475 H 0.14010 0.72836 0.68272
 Cu476 Cu 0.16431 0.67352 0.69650
 Cu477 Cu 0.17053 0.70592 0.67184
 Cu478 Cu 0.19555 0.67202 0.66904
 N479 N 0.18182 0.65747 0.69813
 N480 N 0.19396 0.65677 0.68771
 C481 C 0.20410 0.64440 0.69221
 C482 C 0.19791 0.63702 0.70614
 C483 C 0.18380 0.64569 0.70955
 H484 H 0.21508 0.64094 0.68578
 H485 H 0.17562 0.64373 0.71967
 N486 N 0.19433 0.68926 0.65197
 N487 N 0.18442 0.70204 0.65326
 C488 C 0.18561 0.71159 0.63995
 C489 C 0.19697 0.70462 0.62969
 C490 C 0.20242 0.69050 0.63770
 H491 H 0.17888 0.72296 0.63806
 H492 H 0.21142 0.68173 0.63338
 H493 H 0.17238 0.67825 0.66957
 H494 H 0.18658 0.68704 0.68552
 N495 N 1.19247 0.15519 0.19726
 N496 N 1.20290 0.15641 0.18521
 C497 C 1.21389 0.14404 0.18641
 C498 C 1.21004 0.13461 0.19996
 C499 C 1.19641 0.14205 0.20651
 H500 H 1.22382 0.14204 0.17801
 H501 H 1.18980 0.13811 0.21721
 Cu502 Cu 1.20099 0.17381 0.16897
 Cu503 Cu 1.17466 0.17062 0.20019
 Cu504 Cu 1.17301 0.20425 0.17420
 N505 N 1.20086 0.19368 0.15573
 N506 N 1.18997 0.20548 0.15763
 C507 C 1.19248 0.21726 0.14631
 C508 C 1.20570 0.21257 0.13686
 C509 C 1.21071 0.19759 0.14325
 H510 H 1.18502 0.22822 0.14490
 H511 H 1.22057 0.18991 0.13883
 N512 N 1.15699 0.20054 0.19179
 N513 N 1.15755 0.18747 0.20139
 C514 C 1.14506 0.18812 0.21194
 C515 C 1.13620 0.20233 0.20892
 C516 C 1.14411 0.20997 0.19610
 H517 H 1.14276 0.17905 0.22130
 H518 H 1.14065 0.22149 0.19033
 H519 H 1.17260 0.17903 0.17619
 H520 H 1.18724 0.19020 0.18978
 N521 N 0.64906 1.05480 0.56594
 N522 N 0.64744 1.06597 0.55435
 C523 C 0.63414 1.06244 0.54529
 C524 C 0.62697 1.04842 0.55165
 C525 C 0.63681 1.04391 0.56474
 H526 H 0.62984 1.06959 0.53494
 H527 H 0.63531 1.03340 0.57272
 Cu528 Cu 0.66290 1.08415 0.55249
 Cu529 Cu 0.66710 1.05490 0.58159
 Cu530 Cu 0.69517 1.08627 0.57786
 N531 N 0.67895 1.10178 0.55052
 N532 N 0.69153 1.10237 0.56053
 C533 C 0.70061 1.11557 0.55688
 C534 C 0.69342 1.12382 0.54390
 C535 C 0.67967 1.11469 0.54011
 H536 H 0.71162 1.11906 0.56329
 H537 H 0.67080 1.11730 0.53062
 N538 N 0.69690 1.06899 0.59470
 N539 N 0.68617 1.05708 0.59625
 C540 C 0.69062 1.04744 0.60899
 C541 C 0.70479 1.05359 0.61579
 C542 C 0.70842 1.06724 0.60638
 H543 H 0.68401 1.03677 0.61315
 H544 H 0.71864 1.07538 0.60797
 H545 H 0.67102 1.07994 0.58096
 H546 H 0.68312 1.06698 0.56645
 N547 N 0.55878 0.54797 0.15597
 N548 N 0.54639 0.55833 0.15558
 C549 C 0.53668 0.55452 0.14285
 C550 C 0.54333 0.54103 0.13492
 C551 C 0.55738 0.53721 0.14356
 H552 H 0.52567 0.56111 0.13947
 H553 H 0.56613 0.52758 0.14087
 Cu554 Cu 0.54400 0.57542 0.17200
 Cu555 Cu 0.57617 0.54952 0.17203
 Cu556 Cu 0.57529 0.58384 0.19722
 N557 N 0.54233 0.59229 0.18874
 N558 N 0.55457 0.59525 0.19870
 C559 C 0.55048 0.60758 0.20887
 C560 C 0.53483 0.61264 0.20510
 C561 C 0.52999 0.60271 0.19223
 H562 H 0.55851 0.61281 0.21799
 H563 H 0.51852 0.60323 0.18570
 N564 N 0.59255 0.56708 0.19821
 N565 N 0.59259 0.55374 0.18899
 C566 C 0.60527 0.54411 0.19337
 C567 C 0.61354 0.55174 0.20596
 C568 C 0.60521 0.56633 0.20872
 H569 H 0.60822 0.53231 0.18793
 H570 H 0.60781 0.57547 0.21798
 H571 H 0.56376 0.56255 0.19005
 H572 H 0.57371 0.57448 0.17326
 N573 N 0.64754 0.67899 0.19093
 N574 N 0.64653 0.68867 0.17806
 C575 C 0.63445 0.69971 0.18015
 C576 C 0.62729 0.69688 0.19517
 C577 C 0.63591 0.68356 0.20169
 H578 H 0.63108 0.70900 0.17125
 H579 H 0.63384 0.67766 0.21336
 Cu580 Cu 0.66081 0.68613 0.15950
 Cu581 Cu 0.66407 0.66131 0.19230
 Cu582 Cu 0.69320 0.66103 0.16154
 N583 N 0.67854 0.68817 0.14418
 N584 N 0.69126 0.67827 0.14487
 C585 C 0.70155 0.68224 0.13273
 C586 C 0.69493 0.69541 0.12407
 C587 C 0.68029 0.69882 0.13172
 H588 H 0.71300 0.67604 0.13035
 H589 H 0.67145 0.70822 0.12842
 N590 N 0.69297 0.64467 0.17945
 N591 N 0.68194 0.64462 0.19115
 C592 C 0.68488 0.63157 0.20106
 C593 C 0.69839 0.62303 0.19530
 C594 C 0.70315 0.63174 0.18160
 H595 H 0.67761 0.62832 0.21154
 H596 H 0.71315 0.62876 0.17357
 H597 H 0.68043 0.67469 0.17880
 H598 H 0.66889 0.65835 0.16774
 N599 N 0.15613 0.05990 1.04626
 N600 N 0.15270 0.05134 1.05943
 C601 C 0.13844 0.04357 1.05702
 C602 C 0.13267 0.04763 1.04153
 C603 C 0.14429 0.05794 1.03505
 H604 H 0.13259 0.03573 1.06589
 H605 H 0.14422 0.06365 1.02308
 Cu606 Cu 0.16739 0.05148 1.07831
 Cu607 Cu 0.17580 0.07274 1.04443
 Cu608 Cu 0.19531 0.08138 1.08111
 N609 N 0.18437 0.05093 1.09508
 N610 N 0.19515 0.06276 1.09633
 C611 C 0.20492 0.05970 1.10930
 C612 C 0.20009 0.04508 1.11650
 C613 C 0.18697 0.03987 1.10712
 H614 H 0.21474 0.06758 1.11326
 H615 H 0.17971 0.02900 1.10899
 N616 N 0.19845 0.09451 1.06103
 N617 N 0.19134 0.09075 1.04702
 C618 C 0.19519 0.10208 1.03573
 C619 C 0.20527 0.11359 1.04292
 C620 C 0.20719 0.10834 1.05896
 H621 H 0.19048 0.10219 1.02335
 H622 H 0.21399 0.11446 1.06854
 H623 H 0.19012 0.06440 1.06426
 H624 H 0.17316 0.07924 1.06842
 N625 N 0.60095 0.19450 0.56413
 N626 N 0.59879 0.18293 0.55307
 C627 C 0.61141 0.18299 0.54261
 C628 C 0.62193 0.19529 0.54743
 C629 C 0.61494 0.20229 0.56110
 H630 H 0.61251 0.17528 0.53188
 H631 H 0.61937 0.21279 0.56787
 Cu632 Cu 0.57888 0.17035 0.55265
 Cu633 Cu 0.58491 0.19997 0.58062
 Cu634 Cu 0.54926 0.17744 0.57997
 N635 N 0.55908 0.15759 0.55264
 N636 N 0.54755 0.16036 0.56341
 C637 C 0.53547 0.14951 0.56103
 C638 C 0.53969 0.13945 0.54805
 C639 C 0.55467 0.14498 0.54297
 H640 H 0.52459 0.14887 0.56835
 H641 H 0.56195 0.13979 0.53325
 N642 N 0.55344 0.19530 0.59567
 N643 N 0.56714 0.20366 0.59613
 C644 C 0.56644 0.21465 0.60846
 C645 C 0.55154 0.21315 0.61603
 C646 C 0.54363 0.20079 0.60762
 H647 H 0.57608 0.22303 0.61175
 H648 H 0.53172 0.19595 0.61032
 H649 H 0.57441 0.17688 0.58138
 H650 H 0.56497 0.19241 0.56719
 N651 N 0.10061 0.56051 0.69680
 N652 N 0.10127 0.55114 0.68368
 C653 C 0.11453 0.54133 0.68454
 C654 C 0.12273 0.54471 0.69897
 C655 C 0.11355 0.55698 0.70644
 H656 H 0.11793 0.53245 0.67529
 H657 H 0.11613 0.56289 0.71802
 Cu658 Cu 0.08497 0.55240 0.66646
 Cu659 Cu 0.08287 0.57639 0.70042
 Cu660 Cu 0.05082 0.57415 0.67295
 N661 N 0.06579 0.54951 0.65281
 N662 N 0.05243 0.55802 0.65559
 C663 C 0.04116 0.55416 0.64431
 C664 C 0.04777 0.54257 0.63382
 C665 C 0.06346 0.53987 0.63958
 H666 H 0.02919 0.55974 0.64362
 H667 H 0.07256 0.53175 0.63436
 N668 N 0.05119 0.58980 0.69115
 N669 N 0.06342 0.59107 0.70158
 C670 C 0.06007 0.60352 0.71209
 C671 C 0.04498 0.61023 0.70802
 C672 C 0.03982 0.60122 0.69466
 H673 H 0.06807 0.60754 0.72183
 H674 H 0.02880 0.60316 0.68764
 H675 H 0.06719 0.56140 0.68834
 H676 H 0.07568 0.57917 0.67661
 N677 N 0.65021 0.55364 0.06519
 N678 N 0.65201 0.56416 0.05310
 C679 C 0.63974 0.56231 0.04232
 C680 C 0.62970 0.54990 0.04788
 C681 C 0.63672 0.54469 0.06246
 H682 H 0.63829 0.56946 0.03124
 H683 H 0.63238 0.53504 0.07043
 Cu684 Cu 0.67013 0.57936 0.05238
 Cu685 Cu 0.66582 0.55199 0.08326
 Cu686 Cu 0.70017 0.57624 0.08016
 N687 N 0.68780 0.59520 0.05316
 N688 N 0.69951 0.59375 0.06409
 C689 C 0.71049 0.60567 0.06176
 C690 C 0.70542 0.61522 0.04863
 C691 C 0.69094 0.60825 0.04348
 H692 H 0.72136 0.60714 0.06911
 H693 H 0.68337 0.61233 0.03337
 N694 N 0.69640 0.56132 0.09855
 N695 N 0.68332 0.55212 0.10000
 C696 C 0.68454 0.54342 0.11404
 C697 C 0.69900 0.54752 0.12179
 C698 C 0.70614 0.55893 0.11161
 H699 H 0.67560 0.53476 0.11838
 H700 H 0.71763 0.56503 0.11350
 H701 H 0.67491 0.57550 0.08141
 H702 H 0.68457 0.55874 0.06900
 N703 N 0.07023 0.69364 0.60095
 N704 N 0.05780 0.68351 0.60027
 C705 C 0.04794 0.68652 0.61310
 C706 C 0.05443 0.69929 0.62226
 C707 C 0.06861 0.70348 0.61414
 H708 H 0.03675 0.68006 0.61554
 H709 H 0.07722 0.71289 0.61758
 Cu710 Cu 0.05566 0.66762 0.58236
 Cu711 Cu 0.08789 0.69325 0.58482
 Cu712 Cu 0.08458 0.66444 0.55388
 N713 N 0.05407 0.65143 0.56459
 N714 N 0.06544 0.65085 0.55335
 C715 C 0.06177 0.63934 0.54221
 C716 C 0.04735 0.63207 0.54660
 C717 C 0.04279 0.63992 0.56100
 H718 H 0.06936 0.63615 0.53189
 H719 H 0.03209 0.63746 0.56823
 N720 N 0.10323 0.67903 0.55598
 N721 N 0.10446 0.69054 0.56731
 C722 C 0.11826 0.69908 0.56461
 C723 C 0.12603 0.69236 0.55108
 C724 C 0.11615 0.67972 0.54601
 H725 H 0.12237 0.70940 0.57186
 H726 H 0.11798 0.67198 0.53542
 H727 H 0.07394 0.68449 0.56606
 H728 H 0.08502 0.66906 0.57907
 N729 N 0.56798 1.05206 0.65034
 N730 N 0.55663 1.06357 0.65025
 C731 C 0.54685 1.06120 0.63712
 C732 C 0.55250 1.04747 0.62858
 C733 C 0.56594 1.04208 0.63741
 H734 H 0.53642 1.06882 0.63398
 H735 H 0.57372 1.03164 0.63476
 Cu736 Cu 0.55605 1.08020 0.66766
 Cu737 Cu 0.58467 1.05040 0.66714
 Cu738 Cu 0.58457 1.07989 0.69767
 N739 N 0.55621 1.09705 0.68485
 N740 N 0.56733 1.09665 0.69651
 C741 C 0.56472 1.10926 0.70688
 C742 C 0.55121 1.11819 0.70153
 C743 C 0.54615 1.11004 0.68746
 H744 H 0.57222 1.11165 0.71751
 H745 H 0.53583 1.11331 0.67980
 N746 N 0.60095 1.06187 0.69664
 N747 N 0.60068 1.05057 0.68504
 C748 C 0.61311 1.03993 0.68741
 C749 C 0.62175 1.04470 0.70115
 C750 C 0.61372 1.05871 0.70670
 H751 H 0.61584 1.02964 0.67949
 H752 H 0.61702 1.06606 0.71722
 H753 H 0.57170 1.06194 0.68571
 H754 H 0.58500 1.07533 0.67296
 N755 N 0.44852 0.34732 0.93360
 N756 N 0.43578 0.35053 0.94273
 C757 C 0.43858 0.36447 0.95128
 C758 C 0.45391 0.37026 0.94724
 C759 C 0.45983 0.35898 0.93597
 H760 H 0.43018 0.36996 0.95989
 H761 H 0.47152 0.35904 0.92998
 Cu762 Cu 0.41710 0.33569 0.94261
 Cu763 Cu 0.45001 0.32774 0.92009
 Cu764 Cu 0.41384 0.30699 0.91295
 N765 N 0.39990 0.31923 0.94297
 N766 N 0.39844 0.30803 0.93142
 C767 C 0.38511 0.29888 0.93450
 C768 C 0.37784 0.30469 0.94874
 C769 C 0.38767 0.31759 0.95373
 H770 H 0.38086 0.28892 0.92682
 H771 H 0.38607 0.32528 0.96440
 N772 N 0.43353 0.30415 0.89895
 N773 N 0.44722 0.31196 0.90214
 C774 C 0.45817 0.30853 0.89046
 C775 C 0.45120 0.29804 0.87916
 C776 C 0.43557 0.29534 0.88501
 H777 H 0.47026 0.31368 0.89002
 H778 H 0.42625 0.28800 0.87923
 H779 H 0.42575 0.32972 0.91460
 H780 H 0.43125 0.31282 0.92911
 N781 N 0.94249 0.43405 0.35016
 N782 N 0.93151 0.44582 0.35166
 C783 C 0.93513 0.45490 0.36503
 C784 C 0.94920 0.44851 0.37220
 C785 C 0.95345 0.43524 0.36236
 H786 H 0.92812 0.46540 0.36925
 H787 H 0.96376 0.42701 0.36383
 Cu788 Cu 0.91366 0.44792 0.33582
 Cu789 Cu 0.94217 0.41810 0.33238
 Cu790 Cu 0.91254 0.42338 0.30250
 N791 N 0.89548 0.44881 0.32027
 N792 N 0.89522 0.43918 0.30733
 C793 C 0.88163 0.44233 0.29856
 C794 C 0.87281 0.45456 0.30638
 C795 C 0.88196 0.45840 0.32017
 H796 H 0.87836 0.43614 0.28731
 H797 H 0.87903 0.46747 0.32940
 N798 N 0.92877 0.40533 0.30188
 N799 N 0.93996 0.40329 0.31337
 C800 C 0.94913 0.38999 0.30968
 C801 C 0.94345 0.38326 0.29523
 C802 C 0.93047 0.39327 0.29062
 H803 H 0.95921 0.38543 0.31698
 H804 H 0.92280 0.39187 0.27993
 H805 H 0.93135 0.43385 0.31605
 H806 H 0.91742 0.41948 0.32689
 N807 N 0.30511 0.93615 0.40184
 N808 N 0.31504 0.94864 0.40381
 C809 C 0.31312 0.95923 0.39128
 C810 C 0.30130 0.95320 0.38080
 C811 C 0.29648 0.93848 0.38789
 H812 H 0.31989 0.97049 0.38993
 H813 H 0.28735 0.93013 0.38326
 Cu814 Cu 0.32993 0.95027 0.42228
 Cu815 Cu 0.30409 0.91799 0.41774
 Cu816 Cu 0.32773 0.92279 0.45258
 N817 N 0.34606 0.94948 0.43989
 N818 N 0.34504 0.93846 0.45159
 C819 C 0.35714 0.94058 0.46245
 C820 C 0.36640 0.95373 0.45733
 C821 C 0.35902 0.95911 0.44294
 H822 H 0.35879 0.93316 0.47333
 H823 H 0.36283 0.96926 0.43530
 N824 N 0.31430 0.90362 0.44879
 N825 N 0.30503 0.90147 0.43575
 C826 C 0.29736 0.88686 0.43730
 C827 C 0.30251 0.87953 0.45183
 C828 C 0.31319 0.89051 0.45869
 H829 H 0.28885 0.88183 0.42851
 H830 H 0.31959 0.88914 0.47022
 H831 H 0.30991 0.93306 0.43605
 H832 H 0.32711 0.92102 0.42689
 O833 O 0.21247 0.52815 0.75166
 O834 O 0.21814 0.52627 0.78008
 O835 O 0.25461 0.55130 0.73178
 O836 O 0.28139 0.54690 0.73058
 O837 O 0.23501 0.50780 0.70934
 O838 O 0.23726 0.47906 0.71554
 O839 O 0.29872 0.50915 0.77468
 O840 O 0.29277 0.53693 0.77114
 O841 O 0.25909 0.48652 0.79564
 O842 O 0.23066 0.48822 0.79147
 O843 O 0.27930 0.46546 0.75462
 O844 O 0.27872 0.47001 0.72626
 O845 O 0.29952 0.48864 0.75565
 O846 O 0.29305 0.49044 0.72429
 O847 O 0.25996 0.46471 0.77436
 O848 O 0.22929 0.47007 0.77184
 O849 O 0.27793 0.50690 0.79546
 O850 O 0.27090 0.53639 0.79070
 O851 O 0.21271 0.50806 0.73219
 O852 O 0.21969 0.47864 0.73456
 O853 O 0.25424 0.52780 0.70914
 O854 O 0.28407 0.52557 0.71596
 O855 O 0.23395 0.55112 0.75025
 O856 O 0.23971 0.54550 0.78018
 Zr857 Zr 0.23608 0.52765 0.76152
 O858 O 0.25060 0.51318 0.77740
 Zr859 Zr 0.26456 0.52748 0.73270
 O860 O 0.28063 0.51407 0.74779
 Zr861 Zr 0.23662 0.49807 0.73322
 O862 O 0.25194 0.48278 0.74761
 Zr863 Zr 0.27503 0.51819 0.77250
 O864 O 0.26059 0.53364 0.75741
 Zr865 Zr 0.24796 0.48792 0.77245
 O866 O 0.23150 0.50224 0.75809
 Zr867 Zr 0.27650 0.48887 0.74398
 O868 O 0.26128 0.50231 0.72764
 O869 O 0.24015 0.52305 0.73687
 O870 O 0.27236 0.49296 0.76866
 C871 C 0.20564 0.51973 0.74026
 C872 C 0.24245 0.55809 0.73902
 C873 C 0.24287 0.51944 0.70230
 C874 C 0.30586 0.49721 0.76729
 C875 C 0.27080 0.49464 0.80220
 C876 C 0.27204 0.45833 0.76653
 H877 H 0.24784 0.51568 0.78892
 H878 H 0.24988 0.47109 0.74498
 H879 H 0.23299 0.52984 0.72975
 H880 H 0.29196 0.51724 0.74537
 H881 H 0.28697 0.54717 0.76786
 H882 H 0.28898 0.54581 0.73996
 H883 H 0.23199 0.46198 0.76320
 H884 H 0.21390 0.47994 0.74508
 H885 H 0.28040 0.53633 0.79825
 H886 H 0.23158 0.55450 0.77880
 H887 H 0.26785 0.46503 0.72497
 H888 H 0.24802 0.47972 0.71020
 H889 H 0.21098 0.53616 0.77939
 H890 H 0.22220 0.49633 0.78816
 H891 H 0.28180 0.51600 0.70880
 H892 H 0.30162 0.49835 0.72740
 O893 O 0.20764 0.01839 0.24447
 O894 O 0.21056 0.01225 0.27319
 O895 O 0.24927 0.04594 0.23237
 O896 O 0.27648 0.04349 0.23385
 O897 O 0.23517 0.00460 0.20320
 O898 O 0.23912 -0.02456 0.20596
 O899 O 0.29257 0.00055 0.27447
 O900 O 0.28531 0.02845 0.27361
 O901 O 0.25231 -0.02638 0.28818
 O902 O 0.22471 -0.02574 0.28133
 O903 O 0.27805 -0.04047 0.24718
 O904 O 0.27959 -0.03209 0.21931
 O905 O 0.29647 -0.01698 0.25305
 O906 O 0.29306 -0.01110 0.22187
 O907 O 0.25695 -0.04470 0.26453
 O908 O 0.22631 -0.04104 0.25935
 O909 O 0.26995 -0.00533 0.29246
 O910 O 0.26160 0.02451 0.29042
 O911 O 0.21112 0.00036 0.22337
 O912 O 0.22002 -0.02862 0.22275
 O913 O 0.25270 0.02583 0.20712
 O914 O 0.28203 0.02437 0.21665
 O915 O 0.22766 0.04212 0.24928
 O916 O 0.23042 0.03270 0.27826
 Zr917 Zr 0.23009 0.01745 0.25713
 O918 O 0.24417 0.00203 0.27254
 Zr919 Zr 0.26106 0.02290 0.23150
 O920 O 0.27663 0.00857 0.24644
 Zr921 Zr 0.23545 -0.00808 0.22565
 O922 O 0.25037 -0.02413 0.23957
 Zr923 Zr 0.26864 0.00888 0.27083
 O924 O 0.25449 0.02529 0.25632
 Zr925 Zr 0.24360 -0.02241 0.26425
 O926 O 0.22757 -0.00747 0.25010
 Zr927 Zr 0.27467 -0.01613 0.23917
 O928 O 0.26011 -0.00159 0.22312
 O929 O 0.23680 0.01639 0.23268
 O930 O 0.26790 -0.01564 0.26359
 C931 C 0.20256 0.01084 0.23159
 C932 C 0.23631 0.05097 0.23963
 C933 C 0.24250 0.01765 0.19836
 C934 C 0.30112 -0.00997 0.26641
 C935 C 0.26283 -0.01866 0.29693
 C936 C 0.27014 -0.04930 0.25740
 H937 H 0.24019 0.00281 0.28393
 H938 H 0.24936 -0.03550 0.23536
 H939 H 0.22991 0.02366 0.22579
 H940 H 0.28792 0.01262 0.24564
 H941 H 0.27929 0.03870 0.27082
 H942 H 0.28361 0.04128 0.24339
 H943 H 0.23063 -0.04809 0.25047
 H944 H 0.21311 -0.02908 0.23263
 H945 H 0.27021 0.02382 0.29895
 H946 H 0.22158 0.04104 0.27736
 H947 H 0.26940 -0.03799 0.21679
 H948 H 0.25019 -0.02243 0.20178
 H949 H 0.20261 0.02152 0.27276
 H950 H 0.21595 -0.01792 0.27815
 H951 H 0.28109 0.01564 0.20824
 H952 H 0.30063 -0.00306 0.22681
 O953 O 0.49886 0.70185 0.23609
 O954 O 0.47071 0.70904 0.23830
 O955 O 0.51885 0.73998 0.20714
 O956 O 0.52154 0.76761 0.20789
 O957 O 0.54218 0.72458 0.25196
 O958 O 0.53732 0.73122 0.28015
 O959 O 0.47958 0.79180 0.24480
 O960 O 0.48222 0.78280 0.21780
 O961 O 0.45807 0.75522 0.27194
 O962 O 0.46121 0.72655 0.27406
 O963 O 0.50079 0.77616 0.28932
 O964 O 0.52907 0.77362 0.28356
 O965 O 0.49926 0.79393 0.26441
 O966 O 0.53001 0.78635 0.26196
 O967 O 0.48036 0.75771 0.29258
 O968 O 0.48126 0.72631 0.29128
 O969 O 0.45821 0.77192 0.24958
 O970 O 0.46224 0.76140 0.22095
 O971 O 0.51854 0.70378 0.25576
 O972 O 0.51791 0.71470 0.28370
 O973 O 0.54257 0.74124 0.22956
 O974 O 0.53723 0.77195 0.22799
 O975 O 0.49944 0.72039 0.21053
 O976 O 0.47055 0.72827 0.21627
 Zr977 Zr 0.48970 0.72600 0.23375
 O978 O 0.47502 0.74313 0.24635
 Zr979 Zr 0.51958 0.75314 0.22928
 O980 O 0.50572 0.77166 0.24089
 Zr981 Zr 0.51899 0.72894 0.26205
 O982 O 0.50575 0.74665 0.27543
 Zr983 Zr 0.48074 0.76690 0.23829
 O984 O 0.49458 0.74974 0.22458
 Zr985 Zr 0.48077 0.74305 0.27136
 O986 O 0.49397 0.72422 0.25920
 Zr987 Zr 0.51022 0.77037 0.26616
 O988 O 0.52540 0.75280 0.25439
 O989 O 0.51453 0.72948 0.23707
 O990 O 0.48535 0.76682 0.26334
 C991 C 0.51017 0.69565 0.24519
 C992 C 0.51064 0.72747 0.20220
 C993 C 0.54908 0.73039 0.23912
 C994 C 0.48744 0.79987 0.25576
 C995 C 0.45160 0.76630 0.26266
 C996 C 0.48887 0.77006 0.29735
 H997 H 0.46339 0.74060 0.24451
 H998 H 0.50869 0.74579 0.28714
 H999 H 0.52099 0.72111 0.23109
 H1000 H 0.50842 0.78259 0.23632
 H1001 H 0.48511 0.77578 0.20831
 H1002 H 0.51273 0.77596 0.20838
 H1003 H 0.49025 0.72951 0.29869
 H1004 H 0.50727 0.70906 0.28353
 H1005 H 0.45491 0.77114 0.22014
 H1006 H 0.47091 0.71871 0.20873
 H1007 H 0.52959 0.76348 0.29027
 H1008 H 0.54324 0.74150 0.27764
 H1009 H 0.47078 0.70050 0.22962
 H1010 H 0.46380 0.71691 0.26711
 H1011 H 0.54432 0.77073 0.23777
 H1012 H 0.52688 0.79401 0.25304
 O1013 O 0.04236 0.72701 0.75416
 O1014 O 0.03660 0.73269 0.78222
 O1015 O 0.00263 0.69798 0.73830
 O1016 O -0.02504 0.70019 0.73799
 O1017 O 0.01814 0.73853 0.70919
 O1018 O 0.01396 0.76746 0.71056
 O1019 O -0.04453 0.74475 0.77487
 O1020 O -0.03743 0.71710 0.77598
 O1021 O -0.00465 0.77198 0.79145
 O1022 O 0.02310 0.77118 0.78675
 O1023 O -0.02795 0.78501 0.74835
 O1024 O -0.02655 0.77520 0.71980
 O1025 O -0.04675 0.76174 0.75277
 O1026 O -0.04155 0.75545 0.72270
 O1027 O -0.00779 0.78956 0.76695
 O1028 O 0.02299 0.78575 0.76441
 O1029 O -0.02303 0.75148 0.79490
 O1030 O -0.01512 0.72143 0.79456
 O1031 O 0.04052 0.74378 0.73182
 O1032 O 0.03134 0.77255 0.72887
 O1033 O 0.00028 0.71745 0.71213
 O1034 O -0.02939 0.71833 0.71922
 O1035 O 0.02309 0.70280 0.75657
 O1036 O 0.01629 0.71208 0.78493
 Zr1037 Zr 0.01891 0.72732 0.76397
 O1038 O 0.00388 0.74324 0.77753
 Zr1039 Zr -0.00968 0.72083 0.73580
 O1040 O -0.02633 0.73585 0.74879
 Zr1041 Zr 0.01605 0.75185 0.73119
 O1042 O 0.00028 0.76839 0.74324
 Zr1043 Zr -0.02039 0.73640 0.77387
 O1044 O -0.00527 0.71938 0.76123
 Zr1045 Zr 0.00531 0.76732 0.76841
 O1046 O 0.02215 0.75192 0.75623
 Zr1047 Zr -0.02393 0.76040 0.74102
 O1048 O -0.00832 0.74514 0.72684
 O1049 O 0.01433 0.72762 0.73890
 O1050 O -0.01895 0.76069 0.76596
 C1051 C 0.04841 0.73409 0.74156
 C1052 C 0.01540 0.69350 0.74646
 C1053 C 0.01105 0.72546 0.70397
 C1054 C -0.05242 0.75502 0.76580
 C1055 C -0.01586 0.76476 0.79956
 C1056 C -0.02053 0.79405 0.75889
 H1057 H 0.00699 0.74279 0.78925
 H1058 H 0.00169 0.77962 0.73880
 H1059 H 0.02189 0.72038 0.73279
 H1060 H -0.03751 0.73175 0.74713
 H1061 H -0.03140 0.70671 0.77385
 H1062 H -0.03331 0.70308 0.74626
 H1063 H 0.01930 0.79266 0.75510
 H1064 H 0.03766 0.77335 0.73919
 H1065 H -0.02427 0.72265 0.80234
 H1066 H 0.02526 0.70383 0.78524
 H1067 H -0.01728 0.78289 0.71953
 H1068 H 0.00283 0.76592 0.70616
 H1069 H 0.04450 0.72338 0.78286
 H1070 H 0.03200 0.76321 0.78452
 H1071 H -0.02856 0.72748 0.71126
 H1072 H -0.04847 0.74637 0.72663
 O1073 O 0.00045 0.04509 0.02031
 O1074 O -0.02839 0.04082 0.01570
 O1075 O 0.01747 0.00138 0.04237
 O1076 O 0.01484 -0.02637 0.03708
 O1077 O 0.04262 0.02103 0.00227
 O1078 O 0.03817 0.02036 -0.02728
 O1079 O -0.02397 -0.03991 -0.00734
 O1080 O -0.02183 -0.03683 0.02157
 O1081 O -0.04243 0.00294 -0.02680
 O1082 O -0.03789 0.03136 -0.02163
 O1083 O -0.00175 -0.01747 -0.04601
 O1084 O 0.02860 -0.01655 -0.03813
 O1085 O -0.00297 -0.03976 -0.02540
 O1086 O 0.02629 -0.03592 -0.02242
 O1087 O -0.02011 0.00367 -0.04635
 O1088 O -0.01725 0.03355 -0.03879
 O1089 O -0.04394 -0.01791 -0.00825
 O1090 O -0.04083 -0.01386 0.02192
 O1091 O 0.02030 0.04491 0.00093
 O1092 O 0.02138 0.03977 -0.02765
 O1093 O 0.04079 0.00032 0.02096
 O1094 O 0.03353 -0.02861 0.01755
 O1095 O -0.00147 0.02205 0.04170
 O1096 O -0.03049 0.01806 0.03374
 Zr1097 Zr -0.01063 0.02175 0.01764
 O1098 O -0.02583 0.00844 0.00158
 Zr1099 Zr 0.01696 -0.00849 0.01836
 O1100 O 0.00295 -0.02305 0.00226
 Zr1101 Zr 0.01961 0.02133 -0.00948
 O1102 O 0.00555 0.00833 -0.02666
 Zr1103 Zr -0.02179 -0.01699 0.00473
 O1104 O -0.00791 -0.00376 0.02227
 Zr1105 Zr -0.01928 0.01323 -0.02263
 O1106 O -0.00511 0.02794 -0.00677
 Zr1107 Zr 0.00840 -0.01699 -0.02216
 O1108 O 0.02397 -0.00401 -0.00605
 O1109 O 0.01399 0.01661 0.01473
 O1110 O -0.01625 -0.01201 -0.01951
 C1111 C 0.01224 0.05185 0.01249
 C1112 C 0.00955 0.01341 0.04904
 C1113 C 0.04854 0.01198 0.01387
 C1114 C -0.01557 -0.04637 -0.01902
 C1115 C -0.04969 -0.00940 -0.02026
 C1116 C -0.01289 -0.00866 -0.05302
 H1117 H -0.03737 0.01143 0.00347
 H1118 H 0.00890 0.01133 -0.03786
 H1119 H 0.02086 0.02318 0.02221
 H1120 H 0.00486 -0.03488 0.00454
 H1121 H -0.01912 -0.03208 0.03241
 H1122 H 0.00848 -0.03562 0.03255
 H1123 H -0.00801 0.03135 -0.04620
 H1124 H 0.01063 0.04537 -0.02811
 H1125 H -0.04856 -0.02307 0.02041
 H1126 H -0.02987 0.02612 0.04283
 H1127 H 0.02670 -0.00766 -0.04622
 H1128 H 0.04346 0.00939 -0.02622
 H1129 H -0.02774 0.04782 0.02563
 H1130 H -0.03392 0.04009 -0.01418
 H1131 H 0.03993 -0.02734 0.00740
 H1132 H 0.02483 -0.04266 -0.01245
 O1133 O 0.04233 0.52533 0.49838
 O1134 O 0.03272 0.52519 0.47069
 O1135 O 0.00148 0.53860 0.52707
 O1136 O -0.02394 0.53026 0.53106
 O1137 O 0.03050 0.49601 0.53977
 O1138 O 0.03168 0.46847 0.52977
 O1139 O -0.04252 0.49470 0.48550
 O1140 O -0.04065 0.52281 0.49198
 O1141 O -0.00436 0.48173 0.45588
 O1142 O 0.02368 0.48746 0.45577
 O1143 O -0.01442 0.45361 0.49596
 O1144 O -0.00858 0.45495 0.52515
 O1145 O -0.03726 0.47260 0.50199
 O1146 O -0.02617 0.47164 0.53139
 O1147 O 0.00165 0.45806 0.47385
 O1148 O 0.03137 0.46792 0.47264
 O1149 O -0.02567 0.49881 0.46160
 O1150 O -0.02250 0.52830 0.46953
 O1151 O 0.04823 0.50288 0.51420
 O1152 O 0.04544 0.47320 0.50840
 O1153 O 0.00891 0.51270 0.54569
 O1154 O -0.02107 0.50722 0.54318
 O1155 O 0.01775 0.54398 0.50527
 O1156 O 0.00873 0.54078 0.47596
 Zr1157 Zr 0.01783 0.52183 0.49157
 O1158 O 0.00308 0.50724 0.47620
 Zr1159 Zr -0.00509 0.51387 0.52409
 O1160 O -0.02130 0.49992 0.50990
 Zr1161 Zr 0.02634 0.48938 0.51521
 O1162 O 0.01127 0.47368 0.50132
 Zr1163 Zr -0.02067 0.50761 0.48536
 O1164 O -0.00630 0.52330 0.50007
 Zr1165 Zr 0.01025 0.48236 0.47712
 O1166 O 0.02661 0.49727 0.49069
 Zr1167 Zr -0.01288 0.47542 0.50960
 O1168 O 0.00267 0.48912 0.52510
 O1169 O 0.01862 0.51377 0.51569
 O1170 O -0.01358 0.48295 0.48532
 C1171 C 0.05204 0.51665 0.50738
 C1172 C 0.01065 0.54814 0.51870
 C1173 C 0.02233 0.50535 0.54949
 C1174 C -0.04652 0.48111 0.49238
 C1175 C -0.01807 0.48862 0.45225
 C1176 C -0.00827 0.44924 0.48222
 H1177 H 0.00343 0.51145 0.46483
 H1178 H 0.01548 0.46225 0.50190
 H1179 H 0.02569 0.52072 0.52262
 H1180 H -0.03241 0.50094 0.51440
 H1181 H -0.03605 0.53341 0.49575
 H1182 H -0.03291 0.52874 0.52311
 H1183 H 0.03109 0.45821 0.47995
 H1184 H 0.04927 0.47692 0.49756
 H1185 H -0.03302 0.52760 0.46355
 H1186 H 0.01563 0.55067 0.47721
 H1187 H 0.00207 0.45010 0.52217
 H1188 H 0.02175 0.46625 0.53619
 H1189 H 0.03846 0.53586 0.47170
 H1190 H 0.03119 0.49648 0.45869
 H1191 H -0.01655 0.49708 0.54828
 H1192 H -0.03560 0.47931 0.53130
 O1193 O 0.53934 0.02649 0.49750
 O1194 O 0.53331 0.02102 0.46905
 O1195 O 0.49874 0.05258 0.51553
 O1196 O 0.47152 0.04981 0.51648
 O1197 O 0.51655 0.01020 0.54134
 O1198 O 0.51386 -0.01897 0.53719
 O1199 O 0.45241 0.00892 0.47658
 O1200 O 0.45887 0.03686 0.47851
 O1201 O 0.49087 -0.01643 0.45682
 O1202 O 0.51994 -0.01494 0.46068
 O1203 O 0.47109 -0.03381 0.49926
 O1204 O 0.47287 -0.02693 0.52790
 O1205 O 0.45150 -0.01031 0.49687
 O1206 O 0.45790 -0.00650 0.52785
 O1207 O 0.49010 -0.03648 0.47931
 O1208 O 0.51856 -0.03439 0.48202
 O1209 O 0.47276 0.00494 0.45589
 O1210 O 0.48059 0.03440 0.45880
 O1211 O 0.53879 0.00829 0.51871
 O1212 O 0.53102 -0.02169 0.51865
 O1213 O 0.49803 0.03119 0.54011
 O1214 O 0.46855 0.02994 0.53396
 O1215 O 0.51841 0.04986 0.49611
 O1216 O 0.51289 0.04194 0.46735
 Zr1217 Zr 0.51575 0.02560 0.48751
 O1218 O 0.50040 0.01095 0.47299
 Zr1219 Zr 0.48762 0.02933 0.51664
 O1220 O 0.47097 0.01529 0.50301
 Zr1221 Zr 0.51477 -0.00131 0.51820
 O1222 O 0.49900 -0.01696 0.50492
 Zr1223 Zr 0.47623 0.01743 0.47802
 O1224 O 0.49150 0.03319 0.49150
 Zr1225 Zr 0.50262 -0.01390 0.47971
 O1226 O 0.51982 0.00042 0.49298
 Zr1227 Zr 0.47460 -0.00980 0.50847
 O1228 O 0.49027 0.00442 0.52355
 O1229 O 0.51180 0.02338 0.51253
 O1230 O 0.47846 -0.00755 0.48354
 C1231 C 0.54599 0.01913 0.50979
 C1232 C 0.51068 0.05812 0.50708
 C1233 C 0.50916 0.02279 0.54753
 C1234 C 0.44522 -0.00244 0.48462
 C1235 C 0.47932 -0.00811 0.44988
 C1236 C 0.47798 -0.04185 0.48759
 H1237 H 0.50299 0.01249 0.46127
 H1238 H 0.50101 -0.02856 0.50813
 H1239 H 0.51907 0.03049 0.51907
 H1240 H 0.45971 0.01898 0.50533
 H1241 H 0.46493 0.04705 0.48110
 H1242 H 0.46247 0.04709 0.50895
 H1243 H 0.52897 -0.03012 0.48633
 H1244 H 0.53907 -0.01993 0.50988
 H1245 H 0.47101 0.03431 0.45135
 H1246 H 0.52186 0.05005 0.46750
 H1247 H 0.48317 -0.03333 0.52823
 H1248 H 0.50309 -0.01765 0.54243
 H1249 H 0.54121 0.03020 0.46892
 H1250 H 0.52989 -0.00965 0.46496
 H1251 H 0.46992 0.02007 0.54098
 H1252 H 0.44986 0.00200 0.52444
 O1253 O 0.49949 0.54563 0.01980
 O1254 O 0.47154 0.54230 0.01280
 O1255 O 0.51242 0.50285 0.04651
 O1256 O 0.51199 0.47531 0.04329
 O1257 O 0.54253 0.51894 0.00702
 O1258 O 0.54075 0.51670 -0.02192
 O1259 O 0.47366 0.46012 -0.00131
 O1260 O 0.47318 0.46622 0.02638
 O1261 O 0.45962 0.50203 -0.02753
 O1262 O 0.46585 0.52979 -0.02605
 O1263 O 0.50178 0.47674 -0.04059
 O1264 O 0.52913 0.47527 -0.03115
 O1265 O 0.49536 0.45701 -0.01824
 O1266 O 0.52615 0.46068 -0.01064
 O1267 O 0.48392 0.49790 -0.04488
 O1268 O 0.48838 0.52903 -0.04001
 O1269 O 0.45554 0.48318 -0.00737
 O1270 O 0.45607 0.48998 0.02266
 O1271 O 0.52179 0.54336 0.00349
 O1272 O 0.52332 0.53581 -0.02585
 O1273 O 0.53842 0.50040 0.02746
 O1274 O 0.53001 0.47076 0.02498
 O1275 O 0.49507 0.52459 0.04265
 O1276 O 0.46666 0.52106 0.03214
 Zr1277 Zr 0.48813 0.52270 0.01788
 O1278 O 0.47394 0.50893 0.00145
 Zr1279 Zr 0.51456 0.49174 0.02341
 O1280 O 0.50075 0.47625 0.00813
 Zr1281 Zr 0.52053 0.51910 -0.00621
 O1282 O 0.50787 0.50427 -0.02318
 Zr1283 Zr 0.47631 0.48400 0.00771
 O1284 O 0.48961 0.49780 0.02504
 Zr1285 Zr 0.48310 0.51067 -0.02241
 O1286 O 0.49595 0.52651 -0.00640
 Zr1287 Zr 0.50868 0.47929 -0.01601
 O1288 O 0.52361 0.49385 -0.00052
 O1289 O 0.51274 0.51654 0.01769
 O1290 O 0.48423 0.48580 -0.01632
 C1291 C 0.51257 0.55136 0.01354
 C1292 C 0.50465 0.51569 0.05155
 C1293 C 0.54716 0.51101 0.01987
 C1294 C 0.48201 0.45191 -0.01178
 C1295 C 0.45119 0.49089 -0.02045
 C1296 C 0.49162 0.48484 -0.04952
 H1297 H 0.46247 0.51273 0.00191
 H1298 H 0.51245 0.50584 -0.03423
 H1299 H 0.51916 0.52333 0.02537
 H1300 H 0.50173 0.46468 0.01186
 H1301 H 0.47564 0.47181 0.03688
 H1302 H 0.50295 0.46787 0.04043
 H1303 H 0.49720 0.52481 -0.04710
 H1304 H 0.51350 0.54296 -0.02598
 H1305 H 0.44776 0.48133 0.02103
 H1306 H 0.46688 0.52963 0.04078
 H1307 H 0.53130 0.48574 -0.03692
 H1308 H 0.54480 0.50523 -0.02065
 H1309 H 0.47116 0.54981 0.02237
 H1310 H 0.46818 0.53819 -0.01760
 H1311 H 0.53839 0.47197 0.01641
 H1312 H 0.52094 0.45239 -0.00354
 O1313 O 0.74744 0.27570 0.45816
 O1314 O 0.71894 0.27024 0.46366
 O1315 O 0.76542 0.30043 0.49959
 O1316 O 0.76546 0.29705 0.52717
 O1317 O 0.79035 0.25790 0.48167
 O1318 O 0.78574 0.22871 0.48462
 O1319 O 0.72427 0.25642 0.54460
 O1320 O 0.72737 0.28457 0.53903
 O1321 O 0.70519 0.23342 0.50431
 O1322 O 0.71237 0.23562 0.47311
 O1323 O 0.74661 0.21373 0.52508
 O1324 O 0.77521 0.22006 0.52545
 O1325 O 0.74380 0.23636 0.54573
 O1326 O 0.77495 0.23992 0.54077
 O1327 O 0.72712 0.21241 0.50527
 O1328 O 0.72838 0.21583 0.47648
 O1329 O 0.70432 0.25422 0.52297
 O1330 O 0.70853 0.28402 0.51634
 O1331 O 0.76775 0.25639 0.45902
 O1332 O 0.76725 0.22704 0.46636
 O1333 O 0.78935 0.27825 0.50081
 O1334 O 0.78276 0.27672 0.53027
 O1335 O 0.74631 0.29876 0.47930
 O1336 O 0.71779 0.29214 0.48361
 Zr1337 Zr 0.73720 0.27479 0.48159
 O1338 O 0.72204 0.26039 0.49635
 Zr1339 Zr 0.76574 0.27693 0.51072
 O1340 O 0.75149 0.26286 0.52689
 Zr1341 Zr 0.76718 0.24687 0.48316
 O1342 O 0.75324 0.23128 0.49820
 Zr1343 Zr 0.72680 0.26591 0.52093
 O1344 O 0.74088 0.28160 0.50622
 Zr1345 Zr 0.72834 0.23543 0.49356
 O1346 O 0.74237 0.24967 0.47726
 Zr1347 Zr 0.75622 0.23767 0.52302
 O1348 O 0.77199 0.25181 0.50805
 O1349 O 0.76196 0.27165 0.48622
 O1350 O 0.73162 0.24084 0.51820
 C1351 C 0.75928 0.26766 0.45165
 C1352 C 0.75731 0.30650 0.48740
 C1353 C 0.79667 0.27008 0.48949
 C1354 C 0.73162 0.24439 0.55182
 C1355 C 0.69821 0.24163 0.51579
 C1356 C 0.73503 0.20631 0.51747
 H1357 H 0.71051 0.26262 0.49349
 H1358 H 0.75639 0.21967 0.49619
 H1359 H 0.76869 0.27864 0.47907
 H1360 H 0.75359 0.26611 0.53836
 H1361 H 0.73053 0.29486 0.53340
 H1362 H 0.75814 0.29408 0.53624
 H1363 H 0.73945 0.21095 0.47652
 H1364 H 0.75689 0.22779 0.46014
 H1365 H 0.70056 0.28355 0.52539
 H1366 H 0.71796 0.29961 0.47400
 H1367 H 0.77622 0.21441 0.51478
 H1368 H 0.79097 0.23002 0.49548
 H1369 H 0.71899 0.27924 0.45544
 H1370 H 0.70290 0.24270 0.47583
 H1371 H 0.78929 0.26647 0.52917
 H1372 H 0.77127 0.24797 0.54909
 O1373 O 0.77680 0.78697 0.00057
 O1374 O 0.77467 0.77795 0.02855
 O1375 O 0.79359 0.74501 -0.02529
 O1376 O 0.78634 0.71890 -0.02987
 O1377 O 0.75183 0.77260 -0.04269
 O1378 O 0.72385 0.77324 -0.03515
 O1379 O 0.74785 0.70044 0.01373
 O1380 O 0.77618 0.70276 0.00899
 O1381 O 0.73229 0.73973 0.04060
 O1382 O 0.73682 0.76825 0.04026
 O1383 O 0.70776 0.72804 -0.00219
 O1384 O 0.71181 0.73200 -0.03097
 O1385 O 0.72724 0.70477 -0.00457
 O1386 O 0.72924 0.71442 -0.03475
 O1387 O 0.71013 0.74419 0.02042
 O1388 O 0.71861 0.77465 0.02167
 O1389 O 0.75022 0.71852 0.03704
 O1390 O 0.77971 0.72224 0.03110
 O1391 O 0.75578 0.79165 -0.01719
 O1392 O 0.72626 0.78795 -0.01409
 O1393 O 0.76964 0.75136 -0.04665
 O1394 O 0.76465 0.72084 -0.04388
 O1395 O 0.79653 0.76265 -0.00381
 O1396 O 0.79142 0.75420 0.02512
 Zr1397 Zr 0.77365 0.76222 0.00781
 O1398 O 0.75855 0.74722 0.02224
 Zr1399 Zr 0.76920 0.73772 -0.02466
 O1400 O 0.75483 0.72122 -0.01126
 Zr1401 Zr 0.74342 0.76898 -0.01875
 O1402 O 0.72738 0.75367 -0.00586
 Zr1403 Zr 0.76032 0.72286 0.01383
 O1404 O 0.77649 0.73754 0.00013
 Zr1405 Zr 0.73396 0.75371 0.01901
 O1406 O 0.74918 0.77036 0.00633
 Zr1407 Zr 0.73053 0.72902 -0.01330
 O1408 O 0.74473 0.74474 -0.02800
 O1409 O 0.76768 0.76199 -0.01694
 O1410 O 0.73590 0.72934 0.01156
 C1411 C 0.76865 0.79622 -0.00938
 C1412 C 0.80193 0.75507 -0.01654
 C1413 C 0.76218 0.76456 -0.05137
 C1414 C 0.73490 0.69594 0.00613
 C1415 C 0.73930 0.72628 0.04528
 C1416 C 0.70224 0.73421 0.01112
 H1417 H 0.76180 0.74809 0.03389
 H1418 H 0.71607 0.75756 -0.00760
 H1419 H 0.77486 0.76918 -0.02341
 H1420 H 0.75644 0.70982 -0.01527
 H1421 H 0.78676 0.70756 0.00584
 H1422 H 0.78443 0.71000 -0.02186
 H1423 H 0.70978 0.77386 0.01344
 H1424 H 0.72880 0.79236 -0.00308
 H1425 H 0.77883 0.71189 0.03749
 H1426 H 0.80090 0.76166 0.02468
 H1427 H 0.70688 0.74303 -0.02928
 H1428 H 0.72277 0.76310 -0.04179
 H1429 H 0.78496 0.78425 0.02824
 H1430 H 0.74553 0.77620 0.03778
 H1431 H 0.75492 0.72494 -0.04987
 H1432 H 0.73642 0.70469 -0.03317
 O1433 O 1.01001 0.21290 0.22570
 O1434 O 0.98092 0.21777 0.22622
 O1435 O 1.02974 0.25815 0.20899
 O1436 O 1.02750 0.28510 0.21566
 O1437 O 1.04924 0.23463 0.25101
 O1438 O 1.04117 0.23405 0.27952
 O1439 O 0.98205 0.29717 0.25328
 O1440 O 0.98846 0.29521 0.22510
 O1441 O 0.96124 0.25394 0.26793
 O1442 O 0.96645 0.22559 0.26257
 O1443 O 0.99888 0.27239 0.29424
 O1444 O 1.02924 0.27190 0.29155
 O1445 O 1.00026 0.29579 0.27436
 O1446 O 1.03028 0.29080 0.27552
 O1447 O 0.98057 0.25178 0.29095
 O1448 O 0.98444 0.22221 0.28243
 O1449 O 0.96223 0.27534 0.24997
 O1450 O 0.96973 0.27274 0.22076
 O1451 O 1.02720 0.21156 0.24765
 O1452 O 1.02373 0.21534 0.27674
 O1453 O 1.05011 0.25665 0.23377
 O1454 O 1.04246 0.28565 0.23814
 O1455 O 1.01117 0.23770 0.20564
 O1456 O 0.98133 0.24135 0.20935
 Zr1457 Zr 0.99882 0.23643 0.22804
 O1458 O 0.98159 0.24926 0.24232
 Zr1459 Zr 1.02626 0.26605 0.23329
 O1460 O 1.01006 0.28015 0.24754
 Zr1461 Zr 1.02494 0.23458 0.25935
 O1462 O 1.00875 0.24731 0.27488
 Zr1463 Zr 0.98601 0.27470 0.24091
 O1464 O 1.00226 0.26205 0.22520
 Zr1465 Zr 0.98469 0.24327 0.26706
 O1466 O 1.00081 0.22889 0.25269
 Zr1467 Zr 1.01206 0.27280 0.27215
 O1468 O 1.02973 0.26000 0.25815
 O1469 O 1.02277 0.24081 0.23486
 O1470 O 0.98804 0.26858 0.26556
 C1471 C 1.02070 0.20539 0.23468
 C1472 C 1.02283 0.24678 0.20052
 C1473 C 1.05668 0.24418 0.24098
 C1474 C 0.98879 0.30304 0.26627
 C1475 C 0.95491 0.26652 0.26063
 C1476 C 0.98693 0.26358 0.29920
 H1477 H 0.97045 0.24659 0.23854
 H1478 H 1.01051 0.24372 0.28631
 H1479 H 1.03052 0.23451 0.22802
 H1480 H 1.01227 0.29203 0.24610
 H1481 H 0.99268 0.29083 0.21462
 H1482 H 1.01997 0.29397 0.21917
 H1483 H 0.99269 0.22376 0.29115
 H1484 H 1.01328 0.20967 0.27477
 H1485 H 0.96200 0.28219 0.22126
 H1486 H 0.98340 0.23395 0.19992
 H1487 H 1.02751 0.26155 0.29767
 H1488 H 1.04595 0.24519 0.28028
 H1489 H 0.98283 0.21132 0.21609
 H1490 H 0.97128 0.21729 0.25514
 H1491 H 1.04772 0.28326 0.24882
 H1492 H 1.02935 0.29877 0.26640
 O1493 O 0.71517 1.02686 0.74836
 O1494 O 0.72416 1.02491 0.77625
 O1495 O 0.75652 1.04390 0.72239
 O1496 O 0.78223 1.03639 0.71807
 O1497 O 0.72965 1.00173 0.70513
 O1498 O 0.72956 0.97333 0.71276
 O1499 O 0.80099 0.99739 0.76202
 O1500 O 0.79833 1.02597 0.75704
 O1501 O 0.76225 0.98191 0.78883
 O1502 O 0.73403 0.98656 0.78815
 O1503 O 0.77429 0.95678 0.74645
 O1504 O 0.77038 0.96075 0.71757
 O1505 O 0.79706 0.97656 0.74377
 O1506 O 0.78744 0.97838 0.71365
 O1507 O 0.75814 0.95932 0.76882
 O1508 O 0.72820 0.96787 0.76991
 O1509 O 0.78310 0.99980 0.78524
 O1510 O 0.77911 1.02963 0.77911
 O1511 O 0.71081 1.00558 0.73071
 O1512 O 0.71489 0.97577 0.73363
 O1513 O 0.75025 1.01985 0.70119
 O1514 O 0.78050 1.01410 0.70413
 O1515 O 0.73918 1.04686 0.74387
 O1516 O 0.74737 1.04161 0.77288
 Zr1517 Zr 0.73968 1.02367 0.75558
 O1518 O 0.75466 1.00835 0.77021
 Zr1519 Zr 0.76387 1.01910 0.72322
 O1520 O 0.78034 1.00447 0.73687
 Zr1521 Zr 0.73341 0.99311 0.72913
 O1522 O 0.74869 0.97680 0.74227
 Zr1523 Zr 0.77868 1.01003 0.76192
 O1524 O 0.76399 1.02644 0.74799
 Zr1525 Zr 0.74854 0.98349 0.76709
 O1526 O 0.73194 0.99893 0.75417
 Zr1527 Zr 0.77301 0.97983 0.73500
 O1528 O 0.75732 0.99430 0.72005
 O1529 O 0.73993 1.01767 0.73086
 O1530 O 0.77261 0.98530 0.75982
 C1531 C 0.70610 1.01854 0.73853
 C1532 C 0.74663 1.05239 0.73120
 C1533 C 0.73733 1.01231 0.69644
 C1534 C 0.80566 0.98430 0.75447
 C1535 C 0.77546 0.98889 0.79355
 C1536 C 0.76815 0.95123 0.75974
 H1537 H 0.75373 1.01166 0.78183
 H1538 H 0.74500 0.96535 0.74058
 H1539 H 0.73269 1.02500 0.72438
 H1540 H 0.79156 1.00607 0.73291
 H1541 H 0.79348 1.03674 0.75387
 H1542 H 0.79100 1.03447 0.72620
 H1543 H 0.72882 0.95922 0.76141
 H1544 H 0.71071 0.97811 0.74473
 H1545 H 0.78944 1.02878 0.78541
 H1546 H 0.74001 1.05134 0.77227
 H1547 H 0.75944 0.95601 0.71905
 H1548 H 0.73956 0.97235 0.70611
 H1549 H 0.71793 1.03544 0.77589
 H1550 H 0.72589 0.99519 0.78540
 H1551 H 0.77630 1.00446 0.69805
 H1552 H 0.79678 0.98588 0.71507
 O1553 O 0.74033 0.46983 0.29653
 O1554 O 0.71180 0.47213 0.29097
 O1555 O 0.76038 0.44706 0.25471
 O1556 O 0.75932 0.45115 0.22707
 O1557 O 0.78223 0.49015 0.27382
 O1558 O 0.77592 0.51901 0.27179
 O1559 O 0.71625 0.49097 0.21048
 O1560 O 0.72072 0.46275 0.21514
 O1561 O 0.69610 0.51220 0.25097
 O1562 O 0.70025 0.50921 0.27957
 O1563 O 0.73587 0.53357 0.23110
 O1564 O 0.76545 0.52832 0.23207
 O1565 O 0.73527 0.51123 0.21007
 O1566 O 0.76599 0.50974 0.21545
 O1567 O 0.71691 0.53370 0.25126
 O1568 O 0.71954 0.52776 0.28143
 O1569 O 0.69605 0.49172 0.23194
 O1570 O 0.70160 0.46207 0.23747
 O1571 O 0.75949 0.48999 0.29628
 O1572 O 0.75761 0.51932 0.28995
 O1573 O 0.78245 0.47047 0.25398
 O1574 O 0.77552 0.47234 0.22458
 O1575 O 0.74118 0.44723 0.27474
 O1576 O 0.71177 0.45291 0.26902
 Zr1577 Zr 0.73024 0.47070 0.27290
 O1578 O 0.71431 0.48522 0.25862
 Zr1579 Zr 0.75874 0.47079 0.24407
 O1580 O 0.74370 0.48490 0.22832
 Zr1581 Zr 0.75842 0.50009 0.27251
 O1582 O 0.74369 0.51568 0.25792
 Zr1583 Zr 0.71917 0.48074 0.23386
 O1584 O 0.73417 0.46494 0.24809
 Zr1585 Zr 0.71912 0.51030 0.26215
 O1586 O 0.73380 0.49592 0.27812
 Zr1587 Zr 0.74716 0.51013 0.23304
 O1588 O 0.76360 0.49602 0.24762
 O1589 O 0.75474 0.47518 0.26866
 O1590 O 0.72274 0.50586 0.23741
 C1591 C 0.75172 0.47823 0.30329
 C1592 C 0.75277 0.44029 0.26669
 C1593 C 0.78930 0.47865 0.26557
 C1594 C 0.72343 0.50314 0.20362
 C1595 C 0.68945 0.50405 0.23927
 C1596 C 0.72414 0.54039 0.23908
 H1597 H 0.70290 0.48265 0.26139
 H1598 H 0.74620 0.52732 0.26038
 H1599 H 0.76197 0.46839 0.27570
 H1600 H 0.74599 0.48209 0.21678
 H1601 H 0.72430 0.45236 0.22048
 H1602 H 0.75195 0.45422 0.21793
 H1603 H 0.72836 0.53566 0.27920
 H1604 H 0.74704 0.51840 0.29561
 H1605 H 0.69397 0.46231 0.22802
 H1606 H 0.71284 0.44410 0.27738
 H1607 H 0.76469 0.53497 0.24218
 H1608 H 0.78097 0.51845 0.26083
 H1609 H 0.71270 0.46234 0.29821
 H1610 H 0.70426 0.50194 0.28848
 H1611 H 0.78152 0.48277 0.22606
 H1612 H 0.76356 0.50090 0.20748
 O1613 O 0.49598 0.20757 0.72056
 O1614 O 0.46714 0.21451 0.72640
 O1615 O 0.51729 0.25108 0.70409
 O1616 O 0.51761 0.27815 0.71183
 O1617 O 0.53870 0.22488 0.74359
 O1618 O 0.53207 0.22393 0.77323
 O1619 O 0.47764 0.29210 0.75437
 O1620 O 0.48249 0.29177 0.72533
 O1621 O 0.45364 0.25189 0.76760
 O1622 O 0.45825 0.22000 0.75991
 O1623 O 0.49375 0.26510 0.79188
 O1624 O 0.52472 0.25932 0.78689
 O1625 O 0.49810 0.28866 0.77307
 O1626 O 0.52613 0.28054 0.77322
 O1627 O 0.47399 0.24582 0.78935
 O1628 O 0.47261 0.21831 0.78109
 O1629 O 0.45541 0.27324 0.74966
 O1630 O 0.46149 0.27139 0.72043
 O1631 O 0.51475 0.20387 0.74092
 O1632 O 0.51387 0.20589 0.76996
 O1633 O 0.53970 0.24720 0.72677
 O1634 O 0.53556 0.27594 0.73268
 O1635 O 0.49639 0.23289 0.70161
 O1636 O 0.46801 0.23732 0.70776
 Zr1637 Zr 0.48655 0.23158 0.72514
 O1638 O 0.47163 0.24578 0.74072
 Zr1639 Zr 0.51687 0.25849 0.72886
 O1640 O 0.50349 0.27327 0.74514
 Zr1641 Zr 0.51499 0.22627 0.75390
 O1642 O 0.50071 0.23938 0.77107
 Zr1643 Zr 0.47867 0.27060 0.73995
 O1644 O 0.49212 0.25689 0.72268
 Zr1645 Zr 0.47580 0.23833 0.76489
 O1646 O 0.48992 0.22305 0.74926
 Zr1647 Zr 0.50634 0.26448 0.76929
 O1648 O 0.52176 0.25118 0.75319
 O1649 O 0.51132 0.23367 0.72993
 O1650 O 0.48162 0.26311 0.76413
 C1651 C 0.50695 0.19896 0.72815
 C1652 C 0.50841 0.24101 0.69581
 C1653 C 0.54601 0.23420 0.73319
 C1654 C 0.48626 0.29687 0.76669
 C1655 C 0.44797 0.26509 0.76069
 C1656 C 0.48143 0.25710 0.79738
 H1657 H 0.46008 0.24455 0.73747
 H1658 H 0.50278 0.23506 0.78221
 H1659 H 0.51798 0.22719 0.72216
 H1660 H 0.50686 0.28490 0.74413
 H1661 H 0.48552 0.28772 0.71431
 H1662 H 0.51317 0.28812 0.71724
 H1663 H 0.48354 0.21528 0.78532
 H1664 H 0.50266 0.20159 0.76907
 H1665 H 0.45497 0.28169 0.72147
 H1666 H 0.46803 0.22878 0.69908
 H1667 H 0.52016 0.25181 0.79520
 H1668 H 0.53882 0.23398 0.77303
 H1669 H 0.46752 0.20726 0.71664
 H1670 H 0.44890 0.22539 0.75435
 H1671 H 0.54118 0.27285 0.74300
 H1672 H 0.52718 0.28733 0.76324
 O1673 O 0.25351 0.76913 0.45663
 O1674 O 0.22435 0.76355 0.46222
 O1675 O 0.27141 0.79302 0.49801
 O1676 O 0.26912 0.78916 0.52632
 O1677 O 0.29553 0.75149 0.48022
 O1678 O 0.29041 0.72111 0.48386
 O1679 O 0.23073 0.74699 0.54317
 O1680 O 0.23441 0.77585 0.53890
 O1681 O 0.21010 0.72665 0.50350
 O1682 O 0.21638 0.73121 0.47140
 O1683 O 0.24984 0.70594 0.52223
 O1684 O 0.28112 0.71214 0.51892
 O1685 O 0.25141 0.72810 0.54345
 O1686 O 0.27971 0.72805 0.53847
 O1687 O 0.23198 0.70523 0.50091
 O1688 O 0.23125 0.71034 0.47329
 O1689 O 0.20986 0.74741 0.52219
 O1690 O 0.21460 0.77679 0.51666
 O1691 O 0.27299 0.74898 0.45761
 O1692 O 0.27412 0.72075 0.46391
 O1693 O 0.29468 0.77093 0.50029
 O1694 O 0.28868 0.76946 0.52843
 O1695 O 0.25159 0.79191 0.47839
 O1696 O 0.22323 0.78536 0.48188
 Zr1697 Zr 0.24263 0.76795 0.48013
 O1698 O 0.22731 0.75381 0.49512
 Zr1699 Zr 0.27105 0.76948 0.50942
 O1700 O 0.25738 0.75443 0.52510
 Zr1701 Zr 0.27245 0.73981 0.48148
 O1702 O 0.25776 0.72385 0.49528
 Zr1703 Zr 0.23265 0.75817 0.51993
 O1704 O 0.24628 0.77421 0.50504
 Zr1705 Zr 0.23285 0.72896 0.49132
 O1706 O 0.24759 0.74291 0.47542
 Zr1707 Zr 0.26151 0.72921 0.52009
 O1708 O 0.27730 0.74434 0.50628
 O1709 O 0.26732 0.76457 0.48486
 O1710 O 0.23684 0.73315 0.51605
 C1711 C 0.26520 0.76061 0.45024
 C1712 C 0.26297 0.79937 0.48615
 C1713 C 0.30189 0.76334 0.48862
 C1714 C 0.23915 0.73537 0.54999
 C1715 C 0.20340 0.73494 0.51520
 C1716 C 0.23874 0.69881 0.51356
 H1717 H 0.21577 0.75636 0.49259
 H1718 H 0.26052 0.71227 0.49263
 H1719 H 0.27410 0.77160 0.47780
 H1720 H 0.25991 0.75711 0.53663
 H1721 H 0.23697 0.78650 0.53360
 H1722 H 0.26460 0.78470 0.53659
 H1723 H 0.24245 0.70618 0.47151
 H1724 H 0.26322 0.71989 0.45878
 H1725 H 0.20740 0.77668 0.52636
 H1726 H 0.22350 0.79282 0.47226
 H1727 H 0.27768 0.70276 0.51202
 H1728 H 0.29698 0.72384 0.49367
 H1729 H 0.22489 0.77226 0.45374
 H1730 H 0.20615 0.73611 0.47558
 H1731 H 0.29415 0.75855 0.52816
 H1732 H 0.28025 0.73911 0.54355
 O1733 O 0.25436 0.20610 1.02466
 O1734 O 0.28212 0.21229 1.01744
 O1735 O 0.23641 0.24895 1.04776
 O1736 O 0.23536 0.27620 1.04269
 O1737 O 0.20898 0.22743 1.00898
 O1738 O 0.21105 0.22745 0.97994
 O1739 O 0.27087 0.29232 0.99642
 O1740 O 0.27169 0.28884 1.02506
 O1741 O 0.29048 0.25056 0.97500
 O1742 O 0.28709 0.22216 0.97930
 O1743 O 0.24595 0.26976 0.95908
 O1744 O 0.21763 0.26742 0.96840
 O1745 O 0.24845 0.29156 0.97990
 O1746 O 0.21908 0.28496 0.98630
 O1747 O 0.26652 0.25095 0.95690
 O1748 O 0.26413 0.22186 0.96161
 O1749 O 0.29233 0.27150 0.99340
 O1750 O 0.29178 0.26702 1.02363
 O1751 O 0.23253 0.20491 1.00739
 O1752 O 0.22944 0.21038 0.97750
 O1753 O 0.21095 0.24790 1.02792
 O1754 O 0.21649 0.27770 1.02393
 O1755 O 0.25600 0.22901 1.04579
 O1756 O 0.28408 0.23504 1.03582
 Zr1757 Zr 0.26334 0.23004 1.02106
 O1758 O 0.27625 0.24425 1.00395
 Zr1759 Zr 0.23397 0.25836 1.02389
 O1760 O 0.24601 0.27399 1.00744
 Zr1761 Zr 0.23114 0.22837 0.99618
 O1762 O 0.24260 0.24291 0.97834
 Zr1763 Zr 0.27121 0.26927 1.00794
 O1764 O 0.25936 0.25523 1.02616
 Zr1765 Zr 0.26790 0.23969 0.98011
 O1766 O 0.25637 0.22361 0.99691
 Zr1767 Zr 0.23862 0.26800 0.98354
 O1768 O 0.22532 0.25341 1.00011
 O1769 O 0.23826 0.23350 1.01996
 O1770 O 0.26372 0.26459 0.98411
 C1771 C 0.24218 0.19860 1.01823
 C1772 C 0.24525 0.23727 1.05384
 C1773 C 0.20332 0.23602 1.02093
 C1774 C 0.26122 0.29861 0.98562
 C1775 C 0.29775 0.26312 0.98117
 C1776 C 0.25746 0.26265 0.95115
 H1777 H 0.28804 0.24184 1.00497
 H1778 H 0.23866 0.23986 0.96730
 H1779 H 0.23238 0.22660 1.02792
 H1780 H 0.24363 0.28564 1.01015
 H1781 H 0.27016 0.28382 1.03599
 H1782 H 0.24249 0.28506 1.03868
 H1783 H 0.26154 0.21141 0.96720
 H1784 H 0.23878 0.20272 0.97889
 H1785 H 0.29881 0.27671 1.02175
 H1786 H 0.28469 0.22685 1.04482
 H1787 H 0.21826 0.25732 0.96165
 H1788 H 0.20580 0.23848 0.98030
 H1789 H 0.28302 0.20524 1.02733
 H1790 H 0.28376 0.21287 0.98634
 H1791 H 0.20871 0.27539 1.01493
 H1792 H 0.22235 0.29330 0.99449
 C1793 C 0.29178 0.41239 0.78261
 C1794 C 0.27868 0.41980 0.79085
 N1795 N 0.27267 0.41244 0.80442
 C1796 C 0.27912 0.39802 0.81014
 C1797 C 0.29229 0.39047 0.80195
 N1798 N 0.29828 0.39797 0.78832
 N1799 N 0.29786 0.41980 0.76909
 C1800 C 0.29152 0.43432 0.76348
 C1801 C 0.27844 0.44193 0.77177
 N1802 N 0.27235 0.43436 0.78531
 H1803 H 0.27401 0.39263 0.82104
 H1804 H 0.29680 0.43993 0.75276
 C1805 C 0.29068 -0.09485 0.27241
 C1806 C 0.27596 -0.08903 0.27898
 N1807 N 0.26849 -0.09776 0.29084
 C1808 C 0.27502 -0.11210 0.29647
 C1809 C 0.28981 -0.11805 0.29001
 N1810 N 0.29731 -0.10919 0.27809
 N1811 N 0.29818 -0.08596 0.26061
 C1812 C 0.29166 -0.07147 0.25516
 C1813 C 0.27696 -0.06555 0.26185
 N1814 N 0.26951 -0.07457 0.27362
 H1815 H 0.26876 -0.11857 0.30609
 H1816 H 0.29802 -0.06455 0.24589
 C1817 C 0.78664 0.90557 0.77671
 C1818 C 0.77540 0.91453 0.78609
 N1819 N 0.77121 0.90885 0.80111
 C1820 C 0.77782 0.89465 0.80721
 C1821 C 0.78934 0.88578 0.79791
 N1822 N 0.79335 0.89156 0.78284
 N1823 N 0.79093 0.91115 0.76173
 C1824 C 0.78465 0.92546 0.75573
 C1825 C 0.77364 0.93477 0.76521
 N1826 N 0.76921 0.92897 0.78020
 H1827 H 0.77427 0.89058 0.81927
 H1828 H 0.78853 0.92968 0.74382
 C1829 C 0.46899 0.84640 0.26968
 C1830 C 0.48261 0.83948 0.27761
 N1831 N 0.48910 0.84718 0.29083
 C1832 C 0.48247 0.86142 0.29660
 C1833 C 0.46859 0.86821 0.28890
 N1834 N 0.46227 0.86053 0.27552
 N1835 N 0.46233 0.83856 0.25663
 C1836 C 0.46852 0.82394 0.25130
 C1837 C 0.48193 0.81674 0.25950
 N1838 N 0.48870 0.82482 0.27242
 H1839 H 0.48785 0.86712 0.30727
 H1840 H 0.46270 0.81779 0.24111
 C1841 C -0.04028 0.84000 0.77344
 C1842 C -0.02549 0.83402 0.77982
 N1843 N -0.01762 0.84259 0.79160
 C1844 C -0.02384 0.85695 0.79740
 C1845 C -0.03871 0.86310 0.79115
 N1846 N -0.04659 0.85442 0.77923
 N1847 N -0.04816 0.83114 0.76175
 C1848 C -0.04196 0.81651 0.75629
 C1849 C -0.02719 0.81045 0.76287
 N1850 N -0.01938 0.81949 0.77445
 H1851 H -0.01716 0.86335 0.80682
 H1852 H -0.04863 0.80956 0.74719
 C1853 C -0.03165 -0.09073 -0.04090
 C1854 C -0.04006 -0.08380 -0.02760
 N1855 N -0.05359 -0.09131 -0.02195
 C1856 C -0.05900 -0.10550 -0.02885
 C1857 C -0.05053 -0.11256 -0.04209
 N1858 N -0.03707 -0.10488 -0.04785
 N1859 N -0.01808 -0.08329 -0.04651
 C1860 C -0.01252 -0.06923 -0.03948
 C1861 C -0.02092 -0.06218 -0.02616
 N1862 N -0.03458 -0.06969 -0.02059
 H1863 H -0.06984 -0.11116 -0.02405
 H1864 H -0.00172 -0.06356 -0.04440
 C1865 C -0.02658 0.40506 0.46189
 C1866 C -0.03298 0.41160 0.47637
 N1867 N -0.04583 0.40416 0.48357
 C1868 C -0.05264 0.39043 0.47693
 C1869 C -0.04629 0.38377 0.46235
 N1870 N -0.03333 0.39135 0.45528
 N1871 N -0.01390 0.41268 0.45454
 C1872 C -0.00737 0.42666 0.46096
 C1873 C -0.01383 0.43335 0.47545
 N1874 N -0.02650 0.42553 0.48278
 H1875 H -0.06290 0.38491 0.48301
 H1876 H 0.00259 0.43257 0.45472
 C1877 C 0.45725 -0.08713 0.47205
 C1878 C 0.47086 -0.08054 0.46419
 N1879 N 0.47715 -0.08838 0.45100
 C1880 C 0.47047 -0.10250 0.44520
 C1881 C 0.45667 -0.10926 0.45289
 N1882 N 0.45046 -0.10128 0.46625
 N1883 N 0.45095 -0.07913 0.48521
 C1884 C 0.45756 -0.06481 0.49079
 C1885 C 0.47116 -0.05807 0.48283
 N1886 N 0.47743 -0.06623 0.46969
 H1887 H 0.47596 -0.10820 0.43462
 H1888 H 0.45210 -0.05865 0.50117
 C1889 C 0.46111 0.40740 -0.02869
 C1890 C 0.47622 0.41259 -0.03464
 N1891 N 0.48379 0.40352 -0.04634
 C1892 C 0.47693 0.38956 -0.05242
 C1893 C 0.46162 0.38440 -0.04664
 N1894 N 0.45417 0.39357 -0.03483
 N1895 N 0.45352 0.41638 -0.01697
 C1896 C 0.46024 0.43040 -0.01101
 C1897 C 0.47528 0.43589 -0.01712
 N1898 N 0.48292 0.42674 -0.02884
 H1899 H 0.48336 0.38278 -0.06178
 H1900 H 0.45372 0.43732 -0.00177
 C1901 C 0.77278 0.35201 0.46831
 C1902 C 0.78056 0.34494 0.48197
 N1903 N 0.79398 0.35217 0.48837
 C1904 C 0.80012 0.36607 0.48159
 C1905 C 0.79262 0.37298 0.46762
 N1906 N 0.77900 0.36579 0.46142
 N1907 N 0.75947 0.34467 0.46179
 C1908 C 0.75374 0.33038 0.46815
 C1909 C 0.76177 0.32301 0.48159
 N1910 N 0.77495 0.33061 0.48825
 H1911 H 0.81087 0.37147 0.48698
 H1912 H 0.74333 0.32462 0.46243
 C1913 C 0.78874 0.84181 -0.02389
 C1914 C 0.77381 0.83641 -0.03025
 N1915 N 0.76624 0.84526 -0.04217
 C1916 C 0.77302 0.85918 -0.04825
 C1917 C 0.78820 0.86452 -0.04224
 N1918 N 0.79561 0.85570 -0.03003
 N1919 N 0.79635 0.83275 -0.01208
 C1920 C 0.78983 0.81842 -0.00653
 C1921 C 0.77505 0.81276 -0.01321
 N1922 N 0.76739 0.82207 -0.02485
 H1923 H 0.76661 0.86585 -0.05779
 H1924 H 0.79637 0.81129 0.00261
 C1925 C 0.77504 0.28413 0.40534
 C1926 C 0.78356 0.27161 0.41370
 N1927 N 0.79753 0.26545 0.40728
 C1928 C 0.80340 0.27128 0.39289
 C1929 C 0.79498 0.28396 0.38453
 N1930 N 0.78094 0.29004 0.39103
 N1931 N 0.76113 0.29038 0.41178
 C1932 C 0.75544 0.28483 0.42634
 C1933 C 0.76412 0.27251 0.43498
 N1934 N 0.77798 0.26614 0.42833
 H1935 H 0.81465 0.26618 0.38821
 H1936 H 0.74445 0.29028 0.43126
 C1937 C 0.77759 0.78582 -0.09579
 C1938 C 0.78416 0.77077 -0.09031
 N1939 N 0.79631 0.76342 -0.09887
 C1940 C 0.80226 0.77047 -0.11267
 C1941 C 0.79585 0.78567 -0.11811
 N1942 N 0.78360 0.79294 -0.10949
 N1943 N 0.76554 0.79325 -0.08714
 C1944 C 0.75988 0.78640 -0.07312
 C1945 C 0.76667 0.77146 -0.06738
 N1946 N 0.77863 0.76400 -0.07624
 H1947 H 0.81205 0.76435 -0.11910
 H1948 H 0.75043 0.79276 -0.06636
 C1949 C 0.29025 0.47638 0.84663
 C1950 C 0.27769 0.46809 0.83845
 N1951 N 0.27227 0.45355 0.84441
 C1952 C 0.27883 0.44688 0.85823
 C1953 C 0.29148 0.45512 0.86647
 N1954 N 0.29685 0.46972 0.86041
 N1955 N 0.29581 0.49083 0.84054
 C1956 C 0.28945 0.49731 0.82652
 C1957 C 0.27696 0.48894 0.81818
 N1958 N 0.27138 0.47451 0.82445
 H1959 H 0.27425 0.43524 0.86258
 H1960 H 0.29431 0.50873 0.82182
 C1961 C 0.27782 -0.03978 0.34215
 C1962 C 0.28450 -0.02496 0.33653
 N1963 N 0.29632 -0.01753 0.34540
 C1964 C 0.30185 -0.02422 0.35965
 C1965 C 0.29530 -0.03914 0.36539
 N1966 N 0.28335 -0.04654 0.35641
 N1967 N 0.26607 -0.04725 0.33312
 C1968 C 0.26076 -0.04062 0.31871
 C1969 C 0.26751 -0.02580 0.31297
 N1970 N 0.27925 -0.01836 0.32214
 H1971 H 0.31134 -0.01790 0.36629
 H1972 H 0.25151 -0.04698 0.31173
 C1973 C -0.03171 -0.02448 -0.09852
 C1974 C -0.01844 -0.03273 -0.09126
 N1975 N -0.01226 -0.04645 -0.09850
 C1976 C -0.01879 -0.05235 -0.11265
 C1977 C -0.03235 -0.04429 -0.11982
 N1978 N -0.03837 -0.03047 -0.11249
 N1979 N -0.03790 -0.01075 -0.09137
 C1980 C -0.03158 -0.00499 -0.07711
 C1981 C -0.01854 -0.01346 -0.06949
 N1982 N -0.01224 -0.02714 -0.07686
 H1983 H -0.01356 -0.06338 -0.11796
 H1984 H -0.03702 0.00586 -0.07160
 C1985 C -0.04129 0.47317 0.40845
 C1986 C -0.02692 0.46553 0.41402
 N1987 N -0.02070 0.45251 0.40568
 C1988 C -0.02819 0.44670 0.39200
 C1989 C -0.04267 0.45426 0.38626
 N1990 N -0.04880 0.46742 0.39472
 N1991 N -0.04761 0.48606 0.41699
 C1992 C -0.04026 0.49158 0.43092
 C1993 C -0.02586 0.48388 0.43659
 N1994 N -0.01957 0.47103 0.42788
 H1995 H -0.02277 0.43627 0.38580
 H1996 H -0.04571 0.50174 0.43755
 C1997 C 0.45864 -0.02674 0.40624
 C1998 C 0.47123 -0.03534 0.41433
 N1999 N 0.47652 -0.04998 0.40829
 C2000 C 0.46991 -0.05636 0.39441
 C2001 C 0.45739 -0.04770 0.38616
 N2002 N 0.45201 -0.03310 0.39240
 N2003 N 0.45333 -0.01210 0.41228
 C2004 C 0.46001 -0.00566 0.42610
 C2005 C 0.47261 -0.01425 0.43430
 N2006 N 0.47789 -0.02895 0.42816
 H2007 H 0.47439 -0.06809 0.38993
 H2008 H 0.45537 0.00597 0.43069
 C2009 C 0.47731 0.46372 -0.09454
 C2010 C 0.47054 0.47871 -0.08919
 N2011 N 0.45830 0.48586 -0.09790
 C2012 C 0.45233 0.47860 -0.11163
 C2013 C 0.45877 0.46334 -0.11684
 N2014 N 0.47126 0.45636 -0.10818
 N2015 N 0.48943 0.45648 -0.08568
 C2016 C 0.49488 0.46341 -0.07154
 C2017 C 0.48777 0.47821 -0.06587
 N2018 N 0.47583 0.48553 -0.07500
 H2019 H 0.44252 0.48466 -0.11819
 H2020 H 0.50432 0.45714 -0.06457
 C2021 C 0.47310 0.79335 0.34083
 C2022 C 0.46514 0.77949 0.33448
 N2023 N 0.45168 0.77373 0.34194
 C2024 C 0.44570 0.78120 0.35547
 C2025 C 0.45351 0.79519 0.36196
 N2026 N 0.46713 0.80091 0.35444
 N2027 N 0.48650 0.79913 0.33311
 C2028 C 0.49220 0.79173 0.31928
 C2029 C 0.48409 0.77791 0.31286
 N2030 N 0.47077 0.77217 0.32074
 H2031 H 0.43492 0.77616 0.36097
 H2032 H 0.50278 0.79672 0.31327
 C2033 C -0.03196 0.78832 0.84292
 C2034 C -0.03935 0.77380 0.83733
 N2035 N -0.05214 0.76756 0.84562
 C2036 C -0.05799 0.77522 0.85919
 C2037 C -0.05075 0.78989 0.86479
 N2038 N -0.03780 0.79601 0.85649
 N2039 N -0.01925 0.79462 0.83454
 C2040 C -0.01364 0.78714 0.82076
 C2041 C -0.02108 0.77262 0.81501
 N2042 N -0.03379 0.76632 0.82355
 H2043 H -0.06818 0.76981 0.86546
 H2044 H -0.00359 0.79262 0.81428
 C2045 C 0.40719 0.78763 0.27875
 C2046 C 0.41487 0.77496 0.28766
 N2047 N 0.40831 0.76982 0.30195
 C2048 C 0.39438 0.77676 0.30778
 C2049 C 0.38658 0.78950 0.29893
 N2050 N 0.39325 0.79460 0.28456
 N2051 N 0.41387 0.79283 0.26450
 C2052 C 0.42792 0.78598 0.25879
 C2053 C 0.43576 0.77335 0.26778
 N2054 N 0.42893 0.76818 0.28202
 H2055 H 0.38962 0.77240 0.31928
 H2056 H 0.43300 0.79047 0.24745
 C2057 C -0.09793 0.77171 0.78332
 C2058 C -0.09038 0.77967 0.77018
 N2059 N -0.09724 0.79356 0.76381
 C2060 C -0.11126 0.79993 0.77006
 C2061 C -0.11876 0.79209 0.78337
 N2062 N -0.11187 0.77807 0.78957
 N2063 N -0.09097 0.75799 0.78991
 C2064 C -0.07664 0.75197 0.78412
 C2065 C -0.06883 0.76007 0.77113
 N2066 N -0.07603 0.77370 0.76441
 H2067 H -0.11636 0.81106 0.76475
 H2068 H -0.07127 0.74116 0.78982
 C2069 C 0.84207 0.28852 0.47344
 C2070 C 0.83438 0.27568 0.46498
 N2071 N 0.84118 0.26975 0.45103
 C2072 C 0.85527 0.27610 0.44513
 C2073 C 0.86299 0.28909 0.45349
 N2074 N 0.85611 0.29492 0.46753
 N2075 N 0.83525 0.29456 0.48731
 C2076 C 0.82098 0.28848 0.49303
 C2077 C 0.81302 0.27577 0.48446
 N2078 N 0.82005 0.26965 0.47062
 H2079 H 0.86026 0.27111 0.43395
 H2080 H 0.81579 0.29373 0.50402
 C2081 C 0.84725 0.76977 -0.03523
 C2082 C 0.84206 0.77532 -0.01983
 N2083 N 0.85110 0.78655 -0.01157
 C2084 C 0.86498 0.79268 -0.01814
 C2085 C 0.86988 0.78754 -0.03381
 N2086 N 0.86090 0.77608 -0.04188
 N2087 N 0.83823 0.75865 -0.04358
 C2088 C 0.82403 0.75304 -0.03740
 C2089 C 0.81840 0.75903 -0.02226
 N2090 N 0.82769 0.76997 -0.01376
 H2091 H 0.87176 0.80182 -0.01138
 H2092 H 0.81695 0.74443 -0.04457
 C2093 C -0.09323 -0.02719 -0.04170
 C2094 C -0.08630 -0.03482 -0.02789
 N2095 N -0.09321 -0.04856 -0.02165
 C2096 C -0.10681 -0.05507 -0.02858
 C2097 C -0.11388 -0.04752 -0.04246
 N2098 N -0.10683 -0.03370 -0.04867
 N2099 N -0.08616 -0.01351 -0.04798
 C2100 C -0.07242 -0.00715 -0.04113
 C2101 C -0.06536 -0.01486 -0.02733
 N2102 N -0.07259 -0.02854 -0.02109
 H2103 H -0.11190 -0.06608 -0.02328
 H2104 H -0.06693 0.00361 -0.04656
 C2105 C -0.09142 0.46174 0.47698
 C2106 C -0.08533 0.47638 0.47034
 N2107 N -0.09341 0.48405 0.45798
 C2108 C -0.10736 0.47768 0.45181
 C2109 C -0.11349 0.46292 0.45828
 N2110 N -0.10538 0.45536 0.47083
 N2111 N -0.08305 0.45395 0.48915
 C2112 C -0.06875 0.46009 0.49487
 C2113 C -0.06258 0.47468 0.48807
 N2114 N -0.07114 0.48246 0.47602
 H2115 H -0.11352 0.48415 0.44197
 H2116 H -0.06215 0.45349 0.50435
 C2117 C 0.40073 -0.01944 0.46534
 C2118 C 0.40777 -0.02688 0.47922
 N2119 N 0.40079 -0.04041 0.48581
 C2120 C 0.38713 -0.04694 0.47910
 C2121 C 0.38016 -0.03971 0.46496
 N2122 N 0.38720 -0.02604 0.45852
 N2123 N 0.40775 -0.00598 0.45867
 C2124 C 0.42168 0.00026 0.46510
 C2125 C 0.42903 -0.00743 0.47877
 N2126 N 0.42177 -0.02079 0.48555
 H2127 H 0.38206 -0.05782 0.48468
 H2128 H 0.42717 0.01082 0.45928
 C2129 C 0.40745 0.47431 -0.04194
 C2130 C 0.41431 0.46662 -0.02812
 N2131 N 0.40718 0.45321 -0.02160
 C2132 C 0.39335 0.44708 -0.02816
 C2133 C 0.38615 0.45476 -0.04197
 N2134 N 0.39350 0.46824 -0.04856
 N2135 N 0.41490 0.48767 -0.04847
 C2136 C 0.42892 0.49362 -0.04179
 C2137 C 0.43571 0.48586 -0.02789
 N2138 N 0.42814 0.47255 -0.02148
 H2139 H 0.38820 0.43633 -0.02247
 H2140 H 0.43470 0.50417 -0.04731
 C2141 C 0.35107 0.48111 0.78602
 C2142 C 0.34418 0.47364 0.77215
 N2143 N 0.35154 0.46030 0.76539
 C2144 C 0.36538 0.45389 0.77205
 C2145 C 0.37203 0.46102 0.78628
 N2146 N 0.36475 0.47460 0.79280
 N2147 N 0.34360 0.49435 0.79288
 C2148 C 0.32937 0.50030 0.78666
 C2149 C 0.32217 0.49251 0.77305
 N2150 N 0.32988 0.47942 0.76606
 H2151 H 0.37081 0.44313 0.76644
 H2152 H 0.32353 0.51068 0.79260
 C2153 C 0.34559 -0.02653 0.28731
 C2154 C 0.33955 -0.03347 0.27279
 N2155 N 0.34765 -0.04623 0.26576
 C2156 C 0.36152 -0.05244 0.27258
 C2157 C 0.36762 -0.04562 0.28722
 N2158 N 0.35944 -0.03275 0.29420
 N2159 N 0.33737 -0.01386 0.29442
 C2160 C 0.32329 -0.00790 0.28773
 C2161 C 0.31708 -0.01497 0.27326
 N2162 N 0.32548 -0.02759 0.26616
 H2163 H 0.36757 -0.06267 0.26664
 H2164 H 0.31690 0.00206 0.29382
 C2165 C 0.15899 0.53640 0.72516
 C2166 C 0.16743 0.52445 0.71604
 N2167 N 0.16098 0.51902 0.70172
 C2168 C 0.14652 0.52508 0.69604
 C2169 C 0.13812 0.53726 0.70502
 N2170 N 0.14460 0.54252 0.71946
 N2171 N 0.16549 0.54201 0.73936
 C2172 C 0.18018 0.53638 0.74478
 C2173 C 0.18889 0.52461 0.73555
 N2174 N 0.18218 0.51886 0.72139
 H2175 H 0.14181 0.52052 0.68454
 H2176 H 0.18514 0.54133 0.75604
 C2177 C 0.15711 0.02622 0.21180
 C2178 C 0.16360 0.03382 0.22576
 N2179 N 0.15562 0.04684 0.23252
 C2180 C 0.14143 0.05264 0.22594
 C2181 C 0.13489 0.04515 0.21184
 N2182 N 0.14297 0.03203 0.20518
 N2183 N 0.16516 0.01329 0.20495
 C2184 C 0.17950 0.00767 0.21135
 C2185 C 0.18620 0.01536 0.22528
 N2186 N 0.17794 0.02825 0.23216
 H2187 H 0.13540 0.06300 0.23171
 H2188 H 0.18574 -0.00246 0.20539
 C2189 C 0.59295 0.70818 0.22276
 C2190 C 0.58602 0.72172 0.21451
 N2191 N 0.59288 0.72718 0.20050
 C2192 C 0.60629 0.71964 0.19423
 C2193 C 0.61317 0.70582 0.20224
 N2194 N 0.60632 0.70052 0.21645
 N2195 N 0.58593 0.70268 0.23673
 C2196 C 0.57219 0.70997 0.24269
 C2197 C 0.56501 0.72336 0.23425
 N2198 N 0.57224 0.72890 0.22035
 H2199 H 0.61136 0.72440 0.18303
 H2200 H 0.56672 0.70506 0.25365
 C2201 C 0.09528 0.71896 0.72736
 C2202 C 0.08682 0.73115 0.71846
 N2203 N 0.09328 0.73715 0.70445
 C2204 C 0.10776 0.73133 0.69882
 C2205 C 0.11597 0.71876 0.70748
 N2206 N 0.10954 0.71298 0.72160
 N2207 N 0.08882 0.71282 0.74127
 C2208 C 0.07407 0.71809 0.74657
 C2209 C 0.06526 0.72989 0.73740
 N2210 N 0.07196 0.73624 0.72359
 H2211 H 0.11249 0.73611 0.68746
 H2212 H 0.06908 0.71268 0.75754
 C2213 C 0.65503 0.22330 0.53602
 C2214 C 0.66328 0.21434 0.52391
 N2215 N 0.65778 0.19922 0.51948
 C2216 C 0.64439 0.19267 0.52667
 C2217 C 0.63630 0.20159 0.53898
 N2218 N 0.64186 0.21671 0.54326
 N2219 N 0.66043 0.23834 0.54059
 C2220 C 0.67392 0.24482 0.53374
 C2221 C 0.68250 0.23578 0.52183
 N2222 N 0.67688 0.22073 0.51712
 H2223 H 0.64032 0.18057 0.52300
 H2224 H 0.67807 0.25677 0.53785
 C2225 C 0.65714 0.71568 0.02693
 C2226 C 0.66578 0.72688 0.03669
 N2227 N 0.65991 0.73105 0.05165
 C2228 C 0.64581 0.72449 0.05727
 C2229 C 0.63728 0.71309 0.04756
 N2230 N 0.64322 0.70903 0.03260
 N2231 N 0.66289 0.71144 0.01200
 C2232 C 0.67704 0.71774 0.00641
 C2233 C 0.68600 0.72874 0.01625
 N2234 N 0.68006 0.73309 0.03120
 H2235 H 0.64148 0.72796 0.06927
 H2236 H 0.68140 0.71388 -0.00547
 C2237 C 0.09439 0.02483 0.03374
 C2238 C 0.08821 0.03289 0.01979
 N2239 N 0.09673 0.04541 0.01306
 C2240 C 0.11113 0.05029 0.01967
 C2241 C 0.11728 0.04238 0.03379
 N2242 N 0.10869 0.02980 0.04046
 N2243 N 0.08589 0.01230 0.04047
 C2244 C 0.07139 0.00756 0.03399
 C2245 C 0.06495 0.01582 0.02019
 N2246 N 0.07363 0.02830 0.01340
 H2247 H 0.11751 0.06042 0.01408
 H2248 H 0.06483 -0.00234 0.03981
 C2249 C 0.09707 0.53749 0.52164
 C2250 C 0.09232 0.52193 0.52733
 N2251 N 0.10173 0.51385 0.53841
 C2252 C 0.11567 0.52062 0.54422
 C2253 C 0.12048 0.53635 0.53880
 N2254 N 0.11101 0.54438 0.52750
 N2255 N 0.08746 0.54559 0.51065
 C2256 C 0.07322 0.53893 0.50527
 C2257 C 0.06826 0.52346 0.51123
 N2258 N 0.07809 0.51535 0.52208
 H2259 H 0.12274 0.51371 0.55307
 H2260 H 0.06569 0.54585 0.49675
 C2261 C 0.59155 0.03790 0.52521
 C2262 C 0.58356 0.02599 0.53461
 N2263 N 0.59003 0.02134 0.54924
 C2264 C 0.60409 0.02810 0.55494
 C2265 C 0.61201 0.04026 0.54567
 N2266 N 0.60548 0.04478 0.53096
 N2267 N 0.58510 0.04265 0.51064
 C2268 C 0.57088 0.03622 0.50508
 C2269 C 0.56252 0.02456 0.51461
 N2270 N 0.56920 0.01967 0.52918
 H2271 H 0.60879 0.02423 0.56673
 H2272 H 0.56597 0.04052 0.49351
 C2273 C 0.59217 0.52555 0.04049
 C2274 C 0.58628 0.53259 0.02591
 N2275 N 0.59469 0.54488 0.01867
 C2276 C 0.60873 0.55055 0.02536
 C2277 C 0.61468 0.54367 0.04007
 N2278 N 0.60621 0.53124 0.04725
 N2279 N 0.58357 0.51338 0.04780
 C2280 C 0.56927 0.50805 0.04125
 C2281 C 0.56324 0.51525 0.02672
 N2282 N 0.57202 0.52734 0.01943
 H2283 H 0.61501 0.56043 0.01926
 H2284 H 0.56255 0.49852 0.04748
 C2285 C 0.02530 0.03232 0.09466
 C2286 C 0.03410 0.01965 0.08695
 N2287 N 0.04842 0.01442 0.09364
 C2288 C 0.05435 0.02132 0.10763
 C2289 C 0.04570 0.03426 0.11522
 N2290 N 0.03130 0.03934 0.10849
 N2291 N 0.01105 0.03767 0.08801
 C2292 C 0.00527 0.03110 0.07385
 C2293 C 0.01423 0.01868 0.06575
 N2294 N 0.02844 0.01316 0.07265
 H2295 H 0.06585 0.01695 0.11253
 H2296 H -0.00597 0.03597 0.06872
 C2297 C 0.04229 0.51915 0.59514
 C2298 C 0.02651 0.52399 0.59048
 N2299 N 0.01778 0.53421 0.60023
 C2300 C 0.02417 0.54003 0.61442
 C2301 C 0.04014 0.53556 0.61903
 N2302 N 0.04879 0.52508 0.60928
 N2303 N 0.05101 0.50901 0.58521
 C2304 C 0.04472 0.50370 0.57070
 C2305 C 0.02904 0.50892 0.56583
 N2306 N 0.02034 0.51887 0.57599
 H2307 H 0.01684 0.54823 0.62179
 H2308 H 0.05206 0.49589 0.56288
 C2309 C 0.52625 0.04118 0.59292
 C2310 C 0.53375 0.02753 0.58547
 N2311 N 0.54715 0.02064 0.59249
 C2312 C 0.55347 0.02678 0.60660
 C2313 C 0.54611 0.04060 0.61415
 N2314 N 0.53257 0.04740 0.60702
 N2315 N 0.51291 0.04815 0.58580
 C2316 C 0.50683 0.04218 0.57147
 C2317 C 0.51446 0.02861 0.56382
 N2318 N 0.52776 0.02161 0.57114
 H2319 H 0.56422 0.02089 0.61165
 H2320 H 0.49631 0.04816 0.56600
 C2321 C 0.51806 0.53346 0.09808
 C2322 C 0.52584 0.51967 0.09123
 N2323 N 0.53883 0.51273 0.09898
 C2324 C 0.54456 0.51910 0.11324
 C2325 C 0.53700 0.53313 0.12001
 N2326 N 0.52381 0.53987 0.11228
 N2327 N 0.50529 0.54061 0.09010
 C2328 C 0.50013 0.53475 0.07539
 C2329 C 0.50815 0.52113 0.06832
 N2330 N 0.52074 0.51387 0.07657
 H2331 H 0.55500 0.51332 0.11904
 H2332 H 0.49017 0.54092 0.06911
 C2333 C 0.22647 0.53604 0.65611
 C2334 C 0.21846 0.52317 0.66414
 N2335 N 0.20475 0.51677 0.65740
 C2336 C 0.19862 0.52274 0.64304
 C2337 C 0.20650 0.53584 0.63514
 N2338 N 0.22029 0.54207 0.64192
 N2339 N 0.24009 0.54256 0.66279
 C2340 C 0.24601 0.53697 0.67732
 C2341 C 0.23784 0.52433 0.68567
 N2342 N 0.22427 0.51765 0.67876
 H2343 H 0.18760 0.51751 0.63804
 H2344 H 0.25676 0.54265 0.68245
 C2345 C 0.22612 0.03776 0.15330
 C2346 C 0.21975 0.02300 0.15938
 N2347 N 0.20739 0.01555 0.15127
 C2348 C 0.20099 0.02222 0.13737
 C2349 C 0.20714 0.03716 0.13129
 N2350 N 0.21967 0.04451 0.13944
 N2351 N 0.23837 0.04528 0.16158
 C2352 C 0.24440 0.03882 0.17579
 C2353 C 0.23781 0.02417 0.18209
 N2354 N 0.22567 0.01662 0.17358
 H2355 H 0.19112 0.01593 0.13129
 H2356 H 0.25395 0.04527 0.18227
 C2357 C 0.71055 0.22715 0.59588
 C2358 C 0.72333 0.21842 0.58840
 N2359 N 0.72831 0.20379 0.59481
 C2360 C 0.72108 0.19744 0.60831
 C2361 C 0.70815 0.20605 0.61582
 N2362 N 0.70326 0.22080 0.60937
 N2363 N 0.70542 0.24166 0.58931
 C2364 C 0.71232 0.24776 0.57550
 C2365 C 0.72503 0.23896 0.56780
 N2366 N 0.73023 0.22446 0.57458
 H2367 H 0.72544 0.18575 0.61301
 H2368 H 0.70767 0.25919 0.57040
 C2369 C 0.72188 0.70453 0.08884
 C2370 C 0.71442 0.71866 0.08219
 N2371 N 0.70096 0.72508 0.08938
 C2372 C 0.69452 0.71797 0.10291
 C2373 C 0.70186 0.70371 0.10961
 N2374 N 0.71547 0.69740 0.10238
 N2375 N 0.73522 0.69800 0.08145
 C2376 C 0.74138 0.70489 0.06763
 C2377 C 0.73385 0.71903 0.06087
 N2378 N 0.72055 0.72555 0.06843
 H2379 H 0.68378 0.72345 0.10829
 H2380 H 0.75190 0.69928 0.06191
 C2381 C 0.52577 0.70752 0.15685
 C2382 C 0.53286 0.72175 0.16341
 N2383 N 0.54524 0.72911 0.15548
 C2384 C 0.55092 0.72294 0.14119
 C2385 C 0.54392 0.70866 0.13440
 N2386 N 0.53145 0.70126 0.14248
 N2387 N 0.51343 0.70017 0.16504
 C2388 C 0.50795 0.70638 0.17953
 C2389 C 0.51517 0.72062 0.18614
 N2390 N 0.52745 0.72788 0.17780
 H2391 H 0.56090 0.72917 0.13536
 H2392 H 0.49824 0.70018 0.18589
 C2393 C 0.02822 0.70597 0.65891
 C2394 C 0.03534 0.71991 0.66601
 N2395 N 0.04836 0.72695 0.65873
 C2396 C 0.05468 0.72066 0.64468
 C2397 C 0.04767 0.70662 0.63746
 N2398 N 0.03451 0.69966 0.64482
 N2399 N 0.01531 0.69884 0.66637
 C2400 C 0.00925 0.70497 0.68065
 C2401 C 0.01642 0.71892 0.68789
 N2402 N 0.02931 0.72603 0.68025
 H2403 H 0.06505 0.72663 0.63925
 H2404 H -0.00092 0.69889 0.68638
 C2405 C 0.52655 0.64833 0.23191
 C2406 C 0.51269 0.65533 0.22451
 N2407 N 0.50561 0.64767 0.21158
 C2408 C 0.51197 0.63344 0.20546
 C2409 C 0.52626 0.62676 0.21243
 N2410 N 0.53306 0.63432 0.22565
 N2411 N 0.53386 0.65617 0.24460
 C2412 C 0.52819 0.67098 0.24997
 C2413 C 0.51472 0.67840 0.24209
 N2414 N 0.50718 0.67021 0.22967
 H2415 H 0.50624 0.62782 0.19494
 H2416 H 0.53459 0.67720 0.25976
 C2417 C 0.03695 0.64809 0.73262
 C2418 C 0.02129 0.65255 0.72719
 N2419 N 0.01339 0.64279 0.71636
 C2420 C 0.02053 0.62889 0.71044
 C2421 C 0.03648 0.62457 0.71538
 N2422 N 0.04424 0.63426 0.72656
 N2423 N 0.04483 0.65798 0.74342
 C2424 C 0.03786 0.67226 0.74880
 C2425 C 0.02235 0.67703 0.74294
 N2426 N 0.01444 0.66690 0.73233
 H2427 H 0.01379 0.62147 0.70183
 H2428 H 0.04463 0.68007 0.75710
 C2429 C 0.03242 0.09650 0.02890
 C2430 C 0.02182 0.08760 0.03894
 N2431 N 0.01930 0.09266 0.05456
 C2432 C 0.02699 0.10614 0.06063
 C2433 C 0.03786 0.11491 0.05066
 N2434 N 0.04019 0.10985 0.03498
 N2435 N 0.03518 0.09137 0.01337
 C2436 C 0.02808 0.07751 0.00751
 C2437 C 0.01784 0.06822 0.01768
 N2438 N 0.01482 0.07364 0.03315
 H2439 H 0.02484 0.10973 0.07318
 H2440 H 0.03079 0.07355 -0.00484
 C2441 C 0.02348 0.59400 0.53945
 C2442 C 0.02844 0.58967 0.52358
 N2443 N 0.03842 0.59979 0.51520
 C2444 C 0.04405 0.61387 0.52209
 C2445 C 0.03969 0.61797 0.53825
 N2446 N 0.02927 0.60800 0.54647
 N2447 N 0.01356 0.58376 0.54783
 C2448 C 0.00861 0.56925 0.54117
 C2449 C 0.01402 0.56462 0.52547
 N2450 N 0.02371 0.57511 0.51704
 H2451 H 0.05204 0.62161 0.51503
 H2452 H 0.00095 0.56120 0.54830
 C2453 C 0.53002 0.10370 0.52182
 C2454 C 0.51634 0.09717 0.52958
 N2455 N 0.51006 0.10492 0.54287
 C2456 C 0.51697 0.11884 0.54888
 C2457 C 0.53095 0.12519 0.54137
 N2458 N 0.53703 0.11746 0.52792
 N2459 N 0.53647 0.09585 0.50869
 C2460 C 0.53002 0.08153 0.50312
 C2461 C 0.51658 0.07466 0.51117
 N2462 N 0.51000 0.08280 0.52415
 H2463 H 0.51181 0.12458 0.55962
 H2464 H 0.53565 0.07536 0.49283
 C2465 C 0.52878 0.59649 0.03349
 C2466 C 0.53845 0.58779 0.02224
 N2467 N 0.55349 0.59347 0.01859
 C2468 C 0.55931 0.60743 0.02569
 C2469 C 0.54972 0.61604 0.03714
 N2470 N 0.53464 0.61029 0.04072
 N2471 N 0.51376 0.59088 0.03719
 C2472 C 0.50801 0.57682 0.03035
 C2473 C 0.51779 0.56775 0.01937
 N2474 N 0.53281 0.57358 0.01552
 H2475 H 0.57139 0.61155 0.02262
 H2476 H 0.49606 0.57258 0.03381
 C2477 C 0.71904 0.16052 0.53611
 C2478 C 0.71074 0.16826 0.52315
 N2479 N 0.69699 0.16134 0.51704
 C2480 C 0.69113 0.14703 0.52332
 C2481 C 0.69939 0.13923 0.53636
 N2482 N 0.71321 0.14625 0.54238
 N2483 N 0.73268 0.16750 0.54238
 C2484 C 0.73837 0.18197 0.53634
 C2485 C 0.73000 0.18993 0.52346
 N2486 N 0.71636 0.18276 0.51716
 H2487 H 0.68008 0.14192 0.51826
 H2488 H 0.74921 0.18729 0.54169
 C2489 C 0.71380 0.65153 0.02235
 C2490 C 0.72832 0.65738 0.02924
 N2491 N 0.73525 0.64927 0.04204
 C2492 C 0.72827 0.63559 0.04838
 C2493 C 0.71360 0.62973 0.04167
 N2494 N 0.70676 0.63786 0.02870
 N2495 N 0.70678 0.65987 0.00970
 C2496 C 0.71355 0.67390 0.00375
 C2497 C 0.72800 0.67991 0.01081
 N2498 N 0.73502 0.67137 0.02337
 H2499 H 0.73411 0.62953 0.05865
 H2500 H 0.70750 0.68046 -0.00613
 C2501 C 0.22589 0.60309 0.71865
 C2502 C 0.21681 0.59503 0.73071
 N2503 N 0.20196 0.60107 0.73486
 C2504 C 0.19570 0.61472 0.72742
 C2505 C 0.20464 0.62268 0.71509
 N2506 N 0.21960 0.61664 0.71109
 N2507 N 0.24065 0.59695 0.71433
 C2508 C 0.24663 0.58294 0.72132
 C2509 C 0.23736 0.57452 0.73309
 N2510 N 0.22267 0.58092 0.73758
 H2511 H 0.18374 0.61903 0.73089
 H2512 H 0.25831 0.57819 0.71735
 C2513 C 0.21785 0.09741 0.22512
 C2514 C 0.23155 0.09050 0.21752
 N2515 N 0.23827 0.09826 0.20451
 C2516 C 0.23182 0.11261 0.19866
 C2517 C 0.21796 0.11948 0.20614
 N2518 N 0.21140 0.11168 0.21927
 N2519 N 0.21093 0.08950 0.23792
 C2520 C 0.21696 0.07481 0.24335
 C2521 C 0.23052 0.06768 0.23556
 N2522 N 0.23753 0.07583 0.22288
 H2523 H 0.23737 0.11844 0.18821
 H2524 H 0.21101 0.06863 0.25339
 C2525 C 0.73215 1.09926 0.71384
 C2526 C 0.72654 1.09335 0.72892
 N2527 N 0.71534 1.10224 0.73736
 C2528 C 0.70924 1.11663 0.73127
 C2529 C 0.71440 1.12230 0.71587
 N2530 N 0.72590 1.11348 0.70764
 N2531 N 0.74328 1.09035 0.70534
 C2532 C 0.74883 1.07560 0.71105
 C2533 C 0.74275 1.06930 0.72586
 N2534 N 0.73185 1.07849 0.73451
 H2535 H 0.70020 1.12329 0.73826
 H2536 H 0.75747 1.06864 0.70381
 C2537 C 0.70550 0.58621 0.22182
 C2538 C 0.71890 0.57864 0.21424
 N2539 N 0.72548 0.58573 0.20080
 C2540 C 0.71926 0.60001 0.19454
 C2541 C 0.70573 0.60765 0.20202
 N2542 N 0.69923 0.60048 0.21556
 N2543 N 0.69879 0.57902 0.23514
 C2544 C 0.70480 0.56455 0.24118
 C2545 C 0.71815 0.55678 0.23354
 N2546 N 0.72488 0.56413 0.22021
 H2547 H 0.72481 0.60519 0.18377
 H2548 H 0.69899 0.55905 0.25168
 C2549 C 0.52444 0.15398 0.70806
 C2550 C 0.53106 0.16056 0.72245
 N2551 N 0.54398 0.15302 0.72971
 C2552 C 0.55072 0.13916 0.72323
 C2553 C 0.54428 0.13239 0.70868
 N2554 N 0.53116 0.14005 0.70150
 N2555 N 0.51162 0.16181 0.70074
 C2556 C 0.50525 0.17602 0.70710
 C2557 C 0.51205 0.18277 0.72145
 N2558 N 0.52477 0.17470 0.72873
 H2559 H 0.56105 0.13367 0.72946
 H2560 H 0.49521 0.18210 0.70086
 C2561 C 1.03881 0.15872 0.21941
 C2562 C 1.02737 0.16733 0.20980
 N2563 N 1.02249 0.16079 0.19529
 C2564 C 1.02854 0.14605 0.18996
 C2565 C 1.04009 0.13740 0.19954
 N2566 N 1.04489 0.14405 0.21409
 N2567 N 1.04381 0.16523 0.23386
 C2568 C 1.03794 0.18001 0.23913
 C2569 C 1.02652 0.18883 0.22953
 N2570 N 1.02151 0.18218 0.21502
 H2571 H 1.02447 0.14128 0.17829
 H2572 H 1.04230 0.18487 0.25067
 C2573 C 0.21727 0.65410 0.52865
 C2574 C 0.22751 0.66284 0.53935
 N2575 N 0.22960 0.65736 0.55492
 C2576 C 0.22200 0.64353 0.56024
 C2577 C 0.21169 0.63477 0.54955
 N2578 N 0.20958 0.64036 0.53398
 N2579 N 0.21513 0.65953 0.51310
 C2580 C 0.22255 0.67342 0.50780
 C2581 C 0.23256 0.68249 0.51855
 N2582 N 0.23485 0.67686 0.53413
 H2583 H 0.22388 0.63956 0.57274
 H2584 H 0.22034 0.67750 0.49537
 C2585 C 0.22853 0.15223 1.03709
 C2586 C 0.22197 0.15817 1.02230
 N2587 N 0.21050 0.14930 1.01432
 C2588 C 0.20516 0.13479 1.02049
 C2589 C 0.21144 0.12889 1.03548
 N2590 N 0.22305 0.13781 1.04340
 N2591 N 0.24002 0.16115 1.04505
 C2592 C 0.24514 0.17583 1.03896
 C2593 C 0.23830 0.18200 1.02432
 N2594 N 0.22688 0.17291 1.01635
 H2595 H 0.19584 0.12818 1.01387
 H2596 H 0.25408 0.18281 1.04575
 C2597 C 0.22320 0.71473 0.59443
 C2598 C 0.21338 0.72606 0.58577
 N2599 N 0.19827 0.72974 0.59131
 C2600 C 0.19259 0.72276 0.60524
 C2601 C 0.20246 0.71153 0.61405
 N2602 N 0.21753 0.70772 0.60833
 N2603 N 0.23828 0.71099 0.58884
 C2604 C 0.24395 0.71795 0.57490
 C2605 C 0.23408 0.72919 0.56608
 N2606 N 0.21900 0.73298 0.57181
 H2607 H 0.18047 0.72591 0.60933
 H2608 H 0.25594 0.71451 0.57061
 C2609 C 0.23148 0.22016 1.10054
 C2610 C 0.22388 0.23401 1.09351
 N2611 N 0.21096 0.24111 1.10111
 C2612 C 0.20511 0.23485 1.11534
 C2613 C 0.21242 0.22068 1.12222
 N2614 N 0.22555 0.21379 1.11464
 N2615 N 0.24424 0.21289 1.09280
 C2616 C 0.24957 0.21866 1.07816
 C2617 C 0.24166 0.23225 1.07079
 N2618 N 0.22906 0.23966 1.07881
 H2619 H 0.19466 0.24067 1.12094
 H2620 H 0.25949 0.21234 1.07209
 C2621 C 0.70473 0.52109 0.15860
 C2622 C 0.71825 0.52842 0.16614
 N2623 N 0.72511 0.54184 0.15922
 C2624 C 0.71914 0.54826 0.14503
 C2625 C 0.70560 0.54095 0.13736
 N2626 N 0.69870 0.52751 0.14442
 N2627 N 0.69783 0.50771 0.16564
 C2628 C 0.70379 0.50138 0.17991
 C2629 C 0.71731 0.50876 0.18754
 N2630 N 0.72417 0.52215 0.18038
 H2631 H 0.72489 0.55901 0.13994
 H2632 H 0.69786 0.49087 0.18535
 C2633 C 0.71531 1.02776 0.65199
 C2634 C 0.72920 1.03565 0.65812
 N2635 N 0.73508 1.04902 0.65019
 C2636 C 0.72766 1.05494 0.63645
 C2637 C 0.71360 1.04719 0.63033
 N2638 N 0.70784 1.03370 0.63831
 N2639 N 0.70930 1.01452 0.66004
 C2640 C 0.71645 1.00890 0.67405
 C2641 C 0.73025 1.01693 0.68040
 N2642 N 0.73631 1.03011 0.67214
 H2643 H 0.73266 1.06566 0.63052
 H2644 H 0.71118 0.99849 0.68032
 C2645 C 0.52381 0.22584 0.64917
 C2646 C 0.53392 0.23554 0.65909
 N2647 N 0.54941 0.23854 0.65432
 C2648 C 0.55534 0.23204 0.64019
 C2649 C 0.54537 0.22187 0.63052
 N2650 N 0.52977 0.21920 0.63523
 N2651 N 0.50843 0.22254 0.65401
 C2652 C 0.50279 0.22818 0.66856
 C2653 C 0.51307 0.23739 0.67886
 N2654 N 0.52836 0.24103 0.67373
 H2655 H 0.56782 0.23442 0.63687
 H2656 H 0.49058 0.22499 0.67227
 C2657 C 1.04303 0.23109 0.15578
 C2658 C 1.02824 0.22482 0.16145
 N2659 N 1.02090 0.21237 0.15330
 C2660 C 1.02785 0.20561 0.13985
 C2661 C 1.04296 0.21143 0.13437
 N2662 N 1.05010 0.22424 0.14238
 N2663 N 1.05042 0.24340 0.16424
 C2664 C 1.04381 0.24947 0.17828
 C2665 C 1.02925 0.24277 0.18423
 N2666 N 1.02180 0.23070 0.17549
 H2667 H 1.02167 0.19566 0.13368
 H2668 H 1.05017 0.25897 0.18501
 C2669 C 0.59116 0.22015 0.71250
 C2670 C 0.58249 0.20898 0.72223
 N2671 N 0.58833 0.19340 0.72420
 C2672 C 0.60247 0.18852 0.71699
 C2673 C 0.61116 0.19969 0.70721
 N2674 N 0.60520 0.21526 0.70519
 N2675 N 0.58544 0.23573 0.71052
 C2676 C 0.57133 0.24065 0.71763
 C2677 C 0.56235 0.22948 0.72717
 N2678 N 0.56825 0.21384 0.72928
 H2679 H 0.60682 0.17601 0.71882
 H2680 H 0.56702 0.25313 0.71555
 C2681 C 1.10231 0.22949 0.22242
 C2682 C 1.09347 0.21895 0.23264
 N2683 N 1.09891 0.20333 0.23524
 C2684 C 1.11274 0.19771 0.22800
 C2685 C 1.12148 0.20814 0.21750
 N2686 N 1.11601 0.22384 0.21504
 N2687 N 1.09678 0.24504 0.21965
 C2688 C 1.08262 0.25046 0.22634
 C2689 C 1.07340 0.23976 0.23614
 N2690 N 1.07921 0.22427 0.23918
 H2691 H 1.11661 0.18512 0.23018
 H2692 H 1.07835 0.26281 0.22357
 C2693 C 0.15994 0.71904 0.53756
 C2694 C 0.16842 0.70859 0.52678
 N2695 N 0.16306 0.69300 0.52436
 C2696 C 0.14960 0.68742 0.53215
 C2697 C 0.14106 0.69787 0.54296
 N2698 N 0.14654 0.71346 0.54541
 N2699 N 0.16528 0.73458 0.54008
 C2700 C 0.17882 0.74014 0.53248
 C2701 C 0.18758 0.72966 0.52185
 N2702 N 0.18206 0.71408 0.51922
 H2703 H 0.14572 0.67489 0.52999
 H2704 H 0.18285 0.75256 0.53498
 C2705 C 0.15783 0.22174 1.04012
 C2706 C 0.16449 0.21370 1.02649
 N2707 N 0.15649 0.20083 1.01966
 C2708 C 0.14214 0.19555 1.02591
 C2709 C 0.13547 0.20346 1.03971
 N2710 N 0.14354 0.21645 1.04641
 N2711 N 0.16590 0.23454 1.04702
 C2712 C 0.18041 0.23961 1.04096
 C2713 C 0.18723 0.23147 1.02737
 N2714 N 0.17900 0.21870 1.02047
 H2715 H 0.13615 0.18521 1.02020
 H2716 H 0.18661 0.24975 1.04683
 C2717 C 0.64602 0.52264 0.21861
 C2718 C 0.65460 0.53178 0.23034
 N2719 N 0.64953 0.54728 0.23413
 C2720 C 0.63625 0.55409 0.22664
 C2721 C 0.62775 0.54499 0.21475
 N2722 N 0.63287 0.52944 0.21111
 N2723 N 0.65116 0.50725 0.21461
 C2724 C 0.66472 0.50063 0.22164
 C2725 C 0.67360 0.50987 0.23315
 N2726 N 0.66821 0.52523 0.23730
 H2727 H 0.63256 0.56650 0.22983
 H2728 H 0.66872 0.48843 0.21797
 C2729 C 0.65983 1.03792 0.72534
 C2730 C 0.66560 1.02304 0.71871
 N2731 N 0.65677 1.01525 0.70704
 C2732 C 0.64249 1.02175 0.70149
 C2733 C 0.63675 1.03688 0.70778
 N2734 N 0.64557 1.04453 0.71973
 N2735 N 0.66884 1.04574 0.73692
 C2736 C 0.68347 1.03948 0.74197
 C2737 C 0.68949 1.02477 0.73501
 N2738 N 0.68024 1.01689 0.72361
 H2739 H 0.63584 1.01515 0.69217
 H2740 H 0.69049 1.04616 0.75100
 C2741 C 0.83607 0.46226 0.28074
 C2742 C 0.82749 0.47402 0.28995
 N2743 N 0.83392 0.47943 0.30431
 C2744 C 0.84851 0.47357 0.30992
 C2745 C 0.85708 0.46165 0.30077
 N2746 N 0.85057 0.45638 0.28634
 N2747 N 0.82964 0.45668 0.26648
 C2748 C 0.81489 0.46217 0.26106
 C2749 C 0.80605 0.47376 0.27035
 N2750 N 0.81268 0.47947 0.28459
 H2751 H 0.85323 0.47809 0.32144
 H2752 H 0.81004 0.45729 0.24974
 C2753 C 0.84983 0.96294 0.77110
 C2754 C 0.84368 0.97751 0.77804
 N2755 N 0.85143 0.98437 0.79102
 C2756 C 0.86505 0.97729 0.79747
 C2757 C 0.87123 0.96256 0.79070
 N2758 N 0.86344 0.95579 0.77758
 N2759 N 0.84189 0.95599 0.75825
 C2760 C 0.82794 0.96286 0.75215
 C2761 C 0.82161 0.97735 0.75927
 N2762 N 0.82977 0.98430 0.77203
 H2763 H 0.87084 0.98309 0.80786
 H2764 H 0.82171 0.95688 0.74210
 C2765 C 0.40502 0.28850 0.77761
 C2766 C 0.41354 0.27714 0.78752
 N2767 N 0.40856 0.27451 0.80307
 C2768 C 0.39534 0.28256 0.80912
 C2769 C 0.38656 0.29380 0.79918
 N2770 N 0.39174 0.29656 0.78362
 N2771 N 0.41020 0.29130 0.76214
 C2772 C 0.42359 0.28341 0.75620
 C2773 C 0.43226 0.27210 0.76614
 N2774 N 0.42692 0.26922 0.78161
 H2775 H 0.39183 0.28020 0.82163
 H2776 H 0.42756 0.28615 0.74389
 C2777 C 0.90890 0.28366 0.27615
 C2778 C 0.91659 0.27034 0.28407
 N2779 N 0.90955 0.26350 0.29740
 C2780 C 0.89516 0.26942 0.30321
 C2781 C 0.88751 0.28289 0.29538
 N2782 N 0.89462 0.28963 0.28199
 N2783 N 0.91594 0.29061 0.26290
 C2784 C 0.93047 0.28495 0.25728
 C2785 C 0.93840 0.27176 0.26534
 N2786 N 0.93116 0.26473 0.27854
 H2787 H 0.88993 0.26376 0.31391
 H2788 H 0.93588 0.29093 0.24682
 C2789 C 0.34493 0.78709 0.47373
 C2790 C 0.33580 0.77758 0.46265
 N2791 N 0.33997 0.77732 0.44665
 C2792 C 0.35291 0.78599 0.44119
 C2793 C 0.36226 0.79544 0.45222
 N2794 N 0.35794 0.79580 0.46830
 N2795 N 0.34048 0.78757 0.48969
 C2796 C 0.32721 0.77924 0.49499
 C2797 C 0.31788 0.76991 0.48386
 N2798 N 0.32253 0.76928 0.46792
 H2799 H 0.35573 0.78554 0.42830
 H2800 H 0.32372 0.78023 0.50771
 C2801 C 0.34134 0.27927 0.95851
 C2802 C 0.33458 0.28797 0.97171
 N2803 N 0.34192 0.30189 0.97709
 C2804 C 0.35572 0.30752 0.96994
 C2805 C 0.36267 0.29884 0.95671
 N2806 N 0.35517 0.28488 0.95131
 N2807 N 0.33391 0.26539 0.95308
 C2808 C 0.32004 0.25983 0.96020
 C2809 C 0.31318 0.26851 0.97347
 N2810 N 0.32072 0.28244 0.97884
 H2811 H 0.36108 0.31873 0.97454
 H2812 H 0.31440 0.24879 0.95547
 C2813 C 0.77014 0.46145 0.34860
 C2814 C 0.77777 0.47420 0.34002
 N2815 N 0.79200 0.48038 0.34566
 C2816 C 0.79904 0.47433 0.35950
 C2817 C 0.79155 0.46141 0.36808
 N2818 N 0.77718 0.45535 0.36241
 N2819 N 0.75606 0.45506 0.34272
 C2820 C 0.74939 0.46070 0.32849
 C2821 C 0.75720 0.47327 0.31971
 N2822 N 0.77118 0.47976 0.32582
 H2823 H 0.81046 0.47949 0.36353
 H2824 H 0.73835 0.45512 0.32391
 C2825 C 0.79566 0.97167 0.83827
 C2826 C 0.78115 0.96520 0.83195
 N2827 N 0.77361 0.95285 0.83999
 C2828 C 0.77989 0.94661 0.85411
 C2829 C 0.79447 0.95299 0.86058
 N2830 N 0.80200 0.96545 0.85243
 N2831 N 0.80323 0.98396 0.83004
 C2832 C 0.79696 0.99001 0.81576
 C2833 C 0.78241 0.98347 0.80938
 N2834 N 0.77491 0.97120 0.81774
 H2835 H 0.77346 0.93677 0.86010
 H2836 H 0.80335 0.99967 0.80939
 C2837 C 0.28498 0.77479 0.40483
 C2838 C 0.27125 0.78306 0.41107
 N2839 N 0.26492 0.79612 0.40273
 C2840 C 0.27174 0.80132 0.38851
 C2841 C 0.28573 0.79327 0.38249
 N2842 N 0.29195 0.78016 0.39085
 N2843 N 0.29124 0.76162 0.41292
 C2844 C 0.28456 0.75642 0.42712
 C2845 C 0.27111 0.76495 0.43379
 N2846 N 0.26471 0.77809 0.42549
 H2847 H 0.26653 0.81186 0.38222
 H2848 H 0.29001 0.74593 0.43332
 C2849 C 0.27187 0.28418 0.90655
 C2850 C 0.28008 0.27034 0.91296
 N2851 N 0.29371 0.26467 0.90554
 C2852 C 0.29965 0.27227 0.89208
 C2853 C 0.29169 0.28638 0.88574
 N2854 N 0.27787 0.29192 0.89314
 N2855 N 0.25835 0.28996 0.91417
 C2856 C 0.25284 0.28270 0.92807
 C2857 C 0.26135 0.26912 0.93480
 N2858 N 0.27473 0.26323 0.92691
 H2859 H 0.31063 0.26741 0.88666
 H2860 H 0.24226 0.28786 0.93408
 C2861 C 0.46016 0.27264 0.84209
 C2862 C 0.47370 0.28079 0.83563
 N2863 N 0.47948 0.29435 0.84332
 C2864 C 0.47243 0.30012 0.85722
 C2865 C 0.45883 0.29203 0.86382
 N2866 N 0.45299 0.27844 0.85597
 N2867 N 0.45435 0.25911 0.83430
 C2868 C 0.46133 0.25347 0.82028
 C2869 C 0.47477 0.26177 0.81358
 N2870 N 0.48061 0.27526 0.82155
 H2871 H 0.47733 0.31106 0.86288
 H2872 H 0.45622 0.24280 0.81428
 C2873 C 0.96404 0.27791 0.34332
 C2874 C 0.97733 0.28667 0.33716
 N2875 N 0.98241 0.30044 0.34498
 C2876 C 0.97482 0.30592 0.35869
 C2877 C 0.96140 0.29726 0.36493
 N2878 N 0.95637 0.28339 0.35702
 N2879 N 0.95887 0.26423 0.33534
 C2880 C 0.96631 0.25898 0.32141
 C2881 C 0.97954 0.26786 0.31509
 N2882 N 0.98471 0.28151 0.32324
 H2883 H 0.97921 0.31700 0.36448
 H2884 H 0.96173 0.24818 0.31519
 C2885 C 0.47164 0.33958 0.79217
 C2886 C 0.46063 0.33070 0.78242
 N2887 N 0.44479 0.33535 0.78177
 C2888 C 0.43947 0.34874 0.79015
 C2889 C 0.45052 0.35807 0.79949
 N2890 N 0.46638 0.35314 0.80043
 N2891 N 0.48744 0.33461 0.79302
 C2892 C 0.49268 0.32112 0.78459
 C2893 C 0.48165 0.31234 0.77471
 N2894 N 0.46588 0.31740 0.77391
 H2895 H 0.42673 0.35212 0.78933
 H2896 H 0.50528 0.31725 0.78566
 C2897 C 0.97028 0.34736 0.28656
 C2898 C 0.96301 0.34049 0.27259
 N2899 N 0.94954 0.34783 0.26605
 C2900 C 0.94298 0.36168 0.27288
 C2901 C 0.95017 0.36849 0.28700
 N2902 N 0.96371 0.36109 0.29340
 N2903 N 0.98366 0.34008 0.29322
 C2904 C 0.99007 0.32610 0.28667
 C2905 C 0.98273 0.31894 0.27278
 N2906 N 0.96934 0.32642 0.26604
 H2907 H 0.93222 0.36717 0.26741
 H2908 H 1.00067 0.32053 0.29242
 C2909 C 0.27710 0.84413 0.46429
 C2910 C 0.28760 0.83575 0.47518
 N2911 N 0.30283 0.84150 0.47777
 C2912 C 0.30801 0.85534 0.47009
 C2913 C 0.29751 0.86383 0.45925
 N2914 N 0.28228 0.85794 0.45656
 N2915 N 0.26189 0.83833 0.46166
 C2916 C 0.25676 0.82440 0.46922
 C2917 C 0.26734 0.81577 0.47990
 N2918 N 0.28253 0.82177 0.48267
 H2919 H 0.32024 0.85963 0.47241
 H2920 H 0.24465 0.81993 0.46661
 C2921 C 0.27631 0.34332 0.96458
 C2922 C 0.28571 0.33530 0.97662
 N2923 N 0.30032 0.34150 0.98109
 C2924 C 0.30598 0.35548 0.97412
 C2925 C 0.29658 0.36365 0.96210
 N2926 N 0.28195 0.35730 0.95758
 N2927 N 0.26177 0.33692 0.96001
 C2928 C 0.25625 0.32277 0.96689
 C2929 C 0.26574 0.31467 0.97888
 N2930 N 0.28024 0.32123 0.98343
 H2931 H 0.31775 0.36000 0.97789
 H2932 H 0.24473 0.31778 0.96283
 C2933 C 0.77145 0.39549 0.28580
 C2934 C 0.77947 0.40370 0.27310
 N2935 N 0.79398 0.39781 0.26771
 C2936 C 0.80090 0.38411 0.27450
 C2937 C 0.79300 0.37593 0.28738
 N2938 N 0.77838 0.38187 0.29265
 N2939 N 0.75705 0.40149 0.29134
 C2940 C 0.75038 0.41549 0.28493
 C2941 C 0.75854 0.42399 0.27242
 N2942 N 0.77290 0.41775 0.26676
 H2943 H 0.81253 0.37986 0.26997
 H2944 H 0.73902 0.42010 0.28983
   
