data_POSCAR
  _audit_creation_date              2014-09-24
  _audit_creation_method            'ToBaCCo'
  _symmetry_space_group_name_H-M    'P1'
  _symmetry_Int_Tables_number       1
  _symmetry_cell_setting            triclinic
  loop_
  _symmetry_equiv_pos_as_xyz
 x,y,z
_cell_length_a 52.6366
_cell_length_b 52.6366
_cell_length_c 52.6038
_cell_angle_alpha 89.991100
_cell_angle_beta 89.988800
_cell_angle_gamma 89.984000
loop_
  _atom_site_label
  _atom_site_type_symbol
  _atom_site_fract_x
  _atom_site_fract_y
  _atom_site_fract_z
C1 C 0.33701 1.37098 0.33727
 C2 C 0.34788 1.38159 0.31535
 C3 C 0.36956 1.37060 0.30443
 C4 C 0.38060 1.34900 0.31546
 C5 C 0.36997 1.33816 0.33737
 C6 C 0.34806 1.34915 0.34835
 C7 C 0.31507 1.38158 0.34812
 C8 C 0.30411 1.37057 0.36978
 C9 C 0.31512 1.34898 0.38084
 C10 C 0.33705 1.33814 0.37024
 C11 C 0.34795 1.31628 0.38091
 C12 C 0.36960 1.30537 0.36992
 C13 C 0.38062 1.31630 0.34829
 H14 H 0.33936 1.39824 0.30666
 H15 H 0.39732 1.34051 0.30685
 H16 H 0.30640 1.39823 0.33958
 H17 H 0.30649 1.34047 0.39754
 H18 H 0.33950 1.30760 0.39759
 H19 H 0.39731 1.30763 0.33986
 C20 C 0.33674 0.87070 0.83792
 C21 C 0.34766 0.88132 0.81603
 C22 C 0.36931 0.87032 0.80512
 C23 C 0.38032 0.84871 0.81610
 C24 C 0.36966 0.83784 0.83798
 C25 C 0.34776 0.84884 0.84897
 C26 C 0.31481 0.88131 0.84876
 C27 C 0.30382 0.87027 0.87039
 C28 C 0.31479 0.84864 0.88142
 C29 C 0.33671 0.83780 0.87082
 C30 C 0.34759 0.81590 0.88146
 C31 C 0.36924 0.80498 0.87047
 C32 C 0.38028 0.81595 0.84886
 H33 H 0.33921 0.89798 0.80731
 H34 H 0.39701 0.84027 0.80744
 H35 H 0.30617 0.89798 0.84024
 H36 H 0.30613 0.84012 0.89810
 H37 H 0.33911 0.80720 0.89811
 H38 H 0.39697 0.80728 0.84043
 C39 C 0.83763 1.37076 0.83691
 C40 C 0.84844 1.38137 0.81495
 C41 C 0.87008 1.37037 0.80397
 C42 C 0.88116 1.34878 0.81497
 C43 C 0.87060 1.33795 0.83692
 C44 C 0.84872 1.34895 0.84796
 C45 C 0.81572 1.38136 0.84781
 C46 C 0.80485 1.37036 0.86950
 C47 C 0.81588 1.34880 0.88054
 C48 C 0.83777 1.33796 0.86989
 C49 C 0.84871 1.31611 0.88055
 C50 C 0.87032 1.30518 0.86951
 C51 C 0.88128 1.31609 0.84784
 H52 H 0.83988 1.39801 0.80628
 H53 H 0.89785 1.34029 0.80632
 H54 H 0.80697 1.39798 0.83934
 H55 H 0.80725 1.34036 0.89726
 H56 H 0.84030 1.30744 0.89726
 H57 H 0.89795 1.30741 0.83937
 C58 C 0.83794 0.87085 0.33701
 C59 C 0.84880 0.88148 0.31510
 C60 C 0.87044 0.87048 0.30413
 C61 C 0.88148 0.84885 0.31510
 C62 C 0.87085 0.83798 0.33701
 C63 C 0.84898 0.84899 0.34803
 C64 C 0.81603 0.88145 0.34788
 C65 C 0.80509 0.87042 0.36951
 C66 C 0.81605 0.84882 0.38053
 C67 C 0.83796 0.83796 0.36991
 C68 C 0.84883 0.81607 0.38054
 C69 C 0.87045 0.80513 0.36952
 C70 C 0.88147 0.81608 0.34789
 H71 H 0.84028 0.89816 0.30645
 H72 H 0.89816 0.84034 0.30645
 H73 H 0.80733 0.89811 0.33942
 H74 H 0.80736 0.84035 0.39721
 H75 H 0.84037 0.80738 0.39721
 H76 H 0.89814 0.80739 0.33944
 C77 C 0.66216 0.62924 0.33699
 C78 C 0.65127 0.61862 0.31509
 C79 C 0.62961 0.62964 0.30416
 C80 C 0.61860 0.65126 0.31516
 C81 C 0.62924 0.66211 0.33706
 C82 C 0.65113 0.65109 0.34804
 C83 C 0.68408 0.61863 0.34783
 C84 C 0.69504 0.62965 0.36946
 C85 C 0.68408 0.65125 0.38050
 C86 C 0.66217 0.66210 0.36991
 C87 C 0.65130 0.68399 0.38057
 C88 C 0.62967 0.69493 0.36958
 C89 C 0.61863 0.68400 0.34796
 H90 H 0.65978 0.60196 0.30642
 H91 H 0.60190 0.65976 0.30655
 H92 H 0.69278 0.60198 0.33936
 H93 H 0.69278 0.65970 0.39717
 H94 H 0.65977 0.69267 0.39723
 H95 H 0.60195 0.69269 0.33954
 C96 C 0.66335 0.12954 0.83766
 C97 C 0.65246 0.11892 0.81575
 C98 C 0.63076 0.12988 0.80489
 C99 C 0.61969 0.15142 0.81591
 C100 C 0.63032 0.16229 0.83780
 C101 C 0.65226 0.15134 0.84875
 C102 C 0.68532 0.11898 0.84847
 C103 C 0.69627 0.13000 0.87012
 C104 C 0.68524 0.15157 0.88119
 C105 C 0.66328 0.16237 0.87062
 C106 C 0.65233 0.18421 0.88131
 C107 C 0.63064 0.19507 0.87035
 C108 C 0.61962 0.18412 0.84873
 H109 H 0.66096 0.10231 0.80700
 H110 H 0.60296 0.15983 0.80728
 H111 H 0.69400 0.10235 0.83991
 H112 H 0.69387 0.16008 0.89788
 H113 H 0.66077 0.19291 0.89797
 H114 H 0.60290 0.19275 0.84032
 C115 C 1.16314 0.62918 0.83788
 C116 C 1.15225 0.61854 0.81599
 C117 C 1.13060 0.62954 0.80507
 C118 C 1.11958 0.65115 0.81603
 C119 C 1.13022 0.66203 0.83791
 C120 C 1.15211 0.65104 0.84891
 C121 C 1.18505 0.61857 0.84874
 C122 C 1.19603 0.62960 0.87037
 C123 C 1.18506 0.65123 0.88139
 C124 C 1.16314 0.66208 0.87077
 C125 C 1.15224 0.68398 0.88139
 C126 C 1.13059 0.69488 0.87038
 C127 C 1.11958 0.68391 0.84878
 H128 H 1.16070 0.60188 0.80729
 H129 H 1.10289 0.65958 0.80736
 H130 H 1.19370 0.60189 0.84022
 H131 H 1.19370 0.65975 0.89806
 H132 H 1.16069 0.69269 0.89805
 H133 H 1.10289 0.69257 0.84033
 C134 C 1.16330 0.12936 0.33681
 C135 C 1.15243 0.11874 0.31489
 C136 C 1.13075 0.12974 0.30396
 C137 C 1.11971 0.15134 0.31498
 C138 C 1.13034 0.16219 0.33688
 C139 C 1.15224 0.15119 0.34787
 C140 C 1.18522 0.11875 0.34767
 C141 C 1.19616 0.12975 0.36935
 C142 C 1.18515 0.15135 0.38039
 C143 C 1.16324 0.16219 0.36976
 C144 C 1.15232 0.18405 0.38043
 C145 C 1.13068 0.19497 0.36944
 C146 C 1.11968 0.18404 0.34780
 H147 H 1.16095 0.10209 0.30622
 H148 H 1.10300 0.15983 0.30637
 H149 H 1.19390 0.10209 0.33915
 H150 H 1.19376 0.15985 0.39709
 H151 H 1.16076 0.19272 0.39712
 H152 H 1.10299 0.19271 0.33937
 C153 C 0.66317 1.37071 0.66226
 C154 C 0.65225 1.38133 0.68415
 C155 C 0.63057 1.37035 0.69503
 C156 C 0.61954 1.34879 0.68402
 C157 C 0.63020 1.33792 0.66214
 C158 C 0.65212 1.34888 0.65118
 C159 C 0.68512 1.38128 0.65144
 C160 C 0.69611 1.37026 0.62980
 C161 C 0.68512 1.34867 0.61874
 C162 C 0.66317 1.33785 0.62932
 C163 C 0.65226 1.31599 0.61865
 C164 C 0.63058 1.30511 0.62962
 C165 C 0.61954 1.31607 0.65123
 H166 H 0.66072 1.39796 0.69289
 H167 H 0.60283 1.34037 0.69266
 H168 H 0.69378 1.39793 0.65999
 H169 H 0.69377 1.34015 0.60206
 H170 H 0.66073 1.30729 0.60199
 H171 H 0.60283 1.30743 0.65964
 C172 C 0.66208 0.87081 1.16301
 C173 C 0.65120 0.88145 1.18492
 C174 C 0.62956 0.87045 1.19588
 C175 C 0.61855 0.84881 1.18491
 C176 C 0.62919 0.83794 1.16301
 C177 C 0.65106 0.84895 1.15199
 C178 C 0.68398 0.88142 1.15213
 C179 C 0.69493 0.87040 1.13051
 C180 C 0.68399 0.84878 1.11949
 C181 C 0.66209 0.83792 1.13012
 C182 C 0.65123 0.81603 1.11949
 C183 C 0.62960 0.80510 1.13051
 C184 C 0.61857 0.81605 1.15213
 H185 H 0.65971 0.89813 1.19356
 H186 H 0.60186 0.84031 1.19355
 H187 H 0.69267 0.89808 1.16059
 H188 H 0.69268 0.84032 1.10282
 H189 H 0.65969 0.80734 1.10282
 H190 H 0.60190 0.80737 1.16058
 C191 C 1.16276 1.37108 1.16171
 C192 C 1.15185 1.38172 1.18359
 C193 C 1.13017 1.37075 1.19447
 C194 C 1.11913 1.34919 1.18349
 C195 C 1.12979 1.33830 1.16161
 C196 C 1.15172 1.34925 1.15065
 C197 C 1.18472 1.38163 1.15091
 C198 C 1.19574 1.37058 1.12931
 C199 C 1.18475 1.34898 1.11825
 C200 C 1.16278 1.33819 1.12881
 C201 C 1.15189 1.31631 1.11818
 C202 C 1.13021 1.30544 1.12915
 C203 C 1.11915 1.31643 1.15073
 H204 H 1.16032 1.39835 1.19233
 H205 H 1.10242 1.34077 1.19214
 H206 H 1.19338 1.39828 1.15946
 H207 H 1.19343 1.34043 1.10161
 H208 H 1.16038 1.30757 1.10155
 H209 H 1.10244 1.30779 1.15915
 C210 C 1.16321 0.87068 0.66207
 C211 C 1.15230 0.88132 0.68396
 C212 C 1.13064 0.87034 0.69486
 C213 C 1.11962 0.84875 0.68389
 C214 C 1.13027 0.83786 0.66201
 C215 C 1.15218 0.84883 0.65103
 C216 C 1.18514 0.88126 0.65124
 C217 C 1.19614 0.87022 0.62962
 C218 C 1.18518 0.84860 0.61859
 C219 C 1.16324 0.83778 0.62918
 C220 C 1.15235 0.81589 0.61855
 C221 C 1.13068 0.80500 0.62955
 C222 C 1.11964 0.81599 0.65114
 H223 H 1.16075 0.89797 0.69267
 H224 H 1.10292 0.84032 0.69255
 H225 H 1.19378 0.89793 0.65976
 H226 H 1.19384 0.84007 0.60192
 H227 H 1.16082 0.80716 0.60191
 H228 H 1.10294 0.80734 0.65957
 C229 C 0.33845 0.62860 0.66147
 C230 C 0.34928 0.61799 0.68339
 C231 C 0.37085 0.62902 0.69439
 C232 C 0.38188 0.65064 0.68346
 C233 C 0.37130 0.66151 0.66154
 C234 C 0.34947 0.65048 0.65047
 C235 C 0.31656 0.61800 0.65059
 C236 C 0.30562 0.62905 0.62898
 C237 C 0.31657 0.65067 0.61796
 C238 C 0.33845 0.66152 0.62860
 C239 C 0.34930 0.68345 0.61802
 C240 C 0.37088 0.69440 0.62909
 C241 C 0.38189 0.68344 0.65071
 H242 H 0.34081 0.60133 0.69208
 H243 H 0.39851 0.65911 0.69221
 H244 H 0.30786 0.60134 0.65904
 H245 H 0.30787 0.65915 0.60131
 H246 H 0.34084 0.69217 0.60136
 H247 H 0.39852 0.69215 0.65921
 C248 C 0.33790 0.12894 1.16289
 C249 C 0.34872 0.11834 1.18484
 C250 C 0.37034 0.12935 1.19582
 C251 C 0.38140 0.15095 1.18482
 C252 C 0.37082 0.16178 1.16288
 C253 C 0.34897 0.15077 1.15184
 C254 C 0.31601 0.11834 1.15200
 C255 C 0.30511 0.12935 1.13034
 C256 C 0.31610 0.15093 1.11929
 C257 C 0.33799 0.16177 1.12993
 C258 C 0.34889 0.18364 1.11929
 C259 C 0.37049 0.19458 1.13033
 C260 C 0.38147 0.18366 1.15199
 H261 H 0.34018 0.10169 1.19351
 H262 H 0.39807 0.15946 1.19348
 H263 H 0.30727 0.10171 1.16047
 H264 H 0.30745 0.15938 1.10260
 H265 H 0.34046 0.19233 1.10260
 H266 H 0.39812 0.19235 1.16046
 C267 C 0.83846 0.62868 1.16145
 C268 C 0.84938 0.61803 1.18332
 C269 C 0.87101 0.62905 1.19422
 C270 C 0.88201 0.65066 1.18326
 C271 C 0.87134 0.66155 1.16139
 C272 C 0.84945 0.65055 1.15041
 C273 C 0.81651 0.61810 1.15065
 C274 C 0.80549 0.62918 1.12909
 C275 C 0.81640 0.65080 1.11805
 C276 C 0.83835 0.66163 1.12860
 C277 C 0.84916 0.68356 1.11800
 C278 C 0.87080 0.69448 1.12899
 C279 C 0.88190 0.68348 1.15054
 H280 H 0.84093 0.60138 1.19203
 H281 H 0.89868 0.65912 1.19193
 H282 H 0.80784 0.60144 1.15913
 H283 H 0.80764 0.65930 1.10144
 H284 H 0.84064 0.69230 1.10139
 H285 H 0.89857 0.69216 1.15898
 C286 C 0.83644 0.12966 0.66341
 C287 C 0.84732 0.11904 0.68534
 C288 C 0.86901 0.13002 0.69625
 C289 C 0.88004 0.15160 0.68522
 C290 C 0.86941 0.16245 0.66331
 C291 C 0.84751 0.15147 0.65234
 C292 C 0.81452 0.11905 0.65255
 C293 C 0.80359 0.13005 0.63086
 C294 C 0.81461 0.15164 0.61981
 C295 C 0.83651 0.16247 0.63043
 C296 C 0.84745 0.18431 0.61974
 C297 C 0.86910 0.19521 0.63072
 C298 C 0.88009 0.18429 0.65237
 H299 H 0.83880 0.10239 0.69402
 H300 H 0.89676 0.16008 0.69381
 H301 H 0.80585 0.10240 0.66108
 H302 H 0.80601 0.16013 0.60309
 H303 H 0.83902 0.19298 0.60304
 H304 H 0.89679 0.19294 0.66079
 C305 C 1.37036 0.33635 0.66366
 C306 C 1.38095 0.34719 0.68561
 C307 C 1.36996 0.36887 0.69655
 C308 C 1.34838 0.37993 0.68552
 C309 C 1.33756 0.36934 0.66358
 C310 C 1.34856 0.34745 0.65258
 C311 C 1.38098 0.31444 0.65277
 C312 C 1.37001 0.30355 0.63106
 C313 C 1.34844 0.31459 0.62000
 C314 C 1.33759 0.33649 0.63064
 C315 C 1.31577 0.34745 0.61994
 C316 C 1.30485 0.36909 0.63094
 C317 C 1.31574 0.38004 0.65262
 H318 H 1.39759 0.33865 0.69430
 H319 H 1.33990 0.39664 0.69412
 H320 H 1.39761 0.30575 0.66131
 H321 H 1.33998 0.30603 0.60326
 H322 H 1.30713 0.33905 0.60322
 H323 H 1.30707 0.39673 0.66106
 C324 C 1.37076 0.83696 1.16200
 C325 C 1.38142 0.84790 1.18386
 C326 C 1.37047 0.86961 1.19470
 C327 C 1.34891 0.88066 1.18370
 C328 C 1.33801 0.86998 1.16185
 C329 C 1.34893 0.84802 1.15093
 C330 C 1.38130 0.81497 1.15122
 C331 C 1.37022 0.80395 1.12964
 C332 C 1.34862 0.81495 1.11858
 C333 C 1.33785 0.83694 1.12912
 C334 C 1.31598 0.84785 1.11847
 C335 C 1.30513 0.86956 1.12942
 C336 C 1.31615 0.88064 1.15096
 H337 H 1.39805 0.83942 1.19260
 H338 H 1.34051 0.89739 1.19231
 H339 H 1.39794 0.80630 1.15977
 H340 H 1.34007 0.80627 1.10194
 H341 H 1.30722 0.83936 1.10185
 H342 H 1.30753 0.89737 1.15936
 C343 C 0.87083 0.33695 1.16203
 C344 C 0.88152 0.34787 1.18388
 C345 C 0.87054 0.36951 1.19481
 C346 C 0.84890 0.38052 1.18390
 C347 C 0.83797 0.36986 1.16206
 C348 C 0.84893 0.34796 1.15105
 C349 C 0.88141 0.31502 1.15118
 C350 C 0.87033 0.30401 1.12960
 C351 C 0.84866 0.31496 1.11862
 C352 C 0.83783 0.33690 1.12924
 C353 C 0.81590 0.34777 1.11867
 C354 C 0.80502 0.36943 1.12969
 C355 C 0.81605 0.38048 1.15124
 H356 H 0.89820 0.33942 1.19255
 H357 H 0.84048 0.39721 1.19258
 H358 H 0.89811 0.30640 1.15966
 H359 H 0.84009 0.30629 1.10199
 H360 H 0.80714 0.33929 1.10205
 H361 H 0.80741 0.39717 1.15970
 C362 C 0.87120 0.83829 0.66167
 C363 C 0.88180 0.84916 0.68358
 C364 C 0.87076 0.87078 0.69451
 C365 C 0.84916 0.88180 0.68353
 C366 C 0.83831 0.87118 0.66163
 C367 C 0.84934 0.84931 0.65062
 C368 C 0.88181 0.81637 0.65083
 C369 C 0.87078 0.80540 0.62922
 C370 C 0.84918 0.81635 0.61817
 C371 C 0.83832 0.83826 0.62876
 C372 C 0.81642 0.84911 0.61813
 C373 C 0.80547 0.87073 0.62914
 C374 C 0.81641 0.88178 0.65075
 H375 H 0.89844 0.84070 0.69230
 H376 H 0.84069 0.89847 0.69222
 H377 H 0.89846 0.80767 0.65932
 H378 H 0.84072 0.80763 0.60152
 H379 H 0.80772 0.84063 0.60148
 H380 H 0.80770 0.89844 0.65920
 C381 C 0.62894 0.66189 0.66185
 C382 C 0.61831 0.65104 0.68376
 C383 C 0.62933 0.62943 0.69472
 C384 C 0.65094 0.61839 0.68378
 C385 C 0.66182 0.62899 0.66186
 C386 C 0.65080 0.65086 0.65083
 C387 C 0.61834 0.68380 0.65097
 C388 C 0.62938 0.69474 0.62936
 C389 C 0.65099 0.68379 0.61833
 C390 C 0.66184 0.66188 0.62895
 C391 C 0.68375 0.65101 0.61835
 C392 C 0.69468 0.62940 0.62939
 C393 C 0.68373 0.61838 0.65101
 H394 H 0.60166 0.65952 0.69246
 H395 H 0.65940 0.60173 0.69249
 H396 H 0.60169 0.69251 0.65944
 H397 H 0.65947 0.69248 0.60167
 H398 H 0.69245 0.65947 0.60168
 H399 H 0.69242 0.60172 0.65948
 C400 C 0.62908 1.16304 1.16192
 C401 C 0.61840 1.15209 1.18376
 C402 C 0.62938 1.13043 1.19466
 C403 C 0.65102 1.11944 1.18372
 C404 C 0.66195 1.13014 1.16188
 C405 C 0.65097 1.15205 1.15091
 C406 C 0.61849 1.18498 1.15111
 C407 C 0.62957 1.19604 1.12955
 C408 C 0.65124 1.18511 1.11853
 C409 C 0.66207 1.16316 1.12911
 C410 C 0.68400 1.15231 1.11851
 C411 C 0.69489 1.13064 1.12949
 C412 C 0.68387 1.11955 1.15104
 H413 H 0.60172 1.16052 1.19245
 H414 H 0.65945 1.10274 1.19238
 H415 H 0.60179 1.19360 1.15962
 H416 H 0.65980 1.19382 1.10191
 H417 H 0.69275 1.16082 1.10190
 H418 H 0.69252 1.10284 1.15946
 C419 C 0.12934 0.66340 1.16330
 C420 C 0.11873 0.65252 1.18523
 C421 C 0.12970 0.63081 1.19612
 C422 C 0.15126 0.61974 1.18506
 C423 C 0.16210 0.63038 1.16315
 C424 C 0.15114 0.65232 1.15220
 C425 C 0.11876 0.68536 1.15248
 C426 C 0.12976 0.69630 1.13080
 C427 C 0.15133 0.68527 1.11971
 C428 C 0.16215 0.66332 1.13030
 C429 C 0.18397 0.65237 1.11959
 C430 C 0.19485 0.63068 1.13055
 C431 C 0.18392 0.61968 1.15219
 H432 H 0.10211 0.66106 1.19394
 H433 H 0.15973 0.60300 1.19363
 H434 H 0.10213 0.69404 1.16103
 H435 H 0.15982 0.69388 1.10300
 H436 H 0.19265 0.66081 1.10290
 H437 H 0.19256 0.60296 1.16060
 C438 C 0.12875 1.16176 0.66268
 C439 C 0.11819 1.15094 0.68465
 C440 C 0.12923 1.12931 0.69561
 C441 C 0.15081 1.11824 0.68457
 C442 C 0.16160 1.12883 0.66261
 C443 C 0.15056 1.15069 0.65159
 C444 C 0.11814 1.18367 0.65180
 C445 C 0.12912 1.19456 0.63012
 C446 C 0.15067 1.18356 0.61904
 C447 C 0.16153 1.16166 0.62966
 C448 C 0.18338 1.15077 0.61898
 C449 C 0.19435 1.12917 0.63000
 C450 C 0.18346 1.11818 0.65168
 H451 H 0.10156 1.15949 0.69335
 H452 H 0.15934 1.10157 0.69321
 H453 H 0.10153 1.19242 0.66031
 H454 H 0.15909 1.19222 0.60233
 H455 H 0.19203 1.15921 0.60228
 H456 H 0.19218 1.10153 0.66013
 C457 C 1.37070 0.66339 0.33693
 C458 C 1.38132 0.65249 0.31502
 C459 C 1.37035 0.63077 0.30415
 C460 C 1.34879 0.61973 0.31522
 C461 C 1.33793 0.63040 0.33710
 C462 C 1.34889 0.65233 0.34804
 C463 C 1.38127 0.68536 0.34774
 C464 C 1.37026 0.69633 0.36940
 C465 C 1.34868 0.68532 0.38048
 C466 C 1.33788 0.66337 0.36991
 C467 C 1.31604 0.65244 0.38062
 C468 C 1.30516 0.63076 0.36967
 C469 C 1.31611 0.61973 0.34806
 H470 H 1.39795 0.66101 0.30631
 H471 H 1.34032 0.60299 0.30666
 H472 H 1.39791 0.69403 0.33918
 H473 H 1.34018 0.69395 0.39717
 H474 H 1.30735 0.66090 0.39729
 H475 H 1.30747 0.60301 0.33967
 C476 C 1.37085 1.16305 0.83796
 C477 C 1.38147 1.15219 0.81604
 C478 C 1.37049 1.13054 0.80512
 C479 C 1.34893 1.11948 0.81611
 C480 C 1.33807 1.13008 0.83803
 C481 C 1.34903 1.15198 0.84903
 C482 C 1.38143 1.18498 0.84881
 C483 C 1.37040 1.19592 0.87048
 C484 C 1.34881 1.18490 0.88153
 C485 C 1.33800 1.16297 0.87091
 C486 C 1.31614 1.15204 0.88156
 C487 C 1.30526 1.13040 0.87055
 C488 C 1.31622 1.11941 0.84892
 H489 H 1.39810 1.16068 0.80730
 H490 H 1.34051 1.10279 0.80744
 H491 H 1.39807 1.19366 0.84028
 H492 H 1.34030 1.19352 0.89822
 H493 H 1.30743 1.16048 0.89824
 H494 H 1.30757 1.10272 0.84047
 C495 C 0.87065 0.66215 0.83799
 C496 C 0.88128 0.65126 0.81610
 C497 C 0.87027 0.62964 0.80516
 C498 C 0.84865 0.61863 0.81611
 C499 C 0.83777 0.62927 0.83800
 C500 C 0.84877 0.65114 0.84902
 C501 C 0.88125 0.68406 0.84885
 C502 C 0.87020 0.69502 0.87045
 C503 C 0.84858 0.68409 0.88147
 C504 C 0.83773 0.66218 0.87087
 C505 C 0.81582 0.65133 0.88148
 C506 C 0.80489 0.62971 0.87047
 C507 C 0.81586 0.61867 0.84887
 H508 H 0.89795 0.65971 0.80740
 H509 H 0.84020 0.60197 0.80742
 H510 H 0.89791 0.69274 0.84039
 H511 H 0.84010 0.69281 0.89813
 H512 H 0.80710 0.65981 0.89813
 H513 H 0.80717 0.60200 0.84041
 C514 C 0.87111 1.16190 0.33740
 C515 C 0.88174 1.15106 0.31549
 C516 C 0.87071 1.12946 0.30448
 C517 C 0.84906 1.11845 0.31543
 C518 C 0.83820 1.12906 0.33735
 C519 C 0.84923 1.15089 0.34840
 C520 C 0.88172 1.18378 0.34831
 C521 C 0.87069 1.19471 0.36994
 C522 C 0.84906 1.18377 0.38094
 C523 C 0.83819 1.16190 0.37029
 C524 C 0.81628 1.15105 0.38088
 C525 C 0.80532 1.12947 0.36982
 C526 C 0.81627 1.11846 0.34819
 H527 H 0.89842 1.15957 0.30686
 H528 H 0.84054 1.10180 0.30675
 H529 H 0.89839 1.19247 0.33987
 H530 H 0.84059 1.19245 0.39761
 H531 H 0.80758 1.15950 0.39755
 H532 H 0.80757 1.10182 0.33971
 C533 C 0.62901 0.33819 0.33751
 C534 C 0.61837 0.34907 0.31561
 C535 C 0.62939 0.37069 0.30463
 C536 C 0.65104 0.38169 0.31558
 C537 C 0.66192 0.37105 0.33748
 C538 C 0.65089 0.34919 0.34851
 C539 C 0.61840 0.31629 0.34839
 C540 C 0.62944 0.30533 0.37000
 C541 C 0.65107 0.31625 0.38100
 C542 C 0.66193 0.33815 0.37037
 C543 C 0.68385 0.34898 0.38097
 C544 C 0.69480 0.37059 0.36993
 C545 C 0.68384 0.38163 0.34833
 H546 H 0.60168 0.34057 0.30698
 H547 H 0.65956 0.39836 0.30692
 H548 H 0.60173 0.30761 0.33995
 H549 H 0.65955 0.30755 0.39765
 H550 H 0.69255 0.34050 0.39762
 H551 H 0.69254 0.39829 0.33986
 C552 C 0.62890 0.83824 0.83822
 C553 C 0.61830 0.84911 0.81630
 C554 C 0.62933 0.87072 0.80535
 C555 C 0.65093 0.88173 0.81631
 C556 C 0.66179 0.87111 0.83822
 C557 C 0.65076 0.84925 0.84925
 C558 C 0.61828 0.81634 0.84908
 C559 C 0.62930 0.80538 0.87070
 C560 C 0.65091 0.81631 0.88173
 C561 C 0.66178 0.83821 0.87112
 C562 C 0.68368 0.84907 0.88174
 C563 C 0.69463 0.87068 0.87071
 C564 C 0.68368 0.88171 0.84909
 H565 H 0.60164 0.84065 0.80759
 H566 H 0.65940 0.89838 0.80761
 H567 H 0.60163 0.80765 0.84061
 H568 H 0.65937 0.80760 0.89840
 H569 H 0.69238 0.84059 0.89840
 H570 H 0.69238 0.89837 0.84062
 C571 C 0.12920 0.33675 0.83792
 C572 C 0.11859 0.34766 0.81602
 C573 C 0.12958 0.36934 0.80514
 C574 C 0.15114 0.38037 0.81616
 C575 C 0.16199 0.36971 0.83806
 C576 C 0.15101 0.34779 0.84901
 C577 C 0.11861 0.31480 0.84872
 C578 C 0.12962 0.30380 0.87036
 C579 C 0.15121 0.31479 0.88144
 C580 C 0.16203 0.33674 0.87088
 C581 C 0.18388 0.34764 0.88155
 C582 C 0.19478 0.36931 0.87059
 C583 C 0.18384 0.38036 0.84898
 H584 H 0.10197 0.33920 0.80726
 H585 H 0.15957 0.39708 0.80753
 H586 H 0.10197 0.30614 0.84016
 H587 H 0.15971 0.30613 0.89812
 H588 H 0.19258 0.33916 0.89822
 H589 H 0.19250 0.39706 0.84057
 C590 C 0.12935 0.83681 0.33695
 C591 C 0.11870 0.84769 0.31504
 C592 C 0.12964 0.86939 0.30413
 C593 C 0.15122 0.88045 0.31514
 C594 C 0.16210 0.86981 0.33703
 C595 C 0.15116 0.84789 0.34801
 C596 C 0.11879 0.81486 0.34780
 C597 C 0.12982 0.80391 0.36945
 C598 C 0.15140 0.81494 0.38049
 C599 C 0.16220 0.83688 0.36989
 C600 C 0.18404 0.84782 0.38055
 C601 C 0.19490 0.86950 0.36957
 C602 C 0.18394 0.88050 0.34794
 H603 H 0.10206 0.83915 0.30637
 H604 H 0.15967 0.89718 0.30654
 H605 H 0.10214 0.80618 0.33928
 H606 H 0.15992 0.80632 0.39719
 H607 H 0.19274 0.83938 0.39722
 H608 H 0.19257 0.89721 0.33952
 O609 O 1.09171 1.02473 1.12707
 O610 O 1.12133 1.02476 1.15671
 C611 C 1.10067 1.03344 1.14772
 C612 C 1.08723 1.05432 1.16100
 C613 C 1.09587 1.06321 1.18466
 H614 H 1.11204 1.05431 1.19380
 O615 O 0.90830 0.97547 1.12680
 O616 O 0.87874 0.97547 1.15652
 C617 C 0.89939 0.96678 1.14749
 C618 C 0.91289 0.94596 1.16079
 C619 C 0.90435 0.93714 1.18451
 H620 H 0.88819 0.94603 1.19369
 O621 O 1.02488 1.12665 1.09206
 O622 O 1.02493 1.15642 1.12156
 C623 C 1.03355 1.14737 1.10089
 C624 C 1.05427 1.16066 1.08724
 C625 C 1.06303 1.18445 1.09561
 H626 H 1.05418 1.19367 1.11177
 O627 O 0.97538 0.87360 1.09200
 O628 O 0.97521 0.84385 1.12153
 C629 C 0.96665 0.85291 1.10084
 C630 C 0.94592 0.83965 1.08719
 C631 C 0.93723 0.81582 1.09550
 H632 H 0.94616 0.80655 1.11159
 O633 O 1.12643 1.09168 1.02492
 O634 O 1.15615 1.12120 1.02498
 C635 C 1.14711 1.10055 1.03364
 C636 C 1.16039 1.08700 1.05445
 C637 C 1.18414 1.09545 1.06322
 H638 H 1.19334 1.11158 1.05431
 O639 O 0.87346 0.90859 1.02498
 O640 O 0.84376 0.87905 1.02501
 C641 C 0.85278 0.89970 1.03368
 C642 C 0.83947 0.91323 1.05448
 C643 C 0.81575 0.90472 1.06331
 H644 H 0.80658 0.88856 1.05443
 O645 O 0.97539 1.09191 1.12697
 O646 O 0.97536 1.12148 1.15666
 C647 C 0.96671 1.10082 1.14766
 C648 C 0.94592 1.08729 1.16097
 C649 C 0.93714 1.09576 1.18473
 H650 H 0.94605 1.11189 1.19393
 O651 O 1.02488 0.90822 1.12702
 O652 O 1.02477 0.87865 1.15672
 C653 C 1.03349 0.89930 1.14773
 C654 C 1.05428 0.91277 1.16108
 C655 C 1.06314 0.90414 1.18475
 H656 H 1.05428 0.88794 1.19387
 O657 O 1.12639 0.97513 1.09219
 O658 O 1.15619 0.97509 1.12166
 C659 C 1.14712 0.96645 1.10101
 C660 C 1.16041 0.94570 1.08739
 C661 C 1.18419 0.93693 1.09580
 H662 H 1.19340 0.94579 1.11196
 O663 O 0.87359 1.02511 1.09199
 O664 O 0.84386 1.02518 1.12153
 C665 C 0.85290 1.03382 1.10086
 C666 C 0.83963 1.05460 1.08727
 C667 C 0.81588 1.06342 1.09572
 H668 H 0.80668 1.05457 1.11189
 O669 O 0.90845 1.12680 1.02483
 O670 O 0.87894 1.15655 1.02487
 C671 C 0.89958 1.14749 1.03354
 C672 C 0.91308 1.16074 1.05439
 C673 C 0.90455 1.18445 1.06321
 H674 H 0.88842 1.19364 1.05429
 O675 O 1.09179 0.87323 1.02505
 O676 O 1.12137 0.84355 1.02510
 C677 C 1.10072 0.85257 1.03378
 C678 C 1.08724 0.83931 1.05466
 C679 C 1.09583 0.81566 1.06361
 H680 H 1.11201 0.80649 1.05476
 O681 O 0.90831 1.02504 1.12688
 O682 O 0.87875 1.02510 1.15659
 C683 C 0.89943 1.03372 1.14759
 C684 C 0.91299 1.05445 1.16093
 C685 C 0.90451 1.06322 1.18469
 H686 H 0.88835 1.05435 1.19386
 O687 O 1.09174 0.97515 1.12716
 O688 O 1.12136 0.97510 1.15680
 C689 C 1.10068 0.96645 1.14783
 C690 C 1.08718 0.94563 1.16114
 C691 C 1.09576 0.93670 1.18481
 H692 H 1.11196 0.94551 1.19397
 O693 O 1.02494 0.87345 1.09219
 O694 O 1.02483 0.84373 1.12174
 C695 C 1.03357 0.85274 1.10110
 C696 C 1.05438 0.83941 1.08761
 C697 C 1.06326 0.81576 1.09625
 H698 H 1.05442 0.80666 1.11248
 O699 O 0.97533 1.12667 1.09213
 O700 O 0.97530 1.15642 1.12164
 C701 C 0.96664 1.14737 1.10098
 C702 C 0.94587 1.16068 1.08740
 C703 C 0.93702 1.18439 1.09592
 H704 H 0.94585 1.19354 1.11213
 O705 O 0.87366 1.09202 1.02479
 O706 O 0.84399 1.12162 1.02483
 C707 C 0.85299 1.10094 1.03348
 C708 C 0.83967 1.08742 1.05428
 C709 C 0.81592 1.09593 1.06303
 H710 H 0.80676 1.11207 1.05409
 O711 O 1.12639 0.90819 1.02497
 O712 O 1.15614 0.87867 1.02501
 C713 C 1.14709 0.89933 1.03365
 C714 C 1.16040 0.91288 1.05442
 C715 C 1.18417 0.90443 1.06312
 H716 H 1.19336 0.88831 1.05417
 O717 O 0.97531 0.90835 1.12685
 O718 O 0.97514 0.87877 1.15655
 C719 C 0.96655 0.89946 1.14752
 C720 C 0.94575 0.91302 1.16080
 C721 C 0.93690 0.90451 1.18452
 H722 H 0.94576 0.88833 1.19370
 O723 O 1.02495 1.09196 1.12699
 O724 O 1.02501 1.12156 1.15666
 C725 C 1.03366 1.10088 1.14767
 C726 C 1.05447 1.08735 1.16097
 C727 C 1.06342 1.09594 1.18463
 H728 H 1.05464 1.11219 1.19376
 O729 O 0.87348 0.97555 1.09204
 O730 O 0.84375 0.97555 1.12158
 C731 C 0.85278 0.96689 1.10092
 C732 C 0.83947 0.94612 1.08738
 C733 C 0.81575 0.93732 1.09590
 H734 H 0.80658 0.94620 1.11207
 O735 O 1.12638 1.02468 1.09215
 O736 O 1.15617 1.02470 1.12162
 C737 C 1.14709 1.03335 1.10097
 C738 C 1.16038 1.05411 1.08737
 C739 C 1.18413 1.06286 1.09583
 H740 H 1.19332 1.05396 1.11198
 O741 O 0.90833 0.87386 1.02492
 O742 O 0.87879 0.84415 1.02493
 C743 C 0.89946 0.85315 1.03357
 C744 C 0.91304 0.83978 1.05428
 C745 C 0.90466 0.81594 1.06289
 H746 H 0.88856 0.80676 1.05392
 O747 O 1.09171 1.12655 1.02481
 O748 O 1.12127 1.15624 1.02484
 C749 C 1.10059 1.14725 1.03348
 C750 C 1.08705 1.16060 1.05423
 C751 C 1.09551 1.18438 1.06290
 H752 H 1.11162 1.19355 1.05392
 Cu753 Cu 1.10608 0.99991 1.10670
 Cu754 Cu 1.14174 0.99991 1.14217
 Cu755 Cu 0.89388 1.00029 1.10647
 Cu756 Cu 0.85829 1.00033 1.14203
 Cu757 Cu 1.00014 1.10633 1.10659
 Cu758 Cu 1.00015 1.14195 1.14211
 Cu759 Cu 1.00015 0.89387 1.10656
 Cu760 Cu 0.99996 0.85827 1.14211
 C761 C 1.06636 1.06636 1.14945
 H762 H 1.05981 1.05984 1.13105
 C763 C 1.08399 1.08389 1.19643
 C764 C 0.93377 0.93392 1.14921
 H765 H 0.94025 0.94037 1.13076
 C766 C 0.91634 0.91655 1.19634
 C767 C 1.06625 1.14902 1.06637
 H768 H 1.05985 1.13052 1.06002
 C769 C 1.08353 1.19626 1.08345
 C770 C 0.93385 0.85136 1.06640
 H771 H 0.94021 0.86989 1.06010
 C772 C 0.91674 0.80401 1.08336
 C773 C 1.14878 1.06616 1.06651
 H774 H 1.13030 1.05975 1.06010
 C775 C 1.19597 1.08340 1.08377
 C776 C 0.85105 0.93410 1.06649
 H777 H 0.86950 0.94055 1.06003
 C778 C 0.80393 0.91675 1.08389
 C779 C 0.93388 1.06645 1.14935
 H780 H 0.94030 1.06004 1.13087
 C781 C 0.91657 1.08374 1.19655
 C782 C 1.06627 0.93369 1.14956
 H783 H 1.05978 0.94022 1.13115
 C784 C 1.08375 0.91608 1.19658
 C785 C 1.14879 0.93370 1.06652
 H786 H 1.13030 0.94011 1.06015
 C787 C 1.19602 0.91642 1.08368
 C788 C 0.85124 1.06658 1.06637
 H789 H 0.86971 1.06013 1.05997
 C790 C 0.80407 1.08396 1.08361
 C791 C 0.93392 1.14913 1.06646
 H792 H 0.94038 1.13069 1.06000
 C793 C 0.91649 1.19623 1.08385
 C794 C 1.06634 0.85090 1.06664
 H795 H 1.05983 0.86930 1.06009
 C796 C 1.08386 0.80392 1.08428
 O797 O 1.09194 0.97526 0.87347
 O798 O 1.12153 0.97519 0.84378
 C799 C 1.10085 0.96656 0.85278
 C800 C 1.08731 0.94580 0.83947
 C801 C 1.09582 0.93702 0.81573
 H802 H 1.11198 0.94590 0.80655
 O803 O 0.90820 1.02517 0.87324
 O804 O 0.87862 1.02511 0.84355
 C805 C 0.89927 1.03381 0.85253
 C806 C 0.91276 1.05460 0.83917
 C807 C 0.90408 1.06351 0.81554
 H808 H 0.88784 1.05469 0.80646
 O809 O 0.97534 1.12656 0.90798
 O810 O 0.97539 1.15630 0.87845
 C811 C 0.96672 1.14729 0.89912
 C812 C 0.94599 1.16065 0.91271
 C813 C 0.93723 1.18438 0.90419
 H814 H 0.94609 1.19352 0.88799
 O815 O 1.02491 0.87348 0.90827
 O816 O 1.02487 0.84378 0.87870
 C817 C 1.03354 0.85276 0.89938
 C818 C 1.05428 0.83941 0.91294
 C819 C 1.06311 0.81569 0.90443
 H820 H 1.05428 0.80655 0.88821
 O821 O 1.12650 0.90805 0.97538
 O822 O 1.15623 0.87852 0.97536
 C823 C 1.14720 0.89917 0.96669
 C824 C 1.16051 0.91270 0.94588
 C825 C 1.18422 0.90416 0.93705
 H826 H 1.19337 0.88797 0.94591
 O827 O 0.87356 1.09215 0.97518
 O828 O 0.84390 1.12176 0.97517
 C829 C 0.85289 1.10109 0.96650
 C830 C 0.83957 1.08760 0.94568
 C831 C 0.81588 1.09617 0.93682
 H832 H 0.80673 1.11236 0.94569
 O833 O 1.02482 1.09167 0.87316
 O834 O 1.02494 1.12124 0.84345
 C835 C 1.03355 1.10056 0.85248
 C836 C 1.05436 1.08701 0.83922
 C837 C 1.06316 1.09546 0.81546
 H838 H 1.05424 1.11157 0.80622
 O839 O 0.97542 0.90846 0.87354
 O840 O 0.97532 0.87894 0.84380
 C841 C 0.96671 0.89961 0.85284
 C842 C 0.94597 0.91321 0.83953
 C843 C 0.93726 0.90481 0.81572
 H844 H 0.94619 0.88869 0.80651
 O845 O 1.12674 1.02476 0.90829
 O846 O 1.15650 1.02476 0.87877
 C847 C 1.14746 1.03341 0.89943
 C848 C 1.16075 1.05417 0.91301
 C849 C 1.18450 1.06297 0.90456
 H850 H 1.19370 1.05411 0.88839
 O851 O 0.87348 0.97566 0.90822
 O852 O 0.84376 0.97555 0.87868
 C853 C 0.85279 0.96696 0.89937
 C854 C 0.83948 0.94623 0.91299
 C855 C 0.81570 0.93749 0.90458
 H856 H 0.80650 0.94637 0.88843
 O857 O 1.09177 1.12645 0.97520
 O858 O 1.12133 1.15613 0.97519
 C859 C 1.10069 1.14712 0.96649
 C860 C 1.08722 1.16041 0.94563
 C861 C 1.09576 1.18412 0.93682
 H862 H 1.11189 1.19329 0.94574
 O863 O 0.90825 0.87384 0.97534
 O864 O 0.87869 0.84415 0.97531
 C865 C 0.89936 0.85316 0.96665
 C866 C 0.91290 0.83983 0.94588
 C867 C 0.90442 0.81608 0.93714
 H868 H 0.88827 0.80692 0.94604
 O869 O 0.90836 0.97561 0.87349
 O870 O 0.87881 0.97549 0.84377
 C871 C 0.89949 0.96688 0.85281
 C872 C 0.91308 0.94611 0.83951
 C873 C 0.90468 0.93740 0.81571
 H874 H 0.88856 0.94632 0.80649
 O875 O 1.09199 1.02481 0.87343
 O876 O 1.12157 1.02480 0.84374
 C877 C 1.10090 1.03346 0.85272
 C878 C 1.08734 1.05421 0.83935
 C879 C 1.09584 1.06296 0.81558
 H880 H 1.11203 1.05409 0.80644
 O881 O 0.97535 0.87365 0.90832
 O882 O 0.97524 0.84395 0.87876
 C883 C 0.96662 0.85299 0.89943
 C884 C 0.94582 0.83974 0.91299
 C885 C 0.93703 0.81599 0.90455
 H886 H 0.94594 0.80677 0.88842
 O887 O 1.02489 1.12649 0.90793
 O888 O 1.02501 1.15622 0.87839
 C889 C 1.03362 1.14717 0.89906
 C890 C 1.05441 1.16042 0.91264
 C891 C 1.06325 1.18414 0.90415
 H892 H 1.05441 1.19332 0.88796
 O893 O 0.87351 0.90870 0.97538
 O894 O 0.84379 0.87917 0.97536
 C895 C 0.85281 0.89983 0.96671
 C896 C 0.83950 0.91339 0.94595
 C897 C 0.81572 0.90495 0.93724
 H898 H 0.80652 0.88884 0.94619
 O899 O 1.12660 1.09169 0.97533
 O900 O 1.15632 1.12122 0.97534
 C901 C 1.14732 1.10056 0.96669
 C902 C 1.16067 1.08701 0.94594
 C903 C 1.18442 1.09551 0.93720
 H904 H 1.19357 1.11166 0.94612
 O905 O 1.02498 0.90830 0.87347
 O906 O 1.02494 0.87877 0.84374
 C907 C 1.03363 0.89940 0.85276
 C908 C 1.05443 0.91292 0.83945
 C909 C 1.06324 0.90443 0.81571
 H910 H 1.05436 0.88828 0.80652
 O911 O 0.97524 1.09194 0.87300
 O912 O 0.97528 1.12151 0.84331
 C913 C 0.96656 1.10088 0.85232
 C914 C 0.94568 1.08744 0.83905
 C915 C 0.93669 1.09607 0.81542
 H916 H 0.94551 1.11227 0.80625
 O917 O 0.87352 1.02522 0.90816
 O918 O 0.84379 1.02518 0.87863
 C919 C 0.85282 1.03388 0.89927
 C920 C 0.83954 1.05471 0.91278
 C921 C 0.81585 1.06357 0.90423
 H922 H 0.80669 1.05471 0.88805
 O923 O 1.12665 0.97519 0.90833
 O924 O 1.15640 0.97512 0.87881
 C925 C 1.14734 0.96647 0.89946
 C926 C 1.16058 0.94564 0.91300
 C927 C 1.18429 0.93678 0.90448
 H928 H 1.19348 0.94566 0.88832
 O929 O 1.09167 0.87331 0.97544
 O930 O 1.12123 0.84362 0.97542
 C931 C 1.10057 0.85263 0.96676
 C932 C 1.08707 0.83934 0.94594
 C933 C 1.09559 0.81563 0.93713
 H934 H 1.11173 0.80644 0.94605
 O935 O 0.90849 1.12680 0.97521
 O936 O 0.87900 1.15657 0.97519
 C937 C 0.89964 1.14750 0.96652
 C938 C 0.91318 1.16076 0.94569
 C939 C 0.90471 1.18450 0.93687
 H940 H 0.88858 1.19372 0.94578
 Cu941 Cu 1.10637 1.00002 0.89384
 Cu942 Cu 1.14199 0.99997 0.85830
 Cu943 Cu 0.89385 1.00042 0.89374
 Cu944 Cu 0.85827 1.00031 0.85818
 Cu945 Cu 1.10616 1.10614 1.00006
 Cu946 Cu 1.14175 1.14167 1.00009
 Cu947 Cu 1.10612 0.89365 1.00021
 Cu948 Cu 1.14172 0.85811 1.00022
 Cu949 Cu 0.89399 1.10648 0.99999
 Cu950 Cu 0.85849 1.14211 1.00002
 Cu951 Cu 0.89384 0.89421 1.00016
 Cu952 Cu 0.85828 0.85866 1.00015
 Cu953 Cu 1.00006 1.10619 0.89346
 Cu954 Cu 1.00017 1.14180 0.85792
 Cu955 Cu 1.00018 0.89393 0.89386
 Cu956 Cu 1.00008 0.85838 0.85827
 C957 C 1.06644 0.93379 0.85105
 H958 H 1.05999 0.94022 0.86951
 C959 C 1.08380 0.91646 0.80389
 C960 C 0.93372 1.06653 0.85064
 H961 H 0.94030 1.05999 0.86903
 C962 C 0.91602 1.08412 0.80370
 C963 C 0.93400 1.14912 0.93363
 H964 H 0.94041 1.13065 0.94009
 C965 C 0.91672 1.19626 0.91625
 C966 C 1.06624 0.85095 0.93388
 H967 H 1.05979 0.86939 0.94033
 C968 C 1.08364 0.80384 0.91651
 C969 C 1.14897 0.93362 0.93388
 H970 H 1.13053 0.94010 0.94034
 C971 C 1.19607 0.91618 0.91648
 C972 C 0.85111 1.06669 0.93368
 H973 H 0.86953 1.06020 0.94016
 C974 C 0.80406 1.08418 0.91623
 C975 C 1.06643 1.06621 0.85088
 H976 H 1.05999 1.05981 0.86936
 C977 C 1.08377 1.08346 0.80368
 C978 C 0.93390 0.93405 0.85115
 H979 H 0.94027 0.94042 0.86966
 C980 C 0.91675 0.91688 0.80386
 C981 C 1.14912 1.06616 0.93388
 H982 H 1.13065 1.05973 0.94028
 C983 C 1.19629 1.08352 0.91664
 C984 C 0.85110 0.93421 0.93385
 H985 H 0.86959 0.94060 0.94022
 C986 C 0.80386 0.91698 0.91669
 C987 C 1.06637 1.14884 0.93356
 H988 H 1.05989 1.13040 0.94001
 C989 C 1.08379 1.19594 0.91621
 C990 C 0.93378 0.85138 0.93383
 H991 H 0.94021 0.86985 0.94023
 C992 C 0.91647 0.80420 0.91661
 O993 O 0.97558 0.40810 0.37341
 O994 O 0.97558 0.37857 0.34368
 C995 C 0.96692 0.39922 0.35270
 C996 C 0.94616 0.41275 0.33938
 C997 C 0.93740 0.40425 0.31563
 H998 H 0.94630 0.38809 0.30646
 O999 O 1.02525 0.59190 0.37329
 O1000 O 1.02518 0.62140 0.34352
 C1001 C 1.03389 0.60078 0.35257
 C1002 C 1.05471 0.58729 0.33927
 C1003 C 1.06356 0.59589 0.31558
 H1004 H 1.05468 0.61208 0.30645
 O1005 O 0.87372 0.47512 0.40813
 O1006 O 0.84408 0.47511 0.37851
 C1007 C 0.85304 0.46647 0.39921
 C1008 C 0.83968 0.44573 0.41276
 C1009 C 0.81592 0.43702 0.40427
 H1010 H 0.80677 0.44595 0.38811
 O1011 O 1.12697 0.52486 0.40807
 O1012 O 1.15668 0.52484 0.37850
 C1013 C 1.14766 0.53352 0.39916
 C1014 C 1.16094 0.55432 0.41268
 C1015 C 1.18464 0.56318 0.40416
 H1016 H 1.19384 0.55431 0.38800
 O1017 O 0.90834 0.37336 0.47522
 O1018 O 0.87881 0.34364 0.47508
 C1019 C 0.89949 0.35268 0.46649
 C1020 C 0.91312 0.33939 0.44574
 C1021 C 0.90469 0.31564 0.43694
 H1022 H 0.88853 0.30644 0.44580
 O1023 O 1.09203 0.62678 0.47491
 O1024 O 1.12162 0.65644 0.47499
 C1025 C 1.10097 0.64747 0.46627
 C1026 C 1.08749 0.66080 0.44544
 C1027 C 1.09607 0.68447 0.43654
 H1028 H 1.11226 0.69361 0.44538
 O1029 O 0.90865 0.52463 0.37339
 O1030 O 0.87919 0.52466 0.34359
 C1031 C 0.89983 0.53329 0.35266
 C1032 C 0.91344 0.55402 0.33933
 C1033 C 0.90507 0.56266 0.31549
 H1034 H 0.88898 0.55371 0.30627
 O1035 O 1.09206 0.47536 0.37336
 O1036 O 1.12158 0.47527 0.34361
 C1037 C 1.10092 0.46666 0.35266
 C1038 C 1.08735 0.44590 0.33937
 C1039 C 1.09576 0.43719 0.31557
 H1040 H 1.11185 0.44613 0.30634
 O1041 O 1.02515 0.37328 0.40819
 O1042 O 1.02520 0.34360 0.37860
 C1043 C 1.03384 0.35260 0.39927
 C1044 C 1.05464 0.33929 0.41279
 C1045 C 1.06347 0.31559 0.40424
 H1046 H 1.05459 0.30643 0.38806
 O1047 O 0.97560 0.62662 0.40807
 O1048 O 0.97548 0.65628 0.37845
 C1049 C 0.96686 0.64727 0.39914
 C1050 C 0.94605 0.66055 0.41267
 C1051 C 0.93725 0.68428 0.40416
 H1052 H 0.94616 0.69347 0.38802
 O1053 O 0.87362 0.59171 0.47494
 O1054 O 0.84391 0.62127 0.47492
 C1055 C 0.85294 0.60061 0.46626
 C1056 C 0.83965 0.58707 0.44546
 C1057 C 0.81592 0.59556 0.43663
 H1058 H 0.80673 0.61172 0.44550
 O1059 O 1.12690 0.40816 0.47509
 O1060 O 1.15659 0.37860 0.47508
 C1061 C 1.14758 0.39926 0.46640
 C1062 C 1.16088 0.41279 0.44558
 C1063 C 1.18458 0.40425 0.43671
 H1064 H 1.19374 0.38806 0.44555
 O1065 O 0.97569 0.59175 0.37334
 O1066 O 0.97557 0.62124 0.34355
 C1067 C 0.96699 0.60057 0.35262
 C1068 C 0.94629 0.58693 0.33931
 C1069 C 0.93761 0.59527 0.31547
 H1070 H 0.94653 0.61138 0.30623
 O1071 O 1.02513 0.40820 0.37349
 O1072 O 1.02518 0.37868 0.34374
 C1073 C 1.03381 0.39935 0.35277
 C1074 C 1.05453 0.41295 0.33943
 C1075 C 1.06325 0.40454 0.31563
 H1076 H 1.05436 0.38839 0.30643
 O1077 O 1.12693 0.47528 0.40808
 O1078 O 1.15663 0.47520 0.37850
 C1079 C 1.14760 0.46656 0.39917
 C1080 C 1.16088 0.44573 0.41270
 C1081 C 1.18457 0.43689 0.40414
 H1082 H 1.19373 0.44577 0.38796
 O1083 O 0.87369 0.52468 0.40803
 O1084 O 0.84406 0.52472 0.37840
 C1085 C 0.85303 0.53337 0.39908
 C1086 C 0.83970 0.55416 0.41259
 C1087 C 0.81598 0.56294 0.40406
 H1088 H 0.80682 0.55404 0.38790
 O1089 O 0.90842 0.62648 0.47496
 O1090 O 0.87888 0.65620 0.47495
 C1091 C 0.89954 0.64719 0.46629
 C1092 C 0.91310 0.66051 0.44552
 C1093 C 0.90460 0.68424 0.43671
 H1094 H 0.88842 0.69341 0.44557
 O1095 O 1.09220 0.37329 0.47510
 O1096 O 1.12173 0.34355 0.47510
 C1097 C 1.10108 0.35258 0.46643
 C1098 C 1.08755 0.33928 0.44565
 C1099 C 1.09608 0.31558 0.43680
 H1100 H 1.11227 0.30642 0.44566
 O1101 O 1.09225 0.52492 0.37321
 O1102 O 1.12178 0.52491 0.34347
 C1103 C 1.10114 0.53360 0.35250
 C1104 C 1.08763 0.55443 0.33922
 C1105 C 1.09619 0.56334 0.31552
 H1106 H 1.11239 0.55452 0.30635
 O1107 O 0.90853 0.47507 0.37333
 O1108 O 0.87905 0.47505 0.34354
 C1109 C 0.89968 0.46640 0.35261
 C1110 C 0.91325 0.44562 0.33933
 C1111 C 0.90479 0.43681 0.31558
 H1112 H 0.88863 0.44568 0.30638
 O1113 O 1.02516 0.62677 0.40800
 O1114 O 1.02511 0.65643 0.37839
 C1115 C 1.03380 0.64746 0.39906
 C1116 C 1.05459 0.66078 0.41255
 C1117 C 1.06346 0.68445 0.40395
 H1118 H 1.05460 0.69358 0.38775
 O1119 O 0.97558 0.37338 0.40829
 O1120 O 0.97557 0.34369 0.37872
 C1121 C 0.96690 0.35270 0.39939
 C1122 C 0.94611 0.33940 0.41292
 C1123 C 0.93738 0.31564 0.40443
 H1124 H 0.94633 0.30646 0.38831
 O1125 O 1.12676 0.59191 0.47492
 O1126 O 1.15651 0.62141 0.47501
 C1127 C 1.14749 0.60078 0.46630
 C1128 C 1.16084 0.58725 0.44554
 C1129 C 1.18454 0.59580 0.43673
 H1130 H 1.19366 0.61199 0.44559
 O1131 O 0.87350 0.40811 0.47519
 O1132 O 0.84379 0.37858 0.47506
 C1133 C 0.85283 0.39925 0.46645
 C1134 C 0.83957 0.41283 0.44566
 C1135 C 0.81581 0.40443 0.43687
 H1136 H 0.80658 0.38831 0.44576
 Cu1137 Cu 1.00036 0.39369 0.39382
 Cu1138 Cu 1.00038 0.35815 0.35821
 Cu1139 Cu 1.00043 0.60631 0.39365
 Cu1140 Cu 1.00032 0.64181 0.35799
 Cu1141 Cu 0.89410 0.49987 0.39369
 Cu1142 Cu 0.85862 0.49989 0.35802
 Cu1143 Cu 1.10660 0.50012 0.39364
 Cu1144 Cu 1.14215 0.50004 0.35804
 C1145 C 0.93411 0.43362 0.35095
 H1146 H 0.94052 0.44006 0.36942
 C1147 C 0.91684 0.41625 0.30377
 C1148 C 1.06672 0.56639 0.35080
 H1149 H 1.06023 0.55987 0.36922
 C1150 C 1.08417 0.58395 0.30375
 C1151 C 0.85123 0.43366 0.43363
 H1152 H 0.86971 0.44003 0.44006
 C1153 C 0.80403 0.41651 0.41630
 C1154 C 1.14932 0.56634 0.43355
 H1155 H 1.13088 0.55986 0.44000
 C1156 C 1.19640 0.58379 0.41617
 C1157 C 0.93400 0.35099 0.43375
 H1158 H 0.94039 0.36947 0.44018
 C1159 C 0.91681 0.30381 0.41642
 C1160 C 1.06658 0.64925 0.43347
 H1161 H 1.06008 0.63084 0.43999
 C1162 C 1.08407 0.69625 0.41592
 C1163 C 0.93423 0.56612 0.35097
 H1164 H 0.94057 0.55980 0.36951
 C1165 C 0.91714 0.58316 0.30361
 C1166 C 1.06655 0.43381 0.35103
 H1167 H 1.06018 0.44018 0.36954
 C1168 C 1.08373 0.41664 0.30374
 C1169 C 1.06665 0.35085 0.43367
 H1170 H 1.06019 0.36929 0.44014
 C1171 C 1.08406 0.30377 0.41623
 C1172 C 0.93400 0.64894 0.43352
 H1173 H 0.94044 0.63049 0.43996
 C1174 C 0.91666 0.69608 0.41616
 C1175 C 0.85125 0.56620 0.43346
 H1176 H 0.86970 0.55977 0.43993
 C1177 C 0.80413 0.58351 0.41606
 C1178 C 1.14931 0.43371 0.43359
 H1179 H 1.13088 0.44019 0.44008
 C1180 C 1.19638 0.41628 0.41612
 O1181 O 1.02469 0.40807 0.62651
 O1182 O 1.02477 0.37851 0.65623
 C1183 C 1.03340 0.39918 0.64720
 C1184 C 1.05419 0.41270 0.66049
 C1185 C 1.06297 0.40420 0.68424
 H1186 H 1.05406 0.38806 0.69343
 O1187 O 0.97543 0.59157 0.62640
 O1188 O 0.97535 0.62110 0.65614
 C1189 C 0.96672 0.60044 0.64710
 C1190 C 0.94593 0.58689 0.66039
 C1191 C 0.93717 0.59535 0.68416
 H1192 H 0.94607 0.61148 0.69336
 O1193 O 0.87353 0.52454 0.59159
 O1194 O 0.84381 0.52468 0.62115
 C1195 C 0.85285 0.53327 0.60046
 C1196 C 0.83957 0.55404 0.58686
 C1197 C 0.81579 0.56278 0.59528
 H1198 H 0.80657 0.55386 0.61140
 O1199 O 1.12678 0.47493 0.59176
 O1200 O 1.15646 0.47494 0.62134
 C1201 C 1.14747 0.46627 0.60068
 C1202 C 1.16081 0.44548 0.58717
 C1203 C 1.18447 0.43661 0.59580
 H1204 H 1.19357 0.44544 0.61203
 O1205 O 1.09202 0.37344 0.52468
 O1206 O 1.12153 0.34368 0.52475
 C1207 C 1.10086 0.35273 0.53338
 C1208 C 1.08723 0.33943 0.55413
 C1209 C 1.09563 0.31565 0.56290
 H1210 H 1.11179 0.30645 0.55405
 O1211 O 0.90844 0.62641 0.52454
 O1212 O 0.87890 0.65614 0.52460
 C1213 C 0.89957 0.64710 0.53323
 C1214 C 0.91314 0.66040 0.55400
 C1215 C 0.90473 0.68419 0.56271
 H1216 H 0.88862 0.69341 0.55378
 O1217 O 0.90819 0.47498 0.62653
 O1218 O 0.87864 0.47505 0.65626
 C1219 C 0.89929 0.46635 0.64725
 C1220 C 0.91279 0.44555 0.66058
 C1221 C 0.90423 0.43672 0.68429
 H1222 H 0.88806 0.44561 0.69345
 O1223 O 1.09191 0.52451 0.62650
 O1224 O 1.12145 0.52457 0.65622
 C1225 C 1.10079 0.53321 0.64719
 C1226 C 1.08726 0.55399 0.66050
 C1227 C 1.09577 0.56278 0.68423
 H1228 H 1.11192 0.55387 0.69341
 O1229 O 0.97512 0.37322 0.59178
 O1230 O 0.97515 0.34350 0.62134
 C1231 C 0.96646 0.35253 0.60068
 C1232 C 0.94565 0.33923 0.58718
 C1233 C 0.93676 0.31557 0.59578
 H1234 H 0.94559 0.30643 0.61199
 O1235 O 1.02502 0.62645 0.59169
 O1236 O 1.02500 0.65614 0.62127
 C1237 C 1.03367 0.64714 0.60060
 C1238 C 1.05444 0.66047 0.58705
 C1239 C 1.06324 0.68420 0.59557
 H1240 H 1.05439 0.69335 0.61176
 O1241 O 0.87338 0.40803 0.52478
 O1242 O 0.84368 0.37849 0.52473
 C1243 C 0.85269 0.39914 0.53343
 C1244 C 0.83937 0.41265 0.55425
 C1245 C 0.81568 0.40411 0.56311
 H1246 H 0.80652 0.38793 0.55425
 O1247 O 1.12657 0.59172 0.52449
 O1248 O 1.15633 0.62121 0.52464
 C1249 C 1.14727 0.60054 0.53322
 C1250 C 1.16055 0.58688 0.55396
 C1251 C 1.18437 0.59522 0.56264
 H1252 H 1.19359 0.61133 0.55372
 O1253 O 1.02499 0.59161 0.62647
 O1254 O 1.02498 0.62113 0.65622
 C1255 C 1.03365 0.60048 0.64719
 C1256 C 1.05442 0.58692 0.66050
 C1257 C 1.06323 0.59542 0.68424
 H1258 H 1.05438 0.61159 0.69342
 O1259 O 0.97512 0.40803 0.62658
 O1260 O 0.97515 0.37847 0.65629
 C1261 C 0.96646 0.39912 0.64728
 C1262 C 0.94566 0.41264 0.66060
 C1263 C 0.93680 0.40411 0.68432
 H1264 H 0.94566 0.38793 0.69349
 O1265 O 1.12656 0.52449 0.59155
 O1266 O 1.15627 0.52456 0.62110
 C1267 C 1.14724 0.53319 0.60042
 C1268 C 1.16054 0.55394 0.58682
 C1269 C 1.18436 0.56259 0.59520
 H1270 H 1.19359 0.55363 0.61130
 O1271 O 0.87340 0.47498 0.59173
 O1272 O 0.84369 0.47505 0.62130
 C1273 C 0.85270 0.46634 0.60064
 C1274 C 0.83939 0.44554 0.58714
 C1275 C 0.81569 0.43671 0.59571
 H1276 H 0.80654 0.44558 0.61190
 O1277 O 1.09189 0.62662 0.52451
 O1278 O 1.12148 0.65628 0.52466
 C1279 C 1.10080 0.64727 0.53326
 C1280 C 1.08726 0.66053 0.55408
 C1281 C 1.09576 0.68425 0.56289
 H1282 H 1.11190 0.69344 0.55398
 O1283 O 0.90818 0.37325 0.52480
 O1284 O 0.87864 0.34354 0.52475
 C1285 C 0.89928 0.35255 0.53346
 C1286 C 0.91277 0.33925 0.55428
 C1287 C 0.90417 0.31559 0.56318
 H1288 H 0.88797 0.30646 0.55433
 O1289 O 1.09183 0.47495 0.62644
 O1290 O 1.12136 0.47494 0.65618
 C1291 C 1.10071 0.46628 0.64715
 C1292 C 1.08714 0.44552 0.66047
 C1293 C 1.09562 0.43671 0.68422
 H1294 H 1.11179 0.44556 0.69340
 O1295 O 0.90831 0.52454 0.62640
 O1296 O 0.87876 0.52468 0.65613
 C1297 C 0.89944 0.53327 0.64709
 C1298 C 0.91302 0.55403 0.66039
 C1299 C 0.90456 0.56280 0.68416
 H1300 H 0.88841 0.55392 0.69335
 O1301 O 0.97546 0.62638 0.59161
 O1302 O 0.97538 0.65608 0.62118
 C1303 C 0.96677 0.64707 0.60049
 C1304 C 0.94602 0.66038 0.58690
 C1305 C 0.93731 0.68418 0.59531
 H1306 H 0.94624 0.69338 0.61144
 O1307 O 1.02470 0.37338 0.59162
 O1308 O 1.02478 0.34365 0.62116
 C1309 C 1.03342 0.35270 0.60049
 C1310 C 1.05422 0.33942 0.58693
 C1311 C 1.06292 0.31565 0.59539
 H1312 H 1.05395 0.30644 0.61149
 O1313 O 1.12698 0.40805 0.52469
 O1314 O 1.15666 0.37847 0.52476
 C1315 C 1.14764 0.39913 0.53341
 C1316 C 1.16090 0.41263 0.55425
 C1317 C 1.18456 0.40405 0.56317
 H1318 H 1.19373 0.38786 0.55433
 O1319 O 0.87364 0.59164 0.52452
 O1320 O 0.84393 0.62119 0.52458
 C1321 C 0.85294 0.60052 0.53321
 C1322 C 0.83962 0.58694 0.55397
 C1323 C 0.81583 0.59538 0.56269
 H1324 H 0.80665 0.61152 0.55377
 Cu1325 Cu 0.99989 0.39364 0.60616
 Cu1326 Cu 0.99998 0.35805 0.64173
 Cu1327 Cu 1.00024 0.60605 0.60608
 Cu1328 Cu 1.00017 0.64159 0.64168
 Cu1329 Cu 0.89380 0.39365 0.50001
 Cu1330 Cu 0.85825 0.35808 0.49989
 Cu1331 Cu 1.10657 0.39370 0.49989
 Cu1332 Cu 1.14211 0.35810 0.49993
 Cu1333 Cu 0.89399 0.60610 0.49973
 Cu1334 Cu 0.85843 0.64168 0.49977
 Cu1335 Cu 1.10634 0.60631 0.49969
 Cu1336 Cu 1.14196 0.64181 0.49984
 Cu1337 Cu 0.89382 0.49975 0.60610
 Cu1338 Cu 0.85825 0.49988 0.64169
 Cu1339 Cu 1.10631 0.49971 0.60610
 Cu1340 Cu 1.14186 0.49976 0.64169
 C1341 C 1.06625 0.43354 0.64889
 H1342 H 1.05982 0.43998 0.63042
 C1343 C 1.08355 0.41617 0.69606
 C1344 C 0.93388 0.56605 0.64878
 H1345 H 0.94030 0.55964 0.63030
 C1346 C 0.91662 0.58333 0.69600
 C1347 C 0.85121 0.56609 0.56603
 H1348 H 0.86970 0.55970 0.55966
 C1349 C 0.80396 0.58331 0.58321
 C1350 C 1.14931 0.43352 0.56622
 H1351 H 1.13091 0.44002 0.55969
 C1352 C 1.19630 0.41601 0.58382
 C1353 C 1.06634 0.35104 0.56613
 H1354 H 1.05997 0.36953 0.55972
 C1355 C 1.08349 0.30381 0.58340
 C1356 C 0.93396 0.64877 0.56607
 H1357 H 0.94033 0.63027 0.55969
 C1358 C 0.91681 0.69604 0.58323
 C1359 C 0.93368 0.43353 0.64902
 H1360 H 0.94016 0.44000 0.63057
 C1361 C 0.91622 0.41614 0.69612
 C1362 C 1.06641 0.56604 0.64891
 H1363 H 1.05996 0.55960 0.63045
 C1364 C 1.08378 0.58336 0.69606
 C1365 C 0.93368 0.35078 0.56625
 H1366 H 0.94020 0.36918 0.55974
 C1367 C 0.91614 0.30380 0.58380
 C1368 C 1.06642 0.64893 0.56613
 H1369 H 1.05999 0.63048 0.55967
 C1370 C 1.08378 0.69604 0.58350
 C1371 C 0.85094 0.43354 0.56624
 H1372 H 0.86936 0.44001 0.55975
 C1373 C 0.80388 0.41612 0.58372
 C1374 C 1.14891 0.56606 0.56602
 H1375 H 1.13038 0.55974 0.55967
 C1376 C 1.19623 0.58310 0.58312
 O1377 O 0.47504 0.90839 0.37335
 O1378 O 0.47501 0.87890 0.34357
 C1379 C 0.46636 0.89954 0.35264
 C1380 C 0.44559 0.91310 0.33934
 C1381 C 0.43685 0.90464 0.31558
 H1382 H 0.44578 0.88851 0.30639
 O1383 O 0.52443 1.09195 0.37340
 O1384 O 0.52446 1.12152 0.34369
 C1385 C 0.53309 1.10084 0.35269
 C1386 C 0.55383 1.08728 0.33933
 C1387 C 0.56256 1.09578 0.31556
 H1388 H 0.55365 1.11194 0.30641
 O1389 O 0.37306 0.97537 0.40815
 O1390 O 0.34338 0.97535 0.37856
 C1391 C 0.35238 0.96669 0.39923
 C1392 C 0.33909 0.94587 0.41275
 C1393 C 0.31540 0.93702 0.40420
 H1394 H 0.30623 0.94589 0.38802
 O1395 O 0.62636 1.02488 0.40792
 O1396 O 0.65602 1.02494 0.37830
 C1397 C 0.64705 1.03356 0.39901
 C1398 C 0.66042 1.05427 0.41258
 C1399 C 0.68418 1.06298 0.40409
 H1400 H 0.69332 1.05409 0.38791
 O1401 O 0.40792 0.87342 0.47489
 O1402 O 0.37840 0.84370 0.47493
 C1403 C 0.39903 0.85273 0.46622
 C1404 C 0.41253 0.83944 0.44538
 C1405 C 0.40397 0.81578 0.43646
 H1406 H 0.38776 0.80662 0.44528
 O1407 O 0.59188 1.12654 0.47514
 O1408 O 0.62139 1.15628 0.47499
 C1409 C 0.60071 1.14724 0.46641
 C1410 C 0.58708 1.16053 0.44567
 C1411 C 0.59550 1.18430 0.43689
 H1412 H 0.61167 1.19348 0.44573
 O1413 O 0.40792 1.02493 0.37341
 O1414 O 0.37841 1.02498 0.34365
 C1415 C 0.39905 1.03362 0.35270
 C1416 C 0.41260 1.05441 0.33941
 C1417 C 0.40414 1.06319 0.31565
 H1418 H 0.38802 1.05429 0.30644
 O1419 O 0.59153 0.97534 0.37314
 O1420 O 0.62103 0.97535 0.34335
 C1421 C 0.60040 0.96667 0.35241
 C1422 C 0.58688 0.94587 0.33913
 C1423 C 0.59541 0.93704 0.31541
 H1424 H 0.61156 0.94593 0.30622
 O1425 O 0.52457 0.87349 0.40807
 O1426 O 0.52461 0.84382 0.37847
 C1427 C 0.53326 0.85282 0.39915
 C1428 C 0.55405 0.83951 0.41267
 C1429 C 0.56283 0.81577 0.40417
 H1430 H 0.55391 0.80659 0.38803
 O1431 O 0.47494 1.12683 0.40826
 O1432 O 0.47493 1.15655 0.37870
 C1433 C 0.46628 1.14754 0.39938
 C1434 C 0.44552 1.16087 0.41294
 C1435 C 0.43673 1.18460 0.40443
 H1436 H 0.44561 1.19377 0.38826
 O1437 O 0.37313 1.09212 0.47513
 O1438 O 0.34340 1.12165 0.47513
 C1439 C 0.35244 1.10101 0.46643
 C1440 C 0.33917 1.08749 0.44559
 C1441 C 0.31551 1.09606 0.43666
 H1442 H 0.30635 1.11228 0.44547
 O1443 O 0.62645 0.90836 0.47486
 O1444 O 0.65617 0.87881 0.47484
 C1445 C 0.64714 0.89946 0.46617
 C1446 C 0.66042 0.91300 0.44537
 C1447 C 0.68417 0.90453 0.43656
 H1448 H 0.69337 0.88839 0.44545
 O1449 O 0.47487 1.09199 0.37349
 O1450 O 0.47486 1.12154 0.34377
 C1451 C 0.46620 1.10088 0.35279
 C1452 C 0.44544 1.08734 0.33946
 C1453 C 0.43667 1.09582 0.31570
 H1454 H 0.44555 1.11199 0.30652
 O1455 O 0.52460 0.90825 0.37321
 O1456 O 0.52462 0.87875 0.34345
 C1457 C 0.53327 0.89939 0.35250
 C1458 C 0.55404 0.91294 0.33918
 C1459 C 0.56288 0.90442 0.31545
 H1460 H 0.55403 0.88823 0.30629
 O1461 O 0.62636 0.97534 0.40788
 O1462 O 0.65602 0.97534 0.37827
 C1463 C 0.64704 0.96667 0.39895
 C1464 C 0.66038 0.94590 0.41247
 C1465 C 0.68412 0.93714 0.40396
 H1466 H 0.69328 0.94604 0.38780
 O1467 O 0.37312 1.02495 0.40820
 O1468 O 0.34345 1.02500 0.37861
 C1469 C 0.35246 1.03367 0.39928
 C1470 C 0.33918 1.05452 0.41276
 C1471 C 0.31552 1.06339 0.40415
 H1472 H 0.30638 1.05450 0.38796
 O1473 O 0.40795 1.12687 0.47526
 O1474 O 0.37839 1.15657 0.47526
 C1475 C 0.39907 1.14757 0.46660
 C1476 C 0.41262 1.16088 0.44584
 C1477 C 0.40413 1.18462 0.43704
 H1478 H 0.38797 1.19379 0.44592
 O1479 O 0.59168 0.87356 0.47492
 O1480 O 0.62123 0.84385 0.47491
 C1481 C 0.60056 0.85286 0.46626
 C1482 C 0.58699 0.83953 0.44551
 C1483 C 0.59548 0.81579 0.43671
 H1484 H 0.61165 0.80662 0.44557
 O1485 O 0.59147 1.02491 0.37321
 O1486 O 0.62096 1.02498 0.34342
 C1487 C 0.60031 1.03361 0.35250
 C1488 C 0.58672 1.05439 0.33923
 C1489 C 0.59515 1.06319 0.31547
 H1490 H 0.61129 1.05432 0.30624
 O1491 O 0.40792 0.97537 0.37339
 O1492 O 0.37841 0.97536 0.34363
 C1493 C 0.39906 0.96670 0.35267
 C1494 C 0.41265 0.94594 0.33935
 C1495 C 0.40420 0.93716 0.31558
 H1496 H 0.38803 0.94602 0.30639
 O1497 O 0.52452 1.12665 0.40829
 O1498 O 0.52455 1.15638 0.37874
 C1499 C 0.53322 1.14733 0.39939
 C1500 C 0.55405 1.16059 0.41291
 C1501 C 0.56278 1.18435 0.40443
 H1502 H 0.55381 1.19357 0.38833
 O1503 O 0.47500 0.87342 0.40797
 O1504 O 0.47498 0.84377 0.37836
 C1505 C 0.46631 0.85276 0.39903
 C1506 C 0.44548 0.83946 0.41252
 C1507 C 0.43661 0.81580 0.40390
 H1508 H 0.44549 0.80666 0.38771
 O1509 O 0.62667 1.09174 0.47514
 O1510 O 0.65635 1.12130 0.47499
 C1511 C 0.64732 1.10063 0.46638
 C1512 C 0.66057 1.08708 0.44556
 C1513 C 0.68433 1.09549 0.43677
 H1514 H 0.69357 1.11158 0.44569
 O1515 O 0.37318 0.90827 0.47501
 O1516 O 0.34349 0.87872 0.47505
 C1517 C 0.35248 0.89939 0.46637
 C1518 C 0.33915 0.91294 0.44561
 C1519 C 0.31546 0.90438 0.43676
 H1520 H 0.30633 0.88818 0.44561
 Cu1521 Cu 0.49981 0.89384 0.39362
 Cu1522 Cu 0.49981 0.85833 0.35798
 Cu1523 Cu 0.49968 1.10640 0.39383
 Cu1524 Cu 0.49970 1.14198 0.35825
 Cu1525 Cu 0.39346 1.00014 0.39376
 Cu1526 Cu 0.35794 1.00017 0.35813
 Cu1527 Cu 0.60597 1.00012 0.39350
 Cu1528 Cu 0.64148 1.00016 0.35784
 C1529 C 0.43352 0.93394 0.35095
 H1530 H 0.43993 0.94035 0.36943
 C1531 C 0.41629 0.91663 0.30375
 C1532 C 0.56588 1.06641 0.35089
 H1533 H 0.55950 1.05997 0.36937
 C1534 C 0.58309 1.08376 0.30368
 C1535 C 0.35068 0.93386 0.43363
 H1536 H 0.36910 0.94033 0.44010
 C1537 C 0.30363 0.91640 0.41619
 C1538 C 0.64889 1.06629 0.43350
 H1539 H 0.63041 1.05991 0.43993
 C1540 C 0.69609 1.08345 0.41616
 C1541 C 0.43346 0.85099 0.43342
 H1542 H 0.43996 0.86940 0.43995
 C1543 C 0.41599 0.80399 0.41584
 C1544 C 0.56617 1.14895 0.43370
 H1545 H 0.55979 1.13048 0.44013
 C1546 C 0.58337 1.19616 0.41640
 C1547 C 0.43342 1.06646 0.35104
 H1548 H 0.43984 1.06003 0.36952
 C1549 C 0.41615 1.08377 0.30384
 C1550 C 0.56602 0.93384 0.35073
 H1551 H 0.55956 0.94031 0.36918
 C1552 C 0.58343 0.91645 0.30361
 C1553 C 0.56610 0.85111 0.43351
 H1554 H 0.55967 0.86957 0.43995
 C1555 C 0.58341 0.80396 0.41617
 C1556 C 0.43349 1.14929 0.43382
 H1557 H 0.43992 1.13083 0.44026
 C1558 C 0.41617 1.19644 0.41646
 C1559 C 0.35073 1.06654 0.43366
 H1560 H 0.36913 1.06004 0.44019
 C1561 C 0.30373 1.08403 0.41606
 C1562 C 0.64881 0.93386 0.43335
 H1563 H 0.63035 0.94028 0.43980
 C1564 C 0.69597 0.91659 0.41599
 O1565 O 0.52462 0.90854 0.62635
 O1566 O 0.52471 0.87899 0.65607
 C1567 C 0.53333 0.89966 0.64704
 C1568 C 0.55409 0.91322 0.66034
 C1569 C 0.56278 0.90481 0.68415
 H1570 H 0.55385 0.88871 0.69337
 O1571 O 0.47520 1.09192 0.62634
 O1572 O 0.47519 1.12143 0.65610
 C1573 C 0.46653 1.10078 0.64705
 C1574 C 0.44575 1.08723 0.66036
 C1575 C 0.43699 1.09573 0.68412
 H1576 H 0.44590 1.11187 0.69329
 O1577 O 0.37328 1.02480 0.59166
 O1578 O 0.34359 1.02484 0.62124
 C1579 C 0.35258 1.03347 0.60055
 C1580 C 0.33922 1.05419 0.58698
 C1581 C 0.31543 1.06285 0.59543
 H1582 H 0.30625 1.05389 0.61155
 O1583 O 0.62656 0.97551 0.59145
 O1584 O 0.65623 0.97536 0.62104
 C1585 C 0.64723 0.96678 0.60034
 C1586 C 0.66052 0.94602 0.58675
 C1587 C 0.68431 0.93730 0.59515
 H1588 H 0.69353 0.94621 0.61127
 O1589 O 0.59166 0.87366 0.52450
 O1590 O 0.62120 0.84394 0.52455
 C1591 C 0.60054 0.85297 0.53320
 C1592 C 0.58698 0.83968 0.55398
 C1593 C 0.59540 0.81589 0.56270
 H1594 H 0.61152 0.80668 0.55377
 O1595 O 0.40784 1.12684 0.52485
 O1596 O 0.37826 1.15652 0.52494
 C1597 C 0.39893 1.14750 0.53359
 C1598 C 0.41246 1.16077 0.55443
 C1599 C 0.40384 1.18439 0.56343
 H1600 H 0.38758 1.19352 0.55469
 O1601 O 0.40811 0.97533 0.62654
 O1602 O 0.37859 0.97533 0.65629
 C1603 C 0.39924 0.96667 0.64726
 C1604 C 0.41278 0.94590 0.66058
 C1605 C 0.40426 0.93710 0.68431
 H1606 H 0.38810 0.94599 0.69348
 O1607 O 0.59181 1.02506 0.62629
 O1608 O 0.62130 1.02498 0.65606
 C1609 C 0.60068 1.03369 0.64702
 C1610 C 0.58715 1.05447 0.66034
 C1611 C 0.59569 1.06326 0.68406
 H1612 H 0.61186 1.05437 0.69321
 O1613 O 0.47510 0.87369 0.59159
 O1614 O 0.47514 0.84396 0.62113
 C1615 C 0.46647 0.85297 0.60046
 C1616 C 0.44577 0.83961 0.58687
 C1617 C 0.43713 0.81579 0.59528
 H1618 H 0.44608 0.80660 0.61140
 O1619 O 0.52471 1.12681 0.59155
 O1620 O 0.52476 1.15649 0.62113
 C1621 C 0.53341 1.14748 0.60045
 C1622 C 0.55423 1.16075 0.58692
 C1623 C 0.56306 1.18447 0.59541
 H1624 H 0.55416 1.19368 0.61155
 O1625 O 0.37328 0.90822 0.52461
 O1626 O 0.34359 0.87866 0.52472
 C1627 C 0.35262 0.89932 0.53336
 C1628 C 0.33937 0.91284 0.55421
 C1629 C 0.31568 0.90430 0.56309
 H1630 H 0.30651 0.88813 0.55422
 O1631 O 0.62689 1.09196 0.52475
 O1632 O 0.65655 1.12154 0.52468
 C1633 C 0.64757 1.10090 0.53341
 C1634 C 0.66086 1.08744 0.55427
 C1635 C 0.68447 1.09607 0.56327
 H1636 H 0.69361 1.11230 0.55446
 O1637 O 0.52477 1.09205 0.62641
 O1638 O 0.52481 1.12157 0.65616
 C1639 C 0.53347 1.10092 0.64711
 C1640 C 0.55428 1.08738 0.66039
 C1641 C 0.56313 1.09588 0.68412
 H1642 H 0.55428 1.11205 0.69331
 O1643 O 0.47507 0.90836 0.62652
 O1644 O 0.47509 0.87880 0.65623
 C1645 C 0.46641 0.89946 0.64723
 C1646 C 0.44563 0.91298 0.66057
 C1647 C 0.43681 0.90447 0.68430
 H1648 H 0.44567 0.88829 0.69347
 O1649 O 0.62678 1.02507 0.59166
 O1650 O 0.65643 1.02499 0.62128
 C1651 C 0.64746 1.03371 0.60062
 C1652 C 0.66079 1.05453 0.58716
 C1653 C 0.68440 1.06345 0.59585
 H1654 H 0.69349 1.05461 0.61209
 O1655 O 0.37335 0.97524 0.59172
 O1656 O 0.34366 0.97522 0.62131
 C1657 C 0.35268 0.96654 0.60064
 C1658 C 0.33939 0.94572 0.58713
 C1659 C 0.31570 0.93687 0.59571
 H1660 H 0.30655 0.94573 0.61190
 O1661 O 0.59191 1.12657 0.52471
 O1662 O 0.62140 1.15632 0.52463
 C1663 C 0.60076 1.14729 0.53333
 C1664 C 0.58719 1.16064 0.55408
 C1665 C 0.59571 1.18436 0.56287
 H1666 H 0.61191 1.19348 0.55400
 O1667 O 0.40813 0.87350 0.52449
 O1668 O 0.37863 0.84377 0.52459
 C1669 C 0.39930 0.85281 0.53319
 C1670 C 0.41291 0.83952 0.55395
 C1671 C 0.40457 0.81570 0.56265
 H1672 H 0.38849 0.80645 0.55371
 O1673 O 0.59179 0.97551 0.62629
 O1674 O 0.62129 0.97537 0.65606
 C1675 C 0.60063 0.96679 0.64701
 C1676 C 0.58701 0.94606 0.66032
 C1677 C 0.59541 0.93734 0.68413
 H1678 H 0.61154 0.94624 0.69334
 O1679 O 0.40813 1.02489 0.62642
 O1680 O 0.37860 1.02496 0.65617
 C1681 C 0.39925 1.03360 0.64712
 C1682 C 0.41282 1.05439 0.66040
 C1683 C 0.40435 1.06321 0.68415
 H1684 H 0.38820 1.05435 0.69336
 O1685 O 0.47511 1.12684 0.59166
 O1686 O 0.47510 1.15650 0.62126
 C1687 C 0.46640 1.14750 0.60061
 C1688 C 0.44551 1.16077 0.58719
 C1689 C 0.43659 1.18438 0.59587
 H1690 H 0.44549 1.19351 0.61206
 O1691 O 0.52465 0.87369 0.59161
 O1692 O 0.52474 0.84397 0.62117
 C1693 C 0.53335 0.85300 0.60049
 C1694 C 0.55411 0.83969 0.58690
 C1695 C 0.56283 0.81591 0.59532
 H1696 H 0.55391 0.80670 0.61146
 O1697 O 0.62647 0.90842 0.52444
 O1698 O 0.65618 0.87887 0.52449
 C1699 C 0.64716 0.89955 0.53312
 C1700 C 0.66049 0.91312 0.55386
 C1701 C 0.68428 0.90470 0.56256
 H1702 H 0.69348 0.88858 0.55363
 O1703 O 0.37316 1.09195 0.52472
 O1704 O 0.34340 1.12145 0.52480
 C1705 C 0.35245 1.10077 0.53340
 C1706 C 0.33915 1.08714 0.55413
 C1707 C 0.31535 1.09550 0.56288
 H1708 H 0.30612 1.11163 0.55400
 Cu1709 Cu 0.49985 0.89404 0.60606
 Cu1710 Cu 0.49993 0.85845 0.64163
 Cu1711 Cu 0.49996 1.10646 0.60602
 Cu1712 Cu 0.49997 1.14197 0.64164
 Cu1713 Cu 0.39359 0.89381 0.49974
 Cu1714 Cu 0.35805 0.85824 0.49983
 Cu1715 Cu 0.60610 0.89396 0.49968
 Cu1716 Cu 0.64167 0.85839 0.49970
 Cu1717 Cu 0.39348 1.10649 0.49999
 Cu1718 Cu 0.35789 1.14202 0.50004
 Cu1719 Cu 0.60639 1.10623 0.49995
 Cu1720 Cu 0.64190 1.14184 0.49981
 Cu1721 Cu 0.39368 1.00006 0.60612
 Cu1722 Cu 0.35814 1.00010 0.64173
 Cu1723 Cu 0.60628 1.00030 0.60595
 Cu1724 Cu 0.64179 1.00015 0.64159
 C1725 C 0.56617 0.93403 0.64870
 H1726 H 0.55981 0.94041 0.63019
 C1727 C 0.58331 0.91685 0.69600
 C1728 C 0.43369 1.06639 0.64878
 H1729 H 0.44011 1.05995 0.63031
 C1730 C 0.41642 1.08375 0.69597
 C1731 C 0.35081 1.06630 0.56615
 H1732 H 0.36932 1.05997 0.55976
 C1733 C 0.30354 1.08337 0.58340
 C1734 C 0.64889 0.93396 0.56593
 H1735 H 0.63039 0.94034 0.55956
 C1736 C 0.69615 0.91677 0.58307
 C1737 C 0.56616 0.85130 0.56605
 H1738 H 0.55978 0.86980 0.55967
 C1739 C 0.58334 0.80405 0.58324
 C1740 C 0.43346 1.14924 0.56629
 H1741 H 0.44000 1.13087 0.55971
 C1742 C 0.41589 1.19616 0.58403
 C1743 C 0.43364 0.93388 0.64899
 H1744 H 0.44009 0.94033 0.63053
 C1745 C 0.41625 0.91651 0.69613
 C1746 C 0.56627 1.06650 0.64879
 H1747 H 0.55979 1.06006 0.63033
 C1748 C 0.58371 1.08383 0.69591
 C1749 C 0.43368 0.85120 0.56603
 H1750 H 0.44000 0.86972 0.55966
 C1751 C 0.41667 0.80388 0.58318
 C1752 C 0.56628 1.14912 0.56608
 H1753 H 0.55982 1.13067 0.55964
 C1754 C 0.58367 1.19623 0.58340
 C1755 C 0.35094 0.93372 0.56621
 H1756 H 0.36936 0.94020 0.55971
 C1757 C 0.30389 0.91629 0.58371
 C1758 C 0.64931 1.06650 0.56620
 H1759 H 0.63095 1.05996 0.55962
 C1760 C 0.69621 1.08409 0.58394
 O1761 O 0.59154 0.52477 1.12697
 O1762 O 0.62112 0.52486 1.15665
 C1763 C 0.60045 0.53350 1.14764
 C1764 C 0.58691 0.55430 1.16093
 C1765 C 0.59545 0.56315 1.18463
 H1766 H 0.61164 0.55430 1.19379
 O1767 O 0.40801 0.47521 1.12718
 O1768 O 0.37842 0.47514 1.15687
 C1769 C 0.39910 0.46651 1.14786
 C1770 C 0.41263 0.44571 1.16118
 C1771 C 0.40407 0.43688 1.18488
 H1772 H 0.38788 0.44575 1.19403
 O1773 O 0.52439 0.62657 1.09218
 O1774 O 0.52439 0.65630 1.12172
 C1775 C 0.53305 0.64727 1.10106
 C1776 C 0.55382 0.66057 1.08750
 C1777 C 0.56262 0.68430 1.09601
 H1778 H 0.55374 0.69347 1.11218
 O1779 O 0.47515 0.37348 1.09236
 O1780 O 0.47514 0.34374 1.12190
 C1781 C 0.46651 0.35276 1.10122
 C1782 C 0.44581 0.33941 1.08762
 C1783 C 0.43710 0.31563 1.09607
 H1784 H 0.44599 0.30646 1.11224
 O1785 O 0.62612 0.59174 1.02507
 O1786 O 0.65584 0.62127 1.02506
 C1787 C 0.64683 0.60061 1.03371
 C1788 C 0.66019 0.58701 1.05442
 C1789 C 0.68402 0.59538 1.06304
 H1790 H 0.69322 0.61149 1.05408
 O1791 O 0.37347 0.40804 1.02517
 O1792 O 0.34378 0.37848 1.02527
 C1793 C 0.35279 0.39916 1.03389
 C1794 C 0.33947 0.41272 1.05467
 C1795 C 0.31571 0.40425 1.06341
 H1796 H 0.30655 0.38811 1.05449
 O1797 O 0.47487 0.59174 1.12705
 O1798 O 0.47483 0.62132 1.15674
 C1799 C 0.46619 0.60066 1.14774
 C1800 C 0.44539 0.58716 1.16107
 C1801 C 0.43654 0.59577 1.18475
 H1802 H 0.44541 0.61196 1.19387
 O1803 O 0.52461 0.40828 1.12724
 O1804 O 0.52467 0.37873 1.15696
 C1805 C 0.53330 0.39940 1.14794
 C1806 C 0.55407 0.41295 1.16123
 C1807 C 0.56287 0.40448 1.18498
 H1808 H 0.55400 0.38833 1.19419
 O1809 O 0.62633 0.47515 1.09223
 O1810 O 0.65608 0.47515 1.12175
 C1811 C 0.64704 0.46648 1.10110
 C1812 C 0.66034 0.44570 1.08753
 C1813 C 0.68408 0.43688 1.09600
 H1814 H 0.69327 0.44572 1.11218
 O1815 O 0.37314 0.52470 1.09232
 O1816 O 0.34339 0.52470 1.12185
 C1817 C 0.35242 0.53335 1.10118
 C1818 C 0.33909 0.55410 1.08760
 C1819 C 0.31538 0.56295 1.09613
 H1820 H 0.30624 0.55414 1.11236
 O1821 O 0.40778 0.62633 1.02511
 O1822 O 0.37820 0.65601 1.02513
 C1823 C 0.39887 0.64701 1.03380
 C1824 C 0.41238 0.66034 1.05459
 C1825 C 0.40386 0.68407 1.06338
 H1826 H 0.38769 0.69323 1.05449
 O1827 O 0.59157 0.37346 1.02513
 O1828 O 0.62112 0.34375 1.02517
 C1829 C 0.60047 0.35279 1.03384
 C1830 C 0.58696 0.33951 1.05468
 C1831 C 0.59548 0.31578 1.06346
 H1832 H 0.61160 0.30659 1.05452
 O1833 O 0.40790 0.52478 1.12717
 O1834 O 0.37832 0.52479 1.15686
 C1835 C 0.39898 0.53347 1.14785
 C1836 C 0.41248 0.55430 1.16113
 C1837 C 0.40391 0.56323 1.18482
 H1838 H 0.38771 0.55441 1.19399
 O1839 O 0.59158 0.47521 1.12709
 O1840 O 0.62115 0.47523 1.15678
 C1841 C 0.60049 0.46657 1.14780
 C1842 C 0.58696 0.44582 1.16116
 C1843 C 0.59546 0.43705 1.18491
 H1844 H 0.61163 0.44594 1.19407
 O1845 O 0.52469 0.37352 1.09240
 O1846 O 0.52476 0.34379 1.12195
 C1847 C 0.53340 0.35283 1.10128
 C1848 C 0.55417 0.33954 1.08769
 C1849 C 0.56299 0.31580 1.09617
 H1850 H 0.55415 0.30663 1.11236
 O1851 O 0.47482 0.62646 1.09216
 O1852 O 0.47476 0.65620 1.12169
 C1853 C 0.46611 0.64715 1.10103
 C1854 C 0.44529 0.66041 1.08748
 C1855 C 0.43646 0.68414 1.09596
 H1856 H 0.44535 0.69334 1.11211
 O1857 O 0.37302 0.59152 1.02508
 O1858 O 0.34328 0.62104 1.02509
 C1859 C 0.35232 0.60040 1.03376
 C1860 C 0.33904 0.58689 1.05459
 C1861 C 0.31534 0.59543 1.06342
 H1862 H 0.30617 0.61158 1.05451
 O1863 O 0.62634 0.40825 1.02508
 O1864 O 0.65605 0.37870 1.02511
 C1865 C 0.64703 0.39936 1.03377
 C1866 C 0.66033 0.41288 1.05456
 C1867 C 0.68406 0.40437 1.06332
 H1868 H 0.69324 0.38823 1.05439
 O1869 O 0.47504 0.40821 1.12723
 O1870 O 0.47502 0.37865 1.15694
 C1871 C 0.46634 0.39930 1.14792
 C1872 C 0.44552 0.41281 1.16121
 C1873 C 0.43664 0.40427 1.18492
 H1874 H 0.44549 0.38809 1.19409
 O1875 O 0.52445 0.59175 1.12698
 O1876 O 0.52447 0.62132 1.15668
 C1877 C 0.53315 0.60066 1.14766
 C1878 C 0.55398 0.58716 1.16095
 C1879 C 0.56282 0.59571 1.18465
 H1880 H 0.55395 0.61188 1.19382
 O1881 O 0.37331 0.47514 1.09229
 O1882 O 0.34355 0.47506 1.12180
 C1883 C 0.35263 0.46642 1.10115
 C1884 C 0.33938 0.44562 1.08757
 C1885 C 0.31562 0.43684 1.09600
 H1886 H 0.30639 0.44574 1.11213
 O1887 O 0.62628 0.52470 1.09212
 O1888 O 0.65605 0.52477 1.12162
 C1889 C 0.64699 0.53339 1.10095
 C1890 C 0.66027 0.55412 1.08732
 C1891 C 0.68411 0.56279 1.09564
 H1892 H 0.69336 0.55385 1.11173
 O1893 O 0.40828 0.37326 1.02513
 O1894 O 0.37876 0.34353 1.02524
 C1895 C 0.39942 0.35258 1.03385
 C1896 C 0.41299 0.33931 1.05465
 C1897 C 0.40459 0.31553 1.06340
 H1898 H 0.38849 0.30630 1.05448
 O1899 O 0.59136 0.62658 1.02512
 O1900 O 0.62091 0.65628 1.02513
 C1901 C 0.60025 0.64726 1.03381
 C1902 C 0.58672 0.66057 1.05460
 C1903 C 0.59522 0.68429 1.06341
 H1904 H 0.61139 0.69346 1.05453
 Cu1905 Cu 0.60597 0.49994 1.10665
 Cu1906 Cu 0.64158 0.50001 1.14218
 Cu1907 Cu 0.39355 0.49997 1.10679
 Cu1908 Cu 0.35794 0.49991 1.14232
 Cu1909 Cu 0.49964 0.60617 1.10664
 Cu1910 Cu 0.49961 0.64176 1.14218
 Cu1911 Cu 0.49987 0.39384 1.10686
 Cu1912 Cu 0.49990 0.35825 1.14242
 C1913 C 0.56600 0.56628 1.14937
 H1914 H 0.55952 0.55980 1.13093
 C1915 C 0.58343 0.58372 1.19645
 C1916 C 0.43353 0.43371 1.14963
 H1917 H 0.44002 0.44018 1.13119
 C1918 C 0.41604 0.41629 1.19671
 C1919 C 0.56585 0.64899 1.06662
 H1920 H 0.55940 0.63054 1.06018
 C1921 C 0.58319 0.69611 1.08399
 C1922 C 0.43378 0.35097 1.06673
 H1923 H 0.44015 0.36946 1.06032
 C1924 C 0.41663 0.30373 1.08398
 C1925 C 0.64859 0.56620 1.06653
 H1926 H 0.63006 0.55986 1.06023
 C1927 C 0.69594 0.58329 1.08352
 C1928 C 0.35103 0.43358 1.06673
 H1929 H 0.36951 0.44000 1.06033
 C1930 C 0.30383 0.41629 1.08394
 C1931 C 0.43339 0.56625 1.14955
 H1932 H 0.43988 0.55973 1.13113
 C1933 C 0.41593 0.58383 1.19658
 C1934 C 0.56608 0.43380 1.14961
 H1935 H 0.55963 0.44021 1.13114
 C1936 C 0.58344 0.41651 1.19678
 C1937 C 0.64875 0.43372 1.06664
 H1938 H 0.63029 0.44017 1.06021
 C1939 C 0.69590 0.41634 1.08391
 C1940 C 0.35063 0.56604 1.06665
 H1941 H 0.36907 0.55957 1.06018
 C1942 C 0.30355 0.58350 1.08406
 C1943 C 0.43327 0.64879 1.06662
 H1944 H 0.43974 0.63034 1.06020
 C1945 C 0.41588 0.69593 1.08393
 C1946 C 0.56614 0.35111 1.06677
 H1947 H 0.55969 0.36957 1.06033
 C1948 C 0.58351 0.30396 1.08407
 O1949 O 0.59145 0.47511 0.87366
 O1950 O 0.62100 0.47514 0.84394
 C1951 C 0.60036 0.46646 0.85296
 C1952 C 0.58686 0.44567 0.83962
 C1953 C 0.59542 0.43691 0.81589
 H1954 H 0.61158 0.44582 0.80675
 O1955 O 0.40804 0.52434 0.87362
 O1956 O 0.37850 0.52440 0.84389
 C1957 C 0.39917 0.53303 0.85292
 C1958 C 0.41274 0.55379 0.83962
 C1959 C 0.40440 0.56245 0.81577
 H1960 H 0.38834 0.55348 0.80651
 O1961 O 0.47478 0.62647 0.90849
 O1962 O 0.47470 0.65615 0.87889
 C1963 C 0.46607 0.64714 0.89957
 C1964 C 0.44527 0.66042 0.91313
 C1965 C 0.43645 0.68415 0.90464
 H1966 H 0.44532 0.69335 0.88847
 O1967 O 0.52458 0.37329 0.90836
 O1968 O 0.52470 0.34355 0.87884
 C1969 C 0.53331 0.35261 0.89950
 C1970 C 0.55411 0.33936 0.91309
 C1971 C 0.56298 0.31564 0.90461
 H1972 H 0.55416 0.30645 0.88843
 O1973 O 0.62639 0.40817 0.97548
 O1974 O 0.65610 0.37863 0.97546
 C1975 C 0.64708 0.39928 0.96679
 C1976 C 0.66036 0.41282 0.94598
 C1977 C 0.68408 0.40432 0.93712
 H1978 H 0.69327 0.38815 0.94598
 O1979 O 0.37310 0.59149 0.97547
 O1980 O 0.34335 0.62101 0.97542
 C1981 C 0.35241 0.60037 0.96675
 C1982 C 0.33916 0.58684 0.94591
 C1983 C 0.31547 0.59540 0.93704
 H1984 H 0.30630 0.61158 0.94590
 O1985 O 0.52441 0.59172 0.87374
 O1986 O 0.52440 0.62124 0.84397
 C1987 C 0.53307 0.60059 0.85302
 C1988 C 0.55383 0.58703 0.83969
 C1989 C 0.56256 0.59547 0.81590
 H1990 H 0.55365 0.61161 0.80670
 O1991 O 0.47494 0.40793 0.87348
 O1992 O 0.47499 0.37835 0.84380
 C1993 C 0.46627 0.39898 0.85280
 C1994 C 0.44540 0.41242 0.83951
 C1995 C 0.43649 0.40376 0.81587
 H1996 H 0.44537 0.38756 0.80675
 O1997 O 0.62617 0.52470 0.90849
 O1998 O 0.65588 0.52478 0.87892
 C1999 C 0.64685 0.53341 0.89960
 C2000 C 0.66013 0.55419 0.91315
 C2001 C 0.68389 0.56295 0.90468
 H2002 H 0.69309 0.55403 0.88855
 O2003 O 0.37321 0.47487 0.90846
 O2004 O 0.34346 0.47484 0.87893
 C2005 C 0.35250 0.46620 0.89960
 C2006 C 0.33923 0.44543 0.91320
 C2007 C 0.31550 0.43660 0.90475
 H2008 H 0.30629 0.44545 0.88858
 O2009 O 0.59129 0.62657 0.97554
 O2010 O 0.62083 0.65628 0.97548
 C2011 C 0.60017 0.64726 0.96685
 C2012 C 0.58660 0.66057 0.94608
 C2013 C 0.59503 0.68434 0.93733
 H2014 H 0.61116 0.69354 0.94624
 O2015 O 0.40817 0.37318 0.97552
 O2016 O 0.37864 0.34346 0.97558
 C2017 C 0.39927 0.35248 0.96686
 C2018 C 0.41277 0.33918 0.94603
 C2019 C 0.40424 0.31548 0.93720
 H2020 H 0.38808 0.30631 0.94609
 O2021 O 0.40784 0.47477 0.87348
 O2022 O 0.37827 0.47475 0.84379
 C2023 C 0.39893 0.46607 0.85280
 C2024 C 0.41243 0.44524 0.83950
 C2025 C 0.40381 0.43626 0.81586
 H2026 H 0.38757 0.44505 0.80673
 O2027 O 0.59139 0.52467 0.87368
 O2028 O 0.62094 0.52475 0.84395
 C2029 C 0.60027 0.53337 0.85298
 C2030 C 0.58670 0.55413 0.83967
 C2031 C 0.59513 0.56286 0.81588
 H2032 H 0.61125 0.55394 0.80667
 O2033 O 0.47503 0.37321 0.90836
 O2034 O 0.47507 0.34346 0.87884
 C2035 C 0.46639 0.35249 0.89949
 C2036 C 0.44562 0.33919 0.91306
 C2037 C 0.43678 0.31549 0.90454
 H2038 H 0.44563 0.30633 0.88834
 O2039 O 0.52434 0.62652 0.90853
 O2040 O 0.52432 0.65621 0.87894
 C2041 C 0.53298 0.64721 0.89962
 C2042 C 0.55372 0.66055 0.91318
 C2043 C 0.56246 0.68432 0.90471
 H2044 H 0.55355 0.69350 0.88856
 O2045 O 0.37337 0.40798 0.97557
 O2046 O 0.34369 0.37842 0.97563
 C2047 C 0.35267 0.39907 0.96693
 C2048 C 0.33932 0.41259 0.94615
 C2049 C 0.31559 0.40406 0.93741
 H2050 H 0.30645 0.38791 0.94634
 O2051 O 0.62609 0.59179 0.97549
 O2052 O 0.65580 0.62132 0.97543
 C2053 C 0.64678 0.60066 0.96679
 C2054 C 0.66009 0.58710 0.94602
 C2055 C 0.68385 0.59556 0.93725
 H2056 H 0.69302 0.61171 0.94615
 O2057 O 0.52452 0.40805 0.87351
 O2058 O 0.52465 0.37848 0.84381
 C2059 C 0.53325 0.39916 0.85282
 C2060 C 0.55403 0.41274 0.83954
 C2061 C 0.56290 0.40426 0.81581
 H2062 H 0.55407 0.38810 0.80660
 O2063 O 0.47487 0.59158 0.87378
 O2064 O 0.47480 0.62109 0.84401
 C2065 C 0.46620 0.60041 0.85305
 C2066 C 0.44553 0.58677 0.83970
 C2067 C 0.43689 0.59512 0.81585
 H2068 H 0.44580 0.61125 0.80665
 O2069 O 0.37316 0.52443 0.90834
 O2070 O 0.34344 0.52449 0.87879
 C2071 C 0.35248 0.53315 0.89945
 C2072 C 0.33919 0.55397 0.91298
 C2073 C 0.31550 0.56284 0.90442
 H2074 H 0.30636 0.55399 0.88822
 O2075 O 0.62626 0.47514 0.90846
 O2076 O 0.65597 0.47516 0.87889
 C2077 C 0.64696 0.46649 0.89955
 C2078 C 0.66029 0.44571 0.91308
 C2079 C 0.68401 0.43693 0.90453
 H2080 H 0.69315 0.44582 0.88835
 O2081 O 0.59155 0.37344 0.97552
 O2082 O 0.62110 0.34373 0.97551
 C2083 C 0.60044 0.35275 0.96684
 C2084 C 0.58694 0.33942 0.94605
 C2085 C 0.59550 0.31571 0.93727
 H2086 H 0.61166 0.30657 0.94618
 O2087 O 0.40779 0.62637 0.97552
 O2088 O 0.37821 0.65605 0.97548
 C2089 C 0.39888 0.64705 0.96683
 C2090 C 0.41241 0.66038 0.94605
 C2091 C 0.40389 0.68411 0.93727
 H2092 H 0.38773 0.69327 0.94618
 Cu2093 Cu 0.60586 0.49990 0.89404
 Cu2094 Cu 0.64143 0.49996 0.85844
 Cu2095 Cu 0.39352 0.49960 0.89393
 Cu2096 Cu 0.35794 0.49963 0.85838
 Cu2097 Cu 0.60575 0.60621 1.00031
 Cu2098 Cu 0.64132 0.64177 1.00028
 Cu2099 Cu 0.60600 0.39379 1.00030
 Cu2100 Cu 0.64157 0.35822 1.00031
 Cu2101 Cu 0.39339 0.60597 1.00030
 Cu2102 Cu 0.35777 0.64149 1.00028
 Cu2103 Cu 0.39378 0.39357 1.00033
 Cu2104 Cu 0.35825 0.35799 1.00044
 Cu2105 Cu 0.49960 0.60612 0.89410
 Cu2106 Cu 0.49955 0.64165 0.85847
 Cu2107 Cu 0.49976 0.39359 0.89388
 Cu2108 Cu 0.49987 0.35798 0.85834
 C2109 C 0.56599 0.43362 0.85116
 H2110 H 0.55950 0.44004 0.86962
 C2111 C 0.58347 0.41634 0.80403
 C2112 C 0.43349 0.56592 0.85130
 H2113 H 0.43981 0.55959 0.86985
 C2114 C 0.41646 0.58298 0.80393
 C2115 C 0.43328 0.64882 0.93401
 H2116 H 0.43973 0.63037 0.94044
 C2117 C 0.41589 0.69596 0.91670
 C2118 C 0.56606 0.35097 0.93399
 H2119 H 0.55957 0.36941 0.94042
 C2120 C 0.58355 0.30387 0.91668
 C2121 C 0.64875 0.43369 0.93398
 H2122 H 0.63031 0.44013 0.94046
 C2123 C 0.69586 0.41636 0.91653
 C2124 C 0.35074 0.56595 0.93391
 H2125 H 0.36916 0.55947 0.94040
 C2126 C 0.30369 0.58342 0.91642
 C2127 C 0.56587 0.56619 0.85130
 H2128 H 0.55949 0.55979 0.86980
 C2129 C 0.58308 0.58340 0.80404
 C2130 C 0.43340 0.43333 0.85104
 H2131 H 0.43993 0.43990 0.86942
 C2132 C 0.41582 0.41565 0.80408
 C2133 C 0.64851 0.56624 0.93399
 H2134 H 0.63004 0.55983 0.94040
 C2135 C 0.69570 0.58350 0.91672
 C2136 C 0.35086 0.43345 0.93408
 H2137 H 0.36931 0.43991 0.94048
 C2138 C 0.30372 0.41605 0.91684
 C2139 C 0.56577 0.64896 0.93404
 H2140 H 0.55938 0.63048 0.94045
 C2141 C 0.58298 0.69617 0.91678
 C2142 C 0.43364 0.35075 0.93398
 H2143 H 0.44011 0.36919 0.94044
 C2144 C 0.41622 0.30367 0.91658
 C2145 C 1.12073 1.11980 1.28224
 C2146 C 1.11198 1.11125 1.26286
 C2147 C 1.10196 1.10151 1.23996
 C2148 C 1.09362 1.09339 1.22022
 C2149 C 1.12005 0.61905 0.78211
 C2150 C 1.11139 0.61053 0.76269
 C2151 C 1.10149 0.60084 0.73973
 C2152 C 1.09327 0.59277 0.71994
 C2153 C 0.62019 1.11941 0.78193
 C2154 C 0.61149 1.11093 0.76251
 C2155 C 0.60152 1.10128 0.73956
 C2156 C 0.59325 1.09324 0.71977
 C2157 C 0.61964 0.61971 1.28242
 C2158 C 0.61099 0.61113 1.26301
 C2159 C 0.60112 0.60135 1.24007
 C2160 C 0.59293 0.59320 1.22030
 C2161 C 0.88038 0.88044 1.28238
 C2162 C 0.88895 0.88906 1.26295
 C2163 C 0.89873 0.89890 1.24000
 C2164 C 0.90687 0.90708 1.22020
 C2165 C 0.88001 0.38029 0.78219
 C2166 C 0.88863 0.38884 0.76275
 C2167 C 0.89850 0.39858 0.73978
 C2168 C 0.90671 0.40669 0.71998
 C2169 C 0.37989 0.88080 0.78217
 C2170 C 0.38857 0.88932 0.76275
 C2171 C 0.39850 0.89901 0.73979
 C2172 C 0.40674 0.90708 0.72000
 C2173 C 0.37956 0.38051 1.28269
 C2174 C 0.38826 0.38904 1.26328
 C2175 C 0.39822 0.39875 1.24033
 C2176 C 0.40650 0.40684 1.22056
 C2177 C 0.87906 1.12006 0.71796
 C2178 C 0.88785 1.11151 0.73733
 C2179 C 0.89795 1.10178 0.76021
 C2180 C 0.90634 1.09365 0.77993
 C2181 C 0.88150 0.61860 0.21722
 C2182 C 0.89004 0.61011 0.23669
 C2183 C 0.89976 0.60045 0.25974
 C2184 C 0.90782 0.59244 0.27963
 C2185 C 0.38024 1.11946 0.21762
 C2186 C 0.38882 1.11094 0.23708
 C2187 C 0.39861 1.10124 0.26009
 C2188 C 0.40674 1.09316 0.27992
 C2189 C 0.38123 0.61857 0.71743
 C2190 C 0.38966 0.61004 0.73695
 C2191 C 0.39924 0.60033 0.76003
 C2192 C 0.40721 0.59228 0.77993
 C2193 C 1.12007 0.88082 0.71781
 C2194 C 1.11141 0.88933 0.73724
 C2195 C 1.10150 0.89901 0.76020
 C2196 C 1.09329 0.90706 0.78001
 C2197 C 1.11966 0.38120 0.21746
 C2198 C 1.11105 0.38968 0.23692
 C2199 C 1.10124 0.39931 0.25994
 C2200 C 1.09311 0.40732 0.27980
 C2201 C 0.61959 0.88040 0.21762
 C2202 C 0.61096 0.88900 0.23703
 C2203 C 0.60111 0.89881 0.25997
 C2204 C 0.59292 0.90697 0.27975
 C2205 C 0.61999 0.38082 0.71799
 C2206 C 0.61128 0.38930 0.73741
 C2207 C 0.60130 0.39893 0.76036
 C2208 C 0.59302 0.40696 0.78016
 C2209 C 1.28213 1.11892 1.11981
 C2210 C 1.26269 1.11044 1.11120
 C2211 C 1.23970 1.10079 1.10136
 C2212 C 1.21987 1.09276 1.09320
 C2213 C 1.28262 0.61862 0.61854
 C2214 C 1.26313 0.61011 0.61006
 C2215 C 1.24008 0.60042 0.60042
 C2216 C 1.22020 0.59238 0.59242
 C2217 C 0.78189 1.12010 0.62082
 C2218 C 0.76253 1.11154 0.61206
 C2219 C 0.73966 1.10178 0.60199
 C2220 C 0.71996 1.09363 0.59361
 C2221 C 0.78244 0.61877 1.11873
 C2222 C 0.76292 0.61028 1.11030
 C2223 C 0.73984 0.60061 1.10071
 C2224 C 0.71993 0.59258 1.09275
 C2225 C 1.28207 0.88021 0.88033
 C2226 C 1.26265 0.88878 0.88896
 C2227 C 1.23970 0.89856 0.89881
 C2228 C 1.21992 0.90670 0.90700
 C2229 C 1.28236 0.38048 0.37975
 C2230 C 1.26294 0.38901 0.38841
 C2231 C 1.24000 0.39873 0.39834
 C2232 C 1.22022 0.40683 0.40658
 C2233 C 0.78211 0.88089 0.38001
 C2234 C 0.76267 0.88941 0.38859
 C2235 C 0.73968 0.89913 0.39840
 C2236 C 0.71986 0.90720 0.40654
 C2237 C 0.78189 0.38081 0.88008
 C2238 C 0.76247 0.38928 0.88878
 C2239 C 0.73951 0.39893 0.89873
 C2240 C 0.71972 0.40697 0.90699
 C2241 C 0.71790 0.88089 1.11998
 C2242 C 0.73732 0.88944 1.11137
 C2243 C 0.76028 0.89919 1.10154
 C2244 C 0.78007 0.90731 1.09336
 C2245 C 0.71787 0.38018 0.61987
 C2246 C 0.73730 0.38874 0.61127
 C2247 C 0.76025 0.39852 0.60142
 C2248 C 0.78003 0.40665 0.59323
 C2249 C 0.21790 0.88016 0.61970
 C2250 C 0.23732 0.88877 0.61113
 C2251 C 0.26027 0.89861 0.60135
 C2252 C 0.28005 0.90680 0.59320
 C2253 C 0.21755 0.38045 1.11946
 C2254 C 0.23703 0.38900 1.11098
 C2255 C 0.26006 0.39876 1.10131
 C2256 C 0.27990 0.40688 1.09328
 C2257 C 0.71805 1.12010 0.88005
 C2258 C 0.73748 1.11156 0.88867
 C2259 C 0.76044 1.10180 0.89853
 C2260 C 0.78022 1.09366 0.90673
 C2261 C 0.71802 0.61918 0.37995
 C2262 C 0.73746 0.61066 0.38856
 C2263 C 0.76044 0.60097 0.39840
 C2264 C 0.78025 0.59290 0.40658
 C2265 C 0.21788 1.11983 0.37936
 C2266 C 0.23727 1.11130 0.38810
 C2267 C 0.26018 1.10160 0.39812
 C2268 C 0.27992 1.09351 0.40645
 C2269 C 0.21777 0.61964 0.88032
 C2270 C 0.23717 0.61101 0.88892
 C2271 C 0.26010 0.60114 0.89874
 C2272 C 0.27986 0.59294 0.90691
 C2273 C 1.11969 1.28246 1.11872
 C2274 C 1.11104 1.26302 1.11028
 C2275 C 1.10116 1.24002 1.10070
 C2276 C 1.09297 1.22018 1.09273
 C2277 C 1.12012 0.78205 0.61908
 C2278 C 1.11144 0.76264 0.61060
 C2279 C 1.10150 0.73969 0.60095
 C2280 C 1.09326 0.71990 0.59291
 C2281 C 0.62002 1.28219 0.61911
 C2282 C 0.61134 1.26279 0.61058
 C2283 C 0.60141 1.23986 0.60088
 C2284 C 0.59318 1.22008 0.59281
 C2285 C 0.61910 0.78214 1.11999
 C2286 C 0.61054 0.76272 1.11140
 C2287 C 0.60076 0.73977 1.10159
 C2288 C 0.59263 0.71997 1.09344
 C2289 C 0.88086 1.28226 0.88006
 C2290 C 0.88944 1.26286 0.88870
 C2291 C 0.89919 1.23992 0.89857
 C2292 C 0.90730 1.22013 0.90677
 C2293 C 0.88093 0.78217 0.38005
 C2294 C 0.88946 0.76274 0.38867
 C2295 C 0.89917 0.73977 0.39852
 C2296 C 0.90725 0.71996 0.40670
 C2297 C 0.38014 1.28244 0.38047
 C2298 C 0.38875 1.26303 0.38906
 C2299 C 0.39857 1.24009 0.39886
 C2300 C 0.40672 1.22030 0.40701
 C2301 C 0.37976 0.78202 0.88096
 C2302 C 0.38838 0.76260 0.88950
 C2303 C 0.39823 0.73963 0.89921
 C2304 C 0.40641 0.71983 0.90730
 C2305 C 1.12002 0.71784 0.88085
 C2306 C 1.11134 0.73725 0.88935
 C2307 C 1.10140 0.76020 0.89902
 C2308 C 1.09315 0.77999 0.90709
 C2309 C 1.12013 0.21788 0.38001
 C2310 C 1.11152 0.23726 0.38865
 C2311 C 1.10170 0.26018 0.39852
 C2312 C 1.09354 0.27994 0.40672
 C2313 C 0.61919 0.71788 0.38012
 C2314 C 0.61065 0.73731 0.38873
 C2315 C 0.60091 0.76028 0.39856
 C2316 C 0.59282 0.78008 0.40672
 C2317 C 0.62003 0.21797 0.88088
 C2318 C 0.61132 0.23735 0.88944
 C2319 C 0.60137 0.26027 0.89917
 C2320 C 0.59310 0.28003 0.90726
 C2321 C 0.88120 0.71752 1.11858
 C2322 C 0.88969 0.73703 1.11014
 C2323 C 0.89938 0.76011 1.10055
 C2324 C 0.90742 0.78001 1.09259
 C2325 C 0.87971 0.21809 0.62011
 C2326 C 0.88839 0.23743 0.61146
 C2327 C 0.89832 0.26030 0.60158
 C2328 C 0.90657 0.28002 0.59336
 C2329 C 0.38129 0.71744 0.61869
 C2330 C 0.38977 0.73694 0.61020
 C2331 C 0.39941 0.76001 0.60054
 C2332 C 0.40741 0.77990 0.59250
 C2333 C 0.38097 0.21755 1.11984
 C2334 C 0.38951 0.23699 1.11127
 C2335 C 0.39922 0.25999 1.10150
 C2336 C 0.40728 0.27982 1.09338
 C2337 C 1.11938 1.11940 0.71742
 C2338 C 1.11089 1.11081 0.73690
 C2339 C 1.10122 1.10100 0.75992
 C2340 C 1.09317 1.09286 0.77976
 C2341 C 1.11980 0.62077 0.21785
 C2342 C 1.11131 0.61199 0.23725
 C2343 C 1.10166 0.60192 0.26017
 C2344 C 1.09361 0.59356 0.27993
 C2345 C 0.61886 1.11987 0.21759
 C2346 C 0.61030 1.11124 0.23701
 C2347 C 0.60056 1.10139 0.25997
 C2348 C 0.59247 1.09322 0.27978
 C2349 C 0.61885 0.61899 0.71773
 C2350 C 0.61030 0.61049 0.73721
 C2351 C 0.60054 0.60080 0.76024
 C2352 C 0.59245 0.59275 0.78010
 C2353 C 0.88119 0.88124 0.71752
 C2354 C 0.88970 0.88977 0.73700
 C2355 C 0.89938 0.89948 0.76003
 C2356 C 0.90742 0.90754 0.77990
 C2357 C 0.88107 0.38006 0.21774
 C2358 C 0.88963 0.38870 0.23715
 C2359 C 0.89936 0.39857 0.26010
 C2360 C 0.90745 0.40677 0.27990
 C2361 C 0.38093 0.88020 0.21765
 C2362 C 0.38937 0.88892 0.23707
 C2363 C 0.39896 0.89889 0.26004
 C2364 C 0.40694 0.90715 0.27985
 C2365 C 0.37989 0.37888 0.71828
 C2366 C 0.38843 0.38762 0.73767
 C2367 C 0.39818 0.39765 0.76057
 C2368 C 0.40631 0.40600 0.78030
 C2369 C 1.11968 0.87941 1.28241
 C2370 C 1.11112 0.88814 1.26303
 C2371 C 1.10136 0.89814 1.24012
 C2372 C 1.09324 0.90647 1.22038
 C2373 C 1.11913 0.37990 0.78217
 C2374 C 1.11065 0.38857 0.76274
 C2375 C 1.10099 0.39847 0.73976
 C2376 C 1.09294 0.40669 0.71995
 C2377 C 0.61889 0.88118 0.78234
 C2378 C 0.61038 0.88971 0.76286
 C2379 C 0.60069 0.89943 0.73982
 C2380 C 0.59264 0.90750 0.71995
 C2381 C 0.61945 0.38063 1.28288
 C2382 C 0.61085 0.38921 1.26345
 C2383 C 0.60105 0.39898 1.24048
 C2384 C 0.59290 0.40710 1.22067
 C2385 C 0.88064 1.11956 1.28271
 C2386 C 0.88923 1.11101 1.26326
 C2387 C 0.89901 1.10126 1.24027
 C2388 C 0.90714 1.09315 1.22045
 C2389 C 0.88077 0.61915 0.78218
 C2390 C 0.88934 0.61059 0.76274
 C2391 C 0.89910 0.60084 0.73974
 C2392 C 0.90721 0.59273 0.71991
 C2393 C 0.38095 1.12002 0.78213
 C2394 C 0.38942 1.11136 0.76268
 C2395 C 0.39904 1.10145 0.73969
 C2396 C 0.40706 1.09323 0.71987
 C2397 C 0.38027 0.62071 1.28244
 C2398 C 0.38876 0.61192 1.26305
 C2399 C 0.39842 0.60183 1.24014
 C2400 C 0.40648 0.59346 1.22039
 C2401 C 1.11971 1.28203 0.88026
 C2402 C 1.11115 1.26259 0.88883
 C2403 C 1.10139 1.23961 0.89863
 C2404 C 1.09326 1.21981 0.90677
 C2405 C 1.11993 0.78216 0.37944
 C2406 C 1.11139 0.76276 0.38813
 C2407 C 1.10166 0.73983 0.39808
 C2408 C 1.09355 0.72007 0.40635
 C2409 C 0.61898 1.28235 0.38049
 C2410 C 0.61047 1.26290 0.38907
 C2411 C 0.60077 1.23990 0.39885
 C2412 C 0.59272 1.22007 0.40698
 C2413 C 0.61882 0.78239 0.88115
 C2414 C 0.61025 0.76293 0.88965
 C2415 C 0.60047 0.73992 0.89934
 C2416 C 0.59236 0.72009 0.90740
 C2417 C 0.88026 1.28225 1.11968
 C2418 C 0.88890 1.26283 1.11113
 C2419 C 0.89878 1.23987 1.10139
 C2420 C 0.90699 1.22009 1.09329
 C2421 C 0.88123 0.78238 0.61880
 C2422 C 0.88974 0.76290 0.61030
 C2423 C 0.89943 0.73986 0.60061
 C2424 C 0.90748 0.71999 0.59257
 C2425 C 0.37996 1.28185 0.62100
 C2426 C 0.38851 1.26249 0.61221
 C2427 C 0.39825 1.23962 0.60212
 C2428 C 0.40637 1.21992 0.59372
 C2429 C 0.38008 0.78213 1.11976
 C2430 C 0.38861 0.76266 1.11122
 C2431 C 0.39834 0.73965 1.10146
 C2432 C 0.40644 0.71982 1.09334
 C2433 C 0.88066 0.71801 0.88091
 C2434 C 0.88921 0.73747 0.88944
 C2435 C 0.89895 0.76047 0.89916
 C2436 C 0.90706 0.78030 0.90724
 C2437 C 0.88116 0.21767 0.38045
 C2438 C 0.88968 0.23711 0.38904
 C2439 C 0.89939 0.26009 0.39885
 C2440 C 0.90745 0.27991 0.40699
 C2441 C 0.38017 0.71808 0.37935
 C2442 C 0.38870 0.73749 0.38803
 C2443 C 0.39841 0.76042 0.39798
 C2444 C 0.40652 0.78018 0.40626
 C2445 C 0.38031 0.21767 0.88043
 C2446 C 0.38886 0.23709 0.88906
 C2447 C 0.39862 0.26004 0.89891
 C2448 C 0.40675 0.27982 0.90710
 C2449 C 1.11983 0.71805 1.12082
 C2450 C 1.11127 0.73745 1.11213
 C2451 C 1.10150 0.76037 1.10217
 C2452 C 1.09336 0.78012 1.09388
 C2453 C 1.11870 0.21756 0.61960
 C2454 C 1.11029 0.23702 0.61095
 C2455 C 1.10074 0.26003 0.60105
 C2456 C 1.09279 0.27988 0.59285
 C2457 C 0.61894 0.71775 0.61890
 C2458 C 0.61043 0.73722 0.61037
 C2459 C 0.60074 0.76025 0.60066
 C2460 C 0.59268 0.78011 0.59259
 C2461 C 0.61965 0.21782 1.11968
 C2462 C 0.61103 0.23727 1.11118
 C2463 C 0.60117 0.26026 1.10151
 C2464 C 0.59298 0.28008 1.09346
 C2465 C 1.28232 1.11982 0.88104
 C2466 C 1.26291 1.11115 0.88955
 C2467 C 1.23996 1.10123 0.89922
 C2468 C 1.22016 1.09300 0.90726
 C2469 C 1.28226 0.62017 0.38024
 C2470 C 1.26289 0.61149 0.38882
 C2471 C 1.23998 0.60156 0.39859
 C2472 C 1.22023 0.59332 0.40671
 C2473 C 0.78232 1.11902 0.38029
 C2474 C 0.76286 1.11051 0.38885
 C2475 C 0.73985 1.10083 0.39862
 C2476 C 0.72001 1.09279 0.40674
 C2477 C 0.78189 0.61925 0.88094
 C2478 C 0.76244 0.61071 0.88949
 C2479 C 0.73944 0.60098 0.89923
 C2480 C 0.71961 0.59289 0.90732
 C2481 C 1.28217 0.88012 1.11897
 C2482 C 1.26274 0.88880 1.11053
 C2483 C 1.23975 0.89873 1.10096
 C2484 C 1.21993 0.90696 1.09299
 C2485 C 1.28199 0.37970 0.62032
 C2486 C 1.26265 0.38837 0.61162
 C2487 C 1.23979 0.39825 0.60169
 C2488 C 1.22007 0.40647 0.59342
 C2489 C 0.78246 0.88117 0.61868
 C2490 C 0.76299 0.88968 0.61016
 C2491 C 0.73996 0.89937 0.60045
 C2492 C 0.72009 0.90743 0.59240
 C2493 C 0.78203 0.37998 1.11928
 C2494 C 0.76258 0.38866 1.11085
 C2495 C 0.73960 0.39860 1.10126
 C2496 C 0.71978 0.40684 1.09326
 C2497 C 0.71789 1.12014 1.11906
 C2498 C 0.73735 1.11151 1.11059
 C2499 C 0.76035 1.10163 1.10097
 C2500 C 0.78017 1.09343 1.09296
 C2501 C 0.71769 0.61894 0.61892
 C2502 C 0.73716 0.61043 0.61038
 C2503 C 0.76018 0.60073 0.60065
 C2504 C 0.78003 0.59268 0.59257
 C2505 C 0.21731 1.11872 0.61946
 C2506 C 0.23676 1.11025 0.61083
 C2507 C 0.25976 1.10064 0.60099
 C2508 C 0.27960 1.09266 0.59282
 C2509 C 0.21774 0.62006 1.11999
 C2510 C 0.23710 0.61133 1.11141
 C2511 C 0.25999 0.60134 1.10165
 C2512 C 0.27974 0.59305 1.09353
 C2513 C 0.71762 0.88115 0.88116
 C2514 C 0.73708 0.88971 0.88966
 C2515 C 0.76009 0.89948 0.89932
 C2516 C 0.77994 0.90759 0.90736
 C2517 C 0.71780 0.38102 0.38040
 C2518 C 0.73726 0.38951 0.38897
 C2519 C 0.76027 0.39916 0.39874
 C2520 C 0.78011 0.40719 0.40688
 C2521 C 0.21780 0.88009 0.38012
 C2522 C 0.23717 0.88876 0.38872
 C2523 C 0.26007 0.89866 0.39853
 C2524 C 0.27982 0.90688 0.40669
 C2525 C 0.21771 0.37984 0.88112
 C2526 C 0.23712 0.38848 0.88966
 C2527 C 0.26006 0.39835 0.89938
 C2528 C 0.27985 0.40655 0.90746
   
