data_POSCAR
  _audit_creation_date              2014-09-24
  _audit_creation_method            'ToBaCCo'
  _symmetry_space_group_name_H-M    'P1'
  _symmetry_Int_Tables_number       1
  _symmetry_cell_setting            triclinic
  loop_
  _symmetry_equiv_pos_as_xyz
 x,y,z
_cell_length_a 55.4304
_cell_length_b 55.0159
_cell_length_c 50.7026
_cell_angle_alpha 90.150500
_cell_angle_beta 88.765600
_cell_angle_gamma 90.818900
loop_
  _atom_site_label
  _atom_site_type_symbol
  _atom_site_fract_x
  _atom_site_fract_y
  _atom_site_fract_z
C1 C 0.38107 0.01959 0.30334
 C2 C 0.36324 0.03997 0.29870
 C3 C 0.34790 0.03591 0.27866
 C4 C 0.35207 0.01168 0.26427
 C5 C 0.36536 -0.00349 0.30636
 C6 C 0.35027 -0.00779 0.28597
 C7 C 0.39412 0.01636 0.27642
 C8 C 0.37900 0.01200 0.25594
 H9 H 0.36321 0.05665 0.31013
 H10 H 0.33928 0.00849 0.24808
 H11 H 0.36761 -0.01630 0.32227
 H12 H 0.41340 0.01768 0.27342
 C13 C 0.11054 -0.01258 0.76067
 C14 C 0.12253 -0.03629 0.75175
 C15 C 0.13786 -0.03375 0.73064
 C16 C 0.13937 -0.00777 0.71984
 C17 C 0.13152 0.00540 0.76480
 C18 C 0.14658 0.00810 0.74346
 C19 C 0.09863 -0.00388 0.73715
 C20 C 0.11439 -0.00136 0.71435
 H21 H 0.11957 -0.05348 0.76177
 H22 H 0.15249 -0.00589 0.70323
 H23 H 0.13308 0.01640 0.78245
 H24 H 0.07927 -0.00356 0.73542
 C25 C 0.62043 0.47125 0.26115
 C26 C 0.63623 0.45171 0.24838
 C27 C 0.64993 0.45965 0.22747
 C28 C 0.64658 0.48657 0.22081
 C29 C 0.63796 0.49215 0.26751
 C30 C 0.65164 0.50032 0.24663
 C31 C 0.60566 0.48103 0.23824
 C32 C 0.61923 0.48882 0.21709
 H33 H 0.63657 0.43314 0.25541
 H34 H 0.65750 0.49272 0.20343
 H35 H 0.63935 0.49961 0.28721
 H36 H 0.58624 0.48164 0.23808
 C37 C 0.87286 0.51215 0.79554
 C38 C 0.85567 0.53296 0.78999
 C39 C 0.83918 0.52784 0.77118
 C40 C 0.84149 0.50214 0.75918
 C41 C 0.85608 0.49054 0.80204
 C42 C 0.83993 0.48475 0.78303
 C43 C 0.88413 0.50612 0.76851
 C44 C 0.86799 0.50054 0.74945
 H45 H 0.85683 0.55076 0.79890
 H46 H 0.82814 0.49807 0.74379
 H47 H 0.85724 0.48068 0.82040
 H48 H 0.90344 0.50689 0.76483
 C49 C 0.28195 0.41190 1.00012
 C50 C 0.27598 0.39775 1.02547
 C51 C 0.25666 0.38240 1.02388
 C52 C 0.24429 0.38314 0.99715
 C53 C 0.28393 0.39252 0.97853
 C54 C 0.26454 0.37727 0.97706
 C55 C 0.25842 0.42525 0.99439
 C56 C 0.23848 0.41030 0.99280
 H57 H 0.28648 0.39954 1.04317
 H58 H 0.22887 0.37024 0.99599
 H59 H 0.29962 0.39106 0.96554
 H60 H 0.25718 0.44480 0.99426
 C61 C 0.76652 0.09409 0.98058
 C62 C 0.75844 0.10906 0.95689
 C63 C 0.74125 0.12574 0.96303
 C64 C 0.73359 0.12569 0.99235
 C65 C 0.77425 0.11291 1.00111
 C66 C 0.75713 0.12942 1.00750
 C67 C 0.74421 0.08331 0.99121
 C68 C 0.72577 0.10059 0.99771
 H69 H 0.76519 0.10616 0.93695
 H70 H 0.72040 0.13993 0.99729
 H71 H 0.79124 0.11188 1.01120
 H72 H 0.74023 0.06410 0.98939
 C73 C 0.26825 0.58702 0.49666
 C74 C 0.26378 0.60240 0.47203
 C75 C 0.24787 0.62075 0.47609
 C76 C 0.23740 0.62187 0.50439
 C77 C 0.27571 0.60564 0.51759
 C78 C 0.25974 0.62383 0.52177
 C79 C 0.24305 0.57820 0.50546
 C80 C 0.22680 0.59621 0.50982
 H81 H 0.27208 0.59939 0.45289
 H82 H 0.22468 0.63700 0.50756
 H83 H 0.29205 0.60397 0.52875
 H84 H 0.23839 0.55906 0.50671
 C85 C 0.78478 0.89789 0.50093
 C86 C 0.77721 0.87913 0.52202
 C87 C 0.75822 0.86476 0.51511
 C88 C 0.74842 0.87026 0.48776
 C89 C 0.78922 0.88297 0.47581
 C90 C 0.77038 0.86844 0.46890
 C91 C 0.76140 0.91181 0.49594
 C92 C 0.74232 0.89750 0.48869
 H93 H 0.78527 0.87821 0.54126
 H94 H 0.73348 0.85779 0.48238
 H95 H 0.80593 0.88413 0.46438
 H96 H 0.75921 0.93075 0.50089
 C97 C -0.00746 0.29077 0.39732
 C98 C 0.01559 0.29361 0.38041
 C99 C 0.01873 0.27602 0.36171
 C100 C -0.00178 0.25666 0.36203
 C101 C -0.02693 0.28884 0.37866
 C102 C -0.02390 0.27051 0.35881
 C103 C -0.00600 0.26515 0.40906
 C104 C -0.00296 0.24703 0.39081
 H105 H 0.02846 0.30828 0.38348
 H106 H 0.00103 0.24248 0.34686
 H107 H -0.04400 0.29779 0.38183
 H108 H -0.00692 0.26186 0.43006
 C109 C 0.00178 0.77206 0.10738
 C110 C -0.02129 0.76834 0.12423
 C111 C -0.02147 0.74829 0.13987
 C112 C 0.00203 0.73385 0.13785
 C113 C 0.02182 0.77263 0.12790
 C114 C 0.02206 0.75267 0.14382
 C115 C 0.00514 0.74808 0.09255
 C116 C 0.00529 0.72804 0.10823
 H117 H -0.03576 0.78137 0.12490
 H118 H 0.00208 0.71764 0.15081
 H119 H 0.03459 0.78751 0.12992
 H120 H 0.00633 0.74712 0.07122
 C121 C 0.49717 0.26116 0.60838
 C122 C 0.47480 0.25708 0.62633
 C123 C 0.47670 0.23847 0.64389
 C124 C 0.50122 0.22564 0.64204
 C125 C 0.51769 0.26480 0.62791
 C126 C 0.51999 0.24629 0.64547
 C127 C 0.50184 0.23642 0.59564
 C128 C 0.50404 0.21781 0.61296
 H129 H 0.45990 0.26949 0.62748
 H130 H 0.50301 0.21050 0.65623
 H131 H 0.52966 0.28052 0.62743
 H132 H 0.50253 0.23386 0.57445
 C133 C 0.50307 0.78705 0.90316
 C134 C 0.52405 0.79081 0.88315
 C135 C 0.52640 0.77257 0.86506
 C136 C 0.50719 0.75223 0.86852
 C137 C 0.48099 0.78391 0.88550
 C138 C 0.48302 0.76565 0.86741
 C139 C 0.50685 0.76329 0.91453
 C140 C 0.50932 0.74379 0.89580
 H141 H 0.53592 0.80658 0.88321
 H142 H 0.50894 0.73834 0.85288
 H143 H 0.46550 0.79565 0.88646
 H144 H 0.50614 0.76066 0.93566
 C145 C -0.22383 0.64035 0.96296
 C146 C -0.20413 0.62464 0.97455
 C147 C -0.21229 0.60838 0.99293
 C148 C -0.23965 0.60936 0.99842
 C149 C -0.24284 0.62227 0.95301
 C150 C -0.25157 0.60635 0.97151
 C151 C -0.23574 0.65225 0.98742
 C152 C -0.24432 0.63611 1.00587
 H153 H -0.18512 0.62714 0.96975
 H154 H -0.24620 0.59601 1.01334
 H155 H -0.25003 0.62340 0.93336
 H156 H -0.23576 0.67162 0.99094
 C157 C -0.25450 0.37624 0.47726
 C158 C -0.27889 0.38665 0.48580
 C159 C -0.27840 0.39996 0.50838
 C160 C -0.25341 0.40149 0.52066
 C161 C -0.23720 0.39841 0.47595
 C162 C -0.23666 0.41169 0.49865
 C163 C -0.24636 0.36262 0.49987
 C164 C -0.24592 0.37623 0.52410
 H165 H -0.29496 0.38461 0.47414
 H166 H -0.25325 0.41314 0.53845
 H167 H -0.22393 0.40136 0.46031
 H168 H -0.24191 0.34359 0.49846
 C169 C 0.23816 -0.12290 -0.01799
 C170 C 0.21555 -0.10760 -0.01292
 C171 C 0.21694 -0.09280 0.00851
 C172 C 0.24080 -0.09456 0.02311
 C173 C 0.25857 -0.10372 -0.01989
 C174 C 0.26020 -0.08902 0.00168
 C175 C 0.24210 -0.13566 0.00651
 C176 C 0.24371 -0.12033 0.02939
 H177 H 0.20081 -0.10625 -0.02640
 H178 H 0.24180 -0.08161 0.03978
 H179 H 0.27125 -0.10264 -0.03640
 H180 H 0.24239 -0.15531 0.00732
 C181 C 0.28160 1.11998 0.46670
 C182 C 0.29856 1.09946 0.47404
 C183 C 0.28993 1.08475 0.49372
 C184 C 0.26509 1.09221 0.50483
 C185 C 0.25753 1.10724 0.46093
 C186 C 0.24877 1.09283 0.48077
 C187 C 0.27707 1.13347 0.49297
 C188 C 0.26795 1.11912 0.51284
 H189 H 0.31627 1.09724 0.46499
 H190 H 0.25813 1.07991 0.52058
 H191 H 0.24748 1.11088 0.44332
 H192 H 0.28159 1.15241 0.49602
 C193 C 0.15057 0.52799 0.24583
 C194 C 0.13540 0.51774 0.22325
 C195 C 0.12006 0.49929 0.23055
 C196 C 0.12123 0.49272 0.25983
 C197 C 0.13229 0.53484 0.26755
 C198 C 0.11702 0.51649 0.27512
 C199 C 0.16333 0.50542 0.25641
 C200 C 0.14800 0.48684 0.26365
 H201 H 0.13818 0.52308 0.20286
 H202 H 0.10841 0.47793 0.26558
 H203 H 0.13284 0.55228 0.27749
 H204 H 0.18263 0.50298 0.25474
 C205 C -0.17670 1.02040 0.26110
 C206 C -0.15718 1.01617 0.28162
 C207 C -0.14149 0.99827 0.27491
 C208 C -0.14667 0.98613 0.24823
 C209 C -0.16205 1.02536 0.23556
 C210 C -0.14634 1.00756 0.22863
 C211 C -0.18810 0.99685 0.25720
 C212 C -0.17188 0.97760 0.25020
 H213 H -0.15448 1.02727 0.29892
 H214 H -0.13297 0.97232 0.24338
 H215 H -0.16403 1.04172 0.22403
 H216 H -0.20752 0.99481 0.25801
 C217 C 0.33779 0.51886 -0.23323
 C218 C 0.35532 0.51174 -0.21167
 C219 C 0.36937 0.49249 -0.21794
 C220 C 0.36401 0.48119 -0.24492
 C221 C 0.35360 0.52195 -0.25821
 C222 C 0.36731 0.50236 -0.26449
 C223 C 0.32300 0.49552 -0.23799
 C224 C 0.33662 0.47581 -0.24433
 H225 H 0.35736 0.52178 -0.19343
 H226 H 0.37547 0.46533 -0.24962
 H227 H 0.35298 0.53799 -0.27050
 H228 H 0.30366 0.49415 -0.23496
 C229 C 0.64233 0.02179 -0.26244
 C230 C 0.62260 0.01116 -0.28013
 C231 C 0.60947 -0.00725 -0.26880
 C232 C 0.61731 -0.01362 -0.24086
 C233 C 0.62904 0.02877 -0.23685
 C234 C 0.61576 0.01051 -0.22548
 C235 C 0.65741 -0.00044 -0.25532
 C236 C 0.64451 -0.01913 -0.24384
 H237 H 0.62000 0.01678 -0.30031
 H238 H 0.60630 -0.02832 -0.23171
 H239 H 0.62897 0.04728 -0.22955
 H240 H 0.67606 -0.00212 -0.26162
 C241 C 0.02632 0.24551 0.84725
 C242 C 0.02435 0.26943 0.86298
 C243 C 0.00487 0.27038 0.87979
 C244 C -0.01088 0.24711 0.87956
 C245 C 0.02626 0.22599 0.86886
 C246 C 0.00679 0.22662 0.88569
 C247 C 0.00329 0.24259 0.83450
 C248 C -0.01750 0.24369 0.85187
 H249 H 0.03794 0.28372 0.86264
 H250 H -0.02600 0.24753 0.89414
 H251 H 0.04052 0.21290 0.87074
 H252 H 0.00222 0.24248 0.81322
 C253 C 0.53083 0.26918 0.14909
 C254 C 0.53277 0.24683 0.13130
 C255 C 0.51427 0.24365 0.11437
 C256 C 0.49479 0.26328 0.11719
 C257 C 0.52736 0.29050 0.13009
 C258 C 0.50877 0.28741 0.11324
 C259 C 0.50615 0.26642 0.16322
 C260 C 0.48717 0.26335 0.14673
 H261 H 0.54776 0.23446 0.13228
 H262 H 0.47973 0.26101 0.10331
 H263 H 0.53801 0.30714 0.13072
 H264 H 0.50382 0.26754 0.18439
 C265 C 0.03242 0.76930 0.64011
 C266 C 0.03075 0.74794 0.62077
 C267 C 0.01013 0.74699 0.60673
 C268 C -0.00742 0.76752 0.61356
 C269 C 0.02820 0.79186 0.62320
 C270 C 0.00755 0.79105 0.60901
 C271 C 0.00941 0.76712 0.65745
 C272 C -0.01145 0.76593 0.64371
 H273 H 0.04474 0.73448 0.61873
 H274 H -0.02427 0.76649 0.60226
 H275 H 0.04136 0.80653 0.62158
 H276 H 0.00920 0.76816 0.67869
 C277 C 0.51863 0.73119 0.35472
 C278 C 0.51868 0.75335 0.37306
 C279 C 0.49957 0.75431 0.39042
 C280 C 0.48193 0.73263 0.38788
 C281 C 0.51651 0.70922 0.37327
 C282 C 0.49774 0.71007 0.39096
 C283 C 0.49402 0.73165 0.34145
 C284 C 0.47474 0.73272 0.35859
 H285 H 0.53314 0.76681 0.37261
 H286 H 0.46638 0.73306 0.40199
 H287 H 0.52830 0.69374 0.37197
 H288 H 0.49208 0.73208 0.32028
 B289 B -0.02283 0.01673 1.02402
 B290 B -0.03123 0.01233 0.99258
 B291 B -0.00925 0.03275 0.99959
 B292 B 0.00741 0.02172 1.02414
 B293 B -0.00453 -0.00587 1.03254
 B294 B -0.02865 -0.01173 1.01304
 B295 B 0.01142 -0.00820 0.98104
 B296 B 0.01999 -0.00410 1.01248
 B297 B -0.00202 -0.02427 1.00578
 B298 B -0.01868 -0.01326 0.98111
 B299 B -0.00665 0.01457 0.97276
 B300 B 0.01758 0.01996 0.99233
 B301 B 0.47793 0.49466 0.51995
 B302 B 0.46323 0.48888 0.49192
 B303 B 0.48369 0.51166 0.49283
 B304 B 0.50667 0.50315 0.51212
 B305 B 0.50003 0.47447 0.52295
 B306 B 0.47290 0.46562 0.51039
 B307 B 0.50435 0.47317 0.46902
 B308 B 0.51919 0.47891 0.49697
 B309 B 0.49864 0.45621 0.49621
 B310 B 0.47577 0.46470 0.47690
 B311 B 0.48237 0.49340 0.46603
 B312 B 0.50950 0.50225 0.47858
 B313 B 0.51419 0.95751 0.54626
 B314 B 0.53050 0.96534 0.51912
 B315 B 0.50621 0.94694 0.51635
 B316 B 0.48466 0.95600 0.53830
 B317 B 0.49609 0.98062 0.55461
 B318 B 0.52475 0.98631 0.54274
 B319 B 0.49365 0.99210 0.50224
 B320 B 0.47729 0.98443 0.52926
 B321 B 0.50170 1.00270 0.53215
 B322 B 0.52306 0.99368 0.51018
 B323 B 0.51164 0.96912 0.49387
 B324 B 0.48314 0.96328 0.50578
 B325 B 0.00799 0.47037 1.04332
 B326 B 0.02325 0.47648 1.01498
 B327 B -0.00069 0.45738 1.01478
 B328 B -0.02174 0.46750 1.03672
 B329 B -0.01047 0.49351 1.05038
 B330 B 0.01764 0.49906 1.03689
 B331 B -0.01491 0.50104 0.99739
 B332 B -0.03022 0.49491 1.02554
 B333 B -0.00623 0.51398 1.02592
 B334 B 0.01476 0.50390 1.00394
 B335 B 0.00345 0.47793 0.99024
 B336 B -0.02455 0.47231 1.00376
 B337 B 0.00205 0.52787 0.48546
 B338 B 0.01549 0.52281 0.51428
 B339 B -0.00507 0.54481 0.51224
 B340 B -0.02696 0.53543 0.49174
 B341 B -0.01977 0.50691 0.48130
 B342 B 0.00678 0.49907 0.49534
 B343 B -0.02657 0.50572 0.53495
 B344 B -0.04006 0.51092 0.50623
 B345 B -0.01953 0.48883 0.50813
 B346 B 0.00242 0.49822 0.52868
 B347 B -0.00483 0.52674 0.53916
 B348 B -0.03133 0.53460 0.52512
 B349 B 0.50384 0.02451 -0.01546
 B350 B 0.51713 0.02093 0.01365
 B351 B 0.49564 0.04192 0.01060
 B352 B 0.47445 0.03089 -0.00989
 B353 B 0.48301 0.00248 -0.01922
 B354 B 0.50964 -0.00375 -0.00450
 B355 B 0.47559 0.00260 0.03439
 B356 B 0.46224 0.00627 0.00525
 B357 B 0.48367 -0.01477 0.00828
 B358 B 0.50497 -0.00376 0.02876
 B359 B 0.49640 0.02470 0.03812
 B360 B 0.46970 0.03085 0.02348
 B361 B 0.50533 0.49022 -0.04025
 B362 B 0.48850 0.50006 -0.01448
 B363 B 0.50869 0.47772 -0.01048
 B364 B 0.53327 0.48382 -0.02982
 B365 B 0.52796 0.51045 -0.04567
 B366 B 0.50007 0.52032 -0.03627
 B367 B 0.52821 0.51976 0.00736
 B368 B 0.54504 0.51013 -0.01865
 B369 B 0.52481 0.53241 -0.02241
 B370 B 0.50029 0.52627 -0.00319
 B371 B 0.50556 0.49960 0.01257
 B372 B 0.53349 0.48975 0.00324
 B373 B -0.00173 0.99193 0.45072
 B374 B -0.01627 0.99662 0.47988
 B375 B 0.00680 0.97676 0.47758
 B376 B 0.02783 0.98829 0.45624
 B377 B 0.01763 1.01549 0.44550
 B378 B -0.00990 1.02039 0.45990
 B379 B 0.02344 1.01869 0.49884
 B380 B 0.03780 1.01462 0.46967
 B381 B 0.01475 1.03402 0.47198
 B382 B -0.00620 1.02254 0.49325
 B383 B 0.00418 0.99530 0.50407
 B384 B 0.03165 0.99058 0.48940
 B385 B 0.77569 0.24245 0.21424
 B386 B 0.76870 0.23024 0.24381
 B387 B 0.79208 0.24992 0.24080
 B388 B 0.78493 0.27152 0.21868
 B389 B 0.75653 0.26490 0.20829
 B390 B 0.74645 0.23919 0.22397
 B391 B 0.75409 0.27400 0.26137
 B392 B 0.76100 0.28615 0.23174
 B393 B 0.73771 0.26642 0.23486
 B394 B 0.74483 0.24492 0.25698
 B395 B 0.77326 0.25147 0.26740
 B396 B 0.78329 0.27731 0.25170
 B397 B 0.73130 0.76453 0.71207
 B398 B 0.73828 0.77762 0.74098
 B399 B 0.71901 0.75376 0.74049
 B400 B 0.72820 0.73420 0.71672
 B401 B 0.75380 0.74623 0.70252
 B402 B 0.76004 0.77337 0.71760
 B403 B 0.76246 0.73750 0.75458
 B404 B 0.75548 0.72443 0.72569
 B405 B 0.77476 0.74828 0.72615
 B406 B 0.76557 0.76782 0.74996
 B407 B 0.73997 0.75578 0.76418
 B408 B 0.73369 0.72869 0.74908
 B409 B 0.26541 0.24454 0.78317
 B410 B 0.26413 0.26082 0.75529
 B411 B 0.28526 0.23941 0.75801
 B412 B 0.27317 0.21583 0.77541
 B413 B 0.24392 0.22288 0.78290
 B414 B 0.23834 0.25093 0.77023
 B415 B 0.24916 0.22083 0.72910
 B416 B 0.25053 0.20461 0.75706
 B417 B 0.22939 0.22597 0.75415
 B418 B 0.24151 0.24966 0.73683
 B419 B 0.27067 0.24255 0.72932
 B420 B 0.27623 0.21443 0.74192
 B421 B 0.22794 0.74669 0.28365
 B422 B 0.23241 0.73547 0.25314
 B423 B 0.21424 0.75936 0.25777
 B424 B 0.22577 0.77727 0.28166
 B425 B 0.25177 0.76416 0.29155
 B426 B 0.25583 0.73805 0.27379
 B427 B 0.25726 0.77616 0.23934
 B428 B 0.25280 0.78739 0.26988
 B429 B 0.27098 0.76348 0.26521
 B430 B 0.25937 0.74556 0.24135
 B431 B 0.23348 0.75870 0.23148
 B432 B 0.22934 0.78482 0.24922
 B433 B 0.27829 0.74462 0.72080
 B434 B 0.27284 0.73134 0.75015
 B435 B 0.29286 0.75450 0.74778
 B436 B 0.28277 0.77478 0.72573
 B437 B 0.25590 0.76383 0.71467
 B438 B 0.24973 0.73669 0.72983
 B439 B 0.25110 0.77181 0.76782
 B440 B 0.25659 0.78526 0.73858
 B441 B 0.23660 0.76207 0.74080
 B442 B 0.24665 0.74178 0.76282
 B443 B 0.27351 0.75274 0.77397
 B444 B 0.27966 0.77991 0.75882
 B445 B 0.23420 0.27084 0.22555
 B446 B 0.23937 0.28381 0.25496
 B447 B 0.22029 0.25991 0.25302
 B448 B 0.23097 0.24051 0.22983
 B449 B 0.25731 0.25270 0.21750
 B450 B 0.26250 0.27979 0.23316
 B451 B 0.26285 0.24386 0.27015
 B452 B 0.25765 0.23084 0.24078
 B453 B 0.27677 0.25475 0.24262
 B454 B 0.26607 0.27417 0.26585
 B455 B 0.23975 0.26194 0.27820
 B456 B 0.23453 0.23490 0.26256
 B457 B 0.76264 0.74373 0.27029
 B458 B 0.75639 0.76231 0.24505
 B459 B 0.77742 0.74054 0.24134
 B460 B 0.76800 0.71562 0.25850
 B461 B 0.74072 0.72231 0.27252
 B462 B 0.73374 0.75140 0.26439
 B463 B 0.73649 0.72455 0.21896
 B464 B 0.74216 0.70618 0.24437
 B465 B 0.72145 0.72803 0.24804
 B466 B 0.73085 0.75275 0.23088
 B467 B 0.75815 0.74599 0.21671
 B468 B 0.76527 0.71692 0.22519
 B469 B 0.73414 0.23414 0.76707
 B470 B 0.74132 0.22274 0.73717
 B471 B 0.72270 0.24654 0.73974
 B472 B 0.73201 0.26472 0.76460
 B473 B 0.75702 0.25177 0.77729
 B474 B 0.76272 0.22556 0.76023
 B475 B 0.76695 0.26356 0.72568
 B476 B 0.75986 0.27490 0.75563
 B477 B 0.77840 0.25099 0.75299
 B478 B 0.76906 0.23298 0.72815
 B479 B 0.74409 0.24588 0.71551
 B480 B 0.73832 0.27209 0.73255
 C481 C 0.38351 1.02864 0.35177
 C482 C 0.39587 1.03366 0.37479
 C483 C 0.42115 1.03464 0.37471
 C484 C 0.43384 1.03112 0.35068
 C485 C 0.42139 1.02629 0.32743
 C486 C 0.39597 1.02477 0.32770
 C487 C 0.43291 1.03677 0.40062
 C488 C 0.45652 1.03384 0.40481
 C489 C 0.46495 1.02670 0.43116
 C490 C 0.48828 1.03286 0.43943
 C491 C 0.49709 1.02335 0.46299
 C492 C 0.48282 1.00715 0.47836
 C493 C 0.45947 1.00122 0.46976
 C494 C 0.45063 1.01097 0.44681
 H495 H 0.36397 1.02764 0.35276
 H496 H 0.38553 1.03609 0.39297
 H497 H 0.45333 1.03165 0.34963
 H498 H 0.43198 1.02352 0.30963
 H499 H 0.42091 1.03806 0.41772
 H500 H 0.46960 1.03406 0.38870
 H501 H 0.49986 1.04453 0.42735
 H502 H 0.51540 1.02777 0.46843
 H503 H 0.44807 0.98811 0.48010
 H504 H 0.43300 1.00485 0.44056
 C505 C -0.09226 0.49661 0.82118
 C506 C -0.07621 0.49764 0.84192
 C507 C -0.07538 0.51795 0.85860
 C508 C -0.09034 0.53771 0.85352
 C509 C -0.10661 0.53665 0.83278
 C510 C -0.10818 0.51578 0.81662
 C511 C -0.06163 0.51604 0.88310
 C512 C -0.05458 0.53482 0.89811
 C513 C -0.04579 0.52997 0.92481
 C514 C -0.02357 0.53926 0.93331
 C515 C -0.01407 0.53133 0.95722
 C516 C -0.02693 0.51433 0.97303
 C517 C -0.04993 0.50650 0.96495
 C518 C -0.05924 0.51433 0.94133
 H519 H -0.09294 0.48029 0.80919
 H520 H -0.06501 0.48207 0.84555
 H521 H -0.09054 0.55343 0.86639
 H522 H -0.11833 0.55191 0.83045
 H523 H -0.05816 0.49777 0.88996
 H524 H -0.05569 0.55339 0.89129
 H525 H -0.01301 0.55151 0.92082
 H526 H 0.00374 0.53760 0.96261
 H527 H -0.06058 0.49345 0.97630
 H528 H -0.07669 0.50734 0.93540
 C529 C 0.07184 -0.00749 0.78955
 C530 C 0.05948 -0.01056 0.81370
 C531 C 0.07059 -0.02165 0.83509
 C532 C 0.09421 -0.03016 0.83168
 C533 C 0.10657 -0.02704 0.80768
 C534 C 0.09560 -0.01590 0.78610
 C535 C 0.05711 -0.02381 0.86057
 C536 C 0.06791 -0.02569 0.88392
 C537 C 0.05439 -0.02487 0.90936
 C538 C 0.06545 -0.01421 0.93121
 C539 C 0.05234 -0.01041 0.95463
 C540 C 0.02798 -0.01786 0.95706
 C541 C 0.01741 -0.02985 0.93550
 C542 C 0.03048 -0.03346 0.91201
 H543 H 0.06273 0.00191 0.77408
 H544 H 0.04129 -0.00376 0.81585
 H545 H 0.10326 -0.03940 0.84737
 H546 H 0.12495 -0.03338 0.80595
 H547 H 0.03772 -0.02180 0.86013
 H548 H 0.08740 -0.02522 0.88476
 H549 H 0.08392 -0.00756 0.92969
 H550 H 0.06104 -0.00044 0.97030
 H551 H -0.00132 -0.03567 0.93629
 H552 H 0.02164 -0.04246 0.89578
 C553 C 0.62039 0.45427 0.30732
 C554 C 0.60919 0.44859 0.33148
 C555 C 0.58410 0.45022 0.33478
 C556 C 0.57030 0.45663 0.31299
 C557 C 0.58151 0.46244 0.28881
 C558 C 0.60687 0.46215 0.28584
 C559 C 0.57355 0.44867 0.36181
 C560 C 0.54994 0.44552 0.36733
 C561 C 0.53960 0.45085 0.39384
 C562 C 0.51873 0.43854 0.40304
 C563 C 0.50781 0.44495 0.42722
 C564 C 0.51734 0.46413 0.44237
 C565 C 0.53813 0.47652 0.43281
 C566 C 0.54916 0.46989 0.40904
 H567 H 0.63989 0.45355 0.30570
 H568 H 0.62028 0.44380 0.34797
 H569 H 0.55094 0.45852 0.31480
 H570 H 0.56998 0.46786 0.27312
 H571 H 0.58576 0.45182 0.37792
 H572 H 0.53767 0.44001 0.35204
 H573 H 0.51079 0.42408 0.39139
 H574 H 0.49165 0.43524 0.43369
 H575 H 0.54600 0.49155 0.44360
 H576 H 0.56468 0.48041 0.40213
 C577 C 0.58743 0.48449 0.18338
 C578 C 0.57626 0.49187 0.16051
 C579 C 0.58543 0.51159 0.14572
 C580 C 0.60648 0.52366 0.15426
 C581 C 0.61781 0.51611 0.17731
 C582 C 0.60816 0.49663 0.19222
 C583 C 0.57217 0.51815 0.12169
 C584 C 0.57729 0.53670 0.10520
 C585 C 0.56294 0.53981 0.08107
 C586 C 0.57429 0.54650 0.05712
 C587 C 0.56215 0.54346 0.03331
 C588 C 0.53893 0.53273 0.03315
 C589 C 0.52641 0.53019 0.05747
 C590 C 0.53824 0.53380 0.08113
 H591 H 0.57988 0.46905 0.19405
 H592 H 0.56024 0.48205 0.15438
 H593 H 0.61425 0.53883 0.14340
 H594 H 0.63379 0.52578 0.18377
 H595 H 0.55721 0.50613 0.11695
 H596 H 0.59296 0.54826 0.10797
 H597 H 0.59301 0.55243 0.05664
 H598 H 0.57153 0.54816 0.01512
 H599 H 0.50789 0.52372 0.05852
 H600 H 0.52840 0.53028 0.09943
 C601 C 0.11927 0.99797 0.66596
 C602 C 0.11076 1.00312 0.64097
 C603 C 0.08898 1.01527 0.63787
 C604 C 0.07575 1.02230 0.66049
 C605 C 0.08415 1.01695 0.68568
 C606 C 0.10610 1.00461 0.68892
 C607 C 0.08018 1.01825 0.61072
 C608 C 0.06411 1.03475 0.60309
 C609 C 0.05559 1.03551 0.57548
 C610 C 0.03212 1.04324 0.57030
 C611 C 0.02247 1.04021 0.54512
 C612 C 0.03612 1.02931 0.52465
 C613 C 0.06021 1.02332 0.52964
 C614 C 0.06998 1.02701 0.55437
 H615 H 0.13558 0.98752 0.66674
 H616 H 0.12113 0.99714 0.62385
 H617 H 0.05863 1.03132 0.65888
 H618 H 0.07350 1.02295 0.70253
 H619 H 0.08746 1.00563 0.59632
 H620 H 0.05609 1.04701 0.61738
 H621 H 0.02076 1.05027 0.58612
 H622 H 0.00380 1.04485 0.54229
 H623 H 0.07133 1.01422 0.51503
 H624 H 0.08858 1.02206 0.55706
 C625 C -0.13848 0.49879 0.70050
 C626 C -0.12993 0.49434 0.67482
 C627 C -0.10704 0.48431 0.67020
 C628 C -0.09348 0.47746 0.69206
 C629 C -0.10203 0.48196 0.71770
 C630 C -0.12427 0.49346 0.72225
 C631 C -0.09761 0.48329 0.64254
 C632 C -0.07477 0.47794 0.63546
 C633 C -0.06455 0.48298 0.60872
 C634 C -0.04408 0.47042 0.59966
 C635 C -0.03246 0.47685 0.57581
 C636 C -0.04092 0.49621 0.56070
 C637 C -0.06164 0.50850 0.56974
 C638 C -0.07328 0.50199 0.59332
 H639 H -0.15582 0.50724 0.70306
 H640 H -0.14094 0.49961 0.65845
 H641 H -0.07609 0.46905 0.68976
 H642 H -0.09099 0.47662 0.73399
 H643 H -0.10979 0.48899 0.62741
 H644 H -0.06248 0.47091 0.64971
 H645 H -0.03678 0.45592 0.61135
 H646 H -0.01647 0.46710 0.56967
 H647 H -0.06879 0.52359 0.55886
 H648 H -0.08842 0.51277 0.59993
 C649 C 0.37362 0.01401 0.20703
 C650 C 0.38217 0.01099 0.18120
 C651 C 0.40482 0.00083 0.17602
 C652 C 0.41875 -0.00662 0.19729
 C653 C 0.41028 -0.00333 0.22326
 C654 C 0.38774 0.00743 0.22845
 C655 C 0.41388 0.00051 0.14840
 C656 C 0.43010 -0.01523 0.13861
 C657 C 0.43971 -0.01373 0.11102
 C658 C 0.46196 -0.02435 0.10447
 C659 C 0.47278 -0.02073 0.07949
 C660 C 0.46156 -0.00626 0.06061
 C661 C 0.43871 0.00323 0.06689
 C662 C 0.42767 -0.00098 0.09135
 H663 H 0.35620 0.02212 0.20999
 H664 H 0.37112 0.01695 0.16514
 H665 H 0.43649 -0.01416 0.19402
 H666 H 0.42145 -0.00918 0.23922
 H667 H 0.40675 0.01442 0.13590
 H668 H 0.43739 -0.02892 0.15137
 H669 H 0.47148 -0.03462 0.11906
 H670 H 0.49039 -0.02831 0.07550
 H671 H 0.42940 0.01462 0.05316
 H672 H 0.40991 0.00640 0.09472
 C673 C 0.32601 0.41371 0.01047
 C674 C 0.34833 0.42535 0.01214
 C675 C 0.35120 0.44973 0.00482
 C676 C 0.33100 0.46249 -0.00379
 C677 C 0.30836 0.45084 -0.00517
 C678 C 0.30556 0.42623 0.00211
 C679 C 0.37560 0.46075 0.00666
 C680 C 0.38385 0.47909 -0.00853
 C681 C 0.40961 0.48673 -0.00876
 C682 C 0.42021 0.49594 -0.03207
 C683 C 0.44502 0.50084 -0.03367
 C684 C 0.45987 0.49619 -0.01209
 C685 C 0.44881 0.48892 0.01187
 C686 C 0.42403 0.48420 0.01353
 H687 H 0.32470 0.39463 0.01564
 H688 H 0.36359 0.41506 0.01874
 H689 H 0.33257 0.48145 -0.00927
 H690 H 0.29341 0.46112 -0.01231
 H691 H 0.38804 0.45155 0.01929
 H692 H 0.37226 0.48685 -0.02313
 H693 H 0.40943 0.49859 -0.04937
 H694 H 0.45263 0.50750 -0.05216
 H695 H 0.45916 0.48686 0.02949
 H696 H 0.41626 0.47849 0.03231
 C697 C -0.17252 0.90106 0.51720
 C698 C -0.15079 0.91369 0.52060
 C699 C -0.14872 0.93838 0.51409
 C700 C -0.16923 0.95056 0.50551
 C701 C -0.19095 0.93792 0.50200
 C702 C -0.19293 0.91291 0.50773
 C703 C -0.12465 0.95032 0.51501
 C704 C -0.11814 0.96886 0.49915
 C705 C -0.09293 0.97771 0.49604
 C706 C -0.08575 0.98843 0.47204
 C707 C -0.06166 0.99488 0.46717
 C708 C -0.04405 0.99031 0.48603
 C709 C -0.05170 0.98167 0.51102
 C710 C -0.07583 0.97518 0.51589
 H711 H -0.17314 0.88172 0.52115
 H712 H -0.13526 0.90387 0.52725
 H713 H -0.16853 0.96976 0.50095
 H714 H -0.20567 0.94782 0.49379
 H715 H -0.11118 0.94163 0.52676
 H716 H -0.13103 0.97599 0.48554
 H717 H -0.09869 0.99118 0.45666
 H718 H -0.05680 1.00288 0.44828
 H719 H -0.03894 0.97904 0.52658
 H720 H -0.08094 0.96809 0.53511
 C721 C -0.21071 0.05457 0.98784
 C722 C -0.18957 0.04116 0.98556
 C723 C -0.16981 0.04975 0.97034
 C724 C -0.17201 0.07174 0.95657
 C725 C -0.19315 0.08511 0.95877
 C726 C -0.21283 0.07685 0.97449
 C727 C -0.14660 0.03685 0.97221
 C728 C -0.12696 0.04162 0.95706
 C729 C -0.10287 0.03228 0.96340
 C730 C -0.08237 0.04621 0.95638
 C731 C -0.05960 0.03954 0.96484
 C732 C -0.05692 0.01914 0.98112
 C733 C -0.07715 0.00383 0.98560
 C734 C -0.09990 0.01041 0.97711
 H735 H -0.22473 0.04797 1.00123
 H736 H -0.18826 0.02451 0.99676
 H737 H -0.15715 0.07962 0.94526
 H738 H -0.19357 0.10267 0.94922
 H739 H -0.14530 0.02412 0.98834
 H740 H -0.12775 0.05451 0.94108
 H741 H -0.08405 0.06270 0.94497
 H742 H -0.04421 0.05058 0.95872
 H743 H -0.07560 -0.01320 0.99603
 H744 H -0.11505 -0.00164 0.98142
 C745 C 0.29011 0.55235 0.51724
 C746 C 0.30880 0.53571 0.51787
 C747 C 0.32403 0.53246 0.49580
 C748 C 0.31943 0.54530 0.47255
 C749 C 0.30080 0.56211 0.47194
 C750 C 0.28631 0.56645 0.49460
 C751 C 0.34658 0.51896 0.49917
 C752 C 0.36030 0.51061 0.47917
 C753 C 0.38567 0.50415 0.48325
 C754 C 0.39627 0.48509 0.46899
 C755 C 0.42070 0.47986 0.47206
 C756 C 0.43507 0.49400 0.48901
 C757 C 0.42430 0.51345 0.50266
 C758 C 0.39998 0.51834 0.49998
 H759 H 0.27928 0.55516 0.53500
 H760 H 0.31206 0.52616 0.53608
 H761 H 0.33112 0.54368 0.45530
 H762 H 0.29886 0.57222 0.45397
 H763 H 0.35314 0.51754 0.51910
 H764 H 0.35344 0.50963 0.45936
 H765 H 0.38562 0.47424 0.45556
 H766 H 0.42830 0.46494 0.46084
 H767 H 0.43467 0.52542 0.51514
 H768 H 0.39255 0.53383 0.51041
 C769 C 0.18284 0.60686 0.51073
 C770 C 0.15866 0.60064 0.51562
 C771 C 0.15225 0.57841 0.52750
 C772 C 0.17062 0.56319 0.53611
 C773 C 0.19484 0.56947 0.53133
 C774 C 0.20124 0.59099 0.51771
 C775 C 0.12634 0.57158 0.52936
 C776 C 0.11804 0.54854 0.53064
 C777 C 0.09228 0.54230 0.52689
 C778 C 0.08207 0.52148 0.53883
 C779 C 0.05784 0.51511 0.53483
 C780 C 0.04345 0.52929 0.51847
 C781 C 0.05412 0.54977 0.50608
 C782 C 0.07810 0.55613 0.51014
 H783 H 0.18684 0.62368 0.50059
 H784 H 0.14485 0.61287 0.50910
 H785 H 0.16648 0.54640 0.54638
 H786 H 0.20850 0.55726 0.53813
 H787 H 0.11360 0.58616 0.52730
 H788 H 0.13029 0.53366 0.53326
 H789 H 0.09280 0.51026 0.55145
 H790 H 0.05045 0.49914 0.54465
 H791 H 0.04399 0.56120 0.49318
 H792 H 0.08557 0.57168 0.49961
 C793 C 0.68236 0.10937 0.00281
 C794 C 0.65885 0.10181 0.00919
 C795 C 0.65395 0.07821 0.01832
 C796 C 0.67334 0.06252 0.02208
 C797 C 0.69697 0.07007 0.01579
 C798 C 0.70196 0.09353 0.00556
 C799 C 0.62832 0.07082 0.02240
 C800 C 0.62022 0.04772 0.02366
 C801 C 0.59418 0.04158 0.02221
 C802 C 0.58484 0.02053 0.03448
 C803 C 0.56041 0.01409 0.03223
 C804 C 0.54492 0.02842 0.01729
 C805 C 0.55461 0.04927 0.00474
 C806 C 0.57880 0.05572 0.00710
 H807 H 0.68449 0.12727 -0.00563
 H808 H 0.64425 0.11430 0.00602
 H809 H 0.67050 0.04442 0.02991
 H810 H 0.71127 0.05744 0.01947
 H811 H 0.61526 0.08528 0.02242
 H812 H 0.63264 0.03280 0.02462
 H813 H 0.59647 0.00910 0.04586
 H814 H 0.55379 -0.00224 0.04198
 H815 H 0.54367 0.06066 -0.00738
 H816 H 0.58552 0.07147 -0.00366
 C817 C 0.71419 0.93191 0.47899
 C818 C 0.69096 0.94143 0.47808
 C819 C 0.67070 0.92650 0.48306
 C820 C 0.67402 0.90151 0.48701
 C821 C 0.69715 0.89202 0.48804
 C822 C 0.71764 0.90719 0.48494
 C823 C 0.64645 0.93740 0.48461
 C824 C 0.62901 0.92828 0.50059
 C825 C 0.60448 0.93827 0.50379
 C826 C 0.58672 0.92335 0.51565
 C827 C 0.56350 0.93183 0.52026
 C828 C 0.55727 0.95566 0.51335
 C829 C 0.57511 0.97066 0.50134
 C830 C 0.59849 0.96209 0.49663
 H831 H 0.72938 0.94408 0.47530
 H832 H 0.68885 0.96064 0.47430
 H833 H 0.65877 0.88918 0.48958
 H834 H 0.69860 0.87287 0.49205
 H835 H 0.64347 0.95366 0.47327
 H836 H 0.63277 0.91241 0.51231
 H837 H 0.59083 0.90497 0.52153
 H838 H 0.55058 0.91965 0.52976
 H839 H 0.57119 0.98913 0.49575
 H840 H 0.61179 0.97440 0.48797
 C841 C 0.20924 0.44282 0.97919
 C842 C 0.18579 0.45196 0.97807
 C843 C 0.16592 0.43822 0.98750
 C844 C 0.16995 0.41459 0.99685
 C845 C 0.19330 0.40557 0.99819
 C846 C 0.21343 0.41963 0.98985
 C847 C 0.14133 0.44879 0.98715
 C848 C 0.12344 0.44118 1.00354
 C849 C 0.09839 0.45038 1.00396
 C850 C 0.08047 0.43571 1.01591
 C851 C 0.05684 0.44370 1.01860
 C852 C 0.05025 0.46685 1.00970
 C853 C 0.06817 0.48150 0.99725
 C854 C 0.09201 0.47336 0.99438
 H855 H 0.22399 0.45404 0.97165
 H856 H 0.18322 0.47000 0.97019
 H857 H 0.15517 0.40279 1.00309
 H858 H 0.19523 0.38765 1.00629
 H859 H 0.13820 0.46336 0.97341
 H860 H 0.12701 0.42704 1.01765
 H861 H 0.08482 0.41797 1.02358
 H862 H 0.04397 0.43182 1.02862
 H863 H 0.06397 0.49946 0.99019
 H864 H 0.10541 0.48541 0.98545
 C865 C 0.00271 0.31094 0.44136
 C866 C 0.00157 0.33044 0.45918
 C867 C -0.01201 0.35102 0.45354
 C868 C -0.02366 0.35211 0.42923
 C869 C -0.02234 0.33283 0.41137
 C870 C -0.00983 0.31148 0.41744
 C871 C -0.01208 0.37210 0.47190
 C872 C -0.03083 0.38722 0.47371
 C873 C -0.02973 0.41166 0.48604
 C874 C -0.04424 0.42966 0.47553
 C875 C -0.04184 0.45376 0.48357
 C876 C -0.02552 0.46056 0.50328
 C877 C -0.01191 0.44219 0.51498
 C878 C -0.01390 0.41797 0.50638
 H879 H 0.01380 0.29561 0.44615
 H880 H 0.01144 0.32952 0.47736
 H881 H -0.03306 0.36829 0.42342
 H882 H -0.03068 0.33510 0.39247
 H883 H 0.00415 0.37585 0.48276
 H884 H -0.04701 0.38276 0.46299
 H885 H -0.05653 0.42535 0.45980
 H886 H -0.05209 0.46718 0.47324
 H887 H 0.00116 0.44664 0.52985
 H888 H -0.00273 0.40441 0.51528
 C889 C 0.52169 -0.18118 -0.06608
 C890 C 0.51971 -0.16209 -0.04792
 C891 C 0.49703 -0.15459 -0.03849
 C892 C 0.47644 -0.16789 -0.04613
 C893 C 0.47842 -0.18693 -0.06438
 C894 C 0.50096 -0.19302 -0.07577
 C895 C 0.49560 -0.13235 -0.02179
 C896 C 0.47604 -0.11825 -0.02080
 C897 C 0.47632 -0.09309 -0.01026
 C898 C 0.46225 -0.07592 -0.02287
 C899 C 0.46384 -0.05144 -0.01610
 C900 C 0.47884 -0.04337 0.00435
 C901 C 0.49199 -0.06085 0.01807
 C902 C 0.49086 -0.08548 0.01074
 H903 H 0.53955 -0.18642 -0.07272
 H904 H 0.53597 -0.15271 -0.04177
 H905 H 0.45873 -0.16368 -0.03816
 H906 H 0.46217 -0.19679 -0.06955
 H907 H 0.51210 -0.12578 -0.01300
 H908 H 0.46023 -0.12368 -0.03162
 H909 H 0.45091 -0.08127 -0.03910
 H910 H 0.45384 -0.03874 -0.02773
 H911 H 0.50391 -0.05541 0.03372
 H912 H 0.50162 -0.09843 0.02119
 C913 C -0.02132 -0.20115 1.07633
 C914 C -0.02362 -0.18023 1.06119
 C915 C -0.00382 -0.16460 1.05678
 C916 C 0.01868 -0.17078 1.06691
 C917 C 0.02088 -0.19151 1.08259
 C918 C 0.00057 -0.20633 1.08866
 C919 C -0.00793 -0.14068 1.04472
 C920 C 0.00863 -0.12852 1.03016
 C921 C 0.00498 -0.10281 1.02319
 C922 C 0.01091 -0.09412 0.99788
 C923 C 0.00792 -0.06951 0.99178
 C924 C 0.00011 -0.05292 1.01125
 C925 C -0.00598 -0.06204 1.03654
 C926 C -0.00364 -0.08656 1.04237
 H927 H -0.03701 -0.21288 1.07909
 H928 H -0.04107 -0.17595 1.05332
 H929 H 0.03429 -0.15900 1.06382
 H930 H 0.03844 -0.19558 1.09015
 H931 H -0.02527 -0.13239 1.04872
 H932 H 0.02519 -0.13721 1.02383
 H933 H 0.01762 -0.10641 0.98279
 H934 H 0.01238 -0.06356 0.97205
 H935 H -0.01252 -0.05030 1.05220
 H936 H -0.00804 -0.09273 1.06219
 C937 C 0.47418 0.29212 0.58067
 C938 C 0.47401 0.31061 0.56182
 C939 C 0.49546 0.31851 0.54921
 C940 C 0.51700 0.30651 0.55476
 C941 C 0.51721 0.28809 0.57367
 C942 C 0.49598 0.28116 0.58764
 C943 C 0.49470 0.33990 0.53144
 C944 C 0.51376 0.35479 0.52736
 C945 C 0.51155 0.37942 0.51615
 C946 C 0.52550 0.39809 0.52707
 C947 C 0.52199 0.42213 0.51993
 C948 C 0.50518 0.42824 0.50065
 C949 C 0.49202 0.40929 0.48864
 C950 C 0.49508 0.38508 0.49642
 H951 H 0.45708 0.28655 0.58940
 H952 H 0.45706 0.31914 0.55748
 H953 H 0.53377 0.31122 0.54460
 H954 H 0.53410 0.27926 0.57756
 H955 H 0.47722 0.34531 0.52454
 H956 H 0.53076 0.35070 0.53634
 H957 H 0.53823 0.39422 0.54238
 H958 H 0.53197 0.43598 0.53045
 H959 H 0.47860 0.41317 0.47412
 H960 H 0.48428 0.37092 0.48738
 C961 C 0.52259 1.18787 0.58147
 C962 C 0.52484 1.16429 0.57155
 C963 C 0.51245 1.14478 0.58367
 C964 C 0.49872 1.14922 0.60688
 C965 C 0.49656 1.17286 0.61690
 C966 C 0.50806 1.19248 0.60396
 C967 C 0.51446 1.12023 0.57160
 C968 C 0.49743 1.10286 0.57470
 C969 C 0.49908 1.07817 0.56303
 C970 C 0.48610 1.05929 0.57549
 C971 C 0.48693 1.03568 0.56558
 C972 C 0.50036 1.03025 0.54244
 C973 C 0.51311 1.04927 0.52964
 C974 C 0.51250 1.07301 0.53981
 H975 H 0.53212 1.20257 0.57139
 H976 H 0.53587 1.16136 0.55396
 H977 H 0.48963 1.13456 0.61743
 H978 H 0.48530 1.17585 0.63429
 H979 H 0.53021 1.11676 0.55925
 H980 H 0.48162 1.10648 0.58690
 H981 H 0.47547 1.06275 0.59325
 H982 H 0.47675 1.02171 0.57612
 H983 H 0.52372 1.04585 0.51189
 H984 H 0.52224 1.08724 0.52924
 C985 C 0.02136 0.69853 1.07456
 C986 C 0.02188 0.67533 1.06326
 C987 C 0.00796 0.65624 1.07417
 C988 C -0.00572 0.66061 1.09742
 C989 C -0.00617 0.68380 1.10878
 C990 C 0.00708 0.70309 1.09726
 C991 C 0.00862 0.63199 1.06123
 C992 C -0.00958 0.61575 1.06339
 C993 C -0.00876 0.59078 1.05238
 C994 C -0.02271 0.57276 1.06507
 C995 C -0.02210 0.54876 1.05636
 C996 C -0.00808 0.54210 1.03404
 C997 C 0.00554 0.56032 1.02087
 C998 C 0.00523 0.58445 1.02994
 H999 H 0.03215 0.71292 1.06551
 H1000 H 0.03291 0.67238 1.04567
 H1001 H -0.01597 0.64618 1.10707
 H1002 H -0.01738 0.68674 1.12622
 H1003 H 0.02455 0.62761 1.04954
 H1004 H -0.02557 0.62036 1.07486
 H1005 H -0.03371 0.57713 1.08232
 H1006 H -0.03270 0.53541 1.06735
 H1007 H 0.01680 0.55593 1.00388
 H1008 H 0.01582 0.59802 1.01929
 C1009 C 0.52159 0.71371 -0.07110
 C1010 C 0.52569 0.68973 -0.06344
 C1011 C 0.52204 0.67034 -0.08109
 C1012 C 0.51450 0.67573 -0.10662
 C1013 C 0.51047 0.69968 -0.11437
 C1014 C 0.51370 0.71931 -0.09671
 C1015 C 0.52515 0.64432 -0.07392
 C1016 C 0.53272 0.63630 -0.05048
 C1017 C 0.53354 0.61007 -0.04363
 C1018 C 0.53057 0.60314 -0.01713
 C1019 C 0.52904 0.57857 -0.01014
 C1020 C 0.53098 0.56024 -0.02945
 C1021 C 0.53504 0.56731 -0.05588
 C1022 C 0.53655 0.59184 -0.06285
 H1023 H 0.52538 0.72772 -0.05678
 H1024 H 0.53163 0.68679 -0.04358
 H1025 H 0.51141 0.66124 -0.12071
 H1026 H 0.50401 0.70219 -0.13406
 H1027 H 0.51997 0.63108 -0.08865
 H1028 H 0.53700 0.64902 -0.03498
 H1029 H 0.52832 0.61680 -0.00188
 H1030 H 0.52518 0.57412 0.01028
 H1031 H 0.53620 0.55394 -0.07153
 H1032 H 0.53972 0.59638 -0.08339
 C1033 C 0.01235 1.20467 0.38226
 C1034 C 0.01587 1.18068 0.39022
 C1035 C 0.00683 1.17231 0.41466
 C1036 C -0.00673 1.18827 0.43058
 C1037 C -0.01038 1.21223 0.42255
 C1038 C -0.00048 1.22097 0.39848
 C1039 C 0.01111 1.14668 0.42222
 C1040 C 0.01080 1.13862 0.44726
 C1041 C 0.01437 1.11272 0.45438
 C1042 C 0.00475 1.10397 0.47846
 C1043 C 0.00604 1.07928 0.48489
 C1044 C 0.01715 1.06277 0.46741
 C1045 C 0.02810 1.07189 0.44407
 C1046 C 0.02687 1.09652 0.43771
 H1047 H 0.02017 1.21037 0.36361
 H1048 H 0.02607 1.16867 0.37735
 H1049 H -0.01496 1.18228 0.44902
 H1050 H -0.02123 1.22376 0.43523
 H1051 H 0.01481 1.13413 0.40623
 H1052 H 0.00699 1.15115 0.46324
 H1053 H -0.00460 1.11612 0.49192
 H1054 H -0.00248 1.07307 0.50310
 H1055 H 0.03722 1.05992 0.43026
 H1056 H 0.03559 1.10263 0.41960
 C1057 C 0.77535 0.68073 0.93785
 C1058 C 0.78132 0.69473 0.91564
 C1059 C 0.79639 0.68554 0.89557
 C1060 C 0.80669 0.66258 0.89889
 C1061 C 0.80083 0.64859 0.92115
 C1062 C 0.78497 0.65735 0.94095
 C1063 C 0.79890 0.69928 0.87054
 C1064 C 0.80048 0.68803 0.84711
 C1065 C 0.79430 0.70027 0.82232
 C1066 C 0.77981 0.68750 0.80467
 C1067 C 0.77041 0.69914 0.78295
 C1068 C 0.77629 0.72362 0.77737
 C1069 C 0.79187 0.73613 0.79450
 C1070 C 0.80068 0.72460 0.81689
 H1071 H 0.76226 0.68798 0.95172
 H1072 H 0.77296 0.71228 0.91342
 H1073 H 0.81876 0.65508 0.88402
 H1074 H 0.80809 0.63048 0.92241
 H1075 H 0.79512 0.71855 0.87113
 H1076 H 0.80169 0.66841 0.84642
 H1077 H 0.77448 0.66880 0.80858
 H1078 H 0.75779 0.68898 0.77108
 H1079 H 0.79641 0.75510 0.79134
 H1080 H 0.81202 0.73481 0.83020
 C1081 C 0.29968 0.12333 0.42056
 C1082 C 0.30414 0.13606 0.39714
 C1083 C 0.29906 0.16088 0.39543
 C1084 C 0.29008 0.17293 0.41801
 C1085 C 0.28555 0.16019 0.44146
 C1086 C 0.29023 0.13514 0.44312
 C1087 C 0.29970 0.17243 0.36906
 C1088 C 0.29915 0.19652 0.36511
 C1089 C 0.29286 0.20710 0.33936
 C1090 C 0.30019 0.23095 0.33308
 C1091 C 0.29177 0.24232 0.31043
 C1092 C 0.27560 0.23013 0.29376
 C1093 C 0.26846 0.20617 0.30017
 C1094 C 0.27709 0.19476 0.32245
 H1095 H 0.30257 0.10392 0.42062
 H1096 H 0.31056 0.12619 0.37991
 H1097 H 0.28497 0.19180 0.41729
 H1098 H 0.27706 0.16990 0.45760
 H1099 H 0.29912 0.16036 0.35216
 H1100 H 0.30210 0.20894 0.38134
 H1101 H 0.31194 0.24101 0.34611
 H1102 H 0.29717 0.26098 0.30671
 H1103 H 0.25553 0.19627 0.28841
 H1104 H 0.27021 0.17674 0.32710
 C1105 C 0.73157 0.33836 0.45265
 C1106 C 0.72784 0.32514 0.42945
 C1107 C 0.73482 0.33490 0.40491
 C1108 C 0.74603 0.35799 0.40409
 C1109 C 0.74974 0.37118 0.42718
 C1110 C 0.74307 0.36140 0.45196
 C1111 C 0.73162 0.32020 0.38067
 C1112 C 0.73022 0.33032 0.35678
 C1113 C 0.73392 0.31633 0.33231
 C1114 C 0.74980 0.32603 0.31321
 C1115 C 0.75583 0.31270 0.29078
 C1116 C 0.74512 0.28977 0.28609
 C1117 C 0.72851 0.28034 0.30498
 C1118 C 0.72313 0.29344 0.32808
 H1119 H 0.72524 0.33063 0.47120
 H1120 H 0.71924 0.30736 0.43064
 H1121 H 0.75238 0.36595 0.38570
 H1122 H 0.75743 0.38922 0.42518
 H1123 H 0.73194 0.30058 0.38244
 H1124 H 0.72974 0.34989 0.35485
 H1125 H 0.75846 0.34358 0.31624
 H1126 H 0.76924 0.32039 0.27728
 H1127 H 0.72025 0.26259 0.30239
 H1128 H 0.71069 0.28568 0.34262
 C1129 C 0.25941 0.85045 0.94830
 C1130 C 0.26011 0.83757 0.92458
 C1131 C 0.23900 0.83342 0.91042
 C1132 C 0.21688 0.84126 0.92121
 C1133 C 0.21619 0.85423 0.94494
 C1134 C 0.23765 0.86018 0.95811
 C1135 C 0.24126 0.82289 0.88365
 C1136 C 0.22297 0.81318 0.87009
 C1137 C 0.22692 0.80455 0.84278
 C1138 C 0.21652 0.78254 0.83452
 C1139 C 0.22285 0.77270 0.80989
 C1140 C 0.23934 0.78500 0.79294
 C1141 C 0.24819 0.80799 0.80064
 C1142 C 0.24199 0.81767 0.82519
 H1143 H 0.27613 0.85366 0.95849
 H1144 H 0.27736 0.83139 0.91690
 H1145 H 0.20017 0.83834 0.91099
 H1146 H 0.19875 0.85973 0.95247
 H1147 H 0.25916 0.82322 0.87456
 H1148 H 0.20540 0.81028 0.87933
 H1149 H 0.20460 0.77230 0.84771
 H1150 H 0.21581 0.75490 0.80488
 H1151 H 0.26078 0.81819 0.78820
 H1152 H 0.24960 0.83514 0.83076
 C1153 C 0.24317 0.88434 0.07780
 C1154 C 0.24800 0.87533 0.10282
 C1155 C 0.25875 0.85265 0.10589
 C1156 C 0.26447 0.83893 0.08329
 C1157 C 0.25944 0.84779 0.05819
 C1158 C 0.24868 0.87071 0.05489
 C1159 C 0.26164 0.84323 0.13296
 C1160 C 0.27728 0.82594 0.13968
 C1161 C 0.27733 0.81527 0.16658
 C1162 C 0.28478 0.79119 0.16994
 C1163 C 0.28086 0.77927 0.19410
 C1164 C 0.26930 0.79123 0.21535
 C1165 C 0.26385 0.81600 0.21241
 C1166 C 0.26833 0.82798 0.18865
 H1167 H 0.23404 0.90151 0.07692
 H1168 H 0.24298 0.88607 0.11998
 H1169 H 0.27224 0.82109 0.08483
 H1170 H 0.26469 0.83669 0.04148
 H1171 H 0.24953 0.85069 0.14780
 H1172 H 0.28915 0.81814 0.12481
 H1173 H 0.29222 0.78109 0.15337
 H1174 H 0.28528 0.76022 0.19543
 H1175 H 0.25456 0.82597 0.22785
 H1176 H 0.26358 0.84693 0.18744
 C1177 C 0.75353 0.37678 0.57266
 C1178 C 0.75920 0.36618 0.59663
 C1179 C 0.77237 0.34467 0.59747
 C1180 C 0.78016 0.33402 0.57365
 C1181 C 0.77440 0.34455 0.54952
 C1182 C 0.76075 0.36606 0.54851
 C1183 C 0.77549 0.33321 0.62352
 C1184 C 0.79148 0.31590 0.62911
 C1185 C 0.79134 0.30414 0.65546
 C1186 C 0.79722 0.27950 0.65781
 C1187 C 0.79213 0.26693 0.68139
 C1188 C 0.78077 0.27877 0.70289
 C1189 C 0.77693 0.30394 0.70088
 C1190 C 0.78297 0.31656 0.67796
 H1191 H 0.74226 0.39261 0.57356
 H1192 H 0.75269 0.37461 0.61472
 H1193 H 0.79007 0.31724 0.57342
 H1194 H 0.78113 0.33580 0.53179
 H1195 H 0.76297 0.33914 0.63880
 H1196 H 0.80357 0.30900 0.61393
 H1197 H 0.80416 0.26957 0.64087
 H1198 H 0.79524 0.24756 0.68193
 H1199 H 0.76739 0.31392 0.71606
 H1200 H 0.77945 0.33585 0.67749
 C1201 C 0.26007 0.11408 0.56152
 C1202 C 0.25295 0.12327 0.58612
 C1203 C 0.24576 0.14752 0.58900
 C1204 C 0.24524 0.16228 0.56639
 C1205 C 0.25229 0.15301 0.54172
 C1206 C 0.26018 0.12889 0.53903
 C1207 C 0.24082 0.15666 0.61615
 C1208 C 0.23606 0.17984 0.62264
 C1209 C 0.23718 0.18867 0.65027
 C1210 C 0.22434 0.20937 0.65827
 C1211 C 0.22717 0.21918 0.68363
 C1212 C 0.24316 0.20861 0.70130
 C1213 C 0.25577 0.18776 0.69313
 C1214 C 0.25287 0.17799 0.66811
 H1215 H 0.26597 0.09550 0.56047
 H1216 H 0.25362 0.11144 0.60313
 H1217 H 0.23970 0.18099 0.56743
 H1218 H 0.25138 0.16481 0.52474
 H1219 H 0.24264 0.14359 0.63190
 H1220 H 0.23242 0.19311 0.60764
 H1221 H 0.21243 0.21818 0.64473
 H1222 H 0.21738 0.23539 0.68906
 H1223 H 0.26843 0.17904 0.70587
 H1224 H 0.26389 0.16268 0.66251
 C1225 C 0.74494 0.62957 0.05360
 C1226 C 0.73394 0.63702 0.07721
 C1227 C 0.72152 0.65905 0.07876
 C1228 C 0.71932 0.67304 0.05583
 C1229 C 0.73005 0.66539 0.03204
 C1230 C 0.74338 0.64378 0.03077
 C1231 C 0.71298 0.66726 0.10511
 C1232 C 0.71219 0.69071 0.11249
 C1233 C 0.71472 0.69779 0.14054
 C1234 C 0.70537 0.71976 0.15030
 C1235 C 0.71083 0.72783 0.17587
 C1236 C 0.72616 0.71427 0.19180
 C1237 C 0.73527 0.69228 0.18170
 C1238 C 0.72952 0.68411 0.15674
 H1239 H 0.75533 0.61308 0.05361
 H1240 H 0.73603 0.62597 0.09465
 H1241 H 0.70941 0.68984 0.05619
 H1242 H 0.72790 0.67646 0.01465
 H1243 H 0.71128 0.65340 0.12021
 H1244 H 0.71325 0.70506 0.09795
 H1245 H 0.69436 0.73091 0.13792
 H1246 H 0.70391 0.74510 0.18268
 H1247 H 0.74777 0.68149 0.19264
 H1248 H 0.73808 0.66772 0.14963
 C1249 C 0.18922 0.55373 0.24977
 C1250 C 0.20223 0.57533 0.24512
 C1251 C 0.19273 0.59363 0.22940
 C1252 C 0.17061 0.58934 0.21705
 C1253 C 0.15759 0.56783 0.22170
 C1254 C 0.16662 0.54966 0.23817
 C1255 C 0.20510 0.61769 0.22818
 C1256 C 0.19253 0.63828 0.22749
 C1257 C 0.20321 0.66251 0.23266
 C1258 C 0.18926 0.67904 0.24707
 C1259 C 0.19855 0.70181 0.25353
 C1260 C 0.22184 0.70924 0.24492
 C1261 C 0.23575 0.69269 0.23000
 C1262 C 0.22658 0.66944 0.22407
 H1263 H 0.19649 0.54085 0.26344
 H1264 H 0.21916 0.57829 0.25500
 H1265 H 0.16297 0.60286 0.20434
 H1266 H 0.14000 0.56578 0.21304
 H1267 H 0.22431 0.61856 0.23168
 H1268 H 0.17302 0.63724 0.22691
 H1269 H 0.17129 0.67401 0.25414
 H1270 H 0.18747 0.71321 0.26602
 H1271 H 0.25381 0.69752 0.22316
 H1272 H 0.23765 0.65703 0.21265
 C1273 C 0.64409 0.06117 0.71152
 C1274 C 0.65514 0.08341 0.70515
 C1275 C 0.67846 0.08906 0.71366
 C1276 C 0.69090 0.07150 0.72799
 C1277 C 0.67984 0.04919 0.73436
 C1278 C 0.65622 0.04365 0.72626
 C1279 C 0.68747 0.11445 0.71060
 C1280 C 0.71039 0.12169 0.71416
 C1281 C 0.71724 0.14772 0.71703
 C1282 C 0.74086 0.15560 0.71084
 C1283 C 0.74822 0.17960 0.71606
 C1284 C 0.73220 0.19615 0.72807
 C1285 C 0.70848 0.18805 0.73398
 C1286 C 0.70110 0.16431 0.72852
 H1287 H 0.62551 0.05832 0.70603
 H1288 H 0.64492 0.09676 0.69458
 H1289 H 0.70853 0.07540 0.73581
 H1290 H 0.68939 0.03692 0.74694
 H1291 H 0.67414 0.12803 0.70636
 H1292 H 0.72447 0.10841 0.71591
 H1293 H 0.75377 0.14305 0.70235
 H1294 H 0.76671 0.18485 0.71143
 H1295 H 0.69576 0.19945 0.74439
 H1296 H 0.68308 0.15871 0.73473
 C1297 C 0.80387 0.05294 0.29133
 C1298 C 0.79097 0.07453 0.29377
 C1299 C 0.77920 0.08401 0.27201
 C1300 C 0.77781 0.07007 0.24885
 C1301 C 0.79050 0.04846 0.24646
 C1302 C 0.80526 0.04057 0.26693
 C1303 C 0.77163 0.10962 0.27246
 C1304 C 0.77787 0.12415 0.25225
 C1305 C 0.77589 0.15082 0.25280
 C1306 C 0.79328 0.16441 0.23867
 C1307 C 0.79165 0.18954 0.23708
 C1308 C 0.77216 0.20182 0.24901
 C1309 C 0.75499 0.18816 0.26384
 C1310 C 0.75690 0.16286 0.26583
 H1311 H 0.81330 0.04678 0.30839
 H1312 H 0.79166 0.08470 0.31207
 H1313 H 0.76807 0.07663 0.23207
 H1314 H 0.79018 0.03876 0.22785
 H1315 H 0.76457 0.11729 0.29070
 H1316 H 0.78744 0.11645 0.23538
 H1317 H 0.80816 0.15551 0.22856
 H1318 H 0.80537 0.19914 0.22561
 H1319 H 0.73972 0.19685 0.27337
 H1320 H 0.74309 0.15271 0.27668
 C1321 C 0.30015 0.54527 0.76435
 C1322 C 0.28916 0.56792 0.76686
 C1323 C 0.30186 0.58781 0.77731
 C1324 C 0.32516 0.58432 0.78678
 C1325 C 0.33621 0.56190 0.78402
 C1326 C 0.32394 0.54195 0.77283
 C1327 C 0.29139 0.61234 0.77615
 C1328 C 0.30544 0.63192 0.77142
 C1329 C 0.29630 0.65650 0.76656
 C1330 C 0.31095 0.67241 0.75162
 C1331 C 0.30344 0.69585 0.74635
 C1332 C 0.28117 0.70427 0.75627
 C1333 C 0.26652 0.68831 0.77150
 C1334 C 0.27399 0.66462 0.77660
 H1335 H 0.29032 0.53088 0.75457
 H1336 H 0.27120 0.57024 0.75933
 H1337 H 0.33525 0.59912 0.79560
 H1338 H 0.35480 0.56051 0.78986
 H1339 H 0.27194 0.61386 0.77628
 H1340 H 0.32470 0.62959 0.76858
 H1341 H 0.32822 0.66659 0.74365
 H1342 H 0.31518 0.70722 0.73420
 H1343 H 0.24928 0.69404 0.77957
 H1344 H 0.26249 0.65292 0.78870
 C1345 C 0.30349 0.44916 0.73799
 C1346 C 0.29292 0.42621 0.73411
 C1347 C 0.30435 0.40530 0.74295
 C1348 C 0.32717 0.40762 0.75444
 C1349 C 0.33776 0.43049 0.75820
 C1350 C 0.32586 0.45153 0.75045
 C1351 C 0.29233 0.38123 0.74023
 C1352 C 0.29461 0.36422 0.75879
 C1353 C 0.28572 0.33881 0.75693
 C1354 C 0.29662 0.32186 0.77310
 C1355 C 0.28980 0.29755 0.77233
 C1356 C 0.27141 0.28921 0.75568
 C1357 C 0.26015 0.30628 0.73955
 C1358 C 0.26729 0.33091 0.74008
 H1359 H 0.29414 0.46505 0.73123
 H1360 H 0.27554 0.42483 0.72480
 H1361 H 0.33689 0.39176 0.76061
 H1362 H 0.35498 0.43165 0.76779
 H1363 H 0.28160 0.37778 0.72301
 H1364 H 0.30481 0.36878 0.77617
 H1365 H 0.31096 0.32735 0.78615
 H1366 H 0.29964 0.28529 0.78456
 H1367 H 0.24593 0.30066 0.72646
 H1368 H 0.25820 0.34359 0.72757
 C1369 C 0.83519 0.93578 0.23353
 C1370 C 0.82719 0.91180 0.22977
 C1371 C 0.80420 0.90423 0.23863
 C1372 C 0.78901 0.92136 0.25069
 C1373 C 0.79690 0.94530 0.25445
 C1374 C 0.82023 0.95315 0.24605
 C1375 C 0.79654 0.87853 0.23478
 C1376 C 0.78020 0.86732 0.25062
 C1377 C 0.77344 0.84128 0.24811
 C1378 C 0.76468 0.82897 0.27056
 C1379 C 0.75875 0.80428 0.26935
 C1380 C 0.76194 0.79103 0.24576
 C1381 C 0.76857 0.80396 0.22275
 C1382 C 0.77470 0.82871 0.22395
 H1383 H 0.85294 0.94036 0.22583
 H1384 H 0.83916 0.89903 0.22006
 H1385 H 0.77087 0.91646 0.25716
 H1386 H 0.78456 0.95719 0.26476
 H1387 H 0.80587 0.86821 0.21958
 H1388 H 0.77269 0.87700 0.26742
 H1389 H 0.76269 0.83842 0.28924
 H1390 H 0.75184 0.79562 0.28714
 H1391 H 0.76880 0.79515 0.20367
 H1392 H 0.77995 0.83799 0.20589
 C1393 C 0.64047 0.93570 0.76459
 C1394 C 0.65047 0.91280 0.76768
 C1395 C 0.67552 0.90990 0.76826
 C1396 C 0.69044 0.93081 0.76708
 C1397 C 0.68038 0.95386 0.76412
 C1398 C 0.65522 0.95663 0.76199
 C1399 C 0.68478 0.88468 0.76879
 C1400 C 0.70781 0.87838 0.76420
 C1401 C 0.71480 0.85268 0.76003
 C1402 C 0.73812 0.84518 0.76613
 C1403 C 0.74541 0.82133 0.76077
 C1404 C 0.72963 0.80453 0.74878
 C1405 C 0.70634 0.81234 0.74259
 C1406 C 0.69905 0.83596 0.74808
 H1407 H 0.62112 0.93642 0.76350
 H1408 H 0.63845 0.89711 0.76878
 H1409 H 0.70982 0.92962 0.76821
 H1410 H 0.69250 0.96943 0.76336
 H1411 H 0.67139 0.87032 0.77159
 H1412 H 0.72192 0.89207 0.76250
 H1413 H 0.75075 0.85783 0.77495
 H1414 H 0.76357 0.81628 0.76564
 H1415 H 0.69384 0.80056 0.73242
 H1416 H 0.68133 0.84130 0.74191
 C1417 C 0.14275 0.44161 0.26219
 C1418 C 0.15116 0.41822 0.26633
 C1419 C 0.17371 0.41459 0.27753
 C1420 C 0.18733 0.43491 0.28570
 C1421 C 0.17874 0.45842 0.28187
 C1422 C 0.15649 0.46204 0.26970
 C1423 C 0.18240 0.38937 0.27927
 C1424 C 0.20577 0.38335 0.27808
 C1425 C 0.21350 0.35797 0.27364
 C1426 C 0.23612 0.35049 0.28221
 C1427 C 0.24423 0.32696 0.27675
 C1428 C 0.22999 0.31050 0.26225
 C1429 C 0.20743 0.31829 0.25358
 C1430 C 0.19936 0.34160 0.25907
 H1431 H 0.12586 0.44351 0.25217
 H1432 H 0.14036 0.40286 0.25979
 H1433 H 0.20452 0.43275 0.29506
 H1434 H 0.18956 0.47377 0.28831
 H1435 H 0.16875 0.37509 0.27899
 H1436 H 0.21969 0.39731 0.27885
 H1437 H 0.24755 0.36291 0.29309
 H1438 H 0.26178 0.32185 0.28366
 H1439 H 0.19606 0.30666 0.24180
 H1440 H 0.18235 0.34695 0.25096
 C1441 C 0.06046 0.26441 0.81829
 C1442 C 0.08068 0.26209 0.80154
 C1443 C 0.08861 0.23913 0.79331
 C1444 C 0.07481 0.21852 0.80088
 C1445 C 0.05461 0.22083 0.81771
 C1446 C 0.04772 0.24370 0.82769
 C1447 C 0.11166 0.23764 0.77776
 C1448 C 0.12515 0.21756 0.77648
 C1449 C 0.15062 0.21768 0.76676
 C1450 C 0.16651 0.20160 0.77846
 C1451 C 0.19124 0.20321 0.77310
 C1452 C 0.20085 0.22045 0.75508
 C1453 C 0.18466 0.23544 0.74187
 C1454 C 0.15980 0.23413 0.74769
 H1455 H 0.05501 0.28255 0.82363
 H1456 H 0.09049 0.27837 0.79544
 H1457 H 0.07946 0.20055 0.79397
 H1458 H 0.04448 0.20459 0.82325
 H1459 H 0.11908 0.25447 0.76984
 H1460 H 0.11876 0.20118 0.78627
 H1461 H 0.15997 0.18867 0.79314
 H1462 H 0.20287 0.19168 0.78428
 H1463 H 0.19124 0.24909 0.72806
 H1464 H 0.14793 0.24640 0.73774
 C1465 C 0.54075 0.74413 0.31200
 C1466 C 0.56131 0.74474 0.29540
 C1467 C 0.58230 0.73266 0.30245
 C1468 C 0.58271 0.72093 0.32703
 C1469 C 0.56233 0.72049 0.34366
 C1470 C 0.54067 0.73125 0.33603
 C1471 C 0.60418 0.73396 0.28507
 C1472 C 0.62022 0.71593 0.28419
 C1473 C 0.64472 0.71792 0.27198
 C1474 C 0.66259 0.70313 0.28217
 C1475 C 0.68653 0.70575 0.27377
 C1476 C 0.69335 0.72274 0.25416
 C1477 C 0.67519 0.73674 0.24285
 C1478 C 0.65109 0.73445 0.25176
 H1479 H 0.52509 0.75410 0.30610
 H1480 H 0.56082 0.75469 0.27701
 H1481 H 0.59904 0.71271 0.33391
 H1482 H 0.56389 0.71210 0.36280
 H1483 H 0.60742 0.75042 0.27383
 H1484 H 0.61615 0.69946 0.29518
 H1485 H 0.65822 0.69017 0.29767
 H1486 H 0.69978 0.69469 0.28327
 H1487 H 0.67967 0.75006 0.22779
 H1488 H 0.63766 0.74579 0.24300
 C1489 C 0.55342 0.26130 0.19188
 C1490 C 0.57466 0.26169 0.20639
 C1491 C 0.59593 0.27231 0.19592
 C1492 C 0.59561 0.28214 0.17034
 C1493 C 0.57450 0.28165 0.15584
 C1494 C 0.55288 0.27172 0.16650
 C1495 C 0.61870 0.27077 0.21075
 C1496 C 0.63710 0.28656 0.20695
 C1497 C 0.66186 0.28264 0.21633
 C1498 C 0.68103 0.29201 0.20090
 C1499 C 0.70480 0.28723 0.20717
 C1500 C 0.71028 0.27368 0.22976
 C1501 C 0.69103 0.26501 0.24587
 C1502 C 0.66702 0.26934 0.23917
 H1503 H 0.53776 0.25206 0.20031
 H1504 H 0.57460 0.25329 0.22569
 H1505 H 0.61189 0.28923 0.16086
 H1506 H 0.57540 0.28839 0.13580
 H1507 H 0.62066 0.25550 0.22390
 H1508 H 0.63471 0.30197 0.19406
 H1509 H 0.67759 0.30232 0.18322
 H1510 H 0.71889 0.29404 0.19394
 H1511 H 0.69444 0.25433 0.26325
 H1512 H 0.65261 0.26221 0.25178
 C1513 C 0.07771 0.77410 0.63824
 C1514 C 0.10050 0.77387 0.64934
 C1515 C 0.10318 0.76926 0.67631
 C1516 C 0.08233 0.76481 0.69199
 C1517 C 0.05943 0.76500 0.68083
 C1518 C 0.05674 0.76989 0.65375
 C1519 C 0.12808 0.76896 0.68658
 C1520 C 0.13398 0.76676 0.71205
 C1521 C 0.15951 0.76706 0.72039
 C1522 C 0.16615 0.75418 0.74294
 C1523 C 0.19041 0.75310 0.75011
 C1524 C 0.20849 0.76517 0.73505
 C1525 C 0.20153 0.77857 0.71290
 C1526 C 0.17745 0.77988 0.70598
 H1527 H 0.07646 0.77737 0.61725
 H1528 H 0.11617 0.77721 0.63665
 H1529 H 0.08343 0.76076 0.71276
 H1530 H 0.04418 0.76074 0.69362
 H1531 H 0.14247 0.77045 0.67189
 H1532 H 0.12020 0.76394 0.72716
 H1533 H 0.15262 0.74432 0.75453
 H1534 H 0.19499 0.74220 0.76695
 H1535 H 0.21473 0.78805 0.70054
 H1536 H 0.17304 0.79093 0.68919
 C1537 C 0.96173 0.75143 0.68131
 C1538 C 0.93915 0.74934 0.69395
 C1539 C 0.91860 0.75873 0.68228
 C1540 C 0.92116 0.77086 0.65795
 C1541 C 0.94382 0.77323 0.64544
 C1542 C 0.96440 0.76349 0.65693
 C1543 C 0.89491 0.75600 0.69613
 C1544 C 0.87431 0.75306 0.68309
 C1545 C 0.85028 0.74984 0.69610
 C1546 C 0.83207 0.73814 0.68195
 C1547 C 0.80858 0.73653 0.69219
 C1548 C 0.80251 0.74681 0.71689
 C1549 C 0.82095 0.75798 0.73146
 C1550 C 0.84462 0.75945 0.72121
 H1551 H 0.97704 0.74329 0.69058
 H1552 H 0.93765 0.73996 0.71269
 H1553 H 0.90576 0.77896 0.64881
 H1554 H 0.94522 0.78316 0.62707
 H1555 H 0.89472 0.75482 0.71745
 H1556 H 0.87510 0.75185 0.66175
 H1557 H 0.83593 0.73057 0.66259
 H1558 H 0.79506 0.72768 0.68027
 H1559 H 0.81699 0.76642 0.75031
 H1560 H 0.85811 0.76906 0.73247
 C1561 C 0.44441 0.24801 0.14256
 C1562 C 0.42059 0.24586 0.15207
 C1563 C 0.41338 0.25696 0.17588
 C1564 C 0.43048 0.27089 0.18966
 C1565 C 0.45428 0.27310 0.18011
 C1566 C 0.46166 0.26147 0.15655
 C1567 C 0.38776 0.25436 0.18492
 C1568 C 0.38006 0.25742 0.21005
 C1569 C 0.35427 0.25519 0.21870
 C1570 C 0.34665 0.26668 0.24215
 C1571 C 0.32234 0.26593 0.25035
 C1572 C 0.30506 0.25335 0.23544
 C1573 C 0.31292 0.24126 0.21234
 C1574 C 0.33715 0.24193 0.20424
 H1575 H 0.44930 0.23875 0.12446
 H1576 H 0.40776 0.23523 0.14087
 H1577 H 0.42554 0.28058 0.20751
 H1578 H 0.46676 0.28434 0.19103
 H1579 H 0.37491 0.24957 0.16997
 H1580 H 0.39289 0.26232 0.22500
 H1581 H 0.35945 0.27687 0.25383
 H1582 H 0.31709 0.27583 0.26795
 H1583 H 0.30029 0.23134 0.20021
 H1584 H 0.34225 0.23197 0.18663
 C1585 C 0.43335 0.75019 0.36432
 C1586 C 0.41034 0.75487 0.35488
 C1587 C 0.40319 0.74590 0.33025
 C1588 C 0.41927 0.73130 0.31563
 C1589 C 0.44222 0.72646 0.32517
 C1590 C 0.44967 0.73613 0.34946
 C1591 C 0.37863 0.75154 0.32107
 C1592 C 0.37236 0.75186 0.29557
 C1593 C 0.34753 0.75733 0.28690
 C1594 C 0.33981 0.74874 0.26229
 C1595 C 0.31595 0.75193 0.25447
 C1596 C 0.29929 0.76392 0.27107
 C1597 C 0.30753 0.77370 0.29502
 C1598 C 0.33131 0.77070 0.30268
 H1599 H 0.43852 0.75824 0.38290
 H1600 H 0.39823 0.76598 0.36666
 H1601 H 0.41414 0.72328 0.29705
 H1602 H 0.45409 0.71505 0.31348
 H1603 H 0.36539 0.75587 0.33626
 H1604 H 0.38558 0.74735 0.28039
 H1605 H 0.35205 0.73875 0.24949
 H1606 H 0.31039 0.74417 0.23589
 H1607 H 0.29544 0.78328 0.30834
 H1608 H 0.33670 0.77874 0.32116
 C1609 C 0.93899 0.25220 0.85812
 C1610 C 0.91563 0.25280 0.84831
 C1611 C 0.91084 0.24506 0.82256
 C1612 C 0.92989 0.23592 0.80699
 C1613 C 0.95328 0.23513 0.81679
 C1614 C 0.95847 0.24353 0.84249
 C1615 C 0.88568 0.24623 0.81319
 C1616 C 0.87968 0.24753 0.78766
 C1617 C 0.85432 0.24948 0.77887
 C1618 C 0.84852 0.24265 0.75300
 C1619 C 0.82467 0.24367 0.74437
 C1620 C 0.80609 0.25166 0.76146
 C1621 C 0.81216 0.25924 0.78707
 C1622 C 0.83588 0.25841 0.79555
 H1623 H 0.94148 0.25959 0.87762
 H1624 H 0.90123 0.25986 0.86080
 H1625 H 0.92680 0.22884 0.78741
 H1626 H 0.96700 0.22721 0.80414
 H1627 H 0.87167 0.24652 0.82835
 H1628 H 0.89367 0.24699 0.77246
 H1629 H 0.86242 0.23608 0.73955
 H1630 H 0.82078 0.23783 0.72450
 H1631 H 0.79859 0.26600 0.80077
 H1632 H 0.83956 0.26504 0.81516
 C1633 C 0.59050 0.95440 0.71439
 C1634 C 0.57357 0.94242 0.69872
 C1635 C 0.55587 0.95572 0.68577
 C1636 C 0.55460 0.98089 0.69006
 C1637 C 0.57172 0.99286 0.70541
 C1638 C 0.59007 0.97976 0.71725
 C1639 C 0.54046 0.94476 0.66529
 C1640 C 0.54907 0.92833 0.64810
 C1641 C 0.54098 0.92901 0.62068
 C1642 C 0.55710 0.93876 0.60188
 C1643 C 0.54889 0.94627 0.57758
 C1644 C 0.52461 0.94273 0.57061
 C1645 C 0.50891 0.93078 0.58878
 C1646 C 0.51693 0.92444 0.61389
 H1647 H 0.60467 0.94400 0.72307
 H1648 H 0.57481 0.92295 0.69609
 H1649 H 0.54116 0.99154 0.68029
 H1650 H 0.57099 1.01243 0.70755
 H1651 H 0.52434 0.95453 0.66022
 H1652 H 0.56653 0.92040 0.65130
 H1653 H 0.57559 0.94292 0.60702
 H1654 H 0.56138 0.95666 0.56530
 H1655 H 0.49000 0.92814 0.58452
 H1656 H 0.50417 0.91715 0.62839
 C1657 C 0.11961 0.47631 1.18816
 C1658 C 0.10780 0.46218 1.16946
 C1659 C 0.08341 0.45556 1.17309
 C1660 C 0.07140 0.46222 1.19674
 C1661 C 0.08344 0.47612 1.21575
 C1662 C 0.10741 0.48386 1.21119
 C1663 C 0.07116 0.44402 1.15048
 C1664 C 0.04761 0.44643 1.14565
 C1665 C 0.03898 0.44687 1.11819
 C1666 C 0.01513 0.44022 1.11233
 C1667 C 0.00576 0.44528 1.08742
 C1668 C 0.01991 0.45778 1.06827
 C1669 C 0.04398 0.46371 1.07427
 C1670 C 0.05344 0.45802 1.09854
 H1671 H 0.13833 0.48142 1.18455
 H1672 H 0.11755 0.45724 1.15154
 H1673 H 0.05275 0.45706 1.20049
 H1674 H 0.07384 0.48142 1.23364
 H1675 H 0.08277 0.43740 1.13462
 H1676 H 0.03513 0.45228 1.16101
 H1677 H 0.00347 0.43205 1.12736
 H1678 H -0.01300 0.44090 1.08388
 H1679 H 0.05531 0.47446 1.06104
 H1680 H 0.07155 0.46442 1.10258
 C1681 C -0.12486 -0.01126 1.18984
 C1682 C -0.11130 -0.00918 1.16636
 C1683 C -0.10271 0.01359 1.15743
 C1684 C -0.10762 0.03428 1.17287
 C1685 C -0.12117 0.03218 1.19635
 C1686 C -0.13030 0.00944 1.20487
 C1687 C -0.09009 0.01488 1.13132
 C1688 C -0.07749 0.03421 1.12197
 C1689 C -0.06571 0.03379 1.09542
 C1690 C -0.04330 0.04548 1.09105
 C1691 C -0.03044 0.04210 1.06721
 C1692 C -0.03987 0.02708 1.04726
 C1693 C -0.06333 0.01742 1.05099
 C1694 C -0.07614 0.02088 1.07457
 H1695 H -0.13180 -0.02895 1.19567
 H1696 H -0.10790 -0.02544 1.15484
 H1697 H -0.10169 0.05221 1.16668
 H1698 H -0.12469 0.04847 1.20773
 H1699 H -0.09092 -0.00142 1.11930
 H1700 H -0.07433 0.04994 1.13431
 H1701 H -0.03511 0.05602 1.10665
 H1702 H -0.01252 0.05005 1.06513
 H1703 H -0.07137 0.00563 1.03658
 H1704 H -0.09386 0.01252 1.07683
 C1705 C 0.38570 0.47924 0.69778
 C1706 C 0.39919 0.47836 0.67425
 C1707 C 0.41011 0.49947 0.66358
 C1708 C 0.40765 0.52152 0.67745
 C1709 C 0.39420 0.52237 0.70110
 C1710 C 0.38282 0.50129 0.71134
 C1711 C 0.42262 0.49744 0.63748
 C1712 C 0.43371 0.51572 0.62422
 C1713 C 0.44376 0.51212 0.59716
 C1714 C 0.46439 0.52519 0.58850
 C1715 C 0.47483 0.52064 0.56353
 C1716 C 0.46460 0.50313 0.54668
 C1717 C 0.44329 0.49097 0.55514
 C1718 C 0.43287 0.49563 0.57977
 H1719 H 0.37688 0.46275 0.70482
 H1720 H 0.40064 0.46112 0.66400
 H1721 H 0.41567 0.53826 0.67014
 H1722 H 0.39264 0.53959 0.71133
 H1723 H 0.42233 0.47956 0.62848
 H1724 H 0.43605 0.53342 0.63316
 H1725 H 0.47290 0.53830 0.60142
 H1726 H 0.49130 0.53024 0.55787
 H1727 H 0.43463 0.47743 0.54290
 H1728 H 0.41631 0.48605 0.58520
 C1729 C 0.40694 0.50561 -0.19615
 C1730 C 0.42649 0.50125 -0.18018
 C1731 C 0.43012 0.47807 -0.16966
 C1732 C 0.41434 0.45889 -0.17658
 C1733 C 0.39483 0.46323 -0.19308
 C1734 C 0.39074 0.48678 -0.20240
 C1735 C 0.45023 0.47539 -0.15118
 C1736 C 0.45066 0.45895 -0.13166
 C1737 C 0.46779 0.46152 -0.10962
 C1738 C 0.46067 0.45360 -0.08431
 C1739 C 0.47387 0.46064 -0.06225
 C1740 C 0.49406 0.47630 -0.06506
 C1741 C 0.50279 0.48153 -0.09073
 C1742 C 0.48998 0.47400 -0.11273
 H1743 H 0.40431 0.52384 -0.20350
 H1744 H 0.43845 0.51630 -0.17537
 H1745 H 0.41695 0.44067 -0.16930
 H1746 H 0.38257 0.44846 -0.19788
 H1747 H 0.46362 0.48989 -0.15164
 H1748 H 0.43611 0.44571 -0.12959
 H1749 H 0.44401 0.44334 -0.08138
 H1750 H 0.46714 0.45524 -0.04293
 H1751 H 0.51892 0.49250 -0.09405
 H1752 H 0.49699 0.47904 -0.13206
 C1753 C -0.10568 1.01318 0.29913
 C1754 C -0.08594 1.00926 0.31500
 C1755 C -0.08008 0.98569 0.32288
 C1756 C -0.09379 0.96585 0.31352
 C1757 C -0.11347 0.96980 0.29717
 C1758 C -0.11982 0.99355 0.29041
 C1759 C -0.05977 0.98313 0.34108
 C1760 C -0.05775 0.96503 0.35859
 C1761 C -0.04029 0.96681 0.38034
 C1762 C -0.04635 0.95675 0.40505
 C1763 C -0.03281 0.96273 0.42723
 C1764 C -0.01344 0.97947 0.42523
 C1765 C -0.00564 0.98684 0.39981
 C1766 C -0.01875 0.98042 0.37766
 H1767 H -0.10996 1.03163 0.29373
 H1768 H -0.07554 1.02483 0.32169
 H1769 H -0.08939 0.94740 0.31872
 H1770 H -0.12410 0.95442 0.29042
 H1771 H -0.04760 0.99864 0.34223
 H1772 H -0.07120 0.95058 0.35937
 H1773 H -0.06244 0.94551 0.40755
 H1774 H -0.03865 0.95551 0.44607
 H1775 H 0.01002 0.99855 0.39687
 H1776 H -0.01254 0.98714 0.35862
 C1777 C 0.09592 0.49825 0.31453
 C1778 C 0.08169 0.50031 0.33741
 C1779 C 0.07153 0.52262 0.34479
 C1780 C 0.07533 0.54283 0.32816
 C1781 C 0.08952 0.54072 0.30508
 C1782 C 0.10026 0.51848 0.29824
 C1783 C 0.05857 0.52380 0.37067
 C1784 C 0.04837 0.54359 0.38150
 C1785 C 0.03828 0.54276 0.40881
 C1786 C 0.01700 0.55506 0.41564
 C1787 C 0.00608 0.55184 0.44068
 C1788 C 0.01646 0.53643 0.45932
 C1789 C 0.03862 0.52551 0.45273
 C1790 C 0.04951 0.52892 0.42809
 H1791 H 0.10426 0.48098 0.31029
 H1792 H 0.07920 0.48444 0.34984
 H1793 H 0.06788 0.56037 0.33296
 H1794 H 0.09228 0.55658 0.29274
 H1795 H 0.05791 0.50706 0.38191
 H1796 H 0.04687 0.56027 0.37050
 H1797 H 0.00824 0.56619 0.40120
 H1798 H -0.01099 0.56048 0.44491
 H1799 H 0.04733 0.51345 0.46627
 H1800 H 0.06648 0.52004 0.42389
 C1801 C 0.57894 -0.00000 -0.19774
 C1802 C 0.56441 0.00314 -0.17517
 C1803 C 0.56999 0.02118 -0.15664
 C1804 C 0.59045 0.03607 -0.16095
 C1805 C 0.60535 0.03256 -0.18319
 C1806 C 0.59987 0.01436 -0.20184
 C1807 C 0.55603 0.02203 -0.13159
 C1808 C 0.55176 0.04247 -0.11794
 C1809 C 0.54113 0.04095 -0.09108
 C1810 C 0.55120 0.02517 -0.07290
 C1811 C 0.54013 0.02135 -0.04843
 C1812 C 0.51849 0.03313 -0.04139
 C1813 C 0.50913 0.05007 -0.05910
 C1814 C 0.52056 0.05414 -0.08373
 H1815 H 0.57357 -0.01365 -0.21191
 H1816 H 0.54878 -0.00865 -0.17210
 H1817 H 0.59556 0.04967 -0.14655
 H1818 H 0.62149 0.04372 -0.18532
 H1819 H 0.54935 0.00483 -0.12372
 H1820 H 0.55624 0.06012 -0.12626
 H1821 H 0.56741 0.01525 -0.07795
 H1822 H 0.54828 0.00840 -0.03543
 H1823 H 0.49253 0.05941 -0.05445
 H1824 H 0.51268 0.06660 -0.09751
 C1825 C 0.70731 0.60107 -0.04734
 C1826 C 0.68522 0.58881 -0.04882
 C1827 C 0.68098 0.56699 -0.03511
 C1828 C 0.69983 0.55728 -0.02036
 C1829 C 0.72208 0.56963 -0.01889
 C1830 C 0.72596 0.59179 -0.03214
 C1831 C 0.65631 0.55610 -0.03621
 C1832 C 0.64890 0.53534 -0.02449
 C1833 C 0.62330 0.52691 -0.02486
 C1834 C 0.61413 0.51228 -0.00423
 C1835 C 0.58956 0.50600 -0.00277
 C1836 C 0.57355 0.51465 -0.02168
 C1837 C 0.58319 0.52764 -0.04337
 C1838 C 0.60771 0.53359 -0.04504
 H1839 H 0.70933 0.61837 -0.05731
 H1840 H 0.67113 0.59682 -0.06030
 H1841 H 0.69754 0.54051 -0.00952
 H1842 H 0.73616 0.56193 -0.00718
 H1843 H 0.64321 0.56671 -0.04649
 H1844 H 0.66121 0.52497 -0.01291
 H1845 H 0.62582 0.50639 0.01129
 H1846 H 0.58297 0.49537 0.01389
 H1847 H 0.57184 0.53350 -0.05912
 H1848 H 0.61424 0.54355 -0.06217
 C1849 C 0.21005 1.08049 0.50334
 C1850 C 0.18637 1.07163 0.50255
 C1851 C 0.17660 1.06344 0.47876
 C1852 C 0.19119 1.06395 0.45570
 C1853 C 0.21491 1.07280 0.45651
 C1854 C 0.22446 1.08144 0.48027
 C1855 C 0.15079 1.05618 0.47868
 C1856 C 0.14041 1.04324 0.45943
 C1857 C 0.11434 1.03715 0.46025
 C1858 C 0.10620 1.01517 0.44936
 C1859 C 0.08184 1.00834 0.45155
 C1860 C 0.06507 1.02355 0.46443
 C1861 C 0.07323 1.04616 0.47406
 C1862 C 0.09749 1.05292 0.47191
 H1863 H 0.21670 1.08745 0.52184
 H1864 H 0.17546 1.07164 0.52054
 H1865 H 0.18427 1.05834 0.43684
 H1866 H 0.22569 1.07320 0.43844
 H1867 H 0.13995 1.06139 0.49575
 H1868 H 0.15124 1.03574 0.44348
 H1869 H 0.11884 1.00289 0.43992
 H1870 H 0.07639 0.99084 0.44372
 H1871 H 0.06120 1.05834 0.48443
 H1872 H 0.10302 1.07042 0.47970
 C1873 C 0.19166 -0.05898 0.99345
 C1874 C 0.17138 -0.04455 0.99646
 C1875 C 0.15756 -0.04512 1.01995
 C1876 C 0.16558 -0.05904 1.04128
 C1877 C 0.18615 -0.07343 1.03828
 C1878 C 0.19861 -0.07423 1.01394
 C1879 C 0.13333 -0.03428 1.01941
 C1880 C 0.11870 -0.03065 1.04037
 C1881 C 0.09311 -0.02514 1.03606
 C1882 C 0.08202 -0.00520 1.04824
 C1883 C 0.05856 0.00123 1.04140
 C1884 C 0.04578 -0.01244 1.02255
 C1885 C 0.05666 -0.03329 1.01187
 C1886 C 0.07996 -0.03949 1.01843
 H1887 H 0.20129 -0.05914 0.97463
 H1888 H 0.16567 -0.03396 0.97978
 H1889 H 0.15525 -0.06016 1.05958
 H1890 H 0.19133 -0.08515 1.05427
 H1891 H 0.12636 -0.03048 1.00002
 H1892 H 0.12507 -0.03219 1.06031
 H1893 H 0.09184 0.00595 1.06213
 H1894 H 0.05077 0.01724 1.05041
 H1895 H 0.04780 -0.04435 0.99736
 H1896 H 0.08802 -0.05526 1.00915
 C1897 C 0.70168 0.43755 0.52576
 C1898 C 0.68058 0.45082 0.53039
 C1899 C 0.65793 0.43947 0.52778
 C1900 C 0.65667 0.41431 0.52306
 C1901 C 0.67759 0.40119 0.51830
 C1902 C 0.70019 0.41289 0.51853
 C1903 C 0.63569 0.45391 0.52681
 C1904 C 0.62081 0.45015 0.50670
 C1905 C 0.59607 0.45942 0.50455
 C1906 C 0.58100 0.44694 0.48725
 C1907 C 0.55710 0.45334 0.48487
 C1908 C 0.54736 0.47298 0.49917
 C1909 C 0.56262 0.48597 0.51626
 C1910 C 0.58681 0.47918 0.51906
 H1911 H 0.71900 0.44690 0.52607
 H1912 H 0.68189 0.47016 0.53422
 H1913 H 0.63936 0.40505 0.52164
 H1914 H 0.67606 0.38207 0.51333
 H1915 H 0.63167 0.46686 0.54232
 H1916 H 0.62654 0.43756 0.49136
 H1917 H 0.58752 0.43148 0.47603
 H1918 H 0.54616 0.44197 0.47238
 H1919 H 0.55582 0.50108 0.52779
 H1920 H 0.59806 0.48934 0.53245
 C1921 C -0.20768 0.43385 0.52747
 C1922 C -0.18863 0.45032 0.53071
 C1923 C -0.17992 0.46450 0.50948
 C1924 C -0.19184 0.46304 0.48527
 C1925 C -0.21100 0.44656 0.48206
 C1926 C -0.21862 0.43132 0.50291
 C1927 C -0.15705 0.47827 0.51307
 C1928 C -0.14355 0.48807 0.49344
 C1929 C -0.11793 0.49461 0.49735
 C1930 C -0.10712 0.51413 0.48360
 C1931 C -0.08252 0.51951 0.48645
 C1932 C -0.06821 0.50512 0.50270
 C1933 C -0.07920 0.48522 0.51582
 C1934 C -0.10362 0.48008 0.51325
 H1935 H -0.21289 0.42221 0.54386
 H1936 H -0.17985 0.45105 0.54959
 H1937 H -0.18620 0.47395 0.46851
 H1938 H -0.21949 0.44534 0.46306
 H1939 H -0.14964 0.47806 0.53268
 H1940 H -0.15042 0.48993 0.47379
 H1941 H -0.11774 0.52525 0.47077
 H1942 H -0.07478 0.53484 0.47576
 H1943 H -0.06894 0.47310 0.52782
 H1944 H -0.11111 0.46418 0.52315
 C1945 C 0.29047 -0.06772 0.02965
 C1946 C 0.31126 -0.05337 0.03214
 C1947 C 0.32224 -0.04220 0.00999
 C1948 C 0.31115 -0.04467 -0.01463
 C1949 C 0.29029 -0.05895 -0.01707
 C1950 C 0.28016 -0.07119 0.00488
 C1951 C 0.34636 -0.03069 0.01315
 C1952 C 0.35903 -0.01915 -0.00602
 C1953 C 0.38482 -0.01267 -0.00305
 C1954 C 0.39483 0.00749 -0.01640
 C1955 C 0.41934 0.01347 -0.01405
 C1956 C 0.43440 -0.00086 0.00142
 C1957 C 0.42426 -0.02144 0.01410
 C1958 C 0.39993 -0.02730 0.01184
 H1959 H 0.28327 -0.07711 0.04690
 H1960 H 0.31941 -0.05188 0.05133
 H1961 H 0.31886 -0.03655 -0.03231
 H1962 H 0.28245 -0.06094 -0.03635
 H1963 H 0.35465 -0.03301 0.03212
 H1964 H 0.35080 -0.01457 -0.02445
 H1965 H 0.38361 0.01878 -0.02842
 H1966 H 0.42637 0.02939 -0.02427
 H1967 H 0.43504 -0.03314 0.02605
 H1968 H 0.39311 -0.04361 0.02149
 C1969 C 0.30609 1.05944 0.53034
 C1970 C 0.32248 1.04222 0.53913
 C1971 C 0.33674 1.02928 0.52089
 C1972 C 0.33265 1.03204 0.49380
 C1973 C 0.31645 1.04925 0.48508
 C1974 C 0.30377 1.06383 0.50324
 C1975 C 0.35809 1.01597 0.52989
 C1976 C 0.37932 1.01980 0.51745
 C1977 C 0.40279 1.01136 0.52659
 C1978 C 0.42246 1.02711 0.52275
 C1979 C 0.44579 1.01906 0.52587
 C1980 C 0.45037 0.99476 0.53271
 C1981 C 0.43041 0.97928 0.53832
 C1982 C 0.40671 0.98755 0.53535
 H1983 H 0.29651 1.07039 0.54473
 H1984 H 0.32529 1.04031 0.56009
 H1985 H 0.34299 1.02181 0.47931
 H1986 H 0.31450 1.05183 0.46406
 H1987 H 0.35720 1.00606 0.54833
 H1988 H 0.38007 1.03212 0.50077
 H1989 H 0.41986 1.04549 0.51581
 H1990 H 0.46006 1.03159 0.52020
 H1991 H 0.43307 0.96043 0.54344
 H1992 H 0.39167 0.97498 0.53816
 C1993 C -0.17615 0.60524 1.02068
 C1994 C -0.15785 0.59167 1.03161
 C1995 C -0.15811 0.56618 1.02987
 C1996 C -0.17825 0.55445 1.01864
 C1997 C -0.19688 0.56818 1.00800
 C1998 C -0.19542 0.59366 1.00811
 C1999 C -0.13576 0.55350 1.03738
 C2000 C -0.13081 0.53003 1.03266
 C2001 C -0.10554 0.52142 1.03294
 C2002 C -0.10005 0.49780 1.04114
 C2003 C -0.07615 0.48954 1.03978
 C2004 C -0.05737 0.50459 1.02964
 C2005 C -0.06332 0.52805 1.02107
 C2006 C -0.08685 0.53634 1.02281
 H2007 H -0.17483 0.62491 1.02120
 H2008 H -0.14274 0.60128 1.04024
 H2009 H -0.17938 0.53488 1.01711
 H2010 H -0.21171 0.55895 0.99840
 H2011 H -0.12135 0.56496 1.04486
 H2012 H -0.14470 0.51733 1.02665
 H2013 H -0.11426 0.48576 1.04852
 H2014 H -0.07252 0.47120 1.04612
 H2015 H -0.05001 0.54003 1.01198
 H2016 H -0.09052 0.55423 1.01515
 C2017 C -0.01749 0.71725 0.58438
 C2018 C -0.02100 0.69737 0.56750
 C2019 C -0.00155 0.68778 0.55284
 C2020 C 0.02107 0.69960 0.55382
 C2021 C 0.02459 0.71933 0.57072
 C2022 C 0.00555 0.72787 0.58677
 C2023 C -0.00483 0.66450 0.53843
 C2024 C 0.01287 0.64817 0.53682
 C2025 C 0.00887 0.62267 0.52868
 C2026 C 0.02048 0.60460 0.54276
 C2027 C 0.01628 0.58018 0.53718
 C2028 C 0.00122 0.57304 0.51643
 C2029 C -0.00988 0.59128 0.50169
 C2030 C -0.00625 0.61592 0.50792
 H2031 H -0.03250 0.72352 0.59648
 H2032 H -0.03866 0.68871 0.56690
 H2033 H 0.03623 0.69333 0.54197
 H2034 H 0.04237 0.72770 0.57152
 H2035 H -0.02283 0.65934 0.53240
 H2036 H 0.03010 0.65240 0.54553
 H2037 H 0.03216 0.60939 0.55889
 H2038 H 0.02476 0.56689 0.54950
 H2039 H -0.02185 0.58656 0.48584
 H2040 H -0.01522 0.62963 0.49656
 C2041 C 0.53596 0.21534 0.08351
 C2042 C 0.53648 0.19469 0.06751
 C2043 C 0.51518 0.18185 0.06190
 C2044 C 0.49306 0.19074 0.07187
 C2045 C 0.49256 0.21148 0.08803
 C2046 C 0.51409 0.22356 0.09469
 C2047 C 0.51728 0.15796 0.04844
 C2048 C 0.49918 0.14638 0.03629
 C2049 C 0.50111 0.12074 0.02735
 C2050 C 0.48719 0.11227 0.00633
 C2051 C 0.48677 0.08753 -0.00040
 C2052 C 0.49999 0.07063 0.01405
 C2053 C 0.51422 0.07938 0.03481
 C2054 C 0.51491 0.10402 0.04124
 H2055 H 0.55284 0.22459 0.08759
 H2056 H 0.55374 0.18832 0.06006
 H2057 H 0.47629 0.18109 0.06841
 H2058 H 0.47547 0.21728 0.09633
 H2059 H 0.53469 0.14930 0.04911
 H2060 H 0.48236 0.15560 0.03316
 H2061 H 0.47615 0.12473 -0.00447
 H2062 H 0.47516 0.08158 -0.01611
 H2063 H 0.52415 0.06706 0.04699
 H2064 H 0.52522 0.10965 0.05813
 C2065 C 0.02359 0.20277 0.92274
 C2066 C 0.02142 0.18469 0.94191
 C2067 C -0.00069 0.17253 0.94672
 C2068 C -0.02107 0.17998 0.93280
 C2069 C -0.01890 0.19839 0.91372
 C2070 C 0.00362 0.20939 0.90797
 C2071 C -0.00050 0.15077 0.96411
 C2072 C -0.01935 0.13575 0.96930
 C2073 C -0.01579 0.11099 0.98015
 C2074 C -0.03397 0.09931 0.99541
 C2075 C -0.03152 0.07496 1.00319
 C2076 C -0.01117 0.06158 0.99505
 C2077 C 0.00718 0.07373 0.98038
 C2078 C 0.00490 0.09790 0.97305
 H2079 H 0.04108 0.21129 0.91909
 H2080 H 0.03742 0.17952 0.95232
 H2081 H -0.03846 0.17119 0.93576
 H2082 H -0.03458 0.20320 0.90257
 H2083 H 0.01695 0.14577 0.97146
 H2084 H -0.03744 0.14071 0.96416
 H2085 H -0.05028 0.10889 1.00086
 H2086 H -0.04614 0.06631 1.01428
 H2087 H 0.02316 0.06445 0.97339
 H2088 H 0.01896 0.10586 0.96055
 C2089 C 0.51429 0.68117 0.42370
 C2090 C 0.51149 0.66208 0.44161
 C2091 C 0.48854 0.65240 0.44785
 C2092 C 0.46818 0.66338 0.43694
 C2093 C 0.47100 0.68270 0.41905
 C2094 C 0.49415 0.69129 0.41169
 C2095 C 0.48710 0.63021 0.46457
 C2096 C 0.46889 0.61392 0.46366
 C2097 C 0.47051 0.58892 0.47450
 C2098 C 0.45761 0.57030 0.46198
 C2099 C 0.46097 0.54607 0.46872
 C2100 C 0.47686 0.53965 0.48881
 C2101 C 0.48870 0.55845 0.50252
 C2102 C 0.48556 0.58285 0.49547
 H2103 H 0.53234 0.68784 0.41898
 H2104 H 0.52747 0.65427 0.44991
 H2105 H 0.45011 0.65699 0.44187
 H2106 H 0.45517 0.69032 0.41028
 H2107 H 0.50315 0.62565 0.47518
 H2108 H 0.45368 0.61753 0.45131
 H2109 H 0.44581 0.57440 0.44586
 H2110 H 0.45166 0.53232 0.45733
 H2111 H 0.50118 0.55435 0.51795
 H2112 H 0.49532 0.59678 0.50612
 C2113 C 0.48594 0.77040 0.43488
 C2114 C 0.48427 0.78941 0.45334
 C2115 C 0.49340 0.81267 0.44709
 C2116 C 0.50300 0.81687 0.42157
 C2117 C 0.50455 0.79804 0.40320
 C2118 C 0.49648 0.77446 0.40974
 C2119 C 0.49252 0.83266 0.46684
 C2120 C 0.51041 0.84928 0.46777
 C2121 C 0.50936 0.87272 0.48219
 C2122 C 0.52361 0.89179 0.47199
 C2123 C 0.52272 0.91481 0.48316
 C2124 C 0.50819 0.91951 0.50569
 C2125 C 0.49431 0.90019 0.51654
 C2126 C 0.49474 0.87697 0.50477
 H2127 H 0.47959 0.75243 0.44057
 H2128 H 0.47646 0.78582 0.47273
 H2129 H 0.50919 0.83484 0.41565
 H2130 H 0.51198 0.80205 0.38375
 H2131 H 0.47678 0.83407 0.47974
 H2132 H 0.52615 0.84670 0.45506
 H2133 H 0.53502 0.88909 0.45462
 H2134 H 0.53352 0.92900 0.47377
 H2135 H 0.48277 0.90313 0.53372
 H2136 H 0.48375 0.86250 0.51334
 C2137 C 0.00354 0.31523 0.88614
 C2138 C 0.00102 0.33573 0.90208
 C2139 C -0.00471 0.33352 0.92909
 C2140 C -0.00890 0.31011 0.93963
 C2141 C -0.00665 0.28944 0.92344
 C2142 C 0.00012 0.29187 0.89669
 C2143 C -0.00522 0.35627 0.94494
 C2144 C -0.00514 0.35790 0.97141
 C2145 C -0.00197 0.38191 0.98452
 C2146 C -0.01442 0.38747 1.00817
 C2147 C -0.01303 0.41102 1.01899
 C2148 C 0.00106 0.42929 1.00643
 C2149 C 0.01462 0.42298 0.98367
 C2150 C 0.01336 0.39967 0.97312
 H2151 H 0.00842 0.31763 0.86550
 H2152 H 0.00419 0.35346 0.89331
 H2153 H -0.01370 0.30760 0.96023
 H2154 H -0.00938 0.27158 0.93200
 H2155 H -0.00436 0.37303 0.93374
 H2156 H -0.00717 0.34189 0.98361
 H2157 H -0.02600 0.37393 1.01763
 H2158 H -0.02370 0.41513 1.03652
 H2159 H 0.02585 0.43626 0.97333
 H2160 H 0.02411 0.39573 0.95558
 C2161 C 0.47869 0.31275 0.08982
 C2162 C 0.47338 0.33220 0.07320
 C2163 C 0.49192 0.34487 0.05949
 C2164 C 0.51590 0.33746 0.06247
 C2165 C 0.52121 0.31833 0.07936
 C2166 C 0.50272 0.30606 0.09352
 C2167 C 0.48624 0.36738 0.04494
 C2168 C 0.50001 0.37612 0.02490
 C2169 C 0.49790 0.40119 0.01447
 C2170 C 0.50704 0.40666 -0.01091
 C2171 C 0.50889 0.43079 -0.01960
 C2172 C 0.50192 0.45009 -0.00296
 C2173 C 0.49216 0.44440 0.02219
 C2174 C 0.48999 0.42034 0.03070
 H2175 H 0.46414 0.30369 0.10068
 H2176 H 0.45481 0.33774 0.07151
 H2177 H 0.53074 0.34715 0.05283
 H2178 H 0.53988 0.31341 0.08176
 H2179 H 0.47063 0.37746 0.05170
 H2180 H 0.51415 0.36495 0.01646
 H2181 H 0.51356 0.39227 -0.02370
 H2182 H 0.51685 0.43433 -0.03892
 H2183 H 0.48747 0.45847 0.03617
 H2184 H 0.48366 0.41703 0.05072
 C2185 C -0.01155 0.80447 0.56680
 C2186 C -0.01552 0.82221 0.54762
 C2187 C -0.00590 0.84575 0.55045
 C2188 C 0.00657 0.85167 0.57346
 C2189 C 0.01011 0.83418 0.59282
 C2190 C 0.00161 0.81016 0.58951
 C2191 C -0.00921 0.86424 0.52972
 C2192 C 0.00889 0.87941 0.52251
 C2193 C 0.00643 0.90080 0.50509
 C2194 C 0.02746 0.91154 0.49429
 C2195 C 0.02688 0.93453 0.48276
 C2196 C 0.00528 0.94777 0.48225
 C2197 C -0.01615 0.93575 0.49051
 C2198 C -0.01563 0.91262 0.50195
 H2199 H -0.01816 0.78617 0.56332
 H2200 H -0.02542 0.81734 0.53014
 H2201 H 0.01348 0.86995 0.57658
 H2202 H 0.01961 0.83956 0.61036
 H2203 H -0.02650 0.86505 0.52026
 H2204 H 0.02656 0.87653 0.53064
 H2205 H 0.04469 0.90272 0.49612
 H2206 H 0.04385 0.94260 0.47608
 H2207 H -0.03333 0.94432 0.48943
 H2208 H -0.03230 0.90492 0.50989
 C2209 C 0.26843 0.35354 0.05881
 C2210 C 0.26292 0.33925 0.08076
 C2211 C 0.23898 0.33624 0.08977
 C2212 C 0.22038 0.34698 0.07557
 C2213 C 0.22596 0.36134 0.05339
 C2214 C 0.25010 0.36528 0.04534
 C2215 C 0.23498 0.32430 0.11556
 C2216 C 0.21385 0.31569 0.12526
 C2217 C 0.21288 0.30628 0.15252
 C2218 C 0.20418 0.28275 0.15803
 C2219 C 0.20882 0.27195 0.18243
 C2220 C 0.22212 0.28467 0.20158
 C2221 C 0.22877 0.30904 0.19651
 C2222 C 0.22389 0.31977 0.17252
 H2223 H 0.28716 0.35583 0.05266
 H2224 H 0.27757 0.33113 0.09128
 H2225 H 0.20176 0.34535 0.08221
 H2226 H 0.21155 0.37030 0.04343
 H2227 H 0.25076 0.32278 0.12774
 H2228 H 0.19796 0.31461 0.11326
 H2229 H 0.19553 0.27210 0.14284
 H2230 H 0.20357 0.25313 0.18542
 H2231 H 0.23938 0.31951 0.21027
 H2232 H 0.23038 0.33815 0.16883
 C2233 C 0.76062 0.82799 0.54342
 C2234 C 0.75041 0.81211 0.56214
 C2235 C 0.72664 0.81532 0.57150
 C2236 C 0.71274 0.83381 0.56064
 C2237 C 0.72286 0.84946 0.54161
 C2238 C 0.74698 0.84693 0.53330
 C2239 C 0.71787 0.80059 0.59418
 C2240 C 0.70486 0.81033 0.61400
 C2241 C 0.70565 0.79970 0.64055
 C2242 C 0.69976 0.77520 0.64536
 C2243 C 0.70546 0.76454 0.66947
 C2244 C 0.71789 0.77801 0.68872
 C2245 C 0.72271 0.80285 0.68390
 C2246 C 0.71603 0.81367 0.66046
 H2247 H 0.77927 0.82578 0.53713
 H2248 H 0.76148 0.79800 0.57026
 H2249 H 0.69427 0.83652 0.56725
 H2250 H 0.71221 0.86421 0.53433
 H2251 H 0.72619 0.78311 0.59717
 H2252 H 0.69892 0.82895 0.61256
 H2253 H 0.69180 0.76412 0.63006
 H2254 H 0.70174 0.74532 0.67210
 H2255 H 0.73327 0.81374 0.69729
 H2256 H 0.72104 0.83251 0.65690
 C2257 C 0.24355 0.65136 0.55697
 C2258 C 0.24711 0.66717 0.57815
 C2259 C 0.27046 0.67485 0.58495
 C2260 C 0.29021 0.66717 0.56936
 C2261 C 0.28663 0.65134 0.54812
 C2262 C 0.26331 0.64280 0.54215
 C2263 C 0.27329 0.68838 0.61000
 C2264 C 0.29365 0.69938 0.61808
 C2265 C 0.29480 0.70917 0.64523
 C2266 C 0.30473 0.73229 0.65027
 C2267 C 0.30180 0.74297 0.67532
 C2268 C 0.28905 0.73053 0.69562
 C2269 C 0.28119 0.70649 0.69080
 C2270 C 0.28431 0.69590 0.66614
 H2271 H 0.22542 0.64493 0.55308
 H2272 H 0.23158 0.67270 0.58991
 H2273 H 0.30849 0.67241 0.57405
 H2274 H 0.30220 0.64536 0.53674
 H2275 H 0.25759 0.68859 0.62313
 H2276 H 0.30915 0.70171 0.60497
 H2277 H 0.31326 0.74268 0.63444
 H2278 H 0.30801 0.76152 0.67815
 H2279 H 0.27093 0.69621 0.70542
 H2280 H 0.27723 0.67769 0.66301
 C2281 C 0.74033 0.15254 0.04599
 C2282 C 0.74351 0.16684 0.06842
 C2283 C 0.76647 0.17581 0.07498
 C2284 C 0.78613 0.17115 0.05777
 C2285 C 0.78290 0.15690 0.03520
 C2286 C 0.76008 0.14698 0.02943
 C2287 C 0.76885 0.18847 0.10064
 C2288 C 0.78964 0.19567 0.11159
 C2289 C 0.78960 0.20516 0.13890
 C2290 C 0.80397 0.22534 0.14567
 C2291 C 0.80120 0.23627 0.17057
 C2292 C 0.78415 0.22699 0.18906
 C2293 C 0.77135 0.20554 0.18271
 C2294 C 0.77425 0.19465 0.15816
 H2295 H 0.72259 0.14492 0.04240
 H2296 H 0.72802 0.17014 0.08127
 H2297 H 0.80406 0.17795 0.06174
 H2298 H 0.79840 0.15329 0.02250
 H2299 H 0.75222 0.19108 0.11189
 H2300 H 0.80665 0.19498 0.10082
 H2301 H 0.81629 0.23344 0.13122
 H2302 H 0.81141 0.25271 0.17471
 H2303 H 0.75807 0.19763 0.19622
 H2304 H 0.76369 0.17846 0.15388
 C2305 C 0.72457 0.16545 0.94829
 C2306 C 0.71553 0.18028 0.92850
 C2307 C 0.71127 0.17085 0.90322
 C2308 C 0.71589 0.14611 0.89831
 C2309 C 0.72502 0.13142 0.91797
 C2310 C 0.72992 0.14104 0.94296
 C2311 C 0.70557 0.18774 0.88152
 C2312 C 0.69643 0.18016 0.85864
 C2313 C 0.70163 0.19362 0.83410
 C2314 C 0.71398 0.18140 0.81389
 C2315 C 0.72348 0.19412 0.79233
 C2316 C 0.71958 0.21921 0.78948
 C2317 C 0.70594 0.23121 0.80923
 C2318 C 0.69731 0.21857 0.83157
 H2319 H 0.72833 0.17334 0.96738
 H2320 H 0.71253 0.19933 0.93269
 H2321 H 0.71372 0.13817 0.87897
 H2322 H 0.72866 0.11256 0.91344
 H2323 H 0.71209 0.20634 0.88320
 H2324 H 0.68990 0.16164 0.85659
 H2325 H 0.71790 0.16225 0.81577
 H2326 H 0.73495 0.18428 0.77865
 H2327 H 0.70306 0.25059 0.80824
 H2328 H 0.68792 0.22834 0.84716
 C2329 C 0.26160 0.64717 0.43872
 C2330 C 0.25691 0.66255 0.41775
 C2331 C 0.23331 0.66995 0.41286
 C2332 C 0.21447 0.66231 0.43008
 C2333 C 0.21924 0.64688 0.45125
 C2334 C 0.24276 0.63872 0.45534
 C2335 C 0.22936 0.68356 0.38825
 C2336 C 0.20924 0.69532 0.38194
 C2337 C 0.20784 0.70672 0.35562
 C2338 C 0.20025 0.73078 0.35288
 C2339 C 0.20423 0.74311 0.32891
 C2340 C 0.21579 0.73144 0.30742
 C2341 C 0.22119 0.70662 0.30987
 C2342 C 0.21684 0.69436 0.33341
 H2343 H 0.28000 0.64162 0.44173
 H2344 H 0.27179 0.66822 0.40487
 H2345 H 0.19600 0.66733 0.42672
 H2346 H 0.20439 0.64053 0.46365
 H2347 H 0.24434 0.68381 0.37411
 H2348 H 0.19460 0.69768 0.39613
 H2349 H 0.19299 0.74057 0.36975
 H2350 H 0.19994 0.76221 0.32796
 H2351 H 0.23060 0.69686 0.29435
 H2352 H 0.22222 0.67556 0.33480
 C2353 C 0.75021 0.84724 0.43156
 C2354 C 0.75063 0.83107 0.41034
 C2355 C 0.77206 0.81950 0.40264
 C2356 C 0.79319 0.82437 0.41668
 C2357 C 0.79274 0.84051 0.43803
 C2358 C 0.77120 0.85201 0.44575
 C2359 C 0.77114 0.80175 0.38073
 C2360 C 0.79030 0.79490 0.36602
 C2361 C 0.78720 0.77833 0.34330
 C2362 C 0.80019 0.78256 0.31969
 C2363 C 0.79401 0.77003 0.29667
 C2364 C 0.77461 0.75319 0.29695
 C2365 C 0.76364 0.74712 0.32141
 C2366 C 0.76992 0.75946 0.34429
 H2367 H 0.73344 0.85612 0.43671
 H2368 H 0.73410 0.82760 0.39984
 H2369 H 0.80988 0.81530 0.41177
 H2370 H 0.80911 0.84346 0.44891
 H2371 H 0.75338 0.79502 0.37557
 H2372 H 0.80784 0.80324 0.36889
 H2373 H 0.81391 0.79675 0.31862
 H2374 H 0.80306 0.77517 0.27840
 H2375 H 0.74912 0.73381 0.32290
 H2376 H 0.76039 0.75501 0.36255
 C2377 C 0.24222 0.34868 0.94756
 C2378 C 0.24187 0.32951 0.92948
 C2379 C 0.26320 0.31747 0.92216
 C2380 C 0.28484 0.32436 0.93426
 C2381 C 0.28516 0.34351 0.95243
 C2382 C 0.26394 0.35619 0.95885
 C2383 C 0.26196 0.29933 0.90054
 C2384 C 0.28103 0.29066 0.88683
 C2385 C 0.27769 0.27868 0.86095
 C2386 C 0.29275 0.25982 0.85222
 C2387 C 0.28928 0.24886 0.82746
 C2388 C 0.27093 0.25695 0.81101
 C2389 C 0.25658 0.27646 0.81972
 C2390 C 0.26000 0.28719 0.84410
 H2391 H 0.22561 0.35813 0.95196
 H2392 H 0.22492 0.32461 0.92047
 H2393 H 0.30160 0.31532 0.92971
 H2394 H 0.30209 0.34841 0.96143
 H2395 H 0.24404 0.29467 0.89383
 H2396 H 0.29928 0.29369 0.89326
 H2397 H 0.30691 0.25336 0.86468
 H2398 H 0.30081 0.23408 0.82129
 H2399 H 0.24266 0.28393 0.80765
 H2400 H 0.24891 0.30253 0.84953
 C2401 C 0.80294 0.46017 0.77051
 C2402 C 0.78976 0.43819 0.77040
 C2403 C 0.79806 0.41779 0.78394
 C2404 C 0.81907 0.42026 0.79880
 C2405 C 0.83232 0.44196 0.79864
 C2406 C 0.82467 0.46220 0.78427
 C2407 C 0.78535 0.39393 0.78141
 C2408 C 0.79743 0.37299 0.78226
 C2409 C 0.78696 0.34870 0.77656
 C2410 C 0.80239 0.33131 0.76566
 C2411 C 0.79387 0.30819 0.75945
 C2412 C 0.76968 0.30125 0.76470
 C2413 C 0.75418 0.31865 0.77613
 C2414 C 0.76270 0.34223 0.78189
 H2415 H 0.79614 0.47545 0.75970
 H2416 H 0.77343 0.43689 0.75909
 H2417 H 0.82561 0.40531 0.81035
 H2418 H 0.84903 0.44241 0.80925
 H2419 H 0.76648 0.39371 0.77630
 H2420 H 0.81680 0.37366 0.78464
 H2421 H 0.82111 0.33588 0.76111
 H2422 H 0.80625 0.29630 0.74926
 H2423 H 0.73538 0.31424 0.78023
 H2424 H 0.75043 0.35521 0.79069
 C2425 C 0.33350 0.95841 0.25852
 C2426 C 0.32182 0.93590 0.25610
 C2427 C 0.31234 0.92375 0.27840
 C2428 C 0.31447 0.93485 0.30331
 C2429 C 0.32621 0.95741 0.30573
 C2430 C 0.33610 0.96929 0.28338
 C2431 C 0.30222 0.89889 0.27483
 C2432 C 0.28834 0.88694 0.29270
 C2433 C 0.28010 0.86153 0.28824
 C2434 C 0.25772 0.85347 0.29860
 C2435 C 0.24925 0.82983 0.29344
 C2436 C 0.26316 0.81368 0.27804
 C2437 C 0.28605 0.82165 0.26876
 C2438 C 0.29443 0.84513 0.27386
 H2439 H 0.34133 0.96679 0.24097
 H2440 H 0.32065 0.92770 0.23671
 H2441 H 0.30788 0.92592 0.32107
 H2442 H 0.32782 0.96543 0.32515
 H2443 H 0.30628 0.89010 0.25613
 H2444 H 0.28203 0.89605 0.31042
 H2445 H 0.24649 0.86568 0.31011
 H2446 H 0.23160 0.82447 0.30110
 H2447 H 0.29738 0.81009 0.25668
 H2448 H 0.31218 0.85038 0.26638
 C2449 C 0.14168 0.92275 0.71793
 C2450 C 0.15585 0.90272 0.71184
 C2451 C 0.18094 0.90533 0.70832
 C2452 C 0.19136 0.92883 0.70888
 C2453 C 0.17703 0.94900 0.71469
 C2454 C 0.15226 0.94591 0.72024
 C2455 C 0.19521 0.88280 0.70706
 C2456 C 0.21891 0.88151 0.71157
 C2457 C 0.22941 0.85805 0.71898
 C2458 C 0.25174 0.85060 0.70855
 C2459 C 0.26081 0.82776 0.71513
 C2460 C 0.24787 0.81231 0.73268
 C2461 C 0.22614 0.82069 0.74404
 C2462 C 0.21705 0.84313 0.73726
 H2463 H 0.12252 0.92002 0.72168
 H2464 H 0.14728 0.88491 0.71129
 H2465 H 0.21052 0.93173 0.70572
 H2466 H 0.18553 0.96677 0.71630
 H2467 H 0.18502 0.86586 0.70580
 H2468 H 0.23035 0.89756 0.71213
 H2469 H 0.26176 0.86210 0.69477
 H2470 H 0.27769 0.82211 0.70610
 H2471 H 0.21547 0.80967 0.75761
 H2472 H 0.20015 0.84880 0.74630
 C2473 C 0.65768 0.42073 0.20416
 C2474 C 0.67368 0.40339 0.19448
 C2475 C 0.69864 0.40813 0.19388
 C2476 C 0.70712 0.43150 0.20074
 C2477 C 0.69096 0.44903 0.21013
 C2478 C 0.66630 0.44334 0.21290
 C2479 C 0.71473 0.38717 0.18970
 C2480 C 0.73652 0.38554 0.20046
 C2481 C 0.74447 0.36155 0.20920
 C2482 C 0.76545 0.35073 0.19910
 C2483 C 0.77131 0.32708 0.20680
 C2484 C 0.75638 0.31415 0.22496
 C2485 C 0.73605 0.32589 0.23577
 C2486 C 0.73018 0.34916 0.22798
 H2487 H 0.63864 0.41613 0.20591
 H2488 H 0.66662 0.38561 0.18917
 H2489 H 0.72617 0.43600 0.19994
 H2490 H 0.69793 0.46638 0.21682
 H2491 H 0.70631 0.37045 0.18279
 H2492 H 0.74573 0.40130 0.20838
 H2493 H 0.77680 0.36024 0.18473
 H2494 H 0.78717 0.31879 0.19806
 H2495 H 0.72394 0.31691 0.24972
 H2496 H 0.71407 0.35741 0.23627
 C2497 C 0.68942 0.52305 0.23216
 C2498 C 0.70494 0.54331 0.23366
 C2499 C 0.69986 0.56221 0.25144
 C2500 C 0.67981 0.55993 0.26870
 C2501 C 0.66439 0.53979 0.26724
 C2502 C 0.66880 0.52119 0.24875
 C2503 C 0.71429 0.58502 0.25041
 C2504 C 0.70322 0.60641 0.25215
 C2505 C 0.71528 0.63013 0.24807
 C2506 C 0.70234 0.64798 0.23527
 C2507 C 0.71149 0.67148 0.23309
 C2508 C 0.73367 0.67815 0.24430
 C2509 C 0.74709 0.65994 0.25652
 C2510 C 0.73802 0.63601 0.25825
 H2511 H 0.69356 0.50903 0.21789
 H2512 H 0.72035 0.54469 0.22023
 H2513 H 0.67570 0.57403 0.28298
 H2514 H 0.64858 0.53929 0.28012
 H2515 H 0.73337 0.58435 0.24540
 H2516 H 0.68370 0.60662 0.25416
 H2517 H 0.68479 0.64382 0.22723
 H2518 H 0.70049 0.68454 0.22322
 H2519 H 0.76426 0.66426 0.26531
 H2520 H 0.74822 0.62245 0.26849
 C2521 C 0.17104 0.03928 0.71867
 C2522 C 0.18765 0.05855 0.71802
 C2523 C 0.19963 0.06584 0.74091
 C2524 C 0.19567 0.05239 0.76424
 C2525 C 0.17907 0.03301 0.76485
 C2526 C 0.16615 0.02668 0.74224
 C2527 C 0.21398 0.08877 0.73973
 C2528 C 0.22262 0.10066 0.76074
 C2529 C 0.23063 0.12636 0.75887
 C2530 C 0.24876 0.13540 0.77525
 C2531 C 0.25539 0.16007 0.77452
 C2532 C 0.24365 0.17624 0.75772
 C2533 C 0.22520 0.16698 0.74175
 C2534 C 0.21881 0.14249 0.74229
 H2535 H 0.16120 0.03512 0.70097
 H2536 H 0.19029 0.06853 0.69977
 H2537 H 0.20477 0.05693 0.78225
 H2538 H 0.17602 0.02326 0.78317
 H2539 H 0.21560 0.09750 0.72062
 H2540 H 0.22271 0.09230 0.77999
 H2541 H 0.25779 0.12336 0.78859
 H2542 H 0.26953 0.16643 0.78733
 H2543 H 0.21513 0.17867 0.72907
 H2544 H 0.20397 0.13640 0.73028
 C2545 C 0.31686 0.06605 0.29207
 C2546 C 0.30309 0.08630 0.28648
 C2547 C 0.30156 0.09483 0.26054
 C2548 C 0.31279 0.08167 0.23997
 C2549 C 0.32664 0.06131 0.24563
 C2550 C 0.32954 0.05394 0.27182
 C2551 C 0.29148 0.11924 0.25663
 C2552 C 0.28471 0.12829 0.23348
 C2553 C 0.27921 0.15436 0.23154
 C2554 C 0.25770 0.16214 0.22052
 C2555 C 0.25129 0.18667 0.22216
 C2556 C 0.26654 0.20380 0.23448
 C2557 C 0.28893 0.19594 0.24355
 C2558 C 0.29512 0.17158 0.24220
 H2559 H 0.31853 0.06051 0.31243
 H2560 H 0.29459 0.09609 0.30268
 H2561 H 0.31237 0.08794 0.21979
 H2562 H 0.33642 0.05254 0.22975
 H2563 H 0.29064 0.13099 0.27385
 H2564 H 0.28313 0.11686 0.21618
 H2565 H 0.24532 0.14909 0.21193
 H2566 H 0.23398 0.19193 0.21471
 H2567 H 0.30127 0.20823 0.25324
 H2568 H 0.31208 0.16602 0.25034
 C2569 C 0.81037 0.56073 0.78240
 C2570 C 0.79827 0.58171 0.77544
 C2571 C 0.79709 0.58876 0.74896
 C2572 C 0.80691 0.57347 0.72930
 C2573 C 0.81916 0.55238 0.73635
 C2574 C 0.82179 0.54641 0.76303
 C2575 C 0.78881 0.61364 0.74338
 C2576 C 0.78104 0.62147 0.72009
 C2577 C 0.77593 0.64754 0.71668
 C2578 C 0.75347 0.65514 0.70790
 C2579 C 0.74741 0.67980 0.70910
 C2580 C 0.76390 0.69727 0.71875
 C2581 C 0.78714 0.68954 0.72528
 C2582 C 0.79300 0.66504 0.72440
 H2583 H 0.81193 0.55638 0.80312
 H2584 H 0.79082 0.59312 0.79095
 H2585 H 0.80666 0.57857 0.70872
 H2586 H 0.82806 0.54187 0.72110
 H2587 H 0.78964 0.62657 0.75955
 H2588 H 0.77778 0.60893 0.70403
 H2589 H 0.74013 0.64188 0.70166
 H2590 H 0.72940 0.68490 0.70370
 H2591 H 0.80037 0.70199 0.73317
 H2592 H 0.81060 0.65959 0.73093
 C2593 C 0.96049 0.73285 0.18289
 C2594 C 0.94042 0.72980 0.20005
 C2595 C 0.91732 0.73621 0.19189
 C2596 C 0.91435 0.74395 0.16579
 C2597 C 0.93418 0.74684 0.14877
 C2598 C 0.95756 0.74208 0.15733
 C2599 C 0.89614 0.73500 0.21021
 C2600 C 0.87984 0.75277 0.21005
 C2601 C 0.85497 0.75082 0.22111
 C2602 C 0.83736 0.76451 0.20885
 C2603 C 0.81313 0.76172 0.21590
 C2604 C 0.80565 0.74585 0.23623
 C2605 C 0.82348 0.73290 0.24953
 C2606 C 0.84795 0.73521 0.24191
 H2607 H 0.97832 0.72896 0.18996
 H2608 H 0.94303 0.72337 0.21994
 H2609 H 0.89661 0.74803 0.15858
 H2610 H 0.93123 0.75317 0.12891
 H2611 H 0.89336 0.71895 0.22224
 H2612 H 0.88387 0.76870 0.19809
 H2613 H 0.84220 0.77653 0.19262
 H2614 H 0.80033 0.77120 0.20426
 H2615 H 0.81851 0.72042 0.26526
 H2616 H 0.86117 0.72463 0.25206
 C2617 C 0.46312 0.22514 0.68963
 C2618 C 0.44494 0.22273 0.70925
 C2619 C 0.42106 0.22877 0.70376
 C2620 C 0.41535 0.23562 0.67801
 C2621 C 0.43328 0.23765 0.65846
 C2622 C 0.45753 0.23320 0.66416
 C2623 C 0.40186 0.22841 0.72453
 C2624 C 0.38745 0.24766 0.72732
 C2625 C 0.36322 0.24737 0.74033
 C2626 C 0.34695 0.26475 0.73185
 C2627 C 0.32268 0.26318 0.73907
 C2628 C 0.31385 0.24482 0.75618
 C2629 C 0.33058 0.22845 0.76647
 C2630 C 0.35504 0.22956 0.75844
 H2631 H 0.48160 0.22163 0.69474
 H2632 H 0.44965 0.21714 0.72892
 H2633 H 0.39691 0.23966 0.67309
 H2634 H 0.42815 0.24310 0.63888
 H2635 H 0.39850 0.21182 0.73548
 H2636 H 0.39224 0.26384 0.71605
 H2637 H 0.35264 0.27864 0.71783
 H2638 H 0.31069 0.27552 0.72952
 H2639 H 0.32455 0.21380 0.77933
 H2640 H 0.36719 0.21604 0.76572
 C2641 C 0.45131 0.77906 0.83614
 C2642 C 0.43258 0.77388 0.81887
 C2643 C 0.42626 0.74964 0.81287
 C2644 C 0.43948 0.73085 0.82413
 C2645 C 0.45836 0.73607 0.84123
 C2646 C 0.46417 0.76020 0.84781
 C2647 C 0.40445 0.74332 0.79764
 C2648 C 0.39410 0.75844 0.78060
 C2649 C 0.36962 0.75399 0.77004
 C2650 C 0.36277 0.76560 0.74675
 C2651 C 0.33878 0.76443 0.73846
 C2652 C 0.32104 0.75193 0.75359
 C2653 C 0.32822 0.73973 0.77647
 C2654 C 0.35209 0.74065 0.78450
 H2655 H 0.45557 0.79788 0.84060
 H2656 H 0.42249 0.78888 0.81119
 H2657 H 0.43481 0.71203 0.82014
 H2658 H 0.46776 0.72117 0.85012
 H2659 H 0.39629 0.72562 0.80131
 H2660 H 0.40335 0.77511 0.77482
 H2661 H 0.37587 0.77622 0.73537
 H2662 H 0.33400 0.77422 0.72089
 H2663 H 0.31520 0.73013 0.78895
 H2664 H 0.35632 0.73205 0.80296
 C2665 C 0.94430 0.28642 0.33103
 C2666 C 0.92727 0.28350 0.31139
 C2667 C 0.92413 0.26110 0.29873
 C2668 C 0.93925 0.24181 0.30529
 C2669 C 0.95680 0.24484 0.32465
 C2670 C 0.95928 0.26712 0.33833
 C2671 C 0.90436 0.25866 0.27957
 C2672 C 0.89121 0.23822 0.27678
 C2673 C 0.86737 0.23824 0.26402
 C2674 C 0.84844 0.22483 0.27580
 C2675 C 0.82483 0.22749 0.26741
 C2676 C 0.81956 0.24295 0.24621
 C2677 C 0.83890 0.25501 0.23311
 C2678 C 0.86256 0.25281 0.24202
 H2679 H 0.94601 0.30425 0.33990
 H2680 H 0.91606 0.29875 0.30651
 H2681 H 0.93751 0.22436 0.29555
 H2682 H 0.96744 0.22925 0.32959
 H2683 H 0.89816 0.27523 0.27058
 H2684 H 0.89584 0.22224 0.28793
 H2685 H 0.85166 0.21349 0.29277
 H2686 H 0.81059 0.21825 0.27853
 H2687 H 0.83568 0.26718 0.21685
 H2688 H 0.87694 0.26305 0.23221
 C2689 C 0.05049 0.29854 0.33499
 C2690 C 0.07167 0.29903 0.31958
 C2691 C 0.08254 0.27739 0.31128
 C2692 C 0.07127 0.25510 0.31804
 C2693 C 0.05007 0.25462 0.33362
 C2694 C 0.03977 0.27631 0.34290
 C2695 C 0.10679 0.27891 0.29838
 C2696 C 0.11681 0.26113 0.28387
 C2697 C 0.14252 0.26227 0.27510
 C2698 C 0.15001 0.25083 0.25158
 C2699 C 0.17449 0.25070 0.24394
 C2700 C 0.19202 0.26166 0.25995
 C2701 C 0.18434 0.27288 0.28362
 C2702 C 0.16000 0.27329 0.29100
 H2703 H 0.04275 0.31567 0.34104
 H2704 H 0.07991 0.31645 0.31463
 H2705 H 0.07935 0.23800 0.31250
 H2706 H 0.04247 0.23722 0.33930
 H2707 H 0.11705 0.29556 0.30145
 H2708 H 0.10617 0.24534 0.27836
 H2709 H 0.13690 0.24189 0.23918
 H2710 H 0.17967 0.24155 0.22583
 H2711 H 0.19715 0.28127 0.29677
 H2712 H 0.15505 0.28155 0.30971
 C2713 C 0.55485 0.79439 0.83369
 C2714 C 0.57464 0.79450 0.81618
 C2715 C 0.58563 0.77271 0.80858
 C2716 C 0.57600 0.75061 0.81835
 C2717 C 0.55628 0.75052 0.83609
 C2718 C 0.54581 0.77245 0.84438
 C2719 C 0.60870 0.77404 0.79335
 C2720 C 0.61765 0.75582 0.77869
 C2721 C 0.64274 0.75668 0.76801
 C2722 C 0.64866 0.74542 0.74389
 C2723 C 0.67266 0.74513 0.73451
 C2724 C 0.69123 0.75565 0.74942
 C2725 C 0.68511 0.76667 0.77371
 C2726 C 0.66126 0.76731 0.78277
 H2727 H 0.54690 0.81159 0.83914
 H2728 H 0.58175 0.81176 0.80901
 H2729 H 0.58441 0.73351 0.81346
 H2730 H 0.55002 0.73333 0.84424
 H2731 H 0.61910 0.79080 0.79488
 H2732 H 0.60668 0.73984 0.77473
 H2733 H 0.63470 0.73681 0.73235
 H2734 H 0.67667 0.73626 0.71588
 H2735 H 0.69877 0.77478 0.78602
 H2736 H 0.65747 0.77546 0.80184
 C2737 C 0.54710 0.26773 0.67730
 C2738 C 0.56709 0.26798 0.69366
 C2739 C 0.58001 0.24668 0.69790
 C2740 C 0.57146 0.22469 0.68699
 C2741 C 0.55133 0.22440 0.67078
 C2742 C 0.53940 0.24605 0.66514
 C2743 C 0.60307 0.24829 0.71222
 C2744 C 0.62195 0.23453 0.70535
 C2745 C 0.64673 0.23856 0.71499
 C2746 C 0.66592 0.23235 0.69807
 C2747 C 0.68967 0.23557 0.70577
 C2748 C 0.69508 0.24447 0.73109
 C2749 C 0.67581 0.25080 0.74817
 C2750 C 0.65181 0.24795 0.74018
 H2751 H 0.53791 0.28462 0.67378
 H2752 H 0.57311 0.28509 0.70207
 H2753 H 0.58057 0.20777 0.69053
 H2754 H 0.54579 0.20742 0.66176
 H2755 H 0.60551 0.26311 0.72606
 H2756 H 0.61993 0.22141 0.68955
 H2757 H 0.66253 0.22508 0.67858
 H2758 H 0.70376 0.23033 0.69188
 H2759 H 0.67923 0.25779 0.76772
 H2760 H 0.63733 0.25261 0.75385
 C2761 C 0.04999 0.72645 0.16898
 C2762 C 0.06907 0.72379 0.18629
 C2763 C 0.07872 0.74399 0.19967
 C2764 C 0.06821 0.76684 0.19610
 C2765 C 0.04918 0.76950 0.17871
 C2766 C 0.04029 0.74944 0.16446
 C2767 C 0.10160 0.74102 0.21392
 C2768 C 0.11097 0.75742 0.23067
 C2769 C 0.13656 0.75649 0.23858
 C2770 C 0.14379 0.76577 0.26308
 C2771 C 0.16829 0.76629 0.26971
 C2772 C 0.18599 0.75797 0.25169
 C2773 C 0.17850 0.74903 0.22706
 C2774 C 0.15426 0.74821 0.22068
 H2775 H 0.04369 0.71069 0.15814
 H2776 H 0.07695 0.70602 0.18846
 H2777 H 0.07532 0.78296 0.20559
 H2778 H 0.04180 0.78740 0.17595
 H2779 H 0.11195 0.72499 0.20907
 H2780 H 0.10024 0.77239 0.23791
 H2781 H 0.13048 0.77267 0.27703
 H2782 H 0.17335 0.77352 0.28871
 H2783 H 0.19136 0.74252 0.21241
 H2784 H 0.14955 0.74180 0.20123
   
