data_POSCAR
  _audit_creation_date              2014-09-24
  _audit_creation_method            'ToBaCCo'
  _symmetry_space_group_name_H-M    'P1'
  _symmetry_Int_Tables_number       1
  _symmetry_cell_setting            triclinic
  loop_
  _symmetry_equiv_pos_as_xyz
 x,y,z
_cell_length_a 55.4156
_cell_length_b 37.8956
_cell_length_c 39.1069
_cell_angle_alpha 89.927900
_cell_angle_beta 89.950000
_cell_angle_gamma 89.982100
loop_
  _atom_site_label
  _atom_site_type_symbol
  _atom_site_fract_x
  _atom_site_fract_y
  _atom_site_fract_z
C1 C 0.00113 -0.00042 0.11000
 C2 C 0.00063 -0.00014 -0.11379
 C3 C -0.05500 -0.05821 0.05067
 C4 C -0.05499 0.05748 0.05073
 C5 C -0.05513 -0.05825 -0.05342
 C6 C 0.05609 -0.05514 -0.05717
 C7 C 0.05607 0.05455 -0.05716
 C8 C 0.05614 -0.05495 0.05309
 C9 C -0.05509 0.05787 -0.05328
 C10 C 0.05617 0.05425 0.05307
 O11 O -0.03307 -0.06588 -0.06122
 O12 O -0.06182 -0.03417 -0.03213
 O13 O -0.03304 0.06550 -0.06110
 O14 O -0.06180 0.03370 -0.03205
 O15 O 0.03413 0.06194 0.06086
 O16 O 0.06279 0.03203 0.02992
 O17 O 0.00043 0.02992 -0.09855
 O18 O 0.00045 -0.03026 -0.09858
 O19 O 0.00088 0.02972 0.09483
 O20 O 0.00085 -0.03054 0.09485
 O21 O 0.03399 -0.06279 -0.06469
 O22 O 0.06273 -0.03277 -0.03419
 O23 O -0.03291 -0.06574 0.05834
 O24 O -0.06175 -0.03426 0.02921
 O25 O 0.03411 -0.06268 0.06087
 O26 O 0.06277 -0.03273 0.02993
 O27 O 0.03399 0.06226 -0.06467
 O28 O 0.06272 0.03213 -0.03419
 O29 O 0.00177 0.09861 0.04947
 O30 O 0.00134 0.09856 -0.05415
 O31 O 0.00133 -0.09907 -0.05414
 O32 O 0.00177 -0.09933 0.04957
 O33 O -0.02035 -0.04673 -0.00175
 O34 O -0.02034 0.04611 -0.00174
 O35 O 0.02103 -0.04646 -0.00195
 O36 O -0.02146 -0.00035 0.04383
 O37 O -0.06174 0.03359 0.02927
 O38 O -0.03289 0.06498 0.05837
 O39 O 0.02270 -0.00037 0.04381
 O40 O 0.02259 -0.00027 -0.04787
 O41 O 0.02105 0.04582 -0.00195
 O42 O -0.02163 -0.00024 -0.04728
 Zr43 Zr 0.00056 0.04342 0.04261
 Zr44 Zr 0.00043 -0.04401 -0.04634
 Zr45 Zr -0.04096 -0.00030 -0.00158
 Zr46 Zr 0.00054 -0.04414 0.04262
 Zr47 Zr 0.00043 0.04349 -0.04632
 Zr48 Zr 0.04188 -0.00033 -0.00209
 H49 H 0.03076 -0.06836 -0.00195
 H50 H -0.03220 -0.00038 0.06406
 H51 H 0.03078 0.06772 -0.00196
 H52 H -0.03248 -0.00020 -0.06737
 H53 H -0.00359 0.10884 0.02746
 H54 H 0.00188 0.10907 -0.03104
 H55 H -0.00347 -0.10955 0.02753
 H56 H 0.00162 -0.10962 -0.03101
 C57 C 0.25042 0.24982 0.13743
 C58 C 0.25012 0.24981 0.36123
 C59 C 0.19427 0.30790 0.19730
 C60 C 0.19434 0.19199 0.19710
 C61 C 0.19407 0.30755 0.30150
 C62 C 0.30525 0.30486 0.30427
 C63 C 0.30529 0.19478 0.30420
 C64 C 0.30537 0.30495 0.19477
 C65 C 0.19420 0.19173 0.30108
 C66 C 0.30553 0.19475 0.19466
 O67 O 0.21614 0.31507 0.30929
 O68 O 0.18740 0.28367 0.27998
 O69 O 0.21626 0.18411 0.30881
 O70 O 0.18747 0.21584 0.27981
 O71 O 0.28348 0.18715 0.18685
 O72 O 0.31211 0.21727 0.21754
 O73 O 0.24986 0.21972 0.34606
 O74 O 0.24988 0.27995 0.34606
 O75 O 0.25020 0.21971 0.15265
 O76 O 0.25010 0.27990 0.15264
 O77 O 0.28318 0.31246 0.31199
 O78 O 0.31194 0.28237 0.28140
 O79 O 0.21636 0.31551 0.18968
 O80 O 0.18750 0.28379 0.21857
 O81 O 0.28335 0.31260 0.18699
 O82 O 0.31203 0.28238 0.21758
 O83 O 0.28324 0.18709 0.31188
 O84 O 0.31198 0.21733 0.28138
 O85 O 0.25097 0.15093 0.19775
 O86 O 0.25058 0.15100 0.30175
 O87 O 0.25070 0.34873 0.30083
 O88 O 0.25063 0.34864 0.19693
 O89 O 0.22889 0.29625 0.24930
 O90 O 0.22895 0.20343 0.24931
 O91 O 0.27023 0.29593 0.24938
 O92 O 0.22779 0.24983 0.20372
 O93 O 0.18755 0.21592 0.21851
 O94 O 0.21643 0.18447 0.18940
 O95 O 0.27201 0.24986 0.20349
 O96 O 0.27186 0.24982 0.29526
 O97 O 0.27030 0.20370 0.24940
 O98 O 0.22764 0.24978 0.29487
 Zr99 Zr 0.24987 0.20608 0.20488
 Zr100 Zr 0.24965 0.29356 0.29382
 Zr101 Zr 0.20830 0.24983 0.24926
 Zr102 Zr 0.24978 0.29358 0.20486
 Zr103 Zr 0.24971 0.20606 0.29383
 Zr104 Zr 0.29114 0.24982 0.24942
 H105 H 0.27990 0.31788 0.24942
 H106 H 0.21704 0.24990 0.18353
 H107 H 0.27999 0.18176 0.24940
 H108 H 0.21684 0.24969 0.31503
 H109 H 0.24626 0.14060 0.22001
 H110 H 0.25039 0.14044 0.27864
 H111 H 0.25057 0.35920 0.22004
 H112 H 0.24580 0.35901 0.27864
 C113 C 0.50004 -0.00145 0.11177
 C114 C 0.49988 -0.00179 -0.11139
 C115 C 0.55642 0.05583 0.05248
 C116 C 0.55640 -0.05914 0.05287
 C117 C 0.55639 0.05598 -0.05264
 C118 C 0.44508 0.05350 -0.05444
 C119 C 0.44506 -0.05669 -0.05423
 C120 C 0.44521 0.05370 0.05515
 C121 C 0.55630 -0.05947 -0.05234
 C122 C 0.44505 -0.05675 0.05556
 O123 O 0.53425 0.06362 -0.06007
 O124 O 0.56309 0.03210 -0.03103
 O125 O 0.53417 -0.06711 -0.05971
 O126 O 0.56304 -0.03559 -0.03085
 O127 O 0.46717 -0.06434 0.06314
 O128 O 0.43844 -0.03418 0.03264
 O129 O 0.50022 -0.03189 -0.09622
 O130 O 0.50024 0.02835 -0.09637
 O131 O 0.50034 -0.03162 0.09679
 O132 O 0.50039 0.02865 0.09659
 O133 O 0.46714 0.06112 -0.06222
 O134 O 0.43843 0.03095 -0.03156
 O135 O 0.53434 0.06341 0.06025
 O136 O 0.56312 0.03213 0.03078
 O137 O 0.46730 0.06130 0.06273
 O138 O 0.43851 0.03108 0.03242
 O139 O 0.46711 -0.06442 -0.06194
 O140 O 0.43841 -0.03412 -0.03143
 O141 O 0.49975 -0.10062 0.05168
 O142 O 0.50002 -0.10060 -0.05156
 O143 O 0.50011 0.09719 -0.05207
 O144 O 0.49985 0.09744 0.05114
 O145 O 0.52171 0.04480 0.00001
 O146 O 0.52165 -0.04814 0.00028
 O147 O 0.48020 0.04449 0.00016
 O148 O 0.52277 -0.00163 0.04554
 O149 O 0.56307 -0.03552 0.03099
 O150 O 0.53429 -0.06661 0.06064
 O151 O 0.47863 -0.00156 0.04611
 O152 O 0.47855 -0.00167 -0.04546
 O153 O 0.48015 -0.04777 0.00042
 O154 O 0.52274 -0.00173 -0.04538
 Zr155 Zr 0.50075 -0.04542 0.04473
 Zr156 Zr 0.50075 0.04210 -0.04429
 Zr157 Zr 0.54229 -0.00170 0.00004
 Zr158 Zr 0.50081 0.04222 0.04446
 Zr159 Zr 0.50071 -0.04549 -0.04406
 Zr160 Zr 0.45929 -0.00161 0.00043
 H161 H 0.47054 0.06645 0.00019
 H162 H 0.53348 -0.00160 0.06576
 H163 H 0.47045 -0.06969 0.00055
 H164 H 0.53344 -0.00176 -0.06565
 H165 H 0.50551 -0.11080 0.02988
 H166 H 0.49910 -0.11101 -0.02840
 H167 H 0.50558 0.10755 0.02926
 H168 H 0.49914 0.10766 -0.02898
 C169 C 0.75126 0.24939 0.13894
 C170 C 0.75087 0.24885 0.36209
 C171 C 0.69488 0.30670 0.19781
 C172 C 0.69505 0.19163 0.19775
 C173 C 0.69478 0.30665 0.30278
 C174 C 0.80596 0.30387 0.30564
 C175 C 0.80617 0.19423 0.30562
 C176 C 0.80604 0.30401 0.19542
 C177 C 0.69498 0.19119 0.30250
 C178 C 0.80622 0.19461 0.19523
 O179 O 0.71686 0.31435 0.31037
 O180 O 0.68810 0.28279 0.28124
 O181 O 0.71705 0.18347 0.31009
 O182 O 0.68823 0.21515 0.28108
 O183 O 0.78417 0.18690 0.18757
 O184 O 0.81284 0.21684 0.21836
 O185 O 0.75067 0.21876 0.34696
 O186 O 0.75059 0.27900 0.34702
 O187 O 0.75100 0.21922 0.15398
 O188 O 0.75092 0.27949 0.15405
 O189 O 0.78388 0.31156 0.31322
 O190 O 0.81270 0.28155 0.28266
 O191 O 0.71698 0.31430 0.19014
 O192 O 0.68817 0.28294 0.21951
 O193 O 0.78399 0.31171 0.18777
 O194 O 0.81273 0.28169 0.21846
 O195 O 0.78408 0.18648 0.31313
 O196 O 0.81280 0.21668 0.28263
 O197 O 0.75178 0.15019 0.19936
 O198 O 0.75131 0.15011 0.30242
 O199 O 0.75108 0.34789 0.30258
 O200 O 0.75158 0.34829 0.19957
 O201 O 0.72950 0.29560 0.25050
 O202 O 0.72964 0.20265 0.25040
 O203 O 0.77103 0.29528 0.25056
 O204 O 0.72856 0.24919 0.20500
 O205 O 0.68827 0.21529 0.21946
 O206 O 0.71715 0.18412 0.19007
 O207 O 0.77266 0.24927 0.20481
 O208 O 0.77258 0.24905 0.29630
 O209 O 0.77116 0.20295 0.25045
 O210 O 0.72842 0.24897 0.29591
 Zr211 Zr 0.75059 0.20540 0.20607
 Zr212 Zr 0.75037 0.29280 0.29491
 Zr213 Zr 0.70899 0.24909 0.25038
 Zr214 Zr 0.75047 0.29304 0.20617
 Zr215 Zr 0.75051 0.20522 0.29481
 Zr216 Zr 0.79193 0.24915 0.25054
 H217 H 0.78073 0.31720 0.25054
 H218 H 0.71786 0.24922 0.18476
 H219 H 0.78091 0.18108 0.25040
 H220 H 0.71764 0.24890 0.31609
 H221 H 0.74582 0.14003 0.22109
 H222 H 0.75262 0.13972 0.27932
 H223 H 0.74551 0.35834 0.22128
 H224 H 0.75228 0.35837 0.27949
 C225 C 0.00015 0.50036 0.11123
 C226 C 0.00003 0.50048 -0.11256
 C227 C -0.05580 0.44244 0.05164
 C228 C -0.05590 0.55819 0.05155
 C229 C -0.05588 0.44232 -0.05244
 C230 C 0.05528 0.44579 -0.05559
 C231 C 0.05518 0.55520 -0.05571
 C232 C 0.05530 0.44576 0.05453
 C233 C -0.05593 0.55843 -0.05243
 C234 C 0.05527 0.55529 0.05447
 O235 O -0.03379 0.43475 -0.06011
 O236 O -0.06262 0.46641 -0.03116
 O237 O -0.03386 0.56608 -0.06012
 O238 O -0.06265 0.53429 -0.03116
 O239 O 0.03320 0.56294 0.06216
 O240 O 0.06192 0.53297 0.03142
 O241 O -0.00024 0.53056 -0.09734
 O242 O -0.00018 0.47038 -0.09731
 O243 O -0.00012 0.53050 0.09606
 O244 O -0.00010 0.47025 0.09609
 O245 O 0.03324 0.43805 -0.06324
 O246 O 0.06193 0.46812 -0.03261
 O247 O -0.03372 0.43496 0.05939
 O248 O -0.06257 0.46638 0.03020
 O249 O 0.03326 0.43801 0.06222
 O250 O 0.06194 0.46809 0.03145
 O251 O 0.03314 0.56292 -0.06335
 O252 O 0.06187 0.53290 -0.03267
 O253 O 0.00078 0.59936 0.05086
 O254 O 0.00050 0.59925 -0.05293
 O255 O 0.00065 0.40163 -0.05276
 O256 O 0.00095 0.40148 0.05102
 O257 O -0.02115 0.45397 -0.00053
 O258 O -0.02121 0.54680 -0.00059
 O259 O 0.02023 0.45432 -0.00060
 O260 O -0.02235 0.50039 0.04496
 O261 O -0.06262 0.53425 0.03015
 O262 O -0.03383 0.56574 0.05930
 O263 O 0.02182 0.50044 0.04523
 O264 O 0.02180 0.50047 -0.04645
 O265 O 0.02017 0.54661 -0.00066
 O266 O -0.02242 0.50041 -0.04616
 Zr267 Zr -0.00035 0.54419 0.04384
 Zr268 Zr -0.00034 0.45669 -0.04505
 Zr269 Zr -0.04180 0.50035 -0.00054
 Zr270 Zr -0.00030 0.45664 0.04389
 Zr271 Zr -0.00040 0.54418 -0.04510
 Zr272 Zr 0.04104 0.50050 -0.00060
 H273 H 0.02997 0.43243 -0.00055
 H274 H -0.03312 0.50035 0.06515
 H275 H 0.02987 0.56853 -0.00065
 H276 H -0.03322 0.50041 -0.06630
 H277 H -0.00424 0.60965 0.02873
 H278 H 0.00044 0.60977 -0.02981
 H279 H -0.00403 0.39117 0.02891
 H280 H 0.00050 0.39110 -0.02962
 C281 C 0.25081 0.75072 0.13811
 C282 C 0.25052 0.75107 0.36129
 C283 C 0.19473 0.80892 0.19745
 C284 C 0.19443 0.69325 0.19740
 C285 C 0.19449 0.80908 0.30149
 C286 C 0.30563 0.80590 0.30432
 C287 C 0.30556 0.69573 0.30452
 C288 C 0.30596 0.80590 0.19466
 C289 C 0.19438 0.69308 0.30182
 C290 C 0.30558 0.69566 0.19499
 O291 O 0.21658 0.81667 0.30910
 O292 O 0.18775 0.78499 0.28025
 O293 O 0.21646 0.68544 0.30946
 O294 O 0.18767 0.71713 0.28043
 O295 O 0.28352 0.68806 0.18729
 O296 O 0.31228 0.71819 0.21776
 O297 O 0.25022 0.72093 0.34627
 O298 O 0.25027 0.78116 0.34611
 O299 O 0.25043 0.72061 0.15326
 O300 O 0.25057 0.78087 0.15310
 O301 O 0.28358 0.81363 0.31196
 O302 O 0.31233 0.78333 0.28156
 O303 O 0.21682 0.81639 0.18971
 O304 O 0.18790 0.78500 0.21887
 O305 O 0.28389 0.81357 0.18695
 O306 O 0.31252 0.78333 0.21760
 O307 O 0.28349 0.68814 0.31222
 O308 O 0.31228 0.71826 0.28167
 O309 O 0.25104 0.65188 0.19855
 O310 O 0.25070 0.65213 0.30210
 O311 O 0.25096 0.84981 0.30161
 O312 O 0.25138 0.84978 0.19761
 O313 O 0.22926 0.79738 0.24950
 O314 O 0.22910 0.70449 0.24977
 O315 O 0.27070 0.79705 0.24957
 O316 O 0.22811 0.75097 0.20417
 O317 O 0.18771 0.71716 0.21888
 O318 O 0.21652 0.68567 0.18970
 O319 O 0.27229 0.75078 0.20385
 O320 O 0.27217 0.75092 0.29548
 O321 O 0.27055 0.70478 0.24978
 O322 O 0.22796 0.75102 0.29519
 Zr323 Zr 0.25001 0.70708 0.20539
 Zr324 Zr 0.25004 0.79474 0.29395
 Zr325 Zr 0.20856 0.75099 0.24964
 Zr326 Zr 0.25024 0.79467 0.20515
 Zr327 Zr 0.24995 0.70719 0.29417
 Zr328 Zr 0.29150 0.75086 0.24965
 H329 H 0.28039 0.81898 0.24949
 H330 H 0.21737 0.75099 0.18397
 H331 H 0.28020 0.68280 0.24980
 H332 H 0.21716 0.75107 0.31536
 H333 H 0.24569 0.64169 0.22058
 H334 H 0.25119 0.64158 0.27901
 H335 H 0.24702 0.86025 0.21992
 H336 H 0.24984 0.86033 0.27853
 C337 C 0.49914 0.50018 0.11173
 C338 C 0.49946 0.49987 -0.11144
 C339 C 0.55551 0.55764 0.05257
 C340 C 0.55557 0.44255 0.05298
 C341 C 0.55556 0.55763 -0.05210
 C342 C 0.44443 0.55517 -0.05478
 C343 C 0.44443 0.44483 -0.05446
 C344 C 0.44439 0.55516 0.05477
 C345 C 0.55553 0.44219 -0.05175
 C346 C 0.44443 0.44516 0.05502
 O347 O 0.53350 0.56535 -0.05972
 O348 O 0.56229 0.53374 -0.03059
 O349 O 0.53347 0.43449 -0.05934
 O350 O 0.56228 0.46613 -0.03039
 O351 O 0.46646 0.43750 0.06281
 O352 O 0.43777 0.46763 0.03211
 O353 O 0.49974 0.46978 -0.09626
 O354 O 0.49974 0.53001 -0.09643
 O355 O 0.49948 0.47003 0.09672
 O356 O 0.49947 0.53029 0.09657
 O357 O 0.46650 0.56282 -0.06244
 O358 O 0.43774 0.53260 -0.03195
 O359 O 0.53342 0.56524 0.06023
 O360 O 0.56226 0.53386 0.03098
 O361 O 0.46643 0.56280 0.06251
 O362 O 0.43774 0.53264 0.03195
 O363 O 0.46649 0.43713 -0.06208
 O364 O 0.43774 0.46749 -0.03176
 O365 O 0.49897 0.40110 0.05166
 O366 O 0.49931 0.40111 -0.05175
 O367 O 0.49934 0.59882 -0.05227
 O368 O 0.49893 0.59910 0.05125
 O369 O 0.52090 0.54649 0.00006
 O370 O 0.52091 0.45354 0.00030
 O371 O 0.47945 0.54621 0.00002
 O372 O 0.52196 0.50010 0.04569
 O373 O 0.56230 0.46625 0.03122
 O374 O 0.53348 0.43500 0.06068
 O375 O 0.47783 0.50011 0.04587
 O376 O 0.47787 0.49999 -0.04574
 O377 O 0.47945 0.45392 0.00027
 O378 O 0.52205 0.49996 -0.04529
 Zr379 Zr 0.50000 0.45630 0.04465
 Zr380 Zr 0.50003 0.54376 -0.04435
 Zr381 Zr 0.54147 0.50000 0.00026
 Zr382 Zr 0.49997 0.54390 0.04442
 Zr383 Zr 0.50003 0.45620 -0.04411
 Zr384 Zr 0.45860 0.50008 0.00007
 H385 H 0.46977 0.56817 -0.00002
 H386 H 0.53265 0.50012 0.06593
 H387 H 0.46978 0.43198 0.00034
 H388 H 0.53281 0.49991 -0.06549
 H389 H 0.50456 0.39090 0.02978
 H390 H 0.49857 0.39063 -0.02861
 H391 H 0.50435 0.60928 0.02925
 H392 H 0.49878 0.60937 -0.02918
 C393 C 0.75056 0.75035 0.13817
 C394 C 0.75026 0.75118 0.36131
 C395 C 0.69422 0.80808 0.19674
 C396 C 0.69427 0.69307 0.19742
 C397 C 0.69422 0.80868 0.30168
 C398 C 0.80534 0.80564 0.30454
 C399 C 0.80538 0.69605 0.30503
 C400 C 0.80543 0.80524 0.19426
 C401 C 0.69419 0.69321 0.30223
 C402 C 0.80538 0.69585 0.19478
 O403 O 0.71630 0.81641 0.30920
 O404 O 0.68748 0.78471 0.28032
 O405 O 0.71628 0.68553 0.30983
 O406 O 0.68747 0.71706 0.28065
 O407 O 0.78333 0.68811 0.18719
 O408 O 0.81205 0.71820 0.21775
 O409 O 0.75000 0.72100 0.34637
 O410 O 0.74999 0.78123 0.34606
 O411 O 0.75023 0.72027 0.15339
 O412 O 0.75026 0.78055 0.15310
 O413 O 0.78328 0.81346 0.31207
 O414 O 0.81204 0.78320 0.28167
 O415 O 0.71632 0.81560 0.18900
 O416 O 0.68750 0.78449 0.21860
 O417 O 0.78338 0.81294 0.18658
 O418 O 0.81208 0.78302 0.21745
 O419 O 0.78331 0.68836 0.31266
 O420 O 0.81207 0.71836 0.28195
 O421 O 0.75094 0.65155 0.19910
 O422 O 0.75050 0.65204 0.30221
 O423 O 0.75051 0.84982 0.30124
 O424 O 0.75094 0.84964 0.19826
 O425 O 0.72886 0.79725 0.24948
 O426 O 0.72887 0.70430 0.24993
 O427 O 0.77039 0.79690 0.24949
 O428 O 0.72784 0.75061 0.20426
 O429 O 0.68752 0.71685 0.21899
 O430 O 0.71636 0.68547 0.18974
 O431 O 0.77193 0.75059 0.20401
 O432 O 0.77189 0.75089 0.29551
 O433 O 0.77038 0.70457 0.24994
 O434 O 0.72774 0.75092 0.29518
 Zr435 Zr 0.74981 0.70679 0.20557
 Zr436 Zr 0.74975 0.79469 0.29387
 Zr437 Zr 0.70829 0.75078 0.24967
 Zr438 Zr 0.74981 0.79443 0.20513
 Zr439 Zr 0.74975 0.70711 0.29431
 Zr440 Zr 0.79122 0.75072 0.24973
 H441 H 0.78012 0.81879 0.24936
 H442 H 0.71714 0.75053 0.18403
 H443 H 0.78010 0.68266 0.24999
 H444 H 0.71697 0.75100 0.31537
 H445 H 0.74505 0.64149 0.22091
 H446 H 0.75165 0.64151 0.27915
 H447 H 0.74485 0.85981 0.21990
 H448 H 0.75178 0.86017 0.27809
 C449 C 0.00018 0.00080 0.38782
 C450 C -0.00023 0.00093 0.61156
 C451 C -0.05607 0.05862 0.44714
 C452 C -0.05592 -0.05706 0.44756
 C453 C -0.05612 0.05889 0.55137
 C454 C 0.05502 0.05564 0.55476
 C455 C 0.05505 -0.05380 0.55492
 C456 C 0.05508 0.05547 0.44448
 C457 C -0.05609 -0.05711 0.55154
 C458 C 0.05522 -0.05379 0.44467
 O459 O -0.03406 0.06653 0.55907
 O460 O -0.06282 0.03481 0.53011
 O461 O -0.03402 -0.06474 0.55926
 O462 O -0.06280 -0.03303 0.53023
 O463 O 0.03318 -0.06152 0.43698
 O464 O 0.06182 -0.03151 0.46775
 O465 O -0.00047 -0.02918 0.59642
 O466 O -0.00049 0.03104 0.59633
 O467 O -0.00009 -0.02931 0.40304
 O468 O -0.00014 0.03095 0.40291
 O469 O 0.03296 0.06339 0.56233
 O470 O 0.06171 0.03330 0.53177
 O471 O -0.03398 0.06613 0.43938
 O472 O -0.06279 0.03474 0.46870
 O473 O 0.03305 0.06319 0.43675
 O474 O 0.06173 0.03326 0.46764
 O475 O 0.03299 -0.06155 0.56253
 O476 O 0.06173 -0.03148 0.53187
 O477 O 0.00083 -0.09810 0.44834
 O478 O 0.00036 -0.09792 0.55207
 O479 O 0.00030 0.09975 0.55169
 O480 O 0.00067 0.09982 0.44811
 O481 O -0.02138 0.04732 0.49955
 O482 O -0.02132 -0.04553 0.49970
 O483 O 0.02001 0.04702 0.49961
 O484 O -0.02247 0.00083 0.45406
 O485 O -0.06270 -0.03311 0.46893
 O486 O -0.03383 -0.06456 0.43982
 O487 O 0.02169 0.00088 0.45391
 O488 O 0.02158 0.00091 0.54557
 O489 O 0.02007 -0.04528 0.49979
 O490 O -0.02262 0.00090 0.54518
 Zr491 Zr -0.00040 -0.04292 0.45529
 Zr492 Zr -0.00059 0.04467 0.54406
 Zr493 Zr -0.04196 0.00088 0.49955
 Zr494 Zr -0.00050 0.04463 0.45512
 Zr495 Zr -0.00056 -0.04285 0.54421
 Zr496 Zr 0.04088 0.00089 0.49975
 H497 H 0.02973 0.06893 0.49956
 H498 H -0.03321 0.00079 0.43386
 H499 H 0.02981 -0.06717 0.49981
 H500 H -0.03344 0.00091 0.56532
 H501 H -0.00429 -0.10838 0.47045
 H502 H 0.00048 -0.10844 0.52895
 H503 H -0.00473 0.11006 0.47007
 H504 H 0.00067 0.11023 0.52854
 C505 C 0.25017 0.24903 0.86295
 C506 C 0.25032 0.24910 0.63919
 C507 C 0.19412 0.19107 0.80305
 C508 C 0.19424 0.30720 0.80281
 C509 C 0.19416 0.19138 0.69888
 C510 C 0.30529 0.19406 0.69626
 C511 C 0.30540 0.30403 0.69618
 C512 C 0.30533 0.19378 0.80584
 C513 C 0.19424 0.30706 0.69890
 C514 C 0.30537 0.30408 0.80574
 O515 O 0.21624 0.18381 0.69113
 O516 O 0.18744 0.21528 0.72036
 O517 O 0.21633 0.31454 0.69112
 O518 O 0.18749 0.28310 0.72036
 O519 O 0.28332 0.31176 0.81345
 O520 O 0.31203 0.28150 0.78296
 O521 O 0.25007 0.27922 0.65433
 O522 O 0.25003 0.21897 0.65438
 O523 O 0.24993 0.27913 0.84774
 O524 O 0.24991 0.21891 0.84782
 O525 O 0.28325 0.18645 0.68851
 O526 O 0.31196 0.21648 0.71915
 O527 O 0.21619 0.18343 0.81074
 O528 O 0.18742 0.21519 0.78175
 O529 O 0.28326 0.18616 0.81357
 O530 O 0.31199 0.21637 0.78301
 O531 O 0.28336 0.31168 0.68841
 O532 O 0.31203 0.28152 0.71910
 O533 O 0.25064 0.34783 0.80333
 O534 O 0.25091 0.34800 0.69933
 O535 O 0.25079 0.15016 0.69955
 O536 O 0.25050 0.15020 0.80348
 O537 O 0.22887 0.20265 0.75112
 O538 O 0.22894 0.29548 0.75103
 O539 O 0.27022 0.20292 0.75111
 O540 O 0.22766 0.24906 0.79666
 O541 O 0.18749 0.28308 0.78163
 O542 O 0.21631 0.31477 0.81049
 O543 O 0.27190 0.24898 0.79700
 O544 O 0.27193 0.24904 0.70523
 O545 O 0.27029 0.29515 0.75103
 O546 O 0.22773 0.24912 0.70551
 Zr547 Zr 0.24975 0.29278 0.79551
 Zr548 Zr 0.24971 0.20532 0.70664
 Zr549 Zr 0.20828 0.24910 0.75106
 Zr550 Zr 0.24969 0.20526 0.79561
 Zr551 Zr 0.24979 0.29284 0.70655
 Zr552 Zr 0.29113 0.24900 0.75110
 H553 H 0.27989 0.18096 0.75109
 H554 H 0.21686 0.24909 0.81682
 H555 H 0.27998 0.31708 0.75098
 H556 H 0.21697 0.24916 0.68533
 H557 H 0.25042 0.35840 0.78021
 H558 H 0.24623 0.35832 0.72158
 H559 H 0.25033 0.13966 0.78037
 H560 H 0.24592 0.13986 0.72176
 C561 C 0.49924 0.00065 0.38845
 C562 C 0.49909 0.00009 0.61163
 C563 C 0.55540 -0.05703 0.44750
 C564 C 0.55547 0.05793 0.44770
 C565 C 0.55524 -0.05750 0.55216
 C566 C 0.44417 -0.05463 0.55456
 C567 C 0.44423 0.05539 0.55474
 C568 C 0.44432 -0.05437 0.44507
 C569 C 0.55533 0.05783 0.55237
 C570 C 0.44438 0.05564 0.44516
 O571 O 0.53316 -0.06523 0.55970
 O572 O 0.56202 -0.03356 0.53075
 O573 O 0.53326 0.06560 0.55992
 O574 O 0.56207 0.03398 0.53088
 O575 O 0.46644 0.06330 0.43748
 O576 O 0.43768 0.03310 0.46800
 O577 O 0.49941 0.03026 0.59658
 O578 O 0.49937 -0.02998 0.59647
 O579 O 0.49955 0.03076 0.40354
 O580 O 0.49951 -0.02950 0.40351
 O581 O 0.46619 -0.06241 0.56227
 O582 O 0.43754 -0.03201 0.53178
 O583 O 0.53334 -0.06459 0.43976
 O584 O 0.56211 -0.03338 0.46921
 O585 O 0.46637 -0.06206 0.43736
 O586 O 0.43764 -0.03190 0.46793
 O587 O 0.46627 0.06304 0.56246
 O588 O 0.43758 0.03293 0.53188
 O589 O 0.49893 0.09952 0.44870
 O590 O 0.49909 0.09913 0.55229
 O591 O 0.49897 -0.09857 0.55204
 O592 O 0.49882 -0.09845 0.44857
 O593 O 0.52071 -0.04611 0.49997
 O594 O 0.52076 0.04686 0.50008
 O595 O 0.47926 -0.04570 0.49992
 O596 O 0.52186 0.00049 0.45455
 O597 O 0.56215 0.03414 0.46934
 O598 O 0.53342 0.06561 0.43995
 O599 O 0.47776 0.00057 0.45419
 O600 O 0.47764 0.00034 0.54581
 O601 O 0.47932 0.04661 0.50004
 O602 O 0.52179 0.00025 0.54554
 Zr603 Zr 0.49992 0.04432 0.45567
 Zr604 Zr 0.49976 -0.04348 0.54433
 Zr605 Zr 0.54127 0.00034 0.50004
 Zr606 Zr 0.49987 -0.04328 0.45559
 Zr607 Zr 0.49982 0.04408 0.54446
 Zr608 Zr 0.45847 0.00050 0.49994
 H609 H 0.46957 -0.06763 0.49985
 H610 H 0.53261 0.00052 0.43434
 H611 H 0.46966 0.06858 0.50002
 H612 H 0.53251 0.00017 0.56576
 H613 H 0.50423 0.10971 0.47072
 H614 H 0.49882 0.10970 0.52917
 H615 H 0.50425 -0.10873 0.47051
 H616 H 0.49842 -0.10902 0.52891
 C617 C 0.75017 0.24931 0.86225
 C618 C 0.74976 0.24889 0.63911
 C619 C 0.69376 0.19160 0.80391
 C620 C 0.69384 0.30670 0.80315
 C621 C 0.69378 0.19122 0.69886
 C622 C 0.80487 0.19451 0.69556
 C623 C 0.80480 0.30402 0.69529
 C624 C 0.80495 0.19468 0.80577
 C625 C 0.69362 0.30658 0.69850
 C626 C 0.80494 0.30407 0.80552
 O627 O 0.71585 0.18354 0.69123
 O628 O 0.68702 0.21510 0.72032
 O629 O 0.71568 0.31434 0.69085
 O630 O 0.68693 0.28270 0.72007
 O631 O 0.78288 0.31176 0.81321
 O632 O 0.81159 0.28174 0.78249
 O633 O 0.74947 0.27904 0.65411
 O634 O 0.74949 0.21880 0.65431
 O635 O 0.74981 0.27942 0.84707
 O636 O 0.74985 0.21914 0.84728
 O637 O 0.78282 0.18662 0.68812
 O638 O 0.81155 0.21690 0.71846
 O639 O 0.71588 0.18412 0.81154
 O640 O 0.68702 0.21523 0.78208
 O641 O 0.78292 0.18690 0.81355
 O642 O 0.81157 0.21694 0.78263
 O643 O 0.78271 0.31169 0.68775
 O644 O 0.81151 0.28168 0.71831
 O645 O 0.75042 0.34822 0.80164
 O646 O 0.74984 0.34793 0.69835
 O647 O 0.75012 0.15015 0.69904
 O648 O 0.75054 0.15015 0.80198
 O649 O 0.72840 0.20256 0.75095
 O650 O 0.72835 0.29551 0.75066
 O651 O 0.76992 0.20304 0.75079
 O652 O 0.72737 0.24918 0.79627
 O653 O 0.68706 0.28290 0.78165
 O654 O 0.71590 0.31432 0.81076
 O655 O 0.77147 0.24922 0.79633
 O656 O 0.77137 0.24910 0.70483
 O657 O 0.76986 0.29539 0.75048
 O658 O 0.72722 0.24900 0.70534
 Zr659 Zr 0.74935 0.29301 0.79493
 Zr660 Zr 0.74928 0.20526 0.70649
 Zr661 Zr 0.70780 0.24899 0.75093
 Zr662 Zr 0.74935 0.20537 0.79523
 Zr663 Zr 0.74919 0.29285 0.70619
 Zr664 Zr 0.79070 0.24927 0.75053
 H665 H 0.77968 0.18116 0.75083
 H666 H 0.71668 0.24922 0.81654
 H667 H 0.77955 0.31731 0.75043
 H668 H 0.71646 0.24893 0.68518
 H669 H 0.74475 0.35837 0.77976
 H670 H 0.75079 0.35843 0.72143
 H671 H 0.74439 0.14002 0.78038
 H672 H 0.75139 0.13977 0.72217
 C673 C 0.00038 0.49999 0.38895
 C674 C 0.00014 0.50021 0.61269
 C675 C -0.05570 0.55790 0.44837
 C676 C -0.05565 0.44216 0.44873
 C677 C -0.05574 0.55825 0.55248
 C678 C 0.05540 0.55486 0.55567
 C679 C 0.05543 0.44533 0.55592
 C680 C 0.05549 0.55479 0.44545
 C681 C -0.05577 0.44211 0.55284
 C682 C 0.05549 0.44528 0.44566
 O683 O -0.03367 0.56585 0.56013
 O684 O -0.06247 0.53411 0.53129
 O685 O -0.03369 0.43450 0.56051
 O686 O -0.06249 0.46619 0.53150
 O687 O 0.03343 0.43759 0.43804
 O688 O 0.06214 0.46759 0.46870
 O689 O -0.00008 0.47008 0.59758
 O690 O -0.00010 0.53030 0.59743
 O691 O 0.00012 0.46988 0.40416
 O692 O 0.00012 0.53014 0.40403
 O693 O 0.03335 0.56259 0.56330
 O694 O 0.06209 0.53250 0.53271
 O695 O -0.03361 0.56538 0.44059
 O696 O -0.06244 0.53400 0.46991
 O697 O 0.03343 0.56247 0.43777
 O698 O 0.06213 0.53250 0.46857
 O699 O 0.03337 0.43764 0.56360
 O700 O 0.06211 0.46764 0.53285
 O701 O 0.00109 0.40109 0.44949
 O702 O 0.00071 0.40130 0.55321
 O703 O 0.00070 0.59895 0.55278
 O704 O 0.00105 0.59902 0.44919
 O705 O -0.02102 0.54650 0.50066
 O706 O -0.02101 0.45368 0.50087
 O707 O 0.02039 0.54620 0.50066
 O708 O -0.02215 0.50005 0.45524
 O709 O -0.06241 0.46611 0.47012
 O710 O -0.03357 0.43465 0.44098
 O711 O 0.02202 0.50004 0.45494
 O712 O 0.02196 0.50011 0.54660
 O713 O 0.02040 0.45394 0.50088
 O714 O -0.02227 0.50013 0.54634
 Zr715 Zr -0.00012 0.45627 0.45641
 Zr716 Zr -0.00021 0.54387 0.54514
 Zr717 Zr -0.04164 0.50010 0.50074
 Zr718 Zr -0.00013 0.54383 0.45621
 Zr719 Zr -0.00021 0.45637 0.54535
 Zr720 Zr 0.04126 0.50006 0.50074
 H721 H 0.03011 0.56810 0.50058
 H722 H -0.03291 0.50002 0.43506
 H723 H 0.03012 0.43203 0.50088
 H724 H -0.03308 0.50017 0.56649
 H725 H -0.00404 0.39083 0.47160
 H726 H 0.00076 0.39078 0.53009
 H727 H -0.00429 0.60926 0.47118
 H728 H 0.00113 0.60943 0.52963
 C729 C 0.25027 0.75066 0.86148
 C730 C 0.25021 0.75112 0.63829
 C731 C 0.19411 0.69289 0.80187
 C732 C 0.19404 0.80864 0.80230
 C733 C 0.19409 0.69303 0.69805
 C734 C 0.30524 0.69574 0.69511
 C735 C 0.30522 0.80590 0.69525
 C736 C 0.30522 0.69554 0.80466
 C737 C 0.19412 0.80906 0.69808
 C738 C 0.30522 0.80563 0.80482
 O739 O 0.21617 0.68539 0.69038
 O740 O 0.18734 0.71711 0.71930
 O741 O 0.21620 0.81667 0.69044
 O742 O 0.18736 0.78494 0.71934
 O743 O 0.28317 0.81333 0.81254
 O744 O 0.31188 0.78316 0.78192
 O745 O 0.24992 0.78119 0.65343
 O746 O 0.24992 0.72097 0.65336
 O747 O 0.24996 0.78082 0.84644
 O748 O 0.24995 0.72056 0.84638
 O749 O 0.28318 0.68815 0.68743
 O750 O 0.31191 0.71825 0.71793
 O751 O 0.21617 0.68531 0.80960
 O752 O 0.18736 0.71696 0.78057
 O753 O 0.28316 0.68792 0.81237
 O754 O 0.31190 0.71812 0.78183
 O755 O 0.28319 0.81365 0.68758
 O756 O 0.31189 0.78329 0.71801
 O757 O 0.25074 0.84973 0.80142
 O758 O 0.25049 0.84979 0.69778
 O759 O 0.25047 0.65214 0.69756
 O760 O 0.25066 0.65184 0.80165
 O761 O 0.22876 0.70448 0.74990
 O762 O 0.22875 0.79737 0.74999
 O763 O 0.27017 0.70464 0.74986
 O764 O 0.22761 0.75078 0.79545
 O765 O 0.18733 0.78479 0.78078
 O766 O 0.21613 0.81610 0.81005
 O767 O 0.27177 0.75074 0.79572
 O768 O 0.27180 0.75092 0.70408
 O769 O 0.27019 0.79693 0.74996
 O770 O 0.22759 0.75098 0.70439
 Zr771 Zr 0.24962 0.79457 0.79436
 Zr772 Zr 0.24962 0.70718 0.70547
 Zr773 Zr 0.20816 0.75095 0.74997
 Zr774 Zr 0.24963 0.70698 0.79427
 Zr775 Zr 0.24963 0.79471 0.70557
 Zr776 Zr 0.29103 0.75075 0.74991
 H777 H 0.27983 0.68267 0.74986
 H778 H 0.21684 0.75073 0.81565
 H779 H 0.27988 0.81886 0.75001
 H780 H 0.21681 0.75104 0.68424
 H781 H 0.24555 0.86004 0.77938
 H782 H 0.25084 0.86029 0.72090
 H783 H 0.24639 0.64146 0.77927
 H784 H 0.24959 0.64151 0.72063
 C785 C 0.49913 0.49975 0.38849
 C786 C 0.49910 0.49953 0.61165
 C787 C 0.55545 0.44216 0.44749
 C788 C 0.55541 0.55721 0.44749
 C789 C 0.55532 0.44188 0.55237
 C790 C 0.44417 0.44446 0.55483
 C791 C 0.44416 0.55476 0.55475
 C792 C 0.44427 0.44463 0.44518
 C793 C 0.55533 0.55730 0.55236
 C794 C 0.44427 0.55478 0.44518
 O795 O 0.53323 0.43417 0.55991
 O796 O 0.56209 0.46578 0.53089
 O797 O 0.53324 0.56499 0.55989
 O798 O 0.56210 0.53342 0.53088
 O799 O 0.46633 0.56241 0.43747
 O800 O 0.43758 0.53223 0.46804
 O801 O 0.49939 0.52966 0.59655
 O802 O 0.49940 0.46943 0.59656
 O803 O 0.49943 0.52986 0.40357
 O804 O 0.49944 0.46960 0.40358
 O805 O 0.46623 0.43679 0.56248
 O806 O 0.43750 0.46707 0.53202
 O807 O 0.53337 0.43461 0.43978
 O808 O 0.56216 0.46584 0.46919
 O809 O 0.46634 0.43700 0.43748
 O810 O 0.43758 0.46712 0.46804
 O811 O 0.46621 0.56241 0.56242
 O812 O 0.43750 0.53218 0.53198
 O813 O 0.49882 0.59868 0.44876
 O814 O 0.49908 0.59846 0.55213
 O815 O 0.49909 0.40072 0.55218
 O816 O 0.49885 0.40067 0.44885
 O817 O 0.52074 0.45317 0.50007
 O818 O 0.52073 0.54611 0.50004
 O819 O 0.47926 0.45350 0.50006
 O820 O 0.52184 0.49967 0.45460
 O821 O 0.56214 0.53348 0.46919
 O822 O 0.53333 0.56478 0.43977
 O823 O 0.47770 0.49968 0.45429
 O824 O 0.47762 0.49960 0.54588
 O825 O 0.47925 0.54577 0.50004
 O826 O 0.52180 0.49959 0.54555
 Zr827 Zr 0.49985 0.54347 0.45567
 Zr828 Zr 0.49979 0.45582 0.54445
 Zr829 Zr 0.54132 0.49963 0.50004
 Zr830 Zr 0.49986 0.45587 0.45569
 Zr831 Zr 0.49979 0.54338 0.54443
 Zr832 Zr 0.45838 0.49964 0.50005
 H833 H 0.46958 0.43156 0.50003
 H834 H 0.53256 0.49970 0.43436
 H835 H 0.46957 0.56772 0.49999
 H836 H 0.53252 0.49957 0.56576
 H837 H 0.50438 0.60885 0.47066
 H838 H 0.49835 0.60897 0.52900
 H839 H 0.50449 0.39048 0.47073
 H840 H 0.49829 0.39026 0.52906
 C841 C 0.75024 0.75027 0.86144
 C842 C 0.74986 0.75125 0.63829
 C843 C 0.69403 0.69285 0.80237
 C844 C 0.69378 0.80784 0.80300
 C845 C 0.69383 0.69317 0.69762
 C846 C 0.80499 0.69625 0.69453
 C847 C 0.80487 0.80578 0.69478
 C848 C 0.80510 0.69596 0.80473
 C849 C 0.69379 0.80858 0.69810
 C850 C 0.80496 0.80529 0.80501
 O851 O 0.71592 0.68552 0.68997
 O852 O 0.68710 0.71697 0.71920
 O853 O 0.71584 0.81637 0.69047
 O854 O 0.68707 0.78458 0.71950
 O855 O 0.78291 0.81295 0.81278
 O856 O 0.81162 0.78312 0.78185
 O857 O 0.74954 0.78130 0.65349
 O858 O 0.74963 0.72106 0.65329
 O859 O 0.74988 0.78048 0.84645
 O860 O 0.74993 0.72020 0.84627
 O861 O 0.78294 0.68849 0.68698
 O862 O 0.81166 0.71855 0.71754
 O863 O 0.71611 0.68529 0.81001
 O864 O 0.68722 0.71664 0.78081
 O865 O 0.78307 0.68814 0.81241
 O866 O 0.81172 0.71835 0.78169
 O867 O 0.78281 0.81357 0.68731
 O868 O 0.81160 0.78333 0.71769
 O869 O 0.75042 0.84959 0.80116
 O870 O 0.75002 0.84984 0.69816
 O871 O 0.75017 0.65207 0.69755
 O872 O 0.75073 0.65152 0.80077
 O873 O 0.72854 0.70423 0.74983
 O874 O 0.72842 0.79718 0.75011
 O875 O 0.77004 0.70459 0.74967
 O876 O 0.72748 0.75050 0.79543
 O877 O 0.68708 0.78425 0.78118
 O878 O 0.71587 0.81543 0.81064
 O879 O 0.77156 0.75061 0.79552
 O880 O 0.77147 0.75096 0.70402
 O881 O 0.76994 0.79694 0.74997
 O882 O 0.72733 0.75090 0.70449
 Zr883 Zr 0.74938 0.79438 0.79440
 Zr884 Zr 0.74938 0.70713 0.70537
 Zr885 Zr 0.70792 0.75066 0.75007
 Zr886 Zr 0.74951 0.70675 0.79411
 Zr887 Zr 0.74930 0.79471 0.70566
 Zr888 Zr 0.79080 0.75080 0.74973
 H889 H 0.77979 0.68271 0.74963
 H890 H 0.71678 0.75036 0.81570
 H891 H 0.77964 0.81886 0.75003
 H892 H 0.71656 0.75097 0.68433
 H893 H 0.74432 0.85975 0.77952
 H894 H 0.75125 0.86019 0.72129
 H895 H 0.74497 0.64142 0.77894
 H896 H 0.75119 0.64152 0.72063
 C897 C 0.00133 0.00003 0.21430
 N898 N -0.01340 0.02234 0.23161
 N899 N -0.01354 0.02257 0.26569
 C900 C 0.00106 0.00049 0.28352
 N901 N 0.01580 -0.02182 0.26622
 N902 N 0.01594 -0.02205 0.23213
 C903 C 0.00140 -0.00026 0.17756
 C904 C 0.00134 -0.00040 0.14671
 C905 C 0.00082 0.00064 0.32026
 C906 C 0.00056 0.00074 0.35111
 C907 C 0.25075 0.24972 1.03650
 N908 N 0.23123 0.26145 1.01893
 N909 N 0.23118 0.26127 0.98485
 C910 C 0.25065 0.24936 0.96726
 N911 N 0.27018 0.23764 0.98482
 N912 N 0.27023 0.23781 1.01891
 C913 C 0.25075 0.24980 1.07324
 C914 C 0.25064 0.24984 1.10410
 C915 C 0.25057 0.24917 0.93052
 C916 C 0.25042 0.24906 0.89967
 C917 C 0.10839 0.10455 0.10773
 N918 N 0.10385 0.11456 0.14041
 N919 N 0.12066 0.13128 0.15857
 C920 C 0.14253 0.13847 0.14460
 N921 N 0.14706 0.12845 0.11194
 N922 N 0.13025 0.11173 0.09378
 C923 C 0.09021 0.08679 0.08813
 C924 C 0.07478 0.07192 0.07189
 C925 C 0.16054 0.15698 0.16387
 C926 C 0.17585 0.17279 0.17947
 C927 C 0.35772 0.35746 0.14255
 N928 N 0.36012 0.35281 0.10835
 N929 N 0.37706 0.37023 0.09101
 C930 C 0.39207 0.39283 0.10738
 N931 N 0.38967 0.39749 0.14159
 N932 N 0.37273 0.38007 0.15892
 C933 C 0.33944 0.33887 0.16113
 C934 C 0.32395 0.32331 0.17661
 C935 C 0.41037 0.41140 0.08879
 C936 C 0.42585 0.42690 0.07328
 C937 C 0.35821 0.14208 0.14248
 N938 N 0.37278 0.11872 0.15877
 N939 N 0.38978 0.10126 0.14154
 C940 C 0.39271 0.10658 0.10748
 N941 N 0.37813 0.12994 0.09119
 N942 N 0.36114 0.14740 0.10842
 C943 C 0.33979 0.16076 0.16101
 C944 C 0.32422 0.17635 0.17646
 C945 C 0.41109 0.08785 0.08893
 C946 C 0.42661 0.07219 0.07344
 C947 C 0.14213 0.36167 0.14554
 N948 N 0.14797 0.37926 0.11647
 N949 N 0.13102 0.39591 0.09847
 C950 C 0.10769 0.39542 0.10897
 N951 N 0.10184 0.37784 0.13806
 N952 N 0.11880 0.36118 0.15606
 C953 C 0.16033 0.34312 0.16447
 C954 C 0.17575 0.32724 0.17984
 C955 C 0.08940 0.41316 0.08951
 C956 C 0.07391 0.42803 0.07334
 C957 C 0.35766 0.14270 0.35692
 N958 N 0.37131 0.11768 0.34142
 N959 N 0.38826 0.10047 0.35892
 C960 C 0.39204 0.10775 0.39244
 N961 N 0.37839 0.13277 0.40793
 N962 N 0.36144 0.14998 0.39043
 C963 C 0.33935 0.16111 0.33816
 C964 C 0.32386 0.17652 0.32254
 C965 C 0.41034 0.08934 0.41120
 C966 C 0.42582 0.07391 0.42682
 C967 C 0.14202 0.36082 0.35411
 N968 N 0.14568 0.36814 0.38766
 N969 N 0.12883 0.38486 0.40580
 C970 C 0.10778 0.39476 0.39096
 N971 N 0.10411 0.38745 0.35741
 N972 N 0.12096 0.37072 0.33926
 C973 C 0.16011 0.34239 0.33478
 C974 C 0.17549 0.32666 0.31915
 C975 C 0.08954 0.41258 0.41055
 C976 C 0.07409 0.42750 0.42679
 C977 C 0.14186 0.13839 0.35263
 N978 N 0.11826 0.14661 0.34818
 N979 N 0.10128 0.13024 0.36638
 C980 C 0.10742 0.10522 0.38963
 N981 N 0.13102 0.09698 0.39407
 N982 N 0.14800 0.11336 0.37587
 C983 C 0.16017 0.15668 0.33376
 C984 C 0.17565 0.17244 0.31844
 C985 C 0.08915 0.08773 0.40928
 C986 C 0.07367 0.07304 0.42557
 C987 C 0.35761 0.35717 0.35698
 N988 N 0.36120 0.35026 0.39063
 N989 N 0.37810 0.36757 0.40810
 C990 C 0.39191 0.39235 0.39245
 N991 N 0.38831 0.39926 0.35880
 N992 N 0.37141 0.38195 0.34133
 C993 C 0.33931 0.33864 0.33822
 C994 C 0.32384 0.32316 0.32261
 C995 C 0.41020 0.41087 0.41121
 C996 C 0.42568 0.42635 0.42683
 C997 C 0.49895 -0.00072 0.21558
 N998 N 0.49572 0.03000 0.23271
 N999 N 0.49559 0.03038 0.26676
 C1000 C 0.49869 0.00005 0.28463
 N1001 N 0.50192 -0.03068 0.26750
 N1002 N 0.50204 -0.03106 0.23345
 C1003 C 0.49926 -0.00108 0.17903
 C1004 C 0.49959 -0.00131 0.14829
 C1005 C 0.49876 0.00046 0.32118
 C1006 C 0.49892 0.00065 0.35192
 C1007 C 0.75151 0.24967 1.03512
 N1008 N 0.73149 0.25986 1.01781
 N1009 N 0.73133 0.25984 0.98376
 C1010 C 0.75117 0.24961 0.96606
 N1011 N 0.77119 0.23942 0.98336
 N1012 N 0.77136 0.23945 1.01742
 C1013 C 0.75161 0.24957 1.07167
 C1014 C 0.75154 0.24949 1.10241
 C1015 C 0.75094 0.24950 0.92951
 C1016 C 0.75063 0.24941 0.89878
 C1017 C 0.60865 0.10716 0.10633
 N1018 N 0.61104 0.10019 0.14020
 N1019 N 0.62792 0.11646 0.15863
 C1020 C 0.64293 0.14021 0.14375
 N1021 N 0.64054 0.14719 0.10988
 N1022 N 0.62366 0.13092 0.09145
 C1023 C 0.59044 0.08957 0.08657
 C1024 C 0.57500 0.07444 0.07055
 C1025 C 0.66112 0.15783 0.16352
 C1026 C 0.67652 0.17298 0.17959
 C1027 C -0.14182 0.35460 0.14074
 N1028 N -0.14678 0.36654 0.10879
 N1029 N -0.12995 0.38334 0.09066
 C1030 C -0.10765 0.38866 0.10393
 N1031 N -0.10269 0.37671 0.13586
 N1032 N -0.11952 0.35991 0.15399
 C1033 C -0.16000 0.33675 0.16032
 C1034 C -0.17540 0.32180 0.17656
 C1035 C -0.08962 0.40726 0.08474
 C1036 C -0.07429 0.42316 0.06920
 C1037 C 0.89296 0.11075 0.10343
 N1038 N 0.89768 0.12187 0.13571
 N1039 N 0.88078 0.13847 0.15388
 C1040 C 0.85862 0.14444 0.14035
 N1041 N 0.85390 0.13334 0.10807
 N1042 N 0.87080 0.11673 0.08989
 C1043 C 0.91110 0.09235 0.08414
 C1044 C 0.92648 0.07662 0.06848
 C1045 C 0.84034 0.16214 0.15999
 C1046 C 0.82486 0.17695 0.17628
 C1047 C 0.64252 0.35829 0.14406
 N1048 N 0.64581 0.36428 0.11015
 N1049 N 0.62880 0.38040 0.09180
 C1050 C 0.60793 0.39099 0.10676
 N1051 N 0.60464 0.38500 0.14067
 N1052 N 0.62166 0.36888 0.15902
 C1053 C 0.66082 0.34059 0.16370
 C1054 C 0.67629 0.32539 0.17969
 C1055 C 0.58963 0.40868 0.08711
 C1056 C 0.57416 0.42387 0.07112
 C1057 C -0.14297 0.14543 0.35826
 N1058 N -0.12095 0.13925 0.34434
 N1059 N -0.10393 0.12267 0.36231
 C1060 C -0.10839 0.11179 0.39478
 N1061 N -0.13042 0.11798 0.40870
 N1062 N -0.14744 0.13456 0.39073
 C1063 C -0.16137 0.16316 0.33885
 C1064 C -0.17691 0.17806 0.32273
 C1065 C -0.09012 0.09344 0.41389
 C1066 C -0.07466 0.07774 0.42944
 C1067 C 0.64241 0.35819 0.35638
 N1068 N 0.64649 0.36672 0.38956
 N1069 N 0.62947 0.38277 0.40797
 C1070 C 0.60781 0.39070 0.39377
 N1071 N 0.60373 0.38218 0.36059
 N1072 N 0.62075 0.36613 0.34218
 C1073 C 0.66070 0.34054 0.33674
 C1074 C 0.67618 0.32535 0.32080
 C1075 C 0.58952 0.40834 0.41342
 C1076 C 0.57405 0.42350 0.42940
 C1077 C 0.64254 0.14013 0.35594
 N1078 N 0.61907 0.14952 0.35229
 N1079 N 0.60203 0.13394 0.37103
 C1080 C 0.60798 0.10864 0.39408
 N1081 N 0.63145 0.09925 0.39773
 N1082 N 0.64849 0.11483 0.37899
 C1083 C 0.66092 0.15743 0.33634
 C1084 C 0.67643 0.17248 0.32044
 C1085 C 0.58960 0.09140 0.41373
 C1086 C 0.57407 0.07646 0.42969
 C1087 C -0.14186 0.35448 0.36011
 N1088 N -0.14668 0.36604 0.39222
 N1089 N -0.12980 0.38281 0.41023
 C1090 C -0.10760 0.38848 0.39669
 N1091 N -0.10279 0.37690 0.36459
 N1092 N -0.11966 0.36013 0.34658
 C1093 C -0.16009 0.33664 0.34065
 C1094 C -0.17550 0.32169 0.32448
 C1095 C -0.08952 0.40704 0.41577
 C1096 C -0.07416 0.42290 0.43123
 C1097 C 0.00060 0.50023 0.21548
 N1098 N -0.02003 0.50656 0.23312
 N1099 N -0.02000 0.50648 0.26720
 C1100 C 0.00067 0.50008 0.28469
 N1101 N 0.02131 0.49375 0.26706
 N1102 N 0.02128 0.49383 0.23297
 C1103 C 0.00053 0.50029 0.17876
 C1104 C 0.00040 0.50033 0.14792
 C1105 C 0.00069 0.50000 0.32141
 C1106 C 0.00060 0.49997 0.35225
 C1107 C 0.25143 0.75067 1.03431
 N1108 N 0.24706 0.78089 1.01679
 N1109 N 0.24696 0.78087 0.98274
 C1110 C 0.25123 0.75063 0.96527
 N1111 N 0.25560 0.72041 0.98279
 N1112 N 0.25570 0.72043 1.01684
 C1113 C 0.25133 0.75065 1.07085
 C1114 C 0.25114 0.75067 1.10159
 C1115 C 0.25096 0.75058 0.92873
 C1116 C 0.25067 0.75059 0.89799
 C1117 C 0.10776 0.60600 0.10865
 N1118 N 0.10508 0.61097 0.14281
 N1119 N 0.12203 0.62772 0.16072
 C1120 C 0.14220 0.64001 0.14503
 N1121 N 0.14487 0.63503 0.11088
 N1122 N 0.12793 0.61828 0.09298
 C1123 C 0.08941 0.58813 0.08931
 C1124 C 0.07390 0.57315 0.07323
 C1125 C 0.16041 0.65841 0.16418
 C1126 C 0.17584 0.67414 0.17972
 C1127 C 0.39385 0.89277 0.10669
 N1128 N 0.37875 0.87015 0.09043
 N1129 N 0.36160 0.85306 0.10777
 C1130 C 0.35899 0.85801 0.14194
 N1131 N 0.37409 0.88063 0.15820
 N1132 N 0.39124 0.89772 0.14086
 C1133 C 0.41243 0.91120 0.08796
 C1134 C 0.42807 0.92662 0.07233
 C1135 C 0.34039 0.83960 0.16065
 C1136 C 0.32473 0.82420 0.17625
 C1137 C 0.35783 0.64305 0.14254
 N1138 N 0.37128 0.61785 0.15813
 N1139 N 0.38816 0.60041 0.14072
 C1140 C 0.39206 0.60761 0.10719
 N1141 N 0.37860 0.63281 0.09160
 N1142 N 0.36172 0.65026 0.10901
 C1143 C 0.33958 0.66169 0.16120
 C1144 C 0.32413 0.67727 0.17674
 C1145 C 0.41033 0.58901 0.08854
 C1146 C 0.42580 0.57347 0.07300
 C1147 C 0.10839 0.89533 0.10805
 N1148 N 0.13206 0.89937 0.10013
 N1149 N 0.14897 0.88300 0.11844
 C1150 C 0.14271 0.86218 0.14524
 N1151 N 0.11905 0.85815 0.15317
 N1152 N 0.10214 0.87452 0.13487
 C1153 C 0.09018 0.91281 0.08831
 C1154 C 0.07473 0.92749 0.07198
 C1155 C 0.16088 0.84388 0.16436
 C1156 C 0.17626 0.82814 0.17987
 C1157 C 0.35780 0.64298 0.35714
 N1158 N 0.37146 0.61806 0.34149
 N1159 N 0.38831 0.60056 0.35894
 C1160 C 0.39198 0.60742 0.39257
 N1161 N 0.37832 0.63234 0.40821
 N1162 N 0.36147 0.64983 0.39077
 C1163 C 0.33956 0.66168 0.33842
 C1164 C 0.32412 0.67730 0.32283
 C1165 C 0.41024 0.58874 0.41128
 C1166 C 0.42569 0.57315 0.42687
 C1167 C 0.14222 -0.13738 0.35335
 N1168 N 0.14825 -0.11788 0.38112
 N1169 N 0.13126 -0.10136 0.39919
 C1170 C 0.10772 -0.10390 0.39008
 N1171 N 0.10169 -0.12339 0.36230
 N1172 N 0.11867 -0.13991 0.34423
 C1173 C 0.16049 -0.15581 0.33438
 C1174 C 0.17594 -0.17163 0.31898
 C1175 C 0.08939 -0.08626 0.40962
 C1176 C 0.07388 -0.07146 0.42583
 C1177 C 0.14224 0.63949 0.35420
 N1178 N 0.12063 0.63161 0.33984
 N1179 N 0.10373 0.61483 0.35789
 C1180 C 0.10789 0.60543 0.39085
 N1181 N 0.12951 0.61330 0.40520
 N1182 N 0.14641 0.63007 0.38716
 C1183 C 0.16039 0.65802 0.33500
 C1184 C 0.17579 0.67385 0.31944
 C1185 C 0.08960 0.58756 0.41036
 C1186 C 0.07412 0.57260 0.42657
 C1187 C 0.35786 -0.14179 0.35692
 N1188 N 0.36124 -0.14841 0.39066
 N1189 N 0.37810 -0.13106 0.40814
 C1190 C 0.39206 -0.10654 0.39240
 N1191 N 0.38868 -0.09992 0.35865
 N1192 N 0.37182 -0.11727 0.34117
 C1193 C 0.33963 -0.16032 0.33818
 C1194 C 0.32419 -0.17581 0.32259
 C1195 C 0.41030 -0.08803 0.41113
 C1196 C 0.42575 -0.07258 0.42674
 C1197 C 0.49843 0.49995 0.21558
 N1198 N 0.48262 0.52039 0.23312
 N1199 N 0.48262 0.52030 0.26718
 C1200 C 0.49844 0.49978 0.28464
 N1201 N 0.51424 0.47934 0.26709
 N1202 N 0.51424 0.47943 0.23304
 C1203 C 0.49853 0.50013 0.17901
 C1204 C 0.49874 0.50020 0.14826
 C1205 C 0.49855 0.49979 0.32121
 C1206 C 0.49876 0.49978 0.35195
 C1207 C 0.75133 0.75019 1.03433
 N1208 N 0.74648 0.78024 1.01679
 N1209 N 0.74643 0.78022 0.98274
 C1210 C 0.75122 0.75015 0.96527
 N1211 N 0.75608 0.72009 0.98280
 N1212 N 0.75613 0.72011 1.01686
 C1213 C 0.75118 0.75017 1.07089
 C1214 C 0.75095 0.75022 1.10163
 C1215 C 0.75098 0.75009 0.92871
 C1216 C 0.75069 0.75013 0.89797
 C1217 C 0.60766 0.60914 0.10623
 N1218 N 0.60300 0.61944 0.13878
 N1219 N 0.61996 0.63545 0.15726
 C1220 C 0.64212 0.64155 0.14377
 N1221 N 0.64678 0.63124 0.11122
 N1222 N 0.62982 0.61524 0.09274
 C1223 C 0.58946 0.59150 0.08656
 C1224 C 0.57404 0.57632 0.07059
 C1225 C 0.66032 0.65918 0.16344
 C1226 C 0.67573 0.67437 0.17941
 C1227 C 0.89265 0.88857 0.10287
 N1228 N 0.86948 0.88815 0.09173
 N1229 N 0.85243 0.87170 0.10978
 C1230 C 0.85802 0.85521 0.13955
 N1231 N 0.88120 0.85562 0.15068
 N1232 N 0.89824 0.87207 0.13263
 C1233 C 0.91096 0.90690 0.08382
 C1234 C 0.92643 0.92261 0.06833
 C1235 C 0.83962 0.83764 0.15908
 C1236 C 0.82408 0.82288 0.17531
 C1237 C 0.89204 0.61166 0.10366
 N1238 N 0.89692 0.62367 0.13557
 N1239 N 0.88000 0.64034 0.15362
 C1240 C 0.85769 0.64546 0.14030
 N1241 N 0.85281 0.63346 0.10838
 N1242 N 0.86973 0.61679 0.09033
 C1243 C 0.91017 0.59319 0.08456
 C1244 C 0.92556 0.57739 0.06908
 C1245 C 0.83942 0.66320 0.15979
 C1246 C 0.82396 0.67809 0.17597
 C1247 C 0.60714 0.89130 0.10504
 N1248 N 0.62971 0.88709 0.09223
 N1249 N 0.64676 0.87122 0.11074
 C1250 C 0.64180 0.85917 0.14267
 N1251 N 0.61923 0.86338 0.15548
 N1252 N 0.60218 0.87925 0.13697
 C1253 C 0.58881 0.90886 0.08535
 C1254 C 0.57329 0.92399 0.06937
 C1255 C 0.66014 0.84168 0.16241
 C1256 C 0.67563 0.82663 0.17849
 C1257 C -0.14224 0.64540 0.35952
 N1258 N -0.12028 0.63881 0.34555
 N1259 N -0.10336 0.62207 0.36354
 C1260 C -0.10784 0.61142 0.39607
 N1261 N -0.12979 0.61802 0.41005
 N1262 N -0.14672 0.63477 0.39205
 C1263 C -0.16054 0.66326 0.34007
 C1264 C -0.17602 0.67822 0.32390
 C1265 C -0.08967 0.59291 0.41520
 C1266 C -0.07426 0.57710 0.43073
 C1267 C 0.64206 -0.13992 0.35544
 N1268 N 0.64775 -0.12481 0.38580
 N1269 N 0.63079 -0.10904 0.40451
 C1270 C 0.60761 -0.10803 0.39347
 N1271 N 0.60192 -0.12314 0.36311
 N1272 N 0.61888 -0.13891 0.34439
 C1273 C 0.66026 -0.15744 0.33566
 C1274 C 0.67569 -0.17259 0.31966
 C1275 C 0.58940 -0.09061 0.41330
 C1276 C 0.57396 -0.07557 0.42938
 C1277 C 0.64202 0.64155 0.35607
 N1278 N 0.62146 0.62996 0.34103
 N1279 N 0.60452 0.61380 0.35951
 C1280 C 0.60759 0.60880 0.39359
 N1281 N 0.62815 0.62039 0.40863
 N1282 N 0.64510 0.63655 0.39015
 C1283 C 0.66022 0.65926 0.33632
 C1284 C 0.67564 0.67449 0.32030
 C1285 C 0.58939 0.59110 0.41334
 C1286 C 0.57397 0.57590 0.42938
 C1287 C -0.14238 -0.14408 0.35899
 N1288 N -0.14804 -0.12812 0.38897
 N1289 N -0.13110 -0.11155 0.40702
 C1290 C -0.10798 -0.11051 0.39564
 N1291 N -0.10233 -0.12649 0.36567
 N1292 N -0.11927 -0.14306 0.34762
 C1293 C -0.16065 -0.16175 0.33951
 C1294 C -0.17610 -0.17660 0.32334
 C1295 C -0.08982 -0.09209 0.41464
 C1296 C -0.07442 -0.07629 0.43006
 C1297 C 0.00062 0.00033 0.78520
 N1298 N -0.01617 0.01925 0.76783
 N1299 N -0.01629 0.01944 0.73374
 C1300 C 0.00038 0.00072 0.71594
 N1301 N 0.01717 -0.01821 0.73331
 N1302 N 0.01729 -0.01840 0.76741
 C1303 C 0.00071 0.00009 0.82197
 C1304 C 0.00071 -0.00006 0.85285
 C1305 C 0.00020 0.00085 0.67917
 C1306 C 0.00002 0.00092 0.64830
 C1307 C 0.25057 0.24962 0.46558
 N1308 N 0.23111 0.26144 0.48325
 N1309 N 0.23115 0.26132 0.51734
 C1310 C 0.25064 0.24938 0.53483
 N1311 N 0.27011 0.23755 0.51717
 N1312 N 0.27007 0.23767 0.48307
 C1313 C 0.25049 0.24969 0.42883
 C1314 C 0.25036 0.24975 0.39796
 C1315 C 0.25064 0.24922 0.57159
 C1316 C 0.25055 0.24914 0.60245
 C1317 C 0.10743 0.10549 0.60952
 N1318 N 0.10262 0.11719 0.64158
 N1319 N 0.11961 0.13353 0.65974
 C1320 C 0.14194 0.13862 0.64640
 N1321 N 0.14675 0.12691 0.61434
 N1322 N 0.12977 0.11057 0.59619
 C1323 C 0.08910 0.08801 0.58993
 C1324 C 0.07361 0.07330 0.57367
 C1325 C 0.16016 0.15677 0.66563
 C1326 C 0.17559 0.17236 0.68122
 C1327 C 0.35775 0.35645 0.64334
 N1328 N 0.36209 0.34846 0.61010
 N1329 N 0.37893 0.36589 0.59254
 C1330 C 0.39190 0.39189 0.60766
 N1331 N 0.38755 0.39988 0.64090
 N1332 N 0.37072 0.38245 0.65847
 C1333 C 0.33949 0.33784 0.66217
 C1334 C 0.32403 0.32232 0.67783
 C1335 C 0.41014 0.41053 0.58882
 C1336 C 0.42558 0.42609 0.57317
 C1337 C 0.35761 0.14216 0.64336
 N1338 N 0.37038 0.11577 0.65824
 N1339 N 0.38729 0.09860 0.64062
 C1340 C 0.39189 0.10728 0.60761
 N1341 N 0.37912 0.13367 0.59273
 N1342 N 0.36222 0.15085 0.61034
 C1343 C 0.33934 0.16051 0.66222
 C1344 C 0.32387 0.17587 0.67790
 C1345 C 0.41017 0.08894 0.58875
 C1346 C 0.42565 0.07358 0.57308
 C1347 C 0.14216 0.36077 0.64687
 N1348 N 0.14721 0.37374 0.61533
 N1349 N 0.13028 0.39048 0.59734
 C1350 C 0.10777 0.39472 0.61034
 N1351 N 0.10272 0.38176 0.64190
 N1352 N 0.11965 0.36502 0.65989
 C1353 C 0.16031 0.34221 0.66592
 C1354 C 0.17571 0.32634 0.68137
 C1355 C 0.08949 0.41255 0.59090
 C1356 C 0.07402 0.42750 0.57474
 C1357 C 0.39247 0.10599 0.89323
 N1358 N 0.38982 0.10100 0.85910
 N1359 N 0.37279 0.11833 0.84183
 C1360 C 0.35790 0.14120 0.85815
 N1361 N 0.36055 0.14619 0.89229
 N1362 N 0.37758 0.12887 0.90956
 C1363 C 0.41089 0.08741 0.91181
 C1364 C 0.42644 0.07188 0.92730
 C1365 C 0.33950 0.15979 0.83958
 C1366 C 0.32396 0.17535 0.82409
 C1367 C 0.10762 0.39526 0.89024
 N1368 N 0.13124 0.39905 0.89848
 N1369 N 0.14821 0.38229 0.88060
 C1370 C 0.14206 0.36130 0.85393
 N1371 N 0.11844 0.35753 0.84568
 N1372 N 0.10147 0.37429 0.86356
 C1373 C 0.08935 0.41309 0.90959
 C1374 C 0.07387 0.42802 0.92567
 C1375 C 0.16029 0.34264 0.83525
 C1376 C 0.17572 0.32664 0.82007
 C1377 C 0.10697 0.10353 0.89055
 N1378 N 0.10152 0.11987 0.86065
 N1379 N 0.11861 0.13655 0.84288
 C1380 C 0.14167 0.13735 0.85444
 N1381 N 0.14711 0.12099 0.88433
 N1382 N 0.13003 0.10431 0.90210
 C1383 C 0.08853 0.08573 0.90977
 C1384 C 0.07297 0.07078 0.92579
 C1385 C 0.16001 0.15588 0.83570
 C1386 C 0.17552 0.17175 0.82044
 C1387 C 0.39207 0.39214 0.89323
 N1388 N 0.37851 0.36712 0.90895
 N1389 N 0.36161 0.34967 0.89162
 C1390 C 0.35777 0.35668 0.85804
 N1391 N 0.37133 0.38170 0.84232
 N1392 N 0.38823 0.39915 0.85965
 C1393 C 0.41037 0.41082 0.91184
 C1394 C 0.42584 0.42641 0.92733
 C1395 C 0.33947 0.33803 0.83944
 C1396 C 0.32398 0.32246 0.82395
 C1397 C 0.49881 -0.00150 0.78467
 N1398 N 0.48622 0.02353 0.76744
 N1399 N 0.48612 0.02386 0.73338
 C1400 C 0.49860 -0.00082 0.71557
 N1401 N 0.51118 -0.02584 0.73280
 N1402 N 0.51129 -0.02618 0.76686
 C1403 C 0.49909 -0.00170 0.82127
 C1404 C 0.49941 -0.00179 0.85204
 C1405 C 0.49863 -0.00036 0.67897
 C1406 C 0.49877 -0.00008 0.64820
 C1407 C 0.75088 0.24875 0.46605
 N1408 N 0.73034 0.25640 0.48339
 N1409 N 0.73017 0.25641 0.51745
 C1410 C 0.75054 0.24876 0.53515
 N1411 N 0.77108 0.24111 0.51782
 N1412 N 0.77125 0.24110 0.48375
 C1413 C 0.75102 0.24874 0.42945
 C1414 C 0.75102 0.24877 0.39868
 C1415 C 0.75033 0.24878 0.57176
 C1416 C 0.75010 0.24881 0.60253
 C1417 C 0.60745 0.10863 0.60645
 N1418 N 0.60114 0.13215 0.63099
 N1419 N 0.61800 0.14775 0.64995
 C1420 C 0.64167 0.14016 0.64502
 N1421 N 0.64797 0.11663 0.62048
 N1422 N 0.63111 0.10103 0.60152
 C1423 C 0.58926 0.09133 0.58656
 C1424 C 0.57385 0.07636 0.57046
 C1425 C 0.65985 0.15751 0.66485
 C1426 C 0.67526 0.17257 0.68088
 C1427 C -0.14272 0.35461 0.64093
 N1428 N -0.14805 0.36973 0.61039
 N1429 N -0.13102 0.38640 0.59250
 C1430 C -0.10812 0.38843 0.60458
 N1431 N -0.10279 0.37330 0.63512
 N1432 N -0.11982 0.35663 0.65300
 C1433 C -0.16111 0.33682 0.66029
 C1434 C -0.17662 0.32188 0.67642
 C1435 C -0.08983 0.40695 0.58568
 C1436 C -0.07436 0.42281 0.57032
 C1437 C 0.89157 0.11193 0.60326
 N1438 N 0.89779 0.13534 0.62794
 N1439 N 0.88083 0.15161 0.64624
 C1440 C 0.85715 0.14489 0.64047
 N1441 N 0.85093 0.12150 0.61578
 N1442 N 0.86789 0.10523 0.59747
 C1443 C 0.90984 0.09374 0.58423
 C1444 C 0.92531 0.07806 0.56882
 C1445 C 0.83889 0.16229 0.66022
 C1446 C 0.82343 0.17694 0.67658
 C1447 C 0.64155 0.35789 0.64440
 N1448 N 0.64507 0.36360 0.61051
 N1449 N 0.62820 0.37964 0.59185
 C1450 C 0.60727 0.39037 0.60651
 N1451 N 0.60375 0.38465 0.64040
 N1452 N 0.62063 0.36862 0.65907
 C1453 C 0.65967 0.34032 0.66432
 C1454 C 0.67506 0.32520 0.68043
 C1455 C 0.58917 0.40798 0.58660
 C1456 C 0.57382 0.42317 0.57048
 C1457 C 0.89224 0.11135 0.89610
 N1458 N 0.89784 0.13953 0.87622
 N1459 N 0.88072 0.15602 0.85840
 C1460 C 0.85752 0.14475 0.85988
 N1461 N 0.85193 0.11659 0.87978
 N1462 N 0.86904 0.10010 0.89761
 C1463 C 0.91074 0.09304 0.91455
 C1464 C 0.92632 0.07723 0.92957
 C1465 C 0.83913 0.16232 0.84059
 C1466 C 0.82357 0.17707 0.82453
 C1467 C 0.60753 0.39048 0.89474
 N1468 N 0.63043 0.38778 0.90662
 N1469 N 0.64734 0.37181 0.88798
 C1470 C 0.64185 0.35819 0.85690
 N1471 N 0.61895 0.36088 0.84502
 N1472 N 0.60204 0.37685 0.86366
 C1473 C 0.58941 0.40815 0.91444
 C1474 C 0.57404 0.42340 0.93037
 C1475 C 0.65998 0.34058 0.83716
 C1476 C 0.67535 0.32539 0.82115
 C1477 C 0.60701 0.10633 0.89520
 N1478 N 0.60622 0.10597 0.86051
 N1479 N 0.62315 0.12240 0.84219
 C1480 C 0.64144 0.13970 0.85797
 N1481 N 0.64224 0.14005 0.89266
 N1482 N 0.62530 0.12362 0.91098
 C1483 C 0.58874 0.08840 0.91488
 C1484 C 0.57327 0.07303 0.93085
 C1485 C 0.65972 0.15758 0.83826
 C1486 C 0.67516 0.17287 0.82219
 C1487 C 0.89190 0.38852 0.89596
 N1488 N 0.86890 0.38694 0.90777
 N1489 N 0.85192 0.37023 0.88990
 C1490 C 0.85741 0.35464 0.85966
 N1491 N 0.88041 0.35622 0.84787
 N1492 N 0.89738 0.37292 0.86574
 C1493 C 0.91013 0.40709 0.91483
 C1494 C 0.92557 0.42299 0.93015
 C1495 C 0.83907 0.33683 0.84032
 C1496 C 0.82356 0.32189 0.82425
 C1497 C 0.00037 0.50049 0.78640
 N1498 N -0.02046 0.50535 0.76880
 N1499 N -0.02044 0.50530 0.73470
 C1500 C 0.00040 0.50039 0.71712
 N1501 N 0.02123 0.49553 0.73472
 N1502 N 0.02122 0.49557 0.76882
 C1503 C 0.00033 0.50050 0.82319
 C1504 C 0.00022 0.50050 0.85407
 C1505 C 0.00040 0.50032 0.68033
 C1506 C 0.00032 0.50026 0.64945
 C1507 C 0.25104 0.75132 0.46524
 N1508 N 0.23998 0.77765 0.48270
 N1509 N 0.23993 0.77767 0.51676
 C1510 C 0.25095 0.75135 0.53434
 N1511 N 0.26201 0.72502 0.51688
 N1512 N 0.26206 0.72501 0.48282
 C1513 C 0.25095 0.75121 0.42864
 C1514 C 0.25080 0.75113 0.39787
 C1515 C 0.25077 0.75128 0.57094
 C1516 C 0.25055 0.75121 0.60171
 C1517 C 0.10769 0.60539 0.60989
 N1518 N 0.10263 0.61836 0.64140
 N1519 N 0.11955 0.63510 0.65934
 C1520 C 0.14205 0.63931 0.64631
 N1521 N 0.14712 0.62633 0.61481
 N1522 N 0.13020 0.60960 0.59687
 C1523 C 0.08943 0.58759 0.59051
 C1524 C 0.07397 0.57266 0.57441
 C1525 C 0.16018 0.65787 0.66527
 C1526 C 0.17557 0.67375 0.68063
 C1527 C 0.39181 0.89323 0.60711
 N1528 N 0.37894 0.86712 0.59201
 N1529 N 0.36203 0.84982 0.60951
 C1530 C 0.35752 0.85810 0.64263
 N1531 N 0.37039 0.88420 0.65773
 N1532 N 0.38730 0.90150 0.64023
 C1533 C 0.41009 0.91168 0.58838
 C1534 C 0.42558 0.92712 0.57280
 C1535 C 0.33926 0.83963 0.66137
 C1536 C 0.32379 0.82417 0.67697
 C1537 C 0.35757 0.64304 0.64258
 N1538 N 0.37106 0.61787 0.65820
 N1539 N 0.38793 0.60037 0.64079
 C1540 C 0.39181 0.60747 0.60723
 N1541 N 0.37832 0.63264 0.59161
 N1542 N 0.36145 0.65014 0.60902
 C1543 C 0.33930 0.66174 0.66127
 C1544 C 0.32384 0.67734 0.67683
 C1545 C 0.41008 0.58877 0.58855
 C1546 C 0.42555 0.57317 0.57301
 C1547 C 0.10740 0.89607 0.60960
 N1548 N 0.13105 0.90020 0.60159
 N1549 N 0.14803 0.88369 0.61968
 C1550 C 0.14187 0.86262 0.64635
 N1551 N 0.11822 0.85850 0.65437
 N1552 N 0.10125 0.87501 0.63628
 C1553 C 0.08910 0.91370 0.59005
 C1554 C 0.07363 0.92850 0.57381
 C1555 C 0.16013 0.84419 0.66527
 C1556 C 0.17558 0.82837 0.68063
 C1557 C 0.39202 0.60769 0.89260
 N1558 N 0.38899 0.60187 0.85865
 N1559 N 0.37206 0.61924 0.84124
 C1560 C 0.35765 0.64300 0.85724
 N1561 N 0.36067 0.64883 0.89118
 N1562 N 0.37761 0.63145 0.90859
 C1563 C 0.41034 0.58909 0.91130
 C1564 C 0.42583 0.57355 0.92689
 C1565 C 0.33932 0.66160 0.83853
 C1566 C 0.32383 0.67716 0.82296
 C1567 C 0.10699 0.89586 0.89046
 N1568 N 0.12924 0.89079 0.90404
 N1569 N 0.14629 0.87412 0.88622
 C1570 C 0.14165 0.86205 0.85425
 N1571 N 0.11940 0.86713 0.84066
 N1572 N 0.10234 0.88380 0.85848
 C1573 C 0.08855 0.91368 0.90973
 C1574 C 0.07300 0.92864 0.92576
 C1575 C 0.15996 0.84360 0.83532
 C1576 C 0.17545 0.82783 0.81990
 C1577 C 0.10751 0.60549 0.88993
 N1578 N 0.10185 0.62198 0.86020
 N1579 N 0.11884 0.63862 0.84222
 C1580 C 0.14198 0.63919 0.85344
 N1581 N 0.14763 0.62268 0.88316
 N1582 N 0.13065 0.60605 0.90113
 C1583 C 0.08921 0.58781 0.90934
 C1584 C 0.07374 0.57295 0.92549
 C1585 C 0.16017 0.65770 0.83457
 C1586 C 0.17559 0.67359 0.81925
 C1587 C 0.39245 0.89163 0.89309
 N1588 N 0.37833 0.86728 0.90879
 N1589 N 0.36127 0.85031 0.89132
 C1590 C 0.35783 0.85717 0.85762
 N1591 N 0.37195 0.88152 0.84193
 N1592 N 0.38901 0.89849 0.85940
 C1593 C 0.41087 0.90984 0.91185
 C1594 C 0.42643 0.92513 0.92746
 C1595 C 0.33940 0.83898 0.83886
 C1596 C 0.32385 0.82373 0.82321
 C1597 C 0.49882 0.49956 0.78465
 N1598 N 0.47968 0.51268 0.76720
 N1599 N 0.47961 0.51261 0.73313
 C1600 C 0.49868 0.49942 0.71556
 N1601 N 0.51782 0.48630 0.73302
 N1602 N 0.51789 0.48636 0.76708
 C1603 C 0.49895 0.49970 0.82124
 C1604 C 0.49914 0.49979 0.85200
 C1605 C 0.49868 0.49946 0.67898
 C1606 C 0.49880 0.49949 0.64821
 C1607 C 0.75059 0.75159 0.46525
 N1608 N 0.73116 0.76376 0.48270
 N1609 N 0.73109 0.76378 0.51677
 C1610 C 0.75047 0.75163 0.53435
 N1611 N 0.76991 0.73946 0.51690
 N1612 N 0.76998 0.73944 0.48284
 C1613 C 0.75060 0.75145 0.42866
 C1614 C 0.75050 0.75133 0.39789
 C1615 C 0.75035 0.75153 0.57095
 C1616 C 0.75016 0.75141 0.60172
 C1617 C 0.60739 0.60893 0.60621
 N1618 N 0.60413 0.61418 0.64022
 N1619 N 0.62104 0.63031 0.65872
 C1620 C 0.64173 0.64161 0.64378
 N1621 N 0.64499 0.63636 0.60977
 N1622 N 0.62809 0.62023 0.59127
 C1623 C 0.58924 0.59124 0.58644
 C1624 C 0.57386 0.57602 0.57041
 C1625 C 0.65989 0.65928 0.66355
 C1626 C 0.67529 0.67448 0.67957
 C1627 C 0.89166 0.88943 0.60332
 N1628 N 0.86813 0.89186 0.59409
 N1629 N 0.85115 0.87536 0.61219
 C1630 C 0.85718 0.85600 0.64010
 N1631 N 0.88071 0.85356 0.64932
 N1632 N 0.89769 0.87006 0.63122
 C1633 C 0.90990 0.90783 0.58435
 C1634 C 0.92535 0.92363 0.56898
 C1635 C 0.83888 0.83838 0.65965
 C1636 C 0.82342 0.82355 0.67589
 C1637 C 0.89193 0.61214 0.60374
 N1638 N 0.89805 0.63337 0.63024
 N1639 N 0.88104 0.65003 0.64815
 C1640 C 0.85741 0.64590 0.64013
 N1641 N 0.85129 0.62468 0.61361
 N1642 N 0.86830 0.60802 0.59570
 C1643 C 0.91022 0.59357 0.58501
 C1644 C 0.92569 0.57764 0.56979
 C1645 C 0.83908 0.66365 0.65953
 C1646 C 0.82359 0.67852 0.67568
 C1647 C 0.60735 0.89136 0.60597
 N1648 N 0.63087 0.90050 0.60243
 N1649 N 0.64775 0.88484 0.62136
 C1650 C 0.64158 0.85971 0.64447
 N1651 N 0.61806 0.85056 0.64800
 N1652 N 0.60118 0.86623 0.62908
 C1653 C 0.58914 0.90873 0.58618
 C1654 C 0.57373 0.92380 0.57016
 C1655 C 0.65980 0.84232 0.66423
 C1656 C 0.67524 0.82725 0.68019
 C1657 C 0.89190 0.61211 0.89589
 N1658 N 0.89788 0.63062 0.86741
 N1659 N 0.88093 0.64722 0.84936
 C1660 C 0.85748 0.64574 0.85922
 N1661 N 0.85150 0.62724 0.88770
 N1662 N 0.86845 0.61064 0.90575
 C1663 C 0.91010 0.59360 0.91482
 C1664 C 0.92553 0.57774 0.93017
 C1665 C 0.83920 0.66343 0.83971
 C1666 C 0.82372 0.67826 0.82352
 C1667 C 0.60687 0.89075 0.89534
 N1668 N 0.62989 0.88868 0.90694
 N1669 N 0.64688 0.87285 0.88829
 C1670 C 0.64141 0.85869 0.85740
 N1671 N 0.61838 0.86075 0.84580
 N1672 N 0.60140 0.87658 0.86446
 C1673 C 0.58861 0.90835 0.91513
 C1674 C 0.57315 0.92355 0.93115
 C1675 C 0.65970 0.84126 0.83751
 C1676 C 0.67517 0.82628 0.82133
 C1677 C 0.60765 0.60908 0.89413
 N1678 N 0.60244 0.62147 0.86243
 N1679 N 0.61937 0.63740 0.84378
 C1680 C 0.64203 0.64131 0.85625
 N1681 N 0.64724 0.62892 0.88795
 N1682 N 0.63031 0.61299 0.90660
 C1683 C 0.58949 0.59150 0.91390
 C1684 C 0.57409 0.57632 0.92991
 C1685 C 0.66018 0.65891 0.83647
 C1686 C 0.67555 0.67411 0.82043
 C1687 C 0.89227 0.88844 0.89555
 N1688 N 0.86864 0.89545 0.90149
 N1689 N 0.85153 0.87903 0.88363
 C1690 C 0.85755 0.85517 0.85925
 N1691 N 0.88118 0.84814 0.85332
 N1692 N 0.89829 0.86456 0.87118
 C1693 C 0.91071 0.90674 0.91417
 C1694 C 0.92626 0.92249 0.92931
 C1695 C 0.83913 0.83765 0.83992
 C1696 C 0.82358 0.82292 0.82382
   
