data_POSCAR
  _audit_creation_date              2014-09-24
  _audit_creation_method            'ToBaCCo'
  _symmetry_space_group_name_H-M    'P1'
  _symmetry_Int_Tables_number       1
  _symmetry_cell_setting            triclinic
  loop_
  _symmetry_equiv_pos_as_xyz
 x,y,z
_cell_length_a 61.0272
_cell_length_b 66.4156
_cell_length_c 69.5726
_cell_angle_alpha 89.984400
_cell_angle_beta 89.210900
_cell_angle_gamma 90.001800
loop_
  _atom_site_label
  _atom_site_type_symbol
  _atom_site_fract_x
  _atom_site_fract_y
  _atom_site_fract_z
N1 N 0.28465 0.43427 0.90630
 N2 N 0.29577 0.45115 0.90805
 C3 C 0.28678 0.46542 0.89695
 C4 C 0.26928 0.45713 0.88746
 C5 C 0.26826 0.43729 0.89371
 H6 H 0.29229 0.48087 0.89599
 H7 H 0.25598 0.42623 0.89008
 Cu8 Cu 0.32078 0.45332 0.92494
 Cu9 Cu 0.29143 0.41071 0.92254
 Cu10 Cu 0.34412 0.41175 0.94113
 N11 N 0.34468 0.45468 0.94323
 N12 N 0.35424 0.43812 0.94917
 C13 C 0.37126 0.44292 0.96038
 C14 C 0.37234 0.46369 0.96166
 C15 C 0.35518 0.47068 0.95063
 H16 H 0.38218 0.43209 0.96682
 H17 H 0.35103 0.48620 0.94773
 N18 N 0.32578 0.38749 0.94090
 N19 N 0.30531 0.38692 0.93498
 C20 C 0.29657 0.36889 0.94002
 C21 C 0.31242 0.35785 0.94959
 C22 C 0.33064 0.37010 0.94965
 H23 H 0.27976 0.36447 0.93767
 H24 H 0.34597 0.36720 0.95674
 H25 H 0.31277 0.42277 0.94279
 H26 H 0.32298 0.41722 0.91797
 N27 N 0.44335 0.84467 0.44168
 N28 N 0.46314 0.83964 0.43566
 C29 C 0.47797 0.85070 0.44500
 C30 C 0.46704 0.86410 0.45690
 C31 C 0.44495 0.86007 0.45433
 H32 H 0.49546 0.84992 0.44245
 H33 H 0.43122 0.86725 0.46155
 Cu34 Cu 0.46784 0.82147 0.41411
 Cu35 Cu 0.41766 0.82931 0.43334
 Cu36 Cu 0.42764 0.79139 0.39983
 N37 N 0.47234 0.80281 0.39286
 N38 N 0.45628 0.79107 0.38737
 C39 C 0.46295 0.78011 0.37214
 C40 C 0.48433 0.78534 0.36775
 C41 C 0.48984 0.79980 0.38116
 H42 H 0.45277 0.76960 0.36445
 H43 H 0.50518 0.80788 0.38198
 N44 N 0.39986 0.79412 0.41396
 N45 N 0.39595 0.80797 0.42720
 C46 C 0.37621 0.80412 0.43549
 C47 C 0.36740 0.78730 0.42667
 C48 C 0.38273 0.78153 0.41312
 H49 H 0.36897 0.81267 0.44718
 H50 H 0.38185 0.76846 0.40391
 H51 H 0.43588 0.80431 0.42642
 H52 H 0.42906 0.82159 0.40610
 N53 N 0.94814 0.91460 0.80101
 N54 N 0.96693 0.91942 0.80883
 C55 C 0.98268 0.90698 0.80242
 C56 C 0.97352 0.89336 0.78996
 C57 C 0.95145 0.89856 0.78932
 H58 H 0.99943 0.90724 0.80729
 H59 H 0.93880 0.89107 0.78125
 Cu60 Cu 0.96939 0.93955 0.82865
 Cu61 Cu 0.92128 0.92992 0.80730
 Cu62 Cu 0.92432 0.95988 0.84808
 N63 N 0.96981 0.95175 0.85383
 N64 N 0.95210 0.95985 0.86148
 C65 C 0.95658 0.96621 0.87936
 C66 C 0.97818 0.96147 0.88317
 C67 C 0.98613 0.95239 0.86661
 H68 H 0.94473 0.97288 0.88915
 H69 H 1.00227 0.94608 0.86419
 N70 N 0.89784 0.95800 0.83248
 N71 N 0.89650 0.94703 0.81670
 C72 C 0.87688 0.95059 0.80857
 C73 C 0.86550 0.96434 0.81993
 C74 C 0.87926 0.96857 0.83493
 H75 H 0.87154 0.94417 0.79514
 H76 H 0.87634 0.97932 0.84633
 H77 H 0.93503 0.95503 0.81958
 H78 H 0.93124 0.93220 0.83511
 N79 N 0.45564 -0.10366 0.29389
 N80 N 0.47488 -0.10111 0.30185
 C81 C 0.48852 -0.11582 0.29626
 C82 C 0.47749 -0.12860 0.28422
 C83 C 0.45650 -0.12056 0.28297
 H84 H 0.50509 -0.11757 0.30131
 H85 H 0.44302 -0.12648 0.27478
 Cu86 Cu 0.48062 -0.08057 0.32064
 Cu87 Cu 0.43174 -0.08409 0.29856
 Cu88 Cu 0.43979 -0.05219 0.33738
 N89 N 0.48280 -0.06722 0.34519
 N90 N 0.46675 -0.05587 0.35175
 C91 C 0.47213 -0.04879 0.36919
 C92 C 0.49254 -0.05635 0.37382
 C93 C 0.49885 -0.06801 0.35827
 H94 H 0.46170 -0.03938 0.37810
 H95 H 0.51377 -0.07666 0.35669
 N96 N 0.41375 -0.05079 0.32106
 N97 N 0.41028 -0.06268 0.30618
 C98 C 0.39123 -0.05709 0.29790
 C99 C 0.38250 -0.04097 0.30821
 C100 C 0.39725 -0.03753 0.32268
 H101 H 0.38432 -0.06407 0.28532
 H102 H 0.39623 -0.02594 0.33353
 H103 H 0.44984 -0.06091 0.30944
 H104 H 0.44150 -0.08156 0.32636
 N105 N 0.78419 0.32890 0.35494
 N106 N 0.79764 0.31345 0.35571
 C107 C 0.78701 0.29752 0.36320
 C108 C 0.76588 0.30335 0.36766
 C109 C 0.76459 0.32344 0.36254
 H110 H 0.79428 0.28291 0.36568
 H111 H 0.75043 0.33317 0.36379
 Cu112 Cu 0.82819 0.31554 0.34795
 Cu113 Cu 0.79342 0.35414 0.34271
 Cu114 Cu 0.83653 0.34568 0.31041
 N115 N 0.85565 0.31496 0.33367
 N116 N 0.85882 0.32667 0.31866
 C117 C 0.87815 0.32196 0.31023
 C118 C 0.88756 0.30650 0.32061
 C119 C 0.87287 0.30250 0.33545
 H120 H 0.88451 0.32880 0.29720
 H121 H 0.87410 0.29080 0.34620
 N122 N 0.81644 0.36883 0.30873
 N123 N 0.80084 0.37291 0.32150
 C124 C 0.79026 0.38981 0.31602
 C125 C 0.79959 0.39631 0.29886
 C126 C 0.81608 0.38274 0.29477
 H127 H 0.77606 0.39612 0.32328
 H128 H 0.82687 0.38288 0.28231
 H129 H 0.80841 0.33530 0.32437
 H130 H 0.82767 0.35111 0.33839
 N131 N -0.20172 0.86197 0.81424
 N132 N -0.22000 0.85659 0.82306
 C133 C -0.23586 0.86973 0.81867
 C134 C -0.22703 0.88427 0.80655
 C135 C -0.20521 0.87903 0.80420
 H136 H -0.25260 0.86859 0.82384
 H137 H -0.19303 0.88650 0.79528
 Cu138 Cu -0.22198 0.83266 0.83922
 Cu139 Cu -0.17559 0.84518 0.81547
 Cu140 Cu -0.18968 0.79533 0.82403
 N141 N -0.22607 0.80530 0.84873
 N142 N -0.21389 0.79058 0.84189
 C143 C -0.22016 0.77314 0.85008
 C144 C -0.23695 0.77714 0.86305
 C145 C -0.24029 0.79777 0.86190
 H146 H -0.21227 0.75879 0.84749
 H147 H -0.25191 0.80663 0.87018
 N148 N -0.16110 0.80378 0.81332
 N149 N -0.15551 0.82271 0.81007
 C150 C -0.13431 0.82340 0.80437
 C151 C -0.12626 0.80397 0.80450
 C152 C -0.14353 0.79199 0.81030
 H153 H -0.12512 0.83705 0.80164
 H154 H -0.14303 0.77597 0.81305
 H155 H -0.19773 0.82326 0.81251
 H156 H -0.18361 0.82282 0.83614
 N157 N 0.96220 0.35182 0.43642
 N158 N 0.94450 0.34599 0.44587
 C159 C 0.94578 0.35215 0.46421
 C160 C 0.96494 0.36308 0.46624
 C161 C 0.97489 0.36279 0.44822
 H162 H 0.93324 0.34954 0.47507
 H163 H 0.99055 0.36930 0.44422
 Cu164 Cu 0.92061 0.33237 0.43294
 Cu165 Cu 0.96802 0.34272 0.41014
 Cu166 Cu 0.92805 0.31227 0.38948
 N167 N 0.89964 0.31317 0.42267
 N168 N 0.90264 0.30541 0.40546
 C169 C 0.88604 0.29270 0.40165
 C170 C 0.87193 0.29239 0.41738
 C171 C 0.88105 0.30559 0.43047
 H172 H 0.88451 0.28420 0.38848
 H173 H 0.87472 0.30928 0.44463
 N174 N 0.95765 0.31601 0.37827
 N175 N 0.97303 0.32708 0.38628
 C176 C 0.99225 0.32363 0.37703
 C177 C 0.98859 0.31006 0.36239
 C178 C 0.96660 0.30548 0.36363
 H179 H 1.00797 0.32942 0.38144
 H180 H 0.95821 0.29400 0.35552
 H181 H 0.93654 0.33966 0.40087
 H182 H 0.94841 0.31717 0.41285
 N183 N 0.45209 0.42378 0.86452
 N184 N 0.43280 0.42565 0.87299
 C185 C 0.43506 0.43530 0.88979
 C186 C 0.45690 0.43981 0.89206
 C187 C 0.46737 0.43223 0.87581
 H188 H 0.42155 0.44097 0.89845
 H189 H 0.48423 0.43481 0.87151
 Cu190 Cu 0.40612 0.42205 0.85889
 Cu191 Cu 0.45470 0.41475 0.83771
 Cu192 Cu 0.40621 0.40382 0.81433
 N193 N 0.38267 0.42810 0.84143
 N194 N 0.38291 0.42188 0.82349
 C195 C 0.36759 0.43217 0.81368
 C196 C 0.35769 0.44569 0.82624
 C197 C 0.36735 0.44238 0.84372
 H198 H 0.36541 0.43133 0.79830
 H199 H 0.36508 0.45112 0.85670
 N200 N 0.43499 0.39526 0.80439
 N201 N 0.45354 0.40032 0.81273
 C202 C 0.47035 0.39270 0.80234
 C203 C 0.46192 0.38221 0.78697
 C204 C 0.43945 0.38400 0.78874
 H205 H 0.48742 0.39385 0.80617
 H206 H 0.42728 0.37752 0.77942
 H207 H 0.42471 0.42403 0.82798
 H208 H 0.42625 0.39830 0.83861
 N209 N 0.79585 0.88990 0.90437
 N210 N 0.80692 0.88945 0.92045
 C211 C 0.80241 0.87213 0.92981
 C212 C 0.78769 0.86130 0.91891
 C213 C 0.78420 0.87287 0.90278
 H214 H 0.80812 0.86841 0.94402
 H215 H 0.77256 0.87002 0.89152
 Cu216 Cu 0.82406 0.91264 0.92839
 Cu217 Cu 0.79295 0.91421 0.88899
 Cu218 Cu 0.80246 0.95692 0.91567
 N219 N 0.83807 0.93785 0.93544
 N220 N 0.82955 0.95517 0.93022
 C221 C 0.84285 0.97018 0.93569
 C222 C 0.86065 0.96184 0.94482
 C223 C 0.85709 0.94126 0.94453
 H224 H 0.84004 0.98595 0.93273
 H225 H 0.86796 0.92967 0.94971
 N226 N 0.78273 0.95645 0.89349
 N227 N 0.78061 0.94051 0.88234
 C228 C 0.76716 0.94502 0.86779
 C229 C 0.76024 0.96469 0.87009
 C230 C 0.77048 0.97153 0.88646
 H231 H 0.76234 0.93460 0.85667
 H232 H 0.76954 0.98649 0.89255
 H233 H 0.81590 0.93423 0.90089
 H234 H 0.79094 0.92741 0.91526
 N235 N 0.28599 0.85198 0.30795
 N236 N 0.30496 0.84995 0.29897
 C237 C 0.30593 0.86263 0.28397
 C238 C 0.28671 0.87348 0.28367
 C239 C 0.27435 0.86644 0.29910
 H240 H 0.32005 0.86460 0.27461
 H241 H 0.25839 0.87176 0.30377
 Cu242 Cu 0.32769 0.83278 0.30867
 Cu243 Cu 0.27839 0.83580 0.33055
 Cu244 Cu 0.31898 0.80333 0.34680
 N245 N 0.34717 0.81071 0.31418
 N246 N 0.34400 0.79941 0.32946
 C247 C 0.36053 0.78612 0.33070
 C248 C 0.37465 0.78923 0.31524
 C249 C 0.36565 0.80488 0.30499
 H250 H 0.36216 0.77509 0.34202
 H251 H 0.37228 0.81179 0.29209
 N252 N 0.28969 0.80542 0.35896
 N253 N 0.27433 0.81792 0.35308
 C254 C 0.25655 0.81597 0.36468
 C255 C 0.26093 0.80140 0.37829
 C256 C 0.28202 0.79502 0.37422
 H257 H 0.24155 0.82448 0.36336
 H258 H 0.29122 0.78385 0.38202
 H259 H 0.30941 0.83263 0.34038
 H260 H 0.29977 0.81224 0.32422
 N261 N 0.80370 0.39315 0.40741
 N262 N 0.82011 0.38511 0.41674
 C263 C 0.81282 0.36942 0.42721
 C264 C 0.79057 0.36776 0.42454
 C265 C 0.78528 0.38287 0.41172
 H266 H 0.82264 0.36097 0.43722
 H267 H 0.76912 0.38685 0.40677
 Cu268 Cu 0.84826 0.39829 0.41787
 Cu269 Cu 0.80739 0.41794 0.39263
 Cu270 Cu 0.84645 0.44842 0.41335
 N271 N 0.87155 0.41509 0.42725
 N272 N 0.87050 0.43483 0.42609
 C273 C 0.88558 0.44289 0.43773
 C274 C 0.89625 0.42730 0.44685
 C275 C 0.88723 0.40988 0.43964
 H276 H 0.88687 0.45876 0.44100
 H277 H 0.88991 0.39470 0.44472
 N278 N 0.82428 0.45851 0.39537
 N279 N 0.80981 0.44674 0.38702
 C280 C 0.79846 0.45754 0.37420
 C281 C 0.80619 0.47708 0.37456
 C282 C 0.82248 0.47720 0.38813
 H283 H 0.78612 0.45146 0.36482
 H284 H 0.83313 0.48964 0.39163
 H285 H 0.84124 0.42514 0.39481
 H286 H 0.82298 0.42637 0.41654
 N287 N 0.93994 0.83744 -0.05145
 N288 N 0.95688 0.84289 -0.06209
 C289 C 0.96593 0.85955 -0.05429
 C290 C 0.95395 0.86449 -0.03787
 C291 C 0.93772 0.85011 -0.03658
 H292 H 0.97990 0.86758 -0.06017
 H293 H 0.92470 0.84930 -0.02593
 Cu294 Cu 0.96462 0.82745 -0.08513
 Cu295 Cu 0.92050 0.81556 -0.05808
 Cu296 Cu 0.93380 0.78737 -0.09819
 N297 N 0.97260 0.81051 -0.10707
 N298 N 0.96046 0.79502 -0.11200
 C299 C 0.96897 0.78657 -0.12799
 C300 C 0.98744 0.79727 -0.13339
 C301 C 0.98935 0.81234 -0.11980
 H302 H 0.96190 0.77392 -0.13546
 H303 H 1.00157 0.82413 -0.11960
 N304 N 0.90748 0.78209 -0.08219
 N305 N 0.90258 0.79298 -0.06687
 C306 C 0.88345 0.78652 -0.05932
 C307 C 0.87592 0.77080 -0.07034
 C308 C 0.89155 0.76828 -0.08473
 H309 H 0.87533 0.79297 -0.04687
 H310 H 0.89107 0.75752 -0.09637
 H311 H 0.94424 0.79868 -0.07251
 H312 H 0.92689 0.81555 -0.08755
 N313 N 0.28894 0.36571 0.82245
 N314 N 0.30448 0.36619 0.80902
 C315 C 0.29838 0.37941 0.79529
 C316 C 0.27786 0.38687 0.80031
 C317 C 0.27248 0.37789 0.81748
 H318 H 0.30786 0.38305 0.78251
 H319 H 0.25765 0.38018 0.82588
 Cu320 Cu 0.33106 0.34875 0.81035
 Cu321 Cu 0.28961 0.34911 0.84555
 Cu322 Cu 0.33342 0.32038 0.85027
 N323 N 0.35581 0.33035 0.81526
 N324 N 0.35685 0.32035 0.83154
 C325 C 0.37451 0.30840 0.83136
 C326 C 0.38529 0.31065 0.81397
 C327 C 0.37307 0.32483 0.80400
 H328 H 0.37837 0.29789 0.84268
 H329 H 0.37608 0.33016 0.78951
 N330 N 0.30606 0.31365 0.86301
 N331 N 0.28888 0.32545 0.86174
 C332 C 0.27196 0.31723 0.87159
 C333 C 0.27899 0.29911 0.87891
 C334 C 0.30062 0.29722 0.87326
 H335 H 0.25557 0.32341 0.87237
 H336 H 0.31142 0.28466 0.87601
 H337 H 0.32295 0.35376 0.83831
 H338 H 0.30837 0.33265 0.82640
 N339 N 0.13491 0.56979 0.58651
 N340 N 0.13840 0.56137 0.60330
 C341 C 0.12591 0.54476 0.60498
 C342 C 0.11390 0.54274 0.58839
 C343 C 0.11981 0.55899 0.57703
 H344 H 0.12608 0.53463 0.61715
 H345 H 0.11439 0.56218 0.56260
 Cu346 Cu 0.16011 0.57179 0.62088
 Cu347 Cu 0.15193 0.59289 0.57763
 Cu348 Cu 0.20028 0.60022 0.60246
 N349 N 0.18752 0.57529 0.63434
 N350 N 0.20345 0.58626 0.62692
 C351 C 0.22076 0.58569 0.63870
 C352 C 0.21541 0.57356 0.65424
 C353 C 0.19417 0.56721 0.65103
 H354 H 0.23615 0.59334 0.63605
 H355 H 0.18439 0.55731 0.66002
 N356 N 0.19559 0.61037 0.57625
 N357 N 0.17666 0.60890 0.56736
 C358 C 0.17868 0.61726 0.54975
 C359 C 0.20001 0.62380 0.54745
 C360 C 0.21027 0.61921 0.56441
 H361 H 0.16606 0.61736 0.53899
 H362 H 0.22730 0.62187 0.56772
 H363 H 0.17820 0.57997 0.59082
 H364 H 0.16675 0.60302 0.60237
 N365 N 0.59170 0.69378 0.05775
 N366 N 0.58646 0.70598 0.07194
 C367 C 0.59972 0.72224 0.07110
 C368 C 0.61392 0.71983 0.05554
 C369 C 0.60828 0.70171 0.04743
 H370 H 0.59948 0.73454 0.08128
 H371 H 0.61630 0.69440 0.03537
 Cu372 Cu 0.56342 0.69874 0.09039
 Cu373 Cu 0.57918 0.66737 0.05493
 Cu374 Cu 0.53753 0.65391 0.08640
 N375 N 0.53547 0.69333 0.10327
 N376 N 0.52515 0.67606 0.10142
 C377 C 0.50713 0.67613 0.11285
 C378 C 0.50622 0.69438 0.12241
 C379 C 0.52443 0.70492 0.11597
 H380 H 0.49628 0.66342 0.11491
 H381 H 0.52973 0.71959 0.12078
 N382 N 0.54909 0.63558 0.06628
 N383 N 0.56487 0.64115 0.05427
 C384 C 0.57023 0.62565 0.04279
 C385 C 0.55722 0.60950 0.04763
 C386 C 0.54381 0.61623 0.06253
 H387 H 0.58297 0.62598 0.03187
 H388 H 0.53155 0.60758 0.07028
 H389 H 0.54892 0.67476 0.06748
 H390 H 0.56986 0.66298 0.08329
 N391 N 0.70430 0.19697 0.62318
 N392 N 0.72063 0.18567 0.62894
 C393 C 0.73821 0.18897 0.61749
 C394 C 0.73251 0.20308 0.60382
 C395 C 0.71085 0.20780 0.60780
 H396 H 0.75378 0.18136 0.61878
 H397 H 0.70049 0.21803 0.59993
 Cu398 Cu 0.71702 0.16698 0.65025
 Cu399 Cu 0.67567 0.19609 0.63582
 Cu400 Cu 0.67962 0.18146 0.68340
 N401 N 0.71497 0.15392 0.67514
 N402 N 0.70098 0.16032 0.68832
 C403 C 0.70385 0.14975 0.70456
 C404 C 0.72026 0.13577 0.70126
 C405 C 0.72693 0.13873 0.68241
 H406 H 0.69430 0.15176 0.71762
 H407 H 0.73971 0.13068 0.67471
 N408 N 0.65435 0.19660 0.67336
 N409 N 0.65265 0.20154 0.65506
 C410 C 0.63357 0.21120 0.65244
 C411 C 0.62266 0.21238 0.66993
 C412 C 0.63625 0.20294 0.68290
 H413 H 0.62821 0.21716 0.63883
 H414 H 0.63318 0.20084 0.69812
 H415 H 0.69391 0.19545 0.65961
 H416 H 0.67769 0.17202 0.65566
 N417 N 1.10284 0.07309 0.18191
 N418 N 1.09984 0.05607 0.17243
 C419 C 1.11431 0.04227 0.17883
 C420 C 1.12691 0.05110 0.19291
 C421 C 1.11908 0.07050 0.19451
 H422 H 1.11406 0.02646 0.17510
 H423 H 1.12339 0.08125 0.20551
 Cu424 Cu 1.07463 0.05174 0.15505
 Cu425 Cu 1.08290 0.09654 0.18086
 Cu426 Cu 1.03950 0.09002 0.15341
 N427 N 1.04569 0.04897 0.14318
 N428 N 1.03193 0.06419 0.14314
 C429 C 1.01316 0.05868 0.13487
 C430 C 1.01519 0.03900 0.12901
 C431 C 1.03616 0.03321 0.13428
 H432 H 0.99933 0.06857 0.13269
 H433 H 1.04389 0.01878 0.13174
 N434 N 1.04065 0.11188 0.17143
 N435 N 1.05765 0.11467 0.18248
 C436 C 1.05337 0.13026 0.19442
 C437 C 1.03236 0.13709 0.19073
 C438 C 1.02489 0.12514 0.17604
 H439 H 1.06427 0.13560 0.20544
 H440 H 1.00894 0.12565 0.16948
 H441 H 1.06297 0.07212 0.17513
 H442 H 1.07915 0.08238 0.15461
 N443 N 0.05707 0.14194 1.06376
 N444 N 0.04029 0.14349 1.07575
 C445 C 0.02544 0.12931 1.07165
 C446 C 0.03328 0.11792 1.05649
 C447 C 0.05353 0.12623 1.05178
 H448 H 0.00972 0.12771 1.07887
 H449 H 0.06426 0.12187 1.04000
 Cu450 Cu 0.03816 0.16453 1.09498
 Cu451 Cu 0.08115 0.16162 1.06458
 Cu452 Cu 0.07446 0.20171 1.09665
 N453 N 0.03122 0.18951 1.10822
 N454 N 0.04580 0.20400 1.10928
 C455 C 0.03772 0.21889 1.12047
 C456 C 0.01680 0.21352 1.12648
 C457 C 0.01320 0.19479 1.11840
 H458 H 0.04656 0.23240 1.12426
 H459 H -0.00107 0.18533 1.12046
 N460 N 0.09897 0.19978 1.07793
 N461 N 0.10155 0.18501 1.06535
 C462 C 0.11961 0.18888 1.05446
 C463 C 0.12870 0.20686 1.06064
 C464 C 0.11517 0.21326 1.07544
 H465 H 0.12586 0.17928 1.04309
 H466 H 0.11688 0.22690 1.08373
 H467 H 0.07790 0.17101 1.09240
 H468 H 0.06149 0.18495 1.07449
 N469 N 0.14659 0.69160 0.66160
 N470 N 0.14404 0.68400 0.67894
 C471 C 0.12717 0.69351 0.68783
 C472 C 0.11888 0.70779 0.67530
 C473 C 0.13156 0.70607 0.65882
 H474 H 0.12165 0.69055 0.70240
 H475 H 0.13018 0.71483 0.64579
 Cu476 Cu 0.16385 0.66316 0.68842
 Cu477 Cu 0.16915 0.68250 0.64377
 Cu478 Cu 0.21060 0.65414 0.66359
 N479 N 0.18909 0.65028 0.70036
 N480 N 0.20773 0.64844 0.69081
 C481 C 0.22289 0.64050 0.70234
 C482 C 0.21328 0.63687 0.72003
 C483 C 0.19170 0.64304 0.71834
 H484 H 0.23952 0.63691 0.69798
 H485 H 0.17905 0.64259 0.72937
 N486 N 0.21248 0.66532 0.63743
 N487 N 0.19673 0.67641 0.63009
 C488 C 0.20336 0.68339 0.61283
 C489 C 0.22421 0.67623 0.60907
 C490 C 0.22950 0.66471 0.62486
 H491 H 0.19392 0.69335 0.60386
 H492 H 0.24494 0.65723 0.62736
 H493 H 0.17823 0.65535 0.65587
 H494 H 0.19017 0.67864 0.66639
 N495 N 1.18858 0.15057 0.19838
 N496 N 1.20771 0.14713 0.19011
 C497 C 1.21897 0.13402 0.20105
 C498 C 1.20610 0.12929 0.21703
 C499 C 1.18698 0.14003 0.21478
 H500 H 1.23504 0.12810 0.19753
 H501 H 1.17259 0.13973 0.22403
 Cu502 Cu 1.21492 0.15966 0.16535
 Cu503 Cu 1.16627 0.16712 0.18669
 Cu504 Cu 1.18751 0.20218 0.15484
 N505 N 1.22204 0.17554 0.14246
 N506 N 1.21130 0.19221 0.13864
 C507 C 1.21894 0.20010 0.12207
 C508 C 1.23522 0.18763 0.11497
 C509 C 1.23685 0.17218 0.12827
 H510 H 1.21260 0.21357 0.11540
 H511 H 1.24760 0.15926 0.12744
 N512 N 1.15863 0.20506 0.16737
 N513 N 1.15037 0.19133 0.17910
 C514 C 1.13062 0.19747 0.18551
 C515 C 1.12618 0.21590 0.17730
 C516 C 1.14419 0.22028 0.16579
 H517 H 1.12048 0.18933 0.19575
 H518 H 1.14678 0.23368 0.15722
 H519 H 1.17849 0.17313 0.15879
 H520 H 1.19152 0.18534 0.17996
 N521 N 0.66017 1.04292 0.57369
 N522 N 0.65574 1.05606 0.56018
 C523 C 0.63689 1.05082 0.55164
 C524 C 0.62907 1.03354 0.56046
 C525 C 0.64423 1.02896 0.57437
 H526 H 0.62922 1.05911 0.54016
 H527 H 0.64369 1.01641 0.58427
 Cu528 Cu 0.67467 1.07913 0.55600
 Cu529 Cu 0.68627 1.04490 0.58938
 Cu530 Cu 0.72285 1.08366 0.57853
 N531 N 0.69646 1.09861 0.54779
 N532 N 0.71492 1.10123 0.55701
 C533 C 0.72642 1.11619 0.54834
 C534 C 0.71454 1.12285 0.53273
 C535 C 0.69575 1.11133 0.53285
 H536 H 0.74243 1.12133 0.55264
 H537 H 0.68243 1.11223 0.52279
 N538 N 0.72750 1.06395 0.59957
 N539 N 0.71349 1.04931 0.60359
 C540 C 0.72071 1.03885 0.61881
 C541 C 0.74020 1.04718 0.62465
 C542 C 0.74409 1.06306 0.61216
 H543 H 0.71221 1.02633 0.62547
 H544 H 0.75768 1.07349 0.61256
 H545 H 0.69178 1.07568 0.58736
 H546 H 0.70499 1.05966 0.56851
 N547 N 0.57003 0.53057 0.15564
 N548 N 0.55154 0.54022 0.15267
 C549 C 0.54164 0.53233 0.13723
 C550 C 0.55446 0.51670 0.13038
 C551 C 0.57229 0.51591 0.14242
 H552 H 0.52618 0.53741 0.13155
 H553 H 0.58613 0.50577 0.14139
 Cu554 Cu 0.54170 0.56150 0.16985
 Cu555 Cu 0.59015 0.53840 0.17600
 Cu556 Cu 0.58171 0.58777 0.19007
 N557 N 0.53520 0.58496 0.18563
 N558 N 0.55123 0.59514 0.19347
 C559 C 0.54295 0.61083 0.20325
 C560 C 0.52046 0.61045 0.20161
 C561 C 0.51598 0.59388 0.19025
 H562 H 0.55269 0.62180 0.21082
 H563 H 0.50008 0.58886 0.18554
 N564 N 0.60919 0.57335 0.19428
 N565 N 0.61233 0.55423 0.18988
 C566 C 0.63192 0.54839 0.19675
 C567 C 0.64122 0.56468 0.20607
 C568 C 0.62642 0.58018 0.20410
 H569 H 0.63851 0.53332 0.19566
 H570 H 0.62755 0.59513 0.21017
 H571 H 0.57162 0.55876 0.19267
 H572 H 0.58142 0.56618 0.16816
 N573 N 0.65385 0.68996 0.18241
 N574 N 0.65178 0.70426 0.16946
 C575 C 0.63035 0.70914 0.16810
 C576 C 0.61859 0.69691 0.18060
 C577 C 0.63396 0.68491 0.18932
 H578 H 0.62376 0.72041 0.15855
 H579 H 0.63090 0.67371 0.20033
 Cu580 Cu 0.67736 0.71442 0.15521
 Cu581 Cu 0.68206 0.68016 0.19102
 Cu582 Cu 0.72657 0.69327 0.16296
 N583 N 0.70340 0.72195 0.14002
 N584 N 0.72272 0.71445 0.14414
 C585 C 0.73774 0.72150 0.13159
 C586 C 0.72739 0.73380 0.11859
 C587 C 0.70552 0.73377 0.12427
 H588 H 0.75472 0.71687 0.13111
 H589 H 0.69214 0.74122 0.11713
 N590 N 0.72861 0.67440 0.18461
 N591 N 0.71145 0.66869 0.19497
 C592 C 0.71782 0.65451 0.20765
 C593 C 0.74012 0.65145 0.20521
 C594 C 0.74637 0.66434 0.19057
 H595 H 0.70705 0.64683 0.21772
 H596 H 0.76258 0.66575 0.18427
 H597 H 0.70182 0.70332 0.18072
 H598 H 0.69429 0.68252 0.16394
 N599 N 0.13953 0.05188 1.07225
 N600 N 0.14480 0.04054 1.08694
 C601 C 0.13072 0.02495 1.08813
 C602 C 0.11594 0.02679 1.07334
 C603 C 0.12197 0.04405 1.06359
 H604 H 0.13099 0.01337 1.09906
 H605 H 0.11404 0.05063 1.05128
 Cu606 Cu 0.16876 0.04823 1.10351
 Cu607 Cu 0.15503 0.07647 1.06598
 Cu608 Cu 0.20706 0.07954 1.08516
 N609 N 0.19483 0.05520 1.11764
 N610 N 0.20961 0.06773 1.11065
 C611 C 0.22586 0.06978 1.12340
 C612 C 0.22092 0.05784 1.13912
 C613 C 0.20118 0.04878 1.13501
 H614 H 0.24024 0.07908 1.12127
 H615 H 0.19209 0.03838 1.14403
 N616 N 0.19778 0.09550 1.06283
 N617 N 0.17781 0.09438 1.05588
 C618 C 0.17623 0.10671 1.04069
 C619 C 0.19609 0.11620 1.03799
 C620 C 0.20943 0.10890 1.05232
 H621 H 0.16163 0.10861 1.03225
 H622 H 0.22629 0.11303 1.05487
 H623 H 0.18281 0.06144 1.07313
 H624 H 0.17468 0.08191 1.09019
 N625 N 0.59406 0.20064 0.56980
 N626 N 0.59694 0.18811 0.55538
 C627 C 0.61475 0.19365 0.54506
 C628 C 0.62357 0.21049 0.55361
 C629 C 0.61008 0.21453 0.56929
 H630 H 0.62100 0.18583 0.53250
 H631 H 0.61182 0.22656 0.57963
 Cu632 Cu 0.57783 0.16525 0.55222
 Cu633 Cu 0.57014 0.19742 0.58839
 Cu634 Cu 0.52924 0.16358 0.57542
 N635 N 0.55485 0.14734 0.54426
 N636 N 0.53613 0.14587 0.55374
 C637 C 0.52390 0.13136 0.54554
 C638 C 0.53560 0.12382 0.52995
 C639 C 0.55505 0.13432 0.52955
 H640 H 0.50777 0.12675 0.55044
 H641 H 0.56864 0.13223 0.51961
 N642 N 0.52591 0.18296 0.59683
 N643 N 0.54144 0.19582 0.60161
 C644 C 0.53434 0.20698 0.61658
 C645 C 0.51343 0.20078 0.62154
 C646 C 0.50857 0.18552 0.60879
 H647 H 0.54381 0.21855 0.62357
 H648 H 0.49361 0.17683 0.60840
 H649 H 0.56060 0.16762 0.58429
 H650 H 0.55029 0.18672 0.56705
 N651 N 0.10191 0.58369 0.68603
 N652 N 0.10141 0.56422 0.68261
 C653 C 0.11850 0.55538 0.69135
 C654 C 0.13008 0.57019 0.70085
 C655 C 0.11935 0.58794 0.69684
 H656 H 0.12087 0.53928 0.69246
 H657 H 0.12254 0.60255 0.70306
 Cu658 Cu 0.07617 0.55213 0.67022
 Cu659 Cu 0.07696 0.60122 0.68123
 Cu660 Cu 0.02899 0.57398 0.68398
 N661 N 0.04803 0.54037 0.66378
 N662 N 0.02969 0.54867 0.66997
 C663 C 0.01259 0.53817 0.66336
 C664 C 0.02055 0.52270 0.65202
 C665 C 0.04317 0.52446 0.65260
 H666 H -0.00436 0.54249 0.66545
 H667 H 0.05511 0.51550 0.64479
 N668 N 0.03045 0.60307 0.68902
 N669 N 0.04862 0.61371 0.68718
 C670 C 0.04428 0.63309 0.69142
 C671 C 0.02225 0.63462 0.69598
 C672 C 0.01394 0.61541 0.69420
 H673 H 0.05632 0.64505 0.69147
 H674 H -0.00283 0.61069 0.69667
 H675 H 0.06113 0.57712 0.69241
 H676 H 0.05409 0.58253 0.66691
 N677 N 0.66956 0.53474 0.06544
 N678 N 0.66156 0.54792 0.05326
 C679 C 0.64712 0.53851 0.04182
 C680 C 0.64621 0.51836 0.04708
 C681 C 0.66077 0.51654 0.06202
 H682 H 0.63740 0.54589 0.03101
 H683 H 0.66394 0.50321 0.07047
 Cu684 Cu 0.66978 0.57642 0.05466
 Cu685 Cu 0.68925 0.54242 0.08611
 Cu686 Cu 0.68461 0.59254 0.09792
 N687 N 0.68041 0.60410 0.05839
 N688 N 0.68445 0.61045 0.07589
 C689 C 0.69286 0.62907 0.07512
 C690 C 0.69488 0.63473 0.05616
 C691 C 0.68658 0.61862 0.04576
 H692 H 0.69926 0.63703 0.08740
 H693 H 0.68684 0.61687 0.03030
 N694 N 0.69678 0.57251 0.11542
 N695 N 0.69974 0.55346 0.11067
 C696 C 0.71240 0.54462 0.12400
 C697 C 0.71793 0.55906 0.13744
 C698 C 0.70769 0.57644 0.13162
 H699 H 0.71873 0.52944 0.12305
 H700 H 0.70974 0.59130 0.13771
 H701 H 0.66912 0.56598 0.08846
 H702 H 0.69723 0.57203 0.07922
 N703 N 0.03102 0.70593 0.59897
 N704 N 0.01930 0.69092 0.60585
 C705 C 0.00371 0.69830 0.61785
 C706 C 0.00561 0.71909 0.61807
 C707 C 0.02302 0.72337 0.60588
 H708 H -0.00761 0.68924 0.62626
 H709 H 0.03053 0.73795 0.60362
 Cu710 Cu 0.02647 0.66326 0.59881
 Cu711 Cu 0.05869 0.70125 0.58573
 Cu712 Cu 0.06717 0.65442 0.56566
 N713 N 0.02832 0.63846 0.58400
 N714 N 0.04389 0.63479 0.57119
 C715 C 0.04012 0.61663 0.56309
 C716 C 0.02105 0.60878 0.57115
 C717 C 0.01411 0.62302 0.58433
 H718 H 0.05013 0.60991 0.55186
 H719 H -0.00043 0.62239 0.59336
 N720 N 0.08827 0.67704 0.56234
 N721 N 0.08465 0.69487 0.57016
 C722 C 0.10244 0.70648 0.56762
 C723 C 0.11798 0.69573 0.55751
 C724 C 0.10857 0.67706 0.55425
 H725 H 0.10452 0.72138 0.57359
 H726 H 0.11650 0.66409 0.54782
 H727 H 0.04516 0.67679 0.57083
 H728 H 0.06460 0.67016 0.59049
 N729 N 0.53803 1.05450 0.63577
 N730 N 0.52412 1.06933 0.63881
 C731 C 0.50772 1.06782 0.62609
 C732 C 0.51174 1.05121 0.61446
 C733 C 0.53109 1.04314 0.62107
 H734 H 0.49411 1.07819 0.62521
 H735 H 0.53961 1.03006 0.61551
 Cu736 Cu 0.52893 1.08952 0.65881
 Cu737 Cu 0.56419 1.05082 0.65090
 Cu738 Cu 0.56750 1.07953 0.69182
 N739 N 0.53062 1.10454 0.68294
 N740 N 0.54420 1.09880 0.69638
 C741 C 0.54234 1.11118 0.71151
 C742 C 0.52733 1.12602 0.70726
 C743 C 0.52004 1.12135 0.68897
 H744 H 0.55268 1.11046 0.72397
 H745 H 0.50846 1.12979 0.68052
 N746 N 0.58992 1.05976 0.68451
 N747 N 0.58907 1.04930 0.66844
 C748 C 0.60754 1.03836 0.66656
 C749 C 0.62060 1.04222 0.68220
 C750 C 0.60896 1.05580 0.69331
 H751 H 0.61131 1.02852 0.65460
 H752 H 0.61429 1.06269 0.70652
 H753 H 0.54762 1.06201 0.67452
 H754 H 0.56717 1.07971 0.66196
 N755 N 0.44924 0.35259 0.92769
 N756 N 0.43204 0.34622 0.93750
 C757 C 0.42971 0.35733 0.95355
 C758 C 0.44633 0.37151 0.95375
 C759 C 0.45842 0.36812 0.93707
 H760 H 0.41685 0.35522 0.96420
 H761 H 0.47278 0.37624 0.93212
 Cu762 Cu 0.41408 0.32420 0.92832
 Cu763 Cu 0.45803 0.34034 0.90338
 Cu764 Cu 0.43522 0.29322 0.89481
 N765 N 0.40163 0.29779 0.92378
 N766 N 0.40968 0.28572 0.91048
 C767 C 0.39774 0.26863 0.91023
 C768 C 0.38156 0.27007 0.92431
 C769 C 0.38454 0.28875 0.93263
 H770 H 0.40069 0.25606 0.90066
 H771 H 0.37487 0.29535 0.94415
 N772 N 0.46099 0.30378 0.88053
 N773 N 0.46940 0.32182 0.88355
 C774 C 0.48616 0.32489 0.87107
 C775 C 0.48835 0.30800 0.85965
 C776 C 0.47217 0.29494 0.86602
 H777 H 0.49573 0.33856 0.87010
 H778 H 0.46841 0.28032 0.86010
 H779 H 0.43049 0.32363 0.89580
 H780 H 0.44873 0.31306 0.91452
 N781 N 0.97708 0.44427 0.37031
 N782 N 0.95911 0.45321 0.37654
 C783 C 0.96188 0.45849 0.39516
 C784 C 0.98278 0.45244 0.40063
 C785 C 0.99187 0.44375 0.38436
 H786 H 0.94952 0.46565 0.40412
 H787 H 1.00773 0.43662 0.38292
 Cu788 Cu 0.93417 0.45601 0.35906
 Cu789 Cu 0.97947 0.43128 0.34534
 Cu790 Cu 0.92953 0.41726 0.32805
 N791 N 0.91333 0.45693 0.33773
 N792 N 0.91074 0.44101 0.32671
 C793 C 0.89777 0.44579 0.31200
 C794 C 0.89222 0.46582 0.31338
 C795 C 0.90212 0.47253 0.33007
 H796 H 0.89447 0.43592 0.30000
 H797 H 0.90288 0.48790 0.33517
 N798 N 0.95652 0.40257 0.32152
 N799 N 0.97585 0.40941 0.32672
 C800 C 0.99161 0.39825 0.31833
 C801 C 0.98173 0.38363 0.30732
 C802 C 0.95944 0.38662 0.30976
 H803 H 1.00898 0.40054 0.32030
 H804 H 0.94637 0.37848 0.30285
 H805 H 0.95152 0.43976 0.33117
 H806 H 0.94916 0.42258 0.35226
 N807 N 0.28081 0.92426 0.39648
 N808 N 0.29077 0.94187 0.39755
 C809 C 0.28169 0.95472 0.38512
 C810 C 0.26539 0.94474 0.37561
 C811 C 0.26513 0.92541 0.38301
 H812 H 0.28666 0.97021 0.38303
 H813 H 0.25390 0.91342 0.37945
 Cu814 Cu 0.31566 0.94730 0.41408
 Cu815 Cu 0.28744 0.90199 0.41434
 Cu816 Cu 0.32945 0.91062 0.44401
 N817 N 0.34466 0.94580 0.42491
 N818 N 0.34997 0.93200 0.43754
 C819 C 0.37036 0.93575 0.44384
 C820 C 0.37819 0.95267 0.43432
 C821 C 0.36145 0.95862 0.42242
 H822 H 0.37885 0.92679 0.45437
 H823 H 0.36112 0.97162 0.41307
 N824 N 0.30601 0.89211 0.45084
 N825 N 0.29011 0.88791 0.43890
 C826 C 0.27753 0.87319 0.44656
 C827 C 0.28588 0.86827 0.46435
 C828 C 0.30389 0.88057 0.46660
 H829 H 0.26357 0.86646 0.43961
 H830 H 0.31517 0.88055 0.47844
 H831 H 0.29739 0.92588 0.42953
 H832 H 0.31761 0.91699 0.41105
 O833 O 0.26632 0.46199 0.77101
 O834 O 0.27411 0.47327 0.74007
 O835 O 0.29269 0.50784 0.80729
 O836 O 0.28927 0.54097 0.81193
 O837 O 0.22871 0.48455 0.81782
 O838 O 0.19360 0.49254 0.80459
 O839 O 0.25628 0.57317 0.75550
 O840 O 0.29059 0.56246 0.76515
 O841 O 0.23083 0.53016 0.71879
 O842 O 0.22815 0.49252 0.72003
 O843 O 0.19246 0.55064 0.76288
 O844 O 0.18886 0.54496 0.79680
 O845 O 0.22273 0.57311 0.77031
 O846 O 0.21562 0.56147 0.80577
 O847 O 0.19647 0.52993 0.73704
 O848 O 0.19970 0.49187 0.73596
 O849 O 0.25856 0.55107 0.72738
 O850 O 0.29471 0.53839 0.73959
 O851 O 0.23300 0.46179 0.78629
 O852 O 0.19646 0.47455 0.78001
 O853 O 0.25480 0.50700 0.82692
 O854 O 0.25732 0.54458 0.82349
 O855 O 0.29692 0.48552 0.78266
 O856 O 0.30024 0.49666 0.74823
 Zr857 Zr 0.27073 0.49249 0.76420
 O858 O 0.25883 0.51419 0.74482
 Zr859 Zr 0.26340 0.52294 0.80172
 O860 O 0.25251 0.54631 0.78384
 Zr861 Zr 0.22338 0.49221 0.78871
 O862 O 0.20982 0.51457 0.77088
 Zr863 Zr 0.26549 0.54284 0.75593
 O864 O 0.27916 0.52122 0.77459
 Zr865 Zr 0.22446 0.51267 0.74344
 O866 O 0.23656 0.48910 0.76079
 Zr867 Zr 0.21852 0.54340 0.78079
 O868 O 0.22910 0.52102 0.80032
 O869 O 0.25701 0.49415 0.79167
 O870 O 0.23165 0.54139 0.75322
 C871 C 0.25018 0.45299 0.77935
 C872 C 0.30271 0.49334 0.79873
 C873 C 0.24142 0.49245 0.83035
 C874 C 0.23841 0.58179 0.76091
 C875 C 0.24424 0.54469 0.71546
 C876 C 0.18702 0.54439 0.74619
 H877 H 0.26586 0.51243 0.73203
 H878 H 0.19374 0.51289 0.77040
 H879 H 0.26268 0.48342 0.80011
 H880 H 0.25664 0.55950 0.78931
 H881 H 0.30211 0.55387 0.77080
 H882 H 0.29167 0.55167 0.80225
 H883 H 0.18666 0.49468 0.74413
 H884 H 0.20005 0.46965 0.76691
 H885 H 0.29767 0.55090 0.73222
 H886 H 0.30972 0.48472 0.75018
 H887 H 0.18102 0.53214 0.79475
 H888 H 0.19403 0.50465 0.81287
 H889 H 0.25909 0.47003 0.73587
 H890 H 0.24288 0.49464 0.71428
 H891 H 0.24213 0.54239 0.82820
 H892 H 0.22735 0.57175 0.80525
 O893 O 0.23715 -0.03324 0.30116
 O894 O 0.20331 -0.03110 0.28696
 O895 O 0.27999 -0.04572 0.25200
 O896 O 0.29231 -0.03030 0.22563
 O897 O 0.29696 -0.00032 0.29500
 O898 O 0.28665 0.03362 0.29949
 O899 O 0.23462 0.01852 0.20542
 O900 O 0.24120 -0.01598 0.20356
 O901 O 0.19033 0.02762 0.25069
 O902 O 0.18844 0.01915 0.28435
 O903 O 0.24719 0.06225 0.24482
 O904 O 0.28471 0.05836 0.25421
 O905 O 0.25860 0.04222 0.21599
 O906 O 0.29560 0.03979 0.23266
 O907 O 0.21580 0.05550 0.26161
 O908 O 0.20951 0.03942 0.29452
 O909 O 0.19986 0.01190 0.22277
 O910 O 0.20923 -0.02495 0.22233
 O911 O 0.25734 -0.00717 0.31285
 O912 O 0.25707 0.02907 0.31288
 O913 O 0.30701 -0.01832 0.26851
 O914 O 0.30846 -0.00455 0.23443
 O915 O 0.24976 -0.05293 0.27022
 O916 O 0.21232 -0.04581 0.25815
 Zr917 Zr 0.23322 -0.02513 0.27223
 O918 O 0.21558 -0.00405 0.25595
 Zr919 Zr 0.28019 -0.01429 0.24975
 O920 O 0.26418 0.00635 0.23166
 Zr921 Zr 0.26568 0.01095 0.28897
 O922 O 0.25014 0.03340 0.27272
 Zr923 Zr 0.23080 -0.00093 0.22891
 O924 O 0.24763 -0.02340 0.24457
 Zr925 Zr 0.21759 0.02468 0.26838
 O926 O 0.23258 0.00313 0.28612
 Zr927 Zr 0.26415 0.03473 0.24494
 O928 O 0.28196 0.01444 0.26233
 O929 O 0.26581 -0.01759 0.27680
 O930 O 0.23128 0.02768 0.24101
 C931 C 0.24625 -0.02353 0.31486
 C932 C 0.26732 -0.05799 0.26105
 C933 C 0.31056 -0.01132 0.28545
 C934 C 0.24620 0.03451 0.20315
 C935 C 0.18651 0.02216 0.23339
 C936 C 0.22847 0.06728 0.25192
 H937 H 0.20025 -0.00867 0.25475
 H938 H 0.25103 0.04650 0.27940
 H939 H 0.27310 -0.02779 0.28489
 H940 H 0.27165 0.00655 0.21896
 H941 H 0.24556 -0.02972 0.20749
 H942 H 0.28150 -0.02837 0.21535
 H943 H 0.21990 0.05069 0.29623
 H944 H 0.24121 0.02697 0.31529
 H945 H 0.20222 -0.02181 0.20991
 H946 H 0.21184 -0.05852 0.26563
 H947 H 0.28093 0.06121 0.26779
 H948 H 0.29661 0.03731 0.28870
 H949 H 0.20008 -0.01916 0.29501
 H950 H 0.18191 0.00660 0.27935
 H951 H 0.31558 0.00587 0.24238
 H952 H 0.29677 0.03164 0.22079
 O953 O 0.54107 0.70353 0.22496
 O954 O 0.55074 0.70704 0.25704
 O955 O 0.47465 0.68462 0.22560
 O956 O 0.44212 0.69593 0.23668
 O957 O 0.49668 0.73281 0.18892
 O958 O 0.50236 0.76780 0.19374
 O959 O 0.45277 0.74391 0.28916
 O960 O 0.45294 0.70973 0.28532
 O961 O 0.51754 0.76387 0.29061
 O962 O 0.54971 0.75832 0.27263
 O963 O 0.47471 0.79338 0.25484
 O964 O 0.45906 0.78791 0.22527
 O965 O 0.44484 0.76869 0.26771
 O966 O 0.43644 0.76565 0.23094
 O967 O 0.50998 0.79016 0.26451
 O968 O 0.54510 0.77569 0.24902
 O969 O 0.48964 0.74381 0.30110
 O970 O 0.49029 0.70611 0.29505
 O971 O 0.53616 0.72896 0.20338
 O972 O 0.53336 0.76616 0.20631
 O973 O 0.46890 0.71232 0.19897
 O974 O 0.43610 0.72199 0.21994
 O975 O 0.50938 0.68105 0.23670
 O976 O 0.52213 0.68913 0.26993
 Zr977 Zr 0.51831 0.70972 0.24689
 O978 O 0.51230 0.72991 0.26959
 Zr979 Zr 0.46821 0.71546 0.22923
 O980 O 0.45953 0.73474 0.25212
 Zr981 Zr 0.50872 0.74530 0.21441
 O982 O 0.50062 0.76668 0.23578
 Zr983 Zr 0.47884 0.72887 0.27627
 O984 O 0.48495 0.70736 0.25449
 Zr985 Zr 0.51806 0.75965 0.26067
 O986 O 0.52753 0.73918 0.23881
 Zr987 Zr 0.46736 0.76442 0.24433
 O988 O 0.47467 0.74526 0.22053
 O989 O 0.50125 0.71592 0.22199
 O990 O 0.48518 0.75877 0.26895
 C991 C 0.54583 0.71287 0.20930
 C992 C 0.49191 0.67420 0.22889
 C993 C 0.48145 0.71991 0.18583
 C994 C 0.44174 0.75921 0.28375
 C995 C 0.50472 0.75696 0.30383
 C996 C 0.49253 0.80050 0.26171
 H997 H 0.52120 0.72629 0.28086
 H998 H 0.50418 0.78025 0.23080
 H999 H 0.50492 0.70616 0.21172
 H1000 H 0.44376 0.73304 0.25519
 H1001 H 0.45594 0.69634 0.27961
 H1002 H 0.43917 0.69798 0.25054
 H1003 H 0.53928 0.78626 0.24046
 H1004 H 0.54648 0.76285 0.21390
 H1005 H 0.48352 0.70850 0.30789
 H1006 H 0.53014 0.67713 0.26506
 H1007 H 0.47200 0.79012 0.21683
 H1008 H 0.48623 0.76908 0.19310
 H1009 H 0.55839 0.71971 0.25361
 H1010 H 0.55208 0.74431 0.27691
 H1011 H 0.43740 0.73276 0.21015
 H1012 H 0.42609 0.75742 0.23868
 O1013 O -0.01616 0.71391 0.71544
 O1014 O -0.04898 0.72372 0.72921
 O1015 O 0.00261 0.76757 0.68329
 O1016 O 0.01201 0.79933 0.68919
 O1017 O 0.05072 0.73560 0.71829
 O1018 O 0.05752 0.73449 0.75129
 O1019 O -0.02172 0.81960 0.75295
 O1020 O -0.03196 0.81659 0.72132
 O1021 O -0.04196 0.76823 0.78224
 O1022 O -0.03873 0.73203 0.77743
 O1023 O 0.02190 0.78856 0.78720
 O1024 O 0.05480 0.78572 0.76940
 O1025 O 0.01331 0.81659 0.76345
 O1026 O 0.04973 0.80510 0.74733
 O1027 O -0.00470 0.76610 0.79551
 O1028 O -0.00772 0.72883 0.78684
 O1029 O -0.05022 0.79427 0.76238
 O1030 O -0.05856 0.79043 0.72742
 O1031 O 0.01846 0.71018 0.72686
 O1032 O 0.03171 0.71539 0.75989
 O1033 O 0.04338 0.76112 0.69752
 O1034 O 0.04023 0.79851 0.70518
 O1035 O -0.02173 0.74275 0.69088
 O1036 O -0.05521 0.75156 0.71082
 Zr1037 Zr -0.02372 0.74404 0.72121
 O1038 O -0.03388 0.76122 0.74514
 Zr1039 Zr 0.01592 0.77622 0.70970
 O1040 O 0.00638 0.79551 0.73235
 Zr1041 Zr 0.02610 0.73829 0.73941
 O1042 O 0.01852 0.75628 0.76352
 Zr1043 Zr -0.02694 0.79163 0.73968
 O1044 O -0.01823 0.77466 0.71486
 Zr1045 Zr -0.01516 0.75391 0.76928
 O1046 O -0.00728 0.73458 0.74613
 Zr1047 Zr 0.02334 0.78691 0.75706
 O1048 O 0.03440 0.76860 0.73394
 O1049 O 0.00955 0.74600 0.71464
 O1050 O -0.00969 0.78440 0.76434
 C1051 C 0.00113 0.70352 0.71860
 C1052 C -0.01092 0.75361 0.67875
 C1053 C 0.05472 0.74586 0.70303
 C1054 C -0.00459 0.82651 0.76120
 C1055 C -0.05341 0.78359 0.77760
 C1056 C 0.00949 0.77968 0.79958
 H1057 H -0.04974 0.75908 0.74746
 H1058 H 0.02735 0.75203 0.77461
 H1059 H 0.01386 0.73736 0.70363
 H1060 H 0.00942 0.80961 0.72857
 H1061 H -0.03326 0.81110 0.70815
 H1062 H 0.00032 0.80821 0.69431
 H1063 H 0.00716 0.73077 0.79198
 H1064 H 0.01732 0.70912 0.76277
 H1065 H -0.06694 0.80231 0.73208
 H1066 H -0.05914 0.74182 0.70062
 H1067 H 0.05734 0.77163 0.77336
 H1068 H 0.06504 0.74764 0.74998
 H1069 H -0.04448 0.71740 0.74142
 H1070 H -0.05210 0.73458 0.76993
 H1071 H 0.05367 0.79371 0.71154
 H1072 H 0.04352 0.81646 0.73999
 O1073 O -0.01442 0.04538 0.03459
 O1074 O -0.04898 0.04247 0.02333
 O1075 O -0.00458 -0.00857 0.06776
 O1076 O -0.00946 -0.04177 0.06232
 O1077 O 0.04517 0.01071 0.03052
 O1078 O 0.05162 0.00971 -0.00321
 O1079 O -0.04478 -0.05784 0.00232
 O1080 O -0.05466 -0.05087 0.03310
 O1081 O -0.05530 -0.00337 -0.02873
 O1082 O -0.04238 0.03103 -0.02577
 O1083 O 0.00480 -0.03533 -0.03664
 O1084 O 0.03674 -0.04000 -0.01926
 O1085 O -0.01160 -0.06175 -0.01261
 O1086 O 0.02669 -0.05812 0.00235
 O1087 O -0.01793 -0.00952 -0.04436
 O1088 O -0.01224 0.02740 -0.03681
 O1089 O -0.06738 -0.02823 -0.00878
 O1090 O -0.07448 -0.02090 0.02608
 O1091 O 0.01982 0.04249 0.02136
 O1092 O 0.03113 0.03340 -0.01136
 O1093 O 0.03325 -0.01363 0.05117
 O1094 O 0.02046 -0.04837 0.04550
 O1095 O -0.02669 0.01788 0.06040
 O1096 O -0.06167 0.01675 0.04134
 Zr1097 Zr -0.02914 0.01738 0.03014
 O1098 O -0.04380 0.00217 0.00716
 Zr1099 Zr 0.00224 -0.02169 0.04094
 O1100 O -0.01209 -0.03904 0.01917
 Zr1101 Zr 0.02035 0.01276 0.00989
 O1102 O 0.00787 -0.00384 -0.01339
 Zr1103 Zr -0.04386 -0.02868 0.01327
 O1104 O -0.03079 -0.01334 0.03724
 Zr1105 Zr -0.02467 0.00493 -0.01800
 O1106 O -0.01163 0.02272 0.00428
 Zr1107 Zr 0.00561 -0.03468 -0.00654
 O1108 O 0.02131 -0.01845 0.01568
 O1109 O 0.00302 0.00905 0.03541
 O1110 O -0.02633 -0.02588 -0.01254
 C1111 C 0.00449 0.05253 0.03000
 C1112 C -0.01608 0.00690 0.07235
 C1113 C 0.04738 -0.00064 0.04534
 C1114 C -0.03072 -0.06813 -0.00736
 C1115 C -0.06935 -0.01671 -0.02352
 C1116 C -0.00573 -0.02463 -0.04876
 H1117 H -0.05885 0.00735 0.00548
 H1118 H 0.01730 -0.00157 -0.02485
 H1119 H 0.00970 0.01705 0.04579
 H1120 H -0.01227 -0.05331 0.02319
 H1121 H -0.05402 -0.04467 0.04602
 H1122 H -0.01931 -0.05139 0.05590
 H1123 H 0.00205 0.02273 -0.04201
 H1124 H 0.01829 0.04177 -0.01461
 H1125 H -0.08548 -0.03096 0.02199
 H1126 H -0.06288 0.02650 0.05211
 H1127 H 0.04270 -0.02676 -0.02318
 H1128 H 0.05631 -0.00435 -0.00094
 H1129 H -0.04412 0.04714 0.01046
 H1130 H -0.05555 0.03176 -0.01735
 H1131 H 0.03378 -0.04749 0.03726
 H1132 H 0.01793 -0.06771 0.01017
 O1133 O 0.04930 0.50878 0.54497
 O1134 O 0.05212 0.50653 0.51115
 O1135 O -0.01606 0.52765 0.55599
 O1136 O -0.05002 0.51777 0.55042
 O1137 O 0.01185 0.47789 0.58643
 O1138 O 0.01632 0.44260 0.57857
 O1139 O -0.04934 0.46799 0.49424
 O1140 O -0.05176 0.50313 0.50129
 O1141 O 0.01346 0.45396 0.48097
 O1142 O 0.04891 0.45664 0.49575
 O1143 O -0.02114 0.42033 0.52553
 O1144 O -0.03185 0.42670 0.55798
 O1145 O -0.05129 0.44269 0.51633
 O1146 O -0.05633 0.44688 0.55325
 O1147 O 0.00640 0.42523 0.50373
 O1148 O 0.04540 0.43492 0.51649
 O1149 O -0.01621 0.47403 0.47630
 O1150 O -0.01664 0.51022 0.48532
 O1151 O 0.04741 0.48238 0.56587
 O1152 O 0.04522 0.44640 0.56193
 O1153 O -0.01834 0.49748 0.58210
 O1154 O -0.05420 0.49067 0.56594
 O1155 O 0.01606 0.53230 0.53954
 O1156 O 0.02164 0.52550 0.50448
 Zr1157 Zr 0.02230 0.50381 0.52687
 O1158 O 0.01137 0.48460 0.50479
 Zr1159 Zr -0.02379 0.49714 0.55227
 O1160 O -0.03701 0.47855 0.53088
 Zr1161 Zr 0.01881 0.46667 0.55876
 O1162 O 0.00708 0.44612 0.53832
 Zr1163 Zr -0.02303 0.48553 0.50394
 O1164 O -0.01214 0.50622 0.52494
 Zr1165 Zr 0.01870 0.45431 0.51084
 O1166 O 0.03242 0.47382 0.53168
 Zr1167 Zr -0.02709 0.44896 0.53660
 O1168 O -0.01567 0.46726 0.55909
 O1169 O 0.01009 0.49642 0.55393
 O1170 O -0.01501 0.45565 0.50926
 C1171 C 0.05630 0.49859 0.55940
 C1172 C 0.00011 0.53859 0.55026
 C1173 C -0.00352 0.48951 0.59262
 C1174 C -0.05707 0.45122 0.50065
 C1175 C -0.00109 0.46210 0.47025
 C1176 C -0.00897 0.41449 0.51149
 H1177 H 0.01797 0.48907 0.49244
 H1178 H 0.01155 0.43232 0.54189
 H1179 H 0.01555 0.50566 0.56394
 H1180 H -0.05314 0.47985 0.53055
 H1181 H -0.04821 0.51664 0.50639
 H1182 H -0.05710 0.51523 0.53796
 H1183 H 0.03959 0.42273 0.52297
 H1184 H 0.05482 0.44820 0.55048
 H1185 H -0.02660 0.50908 0.47423
 H1186 H 0.03104 0.53703 0.50815
 H1187 H -0.01720 0.42149 0.56131
 H1188 H 0.00083 0.44209 0.58295
 H1189 H 0.06037 0.49388 0.51317
 H1190 H 0.04948 0.47027 0.49004
 H1191 H -0.05192 0.47866 0.57411
 H1192 H -0.06811 0.45395 0.54633
 O1193 O 0.49786 0.04970 0.51108
 O1194 O 0.46437 0.04294 0.49566
 O1195 O 0.50471 0.00319 0.55209
 O1196 O 0.50054 -0.03109 0.55168
 O1197 O 0.55798 0.01647 0.51565
 O1198 O 0.56714 0.00843 0.48277
 O1199 O 0.47283 -0.05979 0.49110
 O1200 O 0.46112 -0.04853 0.52125
 O1201 O 0.46315 -0.01079 0.45323
 O1202 O 0.47453 0.02448 0.45232
 O1203 O 0.52263 -0.04232 0.45380
 O1204 O 0.55619 -0.03942 0.47449
 O1205 O 0.50849 -0.06374 0.48182
 O1206 O 0.54438 -0.05724 0.49524
 O1207 O 0.50090 -0.01803 0.44115
 O1208 O 0.50545 0.01976 0.44296
 O1209 O 0.45007 -0.03239 0.47602
 O1210 O 0.44010 -0.02074 0.50893
 O1211 O 0.53209 0.04480 0.49832
 O1212 O 0.54872 0.03102 0.47065
 O1213 O 0.54448 -0.00431 0.53898
 O1214 O 0.53297 -0.03921 0.53928
 O1215 O 0.48282 0.02706 0.53885
 O1216 O 0.45052 0.02149 0.51873
 Zr1217 Zr 0.48373 0.02076 0.50925
 O1218 O 0.47141 0.00077 0.48852
 Zr1219 Zr 0.51453 -0.01481 0.52844
 O1220 O 0.50348 -0.03634 0.50852
 Zr1221 Zr 0.53501 0.01377 0.49333
 O1222 O 0.52479 -0.00630 0.47185
 Zr1223 Zr 0.47193 -0.02895 0.49905
 O1224 O 0.48195 -0.00858 0.52089
 Zr1225 Zr 0.49238 0.00040 0.46444
 O1226 O 0.50353 0.02197 0.48421
 Zr1227 Zr 0.52318 -0.03539 0.48346
 O1228 O 0.53592 -0.01564 0.50440
 O1229 O 0.51547 0.01441 0.51792
 O1230 O 0.49158 -0.02917 0.47436
 C1231 C 0.51672 0.05601 0.50519
 C1232 C 0.49236 0.01889 0.55321
 C1233 C 0.55908 0.00770 0.53211
 C1234 C 0.48912 -0.07054 0.48507
 C1235 C 0.44907 -0.02353 0.45962
 C1236 C 0.51252 -0.03403 0.43975
 H1237 H 0.45636 0.00494 0.48525
 H1238 H 0.53484 -0.00558 0.46062
 H1239 H 0.52107 0.02432 0.52727
 H1240 H 0.50358 -0.04978 0.51462
 H1241 H 0.45968 -0.04023 0.53302
 H1242 H 0.49335 -0.04310 0.54621
 H1243 H 0.51989 0.01442 0.43882
 H1244 H 0.53624 0.03617 0.46317
 H1245 H 0.43004 -0.03207 0.50614
 H1246 H 0.44793 0.03415 0.52599
 H1247 H 0.55923 -0.03000 0.46376
 H1248 H 0.57157 -0.00489 0.48780
 H1249 H 0.47247 0.04724 0.48394
 H1250 H 0.46051 0.02565 0.45953
 H1251 H 0.54625 -0.04040 0.53103
 H1252 H 0.53695 -0.06300 0.50671
 O1253 O 0.52508 0.53400 0.03429
 O1254 O 0.48749 0.53573 0.03390
 O1255 O 0.53720 0.47420 0.05705
 O1256 O 0.53027 0.44217 0.04878
 O1257 O 0.57317 0.49731 0.00856
 O1258 O 0.56600 0.49766 -0.02504
 O1259 O 0.46785 0.43941 0.00474
 O1260 O 0.47290 0.44264 0.03737
 O1261 O 0.45405 0.49814 -0.01567
 O1262 O 0.47155 0.53030 -0.01428
 O1263 O 0.50071 0.46150 -0.04435
 O1264 O 0.53744 0.45321 -0.04018
 O1265 O 0.49268 0.43474 -0.01959
 O1266 O 0.53530 0.43295 -0.01754
 O1267 O 0.48166 0.49087 -0.04232
 O1268 O 0.49578 0.52622 -0.03370
 O1269 O 0.44765 0.47117 0.00376
 O1270 O 0.45550 0.47492 0.03938
 O1271 O 0.54969 0.52991 0.00962
 O1272 O 0.54648 0.52388 -0.02508
 O1273 O 0.56745 0.47155 0.02962
 O1274 O 0.54912 0.43758 0.02359
 O1275 O 0.51963 0.50437 0.05941
 O1276 O 0.47941 0.50882 0.05299
 Zr1277 Zr 0.50513 0.50832 0.03215
 O1278 O 0.47996 0.49763 0.01443
 Zr1279 Zr 0.53336 0.46556 0.02836
 O1280 O 0.50849 0.45254 0.01171
 Zr1281 Zr 0.54210 0.50212 -0.00317
 O1282 O 0.51872 0.49006 -0.02193
 Zr1283 Zr 0.47802 0.46628 0.01738
 O1284 O 0.50223 0.47702 0.03641
 Zr1285 Zr 0.48802 0.50227 -0.01469
 O1286 O 0.51170 0.51564 0.00306
 Zr1287 Zr 0.51515 0.45890 -0.01730
 O1288 O 0.54128 0.47050 -0.00075
 O1289 O 0.53583 0.49657 0.02572
 O1290 O 0.48446 0.47129 -0.01165
 C1291 C 0.54142 0.53983 0.02384
 C1292 C 0.53132 0.49002 0.06636
 C1293 C 0.57972 0.48489 0.02139
 C1294 C 0.47542 0.42973 -0.00985
 C1295 C 0.44149 0.48465 -0.00832
 C1296 C 0.48775 0.47481 -0.05120
 H1297 H 0.46595 0.50417 0.01809
 H1298 H 0.52302 0.49300 -0.03539
 H1299 H 0.54693 0.50259 0.03420
 H1300 H 0.50783 0.43791 0.01429
 H1301 H 0.47926 0.44717 0.04965
 H1302 H 0.51501 0.43730 0.04802
 H1303 H 0.50510 0.52080 -0.04423
 H1304 H 0.53496 0.53419 -0.02305
 H1305 H 0.44216 0.46654 0.03801
 H1306 H 0.48383 0.51761 0.06379
 H1307 H 0.54455 0.46618 -0.04336
 H1308 H 0.57000 0.48322 -0.02467
 H1309 H 0.48843 0.54198 0.02100
 H1310 H 0.46382 0.53142 -0.00173
 H1311 H 0.55964 0.43955 0.01279
 H1312 H 0.52857 0.42293 -0.00874
 O1313 O 0.78820 0.24907 0.43744
 O1314 O 0.78072 0.21442 0.44226
 O1315 O 0.72622 0.27748 0.43432
 O1316 O 0.69422 0.27545 0.45194
 O1317 O 0.77384 0.30148 0.46930
 O1318 O 0.78617 0.29336 0.50213
 O1319 O 0.69254 0.22536 0.50351
 O1320 O 0.68266 0.23058 0.47173
 O1321 O 0.75218 0.19514 0.50338
 O1322 O 0.78842 0.20125 0.48705
 O1323 O 0.74205 0.24548 0.53693
 O1324 O 0.74536 0.28333 0.53017
 O1325 O 0.70459 0.24963 0.52395
 O1326 O 0.71395 0.28497 0.52139
 O1327 O 0.76605 0.22128 0.52710
 O1328 O 0.79915 0.22145 0.50634
 O1329 O 0.71774 0.19754 0.49142
 O1330 O 0.70755 0.20606 0.45840
 O1331 O 0.80045 0.27177 0.45943
 O1332 O 0.80818 0.27076 0.49267
 O1333 O 0.73849 0.30337 0.45936
 O1334 O 0.70403 0.29709 0.47546
 O1335 O 0.74781 0.25129 0.42460
 O1336 O 0.74530 0.21512 0.43247
 Zr1337 Zr 0.75886 0.23790 0.45011
 O1338 O 0.74770 0.21889 0.47240
 Zr1339 Zr 0.72560 0.27476 0.46450
 O1340 O 0.71334 0.25741 0.48749
 Zr1341 Zr 0.77631 0.27220 0.48126
 O1342 O 0.76641 0.25424 0.50486
 Zr1343 Zr 0.71549 0.22679 0.48048
 O1344 O 0.72560 0.24426 0.45647
 Zr1345 Zr 0.76634 0.22361 0.49706
 O1346 O 0.77902 0.24141 0.47422
 Zr1347 Zr 0.73355 0.26071 0.51152
 O1348 O 0.74417 0.28030 0.48926
 O1349 O 0.75782 0.26829 0.45683
 O1350 O 0.73415 0.23009 0.50512
 C1351 C 0.80222 0.26207 0.44350
 C1352 C 0.73586 0.26680 0.42131
 C1353 C 0.75767 0.31076 0.46147
 C1354 C 0.69108 0.23582 0.51909
 C1355 C 0.73319 0.18782 0.49957
 C1356 C 0.75488 0.23054 0.54008
 H1357 H 0.74846 0.20478 0.46789
 H1358 H 0.77606 0.25681 0.51588
 H1359 H 0.76337 0.27668 0.44608
 H1360 H 0.69803 0.26136 0.49037
 H1361 H 0.68330 0.23521 0.45821
 H1362 H 0.68375 0.26928 0.46118
 H1363 H 0.80216 0.23326 0.51454
 H1364 H 0.81333 0.25679 0.49060
 H1365 H 0.69559 0.19721 0.46323
 H1366 H 0.75180 0.21627 0.41936
 H1367 H 0.75975 0.27894 0.53504
 H1368 H 0.77293 0.30114 0.50581
 H1369 H 0.79289 0.21476 0.45150
 H1370 H 0.78069 0.19289 0.47753
 H1371 H 0.71160 0.30373 0.48624
 H1372 H 0.70058 0.28525 0.51352
 O1373 O 0.77053 0.79571 -0.03499
 O1374 O 0.77799 0.79895 -0.00227
 O1375 O 0.78882 0.73528 -0.04920
 O1376 O 0.77988 0.70400 -0.04011
 O1377 O 0.72736 0.76069 -0.06644
 O1378 O 0.69206 0.76302 -0.04998
 O1379 O 0.74591 0.70433 0.02502
 O1380 O 0.78034 0.70397 0.01060
 O1381 O 0.73056 0.76184 0.04175
 O1382 O 0.73297 0.79550 0.02553
 O1383 O 0.68588 0.73014 0.01085
 O1384 O 0.68045 0.72097 -0.02184
 O1385 O 0.71316 0.70038 0.01015
 O1386 O 0.70314 0.69896 -0.02519
 O1387 O 0.69456 0.75976 0.02528
 O1388 O 0.70380 0.79333 0.01198
 O1389 O 0.75591 0.73671 0.04096
 O1390 O 0.79130 0.73607 0.02284
 O1391 O 0.73687 0.79286 -0.04860
 O1392 O 0.69978 0.79034 -0.03529
 O1393 O 0.75036 0.73370 -0.06689
 O1394 O 0.74672 0.70068 -0.04953
 O1395 O 0.79770 0.76477 -0.03452
 O1396 O 0.80055 0.77174 0.00026
 Zr1397 Zr 0.77121 0.77111 -0.01578
 O1398 O 0.75812 0.76117 0.01070
 Zr1399 Zr 0.75759 0.72827 -0.03777
 O1400 O 0.74455 0.71644 -0.01197
 Zr1401 Zr 0.72288 0.76665 -0.03691
 O1402 O 0.70781 0.75628 -0.01136
 Zr1403 Zr 0.75984 0.72967 0.01171
 O1404 O 0.77498 0.73956 -0.01409
 Zr1405 Zr 0.72456 0.76781 0.01247
 O1406 O 0.73813 0.78000 -0.01317
 Zr1407 Zr 0.71147 0.72489 -0.00918
 O1408 O 0.72388 0.73500 -0.03620
 O1409 O 0.75583 0.75933 -0.03967
 O1410 O 0.72670 0.73662 0.01492
 C1411 C 0.75554 0.80151 -0.04662
 C1412 C 0.80180 0.75015 -0.04613
 C1413 C 0.73899 0.74737 -0.07525
 C1414 C 0.72767 0.69513 0.02242
 C1415 C 0.74358 0.74936 0.04989
 C1416 C 0.68214 0.74443 0.02294
 H1417 H 0.76640 0.76729 0.02133
 H1418 H 0.69222 0.76029 -0.01123
 H1419 H 0.76283 0.76440 -0.05162
 H1420 H 0.74641 0.70165 -0.01186
 H1421 H 0.79223 0.70706 0.00123
 H1422 H 0.77960 0.69693 -0.02761
 H1423 H 0.69080 0.78983 0.00434
 H1424 H 0.70570 0.80034 -0.02618
 H1425 H 0.79336 0.72770 0.03449
 H1426 H 0.81140 0.78038 -0.00657
 H1427 H 0.67513 0.73446 -0.02553
 H1428 H 0.69095 0.74866 -0.05368
 H1429 H 0.76374 0.80574 -0.00009
 H1430 H 0.74785 0.79414 0.03082
 H1431 H 0.73175 0.70301 -0.05438
 H1432 H 0.71511 0.68906 -0.02376
 O1433 O 0.99023 0.21016 0.22205
 O1434 O 0.95775 0.21844 0.23856
 O1435 O 1.00716 0.26159 0.18949
 O1436 O 1.00769 0.29553 0.19610
 O1437 O 1.05607 0.23486 0.22174
 O1438 O 1.06498 0.23308 0.25486
 O1439 O 0.98401 0.31471 0.26263
 O1440 O 0.97137 0.31250 0.23102
 O1441 O 0.96630 0.26266 0.29128
 O1442 O 0.97023 0.22632 0.28509
 O1443 O 1.02756 0.28591 0.29320
 O1444 O 1.06224 0.28003 0.27239
 O1445 O 1.02020 0.31265 0.26995
 O1446 O 1.05491 0.30305 0.25439
 O1447 O 1.00513 0.26028 0.30260
 O1448 O 1.00156 0.22377 0.29348
 O1449 O 0.95647 0.28899 0.27232
 O1450 O 0.94562 0.28574 0.23806
 O1451 O 1.02575 0.20736 0.23157
 O1452 O 1.04112 0.21187 0.26326
 O1453 O 1.04669 0.26113 0.20247
 O1454 O 1.04109 0.29676 0.20903
 O1455 O 0.98086 0.23919 0.19887
 O1456 O 0.94880 0.24610 0.22079
 Zr1457 Zr 0.98139 0.23976 0.22919
 O1458 O 0.97233 0.25647 0.25373
 Zr1459 Zr 1.01857 0.27342 0.21566
 O1460 O 1.01074 0.29194 0.23937
 Zr1461 Zr 1.03277 0.23548 0.24434
 O1462 O 1.02599 0.25242 0.26933
 Zr1463 Zr 0.97813 0.28718 0.24846
 O1464 O 0.98507 0.27063 0.22292
 Zr1465 Zr 0.99274 0.24903 0.27670
 O1466 O 1.00005 0.23043 0.25288
 Zr1467 Zr 1.02952 0.28319 0.26305
 O1468 O 1.03917 0.26612 0.23872
 O1469 O 1.01403 0.24299 0.22087
 O1470 O 0.99712 0.27967 0.27195
 C1471 C 1.00826 0.20037 0.22385
 C1472 C 0.99265 0.24807 0.18597
 C1473 C 1.05899 0.24623 0.20696
 C1474 C 1.00178 0.32190 0.26966
 C1475 C 0.95435 0.27801 0.28746
 C1476 C 1.01728 0.27558 0.30605
 H1477 H 0.95669 0.25398 0.25678
 H1478 H 1.03565 0.24817 0.27986
 H1479 H 1.01835 0.23456 0.20974
 H1480 H 1.01320 0.30618 0.23582
 H1481 H 0.96892 0.30729 0.21789
 H1482 H 1.00270 0.30721 0.20380
 H1483 H 1.01724 0.22506 0.29665
 H1484 H 1.02716 0.20568 0.26762
 H1485 H 0.93745 0.29748 0.24328
 H1486 H 0.94445 0.23620 0.21087
 H1487 H 1.06233 0.27048 0.28330
 H1488 H 1.07136 0.24676 0.25407
 H1489 H 0.96400 0.21146 0.24979
 H1490 H 0.95621 0.22906 0.27862
 H1491 H 1.05443 0.29409 0.21656
 H1492 H 1.04876 0.31241 0.24481
 O1493 O 0.75783 1.06161 0.72720
 O1494 O 0.79071 1.05382 0.74327
 O1495 O 0.74500 1.00903 0.69380
 O1496 O 0.74552 0.97496 0.70028
 O1497 O 0.69371 1.03326 0.72702
 O1498 O 0.68454 1.03245 0.76135
 O1499 O 0.76926 0.95549 0.76537
 O1500 O 0.78114 0.95917 0.73288
 O1501 O 0.78490 1.00696 0.79437
 O1502 O 0.78039 1.04399 0.78822
 O1503 O 0.72413 0.98370 0.79811
 O1504 O 0.68956 0.98786 0.77713
 O1505 O 0.73338 0.95692 0.77464
 O1506 O 0.69868 0.96421 0.76038
 O1507 O 0.74588 1.00991 0.80670
 O1508 O 0.74954 1.04576 0.79807
 O1509 O 0.79601 0.98186 0.77423
 O1510 O 0.80638 0.98632 0.74017
 O1511 O 0.72295 1.06214 0.73949
 O1512 O 0.70504 1.05572 0.76835
 O1513 O 0.70527 1.00816 0.70706
 O1514 O 0.71138 0.97309 0.71305
 O1515 O 0.76932 1.03304 0.70302
 O1516 O 0.80123 1.02773 0.72363
 Zr1517 Zr 0.76837 1.03192 0.73322
 O1518 O 0.77857 1.01457 0.75688
 Zr1519 Zr 0.73330 0.99663 0.71997
 O1520 O 0.74155 0.97801 0.74333
 Zr1521 Zr 0.71669 1.03296 0.74961
 O1522 O 0.72500 1.01646 0.77429
 Zr1523 Zr 0.77397 0.98367 0.75139
 O1524 O 0.76646 1.00091 0.72655
 Zr1525 Zr 0.75826 1.02085 0.78060
 O1526 O 0.74914 1.03948 0.75753
 Zr1527 Zr 0.72266 0.98575 0.76779
 O1528 O 0.71218 1.00230 0.74362
 O1529 O 0.73596 1.02726 0.72550
 O1530 O 0.75501 0.99015 0.77569
 C1531 C 0.73973 1.07059 0.73162
 C1532 C 0.75879 1.02326 0.69019
 C1533 C 0.69191 1.02219 0.71191
 C1534 C 0.75192 0.94798 0.77345
 C1535 C 0.79751 0.99216 0.78974
 C1536 C 0.73382 0.99467 0.81064
 H1537 H 0.79415 1.01747 0.75950
 H1538 H 0.71529 1.02035 0.78514
 H1539 H 0.73145 1.03593 0.71468
 H1540 H 0.73958 0.96372 0.73975
 H1541 H 0.78374 0.96496 0.71993
 H1542 H 0.74935 0.96280 0.70772
 H1543 H 0.73371 1.04467 0.80116
 H1544 H 0.71800 1.06092 0.77515
 H1545 H 0.81480 0.97438 0.74440
 H1546 H 0.80514 1.03870 0.71452
 H1547 H 0.68879 0.99748 0.78798
 H1548 H 0.67811 1.01932 0.75779
 H1549 H 0.78365 1.06045 0.75448
 H1550 H 0.79485 1.04081 0.78238
 H1551 H 0.69835 0.97469 0.72155
 H1552 H 0.70465 0.95629 0.74947
 O1553 O 0.79590 0.47070 0.25662
 O1554 O 0.79783 0.47617 0.22466
 O1555 O 0.83256 0.51919 0.28169
 O1556 O 0.83276 0.55313 0.27709
 O1557 O 0.77291 0.50366 0.30658
 O1558 O 0.73540 0.50912 0.29920
 O1559 O 0.78491 0.57826 0.22765
 O1560 O 0.82026 0.56750 0.23061
 O1561 O 0.74939 0.52977 0.20386
 O1562 O 0.74643 0.49341 0.21212
 O1563 O 0.72356 0.55940 0.25078
 O1564 O 0.73004 0.55946 0.28542
 O1565 O 0.75616 0.58225 0.24854
 O1566 O 0.75709 0.57707 0.28494
 O1567 O 0.72010 0.53405 0.22907
 O1568 O 0.72323 0.49667 0.23292
 O1569 O 0.77800 0.55174 0.20365
 O1570 O 0.81662 0.53958 0.20930
 O1571 O 0.76988 0.47429 0.28023
 O1572 O 0.73236 0.48669 0.27804
 O1573 O 0.80068 0.52654 0.30636
 O1574 O 0.80496 0.56128 0.29605
 O1575 O 0.83048 0.49509 0.25851
 O1576 O 0.82402 0.49985 0.22286
 Zr1577 Zr 0.79996 0.49956 0.24520
 O1578 O 0.78321 0.51806 0.22574
 Zr1579 Zr 0.80363 0.53590 0.27769
 O1580 O 0.78802 0.55638 0.25929
 Zr1581 Zr 0.76063 0.50509 0.27844
 O1582 O 0.74270 0.52470 0.26066
 Zr1583 Zr 0.79293 0.54786 0.23049
 O1584 O 0.81139 0.52912 0.24880
 Zr1585 Zr 0.74940 0.51759 0.23175
 O1586 O 0.76581 0.49687 0.24954
 Zr1587 Zr 0.75398 0.55452 0.26364
 O1588 O 0.76970 0.53528 0.28354
 O1589 O 0.79420 0.50610 0.27405
 O1590 O 0.75912 0.54743 0.23491
 C1591 C 0.78343 0.46371 0.27003
 C1592 C 0.84013 0.50381 0.27258
 C1593 C 0.78823 0.51364 0.31477
 C1594 C 0.76947 0.58870 0.23538
 C1595 C 0.76130 0.54341 0.19588
 C1596 C 0.71325 0.55008 0.23752
 H1597 H 0.78657 0.51386 0.21238
 H1598 H 0.72692 0.52352 0.26384
 H1599 H 0.80158 0.49666 0.28287
 H1600 H 0.79367 0.57010 0.26161
 H1601 H 0.83287 0.55951 0.23515
 H1602 H 0.83058 0.56407 0.26767
 H1603 H 0.71337 0.50059 0.24369
 H1604 H 0.73300 0.47905 0.26583
 H1605 H 0.81727 0.55047 0.19955
 H1606 H 0.83478 0.48897 0.22525
 H1607 H 0.71989 0.54785 0.28533
 H1608 H 0.73718 0.52293 0.30430
 H1609 H 0.78202 0.47371 0.22274
 H1610 H 0.75921 0.49381 0.20323
 H1611 H 0.79047 0.56231 0.30253
 H1612 H 0.76991 0.58550 0.28149
 O1613 O 0.47315 0.31279 0.74533
 O1614 O 0.46007 0.30105 0.71518
 O1615 O 0.46178 0.26422 0.78359
 O1616 O 0.47011 0.23130 0.78583
 O1617 O 0.52353 0.29377 0.78142
 O1618 O 0.55545 0.28963 0.76057
 O1619 O 0.49329 0.20283 0.72411
 O1620 O 0.46115 0.21006 0.74111
 O1621 O 0.50283 0.24889 0.68404
 O1622 O 0.50032 0.28652 0.68571
 O1623 O 0.55381 0.23309 0.71768
 O1624 O 0.56556 0.23884 0.74875
 O1625 O 0.52821 0.20670 0.73476
 O1626 O 0.54500 0.22179 0.76508
 O1627 O 0.54073 0.25409 0.69471
 O1628 O 0.53136 0.29074 0.69485
 O1629 O 0.48087 0.22498 0.69763
 O1630 O 0.44767 0.23319 0.71738
 O1631 O 0.50917 0.31627 0.75308
 O1632 O 0.54395 0.30812 0.73829
 O1633 O 0.50232 0.26918 0.79483
 O1634 O 0.50454 0.23196 0.79153
 O1635 O 0.44850 0.28566 0.76102
 O1636 O 0.43878 0.27539 0.72790
 Zr1637 Zr 0.47075 0.28208 0.73766
 O1638 O 0.48012 0.26157 0.71582
 Zr1639 Zr 0.49073 0.25230 0.77163
 O1640 O 0.50040 0.23056 0.75137
 Zr1641 Zr 0.52256 0.28720 0.75170
 O1642 O 0.53398 0.26693 0.73058
 Zr1643 Zr 0.48051 0.23220 0.72703
 O1644 O 0.46886 0.25238 0.74848
 Zr1645 Zr 0.51261 0.26709 0.70715
 O1646 O 0.50254 0.28913 0.72736
 Zr1647 Zr 0.53214 0.23739 0.74122
 O1648 O 0.52347 0.25799 0.76332
 O1649 O 0.49090 0.28157 0.76142
 O1650 O 0.51238 0.23754 0.71715
 C1651 C 0.48974 0.32324 0.75081
 C1652 C 0.44786 0.27728 0.77770
 C1653 C 0.51426 0.28503 0.79591
 C1654 C 0.51227 0.19598 0.72855
 C1655 C 0.49091 0.23298 0.68321
 C1656 C 0.55444 0.24101 0.70081
 H1657 H 0.46991 0.26250 0.70494
 H1658 H 0.54913 0.27055 0.72672
 H1659 H 0.48594 0.29143 0.77120
 H1660 H 0.49950 0.21717 0.75754
 H1661 H 0.45024 0.21739 0.74912
 H1662 H 0.46884 0.21951 0.77726
 H1663 H 0.54605 0.29040 0.70068
 H1664 H 0.53660 0.31267 0.72647
 H1665 H 0.44452 0.22023 0.71089
 H1666 H 0.42888 0.28660 0.73169
 H1667 H 0.57005 0.25310 0.74763
 H1668 H 0.55820 0.27803 0.76916
 H1669 H 0.47337 0.30695 0.70916
 H1670 H 0.48488 0.28283 0.68341
 H1671 H 0.52003 0.23596 0.79316
 H1672 H 0.53396 0.21174 0.76926
 O1673 O 0.28605 0.74407 0.45024
 O1674 O 0.27570 0.70996 0.44808
 O1675 O 0.22613 0.77618 0.45381
 O1676 O 0.19556 0.77536 0.47244
 O1677 O 0.27648 0.78949 0.49535
 O1678 O 0.29188 0.77300 0.52135
 O1679 O 0.18979 0.71344 0.51193
 O1680 O 0.18098 0.72490 0.48117
 O1681 O 0.24864 0.68065 0.50520
 O1682 O 0.28445 0.68698 0.49135
 O1683 O 0.24090 0.72336 0.54797
 O1684 O 0.24628 0.76111 0.54905
 O1685 O 0.20420 0.73125 0.53670
 O1686 O 0.21562 0.76731 0.53979
 O1687 O 0.26233 0.69957 0.53359
 O1688 O 0.29699 0.70433 0.51260
 O1689 O 0.21295 0.68741 0.49869
 O1690 O 0.20460 0.70088 0.46523
 O1691 O 0.30014 0.76251 0.47483
 O1692 O 0.30919 0.75026 0.50726
 O1693 O 0.24283 0.79634 0.48314
 O1694 O 0.20702 0.78839 0.49910
 O1695 O 0.24766 0.75260 0.43914
 O1696 O 0.23976 0.71560 0.44027
 Zr1697 Zr 0.25640 0.73272 0.46129
 O1698 O 0.24470 0.70999 0.47986
 Zr1699 Zr 0.22683 0.76809 0.48312
 O1700 O 0.21312 0.74673 0.50224
 Zr1701 Zr 0.27751 0.75810 0.49784
 O1702 O 0.26600 0.73694 0.51813
 Zr1703 Zr 0.21320 0.71786 0.48982
 O1704 O 0.22397 0.73981 0.46956
 Zr1705 Zr 0.26399 0.70880 0.50460
 O1706 O 0.27752 0.72959 0.48480
 Zr1707 Zr 0.23354 0.74393 0.52613
 O1708 O 0.24618 0.76675 0.50795
 O1709 O 0.25824 0.76113 0.47372
 O1710 O 0.23237 0.71541 0.51412
 C1711 C 0.30063 0.75567 0.45748
 C1712 C 0.23594 0.76866 0.43898
 C1713 C 0.26187 0.80161 0.48907
 C1714 C 0.18959 0.71971 0.52941
 C1715 C 0.22845 0.67558 0.50392
 C1716 C 0.25179 0.70684 0.54812
 H1717 H 0.24449 0.69694 0.47300
 H1718 H 0.27575 0.73659 0.52935
 H1719 H 0.26406 0.77164 0.46496
 H1720 H 0.19806 0.75084 0.50593
 H1721 H 0.18237 0.73166 0.46852
 H1722 H 0.18541 0.76482 0.47718
 H1723 H 0.29941 0.71158 0.52480
 H1724 H 0.31378 0.73827 0.49976
 H1725 H 0.19263 0.69158 0.46913
 H1726 H 0.24589 0.71907 0.42741
 H1727 H 0.26058 0.75526 0.55259
 H1728 H 0.27958 0.77723 0.52985
 H1729 H 0.28810 0.70728 0.45674
 H1730 H 0.27739 0.68284 0.47926
 H1731 H 0.21585 0.79294 0.51012
 H1732 H 0.20130 0.76837 0.53339
 O1733 O 0.24812 0.26926 0.94628
 O1734 O 0.21579 0.27386 0.96499
 O1735 O 0.29948 0.27747 0.98640
 O1736 O 0.30942 0.26425 1.01504
 O1737 O 0.30047 0.22724 0.94822
 O1738 O 0.28236 0.19470 0.94934
 O1739 O 0.24900 0.22590 1.04618
 O1740 O 0.26342 0.25863 1.04400
 O1741 O 0.19772 0.22031 1.00924
 O1742 O 0.19163 0.23003 0.97528
 O1743 O 0.24578 0.17827 1.00844
 O1744 O 0.28357 0.17614 0.99319
 O1745 O 0.26544 0.19758 1.03440
 O1746 O 0.29813 0.19076 1.01502
 O1747 O 0.21461 0.18945 0.99442
 O1748 O 0.20585 0.20573 0.96302
 O1749 O 0.21444 0.23841 1.03260
 O1750 O 0.23134 0.27231 1.02909
 O1751 O 0.26185 0.23955 0.93485
 O1752 O 0.25302 0.20472 0.93774
 O1753 O 0.31696 0.24491 0.97205
 O1754 O 0.32145 0.23466 1.00601
 O1755 O 0.26817 0.28896 0.97274
 O1756 O 0.23247 0.28995 0.99034
 Zr1757 Zr 0.24624 0.26452 0.97620
 O1758 O 0.22752 0.24846 0.99679
 Zr1759 Zr 0.29298 0.24736 0.99388
 O1760 O 0.27629 0.23078 1.01531
 Zr1761 Zr 0.26844 0.22203 0.95917
 O1762 O 0.25055 0.20433 0.97894
 Zr1763 Zr 0.24603 0.24434 1.02169
 O1764 O 0.26400 0.26249 1.00197
 Zr1765 Zr 0.22138 0.21926 0.98677
 O1766 O 0.23808 0.23591 0.96524
 Zr1767 Zr 0.26818 0.20218 1.00459
 O1768 O 0.28737 0.21792 0.98387
 O1769 O 0.27569 0.25080 0.96868
 O1770 O 0.23846 0.21549 1.01218
 C1771 C 0.25446 0.25749 0.93259
 C1772 C 0.28824 0.29106 0.97780
 C1773 C 0.31685 0.23682 0.95529
 C1774 C 0.25711 0.20813 1.04814
 C1775 C 0.19810 0.22859 1.02594
 C1776 C 0.22580 0.17610 1.00323
 H1777 H 0.21384 0.25588 0.99977
 H1778 H 0.24772 0.19100 0.97317
 H1779 H 0.28371 0.25871 0.95881
 H1780 H 0.28540 0.22988 1.02692
 H1781 H 0.26993 0.27099 1.03836
 H1782 H 0.30331 0.26014 1.02767
 H1783 H 0.21434 0.19357 0.95944
 H1784 H 0.23775 0.20966 0.93702
 H1785 H 0.22601 0.27140 1.04260
 H1786 H 0.23289 0.30154 0.98134
 H1787 H 0.27400 0.17056 0.98313
 H1788 H 0.29398 0.19113 0.95853
 H1789 H 0.20954 0.26209 0.95828
 H1790 H 0.18792 0.24284 0.98179
 H1791 H 0.32401 0.22162 0.99946
 H1792 H 0.30474 0.20133 1.02310
 N1793 N 0.23459 0.41951 0.78713
 N1794 N 0.24205 0.40174 0.79239
 C1795 C 0.26407 0.40170 0.79063
 C1796 C 0.27097 0.42020 0.78364
 C1797 C 0.25172 0.43116 0.78198
 H1798 H 0.28762 0.42577 0.78258
 H1799 H 0.21819 0.42391 0.78827
 H1800 H 0.23230 0.39036 0.79835
 N1801 N 0.28944 -0.08681 0.24931
 N1802 N 0.29449 -0.10506 0.25525
 C1803 C 0.28238 -0.10932 0.27107
 C1804 C 0.26871 -0.09321 0.27524
 C1805 C 0.27401 -0.07914 0.26123
 H1806 H 0.25824 -0.09116 0.28777
 H1807 H 0.29724 -0.07944 0.23785
 H1808 H 0.30679 -0.11396 0.24905
 N1809 N 0.73392 0.91981 0.79038
 N1810 N 0.73975 0.90242 0.80012
 C1811 C 0.76157 0.90015 0.79815
 C1812 C 0.77017 0.91593 0.78706
 C1813 C 0.75224 0.92800 0.78268
 H1814 H 0.78720 0.91875 0.78344
 H1815 H 0.71803 0.92563 0.79005
 H1816 H 0.72871 0.89321 0.80761
 N1817 N 0.51300 0.83148 0.26929
 N1818 N 0.50905 0.85010 0.27484
 C1819 C 0.48722 0.85305 0.27576
 C1820 C 0.47667 0.83543 0.27024
 C1821 C 0.49380 0.82204 0.26650
 H1822 H 0.45925 0.83238 0.27027
 H1823 H 0.52867 0.82529 0.26786
 H1824 H 0.52127 0.86040 0.27839
 N1825 N 0.01314 0.85701 0.77421
 N1826 N 0.00742 0.87456 0.78154
 C1827 C -0.01456 0.87639 0.78096
 C1828 C -0.02327 0.85920 0.77259
 C1829 C -0.00501 0.84721 0.76870
 H1830 H -0.04035 0.85548 0.77063
 H1831 H 0.02926 0.85175 0.77336
 H1832 H 0.01852 0.88487 0.78720
 N1833 N -0.05263 -0.09855 -0.00101
 N1834 N -0.05650 -0.11622 -0.00879
 C1835 C -0.04390 -0.11826 -0.02471
 C1836 C -0.03102 -0.10108 -0.02703
 C1837 C -0.03736 -0.08888 -0.01166
 H1838 H -0.01975 -0.09752 -0.03868
 H1839 H -0.06063 -0.09313 0.01132
 H1840 H -0.06801 -0.12643 -0.00335
 N1841 N -0.02809 0.38195 0.51348
 N1842 N -0.03669 0.36827 0.50050
 C1843 C -0.02800 0.37241 0.48306
 C1844 C -0.01342 0.38854 0.48454
 C1845 C -0.01454 0.39449 0.50377
 H1846 H -0.00558 0.39661 0.47280
 H1847 H -0.03364 0.38355 0.52767
 H1848 H -0.04860 0.35753 0.50394
 N1849 N 0.50450 -0.10440 0.48113
 N1850 N 0.49862 -0.12242 0.47256
 C1851 C 0.47725 -0.12131 0.46818
 C1852 C 0.46883 -0.10270 0.47419
 C1853 C 0.48677 -0.09233 0.48163
 H1854 H 0.45278 -0.09660 0.47123
 H1855 H 0.52053 -0.10053 0.48469
 H1856 H 0.50953 -0.13415 0.46953
 N1857 N 0.44538 0.40477 -0.00613
 N1858 N 0.43713 0.38854 -0.01643
 C1859 C 0.44991 0.38612 -0.03222
 C1860 C 0.46650 0.40050 -0.03231
 C1861 C 0.46303 0.41185 -0.01579
 H1862 H 0.47914 0.40275 -0.04317
 H1863 H 0.43853 0.41043 0.00660
 H1864 H 0.42329 0.38023 -0.01242
 N1865 N 0.74489 0.34182 0.44546
 N1866 N 0.75349 0.35642 0.43495
 C1867 C 0.77543 0.35469 0.43527
 C1868 C 0.78114 0.33844 0.44668
 C1869 C 0.76122 0.33058 0.45273
 H1870 H 0.79733 0.33234 0.44902
 H1871 H 0.72808 0.33911 0.44686
 H1872 H 0.74437 0.36701 0.42736
 N1873 N 0.74797 0.82222 -0.07528
 N1874 N 0.75682 0.83743 -0.08474
 C1875 C 0.77474 0.84361 -0.07533
 C1876 C 0.77757 0.83169 -0.05917
 C1877 C 0.76013 0.81833 -0.05970
 H1878 H 0.79032 0.83267 -0.04854
 H1879 H 0.73392 0.81456 -0.07960
 H1880 H 0.75037 0.84353 -0.09729
 N1881 N 0.73757 0.26124 0.38628
 N1882 N 0.74599 0.27132 0.37159
 C1883 C 0.74931 0.29054 0.37696
 C1884 C 0.74227 0.29287 0.39583
 C1885 C 0.73538 0.27380 0.40137
 H1886 H 0.74603 0.30535 0.40526
 H1887 H 0.73580 0.24559 0.38659
 H1888 H 0.75161 0.26460 0.35887
 N1889 N 0.75001 0.73460 -0.10749
 N1890 N 0.75684 0.74268 -0.12386
 C1891 C 0.75319 0.76269 -0.12327
 C1892 C 0.74304 0.76746 -0.10592
 C1893 C 0.74167 0.74925 -0.09618
 H1894 H 0.74011 0.78235 -0.10012
 H1895 H 0.75259 0.71960 -0.10362
 H1896 H 0.76521 0.73475 -0.13463
 N1897 N 0.23799 0.49584 0.86561
 N1898 N 0.24550 0.48638 0.88086
 C1899 C 0.25395 0.46851 0.87539
 C1900 C 0.25161 0.46651 0.85563
 C1901 C 0.24140 0.48426 0.84999
 H1902 H 0.25917 0.45530 0.84640
 H1903 H 0.23226 0.51066 0.86571
 H1904 H 0.24639 0.49279 0.89453
 N1905 N 0.23566 -0.01976 0.34892
 N1906 N 0.24022 -0.02868 0.36531
 C1907 C 0.25101 -0.04595 0.36156
 C1908 C 0.25332 -0.04820 0.34182
 C1909 C 0.24347 -0.03116 0.33441
 H1910 H 0.26364 -0.05887 0.33418
 H1911 H 0.22886 -0.00538 0.34778
 H1912 H 0.23781 -0.02210 0.37881
 N1913 N 0.01354 -0.04028 -0.07663
 N1914 N 0.00910 -0.04388 -0.09592
 C1915 C -0.01091 -0.03625 -0.09949
 C1916 C -0.01936 -0.02727 -0.08295
 C1917 C -0.00367 -0.03023 -0.06905
 H1918 H -0.03524 -0.02025 -0.08100
 H1919 H 0.02761 -0.04497 -0.06953
 H1920 H 0.01928 -0.05196 -0.10531
 N1921 N 0.01737 0.44814 0.44132
 N1922 N 0.01291 0.44566 0.42192
 C1923 C -0.00719 0.45329 0.41863
 C1924 C -0.01586 0.46098 0.43577
 C1925 C 0.00005 0.45737 0.44958
 H1926 H -0.03177 0.46787 0.43802
 H1927 H 0.03174 0.44346 0.44799
 H1928 H 0.02355 0.43868 0.41212
 N1929 N 0.52667 -0.05883 0.41541
 N1930 N 0.52138 -0.06463 0.39787
 C1931 C 0.50431 -0.05344 0.39194
 C1932 C 0.49868 -0.03983 0.40615
 C1933 C 0.51321 -0.04372 0.42078
 H1934 H 0.48534 -0.02909 0.40617
 H1935 H 0.53900 -0.06537 0.42359
 H1936 H 0.52895 -0.07642 0.39040
 N1937 N 0.46366 0.48319 -0.07853
 N1938 N 0.45546 0.47381 -0.09352
 C1939 C 0.46495 0.45558 -0.09512
 C1940 C 0.47986 0.45314 -0.08051
 C1941 C 0.47837 0.47100 -0.07018
 H1942 H 0.48882 0.43964 -0.07683
 H1943 H 0.45831 0.49721 -0.07355
 H1944 H 0.44284 0.47947 -0.10196
 N1945 N 0.52250 0.77822 0.32875
 N1946 N 0.51702 0.78587 0.34569
 C1947 C 0.49738 0.77834 0.35110
 C1948 C 0.49025 0.76508 0.33718
 C1949 C 0.50654 0.76557 0.32318
 H1950 H 0.47459 0.75747 0.33653
 H1951 H 0.53647 0.78233 0.32083
 H1952 H 0.52613 0.79675 0.35290
 N1953 N 0.02431 0.80062 0.82620
 N1954 N 0.01829 0.80550 0.84393
 C1955 C 0.00066 0.79438 0.84898
 C1956 C -0.00460 0.78173 0.83393
 C1957 C 0.01065 0.78629 0.81969
 H1958 H -0.01864 0.77186 0.83286
 H1959 H 0.03689 0.80772 0.81844
 H1960 H 0.02562 0.81682 0.85203
 N1961 N 0.42187 0.75750 0.31494
 N1962 N 0.40419 0.76516 0.32321
 C1963 C 0.39513 0.77840 0.31104
 C1964 C 0.40770 0.77937 0.29424
 C1965 C 0.42444 0.76568 0.29731
 H1966 H 0.40467 0.78814 0.28144
 H1967 H 0.43178 0.74660 0.32127
 H1968 H 0.39845 0.76117 0.33690
 N1969 N -0.07527 0.77838 0.80733
 N1970 N -0.09458 0.78363 0.81436
 C1971 C -0.10349 0.79732 0.80258
 C1972 C -0.08923 0.80112 0.78731
 C1973 C -0.07162 0.78847 0.79078
 H1974 H -0.09216 0.81021 0.77469
 H1975 H -0.06529 0.76734 0.81336
 H1976 H -0.10182 0.77735 0.82667
 N1977 N 0.82562 0.25911 0.41373
 N1978 N 0.84391 0.26724 0.40682
 C1979 C 0.85174 0.28033 0.41986
 C1980 C 0.83783 0.28052 0.43574
 C1981 C 0.82148 0.26685 0.43130
 H1982 H 0.83928 0.28945 0.44867
 H1983 H 0.81614 0.24858 0.40642
 H1984 H 0.85078 0.26385 0.39338
 N1985 N 0.82892 0.73824 -0.07100
 N1986 N 0.84851 0.74378 -0.07750
 C1987 C 0.85510 0.75997 -0.06744
 C1988 C 0.83906 0.76497 -0.05406
 C1989 C 0.82275 0.75088 -0.05677
 H1990 H 0.83912 0.77726 -0.04385
 H1991 H 0.81995 0.72613 -0.07637
 H1992 H 0.85709 0.73657 -0.08862
 N1993 N -0.09575 -0.00334 -0.04703
 N1994 N -0.11429 -0.00876 -0.05506
 C1995 C -0.11983 -0.02723 -0.04869
 C1996 C -0.10415 -0.03388 -0.03584
 C1997 C -0.08918 -0.01815 -0.03520
 H1998 H -0.10372 -0.04802 -0.02812
 H1999 H -0.08789 0.01040 -0.04953
 H2000 H -0.12278 0.00003 -0.06494
 N2001 N -0.07643 0.42013 0.49134
 N2002 N -0.08768 0.41345 0.47662
 C2003 C -0.09070 0.42880 0.46428
 C2004 C -0.08093 0.44601 0.47140
 C2005 C -0.07208 0.43982 0.48861
 H2006 H -0.07996 0.46075 0.46479
 H2007 H -0.07124 0.41110 0.50271
 H2008 H -0.09319 0.39865 0.47521
 N2009 N 0.42542 -0.01610 0.43193
 N2010 N 0.40524 -0.02244 0.42512
 C2011 C 0.39830 -0.03772 0.43641
 C2012 C 0.41369 -0.04149 0.45052
 C2013 C 0.43021 -0.02746 0.44734
 H2014 H 0.41256 -0.05233 0.46212
 H2015 H 0.43438 -0.00393 0.42645
 H2016 H 0.39723 -0.01604 0.41345
 N2017 N 0.40843 0.50140 -0.02097
 N2018 N 0.38908 0.49545 -0.02971
 C2019 C 0.38816 0.47519 -0.02901
 C2020 C 0.40636 0.46786 -0.01936
 C2021 C 0.41870 0.48471 -0.01481
 H2022 H 0.41105 0.45227 -0.01743
 H2023 H 0.41438 0.51614 -0.02064
 H2024 H 0.37831 0.50521 -0.03660
 N2025 N 0.32854 0.49228 0.82568
 N2026 N 0.34239 0.47944 0.83327
 C2027 C 0.34410 0.46325 0.82169
 C2028 C 0.33090 0.46596 0.80582
 C2029 C 0.32114 0.48456 0.80909
 H2030 H 0.32781 0.45543 0.79430
 H2031 H 0.32370 0.50577 0.83218
 H2032 H 0.35024 0.48176 0.84632
 N2033 N 0.33691 -0.00708 0.31177
 N2034 N 0.35548 -0.01481 0.31774
 C2035 C 0.36218 -0.02920 0.30533
 C2036 C 0.34701 -0.03060 0.29055
 C2037 C 0.33118 -0.01619 0.29531
 H2038 H 0.34727 -0.04074 0.27838
 H2039 H 0.32828 0.00425 0.31903
 H2040 H 0.36319 -0.01029 0.33033
 N2041 N 0.16240 0.57366 0.74309
 N2042 N 0.14820 0.58087 0.73078
 C2043 C 0.14581 0.56749 0.71641
 C2044 C 0.15922 0.55099 0.71965
 C2045 C 0.16948 0.55561 0.73678
 H2046 H 0.16138 0.53775 0.71076
 H2047 H 0.16740 0.58124 0.75544
 H2048 H 0.14011 0.59462 0.73246
 N2049 N 0.14862 0.03467 0.23741
 N2050 N 0.13292 0.04218 0.22677
 C2051 C 0.13895 0.04079 0.20816
 C2052 C 0.15954 0.03185 0.20679
 C2053 C 0.16514 0.02839 0.22584
 H2054 H 0.16972 0.02994 0.19406
 H2055 H 0.14834 0.03468 0.25243
 H2056 H 0.11871 0.04895 0.23226
 N2057 N 0.56508 0.68318 0.19632
 N2058 N 0.58439 0.67889 0.18868
 C2059 C 0.59490 0.69618 0.18452
 C2060 C 0.58150 0.71236 0.18952
 C2061 C 0.56282 0.70333 0.19726
 H2062 H 0.58593 0.72813 0.19001
 H2063 H 0.55426 0.67245 0.20197
 H2064 H 0.59079 0.66434 0.18755
 N2065 N 0.07845 0.74703 0.67353
 N2066 N 0.09519 0.73685 0.66619
 C2067 C 0.10092 0.72228 0.67866
 C2068 C 0.08720 0.72323 0.69465
 C2069 C 0.07317 0.73913 0.69080
 H2070 H 0.08721 0.71356 0.70718
 H2071 H 0.07069 0.75900 0.66666
 H2072 H 0.10245 0.73989 0.65282
 N2073 N 0.66989 0.24312 0.54892
 N2074 N 0.65215 0.23661 0.55800
 C2075 C 0.64344 0.22149 0.54776
 C2076 C 0.65621 0.21818 0.53137
 C2077 C 0.67282 0.23231 0.53269
 H2078 H 0.65377 0.20716 0.52014
 H2079 H 0.67976 0.25483 0.55386
 H2080 H 0.64629 0.24245 0.57101
 N2081 N 0.65674 0.75626 0.04909
 N2082 N 0.63866 0.74978 0.05779
 C2083 C 0.63253 0.73242 0.04945
 C2084 C 0.64726 0.72766 0.03485
 C2085 C 0.66237 0.74307 0.03513
 H2086 H 0.64737 0.71453 0.02564
 H2087 H 0.66522 0.76928 0.05293
 H2088 H 0.63095 0.75701 0.06937
 N2089 N 0.07208 -0.00901 0.07250
 N2090 N 0.09026 -0.00175 0.07995
 C2091 C 0.09707 0.01393 0.06914
 C2092 C 0.08277 0.01672 0.05414
 C2093 C 0.06714 0.00193 0.05682
 H2094 H 0.08323 0.02827 0.04317
 H2095 H 0.06307 -0.02098 0.07831
 H2096 H 0.09751 -0.00724 0.09241
 N2097 N 0.08290 0.49711 0.58600
 N2098 N 0.09763 0.50890 0.59394
 C2099 C 0.09941 0.52588 0.58346
 C2100 C 0.08525 0.52484 0.56804
 C2101 C 0.07499 0.50633 0.57029
 H2102 H 0.08215 0.53623 0.55730
 H2103 H 0.07797 0.48323 0.59163
 H2104 H 0.10604 0.50537 0.60646
 N2105 N 0.58204 0.00136 0.56066
 N2106 N 0.60048 0.00799 0.56804
 C2107 C 0.60867 0.02258 0.55657
 C2108 C 0.59484 0.02534 0.54111
 C2109 C 0.57815 0.01150 0.54428
 H2110 H 0.59668 0.03581 0.52928
 H2111 H 0.57239 -0.01001 0.56677
 H2112 H 0.60716 0.00263 0.58079
 N2113 N 0.61226 0.47485 0.04049
 N2114 N 0.62977 0.48387 0.04744
 C2115 C 0.63101 0.50269 0.04020
 C2116 C 0.61375 0.50559 0.02778
 C2117 C 0.60211 0.48764 0.02852
 H2118 H 0.60902 0.51946 0.02080
 H2119 H 0.60678 0.46060 0.04473
 H2120 H 0.63995 0.47753 0.05776
 N2121 N -0.03049 0.02577 0.10047
 N2122 N -0.02195 0.03439 0.11573
 C2123 C -0.00101 0.02823 0.11743
 C2124 C 0.00380 0.01461 0.10294
 C2125 C -0.01523 0.01381 0.09228
 H2126 H 0.01979 0.00883 0.09887
 H2127 H -0.04584 0.02933 0.09495
 H2128 H -0.02985 0.04550 0.12387
 N2129 N -0.02111 0.50182 0.62269
 N2130 N -0.01463 0.51063 0.63864
 C2131 C 0.00745 0.51016 0.63911
 C2132 C 0.01533 0.50011 0.62302
 C2133 C -0.00332 0.49537 0.61287
 H2134 H 0.03219 0.49890 0.61810
 H2135 H -0.03733 0.50143 0.61810
 H2136 H -0.02515 0.51800 0.64828
 N2137 N 0.47554 0.04413 0.57531
 N2138 N 0.48136 0.05358 0.59241
 C2139 C 0.49960 0.04450 0.59882
 C2140 C 0.50542 0.02890 0.58640
 C2141 C 0.49020 0.02936 0.57178
 H2142 H 0.51997 0.01961 0.58693
 H2143 H 0.46307 0.04896 0.56628
 H2144 H 0.47351 0.06622 0.59818
 N2145 N 0.55421 0.47904 0.09366
 N2146 N 0.56066 0.48620 0.11035
 C2147 C 0.55035 0.50380 0.11367
 C2148 C 0.53666 0.50806 0.09843
 C2149 C 0.53975 0.49199 0.08597
 H2150 H 0.52681 0.52140 0.09627
 H2151 H 0.56023 0.46581 0.08743
 H2152 H 0.57219 0.47924 0.11909
 N2153 N 0.25653 0.56933 0.69042
 N2154 N 0.24881 0.57706 0.67435
 C2155 C 0.22945 0.56827 0.67054
 C2156 C 0.22473 0.55420 0.68469
 C2157 C 0.24234 0.55533 0.69701
 H2158 H 0.21020 0.54495 0.68620
 H2159 H 0.27107 0.57389 0.69688
 H2160 H 0.25650 0.58849 0.66645
 N2161 N 0.25742 0.06047 0.17894
 N2162 N 0.25076 0.06661 0.16190
 C2163 C 0.23366 0.05511 0.15665
 C2164 C 0.22936 0.04099 0.17077
 C2165 C 0.24476 0.04488 0.18463
 H2166 H 0.21649 0.02978 0.17117
 H2167 H 0.27020 0.06703 0.18656
 H2168 H 0.25753 0.07871 0.15430
 N2169 N 0.77193 0.21027 0.56594
 N2170 N 0.76591 0.20285 0.58281
 C2171 C 0.74597 0.21020 0.58751
 C2172 C 0.73920 0.22320 0.57320
 C2173 C 0.75606 0.22267 0.55972
 H2174 H 0.72342 0.23049 0.57190
 H2175 H 0.78620 0.20615 0.55846
 H2176 H 0.77487 0.19215 0.59041
 N2177 N 0.76392 0.74709 0.08019
 N2178 N 0.75964 0.74300 0.09841
 C2179 C 0.73775 0.74224 0.10110
 C2180 C 0.72758 0.74653 0.08382
 C2181 C 0.74489 0.74927 0.07090
 H2182 H 0.71032 0.74535 0.08060
 H2183 H 0.77964 0.74727 0.07405
 H2184 H 0.77162 0.73967 0.10850
 N2185 N 0.46693 0.69639 0.16110
 N2186 N 0.47384 0.68929 0.14431
 C2187 C 0.49142 0.70004 0.13843
 C2188 C 0.49563 0.71482 0.15188
 C2189 C 0.47998 0.71182 0.16621
 H2190 H 0.50972 0.72470 0.15235
 H2191 H 0.45454 0.68980 0.16948
 H2192 H 0.46738 0.67655 0.13765
 N2193 N -0.00930 0.76297 0.64437
 N2194 N -0.00471 0.75365 0.62806
 C2195 C -0.00497 0.73363 0.63116
 C2196 C -0.01054 0.73004 0.65025
 C2197 C -0.01273 0.74911 0.65821
 H2198 H -0.00941 0.71589 0.65790
 H2199 H -0.00822 0.77854 0.64629
 H2200 H 0.00030 0.76097 0.61545
 N2201 N 0.47607 0.64384 0.21299
 N2202 N 0.48375 0.62689 0.20551
 C2203 C 0.50522 0.62549 0.20956
 C2204 C 0.51135 0.64197 0.22030
 C2205 C 0.49253 0.65334 0.22201
 H2206 H 0.52766 0.64604 0.22484
 H2207 H 0.46016 0.64922 0.21107
 H2208 H 0.47467 0.61707 0.19702
 N2209 N -0.01742 0.67242 0.70764
 N2210 N -0.01189 0.65422 0.70172
 C2211 C 0.01011 0.65267 0.70190
 C2212 C 0.01902 0.67054 0.70841
 C2213 C 0.00095 0.68263 0.71191
 H2214 H 0.03614 0.67427 0.71019
 H2215 H -0.03353 0.67767 0.70874
 H2216 H -0.02303 0.64323 0.69741
 N2217 N -0.00912 0.08620 0.03904
 N2218 N -0.00162 0.10332 0.04586
 C2219 C 0.02038 0.10243 0.04654
 C2220 C 0.02734 0.08377 0.03955
 C2221 C 0.00787 0.07382 0.03522
 H2222 H 0.04380 0.07770 0.03935
 H2223 H -0.02575 0.08286 0.03771
 H2224 H -0.01159 0.11515 0.05061
 N2225 N -0.01641 0.56749 0.56765
 N2226 N -0.01089 0.58572 0.57328
 C2227 C 0.00944 0.58990 0.56663
 C2228 C 0.01722 0.57350 0.55610
 C2229 C 0.00024 0.55954 0.55726
 H2230 H 0.03316 0.57168 0.54932
 H2231 H -0.03125 0.56052 0.57125
 H2232 H -0.02093 0.59498 0.58173
 N2233 N 0.53532 0.08654 0.49333
 N2234 N 0.54030 0.10456 0.49984
 C2235 C 0.53002 0.10735 0.51688
 C2236 C 0.51750 0.09047 0.52129
 C2237 C 0.52169 0.07752 0.50604
 H2238 H 0.50889 0.08715 0.53462
 H2239 H 0.54210 0.08017 0.48088
 H2240 H 0.55149 0.11427 0.49315
 N2241 N 0.57001 0.56592 0.01951
 N2242 N 0.57414 0.58425 0.02574
 C2243 C 0.55847 0.58953 0.03863
 C2244 C 0.54377 0.57378 0.04086
 C2245 C 0.55166 0.55917 0.02831
 H2246 H 0.52904 0.57332 0.04970
 H2247 H 0.57949 0.55837 0.00918
 H2248 H 0.58737 0.59296 0.02098
 N2249 N 0.71564 0.15551 0.49210
 N2250 N 0.71067 0.13847 0.50077
 C2251 C 0.72001 0.13823 0.51818
 C2252 C 0.73192 0.15593 0.52061
 C2253 C 0.72835 0.16658 0.50370
 H2254 H 0.73994 0.16116 0.53346
 H2255 H 0.70958 0.15984 0.47875
 H2256 H 0.70027 0.12757 0.49506
 N2257 N 0.73494 0.67364 0.05065
 N2258 N 0.72622 0.65799 0.05952
 C2259 C 0.70884 0.65150 0.04951
 C2260 C 0.70628 0.66367 0.03346
 C2261 C 0.72320 0.67766 0.03487
 H2262 H 0.69361 0.66290 0.02275
 H2263 H 0.74842 0.68168 0.05566
 H2264 H 0.73213 0.65194 0.07230
 N2265 N 0.25251 0.61509 0.75090
 N2266 N 0.24572 0.62985 0.73977
 C2267 C 0.22425 0.62726 0.73631
 C2268 C 0.21692 0.61023 0.74596
 C2269 C 0.23552 0.60274 0.75478
 H2270 H 0.20148 0.60252 0.74403
 H2271 H 0.26891 0.61258 0.75429
 H2272 H 0.25608 0.64050 0.73335
 N2273 N 0.20313 0.09598 0.25733
 N2274 N 0.19715 0.11233 0.24799
 C2275 C 0.21028 0.11463 0.23241
 C2276 C 0.22561 0.09924 0.23199
 C2277 C 0.22028 0.08760 0.24796
 H2278 H 0.23739 0.09582 0.22068
 H2279 H 0.19488 0.09019 0.26937
 H2280 H 0.18365 0.12118 0.25185
 N2281 N 0.72967 1.10470 0.74209
 N2282 N 0.72400 1.12187 0.73407
 C2283 C 0.72805 1.12070 0.71505
 C2284 C 0.73711 1.10200 0.71076
 C2285 C 0.73762 1.09227 0.72839
 H2286 H 0.74030 1.09560 0.69669
 H2287 H 0.72685 1.10113 0.75654
 H2288 H 0.71645 1.13374 0.74145
 N2289 N 0.78397 0.61964 0.22009
 N2290 N 0.77627 0.63612 0.21205
 C2291 C 0.75437 0.63668 0.21473
 C2292 C 0.74786 0.61992 0.22535
 C2293 C 0.76722 0.60940 0.22823
 H2294 H 0.73133 0.61512 0.22883
 H2295 H 0.80036 0.61513 0.21930
 H2296 H 0.78586 0.64631 0.20421
 N2297 N 0.52756 0.16505 0.74208
 N2298 N 0.53183 0.14547 0.73618
 C2299 C 0.52325 0.14306 0.71857
 C2300 C 0.51271 0.16080 0.71311
 C2301 C 0.51626 0.17423 0.72814
 H2302 H 0.50540 0.16412 0.69939
 H2303 H 0.53340 0.17157 0.75468
 H2304 H 0.54109 0.13520 0.74400
 N2305 N 0.99122 0.17104 0.20800
 N2306 N 0.99762 0.15452 0.19906
 C2307 C 1.01950 0.15273 0.20064
 C2308 C 1.02745 0.16873 0.21128
 C2309 C 1.00890 0.18012 0.21546
 H2310 H 1.04435 0.17234 0.21427
 H2311 H 0.97509 0.17631 0.20834
 H2312 H 0.98711 0.14497 0.19162
 N2313 N 0.23822 0.64059 0.51211
 N2314 N 0.23075 0.62686 0.52422
 C2315 C 0.21057 0.63229 0.53026
 C2316 C 0.20475 0.65016 0.52143
 C2317 C 0.22299 0.65514 0.51030
 H2318 H 0.19099 0.65978 0.52514
 H2319 H 0.25424 0.64089 0.50665
 H2320 H 0.24002 0.61485 0.52938
 N2321 N 0.19540 0.15186 0.99967
 N2322 N 0.18744 0.13611 1.00893
 C2323 C 0.20114 0.13133 1.02324
 C2324 C 0.21884 0.14440 1.02292
 C2325 C 0.21436 0.15732 1.00785
 H2326 H 0.23202 0.14543 1.03313
 H2327 H 0.18748 0.15915 0.98841
 H2328 H 0.17248 0.12929 1.00583
 N2329 N 0.26321 0.67891 0.57006
 N2330 N 0.25574 0.67072 0.58623
 C2331 C 0.23813 0.68129 0.59236
 C2332 C 0.23445 0.69698 0.57981
 C2333 C 0.25067 0.69499 0.56590
 H2334 H 0.22120 0.70782 0.58024
 H2335 H 0.27629 0.67325 0.56186
 H2336 H 0.26217 0.65776 0.59252
 N2337 N 0.26693 0.18147 1.07167
 N2338 N 0.26118 0.17601 1.08929
 C2339 C 0.24689 0.18962 1.09641
 C2340 C 0.24357 0.20455 1.08280
 C2341 C 0.25651 0.19873 1.06728
 H2342 H 0.23241 0.21720 1.08363
 H2343 H 0.27738 0.17317 1.06268
 H2344 H 0.26649 0.16285 1.09599
 N2345 N 0.76210 0.56832 0.16934
 N2346 N 0.75025 0.57269 0.15419
 C2347 C 0.73529 0.55805 0.15176
 C2348 C 0.73760 0.54369 0.16599
 C2349 C 0.75470 0.55093 0.17699
 H2350 H 0.72726 0.53074 0.16879
 H2351 H 0.77424 0.57768 0.17488
 H2352 H 0.75205 0.58578 0.14599
 N2353 N 0.77675 1.04357 0.66434
 N2354 N 0.77162 1.05025 0.64707
 C2355 C 0.75284 1.04139 0.64167
 C2356 C 0.74592 1.02821 0.65599
 C2357 C 0.76141 1.03022 0.67022
 H2358 H 0.73063 1.01997 0.65683
 H2359 H 0.78987 1.04896 0.67234
 H2360 H 0.78030 1.06141 0.63963
 N2361 N 0.47542 0.20771 0.66065
 N2362 N 0.48149 0.19907 0.64431
 C2363 C 0.49999 0.20801 0.63784
 C2364 C 0.50570 0.22324 0.65039
 C2365 C 0.48980 0.22245 0.66472
 H2366 H 0.52034 0.23243 0.65004
 H2367 H 0.46222 0.20296 0.66923
 H2368 H 0.47366 0.18664 0.63830
 N2369 N 0.97501 0.22815 0.16023
 N2370 N 0.98170 0.21848 0.14462
 C2371 C 1.00242 0.22410 0.14039
 C2372 C 1.00902 0.23836 0.15368
 C2373 C 0.99126 0.24025 0.16624
 H2374 H 1.02539 0.24424 0.15556
 H2375 H 0.96021 0.22526 0.16744
 H2376 H 0.97266 0.20728 0.13780
 N2377 N 0.57220 0.23984 0.66850
 N2378 N 0.59000 0.23223 0.66033
 C2379 C 0.60142 0.22222 0.67374
 C2380 C 0.59029 0.22339 0.69124
 C2381 C 0.57185 0.23479 0.68725
 H2382 H 0.59507 0.21716 0.70493
 H2383 H 0.56053 0.24838 0.66126
 H2384 H 0.59423 0.23410 0.64585
 N2385 N 1.08407 0.25339 0.17919
 N2386 N 1.10191 0.24542 0.17136
 C2387 C 1.10698 0.22860 0.18116
 C2388 C 1.09180 0.22570 0.19583
 C2389 C 1.07764 0.24180 0.19415
 H2390 H 1.09140 0.21385 0.20651
 H2391 H 1.07669 0.26666 0.17450
 H2392 H 1.11044 0.25152 0.15962
 N2393 N 0.17021 0.71927 0.56091
 N2394 N 0.15159 0.71266 0.56835
 C2395 C 0.14081 0.70224 0.55484
 C2396 C 0.15314 0.70218 0.53791
 C2397 C 0.17160 0.71345 0.54239
 H2398 H 0.14865 0.69609 0.52409
 H2399 H 0.18142 0.72815 0.56832
 H2400 H 0.14610 0.71579 0.58232
 N2401 N 0.17577 0.23855 1.05436
 N2402 N 0.15770 0.23287 1.06343
 C2403 C 0.14878 0.21727 1.05393
 C2404 C 0.16178 0.21291 1.03787
 C2405 C 0.17876 0.22686 1.03874
 H2406 H 0.15950 0.20108 1.02738
 H2407 H 0.18595 0.25019 1.05895
 H2408 H 0.15191 0.23945 1.07614
 N2409 N 0.68525 0.57709 0.23739
 N2410 N 0.66655 0.58107 0.22890
 C2411 C 0.66133 0.56545 0.21748
 C2412 C 0.67749 0.55084 0.21869
 C2413 C 0.69237 0.55889 0.23151
 H2414 H 0.67839 0.53654 0.21126
 H2415 H 0.69304 0.58685 0.24688
 H2416 H 0.65759 0.59428 0.23107
 N2417 N 0.67186 1.01617 0.68169
 N2418 N 0.65310 1.02128 0.67388
 C2419 C 0.64247 1.03395 0.68587
 C2420 C 0.65510 1.03719 0.70204
 C2421 C 0.67358 1.02551 0.69881
 H2422 H 0.65114 1.04623 0.71455
 H2423 H 0.68314 1.00623 0.67542
 H2424 H 0.64769 1.01594 0.66065
 N2425 N 0.87307 0.48266 0.26795
 N2426 N 0.88671 0.47252 0.27884
 C2427 C 0.88309 0.47753 0.29738
 C2428 C 0.86654 0.49186 0.29834
 C2429 C 0.86044 0.49444 0.27927
 H2430 H 0.85827 0.49753 0.31109
 H2431 H 0.87157 0.48056 0.25315
 H2432 H 0.89750 0.46152 0.27366
 N2433 N 0.81687 0.99465 0.82087
 N2434 N 0.83461 0.98716 0.82884
 C2435 C 0.84429 0.97424 0.81642
 C2436 C 0.83204 0.97333 0.79981
 C2437 C 0.81487 0.98666 0.80320
 H2438 H 0.83555 0.96483 0.78686
 H2439 H 0.80652 1.00522 0.82740
 H2440 H 0.84004 0.99116 0.84248
 N2441 N 0.43003 0.27601 0.80976
 N2442 N 0.41408 0.28503 0.81934
 C2443 C 0.40432 0.29846 0.80772
 C2444 C 0.41466 0.29799 0.78977
 C2445 C 0.43089 0.28341 0.79175
 H2446 H 0.41103 0.30695 0.77722
 H2447 H 0.44030 0.26512 0.81565
 H2448 H 0.41015 0.28193 0.83369
 N2449 N 0.93293 0.27235 0.31765
 N2450 N 0.91534 0.27975 0.32634
 C2451 C 0.90777 0.29531 0.31593
 C2452 C 0.92117 0.29794 0.29984
 C2453 C 0.93688 0.28296 0.30146
 H2454 H 0.91934 0.30871 0.28830
 H2455 H 0.94176 0.25995 0.32258
 H2456 H 0.90845 0.27385 0.33895
 N2457 N 0.32070 0.75491 0.42636
 N2458 N 0.33790 0.76350 0.41817
 C2459 C 0.34690 0.77639 0.43076
 C2460 C 0.33486 0.77601 0.44784
 C2461 C 0.31845 0.76199 0.44441
 H2462 H 0.33787 0.78432 0.46091
 H2463 H 0.31078 0.74430 0.41962
 H2464 H 0.34334 0.76046 0.40418
 N2465 N 0.34096 0.23091 0.92634
 N2466 N 0.35815 0.23977 0.91816
 C2467 C 0.36445 0.25525 0.92935
 C2468 C 0.35095 0.25605 0.94545
 C2469 C 0.33626 0.24041 0.94300
 H2470 H 0.35100 0.26715 0.95684
 H2471 H 0.33231 0.21896 0.92031
 H2472 H 0.36484 0.23574 0.90482
 N2473 N 0.80489 0.52170 0.34612
 N2474 N 0.80972 0.51198 0.36205
 C2475 C 0.80087 0.49343 0.36125
 C2476 C 0.78953 0.49136 0.34426
 C2477 C 0.79279 0.50954 0.33498
 H2478 H 0.78211 0.47787 0.33852
 H2479 H 0.81078 0.53602 0.34257
 H2480 H 0.81987 0.51766 0.37272
 N2481 N 0.73089 1.00282 0.84512
 N2482 N 0.73889 0.99507 0.86103
 C2483 C 0.74610 0.97632 0.85723
 C2484 C 0.74192 0.97173 0.83820
 C2485 C 0.73254 0.98908 0.83094
 H2486 H 0.74807 0.95897 0.83008
 H2487 H 0.72627 1.01788 0.84361
 H2488 H 0.74084 1.00311 0.87380
 N2489 N 0.22219 0.79570 0.41716
 N2490 N 0.22895 0.80444 0.40103
 C2491 C 0.24685 0.79463 0.39439
 C2492 C 0.25141 0.77879 0.40657
 C2493 C 0.23550 0.78003 0.42088
 H2494 H 0.26537 0.76874 0.40599
 H2495 H 0.20929 0.80094 0.42582
 H2496 H 0.22204 0.81747 0.39529
 N2497 N 0.25801 0.25340 0.89742
 N2498 N 0.26481 0.26467 0.88292
 C2499 C 0.26600 0.28388 0.88891
 C2500 C 0.25954 0.28502 0.90799
 C2501 C 0.25498 0.26526 0.91294
 H2502 H 0.26146 0.29770 0.91761
 H2503 H 0.25740 0.23769 0.89708
 H2504 H 0.27026 0.25903 0.86968
 N2505 N 0.52388 0.31290 0.81845
 N2506 N 0.51657 0.31922 0.83541
 C2507 C 0.50295 0.30515 0.84285
 C2508 C 0.50195 0.28910 0.83031
 C2509 C 0.51513 0.29467 0.81488
 H2510 H 0.49110 0.27622 0.83121
 H2511 H 0.53337 0.32159 0.80898
 H2512 H 0.51979 0.33343 0.84113
 N2513 N 1.01957 0.27067 0.34130
 N2514 N 1.01199 0.28031 0.35662
 C2515 C 1.00489 0.29864 0.35125
 C2516 C 1.00832 0.30082 0.33167
 C2517 C 1.01766 0.28277 0.32590
 H2518 H 1.00165 0.31242 0.32250
 H2519 H 1.02409 0.25550 0.34116
 H2520 H 1.00964 0.27365 0.37010
 N2521 N 0.50322 0.35719 0.75929
 N2522 N 0.49595 0.37272 0.76933
 C2523 C 0.47443 0.37012 0.77299
 C2524 C 0.46755 0.35229 0.76462
 C2525 C 0.48647 0.34436 0.75636
 H2526 H 0.45187 0.34488 0.76656
 H2527 H 0.51970 0.35479 0.75575
 H2528 H 0.50589 0.38425 0.77450
 N2529 N 1.02010 0.35214 0.28244
 N2530 N 1.01492 0.36823 0.29260
 C2531 C 0.99304 0.36859 0.29533
 C2532 C 0.98377 0.35210 0.28627
 C2533 C 1.00162 0.34198 0.27840
 H2534 H 0.96677 0.34745 0.28646
 H2535 H 1.03614 0.34794 0.27885
 H2536 H 1.02635 0.37844 0.29791
 N2537 N 0.28142 0.83133 0.50139
 N2538 N 0.28793 0.84899 0.49480
 C2539 C 0.27900 0.85202 0.47744
 C2540 C 0.26575 0.83575 0.47295
 C2541 C 0.26803 0.82287 0.48847
 H2542 H 0.25777 0.83267 0.45947
 H2543 H 0.28703 0.82476 0.51405
 H2544 H 0.29923 0.85821 0.50170
 N2545 N 0.32103 0.31300 0.97716
 N2546 N 0.32748 0.33016 0.96944
 C2547 C 0.31068 0.33836 0.95977
 C2548 C 0.29256 0.32572 0.96147
 C2549 C 0.29994 0.30977 0.97268
 H2550 H 0.27657 0.32764 0.95520
 H2551 H 0.33114 0.30354 0.98512
 H2552 H 0.34329 0.33595 0.97077
 N2553 N 0.79171 0.42926 0.25919
 N2554 N 0.79612 0.41158 0.26675
 C2555 C 0.79264 0.41250 0.28586
 C2556 C 0.78528 0.43170 0.29075
 C2557 C 0.78530 0.44193 0.27329
 H2558 H 0.78267 0.43785 0.30500
 H2559 H 0.79408 0.43281 0.24468
 H2560 H 0.80229 0.39935 0.25894
   
