data_POSCAR
  _audit_creation_date              2014-09-24
  _audit_creation_method            'ToBaCCo'
  _symmetry_space_group_name_H-M    'P1'
  _symmetry_Int_Tables_number       1
  _symmetry_cell_setting            triclinic
  loop_
  _symmetry_equiv_pos_as_xyz
 x,y,z
_cell_length_a 39.4985
_cell_length_b 39.4685
_cell_length_c 39.5718
_cell_angle_alpha 89.865000
_cell_angle_beta 90.193700
_cell_angle_gamma 90.283200
loop_
  _atom_site_label
  _atom_site_type_symbol
  _atom_site_fract_x
  _atom_site_fract_y
  _atom_site_fract_z
O1 O 0.18745 1.01987 0.45228
 O2 O 0.18260 0.96287 0.52529
 O3 O 0.18336 1.02694 0.51915
 O4 O 0.19159 0.95464 0.46046
 O5 O 0.24708 0.95638 0.46768
 O6 O 0.23899 1.03169 0.52108
 O7 O 0.23813 0.96644 0.53172
 O8 O 0.24322 1.02170 0.45671
 Cu9 Cu 0.18065 0.99106 0.48841
 Cu10 Cu 0.24742 0.99430 0.49470
 C11 C 0.21601 1.03015 0.44180
 C12 C 0.20938 0.95557 0.54141
 C13 C 0.20995 1.04135 0.53058
 C14 C 0.22093 0.94289 0.45472
 O15 O 0.73720 -0.02443 0.46699
 O16 O 0.72788 0.03286 0.53873
 O17 O 0.73542 -0.03224 0.53329
 O18 O 0.72684 0.03984 0.47393
 O19 O 0.67140 0.03217 0.47308
 O20 O 0.68021 -0.04010 0.53089
 O21 O 0.67236 0.02608 0.53742
 O22 O 0.68178 -0.03245 0.46540
 Cu23 Cu 0.73743 0.00444 0.50342
 Cu24 Cu 0.67091 -0.00473 0.50175
 C25 C 0.71117 -0.03771 0.45363
 C26 C 0.69869 0.04022 0.54961
 C27 C 0.70907 -0.04858 0.54227
 C28 C 0.69749 0.04866 0.46397
 O29 O 0.26512 0.45312 0.95717
 O30 O 0.24394 0.52170 1.01589
 O31 O 0.24960 0.51619 0.95148
 O32 O 0.25978 0.45704 1.02285
 O33 O 0.31383 0.47058 1.02659
 O34 O 0.30336 0.53139 0.95662
 O35 O 0.29819 0.53444 1.02155
 O36 O 0.31907 0.46765 0.95972
 Cu37 Cu 0.24923 0.48533 0.98682
 Cu38 Cu 0.31416 0.50203 0.99167
 C39 C 0.29544 0.44944 0.94737
 C40 C 0.26730 0.54021 1.02816
 C41 C 0.27471 0.53408 0.94225
 C42 C 0.28849 0.45363 1.03707
 O43 O 0.47372 0.20888 1.02234
 O44 O 0.53956 0.23129 0.96074
 O45 O 0.53979 0.21637 1.02512
 O46 O 0.47439 0.22211 0.95896
 O47 O 0.46545 0.27560 0.97280
 O48 O 0.53338 0.27058 1.03652
 O49 O 0.53123 0.28556 0.97093
 O50 O 0.46901 0.26302 1.03576
 Cu51 Cu 0.50797 0.21423 0.99066
 Cu52 Cu 0.49968 0.27937 1.00490
 C53 C 0.45993 0.23235 1.03926
 C54 C 0.54595 0.26225 0.95466
 C55 C 0.54748 0.24230 1.04259
 C56 C 0.45795 0.24945 0.95565
 O57 O 0.47724 0.75268 -0.03932
 O58 O 0.54834 0.75832 0.02031
 O59 O 0.54364 0.75138 -0.04383
 O60 O 0.48235 0.75701 0.02654
 O61 O 0.48415 0.70136 0.03223
 O62 O 0.54093 0.69564 -0.04097
 O63 O 0.54920 0.70244 0.02438
 O64 O 0.47621 0.69703 -0.03378
 Cu65 Cu 0.51260 0.76045 -0.00959
 Cu66 Cu 0.51249 0.69355 -0.00398
 C67 C 0.46475 0.72402 -0.04703
 C68 C 0.56117 0.73137 0.03207
 C69 C 0.55261 0.72241 -0.05458
 C70 C 0.47355 0.73003 0.04189
 O71 O 1.02955 0.46422 0.21034
 O72 O 0.97617 0.53962 0.21747
 O73 O 1.04018 0.52947 0.21958
 O74 O 0.96496 0.47442 0.21062
 O75 O 0.96313 0.46823 0.26603
 O76 O 1.03961 0.52131 0.27471
 O77 O 0.97436 0.53292 0.27293
 O78 O 1.02814 0.45749 0.26582
 Cu79 Cu 1.00289 0.50254 0.20892
 Cu80 Cu 1.00107 0.49436 0.27545
 C81 C 1.03782 0.44804 0.23680
 C82 C 0.96645 0.54922 0.24637
 C83 C 1.05276 0.53495 0.24872
 C84 C 0.95130 0.46177 0.23685
 O85 O -0.01922 0.46516 0.81054
 O86 O 0.05092 0.52559 0.79712
 O87 O -0.01323 0.53134 0.80850
 O88 O 0.04491 0.45936 0.80157
 O89 O 0.03710 0.45828 0.74622
 O90 O -0.02338 0.52887 0.75376
 O91 O 0.04170 0.52372 0.74205
 O92 O -0.02752 0.46355 0.75535
 Cu93 Cu 0.01682 0.49566 0.80999
 Cu94 Cu 0.00612 0.49359 0.74380
 C95 C -0.03502 0.45373 0.78494
 C96 C 0.05809 0.53499 0.76724
 C97 C -0.02858 0.54234 0.78247
 C98 C 0.05061 0.44638 0.77287
 O99 O 0.46369 0.96704 0.26956
 O100 O 0.53541 1.02599 0.26547
 O101 O 0.52903 0.96038 0.27190
 O102 O 0.46927 1.03235 0.27013
 O103 O 0.47268 1.03546 0.32564
 O104 O 0.52957 0.96272 0.32763
 O105 O 0.53755 1.02854 0.32122
 O106 O 0.46455 0.96909 0.32530
 Cu107 Cu 0.49933 0.99637 0.26374
 Cu108 Cu 0.50121 0.99925 0.33046
 C109 C 0.45199 0.95763 0.29787
 C110 C 0.54867 1.03735 0.29236
 C111 C 0.53887 0.94888 0.30036
 C112 C 0.46097 1.04641 0.29783
 O113 O 1.03639 0.27372 0.53082
 O114 O 0.97411 0.26584 0.46207
 O115 O 1.03942 0.27116 0.46543
 O116 O 0.97025 0.26960 0.52770
 O117 O 0.96579 0.32519 0.52312
 O118 O 1.03700 0.32705 0.46345
 O119 O 0.97178 0.32167 0.45785
 O120 O 1.03305 0.32949 0.52790
 Cu121 Cu 1.00528 0.26450 0.49703
 Cu122 Cu 1.00130 0.33151 0.49315
 C123 C 1.04621 0.30287 0.54029
 C124 C 0.96273 0.29239 0.44804
 C125 C 1.05030 0.29938 0.45420
 C126 C 0.95559 0.29712 0.53521
 O127 O -0.01844 0.73584 0.52695
 O128 O 0.04574 0.73499 0.45952
 O129 O -0.02056 0.73130 0.46193
 O130 O 0.04734 0.73759 0.52623
 O131 O 0.04932 0.68173 0.52889
 O132 O -0.01759 0.67553 0.46440
 O133 O 0.04879 0.67928 0.46338
 O134 O -0.01746 0.67986 0.52874
 Cu135 Cu 0.01364 0.74055 0.49324
 Cu136 Cu 0.01624 0.67354 0.49669
 C137 C -0.02970 0.70793 0.53838
 C138 C 0.05843 0.70705 0.45017
 C139 C -0.03136 0.70224 0.45301
 C140 C 0.05977 0.71059 0.53856
 O141 O 0.77126 0.46598 1.03894
 O142 O 0.78639 0.53603 0.97948
 O143 O 0.76799 0.53111 1.04199
 O144 O 0.78854 0.46899 0.97610
 O145 O 0.73512 0.46884 0.95946
 O146 O 0.71395 0.52814 1.02770
 O147 O 0.73256 0.53481 0.96422
 O148 O 0.71781 0.46291 1.02225
 Cu149 Cu 0.78406 0.50081 1.01035
 Cu150 Cu 0.71949 0.49871 0.99164
 C151 C 0.74208 0.45254 1.04063
 C152 C 0.76198 0.54783 0.96222
 C153 C 0.73737 0.53957 1.04663
 C154 C 0.76514 0.45784 0.95696
 O155 O 0.47641 1.02851 0.73110
 O156 O 0.53698 0.95864 0.74285
 O157 O 0.54224 1.02424 0.74071
 O158 O 0.47208 0.96333 0.73497
 O159 O 0.47849 0.96072 0.67957
 O160 O 0.55172 1.01866 0.68597
 O161 O 0.54210 0.95410 0.68738
 O162 O 0.48626 1.02775 0.67634
 Cu163 Cu 0.50622 0.99428 0.74293
 Cu164 Cu 0.51502 0.99057 0.67660
 C165 C 0.47113 1.04035 0.70166
 C166 C 0.54911 0.94401 0.71704
 C167 C 0.55957 1.03089 0.71459
 C168 C 0.46372 0.95121 0.70647
 C169 C 0.25306 0.22428 0.27329
 C170 C 0.22847 0.25008 0.27222
 C171 C 0.23027 0.27540 0.24703
 C172 C 0.25552 0.27413 0.22193
 C173 C 0.28047 0.24871 0.22362
 C174 C 0.27876 0.22319 0.24866
 C175 C 0.74113 0.76365 0.29025
 C176 C 0.76787 0.73996 0.29057
 C177 C 0.76923 0.71489 0.26517
 C178 C 0.74557 0.71488 0.23837
 C179 C 0.71879 0.73836 0.23832
 C180 C 0.71704 0.76342 0.26364
 C181 C 0.75281 0.22801 0.71973
 C182 C 0.72648 0.22908 0.74404
 C183 C 0.72694 0.25427 0.76935
 C184 C 0.75026 0.28128 0.76735
 C185 C 0.77573 0.28093 0.74250
 C186 C 0.77809 0.25355 0.71976
 C187 C 0.24062 0.78733 0.73687
 C188 C 0.21456 0.76329 0.74170
 C189 C 0.21485 0.74247 0.77075
 C190 C 0.24154 0.74527 0.79454
 C191 C 0.26672 0.77056 0.79049
 C192 C 0.26571 0.79207 0.76193
 C193 C 0.23829 0.25112 0.70804
 C194 C 0.26249 0.22494 0.70507
 C195 C 0.28931 0.22266 0.72892
 C196 C 0.29252 0.24735 0.75478
 C197 C 0.26802 0.27322 0.75780
 C198 C 0.24176 0.27570 0.73365
 C199 C 0.79643 0.75268 0.72527
 C200 C 0.77369 0.78018 0.72565
 C201 C 0.74811 0.78147 0.75063
 C202 C 0.74440 0.75476 0.77439
 C203 C 0.76550 0.72593 0.77194
 C204 C 0.79166 0.72507 0.74766
 C205 C 0.21882 0.75442 0.25083
 C206 C 0.22434 0.72832 0.22710
 C207 C 0.25274 0.72994 0.20544
 C208 C 0.27409 0.75882 0.20564
 C209 C 0.26862 0.78496 0.22943
 C210 C 0.24103 0.78259 0.25204
 C211 C 0.74939 0.27495 0.30024
 C212 C 0.72529 0.24838 0.29823
 C213 C 0.69836 0.25028 0.27452
 C214 C 0.69711 0.27750 0.25119
 C215 C 0.72236 0.30319 0.25208
 C216 C 0.74816 0.30226 0.27701
 C217 C 0.23675 0.08195 0.41259
 C218 C 0.23744 0.10348 0.38437
 C219 C 0.21996 0.09410 0.35451
 C220 C 0.20121 0.06383 0.35381
 C221 C 0.19961 0.04320 0.38250
 C222 C 0.21758 0.05201 0.41184
 C223 C 0.22105 0.11536 0.32608
 C224 C 0.23816 0.14653 0.32762
 C225 C 0.25450 0.15645 0.35796
 C226 C 0.25465 0.13456 0.38586
 C227 C 0.26992 0.18843 0.36009
 C228 C 0.26895 0.21048 0.33254
 C229 C 0.25365 0.20042 0.30215
 C230 C 0.23855 0.16834 0.29958
 H231 H 0.25024 0.08891 0.43549
 H232 H 0.18747 0.05636 0.33127
 H233 H 0.18476 0.02007 0.38166
 H234 H 0.20798 0.10801 0.30306
 H235 H 0.26751 0.14203 0.40896
 H236 H 0.28227 0.19656 0.38320
 H237 H 0.28048 0.23534 0.33470
 H238 H 0.22651 0.16085 0.27608
 C239 C 0.71004 0.90572 0.42652
 C240 C 0.71713 0.88463 0.39897
 C241 C 0.72864 0.89899 0.36823
 C242 C 0.73326 0.93416 0.36576
 C243 C 0.72714 0.95482 0.39366
 C244 C 0.71543 0.94070 0.42399
 C245 C 0.73589 0.87796 0.34071
 C246 C 0.73258 0.84271 0.34378
 C247 C 0.72166 0.82836 0.37473
 C248 C 0.71368 0.84942 0.40198
 C249 C 0.71894 0.79309 0.37795
 C250 C 0.72641 0.77224 0.35062
 C251 C 0.73644 0.78630 0.31964
 C252 C 0.73993 0.82153 0.31638
 H253 H 0.70149 0.89491 0.45025
 H254 H 0.74221 0.94559 0.34250
 H255 H 0.73159 0.98186 0.39164
 H256 H 0.74447 0.88897 0.31708
 H257 H 0.70517 0.83839 0.42563
 H258 H 0.71077 0.78167 0.40150
 H259 H 0.72357 0.74505 0.35331
 H260 H 0.74780 0.83228 0.29240
 C261 C 0.72350 0.07410 0.59644
 C262 C 0.72385 0.10319 0.61659
 C263 C 0.69615 0.12574 0.61551
 C264 C 0.66775 0.11769 0.59564
 C265 C 0.66752 0.08843 0.57575
 C266 C 0.69581 0.06702 0.57526
 C267 C 0.69763 0.15613 0.63379
 C268 C 0.72610 0.16374 0.65376
 C269 C 0.75292 0.14022 0.65616
 C270 C 0.75186 0.11038 0.63718
 C271 C 0.78012 0.14660 0.67806
 C272 C 0.78034 0.17558 0.69809
 C273 C 0.75438 0.19956 0.69528
 C274 C 0.72774 0.19395 0.67229
 H275 H 0.74530 0.05750 0.59639
 H276 H 0.64613 0.13447 0.59477
 H277 H 0.64601 0.08350 0.55941
 H278 H 0.67666 0.17374 0.63260
 H279 H 0.77278 0.09270 0.63850
 H280 H 0.80053 0.12853 0.68067
 H281 H 0.80019 0.17862 0.71673
 H282 H 0.70732 0.21214 0.67054
 C283 C 0.23063 0.90997 0.57949
 C284 C 0.22779 0.89047 0.60903
 C285 C 0.20143 0.89715 0.63220
 C286 C 0.17768 0.92238 0.62485
 C287 C 0.18007 0.94090 0.59488
 C288 C 0.20671 0.93509 0.57228
 C289 C 0.19913 0.87844 0.66224
 C290 C 0.22221 0.85244 0.66894
 C291 C 0.24770 0.84480 0.64512
 C292 C 0.25065 0.86420 0.61557
 C293 C 0.26974 0.81774 0.65119
 C294 C 0.26672 0.79862 0.68072
 C295 C 0.24238 0.80693 0.70499
 C296 C 0.22010 0.83378 0.69904
 H297 H 0.25098 0.90522 0.56180
 H298 H 0.15720 0.92768 0.64217
 H299 H 0.16148 0.96034 0.58964
 H300 H 0.17922 0.88391 0.68022
 H301 H 0.27050 0.85866 0.59755
 H302 H 0.28914 0.81125 0.63307
 H303 H 0.28363 0.77750 0.68489
 H304 H 0.20125 0.84004 0.71783
 C305 C 0.43003 0.24200 0.09310
 C306 C 0.40123 0.23880 0.11329
 C307 C 0.37376 0.21845 0.10228
 C308 C 0.37650 0.20010 0.07209
 C309 C 0.40568 0.20297 0.05238
 C310 C 0.43211 0.22462 0.06240
 C311 C 0.34393 0.21724 0.12135
 C312 C 0.34170 0.23538 0.15168
 C313 C 0.36998 0.25418 0.16350
 C314 C 0.39934 0.25616 0.14399
 C315 C 0.36847 0.27065 0.19475
 C316 C 0.33924 0.26848 0.21419
 C317 C 0.31075 0.25100 0.20206
 C318 C 0.31183 0.23475 0.17068
 H319 H 0.45061 0.25858 0.10086
 H320 H 0.35585 0.18415 0.06340
 H321 H 0.40691 0.18966 0.02851
 H322 H 0.32255 0.20225 0.11263
 H323 H 0.42070 0.27123 0.15267
 H324 H 0.39001 0.28483 0.20432
 H325 H 0.33859 0.28077 0.23863
 H326 H 0.28976 0.22107 0.16159
 C327 C 0.41636 0.75027 0.92182
 C328 C 0.39135 0.74923 0.89657
 C329 C 0.38765 0.71990 0.87639
 C330 C 0.40823 0.69171 0.88263
 C331 C 0.43262 0.69272 0.90827
 C332 C 0.43724 0.72213 0.92770
 C333 C 0.36347 0.71922 0.85037
 C334 C 0.34229 0.74713 0.84489
 C335 C 0.34512 0.77595 0.86591
 C336 C 0.36998 0.77703 0.89127
 C337 C 0.32261 0.80299 0.86160
 C338 C 0.29726 0.80132 0.83698
 C339 C 0.29489 0.77327 0.81537
 C340 C 0.31776 0.74640 0.81920
 H341 H 0.41953 0.77294 0.93694
 H342 H 0.40558 0.66894 0.86759
 H343 H 0.44854 0.67080 0.91230
 H344 H 0.36086 0.69686 0.83466
 H345 H 0.37242 0.79931 0.90711
 H346 H 0.32404 0.82501 0.87784
 H347 H 0.27904 0.82161 0.83528
 H348 H 0.31563 0.72448 0.80285
 C349 C 0.58767 0.72193 0.08820
 C350 C 0.61443 0.72696 0.11106
 C351 C 0.64462 0.74298 0.10006
 C352 C 0.64718 0.75431 0.06655
 C353 C 0.61991 0.75032 0.04433
 C354 C 0.59021 0.73398 0.05500
 C355 C 0.67144 0.74798 0.12286
 C356 C 0.66804 0.73821 0.15677
 C357 C 0.63747 0.72305 0.16793
 C358 C 0.61111 0.71705 0.14491
 C359 C 0.63366 0.71434 0.20206
 C360 C 0.65995 0.72033 0.22489
 C361 C 0.69059 0.73454 0.21387
 C362 C 0.69459 0.74356 0.17983
 H363 H 0.56440 0.70984 0.09649
 H364 H 0.66998 0.76683 0.05772
 H365 H 0.62197 0.75987 0.01872
 H366 H 0.69468 0.75997 0.11437
 H367 H 0.58780 0.70521 0.15345
 H368 H 0.61038 0.70291 0.21107
 H369 H 0.65674 0.71322 0.25115
 H370 H 0.71833 0.75460 0.17147
 C371 C 0.59573 0.24791 0.91925
 C372 C 0.61761 0.25478 0.89231
 C373 C 0.61372 0.28492 0.87331
 C374 C 0.58879 0.30830 0.88254
 C375 C 0.56741 0.30148 0.90983
 C376 C 0.57032 0.27097 0.92792
 C377 C 0.63453 0.29096 0.84526
 C378 C 0.65952 0.26748 0.83640
 C379 C 0.66419 0.23802 0.85630
 C380 C 0.64306 0.23175 0.88394
 C381 C 0.68973 0.21505 0.84802
 C382 C 0.71035 0.22106 0.82014
 C383 C 0.70545 0.24978 0.79976
 C384 C 0.67980 0.27284 0.80784
 H385 H 0.59835 0.22448 0.93338
 H386 H 0.58558 0.33164 0.86844
 H387 H 0.54789 0.31957 0.91612
 H388 H 0.63122 0.31379 0.83031
 H389 H 0.64629 0.20884 0.89880
 H390 H 0.69373 0.19243 0.86305
 H391 H 0.73000 0.20303 0.81410
 H392 H 0.67524 0.29447 0.79163
 C393 C 0.09156 0.41827 0.24814
 C394 C 0.11237 0.38980 0.24525
 C395 C 0.09997 0.36030 0.22901
 C396 C 0.06731 0.36027 0.21495
 C397 C 0.04715 0.38919 0.21701
 C398 C 0.05910 0.41804 0.23391
 C399 C 0.12051 0.33151 0.22684
 C400 C 0.15364 0.33228 0.23968
 C401 C 0.16638 0.36228 0.25475
 C402 C 0.14548 0.39061 0.25795
 C403 C 0.19996 0.36357 0.26618
 C404 C 0.22074 0.33536 0.26283
 C405 C 0.20799 0.30528 0.24888
 C406 C 0.17443 0.30368 0.23741
 H407 H 0.10076 0.44085 0.26086
 H408 H 0.05747 0.33802 0.20219
 H409 H 0.02203 0.38891 0.20594
 H410 H 0.11090 0.30873 0.21480
 H411 H 0.15513 0.41343 0.26990
 H412 H 0.21018 0.38640 0.27752
 H413 H 0.24668 0.33669 0.27171
 H414 H 0.16480 0.28036 0.22651
 C415 C 0.91397 0.42370 0.76342
 C416 C 0.89085 0.39681 0.76474
 C417 C 0.89212 0.37359 0.79197
 C418 C 0.91564 0.37859 0.81815
 C419 C 0.93850 0.40570 0.81674
 C420 C 0.93830 0.42792 0.78899
 C421 C 0.87022 0.34556 0.79229
 C422 C 0.84677 0.34088 0.76601
 C423 C 0.84462 0.36492 0.73951
 C424 C 0.86690 0.39256 0.73889
 C425 C 0.82011 0.36096 0.71410
 C426 C 0.79773 0.33354 0.71509
 C427 C 0.80033 0.30924 0.74081
 C428 C 0.82514 0.31271 0.76595
 H429 H 0.91345 0.44101 0.74210
 H430 H 0.91679 0.36119 0.83935
 H431 H 0.95718 0.40850 0.83666
 H432 H 0.87144 0.32742 0.81290
 H433 H 0.86567 0.41069 0.71827
 H434 H 0.81792 0.37930 0.69381
 H435 H 0.77822 0.33134 0.69592
 H436 H 0.82706 0.29378 0.78574
 C437 C 0.08940 0.58715 0.78384
 C438 C 0.11329 0.61258 0.77695
 C439 C 0.13412 0.60995 0.74804
 C440 C 0.13027 0.58226 0.72624
 C441 C 0.10564 0.55765 0.73272
 C442 C 0.08519 0.55990 0.76155
 C443 C 0.15811 0.63525 0.74113
 C444 C 0.16095 0.66355 0.76227
 C445 C 0.13956 0.66661 0.79071
 C446 C 0.11613 0.64091 0.79808
 C447 C 0.14208 0.69533 0.81137
 C448 C 0.16583 0.72059 0.80412
 C449 C 0.18752 0.71731 0.77635
 C450 C 0.18499 0.68879 0.75549
 H451 H 0.07319 0.58919 0.80581
 H452 H 0.14589 0.57993 0.70392
 H453 H 0.10258 0.53676 0.71525
 H454 H 0.17428 0.63311 0.71914
 H455 H 0.09990 0.64311 0.82002
 H456 H 0.12586 0.69814 0.83320
 H457 H 0.16783 0.74243 0.82055
 H458 H 0.20233 0.68593 0.73454
 C459 C 0.91347 0.57765 0.26352
 C460 C 0.89223 0.60598 0.26332
 C461 C 0.90401 0.63710 0.24978
 C462 C 0.93666 0.63910 0.23608
 C463 C 0.95710 0.61034 0.23510
 C464 C 0.94562 0.57964 0.24889
 C465 C 0.88267 0.66538 0.24929
 C466 C 0.84922 0.66250 0.26067
 C467 C 0.83721 0.63108 0.27333
 C468 C 0.85901 0.60328 0.27529
 C469 C 0.80330 0.62770 0.28306
 C470 C 0.78136 0.65506 0.27992
 C471 C 0.79323 0.68640 0.26804
 C472 C 0.82723 0.69024 0.25876
 H473 H 0.90453 0.55368 0.27366
 H474 H 0.94605 0.66262 0.22539
 H475 H 0.98194 0.61202 0.22367
 H476 H 0.89174 0.68929 0.23909
 H477 H 0.84982 0.57928 0.28515
 H478 H 0.79364 0.60378 0.29256
 H479 H 0.75508 0.65198 0.28709
 H480 H 0.83618 0.71451 0.24940
 C481 C 0.08044 0.27993 0.58824
 C482 C 0.11018 0.27987 0.60775
 C483 C 0.13497 0.30535 0.60267
 C484 C 0.12864 0.33156 0.57954
 C485 C 0.09863 0.33181 0.56070
 C486 C 0.07476 0.30556 0.56426
 C487 C 0.16579 0.30395 0.62042
 C488 C 0.17167 0.27794 0.64393
 C489 C 0.14597 0.25368 0.65041
 C490 C 0.11568 0.25445 0.63190
 C491 C 0.15080 0.22927 0.67569
 C492 C 0.18082 0.22880 0.69428
 C493 C 0.20731 0.25130 0.68664
 C494 C 0.20258 0.27605 0.66155
 H495 H 0.06200 0.25971 0.59123
 H496 H 0.14717 0.35150 0.57554
 H497 H 0.09484 0.35165 0.54213
 H498 H 0.18510 0.32307 0.61600
 H499 H 0.09635 0.23535 0.63637
 H500 H 0.13105 0.21108 0.68162
 H501 H 0.18331 0.21100 0.71499
 H502 H 0.22257 0.29427 0.65650
 C503 C 0.94156 0.72810 0.59067
 C504 C 0.91263 0.72992 0.61116
 C505 C 0.88264 0.71274 0.60131
 C506 C 0.88265 0.69262 0.57216
 C507 C 0.91189 0.68997 0.55263
 C508 C 0.94123 0.70812 0.56140
 C509 C 0.85320 0.71584 0.62077
 C510 C 0.85374 0.73460 0.65081
 C511 C 0.88424 0.75018 0.66166
 C512 C 0.91324 0.74844 0.64137
 C513 C 0.88534 0.76674 0.69296
 C514 C 0.85667 0.76744 0.71349
 C515 C 0.82609 0.75305 0.70238
 C516 C 0.82452 0.73723 0.67073
 H517 H 0.96433 0.74197 0.59749
 H518 H 0.86003 0.67903 0.56441
 H519 H 0.91126 0.67471 0.52990
 H520 H 0.83007 0.70317 0.61287
 H521 H 0.93641 0.76097 0.64937
 H522 H 0.90856 0.77843 0.70190
 H523 H 0.85823 0.77931 0.73810
 H524 H 0.80090 0.72596 0.66228
 C525 C 0.08489 0.73001 0.39729
 C526 C 0.11086 0.72988 0.37304
 C527 C 0.13813 0.70701 0.37661
 C528 C 0.13828 0.68382 0.40350
 C529 C 0.11187 0.68346 0.42688
 C530 C 0.08527 0.70679 0.42429
 C531 C 0.16480 0.70765 0.35329
 C532 C 0.16414 0.73019 0.32585
 C533 C 0.13619 0.75203 0.32137
 C534 C 0.10995 0.75208 0.34526
 C535 C 0.13506 0.77355 0.29309
 C536 C 0.16146 0.77356 0.26963
 C537 C 0.18966 0.75262 0.27445
 C538 C 0.19102 0.73123 0.30277
 H539 H 0.06418 0.74781 0.39495
 H540 H 0.15883 0.66596 0.40646
 H541 H 0.11264 0.66543 0.44755
 H542 H 0.18596 0.69048 0.35638
 H543 H 0.08881 0.76925 0.34215
 H544 H 0.11379 0.79033 0.28913
 H545 H 0.16023 0.79033 0.24796
 H546 H 0.21317 0.71564 0.30691
 C547 C 0.90368 0.28784 0.42730
 C548 C 0.88014 0.28422 0.40092
 C549 C 0.89161 0.28181 0.36715
 C550 C 0.92647 0.28309 0.36043
 C551 C 0.94972 0.28670 0.38691
 C552 C 0.93838 0.28909 0.42031
 C553 C 0.86809 0.27828 0.34072
 C554 C 0.83328 0.27736 0.34760
 C555 C 0.82188 0.27983 0.38137
 C556 C 0.84537 0.28308 0.40780
 C557 C 0.78708 0.27942 0.38816
 C558 C 0.76374 0.27729 0.36172
 C559 C 0.77477 0.27510 0.32813
 C560 C 0.80961 0.27456 0.32122
 H561 H 0.89512 0.28965 0.45325
 H562 H 0.93572 0.28130 0.33476
 H563 H 0.97655 0.28757 0.38139
 H564 H 0.87686 0.27653 0.31484
 H565 H 0.83660 0.28500 0.43367
 H566 H 0.77792 0.28131 0.41386
 H567 H 0.73693 0.27789 0.36737
 H568 H 0.81812 0.27271 0.29527
 C569 C 0.27860 0.39934 0.91266
 C570 C 0.28283 0.37824 0.88455
 C571 C 0.31146 0.38228 0.86357
 C572 C 0.33609 0.40664 0.87202
 C573 C 0.33173 0.42755 0.90023
 C574 C 0.30259 0.42458 0.92036
 C575 C 0.31460 0.36239 0.83427
 C576 C 0.28949 0.33842 0.82591
 C577 C 0.26153 0.33373 0.84778
 C578 C 0.25835 0.35368 0.87678
 C579 C 0.23696 0.30921 0.84027
 C580 C 0.23972 0.28970 0.81119
 C581 C 0.26656 0.29480 0.78857
 C582 C 0.29163 0.31910 0.79609
 H583 H 0.25614 0.39660 0.92813
 H584 H 0.35835 0.41001 0.85642
 H585 H 0.35055 0.44687 0.90557
 H586 H 0.33629 0.36580 0.81787
 H587 H 0.23658 0.35035 0.89313
 H588 H 0.21566 0.30501 0.85698
 H589 H 0.22080 0.27036 0.80626
 H590 H 0.31268 0.32270 0.77892
 C591 C 0.73206 0.43150 0.09878
 C592 C 0.72921 0.40483 0.12212
 C593 C 0.73132 0.37091 0.11079
 C594 C 0.73524 0.36429 0.07619
 C595 C 0.73777 0.39104 0.05311
 C596 C 0.73656 0.42462 0.06438
 C597 C 0.72994 0.34423 0.13424
 C598 C 0.72621 0.35103 0.16880
 C599 C 0.72305 0.38490 0.17997
 C600 C 0.72473 0.41157 0.15658
 C601 C 0.71849 0.39153 0.21445
 C602 C 0.71754 0.36492 0.23772
 C603 C 0.72174 0.33134 0.22699
 C604 C 0.72588 0.32451 0.19245
 H605 H 0.73119 0.45758 0.10731
 H606 H 0.73677 0.33849 0.06706
 H607 H 0.74143 0.38559 0.02656
 H608 H 0.73201 0.31825 0.12563
 H609 H 0.72279 0.43756 0.16521
 H610 H 0.71576 0.41729 0.22341
 H611 H 0.71393 0.37050 0.26424
 H612 H 0.72910 0.29857 0.18415
 C613 C 0.75193 0.57997 0.90857
 C614 C 0.75753 0.60843 0.88787
 C615 C 0.77822 0.63532 0.89965
 C616 C 0.79397 0.63271 0.93134
 C617 C 0.78916 0.60383 0.95127
 C618 C 0.76782 0.57750 0.94027
 C619 C 0.78302 0.66427 0.87950
 C620 C 0.76835 0.66620 0.84723
 C621 C 0.74889 0.63864 0.83488
 C622 C 0.74311 0.61023 0.85548
 C623 C 0.73579 0.63982 0.80192
 C624 C 0.74178 0.66806 0.78146
 C625 C 0.75985 0.69601 0.79401
 C626 C 0.77317 0.69503 0.82689
 H627 H 0.73577 0.55948 0.89983
 H628 H 0.81011 0.65293 0.94067
 H629 H 0.80153 0.60238 0.97570
 H630 H 0.79848 0.68508 0.88877
 H631 H 0.72777 0.58936 0.84616
 H632 H 0.72118 0.61881 0.79189
 H633 H 0.73178 0.66846 0.75594
 H634 H 0.78767 0.71645 0.83626
 C635 C 0.27782 0.57829 0.07762
 C636 C 0.26953 0.60691 0.09693
 C637 C 0.24220 0.62771 0.08684
 C638 C 0.22281 0.61880 0.05846
 C639 C 0.23054 0.58969 0.04008
 C640 C 0.25829 0.56952 0.04922
 C641 C 0.23453 0.65695 0.10537
 C642 C 0.25295 0.66493 0.13466
 C643 C 0.27931 0.64332 0.14559
 C644 C 0.28787 0.61484 0.12631
 C645 C 0.29645 0.65040 0.17586
 C646 C 0.28730 0.67836 0.19530
 C647 C 0.26169 0.70029 0.18428
 C648 C 0.24504 0.69388 0.15358
 H649 H 0.29909 0.56258 0.08488
 H650 H 0.20165 0.63429 0.05050
 H651 H 0.21537 0.58341 0.01809
 H652 H 0.21389 0.67313 0.09732
 H653 H 0.30844 0.59860 0.13443
 H654 H 0.31657 0.63404 0.18475
 H655 H 0.30036 0.68308 0.21895
 H656 H 0.22579 0.71119 0.14465
 C657 C 0.42565 0.07626 0.72300
 C658 C 0.40266 0.10294 0.71846
 C659 C 0.40373 0.12256 0.68856
 C660 C 0.42643 0.11386 0.66288
 C661 C 0.44803 0.08614 0.66683
 C662 C 0.44849 0.06742 0.69719
 C663 C 0.38194 0.15036 0.68475
 C664 C 0.35798 0.15776 0.70977
 C665 C 0.35550 0.13675 0.73866
 C666 C 0.37831 0.10997 0.74319
 C667 C 0.33034 0.14300 0.76270
 C668 C 0.30807 0.17003 0.75837
 C669 C 0.31112 0.19192 0.73050
 C670 C 0.33646 0.18584 0.70644
 H671 H 0.42497 0.06174 0.74630
 H672 H 0.42730 0.12833 0.63959
 H673 H 0.46513 0.08007 0.64639
 H674 H 0.38333 0.16591 0.66215
 H675 H 0.37690 0.09441 0.76578
 H676 H 0.32790 0.12704 0.78488
 H677 H 0.28892 0.17455 0.77735
 H678 H 0.34013 0.20337 0.68574
 C679 C 0.40343 0.92819 0.26974
 C680 C 0.37965 0.90172 0.26811
 C681 C 0.37681 0.87866 0.29535
 C682 C 0.39679 0.88348 0.32438
 C683 C 0.42021 0.91018 0.32593
 C684 C 0.42429 0.93226 0.29834
 C685 C 0.35447 0.85095 0.29288
 C686 C 0.33465 0.84633 0.26368
 C687 C 0.33647 0.87028 0.23710
 C688 C 0.35913 0.89766 0.23937
 C689 C 0.31556 0.86645 0.20864
 C690 C 0.29328 0.83896 0.20631
 C691 C 0.29236 0.81425 0.23182
 C692 C 0.31297 0.81819 0.26059
 H693 H 0.40614 0.94531 0.24844
 H694 H 0.39476 0.86623 0.34562
 H695 H 0.43607 0.91276 0.34817
 H696 H 0.35269 0.83291 0.31352
 H697 H 0.36096 0.91565 0.21869
 H698 H 0.31619 0.88490 0.18832
 H699 H 0.27655 0.83713 0.18470
 H700 H 0.31187 0.79940 0.28060
 C701 C 0.57191 0.09587 0.29650
 C702 C 0.59772 0.11964 0.29003
 C703 C 0.62928 0.10858 0.27742
 C704 C 0.63434 0.07397 0.27126
 C705 C 0.60819 0.05065 0.27688
 C706 C 0.57697 0.06144 0.28959
 C707 C 0.65504 0.13229 0.27070
 C708 C 0.64950 0.16698 0.27593
 C709 C 0.61778 0.17804 0.28812
 C710 C 0.59219 0.15431 0.29525
 C711 C 0.61223 0.21270 0.29325
 C712 C 0.63814 0.23613 0.28736
 C713 C 0.66998 0.22537 0.27614
 C714 C 0.67532 0.19081 0.26968
 H715 H 0.54750 0.10420 0.30570
 H716 H 0.65826 0.06505 0.26145
 H717 H 0.61218 0.02416 0.27106
 H718 H 0.67929 0.12377 0.26126
 H719 H 0.56795 0.16284 0.30471
 H720 H 0.58807 0.22163 0.30246
 H721 H 0.63375 0.26267 0.29261
 H722 H 0.69990 0.18249 0.26098
 C723 C 0.60376 0.91843 0.73484
 C724 C 0.62550 0.89046 0.73697
 C725 C 0.61390 0.85815 0.72643
 C726 C 0.58104 0.85451 0.71338
 C727 C 0.55997 0.88267 0.71042
 C728 C 0.57114 0.91459 0.72129
 C729 C 0.63547 0.83012 0.72856
 C730 C 0.66883 0.83412 0.74012
 C731 C 0.68072 0.86654 0.74991
 C732 C 0.65883 0.89440 0.74874
 C733 C 0.71451 0.87062 0.76022
 C734 C 0.73637 0.84292 0.76054
 C735 C 0.72458 0.81067 0.75125
 C736 C 0.69074 0.80630 0.74136
 H737 H 0.61242 0.94331 0.74276
 H738 H 0.57182 0.83002 0.70500
 H739 H 0.53483 0.87957 0.69978
 H740 H 0.62651 0.80535 0.72064
 H741 H 0.66789 0.91922 0.75641
 H742 H 0.72412 0.89528 0.76760
 H743 H 0.76253 0.84652 0.76807
 H744 H 0.68186 0.78138 0.73382
 C745 C 0.74175 0.91732 0.58284
 C746 C 0.74345 0.89038 0.60618
 C747 C 0.71519 0.86865 0.61034
 C748 C 0.68542 0.87483 0.59213
 C749 C 0.68342 0.90239 0.57010
 C750 C 0.71156 0.92386 0.56482
 C751 C 0.71686 0.84139 0.63307
 C752 C 0.74588 0.83640 0.65288
 C753 C 0.77368 0.85888 0.64989
 C754 C 0.77261 0.88529 0.62600
 C755 C 0.80170 0.85501 0.67145
 C756 C 0.80189 0.82947 0.69606
 C757 C 0.77476 0.80650 0.69854
 C758 C 0.74708 0.80982 0.67643
 H759 H 0.76359 0.93376 0.57960
 H760 H 0.66345 0.85858 0.59526
 H761 H 0.65981 0.90647 0.55673
 H762 H 0.69523 0.82458 0.63595
 H763 H 0.79408 0.90232 0.62343
 H764 H 0.82303 0.87231 0.66993
 H765 H 0.82292 0.82809 0.71357
 H766 H 0.72597 0.79228 0.67841
 C767 C 0.26572 0.40882 0.07351
 C768 C 0.26919 0.38664 0.10109
 C769 C 0.29893 0.38759 0.12104
 C770 C 0.32527 0.40977 0.11218
 C771 C 0.32213 0.43100 0.08401
 C772 C 0.29213 0.43126 0.06459
 C773 C 0.30191 0.36625 0.14936
 C774 C 0.27597 0.34314 0.15729
 C775 C 0.24690 0.34121 0.13637
 C776 C 0.24344 0.36332 0.10880
 C777 C 0.22176 0.31705 0.14327
 C778 C 0.22530 0.29503 0.17064
 C779 C 0.25346 0.29737 0.19226
 C780 C 0.27867 0.32172 0.18561
 H781 H 0.24258 0.40813 0.05869
 H782 H 0.34840 0.41063 0.12697
 H783 H 0.34302 0.44782 0.07797
 H784 H 0.32452 0.36736 0.16496
 H785 H 0.22086 0.36214 0.09315
 H786 H 0.19949 0.31499 0.12733
 H787 H 0.20582 0.27618 0.17520
 H788 H 0.30017 0.32410 0.20248
 C789 C 0.23479 0.08949 0.56045
 C790 C 0.23423 0.11257 0.58735
 C791 C 0.20738 0.11141 0.61084
 C792 C 0.17975 0.08975 0.60487
 C793 C 0.17939 0.06841 0.57667
 C794 C 0.20763 0.06683 0.55512
 C795 C 0.20869 0.13188 0.63982
 C796 C 0.23526 0.15526 0.64420
 C797 C 0.25997 0.15901 0.61866
 C798 C 0.26004 0.13681 0.59105
 C799 C 0.28396 0.18517 0.62101
 C800 C 0.28363 0.20718 0.64855
 C801 C 0.26124 0.20178 0.67549
 C802 C 0.23720 0.17553 0.67329
 H803 H 0.25628 0.08942 0.54346
 H804 H 0.15853 0.08911 0.62216
 H805 H 0.15803 0.05142 0.57322
 H806 H 0.18882 0.13003 0.65860
 H807 H 0.27987 0.13874 0.57223
 H808 H 0.30244 0.18909 0.60119
 H809 H 0.30134 0.22821 0.64918
 H810 H 0.21985 0.17111 0.69394
 C811 C 0.21303 0.91458 0.39909
 C812 C 0.21994 0.88785 0.37679
 C813 C 0.23783 0.85913 0.38856
 C814 C 0.24907 0.85796 0.42220
 C815 C 0.24320 0.88523 0.44381
 C816 C 0.22505 0.91352 0.43246
 C817 C 0.24481 0.83239 0.36639
 C818 C 0.23513 0.83445 0.33233
 C819 C 0.21805 0.86357 0.32034
 C820 C 0.21011 0.88983 0.34275
 C821 C 0.20946 0.86606 0.28600
 C822 C 0.21761 0.83995 0.26377
 C823 C 0.23393 0.81078 0.27564
 C824 C 0.24258 0.80802 0.30992
 H825 H 0.19958 0.93679 0.39019
 H826 H 0.26300 0.83629 0.43159
 H827 H 0.25280 0.88428 0.46947
 H828 H 0.25829 0.81028 0.37550
 H829 H 0.19683 0.91204 0.33358
 H830 H 0.19654 0.88824 0.27633
 H831 H 0.21078 0.84219 0.23733
 H832 H 0.25525 0.78541 0.31893
 C833 C 0.71976 0.09006 0.42131
 C834 C 0.71587 0.11931 0.40141
 C835 C 0.68552 0.13812 0.40328
 C836 C 0.65922 0.12678 0.42416
 C837 C 0.66301 0.09726 0.44327
 C838 C 0.69338 0.07889 0.44234
 C839 C 0.68192 0.16791 0.38424
 C840 C 0.70792 0.17869 0.36266
 C841 C 0.73776 0.15922 0.35985
 C842 C 0.74174 0.12993 0.37958
 C843 C 0.76304 0.16925 0.33713
 C844 C 0.75868 0.19809 0.31714
 C845 C 0.72942 0.21790 0.32014
 C846 C 0.70438 0.20841 0.34348
 H847 H 0.74314 0.07581 0.42021
 H848 H 0.63573 0.14074 0.42574
 H849 H 0.64239 0.08919 0.45942
 H850 H 0.65878 0.18250 0.38596
 H851 H 0.76482 0.11528 0.37773
 H852 H 0.78597 0.15455 0.33447
 H853 H 0.77818 0.20502 0.29919
 H854 H 0.68194 0.22385 0.34619
 C855 C 0.59722 0.74709 0.91012
 C856 C 0.62144 0.74370 0.88441
 C857 C 0.62232 0.71371 0.86496
 C858 C 0.60049 0.68682 0.87295
 C859 C 0.57809 0.68948 0.90005
 C860 C 0.57563 0.71982 0.91856
 C861 C 0.64548 0.71080 0.83830
 C862 C 0.66933 0.73655 0.83230
 C863 C 0.67010 0.76542 0.85338
 C864 C 0.64548 0.76934 0.87856
 C865 C 0.69580 0.78966 0.84920
 C866 C 0.72046 0.78533 0.82440
 C867 C 0.71894 0.75768 0.80211
 C868 C 0.69290 0.73359 0.80599
 H869 H 0.59638 0.77036 0.92462
 H870 H 0.60116 0.66346 0.85864
 H871 H 0.56191 0.66800 0.90581
 H872 H 0.64558 0.68811 0.82287
 H873 H 0.64560 0.79190 0.89417
 H874 H 0.69716 0.81167 0.86548
 H875 H 0.74060 0.80391 0.82225
 H876 H 0.69093 0.71259 0.78856
 C877 C 0.08457 0.27303 0.40844
 C878 C 0.11219 0.27359 0.38624
 C879 C 0.13521 0.30117 0.38696
 C880 C 0.12961 0.32817 0.40916
 C881 C 0.10157 0.32780 0.43057
 C882 C 0.07909 0.30012 0.43064
 C883 C 0.16332 0.30138 0.36540
 C884 C 0.16818 0.27485 0.34246
 C885 C 0.14449 0.24787 0.34094
 C886 C 0.11694 0.24717 0.36316
 C887 C 0.14857 0.22216 0.31696
 C888 C 0.17574 0.22326 0.29457
 C889 C 0.19981 0.24946 0.29643
 C890 C 0.19611 0.27505 0.32065
 H891 H 0.06706 0.25178 0.40813
 H892 H 0.14685 0.34960 0.40992
 H893 H 0.09783 0.34887 0.44762
 H894 H 0.18117 0.32235 0.36621
 H895 H 0.09902 0.22626 0.36225
 H896 H 0.13051 0.20148 0.31522
 H897 H 0.17802 0.20365 0.27563
 H898 H 0.21477 0.29521 0.32222
 C899 C 0.57545 0.26603 0.09256
 C900 C 0.59786 0.26263 0.11998
 C901 C 0.61755 0.23298 0.12326
 C902 C 0.61371 0.20682 0.09967
 C903 C 0.59046 0.20983 0.07315
 C904 C 0.57122 0.23954 0.06902
 C905 C 0.64058 0.22987 0.15016
 C906 C 0.64354 0.25566 0.17433
 C907 C 0.62288 0.28474 0.17179
 C908 C 0.60049 0.28822 0.14442
 C909 C 0.62507 0.30994 0.19662
 C910 C 0.64812 0.30681 0.22326
 C911 C 0.66984 0.27881 0.22512
 C912 C 0.66707 0.25302 0.20086
 H913 H 0.56058 0.28894 0.09025
 H914 H 0.62843 0.18382 0.10193
 H915 H 0.58793 0.18892 0.05563
 H916 H 0.65607 0.20734 0.15236
 H917 H 0.58501 0.31075 0.14224
 H918 H 0.60918 0.33221 0.19528
 H919 H 0.64970 0.32670 0.24201
 H920 H 0.68381 0.23137 0.20225
 C921 C 0.43287 0.24931 0.89789
 C922 C 0.40446 0.24840 0.87649
 C923 C 0.37156 0.24728 0.89058
 C924 C 0.36762 0.24832 0.92576
 C925 C 0.39601 0.25004 0.94681
 C926 C 0.42863 0.25016 0.93300
 C927 C 0.34316 0.24520 0.86934
 C928 C 0.34712 0.24534 0.83416
 C929 C 0.37991 0.24782 0.82005
 C930 C 0.40840 0.24874 0.84129
 C931 C 0.38364 0.24971 0.78490
 C932 C 0.35514 0.24971 0.76396
 C933 C 0.32252 0.24673 0.77769
 C934 C 0.31875 0.24370 0.81283
 H935 H 0.45820 0.24951 0.88738
 H936 H 0.34264 0.24771 0.93699
 H937 H 0.39259 0.25047 0.97396
 H938 H 0.31798 0.24395 0.88016
 H939 H 0.43356 0.25014 0.83045
 H940 H 0.40853 0.25183 0.77364
 H941 H 0.35849 0.25217 0.73691
 H942 H 0.29369 0.24078 0.82354
 C943 C 0.42138 0.75099 0.07077
 C944 C 0.39923 0.75081 0.09857
 C945 C 0.40783 0.73237 0.12808
 C946 C 0.43798 0.71377 0.12894
 C947 C 0.45917 0.71305 0.10074
 C948 C 0.45118 0.73174 0.07159
 C949 C 0.38586 0.73222 0.15595
 C950 C 0.35471 0.74910 0.15423
 C951 C 0.34565 0.76659 0.12429
 C952 C 0.36823 0.76794 0.09698
 C953 C 0.31371 0.78174 0.12180
 C954 C 0.29080 0.77919 0.14847
 C955 C 0.29986 0.76277 0.17861
 C956 C 0.33198 0.74795 0.18154
 H957 H 0.41491 0.76505 0.04809
 H958 H 0.44490 0.69931 0.15121
 H959 H 0.48209 0.69810 0.10176
 H960 H 0.39262 0.71826 0.17861
 H961 H 0.36130 0.78158 0.07417
 H962 H 0.30613 0.79481 0.09891
 H963 H 0.26577 0.78992 0.14557
 H964 H 0.33872 0.73468 0.20459
 C965 C 0.92689 0.57831 0.75871
 C966 C 0.90405 0.60526 0.76202
 C967 C 0.90406 0.62485 0.79188
 C968 C 0.92581 0.61621 0.81852
 C969 C 0.94750 0.58854 0.81561
 C970 C 0.94878 0.56954 0.78552
 C971 C 0.88222 0.65263 0.79473
 C972 C 0.85946 0.66032 0.76857
 C973 C 0.85820 0.63961 0.73945
 C974 C 0.88089 0.61261 0.73609
 C975 C 0.83405 0.64612 0.71426
 C976 C 0.81174 0.67321 0.71762
 C977 C 0.81411 0.69502 0.74547
 C978 C 0.83780 0.68830 0.77109
 H979 H 0.92697 0.56371 0.73553
 H980 H 0.92592 0.63073 0.84173
 H981 H 0.96389 0.58259 0.83679
 H982 H 0.88270 0.66804 0.81740
 H983 H 0.88031 0.59715 0.71346
 H984 H 0.83227 0.63016 0.69208
 H985 H 0.79279 0.67742 0.69827
 H986 H 0.83933 0.70489 0.79284
 C987 C 0.41874 0.08190 0.26957
 C988 C 0.39566 0.10886 0.27057
 C989 C 0.39422 0.12981 0.29947
 C990 C 0.41462 0.12248 0.32750
 C991 C 0.43611 0.09454 0.32707
 C992 C 0.43886 0.07416 0.29800
 C993 C 0.37199 0.15739 0.30018
 C994 C 0.34982 0.16321 0.27310
 C995 C 0.34986 0.14108 0.24501
 C996 C 0.37338 0.11462 0.24351
 C997 C 0.32599 0.14551 0.21912
 C998 C 0.30237 0.17160 0.22105
 C999 C 0.30318 0.19462 0.24802
 C1000 C 0.32714 0.19044 0.27391
 H1001 H 0.41996 0.06616 0.24718
 H1002 H 0.41357 0.13804 0.34999
 H1003 H 0.45123 0.08946 0.34938
 H1004 H 0.37137 0.17380 0.32212
 H1005 H 0.37379 0.09806 0.22168
 H1006 H 0.32525 0.12850 0.19768
 H1007 H 0.28351 0.17405 0.20129
 H1008 H 0.32798 0.20826 0.29467
 C1009 C 0.08956 0.57947 0.22625
 C1010 C 0.11597 0.60299 0.23069
 C1011 C 0.13580 0.60215 0.26048
 C1012 C 0.12776 0.57885 0.28604
 C1013 C 0.10007 0.55694 0.28235
 C1014 C 0.08086 0.55665 0.25227
 C1015 C 0.16274 0.62518 0.26459
 C1016 C 0.16865 0.65045 0.24026
 C1017 C 0.14738 0.65252 0.21148
 C1018 C 0.12196 0.62816 0.20634
 C1019 C 0.15131 0.67948 0.18873
 C1020 C 0.17588 0.70430 0.19454
 C1021 C 0.19823 0.70157 0.22202
 C1022 C 0.19480 0.67435 0.24466
 H1023 H 0.07466 0.58025 0.20319
 H1024 H 0.14241 0.57809 0.30923
 H1025 H 0.09414 0.53973 0.30289
 H1026 H 0.17833 0.62416 0.28719
 H1027 H 0.10610 0.62946 0.18394
 H1028 H 0.13482 0.68185 0.16692
 H1029 H 0.17765 0.72568 0.17743
 H1030 H 0.21201 0.67217 0.26591
 C1031 C 0.89990 0.43302 0.26069
 C1032 C 0.87330 0.40940 0.25809
 C1033 C 0.86911 0.39052 0.22801
 C1034 C 0.89081 0.39651 0.20065
 C1035 C 0.91686 0.42046 0.20325
 C1036 C 0.92201 0.43851 0.23341
 C1037 C 0.84353 0.36580 0.22586
 C1038 C 0.82170 0.36010 0.25321
 C1039 C 0.82503 0.37990 0.28279
 C1040 C 0.85099 0.40420 0.28517
 C1041 C 0.80237 0.37497 0.30959
 C1042 C 0.77692 0.35039 0.30729
 C1043 C 0.77422 0.32971 0.27856
 C1044 C 0.79663 0.33481 0.25150
 H1045 H 0.90347 0.44706 0.28396
 H1046 H 0.88784 0.38244 0.17733
 H1047 H 0.93362 0.42416 0.18194
 H1048 H 0.84068 0.35096 0.20298
 H1049 H 0.85387 0.41897 0.30808
 H1050 H 0.80432 0.39013 0.33231
 H1051 H 0.75954 0.34709 0.32816
 H1052 H 0.79457 0.31894 0.22926
 C1053 C 0.10236 0.41739 0.75201
 C1054 C 0.12349 0.38888 0.75103
 C1055 C 0.11362 0.35874 0.76789
 C1056 C 0.08331 0.35796 0.78623
 C1057 C 0.06308 0.38680 0.78804
 C1058 C 0.07233 0.41646 0.77076
 C1059 C 0.13440 0.33007 0.76660
 C1060 C 0.16556 0.33149 0.74980
 C1061 C 0.17597 0.36197 0.73392
 C1062 C 0.15460 0.39024 0.73409
 C1063 C 0.20784 0.36377 0.71849
 C1064 C 0.22927 0.33576 0.71901
 C1065 C 0.21883 0.30534 0.73414
 C1066 C 0.18679 0.30310 0.74913
 H1067 H 0.10961 0.44052 0.73901
 H1068 H 0.07547 0.33520 0.79949
 H1069 H 0.03990 0.38588 0.80259
 H1070 H 0.12665 0.30689 0.77924
 H1071 H 0.16245 0.41348 0.72161
 H1072 H 0.21632 0.38693 0.70636
 H1073 H 0.25394 0.33760 0.70724
 H1074 H 0.17875 0.27946 0.76064
 C1075 C 0.92673 0.72740 0.41228
 C1076 C 0.89678 0.72500 0.39311
 C1077 C 0.87822 0.69425 0.39270
 C1078 C 0.89045 0.66616 0.41057
 C1079 C 0.92047 0.66860 0.42915
 C1080 C 0.93868 0.69929 0.43059
 C1081 C 0.84780 0.69201 0.37442
 C1082 C 0.83616 0.71982 0.35567
 C1083 C 0.85524 0.75024 0.35519
 C1084 C 0.88511 0.75283 0.37434
 C1085 C 0.84442 0.77738 0.33506
 C1086 C 0.81565 0.77402 0.31472
 C1087 C 0.79648 0.74395 0.31500
 C1088 C 0.80626 0.71734 0.33652
 H1089 H 0.94061 0.75115 0.41307
 H1090 H 0.87669 0.64235 0.41038
 H1091 H 0.92895 0.64662 0.44319
 H1092 H 0.83350 0.66846 0.37432
 H1093 H 0.89952 0.77630 0.37423
 H1094 H 0.85878 0.80083 0.33423
 H1095 H 0.80869 0.79473 0.29812
 H1096 H 0.79125 0.69433 0.33744
 C1097 C 0.92468 0.27560 0.58599
 C1098 C 0.89541 0.27398 0.60604
 C1099 C 0.86618 0.29215 0.59619
 C1100 C 0.86722 0.31277 0.56730
 C1101 C 0.89682 0.31516 0.54819
 C1102 C 0.92552 0.29628 0.55709
 C1103 C 0.83651 0.28967 0.61550
 C1104 C 0.83612 0.27043 0.64535
 C1105 C 0.86587 0.25360 0.65605
 C1106 C 0.89505 0.25484 0.63594
 C1107 C 0.86618 0.23647 0.68712
 C1108 C 0.83747 0.23639 0.70759
 C1109 C 0.80751 0.25187 0.69660
 C1110 C 0.80680 0.26860 0.66529
 H1111 H 0.94694 0.26121 0.59305
 H1112 H 0.84518 0.32708 0.55952
 H1113 H 0.89700 0.33102 0.52580
 H1114 H 0.81398 0.30323 0.60768
 H1115 H 0.91766 0.24149 0.64392
 H1116 H 0.88889 0.22395 0.69600
 H1117 H 0.83862 0.22436 0.73219
 H1118 H 0.78385 0.28126 0.65722
 C1119 C 0.08542 0.73567 0.59083
 C1120 C 0.11118 0.73664 0.61546
 C1121 C 0.13958 0.71517 0.61230
 C1122 C 0.14118 0.69233 0.58527
 C1123 C 0.11491 0.69071 0.56161
 C1124 C 0.08708 0.71253 0.56397
 C1125 C 0.16578 0.71662 0.63632
 C1126 C 0.16348 0.73846 0.66411
 C1127 C 0.13447 0.75898 0.66802
 C1128 C 0.10878 0.75833 0.64341
 C1129 C 0.13163 0.77973 0.69661
 C1130 C 0.15732 0.78029 0.72097
 C1131 C 0.18654 0.76077 0.71673
 C1132 C 0.18963 0.74000 0.68821
 H1133 H 0.06370 0.75222 0.59298
 H1134 H 0.16261 0.67553 0.58259
 H1135 H 0.11656 0.67273 0.54103
 H1136 H 0.18774 0.70047 0.63360
 H1137 H 0.08677 0.77441 0.64620
 H1138 H 0.10952 0.79545 0.70016
 H1139 H 0.15478 0.79648 0.74287
 H1140 H 0.21233 0.72504 0.68496
 C1141 C 0.75316 0.58648 0.08562
 C1142 C 0.74641 0.60733 0.11337
 C1143 C 0.71551 0.60374 0.13102
 C1144 C 0.69134 0.58016 0.11968
 C1145 C 0.69800 0.55995 0.09150
 C1146 C 0.72915 0.56257 0.07467
 C1147 C 0.70940 0.62366 0.15970
 C1148 C 0.73349 0.64764 0.17040
 C1149 C 0.76374 0.65209 0.15178
 C1150 C 0.77017 0.63164 0.12370
 C1151 C 0.78709 0.67706 0.16144
 C1152 C 0.78061 0.69748 0.18930
 C1153 C 0.75128 0.69263 0.20866
 C1154 C 0.72781 0.66748 0.19924
 H1155 H 0.77709 0.58889 0.07245
 H1156 H 0.66742 0.57721 0.13270
 H1157 H 0.67921 0.54156 0.08346
 H1158 H 0.68593 0.62061 0.17356
 H1159 H 0.79363 0.63474 0.10981
 H1160 H 0.81018 0.68105 0.14724
 H1161 H 0.79860 0.71720 0.19588
 H1162 H 0.70515 0.66363 0.21415
 C1163 C 0.26550 0.59277 0.92194
 C1164 C 0.26109 0.61622 0.89560
 C1165 C 0.26219 0.60505 0.86165
 C1166 C 0.26716 0.57059 0.85468
 C1167 C 0.27108 0.54739 0.88110
 C1168 C 0.27046 0.55843 0.91469
 C1169 C 0.25831 0.62845 0.83524
 C1170 C 0.25300 0.66279 0.84231
 C1171 C 0.25125 0.67391 0.87621
 C1172 C 0.25549 0.65057 0.90265
 C1173 C 0.24535 0.70825 0.88306
 C1174 C 0.24149 0.73139 0.85656
 C1175 C 0.24387 0.72060 0.82291
 C1176 C 0.24955 0.68626 0.81593
 H1177 H 0.26482 0.60107 0.94804
 H1178 H 0.26794 0.56159 0.82885
 H1179 H 0.27482 0.52084 0.87538
 H1180 H 0.25939 0.61993 0.80922
 H1181 H 0.25440 0.65910 0.92867
 H1182 H 0.24380 0.71720 0.90887
 H1183 H 0.23699 0.75781 0.86224
 H1184 H 0.25162 0.67800 0.78991
 C1185 C 0.75310 0.42784 0.90278
 C1186 C 0.75719 0.39992 0.88135
 C1187 C 0.78027 0.37405 0.89019
 C1188 C 0.80014 0.37748 0.91943
 C1189 C 0.79639 0.40573 0.94030
 C1190 C 0.77232 0.43067 0.93256
 C1191 C 0.78279 0.34505 0.86991
 C1192 C 0.76316 0.34204 0.84045
 C1193 C 0.74145 0.36880 0.83070
 C1194 C 0.73825 0.39731 0.85145
 C1195 C 0.72334 0.36664 0.80026
 C1196 C 0.72663 0.33821 0.77969
 C1197 C 0.74696 0.31101 0.78986
 C1198 C 0.76508 0.31287 0.82033
 H1199 H 0.73469 0.44718 0.89655
 H1200 H 0.81818 0.35808 0.92645
 H1201 H 0.81130 0.40738 0.96326
 H1202 H 0.79999 0.32489 0.87703
 H1203 H 0.72102 0.41746 0.84433
 H1204 H 0.70693 0.38706 0.79221
 H1205 H 0.71294 0.33713 0.75595
 H1206 H 0.78108 0.29192 0.82791
 C1207 C 0.58229 0.91044 0.27522
 C1208 C 0.60346 0.88201 0.27745
 C1209 C 0.60240 0.86113 0.30656
 C1210 C 0.58073 0.86940 0.33320
 C1211 C 0.56038 0.89813 0.33112
 C1212 C 0.56083 0.91877 0.30212
 C1213 C 0.62326 0.83255 0.30876
 C1214 C 0.64592 0.82511 0.28267
 C1215 C 0.64762 0.84651 0.25396
 C1216 C 0.62602 0.87448 0.25130
 C1217 C 0.67134 0.83991 0.22863
 C1218 C 0.69360 0.81280 0.23198
 C1219 C 0.69192 0.79120 0.26019
 C1220 C 0.66750 0.79706 0.28516
 H1221 H 0.58301 0.92642 0.25291
 H1222 H 0.57969 0.85380 0.35574
 H1223 H 0.54390 0.90400 0.35211
 H1224 H 0.62231 0.81648 0.33103
 H1225 H 0.62721 0.89072 0.22916
 H1226 H 0.67317 0.85614 0.20658
 H1227 H 0.71254 0.80883 0.21268
 H1228 H 0.66599 0.78033 0.30687
 C1229 C 0.58577 0.08770 0.72093
 C1230 C 0.61429 0.10846 0.72576
 C1231 C 0.64683 0.09375 0.72821
 C1232 C 0.65032 0.05857 0.72475
 C1233 C 0.62179 0.03815 0.71942
 C1234 C 0.58949 0.05262 0.71784
 C1235 C 0.67525 0.11442 0.73411
 C1236 C 0.67163 0.14966 0.73674
 C1237 C 0.63920 0.16435 0.73309
 C1238 C 0.61072 0.14365 0.72813
 C1239 C 0.63577 0.19961 0.73403
 C1240 C 0.66426 0.22021 0.73781
 C1241 C 0.69656 0.20600 0.74178
 C1242 C 0.69998 0.17057 0.74221
 H1243 H 0.56069 0.09872 0.71960
 H1244 H 0.67503 0.04685 0.72634
 H1245 H 0.62479 0.01097 0.71719
 H1246 H 0.70016 0.10315 0.73628
 H1247 H 0.58584 0.15495 0.72577
 H1248 H 0.61117 0.21128 0.73107
 H1249 H 0.66118 0.24747 0.73727
 H1250 H 0.72479 0.15945 0.74565
 C1251 C 0.40856 0.92755 0.72543
 C1252 C 0.38550 0.90056 0.72776
 C1253 C 0.39201 0.86997 0.71041
 C1254 C 0.42047 0.86772 0.68943
 C1255 C 0.44288 0.89510 0.68659
 C1256 C 0.43749 0.92476 0.70522
 C1257 C 0.37024 0.84211 0.71468
 C1258 C 0.34149 0.84483 0.73520
 C1259 C 0.33395 0.87611 0.75084
 C1260 C 0.35629 0.90357 0.74749
 C1261 C 0.30405 0.87947 0.76946
 C1262 C 0.28186 0.85208 0.77265
 C1263 C 0.28996 0.82059 0.75863
 C1264 C 0.31985 0.81695 0.74002
 H1265 H 0.40432 0.95058 0.73967
 H1266 H 0.42570 0.84462 0.67569
 H1267 H 0.46529 0.89253 0.67111
 H1268 H 0.37561 0.81840 0.70201
 H1269 H 0.35093 0.92727 0.76018
 H1270 H 0.29762 0.90338 0.78115
 H1271 H 0.25841 0.85529 0.78636
 H1272 H 0.32577 0.79267 0.72881
   
