data_POSCAR
  _audit_creation_date              2014-09-24
  _audit_creation_method            'ToBaCCo'
  _symmetry_space_group_name_H-M    'P1'
  _symmetry_Int_Tables_number       1
  _symmetry_cell_setting            triclinic
  loop_
  _symmetry_equiv_pos_as_xyz
 x,y,z
_cell_length_a 38.2939
_cell_length_b 38.3097
_cell_length_c 38.3124
_cell_angle_alpha 89.971900
_cell_angle_beta 89.991600
_cell_angle_gamma 90.027100
loop_
  _atom_site_label
  _atom_site_type_symbol
  _atom_site_fract_x
  _atom_site_fract_y
  _atom_site_fract_z
C1 C 0.22392 0.98334 0.10323
 C2 C 0.22335 1.01916 0.10291
 C3 C 0.24025 1.02958 0.07258
 N4 N 0.25041 1.00135 0.05406
 C5 C 0.24071 0.97312 0.07291
 C6 C 0.24802 1.06441 0.06287
 C7 C 0.25583 1.07255 0.02758
 C8 C 0.27510 1.10115 0.01643
 C9 C 0.27447 1.10080 -0.01942
 C10 C 0.25491 1.07195 -0.02928
 N11 N 0.24431 1.05438 -0.00048
 C12 C 0.24618 1.06295 -0.06413
 C13 C 0.23913 1.02772 -0.07285
 C14 C 0.22225 1.01614 -0.10275
 C15 C 0.22396 0.98035 -0.10229
 C16 C 0.24123 0.97133 -0.07185
 N17 N 0.25024 1.00024 -0.05376
 C18 C 0.25078 0.93716 -0.06208
 C19 C 0.25962 0.92899 -0.02725
 C20 C 0.27654 0.89891 -0.01633
 C21 C 0.27601 0.89921 0.01962
 C22 C 0.25886 0.92951 0.02950
 N23 N 0.24936 0.94768 0.00082
 C24 C 0.24934 0.93846 0.06393
 H25 H 0.21316 0.96674 0.12342
 H26 H 0.21182 1.03563 0.12274
 H27 H 0.23283 0.96928 0.00043
 H28 H 0.28838 1.12024 0.03245
 H29 H 0.28718 1.11956 -0.03631
 H30 H 0.21004 1.03178 -0.12286
 H31 H 0.21355 0.96298 -0.12198
 H32 H 0.28648 0.87912 0.03650
 H33 H 0.22718 1.03320 0.00000
 H34 H 0.28746 0.87851 -0.03252
 C35 C 0.75490 0.48013 0.60928
 C36 C 0.75525 0.51583 0.60958
 C37 C 0.75229 0.52665 0.57514
 N38 N 0.74919 0.49856 0.55404
 C39 C 0.75051 0.47006 0.57481
 C40 C 0.75276 0.56196 0.56403
 C41 C 0.75305 0.57293 0.52860
 C42 C 0.75904 0.60709 0.51810
 C43 C 0.75854 0.60734 0.48234
 C44 C 0.75233 0.57332 0.47160
 N45 N 0.74867 0.55254 0.50003
 C46 C 0.75142 0.56278 0.43608
 C47 C 0.75152 0.52756 0.42472
 C48 C 0.75451 0.51707 0.39020
 C49 C 0.75503 0.48136 0.39028
 C50 C 0.75101 0.47093 0.42470
 N51 N 0.74916 0.49924 0.44566
 C52 C 0.74707 0.43590 0.43583
 C53 C 0.74193 0.42598 0.47108
 C54 C 0.72919 0.39368 0.48137
 C55 C 0.72879 0.39352 0.51714
 C56 C 0.74136 0.42570 0.52796
 N57 N 0.74936 0.44543 0.49967
 C58 C 0.74599 0.43520 0.56341
 H59 H 0.75725 0.46368 0.63210
 H60 H 0.75762 0.53175 0.63274
 H61 H 0.76256 0.46914 0.49985
 H62 H 0.76419 0.62954 0.53445
 H63 H 0.76328 0.62999 0.46614
 H64 H 0.75638 0.53320 0.36712
 H65 H 0.75760 0.46515 0.36733
 H66 H 0.71997 0.37211 0.53335
 H67 H 0.74157 0.52649 0.49997
 H68 H 0.72072 0.37242 0.46479
 C69 C 0.77303 0.89293 0.98346
 C70 C 0.77244 0.89283 1.01924
 C71 C 0.76037 0.92543 1.02965
 N72 N 0.75280 0.94490 1.00118
 C73 C 0.76040 0.92513 0.97301
 C74 C 0.75210 0.93552 1.06436
 C75 C 0.74324 0.97057 1.07293
 C76 C 0.72967 0.98190 1.10466
 C77 C 0.72905 1.01776 1.10369
 C78 C 0.74300 1.02761 1.07183
 N79 N 0.75133 0.99881 1.05320
 C80 C 0.75117 1.06225 1.06198
 C81 C 0.75860 1.07133 1.02708
 C82 C 0.77476 1.10190 1.01652
 C83 C 0.77448 1.10171 0.98074
 C84 C 0.75768 1.07123 0.97067
 N85 N 0.74838 1.05248 0.99909
 C86 C 0.74968 1.06146 0.93592
 C87 C 0.74236 1.02604 0.92779
 C88 C 0.72430 1.01446 0.89858
 C89 C 0.72535 0.97860 0.89923
 C90 C 0.74348 0.96923 0.92909
 N91 N 0.75342 0.99823 0.94660
 C92 C 0.75250 0.93468 0.93829
 H93 H 0.78087 0.87129 0.96710
 H94 H 0.77919 0.87066 1.03531
 H95 H 0.77020 0.99899 0.96801
 H96 H 0.72212 0.96641 1.12698
 H97 H 0.72044 1.03462 1.12464
 H98 H 0.78575 1.12213 1.03289
 H99 H 0.78553 1.12169 0.96408
 H100 H 0.71403 0.96137 0.87991
 H101 H 0.76614 0.99875 1.03043
 H102 H 0.71173 1.03016 0.87875
 C103 C 0.27441 0.51734 0.60462
 C104 C 0.27424 0.48149 0.60435
 C105 C 0.25942 0.47151 0.57289
 N106 N 0.25062 0.49991 0.55397
 C107 C 0.25961 0.52794 0.57335
 C108 C 0.25141 0.43693 0.56302
 C109 C 0.24333 0.42810 0.52810
 C110 C 0.22729 0.39743 0.51747
 C111 C 0.22745 0.39757 0.48154
 C112 C 0.24351 0.42835 0.47127
 N113 N 0.25287 0.44692 0.49979
 C114 C 0.25158 0.43763 0.43647
 C115 C 0.25869 0.47255 0.42697
 C116 C 0.27273 0.48337 0.39542
 C117 C 0.27213 0.51922 0.39571
 C118 C 0.25776 0.52901 0.42744
 N119 N 0.24970 0.50047 0.44652
 C120 C 0.24966 0.56351 0.43756
 C121 C 0.24179 0.57208 0.47258
 C122 C 0.22544 0.60248 0.48348
 C123 C 0.22614 0.60232 0.51940
 C124 C 0.24286 0.57181 0.52938
 N125 N 0.25202 0.55339 0.50071
 C126 C 0.25177 0.56272 0.56402
 H127 H 0.28408 0.53367 0.62553
 H128 H 0.28373 0.46473 0.62501
 H129 H 0.26819 0.53153 0.50030
 H130 H 0.21692 0.37688 0.53385
 H131 H 0.21719 0.37718 0.46490
 H132 H 0.28221 0.46716 0.37432
 H133 H 0.28108 0.53610 0.37489
 H134 H 0.21586 0.62255 0.53621
 H135 H 0.26864 0.46909 0.49992
 H136 H 0.21455 0.62289 0.46727
 C137 C 0.98148 0.22087 0.10138
 C138 C 1.01732 0.22104 0.10139
 C139 C 1.02763 0.23861 0.07141
 N140 N 0.99938 0.24837 0.05273
 C141 C 0.97121 0.23787 0.07119
 C142 C 1.06231 0.24755 0.06224
 C143 C 1.07044 0.25620 0.02714
 C144 C 1.09857 0.27639 0.01641
 C145 C 1.09834 0.27635 -0.01946
 C146 C 1.07003 0.25621 -0.02971
 N147 N 1.05265 0.24473 -0.00116
 C148 C 1.06153 0.24730 -0.06458
 C149 C 1.02655 0.23920 -0.07342
 C150 C 1.01590 0.22037 -0.10243
 C151 C 0.98009 0.22086 -0.10238
 C152 C 0.97005 0.23991 -0.07329
 N153 N 0.99849 0.25058 -0.05526
 C154 C 0.93525 0.24848 -0.06411
 C155 C 0.92703 0.25686 -0.02900
 C156 C 0.89790 0.27533 -0.01781
 C157 C 0.89821 0.27452 0.01810
 C158 C 0.92780 0.25612 0.02779
 N159 N 0.94551 0.24594 -0.00098
 C160 C 0.93661 0.24651 0.06223
 H161 H 0.96489 0.20965 0.12132
 H162 H 1.03386 0.20967 0.12128
 H163 H 0.96684 0.22902 -0.00146
 H164 H 1.11730 0.28986 0.03272
 H165 H 1.11687 0.28970 -0.03611
 H166 H 1.03221 0.20741 -0.12151
 H167 H 0.96337 0.20829 -0.12136
 H168 H 0.87879 0.28599 0.03512
 H169 H 1.03191 0.22704 -0.00110
 H170 H 0.87824 0.28780 -0.03380
 C171 C 0.48478 0.72662 0.60548
 C172 C 0.52065 0.72686 0.60495
 C173 C 0.53041 0.74157 0.57336
 N174 N 0.50184 0.75024 0.55461
 C175 C 0.47393 0.74128 0.57423
 C176 C 0.56494 0.74947 0.56312
 C177 C 0.57340 0.75740 0.52808
 C178 C 0.60393 0.77346 0.51701
 C179 C 0.60344 0.77305 0.48109
 C180 C 0.57261 0.75680 0.47126
 N181 N 0.55433 0.74763 0.50003
 C182 C 0.56309 0.74827 0.43665
 C183 C 0.52814 0.74094 0.42756
 C184 C 0.51710 0.72636 0.39634
 C185 C 0.48125 0.72705 0.39687
 C186 C 0.47170 0.74198 0.42841
 N187 N 0.50037 0.75030 0.44715
 C188 C 0.43731 0.75045 0.43858
 C189 C 0.42894 0.75844 0.47363
 C190 C 0.39862 0.77484 0.48469
 C191 C 0.39907 0.77432 0.52062
 C192 C 0.42968 0.75769 0.53046
 N193 N 0.44786 0.74837 0.50168
 C194 C 0.43904 0.74892 0.56507
 H195 H 0.46861 0.71698 0.62655
 H196 H 0.53757 0.71742 0.62551
 H197 H 0.46974 0.73222 0.50122
 H198 H 0.62462 0.78398 0.53311
 H199 H 0.62367 0.78321 0.46417
 H200 H 0.53316 0.71650 0.37530
 H201 H 0.46420 0.71781 0.37632
 H202 H 0.37895 0.78467 0.53755
 H203 H 0.53223 0.73176 0.50050
 H204 H 0.37807 0.78564 0.46859
 C205 C 0.10322 0.77966 0.01853
 C206 C 0.10331 0.77958 -0.01731
 C207 C 0.07331 0.76210 -0.02772
 N208 N 0.05455 0.75228 0.00048
 C209 C 0.07296 0.76268 0.02870
 C210 C 0.06418 0.75333 -0.06245
 C211 C 0.02912 0.74457 -0.07069
 C212 C 0.01859 0.72445 -0.09892
 C213 C -0.01730 0.72433 -0.09882
 C214 C -0.02776 0.74432 -0.07050
 N215 N 0.00069 0.75585 -0.05298
 C216 C -0.06274 0.75294 -0.06205
 C217 C -0.07168 0.76085 -0.02709
 C218 C -0.10087 0.77941 -0.01640
 C219 C -0.10087 0.77871 0.01939
 C220 C -0.07164 0.75983 0.02937
 N221 N -0.05347 0.74946 0.00093
 C222 C -0.06244 0.75114 0.06411
 C223 C -0.02732 0.74288 0.07236
 C224 C -0.01613 0.72434 0.10144
 C225 C 0.01978 0.72544 0.10129
 C226 C 0.02945 0.74408 0.07185
 N227 N 0.00069 0.75412 0.05405
 C228 C 0.06384 0.75405 0.06327
 H229 H 0.12314 0.79082 0.03517
 H230 H 0.12326 0.79097 -0.03377
 H231 H 0.00016 0.77119 0.03283
 H232 H 0.03504 0.71113 -0.11762
 H233 H -0.03381 0.71095 -0.11742
 H234 H -0.12002 0.79230 -0.03268
 H235 H -0.12001 0.79101 0.03614
 H236 H 0.03680 0.71402 0.12074
 H237 H 0.00061 0.77344 -0.03219
 H238 H -0.03213 0.71166 0.12098
 C239 C 0.60351 0.27219 0.51644
 C240 C 0.60338 0.27208 0.48059
 C241 C 0.57172 0.25776 0.47048
 N242 N 0.55253 0.24921 0.49879
 C243 C 0.57195 0.25786 0.52691
 C244 C 0.56178 0.25006 0.43587
 C245 C 0.52676 0.24252 0.42700
 C246 C 0.51590 0.22670 0.39630
 C247 C 0.47997 0.22754 0.39634
 C248 C 0.46994 0.24377 0.42709
 N249 N 0.49859 0.25255 0.44574
 C250 C 0.43530 0.25258 0.43621
 C251 C 0.42575 0.25973 0.47108
 C252 C 0.39436 0.27419 0.48179
 C253 C 0.39446 0.27343 0.51764
 C254 C 0.42594 0.25856 0.52754
 N255 N 0.44503 0.25033 0.49908
 C256 C 0.43577 0.25015 0.56206
 C257 C 0.47066 0.24176 0.57077
 C258 C 0.48121 0.22518 0.60118
 C259 C 0.51716 0.22525 0.60111
 C260 C 0.52752 0.24181 0.57063
 N261 N 0.49904 0.25152 0.55216
 C262 C 0.56235 0.25011 0.56163
 H263 H 0.62452 0.28152 0.53286
 H264 H 0.62426 0.28130 0.46392
 H265 H 0.49900 0.26770 0.53030
 H266 H 0.53215 0.21608 0.37579
 H267 H 0.46319 0.21764 0.37588
 H268 H 0.37347 0.28402 0.46551
 H269 H 0.37369 0.28259 0.53444
 H270 H 0.53374 0.21464 0.62138
 H271 H 0.49895 0.26834 0.46788
 H272 H 0.46475 0.21454 0.62154
 C273 C 0.98196 0.10357 0.22269
 C274 C 1.01780 0.10386 0.22290
 C275 C 1.02832 0.07394 0.24044
 N276 N 1.00016 0.05507 0.25025
 C277 C 0.97187 0.07330 0.23970
 C278 C 1.06318 0.06481 0.24881
 C279 C 1.07166 0.02977 0.25732
 C280 C 1.10098 0.01897 0.27575
 C281 C 1.10077 -0.01693 0.27559
 C282 C 1.07107 -0.02703 0.25761
 N283 N 1.05320 0.00148 0.24699
 C284 C 1.06234 -0.06168 0.24877
 C285 C 1.02766 -0.07117 0.24091
 C286 C 1.01745 -0.10182 0.22472
 C287 C 0.98161 -0.10211 0.22519
 C288 C 0.97119 -0.07181 0.24211
 N289 N 0.99943 -0.05273 0.25126
 C290 C 0.93636 -0.06245 0.25044
 C291 C 0.92801 -0.02726 0.25845
 C292 C 0.89885 -0.01614 0.27693
 C293 C 0.89909 0.01975 0.27615
 C294 C 0.92864 0.02954 0.25773
 N295 N 0.94641 0.00083 0.24748
 C296 C 0.93728 0.06402 0.24812
 H297 H 0.96527 0.12334 0.21135
 H298 H 1.03419 0.12381 0.21142
 H299 H 0.96767 0.00049 0.23047
 H300 H 1.12065 0.03522 0.28788
 H301 H 1.12031 -0.03367 0.28726
 H302 H 1.03407 -0.12183 0.21372
 H303 H 0.96516 -0.12230 0.21425
 H304 H 0.87965 0.03670 0.28767
 H305 H 1.03178 0.00152 0.23019
 H306 H 0.87925 -0.03219 0.28946
 C307 C 0.48250 0.60401 0.77176
 C308 C 0.51837 0.60393 0.77213
 C309 C 0.52877 0.57235 0.75786
 N310 N 0.50055 0.55313 0.74898
 C311 C 0.47225 0.57245 0.75734
 C312 C 0.56358 0.56253 0.75058
 C313 C 0.57247 0.52762 0.74248
 C314 C 0.60312 0.51705 0.72638
 C315 C 0.60289 0.48110 0.72626
 C316 C 0.57214 0.47074 0.74237
 N317 N 0.55362 0.49926 0.75188
 C318 C 0.56296 0.43589 0.75052
 C319 C 0.52826 0.42641 0.75867
 C320 C 0.51796 0.39512 0.77366
 C321 C 0.48210 0.39524 0.77402
 C322 C 0.47177 0.42658 0.75917
 N323 N 0.50001 0.44562 0.74996
 C324 C 0.43702 0.43626 0.75154
 C325 C 0.42824 0.47098 0.74266
 C326 C 0.39770 0.48128 0.72617
 C327 C 0.39790 0.51721 0.72552
 C328 C 0.42856 0.52779 0.74165
 N329 N 0.44704 0.49946 0.75170
 C330 C 0.43754 0.56269 0.74957
 H331 H 0.46591 0.62493 0.78096
 H332 H 0.53486 0.62480 0.78165
 H333 H 0.46903 0.49963 0.76771
 H334 H 0.62367 0.53348 0.71608
 H335 H 0.62326 0.46451 0.71588
 H336 H 0.53452 0.37431 0.78318
 H337 H 0.46557 0.37454 0.78386
 H338 H 0.37756 0.53364 0.71484
 H339 H 0.53148 0.49936 0.76768
 H340 H 0.37720 0.46469 0.71604
 C341 C 0.89791 0.98066 0.72446
 C342 C 0.89751 1.01650 0.72418
 C343 C 0.92859 1.02729 0.73928
 N344 N 0.94797 0.99938 0.74859
 C345 C 0.92923 0.97088 0.73970
 C346 C 0.93761 1.06216 0.74704
 C347 C 0.97202 1.07184 0.75641
 C348 C 0.98144 1.10352 0.77106
 C349 C 1.01732 1.10425 0.77210
 C350 C 1.02901 1.07259 0.75872
 N351 N 1.00108 1.05309 0.74924
 C352 C 1.06422 1.06406 0.75076
 C353 C 1.07450 1.02936 0.74280
 C354 C 1.10668 1.01933 0.72945
 C355 C 1.10686 0.98360 0.72871
 C356 C 1.07543 0.97266 0.74300
 N357 N 1.05559 1.00068 0.75124
 C358 C 1.06595 0.93749 0.75000
 C359 C 1.03079 0.92845 0.75755
 C360 C 1.02016 0.89874 0.77545
 C361 C 0.98427 0.89845 0.77490
 C362 C 0.97393 0.92813 0.75701
 N363 N 1.00239 0.94653 0.74690
 C364 C 0.93908 0.93647 0.74823
 H365 H 0.87740 0.96378 0.71484
 H366 H 0.87660 1.03272 0.71429
 H367 H 1.00250 0.96804 0.73023
 H368 H 0.96434 1.12449 0.77917
 H369 H 1.03267 1.12632 0.78060
 H370 H 1.12821 1.03566 0.72135
 H371 H 1.12803 0.96762 0.71903
 H372 H 0.96770 0.87859 0.78630
 H373 H 1.00191 1.03045 0.73428
 H374 H 1.03657 0.87920 0.78757
 C375 C 0.51865 0.60535 0.27458
 C376 C 0.48278 0.60577 0.27434
 C377 C 0.47220 0.57442 0.25971
 N378 N 0.50027 0.55490 0.25111
 C379 C 0.52869 0.57379 0.26003
 C380 C 0.43740 0.56507 0.25189
 C381 C 0.42804 0.53035 0.24361
 C382 C 0.39721 0.52028 0.22748
 C383 C 0.39672 0.48436 0.22754
 C384 C 0.42728 0.47354 0.24364
 N385 N 0.44635 0.50171 0.25309
 C386 C 0.43590 0.43860 0.25169
 C387 C 0.47058 0.42847 0.25897
 C388 C 0.48069 0.39671 0.27306
 C389 C 0.51655 0.39628 0.27250
 C390 C 0.52703 0.42780 0.25812
 N391 N 0.49892 0.44746 0.25001
 C392 C 0.56174 0.43720 0.25002
 C393 C 0.57110 0.47212 0.24241
 C394 C 0.60183 0.48253 0.22630
 C395 C 0.60238 0.51845 0.22712
 C396 C 0.57192 0.52896 0.24363
 N397 N 0.55290 0.50059 0.25262
 C398 C 0.56335 0.56378 0.25236
 H399 H 0.53538 0.62602 0.28412
 H400 H 0.46641 0.62681 0.28368
 H401 H 0.53088 0.50056 0.26859
 H402 H 0.37696 0.53704 0.21714
 H403 H 0.37604 0.46810 0.21723
 H404 H 0.46402 0.37594 0.28250
 H405 H 0.53297 0.37512 0.28148
 H406 H 0.62300 0.53491 0.21700
 H407 H 0.46845 0.50141 0.26893
 H408 H 0.62199 0.46598 0.21545
 O409 O 0.25115 0.16160 0.19945
 O410 O 0.28843 0.15132 0.24817
 O411 O 0.15909 0.20250 0.25060
 O412 O 0.14508 0.24773 0.28379
 O413 O 0.20074 0.25184 0.15770
 O414 O 0.24845 0.29113 0.14823
 O415 O 0.25207 0.29879 0.33922
 O416 O 0.20995 0.25380 0.34850
 O417 O 0.33918 0.25498 0.29651
 O418 O 0.35044 0.21433 0.24686
 O419 O 0.29615 0.34223 0.25186
 O420 O 0.24734 0.35357 0.21177
 O421 O 0.24799 0.34104 0.29773
 O422 O 0.20869 0.35129 0.24701
 O423 O 0.33851 0.30086 0.24802
 O424 O 0.34987 0.25095 0.20965
 O425 O 0.29748 0.25089 0.33857
 O426 O 0.24924 0.21178 0.34900
 O427 O 0.24920 0.20369 0.15760
 O428 O 0.28816 0.25268 0.14827
 O429 O 0.15876 0.25121 0.19969
 O430 O 0.15055 0.29199 0.24888
 O431 O 0.20130 0.16083 0.24753
 O432 O 0.24964 0.15117 0.28680
 Zr433 Zr 0.24835 0.18921 0.24682
 O434 O 0.28094 0.21907 0.27939
 Zr435 Zr 0.18646 0.24998 0.24726
 O436 O 0.21611 0.28224 0.28057
 Zr437 Zr 0.24779 0.25079 0.18588
 O438 O 0.27991 0.28368 0.21601
 Zr439 Zr 0.25027 0.25188 0.31081
 O440 O 0.21723 0.21911 0.28097
 Zr441 Zr 0.31127 0.25327 0.24913
 O442 O 0.28191 0.22008 0.21607
 Zr443 Zr 0.24914 0.31378 0.25009
 O444 O 0.21665 0.28410 0.21654
 O445 O 0.21561 0.21801 0.21465
 O446 O 0.28245 0.28531 0.28233
 C447 C 0.25081 0.17162 0.16742
 C448 C 0.16922 0.17051 0.24971
 C449 C 0.16868 0.25194 0.16761
 C450 C 0.25018 0.33087 0.32961
 C451 C 0.32940 0.25298 0.32855
 C452 C 0.32826 0.33269 0.25004
 H453 H 0.29566 0.20322 0.29342
 H454 H 0.29406 0.29841 0.20024
 H455 H 0.20079 0.20293 0.19979
 H456 H 0.20035 0.29615 0.29554
 H457 H 0.19194 0.23681 0.34103
 H458 H 0.15280 0.26038 0.30492
 H459 H 0.34397 0.26869 0.19184
 H460 H 0.30597 0.23547 0.15568
 H461 H 0.26643 0.19377 0.34224
 H462 H 0.23235 0.15849 0.30456
 H463 H 0.26538 0.34832 0.19406
 H464 H 0.23271 0.30962 0.15706
 H465 H 0.30763 0.16049 0.23349
 H466 H 0.34656 0.19794 0.26644
 H467 H 0.15684 0.30812 0.22969
 H468 H 0.19205 0.34655 0.26619
 O469 O 0.74936 0.84050 0.20134
 O470 O 0.70764 0.84714 0.24974
 O471 O 0.84000 0.80026 0.25350
 O472 O 0.85392 0.75464 0.28707
 O473 O 0.80013 0.74874 0.16027
 O474 O 0.75140 0.71098 0.15006
 O475 O 0.74837 0.70230 0.34078
 O476 O 0.78965 0.74840 0.35028
 O477 O 0.66026 0.74989 0.29770
 O478 O 0.65369 0.79125 0.24356
 O479 O 0.70324 0.66013 0.25349
 O480 O 0.75266 0.64940 0.21230
 O481 O 0.75238 0.66039 0.29892
 O482 O 0.79026 0.64990 0.24865
 O483 O 0.66101 0.70169 0.24979
 O484 O 0.64733 0.74749 0.21404
 O485 O 0.70170 0.74758 0.34013
 O486 O 0.74873 0.78888 0.35163
 O487 O 0.75228 0.79843 0.15940
 O488 O 0.71283 0.75012 0.14953
 O489 O 0.84167 0.75213 0.20253
 O490 O 0.84986 0.71083 0.25094
 O491 O 0.79776 0.84195 0.24961
 O492 O 0.75212 0.85040 0.28950
 Zr493 Zr 0.75119 0.81288 0.24891
 O494 O 0.71875 0.78273 0.28154
 Zr495 Zr 0.81332 0.75230 0.24968
 O496 O 0.78353 0.71951 0.28239
 Zr497 Zr 0.75269 0.75128 0.18770
 O498 O 0.72011 0.71866 0.21753
 Zr499 Zr 0.74915 0.74945 0.31276
 O500 O 0.78199 0.78263 0.28313
 Zr501 Zr 0.68866 0.74903 0.25059
 O502 O 0.71829 0.78192 0.21752
 Zr503 Zr 0.75056 0.68820 0.25160
 O504 O 0.78358 0.71804 0.21865
 O505 O 0.78429 0.78411 0.21695
 O506 O 0.71707 0.71651 0.28378
 C507 C 0.75032 0.83038 0.16939
 C508 C 0.82983 0.83227 0.25224
 C509 C 0.83208 0.74988 0.17044
 C510 C 0.75049 0.67039 0.33083
 C511 C 0.66983 0.74854 0.32982
 C512 C 0.67114 0.66979 0.25173
 H513 H 0.70390 0.79844 0.29559
 H514 H 0.70580 0.70416 0.20170
 H515 H 0.79932 0.79914 0.20225
 H516 H 0.79933 0.70549 0.29723
 H517 H 0.80700 0.76618 0.34304
 H518 H 0.84629 0.74101 0.30763
 H519 H 0.65683 0.73712 0.19241
 H520 H 0.69521 0.76763 0.15667
 H521 H 0.73073 0.80628 0.34537
 H522 H 0.76753 0.84106 0.30803
 H523 H 0.73288 0.65328 0.19617
 H524 H 0.76666 0.69215 0.15902
 H525 H 0.71557 0.87091 0.24314
 H526 H 0.65308 0.80473 0.26558
 H527 H 0.84348 0.69456 0.23190
 H528 H 0.80824 0.65592 0.26618
 O529 O 0.74889 0.15695 0.79739
 O530 O 0.71072 0.14686 0.74916
 O531 O 0.83951 0.19987 0.74669
 O532 O 0.85332 0.24587 0.71477
 O533 O 0.79666 0.24722 0.84022
 O534 O 0.74856 0.28607 0.84995
 O535 O 0.74854 0.29519 0.65856
 O536 O 0.78874 0.24949 0.64943
 O537 O 0.65891 0.24948 0.70065
 O538 O 0.64739 0.20973 0.74998
 O539 O 0.70102 0.33800 0.75008
 O540 O 0.75085 0.34953 0.78624
 O541 O 0.74484 0.33713 0.70044
 O542 O 0.78855 0.34731 0.74963
 O543 O 0.65897 0.29626 0.74692
 O544 O 0.64820 0.24619 0.78777
 O545 O 0.70092 0.24788 0.65872
 O546 O 0.74896 0.20848 0.64826
 O547 O 0.74702 0.19878 0.83945
 O548 O 0.70919 0.24792 0.84929
 O549 O 0.83880 0.24839 0.79840
 O550 O 0.84642 0.28968 0.74924
 O551 O 0.79783 0.15756 0.74959
 O552 O 0.74951 0.14770 0.70995
 Zr553 Zr 0.75038 0.18523 0.75039
 O554 O 0.71755 0.21494 0.71789
 Zr555 Zr 0.81141 0.24688 0.75072
 O556 O 0.78152 0.27893 0.71747
 Zr557 Zr 0.74965 0.24624 0.81178
 O558 O 0.71737 0.27908 0.78174
 Zr559 Zr 0.74808 0.24822 0.68680
 O560 O 0.78133 0.21575 0.71665
 Zr561 Zr 0.68659 0.24869 0.74806
 O562 O 0.71614 0.21545 0.78102
 Zr563 Zr 0.74795 0.30977 0.74804
 O564 O 0.78056 0.28025 0.78159
 O565 O 0.78253 0.21422 0.78300
 O566 O 0.71534 0.28116 0.71525
 C567 C 0.74731 0.16674 0.82942
 C568 C 0.82974 0.16775 0.74741
 C569 C 0.82875 0.24846 0.83044
 C570 C 0.74626 0.32711 0.66847
 C571 C 0.66889 0.24875 0.66866
 C572 C 0.66900 0.32823 0.74856
 H573 H 0.70304 0.19903 0.70371
 H574 H 0.70306 0.29353 0.79760
 H575 H 0.79746 0.19922 0.79783
 H576 H 0.79714 0.29317 0.70265
 H577 H 0.80661 0.23251 0.65723
 H578 H 0.84514 0.25747 0.69321
 H579 H 0.65210 0.26603 0.80382
 H580 H 0.69067 0.23198 0.84086
 H581 H 0.73164 0.19047 0.65475
 H582 H 0.76680 0.15542 0.69234
 H583 H 0.73532 0.34265 0.80569
 H584 H 0.76538 0.30413 0.84224
 H585 H 0.69173 0.15548 0.76442
 H586 H 0.65282 0.19217 0.73188
 H587 H 0.83955 0.30575 0.76827
 H588 H 0.80248 0.34505 0.72801
 O589 O 0.25305 0.83962 0.80005
 O590 O 0.29023 0.84997 0.75089
 O591 O 0.16084 0.79888 0.74824
 O592 O 0.14745 0.75347 0.71464
 O593 O 0.20171 0.74843 0.84132
 O594 O 0.25029 0.71033 0.85146
 O595 O 0.25305 0.70176 0.66073
 O596 O 0.21191 0.74768 0.65119
 O597 O 0.34132 0.74972 0.70356
 O598 O 0.35194 0.78721 0.75475
 O599 O 0.29797 0.65908 0.75056
 O600 O 0.24740 0.64868 0.78925
 O601 O 0.25046 0.65974 0.70259
 O602 O 0.21108 0.64912 0.75198
 O603 O 0.34030 0.70067 0.74846
 O604 O 0.35145 0.74900 0.79034
 O605 O 0.29979 0.74737 0.66124
 O606 O 0.25264 0.78845 0.65001
 O607 O 0.25016 0.79755 0.84193
 O608 O 0.28916 0.74919 0.85161
 O609 O 0.16001 0.75123 0.79915
 O610 O 0.15204 0.70955 0.75072
 O611 O 0.20310 0.84049 0.75194
 O612 O 0.25120 0.85009 0.71258
 Zr613 Zr 0.25011 0.81207 0.75257
 O614 O 0.28275 0.78213 0.72012
 Zr615 Zr 0.18817 0.75141 0.75191
 O616 O 0.21802 0.71880 0.71914
 Zr617 Zr 0.24913 0.75053 0.81365
 O618 O 0.28160 0.71776 0.78382
 Zr619 Zr 0.25234 0.74889 0.68878
 O620 O 0.21927 0.78202 0.71828
 Zr621 Zr 0.31300 0.74819 0.75062
 O622 O 0.28343 0.78127 0.78356
 Zr623 Zr 0.25088 0.68743 0.74998
 O624 O 0.21803 0.71726 0.78296
 O625 O 0.21720 0.78335 0.78466
 O626 O 0.28435 0.71572 0.71765
 C627 C 0.25226 0.82957 0.83208
 C628 C 0.17101 0.83085 0.74955
 C629 C 0.16970 0.74941 0.83124
 C630 C 0.25179 0.66973 0.67061
 C631 C 0.33171 0.74850 0.67146
 C632 C 0.33007 0.66876 0.74928
 H633 H 0.29752 0.79798 0.70612
 H634 H 0.29572 0.70307 0.79963
 H635 H 0.20237 0.79844 0.79948
 H636 H 0.20232 0.70477 0.70422
 H637 H 0.19443 0.76529 0.65846
 H638 H 0.15520 0.74007 0.69400
 H639 H 0.34645 0.72966 0.80670
 H640 H 0.30777 0.76505 0.84322
 H641 H 0.27028 0.80611 0.65656
 H642 H 0.23492 0.84193 0.69424
 H643 H 0.26600 0.65327 0.80656
 H644 H 0.23408 0.69198 0.84319
 H645 H 0.30876 0.84177 0.76693
 H646 H 0.34739 0.80486 0.73645
 H647 H 0.15849 0.69343 0.76987
 H648 H 0.19361 0.65496 0.73388
 O649 O 0.24839 0.33976 0.70133
 O650 O 0.20677 0.34672 0.74999
 O651 O 0.33901 0.29840 0.75092
 O652 O 0.35155 0.25345 0.78697
 O653 O 0.29781 0.24755 0.65970
 O654 O 0.24822 0.21054 0.64961
 O655 O 0.24672 0.20113 0.84023
 O656 O 0.28836 0.24657 0.84977
 O657 O 0.15871 0.24982 0.79804
 O658 O 0.15179 0.29113 0.74440
 O659 O 0.20050 0.15974 0.75052
 O660 O 0.25115 0.14919 0.71109
 O661 O 0.24789 0.15938 0.79813
 O662 O 0.28698 0.14820 0.74909
 O663 O 0.15854 0.20181 0.75183
 O664 O 0.14558 0.24774 0.71404
 O665 O 0.20033 0.24708 0.84019
 O666 O 0.24822 0.28771 0.85143
 O667 O 0.25048 0.29778 0.65931
 O668 O 0.21040 0.25033 0.64949
 O669 O 0.33966 0.25041 0.70175
 O670 O 0.34778 0.20910 0.74969
 O671 O 0.29700 0.34060 0.75090
 O672 O 0.25111 0.34967 0.78947
 Zr673 Zr 0.25003 0.31209 0.74895
 O674 O 0.21744 0.28213 0.78164
 Zr675 Zr 0.31152 0.25083 0.74897
 O676 O 0.28151 0.21818 0.78167
 Zr677 Zr 0.25048 0.25064 0.68744
 O678 O 0.21764 0.21829 0.71728
 Zr679 Zr 0.24769 0.24838 0.81245
 O680 O 0.28072 0.28134 0.78277
 Zr681 Zr 0.18677 0.24883 0.75080
 O682 O 0.21662 0.28153 0.71769
 Zr683 Zr 0.24805 0.18738 0.75089
 O684 O 0.28126 0.21698 0.71798
 O685 O 0.28255 0.28308 0.71662
 O686 O 0.21514 0.21587 0.78352
 C687 C 0.24899 0.32977 0.66928
 C688 C 0.32905 0.33050 0.75153
 C689 C 0.32983 0.24838 0.66973
 C690 C 0.24707 0.16914 0.83020
 C691 C 0.16836 0.24830 0.83013
 C692 C 0.16855 0.16986 0.75125
 H693 H 0.20289 0.29794 0.79589
 H694 H 0.20314 0.20396 0.70146
 H695 H 0.29761 0.29801 0.70185
 H696 H 0.29709 0.20384 0.79641
 H697 H 0.30603 0.26396 0.84239
 H698 H 0.34472 0.23807 0.80656
 H699 H 0.15449 0.23585 0.69296
 H700 H 0.19270 0.26747 0.65729
 H701 H 0.22978 0.30490 0.84592
 H702 H 0.26568 0.33983 0.80841
 H703 H 0.23182 0.15344 0.69450
 H704 H 0.26427 0.19194 0.65765
 H705 H 0.21479 0.37036 0.74304
 H706 H 0.15216 0.30504 0.76615
 H707 H 0.34045 0.19244 0.73135
 H708 H 0.30501 0.15423 0.76655
 O709 O 0.75412 0.65851 0.70185
 O710 O 0.79042 0.64793 0.75107
 O711 O 0.66148 0.70082 0.74910
 O712 O 0.64905 0.74507 0.78564
 O713 O 0.70489 0.74901 0.65906
 O714 O 0.75323 0.78784 0.64989
 O715 O 0.75149 0.79646 0.84086
 O716 O 0.71207 0.75037 0.84997
 O717 O 0.84204 0.75127 0.79920
 O718 O 0.85305 0.70999 0.74988
 O719 O 0.80086 0.83880 0.75256
 O720 O 0.75154 0.85013 0.71253
 O721 O 0.75432 0.83852 0.79906
 O722 O 0.71389 0.84955 0.74921
 O723 O 0.84273 0.79684 0.75035
 O724 O 0.85366 0.74653 0.71263
 O725 O 0.79983 0.75015 0.84089
 O726 O 0.75189 0.70961 0.85111
 O727 O 0.75263 0.70054 0.65976
 O728 O 0.79246 0.74869 0.65053
 O729 O 0.66256 0.75072 0.70070
 O730 O 0.65382 0.78994 0.74974
 O731 O 0.70335 0.65865 0.75090
 O732 O 0.75187 0.64855 0.78931
 Zr733 Zr 0.75090 0.68637 0.74912
 O734 O 0.78349 0.71613 0.78183
 Zr735 Zr 0.68975 0.74793 0.74838
 O736 O 0.71949 0.78010 0.78168
 Zr737 Zr 0.75169 0.74770 0.68774
 O738 O 0.78405 0.78030 0.71793
 Zr739 Zr 0.75277 0.74949 0.81264
 O740 O 0.71974 0.71688 0.78262
 Zr741 Zr 0.81461 0.74970 0.75161
 O742 O 0.78509 0.71672 0.71850
 Zr743 Zr 0.75345 0.81102 0.75154
 O744 O 0.72075 0.78158 0.71793
 O745 O 0.71888 0.71539 0.71635
 O746 O 0.78586 0.78228 0.78438
 C747 C 0.75410 0.66861 0.66986
 C748 C 0.67131 0.66874 0.75050
 C749 C 0.67280 0.75059 0.66875
 C750 C 0.75283 0.82849 0.83102
 C751 C 0.83195 0.75098 0.83120
 C752 C 0.83288 0.82885 0.75142
 H753 H 0.79794 0.70032 0.79617
 H754 H 0.79854 0.79469 0.70215
 H755 H 0.70406 0.70049 0.70132
 H756 H 0.70370 0.79434 0.79629
 H757 H 0.69419 0.73347 0.84201
 H758 H 0.65610 0.75939 0.80592
 H759 H 0.84807 0.76404 0.69449
 H760 H 0.80994 0.73129 0.65825
 H761 H 0.77038 0.69248 0.84559
 H762 H 0.73561 0.65683 0.80761
 H763 H 0.76995 0.84490 0.69520
 H764 H 0.73721 0.80633 0.65818
 H765 H 0.80998 0.65685 0.73671
 H766 H 0.84903 0.69407 0.76981
 H767 H 0.66179 0.80724 0.73226
 H768 H 0.69749 0.84530 0.76871
 O769 O 0.24737 0.66177 0.30031
 O770 O 0.21126 0.65120 0.25097
 O771 O 0.34015 0.70344 0.24940
 O772 O 0.35399 0.74891 0.21652
 O773 O 0.29784 0.75212 0.34244
 O774 O 0.24985 0.79119 0.35174
 O775 O 0.24724 0.79942 0.16089
 O776 O 0.28940 0.75435 0.15175
 O777 O 0.15985 0.75478 0.20314
 O778 O 0.14886 0.71366 0.25281
 O779 O 0.20207 0.84213 0.24829
 O780 O 0.25079 0.85363 0.28860
 O781 O 0.25041 0.84153 0.20256
 O782 O 0.28939 0.85199 0.25331
 O783 O 0.15998 0.80043 0.25167
 O784 O 0.14875 0.75046 0.28985
 O785 O 0.20170 0.75149 0.16120
 O786 O 0.24976 0.71263 0.15065
 O787 O 0.24989 0.70374 0.34226
 O788 O 0.21043 0.75225 0.35159
 O789 O 0.33996 0.75253 0.30053
 O790 O 0.34810 0.79300 0.25116
 O791 O 0.29821 0.66146 0.25313
 O792 O 0.25051 0.65164 0.21289
 Zr793 Zr 0.25095 0.68950 0.25302
 O794 O 0.21827 0.71922 0.22039
 Zr795 Zr 0.31244 0.75074 0.25287
 O796 O 0.28266 0.78290 0.21960
 Zr797 Zr 0.25091 0.75090 0.31408
 O798 O 0.21862 0.78361 0.28395
 Zr799 Zr 0.24881 0.75239 0.18916
 O800 O 0.28195 0.71974 0.21902
 Zr801 Zr 0.18759 0.75308 0.25062
 O802 O 0.21708 0.72003 0.28372
 Zr803 Zr 0.24929 0.81406 0.25007
 O804 O 0.28193 0.78453 0.28359
 O805 O 0.28342 0.71845 0.28536
 O806 O 0.21631 0.78547 0.21761
 C807 C 0.24793 0.67175 0.33233
 C808 C 0.33020 0.67140 0.25073
 C809 C 0.32988 0.75292 0.33255
 C810 C 0.24875 0.83148 0.17063
 C811 C 0.16973 0.75325 0.17111
 C812 C 0.17001 0.83235 0.24985
 H813 H 0.20368 0.70334 0.20626
 H814 H 0.20430 0.79816 0.29970
 H815 H 0.29826 0.70350 0.30031
 H816 H 0.29839 0.79698 0.20473
 H817 H 0.30720 0.73712 0.15914
 H818 H 0.34609 0.76118 0.19523
 H819 H 0.15464 0.76797 0.30787
 H820 H 0.19275 0.73497 0.34405
 H821 H 0.23328 0.69410 0.15780
 H822 H 0.26803 0.65918 0.19542
 H823 H 0.23260 0.84829 0.30613
 H824 H 0.26566 0.80972 0.34308
 H825 H 0.19169 0.66021 0.26522
 H826 H 0.15248 0.69777 0.23279
 H827 H 0.34158 0.80920 0.27020
 H828 H 0.30617 0.84741 0.23422
 O829 O 0.74688 0.33931 0.29808
 O830 O 0.78836 0.34907 0.25024
 O831 O 0.65842 0.29793 0.24568
 O832 O 0.64531 0.25190 0.21219
 O833 O 0.69992 0.24707 0.33872
 O834 O 0.74874 0.20956 0.34859
 O835 O 0.74911 0.20223 0.15775
 O836 O 0.70973 0.24910 0.14860
 O837 O 0.83934 0.24949 0.20106
 O838 O 0.84965 0.28835 0.24584
 O839 O 0.79751 0.15981 0.24638
 O840 O 0.74701 0.14851 0.28614
 O841 O 0.75183 0.16004 0.19941
 O842 O 0.71084 0.14828 0.24795
 O843 O 0.83926 0.20197 0.24852
 O844 O 0.84813 0.25250 0.28897
 O845 O 0.79767 0.24722 0.15882
 O846 O 0.75089 0.28887 0.14761
 O847 O 0.74917 0.29683 0.33962
 O848 O 0.78720 0.24805 0.34915
 O849 O 0.65807 0.24978 0.29661
 O850 O 0.65051 0.20814 0.24811
 O851 O 0.70011 0.34017 0.24987
 O852 O 0.74637 0.34859 0.20873
 Zr853 Zr 0.74711 0.31207 0.25030
 O854 O 0.78014 0.28255 0.21784
 Zr855 Zr 0.68612 0.25043 0.24936
 O856 O 0.71639 0.21835 0.21642
 Zr857 Zr 0.74733 0.24998 0.31103
 O858 O 0.78017 0.21783 0.28102
 Zr859 Zr 0.75016 0.24915 0.18621
 O860 O 0.71673 0.28156 0.21601
 Zr861 Zr 0.81101 0.24900 0.24808
 O862 O 0.78103 0.28164 0.28115
 Zr863 Zr 0.74995 0.18735 0.24691
 O864 O 0.71667 0.21652 0.28009
 O865 O 0.71481 0.28242 0.28223
 O866 O 0.78283 0.21641 0.21483
 C867 C 0.74832 0.32893 0.32995
 C868 C 0.66822 0.33007 0.24730
 C869 C 0.66791 0.24779 0.32863
 C870 C 0.75075 0.17017 0.16749
 C871 C 0.82963 0.24812 0.16897
 C872 C 0.82949 0.16991 0.24746
 H873 H 0.79511 0.29850 0.20412
 H874 H 0.79448 0.20332 0.29684
 H875 H 0.69967 0.29709 0.29714
 H876 H 0.70085 0.20417 0.20149
 H877 H 0.69224 0.26650 0.15634
 H878 H 0.65351 0.23921 0.19127
 H879 H 0.84453 0.23238 0.30476
 H880 H 0.80544 0.26477 0.34164
 H881 H 0.76894 0.30616 0.15402
 H882 H 0.72943 0.33990 0.19126
 H883 H 0.76639 0.15254 0.30274
 H884 H 0.73321 0.19084 0.33983
 H885 H 0.77875 0.37226 0.25663
 H886 H 0.83923 0.30936 0.25661
 H887 H 0.65775 0.19164 0.26664
 H888 H 0.69380 0.15366 0.22933
 C889 C 0.26314 0.08468 0.12215
 C890 C 0.24917 0.09114 0.08868
 C891 C 0.23656 0.12500 0.08145
 C892 C 0.23773 0.15125 0.10673
 C893 C 0.25111 0.14433 0.14013
 C894 C 0.26379 0.11079 0.14757
 H895 H 0.27441 0.05956 0.12857
 H896 H 0.22477 0.13103 0.05646
 H897 H 0.22732 0.17676 0.10038
 H898 H 0.27462 0.10479 0.17299
 C899 C 0.72521 0.61243 0.59484
 C900 C 0.75367 0.58961 0.59125
 C901 C 0.78275 0.59347 0.61329
 C902 C 0.78276 0.61896 0.63939
 C903 C 0.75432 0.64170 0.64278
 C904 C 0.72575 0.63861 0.62015
 H905 H 0.70268 0.60995 0.57793
 H906 H 0.80512 0.57640 0.61055
 H907 H 0.80508 0.62127 0.65662
 H908 H 0.70361 0.65605 0.62255
 C909 C 0.78242 0.89181 0.09981
 C910 C 0.75166 0.90978 0.09077
 C911 C 0.72035 0.90112 0.10804
 C912 C 0.71994 0.87540 0.13395
 C913 C 0.75060 0.85741 0.14239
 C914 C 0.78180 0.86561 0.12518
 H915 H 0.80698 0.89820 0.08728
 H916 H 0.69612 0.91398 0.10114
 H917 H 0.69565 0.86919 0.14705
 H918 H 0.80573 0.85200 0.13171
 C919 C 0.26923 0.37802 0.58567
 C920 C 0.25052 0.40920 0.59029
 C921 C 0.23097 0.41389 0.62099
 C922 C 0.23071 0.38819 0.64687
 C923 C 0.24914 0.35692 0.64204
 C924 C 0.26818 0.35192 0.61111
 H925 H 0.28469 0.37393 0.56235
 H926 H 0.21602 0.43755 0.62496
 H927 H 0.21570 0.39252 0.67044
 H928 H 0.28286 0.32811 0.60697
 C929 C 0.76166 0.08056 0.87560
 C930 C 0.74837 0.08733 0.90927
 C931 C 0.73394 0.12060 0.91579
 C932 C 0.73356 0.14631 0.88993
 C933 C 0.74692 0.13932 0.85657
 C934 C 0.76070 0.10610 0.84958
 H935 H 0.77389 0.05579 0.86959
 H936 H 0.72226 0.12666 0.94081
 H937 H 0.72240 0.17158 0.89594
 H938 H 0.77161 0.10010 0.82420
 C939 C 0.26736 0.62275 0.41567
 C940 C 0.24873 0.59155 0.41060
 C941 C 0.22923 0.58725 0.37982
 C942 C 0.22904 0.61329 0.35427
 C943 C 0.24747 0.64453 0.35952
 C944 C 0.26635 0.64918 0.39058
 H945 H 0.28277 0.62657 0.43906
 H946 H 0.21431 0.56362 0.37551
 H947 H 0.21416 0.60920 0.33057
 H948 H 0.28103 0.67292 0.39505
 C949 C 0.23424 0.87742 0.91644
 C950 C 0.25167 0.90922 0.91090
 C951 C 0.26972 0.91442 0.87938
 C952 C 0.26984 0.88857 0.85367
 C953 C 0.25266 0.85670 0.85937
 C954 C 0.23509 0.85123 0.89110
 H955 H 0.21983 0.87294 0.94036
 H956 H 0.28358 0.93861 0.87464
 H957 H 0.28368 0.89334 0.82947
 H958 H 0.22131 0.82701 0.89596
 C959 C 0.72151 0.40768 0.38232
 C960 C 0.74671 0.40783 0.40895
 C961 C 0.77176 0.38105 0.41009
 C962 C 0.77193 0.35488 0.38468
 C963 C 0.74768 0.35572 0.35729
 C964 C 0.72245 0.38222 0.35628
 H965 H 0.70153 0.42767 0.38140
 H966 H 0.79121 0.38056 0.43060
 H967 H 0.79145 0.33446 0.38592
 H968 H 0.70317 0.38285 0.33563
 C969 C 0.08158 0.26214 0.12200
 C970 C 0.08876 0.24904 0.08831
 C971 C 0.12304 0.23760 0.08116
 C972 C 0.14903 0.23910 0.10670
 C973 C 0.14144 0.25164 0.14028
 C974 C 0.10746 0.26310 0.14768
 H975 H 0.05608 0.27254 0.12839
 H976 H 0.12964 0.22648 0.05603
 H977 H 0.17491 0.22963 0.10036
 H978 H 0.10096 0.27328 0.17323
 C979 C 0.58866 0.76967 0.62089
 C980 C 0.59302 0.75029 0.59006
 C981 C 0.62420 0.73163 0.58503
 C982 C 0.65053 0.73244 0.61027
 C983 C 0.64576 0.75118 0.64139
 C984 C 0.61457 0.76968 0.64656
 H985 H 0.56504 0.78462 0.62517
 H986 H 0.62807 0.71630 0.56160
 H987 H 0.67427 0.71772 0.60586
 H988 H 0.61041 0.78446 0.67029
 C989 C 0.12392 0.73876 0.91823
 C990 C 0.09029 0.75204 0.91113
 C991 C 0.08318 0.76376 0.87695
 C992 C 0.10873 0.76237 0.85095
 C993 C 0.14227 0.74961 0.85843
 C994 C 0.14959 0.73785 0.89234
 H995 H 0.13027 0.72818 0.94366
 H996 H 0.05806 0.77499 0.87043
 H997 H 0.10241 0.77206 0.82515
 H998 H 0.17509 0.72749 0.89880
 C999 C 0.61952 0.22922 0.41258
 C1000 C 0.58899 0.24909 0.40810
 C1001 C 0.58446 0.26805 0.37704
 C1002 C 0.60982 0.26697 0.35087
 C1003 C 0.64059 0.24764 0.35568
 C1004 C 0.64533 0.22892 0.38681
 H1005 H 0.62341 0.21407 0.43614
 H1006 H 0.56128 0.28376 0.37311
 H1007 H 0.60578 0.28191 0.32720
 H1008 H 0.66880 0.21371 0.39099
 C1009 C 0.91872 0.76289 0.12457
 C1010 C 0.91154 0.75052 0.09062
 C1011 C 0.87776 0.73756 0.08369
 C1012 C 0.85210 0.73729 0.10957
 C1013 C 0.85953 0.74954 0.14329
 C1014 C 0.89315 0.76217 0.15056
 H1015 H 0.94388 0.77416 0.13086
 H1016 H 0.87129 0.72677 0.05838
 H1017 H 0.82649 0.72708 0.10325
 H1018 H 0.89952 0.77227 0.17619
 C1019 C 0.41363 0.26768 0.62127
 C1020 C 0.40859 0.24933 0.58992
 C1021 C 0.37762 0.23018 0.58528
 C1022 C 0.35189 0.22999 0.61116
 C1023 C 0.35712 0.24811 0.64257
 C1024 C 0.38834 0.26670 0.64753
 H1025 H 0.43717 0.28282 0.62535
 H1026 H 0.37331 0.21548 0.56152
 H1027 H 0.32809 0.21534 0.60682
 H1028 H 0.39283 0.28112 0.67141
 C1029 C 0.91560 0.26135 0.87593
 C1030 C 0.90869 0.24880 0.90988
 C1031 C 0.87472 0.23648 0.91718
 C1032 C 0.84871 0.23684 0.89160
 C1033 C 0.85600 0.24902 0.85781
 C1034 C 0.88972 0.26120 0.85024
 H1035 H 0.94090 0.27213 0.86932
 H1036 H 0.86840 0.22549 0.94245
 H1037 H 0.82307 0.22681 0.89809
 H1038 H 0.89602 0.27110 0.82451
 C1039 C 0.41420 0.77090 0.38060
 C1040 C 0.40935 0.75174 0.41155
 C1041 C 0.37787 0.73357 0.41650
 C1042 C 0.35172 0.73464 0.39111
 C1043 C 0.35696 0.75311 0.35987
 C1044 C 0.38846 0.77112 0.35475
 H1045 H 0.43807 0.78546 0.37636
 H1046 H 0.37362 0.71840 0.43999
 H1047 H 0.32772 0.72035 0.39551
 H1048 H 0.39296 0.78571 0.33095
 C1049 C 0.08279 0.12445 0.26304
 C1050 C 0.08958 0.09092 0.24940
 C1051 C 0.12335 0.08401 0.23640
 C1052 C 0.14929 0.10964 0.23704
 C1053 C 0.14211 0.14305 0.25023
 C1054 C 0.10860 0.15020 0.26318
 H1055 H 0.05765 0.13063 0.27442
 H1056 H 0.12952 0.05901 0.22475
 H1057 H 0.17477 0.10350 0.22643
 H1058 H 0.10241 0.17563 0.27385
 C1059 C 0.62248 0.58488 0.76943
 C1060 C 0.59146 0.58980 0.75042
 C1061 C 0.58712 0.62082 0.73129
 C1062 C 0.61285 0.64670 0.73183
 C1063 C 0.64390 0.64164 0.75064
 C1064 C 0.64866 0.61036 0.76916
 H1065 H 0.62639 0.56128 0.78451
 H1066 H 0.56371 0.62504 0.71600
 H1067 H 0.60877 0.67042 0.71698
 H1068 H 0.67237 0.60590 0.78391
 C1069 C 0.87901 0.08447 0.76620
 C1070 C 0.90971 0.08927 0.74668
 C1071 C 0.91379 0.12004 0.72711
 C1072 C 0.88790 0.14576 0.72752
 C1073 C 0.85707 0.14069 0.74670
 C1074 C 0.85273 0.10972 0.76582
 H1075 H 0.87545 0.06115 0.78180
 H1076 H 0.93714 0.12419 0.71170
 H1077 H 0.89174 0.16941 0.71248
 H1078 H 0.82933 0.10540 0.78112
 C1079 C 0.37878 0.58787 0.27047
 C1080 C 0.40987 0.59257 0.25156
 C1081 C 0.41443 0.62335 0.23211
 C1082 C 0.38864 0.64916 0.23202
 C1083 C 0.35741 0.64419 0.25058
 C1084 C 0.35261 0.61323 0.26963
 H1085 H 0.37479 0.56448 0.28586
 H1086 H 0.43800 0.62739 0.21700
 H1087 H 0.39285 0.67276 0.21703
 H1088 H 0.32890 0.60898 0.28446
 C1089 C 0.08540 0.87807 0.73493
 C1090 C 0.09195 0.91095 0.75020
 C1091 C 0.12491 0.91665 0.76562
 C1092 C 0.15066 0.89087 0.76487
 C1093 C 0.14397 0.85834 0.74944
 C1094 C 0.11098 0.85207 0.73478
 H1095 H 0.06070 0.87269 0.72224
 H1096 H 0.13064 0.94088 0.77901
 H1097 H 0.17562 0.89616 0.77708
 H1098 H 0.10512 0.82722 0.72264
 C1099 C 0.58408 0.37882 0.22954
 C1100 C 0.58915 0.40957 0.24895
 C1101 C 0.62048 0.41394 0.26747
 C1102 C 0.64637 0.38833 0.26629
 C1103 C 0.64105 0.35735 0.24742
 C1104 C 0.60958 0.35269 0.22923
 H1105 H 0.56029 0.37501 0.21474
 H1106 H 0.62490 0.43724 0.28286
 H1107 H 0.67033 0.39247 0.28070
 H1108 H 0.60496 0.32911 0.21434
 C1109 C 0.91639 0.87818 0.26547
 C1110 C 0.90980 0.91158 0.25140
 C1111 C 0.87607 0.91852 0.23832
 C1112 C 0.85000 0.89303 0.23920
 C1113 C 0.85698 0.85971 0.25276
 C1114 C 0.89044 0.85256 0.26587
 H1115 H 0.94147 0.87200 0.27696
 H1116 H 0.87003 0.94343 0.22638
 H1117 H 0.82457 0.89917 0.22845
 H1118 H 0.89650 0.82721 0.27682
 C1119 C 0.37788 0.41436 0.77017
 C1120 C 0.40913 0.40906 0.75164
 C1121 C 0.41362 0.37780 0.73300
 C1122 C 0.38779 0.35207 0.73354
 C1123 C 0.35648 0.35751 0.75181
 C1124 C 0.35158 0.38901 0.76986
 H1125 H 0.37387 0.43817 0.78486
 H1126 H 0.43720 0.37330 0.71805
 H1127 H 0.39200 0.32814 0.71909
 H1128 H 0.32766 0.39373 0.78419
 C1129 C 0.12209 0.23563 0.91670
 C1130 C 0.08797 0.24739 0.90924
 C1131 C 0.08096 0.25947 0.87514
 C1132 C 0.10691 0.25949 0.84951
 C1133 C 0.14082 0.24795 0.85726
 C1134 C 0.14815 0.23609 0.89115
 H1135 H 0.12855 0.22516 0.94216
 H1136 H 0.05560 0.26999 0.86840
 H1137 H 0.10054 0.26920 0.82373
 H1138 H 0.17394 0.22662 0.89784
 C1139 C 0.62153 0.72927 0.41369
 C1140 C 0.59043 0.74813 0.40895
 C1141 C 0.58562 0.76702 0.37785
 C1142 C 0.61114 0.76658 0.35178
 C1143 C 0.64240 0.74815 0.35681
 C1144 C 0.64748 0.72969 0.38807
 H1145 H 0.62575 0.71434 0.43733
 H1146 H 0.56208 0.78214 0.37378
 H1147 H 0.60680 0.78128 0.32802
 H1148 H 0.67135 0.71520 0.39249
 C1149 C 0.91846 0.76442 0.87737
 C1150 C 0.91108 0.75265 0.91151
 C1151 C 0.87705 0.74034 0.91854
 C1152 C 0.85140 0.74013 0.89262
 C1153 C 0.85907 0.75167 0.85871
 C1154 C 0.89290 0.76373 0.85133
 H1155 H 0.94385 0.77506 0.87088
 H1156 H 0.87037 0.72977 0.94390
 H1157 H 0.82567 0.73025 0.89901
 H1158 H 0.89951 0.77318 0.82551
 C1159 C 0.41300 0.27206 0.37760
 C1160 C 0.40798 0.25290 0.40850
 C1161 C 0.37704 0.23364 0.41270
 C1162 C 0.35137 0.23405 0.38683
 C1163 C 0.35655 0.25291 0.35583
 C1164 C 0.38769 0.27173 0.35130
 H1165 H 0.43659 0.28722 0.37384
 H1166 H 0.37279 0.21825 0.43604
 H1167 H 0.32768 0.21910 0.39080
 H1168 H 0.39216 0.28667 0.32769
 C1169 C 0.08522 0.77101 0.12300
 C1170 C 0.09116 0.75408 0.09100
 C1171 C 0.12306 0.73678 0.08570
 C1172 C 0.14869 0.73684 0.11163
 C1173 C 0.14261 0.75347 0.14373
 C1174 C 0.11055 0.77039 0.14927
 H1175 H 0.06091 0.78469 0.12763
 H1176 H 0.12808 0.72311 0.06148
 H1177 H 0.17307 0.72337 0.10679
 H1178 H 0.10533 0.78363 0.17370
 C1179 C 0.58493 0.26814 0.62052
 C1180 C 0.58975 0.24958 0.58927
 C1181 C 0.62073 0.23049 0.58451
 C1182 C 0.64670 0.23064 0.61012
 C1183 C 0.64168 0.24895 0.64144
 C1184 C 0.61045 0.26742 0.64657
 H1185 H 0.56137 0.28319 0.62473
 H1186 H 0.62485 0.21556 0.56087
 H1187 H 0.67044 0.21592 0.60573
 H1188 H 0.60607 0.28182 0.67047
 C1189 C 0.91484 0.26411 0.12162
 C1190 C 0.90914 0.24674 0.08981
 C1191 C 0.87708 0.22976 0.08431
 C1192 C 0.85111 0.23045 0.10994
 C1193 C 0.85701 0.24749 0.14187
 C1194 C 0.88920 0.26409 0.14757
 H1195 H 0.93915 0.27777 0.12633
 H1196 H 0.87216 0.21598 0.06013
 H1197 H 0.82660 0.21723 0.10501
 H1198 H 0.89428 0.27764 0.17186
 C1199 C 0.41622 0.76730 0.62390
 C1200 C 0.41152 0.74870 0.59263
 C1201 C 0.38033 0.73006 0.58756
 C1202 C 0.35421 0.73035 0.61302
 C1203 C 0.35918 0.74848 0.64446
 C1204 C 0.39052 0.76675 0.64980
 H1205 H 0.43982 0.78228 0.62825
 H1206 H 0.37617 0.71534 0.56378
 H1207 H 0.33033 0.71597 0.60836
 H1208 H 0.39482 0.78119 0.67372
 C1209 C 0.25944 0.08240 0.87585
 C1210 C 0.24610 0.08917 0.90952
 C1211 C 0.23313 0.12293 0.91650
 C1212 C 0.23358 0.14888 0.89085
 C1213 C 0.24659 0.14173 0.85736
 C1214 C 0.25935 0.10819 0.85009
 H1215 H 0.27104 0.05740 0.86959
 H1216 H 0.22186 0.12917 0.94167
 H1217 H 0.22322 0.17443 0.89711
 H1218 H 0.27002 0.10207 0.82463
 C1219 C 0.78034 0.59518 0.38673
 C1220 C 0.75159 0.59076 0.40908
 C1221 C 0.72286 0.61335 0.40605
 C1222 C 0.72277 0.63977 0.38088
 C1223 C 0.75101 0.64335 0.35789
 C1224 C 0.77974 0.62087 0.36082
 H1225 H 0.80295 0.57836 0.38906
 H1226 H 0.70058 0.61049 0.42323
 H1227 H 0.70040 0.65693 0.37884
 H1228 H 0.80184 0.62355 0.34337
 C1229 C 0.77103 0.08630 0.11974
 C1230 C 0.75143 0.09024 0.08901
 C1231 C 0.73206 0.12101 0.08404
 C1232 C 0.73242 0.14739 0.10922
 C1233 C 0.75136 0.14302 0.14027
 C1234 C 0.77056 0.11222 0.14537
 H1235 H 0.78652 0.06303 0.12397
 H1236 H 0.71659 0.12456 0.06064
 H1237 H 0.71726 0.17084 0.10482
 H1238 H 0.78556 0.10840 0.16900
 C1239 C 0.23308 0.58550 0.62271
 C1240 C 0.25173 0.59030 0.59147
 C1241 C 0.27020 0.62160 0.58639
 C1242 C 0.26979 0.64767 0.61190
 C1243 C 0.25172 0.64252 0.64338
 C1244 C 0.23352 0.61113 0.64863
 H1245 H 0.21822 0.56183 0.62704
 H1246 H 0.28491 0.62586 0.56261
 H1247 H 0.28408 0.67160 0.60728
 H1248 H 0.21910 0.60669 0.67256
 C1249 C 0.73267 0.87658 0.91475
 C1250 C 0.75221 0.90737 0.91058
 C1251 C 0.77146 0.91223 0.87974
 C1252 C 0.77126 0.88678 0.85363
 C1253 C 0.75250 0.85563 0.85827
 C1254 C 0.73330 0.85069 0.88910
 H1255 H 0.71711 0.87253 0.93801
 H1256 H 0.78670 0.93576 0.87593
 H1257 H 0.78628 0.89115 0.83009
 H1258 H 0.71830 0.82704 0.89306
 C1259 C 0.23161 0.41463 0.37831
 C1260 C 0.25125 0.41009 0.40896
 C1261 C 0.27036 0.37908 0.41341
 C1262 C 0.26963 0.35305 0.38784
 C1263 C 0.25046 0.35794 0.35697
 C1264 C 0.23163 0.38904 0.35235
 H1265 H 0.21627 0.43807 0.37448
 H1266 H 0.28584 0.37505 0.43672
 H1267 H 0.28456 0.32938 0.39188
 H1268 H 0.21643 0.39329 0.32889
 C1269 C 0.26678 0.91609 0.12308
 C1270 C 0.24905 0.91091 0.09141
 C1271 C 0.23120 0.87930 0.08597
 C1272 C 0.23142 0.85326 0.11154
 C1273 C 0.24880 0.85869 0.14335
 C1274 C 0.26629 0.89042 0.14897
 H1275 H 0.28106 0.94006 0.12773
 H1276 H 0.21710 0.87481 0.06188
 H1277 H 0.21752 0.82911 0.10670
 H1278 H 0.28011 0.89514 0.17318
 C1279 C 0.76960 0.37961 0.58854
 C1280 C 0.74510 0.40685 0.59007
 C1281 C 0.72011 0.40693 0.61695
 C1282 C 0.72073 0.38116 0.64279
 C1283 C 0.74538 0.35412 0.64126
 C1284 C 0.76941 0.35317 0.61366
 H1285 H 0.78896 0.37897 0.56793
 H1286 H 0.70058 0.42733 0.61824
 H1287 H 0.70172 0.38204 0.66373
 H1288 H 0.78861 0.33247 0.61208
 C1289 C 0.09863 0.10794 0.78207
 C1290 C 0.08969 0.09070 0.75087
 C1291 C 0.10687 0.10020 0.71980
 C1292 C 0.13279 0.12587 0.72004
 C1293 C 0.14146 0.14291 0.75117
 C1294 C 0.12414 0.13407 0.78213
 H1295 H 0.08619 0.10082 0.80646
 H1296 H 0.10012 0.08776 0.69531
 H1297 H 0.14590 0.13267 0.69591
 H1298 H 0.13073 0.14705 0.80638
 C1299 C 0.62244 0.58589 0.27087
 C1300 C 0.59134 0.59087 0.25202
 C1301 C 0.58702 0.62178 0.23275
 C1302 C 0.61283 0.64754 0.23300
 C1303 C 0.64395 0.64248 0.25171
 C1304 C 0.64870 0.61129 0.27039
 H1305 H 0.62632 0.56233 0.28603
 H1306 H 0.56352 0.62602 0.21759
 H1307 H 0.60870 0.67122 0.21812
 H1308 H 0.67241 0.60688 0.28517
 C1309 C 0.12184 0.91660 0.23137
 C1310 C 0.09012 0.91106 0.24900
 C1311 C 0.08508 0.87955 0.26711
 C1312 C 0.11094 0.85387 0.26705
 C1313 C 0.14274 0.85954 0.24967
 C1314 C 0.14808 0.89124 0.23203
 H1315 H 0.12627 0.94060 0.21707
 H1316 H 0.06109 0.87485 0.28132
 H1317 H 0.10630 0.82976 0.28109
 H1318 H 0.17228 0.89612 0.21822
 C1319 C 0.58521 0.37737 0.73066
 C1320 C 0.59041 0.40829 0.74973
 C1321 C 0.62178 0.41269 0.76823
 C1322 C 0.64752 0.38684 0.76745
 C1323 C 0.64198 0.35568 0.74893
 C1324 C 0.61052 0.35109 0.73071
 H1325 H 0.56143 0.37351 0.71585
 H1326 H 0.62630 0.43615 0.78334
 H1327 H 0.67150 0.39091 0.78187
 H1328 H 0.60576 0.32743 0.71604
 C1329 C 0.91479 0.12337 0.26494
 C1330 C 0.90951 0.09130 0.24795
 C1331 C 0.87755 0.08523 0.23096
 C1332 C 0.85134 0.11059 0.23121
 C1333 C 0.85692 0.14286 0.24765
 C1334 C 0.88895 0.14909 0.26437
 H1335 H 0.93897 0.12851 0.27868
 H1336 H 0.87291 0.06080 0.21750
 H1337 H 0.82691 0.10517 0.21809
 H1338 H 0.89378 0.17363 0.27755
 C1339 C 0.37863 0.58495 0.76806
 C1340 C 0.40970 0.58988 0.74913
 C1341 C 0.41405 0.62075 0.72978
 C1342 C 0.38823 0.64651 0.73002
 C1343 C 0.35715 0.64143 0.74880
 C1344 C 0.35240 0.61029 0.76752
 H1345 H 0.37476 0.56147 0.78334
 H1346 H 0.43754 0.62495 0.71460
 H1347 H 0.39234 0.67022 0.71514
 H1348 H 0.32872 0.60591 0.78237
 C1349 C 0.91715 0.87672 0.73202
 C1350 C 0.91189 0.90858 0.74942
 C1351 C 0.88063 0.91372 0.76796
 C1352 C 0.85481 0.88794 0.76832
 C1353 C 0.86017 0.85607 0.75107
 C1354 C 0.89173 0.85054 0.73321
 H1355 H 0.94094 0.87218 0.71742
 H1356 H 0.87615 0.93781 0.78204
 H1357 H 0.83082 0.89273 0.78248
 H1358 H 0.89641 0.82625 0.71953
 C1359 C 0.37694 0.41623 0.27016
 C1360 C 0.40793 0.41155 0.25106
 C1361 C 0.41216 0.38100 0.23124
 C1362 C 0.38635 0.35527 0.23120
 C1363 C 0.35533 0.36004 0.25015
 C1364 C 0.35067 0.39088 0.26937
 H1365 H 0.37316 0.43951 0.28574
 H1366 H 0.43559 0.37702 0.21590
 H1367 H 0.39039 0.33182 0.21594
 H1368 H 0.32704 0.39501 0.28436
   
