data_POSCAR
  _audit_creation_date              2014-09-24
  _audit_creation_method            'ToBaCCo'
  _symmetry_space_group_name_H-M    'P1'
  _symmetry_Int_Tables_number       1
  _symmetry_cell_setting            triclinic
  loop_
  _symmetry_equiv_pos_as_xyz
 x,y,z
_cell_length_a 65.7718
_cell_length_b 65.7607
_cell_length_c 65.7802
_cell_angle_alpha 90.510100
_cell_angle_beta 91.431600
_cell_angle_gamma 90.646400
loop_
  _atom_site_label
  _atom_site_type_symbol
  _atom_site_fract_x
  _atom_site_fract_y
  _atom_site_fract_z
C1 C 0.12655 0.00068 0.25389
 C2 C 0.37460 0.00189 0.75072
 C3 C 0.87442 0.50887 0.25109
 C4 C 0.62593 0.49337 0.75092
 C5 C 0.25358 0.12589 1.00113
 C6 C 0.74741 0.37405 0.99756
 C7 C 0.24634 0.87451 0.50301
 C8 C 0.75191 0.62586 0.49487
 C9 C 0.00240 0.25055 0.12548
 C10 C -0.00265 0.74713 0.37343
 C11 C 0.50235 0.24648 0.87407
 C12 C 0.49600 0.74993 0.62480
 C13 C 0.87624 0.99590 0.74747
 C14 C 0.37618 0.50335 0.24510
 C15 C 0.62501 1.00608 0.25673
 C16 C 0.12419 0.49922 0.75726
 C17 C 0.75058 0.87543 -0.00294
 C18 C 0.24949 0.37582 0.50309
 C19 C 0.25015 0.62435 0.00081
 C20 C 0.74915 0.12455 0.49526
 C21 C 1.00212 0.74825 0.87530
 C22 C 0.50857 0.24808 0.37547
 C23 C 0.99622 0.24949 0.62357
 C24 C 0.49109 0.74856 0.12366
 O25 O -0.00793 0.98703 0.94215
 O26 O 0.02558 0.99744 0.94235
 O27 O -0.01015 0.94202 0.98941
 O28 O -0.00271 0.94040 1.02251
 O29 O -0.05532 0.98976 0.98699
 O30 O -0.05480 1.02460 0.99606
 O31 O 0.04273 0.99674 1.04546
 O32 O 0.04470 0.96492 1.03110
 O33 O 0.04799 1.03897 0.99887
 O34 O 0.03114 1.04379 0.96556
 O35 O 0.00041 1.04473 1.03947
 O36 O -0.03213 1.02749 1.04401
 O37 O 0.01495 1.01305 1.05725
 O38 O -0.02167 1.00242 1.05730
 O39 O 0.01628 1.05713 1.01181
 O40 O 0.00591 1.05710 0.97519
 O41 O 0.06021 1.01079 1.01459
 O42 O 0.05897 0.97603 0.99978
 O43 O -0.03577 1.00326 0.95397
 O44 O -0.03963 1.03566 0.97101
 O45 O -0.04329 0.96143 1.00259
 O46 O -0.02559 0.95867 1.03611
 O47 O 0.00552 0.95422 0.96149
 O48 O 0.03919 0.97146 0.96047
 Zr49 Zr 0.01129 0.98520 0.96809
 O50 O 0.03087 1.00393 0.98606
 Zr51 Zr -0.01225 0.96765 1.00859
 O52 O 0.00688 0.98513 1.02823
 Zr53 Zr -0.02945 1.00874 0.98514
 O54 O -0.01159 1.02811 1.00418
 Zr55 Zr 0.03497 0.99083 1.01481
 O56 O 0.01685 0.97094 0.99623
 Zr57 Zr 0.01729 1.03205 0.99177
 O58 O -0.00134 1.01430 0.97163
 Zr59 Zr -0.00574 1.01404 1.03226
 O60 O -0.02604 0.99580 1.01417
 O61 O -0.01730 0.98019 0.98009
 O62 O 0.02281 1.01949 1.02030
 C63 C -0.02557 0.99501 0.93970
 C64 C -0.00255 0.93980 0.97173
 C65 C -0.05768 0.97197 0.99454
 C66 C 0.03283 1.00556 1.05959
 C67 C 0.06232 1.02880 1.00750
 C68 C 0.00890 1.05914 1.02959
 H69 H 0.04400 1.00548 0.97919
 H70 H -0.01872 1.04115 1.00580
 H71 H -0.02616 0.97146 0.97120
 H72 H 0.00879 0.97793 1.04125
 H73 H 0.04124 0.95294 1.02241
 H74 H 0.00938 0.94386 1.03113
 H75 H -0.00666 1.06163 0.98173
 H76 H -0.02888 1.03989 0.96161
 H77 H 0.07123 0.97659 1.00886
 H78 H 0.03711 0.96343 0.94772
 H79 H -0.03672 1.03797 1.03429
 H80 H -0.05671 1.01999 1.01018
 H81 H 0.02136 1.01180 0.94137
 H82 H 0.04188 1.03425 0.96156
 H83 H -0.03618 0.96876 1.03915
 H84 H -0.01462 0.99006 1.06203
 O85 O 0.49025 0.48664 0.44020
 O86 O 0.52354 0.49807 0.44009
 O87 O 0.48911 0.44204 0.48747
 O88 O 0.49661 0.44049 0.52049
 O89 O 0.44330 0.48886 0.48469
 O90 O 0.44317 0.52363 0.49443
 O91 O 0.54143 0.49711 0.54320
 O92 O 0.54401 0.46562 0.52847
 O93 O 0.54600 0.53964 0.49602
 O94 O 0.52856 0.54460 0.46338
 O95 O 0.49838 0.54482 0.53750
 O96 O 0.46659 0.52750 0.54255
 O97 O 0.51354 0.51301 0.55526
 O98 O 0.47680 0.50193 0.55511
 O99 O 0.51423 0.55741 0.50991
 O100 O 0.50321 0.55735 0.47328
 O101 O 0.55847 0.51209 0.51262
 O102 O 0.55794 0.47742 0.49729
 O103 O 0.46267 0.50336 0.45196
 O104 O 0.45800 0.53529 0.46947
 O105 O 0.45564 0.46119 0.50119
 O106 O 0.47394 0.45836 0.53433
 O107 O 0.50473 0.45439 0.45960
 O108 O 0.53786 0.47232 0.45812
 Zr109 Zr 0.50977 0.48551 0.46598
 O110 O 0.52917 0.50455 0.48382
 Zr111 Zr 0.48673 0.46764 0.50663
 O112 O 0.50577 0.48536 0.52614
 Zr113 Zr 0.46879 0.50843 0.48324
 O114 O 0.48648 0.52802 0.50225
 Zr115 Zr 0.53368 0.49153 0.51254
 O116 O 0.51571 0.47137 0.49410
 Zr117 Zr 0.51522 0.53246 0.48967
 O118 O 0.49675 0.51443 0.46960
 Zr119 Zr 0.49274 0.51404 0.53031
 O120 O 0.47257 0.49558 0.51228
 O121 O 0.48132 0.48005 0.47814
 O122 O 0.52113 0.51999 0.51819
 C123 C 0.47273 0.49488 0.43771
 C124 C 0.49691 0.43987 0.46988
 C125 C 0.44114 0.47130 0.49281
 C126 C 0.53147 0.50558 0.55748
 C127 C 0.56042 0.52989 0.50498
 C128 C 0.50676 0.55933 0.52767
 H129 H 0.54222 0.50633 0.47685
 H130 H 0.47918 0.54095 0.50395
 H131 H 0.47256 0.47118 0.46930
 H132 H 0.50784 0.47811 0.53911
 H133 H 0.54076 0.45368 0.51965
 H134 H 0.50910 0.44395 0.52850
 H135 H 0.49090 0.56197 0.48024
 H136 H 0.46872 0.53996 0.46024
 H137 H 0.57024 0.47824 0.50631
 H138 H 0.53587 0.46438 0.44531
 H139 H 0.46103 0.53697 0.53228
 H140 H 0.44124 0.51864 0.50842
 H141 H 0.51864 0.51220 0.43887
 H142 H 0.53888 0.53487 0.45877
 H143 H 0.46316 0.46819 0.53751
 H144 H 0.48433 0.48997 0.56015
 O145 O 0.45203 -0.03892 0.49819
 O146 O 0.46670 -0.04219 0.46663
 O147 O 0.50148 -0.04475 0.54098
 O148 O 0.53127 -0.02947 0.54811
 O149 O 0.45902 0.00449 0.54690
 O150 O 0.45498 0.03620 0.53019
 O151 O 0.55517 0.00992 0.48996
 O152 O 0.55549 -0.02290 0.50134
 O153 O 0.50802 0.01293 0.44533
 O154 O 0.47220 0.00407 0.44401
 O155 O 0.51152 0.05749 0.49234
 O156 O 0.50313 0.05853 0.52755
 O157 O 0.54340 0.03854 0.50524
 O158 O 0.52657 0.04299 0.53929
 O159 O 0.49583 0.04510 0.46356
 O160 O 0.46140 0.02809 0.45908
 O161 O 0.53653 -0.00192 0.45830
 O162 O 0.53587 -0.03674 0.47317
 O163 O 0.44006 -0.01013 0.51305
 O164 O 0.44046 0.02522 0.50376
 O165 O 0.48711 -0.01120 0.55977
 O166 O 0.52321 -0.00029 0.55946
 O167 O 0.48505 -0.05716 0.51255
 O168 O 0.49664 -0.05612 0.47723
 Zr169 Zr 0.48275 -0.03194 0.49317
 O170 O 0.50095 -0.01433 0.47403
 Zr171 Zr 0.50646 -0.01379 0.53486
 O172 O 0.52612 0.00400 0.51736
 Zr173 Zr 0.46561 0.00942 0.51620
 O174 O 0.48350 0.02875 0.49838
 Zr175 Zr 0.52936 -0.00906 0.48841
 O176 O 0.51189 -0.02839 0.50690
 Zr177 Zr 0.48856 0.01468 0.47019
 O178 O 0.46888 -0.00380 0.48728
 Zr179 Zr 0.51271 0.03229 0.51176
 O180 O 0.49380 0.01523 0.53109
 O181 O 0.47790 -0.01903 0.52161
 O182 O 0.51741 0.01972 0.48313
 C183 C 0.43773 -0.02822 0.50567
 C184 C 0.49315 -0.05925 0.53037
 C185 C 0.46942 -0.00340 0.56156
 C186 C 0.55749 0.02808 0.49703
 C187 C 0.52616 0.00616 0.44374
 C188 C 0.50447 0.05944 0.47410
 H189 H 0.50240 -0.02156 0.46090
 H190 H 0.47658 0.04193 0.49683
 H191 H 0.46922 -0.02768 0.53016
 H192 H 0.53946 0.00538 0.52454
 H193 H 0.55082 -0.03574 0.50756
 H194 H 0.54318 -0.02653 0.53970
 H195 H 0.45881 0.04028 0.46750
 H196 H 0.43803 0.01971 0.48985
 H197 H 0.54921 -0.03511 0.46663
 H198 H 0.48832 -0.06868 0.47871
 H199 H 0.48916 0.06153 0.52264
 H200 H 0.46601 0.04104 0.53961
 H201 H 0.45824 -0.03074 0.46185
 H202 H 0.47725 -0.00965 0.44070
 H203 H 0.51643 0.01265 0.56278
 H204 H 0.53876 0.03469 0.54209
 O205 O -0.04733 0.46150 0.99912
 O206 O -0.03235 0.45775 0.96800
 O207 O 0.00250 0.45614 1.04228
 O208 O 0.03181 0.47205 1.04977
 O209 O -0.04046 0.50565 1.04798
 O210 O -0.04520 0.53672 1.03062
 O211 O 0.05557 0.51082 0.99120
 O212 O 0.05611 0.47818 1.00277
 O213 O 0.00845 0.51308 0.94632
 O214 O -0.02732 0.50401 0.94504
 O215 O 0.01149 0.55814 0.99298
 O216 O 0.00305 0.55939 1.02816
 O217 O 0.04360 0.53943 1.00633
 O218 O 0.02650 0.54414 1.04012
 O219 O -0.00418 0.54542 0.96433
 O220 O -0.03830 0.52803 0.95982
 O221 O 0.03700 0.49846 0.95947
 O222 O 0.03665 0.46389 0.97476
 O223 O -0.05942 0.48992 1.01458
 O224 O -0.05940 0.52512 1.00428
 O225 O -0.01270 0.48944 1.06089
 O226 O 0.02329 0.50112 1.06067
 O227 O -0.01427 0.44346 1.01418
 O228 O -0.00235 0.44429 0.97888
 Zr229 Zr -0.01656 0.46847 0.99451
 O230 O 0.00154 0.48608 0.97527
 Zr231 Zr 0.00687 0.48716 1.03611
 O232 O 0.02644 0.50494 1.01850
 Zr233 Zr -0.03411 0.50987 1.01714
 O234 O -0.01630 0.52920 0.99922
 Zr235 Zr 0.02987 0.49168 0.98967
 O236 O 0.01252 0.47238 1.00829
 Zr237 Zr -0.01106 0.51495 0.97115
 O238 O -0.03063 0.49645 0.98834
 Zr239 Zr 0.01286 0.53310 1.01262
 O240 O -0.00599 0.51605 1.03203
 O241 O -0.02161 0.48156 1.02284
 O242 O 0.01775 0.52035 0.98408
 C243 C -0.06167 0.47196 1.00685
 C244 C -0.00587 0.44153 1.03188
 C245 C -0.03023 0.49761 1.06266
 C246 C 0.05781 0.52898 0.99829
 C247 C 0.02657 0.50628 0.94479
 C248 C 0.00430 0.55993 0.97477
 H249 H 0.00306 0.47874 0.96222
 H250 H -0.02333 0.54230 0.99756
 H251 H -0.03024 0.47290 1.03144
 H252 H 0.03974 0.50646 1.02573
 H253 H 0.05153 0.46539 1.00915
 H254 H 0.04365 0.47471 1.04118
 H255 H -0.04122 0.54006 0.96836
 H256 H -0.06187 0.51914 0.99056
 H257 H 0.04998 0.46555 0.96821
 H258 H -0.01050 0.43164 0.98053
 H259 H -0.01085 0.56239 1.02305
 H260 H -0.03415 0.54205 1.03974
 H261 H -0.04064 0.46916 0.96284
 H262 H -0.02202 0.49039 0.94171
 H263 H 0.01621 0.51390 1.06395
 H264 H 0.03860 0.53580 1.04318
 O265 O 0.01271 0.44279 0.51306
 O266 O 0.00229 0.44241 0.47936
 O267 O 0.05837 0.49076 0.51617
 O268 O 0.06027 0.52392 0.51094
 O269 O 0.01052 0.48744 0.56105
 O270 O -0.02402 0.49743 0.56039
 O271 O 0.00407 0.54505 0.46397
 O272 O 0.03609 0.53119 0.46264
 O273 O -0.03843 0.49856 0.45735
 O274 O -0.04374 0.46532 0.47318
 O275 O -0.04370 0.53983 0.50494
 O276 O -0.02729 0.54497 0.53799
 O277 O -0.01121 0.55758 0.49207
 O278 O -0.00123 0.55771 0.52921
 O279 O -0.05655 0.51139 0.48921
 O280 O -0.05680 0.47482 0.49857
 O281 O -0.00985 0.51407 0.44598
 O282 O 0.02466 0.49944 0.44752
 O283 O -0.00415 0.45475 0.54048
 O284 O -0.03593 0.47218 0.54462
 O285 O 0.03880 0.50379 0.55005
 O286 O 0.04197 0.53732 0.53303
 O287 O 0.04563 0.46209 0.50069
 O288 O 0.02870 0.46054 0.46662
 Zr289 Zr 0.01485 0.46846 0.49437
 O290 O -0.00356 0.48597 0.47478
 Zr291 Zr 0.03281 0.50948 0.51902
 O292 O 0.01571 0.52871 0.49992
 Zr293 Zr -0.00864 0.48593 0.53498
 O294 O -0.02767 0.50460 0.51714
 Zr295 Zr 0.00997 0.51475 0.47152
 O296 O 0.02952 0.49663 0.48964
 Zr297 Zr -0.03165 0.49167 0.48797
 O298 O -0.01427 0.47193 0.50653
 Zr299 Zr -0.01322 0.53274 0.51207
 O300 O 0.00466 0.51504 0.53238
 O301 O 0.01991 0.48092 0.52326
 O302 O -0.01868 0.52022 0.48324
 C303 C 0.00420 0.44044 0.53027
 C304 C 0.06028 0.47281 0.50862
 C305 C 0.02830 0.49537 0.56396
 C306 C -0.00414 0.55945 0.47412
 C307 C -0.02803 0.50707 0.44343
 C308 C -0.05827 0.52949 0.49635
 H309 H -0.00515 0.47891 0.46149
 H310 H -0.04074 0.50623 0.52403
 H311 H 0.02851 0.47216 0.53201
 H312 H 0.02313 0.54174 0.49838
 H313 H 0.04795 0.52257 0.46594
 H314 H 0.05739 0.53117 0.49812
 H315 H -0.06147 0.48156 0.51110
 H316 H -0.04042 0.46257 0.53370
 H317 H 0.02433 0.50836 0.43544
 H318 H 0.03646 0.44782 0.46860
 H319 H -0.03728 0.53478 0.54263
 H320 H -0.01889 0.51149 0.56267
 H321 H -0.01211 0.44143 0.48329
 H322 H -0.03415 0.46121 0.46259
 H323 H 0.03215 0.54017 0.54383
 H324 H 0.01113 0.56263 0.52245
 O325 O 0.51335 0.94152 0.01333
 O326 O 0.50222 0.94072 -0.02014
 O327 O 0.55924 0.98865 0.01588
 O328 O 0.56162 1.02157 0.00911
 O329 O 0.51198 0.98692 0.06077
 O330 O 0.47757 0.99704 0.06038
 O331 O 0.50515 1.04325 -0.03701
 O332 O 0.53685 1.02891 -0.03864
 O333 O 0.46194 0.99697 -0.04254
 O334 O 0.45631 0.96428 -0.02616
 O335 O 0.45780 1.03915 0.00474
 O336 O 0.47482 1.04445 0.03751
 O337 O 0.49026 1.05627 -0.00891
 O338 O 0.50078 1.05683 0.02806
 O339 O 0.44442 1.01079 -0.01068
 O340 O 0.44384 0.97426 -0.00059
 O341 O 0.49045 1.01217 -0.05446
 O342 O 0.52484 0.99712 -0.05317
 O343 O 0.49674 0.95396 0.04070
 O344 O 0.46523 0.97184 0.04501
 O345 O 0.54019 1.00300 0.04926
 O346 O 0.54390 1.03587 0.03156
 O347 O 0.54624 0.96045 -0.00023
 O348 O 0.52843 0.95833 -0.03375
 Zr349 Zr 0.51532 0.96687 -0.00580
 O350 O 0.49684 0.98438 -0.02534
 Zr351 Zr 0.53407 1.00796 0.01814
 O352 O 0.51696 1.02716 -0.00100
 Zr353 Zr 0.49255 0.98514 0.03490
 O354 O 0.47353 1.00386 0.01709
 Zr355 Zr 0.51065 1.01294 -0.02917
 O356 O 0.53023 0.99480 -0.01106
 Zr357 Zr 0.46900 0.99063 -0.01187
 O358 O 0.48641 0.97088 0.00668
 Zr359 Zr 0.48827 1.03174 0.01147
 O360 O 0.50616 1.01405 0.03177
 O361 O 0.52089 0.97963 0.02290
 O362 O 0.48225 1.01894 -0.01714
 C363 C 0.50491 0.93945 0.03063
 C364 C 0.56100 0.97086 0.00791
 C365 C 0.52976 0.99492 0.06341
 C366 C 0.49720 1.05786 -0.02694
 C367 C 0.47222 1.00520 -0.05672
 C368 C 0.44301 1.02897 -0.00363
 H369 H 0.49498 0.97716 -0.03853
 H370 H 0.46059 1.00577 0.02413
 H371 H 0.52949 0.97090 0.03170
 H372 H 0.52451 1.04008 -0.00280
 H373 H 0.54864 1.02020 -0.03534
 H374 H 0.55846 1.02928 -0.00338
 H375 H 0.43927 0.98142 0.01174
 H376 H 0.46050 0.96216 0.03424
 H377 H 0.52442 1.00587 -0.06537
 H378 H 0.53612 0.94557 -0.03174
 H379 H 0.46464 1.03454 0.04232
 H380 H 0.48274 1.01113 0.06237
 H381 H 0.48791 0.93991 -0.01588
 H382 H 0.46592 0.95961 -0.03650
 H383 H 0.53410 1.03925 0.04223
 H384 H 0.51308 1.06152 0.02104
 O385 O 0.49526 0.45306 -0.04230
 O386 O 0.46332 0.46748 -0.04612
 O387 O 0.53706 0.50267 -0.04763
 O388 O 0.54340 0.53266 -0.03259
 O389 O 0.54368 0.46049 0.00169
 O390 O 0.52725 0.45655 0.03330
 O391 O 0.48482 0.55636 0.00575
 O392 O 0.49618 0.55664 -0.02679
 O393 O 0.44132 0.50911 0.00896
 O394 O 0.44032 0.47344 -0.00014
 O395 O 0.48833 0.51264 0.05378
 O396 O 0.52362 0.50486 0.05531
 O397 O 0.50020 0.54470 0.03472
 O398 O 0.53480 0.52828 0.03969
 O399 O 0.45991 0.49653 0.04116
 O400 O 0.45595 0.46225 0.02378
 O401 O 0.45343 0.53727 -0.00675
 O402 O 0.46854 0.53670 -0.04110
 O403 O 0.51015 0.44132 -0.01309
 O404 O 0.50106 0.44184 0.02216
 O405 O 0.55606 0.48874 -0.01368
 O406 O 0.55498 0.52487 -0.00311
 O407 O 0.50894 0.48611 -0.06049
 O408 O 0.47328 0.49745 -0.06007
 Zr409 Zr 0.48953 0.48377 -0.03557
 O410 O 0.47002 0.50189 -0.01832
 Zr411 Zr 0.53073 0.50786 -0.01687
 O412 O 0.51282 0.52745 0.00049
 Zr413 Zr 0.51290 0.46696 0.00628
 O414 O 0.49477 0.48480 0.02523
 Zr415 Zr 0.48379 0.53043 -0.01306
 O416 O 0.50265 0.51303 -0.03198
 Zr417 Zr 0.46645 0.48962 0.01073
 O418 O 0.48390 0.46999 -0.00741
 Zr419 Zr 0.50754 0.51411 0.02877
 O420 O 0.52724 0.49526 0.01215
 O421 O 0.51807 0.47920 -0.02214
 O422 O 0.47878 0.51858 0.01575
 C423 C 0.50296 0.43885 -0.03132
 C424 C 0.52667 0.49421 -0.06227
 C425 C 0.55815 0.47101 -0.00594
 C426 C 0.49178 0.55874 0.02405
 C427 C 0.43921 0.52701 0.00161
 C428 C 0.47035 0.50521 0.05561
 H429 H 0.45685 0.50323 -0.02575
 H430 H 0.49342 0.47787 0.03841
 H431 H 0.52679 0.47053 -0.03059
 H432 H 0.51973 0.54084 0.00189
 H433 H 0.50256 0.55199 -0.03947
 H434 H 0.53485 0.54456 -0.02974
 H435 H 0.46441 0.45967 0.03612
 H436 H 0.48725 0.43913 0.01637
 H437 H 0.46171 0.54999 -0.03973
 H438 H 0.47499 0.48911 -0.07255
 H439 H 0.51937 0.49071 0.05810
 H440 H 0.53661 0.46759 0.03808
 H441 H 0.45863 0.45917 -0.03463
 H442 H 0.43705 0.47832 -0.01400
 H443 H 0.55844 0.51820 0.00993
 H444 H 0.53716 0.54059 0.03151
 O445 O -0.06064 0.00823 0.50972
 O446 O -0.06140 -0.02513 0.49860
 O447 O -0.01307 0.01019 0.55585
 O448 O 0.01995 0.00376 0.55838
 O449 O -0.01499 0.05601 0.50843
 O450 O -0.00571 0.05607 0.47398
 O451 O 0.04131 -0.04122 0.50238
 O452 O 0.02699 -0.04363 0.53382
 O453 O -0.00522 -0.04652 0.45860
 O454 O -0.03810 -0.03045 0.45282
 O455 O 0.03651 0.00109 0.45478
 O456 O 0.04181 0.03371 0.47184
 O457 O 0.05400 -0.01286 0.48737
 O458 O 0.05454 0.02386 0.49771
 O459 O 0.00805 -0.01410 0.44112
 O460 O -0.02858 -0.00448 0.44052
 O461 O 0.01028 -0.05874 0.48720
 O462 O -0.00468 -0.05822 0.52143
 O463 O -0.04832 0.03606 0.49344
 O464 O -0.03101 0.04073 0.46180
 O465 O 0.00055 0.04396 0.53709
 O466 O 0.03382 0.02671 0.54070
 O467 O -0.04147 -0.00565 0.54272
 O468 O -0.04352 -0.03901 0.52497
 Zr469 Zr -0.03521 -0.01082 0.51185
 O470 O -0.01776 -0.02997 0.49349
 Zr471 Zr 0.00594 0.01309 0.53079
 O472 O 0.02507 -0.00563 0.51382
 Zr473 Zr -0.01725 0.03036 0.48914
 O474 O 0.00136 0.01295 0.47025
 Zr475 Zr 0.01092 -0.03382 0.50746
 O476 O -0.00714 -0.01614 0.52692
 Zr477 Zr -0.01179 -0.01603 0.46566
 O478 O -0.03147 0.00213 0.48295
 Zr479 Zr 0.02936 0.00732 0.48516
 O480 O 0.01176 0.02723 0.50294
 O481 O -0.02250 0.01788 0.51744
 O482 O 0.01666 -0.02130 0.47908
 C483 C -0.06275 0.02576 0.50148
 C484 C -0.03090 0.00228 0.55752
 C485 C -0.00732 0.05830 0.52646
 C486 C 0.05580 -0.03091 0.49452
 C487 C 0.00323 -0.06078 0.46892
 C488 C 0.02620 -0.00693 0.43987
 H489 H -0.02492 -0.04319 0.49158
 H490 H 0.00311 0.02023 0.45732
 H491 H -0.03117 0.02649 0.52600
 H492 H 0.03805 -0.00744 0.52146
 H493 H 0.01833 -0.04050 0.54552
 H494 H 0.02768 -0.00863 0.55526
 H495 H -0.02164 0.00807 0.43605
 H496 H -0.04081 0.03002 0.45719
 H497 H 0.00413 -0.07035 0.52105
 H498 H -0.05623 -0.03719 0.53257
 H499 H 0.03198 0.03840 0.46132
 H500 H 0.00850 0.05802 0.47902
 H501 H -0.06231 -0.02066 0.48428
 H502 H -0.04266 -0.04092 0.46245
 H503 H 0.03690 0.03769 0.53100
 H504 H 0.05917 0.01686 0.51021
 O505 O 0.74517 0.19716 0.26158
 O506 O 0.77858 0.19705 0.25156
 O507 O 0.74452 0.24538 0.30685
 O508 O 0.75114 0.27857 0.30845
 O509 O 0.69746 0.24239 0.25880
 O510 O 0.69689 0.25093 0.22390
 O511 O 0.79497 0.29992 0.25236
 O512 O 0.79790 0.28616 0.28428
 O513 O 0.79926 0.25236 0.21034
 O514 O 0.78217 0.21907 0.20543
 O515 O 0.75129 0.29340 0.20414
 O516 O 0.71917 0.29849 0.22115
 O517 O 0.76660 0.31164 0.23593
 O518 O 0.73031 0.31221 0.24625
 O519 O 0.76723 0.26548 0.19199
 O520 O 0.75680 0.22909 0.19164
 O521 O 0.81219 0.26864 0.23853
 O522 O 0.81209 0.25453 0.27326
 O523 O 0.71661 0.20904 0.24556
 O524 O 0.71182 0.22539 0.21299
 O525 O 0.71034 0.25814 0.28732
 O526 O 0.72779 0.29181 0.28998
 O527 O 0.75889 0.21666 0.29442
 O528 O 0.79247 0.21551 0.27797
 Zr529 Zr 0.76427 0.22300 0.26370
 O530 O 0.78322 0.24048 0.24517
 Zr531 Zr 0.74110 0.26403 0.28117
 O532 O 0.75956 0.28321 0.26379
 Zr533 Zr 0.72272 0.24001 0.23994
 O534 O 0.73993 0.25852 0.22068
 Zr535 Zr 0.78754 0.26945 0.25830
 O536 O 0.77014 0.25134 0.27806
 Zr537 Zr 0.76876 0.24578 0.21697
 O538 O 0.75072 0.22611 0.23454
 Zr539 Zr 0.74603 0.28680 0.23480
 O540 O 0.72639 0.26923 0.25293
 O541 O 0.73580 0.23538 0.26854
 O542 O 0.77449 0.27450 0.22956
 C543 C 0.72716 0.19480 0.25380
 C544 C 0.75158 0.22735 0.30890
 C545 C 0.69567 0.25004 0.27669
 C546 C 0.78470 0.31397 0.24349
 C547 C 0.81382 0.26109 0.22059
 C548 C 0.75965 0.28326 0.18988
 H549 H 0.79632 0.23346 0.24372
 H550 H 0.73243 0.25998 0.20758
 H551 H 0.72724 0.22672 0.27719
 H552 H 0.76161 0.29636 0.27100
 H553 H 0.79490 0.27769 0.29624
 H554 H 0.76329 0.28677 0.30516
 H555 H 0.74399 0.23561 0.18714
 H556 H 0.72253 0.21587 0.20883
 H557 H 0.82427 0.26354 0.27282
 H558 H 0.79066 0.20285 0.28585
 H559 H 0.71438 0.28864 0.21059
 H560 H 0.69498 0.26510 0.22861
 H561 H 0.77375 0.19566 0.23724
 H562 H 0.79343 0.21531 0.21486
 H563 H 0.71674 0.29461 0.27993
 H564 H 0.73760 0.31702 0.25875
 O565 O 0.75314 0.70643 0.70313
 O566 O 0.78458 0.70325 0.71913
 O567 O 0.71153 0.69944 0.75270
 O568 O 0.70463 0.71526 0.78168
 O569 O 0.70374 0.74900 0.70946
 O570 O 0.72079 0.78060 0.70505
 O571 O 0.76354 0.75564 0.80653
 O572 O 0.75231 0.72266 0.80679
 O573 O 0.80692 0.75967 0.76037
 O574 O 0.80728 0.74989 0.72451
 O575 O 0.76018 0.80296 0.76209
 O576 O 0.72453 0.80304 0.75296
 O577 O 0.74807 0.78388 0.79399
 O578 O 0.71377 0.78776 0.77655
 O579 O 0.78835 0.79101 0.74685
 O580 O 0.79213 0.77363 0.71311
 O581 O 0.79504 0.74389 0.78840
 O582 O 0.77983 0.70913 0.78791
 O583 O 0.73675 0.73433 0.69096
 O584 O 0.74656 0.76970 0.69112
 O585 O 0.69196 0.73227 0.73698
 O586 O 0.69327 0.74392 0.77290
 O587 O 0.73871 0.68774 0.73553
 O588 O 0.77430 0.68933 0.74876
 Zr589 Zr 0.75834 0.71324 0.73415
 O590 O 0.77804 0.73133 0.75268
 Zr591 Zr 0.71743 0.73070 0.75694
 O592 O 0.73552 0.74901 0.77676
 Zr593 Zr 0.73481 0.75405 0.71627
 O594 O 0.75326 0.77382 0.73433
 Zr595 Zr 0.76456 0.73654 0.78080
 O596 O 0.74555 0.71671 0.76306
 Zr597 Zr 0.78159 0.76033 0.74014
 O598 O 0.76385 0.74144 0.72024
 Zr599 Zr 0.74077 0.77734 0.76323
 O600 O 0.72082 0.75973 0.74414
 O601 O 0.72973 0.72555 0.72863
 O602 O 0.76955 0.76536 0.76872
 C603 C 0.74478 0.71673 0.68870
 C604 C 0.72149 0.68522 0.74402
 C605 C 0.68948 0.74050 0.71947
 C606 C 0.75644 0.77367 0.80848
 C607 C 0.80921 0.75256 0.77840
 C608 C 0.77811 0.80524 0.75512
 H609 H 0.79120 0.72436 0.75447
 H610 H 0.75461 0.78696 0.72728
 H611 H 0.72093 0.71670 0.71980
 H612 H 0.72869 0.75033 0.78992
 H613 H 0.74587 0.70971 0.80209
 H614 H 0.71355 0.71817 0.79368
 H615 H 0.78325 0.78525 0.70979
 H616 H 0.76034 0.76431 0.68898
 H617 H 0.78669 0.71088 0.80142
 H618 H 0.77248 0.67669 0.74052
 H619 H 0.72945 0.80644 0.73931
 H620 H 0.71191 0.78556 0.71593
 H621 H 0.78962 0.71490 0.71119
 H622 H 0.81132 0.73675 0.73049
 H623 H 0.68976 0.75669 0.76583
 H624 H 0.71100 0.77913 0.78842
 O625 O 0.24510 0.21044 0.79577
 O626 O 0.21322 0.20697 0.78027
 O627 O 0.28622 0.20507 0.74626
 O628 O 0.29211 0.22079 0.71704
 O629 O 0.29415 0.25412 0.79024
 O630 O 0.27741 0.28549 0.79536
 O631 O 0.23368 0.26005 0.69369
 O632 O 0.24449 0.22721 0.69275
 O633 O 0.19050 0.26292 0.74060
 O634 O 0.19044 0.25312 0.77607
 O635 O 0.23691 0.30720 0.73873
 O636 O 0.27259 0.30844 0.74805
 O637 O 0.24929 0.28860 0.70664
 O638 O 0.28359 0.29334 0.72426
 O639 O 0.20936 0.29479 0.75495
 O640 O 0.20590 0.27677 0.78814
 O641 O 0.20230 0.24828 0.71180
 O642 O 0.21693 0.21345 0.71152
 O643 O 0.26109 0.23887 0.80862
 O644 O 0.25163 0.27419 0.80929
 O645 O 0.30560 0.23813 0.76202
 O646 O 0.30404 0.24981 0.72644
 O647 O 0.25875 0.19243 0.76253
 O648 O 0.22297 0.19339 0.75014
 Zr649 Zr 0.23927 0.21752 0.76507
 O650 O 0.21942 0.23531 0.74720
 Zr651 Zr 0.27996 0.23607 0.74232
 O652 O 0.26172 0.25408 0.72310
 Zr653 Zr 0.26305 0.25877 0.78373
 O654 O 0.24445 0.27823 0.76630
 Zr655 Zr 0.23264 0.24098 0.71908
 O656 O 0.25179 0.22145 0.73614
 Zr657 Zr 0.21606 0.26412 0.76053
 O658 O 0.23398 0.24550 0.77976
 Zr659 Zr 0.25659 0.28222 0.73732
 O660 O 0.27672 0.26495 0.75583
 O661 O 0.26791 0.23047 0.77061
 O662 O 0.22777 0.26960 0.73192
 C663 C 0.25337 0.22093 0.81044
 C664 C 0.27617 0.19050 0.75435
 C665 C 0.30827 0.24603 0.77982
 C666 C 0.24086 0.27819 0.69200
 C667 C 0.18818 0.25633 0.72224
 C668 C 0.21928 0.30917 0.74642
 H669 H 0.20622 0.22808 0.74535
 H670 H 0.24316 0.29130 0.77367
 H671 H 0.27679 0.22176 0.77914
 H672 H 0.26846 0.25561 0.70992
 H673 H 0.25087 0.21437 0.69718
 H674 H 0.28332 0.22405 0.70514
 H675 H 0.21476 0.28860 0.79166
 H676 H 0.23793 0.26838 0.81161
 H677 H 0.20989 0.21524 0.69816
 H678 H 0.22484 0.18075 0.75807
 H679 H 0.26779 0.31155 0.76185
 H680 H 0.28601 0.29075 0.78440
 H681 H 0.20854 0.21839 0.78880
 H682 H 0.18665 0.23968 0.77016
 H683 H 0.30762 0.26265 0.73372
 H684 H 0.28633 0.28484 0.71218
 O685 O 0.20173 0.74468 0.29070
 O686 O 0.21714 0.71340 0.29381
 O687 O 0.25131 0.78756 0.29777
 O688 O 0.28078 0.79408 0.28294
 O689 O 0.20745 0.79420 0.24862
 O690 O 0.20229 0.77750 0.21654
 O691 O 0.30355 0.73641 0.24220
 O692 O 0.30480 0.74738 0.27534
 O693 O 0.25628 0.69193 0.23819
 O694 O 0.22058 0.69116 0.24711
 O695 O 0.25823 0.73894 0.19466
 O696 O 0.24939 0.77436 0.19432
 O697 O 0.29053 0.75167 0.21385
 O698 O 0.27347 0.78575 0.20991
 O699 O 0.24295 0.71033 0.20638
 O700 O 0.20920 0.70611 0.22309
 O701 O 0.28535 0.70468 0.25309
 O702 O 0.28587 0.71919 0.28828
 O703 O 0.18894 0.76053 0.26256
 O704 O 0.18806 0.75128 0.22709
 O705 O 0.23617 0.80659 0.26450
 O706 O 0.27176 0.80589 0.25399
 O707 O 0.23503 0.75945 0.30951
 O708 O 0.24737 0.72408 0.30792
 Zr709 Zr 0.23242 0.73994 0.28398
 O710 O 0.25010 0.72067 0.26599
 Zr711 Zr 0.25546 0.78138 0.26676
 O712 O 0.27450 0.76378 0.24858
 Zr713 Zr 0.21380 0.76335 0.24310
 O714 O 0.23103 0.74531 0.22342
 Zr715 Zr 0.27830 0.73477 0.26104
 O716 O 0.26143 0.75333 0.28078
 Zr717 Zr 0.23668 0.71702 0.23691
 O718 O 0.21761 0.73432 0.25568
 Zr719 Zr 0.26006 0.75840 0.22018
 O720 O 0.24178 0.77790 0.23766
 O721 O 0.22706 0.76849 0.27166
 O722 O 0.26532 0.72968 0.23215
 C723 C 0.18710 0.75258 0.28023
 C724 C 0.24318 0.77717 0.31196
 C725 C 0.21824 0.80869 0.25672
 C726 C 0.30513 0.74351 0.22417
 C727 C 0.27471 0.69020 0.24482
 C728 C 0.25119 0.72077 0.19232
 H729 H 0.25185 0.70751 0.27295
 H730 H 0.22367 0.74385 0.21020
 H731 H 0.21858 0.77710 0.28042
 H732 H 0.28774 0.77087 0.24736
 H733 H 0.30051 0.75351 0.28833
 H734 H 0.29266 0.78576 0.27952
 H735 H 0.20603 0.71478 0.21125
 H736 H 0.18599 0.73730 0.23217
 H737 H 0.29918 0.71256 0.28648
 H738 H 0.23951 0.72568 0.32052
 H739 H 0.23550 0.76926 0.19094
 H740 H 0.21318 0.78674 0.21188
 H741 H 0.20852 0.70846 0.28220
 H742 H 0.22659 0.68731 0.26044
 H743 H 0.26478 0.80917 0.24094
 H744 H 0.28582 0.78855 0.21841
 O745 O 0.24054 0.69231 0.76453
 O746 O 0.27375 0.69211 0.75455
 O747 O 0.24008 0.74059 0.80988
 O748 O 0.24627 0.77375 0.81154
 O749 O 0.19270 0.73765 0.76187
 O750 O 0.19198 0.74596 0.72713
 O751 O 0.29049 0.79484 0.75509
 O752 O 0.29353 0.78118 0.78702
 O753 O 0.29418 0.74762 0.71296
 O754 O 0.27729 0.71445 0.70801
 O755 O 0.24691 0.78895 0.70751
 O756 O 0.21479 0.79405 0.72399
 O757 O 0.26175 0.80696 0.73967
 O758 O 0.22521 0.80702 0.74980
 O759 O 0.26176 0.76063 0.69486
 O760 O 0.25152 0.72409 0.69480
 O761 O 0.30745 0.76349 0.74124
 O762 O 0.30741 0.74938 0.77601
 O763 O 0.21188 0.70415 0.74867
 O764 O 0.20705 0.72065 0.71603
 O765 O 0.20564 0.75334 0.79039
 O766 O 0.22339 0.78704 0.79309
 O767 O 0.25434 0.71182 0.79743
 O768 O 0.28786 0.71067 0.78075
 Zr769 Zr 0.25956 0.71815 0.76666
 O770 O 0.27840 0.73555 0.74797
 Zr771 Zr 0.23645 0.75916 0.78421
 O772 O 0.25498 0.77829 0.76689
 Zr773 Zr 0.21794 0.73515 0.74305
 O774 O 0.23503 0.75379 0.72381
 Zr775 Zr 0.28290 0.76446 0.76116
 O776 O 0.26550 0.74646 0.78101
 Zr777 Zr 0.26378 0.74097 0.71987
 O778 O 0.24590 0.72126 0.73754
 Zr779 Zr 0.24131 0.78203 0.73800
 O780 O 0.22166 0.76438 0.75605
 O781 O 0.23108 0.73050 0.77162
 O782 O 0.26968 0.76964 0.73252
 C783 C 0.22254 0.68991 0.75678
 C784 C 0.24718 0.72259 0.81194
 C785 C 0.19092 0.74537 0.77973
 C786 C 0.28004 0.80909 0.74681
 C787 C 0.30889 0.75613 0.72319
 C788 C 0.25471 0.77866 0.69303
 H789 H 0.29147 0.72849 0.74642
 H790 H 0.22748 0.75533 0.71075
 H791 H 0.22255 0.72185 0.78031
 H792 H 0.25710 0.79139 0.77418
 H793 H 0.29057 0.77276 0.79902
 H794 H 0.25900 0.78112 0.80852
 H795 H 0.23877 0.73069 0.69028
 H796 H 0.21758 0.71084 0.71205
 H797 H 0.31965 0.75829 0.77547
 H798 H 0.28609 0.69808 0.78875
 H799 H 0.20974 0.78404 0.71370
 H800 H 0.19038 0.76030 0.73143
 H801 H 0.26919 0.69094 0.74014
 H802 H 0.28842 0.71050 0.71752
 H803 H 0.21202 0.78969 0.78336
 H804 H 0.23272 0.81209 0.76207
 O805 O 0.25795 0.21095 0.20777
 O806 O 0.28945 0.20786 0.22376
 O807 O 0.21620 0.20526 0.25710
 O808 O 0.20949 0.22141 0.28593
 O809 O 0.20923 0.25359 0.21295
 O810 O 0.22595 0.28542 0.20865
 O811 O 0.26928 0.26180 0.31029
 O812 O 0.25742 0.22901 0.31120
 O813 O 0.31221 0.26480 0.26412
 O814 O 0.31273 0.25470 0.22867
 O815 O 0.26605 0.30822 0.26594
 O816 O 0.23087 0.30912 0.25651
 O817 O 0.25293 0.28952 0.29775
 O818 O 0.21889 0.29351 0.27935
 O819 O 0.29365 0.29618 0.24978
 O820 O 0.29739 0.27780 0.21648
 O821 O 0.30036 0.24915 0.29223
 O822 O 0.28463 0.21466 0.29234
 O823 O 0.24257 0.23914 0.19497
 O824 O 0.25192 0.27466 0.19492
 O825 O 0.19708 0.23821 0.24108
 O826 O 0.19855 0.25009 0.27702
 O827 O 0.24339 0.19302 0.24031
 O828 O 0.27898 0.19445 0.25362
 Zr829 Zr 0.26329 0.21829 0.23863
 O830 O 0.28314 0.23652 0.25684
 Zr831 Zr 0.22252 0.23647 0.26109
 O832 O 0.24077 0.25482 0.28073
 Zr833 Zr 0.24016 0.25906 0.22010
 O834 O 0.25866 0.27894 0.23797
 Zr835 Zr 0.26974 0.24220 0.28490
 O836 O 0.25051 0.22231 0.26746
 Zr837 Zr 0.28689 0.26533 0.24391
 O838 O 0.26906 0.24624 0.22429
 Zr839 Zr 0.24622 0.28292 0.26686
 O840 O 0.22617 0.26528 0.24788
 O841 O 0.23482 0.23080 0.23288
 O842 O 0.27494 0.27083 0.27245
 C843 C 0.25015 0.22128 0.19308
 C844 C 0.22604 0.19082 0.24864
 C845 C 0.19482 0.24566 0.22319
 C846 C 0.26167 0.27961 0.31223
 C847 C 0.31454 0.25766 0.28212
 C848 C 0.28372 0.31046 0.25834
 H849 H 0.29624 0.22945 0.25869
 H850 H 0.26010 0.29198 0.23076
 H851 H 0.22601 0.22190 0.22412
 H852 H 0.23394 0.25633 0.29387
 H853 H 0.25085 0.21603 0.30679
 H854 H 0.21860 0.22409 0.29785
 H855 H 0.28878 0.28959 0.21305
 H856 H 0.26561 0.26910 0.19264
 H857 H 0.29155 0.21651 0.30581
 H858 H 0.27711 0.18173 0.24553
 H859 H 0.23505 0.31158 0.24240
 H860 H 0.21706 0.29044 0.21949
 H861 H 0.29453 0.21932 0.21559
 H862 H 0.31628 0.24130 0.23439
 H863 H 0.19481 0.26260 0.26960
 H864 H 0.21610 0.28533 0.29155
 O865 O 0.74131 0.71523 0.29182
 O866 O 0.70938 0.71206 0.27631
 O867 O 0.78267 0.71013 0.24290
 O868 O 0.78879 0.72576 0.21371
 O869 O 0.79011 0.75860 0.28714
 O870 O 0.77373 0.79029 0.29190
 O871 O 0.72974 0.76555 0.19013
 O872 O 0.74123 0.73290 0.18877
 O873 O 0.68702 0.76836 0.23648
 O874 O 0.68646 0.75849 0.27173
 O875 O 0.73363 0.81232 0.23502
 O876 O 0.76886 0.81370 0.24433
 O877 O 0.74643 0.79358 0.20290
 O878 O 0.78059 0.79810 0.22124
 O879 O 0.70599 0.80005 0.25119
 O880 O 0.70224 0.78173 0.28431
 O881 O 0.69865 0.75275 0.20812
 O882 O 0.71394 0.71838 0.20756
 O883 O 0.75666 0.74384 0.30504
 O884 O 0.74766 0.77927 0.30560
 O885 O 0.80195 0.74338 0.25867
 O886 O 0.80052 0.75482 0.22297
 O887 O 0.75487 0.69740 0.25855
 O888 O 0.71915 0.69856 0.24612
 Zr889 Zr 0.73549 0.72256 0.26119
 O890 O 0.71579 0.74047 0.24330
 Zr891 Zr 0.77640 0.74111 0.23881
 O892 O 0.75829 0.75914 0.21947
 Zr893 Zr 0.75919 0.76370 0.28017
 O894 O 0.74084 0.78327 0.26261
 Zr895 Zr 0.72918 0.74613 0.21528
 O896 O 0.74824 0.72656 0.23238
 Zr897 Zr 0.71243 0.76930 0.25661
 O898 O 0.73012 0.75052 0.27592
 Zr899 Zr 0.75319 0.78725 0.23371
 O900 O 0.77312 0.76994 0.25240
 O901 O 0.76412 0.73544 0.26698
 O902 O 0.72433 0.77478 0.22809
 C903 C 0.74922 0.72575 0.30665
 C904 C 0.77244 0.69551 0.25071
 C905 C 0.80438 0.75084 0.27669
 C906 C 0.73752 0.78343 0.18834
 C907 C 0.68459 0.76113 0.21836
 C908 C 0.71603 0.81439 0.24274
 H909 H 0.70260 0.73325 0.24139
 H910 H 0.73957 0.79634 0.26999
 H911 H 0.77290 0.72669 0.27556
 H912 H 0.76509 0.76067 0.20632
 H913 H 0.74770 0.72004 0.19302
 H914 H 0.78007 0.72894 0.20173
 H915 H 0.71093 0.79370 0.28779
 H916 H 0.73394 0.77353 0.30786
 H917 H 0.70697 0.72008 0.19414
 H918 H 0.72089 0.68589 0.25403
 H919 H 0.76477 0.81618 0.25850
 H920 H 0.78266 0.79533 0.28110
 H921 H 0.70470 0.72349 0.28483
 H922 H 0.68297 0.74486 0.26609
 H923 H 0.80429 0.76754 0.23038
 H924 H 0.78322 0.78990 0.20892
 O925 O 0.75335 0.28306 0.79456
 O926 O 0.78487 0.28689 0.77988
 O927 O 0.71042 0.28815 0.74518
 O928 O 0.70339 0.27262 0.71549
 O929 O 0.70537 0.23876 0.78785
 O930 O 0.72256 0.20738 0.79191
 O931 O 0.76223 0.23449 0.69157
 O932 O 0.75037 0.26702 0.69119
 O933 O 0.80701 0.23223 0.73872
 O934 O 0.80823 0.24106 0.77447
 O935 O 0.76077 0.18681 0.73527
 O936 O 0.72565 0.18502 0.74369
 O937 O 0.74733 0.20560 0.70333
 O938 O 0.71345 0.20047 0.72038
 O939 O 0.78927 0.19966 0.75113
 O940 O 0.79356 0.21685 0.78539
 O941 O 0.79378 0.24692 0.71022
 O942 O 0.77827 0.28141 0.71078
 O943 O 0.73910 0.25399 0.80672
 O944 O 0.74891 0.21877 0.80631
 O945 O 0.69220 0.25424 0.75976
 O946 O 0.69261 0.24328 0.72368
 O947 O 0.73867 0.30102 0.76157
 O948 O 0.77399 0.30063 0.74991
 Zr949 Zr 0.75846 0.27617 0.76389
 O950 O 0.77787 0.25892 0.74573
 Zr951 Zr 0.71701 0.25727 0.74032
 O952 O 0.73479 0.23984 0.72067
 Zr953 Zr 0.73614 0.23440 0.78120
 O954 O 0.75422 0.21540 0.76329
 Zr955 Zr 0.76353 0.25342 0.71736
 O956 O 0.74473 0.27239 0.73479
 Zr957 Zr 0.78218 0.22999 0.75818
 O958 O 0.76484 0.24815 0.77784
 Zr959 Zr 0.74089 0.21163 0.73408
 O960 O 0.72131 0.22832 0.75302
 O961 O 0.73023 0.26273 0.76884
 O962 O 0.76932 0.22473 0.72933
 C963 C 0.74614 0.27223 0.80894
 C964 C 0.72082 0.30282 0.75348
 C965 C 0.69057 0.24641 0.77748
 C966 C 0.75534 0.21625 0.68922
 C967 C 0.80849 0.23912 0.72060
 C968 C 0.77898 0.18514 0.74248
 H969 H 0.79087 0.26640 0.74427
 H970 H 0.75599 0.20225 0.77023
 H971 H 0.72157 0.27123 0.77751
 H972 H 0.72760 0.23835 0.70735
 H973 H 0.74389 0.27970 0.69583
 H974 H 0.71192 0.27000 0.70362
 H975 H 0.78529 0.20456 0.78809
 H976 H 0.76270 0.22460 0.80878
 H977 H 0.78487 0.27990 0.69746
 H978 H 0.77233 0.31316 0.75821
 H979 H 0.73049 0.18221 0.75773
 H980 H 0.71326 0.20234 0.78087
 H981 H 0.78982 0.27555 0.78840
 H982 H 0.81127 0.25487 0.76944
 H983 H 0.68948 0.23032 0.73054
 H984 H 0.71045 0.20874 0.70821
 C985 C 0.09498 1.00375 1.19700
 N986 N 0.10960 0.98976 1.20037
 N987 N 0.11896 0.98850 1.21843
 C988 C 0.11408 1.00108 1.23404
 N989 N 0.09948 1.01526 1.23061
 N990 N 0.09000 1.01647 1.21246
 C991 C 0.08548 1.00514 1.17661
 N992 N 0.06937 1.01739 1.17273
 N993 N 0.06105 1.01825 1.15403
 C994 C 0.06866 1.00702 1.13858
 N995 N 0.08478 0.99489 1.14250
 N996 N 0.09300 0.99395 1.16114
 C997 C 0.05958 1.00749 1.11795
 N998 N 0.06860 0.99745 1.10253
 N999 N 0.06023 0.99714 1.08389
 C1000 C 0.04247 1.00681 1.07996
 N1001 N 0.03346 1.01694 1.09536
 N1002 N 0.04189 1.01732 1.11401
 C1003 C 0.59369 0.49783 0.69454
 N1004 N 0.60838 0.48380 0.69733
 N1005 N 0.61793 0.48202 0.71525
 C1006 C 0.61316 0.49410 0.73127
 N1007 N 0.59848 0.50831 0.72843
 N1008 N 0.58881 0.51004 0.71044
 C1009 C 0.58407 0.50001 0.67428
 N1010 N 0.56779 0.51221 0.67107
 N1011 N 0.55942 0.51395 0.65247
 C1012 C 0.56716 0.50366 0.63645
 N1013 N 0.58345 0.49156 0.63972
 N1014 N 0.59171 0.48974 0.65826
 C1015 C 0.55811 0.50514 0.61587
 N1016 N 0.56736 0.49617 0.59997
 N1017 N 0.55904 0.49671 0.58134
 C1018 C 0.54110 0.50622 0.57788
 N1019 N 0.53185 0.51531 0.59376
 N1020 N 0.54023 0.51483 0.61243
 C1021 C 0.40639 -0.00013 0.69548
 N1022 N 0.41650 -0.00388 0.71332
 N1023 N 0.40685 -0.00302 0.73093
 C1024 C 0.38677 0.00175 0.73133
 N1025 N 0.37676 0.00517 0.71340
 N1026 N 0.38636 0.00437 0.69589
 C1027 C 0.41649 -0.00093 0.67584
 N1028 N 0.40596 0.00422 0.65868
 N1029 N 0.41466 0.00353 0.64066
 C1030 C 0.43423 -0.00241 0.63905
 N1031 N 0.44484 -0.00761 0.65620
 N1032 N 0.43612 -0.00687 0.67430
 C1033 C 0.44353 -0.00298 0.61899
 N1034 N 0.46270 -0.00994 0.61663
 N1035 N 0.47094 -0.01024 0.59830
 C1036 C 0.46031 -0.00358 0.58172
 N1037 N 0.44116 0.00334 0.58412
 N1038 N 0.43293 0.00359 0.60240
 C1039 C -0.09196 0.50605 1.19699
 N1040 N -0.10667 0.52006 1.19935
 N1041 N -0.11667 0.52132 1.21660
 C1042 C -0.11236 0.50872 1.23236
 N1043 N -0.09759 0.49462 1.22998
 N1044 N -0.08749 0.49338 1.21265
 C1045 C -0.08198 0.50435 1.17733
 N1046 N -0.06620 0.49155 1.17448
 N1047 N -0.05768 0.49006 1.15632
 C1048 C -0.06476 0.50119 1.14039
 N1049 N -0.08051 0.51393 1.14330
 N1050 N -0.08892 0.51549 1.16141
 C1051 C -0.05578 0.49969 1.12022
 N1052 N -0.06469 0.50928 1.10419
 N1053 N -0.05664 0.50837 1.08585
 C1054 C -0.03931 0.49788 1.08284
 N1055 N -0.03037 0.48823 1.09886
 N1056 N -0.03850 0.48907 1.11722
 C1057 C -0.09320 0.51196 0.30757
 N1058 N -0.11376 0.51082 0.30656
 N1059 N -0.12361 0.51004 0.28870
 C1060 C -0.11335 0.51020 0.27103
 N1061 N -0.09268 0.51156 0.27200
 N1062 N -0.08278 0.51242 0.28998
 C1063 C -0.08284 0.51207 0.32760
 N1064 N -0.06242 0.51505 0.32976
 N1065 N -0.05344 0.51483 0.34818
 C1066 C -0.06457 0.51153 0.36502
 N1067 N -0.08493 0.50856 0.36279
 N1068 N -0.09388 0.50889 0.34445
 C1069 C -0.05496 0.51076 0.38536
 N1070 N -0.06599 0.50475 0.40146
 N1071 N -0.05743 0.50368 0.41997
 C1072 C -0.03754 0.50872 0.42310
 N1073 N -0.02650 0.51485 0.40702
 N1074 N -0.03505 0.51581 0.38846
 C1075 C 0.40660 1.00502 -0.19259
 N1076 N 0.38637 1.00103 -0.19383
 N1077 N 0.37667 1.00000 -0.21176
 C1078 C 0.38678 1.00273 -0.22931
 N1079 N 0.40708 1.00693 -0.22809
 N1080 N 0.41683 1.00801 -0.21005
 C1081 C 0.41688 1.00587 -0.17252
 N1082 N 0.43692 1.01088 -0.17030
 N1083 N 0.44588 1.01145 -0.15187
 C1084 C 0.43512 1.00700 -0.13506
 N1085 N 0.41514 1.00201 -0.13734
 N1086 N 0.40619 1.00150 -0.15570
 C1087 C 0.44480 1.00712 -0.11470
 N1088 N 0.43412 1.00089 -0.09845
 N1089 N 0.44281 1.00049 -0.07996
 C1090 C 0.46249 1.00641 -0.07701
 N1091 N 0.47317 1.01278 -0.09324
 N1092 N 0.46449 1.01311 -0.11177
 C1093 C 0.59248 0.49215 -0.19481
 N1094 N 0.61306 0.49278 -0.19444
 N1095 N 0.62324 0.49304 -0.21161
 C1096 C 0.61331 0.49289 -0.22997
 N1097 N 0.59261 0.49204 -0.23041
 N1098 N 0.58237 0.49167 -0.21311
 C1099 C 0.58178 0.49233 -0.17547
 N1100 N 0.56138 0.48908 -0.17463
 N1101 N 0.55217 0.48920 -0.15676
 C1102 C 0.56304 0.49268 -0.13919
 N1103 N 0.58337 0.49598 -0.14012
 N1104 N 0.59256 0.49574 -0.15789
 C1105 C 0.55327 0.49303 -0.11935
 N1106 N 0.56412 0.49914 -0.10252
 N1107 N 0.55560 0.49950 -0.08439
 C1108 C 0.53593 0.49362 -0.08235
 N1109 N 0.52504 0.48745 -0.09917
 N1110 N 0.53355 0.48720 -0.11737
 C1111 C 0.09263 -0.00180 0.30779
 N1112 N 0.11316 0.00004 0.30835
 N1113 N 0.12346 0.00100 0.29129
 C1114 C 0.11371 0.00040 0.27284
 N1115 N 0.09306 -0.00153 0.27220
 N1116 N 0.08271 -0.00259 0.28940
 C1117 C 0.08187 -0.00295 0.32706
 N1118 N 0.06160 -0.00703 0.32769
 N1119 N 0.05239 -0.00826 0.34552
 C1120 C 0.06315 -0.00541 0.36327
 N1121 N 0.08335 -0.00129 0.36254
 N1122 N 0.09252 -0.00014 0.34481
 C1123 C 0.05337 -0.00640 0.38308
 N1124 N 0.06420 -0.00131 0.40025
 N1125 N 0.05557 -0.00175 0.41832
 C1126 C 0.03580 -0.00744 0.41995
 N1127 N 0.02495 -0.01268 0.40280
 N1128 N 0.03358 -0.01215 0.38466
 C1129 C 0.19761 1.09375 1.00587
 N1130 N 0.21538 1.08340 1.00712
 N1131 N 0.23319 1.09317 1.00554
 C1132 C 0.23385 1.11362 1.00257
 N1133 N 0.21601 1.12383 1.00158
 N1134 N 0.19831 1.11412 1.00310
 C1135 C 0.17772 1.08349 1.00719
 N1136 N 0.16052 1.09436 1.00411
 N1137 N 0.14230 1.08549 1.00498
 C1138 C 0.14052 1.06539 1.00907
 N1139 N 0.15771 1.05445 1.01226
 N1140 N 0.17601 1.06334 1.01131
 C1141 C 0.12023 1.05582 1.00944
 N1142 N 0.11771 1.03612 1.01497
 N1143 N 0.09921 1.02757 1.01473
 C1144 C 0.08261 1.03839 1.00890
 N1145 N 0.08517 1.05808 1.00345
 N1146 N 0.10361 1.06664 1.00378
 C1147 C 0.69650 0.59260 0.49848
 N1148 N 0.69901 0.60698 0.48411
 N1149 N 0.71667 0.61679 0.48256
 C1150 C 0.73271 0.61262 0.49522
 N1151 N 0.73018 0.59817 0.50967
 N1152 N 0.71245 0.58825 0.51119
 C1153 C 0.67642 0.58286 0.50049
 N1154 N 0.67343 0.56700 0.51323
 N1155 N 0.65497 0.55860 0.51486
 C1156 C 0.63885 0.56589 0.50393
 N1157 N 0.64190 0.58174 0.49128
 N1158 N 0.66031 0.59002 0.48957
 C1159 C 0.61839 0.55680 0.50527
 N1160 N 0.60237 0.56574 0.49567
 N1161 N 0.58388 0.55736 0.49601
 C1162 C 0.58066 0.53966 0.50593
 N1163 N 0.59665 0.53072 0.51566
 N1164 N 0.61519 0.53918 0.51539
 C1165 C 0.69216 0.40656 -0.00465
 N1166 N 0.69238 0.38603 -0.00332
 N1167 N 0.70985 0.37612 -0.00269
 C1168 C 0.72792 0.38630 -0.00318
 N1169 N 0.72774 0.40693 -0.00469
 N1170 N 0.71015 0.41689 -0.00541
 C1171 C 0.67255 0.41698 -0.00500
 N1172 N 0.67115 0.43724 -0.00853
 N1173 N 0.65306 0.44625 -0.00887
 C1174 C 0.63581 0.43529 -0.00559
 N1175 N 0.63729 0.41509 -0.00203
 N1176 N 0.65530 0.40611 -0.00179
 C1177 C 0.61576 0.44485 -0.00575
 N1178 N 0.59921 0.43394 -0.00019
 N1179 N 0.58089 0.44231 -0.00026
 C1180 C 0.57841 0.46190 -0.00602
 N1181 N 0.59495 0.47284 -0.01165
 N1182 N 0.61333 0.46448 -0.01148
 C1183 C 0.19039 -0.09424 0.49946
 N1184 N 0.19119 -0.11429 0.50388
 N1185 N 0.20891 -0.12373 0.50518
 C1186 C 0.22667 -0.11353 0.50233
 N1187 N 0.22588 -0.09342 0.49769
 N1188 N 0.20805 -0.08393 0.49634
 C1189 C 0.17055 -0.08429 0.49807
 N1190 N 0.16878 -0.06453 0.49249
 N1191 N 0.15053 -0.05588 0.49129
 C1192 C 0.13347 -0.06669 0.49564
 N1193 N 0.13530 -0.08640 0.50120
 N1194 N 0.15347 -0.09503 0.50235
 C1195 C 0.11330 -0.05737 0.49475
 N1196 N 0.09675 -0.06809 0.50068
 N1197 N 0.07842 -0.05971 0.50038
 C1198 C 0.07592 -0.04030 0.49406
 N1199 N 0.09245 -0.02958 0.48800
 N1200 N 0.11082 -0.03796 0.48835
 C1201 C 0.30241 -0.09308 0.50525
 N1202 N 0.28479 -0.08286 0.50786
 N1203 N 0.26693 -0.09275 0.50713
 C1204 C 0.26607 -0.11319 0.50369
 N1205 N 0.28379 -0.12327 0.50138
 N1206 N 0.30154 -0.11344 0.50206
 C1207 C 0.32228 -0.08268 0.50564
 N1208 N 0.33917 -0.09340 0.50134
 N1209 N 0.35738 -0.08441 0.50154
 C1210 C 0.35944 -0.06434 0.50611
 N1211 N 0.34256 -0.05354 0.51047
 N1212 N 0.32427 -0.06256 0.51021
 C1213 C 0.37968 -0.05473 0.50616
 N1214 N 0.38257 -0.03507 0.51214
 N1215 N 0.40108 -0.02660 0.51209
 C1216 C 0.41733 -0.03747 0.50601
 N1217 N 0.41441 -0.05710 0.50002
 N1218 N 0.39594 -0.06557 0.50014
 C1219 C -0.19744 0.40807 1.00021
 N1220 N -0.20063 0.39328 0.98600
 N1221 N -0.21818 0.38310 0.98484
 C1222 C -0.23341 0.38729 0.99777
 N1223 N -0.23017 0.40212 1.01211
 N1224 N -0.21255 0.41240 1.01323
 C1225 C -0.17752 0.41833 1.00171
 N1226 N -0.17396 0.43439 1.01450
 N1227 N -0.15558 0.44321 1.01575
 C1228 C -0.14014 0.43616 1.00438
 N1229 N -0.14376 0.42012 0.99166
 N1230 N -0.16209 0.41141 0.99033
 C1231 C -0.11977 0.44549 1.00559
 N1232 N -0.10418 0.43652 0.99594
 N1233 N -0.08566 0.44489 0.99657
 C1234 C -0.08203 0.46260 1.00681
 N1235 N -0.09762 0.47161 1.01650
 N1236 N -0.11616 0.46317 1.01596
 C1237 C -0.19259 0.59377 0.49288
 N1238 N -0.21052 0.58324 0.49244
 N1239 N -0.22820 0.59304 0.49303
 C1240 C -0.22852 0.61372 0.49407
 N1241 N -0.21053 0.62408 0.49424
 N1242 N -0.19297 0.61434 0.49374
 C1243 C -0.17283 0.58354 0.49282
 N1244 N -0.15552 0.59471 0.49574
 N1245 N -0.13742 0.58590 0.49590
 C1246 C -0.13589 0.56554 0.49302
 N1247 N -0.15319 0.55429 0.49002
 N1248 N -0.17138 0.56312 0.48996
 C1249 C -0.11575 0.55607 0.49349
 N1250 N -0.11347 0.53619 0.48841
 N1251 N -0.09512 0.52777 0.48907
 C1252 C -0.07841 0.53891 0.49491
 N1253 N -0.08071 0.55878 0.49997
 N1254 N -0.09902 0.56721 0.49920
 C1255 C 0.30926 1.09436 -0.00320
 N1256 N 0.30879 1.11472 0.00006
 N1257 N 0.29118 1.12428 0.00137
 C1258 C 0.27320 1.11393 -0.00034
 N1259 N 0.27365 1.09351 -0.00383
 N1260 N 0.29136 1.08390 -0.00520
 C1261 C 0.32900 1.08418 -0.00420
 N1262 N 0.33035 1.06404 -0.00869
 N1263 N 0.34846 1.05513 -0.00932
 C1264 C 0.36583 1.06603 -0.00543
 N1265 N 0.36443 1.08613 -0.00096
 N1266 N 0.34638 1.09502 -0.00040
 C1267 C 0.38589 1.05637 -0.00557
 N1268 N 0.40277 1.06710 0.00048
 N1269 N 0.42096 1.05842 0.00089
 C1270 C 0.42300 1.03870 -0.00486
 N1271 N 0.40614 1.02797 -0.01104
 N1272 N 0.38790 1.03665 -0.01137
 C1273 C 0.00353 1.19501 1.09247
 N1274 N -0.00779 1.19697 1.10928
 N1275 N -0.00865 1.21467 1.11909
 C1276 C 0.00157 1.23130 1.11242
 N1277 N 0.01309 1.22928 1.09562
 N1278 N 0.01393 1.21150 1.08574
 C1279 C 0.00493 1.17500 1.08253
 N1280 N 0.01565 1.17230 1.06534
 N1281 N 0.01698 1.15387 1.05684
 C1282 C 0.00772 1.13752 1.06530
 N1283 N -0.00295 1.14029 1.08246
 N1284 N -0.00432 1.15866 1.09090
 C1285 C 0.00887 1.11713 1.05616
 N1286 N 0.00030 1.10101 1.06559
 N1287 N 0.00067 1.08251 1.05726
 C1288 C 0.00962 1.07940 1.03916
 N1289 N 0.01832 1.09550 1.02973
 N1290 N 0.01798 1.11404 1.03811
 C1291 C 0.49900 0.69499 0.59081
 N1292 N 0.51199 0.71065 0.58703
 N1293 N 0.51069 0.72822 0.59723
 C1294 C 0.49620 0.73087 0.61143
 N1295 N 0.48327 0.71512 0.61504
 N1296 N 0.48460 0.69762 0.60493
 C1297 C 0.50082 0.67507 0.58075
 N1298 N 0.48947 0.65914 0.58719
 N1299 N 0.49117 0.64082 0.57873
 C1300 C 0.50422 0.63769 0.56341
 N1301 N 0.51555 0.65364 0.55682
 N1302 N 0.51393 0.67201 0.56541
 C1303 C 0.50575 0.61730 0.55428
 N1304 N 0.51626 0.61409 0.53705
 N1305 N 0.51688 0.59556 0.52865
 C1306 C 0.50715 0.57959 0.53728
 N1307 N 0.49682 0.58283 0.55459
 N1308 N 0.49611 0.60132 0.56289
 C1309 C -0.00628 0.69233 0.40686
 N1310 N -0.00599 0.69231 0.38629
 N1311 N -0.00499 0.70966 0.37616
 C1312 C -0.00403 0.72785 0.38613
 N1313 N -0.00456 0.72790 0.40680
 N1314 N -0.00565 0.71045 0.41699
 C1315 C -0.00674 0.67282 0.41757
 N1316 N -0.00898 0.67183 0.43802
 N1317 N -0.00913 0.65388 0.44734
 C1318 C -0.00694 0.63635 0.43654
 N1319 N -0.00470 0.63741 0.41615
 N1320 N -0.00465 0.65528 0.40685
 C1321 C -0.00657 0.61645 0.44651
 N1322 N -0.00139 0.59964 0.43578
 N1323 N -0.00071 0.58152 0.44460
 C1324 C -0.00533 0.57947 0.46446
 N1325 N -0.01063 0.59626 0.47521
 N1326 N -0.01120 0.61445 0.46641
 C1327 C 0.49755 1.19098 -0.09386
 N1328 N 0.49677 1.20893 -0.08353
 N1329 N 0.49820 1.22656 -0.09334
 C1330 C 0.50048 1.22690 -0.11384
 N1331 N 0.50101 1.20886 -0.12405
 N1332 N 0.49965 1.19131 -0.11429
 C1333 C 0.49660 1.17134 -0.08342
 N1334 N 0.49950 1.15390 -0.09408
 N1335 N 0.49904 1.13595 -0.08492
 C1336 C 0.49556 1.13472 -0.06473
 N1337 N 0.49255 1.15215 -0.05401
 N1338 N 0.49310 1.17016 -0.06319
 C1339 C 0.49551 1.11478 -0.05481
 N1340 N 0.49035 1.11282 -0.03506
 N1341 N 0.49066 1.09466 -0.02619
 C1342 C 0.49622 1.07784 -0.03675
 N1343 N 0.50135 1.07983 -0.05649
 N1344 N 0.50095 1.09794 -0.06536
 C1345 C 0.50713 0.30286 -0.09419
 N1346 N 0.50725 0.30179 -0.11474
 N1347 N 0.50617 0.28393 -0.12431
 C1348 C 0.50482 0.26629 -0.11378
 N1349 N 0.50497 0.26734 -0.09311
 N1350 N 0.50612 0.28530 -0.08348
 C1351 C 0.50724 0.32290 -0.08416
 N1352 N 0.50891 0.32495 -0.06362
 N1353 N 0.50856 0.34336 -0.05491
 C1354 C 0.50639 0.36029 -0.06645
 N1355 N 0.50473 0.35817 -0.08694
 N1356 N 0.50520 0.33985 -0.09562
 C1357 C 0.50557 0.38063 -0.05714
 N1358 N 0.50040 0.39688 -0.06867
 N1359 N 0.49952 0.41541 -0.06042
 C1360 C 0.50391 0.41839 -0.04035
 N1361 N 0.50915 0.40215 -0.02881
 N1362 N 0.50990 0.38358 -0.03703
 C1363 C 0.00314 -0.19601 0.40415
 N1364 N 0.00562 -0.21349 0.41475
 N1365 N 0.00388 -0.23155 0.40537
 C1366 C -0.00048 -0.23278 0.38506
 N1367 N -0.00267 -0.21519 0.37457
 N1368 N -0.00097 -0.19723 0.38390
 C1369 C 0.00439 -0.17594 0.41413
 N1370 N 0.00026 -0.15903 0.40318
 N1371 N 0.00086 -0.14072 0.41196
 C1372 C 0.00569 -0.13860 0.43203
 N1373 N 0.00994 -0.15550 0.44303
 N1374 N 0.00928 -0.17387 0.43423
 C1375 C 0.00573 -0.11833 0.44160
 N1376 N 0.01164 -0.11561 0.46137
 N1377 N 0.01112 -0.09721 0.47001
 C1378 C 0.00462 -0.08090 0.45922
 N1379 N -0.00122 -0.08363 0.43944
 N1380 N -0.00063 -0.10199 0.43079
 C1381 C 0.49389 -0.19438 0.59293
 N1382 N 0.49524 -0.19489 0.61348
 N1383 N 0.49583 -0.21250 0.62316
 C1384 C 0.49528 -0.23043 0.61274
 N1385 N 0.49374 -0.22998 0.59207
 N1386 N 0.49306 -0.21224 0.58233
 C1387 C 0.49360 -0.17458 0.58280
 N1388 N 0.48990 -0.17290 0.56247
 N1389 N 0.48958 -0.15464 0.55378
 C1390 C 0.49305 -0.13749 0.56510
 N1391 N 0.49681 -0.13925 0.58535
 N1392 N 0.49702 -0.15742 0.59403
 C1393 C 0.49291 -0.11725 0.55586
 N1394 N 0.49886 -0.10072 0.56710
 N1395 N 0.49887 -0.08226 0.55897
 C1396 C 0.49280 -0.07961 0.53933
 N1397 N 0.48677 -0.09613 0.52807
 N1398 N 0.48686 -0.11465 0.53618
 C1399 C 0.00089 0.30629 1.09384
 N1400 N 0.00620 0.30552 1.11384
 N1401 N 0.00694 0.28785 1.12343
 C1402 C 0.00262 0.27012 1.11341
 N1403 N -0.00280 0.27085 1.09333
 N1404 N -0.00360 0.28863 1.08370
 C1405 C -0.00023 0.32613 1.08385
 N1406 N -0.00717 0.32798 1.06433
 N1407 N -0.00842 0.34627 1.05579
 C1408 C -0.00277 0.36329 1.06646
 N1409 N 0.00420 0.36137 1.08591
 N1410 N 0.00540 0.34315 1.09444
 C1411 C -0.00399 0.38356 1.05737
 N1412 N 0.00288 0.40010 1.06807
 N1413 N 0.00209 0.41856 1.05999
 C1414 C -0.00570 0.42120 1.04092
 N1415 N -0.01267 0.40467 1.03021
 N1416 N -0.01183 0.38616 1.03829
 C1417 C 0.75182 0.34276 0.05352
 N1418 N 0.73733 0.35691 0.05026
 N1419 N 0.73558 0.36615 0.03244
 C1420 C 0.74817 0.36161 0.01700
 N1421 N 0.76277 0.34743 0.02031
 N1422 N 0.76448 0.33807 0.03820
 C1423 C 0.75394 0.33356 0.07370
 N1424 N 0.76683 0.31792 0.07734
 N1425 N 0.76852 0.30995 0.09590
 C1426 C 0.75752 0.31746 0.11144
 N1427 N 0.74474 0.33311 0.10775
 N1428 N 0.74296 0.34097 0.08925
 C1429 C 0.75896 0.30882 0.13192
 N1430 N 0.74938 0.31799 0.14750
 N1431 N 0.74994 0.31001 0.16602
 C1432 C 0.76006 0.29251 0.16966
 N1433 N 0.76975 0.28335 0.15410
 N1434 N 0.76927 0.29140 0.13555
 C1435 C 0.24946 0.84281 0.55875
 N1436 N 0.24416 0.86264 0.55798
 N1437 N 0.24292 0.87222 0.54031
 C1438 C 0.24668 0.86236 0.52258
 N1439 N 0.25222 0.84250 0.52337
 N1440 N 0.25350 0.83287 0.54114
 C1441 C 0.25089 0.83272 0.57854
 N1442 N 0.25707 0.81315 0.58026
 N1443 N 0.25833 0.80437 0.59845
 C1444 C 0.25346 0.81487 0.61551
 N1445 N 0.24731 0.83439 0.61373
 N1446 N 0.24608 0.84315 0.59561
 C1447 C 0.25442 0.80542 0.63563
 N1448 N 0.24831 0.81596 0.65218
 N1449 N 0.24864 0.80747 0.67047
 C1450 C 0.25519 0.78814 0.67294
 N1451 N 0.26143 0.77760 0.65641
 N1452 N 0.26105 0.78609 0.63806
 C1453 C 0.75025 0.65804 0.55094
 N1454 N 0.76479 0.64409 0.54753
 N1455 N 0.76570 0.63461 0.52966
 C1456 C 0.75218 0.63870 0.51431
 N1457 N 0.73756 0.65273 0.51774
 N1458 N 0.73668 0.66231 0.53569
 C1459 C 0.74893 0.66739 0.57124
 N1460 N 0.73575 0.68264 0.57505
 N1461 N 0.73462 0.69061 0.59372
 C1462 C 0.74651 0.68349 0.60923
 N1463 N 0.75962 0.66824 0.60537
 N1464 N 0.76083 0.66039 0.58674
 C1465 C 0.74544 0.69198 0.62991
 N1466 N 0.75563 0.68296 0.64554
 N1467 N 0.75514 0.69068 0.66429
 C1468 C 0.74449 0.70778 0.66814
 N1469 N 0.73423 0.71680 0.65253
 N1470 N 0.73463 0.70900 0.63375
 C1471 C 0.25431 0.15820 0.05713
 N1472 N 0.26039 0.13862 0.05599
 N1473 N 0.26056 0.12888 0.03822
 C1474 C 0.25491 0.13834 0.02073
 N1475 N 0.24868 0.15798 0.02185
 N1476 N 0.24847 0.16776 0.03973
 C1477 C 0.25365 0.16832 0.07711
 N1478 N 0.24646 0.18749 0.07924
 N1479 N 0.24558 0.19615 0.09763
 C1480 C 0.25183 0.18592 0.11449
 N1481 N 0.25903 0.16681 0.11230
 N1482 N 0.25989 0.15818 0.09398
 C1483 C 0.25097 0.19518 0.13487
 N1484 N 0.25786 0.18479 0.15135
 N1485 N 0.25739 0.19305 0.16988
 C1486 C 0.24995 0.21200 0.17266
 N1487 N 0.24297 0.22240 0.15619
 N1488 N 0.24346 0.21413 0.13762
 C1489 C 0.25269 0.15808 0.94560
 N1490 N 0.24378 0.13950 0.94706
 N1491 N 0.24369 0.12983 0.96470
 C1492 C 0.25224 0.13841 0.98179
 N1493 N 0.26143 0.15697 0.98028
 N1494 N 0.26154 0.16668 0.96253
 C1495 C 0.25304 0.16812 0.92572
 N1496 N 0.26212 0.18658 0.92335
 N1497 N 0.26251 0.19521 0.90507
 C1498 C 0.25387 0.18565 0.88854
 N1499 N 0.24481 0.16724 0.89097
 N1500 N 0.24441 0.15865 0.90919
 C1501 C 0.25415 0.19488 0.86827
 N1502 N 0.24568 0.18479 0.85201
 N1503 N 0.24562 0.19303 0.83359
 C1504 C 0.25405 0.21168 0.83071
 N1505 N 0.26258 0.22178 0.84696
 N1506 N 0.26266 0.21352 0.86541
 C1507 C 0.75161 0.65935 0.44006
 N1508 N 0.75041 0.63878 0.44000
 N1509 N 0.75051 0.62858 0.45733
 C1510 C 0.75163 0.63848 0.47555
 N1511 N 0.75298 0.65916 0.47566
 N1512 N 0.75297 0.66941 0.45821
 C1513 C 0.75131 0.67008 0.42055
 N1514 N 0.75476 0.69044 0.41944
 N1515 N 0.75460 0.69969 0.40145
 C1516 C 0.75090 0.68890 0.38399
 N1517 N 0.74741 0.66859 0.38518
 N1518 N 0.74767 0.65937 0.40309
 C1519 C 0.75057 0.69873 0.36401
 N1520 N 0.74471 0.68790 0.34715
 N1521 N 0.74433 0.69653 0.32892
 C1522 C 0.74993 0.71630 0.32681
 N1523 N 0.75586 0.72716 0.34366
 N1524 N 0.75615 0.71854 0.36194
 C1525 C 0.24462 0.84206 0.44707
 N1526 N 0.24085 0.83205 0.46460
 N1527 N 0.24150 0.84196 0.48242
 C1528 C 0.24605 0.86219 0.48334
 N1529 N 0.24948 0.87210 0.46569
 N1530 N 0.24889 0.86224 0.44798
 C1531 C 0.24421 0.83163 0.42725
 N1532 N 0.24956 0.84205 0.41047
 N1533 N 0.24926 0.83303 0.39229
 C1534 C 0.24354 0.81325 0.39018
 N1535 N 0.23815 0.80275 0.40696
 N1536 N 0.23850 0.81179 0.42521
 C1537 C 0.24332 0.80363 0.36996
 N1538 N 0.23630 0.78431 0.36700
 N1539 N 0.23615 0.77585 0.34850
 C1540 C 0.24307 0.78640 0.33235
 N1541 N 0.25009 0.80569 0.33536
 N1542 N 0.25017 0.81415 0.35381
 C1543 C 0.74531 0.33963 0.94277
 N1544 N 0.74526 0.32984 0.96090
 N1545 N 0.74589 0.34039 0.97837
 C1546 C 0.74661 0.36109 0.97827
 N1547 N 0.74639 0.37070 0.96007
 N1548 N 0.74584 0.36021 0.94274
 C1549 C 0.74518 0.32864 0.92326
 N1550 N 0.74775 0.33924 0.90590
 N1551 N 0.74778 0.32981 0.88796
 C1552 C 0.74514 0.30937 0.88663
 N1553 N 0.74250 0.29865 0.90397
 N1554 N 0.74257 0.30813 0.92201
 C1555 C 0.74532 0.29937 0.86660
 N1556 N 0.74044 0.27935 0.86418
 N1557 N 0.74059 0.27064 0.84579
 C1558 C 0.74569 0.28163 0.82923
 N1559 N 0.75060 0.30159 0.83172
 N1560 N 0.75036 0.31030 0.85004
 C1561 C 0.84398 0.45175 0.24720
 N1562 N 0.83903 0.46674 0.23392
 N1563 N 0.84806 0.48501 0.23547
 C1564 C 0.86215 0.48904 0.25053
 N1565 N 0.86692 0.47394 0.26374
 N1566 N 0.85801 0.45575 0.26215
 C1567 C 0.83515 0.43118 0.24532
 N1568 N 0.84322 0.41593 0.25658
 N1569 N 0.83555 0.39716 0.25522
 C1570 C 0.81943 0.39290 0.24260
 N1571 N 0.81130 0.40813 0.23127
 N1572 N 0.81909 0.42694 0.23254
 C1573 C 0.81075 0.37221 0.24183
 N1574 N 0.79280 0.36816 0.23190
 N1575 N 0.78462 0.34952 0.23216
 C1576 C 0.79415 0.33425 0.24228
 N1577 N 0.81219 0.33829 0.25201
 N1578 N 0.82031 0.35692 0.25183
 C1579 C 0.34361 0.94506 0.74805
 N1580 N 0.33319 0.96239 0.74413
 N1581 N 0.34261 0.98048 0.74514
 C1582 C 0.36276 0.98189 0.75024
 N1583 N 0.37308 0.96445 0.75388
 N1584 N 0.36370 0.94646 0.75291
 C1585 C 0.33368 0.92495 0.74714
 N1586 N 0.34452 0.90822 0.75219
 N1587 N 0.33589 0.88983 0.75153
 C1588 C 0.31608 0.88743 0.74572
 N1589 N 0.30518 0.90415 0.74060
 N1590 N 0.31383 0.92260 0.74131
 C1591 C 0.30673 0.86705 0.74540
 N1592 N 0.28716 0.86408 0.73887
 N1593 N 0.27873 0.84556 0.73904
 C1594 C 0.28954 0.82935 0.74577
 N1595 N 0.30911 0.83234 0.75223
 N1596 N 0.31755 0.85083 0.75200
 C1597 C 0.15759 0.94459 0.25627
 N1598 N 0.16844 0.96232 0.25750
 N1599 N 0.15899 0.98019 0.25676
 C1600 C 0.13836 0.98091 0.25477
 N1601 N 0.12768 0.96312 0.25380
 N1602 N 0.13707 0.94538 0.25445
 C1603 C 0.16739 0.92464 0.25660
 N1604 N 0.15590 0.90766 0.25297
 N1605 N 0.16427 0.88935 0.25318
 C1606 C 0.18445 0.88728 0.25713
 N1607 N 0.19602 0.90425 0.26082
 N1608 N 0.18764 0.92264 0.26051
 C1609 C 0.19337 0.86692 0.25723
 N1610 N 0.21303 0.86408 0.26322
 N1611 N 0.22090 0.84549 0.26323
 C1612 C 0.20944 0.82910 0.25720
 N1613 N 0.18980 0.83197 0.25120
 N1614 N 0.18191 0.85052 0.25129
 C1615 C 0.65757 0.43758 0.75249
 N1616 N 0.66818 0.45542 0.75413
 N1617 N 0.65851 0.47318 0.75357
 C1618 C 0.63789 0.47368 0.75135
 N1619 N 0.62743 0.45577 0.74996
 N1620 N 0.63705 0.43813 0.75042
 C1621 C 0.66769 0.41778 0.75276
 N1622 N 0.65661 0.40063 0.74871
 N1623 N 0.66531 0.38248 0.74895
 C1624 C 0.68546 0.38074 0.75335
 N1625 N 0.69663 0.39789 0.75744
 N1626 N 0.68790 0.41612 0.75711
 C1627 C 0.69479 0.36056 0.75356
 N1628 N 0.71437 0.35808 0.75998
 N1629 N 0.72263 0.33966 0.76012
 C1630 C 0.71162 0.32307 0.75378
 N1631 N 0.69206 0.32557 0.74734
 N1632 N 0.68379 0.34396 0.74730
 C1633 C 0.66013 0.54839 0.74975
 N1634 N 0.66400 0.53312 0.73638
 N1635 N 0.65376 0.51550 0.73710
 C1636 C 0.63941 0.51241 0.75136
 N1637 N 0.63571 0.52778 0.76468
 N1638 N 0.64586 0.54532 0.76393
 C1639 C 0.67018 0.56841 0.74857
 N1640 N 0.66379 0.58388 0.76051
 N1641 N 0.67217 0.60232 0.75936
 C1642 C 0.68733 0.60603 0.74626
 N1643 N 0.69387 0.59054 0.73434
 N1644 N 0.68539 0.57205 0.73543
 C1645 C 0.69621 0.62658 0.74514
 N1646 N 0.71300 0.63040 0.73412
 N1647 N 0.72103 0.64911 0.73360
 C1648 C 0.71248 0.66466 0.74397
 N1649 N 0.69565 0.66082 0.75487
 N1650 N 0.68770 0.64215 0.75547
 C1651 C 0.16128 0.05540 0.25281
 N1652 N 0.14652 0.05270 0.26656
 N1653 N 0.13614 0.03529 0.26723
 C1654 C 0.14009 0.01969 0.25428
 N1655 N 0.15488 0.02242 0.24041
 N1656 N 0.16536 0.03992 0.23976
 C1657 C 0.17177 0.07522 0.25183
 N1658 N 0.18749 0.07846 0.23918
 N1659 N 0.19646 0.09674 0.23835
 C1660 C 0.18994 0.11241 0.25004
 N1661 N 0.17426 0.10910 0.26264
 N1662 N 0.16538 0.09087 0.26353
 C1663 C 0.19940 0.13274 0.24924
 N1664 N 0.19106 0.14849 0.25943
 N1665 N 0.19949 0.16697 0.25905
 C1666 C 0.21665 0.17042 0.24853
 N1667 N 0.22504 0.15467 0.23831
 N1668 N 0.21653 0.13616 0.23861
 C1669 C 0.34158 0.05686 0.75188
 N1670 N 0.36160 0.05658 0.74756
 N1671 N 0.37161 0.03917 0.74707
 C1672 C 0.36202 0.02119 0.75062
 N1673 N 0.34196 0.02146 0.75521
 N1674 N 0.33190 0.03898 0.75577
 C1675 C 0.33101 0.07640 0.75236
 N1676 N 0.31142 0.07784 0.75827
 N1677 N 0.30230 0.09587 0.75878
 C1678 C 0.31245 0.11303 0.75335
 N1679 N 0.33197 0.11151 0.74741
 N1680 N 0.34107 0.09357 0.74696
 C1681 C 0.30276 0.13303 0.75376
 N1682 N 0.31293 0.14959 0.74694
 N1683 N 0.30443 0.16785 0.74719
 C1684 C 0.28544 0.17029 0.75435
 N1685 N 0.27524 0.15374 0.76123
 N1686 N 0.28374 0.13542 0.76093
 C1687 C 0.83969 0.56278 0.25114
 N1688 N 0.86025 0.56333 0.25049
 N1689 N 0.87082 0.54626 0.25047
 C1690 C 0.86133 0.52782 0.25088
 N1691 N 0.84066 0.52720 0.25170
 N1692 N 0.83003 0.54441 0.25183
 C1693 C 0.82861 0.58205 0.25093
 N1694 N 0.80835 0.58293 0.25439
 N1695 N 0.79888 0.60079 0.25440
 C1696 C 0.80933 0.61831 0.25085
 N1697 N 0.82951 0.61733 0.24732
 N1698 N 0.83896 0.59958 0.24742
 C1699 C 0.79935 0.63818 0.25077
 N1700 N 0.80986 0.65493 0.24494
 N1701 N 0.80122 0.67313 0.24491
 C1702 C 0.78176 0.67531 0.25084
 N1703 N 0.77120 0.65857 0.25673
 N1704 N 0.77983 0.64030 0.25666
 C1705 C 0.94734 0.25539 0.15728
 N1706 N 0.94746 0.25172 0.13701
 N1707 N 0.96489 0.25001 0.12742
 C1708 C 0.98303 0.25164 0.13768
 N1709 N 0.98294 0.25551 0.15804
 N1710 N 0.96540 0.25730 0.16769
 C1711 C 0.92775 0.25720 0.16733
 N1712 N 0.92657 0.26235 0.18732
 N1713 N 0.90850 0.26388 0.19598
 C1714 C 0.89104 0.26030 0.18495
 N1715 N 0.89230 0.25518 0.16503
 N1716 N 0.91028 0.25372 0.15639
 C1717 C 0.87101 0.26135 0.19425
 N1718 N 0.85412 0.25554 0.18333
 N1719 N 0.83589 0.25578 0.19166
 C1720 C 0.83383 0.26199 0.21121
 N1721 N 0.85070 0.26799 0.22213
 N1722 N 0.86898 0.26766 0.21381
 C1723 C 0.44143 0.75210 0.65764
 N1724 N 0.44122 0.75005 0.63714
 N1725 N 0.45848 0.74916 0.62714
 C1726 C 0.47676 0.75005 0.63721
 N1727 N 0.47703 0.75219 0.65782
 N1728 N 0.45965 0.75318 0.66786
 C1729 C 0.42201 0.75323 0.66813
 N1730 N 0.42117 0.75743 0.68835
 N1731 N 0.40326 0.75861 0.69739
 C1732 C 0.38562 0.75559 0.68650
 N1733 N 0.38654 0.75137 0.66634
 N1734 N 0.40436 0.75028 0.65733
 C1735 C 0.36574 0.75643 0.69615
 N1736 N 0.34867 0.75104 0.68531
 N1737 N 0.33056 0.75124 0.69389
 C1738 C 0.32880 0.75701 0.71361
 N1739 N 0.34586 0.76257 0.72446
 N1740 N 0.36402 0.76227 0.71589
 C1741 C 0.44606 0.24765 0.84131
 N1742 N 0.44943 0.25951 0.85801
 N1743 N 0.46736 0.25955 0.86775
 C1744 C 0.48285 0.24789 0.86115
 N1745 N 0.47941 0.23584 0.84445
 N1746 N 0.46139 0.23582 0.83463
 C1747 C 0.42578 0.24724 0.83144
 N1748 N 0.42176 0.23608 0.81431
 N1749 N 0.40309 0.23565 0.80588
 C1750 C 0.38779 0.24628 0.81436
 N1751 N 0.39186 0.25741 0.83145
 N1752 N 0.41049 0.25789 0.83981
 C1753 C 0.36712 0.24586 0.80538
 N1754 N 0.35180 0.25537 0.81498
 N1755 N 0.33303 0.25526 0.80692
 C1756 C 0.32888 0.24568 0.78892
 N1757 N 0.34419 0.23614 0.77931
 N1758 N 0.36297 0.23619 0.78741
 C1759 C 0.94064 0.74834 0.34154
 N1760 N 0.94209 0.75191 0.36184
 N1761 N 0.96003 0.75157 0.37157
 C1762 C 0.97734 0.74780 0.36142
 N1763 N 0.97591 0.74411 0.34104
 N1764 N 0.95786 0.74439 0.33128
 C1765 C 0.92057 0.74873 0.33124
 N1766 N 0.91809 0.74364 0.31127
 N1767 N 0.89966 0.74388 0.30232
 C1768 C 0.88311 0.74926 0.31302
 N1769 N 0.88566 0.75438 0.33294
 N1770 N 0.90402 0.75409 0.34188
 C1771 C 0.86272 0.74958 0.30342
 N1772 N 0.84666 0.75626 0.31410
 N1773 N 0.82809 0.75663 0.30558
 C1774 C 0.82486 0.75026 0.28608
 N1775 N 0.84091 0.74353 0.27539
 N1776 N 0.85952 0.74322 0.28390
 C1777 C 0.05172 0.74642 0.34016
 N1778 N 0.03604 0.75840 0.33409
 N1779 N 0.01857 0.75814 0.34400
 C1780 C 0.01604 0.74570 0.36021
 N1781 N 0.03183 0.73379 0.36615
 N1782 N 0.04923 0.73407 0.35630
 C1783 C 0.07155 0.74736 0.33038
 N1784 N 0.08740 0.73678 0.33835
 N1785 N 0.10568 0.73793 0.33020
 C1786 C 0.10883 0.74968 0.31372
 N1787 N 0.09297 0.76022 0.30562
 N1788 N 0.07464 0.75913 0.31384
 C1789 C 0.12917 0.75089 0.30503
 N1790 N 0.13240 0.76099 0.28747
 N1791 N 0.15089 0.76170 0.27962
 C1792 C 0.16682 0.75243 0.28911
 N1793 N 0.16358 0.74244 0.30672
 N1794 N 0.14510 0.74167 0.31451
 C1795 C 0.55710 0.24437 0.84162
 N1796 N 0.53942 0.24910 0.83172
 N1797 N 0.52194 0.24942 0.84162
 C1798 C 0.52154 0.24496 0.86177
 N1799 N 0.53931 0.24038 0.87157
 N1800 N 0.55668 0.23999 0.86170
 C1801 C 0.57664 0.24435 0.83126
 N1802 N 0.59372 0.23858 0.84155
 N1803 N 0.61167 0.23888 0.83266
 C1804 C 0.61326 0.24505 0.81314
 N1805 N 0.59617 0.25082 0.80277
 N1806 N 0.57816 0.25046 0.81167
 C1807 C 0.63325 0.24551 0.80367
 N1808 N 0.63553 0.25268 0.78455
 N1809 N 0.65380 0.25308 0.77621
 C1810 C 0.67043 0.24632 0.78667
 N1811 N 0.66812 0.23916 0.80576
 N1812 N 0.64989 0.23880 0.81411
 C1813 C 0.55197 0.74726 0.65803
 N1814 N 0.53662 0.73402 0.66211
 N1815 N 0.51874 0.73516 0.65213
 C1816 C 0.51547 0.74974 0.63788
 N1817 N 0.53094 0.76290 0.63395
 N1818 N 0.54875 0.76172 0.64382
 C1819 C 0.57219 0.74571 0.66787
 N1820 N 0.58774 0.75734 0.66111
 N1821 N 0.60631 0.75594 0.66940
 C1822 C 0.61007 0.74289 0.68484
 N1823 N 0.59451 0.73127 0.69174
 N1824 N 0.57589 0.73259 0.68334
 C1825 C 0.63072 0.74160 0.69374
 N1826 N 0.63457 0.73082 0.71089
 N1827 N 0.65333 0.73025 0.71903
 C1828 C 0.66892 0.74033 0.71022
 N1829 N 0.66506 0.75097 0.69300
 N1830 N 0.64632 0.75161 0.68494
 C1831 C 0.05891 0.24714 0.15761
 N1832 N 0.04137 0.24342 0.16751
 N1833 N 0.02340 0.24457 0.15770
 C1834 C 0.02233 0.24961 0.13768
 N1835 N 0.03997 0.25301 0.12788
 N1836 N 0.05784 0.25190 0.13763
 C1837 C 0.07892 0.24624 0.16796
 N1838 N 0.09584 0.25119 0.15761
 N1839 N 0.11415 0.25063 0.16661
 C1840 C 0.11629 0.24505 0.18633
 N1841 N 0.09939 0.24003 0.19676
 N1842 N 0.08100 0.24063 0.18773
 C1843 C 0.13664 0.24479 0.19604
 N1844 N 0.13948 0.23832 0.21544
 N1845 N 0.15805 0.23840 0.22408
 C1846 C 0.17440 0.24499 0.21364
 N1847 N 0.17151 0.25142 0.19425
 N1848 N 0.15300 0.25129 0.18561
 C1849 C -0.09084 0.99659 0.80363
 N1850 N -0.08111 0.99213 0.78617
 N1851 N -0.09116 0.99221 0.76828
 C1852 C -0.11128 0.99683 0.76722
 N1853 N -0.12090 1.00111 0.78476
 N1854 N -0.11088 1.00110 0.80255
 C1855 C -0.08032 0.99633 0.82359
 N1856 N -0.09045 1.00200 0.84039
 N1857 N -0.08142 1.00159 0.85869
 C1858 C -0.06190 0.99541 0.86094
 N1859 N -0.05168 0.98972 0.84414
 N1860 N -0.06073 0.99019 0.82576
 C1861 C -0.05227 0.99502 0.88132
 N1862 N -0.03315 0.98785 0.88432
 N1863 N -0.02464 0.98766 0.90294
 C1864 C -0.03494 0.99465 0.91919
 N1865 N -0.05404 1.00179 0.91614
 N1866 N -0.06254 1.00193 0.89758
 C1867 C 0.41048 0.50172 0.30049
 N1868 N 0.41439 0.48837 0.28522
 N1869 N 0.40413 0.48927 0.26748
 C1870 C 0.38973 0.50370 0.26426
 N1871 N 0.38602 0.51702 0.27961
 N1872 N 0.39619 0.51609 0.29728
 C1873 C 0.42054 0.50029 0.32062
 N1874 N 0.41400 0.51201 0.33617
 N1875 N 0.42242 0.51061 0.35469
 C1876 C 0.43779 0.49747 0.35840
 N1877 N 0.44446 0.48577 0.34284
 N1878 N 0.43593 0.48709 0.32428
 C1879 C 0.44680 0.49616 0.37901
 N1880 N 0.46389 0.48528 0.38281
 N1881 N 0.47211 0.48466 0.40154
 C1882 C 0.46345 0.49480 0.41715
 N1883 N 0.44631 0.50553 0.41333
 N1884 N 0.43817 0.50623 0.39463
 C1885 C 0.59239 0.00783 0.31147
 N1886 N 0.58212 0.00862 0.29330
 N1887 N 0.59212 0.00797 0.27589
 C1888 C 0.61275 0.00648 0.27605
 N1889 N 0.62288 0.00593 0.29429
 N1890 N 0.61293 0.00650 0.31160
 C1891 C 0.58186 0.00820 0.33090
 N1892 N 0.59265 0.00530 0.34846
 N1893 N 0.58352 0.00546 0.36627
 C1894 C 0.56324 0.00865 0.36724
 N1895 N 0.55237 0.01164 0.34969
 N1896 N 0.56153 0.01139 0.33180
 C1897 C 0.55344 0.00847 0.38706
 N1898 N 0.53359 0.01346 0.38888
 N1899 N 0.52490 0.01299 0.40699
 C1900 C 0.53575 0.00745 0.42386
 N1901 N 0.55558 0.00250 0.42199
 N1902 N 0.56427 0.00307 0.40395
 C1903 C 0.09144 0.50159 0.81189
 N1904 N 0.08123 0.50273 0.79371
 N1905 N 0.09122 0.50167 0.77630
 C1906 C 0.11178 0.49939 0.77650
 N1907 N 0.12183 0.49842 0.79475
 N1908 N 0.11188 0.49939 0.81204
 C1909 C 0.08102 0.50282 0.83135
 N1910 N 0.09182 0.50000 0.84891
 N1911 N 0.08290 0.50117 0.86679
 C1912 C 0.06281 0.50531 0.86784
 N1913 N 0.05191 0.50819 0.85028
 N1914 N 0.06086 0.50695 0.83232
 C1915 C 0.05327 0.50624 0.88777
 N1916 N 0.03356 0.51176 0.88964
 N1917 N 0.02509 0.51214 0.90785
 C1918 C 0.03602 0.50700 0.92481
 N1919 N 0.05572 0.50157 0.92290
 N1920 N 0.06419 0.50126 0.90474
 C1921 C 0.09080 0.49755 0.70126
 N1922 N 0.08629 0.48418 0.71618
 N1923 N 0.09636 0.48496 0.73407
 C1924 C 0.11114 0.49928 0.73777
 N1925 N 0.11551 0.51254 0.72271
 N1926 N 0.10555 0.51173 0.70491
 C1927 C 0.08077 0.49657 0.68107
 N1928 N 0.08786 0.50846 0.66600
 N1929 N 0.07934 0.50772 0.64747
 C1930 C 0.06331 0.49511 0.64326
 N1931 N 0.05610 0.48320 0.65833
 N1932 N 0.06473 0.48386 0.67692
 C1933 C 0.05418 0.49462 0.62266
 N1934 N 0.03658 0.48426 0.61841
 N1935 N 0.02832 0.48437 0.59967
 C1936 C 0.03743 0.49474 0.58454
 N1937 N 0.05507 0.50497 0.58882
 N1938 N 0.06325 0.50494 0.60752
 C1939 C 0.59128 1.00323 0.20099
 N1940 N 0.60568 1.01782 0.20440
 N1941 N 0.61570 1.01910 0.22216
 C1942 C 0.61173 1.00590 0.23738
 N1943 N 0.59724 0.99123 0.23395
 N1944 N 0.58712 0.98998 0.21612
 C1945 C 0.58135 1.00148 0.18079
 N1946 N 0.56571 0.98821 0.17695
 N1947 N 0.55726 0.98666 0.15832
 C1948 C 0.56429 0.99821 0.14290
 N1949 N 0.57991 1.01141 0.14680
 N1950 N 0.58824 1.01304 0.16537
 C1951 C 0.55537 0.99668 0.12224
 N1952 N 0.56441 1.00649 0.10675
 N1953 N 0.55637 1.00563 0.08799
 C1954 C 0.53891 0.99500 0.08401
 N1955 N 0.52983 0.98513 0.09949
 N1956 N 0.53796 0.98590 0.11828
 C1957 C 0.40763 0.50504 0.18966
 N1958 N 0.41829 0.50649 0.20761
 N1959 N 0.40868 0.50581 0.22526
 C1960 C 0.38809 0.50363 0.22555
 N1961 N 0.37758 0.50239 0.20752
 N1962 N 0.38713 0.50298 0.18999
 C1963 C 0.41765 0.50557 0.16997
 N1964 N 0.40647 0.50200 0.15267
 N1965 N 0.41509 0.50244 0.13460
 C1966 C 0.43523 0.50657 0.13310
 N1967 N 0.44649 0.51021 0.15040
 N1968 N 0.43786 0.50969 0.16854
 C1969 C 0.44446 0.50674 0.11300
 N1970 N 0.46412 0.51262 0.11072
 N1971 N 0.47232 0.51244 0.09238
 C1972 C 0.46118 0.50631 0.07571
 N1973 N 0.44153 0.50046 0.07803
 N1974 N 0.43332 0.50074 0.09632
 C1975 C -0.09144 -0.00377 0.69254
 N1976 N -0.08458 0.00754 0.70874
 N1977 N -0.09426 0.00700 0.72633
 C1978 C -0.11100 -0.00510 0.72847
 N1979 N -0.11779 -0.01625 0.71212
 N1980 N -0.10818 -0.01569 0.69461
 C1981 C -0.08170 -0.00269 0.67271
 N1982 N -0.09020 -0.01277 0.65648
 N1983 N -0.08196 -0.01161 0.63826
 C1984 C -0.06487 -0.00034 0.63554
 N1985 N -0.05627 0.00972 0.65178
 N1986 N -0.06457 0.00861 0.67005
 C1987 C -0.05604 0.00080 0.61528
 N1988 N -0.03806 0.01058 0.61239
 N1989 N -0.03009 0.01122 0.59396
 C1990 C -0.03986 0.00219 0.57776
 N1991 N -0.05787 -0.00749 0.58066
 N1992 N -0.06579 -0.00818 0.59907
 C1993 C -0.19341 0.90789 0.99577
 N1994 N -0.19409 0.88742 0.99780
 N1995 N -0.21179 0.87754 0.99829
 C1996 C -0.22964 0.88770 0.99697
 N1997 N -0.22901 0.90827 0.99481
 N1998 N -0.21120 0.91819 0.99423
 C1999 C -0.17353 0.91826 0.99530
 N2000 N -0.17176 0.93841 0.99119
 N2001 N -0.15344 0.94733 0.99067
 C2002 C -0.13631 0.93642 0.99432
 N2003 N -0.13817 0.91634 0.99846
 N2004 N -0.15640 0.90744 0.99889
 C2005 C -0.11599 0.94589 0.99404
 N2006 N -0.09946 0.93498 0.99981
 N2007 N -0.08093 0.94330 0.99983
 C2008 C -0.07817 0.96284 0.99395
 N2009 N -0.09468 0.97378 0.98807
 N2010 N -0.11328 0.96546 0.98814
 C2011 C 0.30483 0.40931 0.50073
 N2012 N 0.28916 0.41348 0.48763
 N2013 N 0.27148 0.40342 0.48874
 C2014 C 0.26872 0.38899 0.50315
 N2015 N 0.28448 0.38495 0.51620
 N2016 N 0.30210 0.39491 0.51506
 C2017 C 0.32483 0.41927 0.49910
 N2018 N 0.34079 0.41254 0.51055
 N2019 N 0.35917 0.42093 0.50897
 C2020 C 0.36233 0.43645 0.49593
 N2021 N 0.34636 0.44330 0.48451
 N2022 N 0.32794 0.43481 0.48601
 C2023 C 0.38279 0.44544 0.49444
 N2024 N 0.38609 0.46265 0.48367
 N2025 N 0.40470 0.47085 0.48291
 C2026 C 0.42069 0.46204 0.49277
 N2027 N 0.41737 0.44477 0.50339
 N2028 N 0.39878 0.43666 0.50423
 C2029 C 0.30476 0.59076 0.00034
 N2030 N 0.28886 0.58414 0.01142
 N2031 N 0.27136 0.59425 0.01118
 C2032 C 0.26903 0.61119 -0.00038
 N2033 N 0.28509 0.61773 -0.01127
 N2034 N 0.30250 0.60770 -0.01101
 C2035 C 0.32450 0.58054 0.00097
 N2036 N 0.34035 0.58881 -0.00899
 N2037 N 0.35851 0.58012 -0.00836
 C2038 C 0.36155 0.56279 0.00224
 N2039 N 0.34569 0.55441 0.01220
 N2040 N 0.32748 0.56317 0.01162
 C2041 C 0.38174 0.55347 0.00267
 N2042 N 0.38501 0.53529 0.01175
 N2043 N 0.40337 0.52688 0.01162
 C2044 C 0.41910 0.53641 0.00248
 N2045 N 0.41581 0.55462 -0.00647
 N2046 N 0.39749 0.56297 -0.00639
 C2047 C -0.19709 0.08957 0.49512
 N2048 N -0.21268 0.08423 0.50722
 N2049 N -0.22990 0.09478 0.50686
 C2050 C -0.23227 0.11092 0.49423
 N2051 N -0.21656 0.11614 0.48221
 N2052 N -0.19940 0.10566 0.48258
 C2053 C -0.17754 0.07902 0.49605
 N2054 N -0.16178 0.08623 0.48521
 N2055 N -0.14370 0.07740 0.48632
 C2056 C -0.14068 0.06096 0.49828
 N2057 N -0.15647 0.05362 0.50908
 N2058 N -0.17459 0.06253 0.50802
 C2059 C -0.12051 0.05167 0.49949
 N2060 N -0.11729 0.03416 0.50983
 N2061 N -0.09887 0.02588 0.51060
 C2062 C -0.08302 0.03488 0.50115
 N2063 N -0.08628 0.05241 0.49092
 N2064 N -0.10467 0.06062 0.49008
 C2065 C 0.69252 0.09326 0.49421
 N2066 N 0.70988 0.08284 0.49093
 N2067 N 0.72788 0.09245 0.49130
 C2068 C 0.72913 0.11282 0.49499
 N2069 N 0.71168 0.12315 0.49806
 N2070 N 0.69378 0.11357 0.49775
 C2071 C 0.67257 0.08305 0.49411
 N2072 N 0.65583 0.09378 0.49889
 N2073 N 0.63759 0.08484 0.49899
 C2074 C 0.63537 0.06482 0.49422
 N2075 N 0.65210 0.05403 0.48938
 N2076 N 0.67041 0.06299 0.48934
 C2077 C 0.61517 0.05517 0.49461
 N2078 N 0.61226 0.03550 0.48865
 N2079 N 0.59384 0.02688 0.48925
 C2080 C 0.57771 0.03760 0.49587
 N2081 N 0.58065 0.05725 0.50180
 N2082 N 0.59902 0.06588 0.50114
 C2083 C 0.19369 0.59277 1.00015
 N2084 N 0.21100 0.58252 0.99617
 N2085 N 0.22899 0.59215 0.99664
 C2086 C 0.23030 0.61236 1.00119
 N2087 N 0.21290 0.62250 1.00502
 N2088 N 0.19501 0.61290 1.00461
 C2089 C 0.17365 0.58269 0.99952
 N2090 N 0.15696 0.59339 1.00454
 N2091 N 0.13860 0.58468 1.00390
 C2092 C 0.13620 0.56494 0.99813
 N2093 N 0.15289 0.55417 0.99307
 N2094 N 0.17131 0.56290 0.99376
 C2095 C 0.11583 0.55555 0.99766
 N2096 N 0.11282 0.53609 0.99111
 N2097 N 0.09428 0.52767 0.99105
 C2098 C 0.07811 0.53841 0.99755
 N2099 N 0.08115 0.55788 1.00404
 N2100 N 0.09965 0.56629 1.00405
 C2101 C 0.19438 0.40855 0.50467
 N2102 N 0.21245 0.41877 0.50632
 N2103 N 0.22998 0.40876 0.50555
 C2104 C 0.23004 0.38818 0.50306
 N2105 N 0.21191 0.37811 0.50160
 N2106 N 0.19449 0.38807 0.50228
 C2107 C 0.17479 0.41900 0.50550
 N2108 N 0.15734 0.40822 0.50198
 N2109 N 0.13935 0.41717 0.50283
 C2110 C 0.13807 0.43726 0.50734
 N2111 N 0.15552 0.44814 0.51091
 N2112 N 0.17360 0.43917 0.50998
 C2113 C 0.11799 0.44676 0.50808
 N2114 N 0.11583 0.46639 0.51418
 N2115 N 0.09743 0.47471 0.51462
 C2116 C 0.08058 0.46370 0.50894
 N2117 N 0.08280 0.44410 0.50288
 N2118 N 0.10113 0.43578 0.50252
 C2119 C 0.69604 0.90904 -0.00054
 N2120 N 0.69840 0.89436 -0.01485
 N2121 N 0.71579 0.88438 -0.01603
 C2122 C 0.73169 0.88867 -0.00303
 N2123 N 0.72929 0.90341 0.01136
 N2124 N 0.71184 0.91349 0.01251
 C2125 C 0.67624 0.91900 0.00116
 N2126 N 0.67352 0.93480 0.01423
 N2127 N 0.65527 0.94329 0.01580
 C2128 C 0.63911 0.93615 0.00447
 N2129 N 0.64189 0.92037 -0.00853
 N2130 N 0.66009 0.91199 -0.01018
 C2131 C 0.61883 0.94513 0.00605
 N2132 N 0.60261 0.93607 -0.00360
 N2133 N 0.58419 0.94416 -0.00270
 C2134 C 0.58127 0.96167 0.00784
 N2135 N 0.59749 0.97076 0.01756
 N2136 N 0.61594 0.96259 0.01674
 C2137 C 0.00028 0.80386 0.90838
 N2138 N 0.01402 0.80099 0.89366
 N2139 N 0.01489 0.78333 0.88377
 C2140 C 0.00215 0.76765 0.88819
 N2141 N -0.01176 0.77058 0.90290
 N2142 N -0.01260 0.78832 0.91289
 C2143 C -0.00078 0.82385 0.91845
 N2144 N -0.01303 0.82717 0.93445
 N2145 N -0.01377 0.84556 0.94317
 C2146 C -0.00241 0.86125 0.93609
 N2147 N 0.00976 0.85787 0.92010
 N2148 N 0.01058 0.83954 0.91149
 C2149 C -0.00300 0.88164 0.94538
 N2150 N 0.00684 0.89738 0.93655
 N2151 N 0.00677 0.91590 0.94487
 C2152 C -0.00307 0.91939 0.96242
 N2153 N -0.01296 0.90366 0.97129
 N2154 N -0.01297 0.88511 0.96288
 C2155 C 0.50586 0.30330 0.40900
 N2156 N 0.52026 0.30048 0.39491
 N2157 N 0.52152 0.28288 0.38497
 C2158 C 0.50850 0.26723 0.38871
 N2159 N 0.49403 0.27008 0.40287
 N2160 N 0.49280 0.28775 0.41291
 C2161 C 0.50409 0.32333 0.41883
 N2162 N 0.49097 0.32658 0.43413
 N2163 N 0.48934 0.34505 0.44248
 C2164 C 0.50066 0.36091 0.43570
 N2165 N 0.51372 0.35760 0.42043
 N2166 N 0.51542 0.33918 0.41219
 C2167 C 0.49902 0.38141 0.44452
 N2168 N 0.50857 0.39733 0.43568
 N2169 N 0.50760 0.41595 0.44364
 C2170 C 0.49711 0.41939 0.46081
 N2171 N 0.48750 0.40348 0.46967
 N2172 N 0.48838 0.38482 0.46163
 C2173 C -0.00346 0.30436 0.59031
 N2174 N -0.01601 0.30180 0.60612
 N2175 N -0.01657 0.28428 0.61602
 C2176 C -0.00475 0.26845 0.61045
 N2177 N 0.00791 0.27108 0.59460
 N2178 N 0.00846 0.28866 0.58464
 C2179 C -0.00228 0.32426 0.58043
 N2180 N 0.00978 0.32746 0.56427
 N2181 N 0.01109 0.34586 0.55596
 C2182 C 0.00046 0.36167 0.56361
 N2183 N -0.01159 0.35840 0.57970
 N2184 N -0.01294 0.34005 0.58794
 C2185 C 0.00190 0.38210 0.55490
 N2186 N -0.00752 0.39788 0.56400
 N2187 N -0.00655 0.41647 0.55623
 C2188 C 0.00385 0.41999 0.53904
 N2189 N 0.01332 0.40422 0.52992
 N2190 N 0.01241 0.38559 0.53774
 C2191 C 0.49409 0.80353 0.09065
 N2192 N 0.47969 0.80062 0.10475
 N2193 N 0.47833 0.78309 0.11454
 C2194 C 0.49122 0.76761 0.11062
 N2195 N 0.50568 0.77054 0.09645
 N2196 N 0.50702 0.78813 0.08657
 C2197 C 0.49603 0.82346 0.08095
 N2198 N 0.50934 0.82673 0.06582
 N2199 N 0.51119 0.84512 0.05760
 C2200 C 0.49990 0.86088 0.06433
 N2201 N 0.48663 0.85756 0.07943
 N2202 N 0.48471 0.83921 0.08755
 C2203 C 0.50182 0.88130 0.05566
 N2204 N 0.49213 0.89716 0.06432
 N2205 N 0.49341 0.91570 0.05647
 C2206 C 0.50437 0.91909 0.03961
 N2207 N 0.51412 0.90323 0.03093
 N2208 N 0.51293 0.88467 0.03886
 C2209 C 0.48869 0.69300 0.09049
 N2210 N 0.48788 0.71091 0.08034
 N2211 N 0.48865 0.72859 0.09051
 C2212 C 0.49029 0.72895 0.11118
 N2213 N 0.49085 0.71097 0.12118
 N2214 N 0.49016 0.69341 0.11106
 C2215 C 0.48837 0.67329 0.07984
 N2216 N 0.49139 0.65607 0.09065
 N2217 N 0.49141 0.63800 0.08144
 C2218 C 0.48829 0.63641 0.06104
 N2219 N 0.48516 0.65361 0.05014
 N2220 N 0.48524 0.67177 0.05938
 C2221 C 0.48875 0.61630 0.05120
 N2222 N 0.48375 0.61374 0.03118
 N2223 N 0.48447 0.59535 0.02250
 C2224 C 0.49029 0.57894 0.03353
 N2225 N 0.49526 0.58155 0.05352
 N2226 N 0.49444 0.59986 0.06220
 C2227 C -0.00445 0.19355 0.59123
 N2228 N -0.00009 0.19446 0.61145
 N2229 N 0.00030 0.21217 0.62132
 C2230 C -0.00346 0.22980 0.61136
 N2231 N -0.00792 0.22891 0.59105
 N2232 N -0.00837 0.21109 0.58115
 C2233 C -0.00504 0.17370 0.58084
 N2234 N -0.01088 0.17174 0.56095
 N2235 N -0.01157 0.15346 0.55197
 C2236 C -0.00644 0.13655 0.56258
 N2237 N -0.00058 0.13857 0.58240
 N2238 N 0.00007 0.15678 0.59136
 C2239 C -0.00701 0.11630 0.55300
 N2240 N -0.00056 0.09994 0.56370
 N2241 N -0.00080 0.08149 0.55523
 C2242 C -0.00759 0.07866 0.53576
 N2243 N -0.01413 0.09501 0.52504
 N2244 N -0.01384 0.11352 0.53351
 C2245 C 0.51024 0.19280 0.40812
 N2246 N 0.50915 0.19301 0.38754
 N2247 N 0.50875 0.21048 0.37758
 C2248 C 0.50925 0.22856 0.38775
 N2249 N 0.51053 0.22840 0.40844
 N2250 N 0.51101 0.21082 0.41844
 C2251 C 0.51012 0.17319 0.41863
 N2252 N 0.51299 0.17194 0.43910
 N2253 N 0.51264 0.15390 0.44824
 C2254 C 0.50932 0.13654 0.43721
 N2255 N 0.50645 0.13786 0.41679
 N2256 N 0.50690 0.15582 0.40769
 C2257 C 0.50843 0.11657 0.44698
 N2258 N 0.50242 0.09992 0.43596
 N2259 N 0.50126 0.08174 0.44461
 C2260 C 0.50619 0.07949 0.46460
 N2261 N 0.51232 0.09612 0.47565
 N2262 N 0.51337 0.11436 0.46700
 C2263 C 0.00464 0.69333 0.90853
 N2264 N 0.00286 0.69334 0.88797
 N2265 N 0.00205 0.71071 0.87787
 C2266 C 0.00279 0.72889 0.88785
 N2267 N 0.00472 0.72894 0.90850
 N2268 N 0.00562 0.71145 0.91867
 C2269 C 0.00525 0.67378 0.91915
 N2270 N 0.00890 0.67264 0.93953
 N2271 N 0.00937 0.65461 0.94870
 C2272 C 0.00616 0.63714 0.93781
 N2273 N 0.00252 0.63836 0.91749
 N2274 N 0.00213 0.65631 0.90834
 C2275 C 0.00619 0.61715 0.94759
 N2276 N 0.00050 0.60033 0.93666
 N2277 N 0.00009 0.58212 0.94531
 C2278 C 0.00550 0.57999 0.96521
 N2279 N 0.01133 0.59679 0.97615
 N2280 N 0.01164 0.61506 0.96750
 C2281 C 0.24662 0.65735 0.94571
 N2282 N 0.24684 0.63677 0.94587
 N2283 N 0.24775 0.62679 0.96332
 C2284 C 0.24864 0.63691 0.98143
 N2285 N 0.24820 0.65759 0.98128
 N2286 N 0.24720 0.66764 0.96373
 C2287 C 0.24629 0.66787 0.92612
 N2288 N 0.24407 0.68834 0.92489
 N2289 N 0.24398 0.69748 0.90684
 C2290 C 0.24621 0.68645 0.88947
 N2291 N 0.24845 0.66603 0.89079
 N2292 N 0.24843 0.65693 0.90875
 C2293 C 0.24643 0.69614 0.86947
 N2294 N 0.25132 0.68506 0.85283
 N2295 N 0.25159 0.69355 0.83455
 C2296 C 0.24686 0.71342 0.83219
 N2297 N 0.24191 0.72454 0.84883
 N2298 N 0.24175 0.71606 0.86717
 C2299 C 0.74731 0.15918 0.44110
 N2300 N 0.74700 0.13859 0.44068
 N2301 N 0.74738 0.12809 0.45783
 C2302 C 0.74826 0.13768 0.47622
 N2303 N 0.74829 0.15838 0.47666
 N2304 N 0.74783 0.16894 0.45941
 C2305 C 0.74763 0.17025 0.42182
 N2306 N 0.74580 0.19079 0.42107
 N2307 N 0.74629 0.20040 0.40328
 C2308 C 0.74876 0.18978 0.38570
 N2309 N 0.75062 0.16930 0.38653
 N2310 N 0.75001 0.15973 0.40422
 C2311 C 0.74960 0.19995 0.36595
 N2312 N 0.75480 0.18917 0.34922
 N2313 N 0.75552 0.19800 0.33114
 C2314 C 0.75094 0.21794 0.32904
 N2315 N 0.74569 0.22878 0.34576
 N2316 N 0.74508 0.21995 0.36393
 C2317 C 0.25334 0.34248 0.44788
 N2318 N 0.26591 0.33815 0.46393
 N2319 N 0.26432 0.34814 0.48158
 C2320 C 0.24992 0.36264 0.48391
 N2321 N 0.23742 0.36683 0.46776
 N2322 N 0.23905 0.35695 0.45018
 C2323 C 0.25547 0.33260 0.42792
 N2324 N 0.24463 0.33959 0.41167
 N2325 N 0.24653 0.33120 0.39335
 C2326 C 0.25929 0.31543 0.39054
 N2327 N 0.27013 0.30832 0.40680
 N2328 N 0.26831 0.31681 0.42517
 C2329 C 0.26093 0.30632 0.37016
 N2330 N 0.27118 0.28877 0.36714
 N2331 N 0.27178 0.28034 0.34863
 C2332 C 0.26227 0.28926 0.33249
 N2333 N 0.25222 0.30688 0.33554
 N2334 N 0.25154 0.31522 0.35400
 C2335 C 0.75297 0.84137 0.94216
 N2336 N 0.75385 0.83158 0.96028
 N2337 N 0.75280 0.84201 0.97774
 C2338 C 0.75077 0.86259 0.97768
 N2339 N 0.75007 0.87223 0.95950
 N2340 N 0.75103 0.86185 0.94215
 C2341 C 0.75411 0.83046 0.92263
 N2342 N 0.75141 0.84089 0.90509
 N2343 N 0.75246 0.83152 0.88716
 C2344 C 0.75638 0.81135 0.88602
 N2345 N 0.75914 0.80083 0.90356
 N2346 N 0.75802 0.81023 0.92158
 C2347 C 0.75711 0.80136 0.86598
 N2348 N 0.76254 0.78158 0.86395
 N2349 N 0.76272 0.77276 0.84560
 C2350 C 0.75744 0.78340 0.82868
 N2351 N 0.75210 0.80315 0.83078
 N2352 N 0.75201 0.81197 0.84905
 C2353 C 0.74612 0.84364 0.05258
 N2354 N 0.73343 0.83884 0.03658
 N2355 N 0.73520 0.84834 0.01884
 C2356 C 0.74989 0.86279 0.01635
 N2357 N 0.76251 0.86745 0.03244
 N2358 N 0.76071 0.85805 0.05012
 C2359 C 0.74384 0.83430 0.07262
 N2360 N 0.75482 0.84178 0.08880
 N2361 N 0.75284 0.83383 0.10718
 C2362 C 0.73985 0.81803 0.11011
 N2363 N 0.72886 0.81044 0.09392
 N2364 N 0.73076 0.81850 0.07550
 C2365 C 0.73820 0.80931 0.13050
 N2366 N 0.72772 0.79172 0.13356
 N2367 N 0.72714 0.78360 0.15206
 C2368 C 0.73690 0.79284 0.16815
 N2369 N 0.74717 0.81051 0.16508
 N2370 N 0.74783 0.81856 0.14662
 C2371 C 0.24601 0.34325 0.55826
 N2372 N 0.24848 0.36372 0.55811
 N2373 N 0.24979 0.37363 0.54068
 C2374 C 0.24890 0.36350 0.52258
 N2375 N 0.24634 0.34293 0.52268
 N2376 N 0.24495 0.33298 0.54022
 C2377 C 0.24450 0.33285 0.57786
 N2378 N 0.24016 0.31264 0.57899
 N2379 N 0.23874 0.30368 0.59705
 C2380 C 0.24163 0.31462 0.61455
 N2381 N 0.24597 0.33477 0.61333
 N2382 N 0.24731 0.34370 0.59536
 C2383 C 0.24063 0.30504 0.63460
 N2384 N 0.24585 0.31597 0.65157
 N2385 N 0.24560 0.30746 0.66983
 C2386 C 0.23996 0.28769 0.67187
 N2387 N 0.23454 0.27674 0.65492
 N2388 N 0.23489 0.28526 0.63660
 C2389 C 0.75418 0.15415 0.55277
 N2390 N 0.74946 0.13410 0.55105
 N2391 N 0.74795 0.12513 0.53290
 C2392 C 0.75094 0.13579 0.51560
 N2393 N 0.75590 0.15589 0.51735
 N2394 N 0.75744 0.16491 0.53559
 C2395 C 0.75537 0.16374 0.57301
 N2396 N 0.76070 0.18363 0.57556
 N2397 N 0.76142 0.19207 0.59409
 C2398 C 0.75678 0.18092 0.61068
 N2399 N 0.75149 0.16106 0.60809
 N2400 N 0.75083 0.15264 0.58962
 C2401 C 0.75700 0.19010 0.63112
 N2402 N 0.75070 0.17909 0.64720
 N2403 N 0.75036 0.18737 0.66573
 C2404 C 0.75638 0.20697 0.66889
 N2405 N 0.76280 0.21797 0.65283
 N2406 N 0.76308 0.20969 0.63427
 C2407 C 0.25463 0.65546 0.05753
 N2408 N 0.25191 0.63503 0.05640
 N2409 N 0.25075 0.62555 0.03848
 C2410 C 0.25213 0.63607 0.02086
 N2411 N 0.25509 0.65656 0.02202
 N2412 N 0.25631 0.66608 0.04002
 C2413 C 0.25512 0.66562 0.07751
 N2414 N 0.25888 0.68590 0.07948
 N2415 N 0.25885 0.69487 0.09776
 C2416 C 0.25496 0.68387 0.11465
 N2417 N 0.25124 0.66362 0.11263
 N2418 N 0.25135 0.65467 0.09442
 C2419 C 0.25435 0.69357 0.13481
 N2420 N 0.24817 0.68271 0.15104
 N2421 N 0.24723 0.69139 0.16934
 C2422 C 0.25253 0.71123 0.17214
 N2423 N 0.25881 0.72210 0.15593
 N2424 N 0.25967 0.71343 0.13758
 C2425 C 0.15748 0.55478 0.75969
 N2426 N 0.16766 0.53689 0.75978
 N2427 N 0.15749 0.51917 0.75917
 C2428 C 0.13678 0.51879 0.75844
 N2429 N 0.12679 0.53675 0.75867
 N2430 N 0.13689 0.55433 0.75920
 C2431 C 0.16803 0.57456 0.75955
 N2432 N 0.15703 0.59165 0.75655
 N2433 N 0.16609 0.60981 0.75619
 C2434 C 0.18651 0.61162 0.75893
 N2435 N 0.19761 0.59455 0.76201
 N2436 N 0.18853 0.57629 0.76226
 C2437 C 0.19615 0.63184 0.75839
 N2438 N 0.21606 0.63467 0.76370
 N2439 N 0.22449 0.65319 0.76328
 C2440 C 0.21333 0.66950 0.75746
 N2441 N 0.19345 0.66663 0.75211
 N2442 N 0.18501 0.64816 0.75263
 C2443 C 0.65923 0.06111 0.25833
 N2444 N 0.66907 0.04303 0.25867
 N2445 N 0.65857 0.02551 0.25828
 C2446 C 0.63787 0.02549 0.25753
 N2447 N 0.62820 0.04364 0.25752
 N2448 N 0.63864 0.06104 0.25783
 C2449 C 0.67022 0.08065 0.25798
 N2450 N 0.65964 0.09796 0.25476
 N2451 N 0.66913 0.11589 0.25417
 C2452 C 0.68960 0.11725 0.25689
 N2453 N 0.70028 0.09995 0.26020
 N2454 N 0.69075 0.08193 0.26068
 C2455 C 0.69970 0.13724 0.25607
 N2456 N 0.71968 0.13972 0.26137
 N2457 N 0.72849 0.15807 0.26071
 C2458 C 0.71766 0.17452 0.25464
 N2459 N 0.69774 0.17197 0.24930
 N2460 N 0.68893 0.15370 0.25006
 C2461 C 0.84474 0.05166 0.74265
 N2462 N 0.86492 0.05115 0.74722
 N2463 N 0.87450 0.03352 0.74871
 C2464 C 0.86432 0.01558 0.74589
 N2465 N 0.84409 0.01610 0.74104
 N2466 N 0.83447 0.03381 0.73951
 C2467 C 0.83451 0.07138 0.74150
 N2468 N 0.81448 0.07279 0.73620
 N2469 N 0.80550 0.09088 0.73555
 C2470 C 0.81623 0.10816 0.74020
 N2471 N 0.83623 0.10670 0.74545
 N2472 N 0.84519 0.08868 0.74605
 C2473 C 0.80650 0.12817 0.74013
 N2474 N 0.81715 0.14487 0.74668
 N2475 N 0.80842 0.16302 0.74720
 C2476 C 0.78871 0.16519 0.74111
 N2477 N 0.77806 0.14850 0.73441
 N2478 N 0.78679 0.13030 0.73396
 C2479 C 0.34232 0.55778 0.24256
 N2480 N 0.36291 0.55806 0.24361
 N2481 N 0.37323 0.54084 0.24443
 C2482 C 0.36344 0.52254 0.24441
 N2483 N 0.34275 0.52220 0.24319
 N2484 N 0.33236 0.53953 0.24230
 C2485 C 0.33146 0.57716 0.24202
 N2486 N 0.31094 0.57797 0.23925
 N2487 N 0.30154 0.59587 0.23894
 C2488 C 0.31234 0.61350 0.24145
 N2489 N 0.33280 0.61261 0.24420
 N2490 N 0.34217 0.59480 0.24442
 C2491 C 0.30234 0.63335 0.24173
 N2492 N 0.31330 0.65029 0.24694
 N2493 N 0.30449 0.66838 0.24771
 C2494 C 0.28437 0.67026 0.24316
 N2495 N 0.27338 0.65334 0.23779
 N2496 N 0.28220 0.63518 0.23713
 C2497 C 0.34410 0.44735 0.24957
 N2498 N 0.33985 0.46311 0.26222
 N2499 N 0.34943 0.48100 0.26046
 C2500 C 0.36344 0.48387 0.24583
 N2501 N 0.36754 0.46800 0.23325
 N2502 N 0.35806 0.45019 0.23504
 C2503 C 0.33468 0.42716 0.25181
 N2504 N 0.34171 0.41125 0.24088
 N2505 N 0.33370 0.39273 0.24282
 C2506 C 0.31829 0.38939 0.25572
 N2507 N 0.31114 0.40530 0.26666
 N2508 N 0.31926 0.42388 0.26480
 C2509 C 0.30955 0.36883 0.25740
 N2510 N 0.29227 0.36534 0.26777
 N2511 N 0.28415 0.34667 0.26841
 C2512 C 0.29310 0.33085 0.25882
 N2513 N 0.31046 0.33436 0.24865
 N2514 N 0.31851 0.35298 0.24793
 C2515 C 0.84352 0.94023 0.75223
 N2516 N 0.83333 0.95808 0.75296
 N2517 N 0.84328 0.97580 0.75132
 C2518 C 0.86376 0.97627 0.74880
 N2519 N 0.87381 0.95834 0.74835
 N2520 N 0.86392 0.94074 0.74993
 C2521 C 0.83309 0.92043 0.75365
 N2522 N 0.84385 0.90316 0.75107
 N2523 N 0.83484 0.88501 0.75207
 C2524 C 0.81472 0.88339 0.75581
 N2525 N 0.80388 0.90065 0.75849
 N2526 N 0.81291 0.91889 0.75741
 C2527 C 0.80506 0.86315 0.75635
 N2528 N 0.78535 0.86067 0.76160
 N2529 N 0.77678 0.84218 0.76158
 C2530 C 0.78760 0.82556 0.75623
 N2531 N 0.80729 0.82809 0.75105
 N2532 N 0.81587 0.84651 0.75117
 C2533 C 0.65684 0.95056 0.25254
 N2534 N 0.64294 0.95349 0.26711
 N2535 N 0.63354 0.97118 0.26884
 C2536 C 0.63767 0.98681 0.25614
 N2537 N 0.65162 0.98385 0.24149
 N2538 N 0.66112 0.96610 0.23980
 C2539 C 0.66614 0.93048 0.25030
 N2540 N 0.68142 0.92721 0.23717
 N2541 N 0.68939 0.90874 0.23522
 C2542 C 0.68223 0.89289 0.24620
 N2543 N 0.66695 0.89622 0.25925
 N2544 N 0.65909 0.91465 0.26128
 C2545 C 0.69078 0.87244 0.24437
 N2546 N 0.68177 0.85658 0.25382
 N2547 N 0.68963 0.83805 0.25289
 C2548 C 0.70687 0.83466 0.24254
 N2549 N 0.71588 0.85050 0.23298
 N2550 N 0.70793 0.86906 0.23382
 C2551 C 0.15680 0.44410 0.75336
 N2552 N 0.16123 0.45980 0.74086
 N2553 N 0.15141 0.47740 0.74240
 C2554 C 0.13698 0.48003 0.75665
 N2555 N 0.13267 0.46421 0.76904
 N2556 N 0.14238 0.44668 0.76747
 C2557 C 0.16661 0.42422 0.75146
 N2558 N 0.15963 0.40830 0.76236
 N2559 N 0.16801 0.39007 0.76076
 C2560 C 0.18378 0.38702 0.74825
 N2561 N 0.19088 0.40294 0.73733
 N2562 N 0.18238 0.42123 0.73885
 C2563 C 0.19288 0.36676 0.74693
 N2564 N 0.21031 0.36360 0.73675
 N2565 N 0.21867 0.34521 0.73633
 C2566 C 0.20983 0.32932 0.74596
 N2567 N 0.19235 0.33249 0.75597
 N2568 N 0.18406 0.35084 0.75646
 C2569 C 0.05697 0.74650 0.84283
 N2570 N 0.03884 0.74549 0.83243
 N2571 N 0.02135 0.74611 0.84233
 C2572 C 0.02143 0.74777 0.86298
 N2573 N 0.03962 0.74854 0.87321
 N2574 N 0.05698 0.74801 0.86336
 C2575 C 0.07654 0.74617 0.83254
 N2576 N 0.09395 0.74960 0.84360
 N2577 N 0.11194 0.74930 0.83483
 C2578 C 0.11327 0.74544 0.81464
 N2579 N 0.09587 0.74196 0.80348
 N2580 N 0.07779 0.74236 0.81227
 C2581 C 0.13334 0.74522 0.80533
 N2582 N 0.13556 0.73931 0.78568
 N2583 N 0.15393 0.73917 0.77753
 C2584 C 0.17069 0.74499 0.78871
 N2585 N 0.16842 0.75090 0.80832
 N2586 N 0.15011 0.75095 0.81648
 C2587 C 0.56300 0.24738 0.34228
 N2588 N 0.54474 0.24656 0.33212
 N2589 N 0.52741 0.24681 0.34229
 C2590 C 0.52776 0.24790 0.36298
 N2591 N 0.54608 0.24845 0.37297
 N2592 N 0.56330 0.24829 0.36286
 C2593 C 0.58238 0.24758 0.33164
 N2594 N 0.59994 0.25097 0.34244
 N2595 N 0.61773 0.25124 0.33329
 C2596 C 0.61870 0.24801 0.31295
 N2597 N 0.60113 0.24455 0.30206
 N2598 N 0.58325 0.24438 0.31124
 C2599 C 0.63855 0.24844 0.30322
 N2600 N 0.64052 0.24294 0.28342
 N2601 N 0.65872 0.24332 0.27492
 C2602 C 0.67556 0.24931 0.28590
 N2603 N 0.67353 0.25483 0.30565
 N2604 N 0.65539 0.25435 0.31415
 C2605 C 0.54733 0.75297 0.15635
 N2606 N 0.54409 0.73840 0.14191
 N2607 N 0.52619 0.73662 0.13223
 C2608 C 0.51065 0.74926 0.13659
 N2609 N 0.51393 0.76394 0.15107
 N2610 N 0.53190 0.76568 0.16087
 C2611 C 0.56762 0.75522 0.16600
 N2612 N 0.57123 0.76812 0.18197
 N2613 N 0.58989 0.76998 0.19030
 C2614 C 0.60556 0.75914 0.18282
 N2615 N 0.60189 0.74634 0.16685
 N2616 N 0.58329 0.74440 0.15863
 C2617 C 0.62618 0.76075 0.19181
 N2618 N 0.64180 0.75145 0.18254
 N2619 N 0.66046 0.75202 0.19083
 C2620 C 0.66422 0.76185 0.20876
 N2621 N 0.64862 0.77129 0.21804
 N2622 N 0.62993 0.77080 0.20967
 C2623 C 0.05279 0.25485 0.65566
 N2624 N 0.05171 0.24969 0.63568
 N2625 N 0.03384 0.24796 0.62594
 C2626 C 0.01619 0.25112 0.63574
 N2627 N 0.01728 0.25656 0.65575
 N2628 N 0.03525 0.25832 0.66556
 C2629 C 0.07279 0.25633 0.66605
 N2630 N 0.07479 0.26175 0.68599
 N2631 N 0.09314 0.26267 0.69512
 C2632 C 0.11008 0.25818 0.68461
 N2633 N 0.10802 0.25284 0.66471
 N2634 N 0.08974 0.25196 0.65561
 C2635 C 0.13037 0.25848 0.69447
 N2636 N 0.14671 0.25241 0.68388
 N2637 N 0.16512 0.25199 0.69271
 C2638 C 0.16794 0.25771 0.71245
 N2639 N 0.15162 0.26393 0.72305
 N2640 N 0.13314 0.26429 0.71422
 C2641 C 0.94137 0.24422 0.65580
 N2642 N 0.95948 0.24375 0.66619
 N2643 N 0.97695 0.24556 0.65639
 C2644 C 0.97690 0.24801 0.63586
 N2645 N 0.95871 0.24818 0.62562
 N2646 N 0.94135 0.24644 0.63536
 C2647 C 0.92186 0.24257 0.66608
 N2648 N 0.90430 0.24492 0.65515
 N2649 N 0.88640 0.24366 0.66404
 C2650 C 0.88535 0.23990 0.68421
 N2651 N 0.90291 0.23745 0.69522
 N2652 N 0.92088 0.23879 0.68630
 C2653 C 0.86543 0.23902 0.69377
 N2654 N 0.86361 0.23371 0.71355
 N2655 N 0.84541 0.23340 0.72207
 C2656 C 0.82844 0.23844 0.71112
 N2657 N 0.83030 0.24368 0.69135
 N2658 N 0.84843 0.24390 0.68283
 C2659 C 0.43691 0.74581 0.15712
 N2660 N 0.45524 0.74528 0.16713
 N2661 N 0.47249 0.74635 0.15687
 C2662 C 0.47198 0.74803 0.13625
 N2663 N 0.45360 0.74835 0.12639
 N2664 N 0.43646 0.74737 0.13660
 C2665 C 0.41764 0.74483 0.16788
 N2666 N 0.39991 0.74741 0.15729
 N2667 N 0.38221 0.74662 0.16658
 C2668 C 0.38150 0.74311 0.18682
 N2669 N 0.39923 0.74044 0.19750
 N2670 N 0.41702 0.74132 0.18818
 C2671 C 0.36176 0.74265 0.19674
 N2672 N 0.36011 0.73738 0.21655
 N2673 N 0.34203 0.73734 0.22531
 C2674 C 0.32501 0.74263 0.21457
 N2675 N 0.32671 0.74786 0.19478
 N2676 N 0.34472 0.74780 0.18602
 C2677 C 0.45225 0.25133 0.34296
 N2678 N 0.46769 0.26439 0.33868
 N2679 N 0.48571 0.26299 0.34836
 C2680 C 0.48904 0.24831 0.36249
 N2681 N 0.47350 0.23529 0.36659
 N2682 N 0.45555 0.23673 0.35702
 C2683 C 0.43189 0.25326 0.33352
 N2684 N 0.41622 0.24210 0.34075
 N2685 N 0.39755 0.24378 0.33275
 C2686 C 0.39381 0.25663 0.31713
 N2687 N 0.40948 0.26780 0.30979
 N2688 N 0.42820 0.26621 0.31791
 C2689 C 0.37312 0.25796 0.30834
 N2690 N 0.36933 0.26807 0.29075
 N2691 N 0.35059 0.26833 0.28253
 C2692 C 0.33496 0.25863 0.29168
 N2693 N 0.33876 0.24874 0.30936
 N2694 N 0.35747 0.24839 0.31751
 C2695 C 0.94598 0.75051 0.84224
 N2696 N 0.96149 0.76336 0.83758
 N2697 N 0.97942 0.76233 0.84750
 C2698 C 0.98259 0.74825 0.86227
 N2699 N 0.96697 0.73550 0.86679
 N2700 N 0.94912 0.73656 0.85698
 C2701 C 0.92574 0.75185 0.83235
 N2702 N 0.91010 0.74070 0.83964
 N2703 N 0.89158 0.74171 0.83115
 C2704 C 0.88795 0.75386 0.81495
 N2705 N 0.90359 0.76504 0.80755
 N2706 N 0.92216 0.76411 0.81615
 C2707 C 0.86740 0.75445 0.80563
 N2708 N 0.86373 0.76411 0.78777
 N2709 N 0.84513 0.76380 0.77918
 C2710 C 0.82953 0.75392 0.78820
 N2711 N 0.83322 0.74444 0.80613
 N2712 N 0.85179 0.74467 0.81465
   
