data_POSCAR
  _audit_creation_date              2014-09-24
  _audit_creation_method            'ToBaCCo'
  _symmetry_space_group_name_H-M    'P1'
  _symmetry_Int_Tables_number       1
  _symmetry_cell_setting            triclinic
  loop_
  _symmetry_equiv_pos_as_xyz
 x,y,z
_cell_length_a 42.7117
_cell_length_b 40.9442
_cell_length_c 49.4700
_cell_angle_alpha 89.962600
_cell_angle_beta 89.935500
_cell_angle_gamma 90.020300
loop_
  _atom_site_label
  _atom_site_type_symbol
  _atom_site_fract_x
  _atom_site_fract_y
  _atom_site_fract_z
Zr1 Zr 0.24789 0.24820 0.29755
 O2 O 0.26976 0.27439 0.32929
 O3 O 0.21920 0.21577 0.31939
 O4 O 0.21654 0.27741 0.32003
 O5 O 0.31187 0.19737 0.28681
 O6 O 0.18952 0.30624 0.28810
 O7 O 0.28100 0.22044 0.31938
 O8 O 0.19276 0.18851 0.28626
 O9 O 0.20678 0.24704 0.27450
 O10 O 0.25080 0.20605 0.27381
 O11 O 0.24771 0.29195 0.27520
 O12 O 0.28974 0.25259 0.27506
 Zr13 Zr 0.25027 0.25286 0.20321
 Zr14 Zr 0.20763 0.28954 0.25084
 Zr15 Zr 0.29076 0.21132 0.24988
 Zr16 Zr 0.21092 0.20596 0.24970
 O17 O 0.33983 0.21781 0.24736
 O18 O 0.16150 0.21073 0.24824
 O19 O 0.25087 0.20860 0.22517
 O20 O 0.20895 0.24811 0.22601
 O21 O 0.24764 0.29527 0.22673
 O22 O 0.29120 0.25371 0.22642
 C23 C 0.19888 0.19496 0.31102
 C24 C 0.30463 0.20330 0.31163
 C25 C 0.19631 0.29897 0.31273
 O26 O 0.15858 0.28241 0.25060
 O27 O 0.18919 0.30732 0.21400
 O28 O 0.21899 0.28290 0.18140
 C29 C 0.19650 0.30160 0.18918
 O30 O 0.30728 0.31229 0.28770
 Zr31 Zr 0.28765 0.29472 0.25102
 O32 O 0.27819 0.28593 0.18136
 O33 O 0.20936 0.34116 0.25170
 O34 O 0.27810 0.34551 0.25294
 O35 O 0.33714 0.29094 0.24931
 O36 O 0.30203 0.31574 0.21447
 C37 C 0.29634 0.30883 0.18971
 O38 O 0.22686 0.22805 0.17152
 O39 O 0.28965 0.15969 0.25177
 O40 O 0.27961 0.22174 0.18064
 O41 O 0.30539 0.19150 0.21247
 O42 O 0.21951 0.15496 0.25088
 O43 O 0.19588 0.18422 0.21293
 C44 C 0.29846 0.19885 0.18786
 H45 H 0.25219 0.18589 0.28481
 H46 H 0.19028 0.24665 0.21425
 H47 H 0.31040 0.25446 0.21520
 H48 H 0.24744 0.31131 0.28717
 H49 H 0.15236 0.18900 0.25222
 H50 H 0.14892 0.30440 0.25123
 H51 H 0.18739 0.34894 0.25148
 H52 H 0.29784 0.35725 0.24883
 H53 H 0.19930 0.14397 0.25470
 H54 H 0.31172 0.15224 0.25203
 H55 H 0.34919 0.19568 0.24673
 H56 H 0.34554 0.31305 0.24556
 H57 H 0.17915 0.16812 0.21675
 H58 H 0.23470 0.23706 0.15414
 H59 H 0.26219 0.26507 0.34665
 H60 H 0.32098 0.33125 0.28384
 Zr61 Zr 0.74946 0.74907 0.29704
 O62 O 0.72697 0.72144 0.32767
 O63 O 0.77777 0.78043 0.32011
 O64 O 0.78066 0.71946 0.31909
 O65 O 0.68577 0.80045 0.28710
 O66 O 0.80852 0.69202 0.28681
 O67 O 0.71618 0.77617 0.31934
 O68 O 0.80494 0.80880 0.28799
 O69 O 0.79093 0.75122 0.27443
 O70 O 0.74692 0.79216 0.27445
 O71 O 0.75025 0.70620 0.27360
 O72 O 0.70797 0.74544 0.27411
 Zr73 Zr 0.74861 0.74826 0.20271
 Zr74 Zr 0.79070 0.70968 0.24967
 Zr75 Zr 0.70732 0.78772 0.25007
 Zr76 Zr 0.78717 0.79326 0.25074
 O77 O 0.65831 0.78113 0.24702
 O78 O 0.83663 0.78887 0.24943
 O79 O 0.74758 0.79159 0.22581
 O80 O 0.78963 0.75210 0.22595
 O81 O 0.75105 0.70490 0.22508
 O82 O 0.70735 0.74630 0.22550
 C83 C 0.79841 0.80133 0.31250
 C84 C 0.69273 0.79373 0.31182
 C85 C 0.80133 0.69852 0.31153
 O86 O 0.83973 0.71696 0.24976
 O87 O 0.80938 0.69319 0.21238
 O88 O 0.77991 0.71895 0.18030
 C89 C 0.80222 0.69982 0.18766
 O90 O 0.69044 0.68542 0.28503
 Zr91 Zr 0.71068 0.70428 0.24898
 O92 O 0.72118 0.71609 0.17966
 O93 O 0.78924 0.65805 0.24954
 O94 O 0.72057 0.65352 0.24973
 O95 O 0.66119 0.70746 0.24667
 O96 O 0.69713 0.68468 0.21169
 C97 C 0.70317 0.69266 0.18719
 O98 O 0.77259 0.77446 0.17206
 O99 O 0.70831 0.83926 0.25319
 O100 O 0.71946 0.78017 0.18072
 O101 O 0.69306 0.80889 0.21314
 O102 O 0.77851 0.84416 0.25354
 O103 O 0.80254 0.81670 0.21474
 C104 C 0.70037 0.80262 0.18843
 H105 H 0.74538 0.81186 0.28597
 H106 H 0.80844 0.75403 0.21436
 H107 H 0.68833 0.74591 0.21408
 H108 H 0.75047 0.68641 0.28510
 H109 H 0.84561 0.81045 0.25415
 H110 H 0.84943 0.69498 0.24991
 H111 H 0.81126 0.65045 0.24907
 H112 H 0.70100 0.64182 0.24505
 H113 H 0.79865 0.85493 0.25798
 H114 H 0.68623 0.84669 0.25326
 H115 H 0.64888 0.80323 0.24682
 H116 H 0.65315 0.68530 0.24258
 H117 H 0.81901 0.83284 0.21917
 H118 H 0.76503 0.76627 0.15433
 H119 H 0.73414 0.73000 0.34539
 H120 H 0.67739 0.66615 0.28067
 Zr121 Zr 0.75128 0.24746 -0.29767
 O122 O 0.72887 0.27410 -0.32889
 O123 O 0.78025 0.21590 -0.32000
 O124 O 0.78229 0.27733 -0.31986
 O125 O 0.68821 0.19532 -0.28753
 O126 O 0.80893 0.30605 -0.28764
 O127 O 0.71858 0.21959 -0.31987
 O128 O 0.80734 0.18859 -0.28726
 O129 O 0.79246 0.24652 -0.27470
 O130 O 0.74912 0.20477 -0.27450
 O131 O 0.75092 0.29076 -0.27478
 O132 O 0.70945 0.25072 -0.27508
 Zr133 Zr 0.74906 0.25014 -0.20327
 Zr134 Zr 0.79107 0.28851 -0.25051
 Zr135 Zr 0.70916 0.20890 -0.25048
 Zr136 Zr 0.78903 0.20489 -0.25042
 O137 O 0.66000 0.21453 -0.24783
 O138 O 0.83839 0.21036 -0.24899
 O139 O 0.74911 0.20634 -0.22581
 O140 O 0.79041 0.24657 -0.22619
 O141 O 0.75104 0.29310 -0.22622
 O142 O 0.70813 0.25077 -0.22648
 C143 C 0.80093 0.19532 -0.31192
 C144 C 0.69527 0.20185 -0.31228
 C145 C 0.80227 0.29901 -0.31234
 O146 O 0.84022 0.28219 -0.25030
 O147 O 0.80929 0.30595 -0.21350
 O148 O 0.77988 0.28042 -0.18117
 C149 C 0.80208 0.29966 -0.18874
 O150 O 0.69111 0.31058 -0.28685
 Zr151 Zr 0.71102 0.29239 -0.25047
 O152 O 0.72032 0.28191 -0.18094
 O153 O 0.78866 0.34011 -0.25086
 O154 O 0.72024 0.34329 -0.25141
 O155 O 0.66157 0.28804 -0.24900
 O156 O 0.69599 0.31201 -0.21361
 C157 C 0.70160 0.30447 -0.18896
 O158 O 0.77287 0.22532 -0.17179
 O159 O 0.71104 0.15734 -0.25301
 O160 O 0.72032 0.21785 -0.18117
 O161 O 0.69480 0.18807 -0.21343
 O162 O 0.78111 0.15379 -0.25227
 O163 O 0.80461 0.18269 -0.21398
 C164 C 0.70170 0.19490 -0.18874
 H165 H 0.74800 0.18481 -0.28574
 H166 H 0.80912 0.24520 -0.21446
 H167 H 0.68891 0.25089 -0.21529
 H168 H 0.75093 0.31035 -0.28652
 H169 H 0.84781 0.18886 -0.25327
 H170 H 0.84956 0.30433 -0.25093
 H171 H 0.81053 0.34819 -0.25058
 H172 H 0.70044 0.35474 -0.24701
 H173 H 0.80142 0.14320 -0.25641
 H174 H 0.68909 0.14952 -0.25336
 H175 H 0.65094 0.19225 -0.24754
 H176 H 0.65292 0.31001 -0.24512
 H177 H 0.82134 0.16671 -0.21810
 H178 H 0.76478 0.23385 -0.15434
 H179 H 0.73647 0.26539 -0.34643
 H180 H 0.67780 0.32974 -0.28275
 Zr181 Zr 0.24963 0.75386 -0.29678
 O182 O 0.27214 0.72800 -0.32841
 O183 O 0.22045 0.78563 -0.31870
 O184 O 0.21887 0.72399 -0.31916
 O185 O 0.31246 0.80625 -0.28623
 O186 O 0.19249 0.69451 -0.28716
 O187 O 0.28224 0.78230 -0.31871
 O188 O 0.19318 0.81221 -0.28569
 O189 O 0.20846 0.75400 -0.27370
 O190 O 0.25150 0.79617 -0.27317
 O191 O 0.25038 0.71019 -0.27430
 O192 O 0.29152 0.75061 -0.27432
 Zr193 Zr 0.25198 0.74961 -0.20240
 Zr194 Zr 0.21023 0.71163 -0.24988
 Zr195 Zr 0.29151 0.79200 -0.24927
 Zr196 Zr 0.21157 0.79527 -0.24904
 O197 O 0.34072 0.78685 -0.24672
 O198 O 0.16228 0.78914 -0.24765
 O199 O 0.25154 0.79377 -0.22453
 O200 O 0.21057 0.75319 -0.22518
 O201 O 0.25035 0.70704 -0.22580
 O202 O 0.29292 0.74975 -0.22570
 C203 C 0.19962 0.80599 -0.31046
 C204 C 0.30550 0.80004 -0.31105
 C205 C 0.19907 0.70200 -0.31181
 O206 O 0.16103 0.71748 -0.24950
 O207 O 0.19227 0.69340 -0.21290
 O208 O 0.22153 0.71867 -0.18046
 C209 C 0.19948 0.69929 -0.18808
 O210 O 0.31033 0.69130 -0.28684
 Zr211 Zr 0.29034 0.70853 -0.25016
 O212 O 0.28089 0.71755 -0.18049
 O213 O 0.21309 0.66007 -0.25077
 O214 O 0.28181 0.65753 -0.25182
 O215 O 0.33975 0.71345 -0.24865
 O216 O 0.30540 0.68823 -0.21356
 C217 C 0.29966 0.69517 -0.18881
 O218 O 0.22789 0.77387 -0.17076
 O219 O 0.28916 0.84357 -0.25133
 O220 O 0.28052 0.78170 -0.17996
 O221 O 0.30563 0.81235 -0.21198
 O222 O 0.21880 0.84650 -0.25037
 O223 O 0.19601 0.81673 -0.21230
 C224 C 0.29887 0.80500 -0.18733
 H225 H 0.25248 0.81632 -0.28422
 H226 H 0.19187 0.75416 -0.21339
 H227 H 0.31213 0.74958 -0.21453
 H228 H 0.25052 0.69080 -0.28624
 H229 H 0.15264 0.81061 -0.25168
 H230 H 0.15190 0.69524 -0.25016
 H231 H 0.19129 0.65177 -0.25038
 H232 H 0.30175 0.64627 -0.24759
 H233 H 0.19829 0.85687 -0.25411
 H234 H 0.31104 0.85162 -0.25164
 H235 H 0.34954 0.80922 -0.24605
 H236 H 0.34863 0.69153 -0.24499
 H237 H 0.17873 0.83216 -0.21612
 H238 H 0.23593 0.76516 -0.15336
 H239 H 0.26451 0.73710 -0.34581
 H240 H 0.32416 0.67247 -0.28298
 Zr241 Zr 1.25062 1.24873 0.79640
 O242 O 1.22738 1.22166 0.82695
 O243 O 1.27961 1.27933 0.81951
 O244 O 1.28116 1.21848 0.81852
 O245 O 1.18827 1.30165 0.78632
 O246 O 1.30856 1.19044 0.78630
 O247 O 1.21807 1.27673 0.81866
 O248 O 1.30741 1.30709 0.78742
 O249 O 1.29218 1.24996 0.77387
 O250 O 1.24902 1.29184 0.77377
 O251 O 1.25059 1.20582 0.77301
 O252 O 1.20912 1.24597 0.77341
 Zr253 Zr 1.24995 1.24788 0.70207
 Zr254 Zr 1.29114 1.20843 0.74916
 Zr255 Zr 1.20941 1.28823 0.74933
 Zr256 Zr 1.28933 1.29206 0.75014
 O257 O 1.16027 1.28271 0.74637
 O258 O 1.33868 1.28642 0.74885
 O259 O 1.24975 1.29124 0.72515
 O260 O 1.29097 1.25085 0.72541
 O261 O 1.25148 1.20448 0.72447
 O262 O 1.20863 1.24679 0.72481
 C263 C 1.30075 1.29970 0.81193
 C264 C 1.19511 1.29489 0.81105
 C265 C 1.30146 1.19714 0.81100
 O266 O 1.34032 1.21453 0.74937
 O267 O 1.30978 1.19169 0.71200
 O268 O 1.28096 1.21810 0.67983
 C269 C 1.30294 1.19861 0.68729
 O270 O 1.19038 1.18620 0.78428
 Zr271 Zr 1.21107 1.20473 0.74830
 O272 O 1.22201 1.21620 0.67898
 O273 O 1.28854 1.15684 0.74898
 O274 O 1.22002 1.15378 0.74907
 O275 O 1.16165 1.20903 0.74600
 O276 O 1.19716 1.18545 0.71099
 C277 C 1.20346 1.19323 0.68649
 O278 O 1.27437 1.27369 0.67145
 O279 O 1.21147 1.33975 0.75221
 O280 O 1.22134 1.28029 0.67998
 O281 O 1.19545 1.30951 0.71239
 O282 O 1.28202 1.34318 0.75298
 O283 O 1.30507 1.31516 0.71411
 C284 C 1.20259 1.30305 0.68768
 H285 H 1.24790 1.31160 0.78526
 H286 H 1.30986 1.25241 0.71387
 H287 H 1.18961 1.24679 0.71338
 H288 H 1.25038 1.18605 0.78454
 H289 H 1.34814 1.30776 0.75358
 H290 H 1.34955 1.19233 0.74968
 H291 H 1.31038 1.14871 0.74868
 H292 H 1.20028 1.14246 0.74429
 H293 H 1.30246 1.35337 0.75734
 H294 H 1.18956 1.34767 0.75248
 H295 H 1.15128 1.30501 0.74608
 H296 H 1.15315 1.18710 0.74176
 H297 H 1.32216 1.33062 0.71847
 H298 H 1.26679 1.26557 0.65371
 H299 H 1.23474 1.22999 0.84468
 H300 H 1.17697 1.16722 0.77985
 Zr301 Zr 0.74803 0.74876 0.79786
 O302 O 0.77038 0.77497 0.82934
 O303 O 0.71941 0.71660 0.82000
 O304 O 0.71702 0.77809 0.82052
 O305 O 0.81160 0.69759 0.78686
 O306 O 0.68988 0.80710 0.78879
 O307 O 0.78103 0.72084 0.81955
 O308 O 0.69253 0.68939 0.78711
 O309 O 0.70671 0.74768 0.77512
 O310 O 0.75057 0.70651 0.77421
 O311 O 0.74784 0.79245 0.77547
 O312 O 0.78971 0.75290 0.77511
 Zr313 Zr 0.74961 0.75311 0.70352
 Zr314 Zr 0.70752 0.79012 0.75142
 Zr315 Zr 0.79033 0.71155 0.75001
 Zr316 Zr 0.71050 0.70651 0.75037
 O317 O 0.83941 0.71787 0.74724
 O318 O 0.66106 0.71120 0.74917
 O319 O 0.75022 0.70891 0.72556
 O320 O 0.70849 0.74861 0.72665
 O321 O 0.74733 0.79560 0.72699
 O322 O 0.79073 0.75388 0.72646
 C323 C 0.69889 0.69590 0.81181
 C324 C 0.80451 0.70358 0.81170
 C325 C 0.69685 0.79976 0.81337
 O326 O 0.65846 0.78310 0.75160
 O327 O 0.68870 0.80776 0.71471
 O328 O 0.71808 0.78312 0.68194
 C329 C 0.69568 0.80184 0.68987
 O330 O 0.80771 0.81243 0.78753
 Zr331 Zr 0.78756 0.79498 0.75101
 O332 O 0.77739 0.78610 0.68144
 O333 O 0.70943 0.84174 0.75205
 O334 O 0.77817 0.84579 0.75303
 O335 O 0.83702 0.79109 0.74886
 O336 O 0.80159 0.81591 0.71434
 C337 C 0.79564 0.80899 0.68963
 O338 O 0.72591 0.72834 0.67198
 O339 O 0.78904 0.65993 0.75194
 O340 O 0.77869 0.72178 0.68082
 O341 O 0.80467 0.69161 0.71257
 O342 O 0.71907 0.65551 0.75168
 O343 O 0.69498 0.68478 0.71374
 C344 C 0.79758 0.69889 0.68798
 H345 H 0.75196 0.68638 0.78525
 H346 H 0.68969 0.74715 0.71503
 H347 H 0.80983 0.75453 0.71511
 H348 H 0.74775 0.81183 0.78741
 H349 H 0.65198 0.68946 0.75323
 H350 H 0.64885 0.80511 0.75227
 H351 H 0.68747 0.84958 0.75204
 H352 H 0.79787 0.85748 0.74867
 H353 H 0.69893 0.64459 0.75588
 H354 H 0.81108 0.65239 0.75208
 H355 H 0.84870 0.69571 0.74663
 H356 H 0.84542 0.81321 0.74510
 H357 H 0.67866 0.66830 0.71776
 H358 H 0.73363 0.73730 0.65455
 H359 H 0.76295 0.76580 0.84680
 H360 H 0.82130 0.83144 0.78357
 Zr361 Zr 1.25085 0.74814 0.20245
 O362 O 1.22833 0.77474 0.17126
 O363 O 1.27969 0.71669 0.17995
 O364 O 1.28173 0.77803 0.18022
 O365 O 1.18801 0.69582 0.21255
 O366 O 1.30840 0.80680 0.21237
 O367 O 1.21835 0.72022 0.18026
 O368 O 1.30700 0.68934 0.21252
 O369 O 1.29212 0.74721 0.22526
 O370 O 1.24883 0.70537 0.22553
 O371 O 1.25042 0.79138 0.22537
 O372 O 1.20904 0.75118 0.22509
 Zr373 Zr 1.24891 0.75051 0.29676
 Zr374 Zr 1.29066 0.78914 0.24950
 Zr375 Zr 1.20893 0.70930 0.24964
 Zr376 Zr 1.28884 0.70550 0.24946
 O377 O 1.15976 0.71469 0.25247
 O378 O 1.33819 0.71103 0.25078
 O379 O 1.24898 0.70677 0.27416
 O380 O 1.29018 0.74713 0.27373
 O381 O 1.25070 0.79352 0.27388
 O382 O 1.20786 0.75111 0.27371
 C383 C 1.30042 0.69610 0.18790
 C384 C 1.19513 0.70241 0.18783
 C385 C 1.30169 0.79972 0.18769
 O386 O 1.33983 0.78301 0.24958
 O387 O 1.30895 0.80648 0.28649
 O388 O 1.27968 0.78078 0.31883
 C389 C 1.30183 0.80005 0.31123
 O390 O 1.19068 0.81114 0.21342
 Zr391 Zr 1.21056 0.79278 0.24976
 O392 O 1.22034 0.78226 0.31928
 O393 O 1.28806 0.84073 0.24923
 O394 O 1.21915 0.84380 0.24886
 O395 O 1.16116 0.78784 0.25132
 O396 O 1.19580 0.81236 0.28671
 C397 C 1.20162 0.80487 0.31134
 O398 O 1.27308 0.72546 0.32791
 O399 O 1.21090 0.65776 0.24694
 O400 O 1.22031 0.71816 0.31894
 O401 O 1.19484 0.68826 0.28673
 O402 O 1.28105 0.65438 0.24750
 O403 O 1.30454 0.68323 0.28583
 C404 C 1.20182 0.69509 0.31141
 H405 H 1.24772 0.68543 0.21425
 H406 H 1.30894 0.74577 0.28540
 H407 H 1.18870 0.75116 0.28500
 H408 H 1.25035 0.81099 0.21366
 H409 H 1.34761 0.68954 0.24644
 H410 H 1.34910 0.80520 0.24912
 H411 H 1.30990 0.84889 0.24956
 H412 H 1.19918 0.85498 0.25318
 H413 H 1.30139 0.64387 0.24333
 H414 H 1.18897 0.64988 0.24667
 H415 H 1.15081 0.69237 0.25275
 H416 H 1.15233 0.80963 0.25555
 H417 H 1.32131 0.66732 0.28165
 H418 H 1.26518 0.73383 0.34547
 H419 H 1.23591 0.76603 0.15370
 H420 H 1.17652 0.82959 0.21766
 Zr421 Zr 0.75056 1.25252 0.20343
 O422 O 0.77310 1.22584 0.17229
 O423 O 0.72181 1.28411 0.18096
 O424 O 0.71958 1.22265 0.18129
 O425 O 0.81337 1.30493 0.21350
 O426 O 0.69289 1.19385 0.21351
 O427 O 0.78319 1.28046 0.18121
 O428 O 0.69455 1.31151 0.21355
 O429 O 0.70928 1.25332 0.22632
 O430 O 0.75254 1.29522 0.22654
 O431 O 0.75101 1.20925 0.22636
 O432 O 0.79236 1.24948 0.22603
 Zr433 Zr 0.75249 1.24997 0.29777
 Zr434 Zr 0.71076 1.21135 0.25060
 Zr435 Zr 0.79243 1.29131 0.25060
 Zr436 Zr 0.71249 1.29499 0.25050
 O437 O 0.84162 1.28597 0.25327
 O438 O 0.66317 1.28912 0.25163
 O439 O 0.75235 1.29375 0.27516
 O440 O 0.71120 1.25332 0.27483
 O441 O 0.75075 1.20701 0.27487
 O442 O 0.79354 1.24945 0.27465
 C443 C 0.70116 1.30481 0.18891
 C444 C 0.80638 1.29831 0.18877
 C445 C 0.69954 1.20100 0.18881
 O446 O 0.66159 1.21739 0.25096
 O447 O 0.69272 1.19369 0.28769
 O448 O 0.72198 1.21943 0.31992
 C449 C 0.69996 1.19998 0.31242
 O450 O 0.81099 1.18969 0.21434
 Zr451 Zr 0.79087 1.20783 0.25068
 O452 O 0.78107 1.21820 0.32024
 O453 O 0.71346 1.15977 0.25016
 O454 O 0.78223 1.15683 0.24955
 O455 O 0.84028 1.21270 0.25236
 O456 O 0.80549 1.18807 0.28762
 C457 C 0.79967 1.19550 0.31227
 O458 O 0.72817 1.27495 0.32888
 O459 O 0.79036 1.34286 0.24801
 O460 O 0.78107 1.28223 0.31998
 O461 O 0.80656 1.31215 0.28771
 O462 O 0.72017 1.34614 0.24879
 O463 O 0.69653 1.31706 0.28687
 C464 C 0.79962 1.30526 0.31242
 H465 H 0.75367 1.31519 0.21528
 H466 H 0.69245 1.25457 0.28656
 H467 H 0.81269 1.24937 0.28590
 H468 H 0.75107 1.18968 0.21463
 H469 H 0.65366 1.31054 0.24720
 H470 H 0.65237 1.19517 0.25057
 H471 H 0.69163 1.15156 0.25066
 H472 H 0.80211 1.14559 0.25404
 H473 H 0.69982 1.35664 0.24465
 H474 H 0.81228 1.35079 0.24768
 H475 H 0.85055 1.30831 0.25360
 H476 H 0.84908 1.19089 0.25654
 H477 H 0.67951 1.33268 0.28269
 H478 H 0.73601 1.26658 0.34646
 H479 H 0.76560 1.23459 0.15473
 H480 H 0.82509 1.17120 0.21858
 O481 O 0.54261 1.05851 0.05057
 O482 O 0.57813 1.02978 0.02497
 C483 C 0.57089 1.05073 0.04372
 O484 O 0.45595 0.94206 0.04858
 O485 O 0.42081 0.97245 0.02397
 C486 C 0.42778 0.95020 0.04171
 O487 O 0.54271 0.94517 0.05153
 O488 O 0.57818 0.97324 0.02535
 C489 C 0.57098 0.95282 0.04449
 O490 O 0.45597 1.06154 0.04758
 O491 O 0.42084 1.03056 0.02346
 C492 C 0.42779 1.05318 0.04087
 Zr493 Zr 0.49945 1.04274 0.03467
 O494 O 0.49675 1.04444 0.07737
 O495 O 0.50086 1.09419 0.03130
 Zr496 Zr 0.49945 0.96089 0.03573
 O497 O 0.49767 0.96520 0.07828
 O498 O 0.50247 0.90934 0.03766
 O499 O 0.52765 1.00184 0.04053
 O500 O 0.47188 1.00187 0.04009
 O501 O 0.45668 1.06070 -0.04631
 O502 O 0.42119 1.03016 -0.02208
 C503 C 0.42841 1.05248 -0.03973
 O504 O 0.54284 0.94359 -0.04787
 O505 O 0.57823 0.97228 -0.02214
 C506 C 0.57108 0.95127 -0.04086
 O507 O 0.45607 0.94152 -0.04584
 O508 O 0.42083 0.97224 -0.02159
 C509 C 0.42784 0.94992 -0.03924
 O510 O 0.54335 1.05717 -0.04895
 O511 O 0.57847 1.02884 -0.02267
 C512 C 0.57152 1.04924 -0.04188
 Zr513 Zr 0.49996 1.04157 -0.03331
 O514 O 0.49869 1.03738 -0.07588
 O515 O 0.50261 1.09314 -0.03487
 Zr516 Zr 0.49962 0.95972 -0.03238
 O517 O 0.49709 0.95916 -0.07511
 O518 O 0.50266 0.90810 -0.03113
 Zr519 Zr 0.54699 1.00111 0.00131
 Zr520 Zr 0.45246 1.00124 0.00105
 O521 O 0.47228 1.00072 -0.03789
 O522 O 0.52805 1.00051 -0.03802
 O523 O 0.47167 1.04863 0.00054
 O524 O 0.52687 0.95418 0.00180
 O525 O 0.52719 1.04816 0.00073
 O526 O 0.47150 0.95376 0.00167
 H527 H 0.45776 1.00210 0.05600
 H528 H 0.54069 0.93475 0.00208
 H529 H 0.45833 1.00067 -0.05387
 H530 H 0.54112 1.06751 0.00054
 H531 H 0.48728 0.90046 0.02451
 H532 H 0.48400 0.89984 -0.02142
 H533 H 0.51172 0.97605 -0.08185
 H534 H 0.49851 1.05999 -0.08305
 H535 H 0.48970 1.10157 -0.01980
 H536 H 0.50053 1.10277 0.05003
 H537 H 0.50987 1.02640 0.08436
 H538 H 0.49770 0.94261 0.08547
 O539 O 1.04351 0.55834 0.55052
 O540 O 1.07875 0.52948 0.52474
 C541 C 1.07171 0.55039 0.54358
 O542 O 0.95625 0.44244 0.54859
 O543 O 0.92113 0.47302 0.52410
 C544 C 0.92808 0.45072 0.54183
 O545 O 1.04302 0.44509 0.55128
 O546 O 1.07852 0.47297 0.52500
 C547 C 1.07130 0.45265 0.54421
 O548 O 0.95683 0.56191 0.54777
 O549 O 0.92145 0.53120 0.52369
 C550 C 0.92857 0.55370 0.54116
 Zr551 Zr 1.00019 0.54290 0.53467
 O552 O 0.99764 0.54442 0.57737
 O553 O 1.00192 0.59436 0.53144
 Zr554 Zr 0.99977 0.46106 0.53558
 O555 O 0.99826 0.46532 0.57815
 O556 O 1.00252 0.40949 0.53741
 O557 O 1.02820 0.50183 0.54036
 O558 O 0.97242 0.50218 0.54009
 O559 O 0.95729 0.56136 0.45374
 O560 O 0.92169 0.53109 0.47811
 C561 C 0.92898 0.55336 0.46042
 O562 O 1.04269 0.44393 0.45163
 O563 O 1.07835 0.47216 0.47742
 C564 C 1.07100 0.45145 0.45852
 O565 O 0.95595 0.44214 0.45413
 O566 O 0.92094 0.47304 0.47849
 C567 C 0.92778 0.45070 0.46078
 O568 O 1.04403 0.55709 0.45090
 O569 O 1.07901 0.52860 0.47717
 C570 C 1.07217 0.54901 0.45794
 Zr571 Zr 1.00048 0.54191 0.46667
 O572 O 0.99897 0.53782 0.42409
 O573 O 1.00352 0.59348 0.46532
 Zr574 Zr 0.99964 0.46006 0.46747
 O575 O 0.99677 0.45956 0.42475
 O576 O 1.00258 0.40844 0.46866
 Zr577 Zr 1.04739 0.50107 0.50109
 Zr578 Zr 0.95284 0.50178 0.50111
 O579 O 0.97253 0.50124 0.46212
 O580 O 1.02829 0.50069 0.46182
 O581 O 0.97232 0.54905 0.50062
 O582 O 1.02703 0.45426 0.50155
 O583 O 1.02785 0.54823 0.50066
 O584 O 0.97163 0.45418 0.50160
 H585 H 0.95837 0.50244 0.55604
 H586 H 1.04080 0.43479 0.50173
 H587 H 0.95852 0.50131 0.44617
 H588 H 1.04194 0.56747 0.50045
 H589 H 0.98724 0.40077 0.52427
 H590 H 0.98394 0.40023 0.47841
 H591 H 1.01128 0.47652 0.41792
 H592 H 0.99917 0.56045 0.41696
 H593 H 0.99031 0.60195 0.48019
 H594 H 1.00173 0.60286 0.55020
 H595 H 1.01058 0.52619 0.58424
 H596 H 0.99825 0.44273 0.58534
 O597 O 0.94515 0.45628 -0.05050
 O598 O 0.97244 0.41913 -0.02479
 C599 C 0.95246 0.42675 -0.04366
 O600 O 1.05827 0.54528 -0.04828
 O601 O 1.02925 0.58292 -0.02456
 C602 C 1.05082 0.57494 -0.04202
 O603 O 1.05440 0.45542 -0.05078
 O604 O 1.02694 0.41858 -0.02489
 C605 C 1.04687 0.42598 -0.04385
 O606 O 0.94283 0.54663 -0.04788
 O607 O 0.97269 0.58350 -0.02406
 C608 C 0.95099 0.57610 -0.04147
 Zr609 Zr 0.96052 0.50126 -0.03466
 O610 O 0.95873 0.50394 -0.07737
 O611 O 0.91121 0.50016 -0.03110
 Zr612 Zr 1.03885 0.50061 -0.03568
 O613 O 1.03300 0.50183 -0.07810
 O614 O 1.08804 0.49889 -0.04015
 O615 O 0.99950 0.47139 -0.04034
 O616 O 0.99993 0.52980 -0.04027
 O617 O 0.94336 0.54664 0.04610
 O618 O 0.97269 0.58347 0.02166
 C619 C 0.95122 0.57610 0.03941
 O620 O 1.05500 0.45593 0.04821
 O621 O 1.02635 0.41880 0.02360
 C622 C 1.04682 0.42643 0.04207
 O623 O 1.05800 0.54604 0.04573
 O624 O 1.02864 0.58310 0.02175
 C625 C 1.05015 0.57553 0.03927
 O626 O 0.94593 0.45632 0.04893
 O627 O 0.97318 0.41909 0.02326
 C628 C 0.95341 0.42675 0.04225
 Zr629 Zr 0.96137 0.50141 0.03310
 O630 O 0.96234 0.50533 0.07579
 O631 O 0.91188 0.49860 0.03316
 Zr632 Zr 1.03989 0.50100 0.03244
 O633 O 1.04009 0.50469 0.07517
 O634 O 1.08937 0.49753 0.03166
 Zr635 Zr 1.00008 0.45151 -0.00100
 Zr636 Zr 1.00067 0.55052 -0.00139
 O637 O 1.00081 0.52991 0.03761
 O638 O 1.00053 0.47183 0.03822
 O639 O 0.95508 0.53079 -0.00085
 O640 O 1.04519 0.47218 -0.00153
 O641 O 0.95510 0.47257 -0.00068
 O642 O 1.04597 0.52995 -0.00178
 H643 H 0.99993 0.54451 -0.05619
 H644 H 1.06358 0.45744 -0.00149
 H645 H 1.00089 0.54451 0.05358
 H646 H 0.93647 0.45814 -0.00051
 H647 H 1.09690 0.49741 -0.02178
 H648 H 1.09747 0.51629 0.02112
 H649 H 1.02722 0.48664 0.08249
 H650 H 0.97427 0.48651 0.08290
 H651 H 0.90414 0.51421 0.01943
 H652 H 0.90291 0.50008 -0.04980
 H653 H 0.97525 0.48932 -0.08445
 H654 H 1.05434 0.50207 -0.08596
 O655 O 0.44312 1.04518 0.45172
 O656 O 0.47264 1.08190 0.47592
 C657 C 0.45121 1.07462 0.45823
 O658 O 0.44341 0.95578 0.54906
 O659 O 0.47083 0.91806 0.52406
 C660 C 0.45074 0.92609 0.54272
 O661 O 0.44168 1.04591 0.54526
 O662 O 0.47214 1.08228 0.52146
 C663 C 0.45013 1.07523 0.53872
 O664 O 0.44446 0.95474 0.44999
 O665 O 0.47108 0.91756 0.47618
 C666 C 0.45146 0.92522 0.45710
 Zr667 Zr 0.46037 0.99972 0.46531
 O668 O 0.41085 0.99768 0.46422
 O669 O 0.46411 1.00059 0.42270
 Zr670 Zr 0.46014 1.00040 0.53349
 O671 O 0.41078 1.00030 0.53704
 O672 O 0.46522 1.00203 0.57596
 O673 O 0.45432 1.02927 0.49914
 O674 O 0.45395 0.97159 0.49960
 O675 O 0.55313 0.95300 0.45005
 O676 O 0.52535 0.91669 0.47624
 C677 C 0.54529 0.92368 0.45717
 O678 O 0.55657 1.04456 0.54677
 O679 O 0.52823 1.08163 0.52183
 C680 C 0.54923 1.07409 0.53985
 O681 O 0.55280 0.95431 0.54988
 O682 O 0.52516 0.91731 0.52432
 C683 C 0.54497 0.92484 0.54332
 O684 O 0.55743 1.04312 0.45198
 O685 O 0.52895 1.08085 0.47610
 C686 C 0.55033 1.07279 0.45855
 Zr687 Zr 0.53868 0.99846 0.46558
 O688 O 0.58808 0.99408 0.46600
 O689 O 0.53832 1.00110 0.42283
 Zr690 Zr 0.53840 0.99936 0.53361
 O691 O 0.58782 0.99510 0.53309
 O692 O 0.53806 1.00293 0.57630
 Zr693 Zr 0.50003 1.04882 0.49909
 Zr694 Zr 0.49860 0.94993 0.49992
 O695 O 0.54392 0.97018 0.49986
 O696 O 0.54524 1.02812 0.49936
 O697 O 0.49907 0.96951 0.46049
 O698 O 0.49954 1.02880 0.53825
 O699 O 0.49995 1.02786 0.46029
 O700 O 0.49879 0.97040 0.53904
 H701 H 0.43521 0.95733 0.49958
 H702 H 0.49949 1.04374 0.55401
 H703 H 0.56222 0.95531 0.50000
 H704 H 0.50028 1.04236 0.44424
 H705 H 0.44374 1.00340 0.58346
 H706 H 0.52257 0.98695 0.58316
 H707 H 0.59627 1.01393 0.52289
 H708 H 0.59648 1.01232 0.47689
 H709 H 0.52232 0.98551 0.41630
 H710 H 0.44239 1.00109 0.41568
 H711 H 0.40288 1.01524 0.47612
 H712 H 0.40224 0.99560 0.51893
 O713 O 1.05766 0.94091 0.53655
 O714 O 1.02898 0.97062 0.56724
 C715 C 1.05029 0.94943 0.56090
 O716 O 1.05494 1.05620 0.46112
 O717 O 1.02574 1.02561 0.43148
 C718 C 1.04635 1.04780 0.43707
 O719 O 1.06002 1.05306 0.53588
 O720 O 1.02950 1.02589 0.56688
 C721 C 1.05195 1.04564 0.56030
 O722 O 1.05231 0.93690 0.46181
 O723 O 1.02454 0.96845 0.43175
 C724 C 1.04435 0.94561 0.43764
 Zr725 Zr 1.03857 0.95587 0.49942
 O726 O 1.08790 0.95291 0.49636
 O727 O 1.03398 0.90451 0.50117
 Zr728 Zr 1.04084 1.03785 0.49893
 O729 O 1.09004 1.03308 0.49662
 O730 O 1.04394 1.08934 0.50150
 O731 O 1.04635 0.99692 0.52327
 O732 O 1.04500 0.99658 0.47540
 O733 O 0.94444 0.93888 0.46391
 O734 O 0.97203 0.96918 0.43283
 C735 C 0.95184 0.94692 0.43947
 O736 O 0.94529 1.05620 0.53773
 O737 O 0.97478 1.02657 0.56786
 C738 C 0.95347 1.04790 0.56191
 O739 O 0.94670 1.05856 0.46287
 O740 O 0.97326 1.02671 0.43225
 C741 C 0.95372 1.04969 0.43855
 O742 O 0.94247 0.94357 0.53852
 O743 O 0.97340 0.97208 0.56827
 C744 C 0.95094 0.95196 0.56259
 Zr745 Zr 0.96009 0.95807 0.50079
 O746 O 0.91062 0.95939 0.49829
 O747 O 0.95906 0.90654 0.50404
 Zr748 Zr 0.96217 1.04018 0.50017
 O749 O 0.91272 1.04226 0.49789
 O750 O 0.96430 1.09177 0.50298
 Zr751 Zr 1.00122 0.99834 0.54044
 Zr752 Zr 0.99947 0.99775 0.45928
 O753 O 0.95472 0.99904 0.47699
 O754 O 0.95535 0.99951 0.52471
 O755 O 0.99869 0.95038 0.47593
 O756 O 1.00215 1.04529 0.52311
 O757 O 0.99972 0.95108 0.52391
 O758 O 1.00113 1.04539 0.47534
 H759 H 1.06324 0.99607 0.46301
 H760 H 1.00287 1.06474 0.53501
 H761 H 0.93601 0.99927 0.46517
 H762 H 0.99957 0.93207 0.53632
 H763 H 1.02874 1.09848 0.48848
 H764 H 0.97569 1.09994 0.48692
 H765 H 0.90428 1.02811 0.51237
 H766 H 0.90288 0.97299 0.51340
 H767 H 0.97497 0.89786 0.49140
 H768 H 1.05555 0.89560 0.50079
 H769 H 1.09652 0.97185 0.50628
 H770 H 1.09858 1.05559 0.49629
 O771 O 0.55282 0.43719 -0.03747
 O772 O 0.52513 0.46802 -0.06806
 C773 C 0.54493 0.44531 -0.06178
 O774 O 0.44224 0.44428 0.03834
 O775 O 0.47284 0.47335 0.06799
 C776 C 0.45058 0.45295 0.06238
 O777 O 0.44508 0.43841 -0.03627
 O778 O 0.47279 0.46840 -0.06745
 C779 C 0.45280 0.44601 -0.06074
 O780 O 0.55714 0.44224 0.03730
 O781 O 0.52818 0.47250 0.06741
 C782 C 0.54955 0.45123 0.06147
 Zr783 Zr 0.53884 0.45699 -0.00015
 O784 O 0.53914 0.40546 0.00357
 O785 O 0.58824 0.45928 -0.00204
 Zr786 Zr 0.46004 0.45842 0.00059
 O787 O 0.45735 0.40701 0.00451
 O788 O 0.41073 0.46272 -0.00059
 O789 O 0.49907 0.45057 -0.02377
 O790 O 0.49962 0.45210 0.02391
 O791 O 0.55910 0.55448 0.03530
 O792 O 0.52845 0.52767 0.06644
 C793 C 0.55088 0.54739 0.05976
 O794 O 0.44611 0.55800 -0.03843
 O795 O 0.47341 0.52613 -0.06855
 C796 C 0.45357 0.54898 -0.06261
 O797 O 0.44376 0.55651 0.03635
 O798 O 0.47350 0.52786 0.06697
 C799 C 0.45191 0.54874 0.06066
 O800 O 0.55488 0.55632 -0.03946
 O801 O 0.52594 0.52529 -0.06899
 C802 C 0.54647 0.54760 -0.06348
 Zr803 Zr 0.54003 0.53898 -0.00159
 O804 O 0.54032 0.59062 0.00079
 O805 O 0.58945 0.53842 -0.00466
 Zr806 Zr 0.46143 0.54030 -0.00088
 O807 O 0.46293 0.59195 0.00132
 O808 O 0.41194 0.54125 -0.00294
 Zr809 Zr 0.49961 0.49764 -0.04109
 Zr810 Zr 0.50059 0.49955 0.04008
 O811 O 0.50109 0.54626 0.02233
 O812 O 0.50055 0.54559 -0.02557
 O813 O 0.54588 0.49843 0.02326
 O814 O 0.45463 0.49880 -0.02382
 O815 O 0.54497 0.49730 -0.02460
 O816 O 0.45490 0.50001 0.02410
 H817 H 0.49945 0.43309 0.03633
 H818 H 0.43608 0.49869 -0.03583
 H819 H 0.50148 0.56577 0.03418
 H820 H 0.56331 0.49673 -0.03687
 H821 H 0.40237 0.44015 0.00012
 H822 H 0.40409 0.52413 0.00946
 H823 H 0.47474 0.59996 -0.01457
 H824 H 0.52814 0.59908 -0.01469
 H825 H 0.59708 0.52084 0.00738
 H826 H 0.59574 0.43638 -0.00192
 H827 H 0.52514 0.39658 -0.01054
 H828 H 0.47250 0.39752 -0.00839
 C829 C 0.36528 1.10430 0.08671
 C830 C 0.36306 1.13856 0.08327
 C831 C 0.34852 1.15804 0.10352
 C832 C 0.33622 1.14314 0.12711
 C833 C 0.33688 1.10869 0.12980
 C834 C 0.35139 1.08923 0.10952
 C835 C 0.35192 1.05489 0.11274
 C836 C 0.33836 1.04014 0.13528
 C837 C 0.32427 1.05913 0.15514
 C838 C 0.32352 1.09302 0.15257
 C839 C 0.34691 1.19226 0.09970
 C840 C 0.35921 1.20681 0.07652
 C841 C 0.37342 1.18776 0.05675
 C842 C 0.37544 1.15402 0.06000
 C843 C 0.32326 1.16320 0.14871
 C844 C 0.31232 1.17963 0.16667
 C845 C 0.38480 1.08516 0.06853
 C846 C 0.40313 1.06996 0.05486
 H847 H 0.36251 1.03911 0.09776
 H848 H 0.33870 1.01383 0.13729
 H849 H 0.31379 1.04752 0.17262
 H850 H 0.31221 1.10674 0.16851
 H851 H 0.33602 1.20807 0.11448
 H852 H 0.35768 1.23301 0.07388
 H853 H 0.38289 1.19916 0.03876
 H854 H 0.38653 1.14018 0.04401
 C855 C 0.86588 0.60384 0.58774
 C856 C 0.85991 0.63731 0.58270
 C857 C 0.84495 0.65679 0.60273
 C858 C 0.83595 0.64268 0.62773
 C859 C 0.84046 0.60881 0.63219
 C860 C 0.85540 0.58935 0.61213
 C861 C 0.85982 0.55563 0.61716
 C862 C 0.84972 0.54148 0.64126
 C863 C 0.83521 0.56048 0.66088
 C864 C 0.83059 0.59377 0.65652
 C865 C 0.83962 0.69025 0.59728
 C866 C 0.84873 0.70409 0.57274
 C867 C 0.86329 0.68503 0.55316
 C868 C 0.86891 0.65202 0.55799
 C869 C 0.82257 0.66300 0.64900
 C870 C 0.81144 0.67958 0.66680
 C871 C 0.88562 0.58524 0.56932
 C872 C 0.90399 0.57036 0.55542
 H873 H 0.87087 0.53982 0.60244
 H874 H 0.85311 0.51562 0.64470
 H875 H 0.82743 0.54937 0.67958
 H876 H 0.81912 0.60751 0.67236
 H877 H 0.82828 0.70602 0.61185
 H878 H 0.84442 0.72972 0.56888
 H879 H 0.87024 0.69585 0.53410
 H880 H 0.88015 0.63812 0.54211
 C881 C 0.63295 0.90214 0.09114
 C882 C 0.63911 0.86897 0.08498
 C883 C 0.65379 0.84852 0.10447
 C884 C 0.66232 0.86137 0.12999
 C885 C 0.65743 0.89490 0.13568
 C886 C 0.64269 0.91532 0.11622
 C887 C 0.63758 0.94860 0.12256
 C888 C 0.64677 0.96136 0.14743
 C889 C 0.66134 0.94146 0.16639
 C890 C 0.66663 0.90859 0.16071
 C891 C 0.65929 0.81535 0.09797
 C892 C 0.65063 0.80274 0.07291
 C893 C 0.63628 0.82272 0.05387
 C894 C 0.63050 0.85546 0.05974
 C895 C 0.67556 0.84007 0.15057
 C896 C 0.68661 0.82269 0.16781
 C897 C 0.61361 0.92159 0.07308
 C898 C 0.59545 0.93672 0.05922
 H899 H 0.62656 0.96510 0.10838
 H900 H 0.64257 0.98683 0.15200
 H901 H 0.66854 0.95153 0.18564
 H902 H 0.67801 0.89408 0.17613
 H903 H 0.67037 0.79885 0.11213
 H904 H 0.65511 0.77734 0.06824
 H905 H 0.62961 0.81280 0.03443
 H906 H 0.61939 0.87008 0.04425
 C907 C 1.13332 0.40378 0.59218
 C908 C 1.13399 0.41266 0.61985
 C909 C 1.14916 0.39211 0.63897
 C910 C 1.16362 0.36278 0.63036
 C911 C 1.16400 0.35454 0.60256
 C912 C 1.14884 0.37512 0.58342
 C913 C 1.14925 0.36619 0.55580
 C914 C 1.16423 0.33775 0.54729
 C915 C 1.17904 0.31764 0.56598
 C916 C 1.17899 0.32582 0.59333
 C917 C 1.14912 0.40133 0.66656
 C918 C 1.13440 0.42992 0.67503
 C919 C 1.11948 0.44993 0.65636
 C920 C 1.11930 0.44159 0.62906
 C921 C 1.17750 0.34091 0.65021
 C922 C 1.18885 0.32325 0.66712
 C923 C 1.11396 0.42232 0.57347
 C924 C 1.09578 0.43686 0.55919
 H925 H 1.13817 0.38116 0.54052
 H926 H 1.16437 0.33129 0.52608
 H927 H 1.19063 0.29558 0.55926
 H928 H 1.19085 0.30944 0.60711
 H929 H 1.16041 0.38658 0.68186
 H930 H 1.13454 0.43656 0.69621
 H931 H 1.10799 0.47205 0.66306
 H932 H 1.10761 0.45810 0.61529
 C933 C 0.63382 1.09790 -0.08974
 C934 C 0.64084 1.13101 -0.08408
 C935 C 0.65568 1.15074 -0.10401
 C936 C 0.66350 1.13725 -0.12949
 C937 C 0.65760 1.10379 -0.13475
 C938 C 0.64269 1.08409 -0.11484
 C939 C 0.63648 1.05090 -0.12079
 C940 C 0.64472 1.03755 -0.14571
 C941 C 0.65948 1.05674 -0.16509
 C942 C 0.66589 1.08949 -0.15980
 C943 C 0.66199 1.18389 -0.09800
 C944 C 0.65388 1.19718 -0.07303
 C945 C 0.63936 1.17790 -0.05356
 C946 C 0.63286 1.14518 -0.05891
 C947 C 0.67688 1.15792 -0.15048
 C948 C 0.68797 1.17498 -0.16796
 C949 C 0.61441 1.07924 -0.07114
 C950 C 0.59615 1.06475 -0.05688
 H951 H 0.62527 1.03493 -0.10627
 H952 H 0.63965 1.01218 -0.14998
 H953 H 0.66593 1.04621 -0.18438
 H954 H 0.67737 1.10345 -0.17553
 H955 H 0.67326 1.19986 -0.11248
 H956 H 0.65890 1.22258 -0.06877
 H957 H 0.63310 1.18835 -0.03420
 H958 H 0.62166 1.13111 -0.04310
 C959 C 1.13548 0.59785 0.41108
 C960 C 1.13963 0.63171 0.41567
 C961 C 1.15436 0.65147 0.39570
 C962 C 1.16486 0.63728 0.37122
 C963 C 1.16255 0.60307 0.36741
 C964 C 1.14791 0.58330 0.38744
 C965 C 1.14586 0.54920 0.38320
 C966 C 1.15821 0.53496 0.35994
 C967 C 1.17239 0.55427 0.34031
 C968 C 1.17448 0.58797 0.34384
 C969 C 1.15809 0.68526 0.40073
 C970 C 1.14780 0.69909 0.42487
 C971 C 1.13329 0.67983 0.44435
 C972 C 1.12910 0.64652 0.43987
 C973 C 1.17768 0.65789 0.34991
 C974 C 1.18838 0.67500 0.33226
 C975 C 1.11559 0.57892 0.42913
 C976 C 1.09699 0.56441 0.44307
 H977 H 1.13511 0.53318 0.39795
 H978 H 1.15689 0.50880 0.35718
 H979 H 1.18193 0.54306 0.32228
 H980 H 1.18576 0.60198 0.32804
 H981 H 1.16922 0.70126 0.38619
 H982 H 1.15122 0.72487 0.42852
 H983 H 1.12534 0.69073 0.46307
 H984 H 1.11789 0.63246 0.45569
 C985 C 0.36617 0.90234 -0.08833
 C986 C 0.34889 0.87436 -0.08054
 C987 C 0.33424 0.85461 -0.10056
 C988 C 0.33694 0.86297 -0.12827
 C989 C 0.35306 0.89176 -0.13594
 C990 C 0.36759 0.91155 -0.11593
 C991 C 0.38368 0.94013 -0.12416
 C992 C 0.38551 0.94883 -0.15135
 C993 C 0.37142 0.92944 -0.17090
 C994 C 0.35535 0.90121 -0.16341
 C995 C 0.31736 0.82660 -0.09226
 C996 C 0.31490 0.81839 -0.06499
 C997 C 0.32918 0.83771 -0.04546
 C998 C 0.34609 0.86537 -0.05304
 C999 C 0.32351 0.84188 -0.14894
 C1000 C 0.31246 0.82476 -0.16639
 C1001 C 0.38517 0.91984 -0.06866
 C1002 C 0.40325 0.93396 -0.05400
 H1003 H 0.39487 0.95614 -0.10970
 H1004 H 0.39792 0.97076 -0.15726
 H1005 H 0.37294 0.93630 -0.19200
 H1006 H 0.34475 0.88695 -0.17937
 H1007 H 0.30584 0.81084 -0.10672
 H1008 H 0.30182 0.79692 -0.05899
 H1009 H 0.32713 0.83125 -0.02431
 H1010 H 0.35671 0.87975 -0.03715
 C1011 C 0.86647 0.40320 0.41131
 C1012 C 0.84819 0.37591 0.41910
 C1013 C 0.83371 0.35608 0.39904
 C1014 C 0.83759 0.36363 0.37128
 C1015 C 0.85477 0.39172 0.36355
 C1016 C 0.86912 0.41161 0.38360
 C1017 C 0.88629 0.43947 0.37529
 C1018 C 0.88929 0.44739 0.34801
 C1019 C 0.87535 0.42791 0.32844
 C1020 C 0.85827 0.40036 0.33599
 C1021 C 0.81580 0.32878 0.40735
 C1022 C 0.81215 0.32135 0.43467
 C1023 C 0.82626 0.34074 0.45425
 C1024 C 0.84418 0.36770 0.44666
 C1025 C 0.82426 0.34245 0.35062
 C1026 C 0.81324 0.32522 0.33323
 C1027 C 0.88516 0.42075 0.43118
 C1028 C 0.90313 0.43487 0.44598
 H1029 H 0.89742 0.45552 0.38975
 H1030 H 0.90251 0.46877 0.34204
 H1031 H 0.87777 0.43416 0.30727
 H1032 H 0.84787 0.38599 0.32000
 H1033 H 0.80438 0.31298 0.39286
 H1034 H 0.79825 0.30044 0.44068
 H1035 H 0.82328 0.33489 0.47543
 H1036 H 0.85463 0.38217 0.46258
 C1037 C 1.09620 0.36614 0.09210
 C1038 C 1.08850 0.36741 0.11997
 C1039 C 1.10932 0.35404 0.13955
 C1040 C 1.13785 0.33949 0.13125
 C1041 C 1.14513 0.33739 0.10334
 C1042 C 1.12427 0.35071 0.08376
 C1043 C 1.13233 0.34863 0.05607
 C1044 C 1.16011 0.33377 0.04789
 C1045 C 1.18043 0.32073 0.06699
 C1046 C 1.17317 0.32250 0.09443
 C1047 C 1.10115 0.35595 0.16724
 C1048 C 1.07340 0.37084 0.17543
 C1049 C 1.05320 0.38410 0.15636
 C1050 C 1.06047 0.38235 0.12892
 C1051 C 1.15959 0.32679 0.15147
 C1052 C 1.17696 0.31585 0.16856
 C1053 C 1.07705 0.38389 0.07257
 C1054 C 1.06223 0.40139 0.05758
 H1055 H 1.11722 0.35836 0.04047
 H1056 H 1.16587 0.33234 0.02661
 H1057 H 1.20193 0.30912 0.06052
 H1058 H 1.18973 0.31205 0.10854
 H1059 H 1.11610 0.34603 0.18287
 H1060 H 1.06755 0.37210 0.19670
 H1061 H 1.03179 0.39582 0.16287
 H1062 H 1.04388 0.39282 0.11486
 C1063 C 0.59324 0.86432 0.59374
 C1064 C 0.58813 0.86986 0.62168
 C1065 C 0.60944 0.85714 0.64112
 C1066 C 0.63568 0.83862 0.63261
 C1067 C 0.63999 0.83184 0.60475
 C1068 C 0.61874 0.84474 0.58530
 C1069 C 0.62374 0.83787 0.55762
 C1070 C 0.64894 0.81871 0.54933
 C1071 C 0.66967 0.80608 0.56830
 C1072 C 0.66538 0.81252 0.59572
 C1073 C 0.60403 0.86358 0.66885
 C1074 C 0.57828 0.88190 0.67717
 C1075 C 0.55739 0.89418 0.65820
 C1076 C 0.56215 0.88833 0.63076
 C1077 C 0.65791 0.82633 0.65255
 C1078 C 0.67571 0.81573 0.66942
 C1079 C 0.57446 0.88197 0.57393
 C1080 C 0.56001 0.89962 0.55884
 H1081 H 0.60810 0.84700 0.54217
 H1082 H 0.65236 0.81359 0.52806
 H1083 H 0.68918 0.79119 0.56174
 H1084 H 0.68211 0.80215 0.60972
 H1085 H 0.61959 0.85452 0.68439
 H1086 H 0.57451 0.88657 0.69846
 H1087 H 0.53738 0.90833 0.66478
 H1088 H 0.54514 0.89826 0.61680
 C1089 C 1.10548 0.63076 -0.09142
 C1090 C 1.10926 0.66507 -0.09268
 C1091 C 1.12952 0.67924 -0.11245
 C1092 C 1.14596 0.65905 -0.13096
 C1093 C 1.14235 0.62469 -0.12955
 C1094 C 1.12214 0.61054 -0.10981
 C1095 C 1.11902 0.57609 -0.10904
 C1096 C 1.13528 0.55626 -0.12710
 C1097 C 1.15498 0.57009 -0.14632
 C1098 C 1.15857 0.60388 -0.14761
 C1099 C 1.13276 0.71361 -0.11320
 C1100 C 1.11654 0.73343 -0.09506
 C1101 C 1.09682 0.71958 -0.07583
 C1102 C 1.09313 0.68579 -0.07457
 C1103 C 1.16609 0.67351 -0.15175
 C1104 C 1.18242 0.68555 -0.16919
 C1105 C 1.08446 0.61565 -0.07164
 C1106 C 1.06803 0.59953 -0.05674
 H1107 H 1.10403 0.56402 -0.09450
 H1108 H 1.13258 0.52999 -0.12618
 H1109 H 1.16756 0.55456 -0.16030
 H1110 H 1.17421 0.61345 -0.16291
 H1111 H 1.14787 0.72552 -0.12777
 H1112 H 1.11931 0.75969 -0.09593
 H1113 H 1.08430 0.73511 -0.06179
 H1114 H 1.07755 0.67609 -0.05927
 C1115 C 0.60519 1.13249 0.41240
 C1116 C 0.59359 1.15723 0.39512
 C1117 C 0.61344 1.17136 0.37511
 C1118 C 0.64485 1.16060 0.37236
 C1119 C 0.65670 1.13649 0.39017
 C1120 C 0.63688 1.12247 0.41023
 C1121 C 0.64929 1.09819 0.42756
 C1122 C 0.68029 1.08801 0.42515
 C1123 C 0.69960 1.10168 0.40555
 C1124 C 0.68808 1.12566 0.38822
 C1125 C 0.60112 1.19589 0.35800
 C1126 C 0.57012 1.20611 0.36051
 C1127 C 0.55075 1.19222 0.37998
 C1128 C 0.56223 1.16805 0.39715
 C1129 C 0.66480 1.17396 0.35105
 C1130 C 0.68112 1.18532 0.33337
 C1131 C 0.58411 1.11495 0.43055
 C1132 C 0.56769 1.09760 0.44438
 H1133 H 0.63524 1.08687 0.44319
 H1134 H 0.68936 1.06938 0.43856
 H1135 H 0.72366 1.09365 0.40374
 H1136 H 0.70403 1.13554 0.37330
 H1137 H 0.61526 1.20741 0.34254
 H1138 H 0.56107 1.22491 0.34726
 H1139 H 0.52668 1.20021 0.38182
 H1140 H 0.54634 1.15805 0.41207
 C1141 C 0.90031 0.63771 0.08745
 C1142 C 0.86918 0.64643 0.08071
 C1143 C 0.84872 0.65931 0.10088
 C1144 C 0.85948 0.66355 0.12775
 C1145 C 0.89103 0.65621 0.13418
 C1146 C 0.91146 0.64339 0.11402
 C1147 C 0.94280 0.63619 0.12109
 C1148 C 0.95368 0.64145 0.14728
 C1149 C 0.93372 0.65381 0.16696
 C1150 C 0.90275 0.66113 0.16062
 C1151 C 0.81767 0.66742 0.09359
 C1152 C 0.80710 0.66312 0.06718
 C1153 C 0.82707 0.65065 0.04751
 C1154 C 0.85776 0.64231 0.05411
 C1155 C 0.83835 0.67561 0.14881
 C1156 C 0.82150 0.68606 0.16654
 C1157 C 0.91960 0.61940 0.06828
 C1158 C 0.93483 0.60148 0.05388
 H1159 H 0.95927 0.62668 0.10644
 H1160 H 0.97774 0.63592 0.15231
 H1161 H 0.94229 0.65781 0.18728
 H1162 H 0.88816 0.67073 0.17664
 H1163 H 0.80129 0.67722 0.10818
 H1164 H 0.78328 0.66953 0.06194
 H1165 H 0.81874 0.64745 0.02703
 H1166 H 0.87250 0.63287 0.03811
 C1167 C 0.40043 1.13732 0.58675
 C1168 C 0.36942 1.14659 0.58020
 C1169 C 0.34928 1.15936 0.60059
 C1170 C 0.36025 1.16287 0.62747
 C1171 C 0.39174 1.15497 0.63371
 C1172 C 0.41186 1.14226 0.61331
 C1173 C 0.44313 1.13435 0.62014
 C1174 C 0.45425 1.13882 0.64635
 C1175 C 0.43458 1.15114 0.66629
 C1176 C 0.40368 1.15915 0.66017
 C1177 C 0.31829 1.16805 0.59353
 C1178 C 0.30751 1.16437 0.56712
 C1179 C 0.32720 1.15195 0.54722
 C1180 C 0.35781 1.14306 0.55359
 C1181 C 0.33931 1.17464 0.64866
 C1182 C 0.32237 1.18492 0.66634
 C1183 C 0.41919 1.11893 0.56738
 C1184 C 0.43404 1.10081 0.55297
 H1185 H 0.45937 1.12487 0.60528
 H1186 H 0.47826 1.13272 0.65120
 H1187 H 0.44332 1.15454 0.68663
 H1188 H 0.38931 1.16868 0.67637
 H1189 H 0.30211 1.17783 0.60830
 H1190 H 0.28375 1.17122 0.56205
 H1191 H 0.31874 1.14923 0.52672
 H1192 H 0.37233 1.13368 0.53743
 C1193 C 0.90167 0.36492 -0.09146
 C1194 C 0.87094 0.35562 -0.08385
 C1195 C 0.85015 0.34203 -0.10336
 C1196 C 0.86017 0.33768 -0.13044
 C1197 C 0.89133 0.34577 -0.13779
 C1198 C 0.91209 0.35935 -0.11827
 C1199 C 0.94297 0.36744 -0.12623
 C1200 C 0.95311 0.36229 -0.15267
 C1201 C 0.93286 0.34908 -0.17172
 C1202 C 0.90230 0.34090 -0.16449
 C1203 C 0.81949 0.33334 -0.09523
 C1204 C 0.80963 0.33783 -0.06862
 C1205 C 0.82992 0.35106 -0.04959
 C1206 C 0.86024 0.35993 -0.05702
 C1207 C 0.83862 0.32489 -0.15078
 C1208 C 0.82142 0.31391 -0.16797
 C1209 C 0.92124 0.38352 -0.07278
 C1210 C 0.93645 0.40152 -0.05851
 H1211 H 0.95963 0.37762 -0.11209
 H1212 H 0.97683 0.36858 -0.15839
 H1213 H 0.94086 0.34514 -0.19224
 H1214 H 0.88745 0.33071 -0.18006
 H1215 H 0.80286 0.32298 -0.10932
 H1216 H 0.78610 0.33099 -0.06273
 H1217 H 0.82216 0.35446 -0.02894
 H1218 H 0.87523 0.36997 -0.04148
 C1219 C 0.40135 0.86346 0.40907
 C1220 C 0.37064 0.85399 0.41654
 C1221 C 0.34992 0.84079 0.39683
 C1222 C 0.36003 0.83704 0.36971
 C1223 C 0.39118 0.84530 0.36250
 C1224 C 0.41188 0.85845 0.38224
 C1225 C 0.44277 0.86680 0.37444
 C1226 C 0.45292 0.86241 0.34792
 C1227 C 0.43272 0.84960 0.32864
 C1228 C 0.40219 0.84109 0.33573
 C1229 C 0.31924 0.83195 0.40478
 C1230 C 0.30928 0.83599 0.43141
 C1231 C 0.32951 0.84886 0.45065
 C1232 C 0.35986 0.85783 0.44340
 C1233 C 0.33852 0.82473 0.34921
 C1234 C 0.32126 0.81406 0.33197
 C1235 C 0.42064 0.88198 0.42790
 C1236 C 0.43561 0.90001 0.44225
 H1237 H 0.45941 0.87666 0.38877
 H1238 H 0.47659 0.86902 0.34229
 H1239 H 0.44073 0.84625 0.30806
 H1240 H 0.38736 0.83124 0.32000
 H1241 H 0.30264 0.82186 0.39053
 H1242 H 0.28572 0.82910 0.43715
 H1243 H 0.32167 0.85192 0.47131
 H1244 H 0.37482 0.86760 0.45909
 C1245 C 1.09706 1.10049 0.38378
 C1246 C 1.09535 1.13484 0.38658
 C1247 C 1.11814 1.15487 0.37395
 C1248 C 1.14224 1.14033 0.35849
 C1249 C 1.14356 1.10601 0.35521
 C1250 C 1.12082 1.08598 0.36792
 C1251 C 1.12255 1.05168 0.36458
 C1252 C 1.14616 1.03761 0.34902
 C1253 C 1.16844 1.05723 0.33650
 C1254 C 1.16728 1.09105 0.33948
 C1255 C 1.11627 1.18917 0.37718
 C1256 C 1.09241 1.20326 0.39246
 C1257 C 1.07001 1.18364 0.40481
 C1258 C 1.07136 1.14980 0.40200
 C1259 C 1.16412 1.16074 0.34408
 C1260 C 1.18104 1.17709 0.33025
 C1261 C 1.07686 1.08019 0.39996
 C1262 C 1.06171 1.06444 0.41565
 H1263 H 1.10562 1.03546 0.37381
 H1264 H 1.14719 1.01135 0.34666
 H1265 H 1.18674 1.04619 0.32441
 H1266 H 1.18519 1.10527 0.32941
 H1267 H 1.13321 1.20543 0.36801
 H1268 H 1.09131 1.22953 0.39472
 H1269 H 1.05146 1.19467 0.41661
 H1270 H 1.05331 1.13558 0.41189
 C1271 C 0.59770 0.59999 -0.11648
 C1272 C 0.59264 0.63413 -0.11714
 C1273 C 0.61529 0.65481 -0.12921
 C1274 C 0.64263 0.64109 -0.14066
 C1275 C 0.64746 0.60690 -0.14037
 C1276 C 0.62483 0.58623 -0.12824
 C1277 C 0.63007 0.55208 -0.12799
 C1278 C 0.65704 0.53879 -0.13942
 C1279 C 0.67922 0.55904 -0.15135
 C1280 C 0.67461 0.59273 -0.15189
 C1281 C 0.61001 0.68896 -0.12948
 C1282 C 0.58298 0.70222 -0.11814
 C1283 C 0.56073 0.68194 -0.10633
 C1284 C 0.56539 0.64826 -0.10575
 C1285 C 0.66433 0.66178 -0.15496
 C1286 C 0.68116 0.67816 -0.16883
 C1287 C 0.57727 0.57970 -0.10052
 C1288 C 0.56195 0.56402 -0.08493
 H1289 H 0.61338 0.53534 -0.11907
 H1290 H 0.66075 0.51265 -0.13899
 H1291 H 0.70014 0.54861 -0.16019
 H1292 H 0.69261 0.60750 -0.16128
 H1293 H 0.62671 0.70572 -0.13833
 H1294 H 0.57928 0.72837 -0.11854
 H1295 H 0.53974 0.69235 -0.09759
 H1296 H 0.54736 0.63344 -0.09644
 C1297 C 0.90019 1.10118 0.61254
 C1298 C 0.88650 1.12830 0.59919
 C1299 C 0.86459 1.14814 0.61307
 C1300 C 0.85667 1.14070 0.64009
 C1301 C 0.87036 1.11360 0.65344
 C1302 C 0.89223 1.09371 0.63954
 C1303 C 0.90560 1.06663 0.65306
 C1304 C 0.89757 1.05945 0.67972
 C1305 C 0.87620 1.07898 0.69343
 C1306 C 0.86267 1.10577 0.68055
 C1307 C 0.85102 1.17508 0.59948
 C1308 C 0.85892 1.18218 0.57278
 C1309 C 0.88039 1.16276 0.55911
 C1310 C 0.89411 1.13612 0.57205
 C1311 C 0.83532 1.16140 0.65468
 C1312 C 0.81864 1.17780 0.66863
 C1313 C 0.92120 1.08033 0.59770
 C1314 C 0.93720 1.06428 0.58292
 H1315 H 0.92239 1.05081 0.64321
 H1316 H 0.90800 1.03866 0.68979
 H1317 H 0.87004 1.07334 0.71415
 H1318 H 0.84611 1.12014 0.69206
 H1319 H 0.83414 1.19085 0.60929
 H1320 H 0.84831 1.20284 0.56266
 H1321 H 0.88646 1.16834 0.53836
 H1322 H 0.91072 1.12184 0.56053
 C1323 C 0.39829 0.60185 0.11120
 C1324 C 0.39172 0.59513 0.13861
 C1325 C 0.37017 0.61509 0.15281
 C1326 C 0.35545 0.64149 0.13934
 C1327 C 0.36196 0.64816 0.11191
 C1328 C 0.38353 0.62824 0.09773
 C1329 C 0.38974 0.63526 0.07018
 C1330 C 0.37499 0.66121 0.05713
 C1331 C 0.35386 0.68073 0.07111
 C1332 C 0.34732 0.67439 0.09821
 C1333 C 0.36385 0.60803 0.18032
 C1334 C 0.37842 0.58193 0.19332
 C1335 C 0.39948 0.56234 0.17933
 C1336 C 0.40618 0.56876 0.15227
 C1337 C 0.33438 0.66223 0.15418
 C1338 C 0.31793 0.67861 0.16832
 C1339 C 0.41924 0.58112 0.09622
 C1340 C 0.43533 0.56515 0.08145
 H1341 H 0.40601 0.62086 0.05840
 H1342 H 0.37998 0.66618 0.03607
 H1343 H 0.34245 0.70087 0.06091
 H1344 H 0.33066 0.69019 0.10825
 H1345 H 0.34759 0.62249 0.19207
 H1346 H 0.37330 0.57689 0.21435
 H1347 H 0.41071 0.54206 0.18950
 H1348 H 0.42277 0.55291 0.14220
 C1349 C 1.10331 0.89745 0.61308
 C1350 C 1.11988 0.91095 0.63510
 C1351 C 1.14167 0.89140 0.64942
 C1352 C 1.14656 0.85851 0.64159
 C1353 C 1.12978 0.84493 0.61972
 C1354 C 1.10803 0.86449 0.60537
 C1355 C 1.09147 0.85046 0.58346
 C1356 C 1.09622 0.81799 0.57609
 C1357 C 1.11747 0.79882 0.59024
 C1358 C 1.13418 0.81202 0.61179
 C1359 C 1.15808 0.90536 0.67143
 C1360 C 1.15294 0.93768 0.67908
 C1361 C 1.13151 0.95677 0.66505
 C1362 C 1.11518 0.94373 0.64321
 C1363 C 1.16737 0.83821 0.65722
 C1364 C 1.18359 0.82209 0.67183
 C1365 C 1.08299 0.91780 0.59705
 C1366 C 1.06718 0.93341 0.58177
 H1367 H 1.07460 0.86433 0.57187
 H1368 H 1.08333 0.80766 0.55932
 H1369 H 1.12102 0.77361 0.58449
 H1370 H 1.15056 0.79619 0.62213
 H1371 H 1.17504 0.89151 0.68294
 H1372 H 1.16564 0.94795 0.69598
 H1373 H 1.12754 0.98184 0.67110
 H1374 H 1.09877 0.95953 0.63288
 C1375 C 0.60265 0.40047 0.11427
 C1376 C 0.63071 0.41383 0.12461
 C1377 C 0.65281 0.39311 0.13736
 C1378 C 0.64652 0.35929 0.13971
 C1379 C 0.61841 0.34595 0.12944
 C1380 C 0.59627 0.36667 0.11678
 C1381 C 0.56819 0.35291 0.10669
 C1382 C 0.56227 0.31955 0.10904
 C1383 C 0.58405 0.29922 0.12136
 C1384 C 0.61184 0.31213 0.13149
 C1385 C 0.68089 0.40685 0.14743
 C1386 C 0.68694 0.44016 0.14487
 C1387 C 0.66529 0.46046 0.13233
 C1388 C 0.63741 0.44760 0.12232
 C1389 C 0.66756 0.33878 0.15486
 C1390 C 0.68383 0.32248 0.16926
 C1391 C 0.58218 0.42053 0.09817
 C1392 C 0.56634 0.43571 0.08264
 H1393 H 0.55048 0.36776 0.09702
 H1394 H 0.54067 0.30943 0.10124
 H1395 H 0.57939 0.27331 0.12311
 H1396 H 0.62814 0.29531 0.14080
 H1397 H 0.69852 0.39200 0.15720
 H1398 H 0.70857 0.45025 0.15262
 H1399 H 0.67013 0.48629 0.13032
 H1400 H 0.62118 0.46437 0.11287
 C1401 C 0.89854 0.89267 0.38942
 C1402 C 0.88169 0.86798 0.40334
 C1403 C 0.85979 0.84846 0.38915
 C1404 C 0.85498 0.85384 0.36128
 C1405 C 0.87200 0.87834 0.34732
 C1406 C 0.89391 0.89785 0.36150
 C1407 C 0.91072 0.92225 0.34730
 C1408 C 0.90598 0.92719 0.31974
 C1409 C 0.88451 0.90808 0.30578
 C1410 C 0.86764 0.88391 0.31930
 C1411 C 0.84313 0.82391 0.40330
 C1412 C 0.84800 0.81883 0.43083
 C1413 C 0.86942 0.83798 0.44481
 C1414 C 0.88615 0.86229 0.43133
 C1415 C 0.83316 0.83383 0.34654
 C1416 C 0.81620 0.81811 0.33234
 C1417 C 0.91957 0.91338 0.40436
 C1418 C 0.93556 0.92969 0.41894
 H1419 H 0.92772 0.93765 0.35733
 H1420 H 0.91904 0.94593 0.30917
 H1421 H 0.88089 0.91198 0.28437
 H1422 H 0.85121 0.86972 0.30752
 H1423 H 0.82620 0.80844 0.39327
 H1424 H 0.83507 0.79996 0.44136
 H1425 H 0.87312 0.83399 0.46620
 H1426 H 0.90260 0.87645 0.44311
 C1427 C 0.40178 0.38970 -0.11104
 C1428 C 0.38561 0.36437 -0.09733
 C1429 C 0.36392 0.34469 -0.11160
 C1430 C 0.35865 0.35058 -0.13933
 C1431 C 0.37533 0.37543 -0.15317
 C1432 C 0.39701 0.39511 -0.13890
 C1433 C 0.41337 0.41997 -0.15294
 C1434 C 0.40848 0.42513 -0.18045
 C1435 C 0.38726 0.40582 -0.19451
 C1436 C 0.37078 0.38126 -0.18114
 C1437 C 0.34788 0.31953 -0.09765
 C1438 C 0.35315 0.31402 -0.07023
 C1439 C 0.37435 0.33334 -0.05617
 C1440 C 0.39046 0.35826 -0.06944
 C1441 C 0.33641 0.33104 -0.15402
 C1442 C 0.31901 0.31585 -0.16822
 C1443 C 0.42199 0.41106 -0.09589
 C1444 C 0.43726 0.42800 -0.08122
 H1445 H 0.43016 0.43555 -0.14283
 H1446 H 0.42123 0.44419 -0.19091
 H1447 H 0.38354 0.40988 -0.21589
 H1448 H 0.35453 0.36694 -0.19299
 H1449 H 0.33114 0.30391 -0.10776
 H1450 H 0.34071 0.29467 -0.05985
 H1451 H 0.37837 0.32900 -0.03487
 H1452 H 0.40675 0.37256 -0.05761
 C1453 C 1.09928 0.36717 -0.09232
 C1454 C 1.11910 0.38627 -0.10911
 C1455 C 1.13897 0.37088 -0.12837
 C1456 C 1.13905 0.33641 -0.13083
 C1457 C 1.11949 0.31729 -0.11386
 C1458 C 1.09957 0.33272 -0.09458
 C1459 C 1.08023 0.31312 -0.07797
 C1460 C 1.08053 0.27919 -0.08026
 C1461 C 1.09996 0.26411 -0.09906
 C1462 C 1.11925 0.28282 -0.11573
 C1463 C 1.15839 0.39058 -0.14492
 C1464 C 1.15825 0.42448 -0.14254
 C1465 C 1.13889 0.43954 -0.12374
 C1466 C 1.11951 0.42082 -0.10719
 C1467 C 1.15898 0.32092 -0.15108
 C1468 C 1.17554 0.30885 -0.16822
 C1469 C 1.07859 0.38362 -0.07320
 C1470 C 1.06283 0.40075 -0.05865
 H1471 H 1.06476 0.32380 -0.06307
 H1472 H 1.06561 0.26453 -0.06737
 H1473 H 1.10010 0.23775 -0.10072
 H1474 H 1.13398 0.27001 -0.13003
 H1475 H 1.17391 0.38006 -0.15986
 H1476 H 1.17328 0.43915 -0.15535
 H1477 H 1.13888 0.46589 -0.12195
 H1478 H 1.10494 0.43381 -0.09291
 C1479 C 0.59560 0.85979 0.41079
 C1480 C 0.62857 0.86067 0.41398
 C1481 C 0.64840 0.84604 0.39423
 C1482 C 0.63523 0.83042 0.37135
 C1483 C 0.60222 0.82817 0.36885
 C1484 C 0.58240 0.84285 0.38861
 C1485 C 0.54956 0.84046 0.38549
 C1486 C 0.53659 0.82395 0.36358
 C1487 C 0.55590 0.80970 0.34426
 C1488 C 0.58835 0.81175 0.34674
 C1489 C 0.68124 0.84778 0.39777
 C1490 C 0.69416 0.86337 0.42016
 C1491 C 0.67482 0.87758 0.43946
 C1492 C 0.64240 0.87634 0.43650
 C1493 C 0.65563 0.81733 0.35022
 C1494 C 0.67261 0.80667 0.33269
 C1495 C 0.57577 0.87924 0.42866
 C1496 C 0.56074 0.89790 0.44252
 H1497 H 0.53362 0.85109 0.40006
 H1498 H 0.51142 0.82216 0.36160
 H1499 H 0.54569 0.79694 0.32726
 H1500 H 0.60241 0.80024 0.33123
 H1501 H 0.69727 0.83710 0.38331
 H1502 H 0.71933 0.86445 0.42255
 H1503 H 0.68499 0.88963 0.45684
 H1504 H 0.62833 0.88761 0.45212
 C1505 C 0.90185 0.63942 -0.08906
 C1506 C 0.91388 0.64651 -0.11511
 C1507 C 0.89412 0.66052 -0.13517
 C1508 C 0.86239 0.66749 -0.12909
 C1509 C 0.85079 0.66185 -0.10264
 C1510 C 0.87057 0.64782 -0.08259
 C1511 C 0.85833 0.64215 -0.05642
 C1512 C 0.82746 0.65015 -0.05015
 C1513 C 0.80812 0.66381 -0.06972
 C1514 C 0.81952 0.66961 -0.09570
 C1515 C 0.90666 0.66692 -0.16113
 C1516 C 0.93781 0.65979 -0.16712
 C1517 C 0.95710 0.64615 -0.14752
 C1518 C 0.94540 0.63950 -0.12180
 C1519 C 0.84166 0.67999 -0.15012
 C1520 C 0.82461 0.69044 -0.16762
 C1521 C 0.92040 0.62010 -0.07019
 C1522 C 0.93503 0.60160 -0.05595
 H1523 H 0.87255 0.63171 -0.04051
 H1524 H 0.81851 0.64574 -0.02999
 H1525 H 0.78415 0.66994 -0.06474
 H1526 H 0.80359 0.68029 -0.11022
 H1527 H 0.89258 0.67753 -0.17705
 H1528 H 0.94702 0.66487 -0.18708
 H1529 H 0.98129 0.64069 -0.15227
 H1530 H 0.96135 0.62903 -0.10719
 C1531 C 0.40198 1.13840 0.41087
 C1532 C 0.41441 1.14719 0.38531
 C1533 C 0.39468 1.16139 0.36529
 C1534 C 0.36256 1.16698 0.37093
 C1535 C 0.35055 1.15976 0.39699
 C1536 C 0.37029 1.14548 0.41697
 C1537 C 0.35760 1.13824 0.44272
 C1538 C 0.32637 1.14497 0.44866
 C1539 C 0.30709 1.15887 0.42916
 C1540 C 0.31890 1.16618 0.40359
 C1541 C 0.40765 1.16940 0.33980
 C1542 C 0.43920 1.16377 0.33427
 C1543 C 0.45847 1.15004 0.35385
 C1544 C 0.44632 1.14172 0.37908
 C1545 C 0.34187 1.17965 0.34987
 C1546 C 0.32477 1.19018 0.33238
 C1547 C 0.42068 1.11883 0.42953
 C1548 C 0.43534 1.10021 0.44369
 H1549 H 0.37174 1.12754 0.45856
 H1550 H 0.31708 1.13937 0.46850
 H1551 H 0.28284 1.16402 0.43388
 H1552 H 0.30300 1.17699 0.38911
 H1553 H 0.39362 1.18015 0.32393
 H1554 H 0.44875 1.17011 0.31468
 H1555 H 0.48297 1.14578 0.34946
 H1556 H 0.46224 1.13120 0.39369
 C1557 C 1.09864 0.63709 0.08867
 C1558 C 1.12714 0.65221 0.08107
 C1559 C 1.14670 0.66660 0.10110
 C1560 C 1.13776 0.66565 0.12869
 C1561 C 1.10881 0.65140 0.13619
 C1562 C 1.08927 0.63702 0.11618
 C1563 C 1.06083 0.62223 0.12437
 C1564 C 1.05197 0.62164 0.15148
 C1565 C 1.07086 0.63606 0.17096
 C1566 C 1.09898 0.65079 0.16352
 C1567 C 1.17514 0.68137 0.09297
 C1568 C 1.18406 0.68189 0.06586
 C1569 C 1.16507 0.66764 0.04634
 C1570 C 1.13691 0.65291 0.05375
 C1571 C 1.15852 0.67858 0.14946
 C1572 C 1.17540 0.68922 0.16696
 C1573 C 1.08051 0.61867 0.06893
 C1574 C 1.06604 0.60074 0.05410
 H1575 H 1.04517 0.61096 0.10996
 H1576 H 1.03033 0.60990 0.15742
 H1577 H 1.06375 0.63576 0.19196
 H1578 H 1.11291 0.66159 0.17944
 H1579 H 1.19072 0.69267 0.10745
 H1580 H 1.20587 0.69334 0.05999
 H1581 H 1.17219 0.66798 0.02534
 H1582 H 1.12289 0.64216 0.03786
 C1583 C 0.59716 1.13620 0.58946
 C1584 C 0.62322 1.15529 0.58145
 C1585 C 0.64306 1.16962 0.60134
 C1586 C 0.63682 1.16476 0.62922
 C1587 C 0.61001 1.14676 0.63721
 C1588 C 0.59011 1.13259 0.61732
 C1589 C 0.56357 1.11462 0.62592
 C1590 C 0.55689 1.11067 0.65330
 C1591 C 0.57638 1.12439 0.67270
 C1592 C 0.60265 1.14224 0.66486
 C1593 C 0.66903 1.18840 0.59274
 C1594 C 0.67525 1.19296 0.56533
 C1595 C 0.65592 1.17893 0.54595
 C1596 C 0.63018 1.16025 0.55380
 C1597 C 0.65801 1.17788 0.64969
 C1598 C 0.67526 1.18865 0.66694
 C1599 C 0.57936 1.11757 0.56954
 C1600 C 0.56508 1.09944 0.55467
 H1601 H 0.54761 1.10358 0.61162
 H1602 H 0.53649 1.09686 0.65949
 H1603 H 0.57111 1.12119 0.69394
 H1604 H 0.61707 1.15246 0.68072
 H1605 H 0.68473 1.19979 0.60708
 H1606 H 0.69519 1.20746 0.55911
 H1607 H 0.66087 1.18258 0.52470
 H1608 H 0.61570 1.14992 0.53803
 C1609 C 0.90490 0.36328 0.09052
 C1610 C 0.91598 0.35744 0.11707
 C1611 C 0.89584 0.34321 0.13679
 C1612 C 0.86470 0.33468 0.12986
 C1613 C 0.85416 0.33895 0.10294
 C1614 C 0.87432 0.35323 0.08324
 C1615 C 0.86313 0.35745 0.05656
 C1616 C 0.83295 0.34780 0.04946
 C1617 C 0.81325 0.33393 0.06870
 C1618 C 0.82359 0.32954 0.09517
 C1619 C 0.90739 0.33813 0.16326
 C1620 C 0.93797 0.34666 0.17005
 C1621 C 0.95765 0.36044 0.15078
 C1622 C 0.94689 0.36591 0.12458
 C1623 C 0.84354 0.32197 0.15054
 C1624 C 0.82635 0.31143 0.16794
 C1625 C 0.92356 0.38283 0.07182
 C1626 C 0.93801 0.40139 0.05743
 H1627 H 0.87767 0.36799 0.04088
 H1628 H 0.82483 0.35108 0.02892
 H1629 H 0.78982 0.32650 0.06307
 H1630 H 0.80742 0.31862 0.10941
 H1631 H 0.89300 0.32745 0.17897
 H1632 H 0.94645 0.34252 0.19038
 H1633 H 0.98139 0.36689 0.15615
 H1634 H 0.96312 0.37657 0.11026
 C1635 C 0.40158 0.86416 0.59197
 C1636 C 0.41275 0.85919 0.61862
 C1637 C 0.39283 0.84513 0.63862
 C1638 C 0.36178 0.83594 0.63193
 C1639 C 0.35107 0.83965 0.60498
 C1640 C 0.37099 0.85377 0.58499
 C1641 C 0.35957 0.85748 0.55833
 C1642 C 0.32941 0.84748 0.55152
 C1643 C 0.30997 0.83371 0.57100
 C1644 C 0.32054 0.82982 0.59745
 C1645 C 0.40454 0.84088 0.66514
 C1646 C 0.43501 0.85012 0.67173
 C1647 C 0.45444 0.86379 0.65221
 C1648 C 0.44354 0.86837 0.62594
 C1649 C 0.34085 0.82303 0.65277
 C1650 C 0.32369 0.81222 0.67015
 C1651 C 0.42025 0.88303 0.57275
 C1652 C 0.43492 0.90108 0.55805
 H1653 H 0.37389 0.86794 0.54247
 H1654 H 0.32108 0.85041 0.53099
 H1655 H 0.28656 0.82600 0.56559
 H1656 H 0.30456 0.81897 0.61188
 H1657 H 0.39034 0.83034 0.68104
 H1658 H 0.44359 0.84665 0.69211
 H1659 H 0.47810 0.87089 0.65742
 H1660 H 0.45957 0.87899 0.61143
 C1661 C 0.36762 1.10290 -0.08749
 C1662 C 0.35718 1.08818 -0.11175
 C1663 C 0.34344 1.10767 -0.13238
 C1664 C 0.34015 1.14180 -0.12863
 C1665 C 0.34932 1.15628 -0.10387
 C1666 C 0.36307 1.13677 -0.08325
 C1667 C 0.37238 1.15185 -0.05882
 C1668 C 0.36812 1.18524 -0.05480
 C1669 C 0.35466 1.20431 -0.07494
 C1670 C 0.34534 1.19013 -0.09924
 C1671 C 0.33354 1.09239 -0.15657
 C1672 C 0.33703 1.05884 -0.16024
 C1673 C 0.35044 1.03981 -0.14007
 C1674 C 0.36051 1.05419 -0.11609
 C1675 C 0.32733 1.16192 -0.15020
 C1676 C 0.31615 1.17830 -0.16806
 C1677 C 0.38626 1.08406 -0.06848
 C1678 C 0.40406 1.06905 -0.05421
 H1679 H 0.38283 1.13798 -0.04253
 H1680 H 0.37529 1.19636 -0.03595
 H1681 H 0.35140 1.23024 -0.07173
 H1682 H 0.33497 1.20596 -0.11430
 H1683 H 0.32296 1.10616 -0.17285
 H1684 H 0.32927 1.04754 -0.17885
 H1685 H 0.35302 1.01376 -0.14300
 H1686 H 0.37070 1.03836 -0.10094
 C1687 C 0.86808 0.60370 0.41253
 C1688 C 0.86077 0.63681 0.41788
 C1689 C 0.84699 0.65651 0.39737
 C1690 C 0.84052 0.64298 0.37162
 C1691 C 0.84645 0.60945 0.36672
 C1692 C 0.86020 0.58977 0.38723
 C1693 C 0.86608 0.55640 0.38177
 C1694 C 0.85852 0.54280 0.35680
 C1695 C 0.84512 0.56202 0.33675
 C1696 C 0.83915 0.59498 0.34152
 C1697 C 0.84020 0.68960 0.40317
 C1698 C 0.84670 0.70283 0.42851
 C1699 C 0.86016 0.68357 0.44852
 C1700 C 0.86723 0.65094 0.44336
 C1701 C 0.82759 0.66337 0.35023
 C1702 C 0.81628 0.67980 0.33245
 C1703 C 0.88682 0.58507 0.43165
 C1704 C 0.90464 0.57008 0.44596
 H1705 H 0.87634 0.54042 0.39678
 H1706 H 0.86303 0.51720 0.35301
 H1707 H 0.83928 0.55133 0.31739
 H1708 H 0.82869 0.60892 0.32528
 H1709 H 0.82973 0.70554 0.38825
 H1710 H 0.84125 0.72817 0.43263
 H1711 H 0.86512 0.69394 0.46819
 H1712 H 0.87755 0.63686 0.45958
 C1713 C 0.63086 1.10491 0.08962
 C1714 C 0.62510 1.13902 0.08976
 C1715 C 0.63946 1.15924 0.10959
 C1716 C 0.65955 1.14530 0.12920
 C1717 C 0.66639 1.11142 0.12832
 C1718 C 0.65203 1.09121 0.10846
 C1719 C 0.65913 1.05747 0.10807
 C1720 C 0.67999 1.04405 0.12665
 C1721 C 0.69393 1.06373 0.14611
 C1722 C 0.68725 1.09703 0.14706
 C1723 C 0.63310 1.19317 0.10942
 C1724 C 0.61319 1.20680 0.09018
 C1725 C 0.59913 1.18707 0.07083
 C1726 C 0.60489 1.15357 0.07054
 C1727 C 0.67303 1.16569 0.15033
 C1728 C 0.68459 1.18222 0.16792
 C1729 C 0.61266 1.08383 0.07186
 C1730 C 0.59517 1.06759 0.05819
 H1731 H 0.64888 1.04121 0.09328
 H1732 H 0.68542 1.01825 0.12590
 H1733 H 0.71007 1.05315 0.16053
 H1734 H 0.69871 1.11134 0.16255
 H1735 H 0.64349 1.20952 0.12407
 H1736 H 0.60869 1.23281 0.09028
 H1737 H 0.58370 1.19778 0.05592
 H1738 H 0.59352 1.13928 0.05500
 C1739 C 1.13284 0.60237 0.59016
 C1740 C 1.13843 0.63563 0.58388
 C1741 C 1.15230 0.65661 0.60345
 C1742 C 1.16054 0.64423 0.62922
 C1743 C 1.15639 0.61059 0.63499
 C1744 C 1.14260 0.58961 0.61540
 C1745 C 1.13865 0.55614 0.62169
 C1746 C 1.14818 0.54368 0.64657
 C1747 C 1.16154 0.56416 0.66576
 C1748 C 1.16559 0.59725 0.66017
 C1749 C 1.15746 0.68977 0.59670
 C1750 C 1.14935 0.70184 0.57130
 C1751 C 1.13573 0.68137 0.55223
 C1752 C 1.13019 0.64866 0.55836
 C1753 C 1.17339 0.66587 0.64980
 C1754 C 1.18453 0.68299 0.66722
 C1755 C 1.11406 0.58233 0.57203
 C1756 C 1.09620 0.56678 0.55816
 H1757 H 1.12846 0.53924 0.60737
 H1758 H 1.14525 0.51798 0.65098
 H1759 H 1.16887 0.55437 0.68507
 H1760 H 1.17613 0.61217 0.67575
 H1761 H 1.16795 0.70663 0.61089
 H1762 H 1.15373 0.72718 0.56637
 H1763 H 1.12949 0.69087 0.53253
 H1764 H 1.11970 0.63364 0.54282
 C1765 C 0.63097 0.89656 -0.08641
 C1766 C 0.62530 0.86243 -0.08611
 C1767 C 0.63909 0.84202 -0.10611
 C1768 C 0.65857 0.85576 -0.12631
 C1769 C 0.66548 0.88963 -0.12579
 C1770 C 0.65168 0.91005 -0.10577
 C1771 C 0.65883 0.94378 -0.10576
 C1772 C 0.67923 0.95700 -0.12485
 C1773 C 0.69262 0.93711 -0.14448
 C1774 C 0.68585 0.90382 -0.14508
 C1775 C 0.63277 0.80809 -0.10552
 C1776 C 0.61348 0.79465 -0.08569
 C1777 C 0.60000 0.81457 -0.06615
 C1778 C 0.60571 0.84809 -0.06628
 C1779 C 0.67133 0.83517 -0.14767
 C1780 C 0.68237 0.81853 -0.16546
 C1781 C 0.61291 0.91784 -0.06869
 C1782 C 0.59542 0.93424 -0.05512
 H1783 H 0.64899 0.96018 -0.09084
 H1784 H 0.68472 0.98279 -0.12439
 H1785 H 0.70839 0.94753 -0.15930
 H1786 H 0.69688 0.88934 -0.16071
 H1787 H 0.64273 0.79160 -0.12029
 H1788 H 0.60902 0.76863 -0.08547
 H1789 H 0.58504 0.80401 -0.05078
 H1790 H 0.59482 0.86254 -0.05056
 C1791 C 1.13045 0.39989 0.41012
 C1792 C 1.13210 0.40952 0.38264
 C1793 C 1.14550 0.38820 0.36309
 C1794 C 1.15725 0.35730 0.37107
 C1795 C 1.15648 0.34809 0.39868
 C1796 C 1.14309 0.36944 0.41824
 C1797 C 1.14232 0.35952 0.44563
 C1798 C 1.15444 0.32939 0.45352
 C1799 C 1.16753 0.30855 0.43443
 C1800 C 1.16858 0.31765 0.40729
 C1801 C 1.14648 0.39830 0.33572
 C1802 C 1.13445 0.42847 0.32786
 C1803 C 1.12122 0.44921 0.34693
 C1804 C 1.12012 0.44004 0.37404
 C1805 C 1.17029 0.33526 0.35086
 C1806 C 1.18159 0.31793 0.33365
 C1807 C 1.11256 0.41957 0.42918
 C1808 C 1.09519 0.43500 0.44362
 H1809 H 1.13249 0.37499 0.46121
 H1810 H 1.15368 0.32217 0.47456
 H1811 H 1.17691 0.28517 0.44067
 H1812 H 1.17894 0.30060 0.39317
 H1813 H 1.15645 0.38300 0.32010
 H1814 H 1.13536 0.43579 0.30684
 H1815 H 1.11182 0.47258 0.34070
 H1816 H 1.10986 0.45718 0.38814
 C1817 C 0.36703 0.89922 0.08915
 C1818 C 0.36417 0.91004 0.11623
 C1819 C 0.35072 0.88919 0.13610
 C1820 C 0.34009 0.85763 0.12878
 C1821 C 0.34174 0.84736 0.10147
 C1822 C 0.35521 0.86824 0.08160
 C1823 C 0.35686 0.85736 0.05450
 C1824 C 0.34550 0.82670 0.04719
 C1825 C 0.33237 0.80626 0.06660
 C1826 C 0.33047 0.81634 0.09346
 C1827 C 0.34855 0.90044 0.16309
 C1828 C 0.35941 0.93134 0.17027
 C1829 C 0.37262 0.95167 0.15087
 C1830 C 0.37496 0.94132 0.12412
 C1831 C 0.32734 0.83598 0.14938
 C1832 C 0.31626 0.81883 0.16681
 C1833 C 0.38546 0.91830 0.07011
 C1834 C 0.40326 0.93351 0.05594
 H1835 H 0.36674 0.87250 0.03870
 H1836 H 0.34689 0.81877 0.02636
 H1837 H 0.32360 0.78246 0.06081
 H1838 H 0.32008 0.79960 0.10784
 H1839 H 0.33850 0.88552 0.17894
 H1840 H 0.35759 0.93953 0.19101
 H1841 H 0.38109 0.97562 0.15656
 H1842 H 0.38518 0.95814 0.10971
 C1843 C 0.86791 0.39962 0.58987
 C1844 C 0.86777 0.40878 0.61748
 C1845 C 0.85439 0.38765 0.63720
 C1846 C 0.84103 0.35748 0.62922
 C1847 C 0.84010 0.34889 0.60149
 C1848 C 0.85357 0.37002 0.58177
 C1849 C 0.85264 0.36074 0.55425
 C1850 C 0.83876 0.33144 0.54638
 C1851 C 0.82559 0.31081 0.56562
 C1852 C 0.82621 0.31930 0.59289
 C1853 C 0.85503 0.39718 0.66470
 C1854 C 0.86852 0.42668 0.67252
 C1855 C 0.88160 0.44732 0.65327
 C1856 C 0.88122 0.43865 0.62604
 C1857 C 0.82809 0.33556 0.64958
 C1858 C 0.81690 0.31822 0.66684
 C1859 C 0.88600 0.41881 0.57059
 C1860 C 0.90360 0.43407 0.55622
 H1861 H 0.86245 0.37611 0.53857
 H1862 H 0.83822 0.32470 0.52523
 H1863 H 0.81484 0.28809 0.55939
 H1864 H 0.81570 0.30245 0.60712
 H1865 H 0.84518 0.38196 0.68045
 H1866 H 0.86886 0.43355 0.69364
 H1867 H 0.89211 0.47019 0.65945
 H1868 H 0.89148 0.45566 0.61182
 C1869 C 1.10653 1.09704 0.61137
 C1870 C 1.10228 1.13133 0.61104
 C1871 C 1.12472 1.15181 0.62355
 C1872 C 1.15097 1.13779 0.63648
 C1873 C 1.15527 1.10353 0.63676
 C1874 C 1.13289 1.08302 0.62414
 C1875 C 1.13760 1.04878 0.62450
 C1876 C 1.16380 1.03526 0.63698
 C1877 C 1.18569 1.05535 0.64944
 C1878 C 1.18158 1.08912 0.64942
 C1879 C 1.12027 1.18608 0.62283
 C1880 C 1.09428 1.19966 0.61007
 C1881 C 1.07220 1.17958 0.59787
 C1882 C 1.07603 1.14579 0.59828
 C1883 C 1.17171 1.15833 0.65185
 C1884 C 1.18736 1.17492 0.66650
 C1885 C 1.08563 1.07675 0.59596
 C1886 C 1.06931 1.06140 0.58095
 H1887 H 1.12109 1.03217 0.61520
 H1888 H 1.16717 1.00907 0.63695
 H1889 H 1.20600 1.04475 0.65913
 H1890 H 1.19932 1.10378 0.65923
 H1891 H 1.13687 1.20270 0.63194
 H1892 H 1.09128 1.22591 0.60965
 H1893 H 1.05202 1.19025 0.58803
 H1894 H 1.05817 1.13119 0.58856
 C1895 C 0.60642 0.59853 0.11014
 C1896 C 0.61150 0.63124 0.10188
 C1897 C 0.63428 0.65046 0.11526
 C1898 C 0.65155 0.63683 0.13683
 C1899 C 0.64668 0.60403 0.14492
 C1900 C 0.62391 0.58479 0.13152
 C1901 C 0.61913 0.55211 0.13994
 C1902 C 0.63642 0.53887 0.16116
 C1903 C 0.65884 0.55768 0.17427
 C1904 C 0.66402 0.58991 0.16633
 C1905 C 0.63914 0.68311 0.10676
 C1906 C 0.62187 0.69638 0.08555
 C1907 C 0.59949 0.67757 0.07241
 C1908 C 0.59425 0.64538 0.08039
 C1909 C 0.67202 0.65735 0.15246
 C1910 C 0.68740 0.67408 0.16720
 C1911 C 0.58493 0.57856 0.09506
 C1912 C 0.56829 0.56323 0.08031
 H1913 H 0.60193 0.53656 0.13034
 H1914 H 0.63241 0.51389 0.16745
 H1915 H 0.67227 0.54727 0.19069
 H1916 H 0.68178 0.60353 0.17708
 H1917 H 0.65641 0.69863 0.11630
 H1918 H 0.62587 0.72137 0.07929
 H1919 H 0.58608 0.68796 0.05596
 H1920 H 0.57649 0.63181 0.06959
 C1921 C 1.09849 0.89450 0.38631
 C1922 C 1.11194 0.90685 0.36231
 C1923 C 1.13557 0.88867 0.34896
 C1924 C 1.14549 0.85839 0.35986
 C1925 C 1.13214 0.84615 0.38396
 C1926 C 1.10843 0.86425 0.39723
 C1927 C 1.09529 0.85162 0.42139
 C1928 C 1.10545 0.82198 0.43209
 C1929 C 1.12874 0.80429 0.41907
 C1930 C 1.14200 0.81607 0.39523
 C1931 C 1.14877 0.90138 0.32487
 C1932 C 1.13886 0.93125 0.31438
 C1933 C 1.11574 0.94907 0.32755
 C1934 C 1.10236 0.93715 0.35129
 C1935 C 1.16762 0.83879 0.34505
 C1936 C 1.18442 0.82277 0.33091
 C1937 C 1.07660 0.91399 0.40141
 C1938 C 1.06031 0.92925 0.41649
 H1939 H 1.07706 0.86441 0.43227
 H1940 H 1.09522 0.81272 0.45061
 H1941 H 1.13661 0.78138 0.42752
 H1942 H 1.16013 0.80148 0.38587
 H1943 H 1.16692 0.88848 0.31396
 H1944 H 1.14921 0.94061 0.29595
 H1945 H 1.10813 0.97226 0.31934
 H1946 H 1.08442 0.95184 0.36083
 C1947 C 0.59762 0.39307 -0.11383
 C1948 C 0.61499 0.40774 -0.13491
 C1949 C 0.63863 0.38956 -0.14824
 C1950 C 0.64454 0.35688 -0.14035
 C1951 C 0.62690 0.34209 -0.11949
 C1952 C 0.60324 0.36026 -0.10618
 C1953 C 0.58580 0.34508 -0.08529
 C1954 C 0.59163 0.31282 -0.07784
 C1955 C 0.61484 0.29501 -0.09091
 C1956 C 0.63236 0.30937 -0.11151
 C1957 C 0.65589 0.40467 -0.16927
 C1958 C 0.64982 0.43683 -0.17690
 C1959 C 0.62660 0.45461 -0.16383
 C1960 C 0.60935 0.44039 -0.14300
 C1961 C 0.66696 0.33776 -0.15527
 C1962 C 0.68405 0.32211 -0.16945
 C1963 C 0.57643 0.41258 -0.09797
 C1964 C 0.56066 0.42820 -0.08270
 H1965 H 0.56740 0.35787 -0.07461
 H1966 H 0.57806 0.30158 -0.06184
 H1967 H 0.61929 0.26996 -0.08505
 H1968 H 0.65026 0.29459 -0.12102
 H1969 H 0.67426 0.39187 -0.17999
 H1970 H 0.66321 0.44799 -0.19305
 H1971 H 0.62190 0.47955 -0.16987
 H1972 H 0.59147 0.45514 -0.13345
 C1973 C 0.89890 1.10211 0.38842
 C1974 C 0.88104 1.12570 0.40265
 C1975 C 0.85864 1.14478 0.38863
 C1976 C 0.85443 1.14018 0.36060
 C1977 C 0.87216 1.11647 0.34640
 C1978 C 0.89455 1.09735 0.36042
 C1979 C 0.91212 1.07381 0.34597
 C1980 C 0.90763 1.06930 0.31833
 C1981 C 0.88568 1.08801 0.30454
 C1982 C 0.86807 1.11135 0.31831
 C1983 C 0.84089 1.16817 0.40311
 C1984 C 0.84524 1.17260 0.43077
 C1985 C 0.86723 1.15395 0.44456
 C1986 C 0.88498 1.13075 0.43078
 C1987 C 0.83297 1.16067 0.34588
 C1988 C 0.81657 1.17722 0.33181
 C1989 C 0.92073 1.08208 0.40317
 C1990 C 0.93724 1.06635 0.41779
 H1991 H 0.92948 1.05873 0.35587
 H1992 H 0.92125 1.05119 0.30756
 H1993 H 0.88222 1.08442 0.28307
 H1994 H 0.85122 1.12518 0.30668
 H1995 H 0.82343 1.18314 0.39324
 H1996 H 0.83146 1.19056 0.44155
 H1997 H 0.87055 1.15746 0.46606
 H1998 H 0.90178 1.11692 0.44245
 C1999 C 0.39927 0.60140 -0.11310
 C2000 C 0.39490 0.59664 -0.14109
 C2001 C 0.37262 0.61588 -0.15514
 C2002 C 0.35500 0.63970 -0.14097
 C2003 C 0.35932 0.64440 -0.11295
 C2004 C 0.38160 0.62519 -0.09891
 C2005 C 0.38563 0.63032 -0.07079
 C2006 C 0.36808 0.65372 -0.05705
 C2007 C 0.34622 0.67250 -0.07086
 C2008 C 0.34180 0.66802 -0.09851
 C2009 C 0.36856 0.61078 -0.18323
 C2010 C 0.38603 0.58729 -0.19696
 C2011 C 0.40785 0.56845 -0.18314
 C2012 C 0.41234 0.57297 -0.15550
 C2013 C 0.33342 0.66014 -0.15564
 C2014 C 0.31684 0.67672 -0.16955
 C2015 C 0.42095 0.58121 -0.09832
 C2016 C 0.43732 0.56545 -0.08360
 H2017 H 0.40236 0.61640 -0.05911
 H2018 H 0.37146 0.65728 -0.03557
 H2019 H 0.33261 0.69063 -0.06012
 H2020 H 0.32450 0.68316 -0.10841
 H2021 H 0.35185 0.62477 -0.19488
 H2022 H 0.38260 0.58370 -0.21843
 H2023 H 0.42138 0.55025 -0.19389
 H2024 H 0.42961 0.55780 -0.14559
 C2025 C 0.89360 0.90351 0.61325
 C2026 C 0.87870 0.87704 0.59999
 C2027 C 0.85604 0.85824 0.61397
 C2028 C 0.84857 0.86603 0.64101
 C2029 C 0.86302 0.89286 0.65409
 C2030 C 0.88569 0.91171 0.64011
 C2031 C 0.89999 0.93839 0.65344
 C2032 C 0.89206 0.94621 0.67999
 C2033 C 0.86988 0.92772 0.69377
 C2034 C 0.85545 0.90132 0.68108
 C2035 C 0.84140 0.83183 0.60051
 C2036 C 0.84897 0.82425 0.57384
 C2037 C 0.87118 0.84267 0.56006
 C2038 C 0.88596 0.86877 0.57287
 C2039 C 0.82769 0.84525 0.65609
 C2040 C 0.81188 0.82814 0.67024
 C2041 C 0.91615 0.92273 0.59854
 C2042 C 0.93344 0.93730 0.58375
 H2043 H 0.91740 0.95341 0.64351
 H2044 H 0.90320 0.96669 0.68992
 H2045 H 0.86381 0.93384 0.71440
 H2046 H 0.83826 0.88776 0.69261
 H2047 H 0.82388 0.81688 0.61039
 H2048 H 0.83755 0.80399 0.56383
 H2049 H 0.87699 0.83673 0.53934
 H2050 H 0.90308 0.88228 0.56125
 C2051 C 0.39413 0.40387 0.11339
 C2052 C 0.38649 0.41178 0.14037
 C2053 C 0.36410 0.39267 0.15445
 C2054 C 0.34963 0.36587 0.14133
 C2055 C 0.35699 0.35821 0.11425
 C2056 C 0.37938 0.37728 0.10017
 C2057 C 0.38654 0.36913 0.07301
 C2058 C 0.37197 0.34287 0.06026
 C2059 C 0.35005 0.32418 0.07412
 C2060 C 0.34254 0.33166 0.10082
 C2061 C 0.35682 0.40083 0.18156
 C2062 C 0.37129 0.42717 0.19429
 C2063 C 0.39320 0.44592 0.18042
 C2064 C 0.40081 0.43842 0.15374
 C2065 C 0.32873 0.34506 0.15637
 C2066 C 0.31280 0.32798 0.17044
 C2067 C 0.41628 0.42345 0.09855
 C2068 C 0.43328 0.43821 0.08363
 H2069 H 0.40345 0.38285 0.06132
 H2070 H 0.37773 0.33700 0.03950
 H2071 H 0.33877 0.30380 0.06415
 H2072 H 0.32525 0.31649 0.11077
 H2073 H 0.33987 0.38705 0.19316
 H2074 H 0.36546 0.43306 0.21502
 H2075 H 0.40437 0.46637 0.19039
 H2076 H 0.41802 0.45365 0.14375
   
