data_POSCAR
  _audit_creation_date              2014-09-24
  _audit_creation_method            'ToBaCCo'
  _symmetry_space_group_name_H-M    'P1'
  _symmetry_Int_Tables_number       1
  _symmetry_cell_setting            triclinic
  loop_
  _symmetry_equiv_pos_as_xyz
 x,y,z
_cell_length_a 64.5646
_cell_length_b 64.4427
_cell_length_c 65.9633
_cell_angle_alpha 91.095500
_cell_angle_beta 87.461400
_cell_angle_gamma 86.764000
loop_
  _atom_site_label
  _atom_site_type_symbol
  _atom_site_fract_x
  _atom_site_fract_y
  _atom_site_fract_z
C1 C 0.17230 0.18681 0.21956
 C2 C 0.15348 0.19106 0.23065
 C3 C 0.13897 0.20650 0.22444
 C4 C 0.14334 0.21735 0.20658
 C5 C 0.16200 0.21305 0.19517
 C6 C 0.17659 0.19779 0.20172
 C7 C 0.18703 0.17194 0.22622
 C8 C 0.20609 0.16795 0.21535
 C9 C 0.21018 0.17875 0.19742
 C10 C 0.19559 0.19368 0.19057
 C11 C 0.19982 0.20480 0.17294
 C12 C 0.18538 0.22009 0.16632
 C13 C 0.16648 0.22408 0.17753
 H14 H 0.15016 0.18236 0.24419
 H15 H 0.13243 0.22950 0.20181
 H16 H 0.18367 0.16348 0.23991
 H17 H 0.22494 0.17592 0.18907
 H18 H 0.21435 0.20149 0.16429
 H19 H 0.15542 0.23608 0.17274
 C20 C 0.68054 0.68552 0.71184
 C21 C 0.66301 0.69232 0.72393
 C22 C 0.65073 0.71000 0.71878
 C23 C 0.65603 0.72069 0.70106
 C24 C 0.67355 0.71402 0.68876
 C25 C 0.68589 0.69640 0.69420
 C26 C 0.69294 0.66811 0.71726
 C27 C 0.71076 0.66148 0.70535
 C28 C 0.71598 0.67235 0.68775
 C29 C 0.70366 0.68973 0.68209
 C30 C 0.70895 0.70065 0.66461
 C31 C 0.69677 0.71822 0.65904
 C32 C 0.67906 0.72479 0.67121
 H33 H 0.65883 0.68376 0.73735
 H34 H 0.64678 0.73444 0.69707
 H35 H 0.68898 0.65998 0.73101
 H36 H 0.72957 0.66718 0.67836
 H37 H 0.72281 0.69569 0.65552
 H38 H 0.66946 0.73820 0.66693
 C39 C 0.29313 0.80400 0.72938
 C40 C 0.31040 0.79885 0.74087
 C41 C 0.32273 0.78042 0.73668
 C42 C 0.31752 0.76706 0.72082
 C43 C 0.30036 0.77202 0.70915
 C44 C 0.28817 0.79060 0.71340
 C45 C 0.28089 0.82245 0.73351
 C46 C 0.26378 0.82803 0.72168
 C47 C 0.25911 0.81435 0.70573
 C48 C 0.27103 0.79578 0.70164
 C49 C 0.26596 0.78225 0.68596
 C50 C 0.27790 0.76365 0.68172
 C51 C 0.29518 0.75868 0.69331
 H52 H 0.31445 0.80939 0.75288
 H53 H 0.32671 0.75267 0.71768
 H54 H 0.28540 0.83280 0.74545
 H55 H 0.24560 0.81753 0.69690
 H56 H 0.25283 0.78633 0.67684
 H57 H 0.30439 0.74430 0.69018
 C58 C 0.77210 0.29708 0.23357
 C59 C 0.78880 0.29346 0.24626
 C60 C 0.80393 0.27684 0.24228
 C61 C 0.80148 0.26400 0.22493
 C62 C 0.78445 0.26694 0.21265
 C63 C 0.76977 0.28358 0.21689
 C64 C 0.75757 0.31396 0.23739
 C65 C 0.74076 0.31739 0.22476
 C66 C 0.73842 0.30359 0.20838
 C67 C 0.75274 0.28671 0.20440
 C68 C 0.75028 0.27294 0.18809
 C69 C 0.76466 0.25603 0.18399
 C70 C 0.78187 0.25332 0.19619
 H71 H 0.78925 0.30344 0.25955
 H72 H 0.81301 0.25188 0.22022
 H73 H 0.75929 0.32440 0.25021
 H74 H 0.72563 0.30621 0.19846
 H75 H 0.73719 0.27543 0.17850
 H76 H 0.79295 0.24023 0.19324
 C77 C 0.82235 0.67510 0.28055
 C78 C 0.84012 0.67524 0.26762
 C79 C 0.85462 0.69068 0.26958
 C80 C 0.85083 0.70600 0.28514
 C81 C 0.83329 0.70571 0.29853
 C82 C 0.81886 0.69033 0.29609
 C83 C 0.80795 0.65991 0.27806
 C84 C 0.79005 0.65962 0.29092
 C85 C 0.78661 0.67482 0.30647
 C86 C 0.80099 0.69011 0.30923
 C87 C 0.79798 0.70499 0.32506
 C88 C 0.81263 0.72000 0.32799
 C89 C 0.83010 0.72039 0.31451
 H90 H 0.84203 0.66374 0.25539
 H91 H 0.86195 0.71767 0.28755
 H92 H 0.81054 0.64840 0.26587
 H93 H 0.77294 0.67454 0.31658
 H94 H 0.78454 0.70453 0.33545
 H95 H 0.84125 0.73214 0.31650
 C96 C 0.31224 0.17731 -0.22799
 C97 C 0.33109 0.17910 -0.23901
 C98 C 0.34404 0.19552 -0.23500
 C99 C 0.33757 0.21009 -0.21936
 C100 C 0.31887 0.20826 -0.20798
 C101 C 0.30610 0.19188 -0.21240
 C102 C 0.29932 0.16125 -0.23256
 C103 C 0.28035 0.15939 -0.22164
 C104 C 0.27442 0.17386 -0.20591
 C105 C 0.28714 0.19009 -0.20126
 C106 C 0.28121 0.20453 -0.18561
 C107 C 0.29398 0.22076 -0.18091
 C108 C 0.31277 0.22254 -0.19220
 H109 H 0.33504 0.16812 -0.25140
 H110 H 0.34739 0.22247 -0.21534
 H111 H 0.30390 0.15037 -0.24491
 H112 H 0.25997 0.17239 -0.19718
 H113 H 0.26679 0.20296 -0.17686
 H114 H 0.32254 0.23518 -0.18882
 C115 C 0.70560 0.30682 -0.20687
 C116 C 0.68868 0.30474 -0.21929
 C117 C 0.67287 0.29113 -0.21421
 C118 C 0.67467 0.27956 -0.19631
 C119 C 0.69152 0.28141 -0.18389
 C120 C 0.70704 0.29509 -0.18912
 C121 C 0.72116 0.32046 -0.21193
 C122 C 0.73816 0.32245 -0.19952
 C123 C 0.73942 0.31062 -0.18187
 C124 C 0.72407 0.29691 -0.17665
 C125 C 0.72554 0.28489 -0.15920
 C126 C 0.71023 0.27099 -0.15405
 C127 C 0.69321 0.26945 -0.16644
 H128 H 0.68759 0.31441 -0.23248
 H129 H 0.66351 0.26823 -0.19234
 H130 H 0.72020 0.32931 -0.22570
 H131 H 0.75229 0.31223 -0.17206
 H132 H 0.73860 0.28636 -0.14959
 H133 H 0.68149 0.25856 -0.16274
 C134 C 0.20561 0.80913 0.27205
 C135 C 0.18928 0.80456 0.25961
 C136 C 0.17435 0.79070 0.26599
 C137 C 0.17602 0.78131 0.28494
 C138 C 0.19215 0.78580 0.29753
 C139 C 0.20701 0.79978 0.29112
 C140 C 0.22037 0.82312 0.26581
 C141 C 0.23653 0.82832 0.27845
 C142 C 0.23773 0.81863 0.29747
 C143 C 0.22324 0.80438 0.30378
 C144 C 0.22472 0.79463 0.32259
 C145 C 0.20991 0.78069 0.32900
 C146 C 0.19364 0.77643 0.31642
 H147 H 0.18800 0.81204 0.24511
 H148 H 0.16484 0.77028 0.28983
 H149 H 0.21849 0.83069 0.25144
 H150 H 0.25037 0.82149 0.30722
 H151 H 0.23722 0.79804 0.33236
 H152 H 0.18233 0.76550 0.32122
 C153 C 0.45931 0.45446 0.47734
 C154 C 0.46657 0.43907 0.49044
 C155 C 0.48413 0.42600 0.48483
 C156 C 0.49440 0.42838 0.46586
 C157 C 0.48723 0.44360 0.45253
 C158 C 0.46964 0.45673 0.45829
 C159 C 0.44193 0.46765 0.48302
 C160 C 0.43470 0.48315 0.46993
 C161 C 0.44503 0.48527 0.45092
 C162 C 0.46244 0.47218 0.44502
 C163 C 0.47282 0.47437 0.42611
 C164 C 0.49030 0.46127 0.42024
 C165 C 0.49739 0.44592 0.43356
 H166 H 0.45873 0.43746 0.50516
 H167 H 0.50782 0.41819 0.46138
 H168 H 0.43390 0.46574 0.49759
 H169 H 0.43974 0.49736 0.44085
 H170 H 0.46717 0.48612 0.41585
 H171 H 0.51106 0.43599 0.42927
 C172 C -0.02847 -0.06648 0.96861
 C173 C -0.02162 -0.08322 0.98034
 C174 C -0.00516 -0.09701 0.97317
 C175 C 0.00459 -0.09383 0.95410
 C176 C -0.00223 -0.07727 0.94211
 C177 C -0.01889 -0.06360 0.94935
 C178 C -0.04484 -0.05270 0.97585
 C179 C -0.05219 -0.03600 0.96403
 C180 C -0.04251 -0.03351 0.94463
 C181 C -0.02595 -0.04704 0.93734
 C182 C -0.01624 -0.04416 0.91823
 C183 C 0.00047 -0.05760 0.91094
 C184 C 0.00734 -0.07416 0.92299
 H185 H -0.02896 -0.08542 0.99518
 H186 H 0.01721 -0.10449 0.94845
 H187 H -0.05235 -0.05569 0.99042
 H188 H -0.04708 -0.02047 0.93540
 H189 H -0.02184 -0.03153 0.90891
 H190 H 0.02037 -0.08446 0.91762
 C191 C 1.04562 0.50506 0.97930
 C192 C 1.04202 0.52246 0.99241
 C193 C 1.02416 0.53604 0.99103
 C194 C 1.01009 0.53177 0.97588
 C195 C 1.01367 0.51465 0.96252
 C196 C 1.03138 0.50113 0.96434
 C197 C 1.06317 0.49142 0.98112
 C198 C 1.06688 0.47371 0.96814
 C199 C 1.05245 0.47025 0.95308
 C200 C 1.03489 0.48374 0.95112
 C201 C 1.02088 0.48021 0.93591
 C202 C 1.00342 0.49387 0.93373
 C203 C 0.99986 0.51098 0.94719
 H204 H 1.05282 0.52480 1.00423
 H205 H 0.99671 0.54226 0.97371
 H206 H 1.07335 0.49431 0.99332
 H207 H 1.05513 0.45752 0.94217
 H208 H 1.02379 0.46705 0.92548
 H209 H 0.98624 0.52141 0.94576
 C210 C 0.55140 0.04513 0.47045
 C211 C 0.54725 0.06105 0.48515
 C212 C 0.53123 0.07640 0.48275
 C213 C 0.51953 0.07594 0.46528
 C214 C 0.52362 0.06029 0.45036
 C215 C 0.53949 0.04473 0.45305
 C216 C 0.56707 0.02948 0.47302
 C217 C 0.57078 0.01297 0.45864
 C218 C 0.55876 0.01299 0.44127
 C219 C 0.54342 0.02873 0.43834
 C220 C 0.53196 0.02867 0.42081
 C221 C 0.51643 0.04432 0.41779
 C222 C 0.51215 0.05997 0.43276
 H223 H 0.55620 0.06129 0.49867
 H224 H 0.50737 0.08792 0.46324
 H225 H 0.57558 0.02973 0.48680
 H226 H 0.56182 0.00121 0.42942
 H227 H 0.53498 0.01628 0.40953
 H228 H 0.50017 0.07207 0.43053
 C229 C -0.07796 0.05774 0.52303
 C230 C -0.07402 0.07358 0.50940
 C231 C -0.05761 0.08667 0.51216
 C232 C -0.04529 0.08390 0.52909
 C233 C -0.04915 0.06814 0.54299
 C234 C -0.06552 0.05497 0.53989
 C235 C -0.09416 0.04460 0.51998
 C236 C -0.09818 0.02862 0.53356
 C237 C -0.08572 0.02591 0.55037
 C238 C -0.06947 0.03900 0.55364
 C239 C -0.05710 0.03637 0.57043
 C240 C -0.04082 0.04947 0.57376
 C241 C -0.03691 0.06529 0.55990
 H242 H -0.08391 0.07584 0.49668
 H243 H -0.03249 0.09377 0.53129
 H244 H -0.10345 0.04660 0.50679
 H245 H -0.08886 0.01379 0.56107
 H246 H -0.06000 0.02391 0.58082
 H247 H -0.02452 0.07558 0.56244
 C248 C 0.43696 0.54696 0.02679
 C249 C 0.44159 0.56142 0.01195
 C250 C 0.45767 0.57516 0.01421
 C251 C 0.46904 0.57396 0.03206
 C252 C 0.46474 0.55927 0.04696
 C253 C 0.44861 0.54574 0.04430
 C254 C 0.42063 0.53383 0.02441
 C255 C 0.41576 0.51934 0.03927
 C256 C 0.42769 0.51786 0.05655
 C257 C 0.44404 0.53102 0.05919
 C258 C 0.45577 0.52980 0.07653
 C259 C 0.47193 0.54318 0.07938
 C260 C 0.47632 0.55787 0.06448
 H261 H 0.43180 0.56250 -0.00095
 H262 H 0.48186 0.58381 0.03414
 H263 H 0.41175 0.53478 0.01085
 H264 H 0.42397 0.50678 0.06813
 H265 H 0.45244 0.51823 0.08776
 H266 H 0.48856 0.56843 0.06667
 C267 C 0.55947 -0.03047 0.02365
 C268 C 0.55886 -0.04683 0.00934
 C269 C 0.54313 -0.06102 0.01080
 C270 C 0.52797 -0.05870 0.02676
 C271 C 0.52834 -0.04243 0.04107
 C272 C 0.54417 -0.02827 0.03961
 C273 C 0.57507 -0.01624 0.02219
 C274 C 0.57585 0.00005 0.03663
 C275 C 0.56056 0.00204 0.05257
 C276 C 0.54468 -0.01193 0.05410
 C277 C 0.52922 -0.00978 0.06980
 C278 C 0.51323 -0.02373 0.07115
 C279 C 0.51306 -0.04011 0.05680
 H280 H 0.57049 -0.04841 -0.00304
 H281 H 0.51597 -0.06976 0.02818
 H282 H 0.58648 -0.01772 0.00962
 H283 H 0.56113 0.01433 0.06395
 H284 H 0.52939 0.00298 0.08073
 H285 H 0.50105 -0.05117 0.05796
 C286 C 1.04552 0.48074 0.51467
 C287 C 1.03798 0.46636 0.50094
 C288 C 1.01884 0.45727 0.50495
 C289 C 1.00754 0.46285 0.52324
 C290 C 1.01520 0.47669 0.53731
 C291 C 1.03415 0.48583 0.53300
 C292 C 1.06426 0.49014 0.51036
 C293 C 1.07189 0.50443 0.52418
 C294 C 1.06057 0.50914 0.54258
 C295 C 1.04178 0.49995 0.54709
 C296 C 1.03061 0.50444 0.56557
 C297 C 1.01199 0.49487 0.57014
 C298 C 1.00430 0.48122 0.55583
 H299 H 1.04675 0.46292 0.48677
 H300 H 0.99325 0.45556 0.52724
 H301 H 1.07277 0.48653 0.49608
 H302 H 1.06653 0.51977 0.55354
 H303 H 1.03661 0.51499 0.57658
 H304 H 0.98974 0.47410 0.55916
 C305 C 0.40782 0.01598 0.23288
 H306 H 0.40656 0.02949 0.24294
 C307 C 0.42401 0.01373 0.21818
 H308 H 0.43514 0.02565 0.21687
 C309 C 0.39460 -0.01585 0.22225
 H310 H 0.38312 -0.02733 0.22400
 C311 C 0.41043 -0.01859 0.20710
 H312 H 0.41112 -0.03229 0.19727
 N313 N 0.39354 0.00132 0.23465
 C314 C 0.33460 0.02998 0.25821
 H315 H 0.33232 0.02193 0.27230
 C316 C 0.31904 0.04393 0.25169
 H317 H 0.30478 0.04650 0.26087
 C318 C 0.35562 0.03563 0.22868
 H319 H 0.36979 0.03220 0.21963
 C320 C 0.34052 0.04969 0.22161
 H321 H 0.34344 0.05722 0.20732
 Zn322 Zn 0.37243 0.00595 0.25524
 N323 N 0.35245 0.02614 0.24670
 C324 C 0.37787 0.03255 0.28958
 N325 N 0.38521 0.01529 0.27875
 C326 C 0.40268 0.00427 0.28393
 C327 C 0.41338 0.01028 0.30075
 C328 C 0.38806 0.03907 0.30665
 C329 C 0.34410 -0.02468 0.24807
 C330 C 0.33208 -0.04146 0.25281
 C331 C 0.35107 -0.04625 0.28325
 C332 C 0.36248 -0.02923 0.27809
 N333 N 0.35878 -0.01874 0.26081
 H334 H 0.36417 0.04131 0.28501
 H335 H 0.40830 -0.00927 0.27492
 H336 H 0.42709 0.00109 0.30477
 H337 H 0.38211 0.05287 0.31510
 H338 H 0.34126 -0.01592 0.23454
 H339 H 0.31991 -0.04533 0.24286
 H340 H 0.35445 -0.05439 0.29703
 H341 H 0.37405 -0.02425 0.28814
 C342 C 0.32187 0.05391 0.23310
 C343 C 0.42540 -0.00369 0.20501
 C344 C 0.33530 -0.05235 0.27078
 C345 C 0.40611 0.02790 0.31235
 C346 C 0.08546 0.00869 0.70249
 H347 H 0.08253 -0.00425 0.71222
 C348 C 0.07293 0.01268 0.68611
 H349 H 0.06052 0.00257 0.68317
 C350 C 0.10531 0.03749 0.69447
 H351 H 0.11783 0.04724 0.69786
 C352 C 0.09327 0.04196 0.67786
 H353 H 0.09660 0.05521 0.66867
 N354 N 0.10138 0.02095 0.70626
 C355 C 0.15339 -0.01127 0.73384
 H356 H 0.15617 -0.00008 0.74570
 C357 C 0.16746 -0.02830 0.73000
 H358 H 0.18120 -0.02984 0.73879
 C359 C 0.13231 -0.02240 0.70770
 H360 H 0.11859 -0.02007 0.69906
 C361 C 0.14583 -0.03978 0.70351
 H362 H 0.14208 -0.05079 0.69182
 Zn363 Zn 0.11779 0.01483 0.72875
 N364 N 0.13624 -0.00862 0.72272
 C365 C 0.10437 -0.00781 0.76265
 N366 N 0.10004 0.00916 0.75131
 C367 C 0.08327 0.02237 0.75602
 C368 C 0.07044 0.01911 0.77314
 C369 C 0.09197 -0.01166 0.77988
 C370 C 0.15076 0.04107 0.72284
 C371 C 0.16355 0.05712 0.72745
 C372 C 0.14103 0.06615 0.75690
 C373 C 0.12883 0.04977 0.75189
 N374 N 0.13380 0.03768 0.73505
 H375 H 0.11770 -0.01818 0.75860
 H376 H 0.08007 0.03564 0.74661
 H377 H 0.05723 0.02985 0.77672
 H378 H 0.09608 -0.02489 0.78905
 H379 H 0.15446 0.03112 0.70963
 H380 H 0.17702 0.05961 0.71762
 H381 H 0.13697 0.07551 0.77045
 H382 H 0.11551 0.04669 0.76159
 C383 C 0.16375 -0.04293 0.71468
 C384 C 0.07685 0.02945 0.67348
 C385 C 0.15870 0.06988 0.74467
 C386 C 0.07486 0.00201 0.78545
 C387 C 0.59285 0.51258 0.21502
 H388 H 0.58972 0.50015 0.22531
 C389 C 0.58136 0.51508 0.19770
 H390 H 0.56953 0.50434 0.19460
 C391 C 0.61204 0.54176 0.20666
 H392 H 0.62380 0.55230 0.21036
 C393 C 0.60106 0.54470 0.18906
 H394 H 0.60447 0.55755 0.17936
 N395 N 0.60788 0.52581 0.21916
 C396 C 0.65555 0.49656 0.25546
 H397 H 0.65601 0.50835 0.26730
 C398 C 0.66981 0.47943 0.25495
 H399 H 0.68116 0.47806 0.26653
 C400 C 0.63996 0.48390 0.22616
 H401 H 0.62838 0.48578 0.21492
 C402 C 0.65379 0.46639 0.22521
 H403 H 0.65281 0.45493 0.21312
 Zn404 Zn 0.62210 0.52210 0.24347
 N405 N 0.64094 0.49844 0.24127
 C406 C 0.60472 0.50207 0.27737
 N407 N 0.60224 0.51850 0.26491
 C408 C 0.58569 0.53246 0.26753
 C409 C 0.57113 0.53052 0.28361
 C410 C 0.59060 0.49956 0.29363
 C411 C 0.65535 0.54778 0.23770
 C412 C 0.66845 0.56352 0.24240
 C413 C 0.64469 0.57450 0.27038
 C414 C 0.63216 0.55839 0.26529
 N415 N 0.63767 0.54541 0.24920
 H416 H 0.61781 0.49099 0.27494
 H417 H 0.58394 0.54523 0.25722
 H418 H 0.55808 0.54180 0.28549
 H419 H 0.59327 0.48672 0.30371
 H420 H 0.65950 0.53709 0.22514
 H421 H 0.68259 0.56506 0.23322
 H422 H 0.64030 0.58444 0.28346
 H423 H 0.61830 0.55606 0.27451
 C424 C 0.66894 0.46400 0.23976
 C425 C 0.58543 0.53130 0.18445
 C426 C 0.66323 0.57702 0.25902
 C427 C 0.57359 0.51397 0.29702
 C428 C 0.90767 0.50337 0.73020
 H429 H 0.90950 0.51600 0.74090
 C430 C 0.92225 0.49954 0.71412
 H431 H 0.93543 0.50915 0.71272
 C432 C 0.88836 0.47532 0.71939
 H433 H 0.87513 0.46594 0.72147
 C434 C 0.90249 0.47103 0.70300
 H435 H 0.89971 0.45852 0.69246
 N436 N 0.89100 0.49149 0.73238
 C437 C 0.83906 0.52910 0.76029
 H438 H 0.83528 0.52005 0.77346
 C439 C 0.82652 0.54664 0.75585
 H440 H 0.81321 0.55120 0.76583
 C441 C 0.86091 0.53397 0.73115
 H442 H 0.87407 0.52879 0.72132
 C443 C 0.84888 0.55166 0.72621
 H444 H 0.85293 0.55989 0.71256
 Zn445 Zn 0.87147 0.49843 0.75400
 N446 N 0.85591 0.52315 0.74801
 C447 C 0.88331 0.51992 0.78925
 N448 N 0.88635 0.50218 0.77776
 C449 C 0.90091 0.48713 0.78231
 C450 C 0.91317 0.48962 0.79901
 C451 C 0.89512 0.52299 0.80616
 C452 C 0.83814 0.47526 0.74321
 C453 C 0.82303 0.46071 0.74548
 C454 C 0.83784 0.45042 0.77701
 C455 C 0.85258 0.46528 0.77422
 N456 N 0.85253 0.47727 0.75747
 H457 H 0.87187 0.53183 0.78525
 H458 H 0.90323 0.47331 0.77271
 H459 H 0.92502 0.47767 0.80204
 H460 H 0.89228 0.53713 0.81522
 H461 H 0.83830 0.48518 0.73016
 H462 H 0.81173 0.45930 0.73396
 H463 H 0.83793 0.44120 0.79057
 H464 H 0.86388 0.46737 0.78557
 C465 C 0.83138 0.55814 0.73858
 C466 C 0.91964 0.48332 0.70009
 C467 C 0.82274 0.44808 0.76258
 C468 C 0.91042 0.50780 0.81116
 C469 C 0.23722 0.38931 0.01569
 H470 H 0.24583 0.38946 0.02939
 C471 C 0.22032 0.40348 0.01366
 H472 H 0.21586 0.41437 0.02599
 C473 C 0.23255 0.37469 -0.01692
 H474 H 0.23753 0.36364 -0.02890
 C475 C 0.21547 0.38854 -0.01955
 H476 H 0.20747 0.38801 -0.03361
 N477 N 0.24286 0.37515 0.00061
 C478 C 0.27419 0.32300 0.03014
 H479 H 0.28888 0.32178 0.02151
 C480 C 0.27036 0.30915 0.04572
 H481 H 0.28215 0.29720 0.04893
 C482 C 0.24085 0.33986 0.03610
 H483 H 0.22932 0.35175 0.03224
 C484 C 0.23635 0.32633 0.05176
 H485 H 0.22150 0.32826 0.06006
 Zn486 Zn 0.26610 0.35674 0.00489
 N487 N 0.25965 0.33819 0.02587
 C488 C 0.29795 0.37008 0.02985
 N489 N 0.28812 0.37317 0.01224
 C490 C 0.29323 0.38869 -0.00040
 C491 C 0.30909 0.40158 0.00426
 C492 C 0.31397 0.38257 0.03506
 C493 C 0.26058 0.32646 -0.02528
 C494 C 0.26603 0.31350 -0.04212
 C495 C 0.29880 0.32973 -0.04536
 C496 C 0.29274 0.34233 -0.02845
 N497 N 0.27386 0.34058 -0.01884
 H498 H 0.29334 0.35805 0.03998
 H499 H 0.28498 0.39097 -0.01417
 H500 H 0.31315 0.41364 -0.00616
 H501 H 0.32155 0.37998 0.04919
 H502 H 0.24582 0.32510 -0.01713
 H503 H 0.25539 0.30211 -0.04677
 H504 H 0.31381 0.33154 -0.05289
 H505 H 0.30328 0.35333 -0.02291
 C506 C 0.25127 0.31083 0.05686
 C507 C 0.20914 0.40315 -0.00410
 C508 C 0.28543 0.31498 -0.05237
 C509 C 0.31973 0.39856 0.02218
 C510 C 0.74103 0.08595 -0.01043
 H511 H 0.75113 0.08547 -0.02399
 C512 C 0.72502 0.07234 -0.00864
 H513 H 0.72269 0.06153 -0.02098
 C514 C 0.73204 0.10045 0.02229
 H515 H 0.73510 0.11111 0.03448
 C516 C 0.71569 0.08727 0.02463
 H517 H 0.70626 0.08792 0.03864
 N518 N 0.74428 0.09960 0.00492
 C519 C 0.77765 0.15055 -0.02063
 H520 H 0.79083 0.15010 -0.01105
 C521 C 0.77588 0.16553 -0.03553
 H522 H 0.78771 0.17670 -0.03726
 C523 C 0.74609 0.13659 -0.02978
 H524 H 0.73453 0.12529 -0.02746
 C525 C 0.74364 0.15140 -0.04482
 H526 H 0.73029 0.15119 -0.05417
 Zn527 Zn 0.76746 0.11614 0.00180
 N528 N 0.76309 0.13624 -0.01830
 C529 C 0.80183 0.10146 -0.02368
 N530 N 0.79079 0.09816 -0.00611
 C531 C 0.79528 0.08127 0.00530
 C532 C 0.81143 0.06686 -0.00088
 C533 C 0.81816 0.08757 -0.03033
 C534 C 0.75758 0.14633 0.03189
 C535 C 0.76046 0.15890 0.04886
 C536 C 0.79276 0.13926 0.05388
 C537 C 0.78928 0.12708 0.03673
 N538 N 0.77188 0.13080 0.02617
 H539 H 0.79784 0.11468 -0.03281
 H540 H 0.78600 0.07879 0.01901
 H541 H 0.81442 0.05326 0.00815
 H542 H 0.82684 0.09068 -0.04425
 H543 H 0.74409 0.14919 0.02296
 H544 H 0.74912 0.17150 0.05281
 H545 H 0.80663 0.13601 0.06217
 H546 H 0.80063 0.11489 0.03174
 C547 C 0.75880 0.16595 -0.04799
 C548 C 0.71215 0.07286 0.00911
 C549 C 0.77829 0.15552 0.06008
 C550 C 0.82304 0.06985 -0.01903
 C551 C 0.22084 0.61022 0.48667
 H552 H 0.22961 0.60769 0.47239
 C553 C 0.20216 0.60061 0.49005
 H554 H 0.19649 0.59088 0.47819
 C555 C 0.21764 0.62599 0.51949
 H556 H 0.22387 0.63554 0.53110
 C557 C 0.19884 0.61683 0.52344
 H558 H 0.19078 0.61949 0.53809
 N559 N 0.22810 0.62278 0.50124
 C560 C 0.26839 0.66580 0.47092
 H561 H 0.28199 0.66352 0.47982
 C562 C 0.26826 0.68017 0.45537
 H563 H 0.28177 0.68908 0.45253
 C564 C 0.23416 0.65710 0.46418
 H565 H 0.22089 0.64813 0.46771
 C566 C 0.23337 0.67128 0.44844
 H567 H 0.21954 0.67278 0.43975
 Zn568 Zn 0.25380 0.63486 0.49578
 N569 N 0.25164 0.65440 0.47482
 C570 C 0.28374 0.61344 0.46923
 N571 N 0.27369 0.61321 0.48778
 C572 C 0.27734 0.59739 0.50074
 C573 C 0.29229 0.58142 0.49558
 C574 C 0.29868 0.59773 0.46339
 C575 C 0.25032 0.66643 0.52558
 C576 C 0.25582 0.67805 0.54238
 C577 C 0.28603 0.65457 0.54516
 C578 C 0.27993 0.64340 0.52830
 N579 N 0.26220 0.64931 0.51904
 H580 H 0.28030 0.62584 0.45891
 H581 H 0.26881 0.59736 0.51523
 H582 H 0.29517 0.56905 0.50615
 H583 H 0.30689 0.59845 0.44877
 H584 H 0.23654 0.67107 0.51766
 H585 H 0.24623 0.69172 0.54723
 H586 H 0.30001 0.64942 0.55251
 H587 H 0.28949 0.63009 0.52260
 C588 C 0.25065 0.68293 0.44374
 C589 C 0.19086 0.60397 0.50861
 C590 C 0.27386 0.67211 0.55245
 C591 C 0.30328 0.58158 0.47673
 C592 C 0.72741 0.90520 0.50969
 H593 H 0.73631 0.90414 0.52319
 C594 C 0.71256 0.92155 0.50786
 H595 H 0.70990 0.93281 0.52022
 C596 C 0.71992 0.89140 0.47745
 H597 H 0.72303 0.87975 0.46555
 C598 C 0.70502 0.90761 0.47490
 H599 H 0.69686 0.90828 0.46092
 N600 N 0.73054 0.89035 0.49478
 C601 C 0.75492 0.83589 0.52626
 H602 H 0.76916 0.83190 0.51743
 C603 C 0.74937 0.82397 0.54293
 H604 H 0.75951 0.81090 0.54700
 C605 C 0.72445 0.85787 0.53179
 H606 H 0.71451 0.87081 0.52723
 C607 C 0.71840 0.84651 0.54860
 H608 H 0.70389 0.85093 0.55684
 Zn609 Zn 0.75102 0.86885 0.49889
 N610 N 0.74266 0.85271 0.52125
 C611 C 0.78605 0.87874 0.52144
 N612 N 0.77569 0.88213 0.50419
 C613 C 0.78153 0.89672 0.49080
 C614 C 0.79825 0.90878 0.49463
 C615 C 0.80301 0.89036 0.52579
 C616 C 0.73912 0.83894 0.47100
 C617 C 0.74115 0.82536 0.45418
 C618 C 0.77560 0.83699 0.44715
 C619 C 0.77296 0.85024 0.46419
 N620 N 0.75485 0.85112 0.47561
 H621 H 0.78089 0.86744 0.53214
 H622 H 0.77283 0.89931 0.47734
 H623 H 0.80256 0.92046 0.48388
 H624 H 0.81081 0.88782 0.53980
 H625 H 0.72499 0.83974 0.48050
 H626 H 0.72853 0.81559 0.45100
 H627 H 0.78997 0.83689 0.43805
 H628 H 0.78539 0.85984 0.46823
 C629 C 0.73101 0.82945 0.55448
 C630 C 0.70103 0.92289 0.49032
 C631 C 0.75958 0.82427 0.44192
 C632 C 0.80908 0.90582 0.51243
 C633 C -0.01315 0.24799 0.42002
 H634 H 0.00095 0.25618 0.41810
 C635 C -0.01517 0.23383 0.43568
 H636 H -0.00255 0.23109 0.44575
 C637 C -0.04661 0.24127 0.40901
 H638 H -0.05901 0.24440 0.39889
 C639 C -0.04912 0.22673 0.42421
 H640 H -0.06336 0.21863 0.42548
 N641 N -0.02853 0.25105 0.40675
 C642 C 0.00131 0.26649 0.34881
 H643 H -0.00781 0.28046 0.34531
 C644 C 0.01757 0.25904 0.33551
 H645 H 0.02102 0.26747 0.32184
 C646 C 0.00834 0.23901 0.37132
 H647 H 0.00468 0.23118 0.38522
 C648 C 0.02480 0.23108 0.35850
 H649 H 0.03364 0.21716 0.36270
 Zn650 Zn -0.02343 0.26912 0.38483
 N651 N -0.00263 0.25676 0.36657
 C652 C 0.00386 0.30194 0.38880
 N653 N -0.01412 0.29409 0.39590
 C654 C -0.02541 0.30329 0.41184
 C655 C -0.01854 0.32093 0.42151
 C656 C 0.01110 0.31976 0.39778
 C657 C -0.05679 0.25865 0.36129
 C658 C -0.07425 0.26225 0.34983
 C659 C -0.07131 0.29913 0.35499
 C660 C -0.05437 0.29476 0.36700
 N661 N -0.04752 0.27477 0.36998
 H662 H 0.01277 0.29435 0.37628
 H663 H -0.03952 0.29657 0.41734
 H664 H -0.02742 0.32749 0.43463
 H665 H 0.02528 0.32585 0.39162
 H666 H -0.05066 0.24289 0.36335
 H667 H -0.08175 0.24896 0.34397
 H668 H -0.07581 0.31522 0.35230
 H669 H -0.04637 0.30741 0.37349
 C670 C 0.02983 0.24135 0.34052
 C671 C -0.03315 0.22267 0.43756
 C672 C -0.08172 0.28277 0.34626
 C673 C 0.00003 0.32940 0.41456
 C674 C 0.01423 0.69911 0.08841
 H675 H 0.00128 0.70987 0.08551
 C676 C 0.01739 0.68066 0.07696
 H677 H 0.00686 0.67751 0.06511
 C678 C 0.04420 0.69083 0.10676
 H679 H 0.05473 0.69491 0.11827
 C680 C 0.04780 0.67210 0.09585
 H681 H 0.06092 0.66183 0.09942
 N682 N 0.02761 0.70387 0.10292
 C683 C 0.00097 0.74328 0.15252
 H684 H 0.01228 0.75505 0.15249
 C685 C -0.01446 0.74334 0.16802
 H686 H -0.01463 0.75503 0.18003
 C687 C -0.01203 0.71349 0.13705
 H688 H -0.01103 0.70195 0.12490
 C689 C -0.02789 0.71311 0.15213
 H690 H -0.03914 0.70134 0.15121
 Zn691 Zn 0.02326 0.72976 0.11699
 N692 N 0.00191 0.72852 0.13745
 C693 C -0.00186 0.76289 0.10236
 N694 N 0.01551 0.75033 0.09823
 C695 C 0.02708 0.75193 0.08065
 C696 C 0.02145 0.76686 0.06650
 C697 C -0.00803 0.77800 0.08868
 C698 C 0.05237 0.72657 0.14699
 C699 C 0.06917 0.73209 0.15809
 C700 C 0.07652 0.75808 0.13325
 C701 C 0.05937 0.75223 0.12274
 N702 N 0.04770 0.73673 0.12975
 H703 H -0.01097 0.76129 0.11631
 H704 H 0.04066 0.74154 0.07762
 H705 H 0.03073 0.76780 0.05251
 H706 H -0.02169 0.78809 0.09246
 H707 H 0.04271 0.71444 0.15234
 H708 H 0.07255 0.72400 0.17191
 H709 H 0.08547 0.77067 0.12770
 H710 H 0.05525 0.76035 0.10920
 C711 C -0.02927 0.72818 0.16793
 C712 C 0.03441 0.66683 0.08057
 C713 C 0.08137 0.74813 0.15130
 C714 C 0.00366 0.78015 0.07046
 C715 C 0.51278 0.22701 0.59887
 H716 H 0.49895 0.23709 0.59758
 C717 C 0.51689 0.21027 0.58526
 H718 H 0.50615 0.20774 0.57344
 C719 C 0.54406 0.21893 0.61523
 H720 H 0.55476 0.22249 0.62675
 C721 C 0.54867 0.20190 0.60207
 H722 H 0.56274 0.19231 0.60396
 N723 N 0.52631 0.23103 0.61347
 C724 C 0.49581 0.26402 0.66566
 H725 H 0.50621 0.27649 0.66723
 C726 C 0.47962 0.26197 0.68008
 H727 H 0.47789 0.27278 0.69288
 C728 C 0.48584 0.23461 0.64716
 H729 H 0.48828 0.22404 0.63427
 C730 C 0.46931 0.23211 0.66111
 H731 H 0.45901 0.21973 0.65856
 Zn732 Zn 0.52037 0.25497 0.63030
 N733 N 0.49853 0.25053 0.64953
 C734 C 0.49415 0.28847 0.61780
 N735 N 0.51226 0.27714 0.61348
 C736 C 0.52422 0.28061 0.59653
 C737 C 0.51802 0.29597 0.58306
 C738 C 0.48743 0.30405 0.60482
 C739 C 0.54946 0.24880 0.66001
 C740 C 0.56595 0.25340 0.67198
 C741 C 0.57093 0.28402 0.65215
 C742 C 0.55423 0.27889 0.64062
 N743 N 0.54393 0.26149 0.64470
 H744 H 0.48475 0.28537 0.63123
 H745 H 0.53840 0.27114 0.59332
 H746 H 0.52751 0.29815 0.56940
 H747 H 0.47306 0.31302 0.60867
 H748 H 0.54084 0.23520 0.66307
 H749 H 0.57016 0.24308 0.68408
 H750 H 0.57878 0.29808 0.64892
 H751 H 0.54937 0.28897 0.62862
 C752 C 0.46594 0.24596 0.67783
 C753 C 0.53507 0.19743 0.58671
 C754 C 0.57685 0.27128 0.66817
 C755 C 0.49931 0.30786 0.58707
 C756 C 0.50245 0.73427 0.91776
 H757 H 0.51525 0.74441 0.91698
 C758 C 0.50162 0.71924 0.93269
 H759 H 0.51400 0.71772 0.94321
 C760 C 0.47087 0.72393 0.90483
 H761 H 0.45878 0.72600 0.89414
 C762 C 0.46945 0.70864 0.91948
 H763 H 0.45617 0.69909 0.91993
 N764 N 0.48733 0.73621 0.90410
 C765 C 0.51584 0.76336 0.85028
 H766 H 0.50543 0.77685 0.84831
 C767 C 0.53283 0.75917 0.83664
 H768 H 0.53555 0.76964 0.82428
 C769 C 0.52507 0.73344 0.86896
 H770 H 0.52188 0.72327 0.88138
 C771 C 0.54225 0.72874 0.85578
 H772 H 0.55210 0.71495 0.85823
 Zn773 Zn 0.48966 0.75735 0.88470
 N774 N 0.51250 0.75072 0.86624
 C775 C 0.50978 0.79429 0.89473
 N776 N 0.49359 0.78230 0.89925
 C777 C 0.47967 0.78753 0.91482
 C778 C 0.48128 0.80582 0.92613
 C779 C 0.51200 0.81275 0.90569
 C780 C 0.46069 0.74488 0.85671
 C781 C 0.44294 0.74683 0.84532
 C782 C 0.43503 0.78078 0.86082
 C783 C 0.45299 0.77828 0.87172
 N784 N 0.46526 0.76042 0.86974
 H785 H 0.52093 0.78968 0.88257
 H786 H 0.46717 0.77750 0.91833
 H787 H 0.47004 0.80967 0.93849
 H788 H 0.52471 0.82234 0.90161
 H789 H 0.47086 0.73095 0.85520
 H790 H 0.43938 0.73425 0.83517
 H791 H 0.42551 0.79514 0.86257
 H792 H 0.45709 0.79072 0.88168
 C793 C 0.54643 0.74180 0.83948
 C794 C 0.48500 0.70611 0.93363
 C795 C 0.42978 0.76492 0.84746
 C796 C 0.49751 0.81880 0.92151
 C797 C 0.12002 0.21208 0.25830
 C798 C 0.10192 0.21716 0.27031
 C799 C 0.08306 0.22220 0.26096
 C800 C 0.08262 0.22179 0.23972
 C801 C 0.10071 0.21655 0.22785
 C802 C 0.11961 0.21171 0.23700
 C803 C 0.06502 0.22766 0.27297
 C804 C 0.06562 0.22806 0.29423
 C805 C 0.08445 0.22270 0.30353
 C806 C 0.10247 0.21734 0.29153
 C807 C 0.08500 0.22292 0.32474
 C808 C 0.06714 0.22864 0.33667
 C809 C 0.04839 0.23430 0.32764
 C810 C 0.04772 0.23388 0.30635
 H811 H 0.13452 0.20877 0.26559
 H812 H 0.06829 0.22550 0.23228
 H813 H 0.09986 0.21610 0.21150
 H814 H 0.05058 0.23167 0.26581
 H815 H 0.11693 0.21338 0.29870
 H816 H 0.09930 0.21885 0.33211
 H817 H 0.06811 0.22911 0.35302
 H818 H 0.03328 0.23802 0.29925
 C819 C 0.63386 0.71705 0.75335
 C820 C 0.61655 0.72300 0.76616
 C821 C 0.59760 0.72957 0.75770
 C822 C 0.59640 0.73024 0.73654
 C823 C 0.61370 0.72413 0.72387
 C824 C 0.63254 0.71730 0.73214
 C825 C 0.58015 0.73514 0.77053
 C826 C 0.58139 0.73402 0.79169
 C827 C 0.60042 0.72752 0.80007
 C828 C 0.61788 0.72219 0.78728
 C829 C 0.60163 0.72622 0.82116
 C830 C 0.58411 0.73102 0.83387
 C831 C 0.56504 0.73732 0.82577
 C832 C 0.56385 0.73899 0.80461
 H833 H 0.64839 0.71219 0.75993
 H834 H 0.58200 0.73523 0.72978
 H835 H 0.61222 0.72432 0.70759
 H836 H 0.56557 0.74010 0.76405
 H837 H 0.63243 0.71713 0.79375
 H838 H 0.61611 0.72135 0.82783
 H839 H 0.58549 0.72992 0.85012
 H840 H 0.54918 0.74366 0.79820
 C841 C 0.34038 0.77887 0.76987
 C842 C 0.35792 0.77444 0.78123
 C843 C 0.37653 0.76610 0.77138
 C844 C 0.37724 0.76228 0.75037
 C845 C 0.35976 0.76685 0.73916
 C846 C 0.34118 0.77524 0.74875
 C847 C 0.39417 0.76190 0.78266
 C848 C 0.39349 0.76615 0.80363
 C849 C 0.37484 0.77446 0.81346
 C850 C 0.35716 0.77842 0.80223
 C851 C 0.37427 0.77895 0.83435
 C852 C 0.39207 0.77559 0.84537
 C853 C 0.41074 0.76749 0.83577
 C854 C 0.41127 0.76256 0.81489
 H855 H 0.32608 0.78506 0.77751
 H856 H 0.39139 0.75595 0.74256
 H857 H 0.36090 0.76414 0.72289
 H858 H 0.40846 0.75557 0.77508
 H859 H 0.34289 0.78485 0.80979
 H860 H 0.36011 0.78528 0.84214
 H861 H 0.39125 0.77930 0.86148
 H862 H 0.42566 0.75651 0.80732
 C863 C -0.17287 0.28835 0.26912
 C864 C -0.15606 0.28443 0.28164
 C865 C -0.14438 0.26527 0.27982
 C866 C -0.15025 0.25000 0.26630
 C867 C -0.16741 0.25363 0.25449
 C868 C -0.17897 0.27304 0.25515
 C869 C -0.12714 0.26154 0.29170
 C870 C -0.12185 0.27648 0.30601
 C871 C -0.13402 0.29533 0.30851
 C872 C -0.15081 0.29938 0.29605
 C873 C -0.12928 0.30971 0.32356
 C874 C -0.11264 0.30548 0.33599
 C875 C -0.09989 0.28705 0.33328
 C876 C -0.10468 0.27270 0.31800
 H877 H -0.18053 0.30369 0.27014
 H878 H -0.14177 0.23499 0.26511
 H879 H -0.17169 0.24058 0.24541
 H880 H -0.11803 0.24689 0.29002
 H881 H -0.15995 0.31401 0.29777
 H882 H -0.13863 0.32412 0.32592
 H883 H -0.11000 0.31668 0.34788
 H884 H -0.09500 0.25860 0.31514
 C885 C -0.11895 0.70955 0.25038
 C886 C -0.10224 0.70961 0.23598
 C887 C -0.09345 0.69060 0.22759
 C888 C -0.10153 0.67191 0.23363
 C889 C -0.11847 0.67196 0.24751
 C890 C -0.12763 0.69075 0.25608
 C891 C -0.07693 0.69057 0.21305
 C892 C -0.06941 0.70936 0.20635
 C893 C -0.07833 0.72841 0.21455
 C894 C -0.09453 0.72842 0.22946
 C895 C -0.07105 0.74715 0.20749
 C896 C -0.05520 0.74705 0.19236
 C897 C -0.04610 0.72820 0.18413
 C898 C -0.05328 0.70938 0.19138
 H899 H -0.12588 0.72432 0.25613
 H900 H -0.09487 0.65718 0.22747
 H901 H -0.12388 0.65706 0.25197
 H902 H -0.07019 0.67594 0.20668
 H903 H -0.10135 0.74306 0.23574
 H904 H -0.07779 0.76191 0.21349
 H905 H -0.05031 0.76181 0.18688
 H906 H -0.04625 0.69470 0.18547
 C907 C 0.37075 0.21706 0.74961
 C908 C 0.38873 0.21893 0.73713
 C909 C 0.39951 0.20092 0.72865
 C910 C 0.39216 0.18137 0.73275
 C911 C 0.37406 0.17961 0.74480
 C912 C 0.36288 0.19739 0.75337
 C913 C 0.41728 0.20273 0.71593
 C914 C 0.42415 0.22239 0.71118
 C915 C 0.41331 0.24044 0.71956
 C916 C 0.39579 0.23860 0.73263
 C917 C 0.42001 0.26006 0.71450
 C918 C 0.43713 0.26181 0.70105
 C919 C 0.44805 0.24398 0.69256
 C920 C 0.44151 0.22427 0.69792
 H921 H 0.36233 0.23113 0.75531
 H922 H 0.40035 0.16738 0.72651
 H923 H 0.36930 0.16411 0.74786
 H924 H 0.42552 0.18886 0.70943
 H925 H 0.38747 0.25248 0.73902
 H926 H 0.41183 0.27407 0.72070
 H927 H 0.44153 0.27720 0.69699
 H928 H 0.44992 0.21036 0.69178
 C929 C 0.65754 0.29192 0.75204
 C930 C 0.64096 0.28833 0.73957
 C931 C 0.62209 0.28180 0.74826
 C932 C 0.61996 0.27932 0.76923
 C933 C 0.63650 0.28274 0.78152
 C934 C 0.65576 0.28879 0.77322
 C935 C 0.60568 0.27762 0.73587
 C936 C 0.60795 0.27968 0.71480
 C937 C 0.62671 0.28642 0.70602
 C938 C 0.64310 0.29074 0.71847
 C939 C 0.62880 0.28855 0.68492
 C940 C 0.61254 0.28381 0.67261
 C941 C 0.59395 0.27679 0.68119
 C942 C 0.59174 0.27492 0.70235
 H943 H 0.67213 0.29599 0.74489
 H944 H 0.60548 0.27463 0.77617
 H945 H 0.63377 0.28117 0.79769
 H946 H 0.59126 0.27250 0.74260
 H947 H 0.65755 0.29577 0.71172
 H948 H 0.64305 0.29372 0.67791
 H949 H 0.61463 0.28527 0.65633
 H950 H 0.57734 0.26986 0.70915
 C951 C 0.16033 0.78269 0.23191
 C952 C 0.14404 0.77714 0.21985
 C953 C 0.12410 0.77478 0.22900
 C954 C 0.12068 0.77839 0.24991
 C955 C 0.13693 0.78394 0.26176
 C956 C 0.15696 0.78590 0.25299
 C957 C 0.10792 0.76867 0.21716
 C958 C 0.11136 0.76496 0.19626
 C959 C 0.13116 0.76769 0.18697
 C960 C 0.14740 0.77371 0.19884
 C961 C 0.13435 0.76429 0.16596
 C962 C 0.11812 0.75809 0.15430
 C963 C 0.09854 0.75497 0.16349
 C964 C 0.09526 0.75852 0.18449
 H965 H 0.17573 0.78398 0.22497
 H966 H 0.10546 0.77682 0.25712
 H967 H 0.13381 0.78673 0.27788
 H968 H 0.09269 0.76670 0.22425
 H969 H 0.16264 0.77563 0.19177
 H970 H 0.14939 0.76637 0.15857
 H971 H 0.12095 0.75540 0.13813
 H972 H 0.08007 0.75647 0.19161
 C973 C 0.23308 0.13859 0.20967
 C974 C 0.24823 0.12447 0.21691
 C975 C 0.25233 0.12461 0.23780
 C976 C 0.24115 0.13880 0.25108
 C977 C 0.22609 0.15277 0.24376
 C978 C 0.22193 0.15285 0.22302
 C979 C 0.26756 0.11063 0.24507
 C980 C 0.27874 0.09647 0.23173
 C981 C 0.27456 0.09626 0.21086
 C982 C 0.25933 0.11024 0.20359
 C983 C 0.28574 0.08208 0.19758
 C984 C 0.30101 0.06830 0.20485
 C985 C 0.30542 0.06844 0.22554
 C986 C 0.29412 0.08257 0.23892
 H987 H 0.22983 0.13837 0.19369
 H988 H 0.24412 0.13916 0.26712
 H989 H 0.21789 0.16378 0.25430
 H990 H 0.27074 0.11080 0.26108
 H991 H 0.25617 0.11009 0.18757
 H992 H 0.28268 0.08163 0.18156
 H993 H 0.30925 0.05736 0.19428
 H994 H 0.29753 0.08300 0.25486
 C995 C 0.74582 0.64414 0.71050
 C996 C 0.75848 0.62717 0.71655
 C997 C 0.74930 0.60911 0.72368
 C998 C 0.72762 0.60837 0.72465
 C999 C 0.71513 0.62536 0.71863
 C1000 C 0.72408 0.64338 0.71151
 C1001 C 0.76191 0.59211 0.72972
 C1002 C 0.78360 0.59291 0.72869
 C1003 C 0.79277 0.61098 0.72157
 C1004 C 0.78016 0.62800 0.71559
 C1005 C 0.81445 0.61167 0.72044
 C1006 C 0.82696 0.59456 0.72613
 C1007 C 0.81802 0.57649 0.73315
 C1008 C 0.79628 0.57584 0.73449
 H1009 H 0.75287 0.65807 0.70530
 H1010 H 0.72032 0.59465 0.73003
 H1011 H 0.69843 0.62432 0.71935
 H1012 H 0.75486 0.57826 0.73516
 H1013 H 0.78721 0.64184 0.71012
 H1014 H 0.82174 0.62540 0.71508
 H1015 H 0.84366 0.59550 0.72516
 H1016 H 0.78924 0.56188 0.73963
 C1017 C 0.74947 0.35675 0.78772
 C1018 C 0.76499 0.37066 0.78344
 C1019 C 0.78598 0.36464 0.78660
 C1020 C 0.79113 0.34473 0.79368
 C1021 C 0.77561 0.33099 0.79788
 C1022 C 0.75463 0.33688 0.79514
 C1023 C 0.80148 0.37865 0.78282
 C1024 C 0.79627 0.39864 0.77591
 C1025 C 0.77532 0.40457 0.77246
 C1026 C 0.75981 0.39056 0.77626
 C1027 C 0.77021 0.42450 0.76539
 C1028 C 0.78567 0.43852 0.76196
 C1029 C 0.80650 0.43290 0.76562
 C1030 C 0.81169 0.41285 0.77252
 H1031 H 0.73334 0.36157 0.78573
 H1032 H 0.80714 0.33981 0.79606
 H1033 H 0.78006 0.31567 0.80322
 H1034 H 0.81756 0.37405 0.78539
 H1035 H 0.74373 0.39518 0.77375
 H1036 H 0.75425 0.42932 0.76265
 H1037 H 0.78126 0.45394 0.75683
 H1038 H 0.82775 0.40828 0.77515
 C1039 C 0.26017 -0.14430 0.28680
 C1040 C 0.27383 -0.12915 0.28078
 C1041 C 0.27895 -0.12665 0.25998
 C1042 C 0.27017 -0.13924 0.24553
 C1043 C 0.25626 -0.15403 0.25158
 C1044 C 0.25096 -0.15689 0.27232
 C1045 C 0.29255 -0.11144 0.25393
 C1046 C 0.30075 -0.09837 0.26845
 C1047 C 0.29539 -0.10073 0.28926
 C1048 C 0.28213 -0.11619 0.29530
 C1049 C 0.30321 -0.08742 0.30371
 C1050 C 0.31611 -0.07181 0.29765
 C1051 C 0.32176 -0.06932 0.27701
 C1052 C 0.31402 -0.08282 0.26248
 H1053 H 0.25594 -0.14536 0.30280
 H1054 H 0.27400 -0.13763 0.22950
 H1055 H 0.25033 -0.16371 0.23984
 H1056 H 0.29651 -0.10958 0.23794
 H1057 H 0.27809 -0.11797 0.31129
 H1058 H 0.29912 -0.08890 0.31971
 H1059 H 0.32135 -0.06141 0.30919
 H1060 H 0.31835 -0.08131 0.24655
 C1061 C 0.24112 -0.14292 0.70998
 C1062 C 0.22837 -0.12482 0.71394
 C1063 C 0.22557 -0.11671 0.73397
 C1064 C 0.23602 -0.12658 0.74960
 C1065 C 0.24889 -0.14449 0.74553
 C1066 C 0.25144 -0.15324 0.72571
 C1067 C 0.21235 -0.09893 0.73804
 C1068 C 0.20209 -0.08901 0.72225
 C1069 C 0.20532 -0.09685 0.70213
 C1070 C 0.21837 -0.11472 0.69811
 C1071 C 0.19535 -0.08674 0.68634
 C1072 C 0.18211 -0.06913 0.69042
 C1073 C 0.17838 -0.06136 0.71041
 C1074 C 0.18857 -0.07143 0.72626
 H1075 H 0.24345 -0.14845 0.69439
 H1076 H 0.23406 -0.12058 0.76507
 H1077 H 0.25593 -0.15195 0.75828
 H1078 H 0.21004 -0.09284 0.75347
 H1079 H 0.22066 -0.12082 0.68268
 H1080 H 0.19780 -0.09243 0.67081
 H1081 H 0.17491 -0.06151 0.67783
 H1082 H 0.18571 -0.06585 0.74179
 C1083 C 0.73284 0.35546 0.23225
 C1084 C 0.71881 0.37295 0.23380
 C1085 C 0.69739 0.37053 0.23149
 C1086 C 0.69035 0.35066 0.22804
 C1087 C 0.70441 0.33338 0.22639
 C1088 C 0.72579 0.33560 0.22821
 C1089 C 0.68340 0.38802 0.23238
 C1090 C 0.69053 0.40794 0.23548
 C1091 C 0.71189 0.41036 0.23809
 C1092 C 0.72589 0.39286 0.23724
 C1093 C 0.71890 0.43029 0.24140
 C1094 C 0.70493 0.44768 0.24201
 C1095 C 0.68371 0.44549 0.23919
 C1096 C 0.67661 0.42551 0.23596
 H1097 H 0.74932 0.35738 0.23348
 H1098 H 0.67398 0.34850 0.22637
 H1099 H 0.69857 0.31822 0.22355
 H1100 H 0.66700 0.38614 0.23047
 H1101 H 0.74230 0.39474 0.23907
 H1102 H 0.73521 0.43244 0.24344
 H1103 H 0.71076 0.46292 0.24439
 H1104 H 0.66023 0.42365 0.23405
 C1105 C 0.75363 0.64854 0.28766
 C1106 C 0.73972 0.63335 0.28289
 C1107 C 0.74737 0.61267 0.27848
 C1108 C 0.76866 0.60744 0.27928
 C1109 C 0.78237 0.62263 0.28387
 C1110 C 0.77507 0.64335 0.28781
 C1111 C 0.73369 0.59759 0.27305
 C1112 C 0.71243 0.60289 0.27189
 C1113 C 0.70467 0.62346 0.27661
 C1114 C 0.71836 0.63857 0.28208
 C1115 C 0.68332 0.62856 0.27566
 C1116 C 0.66983 0.61346 0.27000
 C1117 C 0.67747 0.59307 0.26500
 C1118 C 0.69882 0.58790 0.26604
 H1119 H 0.74788 0.66450 0.29053
 H1120 H 0.77475 0.59165 0.27608
 H1121 H 0.79878 0.61822 0.28420
 H1122 H 0.73962 0.58179 0.26953
 H1123 H 0.71244 0.65439 0.28552
 H1124 H 0.67707 0.64422 0.27926
 H1125 H 0.65343 0.61777 0.26925
 H1126 H 0.70478 0.57211 0.26254
 C1127 C 0.24504 0.14639 0.77277
 C1128 C 0.23216 0.13057 0.76728
 C1129 C 0.24103 0.11052 0.76196
 C1130 C 0.26256 0.10660 0.76247
 C1131 C 0.27525 0.12240 0.76804
 C1132 C 0.26668 0.14247 0.77312
 C1133 C 0.22825 0.09475 0.75619
 C1134 C 0.20669 0.09870 0.75580
 C1135 C 0.19779 0.11868 0.76135
 C1136 C 0.21059 0.13451 0.76695
 C1137 C 0.17619 0.12246 0.76128
 C1138 C 0.16351 0.10659 0.75583
 C1139 C 0.17221 0.08674 0.75015
 C1140 C 0.19386 0.08293 0.75009
 H1141 H 0.23824 0.16185 0.77641
 H1142 H 0.26960 0.09130 0.75857
 H1143 H 0.29181 0.11886 0.76849
 H1144 H 0.23508 0.07940 0.75204
 H1145 H 0.20376 0.14985 0.77112
 H1146 H 0.16910 0.13765 0.76550
 H1147 H 0.14687 0.10986 0.75587
 H1148 H 0.20065 0.06757 0.74599
 C1149 C 0.21015 0.23957 0.14448
 C1150 C 0.21464 0.25151 0.12744
 C1151 C 0.19899 0.25620 0.11362
 C1152 C 0.17920 0.24870 0.11700
 C1153 C 0.17485 0.23685 0.13402
 C1154 C 0.19022 0.23223 0.14796
 C1155 C 0.20333 0.26843 0.09676
 C1156 C 0.22308 0.27615 0.09360
 C1157 C 0.23877 0.27131 0.10733
 C1158 C 0.23446 0.25901 0.12414
 C1159 C 0.25848 0.27903 0.10411
 C1160 C 0.26258 0.29164 0.08758
 C1161 C 0.24705 0.29676 0.07395
 C1162 C 0.22734 0.28879 0.07700
 H1163 H 0.22205 0.23636 0.15526
 H1164 H 0.16705 0.25207 0.10653
 H1165 H 0.15947 0.23115 0.13621
 H1166 H 0.19129 0.27211 0.08622
 H1167 H 0.24647 0.25540 0.13472
 H1168 H 0.27068 0.27550 0.11448
 H1169 H 0.27780 0.29776 0.08571
 H1170 H 0.21532 0.29238 0.06644
 C1171 C 0.70164 0.75172 0.64111
 C1172 C 0.70776 0.76277 0.62394
 C1173 C 0.71515 0.75185 0.60602
 C1174 C 0.71616 0.73006 0.60557
 C1175 C 0.71003 0.71918 0.62273
 C1176 C 0.70278 0.72986 0.64068
 C1177 C 0.72141 0.76286 0.58887
 C1178 C 0.72032 0.78467 0.58939
 C1179 C 0.71283 0.79557 0.60729
 C1180 C 0.70666 0.78456 0.62446
 C1181 C 0.71156 0.81735 0.60773
 C1182 C 0.71754 0.82827 0.59057
 C1183 C 0.72502 0.81764 0.57268
 C1184 C 0.72648 0.79578 0.57224
 H1185 H 0.69635 0.76013 0.65494
 H1186 H 0.72169 0.72142 0.59196
 H1187 H 0.71081 0.70235 0.62192
 H1188 H 0.72710 0.75447 0.57514
 H1189 H 0.70096 0.79296 0.63818
 H1190 H 0.70589 0.82595 0.62132
 H1191 H 0.71649 0.84510 0.59132
 H1192 H 0.73203 0.78745 0.55845
 C1193 C 0.79066 0.74500 0.35078
 C1194 C 0.78826 0.75876 0.36762
 C1195 C 0.80548 0.76227 0.37951
 C1196 C 0.82481 0.75216 0.37424
 C1197 C 0.82709 0.73862 0.35740
 C1198 C 0.81007 0.73484 0.34555
 C1199 C 0.80313 0.77579 0.39648
 C1200 C 0.78381 0.78601 0.40167
 C1201 C 0.76663 0.78269 0.38968
 C1202 C 0.76895 0.76905 0.37277
 C1203 C 0.74741 0.79309 0.39482
 C1204 C 0.74518 0.80661 0.41169
 C1205 C 0.76208 0.80994 0.42387
 C1206 C 0.78139 0.79950 0.41869
 H1207 H 0.77749 0.74235 0.34162
 H1208 H 0.83817 0.75465 0.38318
 H1209 H 0.84212 0.73079 0.35384
 H1210 H 0.81634 0.77838 0.40563
 H1211 H 0.75574 0.76645 0.36363
 H1212 H 0.73411 0.79083 0.38573
 H1213 H 0.73022 0.81467 0.41505
 H1214 H 0.79451 0.80163 0.42806
 C1215 C 0.30219 0.24146 -0.14998
 C1216 C 0.29616 0.25517 -0.13371
 C1217 C 0.27540 0.26344 -0.13157
 C1218 C 0.26105 0.25786 -0.14576
 C1219 C 0.26713 0.24410 -0.16182
 C1220 C 0.28771 0.23574 -0.16408
 C1221 C 0.26930 0.27702 -0.11524
 C1222 C 0.28365 0.28232 -0.10091
 C1223 C 0.30440 0.27404 -0.10306
 C1224 C 0.31054 0.26057 -0.11946
 C1225 C 0.31867 0.27929 -0.08868
 C1226 C 0.31248 0.29257 -0.07229
 C1227 C 0.29190 0.30096 -0.06996
 C1228 C 0.27756 0.29574 -0.08442
 H1229 H 0.31803 0.23491 -0.15145
 H1230 H 0.24509 0.26408 -0.14439
 H1231 H 0.25576 0.24008 -0.17261
 H1232 H 0.25336 0.28334 -0.11361
 H1233 H 0.32646 0.25420 -0.12106
 H1234 H 0.33461 0.27301 -0.09004
 H1235 H 0.32377 0.29604 -0.06124
 H1236 H 0.26171 0.30227 -0.08295
 C1237 C 0.73151 0.24756 -0.13213
 C1238 C 0.73329 0.23398 -0.11585
 C1239 C 0.71558 0.23040 -0.10328
 C1240 C 0.69648 0.24068 -0.10707
 C1241 C 0.69483 0.25412 -0.12336
 C1242 C 0.71226 0.25757 -0.13613
 C1243 C 0.71722 0.21646 -0.08727
 C1244 C 0.73632 0.20599 -0.08373
 C1245 C 0.75406 0.20975 -0.09618
 C1246 C 0.75243 0.22372 -0.11215
 C1247 C 0.77313 0.19935 -0.09255
 C1248 C 0.77463 0.18525 -0.07681
 C1249 C 0.75709 0.18124 -0.06443
 C1250 C 0.73795 0.19173 -0.06797
 H1251 H 0.74499 0.24989 -0.14204
 H1252 H 0.68277 0.23821 -0.09753
 H1253 H 0.67989 0.26185 -0.12597
 H1254 H 0.70361 0.21364 -0.07770
 H1255 H 0.76602 0.22648 -0.12176
 H1256 H 0.78687 0.20203 -0.10195
 H1257 H 0.78949 0.17719 -0.07452
 H1258 H 0.72438 0.18892 -0.05836
 C1259 C 0.23020 0.75969 0.35368
 C1260 C 0.23111 0.74787 0.37132
 C1261 C 0.21318 0.74685 0.38431
 C1262 C 0.19473 0.75784 0.37957
 C1263 C 0.19386 0.76924 0.36181
 C1264 C 0.21148 0.77009 0.34863
 C1265 C 0.21381 0.73449 0.40157
 C1266 C 0.23203 0.72279 0.40581
 C1267 C 0.25000 0.72391 0.39291
 C1268 C 0.24948 0.73657 0.37584
 C1269 C 0.26811 0.71205 0.39710
 C1270 C 0.26833 0.69893 0.41370
 C1271 C 0.25050 0.69749 0.42654
 C1272 C 0.23244 0.70970 0.42256
 H1273 H 0.24378 0.76011 0.34345
 H1274 H 0.18087 0.75728 0.38937
 H1275 H 0.17934 0.77728 0.35824
 H1276 H 0.20001 0.73362 0.41144
 H1277 H 0.26323 0.73730 0.36588
 H1278 H 0.28201 0.71268 0.38735
 H1279 H 0.28238 0.68953 0.41623
 H1280 H 0.21867 0.70898 0.43249
 C1281 C 0.28759 0.74092 0.65106
 C1282 C 0.28209 0.72835 0.63475
 C1283 C 0.26103 0.72418 0.63254
 C1284 C 0.24586 0.73251 0.64672
 C1285 C 0.25143 0.74513 0.66279
 C1286 C 0.27228 0.74956 0.66506
 C1287 C 0.25541 0.71194 0.61609
 C1288 C 0.27056 0.70396 0.60168
 C1289 C 0.29164 0.70804 0.60392
 C1290 C 0.29729 0.72015 0.62047
 C1291 C 0.30671 0.70006 0.58944
 C1292 C 0.30094 0.68831 0.57281
 C1293 C 0.28001 0.68427 0.57035
 C1294 C 0.26492 0.69209 0.58497
 H1295 H 0.30368 0.74442 0.65258
 H1296 H 0.22966 0.72942 0.64530
 H1297 H 0.23941 0.75142 0.67353
 H1298 H 0.23924 0.70881 0.61438
 H1299 H 0.31345 0.72335 0.62213
 H1300 H 0.32293 0.70306 0.59088
 H1301 H 0.31285 0.68267 0.56165
 H1302 H 0.24877 0.68883 0.58342
 C1303 C 0.77826 0.23319 0.15448
 C1304 C 0.77519 0.21886 0.13874
 C1305 C 0.75504 0.21221 0.13569
 C1306 C 0.73833 0.21995 0.14845
 C1307 C 0.74151 0.23419 0.16406
 C1308 C 0.76145 0.24099 0.16724
 C1309 C 0.75187 0.19801 0.11992
 C1310 C 0.76858 0.19047 0.10702
 C1311 C 0.78874 0.19705 0.11008
 C1312 C 0.79194 0.21117 0.12594
 C1313 C 0.80536 0.18952 0.09709
 C1314 C 0.80201 0.17583 0.08104
 C1315 C 0.78198 0.16931 0.07772
 C1316 C 0.76537 0.17659 0.09097
 H1317 H 0.79367 0.23848 0.15663
 H1318 H 0.72280 0.21496 0.14638
 H1319 H 0.72837 0.23969 0.17386
 H1320 H 0.73639 0.19297 0.11757
 H1321 H 0.80741 0.21626 0.12825
 H1322 H 0.82092 0.19443 0.09917
 H1323 H 0.81504 0.17071 0.07093
 H1324 H 0.74990 0.17146 0.08879
 C1325 C 0.47765 0.39722 0.50886
 C1326 C 0.48470 0.38198 0.52222
 C1327 C 0.50614 0.37934 0.52571
 C1328 C 0.52015 0.39189 0.51562
 C1329 C 0.51300 0.40696 0.50225
 C1330 C 0.49172 0.40982 0.49882
 C1331 C 0.51320 0.36423 0.53921
 C1332 C 0.49911 0.35163 0.54917
 C1333 C 0.47770 0.35417 0.54552
 C1334 C 0.47063 0.36934 0.53211
 C1335 C 0.46368 0.34148 0.55537
 C1336 C 0.47076 0.32644 0.56876
 C1337 C 0.49198 0.32384 0.57268
 C1338 C 0.50608 0.33653 0.56274
 H1339 H 0.46123 0.39914 0.50609
 H1340 H 0.53663 0.39009 0.51810
 H1341 H 0.52410 0.41662 0.49479
 H1342 H 0.52963 0.36226 0.54193
 H1343 H 0.45420 0.37131 0.52938
 H1344 H 0.44725 0.34314 0.55266
 H1345 H 0.45959 0.31664 0.57589
 H1346 H 0.52245 0.33487 0.56577
 C1347 C -0.01306 0.87296 -0.00487
 C1348 C -0.00678 0.85641 0.00737
 C1349 C 0.01459 0.85202 0.01022
 C1350 C 0.02931 0.86409 0.00050
 C1351 C 0.02291 0.88051 -0.01174
 C1352 C 0.00170 0.88520 -0.01438
 C1353 C 0.02087 0.83577 0.02284
 C1354 C 0.00604 0.82387 0.03264
 C1355 C -0.01530 0.82810 0.02952
 C1356 C -0.02157 0.84430 0.01689
 C1357 C -0.03008 0.81616 0.03925
 C1358 C -0.02385 0.80041 0.05226
 C1359 C -0.00272 0.79626 0.05582
 C1360 C 0.01218 0.80796 0.04574
 H1361 H -0.02945 0.87628 -0.00708
 H1362 H 0.04575 0.86094 0.00248
 H1363 H 0.03453 0.88982 -0.01883
 H1364 H 0.03725 0.83251 0.02516
 H1365 H -0.03796 0.84762 0.01463
 H1366 H -0.04649 0.81910 0.03692
 H1367 H -0.03561 0.79140 0.05953
 H1368 H 0.02851 0.80507 0.04850
 C1369 C 0.03705 0.56398 0.01244
 C1370 C 0.03333 0.58181 0.02497
 C1371 C 0.01272 0.58925 0.03004
 C1372 C -0.00380 0.57884 0.02242
 C1373 C -0.00003 0.56139 0.00966
 C1374 C 0.02044 0.55359 0.00434
 C1375 C 0.00893 0.60710 0.04246
 C1376 C 0.02553 0.61791 0.04953
 C1377 C 0.04616 0.61062 0.04428
 C1378 C 0.04994 0.59253 0.03219
 C1379 C 0.06269 0.62167 0.05107
 C1380 C 0.05885 0.63986 0.06281
 C1381 C 0.03839 0.64728 0.06825
 C1382 C 0.02179 0.63604 0.06159
 H1383 H 0.05298 0.55901 0.00822
 H1384 H -0.01971 0.58425 0.02627
 H1385 H -0.01336 0.55362 0.00462
 H1386 H -0.00692 0.61274 0.04636
 H1387 H 0.06579 0.58695 0.02820
 H1388 H 0.07861 0.61639 0.04708
 H1389 H 0.07196 0.64832 0.06734
 H1390 H 0.00594 0.64132 0.06586
 C1391 C 0.54262 0.10376 0.50671
 C1392 C 0.53813 0.11967 0.52135
 C1393 C 0.51731 0.12455 0.52815
 C1394 C 0.50134 0.11352 0.52011
 C1395 C 0.50593 0.09790 0.50537
 C1396 C 0.52655 0.09287 0.49854
 C1397 C 0.51274 0.14047 0.54273
 C1398 C 0.52870 0.15182 0.55039
 C1399 C 0.54950 0.14704 0.54349
 C1400 C 0.55410 0.13091 0.52913
 C1401 C 0.56534 0.15862 0.55097
 C1402 C 0.56065 0.17489 0.56501
 C1403 C 0.54002 0.17981 0.57205
 C1404 C 0.52413 0.16802 0.56470
 H1405 H 0.55855 0.10011 0.50135
 H1406 H 0.48531 0.11705 0.52514
 H1407 H 0.49333 0.08958 0.49940
 H1408 H 0.49677 0.14417 0.54795
 H1409 H 0.57007 0.12726 0.52386
 H1410 H 0.58136 0.15525 0.54577
 H1411 H 0.57318 0.18388 0.57007
 H1412 H 0.50820 0.17137 0.57017
 C1413 C -0.04822 0.12303 0.50355
 C1414 C -0.04560 0.13880 0.48937
 C1415 C -0.04842 0.13460 0.46857
 C1416 C -0.05320 0.11465 0.46223
 C1417 C -0.05564 0.09906 0.47637
 C1418 C -0.05354 0.10311 0.49720
 C1419 C -0.04656 0.15040 0.45442
 C1420 C -0.04173 0.17038 0.46072
 C1421 C -0.03838 0.17454 0.48141
 C1422 C -0.04045 0.15875 0.49564
 C1423 C -0.03302 0.19446 0.48748
 C1424 C -0.03113 0.21012 0.47321
 C1425 C -0.03491 0.20619 0.45274
 C1426 C -0.04018 0.18626 0.44660
 H1427 H -0.04666 0.12644 0.51954
 H1428 H -0.05517 0.11111 0.44633
 H1429 H -0.05923 0.08376 0.47097
 H1430 H -0.04893 0.14718 0.43852
 H1431 H -0.03811 0.16199 0.51154
 H1432 H -0.03028 0.19793 0.50325
 H1433 H -0.02703 0.22540 0.47819
 H1434 H -0.04278 0.18308 0.43074
 C1435 C 0.46980 0.60931 1.00382
 C1436 C 0.47241 0.62435 0.98888
 C1437 C 0.46757 0.61988 0.96864
 C1438 C 0.46050 0.60043 0.96359
 C1439 C 0.45764 0.58569 0.97850
 C1440 C 0.46188 0.58988 0.99898
 C1441 C 0.46957 0.63498 0.95378
 C1442 C 0.47611 0.65468 0.95892
 C1443 C 0.48112 0.65921 0.97911
 C1444 C 0.47932 0.64399 0.99396
 C1445 C 0.48765 0.67897 0.98414
 C1446 C 0.48901 0.69415 0.96936
 C1447 C 0.48386 0.68988 0.94927
 C1448 C 0.47753 0.67000 0.94417
 H1449 H 0.47280 0.61340 1.01937
 H1450 H 0.45700 0.59664 0.94808
 H1451 H 0.45262 0.57073 0.97364
 H1452 H 0.46574 0.63149 0.93827
 H1453 H 0.48304 0.64752 1.00948
 H1454 H 0.49154 0.68274 0.99954
 H1455 H 0.49375 0.70939 0.97373
 H1456 H 0.47382 0.66641 0.92866
 C1457 C 0.52333 0.91619 0.98841
 C1458 C 0.52222 0.89881 0.97550
 C1459 C 0.54052 0.88669 0.96965
 C1460 C 0.55967 0.89244 0.97656
 C1461 C 0.56060 0.90972 0.98956
 C1462 C 0.54243 0.92157 0.99584
 C1463 C 0.53932 0.86886 0.95728
 C1464 C 0.52003 0.86293 0.95087
 C1465 C 0.50179 0.87525 0.95655
 C1466 C 0.50302 0.89316 0.96871
 C1467 C 0.48253 0.86929 0.95021
 C1468 C 0.48125 0.85109 0.93866
 C1469 C 0.49919 0.83851 0.93316
 C1470 C 0.51861 0.84468 0.93916
 H1471 H 0.50926 0.92544 0.99287
 H1472 H 0.57386 0.88335 0.97221
 H1473 H 0.57548 0.91346 0.99519
 H1474 H 0.55333 0.85946 0.95292
 H1475 H 0.48899 0.90249 0.97319
 H1476 H 0.46843 0.87862 0.95434
 H1477 H 0.46617 0.84687 0.93394
 H1478 H 0.53253 0.83501 0.93518
 C1479 C 0.02505 0.42860 0.47975
 C1480 C 0.01751 0.41275 0.46769
 C1481 C -0.00412 0.41115 0.46635
 C1482 C -0.01784 0.42536 0.47712
 C1483 C -0.01028 0.44064 0.48961
 C1484 C 0.01128 0.44247 0.49133
 C1485 C -0.01173 0.39507 0.45469
 C1486 C 0.00203 0.38009 0.44491
 C1487 C 0.02367 0.38153 0.44641
 C1488 C 0.03129 0.39802 0.45752
 C1489 C 0.03734 0.36619 0.43713
 C1490 C 0.02965 0.34938 0.42675
 C1491 C 0.00813 0.34772 0.42510
 C1492 C -0.00556 0.36340 0.43406
 H1493 H 0.04168 0.42910 0.48111
 H1494 H -0.03448 0.42445 0.47616
 H1495 H -0.02149 0.45139 0.49750
 H1496 H -0.02835 0.39389 0.45369
 H1497 H 0.04791 0.39907 0.45867
 H1498 H 0.05397 0.36695 0.43824
 H1499 H 0.04064 0.33742 0.42043
 H1500 H -0.02216 0.36262 0.43269
 C1501 C 0.40130 0.50269 0.46234
 C1502 C 0.38434 0.51642 0.46814
 C1503 C 0.38248 0.52485 0.48813
 C1504 C 0.39754 0.51929 0.50201
 C1505 C 0.41441 0.50567 0.49610
 C1506 C 0.41652 0.49730 0.47623
 C1507 C 0.36572 0.53882 0.49389
 C1508 C 0.35087 0.54461 0.47985
 C1509 C 0.35266 0.53610 0.45989
 C1510 C 0.36932 0.52198 0.45419
 C1511 C 0.33788 0.54208 0.44586
 C1512 C 0.32168 0.55663 0.45144
 C1513 C 0.31986 0.56535 0.47117
 C1514 C 0.33442 0.55907 0.48538
 H1515 H 0.40261 0.49611 0.44706
 H1516 H 0.39639 0.52563 0.51737
 H1517 H 0.42604 0.50196 0.50701
 H1518 H 0.36436 0.54535 0.50920
 H1519 H 0.37073 0.51553 0.43884
 H1520 H 0.33897 0.53567 0.43052
 H1521 H 0.31051 0.56107 0.44030
 H1522 H 0.33331 0.56590 0.50057
 C1523 C 0.91780 -0.01181 -0.04201
 C1524 C 0.90151 0.00208 -0.03474
 C1525 C 0.89845 0.00614 -0.01368
 C1526 C 0.91156 -0.00401 -0.00023
 C1527 C 0.92762 -0.01798 -0.00752
 C1528 C 0.93121 -0.02206 -0.02856
 C1529 C 0.88235 0.02025 -0.00642
 C1530 C 0.86912 0.03021 -0.01998
 C1531 C 0.87200 0.02586 -0.04104
 C1532 C 0.88818 0.01188 -0.04829
 C1533 C 0.85864 0.03561 -0.05456
 C1534 C 0.84269 0.04968 -0.04733
 C1535 C 0.83981 0.05445 -0.02645
 C1536 C 0.85310 0.04450 -0.01284
 H1537 H 0.91936 -0.01514 -0.05817
 H1538 H 0.90949 -0.00103 0.01598
 H1539 H 0.93775 -0.02479 0.00350
 H1540 H 0.88011 0.02347 0.00976
 H1541 H 0.89041 0.00866 -0.06447
 H1542 H 0.86052 0.03232 -0.07073
 H1543 H 0.83244 0.05673 -0.05814
 H1544 H 0.85121 0.04814 0.00327
 C1545 C 0.61290 0.00814 0.02829
 C1546 C 0.62860 0.02224 0.02611
 C1547 C 0.62413 0.04351 0.03103
 C1548 C 0.60398 0.05032 0.03787
 C1549 C 0.58836 0.03624 0.03971
 C1550 C 0.59260 0.01500 0.03495
 C1551 C 0.63982 0.05763 0.02889
 C1552 C 0.65987 0.05078 0.02165
 C1553 C 0.66424 0.02952 0.01653
 C1554 C 0.64864 0.01537 0.01894
 C1555 C 0.68416 0.02276 0.00896
 C1556 C 0.69962 0.03691 0.00645
 C1557 C 0.69553 0.05803 0.01163
 C1558 C 0.67559 0.06486 0.01930
 H1559 H 0.61655 -0.00821 0.02488
 H1560 H 0.60024 0.06659 0.04160
 H1561 H 0.57284 0.04207 0.04455
 H1562 H 0.63640 0.07395 0.03272
 H1563 H 0.65205 -0.00094 0.01507
 H1564 H 0.68778 0.00653 0.00495
 H1565 H 0.71493 0.03127 0.00071
 H1566 H 0.67225 0.08118 0.02314
 C1567 C 0.09364 0.53557 0.52426
 C1568 C 0.11234 0.54503 0.51994
 C1569 C 0.12938 0.53325 0.51053
 C1570 C 0.12742 0.51220 0.50567
 C1571 C 0.10878 0.50288 0.51011
 C1572 C 0.09170 0.51442 0.51944
 C1573 C 0.14811 0.54266 0.50620
 C1574 C 0.15006 0.56369 0.51127
 C1575 C 0.13303 0.57544 0.52076
 C1576 C 0.11427 0.56607 0.52495
 C1577 C 0.13509 0.59638 0.52601
 C1578 C 0.15386 0.60559 0.52201
 C1579 C 0.17090 0.59410 0.51257
 C1580 C 0.16883 0.57313 0.50715
 H1581 H 0.08051 0.54474 0.53119
 H1582 H 0.14034 0.50291 0.49853
 H1583 H 0.10783 0.48651 0.50649
 H1584 H 0.16117 0.53361 0.49897
 H1585 H 0.10122 0.57511 0.53221
 H1586 H 0.12220 0.60562 0.53325
 H1587 H 0.15501 0.62182 0.52613
 H1588 H 0.18196 0.56406 0.50009
 C1589 C 0.10301 0.46649 -0.02168
 C1590 C 0.12047 0.45272 -0.01990
 C1591 C 0.11973 0.43176 -0.02633
 C1592 C 0.10158 0.42492 -0.03437
 C1593 C 0.08429 0.43865 -0.03613
 C1594 C 0.08457 0.45976 -0.02989
 C1595 C 0.13713 0.41796 -0.02461
 C1596 C 0.15533 0.42486 -0.01655
 C1597 C 0.15611 0.44584 -0.01011
 C1598 C 0.13871 0.45965 -0.01187
 C1599 C 0.17429 0.45265 -0.00196
 C1600 C 0.19151 0.43880 -0.00009
 C1601 C 0.19092 0.41789 -0.00642
 C1602 C 0.17273 0.41106 -0.01472
 H1603 H 0.10433 0.48264 -0.01740
 H1604 H 0.10067 0.40883 -0.03918
 H1605 H 0.07044 0.43226 -0.04169
 H1606 H 0.13650 0.40186 -0.02955
 H1607 H 0.13934 0.47574 -0.00693
 H1608 H 0.17519 0.46869 0.00301
 H1609 H 0.20540 0.44450 0.00613
 H1610 H 0.17200 0.39491 -0.01941
 C1611 C 0.60428 1.00026 0.47188
 C1612 C 0.61976 0.98428 0.47384
 C1613 C 0.61692 0.96421 0.46581
 C1614 C 0.59881 0.96048 0.45583
 C1615 C 0.58371 0.97649 0.45353
 C1616 C 0.58612 0.99672 0.46142
 C1617 C 0.63229 0.94821 0.46772
 C1618 C 0.65070 0.95209 0.47723
 C1619 C 0.65373 0.97222 0.48503
 C1620 C 0.63819 0.98816 0.48342
 C1621 C 0.67232 0.97607 0.49425
 C1622 C 0.68773 0.96013 0.49578
 C1623 C 0.68482 0.93997 0.48826
 C1624 C 0.66617 0.93612 0.47899
 H1625 H 0.60705 1.01568 0.47760
 H1626 H 0.59632 0.94514 0.44971
 H1627 H 0.56975 0.97262 0.44616
 H1628 H 0.63000 0.93279 0.46161
 H1629 H 0.64051 1.00358 0.48947
 H1630 H 0.67498 0.99143 0.50021
 H1631 H 0.70205 0.96366 0.50270
 H1632 H 0.66352 0.92062 0.47339
 C1633 C 0.88729 0.99322 0.53285
 C1634 C 0.87127 0.98009 0.52873
 C1635 C 0.85231 0.98866 0.52171
 C1636 C 0.84959 1.01016 0.51921
 C1637 C 0.86557 1.02308 0.52334
 C1638 C 0.88463 1.01478 0.53003
 C1639 C 0.83642 0.97561 0.51719
 C1640 C 0.83919 0.95408 0.51960
 C1641 C 0.85803 0.94549 0.52685
 C1642 C 0.87398 0.95855 0.53133
 C1643 C 0.86057 0.92395 0.52946
 C1644 C 0.84465 0.91105 0.52485
 C1645 C 0.82599 0.91943 0.51740
 C1646 C 0.82337 0.94100 0.51487
 H1647 H 0.90198 0.98660 0.53780
 H1648 H 0.83511 1.01698 0.51397
 H1649 H 0.86298 1.03966 0.52137
 H1650 H 0.82193 0.98220 0.51171
 H1651 H 0.88848 0.95195 0.53677
 H1652 H 0.87488 0.91709 0.53502
 H1653 H 0.84701 0.89445 0.52684
 H1654 H 0.80888 0.94765 0.50947
 C1655 C 0.39997 0.48460 0.04063
 C1656 C 0.38350 0.47183 0.03710
 C1657 C 0.36482 0.48060 0.02963
 C1658 C 0.36283 0.50196 0.02607
 C1659 C 0.37929 0.51450 0.02951
 C1660 C 0.39806 0.50596 0.03662
 C1661 C 0.34852 0.46788 0.02563
 C1662 C 0.35066 0.44644 0.02885
 C1663 C 0.36922 0.43766 0.03650
 C1664 C 0.38552 0.45041 0.04061
 C1665 C 0.37121 0.41621 0.03975
 C1666 C 0.35507 0.40356 0.03527
 C1667 C 0.33665 0.41209 0.02741
 C1668 C 0.33454 0.43362 0.02437
 H1669 H 0.41443 0.47783 0.04596
 H1670 H 0.34859 0.50895 0.02046
 H1671 H 0.37734 0.53097 0.02662
 H1672 H 0.33426 0.47462 0.01980
 H1673 H 0.39981 0.44365 0.04636
 H1674 H 0.38532 0.40920 0.04561
 H1675 H 0.35714 0.38699 0.03759
 H1676 H 0.32028 0.44042 0.01862
 C1677 C 0.50559 0.48362 0.39336
 C1678 C 0.51685 0.48592 0.37493
 C1679 C 0.52383 0.46810 0.36317
 C1680 C 0.51926 0.44832 0.36994
 C1681 C 0.50818 0.44616 0.38837
 C1682 C 0.50137 0.46373 0.40032
 C1683 C 0.53555 0.47029 0.34501
 C1684 C 0.54065 0.49006 0.33859
 C1685 C 0.53351 0.50791 0.35023
 C1686 C 0.52155 0.50574 0.36826
 C1687 C 0.53877 0.52762 0.34379
 C1688 C 0.55142 0.52961 0.32627
 C1689 C 0.55895 0.51195 0.31479
 C1690 C 0.55315 0.49222 0.32091
 H1691 H 0.50061 0.49726 0.40257
 H1692 H 0.52442 0.43451 0.36109
 H1693 H 0.50486 0.43071 0.39327
 H1694 H 0.54103 0.45660 0.33609
 H1695 H 0.51620 0.51942 0.37726
 H1696 H 0.53345 0.54146 0.35252
 H1697 H 0.55581 0.54496 0.32204
 H1698 H 0.55855 0.47850 0.31202
 C1699 C 0.01498 -0.03399 0.88472
 C1700 C 0.02515 -0.03072 0.86590
 C1701 C 0.03136 -0.04791 0.85296
 C1702 C 0.02711 -0.06803 0.85899
 C1703 C 0.01698 -0.07114 0.87775
 C1704 C 0.01089 -0.05420 0.89083
 C1705 C 0.04185 -0.04473 0.83430
 C1706 C 0.04633 -0.02458 0.82846
 C1707 C 0.03995 -0.00738 0.84133
 C1708 C 0.02937 -0.01056 0.85994
 C1709 C 0.04446 0.01271 0.83545
 C1710 C 0.05548 0.01575 0.81715
 C1711 C 0.06217 -0.00124 0.80434
 C1712 C 0.05732 -0.02138 0.81005
 H1713 H 0.01062 -0.02081 0.89477
 H1714 H 0.03168 -0.08137 0.84923
 H1715 H 0.01375 -0.08683 0.88196
 H1716 H 0.04671 -0.05793 0.82443
 H1717 H 0.02459 0.00264 0.86985
 H1718 H 0.03971 0.02606 0.84513
 H1719 H 0.05923 0.03139 0.81325
 H1720 H 0.06213 -0.03458 0.80019
 C1721 C -0.00627 0.04784 0.59003
 C1722 C 0.00591 0.04440 0.60690
 C1723 C -0.00371 0.03959 0.62578
 C1724 C -0.02532 0.03853 0.62751
 C1725 C -0.03732 0.04197 0.61067
 C1726 C -0.02796 0.04651 0.59174
 C1727 C 0.00842 0.03581 0.64259
 C1728 C 0.03007 0.03677 0.64080
 C1729 C 0.03969 0.04178 0.62198
 C1730 C 0.02756 0.04553 0.60515
 C1731 C 0.06132 0.04289 0.62030
 C1732 C 0.07333 0.03899 0.63706
 C1733 C 0.06397 0.03382 0.65580
 C1734 C 0.04227 0.03277 0.65754
 H1735 H 0.00117 0.05112 0.57547
 H1736 H -0.03297 0.03498 0.64188
 H1737 H -0.05400 0.04119 0.61249
 H1738 H 0.00102 0.03203 0.65703
 H1739 H 0.03497 0.04927 0.59070
 H1740 H 0.06896 0.04669 0.60600
 H1741 H 0.09003 0.03970 0.63529
 H1742 H 0.03486 0.02906 0.67199
 C1743 C 0.50580 0.54321 0.09693
 C1744 C 0.51732 0.54105 0.11444
 C1745 C 0.50702 0.53735 0.13328
 C1746 C 0.48540 0.53618 0.13436
 C1747 C 0.47407 0.53838 0.11691
 C1748 C 0.48411 0.54172 0.09799
 C1749 C 0.51847 0.53476 0.15073
 C1750 C 0.54012 0.53587 0.14963
 C1751 C 0.55042 0.53984 0.13086
 C1752 C 0.53897 0.54236 0.11337
 C1753 C 0.57205 0.54119 0.12990
 C1754 C 0.58337 0.53854 0.14733
 C1755 C 0.57332 0.53434 0.16602
 C1756 C 0.55163 0.53305 0.16703
 H1757 H 0.51377 0.54559 0.08242
 H1758 H 0.47724 0.53351 0.14870
 H1759 H 0.45737 0.53754 0.11825
 H1760 H 0.51054 0.53181 0.16514
 H1761 H 0.54691 0.54527 0.09896
 H1762 H 0.58021 0.54425 0.11566
 H1763 H 0.60008 0.53946 0.14615
 H1764 H 0.54370 0.53011 0.18143
 C1765 C 0.50116 -0.01647 0.10750
 C1766 C 0.48538 -0.01498 0.12291
 C1767 C 0.46466 -0.01829 0.11812
 C1768 C 0.46004 -0.02279 0.09802
 C1769 C 0.47581 -0.02424 0.08281
 C1770 C 0.49652 -0.02128 0.08737
 C1771 C 0.44889 -0.01708 0.13348
 C1772 C 0.45351 -0.01249 0.15358
 C1773 C 0.47419 -0.00900 0.15837
 C1774 C 0.49000 -0.01034 0.14302
 C1775 C 0.47868 -0.00409 0.17844
 C1776 C 0.46282 -0.00250 0.19360
 C1777 C 0.44224 -0.00601 0.18900
 C1778 C 0.43772 -0.01115 0.16895
 H1779 H 0.51710 -0.01433 0.11124
 H1780 H 0.44424 -0.02524 0.09406
 H1781 H 0.47176 -0.02762 0.06738
 H1782 H 0.43302 -0.01968 0.12977
 H1783 H 0.50587 -0.00773 0.14672
 H1784 H 0.49442 -0.00136 0.18240
 H1785 H 0.46664 0.00135 0.20899
 H1786 H 0.42184 -0.01361 0.16525
 C1787 C 0.99304 0.48200 0.60084
 C1788 C 0.98112 0.48549 0.61898
 C1789 C 0.97657 0.50605 0.62639
 C1790 C 0.98451 0.52272 0.61574
 C1791 C 0.99645 0.51909 0.59768
 C1792 C 1.00054 0.49875 0.58993
 C1793 C 0.96398 0.50959 0.64415
 C1794 C 0.95590 0.49283 0.65457
 C1795 C 0.96085 0.47226 0.64736
 C1796 C 0.97344 0.46872 0.62964
 C1797 C 0.95289 0.45555 0.65787
 C1798 C 0.93983 0.45915 0.67517
 C1799 C 0.93439 0.47954 0.68227
 C1800 C 0.94269 0.49632 0.67193
 H1801 H 0.99642 0.46624 0.59511
 H1802 H 0.98125 0.53858 0.62123
 H1803 H 1.00203 0.53221 0.58946
 H1804 H 0.96029 0.52538 0.64972
 H1805 H 0.97703 0.45295 0.62400
 H1806 H 0.95667 0.43969 0.65264
 H1807 H 0.93402 0.44593 0.68302
 H1808 H 0.93845 0.51213 0.67703
 C1809 C 0.98232 0.50726 0.90531
 C1810 C 0.96911 0.50417 0.88934
 C1811 C 0.96241 0.48406 0.88522
 C1812 C 0.96913 0.46740 0.89711
 C1813 C 0.98243 0.47059 0.91288
 C1814 C 0.98912 0.49051 0.91714
 C1815 C 0.94924 0.48093 0.86921
 C1816 C 0.94287 0.49760 0.85713
 C1817 C 0.94966 0.51767 0.86123
 C1818 C 0.96266 0.52085 0.87734
 C1819 C 0.94344 0.53425 0.84904
 C1820 C 0.93069 0.53101 0.83286
 C1821 C 0.92376 0.51115 0.82861
 C1822 C 0.92990 0.49450 0.84094
 H1823 H 0.98764 0.52264 0.90831
 H1824 H 0.96415 0.45189 0.89418
 H1825 H 0.98735 0.45749 0.92191
 H1826 H 0.94410 0.46550 0.86605
 H1827 H 0.96785 0.53626 0.88046
 H1828 H 0.94859 0.54971 0.85190
 H1829 H 0.92655 0.54404 0.82344
 H1830 H 0.92448 0.47916 0.83803
 C1831 C 0.48300 0.04700 0.39969
 C1832 C 0.47193 0.04485 0.38198
 C1833 C 0.48284 0.03997 0.36326
 C1834 C 0.50457 0.03779 0.36247
 C1835 C 0.51541 0.03973 0.38015
 C1836 C 0.50477 0.04402 0.39895
 C1837 C 0.47189 0.03684 0.34571
 C1838 C 0.45014 0.03818 0.34664
 C1839 C 0.43916 0.04347 0.36521
 C1840 C 0.45014 0.04690 0.38276
 C1841 C 0.41738 0.04477 0.36597
 C1842 C 0.40658 0.04025 0.34865
 C1843 C 0.41739 0.03437 0.33030
 C1844 C 0.43920 0.03378 0.32934
 H1845 H 0.47466 0.05017 0.41414
 H1846 H 0.51316 0.03419 0.34823
 H1847 H 0.53220 0.03771 0.37918
 H1848 H 0.48029 0.03284 0.33143
 H1849 H 0.44173 0.05070 0.39707
 H1850 H 0.40869 0.04886 0.38005
 H1851 H 0.38978 0.04073 0.34977
 H1852 H 0.44767 0.02961 0.31515
   
