data_POSCAR
  _audit_creation_date              2014-09-24
  _audit_creation_method            'ToBaCCo'
  _symmetry_space_group_name_H-M    'P1'
  _symmetry_Int_Tables_number       1
  _symmetry_cell_setting            triclinic
  loop_
  _symmetry_equiv_pos_as_xyz
 x,y,z
_cell_length_a 47.6520
_cell_length_b 46.6087
_cell_length_c 50.4810
_cell_angle_alpha 89.322300
_cell_angle_beta 88.671300
_cell_angle_gamma 89.422600
loop_
  _atom_site_label
  _atom_site_type_symbol
  _atom_site_fract_x
  _atom_site_fract_y
  _atom_site_fract_z
C1 C 0.37606 0.32446 0.33825
 C2 C 0.36179 0.34785 0.32653
 C3 C 0.33692 0.35898 0.33848
 C4 C 0.32659 0.34627 0.36201
 C5 C 0.34089 0.32325 0.37400
 C6 C 0.36539 0.31252 0.36195
 H7 H 0.36987 0.35704 0.30823
 H8 H 0.30703 0.35411 0.37070
 H9 H 0.37618 0.29448 0.37108
 C10 C 0.34209 0.82191 -0.15684
 C11 C 0.33326 0.84694 -0.17055
 C12 C 0.31063 0.86401 -0.16105
 C13 C 0.29614 0.85509 -0.13792
 C14 C 0.30443 0.83045 -0.12397
 C15 C 0.32719 0.81382 -0.13365
 H16 H 0.34264 0.85203 -0.18951
 H17 H 0.27846 0.86764 -0.13037
 H18 H 0.33309 0.79427 -0.12326
 C19 C 0.85678 0.33009 -0.19140
 C20 C 0.84746 0.35600 -0.20252
 C21 C 0.82606 0.37244 -0.19014
 C22 C 0.81383 0.36212 -0.16642
 C23 C 0.82312 0.33652 -0.15471
 C24 C 0.84460 0.32038 -0.16729
 H25 H 0.85677 0.36248 -0.22131
 H26 H 0.79703 0.37424 -0.15673
 H27 H 0.85075 0.29985 -0.15896
 C28 C 0.87132 0.84239 0.33848
 C29 C 0.85454 0.86381 0.32733
 C30 C 0.82686 0.86898 0.33684
 C31 C 0.81698 0.85273 0.35902
 C32 C 0.83423 0.83156 0.37094
 C33 C 0.86136 0.82699 0.36061
 H34 H 0.86353 0.87567 0.31081
 H35 H 0.79568 0.85607 0.36630
 H36 H 0.87473 0.81100 0.36981
 C37 C 0.62796 0.65409 0.34153
 C38 C 0.64397 0.63065 0.33258
 C39 C 0.67031 0.62422 0.34336
 C40 C 0.67972 0.64096 0.36446
 C41 C 0.66330 0.66411 0.37424
 C42 C 0.63760 0.67039 0.36258
 H43 H 0.63566 0.61773 0.31700
 H44 H 0.70009 0.63634 0.37263
 H45 H 0.62495 0.68790 0.37040
 C46 C 0.63644 0.17360 -0.16253
 C47 C 0.64993 0.14896 -0.17299
 C48 C 0.67610 0.13971 -0.16299
 C49 C 0.68845 0.15577 -0.14308
 C50 C 0.67490 0.17969 -0.13198
 C51 C 0.64894 0.18837 -0.14186
 H52 H 0.63983 0.13721 -0.18835
 H53 H 0.70897 0.14939 -0.13636
 H54 H 0.63847 0.20709 -0.13355
 C55 C 0.13115 0.68027 -0.14853
 C56 C 0.14258 0.65407 -0.15788
 C57 C 0.16365 0.63943 -0.14350
 C58 C 0.17272 0.65131 -0.11972
 C59 C 0.16231 0.67772 -0.11066
 C60 C 0.14138 0.69180 -0.12507
 H61 H 0.13549 0.64571 -0.17636
 H62 H 0.18817 0.63977 -0.10827
 H63 H 0.13308 0.71214 -0.11801
 C64 C 0.14425 0.18470 0.35107
 C65 C 0.15962 0.16176 0.33961
 C66 C 0.18179 0.14855 0.35344
 C67 C 0.18834 0.15865 0.37855
 C68 C 0.17375 0.18176 0.38995
 C69 C 0.15156 0.19452 0.37619
 H70 H 0.15508 0.15509 0.31978
 H71 H 0.20556 0.14880 0.38915
 H72 H 0.13972 0.21207 0.38498
 C73 C 0.63017 0.33728 0.65628
 C74 C 0.64261 0.32484 0.63376
 C75 C 0.66879 0.33386 0.62379
 C76 C 0.68238 0.35641 0.63640
 C77 C 0.66971 0.37006 0.65848
 C78 C 0.64372 0.36013 0.66843
 H79 H 0.63211 0.30726 0.62433
 H80 H 0.70296 0.36281 0.62954
 H81 H 0.63402 0.37050 0.68544
 C82 C 0.61896 0.82792 1.17047
 C83 C 0.63131 0.81316 1.14898
 C84 C 0.65572 0.82348 1.13604
 C85 C 0.66873 0.84842 1.14572
 C86 C 0.65669 0.86326 1.16765
 C87 C 0.63143 0.85317 1.17887
 H88 H 0.62176 0.79397 1.14162
 H89 H 0.68818 0.85560 1.13663
 H90 H 0.62187 0.86456 1.19549
 C91 C 0.14717 0.33287 1.17355
 C92 C 0.15064 0.32035 1.14829
 C93 C 0.17355 0.32727 1.13154
 C94 C 0.19334 0.34707 1.14009
 C95 C 0.19006 0.36043 1.16462
 C96 C 0.16714 0.35299 1.18136
 H97 H 0.13611 0.30474 1.14124
 H98 H 0.21172 0.35206 1.12804
 H99 H 0.16514 0.36223 1.20089
 C100 C 0.13304 0.83798 0.67728
 C101 C 0.14571 0.82503 0.65462
 C102 C 0.17080 0.83629 0.64352
 C103 C 0.18294 0.86033 0.65486
 C104 C 0.17053 0.87394 0.67696
 C105 C 0.14556 0.86258 0.68771
 H106 H 0.13694 0.80606 0.64605
 H107 H 0.20241 0.86783 0.64606
 H108 H 0.13604 0.87276 0.70499
 C109 C 0.33074 0.67641 0.66146
 C110 C 0.31647 0.68523 0.63873
 C111 C 0.29476 0.66876 0.62849
 C112 C 0.28671 0.64360 0.64191
 C113 C 0.30015 0.63443 0.66505
 C114 C 0.32247 0.65085 0.67462
 H115 H 0.32211 0.70542 0.62936
 H116 H 0.26959 0.63117 0.63434
 H117 H 0.33306 0.64400 0.69227
 C118 C 0.37391 0.16857 1.15175
 C119 C 0.36395 0.17913 1.12762
 C120 C 0.33913 0.16903 1.11701
 C121 C 0.32431 0.14722 1.13056
 C122 C 0.33358 0.13609 1.15495
 C123 C 0.35875 0.14690 1.16532
 H124 H 0.37542 0.19594 1.11715
 H125 H 0.30547 0.13871 1.12216
 H126 H 0.36710 0.13821 1.18336
 C127 C 0.86077 0.66598 1.16347
 C128 C 0.85177 0.68336 1.14242
 C129 C 0.82750 0.67681 1.12866
 C130 C 0.81200 0.65221 1.13637
 C131 C 0.82094 0.63424 1.15736
 C132 C 0.84567 0.64139 1.17043
 H133 H 0.86385 0.70195 1.13633
 H134 H 0.79273 0.64723 1.12658
 H135 H 0.85340 0.62854 1.18663
 C136 C 0.85455 0.15334 0.66373
 C137 C 0.84156 0.16560 0.64144
 C138 C 0.81744 0.15342 0.63087
 C139 C 0.80602 0.12893 0.64295
 C140 C 0.81823 0.11611 0.66522
 C141 C 0.84287 0.12825 0.67523
 H142 H 0.84986 0.18524 0.63286
 H143 H 0.78710 0.11996 0.63498
 H144 H 0.85295 0.11827 0.69177
 C145 C 0.33849 0.38810 0.67846
 C146 C 0.32373 0.38006 0.65619
 C147 C 0.33012 0.35474 0.64277
 C148 C 0.35249 0.33743 0.65162
 C149 C 0.36808 0.34522 0.67378
 C150 C 0.36073 0.37070 0.68736
 H151 H 0.30653 0.39355 0.64952
 H152 H 0.35786 0.31767 0.64164
 H153 H 0.37249 0.37761 0.70414
 C154 C 0.33388 0.87328 0.17206
 C155 C 0.32621 0.85874 0.14901
 C156 C 0.34213 0.83501 0.13976
 C157 C 0.36592 0.82628 0.15359
 C158 C 0.37328 0.83994 0.17694
 C159 C 0.35741 0.86337 0.18593
 H160 H 0.30808 0.86621 0.13831
 H161 H 0.37854 0.80851 0.14621
 H162 H 0.36317 0.87291 0.20440
 C163 C 0.83943 0.35728 0.16030
 C164 C 0.83639 0.34720 0.13433
 C165 C 0.85056 0.32227 0.12562
 C166 C 0.86828 0.30780 0.14297
 C167 C 0.87223 0.31758 0.16863
 C168 C 0.85789 0.34241 0.17739
 H169 H 0.82278 0.35889 0.12110
 H170 H 0.87912 0.28845 0.13646
 H171 H 0.86068 0.34925 0.19751
 C172 C 0.82235 0.85903 0.67542
 C173 C 0.80663 0.84873 0.65455
 C174 C 0.81418 0.82344 0.64162
 C175 C 0.83808 0.80801 0.64981
 C176 C 0.85430 0.81783 0.67088
 C177 C 0.84609 0.84349 0.68371
 H178 H 0.78817 0.86056 0.64826
 H179 H 0.84374 0.78806 0.64017
 H180 H 0.85784 0.85140 0.70007
 C181 C 0.66199 0.64301 0.67260
 C182 C 0.67187 0.65785 0.65000
 C183 C 0.65630 0.68055 0.63888
 C184 C 0.63112 0.68933 0.65183
 C185 C 0.62166 0.67528 0.67530
 C186 C 0.63726 0.65218 0.68530
 H187 H 0.69228 0.65238 0.64187
 H188 H 0.61952 0.70753 0.64405
 H189 H 0.63005 0.64115 0.70320
 C190 C 0.67998 0.14171 0.15005
 C191 C 0.65284 0.14807 0.16042
 C192 C 0.63647 0.17006 0.14886
 C193 C 0.64719 0.18523 0.12680
 C194 C 0.67406 0.17950 0.11647
 C195 C 0.69045 0.15796 0.12848
 H196 H 0.64446 0.13625 0.17728
 H197 H 0.63465 0.20213 0.11784
 H198 H 0.71169 0.15386 0.12142
 C199 C 0.15944 0.62342 0.17611
 C200 C 0.17171 0.63801 0.15412
 C201 C 0.15560 0.65740 0.13886
 C202 C 0.12743 0.66223 0.14609
 C203 C 0.11544 0.64888 0.16856
 C204 C 0.13130 0.62905 0.18299
 H205 H 0.19379 0.63516 0.14965
 H206 H 0.11499 0.67699 0.13437
 H207 H 0.12194 0.61871 0.20037
 C208 C 0.16874 0.12669 0.66186
 C209 C 0.18094 0.13720 0.63807
 C210 C 0.16879 0.16033 0.62449
 C211 C 0.14311 0.17185 0.63381
 C212 C 0.13011 0.16124 0.65702
 C213 C 0.14324 0.13871 0.67109
 H214 H 0.20021 0.12795 0.63012
 H215 H 0.13301 0.18914 0.62300
 H216 H 0.13437 0.13097 0.68971
 C217 C 0.32836 0.63065 0.34633
 C218 C 0.31241 0.64598 0.36519
 C219 C 0.32353 0.66967 0.37826
 C220 C 0.35131 0.67805 0.37204
 C221 C 0.36762 0.66246 0.35345
 C222 C 0.35620 0.63862 0.34118
 H223 H 0.29100 0.63950 0.36959
 H224 H 0.36060 0.69595 0.38189
 H225 H 0.36924 0.62652 0.32740
 C226 C 0.34048 0.12938 0.83988
 C227 C 0.36564 0.14132 0.82958
 C228 C 0.38007 0.16204 0.84391
 C229 C 0.36931 0.17046 0.86867
 C230 C 0.34392 0.15966 0.87880
 C231 C 0.32973 0.13890 0.86443
 H232 H 0.37387 0.13480 0.81051
 H233 H 0.38022 0.18659 0.87970
 H234 H 0.31043 0.12982 0.87234
 C235 C 0.81192 0.64082 0.81867
 C236 C 0.83429 0.65650 0.80756
 C237 C 0.84521 0.68026 0.82036
 C238 C 0.83305 0.68910 0.84473
 C239 C 0.80961 0.67423 0.85574
 C240 C 0.79953 0.65014 0.84253
 H241 H 0.84315 0.65085 0.78840
 H242 H 0.84073 0.70820 0.85400
 H243 H 0.78161 0.63867 0.85079
 C244 C 0.82137 0.13554 0.32679
 C245 C 0.84643 0.14250 0.31268
 C246 C 0.86365 0.16485 0.32090
 C247 C 0.85514 0.18096 0.34301
 C248 C 0.83049 0.17456 0.35734
 C249 C 0.81358 0.15186 0.34910
 H250 H 0.85245 0.13122 0.29481
 H251 H 0.86725 0.19918 0.34899
 H252 H 0.79401 0.14721 0.35950
 C253 C 0.66515 0.35852 0.33916
 C254 C 0.64066 0.34820 0.32738
 C255 C 0.62668 0.32415 0.33838
 C256 C 0.63709 0.31094 0.36129
 C257 C 0.66128 0.32083 0.37323
 C258 C 0.67523 0.34457 0.36189
 H259 H 0.63213 0.35907 0.31031
 H260 H 0.62641 0.29244 0.36977
 H261 H 0.69451 0.35206 0.37017
 C262 C 0.64892 0.84858 0.82500
 C263 C 0.62500 0.83558 0.81520
 C264 C 0.61155 0.81328 0.82935
 C265 C 0.62297 0.80379 0.85344
 C266 C 0.64734 0.81618 0.86350
 C267 C 0.66025 0.83855 0.84895
 H268 H 0.61737 0.84287 0.79626
 H269 H 0.61296 0.78635 0.86433
 H270 H 0.67964 0.84746 0.85551
 C271 C 0.15184 0.35182 0.82816
 C272 C 0.13117 0.33413 0.81745
 C273 C 0.11960 0.31121 0.83246
 C274 C 0.12891 0.30626 0.85818
 C275 C 0.14998 0.32283 0.86889
 C276 C 0.16149 0.34556 0.85388
 H277 H 0.12452 0.33822 0.79740
 H278 H 0.12020 0.28865 0.86985
 H279 H 0.17800 0.35799 0.86228
 C280 C 0.16292 0.86999 0.32138
 C281 C 0.13822 0.85985 0.31051
 C282 C 0.12392 0.83655 0.32178
 C283 C 0.13429 0.82334 0.34468
 C284 C 0.15879 0.83322 0.35631
 C285 C 0.17324 0.85664 0.34452
 H286 H 0.13022 0.86995 0.29270
 H287 H 0.12310 0.80559 0.35389
 H288 H 0.19283 0.86354 0.35261
 O289 O 0.25107 1.04285 0.29359
 O290 O 0.29900 0.98733 0.26557
 O291 O 0.29729 1.04394 0.26599
 O292 O 0.25998 0.98896 0.30391
 O293 O 0.23218 0.98137 0.27033
 O294 O 0.26999 1.03814 0.23170
 O295 O 0.27032 0.98198 0.23234
 O296 O 0.22290 1.03631 0.26015
 Cu297 Cu 0.27959 1.01593 0.28507
 Cu298 Cu 0.24601 1.00897 0.24548
 C299 C 0.22866 1.04903 0.28130
 C300 C 0.29269 0.97524 0.24401
 C301 C 0.29045 1.05057 0.24264
 C302 C 0.24002 0.97551 0.29386
 O303 O 0.23121 0.53297 0.80426
 O304 O 0.28557 0.47997 0.78444
 O305 O 0.27787 0.53513 0.77690
 O306 O 0.23888 0.47813 0.81234
 O307 O 0.21583 0.46843 0.77613
 O308 O 0.25361 0.52734 0.74099
 O309 O 0.26249 0.47270 0.74773
 O310 O 0.20712 0.52381 0.76855
 Cu311 Cu 0.26068 0.50735 0.79812
 Cu312 Cu 0.23237 0.49702 0.75477
 C313 C 0.21011 0.53765 0.78977
 C314 C 0.28340 0.46764 0.76232
 C315 C 0.27214 0.54129 0.75306
 C316 C 0.22094 0.46343 0.80039
 O317 O 0.71523 0.02062 0.23588
 O318 O 0.76039 -0.03383 0.26546
 O319 O 0.76060 0.02250 0.26522
 O320 O 0.72671 -0.03381 0.22470
 O321 O 0.75814 -0.02557 0.19276
 O322 O 0.79184 0.02765 0.23253
 O323 O 0.79176 -0.02798 0.23307
 O324 O 0.74640 0.02882 0.20378
 Cu325 Cu 0.73766 -0.00671 0.25064
 Cu326 Cu 0.77451 0.00142 0.21268
 C327 C 0.72279 0.03429 0.21523
 C328 C 0.78374 -0.04035 0.25460
 C329 C 0.78278 0.03418 0.25541
 C330 C 0.73719 -0.03930 0.20168
 O331 O 0.78108 0.47836 0.73979
 O332 O 0.73967 0.53284 0.70555
 O333 O 0.74218 0.47724 0.70486
 O334 O 0.77557 0.53339 0.74300
 O335 O 0.80916 0.53699 0.71227
 O336 O 0.77527 0.48078 0.67365
 O337 O 0.77281 0.53652 0.67440
 O338 O 0.81439 0.48158 0.70875
 Cu339 Cu 0.75623 0.50504 0.72639
 Cu340 Cu 0.79629 0.50936 0.68912
 C341 C 0.80477 0.47064 0.73013
 C342 C 0.74924 0.54411 0.68423
 C343 C 0.75291 0.46939 0.68284
 C344 C 0.79805 0.54476 0.73421
 O345 O 0.28188 0.47239 0.27420
 O346 O 0.24270 0.52871 0.23699
 O347 O 0.23513 0.47501 0.24705
 O348 O 0.27933 0.52916 0.27420
 O349 O 0.30973 0.52565 0.24073
 O350 O 0.26504 0.46835 0.21355
 O351 O 0.27316 0.52354 0.20369
 O352 O 0.31233 0.46999 0.24064
 Cu353 Cu 0.25729 0.50147 0.26144
 Cu354 Cu 0.29263 0.49605 0.22145
 C355 C 0.30415 0.46181 0.26344
 C356 C 0.25153 0.53546 0.21366
 C357 C 0.24203 0.46245 0.22586
 C358 C 0.30166 0.53719 0.26246
 O359 O 0.73656 1.02278 0.79549
 O360 O 0.78634 0.96383 0.77822
 O361 O 0.78717 1.01833 0.77255
 O362 O 0.74340 0.96779 0.80962
 O363 O 0.71863 0.95960 0.77405
 O364 O 0.76128 1.01324 0.73717
 O365 O 0.76213 0.95775 0.74200
 O366 O 0.71157 1.01356 0.76040
 Cu367 Cu 0.76496 0.99450 0.79250
 Cu368 Cu 0.73597 0.98528 0.74991
 C369 C 0.71565 1.02819 0.78082
 C370 C 0.78265 0.95105 0.75643
 C371 C 0.78187 1.02459 0.74874
 C372 C 0.72406 0.95459 0.79830
 O373 O 0.78465 0.46287 0.25468
 O374 O 0.73750 0.51904 0.28026
 O375 O 0.73478 0.46307 0.27729
 O376 O 0.78247 0.51892 0.24999
 O377 O 0.75946 0.51912 0.21252
 O378 O 0.71286 0.46315 0.23924
 O379 O 0.71448 0.51942 0.24281
 O380 O 0.76291 0.46286 0.21653
 Cu381 Cu 0.76208 0.49091 0.26916
 Cu382 Cu 0.73517 0.49109 0.22415
 C383 C 0.78208 0.45318 0.23156
 C384 C 0.71812 0.52909 0.26600
 C385 C 0.71565 0.45351 0.26260
 C386 C 0.77872 0.52883 0.22668
 O387 O 0.28067 -0.02495 0.76424
 O388 O 0.24882 0.03323 0.72522
 O389 O 0.24615 -0.02244 0.72536
 O390 O 0.28543 0.03077 0.76306
 O391 O 0.32066 0.02747 0.73400
 O392 O 0.28119 -0.02440 0.69597
 O393 O 0.28431 0.03125 0.69635
 O394 O 0.31566 -0.02799 0.73490
 Cu395 Cu 0.26175 0.00455 0.74745
 Cu396 Cu 0.30398 0.00138 0.71238
 C397 C 0.30338 -0.03665 0.75607
 C398 C 0.26102 0.04207 0.70410
 C399 C 0.25718 -0.03251 0.70421
 C400 C 0.30988 0.03798 0.75495
 O401 O 0.25518 0.28373 0.96497
 O402 O 0.27727 0.23596 1.01937
 O403 O 0.27723 0.23266 0.96821
 O404 O 0.25444 0.28673 1.01647
 O405 O 0.21276 0.26645 1.01945
 O406 O 0.23493 0.21368 0.96928
 O407 O 0.23549 0.21584 1.02095
 O408 O 0.21282 0.26500 0.96790
 Cu409 Cu 0.27027 0.26173 0.99204
 Cu410 Cu 0.21972 0.23832 0.99452
 C411 C 0.23009 0.28252 0.95723
 C412 C 0.26027 0.21778 1.02939
 C413 C 0.26004 0.21409 0.96037
 C414 C 0.22985 0.28547 1.02656
 O415 O 0.25178 0.74121 0.46838
 O416 O 0.19928 0.76625 0.51745
 O417 O 0.21143 0.77897 0.46712
 O418 O 0.24598 0.73567 0.51967
 O419 O 0.27549 0.77134 0.52499
 O420 O 0.23847 0.81542 0.47673
 O421 O 0.22777 0.80095 0.52835
 O422 O 0.27866 0.77848 0.47562
 Cu423 Cu 0.22421 0.75207 0.49240
 Cu424 Cu 0.25671 0.79548 0.50278
 C425 C 0.27397 0.75531 0.46341
 C426 C 0.20504 0.78712 0.53210
 C427 C 0.21969 0.80459 0.46275
 C428 C 0.26732 0.74623 0.53071
 O429 O 0.29763 0.74973 -0.00391
 O430 O 0.26475 0.70278 0.04504
 O431 O 0.26357 0.70696 -0.00675
 O432 O 0.28632 0.75499 0.04685
 O433 O 0.24693 0.77976 0.04252
 O434 O 0.22415 0.73209 -0.00887
 O435 O 0.22515 0.72764 0.04314
 O436 O 0.25824 0.77456 -0.00845
 Cu437 Cu 0.28163 0.72645 0.02092
 Cu438 Cu 0.23493 0.75571 0.01718
 C439 C 0.28385 0.76953 -0.01508
 C440 C 0.23962 0.70687 0.05263
 C441 C 0.23978 0.71186 -0.01716
 C442 C 0.27022 0.77590 0.05353
 O443 O 0.20789 0.28702 0.49052
 O444 O 0.25816 0.30711 0.54198
 O445 O 0.25243 0.31873 0.49167
 O446 O 0.21003 0.28110 0.54195
 O447 O 0.23464 0.24130 0.53528
 O448 O 0.27639 0.27885 0.48351
 O449 O 0.28271 0.26761 0.53386
 O450 O 0.23227 0.24700 0.48448
 Cu451 Cu 0.22974 0.30247 0.51733
 Cu452 Cu 0.25902 0.25479 0.50862
 C453 C 0.21170 0.26320 0.47882
 C454 C 0.27904 0.29062 0.54657
 C455 C 0.27121 0.30522 0.47866
 C456 C 0.21494 0.25495 0.54722
 O457 O 0.75264 0.73185 0.96706
 O458 O 0.71358 0.77014 1.02189
 O459 O 0.71274 0.77000 0.96884
 O460 O 0.74310 0.72167 1.01748
 O461 O 0.77769 0.75161 1.02438
 O462 O 0.74869 0.79919 0.97122
 O463 O 0.74891 0.80025 1.02352
 O464 O 0.78854 0.76025 0.97370
 Cu465 Cu 0.72702 0.74592 0.99378
 Cu466 Cu 0.76914 0.78060 0.99868
 C467 C 0.77764 0.74001 0.96123
 C468 C 0.72504 0.79218 1.03180
 C469 C 0.72560 0.79214 0.96077
 C470 C 0.76506 0.72802 1.02953
 O471 O 0.75448 0.21566 0.47747
 O472 O 0.73389 0.26765 0.52780
 O473 O 0.72867 0.26542 0.47668
 O474 O 0.76774 0.22366 0.52689
 O475 O 0.80529 0.24967 0.51760
 O476 O 0.76585 0.29289 0.47044
 O477 O 0.77216 0.29302 0.52013
 O478 O 0.79144 0.24190 0.46687
 Cu479 Cu 0.74251 0.24051 0.50307
 Cu480 Cu 0.78753 0.27100 0.49228
 C481 C 0.77610 0.22011 0.46314
 C482 C 0.74915 0.28893 0.53288
 C483 C 0.74076 0.28673 0.46536
 C484 C 0.79329 0.22993 0.53087
 O485 O 0.76834 0.28940 0.01181
 O486 O 0.74202 0.24045 -0.03673
 O487 O 0.74227 0.24101 0.01387
 O488 O 0.77953 0.28118 -0.03979
 O489 O 0.81720 0.25428 -0.03337
 O490 O 0.77991 0.21332 0.01765
 O491 O 0.77999 0.21309 -0.03379
 O492 O 0.80599 0.26209 0.01722
 Cu493 Cu 0.75505 0.26604 -0.01343
 Cu494 Cu 0.79950 0.23315 -0.00769
 C495 C 0.79106 0.28404 0.02335
 C496 C 0.75611 0.21855 -0.04372
 C497 C 0.75500 0.21977 0.02453
 C498 C 0.80474 0.27401 -0.04592
 O499 O 0.71857 0.73095 0.47954
 O500 O 0.75548 0.77422 0.53005
 O501 O 0.74250 0.78204 0.47932
 O502 O 0.71720 0.73459 0.53150
 O503 O 0.75539 0.70762 0.52798
 O504 O 0.77989 0.75473 0.47202
 O505 O 0.79324 0.74755 0.52216
 O506 O 0.75644 0.70340 0.47668
 Cu507 Cu 0.73013 0.75808 0.50540
 Cu508 Cu 0.77472 0.72609 0.49899
 C509 C 0.73168 0.70910 0.47002
 C510 C 0.78108 0.76756 0.53461
 C511 C 0.76491 0.77684 0.46643
 C512 C 0.73171 0.71342 0.53924
 O513 O 0.98822 0.24969 0.29253
 O514 O 1.04106 0.27977 0.24515
 O515 O 0.98840 0.29085 0.25710
 O516 O 1.04222 0.24274 0.28421
 O517 O 1.03222 0.20931 0.25540
 O518 O 0.97696 0.25729 0.22891
 O519 O 1.02963 0.24664 0.21651
 O520 O 0.97833 0.21624 0.26367
 Cu521 Cu 1.01608 0.26901 0.27265
 Cu522 Cu 1.00332 0.22913 0.23820
 C523 C 0.97410 0.22796 0.28594
 C524 C 1.04419 0.26807 0.22259
 C525 C 0.97317 0.28216 0.23866
 C526 C 1.04664 0.21805 0.27455
 O527 O 0.47474 0.26939 0.72208
 O528 O 0.53195 0.21894 0.74055
 O529 O 0.47694 0.21772 0.74211
 O530 O 0.52953 0.27002 0.71900
 O531 O 0.53077 0.28865 0.75895
 O532 O 0.47744 0.23671 0.78196
 O533 O 0.53196 0.23772 0.78048
 O534 O 0.47591 0.28844 0.76188
 Cu535 Cu 0.50325 0.24214 0.72694
 Cu536 Cu 0.50404 0.26477 0.77479
 C537 C 0.46558 0.28749 0.73896
 C538 C 0.54171 0.21982 0.76377
 C539 C 0.46809 0.21841 0.76597
 C540 C 0.53931 0.28806 0.73495
 O541 O 0.01486 0.21096 0.71920
 O542 O -0.03981 0.25148 0.75695
 O543 O 0.01232 0.26073 0.74377
 O544 O -0.04078 0.21136 0.72196
 O545 O -0.03462 0.18326 0.75690
 O546 O 0.02097 0.23277 0.77830
 O547 O -0.03213 0.22347 0.79169
 O548 O 0.01984 0.18243 0.75404
 Cu549 Cu -0.01372 0.23593 0.73207
 Cu550 Cu -0.00544 0.20315 0.77350
 C551 C 0.02653 0.18946 0.73052
 C552 C -0.04516 0.24412 0.78099
 C553 C 0.02578 0.25549 0.76457
 C554 C -0.04730 0.18928 0.73550
 O555 O 0.47710 0.28042 0.23466
 O556 O 0.53215 0.22998 0.21147
 O557 O 0.47736 0.23094 0.21153
 O558 O 0.53201 0.27979 0.23444
 O559 O 0.53079 0.25785 0.27344
 O560 O 0.47668 0.20866 0.25036
 O561 O 0.53183 0.20813 0.25052
 O562 O 0.47639 0.25813 0.27350
 Cu563 Cu 0.50479 0.25742 0.21908
 Cu564 Cu 0.50386 0.23092 0.26583
 C565 C 0.46727 0.27772 0.25813
 C566 C 0.54158 0.21070 0.22702
 C567 C 0.46750 0.21171 0.22708
 C568 C 0.54065 0.27717 0.25796
 O569 O 0.96559 0.75427 0.72498
 O570 O 1.01693 0.70666 0.75817
 O571 O 0.96378 0.72122 0.76643
 O572 O 1.01889 0.74155 0.71702
 O573 O 1.03056 0.77742 0.74253
 O574 O 0.97685 0.75588 0.79275
 O575 O 1.02972 0.74241 0.78334
 O576 O 0.97745 0.78957 0.75114
 Cu577 Cu 0.99021 0.72729 0.73917
 Cu578 Cu 1.00493 0.76982 0.76995
 C579 C 0.96246 0.77995 0.73279
 C580 C 1.03225 0.71642 0.77619
 C581 C 0.96061 0.73530 0.78776
 C582 C 1.03405 0.76320 0.72134
 O583 O 0.46504 0.73167 0.23423
 O584 O 0.52185 0.71074 0.27860
 O585 O 0.46757 0.71486 0.28357
 O586 O 0.51937 0.72837 0.22967
 O587 O 0.52247 0.77301 0.24342
 O588 O 0.47016 0.75983 0.29653
 O589 O 0.52476 0.75542 0.29232
 O590 O 0.46865 0.77645 0.24749
 Cu591 Cu 0.49308 0.71682 0.25529
 Cu592 Cu 0.49689 0.77068 0.27135
 C593 C 0.45739 0.75778 0.23313
 C594 C 0.53304 0.72949 0.29290
 C595 C 0.45986 0.73496 0.29902
 C596 C 0.52967 0.75330 0.22737
 O597 O -0.03203 0.78113 0.26581
 O598 O 0.01732 0.75642 0.21379
 O599 O -0.03692 0.76191 0.21810
 O600 O 0.02182 0.77759 0.26076
 O601 O 0.02042 0.73388 0.27808
 O602 O -0.03866 0.71798 0.23496
 O603 O 0.01525 0.71270 0.23108
 O604 O -0.03391 0.73724 0.28275
 Cu605 Cu -0.00728 0.77371 0.23789
 Cu606 Cu -0.00943 0.72098 0.25842
 C607 C -0.04129 0.76341 0.28314
 C608 C 0.02469 0.73018 0.21368
 C609 C -0.04774 0.73720 0.21916
 C610 C 0.03108 0.75873 0.27675
 O611 O 0.44262 0.79170 0.74129
 O612 O 0.49290 0.75481 0.69859
 O613 O 0.43967 0.74494 0.71196
 O614 O 0.49664 0.79060 0.73716
 O615 O 0.50331 0.75890 0.76933
 O616 O 0.44945 0.71291 0.74303
 O617 O 0.50219 0.72370 0.73060
 O618 O 0.44795 0.75970 0.77342
 Cu619 Cu 0.46681 0.77310 0.71917
 Cu620 Cu 0.47588 0.73593 0.75710
 C621 C 0.43665 0.78266 0.76439
 C622 C 0.50693 0.73375 0.70726
 C623 C 0.43517 0.72076 0.72338
 C624 C 0.50967 0.78229 0.75777
 C625 C 0.40209 0.31140 0.32692
 C626 C 0.41089 0.31380 0.30165
 C627 C 0.43530 0.29663 0.29251
 C628 C 0.44462 0.29718 0.26735
 H629 H 0.39953 0.32678 0.28750
 H630 H 0.44534 0.28238 0.30664
 H631 H 0.41388 0.29734 0.33997
 H632 H 0.43501 0.31162 0.25314
 C633 C 0.36438 0.80409 0.83380
 C634 C 0.38256 0.81176 0.81434
 C635 C 0.40346 0.79184 0.80243
 C636 C 0.41669 0.80012 0.78003
 H637 H 0.38229 0.83330 0.80625
 H638 H 0.40696 0.77066 0.81087
 H639 H 0.36703 0.78303 0.84284
 H640 H 0.41175 0.82107 0.77166
 C641 C -0.12175 0.31354 0.79337
 C642 C -0.10491 0.29362 0.80381
 C643 C -0.08346 0.27933 0.78699
 C644 C -0.06665 0.25919 0.79703
 H645 H -0.10631 0.28825 0.82472
 H646 H -0.08149 0.28525 0.76619
 H647 H -0.11889 0.31895 0.77251
 H648 H -0.06898 0.25311 0.81776
 C649 C -0.10164 0.83517 0.32521
 C650 C -0.09176 0.80829 0.32454
 C651 C -0.06861 0.80034 0.30644
 C652 C -0.06134 0.77284 0.30367
 H653 H -0.10250 0.79129 0.33534
 H654 H -0.05872 0.81677 0.29414
 H655 H -0.09155 0.85147 0.31289
 H656 H -0.07120 0.75657 0.31617
 C657 C 0.60148 0.66124 0.32815
 C658 C 0.59087 0.68787 0.32725
 C659 C 0.56605 0.69462 0.31165
 C660 C 0.55629 0.72150 0.31008
 H661 H 0.60128 0.70533 0.33682
 H662 H 0.55625 0.67766 0.30073
 H663 H 0.59147 0.64451 0.31710
 H664 H 0.56616 0.73833 0.32111
 C665 C 0.60903 0.18474 0.82825
 C666 C 0.59972 0.18268 0.80351
 C667 C 0.57433 0.19911 0.79600
 C668 C 0.56505 0.20035 0.77117
 H669 H 0.61163 0.17091 0.78860
 H670 H 0.56364 0.21170 0.81117
 H671 H 0.59698 0.19782 0.84215
 H672 H 0.57533 0.18766 0.75586
 C673 C 1.10955 0.69734 0.83711
 C674 C 1.09240 0.68721 0.81877
 C675 C 1.07121 0.70646 0.80662
 C676 C 1.05325 0.69721 0.78862
 H677 H 1.09341 0.66492 0.81308
 H678 H 1.07035 0.72874 0.81255
 H679 H 1.10697 0.71962 0.84275
 H680 H 1.05417 0.67498 0.78254
 C681 C 1.12148 0.20033 0.33725
 C682 C 1.10712 0.19032 0.31687
 C683 C 1.08468 0.20825 0.30539
 C684 C 1.06885 0.19940 0.28556
 H685 H 1.11132 0.16916 0.30902
 H686 H 1.08104 0.22943 0.31352
 H687 H 1.11565 0.22126 0.34492
 H688 H 1.07230 0.17829 0.27725
 C689 C 0.60328 0.32521 0.66637
 C690 C 0.59435 0.32633 0.69166
 C691 C 0.56980 0.30942 0.70040
 C692 C 0.56138 0.30802 0.72582
 H693 H 0.60610 0.33771 0.70624
 H694 H 0.55927 0.29666 0.68587
 H695 H 0.59147 0.31250 0.65271
 H696 H 0.57163 0.32093 0.74040
 C697 C 0.59492 0.81865 0.18469
 C698 C 0.58296 0.79284 0.18320
 C699 C 0.55982 0.78603 0.20198
 C700 C 0.55049 0.75940 0.20607
 H701 H 0.59101 0.77635 0.17011
 H702 H 0.55114 0.80331 0.21393
 H703 H 0.58621 0.83320 0.19947
 H704 H 0.55881 0.74185 0.19428
 C705 C 1.12513 0.32568 0.19165
 C706 C 1.10474 0.30681 0.18708
 C707 C 1.08353 0.29911 0.20765
 C708 C 1.06490 0.27866 0.20286
 H709 H 1.10344 0.29606 0.16835
 H710 H 1.08368 0.30938 0.22679
 H711 H 1.12484 0.33583 0.21089
 H712 H 1.06538 0.26834 0.18371
 C713 C 1.10902 0.82750 0.69106
 C714 C 1.09477 0.80348 0.68616
 C715 C 1.07145 0.79518 0.70459
 C716 C 1.05615 0.77154 0.70166
 H717 H 1.10040 0.78971 0.66975
 H718 H 1.06701 0.80874 0.72152
 H719 H 1.10173 0.83978 0.70808
 H720 H 1.06011 0.75787 0.68473
 C721 C 0.35336 0.69541 0.67085
 C722 C 0.37281 0.68782 0.68838
 C723 C 0.39468 0.70830 0.69595
 C724 C 0.41330 0.70119 0.71434
 H725 H 0.37309 0.66649 0.69704
 H726 H 0.39531 0.72940 0.68669
 H727 H 0.35449 0.71680 0.66221
 H728 H 0.41212 0.68020 0.72378
 C729 C 0.40017 0.18127 0.16160
 C730 C 0.40967 0.17852 0.18627
 C731 C 0.43447 0.19489 0.19405
 C732 C 0.44458 0.19314 0.21851
 H733 H 0.39877 0.16559 0.20107
 H734 H 0.44407 0.20944 0.17966
 H735 H 0.41173 0.19510 0.14787
 H736 H 0.43519 0.17847 0.23290
 C737 C -0.11419 0.67275 0.17892
 C738 C -0.10470 0.69935 0.18181
 C739 C -0.08107 0.70472 0.19916
 C740 C -0.07107 0.73113 0.20171
 H741 H -0.11489 0.71744 0.17228
 H742 H -0.07183 0.68691 0.21001
 H743 H -0.10425 0.65532 0.18977
 H744 H -0.08000 0.74878 0.19041
 C745 C -0.12168 0.16718 0.67372
 C746 C -0.10765 0.15946 0.69558
 C747 C -0.08392 0.17683 0.70428
 C748 C -0.07004 0.17072 0.72649
 H749 H -0.11351 0.14113 0.70766
 H750 H -0.07804 0.19545 0.69240
 H751 H -0.11439 0.18617 0.66307
 H752 H -0.07582 0.15218 0.73850
 C753 C 0.32031 0.38301 0.32689
 C754 C 0.33022 0.40143 0.30856
 C755 C 0.31221 0.42443 0.29767
 C756 C 0.32126 0.43987 0.27684
 H757 H 0.35168 0.39973 0.30127
 H758 H 0.29129 0.42799 0.30596
 H759 H 0.29890 0.38598 0.33420
 H760 H 0.34184 0.43525 0.26820
 C761 C 0.30137 -0.11078 0.82587
 C762 C 0.31481 -0.09802 0.80530
 C763 C 0.30278 -0.07257 0.79212
 C764 C 0.31565 -0.06084 0.77087
 H765 H 0.33483 -0.10579 0.79778
 H766 H 0.28288 -0.06391 0.79935
 H767 H 0.28211 -0.10071 0.83317
 H768 H 0.33537 -0.06983 0.76354
 C769 C 0.81555 0.39816 0.79902
 C770 C 0.82644 0.41161 0.77765
 C771 C 0.81185 0.43635 0.76617
 C772 C 0.82107 0.44829 0.74352
 H773 H 0.84555 0.40443 0.76781
 H774 H 0.79251 0.44390 0.77561
 H775 H 0.79705 0.40767 0.80849
 H776 H 0.84037 0.44070 0.73406
 C777 C 0.80875 -0.11073 0.32464
 C778 C 0.81469 -0.09667 0.30170
 C779 C 0.79522 -0.07553 0.28995
 C780 C 0.80195 -0.06222 0.26694
 H781 H 0.83388 -0.10061 0.29057
 H782 H 0.77556 -0.07064 0.30022
 H783 H 0.78845 -0.10664 0.33410
 H784 H 0.82173 -0.06725 0.25693
 C785 C 0.28975 0.60772 0.67829
 C786 C 0.29556 0.59934 0.70307
 C787 C 0.28202 0.57366 0.71492
 C788 C 0.28697 0.56538 0.73986
 H789 H 0.30922 0.61178 0.71518
 H790 H 0.26721 0.56189 0.70334
 H791 H 0.27529 0.59481 0.66732
 H792 H 0.30183 0.57720 0.75134
 C793 C 0.31711 1.11469 0.16773
 C794 C 0.32149 1.10387 0.19204
 C795 C 0.30291 1.08180 0.20401
 C796 C 0.30711 1.07280 0.22882
 H797 H 0.33839 1.11139 0.20392
 H798 H 0.28607 1.07296 0.19267
 H799 H 0.29907 1.10681 0.15739
 H800 H 0.32407 1.08203 0.23978
 C801 C 0.80362 0.60889 0.16562
 C802 C 0.80979 0.59105 0.18589
 C803 C 0.79140 0.56716 0.19431
 C804 C 0.79690 0.55201 0.21642
 H805 H 0.82838 0.59387 0.19728
 H806 H 0.77305 0.56247 0.18290
 H807 H 0.78457 0.60513 0.15491
 H808 H 0.81490 0.55748 0.22803
 C809 C 0.80460 1.09214 0.67677
 C810 C 0.81197 1.07888 0.69928
 C811 C 0.79455 1.05587 0.71087
 C812 C 0.79988 1.04558 0.73499
 H813 H 0.82986 1.08548 0.71032
 H814 H 0.77662 1.04826 0.70022
 H815 H 0.78595 1.08444 0.66726
 H816 H 0.81756 1.05375 0.74566
 C817 C 0.68823 0.60016 0.33311
 C818 C 0.68528 0.58836 0.30915
 C819 C 0.70340 0.56440 0.29992
 C820 C 0.69984 0.55248 0.27615
 H821 H 0.66975 0.59656 0.29568
 H822 H 0.71987 0.55656 0.31265
 H823 H 0.70491 0.59227 0.34560
 H824 H 0.68334 0.56044 0.26350
 C825 C 0.69096 1.11501 0.82871
 C826 C 0.68293 1.09590 0.81093
 C827 C 0.70145 1.07095 0.80562
 C828 C 0.69605 1.05196 0.78696
 H829 H 0.66346 1.09819 0.80049
 H830 H 0.72042 1.06843 0.81693
 H831 H 0.71092 1.11071 0.83804
 H832 H 0.67747 1.05457 0.77514
 C833 C 0.17716 0.61388 0.84823
 C834 C 0.17289 0.59958 0.82581
 C835 C 0.19137 0.57486 0.81940
 C836 C 0.18925 0.55998 0.79709
 H837 H 0.15717 0.60624 0.81185
 H838 H 0.20801 0.56941 0.83293
 H839 H 0.19337 0.60532 0.86097
 H840 H 0.17267 0.56509 0.78343
 C841 C 0.19995 1.12533 0.34235
 C842 C 0.19409 1.10952 0.32131
 C843 C 0.21401 1.08700 0.31236
 C844 C 0.20893 1.07119 0.29118
 H845 H 0.17475 1.11274 0.31081
 H846 H 0.23323 1.08353 0.32309
 H847 H 0.21928 1.12061 0.35256
 H848 H 0.18982 1.07490 0.28036
 C849 C 0.68338 0.39391 0.67237
 C850 C 0.70432 0.40962 0.66187
 C851 C 0.71713 0.43252 0.67718
 C852 C 0.73947 0.44678 0.66765
 H853 H 0.71215 0.40601 0.64190
 H854 H 0.70844 0.43744 0.69666
 H855 H 0.67551 0.39904 0.69210
 H856 H 0.74839 0.44147 0.64836
 C857 C 0.66858 -0.11288 0.18015
 C858 C 0.69298 -0.10020 0.17400
 C859 C 0.70286 -0.07679 0.19105
 C860 C 0.72594 -0.06201 0.18482
 H861 H 0.70587 -0.10700 0.15727
 H862 H 0.69118 -0.07171 0.20910
 H863 H 0.65705 -0.10422 0.19712
 H864 H 0.73733 -0.06681 0.16653
 C865 C 0.21160 0.38132 0.17234
 C866 C 0.20628 0.40234 0.18948
 C867 C 0.22795 0.42296 0.19672
 C868 C 0.22225 0.44133 0.21615
 H869 H 0.18548 0.40476 0.19831
 H870 H 0.24836 0.42275 0.18678
 H871 H 0.23220 0.38004 0.16280
 H872 H 0.20191 0.44046 0.22625
 C873 C 0.18248 -0.10223 0.68945
 C874 C 0.20604 -0.08894 0.68124
 C875 C 0.21822 -0.06571 0.69668
 C876 C 0.24263 -0.05416 0.68885
 H877 H 0.21727 -0.09510 0.66338
 H878 H 0.20778 -0.05877 0.71484
 H879 H 0.17208 -0.09426 0.70730
 H880 H 0.25298 -0.06156 0.67080
 C881 C 0.33009 0.30897 0.39837
 C882 C 0.31482 0.32267 0.41683
 C883 C 0.30315 0.30710 0.43992
 C884 C 0.28628 0.32054 0.45726
 H885 H 0.31046 0.34544 0.41478
 H886 H 0.30719 0.28425 0.44200
 H887 H 0.33537 0.28650 0.40145
 H888 H 0.28191 0.34328 0.45469
 C889 C 0.28848 0.82208 -0.09967
 C890 C 0.30099 0.81008 -0.07887
 C891 C 0.28486 0.79974 -0.05550
 C892 C 0.29825 0.78565 -0.03638
 H893 H 0.32358 0.80702 -0.07937
 H894 H 0.26216 0.80161 -0.05490
 H895 H 0.26611 0.82659 -0.09863
 H896 H 0.32089 0.78310 -0.03794
 C897 C 0.80887 0.32678 -0.12999
 C898 C 0.82203 0.31215 -0.11105
 C899 C 0.80674 0.30283 -0.08688
 C900 C 0.81981 0.28752 -0.06836
 H901 H 0.84416 0.30695 -0.11335
 H902 H 0.78440 0.30722 -0.08486
 H903 H 0.78709 0.33305 -0.12675
 H904 H 0.84199 0.28258 -0.07094
 C905 C 0.82510 0.81213 0.39303
 C906 C 0.80181 0.81513 0.40798
 C907 C 0.79549 0.79402 0.42935
 C908 C 0.77270 0.79705 0.44488
 H909 H 0.78760 0.83304 0.40489
 H910 H 0.80953 0.77588 0.43239
 H911 H 0.83885 0.79409 0.39750
 H912 H 0.75879 0.81525 0.44161
 C913 C 0.68109 0.31814 0.60083
 C914 C 0.70570 0.32376 0.58856
 C915 C 0.71541 0.30521 0.56675
 C916 C 0.74001 0.30886 0.55390
 H917 H 0.71879 0.34127 0.59439
 H918 H 0.70202 0.28764 0.56132
 H919 H 0.66904 0.30029 0.59369
 H920 H 0.75358 0.32637 0.55902
 C921 C 0.66709 0.80659 1.11319
 C922 C 0.68339 0.81725 1.09356
 C923 C 0.69307 0.79908 1.07107
 C924 C 0.71152 0.80933 1.05308
 H925 H 0.68958 0.83953 1.09382
 H926 H 0.68614 0.77706 1.06990
 H927 H 0.66053 0.78445 1.11183
 H928 H 0.71917 0.83097 1.05540
 C929 C 0.17698 0.31188 1.10609
 C930 C 0.19445 0.32010 1.08637
 C931 C 0.19946 0.30168 1.06331
 C932 C 0.22171 0.30594 1.04726
 H933 H 0.20617 0.33976 1.08746
 H934 H 0.18617 0.28322 1.06066
 H935 H 0.16507 0.29239 1.10376
 H936 H 0.23565 0.32368 1.05077
 C937 C 0.18678 0.82306 0.62121
 C938 C 0.17556 0.81320 0.59910
 C939 C 0.19444 0.80635 0.57626
 C940 C 0.18536 0.79461 0.55406
 H941 H 0.15300 0.81191 0.59732
 H942 H 0.21664 0.81084 0.57778
 H943 H 0.20946 0.82484 0.62172
 H944 H 0.16354 0.78856 0.55273
 C945 C 0.27905 0.67822 0.60478
 C946 C 0.29008 0.69562 0.58611
 C947 C 0.27324 0.70780 0.56450
 C948 C 0.28337 0.72997 0.55043
 H949 H 0.31178 0.70208 0.58718
 H950 H 0.25219 0.70016 0.56133
 H951 H 0.25768 0.67091 0.60282
 H952 H 0.30393 0.73816 0.55495
 C953 C 0.32961 0.18228 1.09188
 C954 C 0.30317 0.18182 1.08357
 C955 C 0.29526 0.19863 1.05997
 C956 C 0.26894 0.19902 1.05144
 H957 H 0.28696 0.17057 1.09473
 H958 H 0.31109 0.21161 1.04992
 H959 H 0.34485 0.19475 1.08047
 H960 H 0.25319 0.18578 1.06126
 C961 C 0.81900 0.69717 1.10727
 C962 C 0.80114 0.69118 1.08811
 C963 C 0.79417 0.71292 1.06758
 C964 C 0.77499 0.70724 1.04958
 H965 H 0.79165 0.67023 1.08728
 H966 H 0.80407 0.73376 1.06765
 H967 H 0.82868 0.71815 1.10688
 H968 H 0.76481 0.68652 1.05030
 C969 C 0.80239 0.16648 0.60827
 C970 C 0.81441 0.18373 0.59009
 C971 C 0.79777 0.19648 0.56865
 C972 C 0.80943 0.21489 0.55134
 H973 H 0.83654 0.18858 0.59085
 H974 H 0.77565 0.19149 0.56755
 H975 H 0.78045 0.16112 0.60623
 H976 H 0.83145 0.22014 0.55290
 C977 C 0.67235 0.68338 0.39560
 C978 C 0.69050 0.67586 0.41423
 C979 C 0.69865 0.69642 0.43474
 C980 C 0.71915 0.68937 0.45117
 H981 H 0.69962 0.65448 0.41440
 H982 H 0.68909 0.71761 0.43547
 H983 H 0.66283 0.70460 0.39651
 H984 H 0.72921 0.66850 0.44918
 C985 C 0.68749 0.19661 -0.11061
 C986 C 0.70941 0.18776 -0.09634
 C987 C 0.72096 0.20633 -0.07611
 C988 C 0.74463 0.19944 -0.06363
 H989 H 0.71906 0.16693 -0.09914
 H990 H 0.71007 0.22632 -0.07170
 H991 H 0.67810 0.21739 -0.10632
 H992 H 0.75589 0.17977 -0.06839
 C993 C 0.17258 0.69122 -0.08620
 C994 C 0.19700 0.68450 -0.07474
 C995 C 0.20593 0.70004 -0.05118
 C996 C 0.23044 0.69447 -0.03951
 H997 H 0.21105 0.66843 -0.08302
 H998 H 0.19228 0.71694 -0.04358
 H999 H 0.15984 0.70839 -0.07776
 H1000 H 0.24419 0.67762 -0.04700
 C1001 C 0.18303 0.19196 0.41596
 C1002 C 0.17894 0.21862 0.42500
 C1003 C 0.19372 0.22751 0.44877
 C1004 C 0.19264 0.25436 0.45788
 H1005 H 0.16695 0.23438 0.41400
 H1006 H 0.20733 0.21185 0.45822
 H1007 H 0.19615 0.17737 0.42726
 H1008 H 0.17870 0.27015 0.44913
 C1009 C 0.32946 0.41504 0.69130
 C1010 C 0.32721 0.41845 0.71750
 C1011 C 0.30946 0.44215 0.72767
 C1012 C 0.30510 0.44689 0.75348
 H1013 H 0.33537 0.40234 0.73101
 H1014 H 0.29811 0.45520 0.71346
 H1015 H 0.31998 0.43117 0.67855
 H1016 H 0.31704 0.43514 0.76812
 C1017 C 0.31616 0.89763 0.18189
 C1018 C 0.32404 0.91570 0.20082
 C1019 C 0.30490 0.93805 0.21131
 C1020 C 0.31162 0.95323 0.23262
 H1021 H 0.34468 0.91425 0.20914
 H1022 H 0.28490 0.94160 0.20194
 H1023 H 0.29561 0.90055 0.17343
 H1024 H 0.33138 0.94909 0.24225
 C1025 C 0.82192 0.38259 0.16845
 C1026 C 0.82139 0.39441 0.19252
 C1027 C 0.80178 0.41833 0.19900
 C1028 C 0.80170 0.43019 0.22298
 H1029 H 0.83491 0.38640 0.20787
 H1030 H 0.78712 0.42591 0.18432
 H1031 H 0.80795 0.39163 0.15379
 H1032 H 0.81661 0.42244 0.23738
 C1033 C 0.81300 0.88641 0.68733
 C1034 C 0.81701 0.89409 0.71241
 C1035 C 0.80202 0.91973 0.72231
 C1036 C 0.80195 0.92794 0.74762
 H1037 H 0.82899 0.88073 0.72581
 H1038 H 0.78913 0.93156 0.70841
 H1039 H 0.79983 0.90007 0.67513
 H1040 H 0.81526 0.91718 0.76182
 C1041 C 0.67750 0.61850 0.68411
 C1042 C 0.69591 0.60263 0.67019
 C1043 C 0.71106 0.57908 0.68300
 C1044 C 0.73301 0.56654 0.67088
 H1045 H 0.70006 0.60682 0.64935
 H1046 H 0.70485 0.57266 0.70299
 H1047 H 0.67313 0.61289 0.70471
 H1048 H 0.73988 0.57372 0.65130
 C1049 C 0.69873 0.11894 0.16096
 C1050 C 0.69064 0.09805 0.17777
 C1051 C 0.71090 0.07587 0.18655
 C1052 C 0.70350 0.05649 0.20501
 H1053 H 0.66911 0.09681 0.18491
 H1054 H 0.73208 0.07568 0.17820
 H1055 H 0.72045 0.11882 0.15402
 H1056 H 0.68252 0.05745 0.21378
 C1057 C 0.17528 0.60349 0.19357
 C1058 C 0.19949 0.59068 0.18664
 C1059 C 0.21330 0.57028 0.20485
 C1060 C 0.23701 0.55701 0.19731
 H1061 H 0.20893 0.59437 0.16722
 H1062 H 0.20387 0.56578 0.22419
 H1063 H 0.16598 0.59831 0.21283
 H1064 H 0.24609 0.56169 0.17784
 C1065 C 0.18214 0.10355 0.67777
 C1066 C 0.20945 0.09667 0.67574
 C1067 C 0.22168 0.07384 0.69230
 C1068 C 0.24822 0.06510 0.68819
 H1069 H 0.22331 0.10809 0.66214
 H1070 H 0.20877 0.06380 0.70769
 H1071 H 0.16916 0.09235 0.69239
 H1072 H 0.26073 0.07461 0.67223
 C1073 C 0.31536 0.60623 0.33278
 C1074 C 0.32475 0.59547 0.30964
 C1075 C 0.30979 0.57176 0.29744
 C1076 C 0.31802 0.56028 0.27426
 H1077 H 0.34277 0.60441 0.29921
 H1078 H 0.29124 0.56366 0.30777
 H1079 H 0.29646 0.59735 0.34189
 H1080 H 0.33661 0.56809 0.26384
 C1081 C 0.32411 0.10786 0.82538
 C1082 C 0.33424 0.09272 0.80488
 C1083 C 0.31656 0.07211 0.79120
 C1084 C 0.32643 0.05864 0.76967
 H1085 H 0.35575 0.09509 0.79800
 H1086 H 0.29537 0.06818 0.79855
 H1087 H 0.30269 0.10404 0.83216
 H1088 H 0.34753 0.06307 0.76232
 C1089 C 0.79987 0.61584 0.80502
 C1090 C 0.81327 0.60161 0.78549
 C1091 C 0.79957 0.57840 0.77131
 C1092 C 0.81155 0.56726 0.74946
 H1093 H 0.83449 0.60699 0.77945
 H1094 H 0.77921 0.57099 0.77836
 H1095 H 0.77901 0.60901 0.81120
 H1096 H 0.83160 0.57529 0.74218
 C1097 C 0.80212 0.11266 0.31786
 C1098 C 0.81041 0.09140 0.30175
 C1099 C 0.79078 0.07045 0.29067
 C1100 C 0.79964 0.05479 0.27003
 H1101 H 0.83228 0.08956 0.29573
 H1102 H 0.76941 0.06883 0.29829
 H1103 H 0.78035 0.11353 0.32458
 H1104 H 0.82076 0.05817 0.26219
 C1105 C 0.68108 0.38383 0.32904
 C1106 C 0.67904 0.39541 0.30478
 C1107 C 0.69759 0.41929 0.29646
 C1108 C 0.69649 0.43074 0.27212
 H1109 H 0.66465 0.38686 0.29068
 H1110 H 0.71271 0.42719 0.31027
 H1111 H 0.69643 0.39273 0.34211
 H1112 H 0.68129 0.42280 0.25841
 C1113 C 0.66226 0.87177 0.80904
 C1114 C 0.67758 0.89230 0.81967
 C1115 C 0.69102 0.91456 0.80305
 C1116 C 0.70838 0.93310 0.81387
 H1117 H 0.68038 0.89285 0.84089
 H1118 H 0.68750 0.91519 0.78190
 H1119 H 0.65865 0.87245 0.78790
 H1120 H 0.71228 0.93169 0.83493
 C1121 C 0.16370 0.37574 0.81163
 C1122 C 0.17744 0.39798 0.82166
 C1123 C 0.19013 0.42072 0.80470
 C1124 C 0.20634 0.44054 0.81553
 H1125 H 0.17963 0.39977 0.84285
 H1126 H 0.18690 0.42081 0.78352
 H1127 H 0.16076 0.37515 0.79041
 H1128 H 0.20989 0.43953 0.83666
 C1129 C 0.17750 0.89343 0.30664
 C1130 C 0.19588 0.91135 0.31696
 C1131 C 0.20806 0.93457 0.30031
 C1132 C 0.22647 0.95280 0.31004
 H1133 H 0.20152 0.90941 0.33757
 H1134 H 0.20216 0.93655 0.27974
 H1135 H 0.17179 0.89687 0.28615
 H1136 H 0.23264 0.95044 0.33049
 C1137 C 0.39210 0.32629 0.68124
 C1138 C 0.40587 0.32752 0.70404
 C1139 C 0.42928 0.30735 0.70943
 C1140 C 0.44261 0.30770 0.73246
 H1141 H 0.39981 0.34287 0.71906
 H1142 H 0.43548 0.29186 0.69449
 H1143 H 0.39852 0.30991 0.66719
 H1144 H 0.43616 0.32311 0.74739
 C1145 C 0.39725 0.83010 0.19273
 C1146 C 0.40532 0.80263 0.19420
 C1147 C 0.42789 0.79396 0.21188
 C1148 C 0.43525 0.76645 0.21492
 H1149 H 0.39456 0.78632 0.18333
 H1150 H 0.43842 0.81039 0.22287
 H1151 H 0.40734 0.84571 0.20503
 H1152 H 0.42488 0.75002 0.20381
 C1153 C 0.89067 0.30002 0.18559
 C1154 C 0.90917 0.31086 0.20210
 C1155 C 0.93048 0.29160 0.21368
 C1156 C 0.95096 0.30136 0.22864
 H1157 H 0.90998 0.33378 0.20534
 H1158 H 0.92991 0.26892 0.20914
 H1159 H 0.89143 0.27715 0.18180
 H1160 H 0.95133 0.32384 0.23383
 C1161 C 0.87863 0.79997 0.67962
 C1162 C 0.89916 0.80937 0.69501
 C1163 C 0.92171 0.78990 0.70429
 C1164 C 0.94095 0.79903 0.72113
 H1165 H 0.89951 0.83150 0.70118
 H1166 H 0.92194 0.76771 0.69808
 H1167 H 0.87967 0.77792 0.67303
 H1168 H 0.94019 0.82112 0.72761
 C1169 C 0.60102 0.31184 0.32718
 C1170 C 0.59392 0.31373 0.30172
 C1171 C 0.57016 0.29670 0.29250
 C1172 C 0.56271 0.29647 0.26714
 H1173 H 0.60640 0.32604 0.28755
 H1174 H 0.55907 0.28316 0.30680
 H1175 H 0.58841 0.29836 0.34036
 H1176 H 0.57333 0.31025 0.25275
 C1177 C 0.58648 0.79848 0.81910
 C1178 C 0.57093 0.80820 0.79893
 C1179 C 0.54733 0.79129 0.78920
 C1180 C 0.53254 0.79981 0.76814
 H1181 H 0.57534 0.82852 0.78927
 H1182 H 0.54237 0.77118 0.79917
 H1183 H 0.58059 0.77840 0.82866
 H1184 H 0.53763 0.81980 0.75803
 C1185 C 0.09865 0.29083 0.82245
 C1186 C 0.08351 0.29466 0.80075
 C1187 C 0.06278 0.27288 0.79359
 C1188 C 0.04699 0.27640 0.77232
 H1189 H 0.08575 0.31380 0.78859
 H1190 H 0.06030 0.25384 0.80594
 H1191 H 0.09496 0.27154 0.83423
 H1192 H 0.04961 0.29546 0.76002
 C1193 C 0.09816 0.82704 0.30893
 C1194 C 0.08852 0.80022 0.31030
 C1195 C 0.06419 0.79259 0.29463
 C1196 C 0.05453 0.76582 0.29385
 H1197 H 0.09913 0.78374 0.32169
 H1198 H 0.05429 0.80934 0.28291
 H1199 H 0.08763 0.84251 0.29626
 H1200 H 0.06403 0.74897 0.30571
 C1201 C 0.59661 0.68445 0.69108
 C1202 C 0.57459 0.69854 0.68130
 C1203 C 0.55066 0.70642 0.69893
 C1204 C 0.52930 0.72202 0.68985
 H1205 H 0.57407 0.70426 0.66046
 H1206 H 0.55117 0.70061 0.71979
 H1207 H 0.59587 0.67825 0.71188
 H1208 H 0.52946 0.72863 0.66917
 C1209 C 0.60821 0.17860 0.15892
 C1210 C 0.59951 0.17630 0.18422
 C1211 C 0.57353 0.19134 0.19279
 C1212 C 0.56478 0.19171 0.21811
 H1213 H 0.61247 0.16584 0.19886
 H1214 H 0.56221 0.20389 0.17820
 H1215 H 0.59496 0.19030 0.14523
 H1216 H 0.57563 0.17887 0.23278
 C1217 C 0.08722 0.65684 0.17878
 C1218 C 0.07685 0.68344 0.17619
 C1219 C 0.05239 0.69250 0.19214
 C1220 C 0.04518 0.72018 0.19370
 H1221 H 0.08816 0.69958 0.16476
 H1222 H 0.04171 0.67667 0.20454
 H1223 H 0.07641 0.64167 0.19178
 H1224 H 0.05581 0.73600 0.18127
 C1225 C 0.10400 0.17574 0.66666
 C1226 C 0.08644 0.16463 0.68496
 C1227 C 0.06238 0.18144 0.69537
 C1228 C 0.04837 0.17230 0.71696
 H1229 H 0.09005 0.14336 0.69306
 H1230 H 0.05728 0.20208 0.68648
 H1231 H 0.09919 0.19679 0.65846
 H1232 H 0.05451 0.15219 0.72631
 C1233 C 0.39654 0.67031 0.34552
 C1234 C 0.40485 0.69739 0.34218
 C1235 C 0.43051 0.70314 0.32634
 C1236 C 0.43796 0.72975 0.31946
 H1237 H 0.39125 0.71508 0.34807
 H1238 H 0.44226 0.68508 0.31822
 H1239 H 0.41012 0.65321 0.33815
 H1240 H 0.42683 0.74799 0.32789
 C1241 C 0.40597 0.17628 0.83385
 C1242 C 0.41404 0.17775 0.80832
 C1243 C 0.43788 0.19591 0.80014
 C1244 C 0.44625 0.19811 0.77478
 H1245 H 0.40232 0.16722 0.79321
 H1246 H 0.44810 0.20849 0.81500
 H1247 H 0.41797 0.18804 0.84807
 H1248 H 0.43637 0.18521 0.75997
 C1249 C 0.86777 0.69591 0.80576
 C1250 C 0.89066 0.70691 0.81647
 C1251 C 0.91428 0.71541 0.79852
 C1252 C 0.93754 0.72805 0.80674
 H1253 H 0.89278 0.70755 0.83778
 H1254 H 0.91262 0.71084 0.77759
 H1255 H 0.86713 0.69500 0.78430
 H1256 H 0.93917 0.73418 0.82728
 C1257 C 0.88934 0.17213 0.30500
 C1258 C 0.91023 0.18818 0.31402
 C1259 C 0.93375 0.19708 0.29649
 C1260 C 0.95212 0.21676 0.30413
 H1261 H 0.91000 0.19554 0.33425
 H1262 H 0.93521 0.18849 0.27663
 H1263 H 0.89094 0.16422 0.28490
 H1264 H 0.95006 0.22595 0.32371
 C1265 C 0.31204 0.34741 0.62029
 C1266 C 0.31633 0.32547 0.60386
 C1267 C 0.29620 0.32009 0.58279
 C1268 C 0.29937 0.29756 0.56695
 H1269 H 0.33428 0.31130 0.60575
 H1270 H 0.27826 0.33436 0.58060
 H1271 H 0.29380 0.36106 0.61710
 H1272 H 0.31716 0.28316 0.56944
 C1273 C 0.33492 0.81823 0.11609
 C1274 C 0.30918 0.81679 0.10633
 C1275 C 0.30326 0.79677 0.08476
 C1276 C 0.27780 0.79597 0.07442
 H1277 H 0.29205 0.82925 0.11491
 H1278 H 0.31969 0.78242 0.07752
 H1279 H 0.35126 0.80463 0.10748
 H1280 H 0.26171 0.81087 0.08138
 C1281 C 0.84713 0.30969 0.09906
 C1282 C 0.82574 0.31567 0.08325
 C1283 C 0.82151 0.29859 0.05938
 C1284 C 0.79903 0.30323 0.04469
 H1285 H 0.81002 0.33156 0.08870
 H1286 H 0.83581 0.28100 0.05478
 H1287 H 0.86182 0.29290 0.09310
 H1288 H 0.78480 0.32080 0.04956
 C1289 C 0.79581 0.81349 0.62038
 C1290 C 0.80579 0.80194 0.59799
 C1291 C 0.78684 0.79317 0.57681
 C1292 C 0.79769 0.78201 0.55461
 H1293 H 0.82827 0.79910 0.59512
 H1294 H 0.76427 0.79423 0.57998
 H1295 H 0.77346 0.81773 0.62246
 H1296 H 0.82033 0.78012 0.55240
 C1297 C 0.30524 0.68410 0.39845
 C1298 C 0.31079 0.70877 0.41061
 C1299 C 0.29043 0.72023 0.43042
 C1300 C 0.29454 0.74471 0.44336
 H1301 H 0.32977 0.72056 0.40615
 H1302 H 0.27153 0.70807 0.43463
 H1303 H 0.28556 0.67365 0.40351
 H1304 H 0.31338 0.75701 0.43935
 C1305 C 0.33282 0.17159 0.90400
 C1306 C 0.30556 0.17263 0.91083
 C1307 C 0.29628 0.19005 0.93353
 C1308 C 0.26916 0.19325 0.94023
 H1309 H 0.28994 0.16293 0.89865
 H1310 H 0.31194 0.20179 0.94413
 H1311 H 0.34756 0.18266 0.91626
 H1312 H 0.25339 0.18113 0.93017
 C1313 C 0.79336 0.68387 0.87967
 C1314 C 0.80309 0.70101 0.89835
 C1315 C 0.78485 0.71000 0.92107
 C1316 C 0.79480 0.72715 0.93959
 H1317 H 0.82449 0.70857 0.89702
 H1318 H 0.76307 0.70351 0.92209
 H1319 H 0.77215 0.67590 0.88224
 H1320 H 0.81652 0.73381 0.93789
 C1321 C 0.82301 0.19326 0.38001
 C1322 C 0.80600 0.18577 0.40024
 C1323 C 0.80107 0.20579 0.42226
 C1324 C 0.78276 0.19976 0.44182
 H1325 H 0.79611 0.16496 0.40093
 H1326 H 0.81205 0.22607 0.42211
 H1327 H 0.83313 0.21400 0.38063
 H1328 H 0.77117 0.17987 0.44152
 C1329 C 0.67195 0.30474 0.39657
 C1330 C 0.69121 0.31483 0.41281
 C1331 C 0.70288 0.29674 0.43405
 C1332 C 0.72616 0.30481 0.44596
 H1333 H 0.69929 0.33629 0.41021
 H1334 H 0.69347 0.27618 0.43884
 H1335 H 0.66381 0.28339 0.40036
 H1336 H 0.73603 0.32483 0.44006
 C1337 C 0.65912 0.80414 0.88850
 C1338 C 0.68061 0.81518 0.90180
 C1339 C 0.69135 0.80024 0.92557
 C1340 C 0.71400 0.80913 0.93849
 H1341 H 0.69070 0.83478 0.89532
 H1342 H 0.68088 0.78077 0.93211
 H1343 H 0.64956 0.78469 0.89632
 H1344 H 0.72485 0.82832 0.93187
 C1345 C 0.15944 0.31494 0.89569
 C1346 C 0.18594 0.31715 0.90342
 C1347 C 0.19445 0.30271 0.92808
 C1348 C 0.22127 0.30106 0.93507
 H1349 H 0.20174 0.32698 0.89058
 H1350 H 0.17860 0.29152 0.93987
 H1351 H 0.14459 0.30361 0.90853
 H1352 H 0.23722 0.31246 0.92361
 C1353 C 0.16902 0.81726 0.37985
 C1354 C 0.18453 0.82867 0.39868
 C1355 C 0.19310 0.81105 0.42170
 C1356 C 0.20845 0.82208 0.44081
 H1357 H 0.19063 0.85098 0.39740
 H1358 H 0.18746 0.78857 0.42261
 H1359 H 0.16227 0.79521 0.38238
 H1360 H 0.21451 0.84442 0.43950
 C1361 C 0.66667 0.69622 0.61469
 C1362 C 0.68742 0.68644 0.59850
 C1363 C 0.69795 0.70362 0.57576
 C1364 C 0.72098 0.69574 0.56164
 H1365 H 0.69706 0.66566 0.60166
 H1366 H 0.68697 0.72339 0.57088
 H1367 H 0.65690 0.71674 0.61010
 H1368 H 0.73240 0.67635 0.56692
 C1369 C 0.68465 0.19737 0.09395
 C1370 C 0.70598 0.18935 0.07803
 C1371 C 0.71708 0.20844 0.05698
 C1372 C 0.74142 0.20177 0.04496
 H1373 H 0.71590 0.16855 0.08054
 H1374 H 0.70605 0.22817 0.05202
 H1375 H 0.67440 0.21787 0.09028
 H1376 H 0.75255 0.18240 0.05091
 C1377 C 0.16724 0.67484 0.11646
 C1378 C 0.19233 0.67064 0.10477
 C1379 C 0.20225 0.69029 0.08354
 C1380 C 0.22789 0.68714 0.07284
 H1381 H 0.20580 0.65303 0.11075
 H1382 H 0.18882 0.70782 0.07712
 H1383 H 0.15432 0.69243 0.10922
 H1384 H 0.24126 0.66971 0.07962
 C1385 C 0.18400 0.17264 0.60123
 C1386 C 0.18214 0.20044 0.59474
 C1387 C 0.19957 0.21289 0.57330
 C1388 C 0.19748 0.24083 0.56766
 H1389 H 0.16863 0.21471 0.60618
 H1390 H 0.21438 0.19937 0.56244
 H1391 H 0.19887 0.15907 0.59051
 H1392 H 0.18235 0.25402 0.57849
   
