data_POSCAR
  _audit_creation_date              2014-09-24
  _audit_creation_method            'ToBaCCo'
  _symmetry_space_group_name_H-M    'P1'
  _symmetry_Int_Tables_number       1
  _symmetry_cell_setting            triclinic
  loop_
  _symmetry_equiv_pos_as_xyz
 x,y,z
_cell_length_a 63.2267
_cell_length_b 63.1754
_cell_length_c 63.2003
_cell_angle_alpha 89.975300
_cell_angle_beta 89.989800
_cell_angle_gamma 89.992900
loop_
  _atom_site_label
  _atom_site_type_symbol
  _atom_site_fract_x
  _atom_site_fract_y
  _atom_site_fract_z
C1 C 0.19125 0.21211 0.22238
 C2 C 0.20508 0.19502 0.22567
 C3 C 0.22231 0.19152 0.21208
 C4 C 0.22563 0.20539 0.19502
 C5 C 0.21198 0.22258 0.19146
 C6 C 0.19483 0.22580 0.20523
 H7 H 0.20274 0.18472 0.23918
 H8 H 0.23854 0.20248 0.18414
 H9 H 0.18424 0.23901 0.20259
 C10 C 0.69157 0.71227 0.72256
 C11 C 0.70538 0.69516 0.72582
 C12 C 0.72257 0.69164 0.71219
 C13 C 0.72587 0.70550 0.69512
 C14 C 0.71223 0.72270 0.69159
 C15 C 0.69513 0.72596 0.70540
 H16 H 0.70305 0.68487 0.73933
 H17 H 0.73875 0.70257 0.68421
 H18 H 0.68455 0.73919 0.70278
 C19 C 0.30844 0.78812 0.72265
 C20 C 0.30506 0.77454 0.70545
 C21 C 0.28809 0.77784 0.69156
 C22 C 0.27438 0.79498 0.69503
 C23 C 0.27732 0.80900 0.71221
 C24 C 0.29460 0.80521 0.72590
 H25 H 0.31568 0.76134 0.70285
 H26 H 0.26074 0.79652 0.68482
 H27 H 0.29820 0.81613 0.73856
 C28 C 0.80883 0.28802 0.22284
 C29 C 0.80504 0.27430 0.20558
 C30 C 0.78795 0.27754 0.19175
 C31 C 0.77434 0.29471 0.19516
 C32 C 0.77762 0.30861 0.21212
 C33 C 0.79479 0.30518 0.22580
 H34 H 0.81565 0.26129 0.20232
 H35 H 0.76145 0.29758 0.18424
 H36 H 0.79633 0.31541 0.23943
 C37 C 0.80861 0.71208 0.27735
 C38 C 0.79478 0.69498 0.27413
 C39 C 0.77758 0.69150 0.28777
 C40 C 0.77430 0.70540 0.30481
 C41 C 0.78795 0.72259 0.30830
 C42 C 0.80506 0.72579 0.29448
 H43 H 0.79708 0.68466 0.26065
 H44 H 0.76107 0.70282 0.31540
 H45 H 0.81597 0.73868 0.29740
 C46 C 0.30895 0.21176 -0.22306
 C47 C 0.29496 0.19455 -0.22604
 C48 C 0.27779 0.19108 -0.21236
 C49 C 0.27447 0.20495 -0.19538
 C50 C 0.28803 0.22216 -0.19196
 C51 C 0.30512 0.22543 -0.20578
 H52 H 0.29688 0.18398 -0.23934
 H53 H 0.26096 0.20265 -0.18510
 H54 H 0.31603 0.23810 -0.20216
 C55 C 0.69106 0.28752 -0.22290
 C56 C 0.69487 0.27384 -0.20559
 C57 C 0.71192 0.27716 -0.19174
 C58 C 0.72550 0.29436 -0.19518
 C59 C 0.72220 0.30821 -0.21219
 C60 C 0.70505 0.30473 -0.22587
 H61 H 0.68430 0.26080 -0.20231
 H62 H 0.73868 0.29698 -0.18456
 H63 H 0.70314 0.31529 -0.23919
 C64 C 0.19153 0.78803 0.27770
 C65 C 0.19509 0.77430 0.29476
 C66 C 0.21221 0.77745 0.30849
 C67 C 0.22589 0.79462 0.30501
 C68 C 0.22278 0.80878 0.28796
 C69 C 0.20537 0.80512 0.27443
 H70 H 0.18448 0.76109 0.29737
 H71 H 0.23828 0.79742 0.31647
 H72 H 0.20300 0.81479 0.26051
 C73 C 0.46199 0.44145 0.47260
 C74 C 0.44485 0.45523 0.47582
 C75 C 0.44132 0.47243 0.46218
 C76 C 0.45519 0.47576 0.44514
 C77 C 0.47242 0.46216 0.44164
 C78 C 0.47568 0.44505 0.45547
 H79 H 0.43455 0.45289 0.48932
 H80 H 0.45257 0.48899 0.43455
 H81 H 0.48860 0.43417 0.45255
 C82 C -0.03795 -0.05823 0.97252
 C83 C -0.05505 -0.04441 0.97580
 C84 C -0.05875 -0.02698 0.96226
 C85 C -0.04462 -0.02384 0.94520
 C86 C -0.02747 -0.03753 0.94170
 C87 C -0.02427 -0.05465 0.95544
 H88 H -0.06470 -0.04679 0.98973
 H89 H -0.04710 -0.01108 0.93408
 H90 H -0.01138 -0.06556 0.95250
 C91 C 1.03806 0.55842 0.97238
 C92 C 1.02437 0.55493 0.95523
 C93 C 1.02758 0.53784 0.94139
 C94 C 1.04473 0.52414 0.94488
 C95 C 1.05860 0.52736 0.96194
 C96 C 1.05513 0.54455 0.97561
 H97 H 1.01086 0.56523 0.95297
 H98 H 1.04730 0.51092 0.93427
 H99 H 1.06607 0.54746 0.98846
 C100 C 0.53797 0.05813 0.47236
 C101 C 0.52442 0.05470 0.45516
 C102 C 0.52775 0.03773 0.44129
 C103 C 0.54493 0.02405 0.44475
 C104 C 0.55891 0.02703 0.46196
 C105 C 0.55506 0.04431 0.47564
 H106 H 0.51089 0.06498 0.45286
 H107 H 0.54686 0.01075 0.43418
 H108 H 0.56597 0.04794 0.48831
 C109 C -0.03794 0.05842 0.52730
 C110 C -0.05503 0.04460 0.52402
 C111 C -0.05886 0.02731 0.53770
 C112 C -0.04487 0.02431 0.55489
 C113 C -0.02772 0.03800 0.55838
 C114 C -0.02438 0.05499 0.54451
 H115 H -0.06594 0.04825 0.51136
 H116 H -0.04643 0.01066 0.56509
 H117 H -0.01118 0.06560 0.54712
 C118 C 0.46205 0.55861 0.02737
 C119 C 0.44497 0.54477 0.02410
 C120 C 0.44145 0.52756 0.03773
 C121 C 0.45529 0.52426 0.05481
 C122 C 0.47246 0.53792 0.05834
 C123 C 0.47571 0.55504 0.04454
 H124 H 0.43470 0.54709 0.01058
 H125 H 0.45268 0.51102 0.06538
 H126 H 0.48858 0.56596 0.04749
 C127 C 0.53798 -0.05874 0.02753
 C128 C 0.55501 -0.04458 0.02442
 C129 C 0.55849 -0.02743 0.03812
 C130 C 0.54478 -0.02429 0.05526
 C131 C 0.52773 -0.03803 0.05882
 C132 C 0.52445 -0.05510 0.04497
 H133 H 0.56646 -0.04737 0.01202
 H134 H 0.54738 -0.01110 0.06588
 H135 H 0.51055 -0.06477 0.04734
 C136 C 1.03803 0.44167 0.52774
 C137 C 1.02430 0.44521 0.54478
 C138 C 1.02743 0.46233 0.55852
 C139 C 1.04458 0.47603 0.55507
 C140 C 1.05875 0.47294 0.53804
 C141 C 1.05510 0.45552 0.52449
 H142 H 1.01110 0.43458 0.54737
 H143 H 1.04736 0.48842 0.56654
 H144 H 1.06479 0.45317 0.51058
 C145 C 0.40718 0.00988 0.22158
 H146 H 0.40800 0.02424 0.23086
 C147 C 0.42100 0.00692 0.20459
 H148 H 0.43247 0.01905 0.20070
 C149 C 0.39145 -0.02365 0.21545
 H150 H 0.38017 -0.03567 0.21992
 C151 C 0.40498 -0.02725 0.19835
 H152 H 0.40392 -0.04194 0.18957
 N153 N 0.39262 -0.00520 0.22652
 C154 C 0.34249 0.02840 0.26005
 H155 H 0.34166 0.01910 0.27440
 C156 C 0.32868 0.04540 0.25708
 H157 H 0.31720 0.04929 0.26920
 C158 C 0.35825 0.03456 0.22654
 H159 H 0.36954 0.03011 0.21453
 C160 C 0.34472 0.05168 0.22294
 H161 H 0.34580 0.06047 0.20825
 Zn162 Zn 0.37484 -0.00010 0.25009
 N163 N 0.35706 0.02347 0.24498
 C164 C 0.39141 0.02345 0.28475
 N165 N 0.39261 0.00501 0.27366
 C166 C 0.40719 -0.01005 0.27859
 C167 C 0.42099 -0.00709 0.29558
 C168 C 0.40492 0.02705 0.30185
 C169 C 0.34254 -0.02865 0.24014
 C170 C 0.32875 -0.04566 0.24311
 C171 C 0.34479 -0.05192 0.27725
 C172 C 0.35829 -0.03478 0.27365
 N173 N 0.35709 -0.02370 0.25521
 H174 H 0.38011 0.03546 0.28028
 H175 H 0.40803 -0.02440 0.26929
 H176 H 0.43247 -0.01921 0.29947
 H177 H 0.40384 0.04173 0.31064
 H178 H 0.34169 -0.01934 0.22579
 H179 H 0.31729 -0.04956 0.23099
 H180 H 0.34588 -0.06071 0.29193
 H181 H 0.36957 -0.03031 0.28566
 C182 C 0.32986 0.05717 0.23837
 C183 C 0.41984 -0.01180 0.19285
 C184 C 0.32994 -0.05743 0.26181
 C185 C 0.41980 0.01162 0.30734
 C186 C 0.09253 -0.01013 0.72132
 H187 H 0.09169 -0.02450 0.73062
 C188 C 0.07874 -0.00716 0.70432
 H189 H 0.06727 -0.01929 0.70042
 C190 C 0.10827 0.02339 0.71519
 H191 H 0.11955 0.03541 0.71967
 C192 C 0.09477 0.02700 0.69807
 H193 H 0.09584 0.04169 0.68929
 N194 N 0.10708 0.00494 0.72627
 C195 C 0.15720 -0.02866 0.75983
 H196 H 0.15803 -0.01935 0.77417
 C197 C 0.17103 -0.04564 0.75687
 H198 H 0.18251 -0.04952 0.76899
 C199 C 0.14145 -0.03483 0.72633
 H200 H 0.13016 -0.03038 0.71432
 C201 C 0.15499 -0.05194 0.72274
 H202 H 0.15393 -0.06073 0.70807
 Zn203 Zn 0.12484 -0.00017 0.74985
 N204 N 0.14263 -0.02374 0.74476
 C205 C 0.10829 -0.02373 0.78452
 N206 N 0.10708 -0.00529 0.77343
 C207 C 0.09250 0.00978 0.77837
 C208 C 0.07872 0.00681 0.79539
 C209 C 0.09479 -0.02733 0.80166
 C210 C 0.15717 0.02836 0.73989
 C211 C 0.17097 0.04536 0.74285
 C212 C 0.15491 0.05163 0.77698
 C213 C 0.14140 0.03451 0.77339
 N214 N 0.14260 0.02342 0.75496
 H215 H 0.11958 -0.03574 0.78006
 H216 H 0.09165 0.02413 0.76907
 H217 H 0.06725 0.01893 0.79928
 H218 H 0.09589 -0.04201 0.81046
 H219 H 0.15802 0.01905 0.72554
 H220 H 0.18246 0.04924 0.73073
 H221 H 0.15383 0.06042 0.79166
 H222 H 0.13010 0.03005 0.78540
 C223 C 0.16987 -0.05741 0.73818
 C224 C 0.07992 0.01156 0.69257
 C225 C 0.16979 0.05712 0.76155
 C226 C 0.07993 -0.01189 0.80716
 C227 C 0.59248 0.49012 0.22153
 H228 H 0.59164 0.47577 0.23085
 C229 C 0.57867 0.49309 0.20454
 H230 H 0.56719 0.48097 0.20067
 C231 C 0.60826 0.52362 0.21534
 H232 H 0.61956 0.53563 0.21978
 C233 C 0.59474 0.52722 0.19823
 H234 H 0.59582 0.54190 0.18943
 N235 N 0.60706 0.50518 0.22644
 C236 C 0.65719 0.47151 0.25991
 H237 H 0.65805 0.48081 0.27426
 C238 C 0.67097 0.45450 0.25693
 H239 H 0.68246 0.45060 0.26903
 C240 C 0.64138 0.46538 0.22643
 H241 H 0.63008 0.46986 0.21444
 C242 C 0.65488 0.44825 0.22281
 H243 H 0.65378 0.43947 0.20814
 Zn244 Zn 0.62485 0.50006 0.24999
 N245 N 0.64260 0.47646 0.24486
 C246 C 0.60831 0.47651 0.28468
 N247 N 0.60711 0.49496 0.27360
 C248 C 0.59256 0.51004 0.27855
 C249 C 0.57878 0.50708 0.29557
 C250 C 0.59482 0.47292 0.30181
 C251 C 0.65720 0.52856 0.23997
 C252 C 0.67101 0.54555 0.24291
 C253 C 0.65501 0.55183 0.27707
 C254 C 0.64148 0.53472 0.27350
 N255 N 0.64265 0.52363 0.25506
 H256 H 0.61959 0.46449 0.28020
 H257 H 0.59172 0.52440 0.26925
 H258 H 0.56732 0.51921 0.29947
 H259 H 0.59590 0.45823 0.31060
 H260 H 0.65801 0.51925 0.22563
 H261 H 0.68247 0.54943 0.23077
 H262 H 0.65396 0.56063 0.29174
 H263 H 0.63021 0.53026 0.28553
 C264 C 0.66976 0.44274 0.23823
 C265 C 0.57986 0.51179 0.19276
 C266 C 0.66986 0.55732 0.26160
 C267 C 0.57997 0.48837 0.30733
 C268 C 0.90719 0.50978 0.72163
 H269 H 0.90801 0.52412 0.73094
 C270 C 0.92100 0.50683 0.70464
 H271 H 0.93247 0.51897 0.70077
 C272 C 0.89145 0.47626 0.71546
 H273 H 0.88016 0.46423 0.71991
 C274 C 0.90498 0.47268 0.69835
 H275 H 0.90392 0.45800 0.68956
 N276 N 0.89262 0.49469 0.72655
 C277 C 0.84247 0.52829 0.76004
 H278 H 0.84161 0.51898 0.77439
 C279 C 0.82868 0.54531 0.75707
 H280 H 0.81720 0.54920 0.76919
 C281 C 0.85827 0.53446 0.72655
 H282 H 0.86957 0.53000 0.71455
 C283 C 0.84476 0.55159 0.72295
 H284 H 0.84586 0.56040 0.70828
 Zn285 Zn 0.87482 0.49978 0.75011
 N286 N 0.85705 0.52336 0.74499
 C287 C 0.89135 0.52333 0.78477
 N288 N 0.89257 0.50489 0.77370
 C289 C 0.90714 0.48982 0.77865
 C290 C 0.92093 0.49280 0.79565
 C291 C 0.90486 0.52694 0.80189
 C292 C 0.84252 0.47125 0.74012
 C293 C 0.82873 0.45423 0.74306
 C294 C 0.84475 0.44795 0.77721
 C295 C 0.85825 0.46508 0.77363
 N296 N 0.85707 0.47618 0.75520
 H297 H 0.88006 0.53534 0.78030
 H298 H 0.90799 0.47547 0.76936
 H299 H 0.93241 0.48068 0.79955
 H300 H 0.90377 0.54163 0.81067
 H301 H 0.84169 0.48056 0.72577
 H302 H 0.81727 0.45034 0.73093
 H303 H 0.84582 0.43914 0.79189
 H304 H 0.86953 0.46955 0.78565
 C305 C 0.82989 0.55709 0.73838
 C306 C 0.91984 0.48813 0.69287
 C307 C 0.82990 0.44245 0.76176
 C308 C 0.91973 0.51151 0.80740
 C309 C 0.22172 0.40718 0.00949
 H310 H 0.23103 0.40803 0.02383
 C311 C 0.20474 0.42100 0.00653
 H312 H 0.20087 0.43250 0.01864
 C313 C 0.21553 0.39137 -0.02398
 H314 H 0.21997 0.38005 -0.03597
 C315 C 0.19843 0.40490 -0.02757
 H316 H 0.18962 0.40381 -0.04224
 N317 N 0.22663 0.39258 -0.00556
 C318 C 0.26013 0.34245 0.02813
 H319 H 0.27447 0.34159 0.01883
 C320 C 0.25716 0.32867 0.04516
 H321 H 0.26927 0.31719 0.04908
 C322 C 0.22665 0.35825 0.03425
 H323 H 0.21465 0.36955 0.02976
 C324 C 0.22304 0.34476 0.05140
 H325 H 0.20837 0.34587 0.06018
 Zn326 Zn 0.25019 0.37478 -0.00044
 N327 N 0.24508 0.35703 0.02317
 C328 C 0.28483 0.39138 0.02308
 N329 N 0.27376 0.39256 0.00464
 C330 C 0.27870 0.40712 -0.01045
 C331 C 0.29569 0.42094 -0.00750
 C332 C 0.30194 0.40491 0.02666
 C333 C 0.24021 0.34240 -0.02890
 C334 C 0.24316 0.32858 -0.04589
 C335 C 0.27729 0.34462 -0.05219
 C336 C 0.27370 0.35815 -0.03509
 N337 N 0.25528 0.35697 -0.02399
 H338 H 0.28037 0.38010 0.03511
 H339 H 0.26941 0.40795 -0.02480
 H340 H 0.29958 0.43241 -0.01964
 H341 H 0.31071 0.40385 0.04135
 H342 H 0.22587 0.34158 -0.01959
 H343 H 0.23104 0.31710 -0.04976
 H344 H 0.29195 0.34569 -0.06099
 H345 H 0.28572 0.36945 -0.03064
 C346 C 0.23847 0.32989 0.05692
 C347 C 0.19296 0.41980 -0.01216
 C348 C 0.26185 0.32975 -0.05766
 C349 C 0.30743 0.41977 0.01121
 C350 C 0.72164 0.09262 -0.00970
 H351 H 0.73094 0.09176 -0.02405
 C352 C 0.70465 0.07881 -0.00672
 H353 H 0.70077 0.06732 -0.01882
 C354 C 0.71550 0.10843 0.02378
 H355 H 0.71995 0.11974 0.03577
 C356 C 0.69839 0.09491 0.02740
 H357 H 0.68960 0.09600 0.04207
 N358 N 0.72657 0.10721 0.00534
 C359 C 0.76003 0.15735 -0.02838
 H360 H 0.77437 0.15821 -0.01910
 C361 C 0.75704 0.17113 -0.04541
 H362 H 0.76914 0.18262 -0.04933
 C363 C 0.72655 0.14154 -0.03448
 H364 H 0.71456 0.13023 -0.02998
 C365 C 0.72293 0.15503 -0.05162
 H366 H 0.70825 0.15393 -0.06039
 Zn367 Zn 0.75012 0.12501 0.00019
 N368 N 0.74498 0.14276 -0.02341
 C369 C 0.78476 0.10843 -0.02336
 N370 N 0.77370 0.10724 -0.00491
 C371 C 0.77866 0.09269 0.01018
 C372 C 0.79567 0.07889 0.00722
 C373 C 0.80189 0.09492 -0.02695
 C374 C 0.74015 0.15740 0.02865
 C375 C 0.74310 0.17123 0.04563
 C376 C 0.77725 0.15521 0.05190
 C377 C 0.77366 0.14166 0.03480
 N378 N 0.75522 0.14283 0.02373
 H379 H 0.78028 0.11970 -0.03538
 H380 H 0.76938 0.09185 0.02454
 H381 H 0.79959 0.06743 0.01936
 H382 H 0.81066 0.09599 -0.04164
 H383 H 0.72580 0.15821 0.01936
 H384 H 0.73098 0.18271 0.04951
 H385 H 0.79192 0.15415 0.06068
 H386 H 0.78567 0.13037 0.03035
 C387 C 0.73834 0.16991 -0.05715
 C388 C 0.69290 0.08002 0.01198
 C389 C 0.76180 0.17008 0.05738
 C390 C 0.80741 0.08007 -0.01149
 C391 C 0.22127 0.59270 0.49040
 H392 H 0.23057 0.59183 0.47605
 C393 C 0.20425 0.57893 0.49338
 H394 H 0.20034 0.56744 0.48127
 C395 C 0.21516 0.60850 0.52389
 H396 H 0.21965 0.61979 0.53589
 C397 C 0.19802 0.59501 0.52750
 H398 H 0.18924 0.59612 0.54218
 N399 N 0.22624 0.60727 0.50545
 C400 C 0.25982 0.65734 0.47176
 H401 H 0.27417 0.65816 0.48104
 C402 C 0.25687 0.67114 0.45475
 H403 H 0.26901 0.68260 0.45083
 C404 C 0.22630 0.64163 0.46566
 H405 H 0.21428 0.63035 0.47015
 C406 C 0.22271 0.65514 0.44853
 H407 H 0.20803 0.65408 0.43976
 Zn408 Zn 0.24983 0.62501 0.50031
 N409 N 0.24474 0.64279 0.47673
 C410 C 0.28442 0.60835 0.47674
 N411 N 0.27336 0.60718 0.49519
 C412 C 0.27830 0.59260 0.51027
 C413 C 0.29527 0.57877 0.50730
 C414 C 0.30152 0.59481 0.47314
 C415 C 0.23996 0.65740 0.52881
 C416 C 0.24296 0.67121 0.54579
 C417 C 0.27706 0.65509 0.55203
 C418 C 0.27342 0.64156 0.53493
 N419 N 0.25499 0.64279 0.52387
 H420 H 0.27996 0.61965 0.46472
 H421 H 0.26901 0.59178 0.52463
 H422 H 0.29916 0.56729 0.51942
 H423 H 0.31029 0.59588 0.45845
 H424 H 0.22561 0.65826 0.51952
 H425 H 0.23087 0.68272 0.54968
 H426 H 0.29174 0.65398 0.56081
 H427 H 0.28541 0.63024 0.53047
 C428 C 0.23817 0.66998 0.44300
 C429 C 0.19250 0.58014 0.51208
 C430 C 0.26166 0.66999 0.55753
 C431 C 0.30701 0.57994 0.48858
 C432 C 0.72164 0.90752 0.50983
 H433 H 0.73094 0.90836 0.52417
 C434 C 0.70463 0.92131 0.50687
 H435 H 0.70073 0.93278 0.51900
 C436 C 0.71551 0.89176 0.47632
 H437 H 0.71998 0.88047 0.46430
 C438 C 0.69838 0.90526 0.47273
 H439 H 0.68960 0.90418 0.45806
 N440 N 0.72659 0.89295 0.49475
 C441 C 0.76015 0.84280 0.52835
 H442 H 0.77449 0.84197 0.51904
 C443 C 0.75720 0.82898 0.54535
 H444 H 0.76933 0.81750 0.54923
 C445 C 0.72665 0.85856 0.53451
 H446 H 0.71464 0.86985 0.53006
 C447 C 0.72307 0.84503 0.55163
 H448 H 0.70840 0.84610 0.56043
 Zn449 Zn 0.75017 0.87518 0.49985
 N450 N 0.74508 0.85738 0.52342
 C451 C 0.78481 0.89176 0.52338
 N452 N 0.77372 0.89297 0.50495
 C453 C 0.77865 0.90756 0.48989
 C454 C 0.79564 0.92137 0.49285
 C455 C 0.80191 0.90528 0.52698
 C456 C 0.74023 0.84283 0.47134
 C457 C 0.74318 0.82904 0.45433
 C458 C 0.77729 0.84513 0.44804
 C459 C 0.77370 0.85863 0.46516
 N460 N 0.75528 0.85742 0.47626
 H461 H 0.78035 0.88045 0.53539
 H462 H 0.76935 0.90841 0.47554
 H463 H 0.79953 0.93286 0.48073
 H464 H 0.81070 0.90419 0.54165
 H465 H 0.72589 0.84197 0.48065
 H466 H 0.73108 0.81755 0.45044
 H467 H 0.79195 0.84623 0.43923
 H468 H 0.78570 0.86994 0.46962
 C469 C 0.73851 0.83016 0.55712
 C470 C 0.69287 0.92012 0.48817
 C471 C 0.76187 0.83025 0.44255
 C472 C 0.80740 0.92017 0.51155
 C473 C 0.00975 0.22176 0.40729
 H474 H 0.02412 0.23103 0.40812
 C475 C 0.00677 0.20474 0.42108
 H476 H 0.01889 0.20081 0.43254
 C477 C -0.02377 0.21571 0.39156
 H478 H -0.03578 0.22021 0.38028
 C479 C -0.02739 0.19858 0.40507
 H480 H -0.04208 0.18982 0.40400
 N481 N -0.00532 0.22675 0.39274
 C482 C 0.02834 0.26025 0.34260
 H483 H 0.01909 0.27464 0.34178
 C484 C 0.04532 0.25725 0.32878
 H485 H 0.04924 0.26938 0.31731
 C486 C 0.03439 0.22670 0.35834
 H487 H 0.02990 0.21468 0.36963
 C488 C 0.05149 0.22306 0.34481
 H489 H 0.06023 0.20835 0.34587
 Zn490 Zn -0.00017 0.25034 0.37496
 N491 N 0.02337 0.24518 0.35717
 C492 C 0.02345 0.28494 0.39154
 N493 N 0.00500 0.27389 0.39274
 C494 C -0.01005 0.27886 0.40733
 C495 C -0.00704 0.29584 0.42113
 C496 C 0.02709 0.30205 0.40506
 C497 C -0.02871 0.24045 0.34265
 C498 C -0.04572 0.24346 0.32886
 C499 C -0.05190 0.27761 0.34493
 C500 C -0.03478 0.27398 0.35842
 N501 N -0.02374 0.25551 0.35721
 H502 H 0.03544 0.28046 0.38024
 H503 H -0.02441 0.26958 0.40817
 H504 H -0.01914 0.29975 0.43262
 H505 H 0.04178 0.31081 0.40398
 H506 H -0.01945 0.22608 0.34180
 H507 H -0.04964 0.23134 0.31739
 H508 H -0.06066 0.29231 0.34602
 H509 H -0.03029 0.28598 0.36971
 C510 C 0.05702 0.23850 0.32994
 C511 C -0.01195 0.19302 0.41991
 C512 C -0.05744 0.26219 0.33007
 C513 C 0.01168 0.30757 0.41994
 C514 C -0.00968 0.72152 0.09260
 H515 H -0.02403 0.73081 0.09177
 C516 C -0.00671 0.70452 0.07879
 H517 H -0.01883 0.70063 0.06732
 C518 C 0.02382 0.71538 0.10834
 H519 H 0.03583 0.71985 0.11963
 C520 C 0.02742 0.69826 0.09482
 H521 H 0.04210 0.68948 0.09590
 N522 N 0.00538 0.72646 0.10716
 C523 C -0.02826 0.75993 0.15731
 H524 H -0.01898 0.77429 0.15816
 C525 C -0.04525 0.75693 0.17112
 H526 H -0.04915 0.76904 0.18260
 C527 C -0.03436 0.72641 0.14153
 H528 H -0.02988 0.71441 0.13023
 C529 C -0.05147 0.72279 0.15505
 H530 H -0.06023 0.70809 0.15396
 Zn531 Zn 0.00026 0.75002 0.12496
 N532 N -0.02330 0.74487 0.14273
 C533 C -0.02332 0.78468 0.10840
 N534 N -0.00487 0.77362 0.10720
 C535 C 0.01018 0.77859 0.09263
 C536 C 0.00720 0.79561 0.07883
 C537 C -0.02694 0.80182 0.09489
 C538 C 0.02877 0.74004 0.15729
 C539 C 0.04575 0.74300 0.17109
 C540 C 0.05198 0.77718 0.15507
 C541 C 0.03488 0.77358 0.14155
 N542 N 0.02382 0.75513 0.14273
 H543 H -0.03532 0.78019 0.11969
 H544 H 0.02454 0.76931 0.09178
 H545 H 0.01931 0.79953 0.06735
 H546 H -0.04162 0.81059 0.09598
 H547 H 0.01949 0.72568 0.15812
 H548 H 0.04965 0.73087 0.18256
 H549 H 0.06075 0.79188 0.15401
 H550 H 0.03040 0.78561 0.13027
 C551 C -0.05698 0.73821 0.16992
 C552 C 0.01199 0.69276 0.07997
 C553 C 0.05749 0.76173 0.16993
 C554 C -0.01151 0.80735 0.08002
 C555 C 0.49012 0.22118 0.59264
 H556 H 0.47578 0.23050 0.59181
 C557 C 0.49306 0.20419 0.57883
 H558 H 0.48094 0.20032 0.56735
 C559 C 0.52360 0.21498 0.60839
 H560 H 0.53562 0.21942 0.61969
 C561 C 0.52718 0.19787 0.59486
 H562 H 0.54184 0.18906 0.59593
 N563 N 0.50519 0.22609 0.60721
 C564 C 0.47163 0.25961 0.65739
 H565 H 0.48094 0.27395 0.65824
 C566 C 0.45464 0.25665 0.67119
 H567 H 0.45076 0.26877 0.68268
 C568 C 0.46545 0.22612 0.64159
 H569 H 0.46989 0.21412 0.63028
 C570 C 0.44833 0.22253 0.65510
 H571 H 0.43953 0.20786 0.65401
 Zn572 Zn 0.50010 0.24966 0.62500
 N573 N 0.47655 0.24455 0.64280
 C574 C 0.47657 0.28436 0.60847
 N575 N 0.49499 0.27326 0.60724
 C576 C 0.51004 0.27821 0.59265
 C577 C 0.50707 0.29522 0.57886
 C578 C 0.47297 0.30150 0.59496
 C579 C 0.52863 0.23966 0.65733
 C580 C 0.54563 0.24261 0.67112
 C581 C 0.55189 0.27677 0.65506
 C582 C 0.53477 0.27318 0.64156
 N583 N 0.52369 0.25475 0.64276
 H584 H 0.46458 0.27989 0.61978
 H585 H 0.52438 0.26890 0.59179
 H586 H 0.51917 0.29912 0.56736
 H587 H 0.45830 0.31030 0.59607
 H588 H 0.51933 0.22531 0.65817
 H589 H 0.54952 0.23048 0.68259
 H590 H 0.56068 0.29145 0.65398
 H591 H 0.53030 0.28521 0.63027
 C592 C 0.44286 0.23796 0.66999
 C593 C 0.51174 0.19240 0.58000
 C594 C 0.55739 0.26132 0.66993
 C595 C 0.48838 0.30700 0.58007
 C596 C 0.51001 0.72195 0.90742
 H597 H 0.52435 0.73125 0.90828
 C598 C 0.50703 0.70493 0.92121
 H599 H 0.51914 0.70102 0.93270
 C600 C 0.47653 0.71582 0.89163
 H601 H 0.46454 0.72029 0.88032
 C602 C 0.47292 0.69868 0.90513
 H603 H 0.45825 0.68989 0.90403
 N604 N 0.49496 0.72690 0.89284
 C605 C 0.52863 0.76045 0.84274
 H606 H 0.51935 0.77482 0.84190
 C607 C 0.54564 0.75747 0.82895
 H608 H 0.54955 0.76960 0.81748
 C609 C 0.53472 0.72692 0.85851
 H610 H 0.53024 0.71490 0.86980
 C611 C 0.55184 0.72330 0.84501
 H612 H 0.56061 0.70861 0.84609
 Zn613 Zn 0.50009 0.75049 0.87507
 N614 N 0.52367 0.74537 0.85731
 C615 C 0.52363 0.78514 0.89168
 N616 N 0.50519 0.77406 0.89285
 C617 C 0.49012 0.77899 0.90742
 C618 C 0.49308 0.79598 0.92124
 C619 C 0.52722 0.80224 0.90521
 C620 C 0.47162 0.74055 0.84270
 C621 C 0.45462 0.74351 0.82890
 C622 C 0.44833 0.77765 0.84497
 C623 C 0.46544 0.77405 0.85848
 N624 N 0.47654 0.75562 0.85728
 H625 H 0.53564 0.78068 0.88039
 H626 H 0.47577 0.76970 0.90825
 H627 H 0.48096 0.79986 0.93272
 H628 H 0.54190 0.81102 0.90415
 H629 H 0.48092 0.72621 0.84186
 H630 H 0.45074 0.73139 0.81742
 H631 H 0.43953 0.79232 0.84606
 H632 H 0.46989 0.78606 0.86978
 C633 C 0.55737 0.73875 0.83015
 C634 C 0.48834 0.69316 0.92001
 C635 C 0.44285 0.76221 0.83010
 C636 C 0.51179 0.80773 0.92008
 C637 C 0.15081 0.23959 0.25728
 C638 C 0.13876 0.22243 0.26440
 C639 C 0.14385 0.20191 0.25782
 C640 C 0.16092 0.19853 0.24416
 C641 C 0.17313 0.21568 0.23690
 C642 C 0.16788 0.23626 0.24361
 C643 C 0.12119 0.22588 0.27846
 C644 C 0.10648 0.22878 0.29025
 C645 C 0.08926 0.23217 0.30405
 C646 C 0.07456 0.23506 0.31585
 H647 H 0.14705 0.25554 0.26233
 H648 H 0.13459 0.18851 0.26319
 H649 H 0.16440 0.18255 0.23907
 H650 H 0.17715 0.24975 0.23852
 C651 C 0.65122 0.73982 0.75752
 C652 C 0.63915 0.72268 0.76466
 C653 C 0.64420 0.70215 0.75807
 C654 C 0.66125 0.69875 0.74440
 C655 C 0.67348 0.71588 0.73711
 C656 C 0.66827 0.73647 0.74383
 C657 C 0.62159 0.72616 0.77873
 C658 C 0.60688 0.72906 0.79051
 C659 C 0.58965 0.73245 0.80430
 C660 C 0.57494 0.73532 0.81608
 H661 H 0.64749 0.75578 0.76257
 H662 H 0.63493 0.68877 0.76346
 H663 H 0.66471 0.68275 0.73930
 H664 H 0.67755 0.74994 0.73872
 C665 C 0.36364 0.77568 0.74279
 C666 C 0.36098 0.77799 0.76465
 C667 C 0.34118 0.78361 0.77280
 C668 C 0.32409 0.78692 0.75915
 C669 C 0.32660 0.78462 0.73715
 C670 C 0.34658 0.77896 0.72911
 C671 C 0.37856 0.77459 0.77872
 C672 C 0.39329 0.77174 0.79049
 C673 C 0.41054 0.76842 0.80426
 C674 C 0.42527 0.76559 0.81604
 H675 H 0.37892 0.77139 0.73631
 H676 H 0.33893 0.78540 0.78970
 H677 H 0.30886 0.79102 0.76581
 H678 H 0.34907 0.77735 0.71224
 C679 C -0.14758 0.29832 0.26186
 C680 C -0.13926 0.27802 0.26458
 C681 C -0.14805 0.26101 0.25356
 C682 C -0.16509 0.26423 0.23984
 C683 C -0.17382 0.28466 0.23682
 C684 C -0.16464 0.30164 0.24820
 C685 C -0.12169 0.27465 0.27866
 C686 C -0.10697 0.27181 0.29044
 C687 C -0.08974 0.26848 0.30424
 C688 C -0.07502 0.26562 0.31601
 H689 H -0.14076 0.31166 0.27020
 H690 H -0.14184 0.24517 0.25570
 H691 H -0.17182 0.25038 0.23239
 H692 H -0.16990 0.31778 0.24604
 C693 C -0.14403 0.70175 0.24189
 C694 C -0.13883 0.72227 0.23537
 C695 C -0.15079 0.73947 0.24255
 C696 C -0.16788 0.73618 0.25620
 C697 C -0.17324 0.71560 0.26285
 C698 C -0.16112 0.69841 0.25553
 C699 C -0.12124 0.72568 0.22133
 C700 C -0.10651 0.72855 0.20956
 C701 C -0.08926 0.73191 0.19578
 C702 C -0.07455 0.73478 0.18400
 H703 H -0.13484 0.68833 0.23647
 H704 H -0.14695 0.75542 0.23756
 H705 H -0.17707 0.74969 0.26135
 H706 H -0.16468 0.68242 0.26057
 C707 C 0.35274 0.20168 0.73805
 C708 C 0.36099 0.22201 0.73541
 C709 C 0.35209 0.23896 0.74645
 C710 C 0.33502 0.23564 0.76011
 C711 C 0.32636 0.21517 0.76304
 C712 C 0.33565 0.19825 0.75166
 C713 C 0.37858 0.22548 0.72137
 C714 C 0.39331 0.22836 0.70961
 C715 C 0.41055 0.23172 0.69583
 C716 C 0.42528 0.23457 0.68406
 H717 H 0.35965 0.18839 0.72971
 H718 H 0.35825 0.25483 0.74437
 H719 H 0.32822 0.24943 0.76760
 H720 H 0.33047 0.18208 0.75376
 C721 C 0.64734 0.29761 0.73816
 C722 C 0.63916 0.27726 0.73543
 C723 C 0.64808 0.26030 0.74643
 C724 C 0.66511 0.26361 0.76013
 C725 C 0.67370 0.28409 0.76315
 C726 C 0.66439 0.30103 0.75180
 C727 C 0.62160 0.27381 0.72136
 C728 C 0.60689 0.27092 0.70958
 C729 C 0.58967 0.26757 0.69578
 C730 C 0.57495 0.26471 0.68400
 H731 H 0.64041 0.31092 0.72984
 H732 H 0.64197 0.24441 0.74429
 H733 H 0.67194 0.24979 0.76756
 H734 H 0.66952 0.31720 0.75397
 C735 C 0.14414 0.79819 0.24225
 C736 C 0.13917 0.77768 0.23554
 C737 C 0.15130 0.76054 0.24258
 C738 C 0.16833 0.76387 0.25629
 C739 C 0.17345 0.78444 0.26313
 C740 C 0.16117 0.80157 0.25595
 C741 C 0.12163 0.77423 0.22145
 C742 C 0.10694 0.77135 0.20964
 C743 C 0.08974 0.76799 0.19582
 C744 C 0.07504 0.76513 0.18402
 H745 H 0.13482 0.81157 0.23694
 H746 H 0.14763 0.74460 0.23744
 H747 H 0.17765 0.75040 0.26132
 H748 H 0.16457 0.81754 0.26114
 C749 C 0.27246 0.15876 0.21657
 C750 C 0.26434 0.13901 0.22246
 C751 C 0.24250 0.13641 0.22499
 C752 C 0.22883 0.15347 0.22163
 C753 C 0.23683 0.17339 0.21568
 C754 C 0.25881 0.17584 0.21319
 C755 C 0.27840 0.12143 0.22590
 C756 C 0.29018 0.10670 0.22877
 C757 C 0.30397 0.08946 0.23211
 C758 C 0.31577 0.07474 0.23497
 H759 H 0.28934 0.16096 0.21462
 H760 H 0.23604 0.12117 0.22949
 H761 H 0.21197 0.15102 0.22341
 H762 H 0.26547 0.19104 0.20888
 C763 C 0.77267 0.65878 0.71657
 C764 C 0.76452 0.63905 0.72249
 C765 C 0.74269 0.63649 0.72507
 C766 C 0.72903 0.65358 0.72174
 C767 C 0.73706 0.67348 0.71576
 C768 C 0.75904 0.67589 0.71321
 C769 C 0.77856 0.62144 0.72591
 C770 C 0.79031 0.60669 0.72877
 C771 C 0.80407 0.58943 0.73212
 C772 C 0.81584 0.57468 0.73498
 H773 H 0.78955 0.66095 0.71459
 H774 H 0.73621 0.62127 0.72960
 H775 H 0.71218 0.65116 0.72356
 H776 H 0.76572 0.69107 0.70889
 C777 C 0.75764 0.34829 0.76048
 C778 C 0.76437 0.36061 0.77760
 C779 C 0.75736 0.35581 0.79805
 C780 C 0.74366 0.33876 0.80138
 C781 C 0.73678 0.32630 0.78427
 C782 C 0.74394 0.33124 0.76377
 C783 C 0.77846 0.37818 0.77418
 C784 C 0.79026 0.39290 0.77132
 C785 C 0.80405 0.41014 0.76799
 C786 C 0.81584 0.42486 0.76514
 H787 H 0.76303 0.35183 0.74459
 H788 H 0.76243 0.36528 0.81141
 H789 H 0.73823 0.33549 0.81730
 H790 H 0.73915 0.32176 0.75034
 C791 C 0.27158 -0.15732 0.28833
 C792 C 0.26445 -0.13927 0.27776
 C793 C 0.24360 -0.13833 0.27055
 C794 C 0.22988 -0.15537 0.27385
 C795 C 0.23672 -0.17384 0.28455
 C796 C 0.25794 -0.17440 0.29172
 C797 C 0.27853 -0.12170 0.27432
 C798 C 0.29031 -0.10698 0.27144
 C799 C 0.30410 -0.08974 0.26808
 C800 C 0.31588 -0.07501 0.26522
 H801 H 0.28778 -0.15829 0.29383
 H802 H 0.23785 -0.12432 0.26249
 H803 H 0.21369 -0.15346 0.26869
 H804 H 0.26451 -0.18830 0.29924
 C805 C 0.23821 -0.14743 0.70206
 C806 C 0.23558 -0.13910 0.72235
 C807 C 0.24671 -0.14787 0.73931
 C808 C 0.26044 -0.16490 0.73603
 C809 C 0.26336 -0.17364 0.71561
 C810 C 0.25189 -0.16447 0.69868
 C811 C 0.22147 -0.12155 0.72578
 C812 C 0.20965 -0.10686 0.72863
 C813 C 0.19580 -0.08966 0.73195
 C814 C 0.18398 -0.07496 0.73478
 H815 H 0.22979 -0.14062 0.68876
 H816 H 0.24465 -0.14165 0.75515
 H817 H 0.26801 -0.17161 0.74983
 H818 H 0.25396 -0.16974 0.68254
 C819 C 0.75723 0.36371 0.22476
 C820 C 0.73540 0.36100 0.22232
 C821 C 0.72734 0.34120 0.21655
 C822 C 0.74105 0.32415 0.21322
 C823 C 0.76303 0.32671 0.21564
 C824 C 0.77097 0.34668 0.22146
 C825 C 0.72128 0.37854 0.22573
 C826 C 0.70946 0.39324 0.22859
 C827 C 0.69564 0.41046 0.23194
 C828 C 0.68384 0.42517 0.23481
 H829 H 0.76364 0.37899 0.22917
 H830 H 0.71046 0.33892 0.21467
 H831 H 0.73444 0.30891 0.20902
 H832 H 0.78782 0.34920 0.22319
 C833 C 0.72736 0.65887 0.28318
 C834 C 0.73546 0.63908 0.27742
 C835 C 0.75730 0.63641 0.27500
 C836 C 0.77101 0.65345 0.27835
 C837 C 0.76302 0.67341 0.28418
 C838 C 0.74103 0.67593 0.28655
 C839 C 0.72137 0.62152 0.27399
 C840 C 0.70957 0.60681 0.27114
 C841 C 0.69576 0.58959 0.26781
 C842 C 0.68395 0.57488 0.26497
 H843 H 0.71048 0.66113 0.28503
 H844 H 0.76375 0.62114 0.27060
 H845 H 0.78787 0.65095 0.27665
 H846 H 0.73439 0.69116 0.29074
 C847 C 0.24238 0.14366 0.79788
 C848 C 0.23547 0.13880 0.77742
 C849 C 0.24236 0.15103 0.76028
 C850 C 0.25611 0.16804 0.76357
 C851 C 0.26316 0.17304 0.78409
 C852 C 0.25612 0.16067 0.80122
 C853 C 0.22134 0.12127 0.77400
 C854 C 0.20952 0.10659 0.77114
 C855 C 0.19569 0.08938 0.76780
 C856 C 0.18388 0.07468 0.76495
 H857 H 0.23718 0.13427 0.81126
 H858 H 0.23705 0.14745 0.74438
 H859 H 0.26101 0.17745 0.75011
 H860 H 0.26146 0.16400 0.81715
 C861 C 0.23952 0.25741 0.15099
 C862 C 0.22241 0.26452 0.13888
 C863 C 0.20188 0.25794 0.14393
 C864 C 0.19847 0.24431 0.16102
 C865 C 0.21557 0.23707 0.17330
 C866 C 0.23615 0.24377 0.16808
 C867 C 0.22590 0.27855 0.12128
 C868 C 0.22880 0.29031 0.10653
 C869 C 0.23219 0.30407 0.08927
 C870 C 0.23506 0.31584 0.07452
 H871 H 0.25547 0.26245 0.14725
 H872 H 0.18853 0.26329 0.13462
 H873 H 0.18248 0.23921 0.16446
 H874 H 0.24960 0.23867 0.17739
 C875 C 0.70207 0.75809 0.64409
 C876 C 0.72259 0.76465 0.63899
 C877 C 0.73973 0.75751 0.65105
 C878 C 0.73638 0.74386 0.66815
 C879 C 0.71580 0.73719 0.67342
 C880 C 0.69868 0.74446 0.66118
 C881 C 0.72605 0.77870 0.62140
 C882 C 0.72893 0.79048 0.60667
 C883 C 0.73228 0.80428 0.58942
 C884 C 0.73513 0.81607 0.57470
 H885 H 0.68870 0.76347 0.63482
 H886 H 0.75568 0.76253 0.64728
 H887 H 0.74984 0.73874 0.67742
 H888 H 0.68270 0.73938 0.66467
 C889 C 0.78358 0.77280 0.34098
 C890 C 0.77774 0.76470 0.36075
 C891 C 0.77523 0.74285 0.36340
 C892 C 0.77854 0.72914 0.34636
 C893 C 0.78442 0.73713 0.32642
 C894 C 0.78691 0.75912 0.32392
 C895 C 0.77432 0.77880 0.37830
 C896 C 0.77146 0.79060 0.39301
 C897 C 0.76811 0.80440 0.41024
 C898 C 0.76526 0.81618 0.42497
 H899 H 0.78551 0.78970 0.33874
 H900 H 0.77077 0.73641 0.37865
 H901 H 0.77678 0.71228 0.34885
 H902 H 0.79117 0.76576 0.30871
 C903 C 0.27526 0.24233 -0.13683
 C904 C 0.27769 0.26419 -0.13946
 C905 C 0.28349 0.27233 -0.15923
 C906 C 0.28685 0.25868 -0.17630
 C907 C 0.28445 0.23667 -0.17382
 C908 C 0.27860 0.22865 -0.15389
 C909 C 0.27427 0.27826 -0.12189
 C910 C 0.27141 0.29005 -0.10717
 C911 C 0.26807 0.30386 -0.08994
 C912 C 0.26523 0.31566 -0.07523
 H913 H 0.27083 0.23586 -0.12158
 H914 H 0.28536 0.28924 -0.16145
 H915 H 0.29109 0.26535 -0.19151
 H916 H 0.27689 0.21177 -0.15142
 C917 C 0.73938 0.24205 -0.15146
 C918 C 0.72230 0.23529 -0.13910
 C919 C 0.70183 0.24220 -0.14392
 C920 C 0.69843 0.25581 -0.16103
 C921 C 0.71550 0.26269 -0.17356
 C922 C 0.73602 0.25568 -0.16857
 C923 C 0.72578 0.22126 -0.12149
 C924 C 0.72867 0.20950 -0.10675
 C925 C 0.73205 0.19573 -0.08949
 C926 C 0.73492 0.18397 -0.07475
 H927 H 0.75529 0.23676 -0.14790
 H928 H 0.68850 0.23711 -0.13441
 H929 H 0.68250 0.26118 -0.16430
 H930 H 0.74943 0.26052 -0.17807
 C931 C 0.23953 0.74243 0.34894
 C932 C 0.22238 0.73545 0.36108
 C933 C 0.20190 0.74219 0.35606
 C934 C 0.19856 0.75584 0.33896
 C935 C 0.21570 0.76294 0.32666
 C936 C 0.23624 0.75609 0.33185
 C937 C 0.22578 0.72140 0.37868
 C938 C 0.22863 0.70963 0.39343
 C939 C 0.23195 0.69584 0.41069
 C940 C 0.23478 0.68406 0.42542
 H941 H 0.25545 0.73727 0.35266
 H942 H 0.18851 0.73693 0.36538
 H943 H 0.18261 0.76105 0.33553
 H944 H 0.24971 0.76109 0.32252
 C945 C 0.27543 0.75750 0.63649
 C946 C 0.27775 0.73563 0.63920
 C947 C 0.28345 0.72754 0.65901
 C948 C 0.28682 0.74123 0.67605
 C949 C 0.28453 0.76324 0.67348
 C950 C 0.27879 0.77122 0.65350
 C951 C 0.27429 0.72152 0.62167
 C952 C 0.27138 0.70971 0.60699
 C953 C 0.26799 0.69588 0.58978
 C954 C 0.26510 0.68408 0.57509
 H955 H 0.27108 0.76394 0.62120
 H956 H 0.28523 0.71063 0.66131
 H957 H 0.29095 0.73460 0.69130
 H958 H 0.27714 0.78810 0.65098
 C959 C 0.79815 0.24253 0.14400
 C960 C 0.77768 0.23565 0.13915
 C961 C 0.76057 0.24246 0.15143
 C962 C 0.76390 0.25610 0.16853
 C963 C 0.78442 0.26308 0.17357
 C964 C 0.80152 0.25616 0.16110
 C965 C 0.77424 0.22159 0.12157
 C966 C 0.77138 0.20980 0.10685
 C967 C 0.76804 0.19599 0.08963
 C968 C 0.76519 0.18418 0.07493
 H969 H 0.81150 0.23741 0.13455
 H970 H 0.74467 0.23720 0.14784
 H971 H 0.75047 0.26098 0.17797
 H972 H 0.81745 0.26150 0.16440
 C973 C 0.48951 0.40092 0.50741
 C974 C 0.47237 0.38889 0.51460
 C975 C 0.45184 0.39402 0.50809
 C976 C 0.44845 0.41110 0.49444
 C977 C 0.46557 0.42330 0.48711
 C978 C 0.48615 0.41801 0.49375
 C979 C 0.47583 0.37130 0.52866
 C980 C 0.47873 0.35657 0.54043
 C981 C 0.48210 0.33932 0.55422
 C982 C 0.48497 0.32459 0.56600
 H983 H 0.50546 0.39713 0.51240
 H984 H 0.43846 0.38477 0.51352
 H985 H 0.43246 0.41461 0.48940
 H986 H 0.49963 0.42725 0.48859
 C987 C -0.01042 0.90131 0.00740
 C988 C -0.02755 0.88923 0.01454
 C989 C -0.04807 0.89430 0.00797
 C990 C -0.05147 0.91138 -0.00569
 C991 C -0.03435 0.92363 -0.01296
 C992 C -0.01378 0.91839 -0.00626
 C993 C -0.02408 0.87164 0.02860
 C994 C -0.02118 0.85691 0.04038
 C995 C -0.01781 0.83966 0.05417
 C996 C -0.01494 0.82493 0.06595
 H997 H 0.00553 0.89756 0.01244
 H998 H -0.06144 0.88502 0.01335
 H999 H -0.06745 0.91486 -0.01077
 H1000 H -0.00032 0.92768 -0.01138
 C1001 C 0.03382 0.59119 0.02256
 C1002 C 0.02786 0.61092 0.01446
 C1003 C 0.02523 0.61353 -0.00738
 C1004 C 0.02854 0.59647 -0.02107
 C1005 C 0.03454 0.57656 -0.01308
 C1006 C 0.03715 0.57411 0.00890
 C1007 C 0.02444 0.62849 0.02854
 C1008 C 0.02157 0.64322 0.04032
 C1009 C 0.01823 0.66046 0.05411
 C1010 C 0.01538 0.67519 0.06589
 H1011 H 0.03585 0.58898 0.03944
 H1012 H 0.02067 0.62875 -0.01382
 H1013 H 0.02667 0.59892 -0.03792
 H1014 H 0.04150 0.55892 0.01554
 C1015 C 0.53339 0.09083 0.52255
 C1016 C 0.52759 0.11061 0.51442
 C1017 C 0.52515 0.11326 0.49257
 C1018 C 0.52851 0.09620 0.47888
 C1019 C 0.53436 0.07626 0.48689
 C1020 C 0.53676 0.07376 0.50889
 C1021 C 0.52416 0.12818 0.52850
 C1022 C 0.52129 0.14290 0.54029
 C1023 C 0.51796 0.16012 0.55410
 C1024 C 0.51512 0.17484 0.56590
 H1025 H 0.53526 0.08860 0.53944
 H1026 H 0.52072 0.12851 0.48611
 H1027 H 0.52679 0.09869 0.46201
 H1028 H 0.54100 0.05854 0.51554
 C1029 C -0.03340 0.09125 0.47718
 C1030 C -0.02777 0.11106 0.48534
 C1031 C -0.02545 0.11368 0.50720
 C1032 C -0.02874 0.09659 0.52087
 C1033 C -0.03441 0.07661 0.51282
 C1034 C -0.03671 0.07414 0.49081
 C1035 C -0.02440 0.12867 0.47129
 C1036 C -0.02156 0.14342 0.45953
 C1037 C -0.01822 0.16069 0.44575
 C1038 C -0.01537 0.17543 0.43398
 H1039 H -0.03519 0.08903 0.46028
 H1040 H -0.02116 0.12896 0.51370
 H1041 H -0.02712 0.09905 0.53774
 H1042 H -0.04082 0.05890 0.48413
 C1043 C 0.48953 0.59923 0.99265
 C1044 C 0.47237 0.61121 0.98542
 C1045 C 0.45185 0.60602 0.99188
 C1046 C 0.44847 0.58892 1.00551
 C1047 C 0.46562 0.57677 1.01288
 C1048 C 0.48620 0.58213 1.00629
 C1049 C 0.47582 0.62882 0.97138
 C1050 C 0.47870 0.64357 0.95962
 C1051 C 0.48206 0.66083 0.94585
 C1052 C 0.48493 0.67557 0.93407
 H1053 H 0.50548 0.60308 0.98770
 H1054 H 0.43845 0.61523 0.98642
 H1055 H 0.43248 0.58536 1.01051
 H1056 H 0.49969 0.57292 1.01148
 C1057 C 0.52055 0.88842 1.00664
 C1058 C 0.52775 0.88939 0.98578
 C1059 C 0.53831 0.90745 0.97867
 C1060 C 0.54171 0.92450 0.99233
 C1061 C 0.53455 0.92391 1.01356
 C1062 C 0.52387 0.90543 1.02039
 C1063 C 0.52429 0.87186 0.97167
 C1064 C 0.52141 0.85717 0.95985
 C1065 C 0.51805 0.83997 0.94601
 C1066 C 0.51519 0.82527 0.93419
 H1067 H 0.51250 0.87441 1.01238
 H1068 H 0.54380 0.90844 0.96245
 H1069 H 0.54922 0.93841 0.98577
 H1070 H 0.51872 0.90349 1.03659
 C1071 C 0.01059 0.40143 0.49257
 C1072 C 0.02772 0.38929 0.48554
 C1073 C 0.04822 0.39427 0.49226
 C1074 C 0.05158 0.41130 0.50597
 C1075 C 0.03446 0.42359 0.51315
 C1076 C 0.01391 0.41846 0.50629
 C1077 C 0.02428 0.37175 0.47144
 C1078 C 0.02138 0.35705 0.45963
 C1079 C 0.01800 0.33984 0.44582
 C1080 C 0.01511 0.32513 0.43403
 H1081 H -0.00533 0.39775 0.48742
 H1082 H 0.06159 0.38495 0.48696
 H1083 H 0.06754 0.41471 0.51117
 H1084 H 0.00045 0.42779 0.51131
 C1085 C 0.40856 0.52259 0.46681
 C1086 C 0.38881 0.51442 0.47261
 C1087 C 0.38621 0.49256 0.47502
 C1088 C 0.40328 0.47889 0.47165
 C1089 C 0.42319 0.48694 0.46579
 C1090 C 0.42564 0.50896 0.46342
 C1091 C 0.37123 0.52848 0.47607
 C1092 C 0.35651 0.54025 0.47895
 C1093 C 0.33928 0.55405 0.48232
 C1094 C 0.32457 0.56584 0.48518
 H1095 H 0.41076 0.53950 0.46496
 H1096 H 0.37098 0.48606 0.47945
 H1097 H 0.40084 0.46201 0.47335
 H1098 H 0.44084 0.51565 0.45921
 C1099 C 0.90733 0.02184 -0.03791
 C1100 C 0.88928 0.01462 -0.02741
 C1101 C 0.88837 -0.00628 -0.02029
 C1102 C 0.90542 -0.01996 -0.02363
 C1103 C 0.92388 -0.01304 -0.03426
 C1104 C 0.92442 0.00823 -0.04133
 C1105 C 0.87169 0.02867 -0.02396
 C1106 C 0.85696 0.04044 -0.02109
 C1107 C 0.83972 0.05422 -0.01774
 C1108 C 0.82499 0.06600 -0.01489
 H1109 H 0.90828 0.03809 -0.04334
 H1110 H 0.87437 -0.01209 -0.01229
 H1111 H 0.90353 -0.03620 -0.01855
 H1112 H 0.93831 0.01488 -0.04878
 C1113 C 0.59888 0.00761 0.01075
 C1114 C 0.61103 0.01458 0.02790
 C1115 C 0.60603 0.00783 0.04839
 C1116 C 0.58895 -0.00582 0.05174
 C1117 C 0.57664 -0.01291 0.03461
 C1118 C 0.58180 -0.00605 0.01406
 C1119 C 0.62862 0.02862 0.02446
 C1120 C 0.64335 0.04039 0.02159
 C1121 C 0.66060 0.05417 0.01825
 C1122 C 0.67532 0.06594 0.01539
 H1123 H 0.60258 0.01278 -0.00518
 H1124 H 0.61536 0.01308 0.06177
 H1125 H 0.58554 -0.01104 0.06770
 H1126 H 0.57247 -0.01104 0.00059
 C1127 C 0.11161 0.49379 0.52072
 C1128 C 0.11067 0.51464 0.52795
 C1129 C 0.09262 0.52177 0.53849
 C1130 C 0.07555 0.50812 0.54185
 C1131 C 0.07611 0.48690 0.53466
 C1132 C 0.09459 0.48006 0.52399
 C1133 C 0.12823 0.52874 0.52454
 C1134 C 0.14295 0.54053 0.52169
 C1135 C 0.16018 0.55432 0.51835
 C1136 C 0.17491 0.56610 0.51549
 H1137 H 0.12562 0.48804 0.51268
 H1138 H 0.09165 0.53798 0.54401
 H1139 H 0.06165 0.51469 0.54935
 H1140 H 0.09650 0.46386 0.51882
 C1141 C 0.10600 0.49195 -0.04842
 C1142 C 0.11115 0.48536 -0.02792
 C1143 C 0.09917 0.49250 -0.01072
 C1144 C 0.08208 0.50616 -0.01401
 C1145 C 0.07676 0.51286 -0.03456
 C1146 C 0.08891 0.50560 -0.05174
 C1147 C 0.12873 0.47129 -0.02453
 C1148 C 0.14346 0.45950 -0.02170
 C1149 C 0.16069 0.44569 -0.01839
 C1150 C 0.17540 0.43389 -0.01555
 H1151 H 0.11521 0.48657 -0.06184
 H1152 H 0.10299 0.48745 0.00521
 H1153 H 0.07287 0.51128 -0.00050
 H1154 H 0.08539 0.51070 -0.06772
 C1155 C 0.60273 0.98816 0.45189
 C1156 C 0.61097 0.98552 0.47221
 C1157 C 0.60206 0.99655 0.48916
 C1158 C 0.58499 1.01021 0.48584
 C1159 C 0.57633 1.01314 0.46537
 C1160 C 0.58563 1.00176 0.44846
 C1161 C 0.62857 0.97149 0.47568
 C1162 C 0.64330 0.95973 0.47857
 C1163 C 0.66055 0.94596 0.48193
 C1164 C 0.67529 0.93419 0.48478
 H1165 H 0.60964 0.97982 0.43860
 H1166 H 0.60822 0.99448 0.50502
 H1167 H 0.57817 1.01769 0.49962
 H1168 H 0.58045 1.00386 0.43230
 C1169 C 0.89799 0.99681 0.51054
 C1170 C 0.88919 0.98568 0.52748
 C1171 C 0.89751 0.98825 0.54778
 C1172 C 0.91458 1.00189 0.55119
 C1173 C 0.92377 1.01337 0.53428
 C1174 C 0.91504 1.01050 0.51384
 C1175 C 0.87162 0.97162 0.52403
 C1176 C 0.85691 0.95984 0.52116
 C1177 C 0.83968 0.94604 0.51780
 C1178 C 0.82496 0.93425 0.51495
 H1179 H 0.89178 0.99480 0.49469
 H1180 H 0.89068 0.97982 0.56107
 H1181 H 0.91984 1.00392 0.56733
 H1182 H 0.92177 1.01808 0.50005
 C1183 C 0.38644 0.50728 0.02478
 C1184 C 0.38910 0.48542 0.02720
 C1185 C 0.40886 0.47731 0.03302
 C1186 C 0.42589 0.49099 0.03645
 C1187 C 0.42338 0.51299 0.03407
 C1188 C 0.40346 0.52099 0.02818
 C1189 C 0.37156 0.47133 0.02372
 C1190 C 0.35687 0.45952 0.02083
 C1191 C 0.33967 0.44569 0.01746
 C1192 C 0.32498 0.43388 0.01460
 H1193 H 0.37120 0.51373 0.02033
 H1194 H 0.41110 0.46041 0.03488
 H1195 H 0.44110 0.48434 0.04069
 H1196 H 0.40097 0.53786 0.02648
 C1197 C 0.52258 0.46668 0.40894
 C1198 C 0.51447 0.47248 0.38917
 C1199 C 0.49264 0.47492 0.38652
 C1200 C 0.47894 0.47158 0.40357
 C1201 C 0.48694 0.46574 0.42352
 C1202 C 0.50892 0.46332 0.42601
 C1203 C 0.52855 0.47591 0.37160
 C1204 C 0.54034 0.47877 0.35688
 C1205 C 0.55413 0.48211 0.33964
 C1206 C 0.56590 0.48496 0.32491
 H1207 H 0.53947 0.46480 0.41117
 H1208 H 0.48618 0.47935 0.37127
 H1209 H 0.46208 0.47329 0.40109
 H1210 H 0.51557 0.45908 0.44122
 C1211 C -0.00735 -0.02542 0.88640
 C1212 C 0.01451 -0.02759 0.88910
 C1213 C 0.02266 -0.03302 0.90896
 C1214 C 0.00902 -0.03627 0.92607
 C1215 C -0.01298 -0.03409 0.92352
 C1216 C -0.02102 -0.02865 0.90348
 C1217 C 0.02857 -0.02424 0.87150
 C1218 C 0.04034 -0.02143 0.85676
 C1219 C 0.05412 -0.01812 0.83950
 C1220 C 0.06588 -0.01529 0.82476
 H1221 H -0.01383 -0.02129 0.87107
 H1222 H 0.03957 -0.03469 0.91124
 H1223 H 0.01568 -0.04022 0.94135
 H1224 H -0.03790 -0.02717 0.90096
 C1225 C 0.02251 0.03327 0.59099
 C1226 C 0.01439 0.02757 0.61079
 C1227 C -0.00746 0.02527 0.61348
 C1228 C -0.02115 0.02864 0.59645
 C1229 C -0.01315 0.03439 0.57647
 C1230 C 0.00884 0.03666 0.57393
 C1231 C 0.02847 0.02411 0.62835
 C1232 C 0.04026 0.02122 0.64306
 C1233 C 0.05406 0.01784 0.66028
 C1234 C 0.06584 0.01497 0.67500
 H1235 H 0.03940 0.03503 0.58872
 H1236 H -0.01391 0.02092 0.62876
 H1237 H -0.03802 0.02702 0.59895
 H1238 H 0.01549 0.04079 0.55869
 C1239 C 0.52256 0.53351 0.09116
 C1240 C 0.51441 0.52766 0.11090
 C1241 C 0.49258 0.52516 0.11350
 C1242 C 0.47892 0.52848 0.09642
 C1243 C 0.48694 0.53437 0.07650
 C1244 C 0.50893 0.53685 0.07406
 C1245 C 0.52846 0.52423 0.12849
 C1246 C 0.54023 0.52137 0.14322
 C1247 C 0.55401 0.51803 0.16047
 C1248 C 0.56579 0.51518 0.17519
 H1249 H 0.53944 0.53543 0.08896
 H1250 H 0.48610 0.52070 0.12873
 H1251 H 0.46206 0.52673 0.09887
 H1252 H 0.51560 0.54112 0.05886
 C1253 C 0.49229 -0.04823 0.10623
 C1254 C 0.48556 -0.02772 0.11121
 C1255 C 0.49260 -0.01057 0.09909
 C1256 C 0.50632 -0.01389 0.08205
 C1257 C 0.51317 -0.03445 0.07692
 C1258 C 0.50599 -0.05159 0.08919
 C1259 C 0.47145 -0.02429 0.12874
 C1260 C 0.45962 -0.02142 0.14342
 C1261 C 0.44577 -0.01807 0.16061
 C1262 C 0.43394 -0.01521 0.17530
 H1263 H 0.48698 -0.06162 0.11554
 H1264 H 0.48744 0.00537 0.10277
 H1265 H 0.51134 -0.00041 0.07273
 H1266 H 0.51118 -0.06756 0.08578
 C1267 C 0.99236 0.48962 0.59894
 C1268 C 0.98540 0.47243 0.61106
 C1269 C 0.99216 0.45195 0.60604
 C1270 C 1.00582 0.44863 0.58897
 C1271 C 1.01291 0.46580 0.57668
 C1272 C 1.00604 0.48634 0.58186
 C1273 C 0.97133 0.47582 0.62864
 C1274 C 0.95954 0.47864 0.64337
 C1275 C 0.94574 0.48193 0.66060
 C1276 C 0.93394 0.48476 0.67531
 H1277 H 0.98719 0.50554 0.60265
 H1278 H 0.98691 0.43854 0.61536
 H1279 H 1.01106 0.43268 0.58554
 H1280 H 1.01103 0.49984 0.57255
 C1281 C 0.99248 0.51035 0.90113
 C1282 C 0.98532 0.52751 0.88909
 C1283 C 0.99193 0.54804 0.89414
 C1284 C 1.00565 0.55141 0.91115
 C1285 C 1.01296 0.53426 0.92334
 C1286 C 1.00621 0.51368 0.91815
 C1287 C 0.97122 0.52406 0.87156
 C1288 C 0.95941 0.52117 0.85687
 C1289 C 0.94560 0.51780 0.83966
 C1290 C 0.93380 0.51493 0.82496
 H1291 H 0.98741 0.49440 0.89740
 H1292 H 0.98653 0.56143 0.88489
 H1293 H 1.01077 0.56740 0.91460
 H1294 H 1.01134 0.50020 0.92740
 C1295 C 0.49235 0.01035 0.40123
 C1296 C 0.48546 0.02750 0.38901
 C1297 C 0.49235 0.04798 0.39388
 C1298 C 0.50608 0.05131 0.41089
 C1299 C 0.51313 0.03417 0.42324
 C1300 C 0.50610 0.01365 0.41823
 C1301 C 0.47134 0.02408 0.37148
 C1302 C 0.45952 0.02122 0.35680
 C1303 C 0.44569 0.01787 0.33960
 C1304 C 0.43388 0.01502 0.32490
 H1305 H 0.48706 -0.00556 0.39764
 H1306 H 0.48715 0.06136 0.38450
 H1307 H 0.51141 0.06726 0.41422
 H1308 H 0.51100 0.00018 0.42764
   
