data_POSCAR
  _audit_creation_date              2014-09-24
  _audit_creation_method            'ToBaCCo'
  _symmetry_space_group_name_H-M    'P1'
  _symmetry_Int_Tables_number       1
  _symmetry_cell_setting            triclinic
  loop_
  _symmetry_equiv_pos_as_xyz
 x,y,z
_cell_length_a 43.6324
_cell_length_b 43.5803
_cell_length_c 40.8564
_cell_angle_alpha 90.574900
_cell_angle_beta 89.258100
_cell_angle_gamma 89.826300
loop_
  _atom_site_label
  _atom_site_type_symbol
  _atom_site_fract_x
  _atom_site_fract_y
  _atom_site_fract_z
C1 C 0.36672 0.00264 0.22558
 C2 C 0.12748 0.01000 0.75426
 C3 C 0.62585 0.49587 0.25305
 C4 C 0.85380 0.49498 0.75704
 C5 C 0.23942 0.39593 0.99751
 C6 C 0.76381 0.12631 0.98987
 C7 C 0.24277 0.62539 0.50840
 C8 C 0.74724 0.89720 0.49786
 C9 C 0.00800 0.25080 0.37850
 C10 C -0.00226 0.74699 0.13157
 C11 C 0.48802 0.24145 0.61822
 C12 C 0.51624 0.73457 0.86431
 C13 C -0.26120 0.62915 0.98813
 C14 C -0.25662 0.37464 0.50067
 C15 C 0.26441 -0.11219 0.01011
 C16 C 0.24851 1.13337 0.49788
 C17 C 0.12155 0.50444 0.25427
 C18 C -0.12563 0.99375 0.24455
 C19 C 0.37238 0.51108 -0.24001
 C20 C 0.61272 -0.00710 -0.26008
 C21 C -0.01184 0.24640 0.87972
 C22 C 0.51014 0.23869 0.12115
 C23 C 0.01237 0.75499 0.62794
 C24 C 0.50008 0.74054 0.36589
 B25 B -0.01043 0.01007 1.02442
 B26 B -0.02879 -0.00179 0.99102
 B27 B -0.00022 0.02386 0.98781
 B28 B 0.02699 0.01509 1.01520
 B29 B 0.01475 -0.01699 1.03518
 B30 B -0.02004 -0.02726 1.02019
 B31 B 0.02181 -0.03164 0.97040
 B32 B 0.04011 -0.01975 1.00400
 B33 B 0.01174 -0.04529 1.00694
 B34 B -0.01557 -0.03660 0.97970
 B35 B -0.00355 -0.00447 0.95965
 B36 B 0.03166 0.00557 0.97470
 B37 B 0.47640 0.51602 0.53201
 B38 B 0.45915 0.51182 0.49585
 B39 B 0.49089 0.53317 0.49889
 B40 B 0.51467 0.51672 0.52592
 B41 B 0.49683 0.48416 0.53941
 B42 B 0.46201 0.48152 0.52085
 B43 B 0.50668 0.47825 0.47359
 B44 B 0.52376 0.48237 0.50970
 B45 B 0.49212 0.46106 0.50658
 B46 B 0.46837 0.47739 0.47956
 B47 B 0.48617 0.50990 0.46611
 B48 B 0.52093 0.51274 0.48471
 B49 B 0.50147 0.97737 0.51556
 B50 B 0.52022 0.98354 0.48025
 B51 B 0.49147 0.95830 0.48185
 B52 B 0.46414 0.97158 0.50793
 B53 B 0.47661 1.00634 0.52243
 B54 B 0.51189 1.01332 0.50534
 B55 B 0.47014 1.01047 0.45630
 B56 B 0.45161 1.00429 0.49160
 B57 B 0.48031 1.02972 0.48998
 B58 B 0.50762 1.01641 0.46384
 B59 B 0.49510 0.98171 0.44939
 B60 B 0.45999 0.97445 0.46655
 B61 B -0.00496 0.47726 1.04115
 B62 B 0.01041 0.48055 1.00369
 B63 B -0.01957 0.45747 1.00995
 B64 B -0.04332 0.47367 1.03809
 B65 B -0.02718 0.50793 1.04902
 B66 B 0.00657 0.51193 1.02776
 B67 B -0.03982 0.50990 0.98380
 B68 B -0.05532 0.50661 1.02130
 B69 B -0.02520 0.52964 1.01510
 B70 B -0.00151 0.51331 0.98695
 B71 B -0.01766 0.47902 0.97602
 B72 B -0.05146 0.47521 0.99721
 B73 B 0.00595 0.51784 0.47501
 B74 B 0.02727 0.51064 0.50781
 B75 B -0.00232 0.53535 0.51073
 B76 B -0.03091 0.52249 0.48700
 B77 B -0.01874 0.48879 0.46953
 B78 B 0.01775 0.48169 0.48234
 B79 B -0.02030 0.48151 0.53586
 B80 B -0.04161 0.48869 0.50299
 B81 B -0.01211 0.46393 0.50004
 B82 B 0.01654 0.47680 0.52380
 B83 B 0.00446 0.51058 0.54125
 B84 B -0.03214 0.51760 0.52840
 B85 B 0.54263 0.00127 -0.01890
 B86 B 0.56141 -0.00721 0.01533
 B87 B 0.53053 0.01593 0.01712
 B88 B 0.50474 0.00346 -0.01043
 B89 B 0.52021 -0.02844 -0.02913
 B90 B 0.55564 -0.03478 -0.01311
 B91 B 0.51321 -0.04031 0.03597
 B92 B 0.49466 -0.03169 0.00171
 B93 B 0.52518 -0.05487 0.00008
 B94 B 0.55110 -0.04267 0.02756
 B95 B 0.53586 -0.01076 0.04625
 B96 B 0.50032 -0.00427 0.03028
 B97 B 0.48451 0.47406 -0.02433
 B98 B 0.46626 0.48295 0.01083
 B99 B 0.49520 0.45773 0.01040
 B100 B 0.52207 0.46900 -0.01692
 B101 B 0.50909 0.50249 -0.03350
 B102 B 0.47393 0.51061 -0.01636
 B103 B 0.51628 0.51190 0.03210
 B104 B 0.53452 0.50305 -0.00298
 B105 B 0.50554 0.52843 -0.00269
 B106 B 0.47869 0.51702 0.02469
 B107 B 0.49174 0.48352 0.04120
 B108 B 0.52671 0.47524 0.02413
 B109 B -0.00670 0.97554 0.46150
 B110 B -0.02359 0.97766 0.49834
 B111 B 0.00839 0.95678 0.49285
 B112 B 0.03170 0.97467 0.46612
 B113 B 0.01337 1.00758 0.45508
 B114 B -0.02121 1.00945 0.47514
 B115 B 0.02356 1.01049 0.52101
 B116 B 0.04058 1.00826 0.48400
 B117 B 0.00874 1.02928 0.48934
 B118 B -0.01471 1.01131 0.51627
 B119 B 0.00348 0.97809 0.52707
 B120 B 0.03827 0.97676 0.50730
 B121 B 0.78217 0.23820 0.21419
 B122 B 0.77814 0.21884 0.24905
 B123 B 0.79791 0.25163 0.24856
 B124 B 0.78095 0.27614 0.22261
 B125 B 0.74961 0.25758 0.20727
 B126 B 0.74822 0.22167 0.22358
 B127 B 0.74174 0.26320 0.27346
 B128 B 0.74579 0.28274 0.23859
 B129 B 0.72606 0.24982 0.23915
 B130 B 0.74309 0.22531 0.26498
 B131 B 0.77427 0.24386 0.28032
 B132 B 0.77564 0.27989 0.26407
 B133 B 0.74523 0.77263 0.71865
 B134 B 0.74418 0.78839 0.75619
 B135 B 0.72590 0.75536 0.74884
 B136 B 0.74686 0.73411 0.72199
 B137 B 0.77919 0.75474 0.71306
 B138 B 0.77709 0.78891 0.73412
 B139 B 0.77889 0.74261 0.77841
 B140 B 0.77998 0.72678 0.74102
 B141 B 0.79826 0.75976 0.74829
 B142 B 0.77732 0.78110 0.77510
 B143 B 0.74505 0.76033 0.78406
 B144 B 0.74716 0.72639 0.76304
 B145 B 0.26044 0.28124 0.77437
 B146 B 0.25452 0.29859 0.73864
 B147 B 0.27826 0.26843 0.74053
 B148 B 0.26414 0.24321 0.76773
 B149 B 0.23050 0.25824 0.78264
 B150 B 0.22488 0.29320 0.76467
 B151 B 0.22457 0.24907 0.71685
 B152 B 0.23038 0.23164 0.75258
 B153 B 0.20660 0.26193 0.75079
 B154 B 0.22084 0.28717 0.72348
 B155 B 0.25453 0.27192 0.70862
 B156 B 0.26006 0.23718 0.72660
 B157 B 0.22789 0.74129 0.29191
 B158 B 0.23445 0.72025 0.25803
 B159 B 0.21033 0.75034 0.25706
 B160 B 0.22393 0.77847 0.28149
 B161 B 0.25744 0.76525 0.29735
 B162 B 0.26374 0.72882 0.28293
 B163 B 0.26434 0.76752 0.23099
 B164 B 0.25769 0.78856 0.26481
 B165 B 0.28176 0.75865 0.26575
 B166 B 0.26834 0.73048 0.24140
 B167 B 0.23482 0.74353 0.22541
 B168 B 0.22848 0.78009 0.23986
 B169 B 0.27655 0.74677 0.72432
 B170 B 0.27180 0.73364 0.76241
 B171 B 0.29588 0.76288 0.75525
 B172 B 0.28090 0.78524 0.72579
 B173 B 0.24656 0.76922 0.71526
 B174 B 0.24133 0.73694 0.73789
 B175 B 0.24312 0.78599 0.77972
 B176 B 0.24785 0.79904 0.74158
 B177 B 0.22393 0.76995 0.74895
 B178 B 0.23871 0.74758 0.77814
 B179 B 0.27295 0.76345 0.78887
 B180 B 0.27842 0.79591 0.76619
 B181 B 0.24173 0.27698 0.22162
 B182 B 0.24431 0.29316 0.25882
 B183 B 0.22388 0.26102 0.25364
 B184 B 0.24182 0.23849 0.22535
 B185 B 0.27427 0.25750 0.21350
 B186 B 0.27546 0.29183 0.23409
 B187 B 0.27836 0.24578 0.27870
 B188 B 0.27597 0.22973 0.24153
 B189 B 0.29623 0.26186 0.24681
 B190 B 0.27837 0.28432 0.27496
 B191 B 0.24604 0.26523 0.28699
 B192 B 0.24459 0.23102 0.26617
 B193 B 0.76399 0.76061 0.28342
 B194 B 0.76241 0.77919 0.24784
 B195 B 0.78705 0.74997 0.25216
 B196 B 0.77051 0.72302 0.27570
 B197 B 0.73465 0.73596 0.28584
 B198 B 0.72970 0.77116 0.26846
 B199 B 0.73837 0.72933 0.21921
 B200 B 0.74001 0.71062 0.25474
 B201 B 0.71534 0.73978 0.25052
 B202 B 0.73187 0.76684 0.22699
 B203 B 0.76782 0.75386 0.21686
 B204 B 0.77259 0.71861 0.23410
 B205 B 0.71844 0.22463 0.77501
 B206 B 0.72398 0.20917 0.73772
 B207 B 0.70199 0.24057 0.74243
 B208 B 0.71713 0.26323 0.77180
 B209 B 0.74932 0.24510 0.78503
 B210 B 0.75353 0.21134 0.76384
 B211 B 0.75742 0.25799 0.72017
 B212 B 0.75190 0.27345 0.75748
 B213 B 0.77377 0.24209 0.75271
 B214 B 0.75869 0.21951 0.72342
 B215 B 0.72643 0.23745 0.71008
 B216 B 0.72235 0.27138 0.73131
 C217 C 0.38727 1.00511 0.25527
 C218 C 0.37760 1.01655 0.28577
 C219 C 0.39884 1.01992 0.31359
 C220 C 0.38702 1.02049 0.34568
 C221 C 0.40672 1.02184 0.37242
 C222 C 0.43870 1.02297 0.36744
 C223 C 0.45039 1.02368 0.33537
 C224 C 0.43073 1.02253 0.30871
 C225 C 0.46044 1.01986 0.39468
 C226 C 0.45271 1.02617 0.42725
 H227 H 0.35370 1.02269 0.28938
 H228 H 0.36255 1.01884 0.35009
 H229 H 0.39686 1.02058 0.39679
 H230 H 0.47490 1.02462 0.33090
 H231 H 0.44072 1.02356 0.28439
 H232 H 0.48266 1.00982 0.38901
 H233 H 0.41015 0.99550 0.25302
 H234 H 0.43185 1.03861 0.43314
 C235 C -0.13085 0.49588 0.79021
 C236 C -0.13305 0.51966 0.81340
 C237 C -0.11161 0.52151 0.84108
 C238 C -0.12119 0.53432 0.87115
 C239 C -0.10132 0.53493 0.89784
 C240 C -0.07130 0.52311 0.89459
 C241 C -0.06142 0.51185 0.86394
 C242 C -0.08125 0.51107 0.83750
 C243 C -0.05022 0.51957 0.92246
 C244 C -0.05785 0.52573 0.95515
 H245 H -0.15065 0.53707 0.81152
 H246 H -0.14433 0.54305 0.87425
 H247 H -0.10990 0.54413 0.92083
 H248 H -0.03839 0.50288 0.86056
 H249 H -0.07271 0.50224 0.81425
 H250 H -0.02857 0.50817 0.91723
 H251 H -0.11569 0.47682 0.79539
 H252 H -0.07819 0.53868 0.96154
 C253 C 0.10839 -0.00056 0.78353
 C254 C 0.11627 -0.02387 0.80528
 C255 C 0.09473 -0.03382 0.83127
 C256 C 0.10592 -0.04274 0.86177
 C257 C 0.08563 -0.04940 0.88755
 C258 C 0.05369 -0.04777 0.88295
 C259 C 0.04274 -0.04096 0.85170
 C260 C 0.06297 -0.03406 0.82614
 C261 C 0.03114 -0.04869 0.91037
 C262 C 0.03904 -0.05141 0.94319
 H263 H 0.13900 -0.03388 0.80456
 H264 H 0.13037 -0.04317 0.86608
 H265 H 0.09521 -0.05449 0.91114
 H266 H 0.01833 -0.03971 0.84733
 H267 H 0.05368 -0.02840 0.80250
 H268 H 0.00806 -0.04121 0.90494
 H269 H 0.08687 0.01142 0.78791
 H270 H 0.06042 -0.06206 0.94975
 C271 C 0.60148 0.48875 0.27868
 C272 C 0.60799 0.47533 0.30879
 C273 C 0.58446 0.47006 0.33455
 C274 C 0.55293 0.46923 0.32774
 C275 C 0.53137 0.46677 0.35313
 C276 C 0.54077 0.46446 0.38569
 C277 C 0.57233 0.46360 0.39234
 C278 C 0.59390 0.46624 0.36695
 C279 C 0.51741 0.46727 0.41208
 C280 C 0.52313 0.46019 0.44463
 H281 H 0.63160 0.46993 0.31437
 H282 H 0.54467 0.47081 0.30298
 H283 H 0.50720 0.46744 0.34739
 H284 H 0.58056 0.46250 0.41716
 H285 H 0.61804 0.46649 0.37282
 H286 H 0.49621 0.47888 0.40621
 H287 H 0.57860 0.49743 0.27451
 H288 H 0.54245 0.44580 0.45053
 C289 C 0.60970 0.49735 0.22023
 C290 C 0.60631 0.52380 0.20131
 C291 C 0.58486 0.52518 0.17369
 C292 C 0.59141 0.54424 0.14702
 C293 C 0.57131 0.54581 0.12065
 C294 C 0.54403 0.52869 0.12092
 C295 C 0.53692 0.51077 0.14830
 C296 C 0.55714 0.50889 0.17435
 C297 C 0.52311 0.52751 0.09282
 C298 C 0.53336 0.52958 0.06042
 H299 H 0.61930 0.54426 0.20664
 H300 H 0.61234 0.55754 0.14639
 H301 H 0.57711 0.56044 0.10027
 H302 H 0.51592 0.49757 0.14920
 H303 H 0.55083 0.49495 0.19515
 H304 H 0.50021 0.51888 0.09747
 H305 H 0.59783 0.47684 0.21234
 H306 H 0.55628 0.53763 0.05510
 C307 C 0.10620 1.01118 0.72513
 C308 C 0.11590 1.01621 0.69285
 C309 C 0.09416 1.01784 0.66520
 C310 C 0.10328 1.03182 0.63580
 C311 C 0.08345 1.03281 0.60904
 C312 C 0.05401 1.01979 0.61131
 C313 C 0.04495 1.00606 0.64078
 C314 C 0.06475 1.00480 0.66722
 C315 C 0.03302 1.01685 0.58320
 C316 C 0.03916 1.02688 0.55139
 H317 H 0.14007 1.01959 0.68782
 H318 H 0.12591 1.04176 0.63343
 H319 H 0.09163 1.04313 0.58664
 H320 H 0.02268 0.99530 0.64309
 H321 H 0.05704 0.99264 0.68871
 H322 H 0.01289 1.00280 0.58715
 H323 H 0.08181 1.01100 0.73029
 H324 H 0.05715 1.04324 0.54675
 C325 C -0.12119 0.49006 0.73129
 C326 C -0.12702 0.48476 0.69817
 C327 C -0.10213 0.48113 0.67333
 C328 C -0.10823 0.46630 0.64345
 C329 C -0.08549 0.46378 0.61901
 C330 C -0.05612 0.47612 0.62412
 C331 C -0.05002 0.49056 0.65413
 C332 C -0.07269 0.49327 0.67834
 C333 C -0.03255 0.47831 0.59784
 C334 C -0.03491 0.46504 0.56672
 H335 H -0.15058 0.48239 0.69049
 H336 H -0.13079 0.45705 0.63881
 H337 H -0.09147 0.45319 0.59593
 H338 H -0.02784 0.50085 0.65849
 H339 H -0.06717 0.50595 0.70033
 H340 H -0.01431 0.49463 0.60204
 H341 H -0.09766 0.49051 0.73934
 H342 H -0.05084 0.44659 0.56265
 C343 C 0.38768 -0.00197 0.19599
 C344 C 0.38943 -0.02858 0.17654
 C345 C 0.41695 -0.03570 0.15635
 C346 C 0.44616 -0.02644 0.16651
 C347 C 0.47200 -0.03291 0.14724
 C348 C 0.46939 -0.04877 0.11736
 C349 C 0.44026 -0.05931 0.10785
 C350 C 0.41433 -0.05300 0.12739
 C351 C 0.49691 -0.05032 0.09573
 C352 C 0.49641 -0.05995 0.06309
 H353 H 0.37091 -0.04504 0.17667
 H354 H 0.44916 -0.01419 0.18943
 H355 H 0.49407 -0.02464 0.15531
 H356 H 0.43705 -0.07170 0.08514
 H357 H 0.39209 -0.06090 0.11944
 H358 H 0.51666 -0.03741 0.10377
 H359 H 0.40484 0.01562 0.19211
 H360 H 0.47891 -0.07555 0.05479
 C361 C 0.26721 0.41640 0.00218
 C362 C 0.29658 0.40448 0.00669
 C363 C 0.32454 0.42353 0.00552
 C364 C 0.35094 0.41300 0.02107
 C365 C 0.37817 0.42968 0.01930
 C366 C 0.37955 0.45731 0.00177
 C367 C 0.35330 0.46755 -0.01429
 C368 C 0.32601 0.45091 -0.01242
 C369 C 0.40846 0.47457 -0.00222
 C370 C 0.43289 0.47150 0.01909
 H371 H 0.29918 0.38010 0.01085
 H372 H 0.35055 0.39165 0.03442
 H373 H 0.39823 0.42027 0.03086
 H374 H 0.35400 0.48833 -0.02861
 H375 H 0.30652 0.45912 -0.02591
 H376 H 0.41098 0.48927 -0.02331
 H377 H 0.26457 0.44092 -0.00073
 H378 H 0.42991 0.45910 0.04170
 C379 C -0.22505 0.91748 0.50349
 C380 C -0.19605 0.90589 0.51073
 C381 C -0.16790 0.92481 0.51002
 C382 C -0.14225 0.91489 0.52739
 C383 C -0.11480 0.93131 0.52604
 C384 C -0.11235 0.95783 0.50682
 C385 C -0.13810 0.96801 0.48984
 C386 C -0.16553 0.95159 0.49116
 C387 C -0.08331 0.97498 0.50341
 C388 C -0.05478 0.96082 0.50592
 H389 H -0.19384 0.88196 0.51722
 H390 H -0.14345 0.89435 0.54207
 H391 H -0.09568 0.92322 0.54020
 H392 H -0.13673 0.98827 0.47474
 H393 H -0.18437 0.95952 0.47651
 H394 H -0.08439 0.99868 0.49570
 H395 H -0.22727 0.94165 0.49818
 H396 H -0.05346 0.93675 0.51182
 C397 C -0.20974 0.10534 0.97969
 C398 C -0.19361 0.08689 1.00129
 C399 C -0.16420 0.07165 0.99229
 C400 C -0.15323 0.04812 1.01218
 C401 C -0.12470 0.03453 1.00575
 C402 C -0.10651 0.04415 0.97902
 C403 C -0.11743 0.06775 0.95923
 C404 C -0.14586 0.08145 0.96577
 C405 C -0.07510 0.03221 0.97286
 C406 C -0.06395 0.00564 0.98715
 H407 H -0.20260 0.08370 1.02578
 H408 H -0.16655 0.04058 1.03315
 H409 H -0.11674 0.01733 1.02253
 H410 H -0.10360 0.07611 0.93900
 H411 H -0.15266 0.10037 0.95057
 H412 H -0.05999 0.04558 0.95750
 H413 H -0.20244 0.10537 0.95427
 H414 H -0.07959 -0.00971 0.99950
 C415 C 0.26799 0.60124 0.50752
 C416 C 0.29865 0.60893 0.50179
 C417 C 0.32425 0.58665 0.50258
 C418 C 0.35210 0.59451 0.48743
 C419 C 0.37733 0.57483 0.48867
 C420 C 0.37521 0.54672 0.50520
 C421 C 0.34748 0.53899 0.52070
 C422 C 0.32218 0.55868 0.51940
 C423 C 0.40207 0.52632 0.50881
 C424 C 0.42754 0.52748 0.48795
 H425 H 0.30410 0.63257 0.49621
 H426 H 0.35445 0.61616 0.47483
 H427 H 0.39863 0.58228 0.47754
 H428 H 0.34549 0.51779 0.53419
 H429 H 0.30148 0.55224 0.53240
 H430 H 0.40227 0.51079 0.52935
 H431 H 0.26199 0.57751 0.51158
 H432 H 0.42632 0.54037 0.46557
 C433 C 0.21250 0.61086 0.51824
 C434 C 0.19980 0.58675 0.50021
 C435 C 0.16774 0.57663 0.50451
 C436 C 0.15979 0.54652 0.49570
 C437 C 0.12923 0.53699 0.49718
 C438 C 0.10605 0.55767 0.50712
 C439 C 0.11401 0.58779 0.51579
 C440 C 0.14455 0.59720 0.51468
 C441 C 0.07329 0.54949 0.50633
 C442 C 0.06233 0.51970 0.51012
 H443 H 0.21366 0.57547 0.48144
 H444 H 0.17724 0.53047 0.48723
 H445 H 0.12376 0.51387 0.48938
 H446 H 0.09645 0.60424 0.52302
 H447 H 0.14969 0.62088 0.52054
 H448 H 0.05749 0.56809 0.50271
 H449 H 0.19921 0.62128 0.53802
 H450 H 0.07829 0.50131 0.51505
 C451 C 0.73730 0.10862 0.00507
 C452 C 0.72626 0.08106 -0.00790
 C453 C 0.69585 0.06859 0.00135
 C454 C 0.69027 0.03700 -0.00199
 C455 C 0.66095 0.02511 0.00403
 C456 C 0.63663 0.04482 0.01310
 C457 C 0.64232 0.07630 0.01667
 C458 C 0.67155 0.08809 0.01095
 C459 C 0.60453 0.03433 0.01512
 C460 C 0.59548 0.00416 0.02097
 H461 H 0.73980 0.06879 -0.02620
 H462 H 0.70851 0.02159 -0.00987
 H463 H 0.65715 0.00084 0.00010
 H464 H 0.62383 0.09200 0.02304
 H465 H 0.67455 0.11268 0.01264
 H466 H 0.58736 0.05134 0.00974
 H467 H 0.72404 0.12011 0.02417
 H468 H 0.61238 -0.01289 0.02736
 C469 C 0.71838 0.91669 0.50063
 C470 C 0.68937 0.90443 0.49495
 C471 C 0.66098 0.92304 0.49560
 C472 C 0.63575 0.91266 0.47777
 C473 C 0.60853 0.92956 0.47757
 C474 C 0.60599 0.95731 0.49534
 C475 C 0.63095 0.96728 0.51389
 C476 C 0.65823 0.95040 0.51401
 C477 C 0.57706 0.97502 0.49697
 C478 C 0.55397 0.97177 0.47394
 H479 H 0.68776 0.88051 0.48766
 H480 H 0.63712 0.89138 0.46387
 H481 H 0.58941 0.92034 0.46412
 H482 H 0.62926 0.98814 0.52847
 H483 H 0.67677 0.95855 0.52906
 H484 H 0.57327 0.99011 0.51788
 H485 H 0.72042 0.94093 0.50619
 H486 H 0.55833 0.95911 0.45148
 C487 C 0.21053 0.41536 0.99868
 C488 C 0.18129 0.40242 0.99937
 C489 C 0.15291 0.42094 1.00187
 C490 C 0.12537 0.40807 0.99115
 C491 C 0.09796 0.42459 0.99380
 C492 C 0.09762 0.45441 1.00738
 C493 C 0.12506 0.46700 1.01876
 C494 C 0.15248 0.45051 1.01602
 C495 C 0.06891 0.47209 1.01196
 C496 C 0.04247 0.46609 0.99429
 H497 H 0.17916 0.37770 0.99748
 H498 H 0.12503 0.38509 0.98078
 H499 H 0.07711 0.41354 0.98598
 H500 H 0.12525 0.48962 1.03000
 H501 H 0.17303 0.46074 1.02576
 H502 H 0.06843 0.49004 1.03051
 H503 H 0.21257 0.44007 0.99746
 H504 H 0.04297 0.44981 0.97414
 C505 C 0.00030 0.27547 0.40410
 C506 C -0.01611 0.30196 0.39598
 C507 C -0.02112 0.32899 0.41775
 C508 C -0.04470 0.34947 0.40992
 C509 C -0.04830 0.37717 0.42696
 C510 C -0.02829 0.38531 0.45218
 C511 C -0.00521 0.36438 0.46096
 C512 C -0.00169 0.33641 0.44390
 C513 C -0.03056 0.41695 0.46578
 C514 C -0.01506 0.42810 0.49322
 H515 H -0.02579 0.30321 0.37177
 H516 H -0.05996 0.34439 0.38987
 H517 H -0.06624 0.39281 0.41960
 H518 H 0.01102 0.36999 0.47984
 H519 H 0.01714 0.32150 0.45022
 H520 H -0.04446 0.43295 0.45224
 H521 H 0.01010 0.27369 0.42822
 H522 H -0.00218 0.41275 0.50848
 C523 C 0.52393 -0.23460 -0.12027
 C524 C 0.50883 -0.22288 -0.09239
 C525 C 0.51638 -0.19278 -0.07714
 C526 C 0.49483 -0.17852 -0.05611
 C527 C 0.50090 -0.14983 -0.04188
 C528 C 0.52890 -0.13494 -0.04821
 C529 C 0.55063 -0.14946 -0.06872
 C530 C 0.54465 -0.17814 -0.08278
 C531 C 0.53556 -0.10364 -0.03580
 C532 C 0.52093 -0.09005 -0.00870
 H533 H 0.49008 -0.23597 -0.08196
 H534 H 0.47294 -0.18933 -0.05120
 H535 H 0.48327 -0.13909 -0.02680
 H536 H 0.57240 -0.13852 -0.07394
 H537 H 0.56241 -0.18869 -0.09778
 H538 H 0.55274 -0.09057 -0.04899
 H539 H 0.54079 -0.22048 -0.13258
 H540 H 0.50489 -0.10305 0.00597
 C541 C 0.00680 -0.22914 1.10636
 C542 C 0.02174 -0.20206 1.11539
 C543 C 0.02601 -0.17518 1.09397
 C544 C 0.04672 -0.15245 1.10380
 C545 C 0.04879 -0.12482 1.08700
 C546 C 0.03017 -0.11920 1.05998
 C547 C 0.01016 -0.14237 1.04926
 C548 C 0.00808 -0.17013 1.06612
 C549 C 0.03001 -0.08791 1.04632
 C550 C 0.01719 -0.07995 1.01642
 H551 H 0.02969 -0.19975 1.14024
 H552 H 0.06070 -0.15568 1.12522
 H553 H 0.06431 -0.10733 1.09585
 H554 H -0.00510 -0.13867 1.02903
 H555 H -0.00870 -0.18671 1.05819
 H556 H 0.03928 -0.06990 1.06168
 H557 H -0.00081 -0.23208 1.08143
 H558 H 0.00897 -0.09743 0.99980
 C559 C 0.47761 0.26843 0.59772
 C560 C 0.49757 0.28469 0.57721
 C561 C 0.49058 0.31561 0.56416
 C562 C 0.51061 0.32847 0.54090
 C563 C 0.50669 0.35876 0.53054
 C564 C 0.48251 0.37688 0.54332
 C565 C 0.46223 0.36384 0.56614
 C566 C 0.46617 0.33367 0.57653
 C567 C 0.47871 0.40986 0.53562
 C568 C 0.49403 0.42501 0.51031
 H569 H 0.52032 0.27537 0.57274
 H570 H 0.52986 0.31528 0.53131
 H571 H 0.52329 0.36799 0.51347
 H572 H 0.44360 0.37733 0.57667
 H573 H 0.45065 0.32529 0.59518
 H574 H 0.46337 0.42311 0.55136
 H575 H 0.45388 0.27555 0.59971
 H576 H 0.50862 0.41253 0.49323
 C577 C 0.49542 1.21416 0.59592
 C578 C 0.47404 1.20137 0.57446
 C579 C 0.47988 1.17277 0.55522
 C580 C 0.50971 1.16254 0.54734
 C581 C 0.51437 1.13444 0.53120
 C582 C 0.48947 1.11603 0.52213
 C583 C 0.45958 1.12684 0.52874
 C584 C 0.45490 1.15499 0.54496
 C585 C 0.49592 1.08484 0.50872
 C586 C 0.47408 1.06538 0.49485
 H587 H 0.45134 1.21146 0.57374
 H588 H 0.52958 1.17601 0.55365
 H589 H 0.53765 1.12681 0.52629
 H590 H 0.43975 1.11329 0.52257
 H591 H 0.43167 1.16242 0.55047
 H592 H 0.51900 1.07615 0.51165
 H593 H 0.51745 1.20305 0.59840
 H594 H 0.45148 1.07389 0.48928
 C595 C -0.01688 0.71963 1.11448
 C596 C -0.00179 0.70252 1.08995
 C597 C -0.01312 0.67268 1.07728
 C598 C -0.00058 0.66066 1.04801
 C599 C -0.00845 0.63123 1.03698
 C600 C -0.02904 0.61317 1.05521
 C601 C -0.04210 0.62549 1.08402
 C602 C -0.03425 0.65481 1.09503
 C603 C -0.03486 0.58047 1.04744
 C604 C -0.02704 0.56585 1.01789
 H605 H 0.01985 0.71095 1.08039
 H606 H 0.01601 0.67379 1.03407
 H607 H 0.00269 0.62238 1.01506
 H608 H -0.05770 0.61193 1.09876
 H609 H -0.04381 0.66258 1.11820
 H610 H -0.04410 0.56676 1.06717
 H611 H -0.03946 0.71251 1.12254
 H612 H -0.01918 0.57893 0.99710
 C613 C 0.51890 0.70908 -0.11043
 C614 C 0.51242 0.67864 -0.11882
 C615 C 0.50748 0.65413 -0.09457
 C616 C 0.48485 0.63226 -0.10101
 C617 C 0.47895 0.60876 -0.07898
 C618 C 0.49615 0.60593 -0.05039
 C619 C 0.51925 0.62754 -0.04393
 C620 C 0.52468 0.65173 -0.06577
 C621 C 0.48900 0.57988 -0.02867
 C622 C 0.51084 0.56365 -0.01096
 H623 H 0.50651 0.67361 -0.14400
 H624 H 0.47136 0.63361 -0.12304
 H625 H 0.46112 0.59234 -0.08461
 H626 H 0.53278 0.62601 -0.02199
 H627 H 0.54256 0.66814 -0.06045
 H628 H 0.46644 0.56997 -0.03137
 H629 H 0.52321 0.71487 -0.08506
 H630 H 0.53352 0.57305 -0.00780
 C631 C 0.01920 1.22198 0.39564
 C632 C 0.00129 1.20617 0.41870
 C633 C 0.00875 1.17503 0.43107
 C634 C -0.00779 1.16354 0.45806
 C635 C -0.00361 1.13324 0.46844
 C636 C 0.01722 1.11371 0.45184
 C637 C 0.03424 1.12543 0.42541
 C638 C 0.03009 1.15560 0.41507
 C639 C 0.02004 1.08047 0.45887
 C640 C 0.00880 1.06570 0.48686
 H641 H -0.01994 1.21669 0.42716
 H642 H -0.02460 1.17785 0.47068
 H643 H -0.01757 1.12499 0.48853
 H644 H 0.05027 1.11084 0.41199
 H645 H 0.04281 1.16294 0.39371
 H646 H 0.03094 1.06661 0.43991
 H647 H 0.04154 1.21292 0.38902
 H648 H -0.00137 1.07875 0.50687
 C649 C 0.74799 0.65331 0.96313
 C650 C 0.77670 0.65524 0.94748
 C651 C 0.78308 0.67796 0.92172
 C652 C 0.76901 0.70700 0.92208
 C653 C 0.77340 0.72696 0.89596
 C654 C 0.79174 0.71827 0.86896
 C655 C 0.80746 0.69007 0.86960
 C656 C 0.80323 0.67016 0.89590
 C657 C 0.79182 0.73810 0.83984
 C658 C 0.79460 0.72624 0.80808
 H659 H 0.79425 0.63829 0.95205
 H660 H 0.75433 0.71422 0.94230
 H661 H 0.76139 0.74877 0.89625
 H662 H 0.82259 0.68307 0.84970
 H663 H 0.81484 0.64814 0.89549
 H664 H 0.78342 0.76138 0.84309
 H665 H 0.73035 0.66951 0.95634
 H666 H 0.80185 0.70275 0.80409
 C667 C 0.25301 0.14456 0.46313
 C668 C 0.27634 0.16490 0.45428
 C669 C 0.28217 0.17344 0.41985
 C670 C 0.29352 0.20270 0.41262
 C671 C 0.29690 0.21204 0.38008
 C672 C 0.28943 0.19191 0.35421
 C673 C 0.27994 0.16201 0.36162
 C674 C 0.27639 0.15282 0.39404
 C675 C 0.28728 0.20191 0.31978
 C676 C 0.29556 0.23088 0.30845
 H677 H 0.29000 0.17546 0.47325
 H678 H 0.29854 0.21881 0.43218
 H679 H 0.30407 0.23534 0.37559
 H680 H 0.27423 0.14596 0.34222
 H681 H 0.26881 0.12964 0.39878
 H682 H 0.27451 0.18702 0.30365
 H683 H 0.23787 0.13600 0.44434
 H684 H 0.30978 0.24584 0.32298
 C685 C 0.73692 0.34896 0.47633
 C686 C 0.73153 0.35537 0.44338
 C687 C 0.72735 0.33203 0.41722
 C688 C 0.71819 0.34199 0.38625
 C689 C 0.71707 0.32156 0.35973
 C690 C 0.72509 0.29054 0.36368
 C691 C 0.73300 0.28032 0.39495
 C692 C 0.73417 0.30077 0.42147
 C693 C 0.72981 0.26937 0.33548
 C694 C 0.72221 0.27637 0.30330
 H695 H 0.73080 0.37926 0.43627
 H696 H 0.71287 0.36595 0.38225
 H697 H 0.71139 0.33065 0.33605
 H698 H 0.73960 0.25663 0.39860
 H699 H 0.74169 0.29205 0.44468
 H700 H 0.74366 0.24916 0.33974
 H701 H 0.73702 0.32554 0.48477
 H702 H 0.70570 0.29418 0.29838
 C703 C 0.26252 0.86658 0.98048
 C704 C 0.25587 0.87701 0.94907
 C705 C 0.24887 0.85603 0.92139
 C706 C 0.23171 0.86709 0.89511
 C707 C 0.22420 0.84777 0.86884
 C708 C 0.23386 0.81696 0.86842
 C709 C 0.25081 0.80591 0.89475
 C710 C 0.25857 0.82522 0.92075
 C711 C 0.22877 0.79601 0.84036
 C712 C 0.22801 0.80610 0.80807
 H713 H 0.25281 0.90144 0.94557
 H714 H 0.22389 0.89071 0.89503
 H715 H 0.21079 0.85697 0.84912
 H716 H 0.25894 0.78239 0.89476
 H717 H 0.27268 0.81588 0.93978
 H718 H 0.23266 0.77179 0.84454
 H719 H 0.26487 0.84221 0.98457
 H720 H 0.22415 0.83007 0.80321
 C721 C 0.26306 0.86804 0.04061
 C722 C 0.28458 0.86772 0.06575
 C723 C 0.28349 0.84435 0.09178
 C724 C 0.29447 0.85146 0.12308
 C725 C 0.29180 0.83022 0.14846
 C726 C 0.27837 0.80134 0.14272
 C727 C 0.26887 0.79380 0.11102
 C728 C 0.27161 0.81491 0.08576
 C729 C 0.27048 0.77998 0.16941
 C730 C 0.28229 0.78172 0.20092
 H731 H 0.30197 0.88532 0.06715
 H732 H 0.30409 0.87386 0.12819
 H733 H 0.29906 0.83707 0.17264
 H734 H 0.25862 0.77168 0.10591
 H735 H 0.26418 0.80811 0.06159
 H736 H 0.25241 0.76363 0.16452
 H737 H 0.24408 0.85215 0.04219
 H738 H 0.30190 0.79602 0.20600
 C739 C 0.74515 0.36224 0.53518
 C740 C 0.76778 0.34155 0.54491
 C741 C 0.77084 0.33228 0.57944
 C742 C 0.78118 0.30265 0.58686
 C743 C 0.78150 0.29267 0.61936
 C744 C 0.77191 0.31248 0.64494
 C745 C 0.76356 0.34271 0.63752
 C746 C 0.76314 0.35258 0.60519
 C747 C 0.76587 0.30175 0.67859
 C748 C 0.77588 0.27390 0.69136
 H749 H 0.78292 0.33132 0.52659
 H750 H 0.78764 0.28677 0.56738
 H751 H 0.78771 0.26910 0.62404
 H752 H 0.75626 0.35848 0.65679
 H753 H 0.75631 0.37599 0.60042
 H754 H 0.74945 0.31519 0.69261
 H755 H 0.72869 0.37052 0.55332
 H756 H 0.79321 0.26046 0.67858
 C757 C 0.23923 0.15972 0.52048
 C758 C 0.22877 0.15433 0.55240
 C759 C 0.22065 0.17869 0.57638
 C760 C 0.20183 0.17110 0.60318
 C761 C 0.19625 0.19234 0.62837
 C762 C 0.20992 0.22149 0.62747
 C763 C 0.22733 0.22968 0.59979
 C764 C 0.23281 0.20846 0.57451
 C765 C 0.20930 0.24261 0.65602
 C766 C 0.20799 0.23179 0.68805
 H767 H 0.22597 0.13077 0.56010
 H768 H 0.19193 0.14840 0.60498
 H769 H 0.18184 0.18554 0.64876
 H770 H 0.23811 0.25200 0.59854
 H771 H 0.24780 0.21504 0.55452
 H772 H 0.21645 0.26609 0.65204
 H773 H 0.24129 0.18301 0.51179
 H774 H 0.20199 0.20819 0.69242
 C775 C 0.73278 0.64311 0.02201
 C776 C 0.73132 0.67464 0.02898
 C777 C 0.72687 0.68786 0.06232
 C778 C 0.73330 0.71910 0.06718
 C779 C 0.73077 0.73248 0.09828
 C780 C 0.72188 0.71492 0.12534
 C781 C 0.71408 0.68395 0.12040
 C782 C 0.71650 0.67055 0.08919
 C783 C 0.72216 0.72950 0.15819
 C784 C 0.72712 0.71310 0.18682
 H785 H 0.73493 0.69079 0.00939
 H786 H 0.74093 0.73313 0.04692
 H787 H 0.73665 0.75646 0.10136
 H788 H 0.70602 0.66999 0.14047
 H789 H 0.71003 0.64676 0.08647
 H790 H 0.72281 0.75435 0.15934
 H791 H 0.72981 0.62699 0.04173
 H792 H 0.72863 0.68836 0.18586
 C793 C 0.13557 0.53513 0.24555
 C794 C 0.15939 0.54783 0.26367
 C795 C 0.16898 0.58009 0.26053
 C796 C 0.19918 0.58816 0.26807
 C797 C 0.20834 0.61884 0.26747
 C798 C 0.18720 0.64199 0.25980
 C799 C 0.15694 0.63395 0.25256
 C800 C 0.14790 0.60326 0.25270
 C801 C 0.19536 0.67473 0.26141
 C802 C 0.22474 0.68549 0.25453
 H803 H 0.17086 0.53382 0.28156
 H804 H 0.21561 0.57069 0.27475
 H805 H 0.23159 0.62443 0.27416
 H806 H 0.14019 0.65152 0.24709
 H807 H 0.12417 0.59791 0.24789
 H808 H 0.17731 0.69063 0.26814
 H809 H 0.12502 0.54871 0.22665
 H810 H 0.24234 0.66949 0.24641
 C811 C 0.62351 0.02460 0.73014
 C812 C 0.65009 0.03779 0.74266
 C813 C 0.65828 0.07028 0.73815
 C814 C 0.68919 0.07870 0.73982
 C815 C 0.69769 0.10949 0.73824
 C816 C 0.67527 0.13249 0.73524
 C817 C 0.64433 0.12411 0.73361
 C818 C 0.63585 0.09325 0.73486
 C819 C 0.68325 0.16527 0.73719
 C820 C 0.71186 0.17641 0.72771
 H821 H 0.66569 0.02376 0.75653
 H822 H 0.70679 0.06141 0.74294
 H823 H 0.72165 0.11523 0.74080
 H824 H 0.62666 0.14153 0.73198
 H825 H 0.61172 0.08766 0.73462
 H826 H 0.66654 0.18051 0.74837
 H827 H 0.60831 0.03852 0.71564
 H828 H 0.72788 0.16137 0.71495
 C829 C 0.85177 0.02030 0.24351
 C830 C 0.86140 0.05018 0.25056
 C831 C 0.84243 0.07808 0.24705
 C832 C 0.85386 0.10580 0.25954
 C833 C 0.83754 0.13309 0.25605
 C834 C 0.80919 0.13321 0.24009
 C835 C 0.79793 0.10562 0.22710
 C836 C 0.81430 0.07824 0.23056
 C837 C 0.79153 0.16177 0.23551
 C838 C 0.79525 0.18772 0.25526
 H839 H 0.88470 0.05324 0.25887
 H840 H 0.87571 0.10642 0.27183
 H841 H 0.84768 0.15402 0.26526
 H842 H 0.77639 0.10525 0.21421
 H843 H 0.80499 0.05763 0.21975
 H844 H 0.77478 0.16221 0.21617
 H845 H 0.82860 0.01602 0.23567
 H846 H 0.81029 0.18716 0.27607
 C847 C 0.36074 0.54246 0.77114
 C848 C 0.33540 0.55691 0.75738
 C849 C 0.32871 0.58993 0.76235
 C850 C 0.29841 0.60039 0.75991
 C851 C 0.29171 0.63176 0.76183
 C852 C 0.31537 0.65330 0.76576
 C853 C 0.34566 0.64283 0.76815
 C854 C 0.35231 0.61146 0.76666
 C855 C 0.30957 0.68664 0.76388
 C856 C 0.28156 0.70009 0.77259
 H857 H 0.32062 0.54398 0.74126
 H858 H 0.27994 0.58426 0.75598
 H859 H 0.26822 0.63909 0.75875
 H860 H 0.36430 0.65905 0.77052
 H861 H 0.37605 0.60431 0.76745
 H862 H 0.32755 0.70053 0.75336
 H863 H 0.37483 0.55559 0.78782
 H864 H 0.26423 0.68638 0.78465
 C865 C 0.34634 0.48800 0.75702
 C866 C 0.35197 0.45745 0.74787
 C867 C 0.32865 0.43286 0.74765
 C868 C 0.33553 0.40568 0.73041
 C869 C 0.31538 0.38090 0.73105
 C870 C 0.28769 0.38275 0.74900
 C871 C 0.28079 0.40990 0.76639
 C872 C 0.30099 0.43481 0.76568
 C873 C 0.26715 0.35593 0.75231
 C874 C 0.26800 0.33117 0.73042
 H875 H 0.37511 0.45098 0.74077
 H876 H 0.35690 0.40337 0.71680
 H877 H 0.32229 0.36004 0.71841
 H878 H 0.25994 0.41165 0.78098
 H879 H 0.29524 0.45498 0.78013
 H880 H 0.25234 0.35482 0.77375
 H881 H 0.32338 0.49490 0.76416
 H882 H 0.28052 0.33300 0.70752
 C883 C 0.85917 0.96369 0.23562
 C884 C 0.83319 0.95317 0.25227
 C885 C 0.82416 0.92062 0.25160
 C886 C 0.79308 0.91283 0.25413
 C887 C 0.78425 0.88205 0.25542
 C888 C 0.80653 0.85870 0.25491
 C889 C 0.83760 0.86650 0.25299
 C890 C 0.84639 0.89719 0.25106
 C891 C 0.79812 0.82623 0.25824
 C892 C 0.77215 0.81381 0.24382
 H893 H 0.81993 0.96892 0.26750
 H894 H 0.77566 0.93059 0.25525
 H895 H 0.76014 0.87659 0.25784
 H896 H 0.85509 0.84879 0.25306
 H897 H 0.87060 0.90257 0.25028
 H898 H 0.81344 0.81168 0.27176
 H899 H 0.87151 0.94789 0.21952
 H900 H 0.75763 0.82827 0.22917
 C901 C 0.63922 0.97039 0.74175
 C902 C 0.63669 0.94207 0.75715
 C903 C 0.66108 0.91848 0.75521
 C904 C 0.66392 0.89760 0.78085
 C905 C 0.68597 0.87430 0.77925
 C906 C 0.70522 0.87100 0.75148
 C907 C 0.70265 0.89222 0.72606
 C908 C 0.68074 0.91564 0.72777
 C909 C 0.72740 0.84537 0.74756
 C910 C 0.72488 0.81805 0.76484
 H911 H 0.61641 0.93730 0.77179
 H912 H 0.64909 0.89942 0.80226
 H913 H 0.68772 0.85912 0.79989
 H914 H 0.71713 0.89021 0.70440
 H915 H 0.67867 0.93080 0.70711
 H916 H 0.74447 0.84685 0.72813
 H917 H 0.65974 0.97531 0.72761
 H918 H 0.70730 0.81538 0.78342
 C919 C 0.14627 0.47975 0.25373
 C920 C 0.13957 0.44881 0.25872
 C921 C 0.16289 0.42416 0.25670
 C922 C 0.15688 0.39634 0.27243
 C923 C 0.17784 0.37211 0.27031
 C924 C 0.20535 0.37525 0.25227
 C925 C 0.21113 0.40290 0.23609
 C926 C 0.19018 0.42717 0.23828
 C927 C 0.22710 0.34945 0.24769
 C928 C 0.22762 0.32417 0.26827
 H929 H 0.11621 0.44247 0.26480
 H930 H 0.13577 0.39326 0.28624
 H931 H 0.17186 0.35076 0.28201
 H932 H 0.23178 0.40559 0.22140
 H933 H 0.19512 0.44780 0.22475
 H934 H 0.24225 0.34977 0.22647
 H935 H 0.16980 0.48640 0.24919
 H936 H 0.21507 0.32487 0.29122
 C937 C 0.02259 0.25453 0.86084
 C938 C 0.03369 0.24198 0.83158
 C939 C 0.06461 0.24979 0.81877
 C940 C 0.07613 0.23491 0.79051
 C941 C 0.10597 0.24074 0.77908
 C942 C 0.12477 0.26172 0.79577
 C943 C 0.11300 0.27693 0.82365
 C944 C 0.08329 0.27118 0.83498
 C945 C 0.15732 0.26677 0.78677
 C946 C 0.17073 0.25933 0.75644
 H947 H 0.01999 0.22520 0.81859
 H948 H 0.06226 0.21823 0.77766
 H949 H 0.11447 0.22806 0.75794
 H950 H 0.12705 0.29307 0.83706
 H951 H 0.07523 0.28317 0.85679
 H952 H 0.17166 0.27680 0.80549
 H953 H 0.00521 0.24740 0.86721
 H954 H 0.15686 0.25140 0.73634
 C955 C 0.52642 0.72634 0.34611
 C956 C 0.53901 0.74079 0.31857
 C957 C 0.56948 0.73315 0.30410
 C958 C 0.58390 0.75497 0.28411
 C959 C 0.61404 0.75056 0.27301
 C960 C 0.63033 0.72402 0.28157
 C961 C 0.61545 0.70147 0.30010
 C962 C 0.58524 0.70578 0.31103
 C963 C 0.66356 0.72081 0.27498
 C964 C 0.67930 0.73645 0.25032
 H965 H 0.52755 0.76109 0.30962
 H966 H 0.57228 0.77618 0.27824
 H967 H 0.62491 0.76872 0.25930
 H968 H 0.62752 0.68075 0.30683
 H969 H 0.57475 0.68783 0.32532
 H970 H 0.67643 0.70652 0.29149
 H971 H 0.53859 0.70729 0.35664
 H972 H 0.66685 0.74928 0.23224
 C973 C 0.53496 0.24661 0.14582
 C974 C 0.55778 0.22643 0.15627
 C975 C 0.58579 0.23692 0.17312
 C976 C 0.60197 0.21622 0.19260
 C977 C 0.63040 0.22423 0.20563
 C978 C 0.64340 0.25302 0.19896
 C979 C 0.62701 0.27389 0.17993
 C980 C 0.59841 0.26606 0.16729
 C981 C 0.67524 0.26051 0.20807
 C982 C 0.69014 0.24770 0.23473
 H983 H 0.55586 0.20213 0.15116
 H984 H 0.59295 0.19349 0.19702
 H985 H 0.64278 0.20726 0.21943
 H986 H 0.63676 0.29604 0.17407
 H987 H 0.58707 0.28228 0.15160
 H988 H 0.68778 0.27575 0.19205
 H989 H 0.53565 0.27012 0.15467
 H990 H 0.67744 0.23368 0.25186
 C991 C 0.03897 0.74760 0.65029
 C992 C 0.05148 0.76948 0.67157
 C993 C 0.08048 0.76466 0.68939
 C994 C 0.09775 0.79033 0.69883
 C995 C 0.12636 0.78671 0.71344
 C996 C 0.13811 0.75718 0.71930
 C997 C 0.12025 0.73158 0.71103
 C998 C 0.09169 0.73521 0.69644
 C999 C 0.16967 0.75193 0.73112
 C1000 C 0.18816 0.77456 0.74507
 H1001 H 0.04104 0.79207 0.67274
 H1002 H 0.08957 0.81328 0.69382
 H1003 H 0.13951 0.80707 0.71885
 H1004 H 0.12868 0.70858 0.71538
 H1005 H 0.07865 0.71486 0.69062
 H1006 H 0.17928 0.72923 0.72713
 H1007 H 0.05056 0.72579 0.64695
 H1008 H 0.17878 0.79686 0.75138
 C1009 C 0.98547 0.76796 0.64780
 C1010 C 0.97293 0.75252 0.67471
 C1011 C 0.94296 0.76060 0.69018
 C1012 C 0.92741 0.73818 0.70836
 C1013 C 0.89791 0.74377 0.72090
 C1014 C 0.88341 0.77216 0.71574
 C1015 C 0.89942 0.79500 0.69870
 C1016 C 0.92897 0.78946 0.68629
 C1017 C 0.85081 0.77762 0.72462
 C1018 C 0.83449 0.76031 0.74751
 H1019 H 0.98416 0.73168 0.68255
 H1020 H 0.93766 0.71579 0.71182
 H1021 H 0.88614 0.72531 0.73324
 H1022 H 0.88879 0.81708 0.69445
 H1023 H 0.94045 0.80778 0.67346
 H1024 H 0.83867 0.79490 0.71093
 H1025 H 0.97343 0.78752 0.63813
 H1026 H 0.84633 0.74434 0.76304
 C1027 C 0.47802 0.23785 0.13631
 C1028 C 0.47078 0.24419 0.16922
 C1029 C 0.43891 0.25037 0.18068
 C1030 C 0.41702 0.26301 0.15973
 C1031 C 0.38744 0.26968 0.17116
 C1032 C 0.37884 0.26399 0.20377
 C1033 C 0.40085 0.25183 0.22500
 C1034 C 0.43065 0.24530 0.21353
 C1035 C 0.34670 0.27085 0.21386
 C1036 C 0.33245 0.26096 0.24276
 H1037 H 0.48885 0.24534 0.18708
 H1038 H 0.42279 0.26845 0.13462
 H1039 H 0.37112 0.27930 0.15430
 H1040 H 0.39543 0.24755 0.25042
 H1041 H 0.44727 0.23612 0.23033
 H1042 H 0.33262 0.28231 0.19602
 H1043 H 0.45944 0.23388 0.11947
 H1044 H 0.34527 0.24899 0.26114
 C1045 C 0.47419 0.74915 0.34302
 C1046 C 0.44906 0.76674 0.35371
 C1047 C 0.42058 0.77111 0.33503
 C1048 C 0.40069 0.79493 0.34477
 C1049 C 0.37180 0.79775 0.33089
 C1050 C 0.36203 0.77676 0.30700
 C1051 C 0.38230 0.75346 0.29629
 C1052 C 0.41133 0.75065 0.31019
 C1053 C 0.32961 0.77804 0.29695
 C1054 C 0.31752 0.76224 0.27018
 H1055 H 0.44971 0.77728 0.37775
 H1056 H 0.40718 0.81091 0.36392
 H1057 H 0.35661 0.81583 0.33968
 H1058 H 0.37539 0.73638 0.27852
 H1059 H 0.42563 0.73152 0.30258
 H1060 H 0.31413 0.79089 0.31284
 H1061 H 0.47377 0.73862 0.31893
 H1062 H 0.33240 0.75029 0.25294
 C1063 C 0.95798 0.25365 0.85873
 C1064 C 0.94401 0.23235 0.83809
 C1065 C 0.91350 0.23829 0.82381
 C1066 C 0.90458 0.22281 0.79515
 C1067 C 0.87503 0.22689 0.78265
 C1068 C 0.85388 0.24627 0.79899
 C1069 C 0.86294 0.26177 0.82746
 C1070 C 0.89229 0.25787 0.83976
 C1071 C 0.82140 0.24884 0.78954
 C1072 C 0.80968 0.24220 0.75858
 H1073 H 0.95527 0.21059 0.83313
 H1074 H 0.92035 0.20726 0.78269
 H1075 H 0.86853 0.21402 0.76106
 H1076 H 0.84694 0.27647 0.84077
 H1077 H 0.89779 0.26937 0.86252
 H1078 H 0.80570 0.25650 0.80869
 H1079 H 0.94889 0.27680 0.86000
 H1080 H 0.82481 0.23570 0.73850
 C1081 C 0.59079 0.98077 0.71449
 C1082 C 0.59831 0.97944 0.68120
 C1083 C 0.57559 0.97254 0.65560
 C1084 C 0.58598 0.96538 0.62379
 C1085 C 0.56526 0.96240 0.59815
 C1086 C 0.53364 0.96663 0.60396
 C1087 C 0.52322 0.97273 0.63595
 C1088 C 0.54389 0.97574 0.66150
 C1089 C 0.51148 0.96939 0.57712
 C1090 C 0.51797 0.96106 0.54478
 H1091 H 0.62148 0.98514 0.67358
 H1092 H 0.61030 0.96313 0.61854
 H1093 H 0.57436 0.95842 0.57374
 H1094 H 0.49906 0.97656 0.64097
 H1095 H 0.53483 0.98218 0.68534
 H1096 H 0.49041 0.98174 0.58259
 H1097 H 0.56897 0.97164 0.72262
 H1098 H 0.53702 0.94599 0.53901
 C1099 C 0.09669 0.49700 1.22985
 C1100 C 0.10262 0.48340 1.19924
 C1101 C 0.07843 0.47713 1.17500
 C1102 C 0.08690 0.47296 1.14201
 C1103 C 0.06460 0.46906 1.11809
 C1104 C 0.03329 0.46899 1.12684
 C1105 C 0.02492 0.47178 1.15997
 C1106 C 0.04721 0.47549 1.18389
 C1107 C 0.00899 0.47011 1.10203
 C1108 C 0.01374 0.46172 1.06935
 H1109 H 0.12615 0.47840 1.19221
 H1110 H 0.11080 0.47382 1.13456
 H1111 H 0.07200 0.46766 1.09275
 H1112 H 0.00096 0.47177 1.16730
 H1113 H 0.03973 0.47732 1.20916
 H1114 H -0.01241 0.48114 1.10913
 H1115 H 0.07380 0.50531 1.23546
 H1116 H 0.03345 0.44793 1.06244
 C1117 C -0.09980 0.00008 1.22033
 C1118 C -0.10606 0.00675 1.18767
 C1119 C -0.08261 0.01526 1.16300
 C1120 C -0.09202 0.03070 1.13486
 C1121 C -0.07113 0.03713 1.10968
 C1122 C -0.04037 0.02776 1.11199
 C1123 C -0.03070 0.01355 1.14080
 C1124 C -0.05157 0.00720 1.16602
 C1125 C -0.01851 0.02921 1.08402
 C1126 C -0.02799 0.02955 1.05151
 H1127 H -0.12982 0.00714 1.18022
 H1128 H -0.11577 0.03742 1.13212
 H1129 H -0.07945 0.04886 1.08836
 H1130 H -0.00716 0.00598 1.14318
 H1131 H -0.04348 -0.00514 1.18706
 H1132 H 0.00505 0.02292 1.08880
 H1133 H -0.07649 0.00098 1.22900
 H1134 H -0.05102 0.03646 1.04562
 C1135 C 0.38968 0.51270 0.72739
 C1136 C 0.39375 0.53891 0.70825
 C1137 C 0.41447 0.53860 0.67934
 C1138 C 0.40717 0.55587 0.65169
 C1139 C 0.42592 0.55453 0.62360
 C1140 C 0.45255 0.53620 0.62304
 C1141 C 0.46061 0.52038 0.65142
 C1142 C 0.44177 0.52146 0.67922
 C1143 C 0.47177 0.53139 0.59333
 C1144 C 0.46088 0.53430 0.56153
 H1145 H 0.38123 0.55981 0.71366
 H1146 H 0.38653 0.56975 0.65154
 H1147 H 0.41938 0.56773 0.60252
 H1148 H 0.48117 0.50639 0.65180
 H1149 H 0.44865 0.50885 0.70063
 H1150 H 0.49380 0.52037 0.59664
 H1151 H 0.40111 0.49186 0.71919
 H1152 H 0.43915 0.54532 0.55732
 C1153 C 0.39521 0.50023 -0.21485
 C1154 C 0.38671 0.48514 -0.18606
 C1155 C 0.40905 0.47567 -0.16110
 C1156 C 0.39873 0.47093 -0.12889
 C1157 C 0.41951 0.46446 -0.10412
 C1158 C 0.45112 0.46234 -0.11123
 C1159 C 0.46117 0.46533 -0.14378
 C1160 C 0.44039 0.47167 -0.16854
 C1161 C 0.47437 0.46165 -0.08522
 C1162 C 0.46740 0.45613 -0.05241
 H1163 H 0.36259 0.48152 -0.18085
 H1164 H 0.37465 0.47348 -0.12260
 H1165 H 0.41077 0.46276 -0.07934
 H1166 H 0.48536 0.46371 -0.14993
 H1167 H 0.44912 0.47379 -0.19330
 H1168 H 0.49688 0.47045 -0.09146
 H1169 H 0.41886 0.50715 -0.21820
 H1170 H 0.44664 0.44408 -0.04588
 C1171 C -0.11341 0.99092 0.27896
 C1172 C -0.09267 0.96805 0.28780
 C1173 C -0.08284 0.96434 0.32199
 C1174 C -0.05301 0.95418 0.32835
 C1175 C -0.04240 0.95313 0.36049
 C1176 C -0.06178 0.96179 0.38688
 C1177 C -0.09221 0.97004 0.38046
 C1178 C -0.10268 0.97126 0.34840
 C1179 C -0.05068 0.96603 0.42070
 C1180 C -0.02120 0.95876 0.43102
 H1181 H -0.08251 0.95347 0.26894
 H1182 H -0.03749 0.94833 0.30832
 H1183 H -0.01877 0.94677 0.36417
 H1184 H -0.10771 0.97656 0.40029
 H1185 H -0.12623 0.97797 0.34437
 H1186 H -0.06556 0.97881 0.43732
 H1187 H -0.12186 1.00670 0.29768
 H1188 H -0.00606 0.94472 0.41601
 C1189 C 0.10643 0.50586 0.28800
 C1190 C 0.09284 0.53244 0.30126
 C1191 C 0.07200 0.53135 0.32988
 C1192 C 0.05077 0.50742 0.33319
 C1193 C 0.03054 0.50694 0.35985
 C1194 C 0.03146 0.53001 0.38397
 C1195 C 0.05232 0.55431 0.38046
 C1196 C 0.07220 0.55514 0.35329
 C1197 C 0.01094 0.52718 0.41270
 C1198 C 0.02007 0.53483 0.44434
 H1199 H 0.09709 0.55458 0.29036
 H1200 H 0.04947 0.48932 0.31491
 H1201 H 0.01452 0.48809 0.36199
 H1202 H 0.05310 0.57270 0.39842
 H1203 H 0.08805 0.57407 0.35078
 H1204 H -0.00945 0.51341 0.40950
 H1205 H 0.10246 0.48442 0.30053
 H1206 H 0.04086 0.54780 0.44782
 C1207 C 0.59539 -0.00338 -0.22785
 C1208 C 0.60964 0.00263 -0.19805
 C1209 C 0.59210 0.00966 -0.16756
 C1210 C 0.60664 0.02517 -0.14181
 C1211 C 0.59088 0.03144 -0.11243
 C1212 C 0.56025 0.02212 -0.10831
 C1213 C 0.54556 0.00726 -0.13427
 C1214 C 0.56133 0.00072 -0.16340
 C1215 C 0.54369 0.02475 -0.07666
 C1216 C 0.55854 0.02012 -0.04713
 H1217 H 0.63442 0.00351 -0.19740
 H1218 H 0.63030 0.03234 -0.14440
 H1219 H 0.60274 0.04333 -0.09299
 H1220 H 0.52212 -0.00055 -0.13149
 H1221 H 0.54947 -0.01220 -0.18204
 H1222 H 0.51897 0.02242 -0.07709
 H1223 H 0.57077 -0.00071 -0.22902
 H1224 H 0.58326 0.02125 -0.04657
 C1225 C 0.70899 0.61483 -0.02293
 C1226 C 0.69676 0.58903 -0.00757
 C1227 C 0.66763 0.57446 -0.01693
 C1228 C 0.66325 0.54349 -0.00935
 C1229 C 0.63526 0.52930 -0.01534
 C1230 C 0.61081 0.54606 -0.02843
 C1231 C 0.61552 0.57670 -0.03732
 C1232 C 0.64366 0.59091 -0.03149
 C1233 C 0.57980 0.53282 -0.03077
 C1234 C 0.56910 0.51219 -0.00749
 H1235 H 0.70986 0.57829 0.01158
 H1236 H 0.68146 0.53030 0.00160
 H1237 H 0.63273 0.50533 -0.00923
 H1238 H 0.59696 0.59005 -0.04740
 H1239 H 0.64604 0.61498 -0.03712
 H1240 H 0.56397 0.54243 -0.04816
 H1241 H 0.69670 0.62504 -0.04297
 H1242 H 0.58439 0.50398 0.01115
 C1243 C 0.22376 1.10892 0.49849
 C1244 C 0.19346 1.11515 0.49034
 C1245 C 0.16902 1.09180 0.49194
 C1246 C 0.14266 1.09594 0.47326
 C1247 C 0.11895 1.07454 0.47435
 C1248 C 0.12123 1.04840 0.49420
 C1249 C 0.14731 1.04462 0.51341
 C1250 C 0.17098 1.06607 0.51239
 C1251 C 0.09595 1.02612 0.49752
 C1252 C 0.07185 1.02442 0.47563
 H1253 H 0.18775 1.13782 0.48154
 H1254 H 0.14035 1.11588 0.45784
 H1255 H 0.09867 1.07913 0.46026
 H1256 H 0.14923 1.02516 0.52957
 H1257 H 0.19030 1.06270 0.52827
 H1258 H 0.09552 1.01166 0.51894
 H1259 H 0.22998 1.08584 0.50541
 H1260 H 0.07350 1.03589 0.45237
 C1261 C 0.23679 -0.09087 1.01064
 C1262 C 0.20689 -0.10217 1.00995
 C1263 C 0.17972 -0.08245 1.00587
 C1264 C 0.15149 -0.09252 1.01831
 C1265 C 0.12498 -0.07524 1.01373
 C1266 C 0.12618 -0.04759 0.99628
 C1267 C 0.15427 -0.03785 0.98309
 C1268 C 0.18094 -0.05500 0.98804
 C1269 C 0.09802 -0.02983 0.99015
 C1270 C 0.07364 -0.02997 1.01240
 H1271 H 0.20322 -0.12662 1.01228
 H1272 H 0.14992 -0.11391 1.03151
 H1273 H 0.10345 -0.08405 1.02311
 H1274 H 0.15554 -0.01698 0.96896
 H1275 H 0.20221 -0.04721 0.97708
 H1276 H 0.09602 -0.01761 0.96731
 H1277 H 0.24022 -0.06628 1.01013
 H1278 H 0.07708 -0.03947 1.03643
 C1279 C 0.71774 0.39826 0.49920
 C1280 C 0.68731 0.38998 0.50538
 C1281 C 0.66088 0.41123 0.50384
 C1282 C 0.63292 0.40186 0.51771
 C1283 C 0.60700 0.42058 0.51624
 C1284 C 0.60852 0.44930 0.50090
 C1285 C 0.63634 0.45851 0.48655
 C1286 C 0.66233 0.43974 0.48801
 C1287 C 0.58118 0.46911 0.49763
 C1288 C 0.55512 0.46624 0.51745
 H1289 H 0.68277 0.36649 0.51241
 H1290 H 0.63102 0.37979 0.52954
 H1291 H 0.58574 0.41196 0.52639
 H1292 H 0.63791 0.48023 0.47398
 H1293 H 0.68312 0.44746 0.47609
 H1294 H 0.58126 0.48592 0.47826
 H1295 H 0.72333 0.42173 0.49328
 H1296 H 0.55528 0.45129 0.53839
 C1297 C -0.22606 0.38912 0.49211
 C1298 C -0.21443 0.41395 0.50983
 C1299 C -0.18213 0.42365 0.50710
 C1300 C -0.17442 0.45422 0.51407
 C1301 C -0.14377 0.46353 0.51351
 C1302 C -0.12035 0.44218 0.50640
 C1303 C -0.12806 0.41157 0.49980
 C1304 C -0.15864 0.40236 0.49999
 C1305 C -0.08768 0.45044 0.50780
 C1306 C -0.07659 0.47958 0.50064
 H1307 H -0.22932 0.42612 0.52700
 H1308 H -0.19213 0.47085 0.52022
 H1309 H -0.13846 0.48711 0.51969
 H1310 H -0.11031 0.39466 0.49476
 H1311 H -0.16368 0.37837 0.49570
 H1312 H -0.07192 0.43234 0.51391
 H1313 H -0.21157 0.37796 0.47380
 H1314 H -0.09233 0.49726 0.49297
 C1315 C 0.29363 -0.09339 0.00831
 C1316 C 0.32234 -0.10675 0.00234
 C1317 C 0.35138 -0.08959 0.00532
 C1318 C 0.37736 -0.10009 -0.01199
 C1319 C 0.40536 -0.08486 -0.00918
 C1320 C 0.40789 -0.05875 0.01118
 C1321 C 0.38208 -0.04876 0.02915
 C1322 C 0.35409 -0.06394 0.02627
 C1323 C 0.43726 -0.04250 0.01573
 C1324 C 0.46202 -0.04512 -0.00603
 H1325 H 0.32354 -0.13073 -0.00481
 H1326 H 0.37601 -0.12020 -0.02770
 H1327 H 0.42497 -0.09413 -0.02240
 H1328 H 0.38363 -0.02921 0.04564
 H1329 H 0.33494 -0.05594 0.04114
 H1330 H 0.43956 -0.02815 0.03738
 H1331 H 0.29242 -0.06920 0.01441
 H1332 H 0.45976 -0.05762 -0.02885
 C1333 C 0.27831 1.11945 0.50942
 C1334 C 0.29111 1.09402 0.49328
 C1335 C 0.31951 1.07865 0.50334
 C1336 C 0.32375 1.04781 0.49439
 C1337 C 0.35126 1.03292 0.50083
 C1338 C 0.37542 1.04889 0.51569
 C1339 C 0.37067 1.07931 0.52614
 C1340 C 0.34296 1.09421 0.51988
 C1341 C 0.40622 1.03514 0.51837
 C1342 C 0.41706 1.01391 0.49525
 H1343 H 0.27881 1.08408 0.47288
 H1344 H 0.30581 1.03529 0.48199
 H1345 H 0.35364 1.00906 0.49365
 H1346 H 0.38887 1.09197 0.53787
 H1347 H 0.34056 1.11814 0.52675
 H1348 H 0.42193 1.04483 0.53597
 H1349 H 0.28938 1.12900 0.53078
 H1350 H 0.40214 1.00558 0.47621
 C1351 C -0.23707 0.60390 0.98960
 C1352 C -0.21259 0.60426 1.01134
 C1353 C -0.18852 0.58029 1.01156
 C1354 C -0.17162 0.57614 1.04016
 C1355 C -0.14784 0.55463 1.04099
 C1356 C -0.14023 0.53710 1.01294
 C1357 C -0.15757 0.54073 0.98458
 C1358 C -0.18130 0.56227 0.98372
 C1359 C -0.11348 0.51621 1.01162
 C1360 C -0.08749 0.52113 1.03042
 H1361 H -0.21129 0.62249 1.02947
 H1362 H -0.17680 0.58966 1.06195
 H1363 H -0.13553 0.55193 1.06358
 H1364 H -0.15206 0.52760 0.96261
 H1365 H -0.19311 0.56531 0.96089
 H1366 H -0.11231 0.49951 0.99180
 H1367 H -0.23858 0.58552 0.97169
 H1368 H -0.08778 0.53840 1.04955
 C1369 C 0.00209 0.72575 0.61073
 C1370 C 0.02094 0.70911 0.58896
 C1371 C 0.01328 0.67775 0.57725
 C1372 C 0.02652 0.66641 0.54800
 C1373 C 0.02096 0.63622 0.53747
 C1374 C 0.00227 0.61676 0.55633
 C1375 C -0.01076 0.62810 0.58560
 C1376 C -0.00540 0.65818 0.59597
 C1377 C -0.00245 0.58401 0.54797
 C1378 C 0.00123 0.57114 0.51668
 H1379 H 0.04236 0.71919 0.58084
 H1380 H 0.04143 0.68085 0.53344
 H1381 H 0.03210 0.62798 0.51525
 H1382 H -0.02483 0.61343 0.60085
 H1383 H -0.01509 0.66555 0.61926
 H1384 H -0.00969 0.56925 0.56779
 H1385 H -0.02027 0.71661 0.61695
 H1386 H 0.00628 0.58549 0.49586
 C1387 C 0.51665 0.20837 0.10335
 C1388 C 0.50881 0.17987 0.11641
 C1389 C 0.51684 0.15019 0.10041
 C1390 C 0.52085 0.14699 0.06627
 C1391 C 0.52763 0.11824 0.05217
 C1392 C 0.53052 0.09221 0.07199
 C1393 C 0.52680 0.09563 0.10602
 C1394 C 0.51975 0.12418 0.12001
 C1395 C 0.53706 0.06108 0.05869
 C1396 C 0.53096 0.05133 0.02667
 H1397 H 0.49809 0.17930 0.14047
 H1398 H 0.51819 0.16646 0.05032
 H1399 H 0.53073 0.11658 0.02590
 H1400 H 0.52889 0.07598 0.12189
 H1401 H 0.51669 0.12597 0.14632
 H1402 H 0.54441 0.04415 0.07618
 H1403 H 0.53061 0.20872 0.08125
 H1404 H 0.52282 0.06740 0.00873
 C1405 C -0.01623 0.21276 0.89529
 C1406 C 0.00730 0.19103 0.89435
 C1407 C 0.00498 0.15991 0.90838
 C1408 C 0.02461 0.13706 0.89580
 C1409 C 0.02398 0.10749 0.90846
 C1410 C 0.00418 0.10012 0.93451
 C1411 C -0.01548 0.12295 0.94747
 C1412 C -0.01513 0.15266 0.93443
 C1413 C 0.00445 0.06814 0.94627
 C1414 C -0.00488 0.05857 0.97746
 H1415 H 0.02835 0.19664 0.88152
 H1416 H 0.04040 0.14205 0.87588
 H1417 H 0.03929 0.09031 0.89796
 H1418 H -0.03133 0.11787 0.96725
 H1419 H -0.03018 0.16990 0.94513
 H1420 H 0.01452 0.05126 0.92967
 H1421 H -0.03807 0.20723 0.90660
 H1422 H -0.01401 0.07478 0.99529
 C1423 C 0.48768 0.71686 0.38972
 C1424 C 0.50576 0.70221 0.41294
 C1425 C 0.49639 0.67334 0.42930
 C1426 C 0.51302 0.66287 0.45626
 C1427 C 0.50706 0.63397 0.46974
 C1428 C 0.48437 0.61497 0.45628
 C1429 C 0.46722 0.62583 0.43002
 C1430 C 0.47314 0.65452 0.41660
 C1431 C 0.48001 0.58261 0.46591
 C1432 C 0.49086 0.56929 0.49452
 H1433 H 0.52853 0.71102 0.41745
 H1434 H 0.53130 0.67669 0.46629
 H1435 H 0.52119 0.62616 0.48956
 H1436 H 0.44983 0.61152 0.41895
 H1437 H 0.46033 0.66090 0.39526
 H1438 H 0.46866 0.56807 0.44823
 H1439 H 0.46400 0.70997 0.38730
 H1440 H 0.50140 0.58321 0.51328
 C1441 C 0.51221 0.76920 0.38284
 C1442 C 0.50012 0.78152 0.41204
 C1443 C 0.50530 0.81379 0.42244
 C1444 C 0.49942 0.82249 0.45510
 C1445 C 0.50158 0.85328 0.46500
 C1446 C 0.50936 0.87605 0.44217
 C1447 C 0.51587 0.86719 0.40973
 C1448 C 0.51364 0.83657 0.39986
 C1449 C 0.50987 0.90926 0.45029
 C1450 C 0.49644 0.92245 0.47829
 H1451 H 0.48466 0.76780 0.42674
 H1452 H 0.49278 0.80545 0.47295
 H1453 H 0.49693 0.85896 0.49039
 H1454 H 0.52176 0.88422 0.39157
 H1455 H 0.51729 0.83127 0.37420
 H1456 H 0.51891 0.92438 0.43166
 H1457 H 0.52889 0.78254 0.36936
 H1458 H 0.48634 0.90831 0.49709
 C1459 C -0.01725 0.26804 0.91051
 C1460 C 0.00238 0.29194 0.91927
 C1461 C -0.00731 0.31804 0.94057
 C1462 C 0.01518 0.33678 0.95462
 C1463 C 0.00704 0.36389 0.97121
 C1464 C -0.02390 0.37291 0.97390
 C1465 C -0.04642 0.35382 0.96053
 C1466 C -0.03831 0.32666 0.94409
 C1467 C -0.03315 0.40351 0.98669
 C1468 C -0.01473 0.42163 1.00668
 H1469 H 0.02521 0.29280 0.90870
 H1470 H 0.03923 0.33093 0.95181
 H1471 H 0.02519 0.37839 0.98029
 H1472 H -0.07036 0.36048 0.96180
 H1473 H -0.05632 0.31348 0.93275
 H1474 H -0.05455 0.41294 0.97809
 H1475 H -0.03885 0.26569 0.92362
 H1476 H 0.00567 0.41205 1.01740
 C1477 C 0.51072 0.26414 0.09589
 C1478 C 0.49835 0.29326 0.10253
 C1479 C 0.50098 0.31954 0.08009
 C1480 C 0.47878 0.34283 0.08218
 C1481 C 0.48159 0.36924 0.06334
 C1482 C 0.50694 0.37305 0.04216
 C1483 C 0.52910 0.34969 0.03994
 C1484 C 0.52611 0.32306 0.05856
 C1485 C 0.51237 0.40230 0.02498
 C1486 C 0.48889 0.42286 0.01787
 H1487 H 0.48559 0.29694 0.12515
 H1488 H 0.45945 0.34081 0.09893
 H1489 H 0.46456 0.38715 0.06660
 H1490 H 0.54911 0.35235 0.02425
 H1491 H 0.54412 0.30597 0.05705
 H1492 H 0.53588 0.40862 0.01955
 H1493 H 0.52308 0.26045 0.07303
 H1494 H 0.46526 0.41581 0.02054
 C1495 C 0.02281 0.77868 0.60314
 C1496 C 0.00426 0.78837 0.57750
 C1497 C 0.01107 0.81608 0.55794
 C1498 C -0.01326 0.83202 0.54364
 C1499 C -0.00823 0.86007 0.52810
 C1500 C 0.02144 0.87257 0.52629
 C1501 C 0.04596 0.85586 0.53913
 C1502 C 0.04094 0.82779 0.55453
 C1503 C 0.02717 0.90416 0.51474
 C1504 C 0.00700 0.92059 0.49521
 H1505 H -0.01773 0.77731 0.57431
 H1506 H -0.03647 0.82344 0.54577
 H1507 H -0.02784 0.87249 0.51910
 H1508 H 0.06904 0.86492 0.53794
 H1509 H 0.06050 0.81568 0.56408
 H1510 H 0.04737 0.91561 0.52391
 H1511 H 0.04365 0.79117 0.60812
 H1512 H -0.01198 0.90907 0.48365
 C1513 C 0.23807 0.37204 0.02431
 C1514 C 0.23383 0.37934 0.05746
 C1515 C 0.23246 0.35566 0.08330
 C1516 C 0.21897 0.36293 0.11382
 C1517 C 0.21815 0.34129 0.13898
 C1518 C 0.23086 0.31185 0.13396
 C1519 C 0.24406 0.30462 0.10336
 C1520 C 0.24513 0.32622 0.07847
 C1521 C 0.23417 0.28908 0.16038
 C1522 C 0.22439 0.29339 0.19278
 H1523 H 0.23031 0.40316 0.06444
 H1524 H 0.20930 0.38553 0.11832
 H1525 H 0.20827 0.34812 0.16234
 H1526 H 0.25457 0.28237 0.09896
 H1527 H 0.25687 0.31983 0.05596
 H1528 H 0.24847 0.26931 0.15471
 H1529 H 0.23969 0.34817 0.01696
 H1530 H 0.20784 0.31099 0.19909
 C1531 C 0.74491 0.87164 0.52280
 C1532 C 0.74264 0.87756 0.55643
 C1533 C 0.73981 0.85311 0.58126
 C1534 C 0.72868 0.86074 0.61270
 C1535 C 0.72737 0.83867 0.63733
 C1536 C 0.73732 0.80841 0.63094
 C1537 C 0.74800 0.80074 0.59936
 C1538 C 0.74932 0.82276 0.57480
 C1539 C 0.74066 0.78537 0.65708
 C1540 C 0.72919 0.78892 0.68897
 H1541 H 0.74216 0.90125 0.56475
 H1542 H 0.72146 0.88402 0.61841
 H1543 H 0.71972 0.84583 0.66149
 H1544 H 0.75632 0.77777 0.59391
 H1545 H 0.75893 0.81604 0.55128
 H1546 H 0.75570 0.76608 0.65173
 H1547 H 0.74253 0.84832 0.51389
 H1548 H 0.71201 0.80615 0.69458
 C1549 C 0.25074 0.65041 0.53293
 C1550 C 0.25965 0.64394 0.56489
 C1551 C 0.26902 0.66782 0.58877
 C1552 C 0.28710 0.65929 0.61537
 C1553 C 0.29532 0.68089 0.63921
 C1554 C 0.28522 0.71148 0.63706
 C1555 C 0.26795 0.72019 0.60995
 C1556 C 0.25970 0.69862 0.58618
 C1557 C 0.28976 0.73430 0.66363
 C1558 C 0.29127 0.72590 0.69644
 H1559 H 0.26134 0.62013 0.57209
 H1560 H 0.29476 0.63576 0.61782
 H1561 H 0.30929 0.67344 0.65933
 H1562 H 0.25968 0.74355 0.60784
 H1563 H 0.24514 0.70611 0.56659
 H1564 H 0.28511 0.75812 0.65807
 H1565 H 0.25015 0.67399 0.52492
 H1566 H 0.29485 0.70213 0.70243
 C1567 C 0.77534 0.15047 0.01386
 C1568 C 0.77949 0.14436 0.04712
 C1569 C 0.78805 0.16748 0.07221
 C1570 C 0.79628 0.15713 0.10332
 C1571 C 0.80044 0.17783 0.12921
 C1572 C 0.79643 0.20952 0.12449
 C1573 C 0.78959 0.21997 0.09300
 C1574 C 0.78542 0.19924 0.06708
 C1575 C 0.79447 0.23162 0.15228
 C1576 C 0.80137 0.22418 0.18454
 H1577 H 0.77479 0.12145 0.05577
 H1578 H 0.79833 0.13278 0.10798
 H1579 H 0.80508 0.16857 0.15308
 H1580 H 0.78601 0.24421 0.08876
 H1581 H 0.77859 0.20823 0.04372
 H1582 H 0.78264 0.25307 0.14788
 H1583 H 0.78198 0.17263 0.00442
 H1584 H 0.81585 0.20468 0.18957
 C1585 C 0.75369 0.14272 0.95908
 C1586 C 0.72368 0.14463 0.94754
 C1587 C 0.71805 0.15248 0.91306
 C1588 C 0.73694 0.14010 0.88816
 C1589 C 0.73233 0.14785 0.85561
 C1590 C 0.70911 0.16852 0.84722
 C1591 C 0.68937 0.18010 0.87194
 C1592 C 0.69363 0.17177 0.90466
 C1593 C 0.70789 0.17855 0.81284
 C1594 C 0.70054 0.20855 0.80407
 H1595 H 0.70427 0.13968 0.96334
 H1596 H 0.75536 0.12440 0.89388
 H1597 H 0.74770 0.13844 0.83701
 H1598 H 0.67086 0.19560 0.86610
 H1599 H 0.67845 0.18105 0.92350
 H1600 H 0.72005 0.16427 0.79510
 H1601 H 0.77175 0.15208 0.94366
 H1602 H 0.68896 0.22354 0.82152
 C1603 C 0.24036 0.64011 0.47494
 C1604 C 0.21385 0.65483 0.46411
 C1605 C 0.21466 0.67572 0.43598
 C1606 C 0.19047 0.67597 0.41368
 C1607 C 0.19121 0.69583 0.38693
 C1608 C 0.21579 0.71626 0.38281
 C1609 C 0.23928 0.71675 0.40590
 C1610 C 0.23891 0.69649 0.43207
 C1611 C 0.21847 0.73674 0.35445
 C1612 C 0.21094 0.72731 0.32282
 H1613 H 0.19213 0.65148 0.47664
 H1614 H 0.17132 0.66045 0.41668
 H1615 H 0.17254 0.69539 0.36974
 H1616 H 0.25837 0.73243 0.40326
 H1617 H 0.25738 0.69737 0.44950
 H1618 H 0.23214 0.75723 0.35769
 H1619 H 0.26129 0.64317 0.46080
 H1620 H 0.19820 0.70635 0.31949
 C1621 C 0.74976 0.88415 0.46330
 C1622 C 0.77094 0.86134 0.45411
 C1623 C 0.77218 0.84784 0.42075
 C1624 C 0.78143 0.81715 0.41649
 C1625 C 0.78039 0.80302 0.38559
 C1626 C 0.77043 0.81960 0.35834
 C1627 C 0.76272 0.85071 0.36240
 C1628 C 0.76370 0.86476 0.39320
 C1629 C 0.76501 0.80510 0.32607
 C1630 C 0.77594 0.77628 0.31596
 H1631 H 0.78519 0.85123 0.47265
 H1632 H 0.78834 0.80375 0.43735
 H1633 H 0.78620 0.77894 0.38356
 H1634 H 0.75527 0.86408 0.34173
 H1635 H 0.75760 0.88878 0.39531
 H1636 H 0.75057 0.81779 0.30958
 H1637 H 0.73464 0.89325 0.44494
 H1638 H 0.79147 0.76337 0.33098
 C1639 C 0.24067 0.37892 0.96482
 C1640 C 0.26340 0.38213 0.94060
 C1641 C 0.26714 0.35916 0.91400
 C1642 C 0.27768 0.36813 0.88297
 C1643 C 0.27991 0.34667 0.85727
 C1644 C 0.27219 0.31571 0.86253
 C1645 C 0.26323 0.30665 0.89406
 C1646 C 0.26077 0.32805 0.91952
 C1647 C 0.26951 0.29290 0.83565
 C1648 C 0.27764 0.29826 0.80309
 H1649 H 0.27875 0.40159 0.94097
 H1650 H 0.28315 0.39194 0.87834
 H1651 H 0.28657 0.35478 0.83330
 H1652 H 0.25726 0.28298 0.89886
 H1653 H 0.25376 0.32018 0.94352
 H1654 H 0.25703 0.27211 0.84129
 H1655 H 0.22341 0.36142 0.96110
 H1656 H 0.29265 0.31700 0.79681
 C1657 C 0.83144 0.46838 0.75730
 C1658 C 0.84084 0.43778 0.75494
 C1659 C 0.81940 0.41151 0.75601
 C1660 C 0.83129 0.38221 0.76190
 C1661 C 0.81214 0.35662 0.76240
 C1662 C 0.78044 0.35982 0.75719
 C1663 C 0.76860 0.38905 0.75077
 C1664 C 0.78781 0.41467 0.75013
 C1665 C 0.75972 0.33298 0.75575
 C1666 C 0.76784 0.30439 0.76785
 H1667 H 0.86516 0.43285 0.75298
 H1668 H 0.85560 0.37903 0.76588
 H1669 H 0.82260 0.33441 0.76597
 H1670 H 0.74444 0.39204 0.74587
 H1671 H 0.77782 0.43661 0.74425
 H1672 H 0.73799 0.33553 0.74354
 H1673 H 0.80766 0.47329 0.76315
 H1674 H 0.78744 0.30249 0.78351
 C1675 C 0.34431 0.97637 0.23018
 C1676 C 0.35312 0.94736 0.24088
 C1677 C 0.33168 0.92122 0.24205
 C1678 C 0.33695 0.89757 0.26428
 C1679 C 0.31739 0.87230 0.26564
 C1680 C 0.29212 0.87021 0.24462
 C1681 C 0.28731 0.89353 0.22187
 C1682 C 0.30684 0.91881 0.22056
 C1683 C 0.27207 0.84296 0.24387
 C1684 C 0.27041 0.82207 0.26936
 H1685 H 0.37637 0.94385 0.24910
 H1686 H 0.35632 0.89862 0.28058
 H1687 H 0.32275 0.85417 0.28253
 H1688 H 0.26857 0.89200 0.20479
 H1689 H 0.30283 0.93592 0.20209
 H1690 H 0.25939 0.83841 0.22173
 H1691 H 0.32065 0.97986 0.22344
 H1692 H 0.27998 0.82787 0.29287
 C1693 C 0.15463 0.98851 0.74814
 C1694 C 0.15087 0.95900 0.73502
 C1695 C 0.17430 0.93422 0.73603
 C1696 C 0.16527 0.90434 0.72753
 C1697 C 0.18561 0.87971 0.72999
 C1698 C 0.21575 0.88438 0.74078
 C1699 C 0.22501 0.91425 0.74892
 C1700 C 0.20466 0.93901 0.74632
 C1701 C 0.23692 0.85827 0.74604
 C1702 C 0.23362 0.83028 0.72972
 H1703 H 0.12842 0.95295 0.72598
 H1704 H 0.14206 0.89985 0.71974
 H1705 H 0.17716 0.85694 0.72456
 H1706 H 0.24803 0.91841 0.75751
 H1707 H 0.21294 0.96158 0.75267
 H1708 H 0.25443 0.86065 0.76445
 H1709 H 0.17605 0.99462 0.75940
 H1710 H 0.21817 0.82868 0.70927
 C1711 C 0.64998 0.47056 0.25200
 C1712 C 0.64273 0.43999 0.24505
 C1713 C 0.66507 0.41450 0.24719
 C1714 C 0.65956 0.38742 0.22946
 C1715 C 0.67958 0.36247 0.23147
 C1716 C 0.70560 0.36411 0.25142
 C1717 C 0.71075 0.39094 0.26972
 C1718 C 0.69077 0.41596 0.26762
 C1719 C 0.72647 0.33763 0.25526
 C1720 C 0.72884 0.31403 0.23212
 H1721 H 0.61967 0.43447 0.23755
 H1722 H 0.63959 0.38550 0.21409
 H1723 H 0.67404 0.34174 0.21805
 H1724 H 0.73021 0.39247 0.28586
 H1725 H 0.69515 0.43595 0.28271
 H1726 H 0.73989 0.33640 0.27734
 H1727 H 0.67316 0.47605 0.25898
 H1728 H 0.71822 0.31659 0.20856
 C1729 C 0.64013 0.52651 0.26215
 C1730 C 0.66693 0.53735 0.24719
 C1731 C 0.67635 0.56976 0.24931
 C1732 C 0.70761 0.57709 0.24785
 C1733 C 0.71699 0.60772 0.24728
 C1734 C 0.69511 0.63144 0.24741
 C1735 C 0.66388 0.62413 0.24864
 C1736 C 0.65452 0.59356 0.24989
 C1737 C 0.70408 0.66377 0.24405
 C1738 C 0.73021 0.67594 0.25841
 H1739 H 0.68079 0.52203 0.23210
 H1740 H 0.72475 0.55905 0.24683
 H1741 H 0.74123 0.61277 0.24551
 H1742 H 0.64669 0.64213 0.24836
 H1743 H 0.63022 0.58863 0.24997
 H1744 H 0.68890 0.67851 0.23059
 H1745 H 0.62692 0.54215 0.27762
 H1746 H 0.74464 0.66135 0.27303
 C1747 C 0.13803 0.04246 0.76157
 C1748 C 0.16171 0.05675 0.74419
 C1749 C 0.16937 0.08955 0.74854
 C1750 C 0.19948 0.09922 0.74224
 C1751 C 0.20721 0.13025 0.74473
 C1752 C 0.18478 0.15227 0.75324
 C1753 C 0.15458 0.14264 0.75914
 C1754 C 0.14693 0.11158 0.75700
 C1755 C 0.19155 0.18546 0.75334
 C1756 C 0.22066 0.19726 0.75920
 H1757 H 0.17566 0.04329 0.72725
 H1758 H 0.21702 0.08273 0.73513
 H1759 H 0.23046 0.13697 0.73884
 H1760 H 0.13680 0.15928 0.76507
 H1761 H 0.12326 0.10508 0.76091
 H1762 H 0.17298 0.20071 0.74745
 H1763 H 0.12493 0.05593 0.77929
 H1764 H 0.23866 0.18193 0.76695
 C1765 C 0.34840 0.03188 0.22047
 C1766 C 0.35918 0.06114 0.22834
 C1767 C 0.33937 0.08881 0.22907
 C1768 C 0.35323 0.11773 0.23072
 C1769 C 0.33544 0.14433 0.23362
 C1770 C 0.30321 0.14255 0.23478
 C1771 C 0.28934 0.11361 0.23348
 C1772 C 0.30715 0.08699 0.23068
 C1773 C 0.28365 0.17013 0.23925
 C1774 C 0.29399 0.19950 0.23211
 H1775 H 0.38286 0.06371 0.23554
 H1776 H 0.37798 0.11975 0.23029
 H1777 H 0.34718 0.16603 0.23593
 H1778 H 0.26462 0.11158 0.23500
 H1779 H 0.29549 0.06515 0.23082
 H1780 H 0.26056 0.16724 0.24879
 H1781 H 0.32635 0.02993 0.20882
 H1782 H 0.31580 0.20247 0.21972
 C1783 C 0.83645 0.52436 0.74971
 C1784 C 0.85088 0.55271 0.74589
 C1785 C 0.83358 0.58178 0.74249
 C1786 C 0.84802 0.60716 0.72818
 C1787 C 0.83246 0.63515 0.72545
 C1788 C 0.80219 0.63828 0.73738
 C1789 C 0.78780 0.61286 0.75155
 C1790 C 0.80333 0.58503 0.75439
 C1791 C 0.78491 0.66748 0.73628
 C1792 C 0.79869 0.69624 0.73421
 H1793 H 0.87570 0.55356 0.74559
 H1794 H 0.87135 0.60528 0.71896
 H1795 H 0.84417 0.65403 0.71379
 H1796 H 0.76461 0.61474 0.76119
 H1797 H 0.79171 0.56648 0.76672
 H1798 H 0.76036 0.66641 0.74051
 H1799 H 0.81179 0.52327 0.74756
 H1800 H 0.82323 0.69817 0.73117
 C1801 C 0.97366 0.76115 0.15439
 C1802 C 0.96221 0.74591 0.18192
 C1803 C 0.93256 0.75403 0.19803
 C1804 C 0.91708 0.73144 0.21601
 C1805 C 0.88721 0.73657 0.22770
 C1806 C 0.87231 0.76456 0.22169
 C1807 C 0.88837 0.78778 0.20541
 C1808 C 0.91834 0.78279 0.19405
 C1809 C 0.83921 0.76876 0.22834
 C1810 C 0.82311 0.75296 0.25258
 H1811 H 0.97332 0.72475 0.18897
 H1812 H 0.92752 0.70916 0.21963
 H1813 H 0.87532 0.71795 0.23967
 H1814 H 0.87740 0.80961 0.20072
 H1815 H 0.92983 0.80133 0.18159
 H1816 H 0.82676 0.78376 0.21219
 H1817 H 0.96139 0.78092 0.14548
 H1818 H 0.83540 0.73940 0.27019
 C1819 C 0.46235 0.23338 0.64211
 C1820 C 0.45212 0.25444 0.66601
 C1821 C 0.42295 0.25150 0.68475
 C1822 C 0.41002 0.27796 0.69925
 C1823 C 0.38141 0.27689 0.71502
 C1824 C 0.36506 0.24916 0.71663
 C1825 C 0.37873 0.22239 0.70365
 C1826 C 0.40734 0.22347 0.68787
 C1827 C 0.33352 0.24717 0.73046
 C1828 C 0.31392 0.27239 0.73461
 H1829 H 0.46457 0.27581 0.66849
 H1830 H 0.42178 0.29976 0.69770
 H1831 H 0.37230 0.29787 0.72563
 H1832 H 0.36688 0.20062 0.70500
 H1833 H 0.41690 0.20233 0.67811
 H1834 H 0.32425 0.22443 0.73431
 H1835 H 0.44944 0.21264 0.63773
 H1836 H 0.32205 0.29536 0.73017
 C1837 C 0.48334 0.73515 0.85226
 C1838 C 0.47244 0.75476 0.82805
 C1839 C 0.43981 0.75463 0.81797
 C1840 C 0.43195 0.76295 0.78599
 C1841 C 0.40125 0.76249 0.77600
 C1842 C 0.37781 0.75394 0.79807
 C1843 C 0.38578 0.74620 0.83014
 C1844 C 0.41625 0.74668 0.84004
 C1845 C 0.34475 0.75349 0.78980
 C1846 C 0.33202 0.76050 0.75942
 H1847 H 0.48839 0.76961 0.81535
 H1848 H 0.44964 0.76949 0.76859
 H1849 H 0.39616 0.76894 0.75118
 H1850 H 0.36826 0.73995 0.84787
 H1851 H 0.42108 0.74133 0.86525
 H1852 H 0.32920 0.74750 0.80958
 H1853 H 0.46727 0.71931 0.86332
 H1854 H 0.34641 0.76595 0.73859
 C1855 C 0.97898 0.24282 0.35980
 C1856 C 0.97141 0.25380 0.32878
 C1857 C 0.93930 0.25383 0.31711
 C1858 C 0.93315 0.25263 0.28342
 C1859 C 0.90286 0.25407 0.27221
 C1860 C 0.87824 0.25727 0.29462
 C1861 C 0.88459 0.25889 0.32818
 C1862 C 0.91462 0.25720 0.33931
 C1863 C 0.84575 0.26002 0.28473
 C1864 C 0.83391 0.25170 0.25422
 H1865 H 0.98880 0.26421 0.31342
 H1866 H 0.95181 0.25063 0.26579
 H1867 H 0.89895 0.25334 0.24613
 H1868 H 0.86616 0.26172 0.34600
 H1869 H 0.91842 0.25950 0.36534
 H1870 H 0.82974 0.26766 0.30363
 H1871 H 0.96133 0.23084 0.37342
 H1872 H 0.84875 0.24306 0.23484
 C1873 C 0.03372 0.26320 0.35670
 C1874 C 0.04974 0.24530 0.33342
 C1875 C 0.07981 0.25442 0.31884
 C1876 C 0.09173 0.23801 0.29169
 C1877 C 0.12147 0.24374 0.27970
 C1878 C 0.13997 0.26597 0.29488
 C1879 C 0.12775 0.28283 0.32143
 C1880 C 0.09817 0.27719 0.33332
 C1881 C 0.17287 0.27027 0.28645
 C1882 C 0.18755 0.26016 0.25761
 H1883 H 0.04091 0.22276 0.32742
 H1884 H 0.07830 0.22009 0.28027
 H1885 H 0.13024 0.22983 0.25959
 H1886 H 0.14158 0.29989 0.33381
 H1887 H 0.09058 0.28983 0.35483
 H1888 H 0.18657 0.28134 0.30500
 H1889 H 0.04067 0.28679 0.36042
 H1890 H 0.17451 0.24994 0.23802
 C1891 C 0.53870 0.72891 0.83595
 C1892 C 0.56872 0.71893 0.84120
 C1893 C 0.59329 0.71931 0.81597
 C1894 C 0.59620 0.74338 0.79345
 C1895 C 0.62227 0.74534 0.77311
 C1896 C 0.64554 0.72301 0.77474
 C1897 C 0.64174 0.69827 0.79611
 C1898 C 0.61615 0.69671 0.81687
 C1899 C 0.67492 0.72542 0.75642
 C1900 C 0.68960 0.75339 0.75086
 H1901 H 0.57479 0.71053 0.86513
 H1902 H 0.57912 0.76142 0.79265
 H1903 H 0.62438 0.76449 0.75657
 H1904 H 0.65935 0.68080 0.79786
 H1905 H 0.61448 0.67809 0.83416
 H1906 H 0.68809 0.70445 0.75323
 H1907 H 0.53272 0.73657 0.81172
 H1908 H 0.67711 0.77463 0.75456
 C1909 C 0.51645 0.25044 0.63730
 C1910 C 0.53193 0.23011 0.65766
 C1911 C 0.56219 0.23711 0.67212
 C1912 C 0.57247 0.22001 0.69883
 C1913 C 0.60187 0.22460 0.71141
 C1914 C 0.62162 0.24635 0.69724
 C1915 C 0.61125 0.26351 0.67070
 C1916 C 0.58197 0.25900 0.65824
 C1917 C 0.65396 0.25000 0.70706
 C1918 C 0.66617 0.24008 0.73661
 H1919 H 0.52183 0.20787 0.66235
 H1920 H 0.55788 0.20267 0.70965
 H1921 H 0.60935 0.21034 0.73131
 H1922 H 0.62618 0.28005 0.65899
 H1923 H 0.57554 0.27191 0.63693
 H1924 H 0.66920 0.26077 0.68948
 H1925 H 0.52477 0.27373 0.63536
 H1926 H 0.65137 0.23150 0.75584
 C1927 C 0.02616 0.73599 0.14941
 C1928 C 0.03825 0.75066 0.17703
 C1929 C 0.06931 0.74430 0.18988
 C1930 C 0.07697 0.75553 0.22106
 C1931 C 0.10675 0.75222 0.23298
 C1932 C 0.12961 0.73764 0.21374
 C1933 C 0.12173 0.72588 0.18289
 C1934 C 0.09210 0.72929 0.17097
 C1935 C 0.16218 0.73556 0.22349
 C1936 C 0.17447 0.74791 0.25220
 H1937 H 0.02488 0.76852 0.18912
 H1938 H 0.05995 0.76737 0.23607
 H1939 H 0.11164 0.76163 0.25688
 H1940 H 0.13885 0.71473 0.16741
 H1941 H 0.08778 0.72106 0.14644
 H1942 H 0.17779 0.72475 0.20603
 H1943 H 0.03898 0.71735 0.13815
 H1944 H 0.15994 0.75834 0.27080
   
