data_POSCAR
  _audit_creation_date              2014-09-24
  _audit_creation_method            'ToBaCCo'
  _symmetry_space_group_name_H-M    'P1'
  _symmetry_Int_Tables_number       1
  _symmetry_cell_setting            triclinic
  loop_
  _symmetry_equiv_pos_as_xyz
 x,y,z
_cell_length_a 68.2515
_cell_length_b 67.8005
_cell_length_c 68.8790
_cell_angle_alpha 89.839400
_cell_angle_beta 90.047200
_cell_angle_gamma 90.106100
loop_
  _atom_site_label
  _atom_site_type_symbol
  _atom_site_fract_x
  _atom_site_fract_y
  _atom_site_fract_z
C1 C 0.30498 0.38498 0.01535
 C2 C 0.30529 0.38506 -0.00453
 C3 C 0.31099 0.36631 -0.01028
 N4 N 0.31466 0.35495 0.00548
 C5 C 0.31083 0.36634 0.02113
 C6 C 0.31149 0.35935 -0.02967
 C7 C 0.32250 0.34232 -0.03452
 C8 C 0.31909 0.33030 -0.05045
 C9 C 0.33322 0.31592 -0.05018
 C10 C 0.34495 0.31945 -0.03410
 N11 N 0.33810 0.33539 -0.02442
 C12 C 0.36168 0.30827 -0.02876
 C13 C 0.36823 0.30782 -0.00921
 C14 C 0.38665 0.30185 -0.00298
 C15 C 0.38620 0.30173 0.01689
 C16 C 0.36768 0.30797 0.02219
 N17 N 0.35672 0.31185 0.00625
 C18 C 0.36067 0.30865 0.04144
 C19 C 0.34419 0.31995 0.04667
 C20 C 0.33407 0.31846 0.06406
 C21 C 0.31997 0.33298 0.06381
 C22 C 0.32193 0.34287 0.04626
 N23 N 0.33669 0.33483 0.03592
 C24 C 0.31113 0.35961 0.04052
 H25 H 0.30107 0.39730 0.02451
 H26 H 0.30187 0.39763 -0.01362
 H27 H 0.34263 0.34050 0.02315
 H28 H 0.30729 0.33128 -0.06089
 H29 H 0.33423 0.30387 -0.06039
 H30 H 0.39926 0.29815 -0.01174
 H31 H 0.39821 0.29770 0.02637
 H32 H 0.30955 0.33592 0.07526
 H33 H 0.34473 0.34215 -0.01251
 H34 H 0.33659 0.30808 0.07575
 C35 C 0.61980 0.70497 -0.00751
 C36 C 0.62051 0.70542 0.01232
 C37 C 0.63901 0.69899 0.01756
 N38 N 0.64971 0.69466 0.00159
 C39 C 0.63802 0.69855 -0.01383
 C40 C 0.64611 0.69829 0.03679
 C41 C 0.66259 0.68698 0.04213
 C42 C 0.67267 0.68858 0.05953
 C43 C 0.68670 0.67403 0.05953
 C44 C 0.68479 0.66398 0.04212
 N45 N 0.67006 0.67197 0.03160
 C46 C 0.69583 0.64726 0.03676
 C47 C 0.69654 0.64000 0.01755
 C48 C 0.70502 0.62230 0.01217
 C49 C 0.70414 0.62147 -0.00767
 C50 C 0.69483 0.63856 -0.01385
 N51 N 0.69033 0.64993 0.00162
 C52 C 0.69245 0.64439 -0.03346
 C53 C 0.68177 0.66141 -0.03897
 C54 C 0.68318 0.67087 -0.05679
 C55 C 0.66974 0.68590 -0.05671
 C56 C 0.65990 0.68492 -0.03909
 N57 N 0.66752 0.67006 -0.02828
 C58 C 0.64391 0.69710 -0.03354
 H59 H 0.60710 0.70861 -0.01622
 H60 H 0.60864 0.70968 0.02182
 H61 H 0.66189 0.66476 -0.01522
 H62 H 0.67015 0.69907 0.07107
 H63 H 0.69709 0.67118 0.07108
 H64 H 0.71144 0.61119 0.02149
 H65 H 0.71016 0.60971 -0.01636
 H66 H 0.66774 0.69640 -0.06838
 H67 H 0.66400 0.66619 0.01897
 H68 H 0.69289 0.66760 -0.06871
 C69 C 0.61880 0.29315 0.98675
 C70 C 0.61901 0.29350 1.00665
 C71 C 0.63698 0.30130 1.01207
 N72 N 0.64772 0.30579 0.99619
 C73 C 0.63665 0.30075 0.98068
 C74 C 0.64394 0.30260 1.03130
 C75 C 0.66075 0.31366 1.03628
 C76 C 0.67147 0.31118 1.05320
 C77 C 0.68600 0.32521 1.05296
 C78 C 0.68363 0.33612 1.03602
 N79 N 0.66830 0.32879 1.02582
 C80 C 0.69515 0.35266 1.03045
 C81 C 0.69604 0.35887 1.01076
 C82 C 0.70237 0.37724 1.00432
 C83 C 0.70235 0.37664 0.98446
 C84 C 0.69564 0.35810 0.97934
 N85 N 0.69167 0.34725 0.99540
 C86 C 0.69445 0.35106 0.96013
 C87 C 0.68289 0.33463 0.95501
 C88 C 0.68400 0.32455 0.93756
 C89 C 0.66937 0.31056 0.93785
 C90 C 0.65975 0.31252 0.95548
 N91 N 0.66809 0.32721 0.96584
 C92 C 0.64309 0.30161 0.96122
 H93 H 0.60688 0.28785 0.97779
 H94 H 0.60729 0.28850 1.01603
 H95 H 0.66271 0.33326 0.97864
 H96 H 0.66925 0.30019 1.06442
 H97 H 0.69725 0.32680 1.06392
 H98 H 0.70631 0.38997 1.01292
 H99 H 0.70650 0.38861 0.97486
 H100 H 0.66620 0.30016 0.92638
 H101 H 0.66216 0.33498 1.01336
 H102 H 0.69424 0.32703 0.92581
 C103 C 0.28647 0.62610 1.00042
 C104 C 0.28731 0.62668 0.98062
 C105 C 0.30243 0.63935 0.97576
 N106 N 0.31099 0.64643 0.99209
 C107 C 0.30098 0.63873 1.00738
 C108 C 0.30910 0.64259 0.95654
 C109 C 0.32466 0.65548 0.95186
 C110 C 0.33475 0.65569 0.93438
 C111 C 0.34769 0.67125 0.93516
 C112 C 0.34482 0.68042 0.95290
 N113 N 0.33088 0.67060 0.96302
 C114 C 0.35381 0.69814 0.95908
 C115 C 0.35288 0.70407 0.97866
 C116 C 0.35547 0.72315 0.98526
 C117 C 0.35549 0.72213 1.00514
 C118 C 0.35324 0.70236 1.01002
 N119 N 0.35128 0.69141 0.99377
 C120 C 0.35466 0.69408 1.02888
 C121 C 0.34550 0.67565 1.03268
 C122 C 0.35057 0.66241 1.04722
 C123 C 0.33706 0.64735 1.04661
 C124 C 0.32407 0.65169 1.03168
 N125 N 0.32966 0.66870 1.02295
 C126 C 0.30653 0.64130 1.02725
 H127 H 0.27703 0.61605 1.00818
 H128 H 0.27840 0.61782 0.97100
 H129 H 0.32176 0.67628 1.01231
 H130 H 0.33303 0.64575 0.92225
 H131 H 0.35789 0.67525 0.92381
 H132 H 0.35704 0.73644 0.97665
 H133 H 0.35682 0.73462 1.01479
 H134 H 0.33725 0.63443 1.05585
 H135 H 0.32440 0.67532 0.97587
 H136 H 0.36293 0.66313 1.05702
 C137 C -0.00676 0.36098 0.27661
 C138 C 0.01328 0.36070 0.27577
 C139 C 0.01977 0.35554 0.29413
 N140 N 0.00435 0.35312 0.30626
 C141 C -0.01193 0.35675 0.29568
 C142 C 0.03954 0.35483 0.30006
 C143 C 0.04559 0.34472 0.31700
 C144 C 0.06449 0.34479 0.32441
 C145 C 0.06475 0.33159 0.33955
 C146 C 0.04598 0.32382 0.34109
 N147 N 0.03447 0.33179 0.32717
 C148 C 0.04042 0.30867 0.35409
 C149 C 0.02077 0.30293 0.35762
 C150 C 0.01537 0.28834 0.37061
 C151 C -0.00462 0.28809 0.37107
 C152 C -0.01115 0.30239 0.35801
 N153 N 0.00458 0.31175 0.35022
 C154 C -0.03104 0.30832 0.35512
 C155 C -0.03513 0.32606 0.34481
 C156 C -0.05009 0.33926 0.34890
 C157 C -0.05018 0.35309 0.33428
 C158 C -0.03531 0.34806 0.32153
 N159 N -0.02587 0.33186 0.32834
 C160 C -0.03106 0.35780 0.30372
 H161 H -0.01629 0.36384 0.26438
 H162 H 0.02190 0.36373 0.26295
 H163 H -0.01510 0.32392 0.32099
 H164 H 0.07708 0.35285 0.31910
 H165 H 0.07754 0.32786 0.34806
 H166 H 0.02479 0.27938 0.37968
 H167 H -0.01283 0.27926 0.38126
 H168 H -0.05986 0.36568 0.33351
 H169 H 0.02052 0.32700 0.32338
 H170 H -0.05962 0.33949 0.36142
 C171 C -0.00485 0.72490 0.64960
 C172 C 0.01511 0.72332 0.64801
 C173 C 0.01960 0.70372 0.65145
 N174 N 0.00313 0.69326 0.65517
 C175 C -0.01192 0.70612 0.65366
 C176 C 0.03830 0.69517 0.64932
 C177 C 0.04305 0.67746 0.65901
 C178 C 0.05870 0.66517 0.65485
 C179 C 0.05870 0.65056 0.66884
 C180 C 0.04305 0.65443 0.68108
 N181 N 0.03355 0.67072 0.67488
 C182 C 0.03835 0.64417 0.69831
 C183 C 0.01968 0.64615 0.70685
 C184 C 0.01530 0.64241 0.72612
 C185 C -0.00462 0.64423 0.72789
 C186 C -0.01183 0.64866 0.70952
 N187 N 0.00315 0.65022 0.69676
 C188 C -0.03185 0.64940 0.70397
 C189 C -0.03728 0.66029 0.68716
 C190 C -0.05374 0.65713 0.67572
 C191 C -0.05376 0.67153 0.66161
 C192 C -0.03732 0.68318 0.66474
 N193 N -0.02717 0.67594 0.68010
 C194 C -0.03188 0.70028 0.65405
 H195 H -0.01310 0.73841 0.64802
 H196 H 0.02516 0.73524 0.64479
 H197 H -0.01483 0.68237 0.68645
 H198 H 0.06903 0.66646 0.64301
 H199 H 0.06902 0.63851 0.66978
 H200 H 0.02542 0.63894 0.73774
 H201 H -0.01274 0.64261 0.74128
 H202 H -0.06437 0.67266 0.65000
 H203 H 0.02241 0.67804 0.68228
 H204 H -0.06433 0.64530 0.67682
 C205 C 0.98396 0.64229 0.27874
 C206 C 1.00400 0.64313 0.27815
 C207 C 1.01036 0.64564 0.29715
 N208 N 0.99479 0.64695 0.30922
 C209 C 0.97869 0.64469 0.29798
 C210 C 1.03010 0.64520 0.30363
 C211 C 1.03518 0.65453 0.32140
 C212 C 1.05162 0.65064 0.33269
 C213 C 1.05134 0.66372 0.34791
 C214 C 1.03463 0.67507 0.34573
 N215 N 1.02476 0.66927 0.32969
 C216 C 1.02929 0.69100 0.35779
 C217 C 1.00974 0.69775 0.35898
 C218 C 1.00374 0.71514 0.36768
 C219 C 0.98365 0.71479 0.36794
 C220 C 0.97799 0.69738 0.35905
 N221 N 0.99397 0.68698 0.35363
 C222 C 0.95857 0.69024 0.35778
 C223 C 0.95361 0.67368 0.34641
 C224 C 0.93633 0.66296 0.34768
 C225 C 0.93669 0.64933 0.33290
 C226 C 0.95398 0.65242 0.32276
 N227 N 0.96423 0.66715 0.33120
 C228 C 0.95943 0.64315 0.30525
 H229 H 0.97434 0.64036 0.26639
 H230 H 1.01278 0.64221 0.26512
 H231 H 0.97663 0.67397 0.32543
 H232 H 1.06253 0.63929 0.33065
 H233 H 1.06207 0.66450 0.35946
 H234 H 1.01281 0.72684 0.37345
 H235 H 0.97442 0.72599 0.37428
 H236 H 0.92532 0.63863 0.32991
 H237 H 1.01257 0.67628 0.32370
 H238 H 0.92453 0.66480 0.35798
 C239 C 0.98645 0.35556 0.71973
 C240 C 1.00648 0.35451 0.72031
 C241 C 1.01277 0.35191 0.70132
 N242 N 0.99715 0.35072 0.68926
 C243 C 0.98110 0.35316 0.70050
 C244 C 1.03251 0.35217 0.69483
 C245 C 1.03743 0.34280 0.67704
 C246 C 1.05387 0.34658 0.66572
 C247 C 1.05337 0.33352 0.65047
 C248 C 1.03654 0.32230 0.65266
 N249 N 1.02681 0.32815 0.66874
 C250 C 1.03097 0.30644 0.64055
 C251 C 1.01135 0.29978 0.63945
 C252 C 1.00518 0.28245 0.63070
 C253 C 0.98510 0.28285 0.63055
 C254 C 0.97959 0.30023 0.63957
 N255 N 0.99568 0.31056 0.64495
 C256 C 0.96020 0.30742 0.64094
 C257 C 0.95542 0.32402 0.65233
 C258 C 0.93821 0.33480 0.65112
 C259 C 0.93880 0.34853 0.66581
 C260 C 0.95615 0.34544 0.67587
 N261 N 0.96620 0.33059 0.66746
 C262 C 0.96183 0.35486 0.69327
 H263 H 0.97688 0.35761 0.73208
 H264 H 1.01528 0.35534 0.73335
 H265 H 0.97861 0.32378 0.67316
 H266 H 1.06490 0.35784 0.66774
 H267 H 1.06404 0.33269 0.63888
 H268 H 1.01414 0.27077 0.62480
 H269 H 0.97578 0.27170 0.62418
 H270 H 0.92755 0.35932 0.66878
 H271 H 1.01456 0.32124 0.67475
 H272 H 0.92632 0.33297 0.64090
 C273 C 0.29896 0.01013 0.38195
 C274 C 0.29773 -0.01001 0.38137
 C275 C 0.30416 -0.01576 0.36310
 N276 N 0.30976 0.00026 0.35271
 C277 C 0.30645 0.01606 0.36421
 C278 C 0.30416 -0.03536 0.35590
 C279 C 0.31580 -0.04063 0.33964
 C280 C 0.31311 -0.05725 0.32823
 C281 C 0.32830 -0.05771 0.31518
 C282 C 0.33971 -0.04106 0.31851
 N283 N 0.33188 -0.03073 0.33345
 C284 C 0.35810 -0.03686 0.30974
 C285 C 0.36646 -0.01769 0.31028
 C286 C 0.38465 -0.01237 0.30280
 C287 C 0.38559 0.00782 0.30322
 C288 C 0.36793 0.01430 0.31071
 N289 N 0.35630 -0.00127 0.31502
 C290 C 0.36201 0.03424 0.31165
 C291 C 0.34530 0.04045 0.32205
 C292 C 0.33645 0.05878 0.32025
 C293 C 0.32139 0.05926 0.33350
 C294 C 0.32143 0.04120 0.34296
 N295 N 0.33604 0.02983 0.33593
 C296 C 0.30896 0.03585 0.35840
 H297 H 0.29508 0.01935 0.39416
 H298 H 0.29298 -0.01928 0.39327
 H299 H 0.34061 0.01639 0.34168
 H300 H 0.30148 -0.06806 0.32912
 H301 H 0.33059 -0.06932 0.30473
 H302 H 0.39587 -0.02180 0.29684
 H303 H 0.39772 0.01671 0.29810
 H304 H 0.31152 0.07150 0.33584
 H305 H 0.33847 -0.01895 0.34063
 H306 H 0.34037 0.07060 0.31039
 C307 C 0.64187 0.01557 0.71858
 C308 C 0.64276 -0.00463 0.71854
 C309 C 0.64835 -0.01010 0.69998
 N310 N 0.65113 0.00603 0.68877
 C311 C 0.64699 0.02173 0.70006
 C312 C 0.64854 -0.02953 0.69275
 C313 C 0.65881 -0.03423 0.67559
 C314 C 0.65543 -0.05062 0.66413
 C315 C 0.66911 -0.05007 0.64948
 C316 C 0.68069 -0.03346 0.65253
 N317 N 0.67405 -0.02373 0.66833
 C318 C 0.69737 -0.02786 0.64145
 C319 C 0.70364 -0.00782 0.64105
 C320 C 0.72187 -0.00102 0.63501
 C321 C 0.72103 0.01916 0.63497
 C322 C 0.70260 0.02420 0.64167
 N323 N 0.69198 0.00770 0.64538
 C324 C 0.69509 0.04360 0.64258
 C325 C 0.67815 0.04825 0.65336
 C326 C 0.66750 0.06560 0.65198
 C327 C 0.65344 0.06492 0.66630
 C328 C 0.65616 0.04734 0.67630
 N329 N 0.67118 0.03728 0.66824
 C330 C 0.64588 0.04131 0.69312
 H331 H 0.63778 0.02466 0.73081
 H332 H 0.63948 -0.01418 0.73073
 H333 H 0.67781 0.02471 0.67394
 H334 H 0.64408 -0.06164 0.66585
 H335 H 0.67002 -0.06056 0.63772
 H336 H 0.73470 -0.00950 0.63123
 H337 H 0.73282 0.02884 0.63058
 H338 H 0.64266 0.07623 0.66907
 H339 H 0.68075 -0.01161 0.67489
 H340 H 0.66969 0.07768 0.64191
 C341 C 0.29581 0.98809 0.61882
 C342 C 0.29544 1.00827 0.61896
 C343 C 0.30092 1.01411 0.63751
 N344 N 0.30515 0.99813 0.64852
 C345 C 0.30189 0.98224 0.63711
 C346 C 0.30086 1.03375 0.64452
 C347 C 0.31155 1.03892 0.66145
 C348 C 0.30756 1.05496 0.67325
 C349 C 0.32141 1.05498 0.68771
 C350 C 0.33358 1.03895 0.68443
 N351 N 0.32728 1.02905 0.66852
 C352 C 0.35018 1.03396 0.69585
 C353 C 0.35796 1.01455 0.69592
 C354 C 0.37644 1.00935 0.70256
 C355 C 0.37754 0.98924 0.70175
 C356 C 0.35994 0.98267 0.69406
 N357 N 0.34794 0.99820 0.69055
 C358 C 0.35447 0.96263 0.69192
 C359 C 0.33764 0.95684 0.68142
 C360 C 0.32913 0.93822 0.68178
 C361 C 0.31445 0.93828 0.66808
 C362 C 0.31463 0.95678 0.65949
 N363 N 0.32872 0.96800 0.66776
 C364 C 0.30322 0.96248 0.64335
 H365 H 0.29228 0.97879 0.60656
 H366 H 0.29177 1.01750 0.60666
 H367 H 0.33359 0.98161 0.66267
 H368 H 0.29556 1.06529 0.67203
 H369 H 0.32200 1.06534 0.69960
 H370 H 0.38812 1.01895 0.70741
 H371 H 0.39001 0.98068 0.70646
 H372 H 0.30506 0.92591 0.66457
 H373 H 0.33433 1.01722 0.66190
 H374 H 0.33316 0.92568 0.69062
 C375 C 0.64191 1.00548 0.28247
 C376 C 0.64206 0.98531 0.28107
 C377 C 0.64615 0.97815 0.29950
 N378 N 0.64865 0.99322 0.31204
 C379 C 0.64587 1.00991 0.30172
 C380 C 0.64548 0.95814 0.30512
 C381 C 0.65454 0.95158 0.32246
 C382 C 0.65177 0.93330 0.33113
 C383 C 0.66431 0.93244 0.34675
 C384 C 0.67406 0.95038 0.34749
 N385 N 0.66811 0.96191 0.33261
 C386 C 0.68909 0.95517 0.36075
 C387 C 0.69531 0.97471 0.36467
 C388 C 0.70986 0.97945 0.37782
 C389 C 0.71049 0.99954 0.37888
 C390 C 0.69647 1.00683 0.36601
 N391 N 0.68689 0.99140 0.35773
 C392 C 0.69111 1.02711 0.36344
 C393 C 0.67403 1.03185 0.35251
 C394 C 0.66138 1.04755 0.35580
 C395 C 0.64845 1.04817 0.34047
 C396 C 0.65334 1.03273 0.32834
 N397 N 0.66868 1.02265 0.33591
 C398 C 0.64457 1.02875 0.31019
 H399 H 0.63900 1.01568 0.27071
 H400 H 0.63930 0.97689 0.26803
 H401 H 0.67654 1.01156 0.32891
 H402 H 0.64183 0.92168 0.32679
 H403 H 0.66594 0.91996 0.35643
 H404 H 0.71854 0.96950 0.38661
 H405 H 0.71946 1.00723 0.38929
 H406 H 0.63669 1.05869 0.33863
 H407 H 0.67455 0.97517 0.32840
 H408 H 0.66102 1.05739 0.36811
 O409 O 0.84237 0.81257 0.48555
 O410 O 0.81773 0.84295 0.52199
 O411 O 0.84502 0.81586 0.52304
 O412 O 0.81522 0.83889 0.48477
 O413 O 0.79245 0.81603 0.48877
 O414 O 0.82246 0.79282 0.52716
 O415 O 0.79522 0.81987 0.52618
 O416 O 0.82020 0.78912 0.48949
 Cu417 Cu 0.83238 0.82985 0.50356
 Cu418 Cu 0.80534 0.80208 0.50829
 C419 C 0.83553 0.79573 0.48125
 C420 C 0.80215 0.83682 0.53005
 C421 C 0.83892 0.80036 0.53151
 C422 C 0.79873 0.83149 0.48034
 O423 O 0.18100 0.15674 0.51897
 O424 O 0.15822 0.18429 0.47897
 O425 O 0.18421 0.15674 0.48143
 O426 O 0.15462 0.18457 0.51627
 O427 O 0.17824 0.20671 0.51920
 O428 O 0.20747 0.17938 0.48294
 O429 O 0.18093 0.20741 0.48155
 O430 O 0.20468 0.17893 0.52075
 Cu431 Cu 0.16721 0.16830 0.49879
 Cu432 Cu 0.19522 0.19536 0.50130
 C433 C 0.19682 0.16296 0.52650
 C434 C 0.16549 0.20066 0.47364
 C435 C 0.20078 0.16331 0.47613
 C436 C 0.16125 0.20042 0.52355
 O437 O 0.15429 0.81576 0.51650
 O438 O 0.17972 0.84291 0.47797
 O439 O 0.15304 0.81534 0.47934
 O440 O 0.18093 0.84308 0.51567
 O441 O 0.20423 0.82052 0.51521
 O442 O 0.17619 0.79261 0.47846
 O443 O 0.20298 0.82031 0.47733
 O444 O 0.17736 0.79294 0.51633
 Cu445 Cu 0.16475 0.83162 0.49737
 Cu446 Cu 0.19257 0.80431 0.49676
 C447 C 0.16128 0.79966 0.52283
 C448 C 0.19569 0.83637 0.47114
 C449 C 0.15963 0.79912 0.47297
 C450 C 0.19727 0.83658 0.52167
 O451 O 0.84240 0.18729 0.51097
 O452 O 0.81638 0.15820 0.47420
 O453 O 0.84318 0.18557 0.47320
 O454 O 0.81549 0.16045 0.51184
 O455 O 0.79238 0.18314 0.50983
 O456 O 0.82039 0.20858 0.47130
 O457 O 0.79342 0.18104 0.47215
 O458 O 0.81978 0.21049 0.50909
 Cu459 Cu 0.83166 0.17061 0.49268
 Cu460 Cu 0.80420 0.19814 0.49042
 C461 C 0.83560 0.20381 0.51631
 C462 C 0.80043 0.16449 0.46704
 C463 C 0.83660 0.20138 0.46575
 C464 C 0.79918 0.16744 0.51734
 O465 O 0.52305 0.82251 0.84352
 O466 O 0.48575 0.84891 0.81519
 O467 O 0.48511 0.82279 0.84325
 O468 O 0.52330 0.84880 0.81589
 O469 O 0.52357 0.82510 0.79394
 O470 O 0.48496 0.79881 0.82159
 O471 O 0.48525 0.82477 0.79370
 O472 O 0.52324 0.79857 0.82183
 Cu473 Cu 0.50428 0.83809 0.83168
 Cu474 Cu 0.50432 0.80938 0.80557
 C475 C 0.52942 0.80602 0.83759
 C476 C 0.47929 0.84144 0.79957
 C477 C 0.47858 0.80638 0.83721
 C478 C 0.52972 0.84164 0.80014
 O479 O 0.52387 0.17954 0.15799
 O480 O 0.48516 0.15436 0.18541
 O481 O 0.48588 0.18120 0.15857
 O482 O 0.52290 0.15292 0.18545
 O483 O 0.52478 0.17648 0.20747
 O484 O 0.48670 0.20443 0.18098
 O485 O 0.48664 0.17723 0.20815
 O486 O 0.52484 0.20327 0.17988
 Cu487 Cu 0.50439 0.16471 0.16960
 Cu488 Cu 0.50588 0.19273 0.19636
 C489 C 0.53075 0.19580 0.16403
 C490 C 0.47949 0.16128 0.20154
 C491 C 0.47995 0.19759 0.16517
 C492 C 0.52997 0.15971 0.20112
 O493 O 0.51168 0.15264 0.81629
 O494 O 0.47649 0.18005 0.84604
 O495 O 0.47391 0.15365 0.81887
 O496 O 0.51430 0.17891 0.84365
 O497 O 0.51319 0.20304 0.82205
 O498 O 0.47340 0.17686 0.79630
 O499 O 0.47514 0.20352 0.82376
 O500 O 0.51174 0.17665 0.79454
 Cu501 Cu 0.49417 0.16394 0.83341
 Cu502 Cu 0.49326 0.19239 0.80689
 C503 C 0.51777 0.15996 0.80042
 C504 C 0.46987 0.19646 0.84005
 C505 C 0.46691 0.16075 0.80329
 C506 C 0.52045 0.19537 0.83729
 O507 O 0.47605 0.81579 0.15421
 O508 O 0.51236 0.84395 0.18193
 O509 O 0.51395 0.81774 0.15446
 O510 O 0.47442 0.84184 0.18191
 O511 O 0.47667 0.81881 0.20455
 O512 O 0.51447 0.79338 0.17583
 O513 O 0.51472 0.81967 0.20327
 O514 O 0.47626 0.79228 0.17647
 Cu515 Cu 0.49403 0.83220 0.16594
 Cu516 Cu 0.49553 0.80360 0.19224
 C517 C 0.47000 0.79926 0.16047
 C518 C 0.51985 0.83663 0.19720
 C519 C 0.52078 0.80136 0.16035
 C520 C 0.46922 0.83472 0.19818
 O521 O 0.81845 0.48011 0.84498
 O522 O 0.84487 0.52114 0.82210
 O523 O 0.81702 0.51798 0.84816
 O524 O 0.84577 0.48323 0.81900
 O525 O 0.82288 0.48354 0.79630
 O526 O 0.79539 0.52063 0.82441
 O527 O 0.82314 0.52202 0.79833
 O528 O 0.79529 0.48213 0.82263
 Cu529 Cu 0.83376 0.50056 0.83588
 Cu530 Cu 0.80690 0.50223 0.80807
 C531 C 0.80226 0.47430 0.83794
 C532 C 0.83883 0.52828 0.80614
 C533 C 0.80134 0.52521 0.84128
 C534 C 0.83920 0.47735 0.80277
 O535 O 0.18358 0.48814 0.15310
 O536 O 0.15418 0.52449 0.17955
 O537 O 0.18133 0.52636 0.15296
 O538 O 0.15643 0.48634 0.17921
 O539 O 0.17849 0.48821 0.20264
 O540 O 0.20438 0.52742 0.17548
 O541 O 0.17706 0.52657 0.20216
 O542 O 0.20607 0.48900 0.17617
 Cu543 Cu 0.16664 0.50627 0.16390
 Cu544 Cu 0.19380 0.50794 0.19142
 C545 C 0.19976 0.48229 0.16013
 C546 C 0.16050 0.53165 0.19538
 C547 C 0.19720 0.53351 0.15954
 C548 C 0.16307 0.48059 0.19548
 O549 O 0.81678 0.51521 0.15301
 O550 O 0.84362 0.47701 0.17980
 O551 O 0.81721 0.47690 0.15245
 O552 O 0.84326 0.51486 0.18000
 O553 O 0.81990 0.51479 0.20220
 O554 O 0.79392 0.47594 0.17468
 O555 O 0.82056 0.47635 0.20229
 O556 O 0.79322 0.51447 0.17497
 Cu557 Cu 0.83248 0.49600 0.16403
 Cu558 Cu 0.80450 0.49527 0.19076
 C559 C 0.80047 0.52137 0.15938
 C560 C 0.83696 0.47048 0.19578
 C561 C 0.80113 0.46999 0.15874
 C562 C 0.83618 0.52120 0.19581
 O563 O 0.15763 0.47365 0.81776
 O564 O 0.18546 0.51322 0.84171
 O565 O 0.15784 0.51152 0.81580
 O566 O 0.18491 0.47499 0.84432
 O567 O 0.20733 0.47286 0.82131
 O568 O 0.18053 0.51075 0.79296
 O569 O 0.20844 0.51112 0.81924
 O570 O 0.17990 0.47221 0.79454
 Cu571 Cu 0.16926 0.49346 0.83222
 Cu572 Cu 0.19632 0.49156 0.80468
 C573 C 0.16379 0.46648 0.80189
 C574 C 0.20178 0.51875 0.83470
 C575 C 0.16441 0.51731 0.79954
 C576 C 0.20073 0.46777 0.83784
 C577 C 0.27717 0.39137 0.08038
 N578 N 0.29591 0.38631 0.08483
 N579 N 0.30666 0.37591 0.07236
 C580 C 0.29906 0.37023 0.05500
 N581 N 0.28028 0.37515 0.05069
 N582 N 0.26956 0.38551 0.06314
 C583 C 0.26545 0.40366 0.09348
 N584 N 0.24696 0.40889 0.08838
 N585 N 0.23644 0.42072 0.09967
 C586 C 0.24398 0.42779 0.11650
 N587 N 0.26244 0.42248 0.12172
 N588 N 0.27299 0.41062 0.11039
 C589 C 0.23243 0.44148 0.12837
 N590 N 0.23962 0.44894 0.14523
 N591 N 0.22918 0.46182 0.15553
 C592 C 0.21122 0.46771 0.14929
 N593 N 0.20406 0.46018 0.13249
 N594 N 0.21445 0.44731 0.12224
 C595 C 0.72851 0.61599 0.07821
 N596 N 0.70926 0.61990 0.08132
 N597 N 0.69897 0.63025 0.06838
 C598 C 0.70755 0.63703 0.05186
 N599 N 0.72687 0.63337 0.04894
 N600 N 0.73715 0.62303 0.06186
 C601 C 0.73962 0.60340 0.09166
 N602 N 0.75845 0.59854 0.08762
 N603 N 0.76830 0.58623 0.09912
 C604 C 0.75970 0.57832 0.11511
 N605 N 0.74090 0.58331 0.11927
 N606 N 0.73103 0.59561 0.10774
 C607 C 0.77040 0.56402 0.12714
 N608 N 0.76215 0.55605 0.14331
 N609 N 0.77176 0.54258 0.15375
 C610 C 0.78993 0.53657 0.14834
 N611 N 0.79817 0.54460 0.13222
 N612 N 0.78859 0.55808 0.12183
 C613 C 0.72757 0.38144 0.91834
 N614 N 0.70842 0.37718 0.91495
 N615 N 0.69792 0.36720 0.92803
 C616 C 0.70621 0.36118 0.94499
 N617 N 0.72539 0.36531 0.94826
 N618 N 0.73586 0.37523 0.93518
 C619 C 0.73902 0.39339 0.90461
 N620 N 0.75802 0.39771 0.90858
 N621 N 0.76828 0.40945 0.89688
 C622 C 0.75996 0.41734 0.88074
 N623 N 0.74099 0.41289 0.87663
 N624 N 0.73070 0.40111 0.88836
 C625 C 0.77115 0.43127 0.86870
 N626 N 0.76308 0.43989 0.85275
 N627 N 0.77309 0.45334 0.84262
 C628 C 0.79148 0.45865 0.84812
 N629 N 0.79954 0.44991 0.86395
 N630 N 0.78958 0.43647 0.87403
 C631 C 0.27899 0.61076 0.91374
 N632 N 0.29830 0.60727 0.91707
 N633 N 0.30809 0.61767 0.93034
 C634 C 0.29895 0.63203 0.94061
 N635 N 0.27972 0.63566 0.93707
 N636 N 0.26992 0.62519 0.92393
 C637 C 0.26768 0.59839 0.90027
 N638 N 0.24780 0.59909 0.90038
 N639 N 0.23734 0.58719 0.88903
 C640 C 0.24636 0.57423 0.87702
 N641 N 0.26625 0.57366 0.87673
 N642 N 0.27673 0.58548 0.88821
 C643 C 0.23468 0.56045 0.86531
 N644 N 0.24308 0.54963 0.85100
 N645 N 0.23251 0.53663 0.84093
 C646 C 0.21321 0.53386 0.84493
 N647 N 0.20483 0.54471 0.85921
 N648 N 0.21534 0.55782 0.86914
 C649 C 0.08364 0.27772 0.38481
 N650 N 0.07247 0.26853 0.37126
 N651 N 0.05898 0.27848 0.36131
 C652 C 0.05608 0.29798 0.36463
 N653 N 0.06726 0.30721 0.37817
 N654 N 0.08085 0.29726 0.38805
 C655 C 0.09778 0.26640 0.39638
 N656 N 0.11046 0.27560 0.40859
 N657 N 0.12261 0.26514 0.41973
 C658 C 0.12242 0.24512 0.41912
 N659 N 0.10981 0.23596 0.40684
 N660 N 0.09778 0.24641 0.39562
 C661 C 0.13465 0.23345 0.43236
 N662 N 0.13102 0.21393 0.43483
 N663 N 0.14116 0.20344 0.44773
 C664 C 0.15544 0.21204 0.45851
 N665 N 0.15929 0.23152 0.45587
 N666 N 0.14902 0.24207 0.44306
 C667 C 0.07805 0.72366 0.61201
 N668 N 0.08469 0.71392 0.62796
 N669 N 0.07217 0.70469 0.63979
 C670 C 0.05261 0.70476 0.63600
 N671 N 0.04613 0.71427 0.61987
 N672 N 0.05857 0.72361 0.60818
 C673 C 0.09136 0.73476 0.59931
 N674 N 0.08388 0.74809 0.58662
 N675 N 0.09563 0.75850 0.57509
 C676 C 0.11531 0.75588 0.57568
 N677 N 0.12287 0.74246 0.58831
 N678 N 0.11109 0.73215 0.60002
 C679 C 0.12789 0.76750 0.56269
 N680 N 0.14677 0.76229 0.55917
 N681 N 0.15764 0.77261 0.54662
 C682 C 0.15002 0.78858 0.53735
 N683 N 0.13124 0.79383 0.54107
 N684 N 0.12037 0.78346 0.55344
 C685 C 0.91586 0.71950 0.39052
 N686 N 0.92505 0.72876 0.37558
 N687 N 0.93834 0.71932 0.36496
 C688 C 0.94304 0.70030 0.36898
 N689 N 0.93379 0.69099 0.38386
 N690 N 0.92039 0.70040 0.39441
 C691 C 0.90207 0.73037 0.40283
 N692 N 0.89102 0.72092 0.41637
 N693 N 0.87923 0.73106 0.42810
 C694 C 0.87820 0.75102 0.42677
 N695 N 0.88918 0.76043 0.41318
 N696 N 0.90083 0.75029 0.40137
 C697 C 0.86632 0.76251 0.44042
 N698 N 0.86923 0.78223 0.44200
 N699 N 0.85923 0.79274 0.45490
 C700 C 0.84580 0.78398 0.46661
 N701 N 0.84268 0.76426 0.46492
 N702 N 0.85285 0.75368 0.45211
 C703 C 0.91747 0.27837 0.60774
 N704 N 0.92186 0.29759 0.60422
 N705 N 0.93522 0.30694 0.61494
 C706 C 0.94456 0.29745 0.62966
 N707 N 0.93997 0.27831 0.63332
 N708 N 0.92674 0.26893 0.62252
 C709 C 0.90371 0.26759 0.59521
 N710 N 0.90289 0.24760 0.59595
 N711 N 0.89120 0.23763 0.58398
 C712 C 0.87975 0.24726 0.57093
 N713 N 0.88039 0.26728 0.57032
 N714 N 0.89223 0.27726 0.58219
 C715 C 0.86764 0.23604 0.55718
 N716 N 0.85351 0.24500 0.54642
 N717 N 0.84300 0.23472 0.53359
 C718 C 0.84641 0.21518 0.53095
 N719 N 0.86053 0.20627 0.54171
 N720 N 0.87087 0.21648 0.55464
 C721 C 0.39335 0.07576 0.27869
 N722 N 0.38673 0.05882 0.27053
 N723 N 0.37676 0.04570 0.28102
 C724 C 0.37306 0.04901 0.30009
 N725 N 0.37959 0.06602 0.30826
 N726 N 0.38959 0.07915 0.29775
 C727 C 0.40478 0.08984 0.26705
 N728 N 0.41207 0.10664 0.27499
 N729 N 0.42296 0.11898 0.26440
 C730 C 0.42692 0.11493 0.24551
 N731 N 0.41952 0.09820 0.23758
 N732 N 0.40865 0.08590 0.24814
 C733 C 0.43970 0.12781 0.23391
 N734 N 0.44447 0.12263 0.21551
 N735 N 0.45684 0.13358 0.20514
 C736 C 0.46488 0.15017 0.21274
 N737 N 0.45998 0.15551 0.23110
 N738 N 0.44761 0.14450 0.24152
 C739 C 0.60793 0.07959 0.72276
 N740 N 0.60313 0.06041 0.71993
 N741 N 0.61508 0.04850 0.71026
 C742 C 0.63245 0.05518 0.70322
 N743 N 0.63724 0.07445 0.70599
 N744 N 0.62516 0.08647 0.71552
 C745 C 0.59481 0.09227 0.73407
 N746 N 0.59649 0.11224 0.73365
 N747 N 0.58438 0.12346 0.74405
 C748 C 0.57034 0.11507 0.75537
 N749 N 0.56877 0.09513 0.75582
 N750 N 0.58071 0.08396 0.74530
 C751 C 0.55703 0.12709 0.76714
 N752 N 0.54669 0.11856 0.78174
 N753 N 0.53435 0.12915 0.79240
 C754 C 0.53172 0.14863 0.78874
 N755 N 0.54202 0.15721 0.77409
 N756 N 0.55454 0.14664 0.76352
 C757 C 0.39023 0.92101 0.71979
 N758 N 0.37086 0.92211 0.72410
 N759 N 0.35939 0.93510 0.71503
 C760 C 0.36682 0.94725 0.70115
 N761 N 0.38610 0.94577 0.69654
 N762 N 0.39762 0.93303 0.70582
 C763 C 0.40330 0.90818 0.73097
 N764 N 0.42210 0.91380 0.73421
 N765 N 0.43390 0.90280 0.74516
 C766 C 0.42742 0.88561 0.75299
 N767 N 0.40868 0.87982 0.74956
 N768 N 0.39675 0.89103 0.73888
 C769 C 0.44042 0.87393 0.76539
 N770 N 0.43946 0.85392 0.76561
 N771 N 0.45182 0.84345 0.77653
 C772 C 0.46527 0.85268 0.78788
 N773 N 0.46605 0.87267 0.78781
 N774 N 0.45395 0.88310 0.77664
 C775 C 0.61054 0.91969 0.27195
 N776 N 0.60515 0.93869 0.27485
 N777 N 0.61626 0.95072 0.28539
 C778 C 0.63336 0.94435 0.29330
 N779 N 0.63882 0.92532 0.29030
 N780 N 0.62757 0.91318 0.27990
 C781 C 0.59796 0.90665 0.26036
 N782 N 0.59984 0.88672 0.26117
 N783 N 0.58787 0.87512 0.25095
 C784 C 0.57374 0.88307 0.23945
 N785 N 0.57201 0.90298 0.23856
 N786 N 0.58381 0.91454 0.24889
 C787 C 0.56029 0.87059 0.22822
 N788 N 0.54921 0.87872 0.21394
 N789 N 0.53654 0.86777 0.20396
 C790 C 0.53432 0.84830 0.20801
 N791 N 0.54538 0.84011 0.22232
 N792 N 0.55821 0.85106 0.23220
 C793 C 0.39013 0.27423 0.93019
 N794 N 0.39022 0.26897 0.94918
 N795 N 0.38107 0.27995 0.96233
 C796 C 0.37139 0.29665 0.95711
 N797 N 0.37122 0.30177 0.93798
 N798 N 0.38046 0.29084 0.92480
 C799 C 0.40067 0.26221 0.91591
 N800 N 0.40278 0.26834 0.89724
 N801 N 0.41292 0.25757 0.88458
 C802 C 0.42122 0.24025 0.89015
 N803 N 0.41897 0.23410 0.90878
 N804 N 0.40891 0.24489 0.92142
 C805 C 0.43303 0.22858 0.87659
 N806 N 0.44050 0.21096 0.88230
 N807 N 0.45193 0.20061 0.87047
 C808 C 0.45636 0.20750 0.85249
 N809 N 0.44880 0.22508 0.84669
 N810 N 0.43730 0.23543 0.85853
 C811 C 0.61405 0.73031 0.92551
 N812 N 0.62226 0.71284 0.92051
 N813 N 0.63200 0.70217 0.93362
 C814 C 0.63384 0.70845 0.95229
 N815 N 0.62560 0.72601 0.95712
 N816 N 0.61595 0.73671 0.94404
 C817 C 0.60288 0.74203 0.91139
 N818 N 0.59572 0.75993 0.91650
 N819 N 0.58502 0.77044 0.90407
 C820 C 0.58104 0.76344 0.88606
 N821 N 0.58827 0.74556 0.88087
 N822 N 0.59904 0.73505 0.89331
 C823 C 0.56848 0.77480 0.87284
 N824 N 0.56284 0.76735 0.85542
 N825 N 0.55065 0.77742 0.84396
 C826 C 0.54372 0.79530 0.84952
 N827 N 0.54950 0.80279 0.86685
 N828 N 0.56164 0.79273 0.87830
 C829 C 0.38727 0.72335 0.07079
 N830 N 0.38939 0.72764 0.05169
 N831 N 0.37902 0.71807 0.03835
 C832 C 0.36588 0.70387 0.04339
 N833 N 0.36391 0.69951 0.06262
 N834 N 0.37440 0.70901 0.07605
 C835 C 0.39864 0.73449 0.08522
 N836 N 0.39958 0.72880 0.10414
 N837 N 0.41024 0.73909 0.11687
 C838 C 0.42017 0.75549 0.11111
 N839 N 0.41910 0.76116 0.09225
 N840 N 0.40860 0.75084 0.07955
 C841 C 0.43226 0.76700 0.12468
 N842 N 0.43986 0.78452 0.11882
 N843 N 0.45151 0.79486 0.13047
 C844 C 0.45611 0.78807 0.14844
 N845 N 0.44845 0.77056 0.15443
 N846 N 0.43666 0.76022 0.14276
 C847 C 0.61508 0.26966 0.07436
 N848 N 0.61979 0.28886 0.07749
 N849 N 0.62907 0.29931 0.06388
 C850 C 0.63392 0.29096 0.04664
 N851 N 0.62934 0.27172 0.04361
 N852 N 0.62007 0.26128 0.05720
 C853 C 0.60421 0.25823 0.08895
 N854 N 0.59912 0.23924 0.08532
 N855 N 0.58857 0.22899 0.09810
 C856 C 0.58272 0.23734 0.11501
 N857 N 0.58792 0.25630 0.11874
 N858 N 0.59848 0.26657 0.10593
 C859 C 0.57018 0.22623 0.12849
 N860 N 0.56378 0.23444 0.14529
 N861 N 0.55155 0.22460 0.15691
 C862 C 0.54527 0.20623 0.15211
 N863 N 0.55181 0.19799 0.13540
 N864 N 0.56405 0.20779 0.12382
 C865 C 0.26724 0.07534 0.61572
 N866 N 0.28349 0.08091 0.62567
 N867 N 0.29421 0.06758 0.63518
 C868 C 0.28924 0.04813 0.63496
 N869 N 0.27281 0.04275 0.62512
 N870 N 0.26204 0.05604 0.61572
 C871 C 0.25577 0.08961 0.60440
 N872 N 0.23887 0.08386 0.59570
 N873 N 0.22886 0.09631 0.58452
 C874 C 0.23541 0.11498 0.58154
 N875 N 0.25226 0.12082 0.59034
 N876 N 0.26226 0.10836 0.60161
 C877 C 0.22488 0.12813 0.56818
 N878 N 0.23238 0.14599 0.56316
 N879 N 0.22328 0.15730 0.55012
 C880 C 0.20634 0.15116 0.54169
 N881 N 0.19877 0.13340 0.54687
 N882 N 0.20788 0.12209 0.55985
 C883 C 0.72553 0.07207 0.38656
 N884 N 0.70717 0.07592 0.38006
 N885 N 0.69621 0.06157 0.37247
 C886 C 0.70284 0.04266 0.37142
 N887 N 0.72155 0.03928 0.37725
 N888 N 0.73260 0.05352 0.38476
 C889 C 0.73734 0.08726 0.39629
 N890 N 0.75569 0.08291 0.40254
 N891 N 0.76611 0.09606 0.41251
 C892 C 0.75858 0.11406 0.41665
 N893 N 0.74027 0.11853 0.41026
 N894 N 0.72984 0.10536 0.40024
 C895 C 0.76978 0.12789 0.42878
 N896 N 0.76218 0.14558 0.43408
 N897 N 0.77206 0.15749 0.44598
 C898 C 0.78987 0.15210 0.45302
 N899 N 0.79750 0.13450 0.44758
 N900 N 0.78765 0.12263 0.43569
 C901 C 0.72764 0.93027 0.60958
 N902 N 0.72866 0.94964 0.60482
 N903 N 0.71875 0.96301 0.61493
 C904 C 0.70753 0.95770 0.63039
 N905 N 0.70647 0.93818 0.63499
 N906 N 0.71626 0.92473 0.62479
 C907 C 0.73898 0.91574 0.59855
 N908 N 0.73574 0.89608 0.60069
 N909 N 0.74609 0.88307 0.59046
 C910 C 0.76016 0.88928 0.57790
 N911 N 0.76342 0.90892 0.57587
 N912 N 0.75299 0.92191 0.58596
 C913 C 0.77149 0.87521 0.56632
 N914 N 0.78731 0.88152 0.55610
 N915 N 0.79729 0.86911 0.54493
 C916 C 0.79178 0.84994 0.54346
 N917 N 0.77600 0.84355 0.55373
 N918 N 0.76607 0.85596 0.56503
 C919 C 0.26942 0.92312 0.38358
 N920 N 0.28627 0.91761 0.37467
 N921 N 0.29732 0.93091 0.36547
 C922 C 0.29208 0.95027 0.36495
 N923 N 0.27506 0.95558 0.37373
 N924 N 0.26397 0.94232 0.38282
 C925 C 0.25761 0.90890 0.39465
 N926 N 0.24026 0.91455 0.40243
 N927 N 0.22991 0.90217 0.41341
 C928 C 0.23655 0.88369 0.41710
 N929 N 0.25385 0.87794 0.40921
 N930 N 0.26419 0.89032 0.39814
 C931 C 0.22554 0.87066 0.43022
 N932 N 0.23287 0.85293 0.43586
 N933 N 0.22323 0.84176 0.44867
 C934 C 0.20593 0.84794 0.45624
 N935 N 0.19856 0.86556 0.45044
 N936 N 0.20819 0.87672 0.43769
 C937 C 0.07405 0.38259 0.72715
 N938 N 0.05466 0.38600 0.72956
 N939 N 0.04146 0.37627 0.71908
 C940 C 0.04692 0.36252 0.70582
 N941 N 0.06644 0.35919 0.70345
 N942 N 0.07975 0.36905 0.71383
 C943 C 0.08837 0.39356 0.73887
 N944 N 0.10776 0.39361 0.73439
 N945 N 0.12042 0.40419 0.74487
 C946 C 0.11414 0.41494 0.76028
 N947 N 0.09481 0.41472 0.76481
 N948 N 0.08217 0.40429 0.75427
 C949 C 0.12771 0.42726 0.77160
 N950 N 0.12145 0.43602 0.78816
 N951 N 0.13318 0.44808 0.79802
 C952 C 0.15161 0.45194 0.79166
 N953 N 0.15796 0.44309 0.77515
 N954 N 0.14624 0.43090 0.76532
 C955 C 0.07113 0.61436 0.27135
 N956 N 0.05170 0.61104 0.26904
 N957 N 0.03865 0.62091 0.27950
 C958 C 0.04432 0.63471 0.29265
 N959 N 0.06389 0.63796 0.29492
 N960 N 0.07704 0.62797 0.28454
 C961 C 0.08527 0.60326 0.25963
 N962 N 0.10473 0.60345 0.26382
 N963 N 0.11726 0.59284 0.25328
 C964 C 0.11077 0.58181 0.23813
 N965 N 0.09135 0.58178 0.23391
 N966 N 0.07885 0.59225 0.24449
 C967 C 0.12422 0.56962 0.22667
 N968 N 0.11769 0.56058 0.21034
 N969 N 0.12943 0.54881 0.20022
 C970 C 0.14813 0.54554 0.20609
 N971 N 0.15473 0.55464 0.22239
 N972 N 0.14299 0.56653 0.23248
 C973 C 0.92680 0.39063 0.27470
 N974 N 0.92135 0.37654 0.28767
 N975 N 0.93486 0.36610 0.29723
 C976 C 0.95435 0.36933 0.29425
 N977 N 0.95955 0.38382 0.28159
 N978 N 0.94614 0.39414 0.27196
 C979 C 0.91238 0.40158 0.26309
 N980 N 0.91857 0.41236 0.24765
 N981 N 0.90586 0.42231 0.23676
 C982 C 0.88646 0.42199 0.24094
 N983 N 0.88018 0.41126 0.25645
 N984 N 0.89292 0.40113 0.26729
 C985 C 0.87285 0.43349 0.22887
 N986 N 0.85414 0.43704 0.23459
 N987 N 0.84242 0.44849 0.22389
 C988 C 0.84900 0.45664 0.20705
 N989 N 0.86760 0.45286 0.20128
 N990 N 0.87930 0.44155 0.21200
 C991 C 0.92709 0.61711 0.73516
 N992 N 0.94650 0.61355 0.73715
 N993 N 0.95957 0.62390 0.72706
 C994 C 0.95394 0.63845 0.71465
 N995 N 0.93439 0.64196 0.71273
 N996 N 0.92122 0.63148 0.72270
 C997 C 0.91292 0.60540 0.74636
 N998 N 0.89356 0.60521 0.74174
 N999 N 0.88105 0.59391 0.75169
 C1000 C 0.88745 0.58256 0.76670
 N1001 N 0.90676 0.58294 0.77138
 N1002 N 0.91925 0.59407 0.76136
 C1003 C 0.87409 0.56949 0.77742
 N1004 N 0.88035 0.56045 0.79388
 N1005 N 0.86886 0.54771 0.80322
 C1006 C 0.85069 0.54343 0.79641
 N1007 N 0.84433 0.55255 0.77998
 N1008 N 0.85581 0.56542 0.77068
 C1009 C 0.72167 0.61003 0.92509
 N1010 N 0.72564 0.62958 0.92668
 N1011 N 0.71620 0.64058 0.93966
 C1012 C 0.70223 0.63251 0.95128
 N1013 N 0.69807 0.61302 0.94941
 N1014 N 0.70773 0.60195 0.93668
 C1015 C 0.73301 0.59757 0.91188
 N1016 N 0.73655 0.57845 0.91655
 N1017 N 0.74750 0.56721 0.90506
 C1018 C 0.75504 0.57459 0.88832
 N1019 N 0.75132 0.59365 0.88350
 N1020 N 0.74064 0.60501 0.89519
 C1021 C 0.76733 0.56216 0.87595
 N1022 N 0.76744 0.56449 0.85636
 N1023 N 0.77829 0.55274 0.84522
 C1024 C 0.78969 0.53853 0.85334
 N1025 N 0.78973 0.53638 0.87292
 N1026 N 0.77863 0.54787 0.88402
 C1027 C 0.27791 0.38744 0.92849
 N1028 N 0.27266 0.38787 0.94746
 N1029 N 0.28350 0.37885 0.96084
 C1030 C 0.30005 0.36894 0.95592
 N1031 N 0.30517 0.36842 0.93682
 N1032 N 0.29438 0.37754 0.92338
 C1033 C 0.26599 0.39786 0.91398
 N1034 N 0.27209 0.39981 0.89529
 N1035 N 0.26138 0.40990 0.88246
 C1036 C 0.24417 0.41830 0.88786
 N1037 N 0.23806 0.41619 0.90649
 N1038 N 0.24877 0.40619 0.91930
 C1039 C 0.23256 0.43016 0.87420
 N1040 N 0.21517 0.43783 0.87994
 N1041 N 0.20491 0.44944 0.86813
 C1042 C 0.21164 0.45386 0.85011
 N1043 N 0.22898 0.44608 0.84424
 N1044 N 0.23926 0.43441 0.85608
 C1045 C 0.27182 0.61887 0.07176
 N1046 N 0.29055 0.62450 0.07535
 N1047 N 0.30162 0.63196 0.06115
 C1048 C 0.29470 0.63368 0.04267
 N1049 N 0.27564 0.62880 0.03957
 N1050 N 0.26449 0.62145 0.05367
 C1051 C 0.25991 0.60897 0.08664
 N1052 N 0.24125 0.60348 0.08246
 N1053 N 0.23077 0.59305 0.09514
 C1054 C 0.23855 0.58765 0.11249
 N1055 N 0.25715 0.59334 0.11682
 N1056 N 0.26765 0.60383 0.10411
 C1057 C 0.22738 0.57474 0.12560
 N1058 N 0.23521 0.56819 0.14257
 N1059 N 0.22543 0.55538 0.15367
 C1060 C 0.20752 0.54864 0.14816
 N1061 N 0.19965 0.55534 0.13130
 N1062 N 0.20939 0.56815 0.12024
 C1063 C 0.72786 0.38279 0.07144
 N1064 N 0.71096 0.37362 0.07659
 N1065 N 0.70049 0.36376 0.06344
 C1066 C 0.70639 0.36280 0.04459
 N1067 N 0.72341 0.37194 0.03963
 N1068 N 0.73392 0.38171 0.05274
 C1069 C 0.73927 0.39421 0.08557
 N1070 N 0.75673 0.40218 0.08031
 N1071 N 0.76689 0.41320 0.09271
 C1072 C 0.75997 0.41673 0.11083
 N1073 N 0.74254 0.40869 0.11617
 N1074 N 0.73238 0.39758 0.10376
 C1075 C 0.77094 0.42972 0.12395
 N1076 N 0.76351 0.43511 0.14145
 N1077 N 0.77323 0.44771 0.15278
 C1078 C 0.79072 0.45531 0.14700
 N1079 N 0.79818 0.44977 0.12961
 N1080 N 0.78847 0.43723 0.11830
 C1081 C 0.92765 0.73127 0.62096
 N1082 N 0.92152 0.71887 0.63524
 N1083 N 0.93449 0.70898 0.64600
 C1084 C 0.95410 0.71094 0.64288
 N1085 N 0.96000 0.72332 0.62846
 N1086 N 0.94713 0.73331 0.61781
 C1087 C 0.91367 0.74224 0.60884
 N1088 N 0.92025 0.75662 0.59674
 N1089 N 0.90788 0.76638 0.58528
 C1090 C 0.88847 0.76205 0.58538
 N1091 N 0.88184 0.74768 0.59751
 N1092 N 0.89421 0.73799 0.60909
 C1093 C 0.87515 0.77245 0.57209
 N1094 N 0.85641 0.76622 0.56948
 N1095 N 0.84474 0.77524 0.55672
 C1096 C 0.85136 0.79087 0.54621
 N1097 N 0.87003 0.79719 0.54897
 N1098 N 0.88171 0.78812 0.56163
 C1099 C 0.92387 0.27421 0.37817
 N1100 N 0.92054 0.29321 0.37290
 N1101 N 0.93486 0.30408 0.36513
 C1102 C 0.95323 0.29666 0.36272
 N1103 N 0.95599 0.27732 0.36713
 N1104 N 0.94177 0.26638 0.37481
 C1105 C 0.90905 0.26257 0.38864
 N1106 N 0.91321 0.24385 0.39428
 N1107 N 0.90070 0.23367 0.40524
 C1108 C 0.88354 0.24182 0.41103
 N1109 N 0.87922 0.26048 0.40520
 N1110 N 0.89176 0.27069 0.39421
 C1111 C 0.87061 0.23095 0.42436
 N1112 N 0.85357 0.23895 0.43076
 N1113 N 0.84252 0.22941 0.44371
 C1114 C 0.84815 0.21156 0.45077
 N1115 N 0.86511 0.20354 0.44427
 N1116 N 0.87612 0.21304 0.43131
 C1117 C 0.07266 0.27843 0.60522
 N1118 N 0.07752 0.28438 0.62341
 N1119 N 0.06439 0.29349 0.63456
 C1120 C 0.04598 0.29708 0.62789
 N1121 N 0.04135 0.29149 0.60953
 N1122 N 0.05438 0.28222 0.59848
 C1123 C 0.08650 0.26723 0.59325
 N1124 N 0.07979 0.25654 0.57800
 N1125 N 0.09204 0.24584 0.56734
 C1126 C 0.11149 0.24558 0.57139
 N1127 N 0.11828 0.25640 0.58655
 N1128 N 0.10596 0.26695 0.59739
 C1129 C 0.12475 0.23359 0.55952
 N1130 N 0.14437 0.23703 0.55931
 N1131 N 0.15613 0.22639 0.54798
 C1132 C 0.14869 0.21179 0.53666
 N1133 N 0.12912 0.20827 0.53704
 N1134 N 0.11737 0.21903 0.54818
 C1135 C 0.07147 0.71911 0.39259
 N1136 N 0.07616 0.71291 0.37445
 N1137 N 0.06287 0.70375 0.36348
 C1138 C 0.04447 0.70035 0.37028
 N1139 N 0.04003 0.70616 0.38860
 N1140 N 0.05320 0.71549 0.39947
 C1141 C 0.08537 0.73054 0.40428
 N1142 N 0.07868 0.74182 0.41908
 N1143 N 0.09097 0.75281 0.42945
 C1144 C 0.11044 0.75280 0.42555
 N1145 N 0.11723 0.74138 0.41085
 N1146 N 0.10487 0.73054 0.40029
 C1147 C 0.12367 0.76515 0.43710
 N1148 N 0.14318 0.76132 0.43815
 N1149 N 0.15483 0.77225 0.44939
 C1150 C 0.14738 0.78754 0.45973
 N1151 N 0.12794 0.79146 0.45846
 N1152 N 0.11630 0.78042 0.44743
 C1153 C 0.61394 0.92838 0.72189
 N1154 N 0.63107 0.92292 0.71346
 N1155 N 0.64204 0.93615 0.70403
 C1156 C 0.63621 0.95528 0.70259
 N1157 N 0.61888 0.96052 0.71072
 N1158 N 0.60805 0.94740 0.72027
 C1159 C 0.60216 0.91446 0.73337
 N1160 N 0.58860 0.92152 0.74592
 N1161 N 0.57787 0.90928 0.75667
 C1162 C 0.58012 0.88948 0.75516
 N1163 N 0.59361 0.88232 0.74251
 N1164 N 0.60454 0.89462 0.73187
 C1165 C 0.56796 0.87638 0.76717
 N1166 N 0.56535 0.85704 0.76266
 N1167 N 0.55338 0.84573 0.77326
 C1168 C 0.54381 0.85334 0.78883
 N1169 N 0.54666 0.87257 0.79340
 N1170 N 0.55843 0.88388 0.78274
 C1171 C 0.38730 0.92051 0.27851
 N1172 N 0.36861 0.92547 0.27391
 N1173 N 0.35904 0.93898 0.28422
 C1174 C 0.36787 0.94823 0.29937
 N1175 N 0.38662 0.94329 0.30387
 N1176 N 0.39610 0.92959 0.29373
 C1177 C 0.39808 0.90606 0.26683
 N1178 N 0.41389 0.89659 0.27431
 N1179 N 0.42409 0.88398 0.26350
 C1180 C 0.41899 0.88059 0.24474
 N1181 N 0.40319 0.89008 0.23726
 N1182 N 0.39283 0.90248 0.24815
 C1183 C 0.43100 0.86766 0.23252
 N1184 N 0.43106 0.86989 0.21293
 N1185 N 0.44296 0.85910 0.20192
 C1186 C 0.45501 0.84548 0.21008
 N1187 N 0.45472 0.84304 0.22965
 N1188 N 0.44302 0.85402 0.24068
 C1189 C 0.61088 0.07102 0.28046
 N1190 N 0.60539 0.05181 0.28094
 N1191 N 0.61586 0.03861 0.29076
 C1192 C 0.63241 0.04400 0.30034
 N1193 N 0.63779 0.06333 0.30009
 N1194 N 0.62719 0.07662 0.29036
 C1195 C 0.59963 0.08508 0.26865
 N1196 N 0.60196 0.10489 0.27060
 N1197 N 0.59157 0.11734 0.25964
 C1198 C 0.57870 0.11039 0.24623
 N1199 N 0.57650 0.09061 0.24426
 N1200 N 0.58671 0.07821 0.25531
 C1201 C 0.56701 0.12375 0.23407
 N1202 N 0.55735 0.11655 0.21839
 N1203 N 0.54598 0.12821 0.20767
 C1204 C 0.54371 0.14750 0.21229
 N1205 N 0.55343 0.15479 0.22794
 N1206 N 0.56497 0.14313 0.23860
 C1207 C 0.37707 0.07585 0.73046
 N1208 N 0.37641 0.05666 0.73597
 N1209 N 0.36753 0.04329 0.72494
 C1210 C 0.35888 0.04847 0.70790
 N1211 N 0.35919 0.06785 0.70262
 N1212 N 0.36821 0.08125 0.71362
 C1213 C 0.38813 0.09010 0.74217
 N1214 N 0.39206 0.10855 0.73545
 N1215 N 0.40334 0.12082 0.74567
 C1216 C 0.41102 0.11506 0.76298
 N1217 N 0.40687 0.09672 0.76976
 N1218 N 0.39568 0.08447 0.75954
 C1219 C 0.42453 0.12781 0.77385
 N1220 N 0.43193 0.12153 0.79107
 N1221 N 0.44512 0.13229 0.80055
 C1222 C 0.45147 0.14973 0.79317
 N1223 N 0.44397 0.15615 0.77600
 N1224 N 0.43071 0.14537 0.76650
 C1225 C 0.61472 0.73111 0.07786
 N1226 N 0.61988 0.71215 0.08171
 N1227 N 0.63025 0.70182 0.06889
 C1228 C 0.63582 0.71007 0.05176
 N1229 N 0.63085 0.72910 0.04806
 N1230 N 0.62050 0.73941 0.06086
 C1231 C 0.60221 0.74219 0.09131
 N1232 N 0.59631 0.76073 0.08674
 N1233 N 0.58413 0.77050 0.09833
 C1234 C 0.57740 0.76209 0.11494
 N1235 N 0.58342 0.74359 0.11962
 N1236 N 0.59560 0.73380 0.10800
 C1237 C 0.56325 0.77257 0.12720
 N1238 N 0.55624 0.76419 0.14373
 N1239 N 0.54287 0.77346 0.15442
 C1240 C 0.53599 0.79142 0.14895
 N1241 N 0.54306 0.79983 0.13247
 N1242 N 0.55645 0.79058 0.12180
 C1243 C 0.39095 0.27455 0.08257
 N1244 N 0.38533 0.26672 0.06534
 N1245 N 0.37545 0.27749 0.05248
 C1246 C 0.37078 0.29653 0.05635
 N1247 N 0.37622 0.30435 0.07369
 N1248 N 0.38615 0.29355 0.08657
 C1249 C 0.40275 0.26278 0.09616
 N1250 N 0.40951 0.27059 0.11303
 N1251 N 0.42097 0.26001 0.12479
 C1252 C 0.42607 0.24126 0.12008
 N1253 N 0.41918 0.23345 0.10329
 N1254 N 0.40774 0.24400 0.09156
 C1255 C 0.43942 0.22976 0.13241
 N1256 N 0.44513 0.21148 0.12681
 N1257 N 0.45784 0.20119 0.13742
 C1258 C 0.46532 0.20878 0.15406
 N1259 N 0.45953 0.22702 0.15978
 N1260 N 0.44682 0.23734 0.14913
 C1261 C 0.61183 0.26864 0.92006
 N1262 N 0.61623 0.28788 0.91660
 N1263 N 0.62635 0.29832 0.92956
 C1264 C 0.63239 0.28992 0.94646
 N1265 N 0.62812 0.27064 0.94981
 N1266 N 0.61802 0.26021 0.93686
 C1267 C 0.59990 0.25727 0.90632
 N1268 N 0.59514 0.23826 0.91033
 N1269 N 0.58355 0.22810 0.89843
 C1270 C 0.57631 0.23656 0.88206
 N1271 N 0.58120 0.25554 0.87794
 N1272 N 0.59279 0.26572 0.88986
 C1273 C 0.56265 0.22557 0.86965
 N1274 N 0.55482 0.23394 0.85348
 N1275 N 0.54163 0.22420 0.84288
 C1276 C 0.53582 0.20576 0.84811
 N1277 N 0.54377 0.19738 0.86418
 N1278 N 0.55696 0.20709 0.87474
 C1279 C 0.38779 0.73234 0.92066
 N1280 N 0.37150 0.72290 0.91415
 N1281 N 0.36054 0.71221 0.92629
 C1282 C 0.36558 0.71035 0.94532
 N1283 N 0.38192 0.71981 0.95169
 N1284 N 0.39273 0.73066 0.93965
 C1285 C 0.40013 0.74408 0.90753
 N1286 N 0.41323 0.75711 0.91496
 N1287 N 0.42491 0.76748 0.90330
 C1288 C 0.42411 0.76506 0.88377
 N1289 N 0.41102 0.75200 0.87629
 N1290 N 0.39916 0.74176 0.88797
 C1291 C 0.43757 0.77615 0.87119
 N1292 N 0.44089 0.77055 0.85256
 N1293 N 0.45385 0.78022 0.84159
 C1294 C 0.46380 0.79595 0.84883
 N1295 N 0.46032 0.80163 0.86738
 N1296 N 0.44752 0.79187 0.87837
 C1297 C 0.71937 0.91112 0.39118
 N1298 N 0.72835 0.92183 0.37708
 N1299 N 0.71850 0.93542 0.36711
 C1300 C 0.69930 0.93887 0.37089
 N1301 N 0.69024 0.92810 0.38492
 N1302 N 0.70010 0.91441 0.39485
 C1303 C 0.73079 0.89720 0.40298
 N1304 N 0.72197 0.88510 0.41609
 N1305 N 0.73264 0.87331 0.42746
 C1306 C 0.75250 0.87332 0.42619
 N1307 N 0.76127 0.88532 0.41301
 N1308 N 0.75062 0.89698 0.40158
 C1309 C 0.76450 0.86151 0.43956
 N1310 N 0.78398 0.86520 0.44117
 N1311 N 0.79488 0.85538 0.45397
 C1312 C 0.78676 0.84135 0.46553
 N1313 N 0.76730 0.83745 0.46379
 N1314 N 0.75634 0.84742 0.45108
 C1315 C 0.27118 0.92087 0.61138
 N1316 N 0.29026 0.91745 0.61586
 N1317 N 0.30044 0.93049 0.62628
 C1318 C 0.29188 0.94739 0.63256
 N1319 N 0.27278 0.95069 0.62816
 N1320 N 0.26263 0.93768 0.61777
 C1321 C 0.26003 0.90711 0.59920
 N1322 N 0.24124 0.91131 0.59429
 N1323 N 0.23118 0.89939 0.58263
 C1324 C 0.23952 0.88280 0.57543
 N1325 N 0.25829 0.87849 0.58043
 N1326 N 0.26838 0.89045 0.59211
 C1327 C 0.22849 0.87025 0.56196
 N1328 N 0.23641 0.85349 0.55460
 N1329 N 0.22643 0.84257 0.54189
 C1330 C 0.20821 0.84806 0.53609
 N1331 N 0.20030 0.86476 0.54352
 N1332 N 0.21024 0.87563 0.55622
 C1333 C 0.27663 0.07837 0.38881
 N1334 N 0.26798 0.06162 0.38228
 N1335 N 0.27821 0.04834 0.37237
 C1336 C 0.29751 0.05128 0.36858
 N1337 N 0.30616 0.06815 0.37494
 N1338 N 0.29590 0.08145 0.38489
 C1339 C 0.26534 0.09235 0.40060
 N1340 N 0.27376 0.10886 0.40804
 N1341 N 0.26350 0.12096 0.41940
 C1342 C 0.24449 0.11693 0.42372
 N1343 N 0.23609 0.10050 0.41617
 N1344 N 0.24631 0.08845 0.40483
 C1345 C 0.23317 0.12958 0.43687
 N1346 N 0.21465 0.12437 0.44187
 N1347 N 0.20438 0.13527 0.45423
 C1348 C 0.21220 0.15185 0.46207
 N1349 N 0.23071 0.15719 0.45701
 N1350 N 0.24103 0.14622 0.44464
 C1351 C 0.72443 0.08676 0.60987
 N1352 N 0.70562 0.08182 0.60566
 N1353 N 0.69617 0.06835 0.61626
 C1354 C 0.70515 0.05943 0.63153
 N1355 N 0.72385 0.06463 0.63593
 N1356 N 0.73335 0.07796 0.62524
 C1357 C 0.73537 0.10051 0.59739
 N1358 N 0.75520 0.10146 0.59849
 N1359 N 0.76530 0.11304 0.58646
 C1360 C 0.75594 0.12424 0.57299
 N1361 N 0.73608 0.12349 0.57204
 N1362 N 0.72598 0.11175 0.58396
 C1363 C 0.76724 0.13618 0.55911
 N1364 N 0.75838 0.15019 0.54805
 N1365 N 0.76861 0.16047 0.53498
 C1366 C 0.78802 0.15694 0.53238
 N1367 N 0.79685 0.14295 0.54345
 N1368 N 0.78667 0.13284 0.55664
 C1369 C 0.91969 0.60858 0.27341
 N1370 N 0.91336 0.62493 0.28283
 N1371 N 0.92587 0.63597 0.29300
 C1372 C 0.94511 0.63093 0.29428
 N1373 N 0.95129 0.61445 0.28497
 N1374 N 0.93886 0.60357 0.27467
 C1375 C 0.90638 0.59654 0.26165
 N1376 N 0.91387 0.58366 0.24862
 N1377 N 0.90210 0.57249 0.23787
 C1378 C 0.88237 0.57362 0.23987
 N1379 N 0.87479 0.58647 0.25297
 N1380 N 0.88661 0.59782 0.26362
 C1381 C 0.86976 0.56085 0.22810
 N1382 N 0.85072 0.55756 0.23289
 N1383 N 0.83980 0.54508 0.22252
 C1384 C 0.84753 0.53565 0.20693
 N1385 N 0.86648 0.53915 0.20208
 N1386 N 0.87740 0.55144 0.21251
 C1387 C 0.92283 0.39033 0.72495
 N1388 N 0.91617 0.37397 0.71569
 N1389 N 0.92844 0.36266 0.70558
 C1390 C 0.94776 0.36741 0.70418
 N1391 N 0.95427 0.38387 0.71335
 N1392 N 0.94209 0.39504 0.72359
 C1393 C 0.90972 0.40269 0.73659
 N1394 N 0.91739 0.41579 0.74936
 N1395 N 0.90576 0.42715 0.76003
 C1396 C 0.88600 0.42600 0.75819
 N1397 N 0.87827 0.41295 0.74535
 N1398 N 0.88993 0.40140 0.73479
 C1399 C 0.87345 0.43883 0.76994
 N1400 N 0.85431 0.44172 0.76532
 N1401 N 0.84327 0.45394 0.77579
 C1402 C 0.85096 0.46353 0.79134
 N1403 N 0.87003 0.46049 0.79600
 N1404 N 0.88108 0.44845 0.78545
 C1405 C 0.07864 0.60608 0.72534
 N1406 N 0.08506 0.62247 0.71590
 N1407 N 0.07236 0.63455 0.70718
 C1408 C 0.05281 0.63061 0.70747
 N1409 N 0.04654 0.61406 0.71672
 N1410 N 0.05917 0.60210 0.72555
 C1411 C 0.09222 0.59308 0.73583
 N1412 N 0.08506 0.57982 0.74879
 N1413 N 0.09709 0.56813 0.75872
 C1414 C 0.11674 0.56910 0.75596
 N1415 N 0.12397 0.58227 0.74289
 N1416 N 0.11191 0.59414 0.73305
 C1417 C 0.12966 0.55614 0.76728
 N1418 N 0.14862 0.55303 0.76209
 N1419 N 0.15989 0.54072 0.77234
 C1420 C 0.15261 0.53130 0.78823
 N1421 N 0.13374 0.53458 0.79343
 N1422 N 0.12247 0.54669 0.78312
 C1423 C 0.08086 0.38794 0.26873
 N1424 N 0.07112 0.37285 0.26007
 N1425 N 0.05815 0.36213 0.27002
 C1426 C 0.05430 0.36626 0.28891
 N1427 N 0.06406 0.38134 0.29754
 N1428 N 0.07715 0.39194 0.28766
 C1429 C 0.09468 0.40023 0.25771
 N1430 N 0.10677 0.41301 0.26703
 N1431 N 0.11874 0.42479 0.25703
 C1432 C 0.11895 0.42432 0.23734
 N1433 N 0.10691 0.41148 0.22801
 N1434 N 0.09506 0.39959 0.23802
 C1435 C 0.13123 0.43815 0.22629
 N1436 N 0.12793 0.44113 0.20707
 N1437 N 0.13829 0.45448 0.19723
 C1438 C 0.15245 0.46521 0.20619
 N1439 N 0.15593 0.46207 0.22536
 N1440 N 0.14544 0.44884 0.23525
   
