data_POSCAR
  _audit_creation_date              2014-09-24
  _audit_creation_method            'ToBaCCo'
  _symmetry_space_group_name_H-M    'P1'
  _symmetry_Int_Tables_number       1
  _symmetry_cell_setting            triclinic
  loop_
  _symmetry_equiv_pos_as_xyz
 x,y,z
_cell_length_a 38.7532
_cell_length_b 38.7494
_cell_length_c 38.7185
_cell_angle_alpha 90.045200
_cell_angle_beta 89.940300
_cell_angle_gamma 90.032300
loop_
  _atom_site_label
  _atom_site_type_symbol
  _atom_site_fract_x
  _atom_site_fract_y
  _atom_site_fract_z
C1 C 0.24962 1.10619 -0.01853
 C2 C 0.24692 1.10724 0.01663
 C3 C 0.24819 1.07330 0.02821
 N4 N 0.25227 1.05175 0.00094
 C5 C 0.25348 1.07182 -0.02763
 C6 C 0.24600 1.06272 0.06331
 C7 C 0.24267 1.02744 0.07282
 C8 C 0.22687 1.01618 0.10296
 C9 C 0.23027 0.98112 0.10398
 C10 C 0.24668 0.97135 0.07366
 N11 N 0.25412 0.99981 0.05467
 C12 C 0.25665 0.93715 0.06556
 C13 C 0.26672 0.92654 0.03222
 C14 C 0.27943 0.89412 0.02424
 C15 C 0.28297 0.89308 -0.01089
 C16 C 0.27149 0.92461 -0.02349
 N17 N 0.26227 0.94525 0.00311
 C18 C 0.27164 0.93435 -0.05889
 C19 C 0.27386 0.96955 -0.06924
 C20 C 0.28650 0.98088 -0.10091
 C21 C 0.28307 1.01599 -0.10149
 C22 C 0.26813 1.02563 -0.07044
 N23 N 0.26282 0.99723 -0.05073
 C24 C 0.25987 1.06019 -0.06170
 H25 H 0.24955 1.12852 -0.03529
 H26 H 0.24438 1.13076 0.03140
 H27 H 0.24914 0.99656 -0.02766
 H28 H 0.21414 1.03163 0.12246
 H29 H 0.22160 0.96513 0.12510
 H30 H 0.28560 0.87333 0.04183
 H31 H 0.29378 0.87174 -0.02533
 H32 H 0.29132 1.03257 -0.12241
 H33 H 0.26959 1.00060 0.03269
 H34 H 0.29814 0.96607 -0.12148
 C35 C 0.75302 0.47805 0.60844
 C36 C 0.75452 0.51331 0.60972
 C37 C 0.75238 0.52504 0.57592
 N38 N 0.74868 0.49788 0.55419
 C39 C 0.74924 0.46912 0.57400
 C40 C 0.75100 0.56027 0.56594
 C41 C 0.74871 0.57126 0.53105
 C42 C 0.74006 0.60445 0.52073
 C43 C 0.74226 0.60522 0.48532
 C44 C 0.75251 0.57260 0.47474
 N45 N 0.75660 0.55211 0.50281
 C46 C 0.75915 0.56324 0.43996
 C47 C 0.76463 0.52873 0.42916
 C48 C 0.77632 0.51904 0.39675
 C49 C 0.77457 0.48381 0.39538
 C50 C 0.76296 0.47279 0.42745
 N51 N 0.75665 0.50040 0.44793
 C52 C 0.75506 0.43822 0.43636
 C53 C 0.74550 0.42814 0.47022
 C54 C 0.73034 0.39679 0.47863
 C55 C 0.72731 0.39593 0.51396
 C56 C 0.74107 0.42655 0.52640
 N57 N 0.75210 0.44607 0.49955
 C58 C 0.74425 0.43501 0.56189
 H59 H 0.75389 0.46106 0.63060
 H60 H 0.75609 0.52824 0.63324
 H61 H 0.76678 0.46845 0.50137
 H62 H 0.73302 0.62611 0.53691
 H63 H 0.73707 0.62746 0.46924
 H64 H 0.78472 0.53556 0.37585
 H65 H 0.78059 0.46857 0.37281
 H66 H 0.71623 0.37499 0.52877
 H67 H 0.76762 0.52771 0.50294
 H68 H 0.72241 0.37641 0.46125
 C69 C 0.71339 0.89613 0.98407
 C70 C 0.71132 0.89705 1.01931
 C71 C 0.72647 0.92775 1.02976
 N72 N 0.73612 0.94638 1.00193
 C73 C 0.72816 0.92712 0.97392
 C74 C 0.73349 0.93735 1.06436
 C75 C 0.73876 0.97239 1.07376
 C76 C 0.75199 0.98364 1.10520
 C77 C 0.75183 1.01907 1.10446
 C78 C 0.73892 1.02863 1.07252
 N79 N 0.73094 1.00010 1.05397
 C80 C 0.73312 1.06299 1.06200
 C81 C 0.72786 1.07199 1.02711
 C82 C 0.71433 1.10304 1.01581
 C83 C 0.71640 1.10263 0.98051
 C84 C 0.73114 1.07125 0.97137
 N85 N 0.73791 1.05244 0.99996
 C86 C 0.73976 1.06103 0.93732
 C87 C 0.74796 1.02614 0.92965
 C88 C 0.76771 1.01474 0.90194
 C89 C 0.76695 0.97926 0.90258
 C90 C 0.74771 0.96994 0.93128
 N91 N 0.73647 0.99861 0.94778
 C92 C 0.73814 0.93595 0.94004
 H93 H 0.70522 0.87465 0.96832
 H94 H 0.70039 0.87697 1.03536
 H95 H 0.71871 0.99928 0.96802
 H96 H 0.76114 0.96809 1.12650
 H97 H 0.76049 1.03589 1.12504
 H98 H 0.70396 1.12383 1.03135
 H99 H 0.70773 1.12307 0.96358
 H100 H 0.77919 0.96236 0.88399
 H101 H 0.71784 0.99973 1.03051
 H102 H 0.78132 1.03025 0.88311
 C103 C 0.25092 0.39051 0.48278
 C104 C 0.24818 0.39024 0.51790
 C105 C 0.24910 0.42438 0.52871
 N106 N 0.25150 0.44546 0.50100
 C107 C 0.25242 0.42484 0.47280
 C108 C 0.24639 0.43519 0.56360
 C109 C 0.24336 0.47012 0.57428
 C110 C 0.23396 0.48024 0.60735
 C111 C 0.23346 0.51561 0.60763
 C112 C 0.24316 0.52655 0.57491
 N113 N 0.24935 0.49856 0.55475
 C114 C 0.24538 0.56180 0.56486
 C115 C 0.24788 0.57311 0.53013
 C116 C 0.24717 0.60742 0.51992
 C117 C 0.24903 0.60761 0.48461
 C118 C 0.25144 0.57345 0.47418
 N119 N 0.25063 0.55245 0.50207
 C120 C 0.25545 0.56260 0.43947
 C121 C 0.26023 0.52767 0.42936
 C122 C 0.27278 0.51755 0.39734
 C123 C 0.27286 0.48219 0.39690
 C124 C 0.26094 0.47134 0.42888
 N125 N 0.25305 0.49928 0.44851
 C126 C 0.25657 0.43627 0.43829
 H127 H 0.25214 0.36768 0.46679
 H128 H 0.24546 0.36721 0.53339
 H129 H 0.24027 0.49900 0.47209
 H130 H 0.22751 0.46397 0.62911
 H131 H 0.22607 0.53134 0.62951
 H132 H 0.24531 0.63014 0.53607
 H133 H 0.24892 0.63048 0.46860
 H134 H 0.28112 0.46641 0.37536
 H135 H 0.25964 0.49884 0.53003
 H136 H 0.28137 0.53389 0.37637
 C137 C 1.09485 0.21154 -0.01895
 C138 C 1.09613 0.21110 0.01645
 C139 C 1.07056 0.23337 0.02785
 N140 N 1.05323 0.24682 0.00076
 C141 C 1.06863 0.23417 -0.02787
 C142 C 1.06387 0.24242 0.06255
 C143 C 1.03008 0.25172 0.07287
 C144 C 1.02137 0.26829 0.10349
 C145 C 0.98596 0.27001 0.10453
 C146 C 0.97401 0.25449 0.07458
 N147 N 1.00101 0.24381 0.05521
 C148 C 0.93897 0.24842 0.06667
 C149 C 0.92755 0.24316 0.03245
 C150 C 0.89469 0.23247 0.02341
 C151 C 0.89333 0.23284 -0.01196
 C152 C 0.92540 0.24410 -0.02350
 N153 N 0.94635 0.25022 0.00380
 C154 C 0.93449 0.25022 -0.05850
 C155 C 0.96938 0.25682 -0.06797
 C156 C 0.98003 0.27603 -0.09632
 C157 C 1.01545 0.27428 -0.09742
 C158 C 1.02567 0.25461 -0.06933
 N159 N 0.99746 0.24457 -0.05117
 C160 C 1.06010 0.24496 -0.06164
 H161 H 1.11121 0.19678 -0.03615
 H162 H 1.11359 0.19587 0.03201
 H163 H 0.99727 0.22748 -0.03037
 H164 H 1.03860 0.27821 0.12311
 H165 H 0.97079 0.28138 0.12507
 H166 H 0.87384 0.22507 0.04050
 H167 H 0.87118 0.22541 -0.02722
 H168 H 1.03174 0.28664 -0.11647
 H169 H 0.99958 0.22865 0.03300
 H170 H 0.96401 0.29021 -0.11424
 C171 C 0.48556 0.77233 0.60313
 C172 C 0.52064 0.76747 0.60311
 C173 C 0.52890 0.75325 0.57132
 N174 N 0.50015 0.74912 0.55202
 C175 C 0.47360 0.76071 0.57143
 C176 C 0.56206 0.74237 0.56111
 C177 C 0.56924 0.73204 0.52697
 C178 C 0.59664 0.71134 0.51691
 C179 C 0.59670 0.71102 0.48140
 C180 C 0.56938 0.73160 0.47095
 N181 N 0.55245 0.74386 0.49886
 C182 C 0.56243 0.74148 0.43664
 C183 C 0.52965 0.75329 0.42640
 C184 C 0.52201 0.76803 0.39474
 C185 C 0.48710 0.77391 0.39466
 C186 C 0.47460 0.76223 0.42615
 N187 N 0.50069 0.74974 0.44553
 C188 C 0.43945 0.76074 0.43575
 C189 C 0.42866 0.75584 0.47032
 C190 C 0.39531 0.74752 0.48038
 C191 C 0.39509 0.74689 0.51590
 C192 C 0.42829 0.75489 0.52663
 N193 N 0.44856 0.76042 0.49867
 C194 C 0.43857 0.75879 0.56147
 H195 H 0.47062 0.78322 0.62409
 H196 H 0.53802 0.77368 0.62408
 H197 H 0.47353 0.77028 0.49894
 H198 H 0.61503 0.69836 0.53341
 H199 H 0.61516 0.69774 0.46515
 H200 H 0.53971 0.77394 0.37392
 H201 H 0.47260 0.78538 0.37374
 H202 H 0.37291 0.74131 0.53197
 H203 H 0.53365 0.76306 0.49876
 H204 H 0.37335 0.74248 0.46387
 C205 C -0.02078 0.72814 -0.10800
 C206 C 0.01425 0.72514 -0.10850
 C207 C 0.02597 0.73502 -0.07619
 N208 N -0.00128 0.74269 -0.05552
 C209 C -0.02995 0.74004 -0.07542
 C210 C 0.06114 0.73318 -0.06572
 C211 C 0.07008 0.72722 -0.03073
 C212 C 0.09946 0.71003 -0.01945
 C213 C 0.09974 0.71211 0.01596
 C214 C 0.07086 0.73089 0.02543
 N215 N 0.05259 0.73950 -0.00307
 C216 C 0.06328 0.74213 0.05933
 C217 C 0.03008 0.75346 0.06880
 C218 C 0.02263 0.77224 0.09827
 C219 C -0.01248 0.77632 0.09890
 C220 C -0.02545 0.75890 0.07035
 N221 N 0.00077 0.74544 0.05160
 C222 C -0.06093 0.75432 0.06247
 C223 C -0.07213 0.74711 0.02814
 C224 C -0.10505 0.73609 0.01942
 C225 C -0.10626 0.73373 -0.01588
 C226 C -0.07385 0.74289 -0.02836
 N227 N -0.05316 0.75090 -0.00117
 C228 C -0.06469 0.74483 -0.06406
 H229 H -0.03759 0.72004 -0.12877
 H230 H 0.02911 0.71448 -0.12965
 H231 H -0.02867 0.76177 -0.00262
 H232 H 0.11861 0.69671 -0.03479
 H233 H 0.11923 0.70123 0.03271
 H234 H 0.04067 0.78236 0.11705
 H235 H -0.02674 0.79072 0.11814
 H236 H -0.12862 0.72510 -0.03011
 H237 H 0.03189 0.75658 -0.00379
 H238 H -0.12619 0.72986 0.03659
 C239 C 0.48192 0.25921 0.39511
 C240 C 0.51732 0.25801 0.39545
 C241 C 0.52695 0.25107 0.42920
 N242 N 0.49865 0.24788 0.44945
 C243 C 0.47108 0.25294 0.42867
 C244 C 0.56121 0.24588 0.44050
 C245 C 0.56981 0.24269 0.47583
 C246 C 0.59993 0.22804 0.48847
 C247 C 0.59995 0.23324 0.52359
 C248 C 0.56964 0.25051 0.53144
 N249 N 0.55132 0.25602 0.50225
 C250 C 0.56045 0.26258 0.56452
 C251 C 0.52628 0.27185 0.57276
 C252 C 0.51605 0.29010 0.60180
 C253 C 0.48064 0.28999 0.60172
 C254 C 0.47062 0.27174 0.57260
 N255 N 0.49852 0.26089 0.55484
 C256 C 0.43650 0.26237 0.56425
 C257 C 0.42685 0.25243 0.53046
 C258 C 0.39568 0.23722 0.52168
 C259 C 0.39560 0.23366 0.48631
 C260 C 0.42668 0.24692 0.47442
 N261 N 0.44561 0.25821 0.50151
 C262 C 0.43628 0.24985 0.43922
 H263 H 0.46604 0.26405 0.37265
 H264 H 0.53398 0.26177 0.37332
 H265 H 0.46838 0.27240 0.49996
 H266 H 0.62003 0.21523 0.47389
 H267 H 0.62003 0.22532 0.54129
 H268 H 0.53234 0.30189 0.62119
 H269 H 0.46417 0.30172 0.62103
 H270 H 0.37499 0.22248 0.47113
 H271 H 0.52957 0.27164 0.50000
 H272 H 0.37506 0.22953 0.53891
 C273 C 1.10517 -0.01388 0.21407
 C274 C 1.10471 0.02135 0.21662
 C275 C 1.07512 0.02996 0.23488
 N276 N 1.05751 0.00102 0.24362
 C277 C 1.07620 -0.02590 0.23135
 C278 C 1.06532 0.06401 0.24409
 C279 C 1.03074 0.07156 0.25384
 C280 C 1.02002 0.09989 0.27298
 C281 C 0.98459 0.09976 0.27276
 C282 C 0.97439 0.07035 0.25508
 N283 N 1.00272 0.05320 0.24382
 C284 C 0.93988 0.06120 0.24722
 C285 C 0.93006 0.02709 0.23914
 C286 C 0.89706 0.01687 0.22985
 C287 C 0.89746 -0.01852 0.22839
 C288 C 0.93075 -0.02873 0.23660
 N289 N 0.95051 -0.00081 0.24344
 C290 C 0.94157 -0.06325 0.24089
 C291 C 0.97670 -0.07289 0.24464
 C292 C 0.98811 -0.10572 0.25327
 C293 C 1.02341 -0.10496 0.25245
 C294 C 1.03302 -0.07196 0.24228
 N295 N 1.00435 -0.05256 0.23764
 C296 C 1.06748 -0.06124 0.23584
 H297 H 1.12433 -0.02884 0.20030
 H298 H 1.12357 0.03862 0.20538
 H299 H 1.00373 -0.02806 0.22676
 H300 H 1.03590 0.11903 0.28566
 H301 H 0.96863 0.11935 0.28451
 H302 H 0.87473 0.03310 0.22567
 H303 H 0.87551 -0.03482 0.22266
 H304 H 1.03992 -0.12665 0.25840
 H305 H 1.00287 0.03249 0.22664
 H306 H 0.97303 -0.12843 0.25902
 C307 C 0.47952 0.60676 0.76582
 C308 C 0.51488 0.60691 0.76756
 C309 C 0.52587 0.57534 0.75476
 N310 N 0.49843 0.55575 0.74579
 C311 C 0.47011 0.57488 0.75262
 C312 C 0.56058 0.56564 0.74917
 C313 C 0.57005 0.53143 0.74108
 C314 C 0.60113 0.52191 0.72617
 C315 C 0.60109 0.48649 0.72427
 C316 C 0.57022 0.47530 0.73866
 N317 N 0.55129 0.50293 0.74853
 C318 C 0.56124 0.44035 0.74453
 C319 C 0.52691 0.42958 0.75061
 C320 C 0.51715 0.39668 0.76078
 C321 C 0.48172 0.39647 0.76200
 C322 C 0.47100 0.42923 0.75248
 N323 N 0.49866 0.44931 0.74529
 C324 C 0.43628 0.43929 0.74772
 C325 C 0.42666 0.47365 0.73985
 C326 C 0.39493 0.48392 0.72677
 C327 C 0.39541 0.51927 0.72511
 C328 C 0.42683 0.52991 0.73847
 N329 N 0.44586 0.50195 0.74703
 C330 C 0.43600 0.56460 0.74531
 H331 H 0.46265 0.62763 0.77360
 H332 H 0.53058 0.62796 0.77705
 H333 H 0.46868 0.50225 0.76114
 H334 H 0.62168 0.53874 0.71749
 H335 H 0.62166 0.47082 0.71372
 H336 H 0.53378 0.37501 0.76657
 H337 H 0.46573 0.37451 0.76852
 H338 H 0.37446 0.53523 0.71590
 H339 H 0.52880 0.50229 0.76324
 H340 H 0.37318 0.46815 0.71945
 C341 C 0.89404 0.98164 0.76419
 C342 C 0.89287 1.01704 0.76347
 C343 C 0.92530 1.02813 0.75315
 N344 N 0.94614 1.00082 0.74744
 C345 C 0.92719 0.97240 0.75439
 C346 C 0.93466 1.06278 0.74719
 C347 C 0.96898 1.07311 0.73992
 C348 C 0.97818 1.10508 0.72708
 C349 C 1.01341 1.10700 0.72852
 C350 C 1.02542 1.07535 0.74068
 N351 N 0.99779 1.05501 0.74775
 C352 C 1.06013 1.06729 0.75005
 C353 C 1.07032 1.03318 0.75895
 C354 C 1.10185 1.02399 0.77333
 C355 C 1.10297 0.98867 0.77395
 C356 C 1.07236 0.97707 0.75946
 N357 N 1.05251 1.00432 0.75031
 C358 C 1.06379 0.94200 0.75321
 C359 C 1.02975 0.93235 0.74354
 C360 C 1.02075 0.90253 0.72581
 C361 C 0.98541 0.90088 0.72555
 C362 C 0.97356 0.93067 0.74146
 N363 N 1.00078 0.94984 0.75213
 C364 C 0.93864 0.93842 0.74859
 H365 H 0.87275 0.96469 0.77050
 H366 H 0.87057 1.03275 0.76948
 H367 H 0.99958 0.97138 0.76822
 H368 H 0.96130 1.12575 0.71893
 H369 H 1.02738 1.13037 0.72294
 H370 H 1.12243 1.04067 0.78210
 H371 H 1.12410 0.97346 0.78396
 H372 H 0.97065 0.87987 0.71475
 H373 H 0.99831 1.03219 0.76181
 H374 H 1.03776 0.88351 0.71447
 C375 C 0.40234 0.48566 0.21082
 C376 C 0.40262 0.52092 0.21371
 C377 C 0.43219 0.52941 0.23194
 N378 N 0.45012 0.50065 0.23998
 C379 C 0.43183 0.47389 0.22723
 C380 C 0.44118 0.56285 0.24321
 C381 C 0.47505 0.57118 0.25392
 C382 C 0.48418 0.60089 0.27163
 C383 C 0.51952 0.60031 0.27504
 C384 C 0.53107 0.57038 0.25907
 N385 N 0.50376 0.55269 0.24642
 C386 C 0.56621 0.56117 0.25462
 C387 C 0.57693 0.52692 0.24786
 C388 C 0.61058 0.51701 0.24081
 C389 C 0.61038 0.48171 0.23789
 C390 C 0.57656 0.47114 0.24296
 N391 N 0.55624 0.49882 0.24937
 C392 C 0.56554 0.43631 0.24410
 C393 C 0.53026 0.42636 0.24531
 C394 C 0.51827 0.39307 0.25124
 C395 C 0.48296 0.39402 0.24850
 C396 C 0.47413 0.42762 0.24013
 N397 N 0.50308 0.44709 0.23806
 C398 C 0.44026 0.43887 0.23244
 H399 H 0.38269 0.47043 0.19808
 H400 H 0.38323 0.53825 0.20359
 H401 H 0.50448 0.47207 0.22852
 H402 H 0.46719 0.62099 0.28102
 H403 H 0.53494 0.61985 0.28772
 H404 H 0.63306 0.53340 0.23828
 H405 H 0.63272 0.46572 0.23289
 H406 H 0.46589 0.37212 0.25156
 H407 H 0.50502 0.53141 0.23006
 H408 H 0.53305 0.37002 0.25637
 O409 O 0.25347 0.16203 0.20044
 O410 O 0.29104 0.15312 0.24964
 O411 O 0.16298 0.20448 0.24789
 O412 O 0.15182 0.24917 0.28393
 O413 O 0.20475 0.25073 0.15740
 O414 O 0.25293 0.28905 0.14715
 O415 O 0.25191 0.30262 0.33456
 O416 O 0.21260 0.25485 0.34447
 O417 O 0.34185 0.25359 0.29471
 O418 O 0.35177 0.21273 0.24618
 O419 O 0.30156 0.34063 0.24524
 O420 O 0.25124 0.35004 0.20550
 O421 O 0.25581 0.34275 0.29191
 O422 O 0.21639 0.35291 0.24389
 O423 O 0.34256 0.29873 0.24641
 O424 O 0.35285 0.24860 0.20917
 O425 O 0.30039 0.25690 0.33616
 O426 O 0.25650 0.21919 0.34983
 O427 O 0.25363 0.20287 0.15820
 O428 O 0.29079 0.25033 0.14707
 O429 O 0.16348 0.25254 0.19922
 O430 O 0.15512 0.29228 0.24659
 O431 O 0.20445 0.16293 0.24911
 O432 O 0.25210 0.15296 0.28666
 Zr433 Zr 0.25129 0.19037 0.24695
 O434 O 0.28343 0.22053 0.27875
 Zr435 Zr 0.19103 0.25111 0.24590
 O436 O 0.22081 0.28424 0.27723
 Zr437 Zr 0.25157 0.24981 0.18505
 O438 O 0.28430 0.28220 0.21381
 Zr439 Zr 0.25376 0.25490 0.30852
 O440 O 0.22113 0.22131 0.28007
 Zr441 Zr 0.31436 0.25251 0.24781
 O442 O 0.28479 0.21964 0.21572
 Zr443 Zr 0.25434 0.31370 0.24619
 O444 O 0.22124 0.28378 0.21456
 O445 O 0.21944 0.21841 0.21430
 O446 O 0.28645 0.28616 0.27935
 C447 C 0.25448 0.17146 0.16857
 C448 C 0.17281 0.17277 0.24914
 C449 C 0.17314 0.25217 0.16751
 C450 C 0.25359 0.33396 0.32373
 C451 C 0.33206 0.25570 0.32634
 C452 C 0.33311 0.33041 0.24546
 H453 H 0.29753 0.20522 0.29347
 H454 H 0.29867 0.29584 0.19774
 H455 H 0.20472 0.20340 0.19977
 H456 H 0.20529 0.29884 0.29127
 H457 H 0.19718 0.23541 0.33824
 H458 H 0.15922 0.26399 0.30336
 H459 H 0.34783 0.26613 0.19132
 H460 H 0.30940 0.23512 0.15568
 H461 H 0.26497 0.19714 0.34027
 H462 H 0.23548 0.16077 0.30446
 H463 H 0.27069 0.34565 0.18952
 H464 H 0.23614 0.30686 0.15449
 H465 H 0.30897 0.16033 0.23290
 H466 H 0.34715 0.19681 0.26560
 H467 H 0.16320 0.30941 0.22944
 H468 H 0.19889 0.34791 0.26181
 O469 O 0.74726 0.84081 0.20361
 O470 O 0.71014 0.84983 0.25126
 O471 O 0.83922 0.80384 0.25430
 O472 O 0.85519 0.75909 0.28621
 O473 O 0.79998 0.75203 0.16193
 O474 O 0.75422 0.71313 0.15211
 O475 O 0.75233 0.70660 0.34250
 O476 O 0.78943 0.75277 0.35172
 O477 O 0.66262 0.74728 0.29815
 O478 O 0.65041 0.78483 0.24869
 O479 O 0.70859 0.66057 0.25377
 O480 O 0.75859 0.65080 0.21676
 O481 O 0.75308 0.66419 0.30189
 O482 O 0.79554 0.65497 0.25299
 O483 O 0.66540 0.70016 0.25202
 O484 O 0.65345 0.74869 0.21199
 O485 O 0.70331 0.74995 0.34036
 O486 O 0.74974 0.79305 0.35001
 O487 O 0.75011 0.79929 0.16210
 O488 O 0.71360 0.74884 0.15288
 O489 O 0.84155 0.75478 0.20329
 O490 O 0.85054 0.71514 0.25299
 O491 O 0.79600 0.84343 0.25036
 O492 O 0.74813 0.85065 0.29005
 Zr493 Zr 0.75081 0.81352 0.25008
 O494 O 0.71922 0.78316 0.28199
 Zr495 Zr 0.81401 0.75569 0.25058
 O496 O 0.78549 0.72319 0.28388
 Zr497 Zr 0.75354 0.75255 0.18987
 O498 O 0.72303 0.71887 0.21972
 Zr499 Zr 0.75051 0.75219 0.31347
 O500 O 0.78249 0.78521 0.28389
 Zr501 Zr 0.69076 0.74815 0.25190
 O502 O 0.71882 0.78194 0.21948
 Zr503 Zr 0.75402 0.69047 0.25408
 O504 O 0.78516 0.72074 0.22057
 O505 O 0.78425 0.78614 0.21817
 O506 O 0.71997 0.71784 0.28540
 C507 C 0.74750 0.83091 0.17204
 C508 C 0.82790 0.83507 0.25310
 C509 C 0.83163 0.75276 0.17158
 C510 C 0.75259 0.67478 0.33342
 C511 C 0.67187 0.74830 0.32991
 C512 C 0.67655 0.66896 0.25273
 H513 H 0.70396 0.79840 0.29560
 H514 H 0.70977 0.70366 0.20410
 H515 H 0.79846 0.80136 0.20335
 H516 H 0.80140 0.71017 0.29896
 H517 H 0.80726 0.76930 0.34381
 H518 H 0.84714 0.74840 0.30796
 H519 H 0.65905 0.72982 0.19570
 H520 H 0.69554 0.76548 0.15994
 H521 H 0.72953 0.80785 0.34523
 H522 H 0.76566 0.84406 0.30741
 H523 H 0.74172 0.65564 0.19824
 H524 H 0.76951 0.69478 0.16114
 H525 H 0.69158 0.84036 0.23647
 H526 H 0.65444 0.80254 0.26665
 H527 H 0.84466 0.69866 0.23435
 H528 H 0.81019 0.65938 0.27343
 O529 O 0.74265 0.16066 0.80025
 O530 O 0.70643 0.15177 0.75091
 O531 O 0.83496 0.20082 0.75488
 O532 O 0.84890 0.24523 0.71973
 O533 O 0.79199 0.24956 0.84416
 O534 O 0.74446 0.28828 0.85282
 O535 O 0.74891 0.29821 0.66388
 O536 O 0.78847 0.25267 0.65558
 O537 O 0.65898 0.25257 0.70304
 O538 O 0.64676 0.21296 0.75244
 O539 O 0.69961 0.33988 0.75226
 O540 O 0.74892 0.34978 0.79174
 O541 O 0.74685 0.33951 0.70556
 O542 O 0.78551 0.34984 0.75526
 O543 O 0.65789 0.29870 0.74983
 O544 O 0.64531 0.25021 0.78817
 O545 O 0.70147 0.25318 0.66252
 O546 O 0.74851 0.21247 0.65303
 O547 O 0.74182 0.20191 0.84213
 O548 O 0.70544 0.25103 0.85165
 O549 O 0.83452 0.24877 0.80364
 O550 O 0.84458 0.28895 0.75655
 O551 O 0.79262 0.16010 0.75317
 O552 O 0.74595 0.15129 0.71402
 Zr553 Zr 0.74660 0.18860 0.75389
 O554 O 0.71579 0.21867 0.72098
 Zr555 Zr 0.80820 0.24814 0.75612
 O556 O 0.77999 0.28094 0.72305
 Zr557 Zr 0.74595 0.24884 0.81510
 O558 O 0.71497 0.28159 0.78480
 Zr559 Zr 0.74727 0.25155 0.69144
 O560 O 0.77860 0.21836 0.72147
 Zr561 Zr 0.68504 0.25194 0.75064
 O562 O 0.71294 0.21894 0.78390
 Zr563 Zr 0.74631 0.31186 0.75244
 O564 O 0.77763 0.28189 0.78588
 O565 O 0.77817 0.21640 0.78718
 O566 O 0.71450 0.28416 0.71910
 C567 C 0.74070 0.17036 0.83194
 C568 C 0.82440 0.16932 0.75377
 C569 C 0.82393 0.24951 0.83512
 C570 C 0.74821 0.32984 0.67384
 C571 C 0.66963 0.25312 0.67161
 C572 C 0.66787 0.33020 0.75104
 H573 H 0.70162 0.20326 0.70642
 H574 H 0.70053 0.29591 0.80022
 H575 H 0.79209 0.20124 0.80228
 H576 H 0.79604 0.29493 0.70898
 H577 H 0.80558 0.23541 0.66345
 H578 H 0.84288 0.26045 0.70016
 H579 H 0.65045 0.26791 0.80585
 H580 H 0.68693 0.23578 0.84284
 H581 H 0.72990 0.19572 0.65795
 H582 H 0.76221 0.15952 0.69608
 H583 H 0.73029 0.34491 0.80852
 H584 H 0.76097 0.30624 0.84519
 H585 H 0.68787 0.15996 0.76647
 H586 H 0.65093 0.19689 0.73302
 H587 H 0.83650 0.30595 0.77386
 H588 H 0.80296 0.34440 0.73741
 O589 O 0.25298 0.84267 0.79807
 O590 O 0.28932 0.85274 0.74876
 O591 O 0.16115 0.80226 0.75215
 O592 O 0.14786 0.75848 0.71596
 O593 O 0.20495 0.75161 0.84025
 O594 O 0.25356 0.71433 0.84813
 O595 O 0.24864 0.70710 0.65921
 O596 O 0.20813 0.75247 0.65186
 O597 O 0.33777 0.75203 0.69866
 O598 O 0.34955 0.79243 0.74813
 O599 O 0.29810 0.66492 0.74776
 O600 O 0.24803 0.65418 0.78647
 O601 O 0.25198 0.66533 0.70029
 O602 O 0.21267 0.65354 0.74889
 O603 O 0.33945 0.70650 0.74577
 O604 O 0.35156 0.75503 0.78380
 O605 O 0.29526 0.75328 0.65825
 O606 O 0.24786 0.79292 0.64946
 O607 O 0.25327 0.80070 0.83917
 O608 O 0.29145 0.75278 0.84749
 O609 O 0.16241 0.75294 0.79985
 O610 O 0.15256 0.71409 0.75182
 O611 O 0.20306 0.84344 0.75051
 O612 O 0.24990 0.85368 0.71207
 Zr613 Zr 0.24947 0.81552 0.75106
 O614 O 0.28059 0.78631 0.71748
 Zr615 Zr 0.18854 0.75525 0.75225
 O616 O 0.21714 0.72325 0.71860
 Zr617 Zr 0.25083 0.75432 0.81111
 O618 O 0.28218 0.72247 0.78024
 Zr619 Zr 0.24952 0.75351 0.68743
 O620 O 0.21786 0.78592 0.71811
 Zr621 Zr 0.31178 0.75294 0.74644
 O622 O 0.28351 0.78508 0.78040
 Zr623 Zr 0.25115 0.69235 0.74750
 O624 O 0.21947 0.72141 0.78141
 O625 O 0.21816 0.78680 0.78386
 O626 O 0.28263 0.72086 0.71452
 C627 C 0.25425 0.83245 0.82961
 C628 C 0.17136 0.83388 0.75117
 C629 C 0.17305 0.75124 0.83125
 C630 C 0.25052 0.67540 0.66869
 C631 C 0.32710 0.75236 0.66723
 C632 C 0.32973 0.67492 0.74703
 H633 H 0.29458 0.80203 0.70308
 H634 H 0.29672 0.70818 0.79555
 H635 H 0.20389 0.80141 0.79924
 H636 H 0.20131 0.70927 0.70429
 H637 H 0.19102 0.76966 0.65994
 H638 H 0.15398 0.74357 0.69614
 H639 H 0.34611 0.73783 0.80187
 H640 H 0.30932 0.76905 0.83915
 H641 H 0.26560 0.81035 0.65515
 H642 H 0.23394 0.84558 0.69383
 H643 H 0.26700 0.65843 0.80301
 H644 H 0.23718 0.69624 0.84054
 H645 H 0.30806 0.84427 0.76389
 H646 H 0.34559 0.80806 0.72834
 H647 H 0.16120 0.69650 0.76819
 H648 H 0.19528 0.65908 0.73107
 O649 O 0.24915 0.33946 0.70735
 O650 O 0.21486 0.35006 0.75591
 O651 O 0.34061 0.29547 0.75739
 O652 O 0.35433 0.24936 0.78706
 O653 O 0.29809 0.24895 0.66337
 O654 O 0.25039 0.21343 0.65217
 O655 O 0.24805 0.20165 0.84260
 O656 O 0.28653 0.24583 0.85383
 O657 O 0.16039 0.24621 0.79897
 O658 O 0.14839 0.28436 0.75292
 O659 O 0.20380 0.15951 0.75367
 O660 O 0.25184 0.14803 0.71633
 O661 O 0.24860 0.16022 0.80099
 O662 O 0.29061 0.15127 0.75102
 O663 O 0.16211 0.20061 0.75008
 O664 O 0.15377 0.25352 0.71163
 O665 O 0.20086 0.24763 0.84143
 O666 O 0.24968 0.28832 0.85197
 O667 O 0.25218 0.29900 0.66480
 O668 O 0.21151 0.25105 0.65470
 O669 O 0.33972 0.24902 0.70476
 O670 O 0.34618 0.20659 0.75392
 O671 O 0.30006 0.33774 0.75273
 O672 O 0.25240 0.34635 0.79460
 Zr673 Zr 0.25260 0.31081 0.75311
 O674 O 0.21898 0.28112 0.78380
 Zr675 Zr 0.31244 0.24953 0.75215
 O676 O 0.28239 0.21809 0.78486
 Zr677 Zr 0.25194 0.25139 0.69136
 O678 O 0.22016 0.21809 0.72022
 Zr679 Zr 0.24844 0.24803 0.81484
 O680 O 0.28251 0.27988 0.78622
 Zr681 Zr 0.18904 0.24792 0.75296
 O682 O 0.21879 0.28168 0.72188
 Zr683 Zr 0.24994 0.18764 0.75395
 O684 O 0.28213 0.21711 0.72093
 O685 O 0.28439 0.28241 0.72055
 O686 O 0.21676 0.21558 0.78580
 C687 C 0.25028 0.33041 0.67553
 C688 C 0.33147 0.32721 0.75532
 C689 C 0.32968 0.24836 0.67304
 C690 C 0.24805 0.17006 0.83272
 C691 C 0.16940 0.24670 0.83083
 C692 C 0.17228 0.16902 0.75114
 H693 H 0.20425 0.29665 0.79767
 H694 H 0.20641 0.20390 0.70408
 H695 H 0.29933 0.29720 0.70602
 H696 H 0.29770 0.20409 0.79970
 H697 H 0.30578 0.26075 0.84609
 H698 H 0.34529 0.24084 0.80936
 H699 H 0.15665 0.23343 0.69610
 H700 H 0.19554 0.26992 0.66117
 H701 H 0.23014 0.30409 0.84750
 H702 H 0.27092 0.33911 0.81063
 H703 H 0.23629 0.15476 0.69727
 H704 H 0.26417 0.19371 0.66073
 H705 H 0.19478 0.34157 0.74258
 H706 H 0.15559 0.30395 0.76761
 H707 H 0.34129 0.19230 0.73328
 H708 H 0.30460 0.15340 0.77227
 O709 O 0.75542 0.66505 0.69951
 O710 O 0.79167 0.65687 0.74968
 O711 O 0.66157 0.70279 0.74679
 O712 O 0.64779 0.74586 0.78330
 O713 O 0.70216 0.75344 0.65788
 O714 O 0.74977 0.79271 0.64870
 O715 O 0.74409 0.80286 0.83645
 O716 O 0.70667 0.75282 0.84448
 O717 O 0.83673 0.76008 0.79789
 O718 O 0.84945 0.71931 0.74875
 O719 O 0.79309 0.84511 0.74929
 O720 O 0.74396 0.85296 0.70856
 O721 O 0.74723 0.84382 0.79451
 O722 O 0.70734 0.85252 0.74563
 O723 O 0.83620 0.80535 0.74789
 O724 O 0.85049 0.75617 0.71289
 O725 O 0.79429 0.75842 0.83844
 O726 O 0.75261 0.71947 0.85025
 O727 O 0.75174 0.70644 0.65799
 O728 O 0.78867 0.75490 0.64868
 O729 O 0.66039 0.75153 0.69920
 O730 O 0.64969 0.78991 0.74692
 O731 O 0.70455 0.66278 0.74670
 O732 O 0.75199 0.65411 0.78553
 Zr733 Zr 0.75033 0.69231 0.74659
 O734 O 0.78041 0.72343 0.77962
 Zr735 Zr 0.68746 0.75043 0.74597
 O736 O 0.71498 0.78427 0.77838
 Zr737 Zr 0.74879 0.75283 0.68593
 O738 O 0.77947 0.78615 0.71590
 Zr739 Zr 0.74863 0.75572 0.80957
 O740 O 0.71826 0.72114 0.77990
 Zr741 Zr 0.81045 0.75756 0.75006
 O742 O 0.78302 0.72386 0.71669
 Zr743 Zr 0.74758 0.81567 0.74833
 O744 O 0.71654 0.78489 0.71556
 O745 O 0.71767 0.71959 0.71410
 O746 O 0.78038 0.78913 0.78170
 C747 C 0.75504 0.67499 0.66776
 C748 C 0.67254 0.67147 0.74684
 C749 C 0.67041 0.75302 0.66768
 C750 C 0.74476 0.83439 0.82609
 C751 C 0.82611 0.75979 0.82944
 C752 C 0.82502 0.83655 0.74810
 H753 H 0.79487 0.70853 0.79440
 H754 H 0.79341 0.80069 0.70023
 H755 H 0.70378 0.70436 0.69900
 H756 H 0.69855 0.79786 0.79240
 H757 H 0.69268 0.73248 0.83779
 H758 H 0.65405 0.76074 0.80310
 H759 H 0.84329 0.77090 0.69334
 H760 H 0.80711 0.73927 0.65690
 H761 H 0.75966 0.69731 0.83982
 H762 H 0.73387 0.66011 0.80255
 H763 H 0.76371 0.84954 0.69272
 H764 H 0.73258 0.81006 0.65619
 H765 H 0.80996 0.66565 0.73413
 H766 H 0.84611 0.70396 0.76888
 H767 H 0.65722 0.80774 0.73024
 H768 H 0.69075 0.84746 0.76438
 O769 O 0.24945 0.66164 0.30175
 O770 O 0.21411 0.64781 0.25414
 O771 O 0.34036 0.70241 0.24980
 O772 O 0.35368 0.74614 0.21603
 O773 O 0.29667 0.75456 0.33939
 O774 O 0.24850 0.79159 0.34699
 O775 O 0.25107 0.78982 0.15674
 O776 O 0.28895 0.74399 0.14982
 O777 O 0.16115 0.74663 0.20132
 O778 O 0.14950 0.71095 0.25156
 O779 O 0.20262 0.83730 0.24349
 O780 O 0.25063 0.85150 0.27949
 O781 O 0.24653 0.83359 0.19569
 O782 O 0.28926 0.84659 0.24463
 O783 O 0.16112 0.79590 0.24531
 O784 O 0.15131 0.74759 0.28802
 O785 O 0.20262 0.74596 0.15974
 O786 O 0.25037 0.70292 0.15282
 O787 O 0.24931 0.70522 0.34121
 O788 O 0.20992 0.75354 0.34741
 O789 O 0.33866 0.75159 0.29840
 O790 O 0.34580 0.79109 0.24765
 O791 O 0.29986 0.66003 0.25386
 O792 O 0.25164 0.64774 0.21548
 Zr793 Zr 0.25229 0.68677 0.25366
 O794 O 0.21943 0.71409 0.22005
 Zr795 Zr 0.31189 0.74834 0.25113
 O796 O 0.28236 0.77757 0.21614
 Zr797 Zr 0.25061 0.75049 0.31111
 O798 O 0.21882 0.78113 0.27949
 Zr799 Zr 0.24942 0.74538 0.18750
 O800 O 0.28266 0.71553 0.21891
 Zr801 Zr 0.18862 0.74894 0.24805
 O802 O 0.21802 0.71802 0.28221
 Zr803 Zr 0.24901 0.80960 0.24446
 O804 O 0.28106 0.78273 0.27964
 O805 O 0.28350 0.71746 0.28456
 O806 O 0.21690 0.77928 0.21382
 C807 C 0.24839 0.67311 0.33292
 C808 C 0.33132 0.67062 0.25155
 C809 C 0.32840 0.75415 0.32991
 C810 C 0.24840 0.82182 0.16468
 C811 C 0.17092 0.74627 0.16964
 C812 C 0.17099 0.82755 0.24386
 H813 H 0.20512 0.69761 0.20688
 H814 H 0.20457 0.79628 0.29429
 H815 H 0.29824 0.70349 0.30005
 H816 H 0.29787 0.79081 0.20080
 H817 H 0.30727 0.72870 0.15894
 H818 H 0.34519 0.75509 0.19370
 H819 H 0.15463 0.76832 0.30257
 H820 H 0.19278 0.73582 0.34069
 H821 H 0.22964 0.68859 0.15686
 H822 H 0.26812 0.65500 0.19733
 H823 H 0.23522 0.84574 0.29903
 H824 H 0.26380 0.80993 0.33789
 H825 H 0.19443 0.65721 0.26748
 H826 H 0.15582 0.69181 0.23588
 H827 H 0.33968 0.80711 0.26662
 H828 H 0.30287 0.84362 0.22321
 O829 O 0.75888 0.33370 0.30410
 O830 O 0.79686 0.34190 0.25581
 O831 O 0.66529 0.30082 0.25369
 O832 O 0.65095 0.25901 0.21559
 O833 O 0.70100 0.24724 0.34244
 O834 O 0.74606 0.20530 0.35196
 O835 O 0.74997 0.19969 0.16363
 O836 O 0.71256 0.24823 0.15505
 O837 O 0.84002 0.23808 0.20671
 O838 O 0.85246 0.27685 0.25758
 O839 O 0.79145 0.15342 0.25085
 O840 O 0.74078 0.14633 0.29022
 O841 O 0.74545 0.15783 0.20449
 O842 O 0.70524 0.14916 0.25263
 O843 O 0.83589 0.19153 0.25509
 O844 O 0.85060 0.23899 0.29229
 O845 O 0.79914 0.24277 0.16489
 O846 O 0.75589 0.28512 0.15404
 O847 O 0.75236 0.29162 0.34462
 O848 O 0.78694 0.24125 0.35392
 O849 O 0.66053 0.25109 0.30009
 O850 O 0.65002 0.21389 0.25139
 O851 O 0.71004 0.33896 0.25419
 O852 O 0.75937 0.34597 0.21790
 Zr853 Zr 0.75443 0.30759 0.25637
 O854 O 0.78463 0.27615 0.22385
 Zr855 Zr 0.68913 0.25202 0.25401
 O856 O 0.71660 0.21805 0.22149
 Zr857 Zr 0.74836 0.24596 0.31564
 O858 O 0.77868 0.21204 0.28588
 Zr859 Zr 0.75253 0.24594 0.19214
 O860 O 0.72224 0.28066 0.22165
 Zr861 Zr 0.81206 0.24023 0.25363
 O862 O 0.78475 0.27425 0.28670
 Zr863 Zr 0.74686 0.18456 0.25163
 O864 O 0.71595 0.21575 0.28430
 O865 O 0.71958 0.28105 0.28728
 O866 O 0.78192 0.21067 0.22022
 C867 C 0.75720 0.32310 0.33559
 C868 C 0.67769 0.33164 0.25354
 C869 C 0.66958 0.24909 0.33187
 C870 C 0.74722 0.16798 0.17303
 C871 C 0.83050 0.23978 0.17490
 C872 C 0.82366 0.16077 0.25335
 H873 H 0.80035 0.29087 0.21020
 H874 H 0.79147 0.19656 0.30158
 H875 H 0.70585 0.29664 0.30217
 H876 H 0.70033 0.20539 0.20645
 H877 H 0.69692 0.26715 0.16218
 H878 H 0.65640 0.24323 0.19624
 H879 H 0.84223 0.22372 0.31097
 H880 H 0.80618 0.25648 0.34677
 H881 H 0.77315 0.30226 0.16172
 H882 H 0.74337 0.33946 0.19906
 H883 H 0.76011 0.14869 0.30672
 H884 H 0.72865 0.18874 0.34325
 H885 H 0.81455 0.33179 0.27121
 H886 H 0.85067 0.29279 0.23772
 H887 H 0.65614 0.19575 0.26829
 H888 H 0.68872 0.15604 0.23443
 C889 C 0.24476 0.08853 0.08931
 C890 C 0.25825 0.08442 0.12112
 C891 C 0.25721 0.11120 0.14825
 C892 C 0.25589 0.14501 0.14142
 H893 H 0.27058 0.06040 0.12822
 H894 H 0.25900 0.10248 0.17476
 H895 H 0.23401 0.11334 0.08296
 H896 H 0.25634 0.15409 0.11500
 C897 C 0.74878 0.58730 0.59324
 C898 C 0.77341 0.59164 0.61717
 C899 C 0.77084 0.61753 0.64510
 C900 C 0.75733 0.64892 0.64015
 H901 H 0.79529 0.57427 0.61768
 H902 H 0.78220 0.61110 0.66982
 H903 H 0.72650 0.60415 0.59314
 H904 H 0.74887 0.65641 0.61456
 C905 C 0.73541 0.91206 0.09066
 C906 C 0.74724 0.87974 0.08552
 C907 C 0.74874 0.85257 0.11225
 C908 C 0.74523 0.85843 0.14612
 H909 H 0.75691 0.87219 0.06040
 H910 H 0.75394 0.82660 0.10327
 H911 H 0.72863 0.92004 0.11648
 H912 H 0.74168 0.88427 0.15594
 C913 C 0.24394 0.40814 0.59076
 C914 C 0.26857 0.38417 0.59469
 C915 C 0.26603 0.35551 0.61958
 C916 C 0.25018 0.35849 0.65011
 H917 H 0.29054 0.38411 0.57736
 H918 H 0.27977 0.33196 0.61336
 H919 H 0.22140 0.40801 0.60729
 H920 H 0.23941 0.38306 0.65799
 C921 C 0.74184 0.08717 0.91190
 C922 C 0.73540 0.08234 0.87812
 C923 C 0.73758 0.10993 0.85178
 C924 C 0.73767 0.14384 0.85893
 H925 H 0.72781 0.05717 0.86872
 H926 H 0.73849 0.10149 0.82512
 H927 H 0.74740 0.11296 0.92082
 H928 H 0.73522 0.15304 0.88516
 C929 C 0.25725 0.58993 0.41248
 C930 C 0.23776 0.58864 0.38392
 C931 C 0.23940 0.61459 0.35607
 C932 C 0.24690 0.64795 0.36142
 H933 H 0.22117 0.56653 0.37966
 H934 H 0.23256 0.60588 0.33039
 H935 H 0.27447 0.61153 0.41670
 H936 H 0.25116 0.65739 0.38740
 C937 C 0.27161 0.90866 0.91490
 C938 C 0.25540 0.87808 0.91789
 C939 C 0.25422 0.85189 0.89018
 C940 C 0.25635 0.85931 0.85641
 H941 H 0.24194 0.87136 0.94143
 H942 H 0.24961 0.82553 0.89825
 H943 H 0.28246 0.91464 0.89005
 H944 H 0.25850 0.88577 0.84778
 C945 C 0.75310 0.41169 0.40865
 C946 C 0.78025 0.40312 0.38898
 C947 C 0.77762 0.37787 0.36056
 C948 C 0.75971 0.34853 0.36367
 H949 H 0.80458 0.41645 0.39231
 H950 H 0.79243 0.38274 0.33732
 H951 H 0.72865 0.39869 0.40480
 H952 H 0.74779 0.34210 0.38817
 C953 C 0.09022 0.24209 0.08787
 C954 C 0.12395 0.24717 0.08109
 C955 C 0.15134 0.24782 0.10774
 C956 C 0.14547 0.25258 0.14154
 H957 H 0.13258 0.25168 0.05492
 H958 H 0.17762 0.24501 0.09861
 H959 H 0.08225 0.23926 0.11442
 H960 H 0.11962 0.25675 0.15113
 C961 C 0.58964 0.74080 0.58753
 C962 C 0.62140 0.75332 0.58160
 C963 C 0.64916 0.75343 0.60765
 C964 C 0.64295 0.75343 0.64164
 H965 H 0.62779 0.76337 0.55629
 H966 H 0.67546 0.75483 0.59826
 H967 H 0.58287 0.73030 0.61251
 H968 H 0.61671 0.75398 0.65120
 C969 C 0.08827 0.73475 0.90948
 C970 C 0.08593 0.75215 0.87945
 C971 C 0.11337 0.75368 0.85292
 C972 C 0.14711 0.74913 0.85909
 H973 H 0.06262 0.76605 0.87304
 H974 H 0.10499 0.76035 0.82710
 H975 H 0.11309 0.72405 0.91594
 H976 H 0.15633 0.74475 0.88507
 C977 C 0.58872 0.24229 0.41393
 C978 C 0.61935 0.25818 0.41692
 C979 C 0.64727 0.25543 0.39112
 C980 C 0.64156 0.24978 0.35750
 H981 H 0.62489 0.27323 0.43983
 H982 H 0.67327 0.26042 0.40007
 H983 H 0.58297 0.22703 0.39124
 H984 H 0.61543 0.24746 0.34790
 C985 C 0.91346 0.75709 0.08873
 C986 C 0.91841 0.74842 0.12213
 C987 C 0.89174 0.75073 0.14961
 C988 C 0.85766 0.75170 0.14370
 H989 H 0.94308 0.73841 0.13042
 H990 H 0.90092 0.74995 0.17601
 H991 H 0.88791 0.76495 0.08094
 H992 H 0.84792 0.75063 0.11757
 C993 C 0.40969 0.26228 0.59172
 C994 C 0.41538 0.24837 0.62299
 C995 C 0.38950 0.24774 0.65101
 C996 C 0.35549 0.24802 0.64520
 H997 H 0.44057 0.23792 0.62900
 H998 H 0.39907 0.24581 0.67721
 H999 H 0.38472 0.27296 0.58533
 H1000 H 0.34578 0.24791 0.61900
 C1001 C 0.90749 0.25165 0.91668
 C1002 C 0.91150 0.24407 0.88297
 C1003 C 0.88380 0.24540 0.85656
 C1004 C 0.84995 0.24946 0.86302
 H1005 H 0.93636 0.23553 0.87352
 H1006 H 0.89224 0.24185 0.83011
 H1007 H 0.88189 0.25757 0.92583
 H1008 H 0.84047 0.25179 0.88916
 C1009 C 0.41237 0.76373 0.40876
 C1010 C 0.41385 0.74561 0.37927
 C1011 C 0.38750 0.74719 0.35185
 C1012 C 0.35444 0.75557 0.35749
 H1013 H 0.43594 0.72923 0.37429
 H1014 H 0.39549 0.73881 0.32637
 H1015 H 0.39043 0.78010 0.41424
 H1016 H 0.34553 0.76145 0.38333
 C1017 C 0.09160 0.08967 0.24449
 C1018 C 0.08631 0.12369 0.23951
 C1019 C 0.11358 0.15063 0.24061
 C1020 C 0.14653 0.14523 0.24981
 H1021 H 0.06092 0.13284 0.23247
 H1022 H 0.10567 0.17642 0.23329
 H1023 H 0.11785 0.08078 0.24693
 H1024 H 0.15541 0.11983 0.25699
 C1025 C 0.58863 0.59174 0.75161
 C1026 C 0.58697 0.62223 0.73539
 C1027 C 0.61373 0.64929 0.73783
 C1028 C 0.64686 0.64340 0.74597
 H1029 H 0.56415 0.62854 0.72056
 H1030 H 0.60567 0.67517 0.73103
 H1031 H 0.61133 0.58475 0.76623
 H1032 H 0.65595 0.61739 0.75039
 C1033 C 0.90668 0.08898 0.74660
 C1034 C 0.90903 0.11874 0.76419
 C1035 C 0.88298 0.14650 0.76274
 C1036 C 0.84997 0.14132 0.75397
 H1037 H 0.93207 0.12400 0.77911
 H1038 H 0.89133 0.17199 0.77062
 H1039 H 0.88400 0.08309 0.73146
 H1040 H 0.84063 0.11557 0.74854
 C1041 C 0.41459 0.59057 0.24368
 C1042 C 0.38279 0.58549 0.25668
 C1043 C 0.35475 0.61147 0.25656
 C1044 C 0.35965 0.64526 0.25125
 H1045 H 0.37625 0.56039 0.26710
 H1046 H 0.32899 0.60205 0.26199
 H1047 H 0.42211 0.61544 0.23359
 H1048 H 0.38537 0.65539 0.24751
 C1049 C 0.09066 0.91712 0.75478
 C1050 C 0.08582 0.88358 0.76268
 C1051 C 0.11295 0.85664 0.76194
 C1052 C 0.14550 0.86165 0.75132
 H1053 H 0.06065 0.87481 0.77100
 H1054 H 0.10519 0.83112 0.77035
 H1055 H 0.11669 0.92616 0.75094
 H1056 H 0.15435 0.88683 0.74331
 C1057 C 0.59262 0.40913 0.24321
 C1058 C 0.59721 0.38702 0.26937
 C1059 C 0.62212 0.35827 0.26807
 C1060 C 0.65332 0.36078 0.25338
 H1061 H 0.58023 0.38828 0.29158
 H1062 H 0.61507 0.33480 0.28155
 H1063 H 0.60919 0.40786 0.22071
 H1064 H 0.66196 0.38523 0.24292
 C1065 C 0.91451 0.90955 0.24112
 C1066 C 0.90906 0.88926 0.26860
 C1067 C 0.88394 0.86070 0.26828
 C1068 C 0.85287 0.86362 0.25363
 H1069 H 0.92528 0.89191 0.29121
 H1070 H 0.89067 0.83732 0.28205
 H1071 H 0.89863 0.90673 0.21828
 H1072 H 0.84492 0.88813 0.24279
 C1073 C 0.40895 0.41285 0.75261
 C1074 C 0.38808 0.40289 0.72694
 C1075 C 0.35889 0.37890 0.73186
 C1076 C 0.35941 0.35278 0.75443
 H1077 H 0.39108 0.41428 0.70158
 H1078 H 0.33730 0.38134 0.71426
 H1079 H 0.40628 0.40169 0.77809
 H1080 H 0.38243 0.34760 0.76939
 C1081 C 0.08530 0.24643 0.91170
 C1082 C 0.11949 0.24988 0.91736
 C1083 C 0.14660 0.25073 0.89030
 C1084 C 0.14120 0.24590 0.85645
 H1085 H 0.12891 0.25371 0.94336
 H1086 H 0.17267 0.25530 0.89931
 H1087 H 0.07614 0.24670 0.88540
 H1088 H 0.11552 0.24139 0.84660
 C1089 C 0.58986 0.73868 0.41009
 C1090 C 0.62184 0.75075 0.41559
 C1091 C 0.64968 0.75001 0.38956
 C1092 C 0.64394 0.74765 0.35555
 H1093 H 0.62835 0.76146 0.44060
 H1094 H 0.67579 0.75322 0.39899
 H1095 H 0.58272 0.72780 0.38540
 H1096 H 0.61790 0.74634 0.34563
 C1097 C 0.90826 0.74833 0.91112
 C1098 C 0.91215 0.76375 0.88007
 C1099 C 0.88550 0.76477 0.85254
 C1100 C 0.85158 0.76047 0.85782
 H1101 H 0.93659 0.77547 0.87332
 H1102 H 0.89471 0.76976 0.82659
 H1103 H 0.88267 0.74004 0.91790
 H1104 H 0.84163 0.75748 0.88374
 C1105 C 0.40948 0.24728 0.41178
 C1106 C 0.37971 0.26489 0.41323
 C1107 C 0.35281 0.26332 0.38619
 C1108 C 0.35940 0.25663 0.35282
 H1109 H 0.37405 0.28044 0.43579
 H1110 H 0.32675 0.26962 0.39412
 H1111 H 0.41522 0.23143 0.38949
 H1112 H 0.38569 0.25267 0.34422
 C1113 C 0.08995 0.74028 0.08697
 C1114 C 0.12238 0.75173 0.08262
 C1115 C 0.14958 0.75029 0.10951
 C1116 C 0.14333 0.74653 0.14339
 H1117 H 0.12993 0.76207 0.05776
 H1118 H 0.17590 0.75385 0.10075
 H1119 H 0.08174 0.73013 0.11164
 H1120 H 0.11711 0.74489 0.15283
 C1121 C 0.58777 0.26438 0.59126
 C1122 C 0.58335 0.25083 0.62280
 C1123 C 0.60996 0.25106 0.65001
 C1124 C 0.64388 0.25373 0.64375
 H1125 H 0.55866 0.23959 0.62958
 H1126 H 0.60094 0.24733 0.67623
 H1127 H 0.61224 0.27557 0.58383
 H1128 H 0.65343 0.25543 0.61754
 C1129 C 0.91251 0.24976 0.09458
 C1130 C 0.91664 0.23402 0.12522
 C1131 C 0.89049 0.23469 0.15316
 C1132 C 0.85667 0.23863 0.14728
 H1133 H 0.94064 0.22083 0.13071
 H1134 H 0.89955 0.23047 0.17928
 H1135 H 0.88879 0.26334 0.08896
 H1136 H 0.84727 0.24072 0.12105
 C1137 C 0.41108 0.76088 0.58825
 C1138 C 0.41250 0.74254 0.61758
 C1139 C 0.38608 0.74418 0.64502
 C1140 C 0.35284 0.75166 0.63923
 H1141 H 0.43479 0.72648 0.62263
 H1142 H 0.39435 0.73719 0.67080
 H1143 H 0.38896 0.77704 0.58287
 H1144 H 0.34377 0.75614 0.61318
 C1145 C 0.26121 0.08677 0.91061
 C1146 C 0.24271 0.08388 0.88149
 C1147 C 0.24306 0.11016 0.85389
 C1148 C 0.24779 0.14383 0.86017
 H1149 H 0.22767 0.06074 0.87699
 H1150 H 0.23755 0.10148 0.82787
 H1151 H 0.27717 0.10930 0.91488
 H1152 H 0.25071 0.15287 0.88648
 C1153 C 0.76033 0.59143 0.41372
 C1154 C 0.74238 0.58979 0.38409
 C1155 C 0.74415 0.61596 0.35632
 C1156 C 0.75225 0.64915 0.36158
 H1157 H 0.72686 0.56714 0.37884
 H1158 H 0.73676 0.60753 0.33069
 H1159 H 0.77592 0.61386 0.41954
 H1160 H 0.75711 0.65846 0.38749
 C1161 C 0.73261 0.09016 0.08916
 C1162 C 0.75003 0.11995 0.08597
 C1163 C 0.75070 0.14714 0.11279
 C1164 C 0.74583 0.14082 0.14645
 H1165 H 0.76385 0.12531 0.06225
 H1166 H 0.75709 0.17302 0.10438
 H1167 H 0.71863 0.08445 0.11267
 H1168 H 0.74170 0.11468 0.15536
 C1169 C 0.24227 0.58898 0.59199
 C1170 C 0.26313 0.58986 0.61959
 C1171 C 0.26102 0.61647 0.64691
 C1172 C 0.25103 0.64909 0.64112
 H1173 H 0.28170 0.56931 0.62329
 H1174 H 0.27014 0.60918 0.67231
 H1175 H 0.22312 0.60898 0.58841
 H1176 H 0.24457 0.65731 0.61519
 C1177 C 0.74261 0.90842 0.91384
 C1178 C 0.71633 0.88872 0.90314
 C1179 C 0.72104 0.85996 0.87873
 C1180 C 0.74239 0.86207 0.85173
 H1181 H 0.69081 0.89251 0.91390
 H1182 H 0.70455 0.83756 0.88167
 H1183 H 0.76819 0.90451 0.90327
 H1184 H 0.75596 0.88596 0.84645
 C1185 C 0.25911 0.40991 0.41043
 C1186 C 0.23379 0.38702 0.40479
 C1187 C 0.23650 0.35876 0.37945
 C1188 C 0.25277 0.36210 0.34917
 H1189 H 0.21115 0.38730 0.42124
 H1190 H 0.22270 0.33512 0.38520
 H1191 H 0.28224 0.40934 0.39473
 H1192 H 0.26368 0.38676 0.34179
 C1193 C 0.25689 0.91074 0.09326
 C1194 C 0.22798 0.90020 0.10896
 C1195 C 0.22865 0.87514 0.13742
 C1196 C 0.24783 0.84654 0.13608
 H1197 H 0.20349 0.91199 0.10251
 H1198 H 0.21157 0.87955 0.15917
 H1199 H 0.28144 0.89921 0.10000
 H1200 H 0.26206 0.84026 0.11280
 C1201 C 0.73991 0.40739 0.58833
 C1202 C 0.75779 0.37780 0.58717
 C1203 C 0.75553 0.35069 0.61397
 C1204 C 0.74895 0.35725 0.64738
 H1205 H 0.77431 0.37261 0.56519
 H1206 H 0.76173 0.32464 0.60596
 H1207 H 0.72290 0.41250 0.60993
 H1208 H 0.74520 0.38357 0.65601
 C1209 C 0.08524 0.09363 0.75279
 C1210 C 0.09146 0.11710 0.72807
 C1211 C 0.11672 0.14528 0.73217
 C1212 C 0.14649 0.14135 0.74912
 H1213 H 0.07773 0.11607 0.70378
 H1214 H 0.11156 0.16923 0.71870
 H1215 H 0.10182 0.09353 0.77522
 H1216 H 0.15352 0.11636 0.75947
 C1217 C 0.59343 0.58805 0.25863
 C1218 C 0.59125 0.61875 0.24282
 C1219 C 0.61759 0.64624 0.24539
 C1220 C 0.65109 0.64061 0.25208
 H1221 H 0.56843 0.62475 0.22786
 H1222 H 0.60895 0.67215 0.23948
 H1223 H 0.61599 0.58169 0.27378
 H1224 H 0.66054 0.61460 0.25575
 C1225 C 0.09292 0.91256 0.23319
 C1226 C 0.12584 0.91628 0.24340
 C1227 C 0.15170 0.88820 0.24271
 C1228 C 0.14400 0.85435 0.24287
 H1229 H 0.13473 0.94069 0.25367
 H1230 H 0.17844 0.89622 0.24402
 H1231 H 0.08470 0.88736 0.22457
 H1232 H 0.11747 0.84572 0.24348
 C1233 C 0.58836 0.41325 0.74249
 C1234 C 0.61884 0.41627 0.75869
 C1235 C 0.64640 0.38992 0.75723
 C1236 C 0.64041 0.35643 0.75113
 H1237 H 0.62452 0.43963 0.77297
 H1238 H 0.67235 0.39844 0.76319
 H1239 H 0.58231 0.39018 0.72797
 H1240 H 0.61428 0.34728 0.74750
 C1241 C 0.91279 0.08827 0.24638
 C1242 C 0.90238 0.10514 0.27468
 C1243 C 0.87707 0.13347 0.27319
 C1244 C 0.84820 0.13184 0.25430
 H1245 H 0.91452 0.09987 0.29929
 H1246 H 0.88165 0.15565 0.28963
 H1247 H 0.90071 0.09365 0.22174
 H1248 H 0.84167 0.10830 0.24065
 C1249 C 0.40941 0.59206 0.74303
 C1250 C 0.37884 0.58967 0.75911
 C1251 C 0.35137 0.61593 0.75645
 C1252 C 0.35729 0.64894 0.74814
 H1253 H 0.37289 0.56672 0.77393
 H1254 H 0.32547 0.60778 0.76315
 H1255 H 0.41597 0.61472 0.72813
 H1256 H 0.38333 0.65803 0.74383
 C1257 C 0.91306 0.91013 0.75136
 C1258 C 0.90378 0.89076 0.72433
 C1259 C 0.87896 0.86218 0.72756
 C1260 C 0.85025 0.86472 0.74658
 H1261 H 0.91583 0.89478 0.69942
 H1262 H 0.88333 0.83937 0.71195
 H1263 H 0.90096 0.90610 0.77627
 H1264 H 0.84384 0.88889 0.75915
 C1265 C 0.41250 0.41247 0.23027
 C1266 C 0.38228 0.41644 0.24676
 C1267 C 0.35466 0.39025 0.24683
 C1268 C 0.36081 0.35634 0.24433
 H1269 H 0.37700 0.44029 0.26039
 H1270 H 0.32859 0.39934 0.25117
 H1271 H 0.41791 0.38889 0.21630
 H1272 H 0.38706 0.34696 0.24241
   
