data_POSCAR
  _audit_creation_date              2014-09-24
  _audit_creation_method            'ToBaCCo'
  _symmetry_space_group_name_H-M    'P1'
  _symmetry_Int_Tables_number       1
  _symmetry_cell_setting            triclinic
  loop_
  _symmetry_equiv_pos_as_xyz
 x,y,z
_cell_length_a 76.3035
_cell_length_b 76.1927
_cell_length_c 76.1069
_cell_angle_alpha 89.999100
_cell_angle_beta 90.006100
_cell_angle_gamma 90.032100
loop_
  _atom_site_label
  _atom_site_type_symbol
  _atom_site_fract_x
  _atom_site_fract_y
  _atom_site_fract_z
C1 C 0.31361 0.43766 0.91524
 N2 N 0.32843 0.44456 0.92234
 C3 C 0.33564 0.43760 0.93713
 N4 N 0.32779 0.42349 0.94474
 C5 C 0.31298 0.41639 0.93782
 N6 N 0.30598 0.42356 0.92306
 C7 C 0.44125 0.83150 0.44055
 N8 N 0.42680 0.82397 0.44780
 C9 C 0.41933 0.80952 0.44047
 N10 N 0.42645 0.80261 0.42564
 C11 C 0.44089 0.80992 0.41819
 N12 N 0.44818 0.82435 0.42572
 C13 C 0.93357 0.91231 0.81676
 N14 N 0.94078 0.91965 0.83134
 C15 C 0.93360 0.93417 0.83884
 N16 N 0.91899 0.94130 0.83150
 C17 C 0.91162 0.93414 0.81692
 N18 N 0.91900 0.91965 0.80964
 C19 C 0.43815 -0.08424 0.31062
 N20 N 0.44569 -0.07641 0.32479
 C21 C 0.43871 -0.06166 0.33196
 N22 N 0.42397 -0.05470 0.32480
 C23 C 0.41623 -0.06228 0.31064
 N24 N 0.42338 -0.07705 0.30366
 C25 C 0.80984 0.30835 0.33020
 N26 N 0.82470 0.30148 0.32318
 C27 C 0.83225 0.30880 0.30877
 N28 N 0.82477 0.32321 0.30139
 C29 C 0.80990 0.33026 0.30822
 N30 N 0.80255 0.32276 0.32264
 C31 C -0.18696 0.83572 0.81233
 N32 N -0.17217 0.82855 0.80540
 C33 C -0.16504 0.81377 0.81234
 N34 N -0.17284 0.80613 0.82645
 C35 C -0.18760 0.81306 0.83364
 N36 N -0.19454 0.82785 0.82645
 C37 C 0.94164 0.32994 0.44086
 N38 N 0.92720 0.32243 0.44812
 C39 C 0.91974 0.30800 0.44078
 N40 N 0.92686 0.30111 0.42594
 C41 C 0.94129 0.30844 0.41848
 N42 N 0.94857 0.32287 0.42602
 C43 C 0.43303 0.43338 0.83922
 N44 N 0.44012 0.41880 0.83177
 C45 C 0.43288 0.41146 0.81720
 N46 N 0.41836 0.41887 0.81005
 C47 C 0.41106 0.43343 0.81728
 N48 N 0.41848 0.44059 0.83184
 C49 C 0.81354 0.91611 0.93748
 N50 N 0.82835 0.92329 0.94437
 C51 C 0.83615 0.93743 0.93676
 N52 N 0.82890 0.94439 0.92199
 C53 C 0.81409 0.93746 0.91491
 N54 N 0.80653 0.92334 0.92274
 C55 C 0.31254 0.83491 0.31072
 N56 N 0.32734 0.82771 0.30383
 C57 C 0.33446 0.81294 0.31085
 N58 N 0.32665 0.80537 0.32499
 C59 C 0.31187 0.81235 0.33207
 N60 N 0.30493 0.82710 0.32486
 C61 C 0.80717 0.42079 0.44303
 N62 N 0.82171 0.42818 0.45021
 C63 C 0.82904 0.44276 0.44302
 N64 N 0.82170 0.44990 0.42841
 C65 C 0.80716 0.44269 0.42104
 N66 N 0.80001 0.42811 0.42842
 C67 C 0.93815 0.83575 -0.06351
 N68 N 0.92408 0.82785 -0.05591
 C69 C 0.91699 0.81305 -0.06288
 N70 N 0.92414 0.80611 -0.07767
 C71 C 0.93821 0.81376 -0.08553
 N72 N 0.94508 0.82859 -0.07834
 C73 C 0.31232 0.33470 0.81188
 N74 N 0.30466 0.32688 0.82596
 C75 C 0.31156 0.31206 0.83309
 N76 N 0.32633 0.30509 0.82596
 C77 C 0.33417 0.31273 0.81188
 N78 N 0.32709 0.32755 0.80495
 C79 C 0.16608 0.56214 0.56069
 N80 N 0.17327 0.57690 0.55371
 C81 C 0.18800 0.58407 0.56073
 N82 N 0.19551 0.57634 0.57494
 C83 C 0.18850 0.56159 0.58210
 N84 N 0.17378 0.55460 0.57490
 C85 C 0.58270 0.69061 0.05903
 N86 N 0.57525 0.69799 0.07346
 C87 C 0.56041 0.69115 0.08058
 N88 N 0.55307 0.67671 0.07312
 C89 C 0.56032 0.66916 0.05869
 N90 N 0.57516 0.67617 0.05175
 C91 C 0.69066 0.19115 0.66844
 N92 N 0.67622 0.19842 0.67592
 C93 C 0.66916 0.19150 0.69078
 N94 N 0.67668 0.17710 0.69811
 C95 C 0.69113 0.16966 0.69082
 N96 N 0.69801 0.17675 0.67596
 C97 C 1.08062 0.05738 0.19194
 N98 N 1.07321 0.05021 0.17735
 C99 C 1.05858 0.05727 0.17001
 N100 N 1.05134 0.07176 0.17750
 C101 C 1.05850 0.07913 0.19208
 N102 N 1.07314 0.07188 0.19919
 C103 C 0.05952 0.16858 1.05916
 N104 N 0.05232 0.17613 1.07365
 C105 C 0.05963 0.19058 1.08116
 N106 N 0.07440 0.19748 1.07394
 C107 C 0.08182 0.19016 1.05946
 N108 N 0.07430 0.17572 1.05218
 C109 C 0.16943 0.69183 0.69044
 N110 N 0.17697 0.67745 0.69778
 C111 C 0.19141 0.67000 0.69049
 N112 N 0.19828 0.67708 0.67561
 C113 C 0.19091 0.69146 0.66807
 N114 N 0.17647 0.69873 0.67557
 C115 C 1.19139 0.16855 0.19008
 N116 N 1.17700 0.17607 0.19745
 C117 C 1.16950 0.19053 0.19020
 N118 N 1.17652 0.19747 0.17535
 C119 C 1.19090 0.19019 0.16772
 N120 N 1.19822 0.17574 0.17521
 C121 C 0.66637 1.06204 0.56071
 N122 N 0.67408 1.05445 0.57489
 C123 C 0.68881 1.06141 0.58209
 N124 N 0.69581 1.07619 0.57496
 C125 C 0.68830 1.08402 0.56078
 N126 N 0.67356 1.07681 0.55376
 C127 C 0.55990 0.55891 0.16953
 N128 N 0.55263 0.57335 0.17702
 C129 C 0.55999 0.58091 0.19141
 N130 N 0.57486 0.57388 0.19827
 C131 C 0.58232 0.55943 0.19095
 N132 N 0.57476 0.55205 0.17656
 C133 C 0.66765 0.68852 0.18843
 N134 N 0.67480 0.69555 0.17367
 C135 C 0.68896 0.68802 0.16590
 N136 N 0.69593 0.67325 0.17306
 C137 C 0.68896 0.66604 0.18782
 N138 N 0.67481 0.67375 0.19540
 C139 C 0.16873 0.05920 1.05870
 N140 N 0.17628 0.05189 1.07313
 C141 C 0.19077 0.05911 1.08063
 N142 N 0.19771 0.07390 1.07345
 C143 C 0.19039 0.08142 1.05903
 N144 N 0.17591 0.07400 1.05176
 C145 C 0.58317 0.18886 0.56031
 N146 N 0.57544 0.19643 0.57450
 C147 C 0.56068 0.18945 0.58165
 N148 N 0.55368 0.17470 0.57446
 C149 C 0.56123 0.16696 0.56028
 N150 N 0.57598 0.17411 0.55331
 C151 C 0.08065 0.55918 0.69042
 N152 N 0.07315 0.57362 0.69770
 C153 C 0.05875 0.58110 0.69035
 N154 N 0.05189 0.57400 0.67548
 C155 C 0.05922 0.55957 0.66800
 N156 N 0.07361 0.55227 0.67555
 C157 C 0.66754 0.56167 0.06095
 N158 N 0.67471 0.57642 0.05395
 C159 C 0.68891 0.58412 0.06148
 N160 N 0.69591 0.57691 0.07623
 C161 C 0.68892 0.56216 0.08341
 N162 N 0.67472 0.55464 0.07569
 C163 C 0.06147 0.68878 0.58218
 N164 N 0.07622 0.69574 0.57499
 C165 C 0.08396 0.68812 0.56084
 N166 N 0.07679 0.67333 0.55391
 C167 C 0.06204 0.66619 0.56092
 N168 N 0.05449 0.67399 0.57507
 C169 C 0.55960 1.05966 0.66694
 N170 N 0.57400 1.05238 0.67454
 C171 C 0.58098 1.05924 0.68947
 N172 N 0.57341 1.07361 0.69681
 C173 C 0.55901 1.08108 0.68945
 N174 N 0.55222 1.07404 0.67453
 C175 C 0.43729 0.33546 0.93714
 N176 N 0.44425 0.32826 0.92235
 C177 C 0.43737 0.31343 0.91523
 N178 N 0.42330 0.30577 0.92304
 C179 C 0.41613 0.31275 0.93780
 N180 N 0.42320 0.32757 0.94475
 C181 C 0.94126 0.43977 0.33106
 N182 N 0.92687 0.44710 0.32349
 C183 C 0.91940 0.43985 0.30900
 N184 N 0.92646 0.42503 0.30206
 C185 C 0.94084 0.41750 0.30940
 N186 N 0.94813 0.42495 0.32389
 C187 C 0.31016 0.94104 0.41751
 N188 N 0.30280 0.92668 0.42509
 C189 C 0.30970 0.91961 0.43995
 N190 N 0.32418 0.92705 0.44718
 C191 C 0.33178 0.94142 0.43980
 N192 N 0.32465 0.94830 0.42494
 O193 O 0.20297 0.52301 0.74864
 O194 O 0.20933 0.52171 0.77948
 O195 O 0.24874 0.54750 0.72758
 O196 O 0.27767 0.54264 0.72743
 O197 O 0.22711 0.50174 0.70312
 O198 O 0.22885 0.47088 0.70957
 O199 O 0.29513 0.49905 0.77311
 O200 O 0.29061 0.52987 0.76938
 O201 O 0.25151 0.47803 0.79570
 O202 O 0.21936 0.47972 0.78969
 O203 O 0.27247 0.45513 0.75142
 O204 O 0.27086 0.46123 0.71942
 O205 O 0.29518 0.47798 0.75200
 O206 O 0.28937 0.48046 0.71944
 O207 O 0.25154 0.45504 0.77263
 O208 O 0.21925 0.46110 0.77068
 O209 O 0.27255 0.49914 0.79562
 O210 O 0.26977 0.53119 0.78985
 O211 O 0.20293 0.50177 0.72765
 O212 O 0.20944 0.47079 0.72936
 O213 O 0.24807 0.52296 0.70306
 O214 O 0.27960 0.51986 0.70968
 O215 O 0.22745 0.54748 0.74849
 O216 O 0.22905 0.54107 0.77958
 Zr217 Zr 0.22841 0.52207 0.75935
 O218 O 0.24379 0.50659 0.77631
 Zr219 Zr 0.25916 0.52198 0.72839
 O220 O 0.27609 0.50676 0.74411
 Zr221 Zr 0.22833 0.49108 0.72861
 O222 O 0.24391 0.47429 0.74406
 Zr223 Zr 0.27041 0.51090 0.77076
 O224 O 0.25508 0.52796 0.75514
 Zr225 Zr 0.23969 0.47990 0.77076
 O226 O 0.22254 0.49535 0.75531
 Zr227 Zr 0.27052 0.48008 0.73985
 O228 O 0.25492 0.49530 0.72264
 O229 O 0.23267 0.51764 0.73280
 O230 O 0.26622 0.48428 0.76647
 C231 C 0.19549 0.51421 0.73630
 C232 C 0.23630 0.55496 0.73620
 C233 C 0.23570 0.51421 0.69563
 C234 C 0.30223 0.48607 0.76503
 C235 C 0.26438 0.48628 0.80284
 C236 C 0.26433 0.44789 0.76429
 H237 H 0.24089 0.50938 0.78864
 H238 H 0.24114 0.46194 0.74122
 H239 H 0.22516 0.52515 0.72534
 H240 H 0.28847 0.50964 0.74154
 H241 H 0.28547 0.54041 0.76377
 H242 H 0.28795 0.53894 0.73443
 H243 H 0.22123 0.45307 0.76067
 H244 H 0.20371 0.47153 0.74101
 H245 H 0.25985 0.52895 0.79791
 H246 H 0.24065 0.54684 0.77886
 H247 H 0.26044 0.45365 0.72084
 H248 H 0.24050 0.47149 0.70388
 H249 H 0.20398 0.50988 0.77923
 H250 H 0.22106 0.48998 0.79748
 H251 H 0.27759 0.50886 0.70307
 H252 H 0.29764 0.49017 0.72182
 O253 O 0.20343 0.02252 0.24793
 O254 O 0.20997 0.02120 0.27876
 O255 O 0.24908 0.04699 0.22665
 O256 O 0.27805 0.04213 0.22657
 O257 O 0.22746 0.00122 0.20224
 O258 O 0.22910 -0.02960 0.20871
 O259 O 0.29582 -0.00145 0.27179
 O260 O 0.29111 0.02933 0.26835
 O261 O 0.25181 -0.02230 0.29487
 O262 O 0.21986 -0.02089 0.28877
 O263 O 0.27292 -0.04544 0.25048
 O264 O 0.27105 -0.03936 0.21842
 O265 O 0.29576 -0.02242 0.25059
 O266 O 0.28958 -0.02028 0.21829
 O267 O 0.25208 -0.04547 0.27176
 O268 O 0.21977 -0.03945 0.26980
 O269 O 0.27297 -0.00133 0.29475
 O270 O 0.27062 0.03048 0.28899
 O271 O 0.20327 0.00130 0.22691
 O272 O 0.20977 -0.02967 0.22856
 O273 O 0.24843 0.02242 0.20216
 O274 O 0.27990 0.01942 0.20867
 O275 O 0.22789 0.04696 0.24766
 O276 O 0.22966 0.04059 0.27870
 Zr277 Zr 0.22892 0.02156 0.25851
 O278 O 0.24435 0.00605 0.27538
 Zr279 Zr 0.25954 0.02147 0.22747
 O280 O 0.27650 0.00618 0.24309
 Zr281 Zr 0.22868 -0.00941 0.22775
 O282 O 0.24429 -0.02624 0.24314
 Zr283 Zr 0.27098 0.01029 0.26979
 O284 O 0.25559 0.02741 0.25424
 Zr285 Zr 0.24020 -0.02063 0.26985
 O286 O 0.22301 -0.00515 0.25448
 Zr287 Zr 0.27090 -0.02050 0.23885
 O288 O 0.25527 -0.00522 0.22172
 O289 O 0.23306 0.01714 0.23194
 O290 O 0.26676 -0.01634 0.26553
 C291 C 0.19587 0.01372 0.23564
 C292 C 0.23666 0.05445 0.23531
 C293 C 0.23607 0.01365 0.19473
 C294 C 0.30299 -0.01424 0.26345
 C295 C 0.26460 -0.01400 0.30208
 C296 C 0.26482 -0.05266 0.26339
 H297 H 0.24146 0.00885 0.28771
 H298 H 0.24151 -0.03858 0.24032
 H299 H 0.22552 0.02465 0.22450
 H300 H 0.28886 0.00907 0.24044
 H301 H 0.28593 0.03985 0.26275
 H302 H 0.28840 0.03835 0.23341
 H303 H 0.22179 -0.04754 0.25984
 H304 H 0.20413 -0.02898 0.24026
 H305 H 0.26030 0.02868 0.29664
 H306 H 0.24126 0.04637 0.27791
 H307 H 0.26073 -0.04705 0.22003
 H308 H 0.24077 -0.02909 0.20306
 H309 H 0.20442 0.00946 0.27839
 H310 H 0.22130 -0.01043 0.29632
 H311 H 0.27791 0.00839 0.20208
 H312 H 0.29760 -0.01028 0.22031
 O313 O 0.54736 0.72781 0.24875
 O314 O 0.54091 0.72950 0.27965
 O315 O 0.50184 0.70332 0.22768
 O316 O 0.47285 0.70816 0.22751
 O317 O 0.52339 0.74910 0.20307
 O318 O 0.52181 0.77992 0.20945
 O319 O 0.45499 0.75199 0.27253
 O320 O 0.45970 0.72122 0.26927
 O321 O 0.49901 0.77297 0.29555
 O322 O 0.53089 0.77161 0.28952
 O323 O 0.47788 0.79587 0.25100
 O324 O 0.47981 0.78960 0.21895
 O325 O 0.45506 0.77285 0.25121
 O326 O 0.46124 0.77055 0.21895
 O327 O 0.49872 0.79602 0.27230
 O328 O 0.53107 0.78998 0.27036
 O329 O 0.47785 0.75200 0.29551
 O330 O 0.48022 0.72013 0.28988
 O331 O 0.54753 0.74894 0.22764
 O332 O 0.54113 0.78000 0.22935
 O333 O 0.50248 0.72783 0.20302
 O334 O 0.47099 0.73079 0.20951
 O335 O 0.52297 0.70350 0.24876
 O336 O 0.52120 0.71007 0.27976
 Zr337 Zr 0.52192 0.72896 0.25943
 O338 O 0.50647 0.74453 0.27620
 Zr339 Zr 0.49134 0.72885 0.22833
 O340 O 0.47435 0.74420 0.24387
 Zr341 Zr 0.52217 0.75977 0.22853
 O342 O 0.50653 0.77666 0.24380
 Zr343 Zr 0.47984 0.74025 0.27060
 O344 O 0.49526 0.72306 0.25516
 Zr345 Zr 0.51061 0.77119 0.27054
 O346 O 0.52784 0.75564 0.25528
 Zr347 Zr 0.47993 0.77088 0.23951
 O348 O 0.49560 0.75552 0.22247
 O349 O 0.51779 0.73324 0.23283
 O350 O 0.48405 0.76686 0.26622
 C351 C 0.55489 0.73647 0.23633
 C352 C 0.51425 0.69594 0.23643
 C353 C 0.51482 0.73663 0.19558
 C354 C 0.44783 0.76474 0.26411
 C355 C 0.48623 0.76469 0.30279
 C356 C 0.48598 0.80316 0.26387
 H357 H 0.50935 0.74180 0.28855
 H358 H 0.50930 0.78900 0.24092
 H359 H 0.52529 0.72568 0.22541
 H360 H 0.46200 0.74130 0.24122
 H361 H 0.46487 0.71068 0.26368
 H362 H 0.46250 0.71195 0.23433
 H363 H 0.52903 0.79804 0.26038
 H364 H 0.54685 0.77923 0.24100
 H365 H 0.49048 0.72202 0.29758
 H366 H 0.50961 0.70427 0.27900
 H367 H 0.49006 0.79738 0.22059
 H368 H 0.51014 0.77942 0.20379
 H369 H 0.54655 0.74119 0.27908
 H370 H 0.52960 0.76105 0.29696
 H371 H 0.47296 0.74180 0.20288
 H372 H 0.45325 0.76053 0.22099
 O373 O 0.00130 0.70364 0.72724
 O374 O -0.02943 0.71008 0.72861
 O375 O 0.02249 0.74926 0.70269
 O376 O 0.02237 0.77834 0.70744
 O377 O 0.04692 0.72787 0.74844
 O378 O 0.04052 0.72947 0.77932
 O379 O -0.02280 0.79596 0.75130
 O380 O -0.01921 0.79141 0.72045
 O381 O -0.04538 0.75222 0.77236
 O382 O -0.03937 0.72004 0.77069
 O383 O -0.00115 0.77330 0.79521
 O384 O 0.03082 0.77155 0.78900
 O385 O -0.00167 0.79601 0.77232
 O386 O 0.03075 0.79013 0.76982
 O387 O -0.02235 0.75236 0.79532
 O388 O -0.02039 0.72000 0.78932
 O389 O -0.04533 0.77330 0.75125
 O390 O -0.03968 0.77059 0.71920
 O391 O 0.02237 0.70355 0.74837
 O392 O 0.02076 0.71006 0.77942
 O393 O 0.04692 0.74888 0.72723
 O394 O 0.04031 0.78035 0.73016
 O395 O 0.00154 0.72802 0.70279
 O396 O -0.02948 0.72983 0.70921
 Zr397 Zr -0.00928 0.72913 0.72821
 O398 O -0.02612 0.74453 0.74376
 Zr399 Zr 0.02163 0.75987 0.72819
 O400 O 0.00605 0.77685 0.74350
 Zr401 Zr 0.02149 0.72900 0.75913
 O402 O 0.00615 0.74462 0.77600
 Zr403 Zr -0.02056 0.77119 0.73944
 O404 O -0.00507 0.75582 0.72228
 Zr405 Zr -0.02050 0.74043 0.77046
 O406 O -0.00517 0.72324 0.75494
 Zr407 Zr 0.01036 0.77127 0.77021
 O408 O 0.02744 0.75564 0.75489
 O409 O 0.01723 0.73335 0.73257
 O410 O -0.01621 0.76699 0.76607
 C411 C 0.01363 0.69612 0.73596
 C412 C 0.01388 0.73675 0.69528
 C413 C 0.05438 0.73653 0.73600
 C414 C -0.01467 0.80308 0.76425
 C415 C -0.05252 0.76510 0.76412
 C416 C -0.01402 0.76518 0.80246
 H417 H -0.03843 0.74163 0.74101
 H418 H 0.00901 0.74187 0.78836
 H419 H 0.02467 0.72582 0.72507
 H420 H 0.00862 0.78924 0.74062
 H421 H -0.01369 0.78626 0.70987
 H422 H 0.01559 0.78872 0.71125
 H423 H -0.01039 0.72202 0.79735
 H424 H 0.00911 0.70437 0.77873
 H425 H -0.04762 0.76056 0.72136
 H426 H -0.02867 0.74141 0.70338
 H427 H 0.02927 0.76122 0.79673
 H428 H 0.04612 0.74118 0.77880
 H429 H -0.02914 0.70467 0.74043
 H430 H -0.04717 0.72173 0.76046
 H431 H 0.04684 0.77847 0.74124
 H432 H 0.02842 0.79836 0.76004
 O433 O 0.04704 0.02267 0.00157
 O434 O 0.04059 0.02141 -0.02926
 O435 O 0.00144 0.04700 0.02289
 O436 O -0.02758 0.04208 0.02292
 O437 O 0.02295 0.00110 0.04719
 O438 O 0.02140 -0.02964 0.04059
 O439 O -0.04525 -0.00118 -0.02254
 O440 O -0.04051 0.02948 -0.01906
 O441 O -0.00154 -0.02243 -0.04534
 O442 O 0.03077 -0.02031 -0.03944
 O443 O -0.02238 -0.04539 -0.00152
 O444 O -0.02060 -0.03948 0.03070
 O445 O -0.04523 -0.02242 -0.00159
 O446 O -0.03922 -0.02043 0.03082
 O447 O -0.00127 -0.04530 -0.02255
 O448 O 0.03088 -0.03918 -0.02060
 O449 O -0.02274 -0.00152 -0.04517
 O450 O -0.01969 0.03072 -0.03952
 O451 O 0.04719 0.00145 0.02258
 O452 O 0.04073 -0.02961 0.02074
 O453 O 0.00199 0.02229 0.04735
 O454 O -0.02946 0.01934 0.04073
 O455 O 0.02258 0.04704 0.00183
 O456 O 0.02089 0.04076 -0.02921
 Zr457 Zr 0.02159 0.02168 -0.00905
 O458 O 0.00621 0.00623 -0.02604
 Zr459 Zr -0.00905 0.02145 0.02199
 O460 O -0.02599 0.00620 0.00626
 Zr461 Zr 0.02180 -0.00938 0.02163
 O462 O 0.00623 -0.02617 0.00614
 Zr463 Zr -0.02040 0.01044 -0.02041
 O464 O -0.00507 0.02751 -0.00476
 Zr465 Zr 0.01042 -0.02043 -0.02052
 O466 O 0.02755 -0.00501 -0.00506
 Zr467 Zr -0.02041 -0.02052 0.01036
 O468 O -0.00481 -0.00527 0.02760
 O469 O 0.01742 0.01718 0.01752
 O470 O -0.01614 -0.01617 -0.01622
 C471 C 0.05458 0.01391 0.01388
 C472 C 0.01384 0.05449 0.01420
 C473 C 0.01432 0.01346 0.05476
 C474 C -0.05240 -0.01413 -0.01443
 C475 C -0.01457 -0.01439 -0.05237
 C476 C -0.01413 -0.05252 -0.01440
 H477 H 0.00907 0.00904 -0.03838
 H478 H 0.00902 -0.03853 0.00892
 H479 H 0.02492 0.02467 0.02501
 H480 H -0.03835 0.00906 0.00888
 H481 H -0.03535 0.03999 -0.01341
 H482 H -0.03786 0.03835 0.01595
 H483 H 0.02905 -0.04714 -0.01050
 H484 H 0.04651 -0.02873 0.00913
 H485 H -0.01013 0.02818 -0.04791
 H486 H 0.00921 0.04637 -0.02856
 H487 H -0.01036 -0.04724 0.02898
 H488 H 0.00965 -0.02931 0.04609
 H489 H 0.04599 0.00961 -0.02904
 H490 H 0.02871 -0.01035 -0.04751
 H491 H -0.02757 0.00822 0.04719
 H492 H -0.04724 -0.01045 0.02879
 O493 O -0.02245 0.45284 0.49842
 O494 O -0.02099 0.45933 0.52926
 O495 O -0.04701 0.49860 0.47738
 O496 O -0.04209 0.52754 0.47697
 O497 O -0.00126 0.47690 0.45276
 O498 O 0.02950 0.47865 0.45914
 O499 O 0.00143 0.54541 0.52228
 O500 O -0.02926 0.54061 0.51896
 O501 O 0.02243 0.50136 0.54529
 O502 O 0.02105 0.46940 0.53923
 O503 O 0.04536 0.52256 0.50082
 O504 O 0.03921 0.52074 0.46881
 O505 O 0.02233 0.54540 0.50103
 O506 O 0.02011 0.53922 0.46873
 O507 O 0.04550 0.50165 0.52208
 O508 O 0.03947 0.46929 0.52016
 O509 O 0.00147 0.52252 0.54523
 O510 O -0.03037 0.52003 0.53952
 O511 O -0.00128 0.45274 0.47740
 O512 O 0.02966 0.45931 0.47901
 O513 O -0.02251 0.49781 0.45268
 O514 O -0.01945 0.52941 0.45918
 O515 O -0.04688 0.47736 0.49837
 O516 O -0.04035 0.47900 0.52935
 Zr517 Zr -0.02145 0.47835 0.50905
 O518 O -0.00594 0.49383 0.52588
 Zr519 Zr -0.02148 0.50901 0.47798
 O520 O -0.00622 0.52604 0.49359
 Zr521 Zr 0.00939 0.47819 0.47822
 O522 O 0.02621 0.49387 0.49356
 Zr523 Zr -0.01022 0.52050 0.52031
 O524 O -0.02733 0.50505 0.50478
 Zr525 Zr 0.02069 0.48974 0.52028
 O526 O 0.00521 0.47249 0.50496
 Zr527 Zr 0.02043 0.52050 0.48929
 O528 O 0.00516 0.50480 0.47218
 O529 O -0.01713 0.48251 0.48246
 O530 O 0.01636 0.51634 0.51598
 C531 C -0.01368 0.44530 0.48611
 C532 C -0.05443 0.48621 0.48613
 C533 C -0.01372 0.48545 0.44525
 C534 C 0.01418 0.55262 0.51391
 C535 C 0.01415 0.51415 0.55253
 C536 C 0.05264 0.51441 0.51367
 H537 H -0.00870 0.49093 0.53823
 H538 H 0.03853 0.49111 0.49070
 H539 H -0.02467 0.47496 0.47506
 H540 H -0.00913 0.53840 0.49095
 H541 H -0.03975 0.53543 0.51332
 H542 H -0.03841 0.53783 0.48398
 H543 H 0.04751 0.47132 0.51017
 H544 H 0.02895 0.45360 0.49067
 H545 H -0.02842 0.50982 0.54730
 H546 H -0.04609 0.49063 0.52864
 H547 H 0.04685 0.51038 0.47034
 H548 H 0.02897 0.49033 0.45348
 H549 H -0.00926 0.45379 0.52883
 H550 H 0.01056 0.47076 0.54674
 H551 H -0.00850 0.52736 0.45250
 H552 H 0.01012 0.54723 0.47078
 O553 O 0.49860 -0.02263 0.45273
 O554 O 0.52942 -0.02112 0.45907
 O555 O 0.47767 -0.04695 0.49856
 O556 O 0.47762 -0.04199 0.52761
 O557 O 0.45321 -0.00116 0.47692
 O558 O 0.45965 0.02961 0.47844
 O559 O 0.52275 0.00143 0.54524
 O560 O 0.51959 -0.02920 0.54042
 O561 O 0.54556 0.02261 0.50094
 O562 O 0.53947 0.02088 0.46889
 O563 O 0.50153 0.04561 0.52216
 O564 O 0.46955 0.03950 0.52057
 O565 O 0.50168 0.02247 0.54525
 O566 O 0.46948 0.02048 0.53913
 O567 O 0.52252 0.04560 0.50101
 O568 O 0.52048 0.03938 0.46874
 O569 O 0.54558 0.00175 0.52226
 O570 O 0.53994 -0.03030 0.51969
 O571 O 0.47761 -0.00145 0.45262
 O572 O 0.47944 0.02965 0.45902
 O573 O 0.45316 -0.02238 0.49791
 O574 O 0.45980 -0.01930 0.52949
 O575 O 0.49859 -0.04692 0.47728
 O576 O 0.52953 -0.04047 0.47886
 Zr577 Zr 0.50934 -0.02150 0.47819
 O578 O 0.52624 -0.00595 0.49354
 Zr579 Zr 0.47847 -0.02138 0.50900
 O580 O 0.49415 -0.00606 0.52590
 Zr581 Zr 0.47864 0.00943 0.47803
 O582 O 0.49403 0.02630 0.49359
 Zr583 Zr 0.52077 -0.01013 0.52027
 O584 O 0.50518 -0.02729 0.50495
 Zr585 Zr 0.52064 0.02069 0.48933
 O586 O 0.50526 0.00517 0.47219
 Zr587 Zr 0.48991 0.02063 0.52031
 O588 O 0.47274 0.00530 0.50472
 O589 O 0.48285 -0.01711 0.48245
 O590 O 0.51649 0.01649 0.51602
 C591 C 0.48623 -0.01393 0.44522
 C592 C 0.48631 -0.05441 0.48610
 C593 C 0.44573 -0.01360 0.48554
 C594 C 0.51444 0.01418 0.55250
 C595 C 0.55278 0.01447 0.51383
 C596 C 0.51427 0.05284 0.51381
 H597 H 0.53853 -0.00872 0.49061
 H598 H 0.49119 0.03863 0.49078
 H599 H 0.47539 -0.02466 0.47497
 H600 H 0.49155 -0.00894 0.53830
 H601 H 0.51387 -0.03969 0.53529
 H602 H 0.48460 -0.03824 0.53789
 H603 H 0.51046 0.04737 0.47068
 H604 H 0.49097 0.02874 0.45313
 H605 H 0.54788 -0.02814 0.50966
 H606 H 0.52889 -0.04613 0.49055
 H607 H 0.47105 0.04712 0.51016
 H608 H 0.45412 0.02920 0.49020
 H609 H 0.52898 -0.00940 0.45347
 H610 H 0.54709 0.01050 0.47043
 H611 H 0.45320 -0.00831 0.52748
 H612 H 0.47141 0.01038 0.54706
 O613 O 0.50166 0.54683 0.02265
 O614 O 0.47081 0.54051 0.02136
 O615 O 0.52253 0.50099 0.04713
 O616 O 0.52253 0.47198 0.04224
 O617 O 0.54691 0.52252 0.00122
 O618 O 0.54043 0.52078 -0.02961
 O619 O 0.47708 0.45444 -0.00125
 O620 O 0.48053 0.45917 0.02955
 O621 O 0.45446 0.49858 -0.02229
 O622 O 0.46066 0.53063 -0.02064
 O623 O 0.49817 0.47700 -0.04520
 O624 O 0.53037 0.47894 -0.03939
 O625 O 0.49823 0.45434 -0.02225
 O626 O 0.53049 0.46033 -0.02024
 O627 O 0.47717 0.49810 -0.04519
 O628 O 0.47967 0.53059 -0.03931
 O629 O 0.45448 0.47728 -0.00141
 O630 O 0.46019 0.48000 0.03074
 O631 O 0.52253 0.54680 0.00132
 O632 O 0.52073 0.54025 -0.02971
 O633 O 0.54694 0.50159 0.02252
 O634 O 0.54024 0.47002 0.01946
 O635 O 0.50171 0.52233 0.04714
 O636 O 0.47075 0.52083 0.04081
 Zr637 Zr 0.49086 0.52138 0.02172
 O638 O 0.47387 0.50603 0.00625
 Zr639 Zr 0.52164 0.49053 0.02157
 O640 O 0.50588 0.47361 0.00633
 Zr641 Zr 0.52147 0.52136 -0.00938
 O642 O 0.50598 0.50582 -0.02619
 Zr643 Zr 0.47928 0.47932 0.01048
 O644 O 0.49496 0.49465 0.02757
 Zr645 Zr 0.47941 0.51015 -0.02046
 O646 O 0.49488 0.52727 -0.00502
 Zr647 Zr 0.51010 0.47917 -0.02040
 O648 O 0.52734 0.49472 -0.00516
 O649 O 0.51732 0.51705 0.01722
 O650 O 0.48357 0.48355 -0.01614
 C651 C 0.51397 0.55428 0.01380
 C652 C 0.51398 0.51347 0.05461
 C653 C 0.55437 0.51396 0.01372
 C654 C 0.48531 0.44722 -0.01410
 C655 C 0.44729 0.48564 -0.01418
 C656 C 0.48522 0.48510 -0.05230
 H657 H 0.46158 0.50898 0.00904
 H658 H 0.50876 0.50855 -0.03857
 H659 H 0.52479 0.52455 0.02474
 H660 H 0.50844 0.46123 0.00922
 H661 H 0.48621 0.46431 0.04006
 H662 H 0.51548 0.46173 0.03855
 H663 H 0.48932 0.52824 -0.04766
 H664 H 0.50912 0.54600 -0.02897
 H665 H 0.45217 0.48994 0.02847
 H666 H 0.47132 0.50913 0.04644
 H667 H 0.52855 0.48906 -0.04732
 H668 H 0.54590 0.50900 -0.02917
 H669 H 0.47120 0.54604 0.00960
 H670 H 0.45300 0.52909 -0.01027
 H671 H 0.54688 0.47204 0.00847
 H672 H 0.52849 0.45237 -0.01017
 O673 O 0.75177 0.27211 0.45277
 O674 O 0.72096 0.27078 0.45902
 O675 O 0.77255 0.29660 0.49873
 O676 O 0.77268 0.29166 0.52773
 O677 O 0.79705 0.25065 0.47722
 O678 O 0.79051 0.21990 0.47885
 O679 O 0.72734 0.24855 0.54534
 O680 O 0.73059 0.27916 0.54035
 O681 O 0.70451 0.22730 0.50102
 O682 O 0.71076 0.22885 0.46897
 O683 O 0.74838 0.20419 0.52251
 O684 O 0.78038 0.21011 0.52094
 O685 O 0.74837 0.22747 0.54549
 O686 O 0.78055 0.22923 0.53939
 O687 O 0.72745 0.20418 0.50130
 O688 O 0.72962 0.21023 0.46901
 O689 O 0.70453 0.24821 0.52228
 O690 O 0.71025 0.28017 0.51964
 O691 O 0.77268 0.25085 0.45281
 O692 O 0.77082 0.21984 0.45936
 O693 O 0.79707 0.27194 0.49814
 O694 O 0.79034 0.26895 0.52969
 O695 O 0.75174 0.29657 0.47734
 O696 O 0.72083 0.29017 0.47871
 Zr697 Zr 0.74098 0.27115 0.47822
 O698 O 0.72398 0.25571 0.49358
 Zr699 Zr 0.77174 0.27104 0.50914
 O700 O 0.75597 0.25582 0.52604
 Zr701 Zr 0.77158 0.24013 0.47828
 O702 O 0.75607 0.22336 0.49385
 Zr703 Zr 0.72938 0.25998 0.52031
 O704 O 0.74507 0.27702 0.50497
 Zr705 Zr 0.72949 0.22903 0.48950
 O706 O 0.74498 0.24444 0.47235
 Zr707 Zr 0.76013 0.22909 0.52055
 O708 O 0.77740 0.24432 0.50498
 O709 O 0.76745 0.26671 0.48258
 O710 O 0.73357 0.23332 0.51618
 C711 C 0.76408 0.26329 0.44532
 C712 C 0.76393 0.30408 0.48628
 C713 C 0.80453 0.26309 0.48584
 C714 C 0.73564 0.23585 0.55269
 C715 C 0.69729 0.23552 0.51385
 C716 C 0.73562 0.19697 0.51417
 H717 H 0.71170 0.25852 0.49059
 H718 H 0.75887 0.21100 0.49109
 H719 H 0.77494 0.27423 0.47509
 H720 H 0.75855 0.25874 0.53843
 H721 H 0.73633 0.28962 0.53517
 H722 H 0.76557 0.28801 0.53795
 H723 H 0.73961 0.20221 0.47101
 H724 H 0.75926 0.22066 0.45350
 H725 H 0.70239 0.27806 0.50953
 H726 H 0.72138 0.29583 0.49041
 H727 H 0.77887 0.20246 0.51055
 H728 H 0.79599 0.22033 0.49064
 H729 H 0.72135 0.25902 0.45350
 H730 H 0.70314 0.23924 0.47046
 H731 H 0.79695 0.25795 0.52771
 H732 H 0.77869 0.23940 0.54724
 O733 O 0.79736 0.75197 -0.02301
 O734 O 0.79101 0.72108 -0.02162
 O735 O 0.75175 0.77309 -0.04730
 O736 O 0.72271 0.77298 -0.04242
 O737 O 0.77334 0.79734 -0.00150
 O738 O 0.77161 0.79087 0.02936
 O739 O 0.70504 0.72774 0.00082
 O740 O 0.70992 0.73101 -0.02983
 O741 O 0.74914 0.70481 0.02203
 O742 O 0.78115 0.71092 0.02037
 O743 O 0.72795 0.74879 0.04517
 O744 O 0.72959 0.78081 0.03928
 O745 O 0.70500 0.74880 0.02194
 O746 O 0.71120 0.78107 0.02010
 O747 O 0.74902 0.72776 0.04512
 O748 O 0.78125 0.72985 0.03901
 O749 O 0.72790 0.70488 0.00112
 O750 O 0.73056 0.71060 -0.03094
 O751 O 0.79746 0.77293 -0.00172
 O752 O 0.79101 0.77101 0.02941
 O753 O 0.75238 0.79742 -0.02274
 O754 O 0.72085 0.79085 -0.01962
 O755 O 0.77298 0.75214 -0.04733
 O756 O 0.77126 0.72107 -0.04105
 Zr757 Zr 0.77196 0.74120 -0.02195
 O758 O 0.75661 0.72424 -0.00647
 Zr759 Zr 0.74125 0.77213 -0.02176
 O760 O 0.72435 0.75639 -0.00650
 Zr761 Zr 0.77210 0.77187 0.00913
 O762 O 0.75653 0.75640 0.02594
 Zr763 Zr 0.72997 0.72974 -0.01069
 O764 O 0.74528 0.74541 -0.02779
 Zr765 Zr 0.76077 0.72977 0.02023
 O766 O 0.77790 0.74521 0.00478
 Zr767 Zr 0.72990 0.76055 0.02024
 O768 O 0.74548 0.77780 0.00498
 O769 O 0.76771 0.76770 -0.01744
 O770 O 0.73417 0.73395 0.01598
 C771 C 0.80483 0.76435 -0.01427
 C772 C 0.76425 0.76454 -0.05476
 C773 C 0.76481 0.80481 -0.01401
 C774 C 0.69777 0.73604 0.01358
 C775 C 0.73627 0.69763 0.01385
 C776 C 0.73621 0.73597 0.05237
 H777 H 0.75953 0.71193 -0.00927
 H778 H 0.75932 0.75919 0.03831
 H779 H 0.77520 0.77518 -0.02495
 H780 H 0.71200 0.75901 -0.00940
 H781 H 0.71506 0.73676 -0.04030
 H782 H 0.71239 0.76608 -0.03864
 H783 H 0.77928 0.73984 0.04706
 H784 H 0.79686 0.75945 0.02849
 H785 H 0.74057 0.70265 -0.02879
 H786 H 0.75963 0.72181 -0.04677
 H787 H 0.74004 0.77934 0.04683
 H788 H 0.75990 0.79645 0.02887
 H789 H 0.79657 0.72149 -0.00987
 H790 H 0.77960 0.70328 0.00998
 H791 H 0.72291 0.79748 -0.00863
 H792 H 0.70328 0.77916 0.01000
 O793 O 1.04731 0.22699 0.24850
 O794 O 1.04091 0.22846 0.27938
 O795 O 1.00160 0.20244 0.22752
 O796 O 0.97264 0.20733 0.22742
 O797 O 1.02312 0.24826 0.20291
 O798 O 1.02148 0.27907 0.20934
 O799 O 0.95490 0.25078 0.27253
 O800 O 0.95979 0.22009 0.26930
 O801 O 0.99904 0.27191 0.29555
 O802 O 1.03096 0.27046 0.28940
 O803 O 0.97787 0.29499 0.25118
 O804 O 0.97951 0.28880 0.21916
 O805 O 0.95487 0.27176 0.25134
 O806 O 0.96101 0.26980 0.21913
 O807 O 0.99888 0.29507 0.27231
 O808 O 1.03106 0.28894 0.27041
 O809 O 0.97788 0.25094 0.29552
 O810 O 0.98029 0.21911 0.28986
 O811 O 1.04736 0.24817 0.22745
 O812 O 1.04087 0.27917 0.22914
 O813 O 1.00221 0.22700 0.20290
 O814 O 0.97076 0.22997 0.20948
 O815 O 1.02285 0.20255 0.24848
 O816 O 1.02126 0.20902 0.27947
 Zr817 Zr 1.02187 0.22800 0.25921
 O818 O 1.00648 0.24350 0.27610
 Zr819 Zr 0.99116 0.22799 0.22825
 O820 O 0.97424 0.24329 0.24390
 Zr821 Zr 1.02196 0.25890 0.22840
 O822 O 1.00639 0.27573 0.24381
 Zr823 Zr 0.97983 0.23924 0.27060
 O824 O 0.99520 0.22211 0.25503
 Zr825 Zr 1.01059 0.27017 0.27051
 O826 O 1.02775 0.25470 0.25512
 Zr827 Zr 0.97977 0.26999 0.23963
 O828 O 0.99536 0.25468 0.22247
 O829 O 1.01764 0.23234 0.23264
 O830 O 0.98398 0.26589 0.26632
 C831 C 1.05479 0.23575 0.23614
 C832 C 1.01402 0.19501 0.23621
 C833 C 1.01452 0.23580 0.19543
 C834 C 0.94763 0.26347 0.26413
 C835 C 0.98629 0.26361 0.30281
 C836 C 0.98616 0.30230 0.26393
 H837 H 1.00940 0.24073 0.28843
 H838 H 1.00918 0.28807 0.24095
 H839 H 1.02514 0.22481 0.22519
 H840 H 0.96189 0.24037 0.24128
 H841 H 0.96498 0.20960 0.26365
 H842 H 0.96232 0.21110 0.23432
 H843 H 1.02917 0.29688 0.26031
 H844 H 1.04665 0.27840 0.24076
 H845 H 0.99058 0.22097 0.29752
 H846 H 1.00963 0.20329 0.27880
 H847 H 0.98989 0.29645 0.22066
 H848 H 1.00979 0.27854 0.20371
 H849 H 1.04648 0.24018 0.27891
 H850 H 1.02956 0.25999 0.29695
 H851 H 0.97271 0.24100 0.20288
 H852 H 0.95318 0.25963 0.22101
 O853 O 0.74829 1.04697 0.72740
 O854 O 0.77906 1.04067 0.72874
 O855 O 0.72736 1.00114 0.70292
 O856 O 0.72765 0.97203 0.70783
 O857 O 0.70277 1.02256 0.74857
 O858 O 0.70911 1.02098 0.77944
 O859 O 0.77270 0.95473 0.75139
 O860 O 0.76946 0.95945 0.72068
 O861 O 0.79508 0.99875 0.77281
 O862 O 0.78895 1.03106 0.77060
 O863 O 0.75145 0.97751 0.79553
 O864 O 0.71931 0.97911 0.78949
 O865 O 0.75167 0.95461 0.77251
 O866 O 0.71936 0.96045 0.77044
 O867 O 0.77228 0.99881 0.79552
 O868 O 0.77006 1.03102 0.78940
 O869 O 0.79517 0.97748 0.75191
 O870 O 0.78974 0.98040 0.71960
 O871 O 0.72721 1.04699 0.74853
 O872 O 0.72876 1.04050 0.77960
 O873 O 0.70291 1.00151 0.72740
 O874 O 0.70965 0.97008 0.73049
 O875 O 0.74820 1.02249 0.70298
 O876 O 0.77916 1.02093 0.70938
 Zr877 Zr 0.75899 1.02154 0.72840
 O878 O 0.77595 1.00630 0.74398
 Zr879 Zr 0.72825 0.99062 0.72848
 O880 O 0.74395 0.97381 0.74386
 Zr881 Zr 0.72819 1.02156 0.75932
 O882 O 0.74366 1.00612 0.77625
 Zr883 Zr 0.77054 0.97960 0.73976
 O884 O 0.75493 0.99481 0.72256
 Zr885 Zr 0.77025 1.01051 0.77063
 O886 O 0.75480 1.02752 0.75509
 Zr887 Zr 0.73966 0.97940 0.77059
 O888 O 0.72244 0.99485 0.75519
 O889 O 0.73250 1.01717 0.73277
 O890 O 0.76617 0.98387 0.76637
 C891 C 0.73594 1.05445 0.73613
 C892 C 0.73592 1.01367 0.69549
 C893 C 0.69539 1.01387 0.73611
 C894 C 0.76454 0.94749 0.76426
 C895 C 0.80223 0.98574 0.76482
 C896 C 0.76424 0.98586 0.80271
 H897 H 0.78825 1.00926 0.74124
 H898 H 0.74081 1.00891 0.78860
 H899 H 0.72504 1.02466 0.72524
 H900 H 0.74142 0.96141 0.74100
 H901 H 0.76383 0.96456 0.71014
 H902 H 0.73455 0.96174 0.71169
 H903 H 0.76003 1.02904 0.79739
 H904 H 0.74034 1.04633 0.77888
 H905 H 0.79799 0.99009 0.72215
 H906 H 0.77859 1.00923 0.70376
 H907 H 0.72094 0.98938 0.79727
 H908 H 0.70370 1.00918 0.77903
 H909 H 0.77876 1.04610 0.74055
 H910 H 0.79711 1.02902 0.76071
 H911 H 0.70311 0.97196 0.74157
 H912 H 0.72140 0.95249 0.76038
 O913 O 0.75180 0.47714 0.29661
 O914 O 0.72107 0.47842 0.29018
 O915 O 0.77280 0.45276 0.25062
 O916 O 0.77275 0.45774 0.22160
 O917 O 0.79736 0.49834 0.27237
 O918 O 0.79104 0.52918 0.27082
 O919 O 0.72765 0.50142 0.20417
 O920 O 0.73094 0.47067 0.20880
 O921 O 0.70493 0.52224 0.24853
 O922 O 0.71119 0.52065 0.28052
 O923 O 0.74913 0.54531 0.22717
 O924 O 0.78108 0.53919 0.22882
 O925 O 0.74886 0.52235 0.20419
 O926 O 0.78110 0.52015 0.21022
 O927 O 0.72803 0.54533 0.24821
 O928 O 0.73019 0.53915 0.28058
 O929 O 0.70486 0.50136 0.22723
 O930 O 0.71053 0.46948 0.22948
 O931 O 0.77281 0.49832 0.29674
 O932 O 0.77134 0.52930 0.29027
 O933 O 0.79729 0.47724 0.25126
 O934 O 0.79063 0.48043 0.21973
 O935 O 0.75198 0.45274 0.27200
 O936 O 0.72100 0.45915 0.27035
 Zr937 Zr 0.74118 0.47816 0.27109
 O938 O 0.72432 0.49378 0.25579
 Zr939 Zr 0.77199 0.47832 0.24025
 O940 O 0.75634 0.49370 0.22338
 Zr941 Zr 0.77196 0.50906 0.27128
 O942 O 0.75657 0.52599 0.25577
 Zr943 Zr 0.72972 0.48964 0.22904
 O944 O 0.74528 0.47242 0.24431
 Zr945 Zr 0.72994 0.52043 0.26001
 O946 O 0.74531 0.50484 0.27710
 Zr947 Zr 0.76068 0.52035 0.22905
 O948 O 0.77782 0.50497 0.24458
 O949 O 0.76768 0.48254 0.26683
 O950 O 0.73407 0.51624 0.23333
 C951 C 0.76407 0.48593 0.30418
 C952 C 0.76423 0.44527 0.26310
 C953 C 0.80478 0.48593 0.26366
 C954 C 0.73599 0.51420 0.19697
 C955 C 0.69764 0.51402 0.23572
 C956 C 0.73633 0.55254 0.23541
 H957 H 0.71202 0.49101 0.25875
 H958 H 0.75944 0.53832 0.25859
 H959 H 0.77511 0.47499 0.27434
 H960 H 0.75891 0.49085 0.21097
 H961 H 0.73658 0.46013 0.21390
 H962 H 0.76584 0.46155 0.21129
 H963 H 0.74009 0.54727 0.27848
 H964 H 0.75970 0.52864 0.29598
 H965 H 0.70291 0.47131 0.23983
 H966 H 0.72175 0.45341 0.25871
 H967 H 0.77960 0.54680 0.23924
 H968 H 0.79659 0.52871 0.25908
 H969 H 0.72142 0.49017 0.29573
 H970 H 0.70358 0.51025 0.27904
 H971 H 0.79728 0.49140 0.22177
 H972 H 0.77903 0.51017 0.20217
 O973 O 0.50095 0.20312 0.72711
 O974 O 0.47021 0.20949 0.72853
 O975 O 0.52206 0.24886 0.70275
 O976 O 0.52203 0.27788 0.70761
 O977 O 0.54650 0.22730 0.74851
 O978 O 0.54004 0.22876 0.77936
 O979 O 0.47670 0.29532 0.75150
 O980 O 0.48036 0.29090 0.72063
 O981 O 0.45415 0.25151 0.77236
 O982 O 0.46019 0.21937 0.77068
 O983 O 0.49838 0.27258 0.79530
 O984 O 0.53034 0.27087 0.78913
 O985 O 0.49783 0.29532 0.77252
 O986 O 0.53029 0.28948 0.76996
 O987 O 0.47718 0.25166 0.79538
 O988 O 0.47919 0.21928 0.78929
 O989 O 0.45421 0.27263 0.75129
 O990 O 0.45992 0.27005 0.71925
 O991 O 0.52198 0.20296 0.74828
 O992 O 0.52028 0.20936 0.77936
 O993 O 0.54650 0.24836 0.72733
 O994 O 0.53987 0.27984 0.73037
 O995 O 0.50113 0.22760 0.70277
 O996 O 0.47010 0.22932 0.70922
 Zr997 Zr 0.49031 0.22858 0.72820
 O998 O 0.47346 0.24393 0.74379
 Zr999 Zr 0.52122 0.25934 0.72830
 O1000 O 0.50560 0.27627 0.74363
 Zr1001 Zr 0.52105 0.22837 0.75914
 O1002 O 0.50570 0.24395 0.77605
 Zr1003 Zr 0.47900 0.27060 0.73953
 O1004 O 0.49452 0.25529 0.72235
 Zr1005 Zr 0.47905 0.23976 0.77048
 O1006 O 0.49439 0.22262 0.75492
 Zr1007 Zr 0.50990 0.27062 0.77032
 O1008 O 0.52700 0.25502 0.75499
 O1009 O 0.51682 0.23281 0.73259
 O1010 O 0.48333 0.26634 0.76616
 C1011 C 0.51329 0.19558 0.73581
 C1012 C 0.51345 0.23639 0.69529
 C1013 C 0.55396 0.23601 0.73610
 C1014 C 0.48482 0.30240 0.76448
 C1015 C 0.44700 0.26438 0.76411
 C1016 C 0.48550 0.26447 0.80253
 H1017 H 0.46115 0.24102 0.74101
 H1018 H 0.50855 0.24117 0.78840
 H1019 H 0.52427 0.22532 0.72506
 H1020 H 0.50817 0.28867 0.74078
 H1021 H 0.48591 0.28579 0.71004
 H1022 H 0.51518 0.28822 0.71141
 H1023 H 0.48915 0.22132 0.79735
 H1024 H 0.50864 0.20365 0.77861
 H1025 H 0.45200 0.25999 0.72136
 H1026 H 0.47092 0.24090 0.70339
 H1027 H 0.52880 0.26051 0.79682
 H1028 H 0.54563 0.24048 0.77892
 H1029 H 0.47051 0.20404 0.74033
 H1030 H 0.45247 0.22100 0.76037
 H1031 H 0.54642 0.27790 0.74143
 H1032 H 0.52790 0.29779 0.76028
 O1033 O 0.29688 0.75190 0.47704
 O1034 O 0.29048 0.72110 0.47829
 O1035 O 0.25132 0.77309 0.45249
 O1036 O 0.22227 0.77289 0.45724
 O1037 O 0.27263 0.79744 0.49835
 O1038 O 0.27096 0.79095 0.52919
 O1039 O 0.20457 0.72763 0.50065
 O1040 O 0.20938 0.73109 0.46995
 O1041 O 0.24840 0.70488 0.52192
 O1042 O 0.28050 0.71097 0.52029
 O1043 O 0.22742 0.74910 0.54502
 O1044 O 0.22885 0.78101 0.53886
 O1045 O 0.20445 0.74866 0.52180
 O1046 O 0.21043 0.78102 0.51971
 O1047 O 0.24845 0.72803 0.54508
 O1048 O 0.28057 0.72984 0.53893
 O1049 O 0.22737 0.70493 0.50081
 O1050 O 0.23008 0.71066 0.46882
 O1051 O 0.29691 0.77294 0.49823
 O1052 O 0.29035 0.77118 0.52929
 O1053 O 0.25169 0.79747 0.47710
 O1054 O 0.22026 0.79081 0.48000
 O1055 O 0.27255 0.75216 0.45255
 O1056 O 0.27079 0.72109 0.45886
 Zr1057 Zr 0.27144 0.74124 0.47794
 O1058 O 0.25606 0.72429 0.49341
 Zr1059 Zr 0.24071 0.77213 0.47799
 O1060 O 0.22377 0.75641 0.49323
 Zr1061 Zr 0.27148 0.77195 0.50896
 O1062 O 0.25588 0.75648 0.52574
 Zr1063 Zr 0.22944 0.72979 0.48908
 O1064 O 0.24479 0.74541 0.47200
 Zr1065 Zr 0.26012 0.72983 0.52012
 O1066 O 0.27729 0.74528 0.50469
 Zr1067 Zr 0.22925 0.76061 0.51998
 O1068 O 0.24487 0.77784 0.50473
 O1069 O 0.26718 0.76776 0.48238
 O1070 O 0.23354 0.73400 0.51578
 C1071 C 0.30436 0.76424 0.48581
 C1072 C 0.26382 0.76452 0.44507
 C1073 C 0.26402 0.80493 0.48590
 C1074 C 0.19731 0.73582 0.51348
 C1075 C 0.23561 0.69768 0.51362
 C1076 C 0.23574 0.73639 0.55233
 H1077 H 0.25899 0.71198 0.49061
 H1078 H 0.25865 0.75933 0.53810
 H1079 H 0.27471 0.77525 0.47490
 H1080 H 0.21141 0.75899 0.49031
 H1081 H 0.21455 0.73675 0.45945
 H1082 H 0.21191 0.76606 0.46102
 H1083 H 0.27879 0.74003 0.54678
 H1084 H 0.29619 0.75961 0.52845
 H1085 H 0.24016 0.70279 0.47092
 H1086 H 0.25922 0.72187 0.45304
 H1087 H 0.23934 0.77969 0.54637
 H1088 H 0.25928 0.79658 0.52863
 H1089 H 0.29588 0.72138 0.49012
 H1090 H 0.27883 0.70319 0.51002
 H1091 H 0.22214 0.79732 0.49110
 H1092 H 0.20242 0.77892 0.50972
 O1093 O 0.29660 0.25146 0.97766
 O1094 O 0.29028 0.22055 0.97908
 O1095 O 0.25097 0.27250 0.95334
 O1096 O 0.22194 0.27244 0.95822
 O1097 O 0.27256 0.29678 0.99915
 O1098 O 0.27078 0.29028 1.03004
 O1099 O 0.20427 0.22717 1.00145
 O1100 O 0.20915 0.23054 0.97079
 O1101 O 0.24840 0.20415 1.02252
 O1102 O 0.28035 0.21034 1.02104
 O1103 O 0.22726 0.24835 1.04587
 O1104 O 0.22877 0.28027 1.03987
 O1105 O 0.20422 0.24821 1.02259
 O1106 O 0.21039 0.28048 1.02074
 O1107 O 0.24828 0.22727 1.04583
 O1108 O 0.28042 0.22917 1.03967
 O1109 O 0.22724 0.20426 1.00153
 O1110 O 0.22970 0.21009 0.96965
 O1111 O 0.29668 0.27239 0.99897
 O1112 O 0.29022 0.27047 1.03007
 O1113 O 0.25162 0.29687 0.97790
 O1114 O 0.22010 0.29032 0.98102
 O1115 O 0.27221 0.25157 0.95333
 O1116 O 0.27056 0.22052 0.95962
 Zr1117 Zr 0.27121 0.24066 0.97871
 O1118 O 0.25584 0.22370 0.99416
 Zr1119 Zr 0.24048 0.27158 0.97888
 O1120 O 0.22358 0.25584 0.99413
 Zr1121 Zr 0.27131 0.27131 1.00979
 O1122 O 0.25574 0.25582 1.02657
 Zr1123 Zr 0.22920 0.22920 0.98993
 O1124 O 0.24454 0.24486 0.97285
 Zr1125 Zr 0.25996 0.22917 1.02088
 O1126 O 0.27711 0.24465 1.00545
 Zr1127 Zr 0.22911 0.25998 1.02088
 O1128 O 0.24469 0.27724 1.00563
 O1129 O 0.26694 0.26716 0.98322
 O1130 O 0.23335 0.23335 1.01663
 C1131 C 0.30406 0.26384 0.98641
 C1132 C 0.26346 0.26394 0.94588
 C1133 C 0.26404 0.30426 0.98663
 C1134 C 0.19700 0.23547 1.01421
 C1135 C 0.23564 0.19693 1.01419
 C1136 C 0.23558 0.23559 1.05312
 H1137 H 0.25877 0.21140 0.99133
 H1138 H 0.25853 0.25862 1.03893
 H1139 H 0.27444 0.27463 0.97570
 H1140 H 0.21122 0.25846 0.99123
 H1141 H 0.21431 0.23630 0.96033
 H1142 H 0.21159 0.26561 0.96202
 H1143 H 0.27861 0.23931 1.04758
 H1144 H 0.29608 0.25891 1.02916
 H1145 H 0.23993 0.20237 0.97154
 H1146 H 0.25897 0.22128 0.95384
 H1147 H 0.23930 0.27894 1.04732
 H1148 H 0.25913 0.29597 1.02944
 H1149 H 0.29588 0.22102 0.99080
 H1150 H 0.27891 0.20281 1.01056
 H1151 H 0.22215 0.29692 0.99204
 H1152 H 0.20249 0.27858 1.01062
 C1153 C 0.29101 0.38224 0.79057
 C1154 C 0.28216 0.37365 0.80426
 C1155 C 0.28912 0.35806 0.81112
 C1156 C 0.30485 0.35104 0.80438
 C1157 C 0.31351 0.35985 0.79058
 C1158 C 0.30667 0.37547 0.78367
 C1159 C 0.28383 0.39873 0.78343
 C1160 C 0.29279 0.40742 0.76987
 C1161 C 0.28607 0.42324 0.76332
 C1162 C 0.27054 0.43046 0.77031
 C1163 C 0.26167 0.42147 0.78385
 C1164 C 0.26827 0.40561 0.79046
 C1165 C 0.31525 0.38452 0.77007
 C1166 C 0.30844 0.40024 0.76330
 C1167 C 0.26657 0.38089 0.81090
 C1168 C 0.25975 0.39661 0.80412
 H1169 H 0.32736 0.37945 0.76465
 H1170 H 0.31551 0.40686 0.75288
 H1171 H 0.25962 0.37440 0.82148
 H1172 H 0.24775 0.40179 0.80968
 H1173 H 0.28230 0.35146 0.82172
 H1174 H 0.32563 0.35466 0.78529
 H1175 H 0.29316 0.43007 0.75305
 H1176 H 0.24978 0.42689 0.78942
 C1177 C 0.29143 -0.11839 0.28963
 C1178 C 0.28308 -0.12651 0.30390
 C1179 C 0.29006 -0.14208 0.31078
 C1180 C 0.30539 -0.14961 0.30353
 C1181 C 0.31350 -0.14121 0.28909
 C1182 C 0.30661 -0.12561 0.28215
 C1183 C 0.28424 -0.10189 0.28250
 C1184 C 0.29272 -0.09365 0.26836
 C1185 C 0.28602 -0.07780 0.26184
 C1186 C 0.27099 -0.07011 0.26941
 C1187 C 0.26258 -0.07869 0.28351
 C1188 C 0.26917 -0.09456 0.29011
 C1189 C 0.31468 -0.11702 0.26796
 C1190 C 0.30787 -0.10129 0.26119
 C1191 C 0.26796 -0.11882 0.31111
 C1192 C 0.26113 -0.10311 0.30434
 H1193 H 0.32642 -0.12244 0.26208
 H1194 H 0.31457 -0.09503 0.25032
 H1195 H 0.26140 -0.12496 0.32214
 H1196 H 0.24952 -0.09757 0.31036
 H1197 H 0.28355 -0.14822 0.32185
 H1198 H 0.32526 -0.14667 0.28326
 H1199 H 0.29274 -0.07131 0.25110
 H1200 H 0.25109 -0.07292 0.28955
 C1201 C 0.79170 0.88223 0.79108
 C1202 C 0.78337 0.87411 0.80537
 C1203 C 0.79046 0.85862 0.81234
 C1204 C 0.80584 0.85117 0.80514
 C1205 C 0.81394 0.85958 0.79071
 C1206 C 0.80696 0.87510 0.78369
 C1207 C 0.78437 0.89861 0.78381
 C1208 C 0.79282 0.90684 0.76965
 C1209 C 0.78599 0.92256 0.76298
 C1210 C 0.77084 0.93014 0.77043
 C1211 C 0.76247 0.92158 0.78456
 C1212 C 0.76920 0.90584 0.79132
 C1213 C 0.81501 0.88369 0.76948
 C1214 C 0.80808 0.89930 0.76259
 C1215 C 0.76816 0.88170 0.81248
 C1216 C 0.76120 0.89730 0.80558
 H1217 H 0.82682 0.87834 0.76367
 H1218 H 0.81476 0.90556 0.75170
 H1219 H 0.76161 0.87558 0.82353
 H1220 H 0.74951 0.90277 0.81152
 H1221 H 0.78395 0.85247 0.82341
 H1222 H 0.82575 0.85420 0.78493
 H1223 H 0.79269 0.92904 0.75222
 H1224 H 0.75089 0.92728 0.79052
 C1225 C 0.45934 0.86901 0.28974
 C1226 C 0.46765 0.87718 0.30401
 C1227 C 0.46064 0.89278 0.31081
 C1228 C 0.44534 0.90028 0.30349
 C1229 C 0.43728 0.89183 0.28905
 C1230 C 0.44418 0.87621 0.28219
 C1231 C 0.46654 0.85248 0.28270
 C1232 C 0.45810 0.84419 0.26857
 C1233 C 0.46480 0.82831 0.26214
 C1234 C 0.47980 0.82064 0.26979
 C1235 C 0.48818 0.82928 0.28387
 C1236 C 0.48158 0.84518 0.29039
 C1237 C 0.43614 0.86756 0.26801
 C1238 C 0.44297 0.85181 0.26133
 C1239 C 0.48274 0.86952 0.31130
 C1240 C 0.48958 0.85379 0.30461
 H1241 H 0.42442 0.87297 0.26207
 H1242 H 0.43630 0.84550 0.25045
 H1243 H 0.48928 0.87570 0.32233
 H1244 H 0.50118 0.84827 0.31068
 H1245 H 0.46712 0.89895 0.32188
 H1246 H 0.42553 0.89727 0.28317
 H1247 H 0.45810 0.82177 0.25141
 H1248 H 0.49966 0.82353 0.28998
 C1249 C -0.04352 0.86647 0.79350
 C1250 C -0.03568 0.87398 0.80840
 C1251 C -0.04320 0.88898 0.81595
 C1252 C -0.05849 0.89646 0.80871
 C1253 C -0.06618 0.88868 0.79377
 C1254 C -0.05877 0.87367 0.78613
 C1255 C -0.03570 0.85066 0.78555
 C1256 C -0.04366 0.84303 0.77077
 C1257 C -0.03636 0.82781 0.76346
 C1258 C -0.02125 0.82015 0.77088
 C1259 C -0.01336 0.82812 0.78563
 C1260 C -0.02056 0.84334 0.79303
 C1261 C -0.06634 0.86569 0.77132
 C1262 C -0.05892 0.85061 0.76378
 C1263 C -0.02051 0.86630 0.81549
 C1264 C -0.01308 0.85122 0.80795
 H1265 H -0.07813 0.87110 0.76553
 H1266 H -0.06523 0.84479 0.75243
 H1267 H -0.01435 0.87195 0.82701
 H1268 H -0.00144 0.84565 0.81389
 H1269 H -0.03714 0.89478 0.82744
 H1270 H -0.07796 0.89423 0.78807
 H1271 H -0.04270 0.82175 0.75225
 H1272 H -0.00185 0.82231 0.79161
 C1273 C -0.04079 -0.11773 -0.04193
 C1274 C -0.05507 -0.12587 -0.03367
 C1275 C -0.06198 -0.14136 -0.04084
 C1276 C -0.05473 -0.14878 -0.05625
 C1277 C -0.04031 -0.14033 -0.06430
 C1278 C -0.03335 -0.12482 -0.05723
 C1279 C -0.03357 -0.10136 -0.03450
 C1280 C -0.01940 -0.09312 -0.04288
 C1281 C -0.01277 -0.07742 -0.03594
 C1282 C -0.02027 -0.06987 -0.02076
 C1283 C -0.03442 -0.07844 -0.01247
 C1284 C -0.04113 -0.09417 -0.01930
 C1285 C -0.01914 -0.11620 -0.06521
 C1286 C -0.01230 -0.10061 -0.05817
 C1287 C -0.06225 -0.11832 -0.01844
 C1288 C -0.05540 -0.10273 -0.01139
 H1289 H -0.01330 -0.12151 -0.07704
 H1290 H -0.00141 -0.09432 -0.06480
 H1291 H -0.07329 -0.12447 -0.01194
 H1292 H -0.06138 -0.09729 0.00032
 H1293 H -0.07304 -0.14753 -0.03438
 H1294 H -0.03450 -0.14570 -0.07613
 H1295 H -0.00200 -0.07093 -0.04259
 H1296 H -0.04041 -0.07276 -0.00088
 C1297 C -0.03731 0.37761 0.46219
 C1298 C -0.05183 0.36971 0.47030
 C1299 C -0.05845 0.35394 0.46350
 C1300 C -0.05072 0.34611 0.44859
 C1301 C -0.03600 0.35414 0.44079
 C1302 C -0.02928 0.36990 0.44750
 C1303 C -0.03063 0.39447 0.46896
 C1304 C -0.01635 0.40255 0.46060
 C1305 C -0.01045 0.41888 0.46668
 C1306 C -0.01881 0.42724 0.48094
 C1307 C -0.03292 0.41874 0.48938
 C1308 C -0.03891 0.40238 0.48340
 C1309 C -0.01485 0.37827 0.43964
 C1310 C -0.00850 0.39432 0.44607
 C1311 C -0.05961 0.37790 0.48489
 C1312 C -0.05327 0.39397 0.49132
 H1313 H -0.00853 0.37245 0.42830
 H1314 H 0.00252 0.40043 0.43951
 H1315 H -0.07082 0.37193 0.49128
 H1316 H -0.05978 0.39993 0.50247
 H1317 H -0.06977 0.34794 0.46966
 H1318 H -0.02989 0.34829 0.42934
 H1319 H 0.00037 0.42526 0.46000
 H1320 H -0.03953 0.42500 0.50031
 C1321 C 0.46228 -0.12183 0.46180
 C1322 C 0.44778 -0.12973 0.46992
 C1323 C 0.44103 -0.14541 0.46303
 C1324 C 0.44858 -0.15320 0.44795
 C1325 C 0.46335 -0.14511 0.44017
 C1326 C 0.47019 -0.12944 0.44700
 C1327 C 0.46910 -0.10507 0.46869
 C1328 C 0.48337 -0.09698 0.46033
 C1329 C 0.48938 -0.08073 0.46651
 C1330 C 0.48113 -0.07245 0.48088
 C1331 C 0.46704 -0.08097 0.48933
 C1332 C 0.46094 -0.09724 0.48325
 C1333 C 0.48461 -0.12108 0.43914
 C1334 C 0.49109 -0.10512 0.44569
 C1335 C 0.44013 -0.12164 0.48463
 C1336 C 0.44658 -0.10566 0.49117
 H1337 H 0.49085 -0.12683 0.42772
 H1338 H 0.50211 -0.09901 0.43911
 H1339 H 0.42893 -0.12760 0.49104
 H1340 H 0.44017 -0.09976 0.50242
 H1341 H 0.42973 -0.15133 0.46930
 H1342 H 0.46946 -0.15080 0.42864
 H1343 H 0.50018 -0.07435 0.45982
 H1344 H 0.46050 -0.07476 0.50035
 C1345 C 0.45841 0.38203 -0.04144
 C1346 C 0.44408 0.37396 -0.03317
 C1347 C 0.43715 0.35846 -0.04028
 C1348 C 0.44441 0.35095 -0.05564
 C1349 C 0.45886 0.35933 -0.06370
 C1350 C 0.46585 0.37485 -0.05669
 C1351 C 0.46567 0.39840 -0.03407
 C1352 C 0.47989 0.40656 -0.04245
 C1353 C 0.48658 0.42225 -0.03555
 C1354 C 0.47909 0.42988 -0.02042
 C1355 C 0.46488 0.42141 -0.01212
 C1356 C 0.45811 0.40568 -0.01891
 C1357 C 0.48011 0.38339 -0.06468
 C1358 C 0.48699 0.39899 -0.05770
 C1359 C 0.43691 0.38161 -0.01798
 C1360 C 0.44379 0.39721 -0.01099
 H1361 H 0.48595 0.37801 -0.07648
 H1362 H 0.49792 0.40520 -0.06433
 H1363 H 0.42583 0.37553 -0.01148
 H1364 H 0.43781 0.40272 0.00069
 H1365 H 0.42606 0.35234 -0.03382
 H1366 H 0.46469 0.35390 -0.07550
 H1367 H 0.49738 0.42867 -0.04220
 H1368 H 0.45888 0.42716 -0.00057
 C1369 C 0.78677 0.37246 0.46349
 C1370 C 0.77852 0.38042 0.44906
 C1371 C 0.78500 0.39641 0.44266
 C1372 C 0.79973 0.40441 0.45051
 C1373 C 0.80767 0.39633 0.46516
 C1374 C 0.80128 0.38034 0.47166
 C1375 C 0.78034 0.35537 0.46993
 C1376 C 0.78884 0.34723 0.48412
 C1377 C 0.78306 0.33070 0.48980
 C1378 C 0.76896 0.32224 0.48131
 C1379 C 0.76040 0.33080 0.46729
 C1380 C 0.76608 0.34732 0.46152
 C1381 C 0.80929 0.37190 0.48598
 C1382 C 0.80318 0.35563 0.49210
 C1383 C 0.76411 0.37207 0.44114
 C1384 C 0.75800 0.35580 0.44726
 H1385 H 0.82049 0.37785 0.49241
 H1386 H 0.80985 0.34949 0.50306
 H1387 H 0.75762 0.37809 0.43001
 H1388 H 0.74698 0.34973 0.44066
 H1389 H 0.77873 0.40244 0.43140
 H1390 H 0.81899 0.40230 0.47135
 H1391 H 0.78982 0.32429 0.50055
 H1392 H 0.74957 0.32447 0.46059
 C1393 C 0.79105 0.87073 -0.04002
 C1394 C 0.80603 0.87815 -0.03233
 C1395 C 0.81331 0.89338 -0.03967
 C1396 C 0.80580 0.90120 -0.05475
 C1397 C 0.79057 0.89358 -0.06211
 C1398 C 0.78321 0.87836 -0.05484
 C1399 C 0.78363 0.85444 -0.03263
 C1400 C 0.76887 0.84681 -0.04057
 C1401 C 0.76229 0.83095 -0.03393
 C1402 C 0.77045 0.82261 -0.01955
 C1403 C 0.78503 0.83072 -0.01151
 C1404 C 0.79171 0.84658 -0.01805
 C1405 C 0.76830 0.87047 -0.06227
 C1406 C 0.76125 0.85495 -0.05526
 C1407 C 0.81360 0.87004 -0.01758
 C1408 C 0.80657 0.85451 -0.01057
 H1409 H 0.76211 0.87624 -0.07371
 H1410 H 0.74987 0.84919 -0.06151
 H1411 H 0.82517 0.87563 -0.01151
 H1412 H 0.81294 0.84857 0.00068
 H1413 H 0.82497 0.89895 -0.03372
 H1414 H 0.78449 0.89930 -0.07364
 H1415 H 0.75113 0.82488 -0.04032
 H1416 H 0.79152 0.82445 -0.00050
 C1417 C 0.78838 0.28712 0.37776
 C1418 C 0.78019 0.30155 0.36976
 C1419 C 0.78705 0.30823 0.35402
 C1420 C 0.80208 0.30065 0.34633
 C1421 C 0.80996 0.28601 0.35447
 C1422 C 0.80320 0.27924 0.37020
 C1423 C 0.78153 0.28038 0.39458
 C1424 C 0.78995 0.26619 0.40278
 C1425 C 0.78378 0.26023 0.41908
 C1426 C 0.76938 0.26846 0.42728
 C1427 C 0.76090 0.28247 0.41866
 C1428 C 0.76696 0.28851 0.40235
 C1429 C 0.81112 0.26491 0.37868
 C1430 C 0.80461 0.25850 0.39470
 C1431 C 0.76548 0.30918 0.37780
 C1432 C 0.75898 0.30278 0.39382
 H1433 H 0.82255 0.25870 0.37297
 H1434 H 0.81123 0.24754 0.40089
 H1435 H 0.75903 0.32031 0.37174
 H1436 H 0.74772 0.30917 0.39967
 H1437 H 0.78083 0.31947 0.34794
 H1438 H 0.82150 0.28003 0.34874
 H1439 H 0.79051 0.24950 0.42554
 H1440 H 0.74985 0.28897 0.42479
 C1441 C 0.79000 0.79054 -0.12091
 C1442 C 0.78224 0.80546 -0.12841
 C1443 C 0.78955 0.81273 -0.14367
 C1444 C 0.80465 0.80529 -0.15144
 C1445 C 0.81207 0.79011 -0.14376
 C1446 C 0.80483 0.78275 -0.12850
 C1447 C 0.78266 0.78316 -0.10457
 C1448 C 0.79067 0.76848 -0.09684
 C1449 C 0.78410 0.76195 -0.08093
 C1450 C 0.76971 0.77009 -0.07262
 C1451 C 0.76160 0.78458 -0.08082
 C1452 C 0.76807 0.79120 -0.09674
 C1453 C 0.81232 0.76791 -0.12053
 C1454 C 0.80537 0.76090 -0.10496
 C1455 C 0.76749 0.81299 -0.12034
 C1456 C 0.76053 0.80599 -0.10476
 H1457 H 0.82377 0.76176 -0.12626
 H1458 H 0.81167 0.74957 -0.09913
 H1459 H 0.76137 0.82450 -0.12600
 H1460 H 0.74927 0.81233 -0.09885
 H1461 H 0.78355 0.82434 -0.14929
 H1462 H 0.82361 0.78407 -0.14944
 H1463 H 0.79054 0.75086 -0.07478
 H1464 H 0.75059 0.79105 -0.07458
 C1465 C 0.29181 0.45935 0.86801
 C1466 C 0.30762 0.46609 0.87462
 C1467 C 0.31463 0.45903 0.89012
 C1468 C 0.30599 0.44526 0.89898
 C1469 C 0.29012 0.43867 0.89211
 C1470 C 0.28298 0.44567 0.87664
 C1471 C 0.28443 0.46666 0.85166
 C1472 C 0.26871 0.45980 0.84495
 C1473 C 0.26192 0.46658 0.82922
 C1474 C 0.27075 0.48011 0.82019
 C1475 C 0.28645 0.48693 0.82726
 C1476 C 0.29336 0.48021 0.84294
 C1477 C 0.26724 0.43920 0.86956
 C1478 C 0.26023 0.44613 0.85398
 C1479 C 0.31616 0.47967 0.86553
 C1480 C 0.30917 0.48660 0.84994
 H1481 H 0.26031 0.42863 0.87609
 H1482 H 0.24812 0.44070 0.84892
 H1483 H 0.32840 0.48496 0.87046
 H1484 H 0.31622 0.49700 0.84329
 H1485 H 0.32686 0.46421 0.89519
 H1486 H 0.28331 0.42809 0.89875
 H1487 H 0.24991 0.46112 0.82390
 H1488 H 0.29352 0.49719 0.82040
 C1489 C 0.28960 -0.03863 0.36915
 C1490 C 0.28143 -0.05309 0.37712
 C1491 C 0.28806 -0.05954 0.39305
 C1492 C 0.30283 -0.05169 0.40098
 C1493 C 0.31077 -0.03710 0.39280
 C1494 C 0.30423 -0.03055 0.37688
 C1495 C 0.28284 -0.03196 0.35226
 C1496 C 0.29115 -0.01765 0.34417
 C1497 C 0.28487 -0.01156 0.32796
 C1498 C 0.27042 -0.01974 0.31977
 C1499 C 0.26217 -0.03402 0.32820
 C1500 C 0.26835 -0.04019 0.34442
 C1501 C 0.31213 -0.01618 0.36843
 C1502 C 0.30571 -0.00984 0.35235
 C1503 C 0.26689 -0.06091 0.36893
 C1504 C 0.26046 -0.05458 0.35285
 H1505 H 0.32344 -0.00983 0.37425
 H1506 H 0.31225 0.00120 0.34623
 H1507 H 0.26047 -0.07209 0.37495
 H1508 H 0.24929 -0.06106 0.34692
 H1509 H 0.28181 -0.07077 0.39914
 H1510 H 0.32213 -0.03091 0.39871
 H1511 H 0.29144 -0.00065 0.32163
 H1512 H 0.25112 -0.04052 0.32205
 C1513 C -0.04369 -0.04328 -0.11590
 C1514 C -0.05880 -0.03572 -0.12317
 C1515 C -0.06630 -0.04324 -0.13821
 C1516 C -0.05882 -0.05831 -0.14604
 C1517 C -0.04362 -0.06571 -0.13842
 C1518 C -0.03604 -0.05826 -0.12338
 C1519 C -0.03578 -0.03543 -0.10005
 C1520 C -0.02077 -0.04311 -0.09267
 C1521 C -0.01350 -0.03580 -0.07741
 C1522 C -0.02120 -0.02096 -0.06947
 C1523 C -0.03618 -0.01334 -0.07720
 C1524 C -0.04354 -0.02056 -0.09245
 C1525 C -0.02099 -0.06555 -0.11564
 C1526 C -0.01350 -0.05811 -0.10052
 C1527 C -0.06617 -0.02080 -0.11520
 C1528 C -0.05869 -0.01337 -0.10009
 H1529 H -0.01498 -0.07714 -0.12127
 H1530 H -0.00195 -0.06421 -0.09491
 H1531 H -0.07787 -0.01486 -0.12066
 H1532 H -0.06485 -0.00193 -0.09430
 H1533 H -0.07797 -0.03730 -0.14373
 H1534 H -0.03762 -0.07728 -0.14411
 H1535 H -0.00209 -0.04192 -0.07154
 H1536 H -0.04237 -0.00204 -0.07117
 C1537 C -0.03778 0.46089 0.37786
 C1538 C -0.05216 0.46912 0.36985
 C1539 C -0.05888 0.46225 0.35414
 C1540 C -0.05143 0.44711 0.34641
 C1541 C -0.03678 0.43922 0.35461
 C1542 C -0.02997 0.44602 0.37032
 C1543 C -0.03098 0.46778 0.39465
 C1544 C -0.01683 0.45934 0.40284
 C1545 C -0.01081 0.46556 0.41910
 C1546 C -0.01895 0.48005 0.42727
 C1547 C -0.03293 0.48856 0.41864
 C1548 C -0.03903 0.48244 0.40237
 C1549 C -0.01567 0.43806 0.37880
 C1550 C -0.00922 0.44460 0.39479
 C1551 C -0.05971 0.48392 0.37786
 C1552 C -0.05326 0.49046 0.39385
 H1553 H -0.00951 0.42658 0.37312
 H1554 H 0.00171 0.43796 0.40098
 H1555 H -0.07080 0.49040 0.37180
 H1556 H -0.05959 0.50178 0.39967
 H1557 H -0.07009 0.46861 0.34814
 H1558 H -0.03076 0.42763 0.34897
 H1559 H -0.00010 0.45882 0.42558
 H1560 H -0.03936 0.49968 0.42474
 C1561 C 0.46103 -0.03927 0.37858
 C1562 C 0.44626 -0.03140 0.37093
 C1563 C 0.43920 -0.03857 0.35551
 C1564 C 0.44675 -0.05360 0.34778
 C1565 C 0.46173 -0.06117 0.35555
 C1566 C 0.46889 -0.05409 0.37098
 C1567 C 0.46818 -0.03209 0.39510
 C1568 C 0.48271 -0.04021 0.40297
 C1569 C 0.48902 -0.03377 0.41902
 C1570 C 0.48083 -0.01939 0.42731
 C1571 C 0.46649 -0.01117 0.41897
 C1572 C 0.46008 -0.01752 0.40292
 C1573 C 0.48357 -0.06170 0.37911
 C1574 C 0.49035 -0.05489 0.39484
 C1575 C 0.43866 -0.01667 0.37902
 C1576 C 0.44545 -0.00985 0.39475
 H1577 H 0.48976 -0.07314 0.37336
 H1578 H 0.50157 -0.06128 0.40078
 H1579 H 0.42727 -0.01046 0.37324
 H1580 H 0.43908 0.00140 0.40066
 H1581 H 0.42770 -0.03259 0.34971
 H1582 H 0.46770 -0.07271 0.34978
 H1583 H 0.50000 -0.04029 0.42527
 H1584 H 0.45999 -0.00015 0.42518
 C1585 C 0.45590 0.45603 -0.11565
 C1586 C 0.46342 0.44093 -0.12302
 C1587 C 0.45579 0.43345 -0.13802
 C1588 C 0.44065 0.44093 -0.14570
 C1589 C 0.43330 0.45611 -0.13797
 C1590 C 0.44086 0.46367 -0.12298
 C1591 C 0.46386 0.46392 -0.09985
 C1592 C 0.45623 0.47892 -0.09237
 C1593 C 0.46365 0.48618 -0.07717
 C1594 C 0.47856 0.47849 -0.06936
 C1595 C 0.48613 0.46352 -0.07720
 C1596 C 0.47880 0.45617 -0.09240
 C1597 C 0.43361 0.47871 -0.11513
 C1598 C 0.44116 0.48619 -0.10007
 C1599 C 0.47840 0.43357 -0.11521
 C1600 C 0.48595 0.44104 -0.10015
 H1601 H 0.42198 0.48471 -0.12064
 H1602 H 0.43510 0.49772 -0.09437
 H1603 H 0.48431 0.42188 -0.12076
 H1604 H 0.49743 0.43488 -0.09448
 H1605 H 0.46170 0.42179 -0.14363
 H1606 H 0.42168 0.46212 -0.14354
 H1607 H 0.45756 0.49757 -0.07122
 H1608 H 0.49747 0.45733 -0.07127
 C1609 C 0.46139 0.78950 0.36984
 C1610 C 0.46947 0.80408 0.37769
 C1611 C 0.46287 0.81056 0.39362
 C1612 C 0.44822 0.80262 0.40168
 C1613 C 0.44038 0.78790 0.39363
 C1614 C 0.44688 0.78132 0.37770
 C1615 C 0.46811 0.78280 0.35296
 C1616 C 0.45988 0.76836 0.34500
 C1617 C 0.46611 0.76224 0.32879
 C1618 C 0.48044 0.77050 0.32047
 C1619 C 0.48861 0.78490 0.32877
 C1620 C 0.48248 0.79112 0.34498
 C1621 C 0.43907 0.76683 0.36939
 C1622 C 0.44545 0.76046 0.35331
 C1623 C 0.48389 0.81199 0.36937
 C1624 C 0.49028 0.80563 0.35328
 H1625 H 0.42786 0.76041 0.37532
 H1626 H 0.43897 0.74933 0.34729
 H1627 H 0.49024 0.82326 0.37528
 H1628 H 0.50135 0.81218 0.34725
 H1629 H 0.46905 0.82189 0.39961
 H1630 H 0.42911 0.78165 0.39963
 H1631 H 0.45962 0.75122 0.32256
 H1632 H 0.49957 0.79147 0.32251
 C1633 C -0.04060 0.79239 0.86788
 C1634 C -0.05479 0.78400 0.87607
 C1635 C -0.06174 0.79110 0.89157
 C1636 C -0.05461 0.80656 0.89899
 C1637 C -0.04026 0.81472 0.89052
 C1638 C -0.03328 0.80773 0.87497
 C1639 C -0.03337 0.78505 0.85147
 C1640 C -0.01932 0.79356 0.84317
 C1641 C -0.01269 0.78671 0.82741
 C1642 C -0.02009 0.77149 0.81988
 C1643 C -0.03412 0.76305 0.82852
 C1644 C -0.04082 0.76980 0.84429
 C1645 C -0.01917 0.81584 0.86631
 C1646 C -0.01233 0.80890 0.85066
 C1647 C -0.06185 0.76871 0.86852
 C1648 C -0.05498 0.76173 0.85290
 H1649 H -0.01342 0.82772 0.87162
 H1650 H -0.00152 0.81563 0.84434
 H1651 H -0.07281 0.76211 0.87470
 H1652 H -0.06087 0.74998 0.84747
 H1653 H -0.07273 0.78454 0.89776
 H1654 H -0.03454 0.82660 0.89588
 H1655 H -0.00203 0.79346 0.82086
 H1656 H -0.04003 0.75142 0.82285
 C1657 C 0.38203 0.79145 0.28987
 C1658 C 0.37496 0.80674 0.28242
 C1659 C 0.35933 0.81364 0.28922
 C1660 C 0.35079 0.80539 0.30343
 C1661 C 0.35809 0.79000 0.31069
 C1662 C 0.37371 0.78300 0.30398
 C1663 C 0.39856 0.78424 0.28288
 C1664 C 0.40574 0.76907 0.29048
 C1665 C 0.42164 0.76246 0.28401
 C1666 C 0.43038 0.77094 0.27005
 C1667 C 0.42284 0.78609 0.26251
 C1668 C 0.40698 0.79281 0.26891
 C1669 C 0.38125 0.76778 0.31117
 C1670 C 0.39700 0.76095 0.30455
 C1671 C 0.38374 0.81491 0.26840
 C1672 C 0.39949 0.80807 0.26177
 H1673 H 0.37496 0.76115 0.32207
 H1674 H 0.40242 0.74925 0.31054
 H1675 H 0.37844 0.82674 0.26255
 H1676 H 0.40590 0.81484 0.25101
 H1677 H 0.35391 0.82548 0.28350
 H1678 H 0.35171 0.78350 0.32163
 H1679 H 0.42730 0.75088 0.29002
 H1680 H 0.42946 0.79287 0.25189
 C1681 C -0.11775 0.79220 0.79085
 C1682 C -0.12622 0.78345 0.80468
 C1683 C -0.14173 0.79051 0.81160
 C1684 C -0.14877 0.80622 0.80480
 C1685 C -0.14006 0.81478 0.79088
 C1686 C -0.12454 0.80784 0.78389
 C1687 C -0.10136 0.78491 0.78361
 C1688 C -0.09280 0.79376 0.76990
 C1689 C -0.07710 0.78693 0.76324
 C1690 C -0.06985 0.77140 0.77027
 C1691 C -0.07872 0.76264 0.78396
 C1692 C -0.09447 0.76935 0.79069
 C1693 C -0.11560 0.81631 0.77014
 C1694 C -0.09998 0.80940 0.76328
 C1695 C -0.11897 0.76788 0.81137
 C1696 C -0.10335 0.76095 0.80451
 H1697 H -0.12067 0.82842 0.76469
 H1698 H -0.09345 0.81639 0.75276
 H1699 H -0.12537 0.76101 0.82206
 H1700 H -0.09816 0.74897 0.81011
 H1701 H -0.14825 0.78377 0.82231
 H1702 H -0.14526 0.82688 0.78553
 H1703 H -0.07036 0.79393 0.75285
 H1704 H -0.07328 0.75077 0.78958
 C1705 C 0.87211 0.28681 0.46192
 C1706 C 0.87969 0.27898 0.44706
 C1707 C 0.89545 0.28573 0.44040
 C1708 C 0.90358 0.30030 0.44843
 C1709 C 0.89587 0.30783 0.46349
 C1710 C 0.88011 0.30116 0.47025
 C1711 C 0.85527 0.28009 0.46865
 C1712 C 0.84749 0.28818 0.48327
 C1713 C 0.83117 0.28216 0.48924
 C1714 C 0.82255 0.26822 0.48061
 C1715 C 0.83076 0.26005 0.46615
 C1716 C 0.84707 0.26598 0.46009
 C1717 C 0.87205 0.30875 0.48501
 C1718 C 0.85601 0.30237 0.49141
 C1719 C 0.87122 0.26472 0.43898
 C1720 C 0.85518 0.25834 0.44538
 H1721 H 0.87810 0.31982 0.49157
 H1722 H 0.85014 0.30872 0.50270
 H1723 H 0.87694 0.25855 0.42751
 H1724 H 0.84899 0.24745 0.43865
 H1725 H 0.90121 0.27979 0.42882
 H1726 H 0.90194 0.31902 0.46983
 H1727 H 0.82503 0.28862 0.50033
 H1728 H 0.82429 0.24938 0.45932
 C1729 C 0.87085 0.79025 -0.04014
 C1730 C 0.87838 0.80515 -0.03233
 C1731 C 0.89363 0.81238 -0.03964
 C1732 C 0.90132 0.80488 -0.05473
 C1733 C 0.89366 0.78978 -0.06225
 C1734 C 0.87840 0.78246 -0.05503
 C1735 C 0.85453 0.78291 -0.03280
 C1736 C 0.84677 0.76826 -0.04086
 C1737 C 0.83088 0.76175 -0.03427
 C1738 C 0.82264 0.76989 -0.01981
 C1739 C 0.83087 0.78435 -0.01166
 C1740 C 0.84676 0.79095 -0.01815
 C1741 C 0.87039 0.76766 -0.06258
 C1742 C 0.85484 0.76068 -0.05562
 C1743 C 0.87035 0.81268 -0.01753
 C1744 C 0.85480 0.80571 -0.01056
 H1745 H 0.87610 0.76151 -0.07407
 H1746 H 0.84898 0.74938 -0.06196
 H1747 H 0.87604 0.82418 -0.01138
 H1748 H 0.84893 0.81205 0.00074
 H1749 H 0.89935 0.82397 -0.03369
 H1750 H 0.89939 0.78385 -0.07384
 H1751 H 0.82471 0.75069 -0.04074
 H1752 H 0.82469 0.79081 -0.00059
 C1753 C -0.11741 -0.04123 -0.04184
 C1754 C -0.12456 -0.03386 -0.05714
 C1755 C -0.14004 -0.04092 -0.06415
 C1756 C -0.14840 -0.05537 -0.05604
 C1757 C -0.14091 -0.06257 -0.04064
 C1758 C -0.12547 -0.05555 -0.03352
 C1759 C -0.10110 -0.03389 -0.03445
 C1760 C -0.09386 -0.04137 -0.01924
 C1761 C -0.07819 -0.03454 -0.01243
 C1762 C -0.06971 -0.02035 -0.02078
 C1763 C -0.07729 -0.01294 -0.03598
 C1764 C -0.09294 -0.01969 -0.04289
 C1765 C -0.11786 -0.06265 -0.01827
 C1766 C -0.10232 -0.05569 -0.01126
 C1767 C -0.11603 -0.01962 -0.06518
 C1768 C -0.10047 -0.01267 -0.05820
 H1769 H -0.12393 -0.07372 -0.01174
 H1770 H -0.09685 -0.06161 0.00046
 H1771 H -0.12138 -0.01383 -0.07703
 H1772 H -0.09426 -0.00175 -0.06487
 H1773 H -0.14545 -0.03514 -0.07599
 H1774 H -0.14701 -0.07365 -0.03413
 H1775 H -0.07249 -0.04048 -0.00083
 H1776 H -0.07085 -0.00216 -0.04267
 C1777 C -0.12273 0.46330 0.46343
 C1778 C -0.13058 0.44879 0.47164
 C1779 C -0.14655 0.44236 0.46516
 C1780 C -0.15462 0.45026 0.45048
 C1781 C -0.14664 0.46499 0.44259
 C1782 C -0.13068 0.47152 0.44898
 C1783 C -0.10567 0.46976 0.46985
 C1784 C -0.09763 0.48403 0.46139
 C1785 C -0.08113 0.48973 0.46714
 C1786 C -0.07257 0.48120 0.48118
 C1787 C -0.08103 0.46710 0.48971
 C1788 C -0.09753 0.46130 0.48405
 C1789 C -0.12235 0.48592 0.44101
 C1790 C -0.10610 0.49206 0.44711
 C1791 C -0.12216 0.44082 0.48599
 C1792 C -0.10591 0.44696 0.49209
 H1793 H -0.12836 0.49238 0.42985
 H1794 H -0.10004 0.50308 0.44047
 H1795 H -0.12809 0.42962 0.49246
 H1796 H -0.09977 0.44032 0.50307
 H1797 H -0.15250 0.43104 0.47139
 H1798 H -0.15267 0.47122 0.43131
 H1799 H -0.07480 0.50055 0.46040
 H1800 H -0.07463 0.46036 0.50048
 C1801 C 0.37849 -0.03765 0.46096
 C1802 C 0.37099 -0.02982 0.44606
 C1803 C 0.35531 -0.03662 0.43924
 C1804 C 0.34711 -0.05129 0.44714
 C1805 C 0.35481 -0.05876 0.46230
 C1806 C 0.37048 -0.05205 0.46919
 C1807 C 0.39523 -0.03085 0.46787
 C1808 C 0.40293 -0.03892 0.48255
 C1809 C 0.41916 -0.03283 0.48868
 C1810 C 0.42777 -0.01882 0.48017
 C1811 C 0.41963 -0.01066 0.46566
 C1812 C 0.40342 -0.01667 0.45942
 C1813 C 0.37846 -0.05962 0.48401
 C1814 C 0.39441 -0.05318 0.49056
 C1815 C 0.37946 -0.01550 0.43810
 C1816 C 0.39541 -0.00904 0.44466
 H1817 H 0.37240 -0.07074 0.49049
 H1818 H 0.40021 -0.05953 0.50190
 H1819 H 0.37381 -0.00933 0.42659
 H1820 H 0.40159 0.00191 0.43802
 H1821 H 0.34970 -0.03058 0.42764
 H1822 H 0.34881 -0.06998 0.46867
 H1823 H 0.42525 -0.03928 0.49981
 H1824 H 0.42610 0.00007 0.45891
 C1825 C 0.38213 0.45881 -0.04148
 C1826 C 0.37498 0.46622 -0.05675
 C1827 C 0.35949 0.45921 -0.06377
 C1828 C 0.35110 0.44475 -0.05567
 C1829 C 0.35859 0.43752 -0.04029
 C1830 C 0.37406 0.44449 -0.03318
 C1831 C 0.39848 0.46609 -0.03411
 C1832 C 0.40573 0.45856 -0.01893
 C1833 C 0.42143 0.46532 -0.01215
 C1834 C 0.42994 0.47950 -0.02049
 C1835 C 0.42234 0.48698 -0.03565
 C1836 C 0.40666 0.48029 -0.04253
 C1837 C 0.38168 0.43734 -0.01796
 C1838 C 0.39725 0.44425 -0.01096
 C1839 C 0.38353 0.48046 -0.06479
 C1840 C 0.39911 0.48736 -0.05781
 H1841 H 0.37559 0.42627 -0.01143
 H1842 H 0.40273 0.43828 0.00073
 H1843 H 0.37817 0.48629 -0.07661
 H1844 H 0.40534 0.49828 -0.06447
 H1845 H 0.35408 0.46501 -0.07559
 H1846 H 0.35247 0.42644 -0.03379
 H1847 H 0.42715 0.45934 -0.00057
 H1848 H 0.42879 0.49776 -0.04233
 C1849 C 0.36530 0.45668 0.79427
 C1850 C 0.37281 0.44180 0.78642
 C1851 C 0.38775 0.43424 0.79400
 C1852 C 0.39521 0.44145 0.80935
 C1853 C 0.38743 0.45637 0.81707
 C1854 C 0.37247 0.46401 0.80960
 C1855 C 0.34957 0.46466 0.78637
 C1856 C 0.34196 0.47943 0.79432
 C1857 C 0.32683 0.48678 0.78692
 C1858 C 0.31922 0.47941 0.77172
 C1859 C 0.32718 0.46466 0.76384
 C1860 C 0.34231 0.45722 0.77114
 C1861 C 0.36449 0.47881 0.81717
 C1862 C 0.34948 0.48638 0.80967
 C1863 C 0.36517 0.43474 0.77118
 C1864 C 0.35017 0.44230 0.76367
 H1865 H 0.36987 0.48457 0.82902
 H1866 H 0.34368 0.49772 0.81598
 H1867 H 0.37082 0.42323 0.76502
 H1868 H 0.34464 0.43639 0.75197
 H1869 H 0.39355 0.42277 0.78792
 H1870 H 0.39297 0.46204 0.82889
 H1871 H 0.32077 0.49799 0.79325
 H1872 H 0.32141 0.45872 0.75226
 C1873 C 0.36873 -0.04085 0.28945
 C1874 C 0.37584 -0.05613 0.28202
 C1875 C 0.39146 -0.06301 0.28889
 C1876 C 0.39993 -0.05475 0.30314
 C1877 C 0.39258 -0.03937 0.31037
 C1878 C 0.37698 -0.03239 0.30359
 C1879 C 0.35221 -0.03367 0.28240
 C1880 C 0.34498 -0.01851 0.28996
 C1881 C 0.32910 -0.01192 0.28343
 C1882 C 0.32042 -0.02042 0.26945
 C1883 C 0.32801 -0.03555 0.26193
 C1884 C 0.34386 -0.04224 0.26839
 C1885 C 0.36939 -0.01719 0.31076
 C1886 C 0.35366 -0.01037 0.30407
 C1887 C 0.36713 -0.06431 0.26797
 C1888 C 0.35139 -0.05750 0.26127
 H1889 H 0.37563 -0.01054 0.32169
 H1890 H 0.34820 0.00132 0.31004
 H1891 H 0.37247 -0.07613 0.26214
 H1892 H 0.34504 -0.06427 0.25049
 H1893 H 0.39691 -0.07484 0.28320
 H1894 H 0.39890 -0.03286 0.32133
 H1895 H 0.32340 -0.00035 0.28943
 H1896 H 0.32144 -0.04234 0.25128
 C1897 C 0.12811 0.53802 0.71194
 C1898 C 0.12052 0.53006 0.69714
 C1899 C 0.10483 0.53682 0.69035
 C1900 C 0.09676 0.55152 0.69819
 C1901 C 0.10448 0.55917 0.71320
 C1902 C 0.12017 0.55251 0.72008
 C1903 C 0.14488 0.53128 0.71882
 C1904 C 0.15267 0.53949 0.73338
 C1905 C 0.16894 0.53345 0.73946
 C1906 C 0.17749 0.51937 0.73102
 C1907 C 0.16925 0.51108 0.71664
 C1908 C 0.15301 0.51703 0.71045
 C1909 C 0.12824 0.56022 0.73478
 C1910 C 0.14422 0.55383 0.74131
 C1911 C 0.12893 0.51567 0.68927
 C1912 C 0.14490 0.50927 0.69580
 H1913 H 0.12224 0.57140 0.74119
 H1914 H 0.15009 0.56028 0.75255
 H1915 H 0.12320 0.50940 0.67785
 H1916 H 0.15104 0.49826 0.68922
 H1917 H 0.09907 0.53078 0.67883
 H1918 H 0.09845 0.57046 0.71939
 H1919 H 0.17511 0.54001 0.75049
 H1920 H 0.17566 0.50029 0.70995
 C1921 C 0.12793 0.03707 0.21230
 C1922 C 0.12008 0.05158 0.22047
 C1923 C 0.10419 0.05809 0.21388
 C1924 C 0.09614 0.05029 0.19906
 C1925 C 0.10420 0.03551 0.19124
 C1926 C 0.12008 0.02892 0.19777
 C1927 C 0.14490 0.03050 0.21889
 C1928 C 0.15292 0.01620 0.21049
 C1929 C 0.16932 0.01038 0.21641
 C1930 C 0.17780 0.01883 0.23056
 C1931 C 0.16935 0.03297 0.23902
 C1932 C 0.15294 0.03888 0.23320
 C1933 C 0.12840 0.01449 0.18986
 C1934 C 0.14454 0.00825 0.19611
 C1935 C 0.12841 0.05948 0.23492
 C1936 C 0.14457 0.05324 0.24117
 H1937 H 0.12246 0.00807 0.17863
 H1938 H 0.15060 -0.00280 0.18951
 H1939 H 0.12248 0.07068 0.24136
 H1940 H 0.15063 0.05983 0.25223
 H1941 H 0.09831 0.06940 0.22018
 H1942 H 0.09832 0.02922 0.17991
 H1943 H 0.17564 -0.00046 0.20971
 H1944 H 0.17569 0.03965 0.24987
 C1945 C 0.62121 0.71094 0.21093
 C1946 C 0.62868 0.69597 0.21865
 C1947 C 0.64403 0.68887 0.21143
 C1948 C 0.65187 0.69656 0.19651
 C1949 C 0.64427 0.71171 0.18908
 C1950 C 0.62892 0.71892 0.19621
 C1951 C 0.60479 0.71816 0.21815
 C1952 C 0.59712 0.73288 0.21018
 C1953 C 0.58115 0.73928 0.21666
 C1954 C 0.57274 0.73097 0.23092
 C1955 C 0.58088 0.71643 0.23900
 C1956 C 0.59686 0.70993 0.23262
 C1957 C 0.62098 0.73379 0.18874
 C1958 C 0.60534 0.74065 0.19560
 C1959 C 0.62048 0.68825 0.23328
 C1960 C 0.60484 0.69511 0.24013
 H1961 H 0.62681 0.74008 0.17739
 H1962 H 0.59955 0.75201 0.18932
 H1963 H 0.62612 0.67671 0.23937
 H1964 H 0.59884 0.68863 0.25129
 H1965 H 0.64969 0.67722 0.21731
 H1966 H 0.65012 0.71779 0.17763
 H1967 H 0.57505 0.75042 0.21024
 H1968 H 0.57457 0.70983 0.24992
 C1969 C 0.12183 0.71282 0.71180
 C1970 C 0.12946 0.72083 0.69705
 C1971 C 0.14520 0.71413 0.69032
 C1972 C 0.15328 0.69944 0.69816
 C1973 C 0.14551 0.69173 0.71311
 C1974 C 0.12977 0.69833 0.71994
 C1975 C 0.10502 0.71950 0.71861
 C1976 C 0.09718 0.71124 0.73312
 C1977 C 0.08089 0.71724 0.73916
 C1978 C 0.07236 0.73134 0.73072
 C1979 C 0.08063 0.73967 0.71639
 C1980 C 0.09690 0.73375 0.71024
 C1981 C 0.12166 0.69056 0.73458
 C1982 C 0.10563 0.69690 0.74105
 C1983 C 0.12106 0.73523 0.68917
 C1984 C 0.10505 0.74157 0.69565
 H1985 H 0.12766 0.67938 0.74099
 H1986 H 0.09973 0.69041 0.75225
 H1987 H 0.12682 0.74154 0.67779
 H1988 H 0.09891 0.75259 0.68907
 H1989 H 0.15099 0.72022 0.67883
 H1990 H 0.15154 0.68044 0.71931
 H1991 H 0.07469 0.71065 0.75015
 H1992 H 0.07424 0.75048 0.70971
 C1993 C 0.63097 0.20984 0.53933
 C1994 C 0.62284 0.21829 0.55355
 C1995 C 0.60712 0.21149 0.56025
 C1996 C 0.59953 0.19630 0.55286
 C1997 C 0.60786 0.18808 0.53851
 C1998 C 0.62359 0.19477 0.53173
 C1999 C 0.64763 0.21679 0.53240
 C2000 C 0.65586 0.20821 0.51832
 C2001 C 0.67187 0.21467 0.51200
 C2002 C 0.67973 0.22957 0.51972
 C2003 C 0.67116 0.23809 0.53375
 C2004 C 0.65513 0.23173 0.54015
 C2005 C 0.63217 0.18659 0.51759
 C2006 C 0.64805 0.19319 0.51101
 C2007 C 0.63069 0.23328 0.56090
 C2008 C 0.64657 0.23988 0.55432
 H2009 H 0.62662 0.17494 0.51162
 H2010 H 0.65430 0.18642 0.50018
 H2011 H 0.62456 0.23992 0.57188
 H2012 H 0.65224 0.25140 0.56043
 H2013 H 0.60090 0.21797 0.57128
 H2014 H 0.60222 0.17638 0.53269
 H2015 H 0.67834 0.20788 0.50130
 H2016 H 0.67705 0.24948 0.53989
 C2017 C 0.63094 0.71105 0.03850
 C2018 C 0.62323 0.69634 0.03052
 C2019 C 0.60735 0.68983 0.03714
 C2020 C 0.59920 0.69789 0.05169
 C2021 C 0.60712 0.71273 0.05943
 C2022 C 0.62299 0.71934 0.05291
 C2023 C 0.64777 0.71780 0.03175
 C2024 C 0.65558 0.73238 0.03986
 C2025 C 0.67174 0.73855 0.03361
 C2026 C 0.68014 0.73020 0.01937
 C2027 C 0.67199 0.71565 0.01132
 C2028 C 0.65584 0.70938 0.01748
 C2029 C 0.63116 0.73397 0.06062
 C2030 C 0.64719 0.74037 0.05421
 C2031 C 0.63165 0.68832 0.01620
 C2032 C 0.64768 0.69473 0.00979
 H2033 H 0.62517 0.74047 0.07176
 H2034 H 0.65310 0.75162 0.06060
 H2035 H 0.62585 0.67695 0.00994
 H2036 H 0.65379 0.68810 -0.00121
 H2037 H 0.60146 0.67840 0.03105
 H2038 H 0.60105 0.71908 0.07063
 H2039 H 0.67786 0.74968 0.04002
 H2040 H 0.67832 0.70900 0.00044
 C2041 C 0.12198 0.03816 0.03778
 C2042 C 0.12956 0.05297 0.02988
 C2043 C 0.14526 0.05974 0.03667
 C2044 C 0.15340 0.05189 0.05140
 C2045 C 0.14563 0.03680 0.05894
 C2046 C 0.12993 0.02997 0.05224
 C2047 C 0.10520 0.03132 0.03101
 C2048 C 0.09741 0.01674 0.03916
 C2049 C 0.08114 0.01068 0.03310
 C2050 C 0.07257 0.01918 0.01905
 C2051 C 0.08080 0.03359 0.01081
 C2052 C 0.09706 0.03975 0.01679
 C2053 C 0.12187 0.01524 0.05989
 C2054 C 0.10588 0.00875 0.05347
 C2055 C 0.12114 0.06090 0.01551
 C2056 C 0.10516 0.05441 0.00908
 H2057 H 0.12788 0.00878 0.07105
 H2058 H 0.10001 -0.00251 0.05988
 H2059 H 0.12687 0.07233 0.00928
 H2060 H 0.09902 0.06103 -0.00191
 H2061 H 0.15094 0.07128 0.03058
 H2062 H 0.15159 0.03047 0.07021
 H2063 H 0.07499 -0.00036 0.03962
 H2064 H 0.07438 0.04032 0.00004
 C2065 C 0.11855 0.54080 0.53947
 C2066 C 0.12560 0.55620 0.53220
 C2067 C 0.14124 0.56302 0.53906
 C2068 C 0.14979 0.55462 0.55317
 C2069 C 0.14252 0.53913 0.56025
 C2070 C 0.12690 0.53219 0.55346
 C2071 C 0.10199 0.53368 0.53244
 C2072 C 0.09483 0.51841 0.53987
 C2073 C 0.07891 0.51189 0.53338
 C2074 C 0.07011 0.52056 0.51958
 C2075 C 0.07763 0.53579 0.51219
 C2076 C 0.09353 0.54242 0.51861
 C2077 C 0.11938 0.51687 0.56048
 C2078 C 0.10361 0.51011 0.55380
 C2079 C 0.11678 0.56453 0.51830
 C2080 C 0.10101 0.55777 0.51163
 H2081 H 0.12569 0.51011 0.57128
 H2082 H 0.09821 0.49833 0.55966
 H2083 H 0.12207 0.57644 0.51259
 H2084 H 0.09457 0.56467 0.50099
 H2085 H 0.14663 0.57495 0.53349
 H2086 H 0.14892 0.53251 0.57109
 H2087 H 0.07327 0.50023 0.53926
 H2088 H 0.07097 0.54270 0.50169
 C2089 C 0.61877 0.04075 0.53957
 C2090 C 0.62602 0.05593 0.53204
 C2091 C 0.64168 0.06275 0.53888
 C2092 C 0.65006 0.05453 0.55321
 C2093 C 0.64259 0.03924 0.56052
 C2094 C 0.62695 0.03233 0.55378
 C2095 C 0.60219 0.03365 0.53257
 C2096 C 0.59483 0.01860 0.54025
 C2097 C 0.57889 0.01210 0.53378
 C2098 C 0.57027 0.02058 0.51975
 C2099 C 0.57798 0.03559 0.51212
 C2100 C 0.59391 0.04220 0.51851
 C2101 C 0.61924 0.01723 0.56105
 C2102 C 0.60344 0.01049 0.55441
 C2103 C 0.61738 0.06407 0.51792
 C2104 C 0.60158 0.05733 0.51128
 H2105 H 0.62541 0.01061 0.57202
 H2106 H 0.59788 -0.00111 0.56047
 H2107 H 0.62282 0.07581 0.51201
 H2108 H 0.59529 0.06407 0.50045
 H2109 H 0.64722 0.07451 0.53312
 H2110 H 0.64886 0.03277 0.57154
 H2111 H 0.57309 0.00062 0.53987
 H2112 H 0.57147 0.04235 0.50143
 C2113 C 0.62091 0.53934 0.03875
 C2114 C 0.62841 0.55425 0.03093
 C2115 C 0.64383 0.56132 0.03804
 C2116 C 0.65170 0.55366 0.05295
 C2117 C 0.64407 0.53855 0.06047
 C2118 C 0.62866 0.53139 0.05346
 C2119 C 0.60441 0.53216 0.03164
 C2120 C 0.59670 0.51751 0.03972
 C2121 C 0.58067 0.51115 0.03335
 C2122 C 0.57224 0.51944 0.01908
 C2123 C 0.58042 0.53391 0.01091
 C2124 C 0.59645 0.54037 0.01719
 C2125 C 0.62068 0.51657 0.06102
 C2126 C 0.60497 0.50976 0.05428
 C2127 C 0.62018 0.56195 0.01632
 C2128 C 0.60447 0.55513 0.00957
 H2129 H 0.62654 0.51030 0.07237
 H2130 H 0.59915 0.49844 0.06063
 H2131 H 0.62584 0.57344 0.01015
 H2132 H 0.59845 0.56158 -0.00159
 H2133 H 0.64952 0.57292 0.03210
 H2134 H 0.64995 0.53249 0.07192
 H2135 H 0.57455 0.50006 0.03982
 H2136 H 0.57410 0.54048 -0.00002
 C2137 C 0.03802 0.03680 0.12274
 C2138 C 0.02981 0.05121 0.13073
 C2139 C 0.03648 0.05775 0.14660
 C2140 C 0.05140 0.05009 0.15452
 C2141 C 0.05926 0.03540 0.14634
 C2142 C 0.05267 0.02878 0.13046
 C2143 C 0.03136 0.03020 0.10578
 C2144 C 0.03981 0.01603 0.09759
 C2145 C 0.03381 0.01020 0.08118
 C2146 C 0.01954 0.01854 0.07285
 C2147 C 0.01103 0.03255 0.08147
 C2148 C 0.01693 0.03846 0.09788
 C2149 C 0.06062 0.01445 0.12199
 C2150 C 0.05431 0.00819 0.10583
 C2151 C 0.01524 0.05897 0.12254
 C2152 C 0.00891 0.05271 0.10639
 H2153 H 0.07194 0.00813 0.12782
 H2154 H 0.06094 -0.00276 0.09966
 H2155 H 0.00876 0.07010 0.12858
 H2156 H -0.00224 0.05920 0.10044
 H2157 H 0.03013 0.06899 0.15258
 H2158 H 0.07068 0.02922 0.15212
 H2159 H 0.04054 -0.00054 0.07472
 H2160 H 0.00008 0.03914 0.07525
 C2161 C 0.03888 0.53907 0.61960
 C2162 C 0.05334 0.53090 0.62753
 C2163 C 0.05980 0.53751 0.64346
 C2164 C 0.05195 0.55225 0.65146
 C2165 C 0.03735 0.56018 0.64332
 C2166 C 0.03080 0.55367 0.62739
 C2167 C 0.03219 0.53233 0.60271
 C2168 C 0.01787 0.54064 0.59467
 C2169 C 0.01176 0.53439 0.57846
 C2170 C 0.01992 0.51996 0.57021
 C2171 C 0.03421 0.51170 0.57859
 C2172 C 0.04041 0.51786 0.59481
 C2173 C 0.01642 0.56158 0.61899
 C2174 C 0.01007 0.55518 0.60291
 C2175 C 0.06115 0.51637 0.61928
 C2176 C 0.05480 0.50997 0.60319
 H2177 H 0.01007 0.57286 0.62486
 H2178 H -0.00097 0.56173 0.59682
 H2179 H 0.07233 0.50995 0.62526
 H2180 H 0.06127 0.49881 0.59722
 H2181 H 0.07104 0.53126 0.64953
 H2182 H 0.03117 0.57153 0.64927
 H2183 H 0.00084 0.54096 0.57216
 H2184 H 0.04069 0.50067 0.57240
 C2185 C 0.53948 0.03938 0.61938
 C2186 C 0.53132 0.05389 0.62723
 C2187 C 0.53793 0.06047 0.64312
 C2188 C 0.55270 0.05270 0.65122
 C2189 C 0.56060 0.03800 0.64309
 C2190 C 0.55407 0.03135 0.62719
 C2191 C 0.53272 0.03257 0.60254
 C2192 C 0.54101 0.01818 0.59457
 C2193 C 0.53474 0.01195 0.57841
 C2194 C 0.52029 0.02006 0.57015
 C2195 C 0.51206 0.03441 0.57846
 C2196 C 0.51824 0.04072 0.59462
 C2197 C 0.56196 0.01690 0.61887
 C2198 C 0.55555 0.01044 0.60283
 C2199 C 0.51679 0.06165 0.61896
 C2200 C 0.51037 0.05518 0.60292
 H2201 H 0.57325 0.01059 0.62476
 H2202 H 0.56209 -0.00066 0.59681
 H2203 H 0.51038 0.07287 0.62488
 H2204 H 0.49921 0.06162 0.59694
 H2205 H 0.53158 0.07174 0.64904
 H2206 H 0.57193 0.03176 0.64898
 H2207 H 0.54129 0.00098 0.57216
 H2208 H 0.50102 0.04086 0.57226
 C2209 C 0.53836 0.53748 0.12207
 C2210 C 0.53018 0.55193 0.13005
 C2211 C 0.53707 0.55867 0.14574
 C2212 C 0.55212 0.55114 0.15343
 C2213 C 0.56000 0.53648 0.14532
 C2214 C 0.55320 0.52964 0.12963
 C2215 C 0.53148 0.53067 0.10529
 C2216 C 0.53989 0.51647 0.09712
 C2217 C 0.53370 0.51045 0.08085
 C2218 C 0.51928 0.51864 0.07264
 C2219 C 0.51079 0.53267 0.08125
 C2220 C 0.51688 0.53876 0.09753
 C2221 C 0.56112 0.51529 0.12119
 C2222 C 0.55458 0.50882 0.10520
 C2223 C 0.51544 0.55952 0.12201
 C2224 C 0.50891 0.55306 0.10602
 H2225 H 0.57257 0.50911 0.12689
 H2226 H 0.56120 0.49785 0.09903
 H2227 H 0.50899 0.57067 0.12804
 H2228 H 0.49763 0.55942 0.10017
 H2229 H 0.53085 0.56994 0.15179
 H2230 H 0.57156 0.53053 0.15106
 H2231 H 0.54043 0.49971 0.07440
 H2232 H 0.49973 0.53914 0.07511
 C2233 C 0.21061 0.53931 0.62887
 C2234 C 0.19573 0.53155 0.62131
 C2235 C 0.18874 0.53868 0.60584
 C2236 C 0.19646 0.55356 0.59797
 C2237 C 0.21155 0.56103 0.60566
 C2238 C 0.21864 0.55398 0.62113
 C2239 C 0.21770 0.53218 0.64543
 C2240 C 0.23234 0.54020 0.65320
 C2241 C 0.23862 0.53381 0.66929
 C2242 C 0.23026 0.51959 0.67771
 C2243 C 0.21580 0.51147 0.66948
 C2244 C 0.20943 0.51777 0.65339
 C2245 C 0.23343 0.56149 0.62917
 C2246 C 0.24016 0.55472 0.64494
 C2247 C 0.18797 0.51697 0.62953
 C2248 C 0.19469 0.51021 0.64530
 H2249 H 0.23975 0.57281 0.62332
 H2250 H 0.25147 0.56103 0.65081
 H2251 H 0.17648 0.51085 0.62381
 H2252 H 0.18819 0.49908 0.65132
 H2253 H 0.17715 0.53278 0.60010
 H2254 H 0.21765 0.57245 0.59979
 H2255 H 0.24970 0.54024 0.67545
 H2256 H 0.20918 0.50058 0.67580
 C2257 C 0.21184 0.03793 0.12732
 C2258 C 0.19729 0.02984 0.11948
 C2259 C 0.19053 0.03670 0.10379
 C2260 C 0.19812 0.05172 0.09593
 C2261 C 0.21294 0.05946 0.10396
 C2262 C 0.21978 0.05266 0.11964
 C2263 C 0.21867 0.03106 0.14410
 C2264 C 0.23300 0.03939 0.15212
 C2265 C 0.23905 0.03322 0.16838
 C2266 C 0.23077 0.01891 0.17673
 C2267 C 0.21661 0.01050 0.16828
 C2268 C 0.21048 0.01657 0.15200
 C2269 C 0.23427 0.06049 0.12794
 C2270 C 0.24076 0.05397 0.14391
 C2271 C 0.18960 0.01519 0.12765
 C2272 C 0.19607 0.00868 0.14364
 H2273 H 0.24053 0.07186 0.12213
 H2274 H 0.25183 0.06051 0.14997
 H2275 H 0.17836 0.00881 0.12173
 H2276 H 0.18962 -0.00251 0.14960
 H2277 H 0.17919 0.03045 0.09791
 H2278 H 0.21907 0.07094 0.09821
 H2279 H 0.24991 0.03987 0.17470
 H2280 H 0.21006 -0.00047 0.17454
 C2281 C 0.71097 0.21142 0.61994
 C2282 C 0.69633 0.21946 0.62769
 C2283 C 0.68989 0.21294 0.64367
 C2284 C 0.69793 0.19843 0.65188
 C2285 C 0.71270 0.19063 0.64393
 C2286 C 0.71924 0.19705 0.62796
 C2287 C 0.71762 0.21804 0.60300
 C2288 C 0.73212 0.20985 0.59514
 C2289 C 0.73820 0.21598 0.57888
 C2290 C 0.72985 0.23016 0.57040
 C2291 C 0.71539 0.23829 0.57859
 C2292 C 0.70921 0.23226 0.59486
 C2293 C 0.73379 0.18927 0.61975
 C2294 C 0.74011 0.19556 0.60361
 C2295 C 0.68832 0.23374 0.61920
 C2296 C 0.69465 0.24002 0.60306
 H2297 H 0.74028 0.17816 0.62580
 H2298 H 0.75130 0.18911 0.59768
 H2299 H 0.67701 0.24005 0.62504
 H2300 H 0.68802 0.25099 0.59690
 H2301 H 0.67852 0.21908 0.64958
 H2302 H 0.71903 0.17946 0.65005
 H2303 H 0.74927 0.20952 0.57273
 H2304 H 0.70875 0.24914 0.57221
 C2305 C 0.71018 0.70947 0.11830
 C2306 C 0.71760 0.69423 0.12550
 C2307 C 0.71072 0.68736 0.14115
 C2308 C 0.69645 0.69559 0.14958
 C2309 C 0.68923 0.71093 0.14215
 C2310 C 0.69602 0.71790 0.12651
 C2311 C 0.71724 0.71663 0.10174
 C2312 C 0.70968 0.73175 0.09442
 C2313 C 0.71622 0.73831 0.07850
 C2314 C 0.73021 0.72982 0.06986
 C2315 C 0.73772 0.71474 0.07754
 C2316 C 0.73126 0.70807 0.09343
 C2317 C 0.68887 0.73307 0.11884
 C2318 C 0.69557 0.73987 0.10306
 C2319 C 0.73167 0.68607 0.11684
 C2320 C 0.73837 0.69287 0.10106
 H2321 H 0.67793 0.73970 0.12503
 H2322 H 0.68960 0.75153 0.09753
 H2323 H 0.73750 0.67429 0.12224
 H2324 H 0.74916 0.68611 0.09474
 H2325 H 0.71642 0.67555 0.14666
 H2326 H 0.67825 0.71741 0.14844
 H2327 H 0.71023 0.74985 0.07273
 H2328 H 0.74838 0.70796 0.07100
 C2329 C 0.53913 0.71254 0.12814
 C2330 C 0.53079 0.69822 0.12009
 C2331 C 0.53761 0.69148 0.10437
 C2332 C 0.55274 0.69890 0.09673
 C2333 C 0.56078 0.71344 0.10490
 C2334 C 0.55407 0.72026 0.12063
 C2335 C 0.53232 0.71935 0.14494
 C2336 C 0.54088 0.73343 0.15318
 C2337 C 0.53472 0.73945 0.16945
 C2338 C 0.52017 0.73140 0.17759
 C2339 C 0.51155 0.71748 0.16892
 C2340 C 0.51761 0.71137 0.15264
 C2341 C 0.56214 0.73449 0.12915
 C2342 C 0.55567 0.74096 0.14516
 C2343 C 0.51595 0.69074 0.12807
 C2344 C 0.50948 0.69720 0.14408
 H2345 H 0.57367 0.74058 0.12349
 H2346 H 0.56240 0.75183 0.15139
 H2347 H 0.50939 0.67969 0.12199
 H2348 H 0.49812 0.69094 0.14988
 H2349 H 0.53126 0.68032 0.09826
 H2350 H 0.57241 0.71930 0.09920
 H2351 H 0.54154 0.75011 0.17596
 H2352 H 0.50039 0.71111 0.17500
 C2353 C 0.03911 0.71132 0.62871
 C2354 C 0.03125 0.69648 0.62112
 C2355 C 0.03842 0.68935 0.60574
 C2356 C 0.05343 0.69689 0.59797
 C2357 C 0.06099 0.71193 0.60568
 C2358 C 0.05392 0.71916 0.62107
 C2359 C 0.03194 0.71855 0.64519
 C2360 C 0.04006 0.73313 0.65300
 C2361 C 0.03363 0.73951 0.66903
 C2362 C 0.01928 0.73131 0.67736
 C2363 C 0.01106 0.71693 0.66908
 C2364 C 0.01739 0.71045 0.65305
 C2365 C 0.06152 0.73391 0.62913
 C2366 C 0.05471 0.74077 0.64483
 C2367 C 0.01654 0.68890 0.62924
 C2368 C 0.00973 0.69576 0.64494
 H2369 H 0.07294 0.74009 0.62336
 H2370 H 0.06110 0.75203 0.65073
 H2371 H 0.01034 0.67745 0.62351
 H2372 H -0.00150 0.68939 0.65088
 H2373 H 0.03244 0.67780 0.59998
 H2374 H 0.07252 0.71790 0.59988
 H2375 H 0.04015 0.75053 0.67524
 H2376 H 0.00007 0.71042 0.67533
 C2377 C 0.53858 0.62846 0.21264
 C2378 C 0.55349 0.62099 0.22044
 C2379 C 0.56025 0.60527 0.21366
 C2380 C 0.55228 0.59706 0.19910
 C2381 C 0.53717 0.60466 0.19160
 C2382 C 0.53031 0.62038 0.19828
 C2383 C 0.53172 0.64525 0.21939
 C2384 C 0.51705 0.65291 0.21133
 C2385 C 0.51097 0.66920 0.21737
 C2386 C 0.51953 0.67790 0.23131
 C2387 C 0.53403 0.66979 0.23946
 C2388 C 0.54021 0.65352 0.23350
 C2389 C 0.51550 0.62832 0.19072
 C2390 C 0.50899 0.64432 0.19713
 C2391 C 0.56149 0.62954 0.23470
 C2392 C 0.55497 0.64553 0.24111
 H2393 H 0.50899 0.62221 0.17964
 H2394 H 0.49766 0.65009 0.19079
 H2395 H 0.57300 0.62391 0.24085
 H2396 H 0.56166 0.65179 0.25201
 H2397 H 0.57186 0.59961 0.21959
 H2398 H 0.53087 0.59852 0.18041
 H2399 H 0.49985 0.67527 0.21092
 H2400 H 0.54082 0.67631 0.25013
 C2401 C 0.03749 0.62864 0.71172
 C2402 C 0.02968 0.62108 0.69682
 C2403 C 0.03647 0.60536 0.69008
 C2404 C 0.05105 0.59724 0.69806
 C2405 C 0.05855 0.60493 0.71316
 C2406 C 0.05185 0.62064 0.72000
 C2407 C 0.03073 0.64544 0.71856
 C2408 C 0.03878 0.65319 0.73321
 C2409 C 0.03273 0.66948 0.73927
 C2410 C 0.01878 0.67809 0.73069
 C2411 C 0.01063 0.66990 0.71620
 C2412 C 0.01661 0.65362 0.71004
 C2413 C 0.05941 0.62867 0.73480
 C2414 C 0.05300 0.64468 0.74129
 C2415 C 0.01541 0.62955 0.68881
 C2416 C 0.00899 0.64555 0.69530
 H2417 H 0.07050 0.62263 0.74132
 H2418 H 0.05933 0.65052 0.75261
 H2419 H 0.00926 0.62385 0.67731
 H2420 H -0.00191 0.65174 0.68861
 H2421 H 0.03054 0.59963 0.67848
 H2422 H 0.06974 0.59885 0.71946
 H2423 H 0.03917 0.67561 0.75038
 H2424 H -0.00005 0.67636 0.70940
 C2425 C 0.03824 0.12189 0.03821
 C2426 C 0.05297 0.12951 0.03022
 C2427 C 0.05981 0.14518 0.03703
 C2428 C 0.05211 0.15327 0.05186
 C2429 C 0.03710 0.14548 0.05949
 C2430 C 0.03020 0.12979 0.05277
 C2431 C 0.03133 0.10512 0.03142
 C2432 C 0.01685 0.09729 0.03967
 C2433 C 0.01074 0.08101 0.03359
 C2434 C 0.01910 0.07250 0.01942
 C2435 C 0.03340 0.08080 0.01108
 C2436 C 0.03961 0.09704 0.01708
 C2437 C 0.01555 0.12169 0.06052
 C2438 C 0.00900 0.10571 0.05409
 C2439 C 0.06075 0.12115 0.01573
 C2440 C 0.05418 0.10519 0.00927
 H2441 H 0.00921 0.12766 0.07176
 H2442 H -0.00218 0.09981 0.06057
 H2443 H 0.07211 0.12690 0.00942
 H2444 H 0.06069 0.09908 -0.00180
 H2445 H 0.07129 0.15088 0.03086
 H2446 H 0.03088 0.15140 0.07084
 H2447 H -0.00022 0.07480 0.04018
 H2448 H 0.04003 0.07443 0.00022
 C2449 C 0.04066 0.61855 0.53982
 C2450 C 0.03223 0.62680 0.55398
 C2451 C 0.03918 0.64244 0.56073
 C2452 C 0.05451 0.64984 0.55347
 C2453 C 0.06274 0.64138 0.53920
 C2454 C 0.05589 0.62572 0.53236
 C2455 C 0.03351 0.60199 0.53279
 C2456 C 0.04206 0.59364 0.51877
 C2457 C 0.03539 0.57775 0.51233
 C2458 C 0.02032 0.57010 0.51989
 C2459 C 0.01184 0.57877 0.53388
 C2460 C 0.01840 0.59470 0.54039
 C2461 C 0.06404 0.61701 0.51829
 C2462 C 0.05725 0.60123 0.51162
 C2463 C 0.01708 0.61915 0.56118
 C2464 C 0.01029 0.60337 0.55451
 H2465 H 0.07582 0.62239 0.51243
 H2466 H 0.06401 0.59488 0.50083
 H2467 H 0.01045 0.62538 0.57212
 H2468 H -0.00136 0.59787 0.56052
 H2469 H 0.03270 0.64877 0.57171
 H2470 H 0.07453 0.64686 0.53347
 H2471 H 0.04216 0.57119 0.50167
 H2472 H 0.00032 0.57303 0.53991
 C2473 C 0.54011 0.11917 0.53930
 C2474 C 0.55521 0.12649 0.53172
 C2475 C 0.56195 0.14222 0.53850
 C2476 C 0.55374 0.15060 0.55282
 C2477 C 0.53853 0.14307 0.56019
 C2478 C 0.53168 0.12735 0.55350
 C2479 C 0.53311 0.10250 0.53238
 C2480 C 0.51815 0.09505 0.54011
 C2481 C 0.51176 0.07902 0.53371
 C2482 C 0.52026 0.07040 0.51969
 C2483 C 0.53518 0.07820 0.51200
 C2484 C 0.54168 0.09421 0.51833
 C2485 C 0.51667 0.11956 0.56082
 C2486 C 0.51002 0.10367 0.55425
 C2487 C 0.56337 0.11784 0.51761
 C2488 C 0.55672 0.10196 0.51104
 H2489 H 0.51005 0.12574 0.57179
 H2490 H 0.49848 0.09805 0.56035
 H2491 H 0.57504 0.12334 0.51166
 H2492 H 0.56348 0.09566 0.50022
 H2493 H 0.57366 0.14781 0.53270
 H2494 H 0.53206 0.14934 0.57121
 H2495 H 0.50034 0.07316 0.53983
 H2496 H 0.54195 0.07169 0.50132
 C2497 C 0.53865 0.62166 0.03758
 C2498 C 0.55346 0.62916 0.02962
 C2499 C 0.56031 0.64486 0.03636
 C2500 C 0.55251 0.65303 0.05104
 C2501 C 0.53750 0.64539 0.05870
 C2502 C 0.53055 0.62969 0.05206
 C2503 C 0.53169 0.60489 0.03086
 C2504 C 0.51712 0.59718 0.03907
 C2505 C 0.51096 0.58091 0.03304
 C2506 C 0.51934 0.57228 0.01896
 C2507 C 0.53374 0.58043 0.01066
 C2508 C 0.54001 0.59668 0.01661
 C2509 C 0.51584 0.62170 0.05978
 C2510 C 0.50924 0.60572 0.05340
 C2511 C 0.56129 0.62067 0.01523
 C2512 C 0.55468 0.60470 0.00885
 H2513 H 0.50947 0.62777 0.07095
 H2514 H 0.49799 0.59991 0.05985
 H2515 H 0.57272 0.62633 0.00896
 H2516 H 0.56122 0.59849 -0.00215
 H2517 H 0.57185 0.65056 0.03031
 H2518 H 0.53134 0.65148 0.06998
 H2519 H 0.49991 0.57481 0.03960
 H2520 H 0.54039 0.57396 -0.00012
 C2521 C 0.70933 0.13092 0.54000
 C2522 C 0.69431 0.12356 0.53233
 C2523 C 0.68746 0.10789 0.53916
 C2524 C 0.69547 0.09954 0.55368
 C2525 C 0.71066 0.10718 0.56111
 C2526 C 0.71759 0.12284 0.55435
 C2527 C 0.71644 0.14751 0.53300
 C2528 C 0.73135 0.15499 0.54081
 C2529 C 0.73786 0.17094 0.53432
 C2530 C 0.72952 0.17947 0.52014
 C2531 C 0.71466 0.17163 0.51238
 C2532 C 0.70805 0.15570 0.51878
 C2533 C 0.73255 0.13067 0.56175
 C2534 C 0.73931 0.14647 0.55511
 C2535 C 0.68632 0.13210 0.51805
 C2536 C 0.69307 0.14790 0.51140
 H2537 H 0.73905 0.12457 0.57284
 H2538 H 0.75080 0.15212 0.56128
 H2539 H 0.67470 0.12657 0.51202
 H2540 H 0.68644 0.15411 0.50045
 H2541 H 0.67581 0.10235 0.53318
 H2542 H 0.71709 0.10108 0.57224
 H2543 H 0.74922 0.17683 0.54051
 H2544 H 0.70801 0.17806 0.50156
 C2545 C 0.71020 0.63169 0.04015
 C2546 C 0.71770 0.62439 0.05532
 C2547 C 0.71080 0.60875 0.06214
 C2548 C 0.69643 0.60043 0.05395
 C2549 C 0.68913 0.60797 0.03869
 C2550 C 0.69595 0.62360 0.03175
 C2551 C 0.71728 0.64825 0.03304
 C2552 C 0.70964 0.65568 0.01800
 C2553 C 0.71620 0.67160 0.01148
 C2554 C 0.73028 0.68013 0.01994
 C2555 C 0.73787 0.67235 0.03494
 C2556 C 0.73140 0.65645 0.04156
 C2557 C 0.68871 0.63138 0.01667
 C2558 C 0.69543 0.64715 0.00991
 C2559 C 0.73187 0.63294 0.06344
 C2560 C 0.73859 0.64872 0.05669
 H2561 H 0.67770 0.62527 0.01007
 H2562 H 0.68940 0.65277 -0.00168
 H2563 H 0.73775 0.62745 0.07517
 H2564 H 0.74945 0.65495 0.06342
 H2565 H 0.71655 0.60315 0.07390
 H2566 H 0.67809 0.60176 0.03224
 H2567 H 0.71014 0.67745 0.00001
 H2568 H 0.74860 0.67880 0.04169
 C2569 C 0.21263 0.62251 0.71197
 C2570 C 0.22052 0.63008 0.69713
 C2571 C 0.21376 0.64580 0.69036
 C2572 C 0.19912 0.65390 0.69826
 C2573 C 0.19155 0.64619 0.71330
 C2574 C 0.19821 0.63048 0.72017
 C2575 C 0.21935 0.60569 0.71882
 C2576 C 0.21119 0.59791 0.73340
 C2577 C 0.21720 0.58160 0.73945
 C2578 C 0.23120 0.57300 0.73094
 C2579 C 0.23945 0.58124 0.71654
 C2580 C 0.23352 0.59753 0.71038
 C2581 C 0.19056 0.62242 0.73490
 C2582 C 0.19693 0.60640 0.74140
 C2583 C 0.23485 0.62164 0.68920
 C2584 C 0.24123 0.60563 0.69570
 H2585 H 0.17943 0.62845 0.74136
 H2586 H 0.19052 0.60053 0.75266
 H2587 H 0.24107 0.62736 0.67775
 H2588 H 0.25218 0.59946 0.68908
 H2589 H 0.21975 0.65155 0.67880
 H2590 H 0.18030 0.65224 0.71954
 H2591 H 0.21068 0.57544 0.75050
 H2592 H 0.25017 0.57479 0.70979
 C2593 C 0.21253 0.12185 0.21110
 C2594 C 0.22030 0.12945 0.19622
 C2595 C 0.21344 0.14513 0.18947
 C2596 C 0.19876 0.15324 0.19739
 C2597 C 0.19135 0.14546 0.21254
 C2598 C 0.19813 0.12977 0.21938
 C2599 C 0.21938 0.10508 0.21794
 C2600 C 0.21135 0.09728 0.23259
 C2601 C 0.21748 0.08102 0.23863
 C2602 C 0.23147 0.07246 0.23005
 C2603 C 0.23959 0.08071 0.21559
 C2604 C 0.23354 0.09697 0.20944
 C2605 C 0.19061 0.12170 0.23417
 C2606 C 0.19710 0.10572 0.24066
 C2607 C 0.23463 0.12106 0.18822
 C2608 C 0.24113 0.10509 0.19471
 H2609 H 0.17950 0.12768 0.24069
 H2610 H 0.19079 0.09985 0.25197
 H2611 H 0.24076 0.12679 0.17673
 H2612 H 0.25207 0.09896 0.18803
 H2613 H 0.21944 0.15081 0.17787
 H2614 H 0.18012 0.15139 0.21894
 H2615 H 0.21105 0.07485 0.24973
 H2616 H 0.25030 0.07430 0.20879
 C2617 C 0.71226 1.12206 0.71212
 C2618 C 0.72021 1.12972 0.69735
 C2619 C 0.71347 1.14547 0.69065
 C2620 C 0.69881 1.15352 0.69854
 C2621 C 0.69118 1.14574 0.71352
 C2622 C 0.69782 1.12999 0.72032
 C2623 C 0.71896 1.10521 0.71890
 C2624 C 0.71076 1.09735 0.73342
 C2625 C 0.71676 1.08102 0.73941
 C2626 C 0.73079 1.07248 0.73090
 C2627 C 0.73907 1.08078 0.71655
 C2628 C 0.73316 1.09709 0.71046
 C2629 C 0.69012 1.12185 0.73498
 C2630 C 0.69647 1.10580 0.74141
 C2631 C 0.73456 1.12131 0.68941
 C2632 C 0.74092 1.10527 0.69585
 H2633 H 0.67897 1.12785 0.74144
 H2634 H 0.69003 1.09988 0.75263
 H2635 H 0.74081 1.12710 0.67802
 H2636 H 0.75189 1.09914 0.68923
 H2637 H 0.71950 1.15128 0.67914
 H2638 H 0.67991 1.15176 0.71975
 H2639 H 0.71022 1.07481 0.75041
 H2640 H 0.74983 1.07437 0.70982
 C2641 C 0.71026 0.61846 0.20911
 C2642 C 0.71762 0.62568 0.19383
 C2643 C 0.71072 0.64132 0.18701
 C2644 C 0.69648 0.64971 0.19532
 C2645 C 0.68931 0.64226 0.21069
 C2646 C 0.69613 0.62663 0.21762
 C2647 C 0.71735 0.60191 0.21622
 C2648 C 0.70984 0.59457 0.23137
 C2649 C 0.71640 0.57865 0.23789
 C2650 C 0.73035 0.57003 0.22932
 C2651 C 0.73781 0.57773 0.21420
 C2652 C 0.73133 0.59362 0.20758
 C2653 C 0.68903 0.61894 0.23282
 C2654 C 0.69575 0.60317 0.23957
 C2655 C 0.73166 0.61703 0.18559
 C2656 C 0.73839 0.60127 0.19234
 H2657 H 0.67812 0.62511 0.23951
 H2658 H 0.68982 0.59763 0.25126
 H2659 H 0.73745 0.62246 0.17377
 H2660 H 0.74915 0.59497 0.18552
 H2661 H 0.71637 0.64684 0.17518
 H2662 H 0.67836 0.64853 0.21724
 H2663 H 0.71044 0.57287 0.24945
 H2664 H 0.74843 0.57121 0.20736
 C2665 C 0.53749 0.12838 0.71112
 C2666 C 0.52976 0.12091 0.69613
 C2667 C 0.53664 0.10527 0.68928
 C2668 C 0.55123 0.09714 0.69725
 C2669 C 0.55865 0.10475 0.71243
 C2670 C 0.55186 0.12038 0.71937
 C2671 C 0.53063 0.14509 0.71807
 C2672 C 0.53861 0.15276 0.73281
 C2673 C 0.53246 0.16897 0.73898
 C2674 C 0.51850 0.17760 0.73043
 C2675 C 0.51043 0.16948 0.71585
 C2676 C 0.51649 0.15328 0.70958
 C2677 C 0.55934 0.12833 0.73426
 C2678 C 0.55284 0.14425 0.74086
 C2679 C 0.51548 0.12938 0.68814
 C2680 C 0.50896 0.14529 0.69475
 H2681 H 0.57044 0.12228 0.74076
 H2682 H 0.55911 0.15003 0.75224
 H2683 H 0.50939 0.12374 0.67658
 H2684 H 0.49805 0.15149 0.68807
 H2685 H 0.53077 0.09960 0.67762
 H2686 H 0.56985 0.09867 0.71872
 H2687 H 0.53885 0.17504 0.75016
 H2688 H 0.49974 0.17595 0.70907
 C2689 C 1.03754 0.12705 0.21291
 C2690 C 1.05212 0.11928 0.22104
 C2691 C 1.05870 0.10342 0.21441
 C2692 C 1.05089 0.09538 0.19967
 C2693 C 1.03610 0.10328 0.19185
 C2694 C 1.02942 0.11914 0.19838
 C2695 C 1.03090 0.14400 0.21949
 C2696 C 1.01657 0.15197 0.21111
 C2697 C 1.01070 0.16838 0.21702
 C2698 C 1.01914 0.17691 0.23114
 C2699 C 1.03330 0.16851 0.23959
 C2700 C 1.03926 0.15210 0.23378
 C2701 C 1.01495 0.12739 0.19049
 C2702 C 1.00864 0.14353 0.19674
 C2703 C 1.05999 0.12767 0.23547
 C2704 C 1.05368 0.14381 0.24172
 H2705 H 1.00855 0.12140 0.17928
 H2706 H 0.99757 0.14953 0.19016
 H2707 H 1.07123 0.12181 0.24187
 H2708 H 1.06025 0.14993 0.25276
 H2709 H 1.07006 0.09753 0.22058
 H2710 H 1.02993 0.09728 0.18052
 H2711 H 0.99984 0.17466 0.21033
 H2712 H 1.03997 0.17489 0.25042
 C2713 C 0.20930 0.63170 0.53954
 C2714 C 0.21787 0.62338 0.55358
 C2715 C 0.21094 0.60773 0.56036
 C2716 C 0.19552 0.60040 0.55323
 C2717 C 0.18717 0.60893 0.53907
 C2718 C 0.19398 0.62459 0.53222
 C2719 C 0.21641 0.64827 0.53250
 C2720 C 0.20772 0.65669 0.51861
 C2721 C 0.21434 0.67260 0.51217
 C2722 C 0.22950 0.68019 0.51959
 C2723 C 0.23813 0.67144 0.53345
 C2724 C 0.23162 0.65550 0.53996
 C2725 C 0.18568 0.63337 0.51827
 C2726 C 0.19243 0.64916 0.51159
 C2727 C 0.23312 0.63096 0.56064
 C2728 C 0.23987 0.64675 0.55395
 H2729 H 0.17383 0.62804 0.51252
 H2730 H 0.18557 0.65557 0.50090
 H2731 H 0.23985 0.62468 0.57148
 H2732 H 0.25160 0.65221 0.55985
 H2733 H 0.21752 0.60135 0.57125
 H2734 H 0.17529 0.60350 0.53346
 H2735 H 0.20745 0.67922 0.50161
 H2736 H 0.24973 0.67714 0.53936
 C2737 C 0.21089 0.12977 1.03868
 C2738 C 0.19627 0.12203 1.03059
 C2739 C 0.18977 0.10609 1.03713
 C2740 C 0.19774 0.09792 1.05172
 C2741 C 0.21251 0.10585 1.05956
 C2742 C 0.21911 0.12179 1.05311
 C2743 C 0.21760 0.14668 1.03204
 C2744 C 0.23207 0.15454 1.04027
 C2745 C 0.23818 0.17078 1.03413
 C2746 C 0.22988 0.17922 1.01989
 C2747 C 0.21544 0.17101 1.01171
 C2748 C 0.20923 0.15478 1.01775
 C2749 C 0.23364 0.12999 1.06094
 C2750 C 0.24001 0.14610 1.05463
 C2751 C 0.18832 0.13048 1.01625
 C2752 C 0.19469 0.14658 1.00994
 H2753 H 0.24009 0.12397 1.07209
 H2754 H 0.25118 0.15204 1.06112
 H2755 H 0.17702 0.12465 1.00990
 H2756 H 0.18810 0.15271 0.99892
 H2757 H 0.17840 0.10019 1.03096
 H2758 H 0.21879 0.09976 1.07078
 H2759 H 0.24923 0.17694 1.04064
 H2760 H 0.20883 0.17736 1.00082
 C2761 C 0.21116 0.71180 0.61957
 C2762 C 0.19658 0.71987 0.62739
 C2763 C 0.19016 0.71332 0.64336
 C2764 C 0.19816 0.69875 0.65151
 C2765 C 0.21287 0.69091 0.64349
 C2766 C 0.21940 0.69736 0.62752
 C2767 C 0.21780 0.71846 0.60263
 C2768 C 0.23225 0.71024 0.59471
 C2769 C 0.23831 0.71641 0.57845
 C2770 C 0.22999 0.73066 0.57005
 C2771 C 0.21559 0.73882 0.57831
 C2772 C 0.20943 0.73275 0.59458
 C2773 C 0.23389 0.68956 0.61924
 C2774 C 0.24020 0.69588 0.60311
 C2775 C 0.18862 0.73422 0.61898
 C2776 C 0.19492 0.74054 0.60285
 H2777 H 0.24036 0.67841 0.62523
 H2778 H 0.25134 0.68942 0.59711
 H2779 H 0.17735 0.74055 0.62487
 H2780 H 0.18833 0.75156 0.59675
 H2781 H 0.17883 0.71949 0.64933
 H2782 H 0.21917 0.67970 0.64956
 H2783 H 0.24933 0.70992 0.57224
 H2784 H 0.20898 0.74972 0.57200
 C2785 C 0.21093 0.21055 1.12017
 C2786 C 0.21907 0.19599 1.12796
 C2787 C 0.21252 0.18940 1.14387
 C2788 C 0.19781 0.19721 1.15203
 C2789 C 0.18994 0.21197 1.14399
 C2790 C 0.19642 0.21863 1.12808
 C2791 C 0.21760 0.21733 1.10329
 C2792 C 0.20931 0.23176 1.09538
 C2793 C 0.21549 0.23794 1.07916
 C2794 C 0.22982 0.22977 1.07080
 C2795 C 0.23806 0.21539 1.07906
 C2796 C 0.23198 0.20911 1.09527
 C2797 C 0.18854 0.23312 1.11982
 C2798 C 0.19487 0.23956 1.10374
 C2799 C 0.23351 0.18818 1.11959
 C2800 C 0.23985 0.19462 1.10352
 H2801 H 0.17732 0.23947 1.12578
 H2802 H 0.18834 0.25069 1.09777
 H2803 H 0.23991 0.17692 1.12546
 H2804 H 0.25095 0.18814 1.09746
 H2805 H 0.21884 0.17809 1.14973
 H2806 H 0.17866 0.21824 1.14994
 H2807 H 0.20894 0.24894 1.07296
 H2808 H 0.24903 0.20888 1.07279
 C2809 C 0.71007 0.54073 0.13102
 C2810 C 0.69594 0.53227 0.12277
 C2811 C 0.68918 0.53923 0.10713
 C2812 C 0.69641 0.55460 0.09973
 C2813 C 0.71065 0.56285 0.10819
 C2814 C 0.71750 0.55599 0.12385
 C2815 C 0.71709 0.53357 0.14760
 C2816 C 0.73108 0.54215 0.15595
 C2817 C 0.73751 0.53548 0.17185
 C2818 C 0.72999 0.52038 0.17949
 C2819 C 0.71603 0.51187 0.17082
 C2820 C 0.70952 0.51843 0.15488
 C2821 C 0.73154 0.56417 0.13256
 C2822 C 0.73820 0.55738 0.14835
 C2823 C 0.68878 0.51708 0.13042
 C2824 C 0.69544 0.51029 0.14621
 H2825 H 0.73737 0.57597 0.12718
 H2826 H 0.74897 0.56415 0.15471
 H2827 H 0.67787 0.51044 0.12418
 H2828 H 0.68947 0.49862 0.15171
 H2829 H 0.67823 0.53273 0.10080
 H2830 H 0.71634 0.57467 0.10270
 H2831 H 0.74815 0.54228 0.17842
 H2832 H 0.71004 0.50032 0.17656
 C2833 C 0.71095 1.03892 0.62875
 C2834 C 0.71899 1.05360 0.62105
 C2835 C 0.71190 1.06072 0.60562
 C2836 C 0.69678 1.05332 0.59792
 C2837 C 0.68904 1.03842 0.60574
 C2838 C 0.69604 1.03122 0.62118
 C2839 C 0.71804 1.03172 0.64527
 C2840 C 0.70973 1.01730 0.65320
 C2841 C 0.71609 1.01096 0.66928
 C2842 C 0.73056 1.01903 0.67753
 C2843 C 0.73896 1.03324 0.66913
 C2844 C 0.73270 1.03968 0.65306
 C2845 C 0.68824 1.01663 0.62935
 C2846 C 0.69497 1.00980 0.64510
 C2847 C 0.73381 1.06104 0.62909
 C2848 C 0.74055 1.05420 0.64483
 H2849 H 0.67674 1.01056 0.62363
 H2850 H 0.68844 0.99868 0.65109
 H2851 H 0.74016 1.07237 0.62327
 H2852 H 0.75187 1.06047 0.65071
 H2853 H 0.71802 1.07216 0.59977
 H2854 H 0.67743 1.03257 0.60000
 H2855 H 0.70943 1.00008 0.67559
 H2856 H 0.75005 1.03964 0.67531
 C2857 C 0.53844 0.21159 0.62840
 C2858 C 0.53057 0.19681 0.62072
 C2859 C 0.53769 0.18983 0.60525
 C2860 C 0.55267 0.19745 0.59750
 C2861 C 0.56023 0.21244 0.60530
 C2862 C 0.55321 0.21952 0.62077
 C2863 C 0.53134 0.21865 0.64498
 C2864 C 0.53946 0.23318 0.65288
 C2865 C 0.53310 0.23940 0.66900
 C2866 C 0.51880 0.23110 0.67732
 C2867 C 0.51057 0.21677 0.66895
 C2868 C 0.51683 0.21046 0.65283
 C2869 C 0.56082 0.23421 0.62894
 C2870 C 0.55407 0.24092 0.64473
 C2871 C 0.51590 0.18913 0.62883
 C2872 C 0.50916 0.19583 0.64462
 H2873 H 0.57221 0.24046 0.62317
 H2874 H 0.56046 0.25213 0.65070
 H2875 H 0.50970 0.17773 0.62302
 H2876 H 0.49796 0.18939 0.65055
 H2877 H 0.53171 0.17831 0.59942
 H2878 H 0.57174 0.21846 0.59951
 H2879 H 0.53962 0.25038 0.67528
 H2880 H 0.49961 0.21020 0.67518
 C2881 C 1.03870 0.21167 0.12796
 C2882 C 1.05351 0.21950 0.12034
 C2883 C 1.06023 0.21266 0.10462
 C2884 C 1.05234 0.19794 0.09650
 C2885 C 1.03727 0.19046 0.10431
 C2886 C 1.03047 0.19723 0.12003
 C2887 C 1.03190 0.21850 0.14476
 C2888 C 1.01731 0.21042 0.15258
 C2889 C 1.01128 0.21654 0.16886
 C2890 C 1.01982 0.23057 0.17742
 C2891 C 1.03423 0.23874 0.16917
 C2892 C 1.04036 0.23271 0.15289
 C2893 C 1.01574 0.18965 0.12812
 C2894 C 1.00928 0.19613 0.14413
 C2895 C 1.06148 0.23386 0.12874
 C2896 C 1.05502 0.24035 0.14474
 H2897 H 1.00925 0.17850 0.12213
 H2898 H 0.99801 0.18978 0.15002
 H2899 H 1.07291 0.24004 0.12299
 H2900 H 1.06167 0.25132 0.15088
 H2901 H 1.07177 0.21870 0.09891
 H2902 H 1.03090 0.17921 0.09837
 H2903 H 1.00022 0.21008 0.17503
 H2904 H 1.04099 0.24949 0.17559
 C2905 C 0.62152 0.21243 0.71206
 C2906 C 0.62919 0.22049 0.69736
 C2907 C 0.64494 0.21381 0.69065
 C2908 C 0.65300 0.19910 0.69848
 C2909 C 0.64520 0.19136 0.71340
 C2910 C 0.62944 0.19793 0.72019
 C2911 C 0.60467 0.21908 0.71884
 C2912 C 0.59680 0.21077 0.73330
 C2913 C 0.58048 0.21674 0.73930
 C2914 C 0.57196 0.23085 0.73086
 C2915 C 0.58027 0.23923 0.71658
 C2916 C 0.59657 0.23335 0.71048
 C2917 C 0.62129 0.19012 0.73479
 C2918 C 0.60524 0.19642 0.74122
 C2919 C 0.62080 0.23490 0.68949
 C2920 C 0.60476 0.24121 0.69593
 H2921 H 0.62728 0.17893 0.74119
 H2922 H 0.59931 0.18990 0.75239
 H2923 H 0.62659 0.24124 0.67814
 H2924 H 0.59864 0.25223 0.68936
 H2925 H 0.65077 0.21993 0.67919
 H2926 H 0.65122 0.18005 0.71958
 H2927 H 0.57426 0.21012 0.75025
 H2928 H 0.57389 0.25004 0.70990
 C2929 C 1.12211 0.21178 0.21179
 C2930 C 1.12996 0.19719 0.21984
 C2931 C 1.14563 0.19049 0.21295
 C2932 C 1.15342 0.19821 0.19801
 C2933 C 1.14544 0.21301 0.19026
 C2934 C 1.12977 0.21980 0.19707
 C2935 C 1.10536 0.21855 0.21867
 C2936 C 1.09733 0.23291 0.21038
 C2937 C 1.08109 0.23890 0.21657
 C2938 C 1.07278 0.23054 0.23087
 C2939 C 1.08124 0.21636 0.23923
 C2940 C 1.09749 0.21028 0.23315
 C2941 C 1.12146 0.23430 0.18927
 C2942 C 1.10551 0.24073 0.19581
 C2943 C 1.12181 0.18941 0.23446
 C2944 C 1.10585 0.19584 0.24100
 H2945 H 1.12725 0.24062 0.17791
 H2946 H 1.09944 0.25182 0.18929
 H2947 H 1.12774 0.17815 0.24081
 H2948 H 1.09992 0.18934 0.25218
 H2949 H 1.15159 0.17912 0.21906
 H2950 H 1.15125 0.21911 0.17879
 H2951 H 1.07475 0.24977 0.20994
 H2952 H 1.07501 0.20975 0.25020
 C2953 C 0.13151 0.70939 0.53955
 C2954 C 0.12448 0.69395 0.53236
 C2955 C 0.10884 0.68714 0.53925
 C2956 C 0.10027 0.69561 0.55332
 C2957 C 0.10754 0.71114 0.56032
 C2958 C 0.12315 0.71806 0.55350
 C2959 C 0.14804 0.71651 0.53247
 C2960 C 0.15518 0.73183 0.53980
 C2961 C 0.17107 0.73837 0.53325
 C2962 C 0.17986 0.72965 0.51947
 C2963 C 0.17237 0.71436 0.51218
 C2964 C 0.15651 0.70771 0.51867
 C2965 C 0.13065 0.73343 0.56043
 C2966 C 0.14640 0.74019 0.55371
 C2967 C 0.13330 0.68555 0.51850
 C2968 C 0.14905 0.69231 0.51179
 H2969 H 0.12434 0.74024 0.57120
 H2970 H 0.15179 0.75201 0.55950
 H2971 H 0.12802 0.67361 0.51286
 H2972 H 0.15549 0.68537 0.50117
 H2973 H 0.10346 0.67518 0.53374
 H2974 H 0.10113 0.71781 0.57113
 H2975 H 0.17670 0.75007 0.53906
 H2976 H 0.17903 0.70741 0.50171
 C2977 C 0.13005 0.21062 1.03894
 C2978 C 0.12233 0.19592 1.03095
 C2979 C 0.10643 0.18943 1.03754
 C2980 C 0.09828 0.19748 1.05210
 C2981 C 0.10620 0.21232 1.05985
 C2982 C 0.12209 0.21891 1.05335
 C2983 C 0.14691 0.21733 1.03224
 C2984 C 0.15474 0.23189 1.04038
 C2985 C 0.17092 0.23802 1.03418
 C2986 C 0.17935 0.22965 1.01996
 C2987 C 0.17118 0.21513 1.01187
 C2988 C 0.15499 0.20890 1.01798
 C2989 C 0.13027 0.23352 1.06108
 C2990 C 0.14632 0.23990 1.05471
 C2991 C 0.13076 0.18790 1.01663
 C2992 C 0.14682 0.19428 1.01027
 H2993 H 0.12426 0.24003 1.07221
 H2994 H 0.15224 0.25113 1.06113
 H2995 H 0.12495 0.17654 1.01035
 H2996 H 0.15294 0.18764 0.99927
 H2997 H 0.10054 0.17801 1.03144
 H2998 H 0.10012 0.21866 1.07104
 H2999 H 0.17706 0.24913 1.04061
 H3000 H 0.17752 0.20847 1.00101
 C3001 C 0.63067 0.53898 0.21120
 C3002 C 0.62296 0.55362 0.21929
 C3003 C 0.60705 0.56013 0.21276
 C3004 C 0.59886 0.55215 0.19819
 C3005 C 0.60677 0.53737 0.19033
 C3006 C 0.62268 0.53077 0.19676
 C3007 C 0.64753 0.53224 0.21784
 C3008 C 0.65534 0.51773 0.20961
 C3009 C 0.67153 0.51157 0.21576
 C3010 C 0.67998 0.51985 0.23002
 C3011 C 0.67182 0.53432 0.23821
 C3012 C 0.65563 0.54058 0.23214
 C3013 C 0.63084 0.51621 0.18893
 C3014 C 0.64691 0.50981 0.19524
 C3015 C 0.63142 0.56156 0.23364
 C3016 C 0.64748 0.55516 0.23995
 H3017 H 0.62482 0.50976 0.17777
 H3018 H 0.65281 0.49862 0.18875
 H3019 H 0.62562 0.57288 0.24000
 H3020 H 0.65361 0.56174 0.25098
 H3021 H 0.60116 0.57150 0.21895
 H3022 H 0.60067 0.53108 0.17912
 H3023 H 0.67765 0.50050 0.20925
 H3024 H 0.67818 0.54091 0.24911
 C3025 C 0.62828 1.03794 0.71124
 C3026 C 0.62029 1.05239 0.71939
 C3027 C 0.60466 1.05911 0.71241
 C3028 C 0.59705 1.05154 0.69730
 C3029 C 0.60519 1.03690 0.68944
 C3030 C 0.62082 1.03008 0.69633
 C3031 C 0.64498 1.03114 0.71824
 C3032 C 0.65316 1.01692 0.70986
 C3033 C 0.66933 1.01090 0.71618
 C3034 C 0.67745 1.01909 0.73069
 C3035 C 0.66884 1.03314 0.73913
 C3036 C 0.65265 1.03925 0.73292
 C3037 C 0.62928 1.01572 0.68844
 C3038 C 0.64518 1.00926 0.69509
 C3039 C 0.62823 1.06001 0.73421
 C3040 C 0.64414 1.05355 0.74085
 H3041 H 0.62365 1.00953 0.67693
 H3042 H 0.65137 0.99828 0.68850
 H3043 H 0.62219 1.07116 0.74063
 H3044 H 0.64992 1.05993 0.75219
 H3045 H 0.59858 1.07036 0.71862
 H3046 H 0.59952 1.03092 0.67783
 H3047 H 0.67578 1.00014 0.70949
 H3048 H 0.67491 1.03962 0.75025
 C3049 C 0.87202 0.46142 0.28771
 C3050 C 0.87996 0.46955 0.30222
 C3051 C 0.89563 0.46265 0.30893
 C3052 C 0.90332 0.44764 0.30129
 C3053 C 0.89524 0.43981 0.28657
 C3054 C 0.87958 0.44662 0.27977
 C3055 C 0.85527 0.46832 0.28092
 C3056 C 0.84715 0.45997 0.26665
 C3057 C 0.83093 0.46619 0.26064
 C3058 C 0.82273 0.48058 0.26890
 C3059 C 0.83128 0.48901 0.28302
 C3060 C 0.84751 0.48289 0.28911
 C3061 C 0.87117 0.43875 0.26535
 C3062 C 0.85523 0.44531 0.25890
 C3063 C 0.87192 0.48426 0.30991
 C3064 C 0.85597 0.49081 0.30347
 H3065 H 0.87687 0.42733 0.25909
 H3066 H 0.84908 0.43874 0.24788
 H3067 H 0.87792 0.49066 0.32111
 H3068 H 0.85012 0.50206 0.30991
 H3069 H 0.90166 0.46883 0.32024
 H3070 H 0.90098 0.42828 0.28054
 H3071 H 0.82452 0.45951 0.24982
 H3072 H 0.82514 0.50005 0.28955
 C3073 C 0.86565 0.95701 0.79397
 C3074 C 0.87338 0.94231 0.78601
 C3075 C 0.88840 0.93489 0.79357
 C3076 C 0.89571 0.94205 0.80901
 C3077 C 0.88771 0.95680 0.81683
 C3078 C 0.87267 0.96431 0.80938
 C3079 C 0.84982 0.96483 0.78609
 C3080 C 0.84197 0.97942 0.79416
 C3081 C 0.82675 0.98661 0.78679
 C3082 C 0.81929 0.97925 0.77150
 C3083 C 0.82748 0.96470 0.76352
 C3084 C 0.84271 0.95743 0.77078
 C3085 C 0.86446 0.97892 0.81706
 C3086 C 0.84935 0.98633 0.80959
 C3087 C 0.86590 0.93529 0.77067
 C3088 C 0.85081 0.94271 0.76319
 H3089 H 0.86971 0.98464 0.82898
 H3090 H 0.84337 0.99753 0.81599
 H3091 H 0.87172 0.92393 0.76442
 H3092 H 0.84540 0.93683 0.75141
 H3093 H 0.89436 0.92355 0.78740
 H3094 H 0.89313 0.96243 0.82873
 H3095 H 0.82051 0.99767 0.79321
 H3096 H 0.82183 0.95879 0.75186
 C3097 C 0.38157 0.29125 0.79055
 C3098 C 0.37483 0.30695 0.78364
 C3099 C 0.35927 0.31384 0.79057
 C3100 C 0.35046 0.30519 0.80439
 C3101 C 0.35744 0.28943 0.81113
 C3102 C 0.37299 0.28241 0.80426
 C3103 C 0.39801 0.28402 0.78338
 C3104 C 0.40485 0.26842 0.79041
 C3105 C 0.42066 0.26176 0.78376
 C3106 C 0.42963 0.27062 0.77020
 C3107 C 0.42243 0.28619 0.76323
 C3108 C 0.40667 0.29297 0.76981
 C3109 C 0.38020 0.26679 0.81089
 C3110 C 0.39586 0.25991 0.80409
 C3111 C 0.38387 0.31551 0.77003
 C3112 C 0.39954 0.30865 0.76324
 H3113 H 0.37371 0.25985 0.82148
 H3114 H 0.40102 0.24789 0.80965
 H3115 H 0.37883 0.32765 0.76462
 H3116 H 0.40615 0.31571 0.75281
 H3117 H 0.35411 0.32599 0.78528
 H3118 H 0.35084 0.28262 0.82174
 H3119 H 0.42607 0.24985 0.78933
 H3120 H 0.42924 0.29328 0.75293
 C3121 C 0.88063 0.28836 0.28863
 C3122 C 0.87273 0.28027 0.30319
 C3123 C 0.85680 0.28687 0.30958
 C3124 C 0.84879 0.30151 0.30157
 C3125 C 0.85690 0.30937 0.28688
 C3126 C 0.87283 0.30287 0.28039
 C3127 C 0.89752 0.28163 0.28202
 C3128 C 0.90552 0.28985 0.26760
 C3129 C 0.92172 0.28361 0.26155
 C3130 C 0.92998 0.26928 0.26987
 C3131 C 0.92164 0.26112 0.28427
 C3132 C 0.90544 0.26727 0.29040
 C3133 C 0.88119 0.31068 0.26592
 C3134 C 0.89727 0.30429 0.25964
 C3135 C 0.88101 0.26585 0.31117
 C3136 C 0.89709 0.25947 0.30489
 H3137 H 0.87531 0.32189 0.25944
 H3138 H 0.90333 0.31077 0.24851
 H3139 H 0.87505 0.25951 0.32242
 H3140 H 0.90307 0.24839 0.31149
 H3141 H 0.85077 0.28068 0.32088
 H3142 H 0.85093 0.32063 0.28057
 H3143 H 0.92798 0.29010 0.25054
 H3144 H 0.92785 0.25016 0.29088
 C3145 C 0.37179 0.78825 0.46174
 C3146 C 0.37967 0.80275 0.46993
 C3147 C 0.39539 0.80945 0.46313
 C3148 C 0.40319 0.80183 0.44816
 C3149 C 0.39517 0.78712 0.44026
 C3150 C 0.37945 0.78032 0.44697
 C3151 C 0.35500 0.78146 0.46854
 C3152 C 0.34693 0.76720 0.46011
 C3153 C 0.33066 0.76120 0.46623
 C3154 C 0.32236 0.76945 0.48058
 C3155 C 0.33086 0.78354 0.48908
 C3156 C 0.34714 0.78963 0.48307
 C3157 C 0.37110 0.76591 0.43904
 C3158 C 0.35511 0.75947 0.44549
 C3159 C 0.37153 0.81042 0.48460
 C3160 C 0.35554 0.80398 0.49105
 H3161 H 0.37688 0.75967 0.42764
 H3162 H 0.34901 0.74846 0.43887
 H3163 H 0.37749 0.82161 0.49105
 H3164 H 0.34961 0.81041 0.50227
 H3165 H 0.40138 0.82075 0.46936
 H3166 H 0.40098 0.78110 0.42876
 H3167 H 0.32429 0.75040 0.45950
 H3168 H 0.32465 0.79007 0.50009
 C3169 C 0.37003 0.28989 0.96056
 C3170 C 0.37766 0.28203 0.94574
 C3171 C 0.39290 0.28939 0.93852
 C3172 C 0.40046 0.30456 0.94596
 C3173 C 0.39270 0.31212 0.96098
 C3174 C 0.37746 0.30487 0.96829
 C3175 C 0.35372 0.28250 0.96790
 C3176 C 0.34587 0.29060 0.98248
 C3177 C 0.33000 0.28396 0.98897
 C3178 C 0.32187 0.26942 0.98089
 C3179 C 0.33018 0.26123 0.96651
 C3180 C 0.34606 0.26777 0.95992
 C3181 C 0.36936 0.31246 0.98302
 C3182 C 0.35382 0.30545 0.98999
 C3183 C 0.36974 0.26714 0.93827
 C3184 C 0.35421 0.26013 0.94523
 H3185 H 0.37497 0.32402 0.98912
 H3186 H 0.34788 0.31183 1.00123
 H3187 H 0.37551 0.26095 0.92684
 H3188 H 0.34842 0.24876 0.93895
 H3189 H 0.39869 0.28340 0.92698
 H3190 H 0.39835 0.32378 0.96686
 H3191 H 0.32376 0.29047 0.99998
 H3192 H 0.32408 0.25009 0.96009
 C3193 C 0.78681 0.46305 0.37262
 C3194 C 0.80118 0.47134 0.38060
 C3195 C 0.80755 0.46487 0.39663
 C3196 C 0.79972 0.45012 0.40463
 C3197 C 0.78513 0.44214 0.39651
 C3198 C 0.77866 0.44852 0.38049
 C3199 C 0.78041 0.46947 0.35550
 C3200 C 0.76627 0.46094 0.34733
 C3201 C 0.76061 0.46673 0.33079
 C3202 C 0.76906 0.48087 0.32233
 C3203 C 0.78303 0.48946 0.33092
 C3204 C 0.78879 0.48377 0.34746
 C3205 C 0.76440 0.44047 0.37202
 C3206 C 0.75831 0.44658 0.35572
 C3207 C 0.80909 0.48577 0.37226
 C3208 C 0.80300 0.49188 0.35596
 H3209 H 0.75799 0.42926 0.37797
 H3210 H 0.74739 0.43988 0.34956
 H3211 H 0.82018 0.49230 0.37829
 H3212 H 0.80958 0.50293 0.34989
 H3213 H 0.81877 0.47117 0.40269
 H3214 H 0.77895 0.43080 0.40249
 H3215 H 0.74989 0.45995 0.32436
 H3216 H 0.78971 0.50032 0.32459
 C3217 C 0.79201 0.95905 0.86778
 C3218 C 0.80767 0.96606 0.87448
 C3219 C 0.81478 0.95903 0.88995
 C3220 C 0.80639 0.94503 0.89869
 C3221 C 0.79067 0.93818 0.89173
 C3222 C 0.78344 0.94514 0.87628
 C3223 C 0.78453 0.96632 0.85146
 C3224 C 0.76897 0.95919 0.84465
 C3225 C 0.76208 0.96594 0.82895
 C3226 C 0.77066 0.97972 0.82005
 C3227 C 0.78619 0.98680 0.82722
 C3228 C 0.79320 0.98011 0.84286
 C3229 C 0.76785 0.93839 0.86911
 C3230 C 0.76075 0.94529 0.85356
 C3231 C 0.81596 0.97988 0.86551
 C3232 C 0.80886 0.98678 0.84995
 H3233 H 0.76112 0.92764 0.87554
 H3234 H 0.74876 0.93964 0.84842
 H3235 H 0.82807 0.98537 0.87051
 H3236 H 0.81572 0.99737 0.84339
 H3237 H 0.82689 0.96441 0.89509
 H3238 H 0.78405 0.92742 0.89827
 H3239 H 0.75021 0.96027 0.82355
 H3240 H 0.79307 0.99726 0.82045
 C3241 C 0.28929 0.78992 0.37856
 C3242 C 0.28155 0.80482 0.37099
 C3243 C 0.28879 0.81191 0.35561
 C3244 C 0.30375 0.80429 0.34785
 C3245 C 0.31119 0.78919 0.35555
 C3246 C 0.30405 0.78199 0.37093
 C3247 C 0.28205 0.78272 0.39503
 C3248 C 0.29005 0.76807 0.40282
 C3249 C 0.28356 0.76171 0.41884
 C3250 C 0.26927 0.76998 0.42717
 C3251 C 0.26116 0.78444 0.41891
 C3252 C 0.26756 0.79090 0.40289
 C3253 C 0.31153 0.76719 0.37898
 C3254 C 0.30466 0.76035 0.39466
 C3255 C 0.26689 0.81248 0.37910
 C3256 C 0.26002 0.80565 0.39479
 H3257 H 0.32291 0.76094 0.37321
 H3258 H 0.31095 0.74904 0.40055
 H3259 H 0.26079 0.82398 0.37338
 H3260 H 0.24883 0.81209 0.40073
 H3261 H 0.28290 0.82351 0.34986
 H3262 H 0.32268 0.78315 0.34976
 H3263 H 0.28999 0.75063 0.42502
 H3264 H 0.25022 0.79100 0.42516
 C3265 C 0.28891 0.28947 0.87945
 C3266 C 0.28121 0.30442 0.87194
 C3267 C 0.28847 0.31157 0.85660
 C3268 C 0.30341 0.30394 0.84881
 C3269 C 0.31081 0.28879 0.85644
 C3270 C 0.30364 0.28154 0.87178
 C3271 C 0.28165 0.28222 0.89588
 C3272 C 0.28962 0.26752 0.90361
 C3273 C 0.28313 0.26112 0.91960
 C3274 C 0.26886 0.26941 0.92798
 C3275 C 0.26078 0.28391 0.91977
 C3276 C 0.26718 0.29041 0.90378
 C3277 C 0.31109 0.26668 0.87976
 C3278 C 0.30420 0.25980 0.89542
 C3279 C 0.26657 0.31210 0.88009
 C3280 C 0.25968 0.30522 0.89574
 H3281 H 0.32245 0.26043 0.87397
 H3282 H 0.31047 0.24845 0.90126
 H3283 H 0.26050 0.32363 0.87441
 H3284 H 0.24852 0.31166 0.90171
 H3285 H 0.28261 0.32321 0.85090
 H3286 H 0.32228 0.28275 0.85062
 H3287 H 0.28953 0.25000 0.92575
 H3288 H 0.24987 0.29048 0.92606
 C3289 C 0.45892 0.29172 0.86791
 C3290 C 0.46568 0.30753 0.87454
 C3291 C 0.45868 0.31451 0.89009
 C3292 C 0.44494 0.30584 0.89895
 C3293 C 0.43834 0.28997 0.89206
 C3294 C 0.44528 0.28286 0.87655
 C3295 C 0.46615 0.28439 0.85150
 C3296 C 0.45926 0.26868 0.84476
 C3297 C 0.46596 0.26193 0.82898
 C3298 C 0.47944 0.27081 0.81993
 C3299 C 0.48629 0.28649 0.82703
 C3300 C 0.47965 0.29336 0.84276
 C3301 C 0.43879 0.26713 0.86944
 C3302 C 0.44565 0.26016 0.85381
 C3303 C 0.47922 0.31611 0.86544
 C3304 C 0.48608 0.30915 0.84980
 H3305 H 0.42825 0.26017 0.87598
 H3306 H 0.44020 0.24805 0.84873
 H3307 H 0.48452 0.32834 0.87039
 H3308 H 0.49644 0.31624 0.84313
 H3309 H 0.46387 0.32674 0.89517
 H3310 H 0.42779 0.28313 0.89870
 H3311 H 0.46048 0.24993 0.82364
 H3312 H 0.49651 0.29359 0.82014
 C3313 C 0.96168 0.28816 0.37004
 C3314 C 0.94720 0.27995 0.37791
 C3315 C 0.94073 0.28648 0.39387
 C3316 C 0.94860 0.30118 0.40194
 C3317 C 0.96323 0.30914 0.39388
 C3318 C 0.96979 0.30271 0.37792
 C3319 C 0.96835 0.28152 0.35311
 C3320 C 0.98269 0.28986 0.34512
 C3321 C 0.98877 0.28371 0.32886
 C3322 C 0.98056 0.26935 0.32053
 C3323 C 0.96626 0.26106 0.32887
 C3324 C 0.96009 0.26711 0.34512
 C3325 C 0.98419 0.31064 0.36958
 C3326 C 0.99052 0.30434 0.35345
 C3327 C 0.93935 0.26549 0.36957
 C3328 C 0.94568 0.25919 0.35345
 H3329 H 0.99056 0.32189 0.37551
 H3330 H 1.00159 0.31091 0.34741
 H3331 H 0.92816 0.25905 0.37551
 H3332 H 0.93918 0.24807 0.34740
 H3333 H 0.92948 0.28021 0.39988
 H3334 H 0.96943 0.32045 0.39989
 H3335 H 0.99970 0.29030 0.32259
 H3336 H 0.95974 0.25007 0.32261
 C3337 C 0.45576 0.36559 0.79397
 C3338 C 0.44070 0.37299 0.78641
 C3339 C 0.43327 0.38798 0.79405
 C3340 C 0.44077 0.39558 0.80919
 C3341 C 0.45587 0.38789 0.81663
 C3342 C 0.46340 0.37290 0.80908
 C3343 C 0.46363 0.34982 0.78599
 C3344 C 0.47859 0.34232 0.79366
 C3345 C 0.48585 0.32716 0.78620
 C3346 C 0.47819 0.31941 0.77121
 C3347 C 0.46324 0.32724 0.76362
 C3348 C 0.45589 0.34241 0.77098
 C3349 C 0.47838 0.36503 0.81637
 C3350 C 0.48584 0.34999 0.80880
 C3351 C 0.43335 0.36521 0.77137
 C3352 C 0.44080 0.35016 0.76381
 H3353 H 0.48437 0.37052 0.82806
 H3354 H 0.49733 0.34427 0.81489
 H3355 H 0.42170 0.37077 0.76543
 H3356 H 0.43466 0.34452 0.75228
 H3357 H 0.42165 0.39370 0.78819
 H3358 H 0.46177 0.39353 0.82828
 H3359 H 0.49721 0.32121 0.79231
 H3360 H 0.45708 0.32135 0.75222
 C3361 C 0.96130 0.36924 0.28882
 C3362 C 0.94669 0.37702 0.28077
 C3363 C 0.94019 0.39291 0.28740
 C3364 C 0.94815 0.40101 0.30204
 C3365 C 0.96289 0.39303 0.30986
 C3366 C 0.96949 0.37714 0.30333
 C3367 C 0.96802 0.35239 0.28208
 C3368 C 0.98250 0.34451 0.29027
 C3369 C 0.98863 0.32832 0.28403
 C3370 C 0.98036 0.31996 0.26971
 C3371 C 0.96592 0.32819 0.26156
 C3372 C 0.95969 0.34437 0.26772
 C3373 C 0.98402 0.36890 0.31111
 C3374 C 0.99040 0.35285 0.30471
 C3375 C 0.93877 0.36865 0.26635
 C3376 C 0.94515 0.35260 0.25995
 H3377 H 0.99045 0.37486 0.32232
 H3378 H 1.00157 0.34689 0.31116
 H3379 H 0.92747 0.37451 0.26003
 H3380 H 0.93858 0.34654 0.24887
 H3381 H 0.92884 0.39885 0.28124
 H3382 H 0.96916 0.39906 0.32113
 H3383 H 0.99967 0.32215 0.29051
 H3384 H 0.95934 0.32190 0.25062
 C3385 C 0.28825 0.87225 0.46155
 C3386 C 0.30286 0.88005 0.46960
 C3387 C 0.30962 0.89572 0.46270
 C3388 C 0.30194 0.90354 0.44776
 C3389 C 0.28713 0.89560 0.44001
 C3390 C 0.28027 0.87994 0.44682
 C3391 C 0.28141 0.85550 0.46844
 C3392 C 0.26704 0.84751 0.46015
 C3393 C 0.26099 0.83127 0.46634
 C3394 C 0.26930 0.82292 0.48064
 C3395 C 0.28349 0.83134 0.48901
 C3396 C 0.28964 0.84759 0.48292
 C3397 C 0.26576 0.87167 0.43903
 C3398 C 0.25926 0.85572 0.44558
 C3399 C 0.31059 0.87187 0.48423
 C3400 C 0.30410 0.85591 0.49076
 H3401 H 0.25948 0.87748 0.42767
 H3402 H 0.24817 0.84968 0.43906
 H3403 H 0.32186 0.87777 0.49057
 H3404 H 0.31056 0.84995 0.50194
 H3405 H 0.32100 0.90165 0.46881
 H3406 H 0.28107 0.90144 0.42854
 H3407 H 0.25010 0.82496 0.45971
 H3408 H 0.29007 0.82508 0.49997
 C3409 C 0.29019 0.37023 0.96067
 C3410 C 0.28224 0.37795 0.94594
 C3411 C 0.28958 0.39319 0.93868
 C3412 C 0.30483 0.40069 0.94600
 C3413 C 0.31249 0.39284 0.96093
 C3414 C 0.30526 0.37759 0.96827
 C3415 C 0.28280 0.35392 0.96805
 C3416 C 0.29099 0.34598 0.98253
 C3417 C 0.28433 0.33011 0.98906
 C3418 C 0.26968 0.32206 0.98110
 C3419 C 0.26141 0.33047 0.96681
 C3420 C 0.26797 0.34635 0.96019
 C3421 C 0.31294 0.36939 0.98291
 C3422 C 0.30594 0.35385 0.98991
 C3423 C 0.26726 0.37011 0.93859
 C3424 C 0.26025 0.35457 0.94559
 H3425 H 0.32457 0.37494 0.98890
 H3426 H 0.31239 0.34784 1.00107
 H3427 H 0.26100 0.37594 0.92723
 H3428 H 0.24880 0.34885 0.93941
 H3429 H 0.28352 0.39906 0.92722
 H3430 H 0.32421 0.39843 0.96672
 H3431 H 0.29091 0.32379 0.99998
 H3432 H 0.25019 0.32445 0.96050
 C3433 C 0.78848 0.37776 0.28690
 C3434 C 0.78023 0.36972 0.30128
 C3435 C 0.78708 0.35401 0.30798
 C3436 C 0.80217 0.34638 0.30048
 C3437 C 0.81012 0.35455 0.28588
 C3438 C 0.80336 0.37026 0.27908
 C3439 C 0.78163 0.39456 0.28013
 C3440 C 0.79011 0.40279 0.26599
 C3441 C 0.78395 0.41907 0.26003
 C3442 C 0.76949 0.42723 0.26821
 C3443 C 0.76094 0.41855 0.28217
 C3444 C 0.76699 0.40226 0.28821
 C3445 C 0.81135 0.37878 0.26479
 C3446 C 0.80484 0.39477 0.25836
 C3447 C 0.76545 0.37770 0.30886
 C3448 C 0.75895 0.39370 0.30244
 H3449 H 0.82283 0.37312 0.25863
 H3450 H 0.81151 0.40099 0.24744
 H3451 H 0.75895 0.37162 0.31996
 H3452 H 0.74764 0.39950 0.30879
 H3453 H 0.78080 0.34791 0.31920
 H3454 H 0.82172 0.34886 0.27995
 H3455 H 0.79073 0.42558 0.24934
 H3456 H 0.74984 0.42465 0.28863
   
