data_POSCAR
  _audit_creation_date              2014-09-24
  _audit_creation_method            'ToBaCCo'
  _symmetry_space_group_name_H-M    'P1'
  _symmetry_Int_Tables_number       1
  _symmetry_cell_setting            triclinic
  loop_
  _symmetry_equiv_pos_as_xyz
 x,y,z
_cell_length_a 46.8244
_cell_length_b 46.8208
_cell_length_c 46.8118
_cell_angle_alpha 89.976200
_cell_angle_beta 90.005600
_cell_angle_gamma 89.983400
loop_
  _atom_site_label
  _atom_site_type_symbol
  _atom_site_fract_x
  _atom_site_fract_y
  _atom_site_fract_z
C1 C 0.35971 1.36071 0.32255
 C2 C 0.33511 1.37276 0.33507
 C3 C 0.32253 1.36069 0.35965
 C4 C 0.33527 1.33631 0.37185
 C5 C 0.35980 1.32392 0.35981
 C6 C 0.37189 1.33633 0.33532
 H7 H 0.32548 1.39146 0.32542
 H8 H 0.32590 1.32663 0.39065
 H9 H 0.39072 1.32667 0.32599
 C10 C 0.35938 0.86057 0.82357
 C11 C 0.33482 0.87262 0.83597
 C12 C 0.32216 0.86046 0.86045
 C13 C 0.33484 0.83596 0.87255
 C14 C 0.35939 0.82359 0.86048
 C15 C 0.37152 0.83614 0.83607
 H16 H 0.32538 0.89137 0.82625
 H17 H 0.32541 0.82620 0.89129
 H18 H 0.39033 0.82665 0.82655
 C19 C 0.85962 1.36049 0.82357
 C20 C 0.87180 1.33612 0.83614
 C21 C 0.85967 1.32361 0.86056
 C22 C 0.83510 1.33597 0.87259
 C23 C 0.82239 1.36041 0.86042
 C24 C 0.83504 1.37254 0.83592
 H25 H 0.89063 1.32663 0.82666
 H26 H 0.82568 1.32623 0.89134
 H27 H 0.82556 1.39124 0.82614
 C28 C 0.86053 0.86048 0.32259
 C29 C 0.87265 0.83599 0.33525
 C30 C 0.86056 0.82355 0.35976
 C31 C 0.83613 0.83604 0.37188
 C32 C 0.82362 0.86047 0.35976
 C33 C 0.83603 0.87258 0.33523
 H34 H 0.89141 0.82627 0.32582
 H35 H 0.82660 0.82649 0.39067
 H36 H 0.82630 0.89133 0.32580
 C37 C 0.63891 0.63881 0.32412
 C38 C 0.62683 0.66330 0.33660
 C39 C 0.63900 0.67579 0.36104
 C40 C 0.66347 0.66328 0.37314
 C41 C 0.67591 0.63880 0.36102
 C42 C 0.66338 0.62667 0.33659
 H43 H 0.60809 0.67290 0.32703
 H44 H 0.67310 0.67287 0.39185
 H45 H 0.67294 0.60793 0.32701
 C46 C 0.63931 0.13935 0.82273
 C47 C 0.66382 0.12722 0.83537
 C48 C 0.67617 0.13924 0.85997
 C49 C 0.66359 0.16358 0.87217
 C50 C 0.63916 0.17608 0.86005
 C51 C 0.62713 0.16375 0.83547
 H52 H 0.67361 0.10855 0.82588
 H53 H 0.67307 0.17306 0.89100
 H54 H 0.60837 0.17349 0.82605
 C55 C 1.13887 0.63870 0.82421
 C56 C 1.16331 0.62657 0.83672
 C57 C 1.17577 0.63868 0.86120
 C58 C 1.16326 0.66313 0.87332
 C59 C 1.13881 0.67562 0.86117
 C60 C 1.12672 0.66316 0.83669
 H61 H 1.17293 0.60785 0.82714
 H62 H 1.17282 0.67270 0.89207
 H63 H 1.10800 0.67275 0.82708
 C64 C 1.14073 0.13968 0.32222
 C65 C 1.12857 0.16409 0.33493
 C66 C 1.14064 0.17650 0.35943
 C67 C 1.16515 0.16410 0.37150
 C68 C 1.17788 0.13970 0.35935
 C69 C 1.16532 0.12762 0.33478
 H70 H 1.10975 0.17375 0.32557
 H71 H 1.17451 0.17378 0.39030
 H72 H 1.17494 0.10890 0.32518
 C73 C 0.64018 1.36081 0.67629
 C74 C 0.66475 1.37286 0.66393
 C75 C 0.67737 1.36076 0.63940
 C76 C 0.66465 1.33636 0.62722
 C77 C 0.64009 1.32399 0.63927
 C78 C 0.62799 1.33647 0.66371
 H79 H 0.67424 1.39153 0.67372
 H80 H 0.67405 1.32664 0.60845
 H81 H 0.60917 1.32696 0.67320
 C82 C 0.63894 0.86102 1.17608
 C83 C 0.66340 0.87314 1.16360
 C84 C 0.67591 0.86100 1.13916
 C85 C 0.66344 0.83653 1.12704
 C86 C 0.63897 0.82405 1.13916
 C87 C 0.62683 0.83656 1.16360
 H88 H 0.67298 0.89187 1.17318
 H89 H 0.67305 0.82693 1.10833
 H90 H 0.60809 0.82698 1.17318
 C91 C 1.14051 1.36042 1.17748
 C92 C 1.16507 1.37248 1.16491
 C93 C 1.17764 1.36039 1.14035
 C94 C 1.16494 1.33597 1.12821
 C95 C 1.14043 1.32357 1.14030
 C96 C 1.12836 1.33600 1.16479
 H97 H 1.17467 1.39121 1.17450
 H98 H 1.17430 1.32629 1.10942
 H99 H 1.10955 1.32635 1.17417
 C100 C 1.13907 0.86105 0.67595
 C101 C 1.16350 0.87320 0.66345
 C102 C 1.17600 0.86109 0.63899
 C103 C 1.16355 0.83661 0.62688
 C104 C 1.13911 0.82409 0.63902
 C105 C 1.12698 0.83657 0.66348
 H106 H 1.17306 0.89194 0.67302
 H107 H 1.17314 0.82703 0.60815
 H108 H 1.10827 0.82696 0.67309
 C109 C 0.35963 0.63960 0.67640
 C110 C 0.37174 0.66402 0.66389
 C111 C 0.35960 0.67656 0.63948
 C112 C 0.33506 0.66417 0.62741
 C113 C 0.32241 0.63967 0.63952
 C114 C 0.33510 0.62753 0.66400
 H115 H 0.39054 0.67353 0.67341
 H116 H 0.32561 0.67393 0.60867
 H117 H 0.32568 0.60878 0.67373
 C118 C 0.36120 0.13879 1.17566
 C119 C 0.37333 0.16321 1.16312
 C120 C 0.36119 0.17569 1.13866
 C121 C 0.33671 0.16323 1.12657
 C122 C 0.32421 0.13880 1.13875
 C123 C 0.33672 0.12668 1.16322
 H124 H 0.39208 0.17279 1.17267
 H125 H 0.32711 0.17282 1.10784
 H126 H 0.32712 0.10798 1.17286
 C127 C 0.86059 0.63919 1.17730
 C128 C 0.87269 0.66368 1.16465
 C129 C 0.86056 0.67614 1.14016
 C130 C 0.83611 0.66366 1.12806
 C131 C 0.82363 0.63922 1.14018
 C132 C 0.83609 0.62709 1.16468
 H133 H 0.89145 0.67339 1.17406
 H134 H 0.82654 0.67323 1.10929
 H135 H 0.82638 0.60834 1.17412
 C136 C 0.85926 0.13996 0.67779
 C137 C 0.87143 0.16438 0.66509
 C138 C 0.85936 0.17684 0.64060
 C139 C 0.83484 0.16446 0.62852
 C140 C 0.82212 0.14005 0.64066
 C141 C 0.83468 0.12794 0.66523
 H142 H 0.89025 0.17401 0.67445
 H143 H 0.82548 0.17416 0.60971
 H144 H 0.82507 0.10921 0.67482
 C145 C 1.36096 0.36009 0.67592
 C146 C 1.37302 0.33553 0.66355
 C147 C 1.36092 0.32289 0.63904
 C148 C 1.33649 0.33561 0.62686
 C149 C 1.32411 0.36016 0.63891
 C150 C 1.33660 0.37227 0.66334
 H151 H 1.39172 0.32605 0.67333
 H152 H 1.32676 0.32620 0.60811
 H153 H 1.32708 0.39108 0.67284
 C154 C 1.36067 0.85983 1.17639
 C155 C 1.33628 0.87198 1.16384
 C156 C 1.32376 0.85984 1.13944
 C157 C 1.33613 0.83526 1.12741
 C158 C 1.36059 0.82258 1.13956
 C159 C 1.37272 0.83525 1.16404
 H160 H 1.32678 0.89081 1.17332
 H161 H 1.32638 0.82582 1.10868
 H162 H 1.39144 0.82580 1.17380
 C163 C 0.86090 0.35972 1.17604
 C164 C 0.87296 0.33516 1.16368
 C165 C 0.86078 0.32244 1.13926
 C166 C 0.83626 0.33506 1.12715
 C167 C 0.82389 0.35963 1.13920
 C168 C 0.83646 0.37182 1.16355
 H169 H 0.89172 0.32575 1.17340
 H170 H 0.82648 0.32558 1.10847
 H171 H 0.82695 0.39064 1.17305
 C172 C 0.86103 0.86102 0.67585
 C173 C 0.87311 0.83653 0.66337
 C174 C 0.86096 0.82406 0.63892
 C175 C 0.83650 0.83658 0.62680
 C176 C 0.82407 0.86107 0.63892
 C177 C 0.83659 0.87318 0.66336
 H178 H 0.89183 0.82692 0.67297
 H179 H 0.82689 0.82701 0.60808
 H180 H 0.82704 0.89193 0.67294
 C181 C 0.63921 0.63930 0.67630
 C182 C 0.62708 0.66378 0.66384
 C183 C 0.63918 0.67630 0.63937
 C184 C 0.66364 0.66382 0.62722
 C185 C 0.67613 0.63934 0.63932
 C186 C 0.66367 0.62719 0.66379
 H187 H 0.60836 0.67336 0.67344
 H188 H 0.67320 0.67342 0.60848
 H189 H 0.67326 0.60844 0.67336
 C190 C 0.63926 1.14011 1.17630
 C191 C 0.62719 1.16465 1.16389
 C192 C 0.63933 1.17734 1.13943
 C193 C 0.66384 1.16469 1.12733
 C194 C 0.67623 1.14014 1.13942
 C195 C 0.66368 1.12799 1.16381
 H196 H 0.60843 1.17407 1.17361
 H197 H 0.67360 1.17415 1.10861
 H198 H 0.67319 1.10919 1.17335
 C199 C 0.13969 0.64046 1.17752
 C200 C 0.12765 0.66507 1.16499
 C201 C 0.13975 0.67768 1.14045
 C202 C 0.16418 0.66498 1.12830
 C203 C 0.17655 0.64044 1.14035
 C204 C 0.16410 0.62832 1.16481
 H205 H 0.10892 0.67466 1.17460
 H206 H 0.17388 0.67438 1.10953
 H207 H 0.17374 0.60948 1.17415
 C208 C 0.13925 1.14032 0.67620
 C209 C 0.12719 1.16488 0.66381
 C210 C 0.13930 1.17753 0.63930
 C211 C 0.16373 1.16482 0.62714
 C212 C 0.17612 1.14027 0.63921
 C213 C 0.16363 1.12815 0.66365
 H214 H 0.10848 1.17435 0.67357
 H215 H 0.17346 1.17424 0.60839
 H216 H 0.17315 1.10934 0.67316
 C217 C 1.36079 0.64009 0.32388
 C218 C 1.37281 0.66468 0.33623
 C219 C 1.36066 0.67736 0.36069
 C220 C 1.33621 0.66467 0.37284
 C221 C 1.32387 0.64008 0.36081
 C222 C 1.33642 0.62793 0.33643
 H223 H 1.39152 0.67413 0.32646
 H224 H 1.32644 0.67411 0.39156
 H225 H 1.32694 0.60910 0.32694
 C226 C 1.36040 1.14057 0.82358
 C227 C 1.37244 1.16512 0.83598
 C228 C 1.36030 1.17776 0.86048
 C229 C 1.33585 1.16506 0.87260
 C230 C 1.32349 1.14051 0.86053
 C231 C 1.33601 1.12840 0.83611
 H232 H 1.39116 1.17459 0.82624
 H233 H 1.32610 1.17447 0.89135
 H234 H 1.32652 1.10960 0.82659
 C235 C 0.86095 0.63894 0.82399
 C236 C 0.87307 0.66341 0.83646
 C237 C 0.86097 0.67588 0.86094
 C238 C 0.83654 0.66337 0.87310
 C239 C 0.82406 0.63890 0.86100
 C240 C 0.83652 0.62679 0.83652
 H241 H 0.89177 0.67301 0.82684
 H242 H 0.82697 0.67294 0.89185
 H243 H 0.82694 0.60806 0.82695
 C244 C 0.86155 1.13878 0.32448
 C245 C 0.87366 1.16326 0.33693
 C246 C 0.86151 1.17580 0.36134
 C247 C 0.83702 1.16335 0.37346
 C248 C 0.82455 1.13887 0.36137
 C249 C 0.83707 1.12670 0.33696
 H250 H 0.89240 1.17281 0.32734
 H251 H 0.82740 1.17299 0.39215
 H252 H 0.82749 1.10796 0.32739
 C253 C 0.63983 0.35942 0.32247
 C254 C 0.66430 0.37154 0.33510
 C255 C 0.67678 0.35945 0.35957
 C256 C 0.66436 0.33498 0.37171
 C257 C 0.63989 0.32231 0.35964
 C258 C 0.62776 0.33489 0.33510
 H259 H 0.67397 0.39032 0.32568
 H260 H 0.67408 0.32560 0.39050
 H261 H 0.60899 0.32531 0.32556
 C262 C 0.63922 0.86077 0.82391
 C263 C 0.66369 0.87287 0.83639
 C264 C 0.67620 0.86072 0.86084
 C265 C 0.66372 0.83624 0.87295
 C266 C 0.63925 0.82377 0.86084
 C267 C 0.62711 0.83629 0.83638
 H268 H 0.67327 0.89162 0.82682
 H269 H 0.67332 0.82664 0.89168
 H270 H 0.60837 0.82673 0.82680
 C271 C 0.13930 0.36056 0.82250
 C272 C 0.16376 0.37268 0.83521
 C273 C 0.17609 0.36062 0.85979
 C274 C 0.16355 0.33622 0.87193
 C275 C 0.13916 0.32371 0.85975
 C276 C 0.12714 0.33610 0.83516
 H277 H 0.17352 0.39141 0.82577
 H278 H 0.17303 0.32671 0.89076
 H279 H 0.10843 0.32636 0.82569
 C280 C 0.13926 0.86072 0.32284
 C281 C 0.16372 0.87286 0.33551
 C282 C 0.17615 0.86075 0.36003
 C283 C 0.16369 0.83629 0.37213
 C284 C 0.13929 0.82376 0.35998
 C285 C 0.12718 0.83620 0.33546
 H286 H 0.17341 0.89163 0.32610
 H287 H 0.17324 0.82674 0.39091
 H288 H 0.10846 0.82646 0.32601
 O289 O 0.97220 0.89699 0.85791
 O290 O 0.97220 0.86380 0.82450
 C291 C 0.96246 0.88702 0.83463
 C292 C 0.93911 0.90223 0.81964
 C293 C 0.92915 0.89255 0.79305
 H294 H 0.93934 0.87434 0.78306
 O295 O 1.02752 1.10300 0.85761
 O296 O 1.02756 1.13628 0.82426
 C297 C 1.03732 1.11305 0.83439
 C298 C 1.06082 1.09797 0.81950
 C299 C 1.07089 1.10780 0.79301
 H300 H 1.06066 1.12599 0.78302
 O301 O 0.85795 0.97222 0.89693
 O302 O 0.82449 0.97210 0.86377
 C303 C 0.83470 0.96240 0.88698
 C304 C 0.81981 0.93898 0.90221
 C305 C 0.79325 0.92895 0.89251
 H306 H 0.78324 0.93913 0.87430
 O307 O 1.14227 1.02801 0.89700
 O308 O 1.17565 1.02804 0.86377
 C309 C 1.16551 1.03779 0.88699
 C310 C 1.18040 1.06124 0.90214
 C311 C 1.20690 1.07139 0.89236
 H312 H 1.21691 1.06127 0.87413
 O313 O 0.89711 0.85770 0.97240
 O314 O 0.86387 0.82434 0.97237
 C315 C 0.88709 0.83446 0.96263
 C316 C 0.90224 0.81953 0.93920
 C317 C 0.89254 0.79297 0.92919
 H318 H 0.87437 0.78295 0.93940
 O319 O 1.10275 1.14235 0.97211
 O320 O 1.13597 1.17572 0.97203
 C321 C 1.11275 1.16558 0.96229
 C322 C 1.09758 1.18047 0.93882
 C323 C 1.10734 1.20698 0.92868
 H324 H 1.12556 1.21699 0.93882
 O325 O 0.89672 1.02806 0.85757
 O326 O 0.86339 1.02796 0.82428
 C327 C 0.88660 1.03779 0.83433
 C328 C 0.90160 1.06129 0.81935
 C329 C 0.89157 1.07152 0.79297
 H330 H 0.87326 1.06142 0.78310
 O331 O 1.10309 0.97234 0.85790
 O332 O 1.13630 0.97231 0.82450
 C333 C 1.11308 0.96259 0.83464
 C334 C 1.09789 0.93919 0.81971
 C335 C 1.10756 0.92922 0.79311
 H336 H 1.12574 0.93942 0.78309
 O337 O 1.02786 0.85781 0.89706
 O338 O 1.02790 0.82446 0.86381
 C339 C 1.03760 0.83455 0.88706
 C340 C 1.06092 0.81953 0.90230
 C341 C 1.07084 0.79292 0.89263
 H342 H 1.06066 0.78295 0.87441
 O343 O 0.97183 1.14213 0.89673
 O344 O 0.97180 1.17557 0.86355
 C345 C 0.96208 1.16541 0.88677
 C346 C 0.93872 1.18036 0.90202
 C347 C 0.92861 1.20689 0.89228
 H348 H 0.93866 1.21686 0.87399
 O349 O 0.85773 1.10311 0.97228
 O350 O 0.82436 1.13635 0.97226
 C351 C 0.83448 1.11313 0.96250
 C352 C 0.81955 1.09798 0.93905
 C353 C 0.79303 1.10773 0.92893
 H354 H 0.78302 1.12597 0.93903
 O355 O 1.14213 0.89668 0.97221
 O356 O 1.17553 0.86347 0.97214
 C357 C 1.16537 0.88668 0.96239
 C358 C 1.18027 0.90183 0.93890
 C359 C 1.20672 0.89196 0.92870
 H360 H 1.21665 0.87365 0.93877
 O361 O 0.97176 1.10323 0.85738
 O362 O 0.97174 1.13652 0.82405
 C363 C 0.96197 1.11331 0.83415
 C364 C 0.93847 1.09823 0.81924
 C365 C 0.92815 1.10817 0.79286
 H366 H 0.93817 1.12649 0.78292
 O367 O 1.02790 0.89701 0.85799
 O368 O 1.02795 0.86381 0.82458
 C369 C 1.03767 0.88703 0.83473
 C370 C 1.06103 0.90224 0.81976
 C371 C 1.07100 0.89256 0.79317
 H372 H 1.06083 0.87436 0.78318
 O373 O 1.14222 0.97223 0.89700
 O374 O 1.17559 0.97220 0.86376
 C375 C 1.16544 0.96241 0.88696
 C376 C 1.18032 0.93887 0.90206
 C377 C 1.20677 0.92868 0.89217
 H378 H 1.21672 0.93883 0.87393
 O379 O 0.85789 1.02795 0.89696
 O380 O 0.82442 1.02786 0.86382
 C381 C 0.83459 1.03765 0.88700
 C382 C 0.81963 1.06104 0.90217
 C383 C 0.79311 1.07107 0.89236
 H384 H 0.78317 1.06089 0.87412
 O385 O 0.89691 1.14216 0.97230
 O386 O 0.86368 1.17555 0.97231
 C387 C 0.88689 1.16542 0.96255
 C388 C 0.90199 1.18036 0.93910
 C389 C 0.89217 1.20688 0.92907
 H390 H 0.87398 1.21685 0.93930
 O391 O 1.10297 0.85761 0.97241
 O392 O 1.13621 0.82423 0.97235
 C393 C 1.11296 0.83436 0.96265
 C394 C 1.09775 0.81941 0.93928
 C395 C 1.10739 0.79281 0.92932
 H396 H 1.12555 0.78276 0.93954
 O397 O 1.10316 1.02807 0.85784
 O398 O 1.13638 1.02809 0.82445
 C399 C 1.11315 1.03784 0.83457
 C400 C 1.09793 1.06124 0.81959
 C401 C 1.10771 1.07139 0.79308
 H402 H 1.12603 1.06135 0.78314
 O403 O 0.89703 0.97233 0.85777
 O404 O 0.86373 0.97219 0.82446
 C405 C 0.88700 0.96252 0.83455
 C406 C 0.90221 0.93915 0.81959
 C407 C 0.89254 0.92918 0.79300
 H408 H 0.87435 0.93937 0.78298
 O409 O 1.02753 1.14216 0.89666
 O410 O 1.02755 1.17559 0.86346
 C411 C 1.03729 1.16543 0.88668
 C412 C 1.06070 1.18038 0.90186
 C413 C 1.07075 1.20689 0.89204
 H414 H 1.06060 1.21682 0.87377
 O415 O 0.97217 0.85786 0.89703
 O416 O 0.97216 0.82450 0.86378
 C417 C 0.96242 0.83461 0.88701
 C418 C 0.93906 0.81962 0.90221
 C419 C 0.92907 0.79305 0.89249
 H420 H 0.93922 0.78309 0.87425
 O421 O 1.14200 1.10335 0.97214
 O422 O 1.17537 1.13658 0.97210
 C423 C 1.16526 1.11335 0.96238
 C424 C 1.18025 1.09819 0.93900
 C425 C 1.20674 1.10803 0.92894
 H426 H 1.21664 1.12630 0.93908
 O427 O 0.85805 0.89687 0.97234
 O428 O 0.82466 0.86367 0.97232
 C429 C 0.83480 0.88689 0.96257
 C430 C 0.81985 0.90207 0.93914
 C431 C 0.79329 0.89234 0.92914
 H432 H 0.78331 0.87413 0.93932
 Cu433 Cu 1.00003 0.88075 0.88083
 Cu434 Cu 1.00005 0.84080 0.84081
 Cu435 Cu 0.99965 1.11928 0.88041
 Cu436 Cu 0.99967 1.15933 0.84048
 Cu437 Cu 0.88075 1.00015 0.88062
 Cu438 Cu 0.84065 1.00001 0.84075
 Cu439 Cu 1.11937 1.00017 0.88077
 Cu440 Cu 1.15933 1.00016 0.84078
 C441 C 0.92567 0.92571 0.83259
 H442 H 0.93298 0.93303 0.85329
 C443 C 0.90584 0.90585 0.77953
 C444 C 1.07431 1.07451 0.83247
 H445 H 1.06691 1.06707 0.85309
 C446 C 1.09436 1.09471 0.77960
 C447 C 0.83279 0.92557 0.92571
 H448 H 0.85346 0.93292 0.93304
 C449 C 0.77980 0.90561 0.90579
 C450 C 1.16741 1.07461 0.92564
 H451 H 1.14679 1.06718 0.93302
 C452 C 1.22026 1.09482 0.90559
 C453 C 0.92568 0.83253 0.92574
 H454 H 0.93301 0.85320 0.93309
 C455 C 0.90578 0.77953 0.90581
 C456 C 1.07408 1.16749 0.92543
 H457 H 1.06671 1.14686 0.93285
 C458 C 1.09410 1.22038 0.90526
 C459 C 0.92522 1.07461 0.83214
 H460 H 0.93280 1.06710 0.85268
 C461 C 0.90466 1.09499 0.77952
 C462 C 1.07444 0.92574 0.83271
 H463 H 1.06713 0.93305 0.85340
 C464 C 1.09429 0.90588 0.77965
 C465 C 1.07433 0.83245 0.92580
 H466 H 1.06705 0.85316 0.93310
 C467 C 1.09411 0.77936 0.90597
 C468 C 0.92544 1.16743 0.92561
 H469 H 0.93286 1.14678 0.93297
 C470 C 0.90529 1.22034 0.90563
 C471 C 0.83252 1.07446 0.92569
 H472 H 0.85316 1.06708 0.93310
 C473 C 0.77961 1.09444 0.90554
 C474 C 1.16740 0.92546 0.92560
 H475 H 1.14682 0.93293 0.93307
 C476 C 1.22016 0.90520 0.90531
 O477 O 1.02798 0.89683 1.14257
 O478 O 1.02800 0.86363 1.17599
 C479 C 1.03774 0.88684 1.16584
 C480 C 1.06116 0.90201 1.18077
 C481 C 1.07126 0.89222 1.20728
 H482 H 1.06112 0.87398 1.21726
 O483 O 0.97257 1.10300 1.14240
 O484 O 0.97246 1.13618 1.17582
 C485 C 0.96279 1.11294 1.16567
 C486 C 0.93945 1.09768 1.18063
 C487 C 0.92954 1.10728 1.20726
 H488 H 0.93977 1.12543 1.21730
 O489 O 0.85782 1.02789 1.10343
 O490 O 0.82447 1.02795 1.13669
 C491 C 0.83458 1.03768 1.11345
 C492 C 0.81963 1.06110 1.09826
 C493 C 0.79311 1.07123 1.10802
 H494 H 0.78314 1.06115 1.12629
 O495 O 1.14223 0.97204 1.10333
 O496 O 1.17572 0.97201 1.13646
 C497 C 1.16552 0.96227 1.11327
 C498 C 1.18044 0.93886 1.09806
 C499 C 1.20698 0.92875 1.10778
 H500 H 1.21698 0.93885 1.12603
 O501 O 1.10324 0.85754 1.02818
 O502 O 1.13651 0.82419 1.02817
 C503 C 1.11332 0.83431 1.03798
 C504 C 1.09826 0.81942 1.06154
 C505 C 1.10819 0.79300 1.07180
 H506 H 1.12647 0.78305 1.06172
 O507 O 0.89693 1.14212 1.02807
 O508 O 0.86370 1.17551 1.02811
 C509 C 0.88692 1.16536 1.03786
 C510 C 0.90206 1.18028 1.06132
 C511 C 0.89223 1.20678 1.07142
 H512 H 0.87398 1.21673 1.06127
 O513 O 0.89694 0.97203 1.14246
 O514 O 0.86373 0.97203 1.17585
 C515 C 0.88692 0.96225 1.16571
 C516 C 0.90204 0.93878 1.18065
 C517 C 0.89218 0.92863 1.20712
 H518 H 0.87391 0.93876 1.21705
 O519 O 1.10328 1.02786 1.14253
 O520 O 1.13663 1.02787 1.17579
 C521 C 1.11340 1.03767 1.16572
 C522 C 1.09839 1.06120 1.18065
 C523 C 1.10840 1.07141 1.20703
 H524 H 1.12668 1.06126 1.21693
 O525 O 0.97234 0.85766 1.10340
 O526 O 0.97231 0.82429 1.13666
 C527 C 0.96258 0.83441 1.11342
 C528 C 0.93916 0.81948 1.09826
 C529 C 0.92907 0.79297 1.10806
 H530 H 0.93922 0.78300 1.12630
 O531 O 1.02808 1.14242 1.10332
 O532 O 1.02802 1.17577 1.13656
 C533 C 1.03778 1.16569 1.11333
 C534 C 1.06115 1.18068 1.09814
 C535 C 1.07133 1.20712 1.10801
 H536 H 1.06128 1.21703 1.12633
 O537 O 0.85800 0.89687 1.02807
 O538 O 0.82460 0.86368 1.02809
 C539 C 0.83473 0.88690 1.03781
 C540 C 0.81975 0.90212 1.06117
 C541 C 0.79315 0.89246 1.07113
 H542 H 0.78316 0.87426 1.06094
 O543 O 1.14188 1.10322 1.02787
 O544 O 1.17528 1.13642 1.02786
 C545 C 1.16515 1.11319 1.03760
 C546 C 1.18015 1.09795 1.06096
 C547 C 1.20678 1.10759 1.07088
 H548 H 1.21676 1.12580 1.06069
 O549 O 1.02830 1.10333 1.14251
 O550 O 1.02825 1.13653 1.17591
 C551 C 1.03807 1.11336 1.16576
 C552 C 1.06159 1.09824 1.18067
 C553 C 1.07190 1.10816 1.20706
 H554 H 1.06189 1.12649 1.21699
 O555 O 0.97224 0.89674 1.14255
 O556 O 0.97221 0.86352 1.17596
 C557 C 0.96245 0.88673 1.16580
 C558 C 0.93896 0.90186 1.18070
 C559 C 0.92880 0.89201 1.20717
 H560 H 0.93891 0.87375 1.21714
 O561 O 1.14209 1.02777 1.10314
 O562 O 1.17560 1.02779 1.13624
 C563 C 1.16538 1.03753 1.11305
 C564 C 1.18027 1.06094 1.09781
 C565 C 1.20689 1.07088 1.10742
 H566 H 1.21696 1.06064 1.12556
 O567 O 0.85793 0.97217 1.10323
 O568 O 0.82456 0.97217 1.13647
 C569 C 0.83468 0.96243 1.11324
 C570 C 0.81971 0.93906 1.09804
 C571 C 0.79312 0.92910 1.10771
 H572 H 0.78310 0.93930 1.12589
 O573 O 1.10296 1.14256 1.02788
 O574 O 1.13621 1.17591 1.02785
 C575 C 1.11301 1.16580 1.03764
 C576 C 1.09793 1.18073 1.06112
 C577 C 1.10782 1.20717 1.07127
 H578 H 1.12606 1.21712 1.06111
 O579 O 0.89709 0.85771 1.02814
 O580 O 0.86385 0.82436 1.02817
 C581 C 0.88707 0.83447 1.03792
 C582 C 0.90222 0.81951 1.06136
 C583 C 0.89243 0.79300 1.07146
 H584 H 0.87418 0.78305 1.06133
 O585 O 1.10314 0.97210 1.14251
 O586 O 1.13647 0.97206 1.17579
 C587 C 1.11321 0.96233 1.16574
 C588 C 1.09807 0.93891 1.18073
 C589 C 1.10789 0.92882 1.20724
 H590 H 1.12614 0.93895 1.21719
 O591 O 0.89718 1.02776 1.14234
 O592 O 0.86400 1.02781 1.17576
 C593 C 0.88723 1.03750 1.16562
 C594 C 0.90250 1.06082 1.18060
 C595 C 0.89289 1.07073 1.20723
 H596 H 0.87470 1.06054 1.21725
 O597 O 0.97234 1.14223 1.10338
 O598 O 0.97222 1.17558 1.13662
 C599 C 0.96249 1.16543 1.11340
 C600 C 0.93899 1.18032 1.09825
 C601 C 0.92884 1.20681 1.10805
 H602 H 0.93897 1.21679 1.12629
 O603 O 1.02809 0.85764 1.10353
 O604 O 1.02811 0.82428 1.13680
 C605 C 1.03788 0.83441 1.11358
 C606 C 1.06137 0.81947 1.09849
 C607 C 1.07159 0.79306 1.10844
 H608 H 1.06149 0.78316 1.12675
 O609 O 1.14215 0.89684 1.02797
 O610 O 1.17557 0.86364 1.02795
 C611 C 1.16543 0.88686 1.03769
 C612 C 1.18040 0.90202 1.06108
 C613 C 1.20693 0.89222 1.07110
 H614 H 1.21688 0.87401 1.06090
 O615 O 0.85782 1.10301 1.02803
 O616 O 0.82444 1.13625 1.02805
 C617 C 0.83458 1.11303 1.03779
 C618 C 0.81964 1.09791 1.06123
 C619 C 0.79313 1.10772 1.07126
 H620 H 0.78317 1.12593 1.06103
 Cu621 Cu 1.00017 0.88054 1.11968
 Cu622 Cu 1.00016 0.84059 1.15970
 Cu623 Cu 1.00034 1.11942 1.11958
 Cu624 Cu 1.00022 1.15936 1.15958
 Cu625 Cu 0.88090 0.88061 1.00024
 Cu626 Cu 0.84090 0.84067 1.00024
 Cu627 Cu 1.11929 0.88049 1.00019
 Cu628 Cu 1.15930 0.84054 1.00014
 Cu629 Cu 0.88068 1.11927 1.00016
 Cu630 Cu 0.84070 1.15926 1.00018
 Cu631 Cu 1.11906 1.11955 1.00001
 Cu632 Cu 1.15904 1.15951 0.99995
 Cu633 Cu 0.88079 0.99997 1.11953
 Cu634 Cu 0.84085 1.00000 1.15954
 Cu635 Cu 1.11934 0.99993 1.11957
 Cu636 Cu 1.15946 0.99993 1.15941
 C637 C 1.07453 0.92554 1.16783
 H638 H 1.06711 0.93294 1.14719
 C639 C 1.09465 0.90544 1.22072
 C640 C 0.92597 1.07426 1.16761
 H641 H 0.93323 1.06701 1.14688
 C642 C 0.90624 1.09398 1.22076
 C643 C 0.83257 1.07442 1.07470
 H644 H 0.85320 1.06701 1.06732
 C645 C 0.77967 1.09458 1.09468
 C646 C 1.16748 0.92552 1.07453
 H647 H 1.14682 0.93292 1.06718
 C648 C 1.22041 0.90540 1.09447
 C649 C 1.07469 0.83232 1.07487
 H650 H 1.06718 0.85287 1.06734
 C651 C 1.09502 0.77962 1.09529
 C652 C 0.92561 1.16738 1.07472
 H653 H 0.93305 1.14676 1.06731
 C654 C 0.90544 1.22024 1.09481
 C655 C 0.92561 0.92541 1.16776
 H656 H 0.93307 0.93286 1.14716
 C657 C 0.90537 0.90522 1.22057
 C658 C 1.07482 1.07459 1.16780
 H659 H 1.06726 1.06709 1.14726
 C660 C 1.09535 1.09491 1.22044
 C661 C 0.92576 0.83242 1.07473
 H662 H 0.93316 0.85305 1.06733
 C663 C 0.90568 0.77954 1.09484
 C664 C 1.07442 1.16782 1.07452
 H665 H 1.06695 1.14724 1.06707
 C666 C 1.09470 1.22056 1.09475
 C667 C 0.83270 0.92560 1.07459
 H668 H 0.85340 0.93290 1.06729
 C669 C 0.77964 0.90577 1.09442
 C670 C 1.16722 1.07444 1.07440
 H671 H 1.14650 1.06715 1.06714
 C672 C 1.22034 1.09422 1.09413
 O673 O 0.97268 0.39692 0.35742
 O674 O 0.97258 0.36363 0.32410
 C675 C 0.96287 0.38687 0.33420
 C676 C 0.93944 0.40200 0.31925
 C677 C 0.92940 0.39219 0.29274
 H678 H 0.93961 0.37399 0.28278
 O679 O 1.02805 0.60296 0.35728
 O680 O 1.02800 0.63626 0.32395
 C681 C 1.03781 0.61304 0.33405
 C682 C 1.06131 0.59801 0.31911
 C683 C 1.07147 0.60801 0.29270
 H684 H 1.06130 0.62628 0.28280
 O685 O 0.85797 0.47182 0.39651
 O686 O 0.82459 0.47180 0.36328
 C687 C 0.83472 0.46204 0.38650
 C688 C 0.81979 0.43861 0.40166
 C689 C 0.79335 0.42842 0.39178
 H690 H 0.78344 0.43848 0.37345
 O691 O 1.14240 0.52785 0.39655
 O692 O 1.17585 0.52797 0.36340
 C693 C 1.16567 0.53765 0.38662
 C694 C 1.18056 0.56103 0.40190
 C695 C 1.20711 0.57115 0.39223
 H696 H 1.21713 0.56107 0.37398
 O697 O 0.89718 0.35798 0.47221
 O698 O 0.86408 0.32449 0.47209
 C699 C 0.88729 0.33470 0.46241
 C700 C 0.90256 0.31979 0.43903
 C701 C 0.89295 0.29316 0.42912
 H702 H 0.87480 0.28313 0.43935
 O703 O 1.10318 0.64210 0.47200
 O704 O 1.13635 0.67553 0.47192
 C705 C 1.11316 0.66535 0.46218
 C706 C 1.09798 0.68025 0.43871
 C707 C 1.10771 0.70679 0.42863
 H708 H 1.12591 0.71681 0.43878
 O709 O 0.89703 0.52764 0.35742
 O710 O 0.86378 0.52767 0.32405
 C711 C 0.88699 0.53742 0.33417
 C712 C 0.90212 0.56087 0.31923
 C713 C 0.89227 0.57101 0.29275
 H714 H 0.87400 0.56089 0.28281
 O715 O 1.10342 0.47217 0.35725
 O716 O 1.13671 0.47221 0.32393
 C717 C 1.11350 0.46241 0.33403
 C718 C 1.09844 0.43890 0.31911
 C719 C 1.10838 0.42870 0.29270
 H720 H 1.12664 0.43885 0.28277
 O721 O 1.02838 0.35771 0.39652
 O722 O 1.02830 0.32428 0.36335
 C723 C 1.03808 0.33442 0.38655
 C724 C 1.06148 0.31944 0.40171
 C725 C 1.07163 0.29297 0.39185
 H726 H 1.06153 0.28306 0.37356
 O727 O 0.97226 0.64194 0.39649
 O728 O 0.97221 0.67537 0.36329
 C729 C 0.96248 0.66521 0.38651
 C730 C 0.93908 0.68015 0.40169
 C731 C 0.92902 0.70667 0.39190
 H732 H 0.93916 0.71663 0.37365
 O733 O 0.85805 0.60283 0.47195
 O734 O 0.82464 0.63605 0.47185
 C735 C 0.83479 0.61281 0.46217
 C736 C 0.81983 0.59758 0.43881
 C737 C 0.79322 0.60723 0.42888
 H738 H 0.78321 0.62541 0.43909
 O739 O 1.14252 0.39672 0.47167
 O740 O 1.17591 0.36351 0.47171
 C741 C 1.16577 0.38670 0.46189
 C742 C 1.18068 0.40183 0.43838
 C743 C 1.20713 0.39197 0.42816
 H744 H 1.21708 0.37367 0.43823
 O745 O 0.97229 0.60285 0.35734
 O746 O 0.97221 0.63614 0.32400
 C747 C 0.96249 0.61290 0.33411
 C748 C 0.93904 0.59777 0.31918
 C749 C 0.92888 0.60761 0.29270
 H750 H 0.93900 0.62587 0.28274
 O751 O 1.02843 0.39683 0.35736
 O752 O 1.02838 0.36355 0.32404
 C753 C 1.03817 0.38677 0.33412
 C754 C 1.06163 0.40188 0.31915
 C755 C 1.07188 0.39198 0.29273
 H756 H 1.06185 0.37365 0.28283
 O757 O 1.14248 0.47210 0.39640
 O758 O 1.17592 0.47217 0.36324
 C759 C 1.16574 0.46235 0.38641
 C760 C 1.18065 0.43884 0.40152
 C761 C 1.20710 0.42868 0.39162
 H762 H 1.21702 0.43884 0.37336
 O763 O 0.85803 0.52754 0.39665
 O764 O 0.82462 0.52759 0.36344
 C765 C 0.83476 0.53730 0.38667
 C766 C 0.81980 0.56067 0.40190
 C767 C 0.79319 0.57063 0.39226
 H768 H 0.78316 0.56044 0.37408
 O769 O 0.89705 0.64205 0.47188
 O770 O 0.86381 0.67542 0.47178
 C771 C 0.88703 0.66528 0.46206
 C772 C 0.90219 0.68020 0.43862
 C773 C 0.89242 0.70672 0.42852
 H774 H 0.87419 0.71671 0.43866
 O775 O 1.10343 0.35758 0.47183
 O776 O 1.13667 0.32421 0.47188
 C777 C 1.11346 0.33433 0.46210
 C778 C 1.09833 0.31938 0.43867
 C779 C 1.10819 0.29292 0.42852
 H780 H 1.12646 0.28296 0.43865
 O781 O 1.10346 0.52792 0.35721
 O782 O 1.13675 0.52804 0.32389
 C783 C 1.11351 0.53776 0.33399
 C784 C 1.09835 0.56122 0.31906
 C785 C 1.10823 0.57152 0.29265
 H786 H 1.12656 0.56152 0.28271
 O787 O 0.89716 0.47191 0.35745
 O788 O 0.86394 0.47189 0.32406
 C789 C 0.88717 0.46216 0.33419
 C790 C 0.90240 0.43879 0.31924
 C791 C 0.89265 0.42868 0.29272
 H792 H 0.87437 0.43875 0.28275
 O793 O 1.02799 0.64193 0.39654
 O794 O 1.02796 0.67537 0.36335
 C795 C 1.03772 0.66521 0.38657
 C796 C 1.06110 0.68017 0.40176
 C797 C 1.07112 0.70671 0.39198
 H798 H 1.06095 0.71666 0.37373
 O799 O 0.97265 0.35797 0.39673
 O800 O 0.97254 0.32452 0.36358
 C801 C 0.96284 0.33471 0.38680
 C802 C 0.93946 0.31979 0.40207
 C803 C 0.92952 0.29316 0.39247
 H804 H 0.93972 0.28313 0.37429
 O805 O 1.14225 0.60293 0.47211
 O806 O 1.17558 0.63620 0.47205
 C807 C 1.16548 0.61296 0.46233
 C808 C 1.18046 0.59782 0.43893
 C809 C 1.20700 0.60762 0.42897
 H810 H 1.21693 0.62582 0.43920
 O811 O 0.85779 0.39683 0.47209
 O812 O 0.82453 0.36349 0.47197
 C813 C 0.83462 0.38674 0.46223
 C814 C 0.81973 0.40181 0.43870
 C815 C 0.79329 0.39192 0.42852
 H816 H 0.78334 0.37368 0.43868
 Cu817 Cu 1.00055 0.38070 0.38032
 Cu818 Cu 1.00043 0.34065 0.34043
 Cu819 Cu 1.00015 0.61907 0.38023
 Cu820 Cu 1.00009 0.65913 0.34031
 Cu821 Cu 0.88088 0.49972 0.38034
 Cu822 Cu 0.84088 0.49974 0.34036
 Cu823 Cu 1.11960 0.50002 0.38017
 Cu824 Cu 1.15966 0.50011 0.34028
 C825 C 0.92598 0.42548 0.33217
 H826 H 0.93335 0.43289 0.35281
 C827 C 0.90598 0.40534 0.27928
 C828 C 1.07471 0.57445 0.33196
 H829 H 1.06725 0.56690 0.35252
 C830 C 1.09496 0.59495 0.27927
 C831 C 0.83264 0.42533 0.42530
 H832 H 0.85322 0.43280 0.43277
 C833 C 0.77991 0.40504 0.40503
 C834 C 1.16756 0.57434 0.42544
 H835 H 1.14690 0.56694 0.43275
 C836 C 1.22051 0.59448 0.40559
 C837 C 0.92600 0.33279 0.42554
 H838 H 0.93327 0.35352 0.43280
 C839 C 0.90625 0.27965 0.40582
 C840 C 1.07451 0.66726 0.42530
 H841 H 1.06716 0.64661 0.43269
 C842 C 1.09445 0.72022 0.40523
 C843 C 0.92568 0.57422 0.33211
 H844 H 0.93313 0.56678 0.35273
 C845 C 0.90547 0.59441 0.27929
 C846 C 1.07490 0.42552 0.33200
 H847 H 1.06739 0.43301 0.35256
 C848 C 1.09529 0.40521 0.27931
 C849 C 1.07480 0.33230 0.42529
 H850 H 1.06735 0.35291 0.43274
 C851 C 1.09502 0.27953 0.40508
 C852 C 0.92570 0.66724 0.42523
 H853 H 0.93308 0.64659 0.43263
 C854 C 0.90566 0.72015 0.40513
 C855 C 0.83281 0.57412 0.42535
 H856 H 0.85352 0.56683 0.43264
 C857 C 0.77970 0.59394 0.40559
 C858 C 1.16777 0.42544 0.42507
 H859 H 1.14719 0.43290 0.43256
 C860 C 1.22053 0.40522 0.40474
 O861 O 1.02803 0.39679 0.64219
 O862 O 1.02809 0.36355 0.67558
 C863 C 1.03783 0.38677 0.66543
 C864 C 1.06132 0.40188 0.68033
 C865 C 1.07143 0.39206 0.70683
 H866 H 1.06125 0.37385 0.71682
 O867 O 0.97219 0.60288 0.64200
 O868 O 0.97215 0.63606 0.67541
 C869 C 0.96242 0.61286 0.66526
 C870 C 0.93903 0.59767 0.68020
 C871 C 0.92905 0.60735 0.70679
 H872 H 0.93925 0.62554 0.71679
 O873 O 0.85777 0.52767 0.60283
 O874 O 0.82442 0.52775 0.63609
 C875 C 0.83454 0.53747 0.61285
 C876 C 0.81962 0.56091 0.59769
 C877 C 0.79308 0.57097 0.60743
 H878 H 0.78309 0.56079 0.62565
 O879 O 1.14249 0.47209 0.60281
 O880 O 1.17587 0.47203 0.63604
 C881 C 1.16575 0.46233 0.61279
 C882 C 1.18071 0.43897 0.59755
 C883 C 1.20728 0.42892 0.60725
 H884 H 1.21727 0.43904 0.62549
 O885 O 1.10340 0.35775 0.52759
 O886 O 1.13664 0.32438 0.52770
 C887 C 1.11342 0.33453 0.53744
 C888 C 1.09827 0.31962 0.56093
 C889 C 1.10807 0.29313 0.57110
 H890 H 1.12633 0.28316 0.56099
 O891 O 0.89706 0.64208 0.52763
 O892 O 0.86383 0.67546 0.52758
 C893 C 0.88704 0.66534 0.53735
 C894 C 0.90220 0.68030 0.56076
 C895 C 0.89248 0.70687 0.57075
 H896 H 0.87429 0.71688 0.56054
 O897 O 0.89690 0.47193 0.64195
 O898 O 0.86369 0.47196 0.67536
 C899 C 0.88690 0.46219 0.66522
 C900 C 0.90206 0.43879 0.68021
 C901 C 0.89220 0.42873 0.70670
 H902 H 0.87393 0.43889 0.71660
 O903 O 1.10326 0.52765 0.64202
 O904 O 1.13646 0.52765 0.67544
 C905 C 1.11323 0.53737 0.66530
 C906 C 1.09798 0.56072 0.68027
 C907 C 1.10762 0.57067 0.70689
 H908 H 1.12581 0.56048 0.71691
 O909 O 0.97226 0.35765 0.60313
 O910 O 0.97228 0.32427 0.63637
 C911 C 0.96249 0.33441 0.61316
 C912 C 0.93899 0.31951 0.59807
 C913 C 0.92875 0.29310 0.60800
 H914 H 0.93884 0.28316 0.62630
 O915 O 1.02791 0.64207 0.60296
 O916 O 1.02791 0.67542 0.63622
 C917 C 1.03765 0.66532 0.61298
 C918 C 1.06102 0.68031 0.59780
 C919 C 1.07100 0.70689 0.60751
 H920 H 1.06083 0.71686 0.62573
 O921 O 0.85764 0.39680 0.52786
 O922 O 0.82436 0.36349 0.52779
 C923 C 0.83440 0.38672 0.53758
 C924 C 0.81941 0.40183 0.56103
 C925 C 0.79294 0.39198 0.57118
 H926 H 0.78300 0.37371 0.56108
 O927 O 1.14238 0.60315 0.52787
 O928 O 1.17569 0.63643 0.52784
 C929 C 1.16560 0.61321 0.53764
 C930 C 1.18056 0.59812 0.56113
 C931 C 1.20699 0.60803 0.57131
 H932 H 1.21689 0.62633 0.56121
 O933 O 1.02791 0.60285 0.64200
 O934 O 1.02792 0.63603 0.67542
 C935 C 1.03766 0.61282 0.66528
 C936 C 1.06104 0.59761 0.68025
 C937 C 1.07097 0.60726 0.70687
 H938 H 1.06074 0.62543 0.71687
 O939 O 0.97227 0.39678 0.64223
 O940 O 0.97227 0.36355 0.67562
 C941 C 0.96249 0.38676 0.66548
 C942 C 0.93901 0.40190 0.68038
 C943 C 0.92883 0.39212 0.70688
 H944 H 0.93893 0.37388 0.71690
 O945 O 1.14252 0.52784 0.60306
 O946 O 1.17588 0.52783 0.63631
 C947 C 1.16574 0.53764 0.61311
 C948 C 1.18063 0.56116 0.59802
 C949 C 1.20706 0.57137 0.60791
 H950 H 1.21702 0.56125 0.62618
 O951 O 0.85762 0.47193 0.60298
 O952 O 0.82427 0.47197 0.63624
 C953 C 0.83437 0.46219 0.61303
 C954 C 0.81942 0.43875 0.59792
 C955 C 0.79295 0.42863 0.60778
 H956 H 0.78301 0.43877 0.62603
 O957 O 1.10312 0.64214 0.52775
 O958 O 1.13628 0.67557 0.52771
 C959 C 1.11308 0.66542 0.53747
 C960 C 1.09789 0.68037 0.56086
 C961 C 1.10758 0.70694 0.57085
 H962 H 1.12576 0.71695 0.56066
 O963 O 0.89689 0.35779 0.52796
 O964 O 0.86375 0.32433 0.52789
 C965 C 0.88692 0.33450 0.53770
 C966 C 0.90204 0.31957 0.56118
 C967 C 0.89211 0.29316 0.57141
 H968 H 0.87380 0.28327 0.56133
 O969 O 1.10347 0.47192 0.64206
 O970 O 1.13669 0.47187 0.67545
 C971 C 1.11349 0.46212 0.66531
 C972 C 1.09832 0.43869 0.68026
 C973 C 1.10813 0.42856 0.70677
 H974 H 1.12641 0.43866 0.71671
 O975 O 0.89685 0.52764 0.64198
 O976 O 0.86366 0.52772 0.67540
 C977 C 0.88688 0.53742 0.66525
 C978 C 0.90210 0.56079 0.68020
 C979 C 0.89241 0.57078 0.70679
 H980 H 0.87421 0.56061 0.71679
 O981 O 0.97221 0.64204 0.60291
 O982 O 0.97216 0.67539 0.63616
 C983 C 0.96244 0.66529 0.61292
 C984 C 0.93906 0.68027 0.59772
 C985 C 0.92906 0.70684 0.60741
 H986 H 0.93923 0.71682 0.62563
 O987 O 1.02802 0.35778 0.60298
 O988 O 1.02809 0.32439 0.63621
 C989 C 1.03783 0.33454 0.61298
 C990 C 1.06130 0.31963 0.59783
 C991 C 1.07142 0.29314 0.60767
 H992 H 1.06126 0.28319 0.62591
 O993 O 1.14248 0.39691 0.52743
 O994 O 1.17589 0.36369 0.52752
 C995 C 1.16575 0.38693 0.53720
 C996 C 1.18070 0.40213 0.56058
 C997 C 1.20726 0.39239 0.57057
 H998 H 1.21724 0.37419 0.56037
 O999 O 0.85790 0.60302 0.52767
 O1000 O 0.82451 0.63624 0.52762
 C1001 C 0.83464 0.61303 0.53740
 C1002 C 0.81966 0.59787 0.56081
 C1003 C 0.79313 0.60764 0.57086
 H1004 H 0.78317 0.62589 0.56071
 Cu1005 Cu 1.00013 0.38058 0.61931
 Cu1006 Cu 1.00019 0.34059 0.65928
 Cu1007 Cu 1.00006 0.61914 0.61913
 Cu1008 Cu 1.00003 0.65906 0.65916
 Cu1009 Cu 0.88068 0.38070 0.50005
 Cu1010 Cu 0.84085 0.34059 0.49992
 Cu1011 Cu 1.11963 0.38056 0.49962
 Cu1012 Cu 1.15962 0.34061 0.49972
 Cu1013 Cu 0.88085 0.61917 0.49980
 Cu1014 Cu 0.84085 0.65914 0.49969
 Cu1015 Cu 1.11941 0.61924 0.49994
 Cu1016 Cu 1.15932 0.65928 0.49987
 Cu1017 Cu 0.88060 0.49979 0.61909
 Cu1018 Cu 0.84067 0.49986 0.65912
 Cu1019 Cu 1.11961 0.49987 0.61915
 Cu1020 Cu 1.15957 0.49984 0.65915
 C1021 C 1.07474 0.42537 0.66737
 H1022 H 1.06732 0.43279 0.64674
 C1023 C 1.09486 0.40522 0.72025
 C1024 C 0.92558 0.57421 0.66723
 H1025 H 0.93290 0.56689 0.64654
 C1026 C 0.90572 0.59409 0.72028
 C1027 C 0.83258 0.57433 0.57420
 H1028 H 0.85323 0.56694 0.56683
 C1029 C 0.77964 0.59436 0.59420
 C1030 C 1.16775 0.42561 0.57403
 H1031 H 1.14707 0.43296 0.56670
 C1032 C 1.22073 0.40560 0.59394
 C1033 C 1.07470 0.33255 0.57429
 H1034 H 1.06728 0.35317 0.56684
 C1035 C 1.09483 0.27970 0.59449
 C1036 C 0.92567 0.66733 0.57421
 H1037 H 0.93301 0.64665 0.56688
 C1038 C 0.90575 0.72034 0.59410
 C1039 C 0.92564 0.42542 0.66738
 H1040 H 0.93308 0.43281 0.64675
 C1041 C 0.90539 0.40537 0.72023
 C1042 C 1.07451 0.57416 0.66728
 H1043 H 1.06723 0.56687 0.64656
 C1044 C 1.09428 0.59396 0.72038
 C1045 C 0.92565 0.33242 0.57449
 H1046 H 0.93316 0.35297 0.56698
 C1047 C 0.90527 0.27974 0.59485
 C1048 C 1.07443 0.66738 0.57430
 H1049 H 1.06712 0.64670 0.56696
 C1050 C 1.09431 0.72040 0.59420
 C1051 C 0.83231 0.42539 0.57437
 H1052 H 0.85291 0.43283 0.56692
 C1053 C 0.77951 0.40522 0.59459
 C1054 C 1.16771 0.57451 0.57446
 H1055 H 1.14714 0.56702 0.56698
 C1056 C 1.22044 0.59483 0.59473
 O1057 O 0.47202 0.89688 0.35804
 O1058 O 0.47209 0.86371 0.32461
 C1059 C 0.46231 0.88691 0.33475
 C1060 C 0.43893 0.90208 0.31976
 C1061 C 0.42891 0.89226 0.29325
 H1062 H 0.43908 0.87400 0.28334
 O1063 O 0.52790 1.10353 0.35805
 O1064 O 0.52790 1.13669 0.32458
 C1065 C 0.53763 1.11348 0.33475
 C1066 C 0.56099 1.09827 0.31979
 C1067 C 0.57098 1.10801 0.29323
 H1068 H 0.56081 1.12625 0.28326
 O1069 O 0.35771 0.97239 0.39688
 O1070 O 0.32443 0.97240 0.36354
 C1071 C 0.33448 0.96265 0.38681
 C1072 C 0.31949 0.93925 0.40194
 C1073 C 0.29297 0.92922 0.39214
 H1074 H 0.28302 0.93941 0.37390
 O1075 O 0.64222 1.02802 0.39702
 O1076 O 0.67555 1.02803 0.36374
 C1077 C 0.66548 1.03775 0.38700
 C1078 C 0.68051 1.06107 0.40222
 C1079 C 0.70714 1.07097 0.39257
 H1080 H 0.71712 1.06078 0.37437
 O1081 O 0.39668 0.85774 0.47193
 O1082 O 0.36338 0.82445 0.47200
 C1083 C 0.38661 0.83450 0.46221
 C1084 C 0.40173 0.81950 0.43880
 C1085 C 0.39188 0.79302 0.42866
 H1086 H 0.37359 0.78311 0.43876
 O1087 O 0.60353 1.14260 0.47207
 O1088 O 0.63678 1.17594 0.47199
 C1089 C 0.61357 1.16582 0.46224
 C1090 C 0.59843 1.18075 0.43875
 C1091 C 0.60834 1.20715 0.42846
 H1092 H 0.62669 1.21705 0.43847
 O1093 O 0.39710 1.02799 0.35790
 O1094 O 0.36399 1.02804 0.32439
 C1095 C 0.38719 1.03775 0.33460
 C1096 C 0.40241 1.06114 0.31969
 C1097 C 0.39280 1.07104 0.29304
 H1098 H 0.37470 1.06075 0.28298
 O1099 O 0.60293 0.97238 0.35798
 O1100 O 0.63608 0.97236 0.32452
 C1101 C 0.61288 0.96262 0.33471
 C1102 C 0.59768 0.93921 0.31979
 C1103 C 0.60735 0.92924 0.29320
 H1104 H 0.62550 0.93946 0.28316
 O1105 O 0.52770 0.85770 0.39717
 O1106 O 0.52781 0.82438 0.36389
 C1107 C 0.53750 0.83448 0.38714
 C1108 C 0.56091 0.81954 0.40232
 C1109 C 0.57091 0.79296 0.39264
 H1110 H 0.56069 0.78294 0.37447
 O1111 O 0.47224 1.14281 0.39706
 O1112 O 0.47220 1.17612 0.36374
 C1113 C 0.46246 1.16604 0.38699
 C1114 C 0.43902 1.18098 0.40209
 C1115 C 0.42889 1.20747 0.39225
 H1116 H 0.43905 1.21743 0.37401
 O1117 O 0.35763 1.10359 0.47180
 O1118 O 0.32426 1.13682 0.47176
 C1119 C 0.33441 1.11362 0.46198
 C1120 C 0.31953 1.09849 0.43847
 C1121 C 0.29312 1.10837 0.42816
 H1122 H 0.28316 1.12668 0.43818
 O1123 O 0.64221 0.89703 0.47205
 O1124 O 0.67559 0.86379 0.47213
 C1125 C 0.66547 0.88699 0.46231
 C1126 C 0.68040 0.90210 0.43885
 C1127 C 0.70688 0.89228 0.42869
 H1128 H 0.71684 0.87401 0.43879
 O1129 O 0.47221 1.10355 0.35808
 O1130 O 0.47218 1.13670 0.32460
 C1131 C 0.46247 1.11348 0.33477
 C1132 C 0.43916 1.09820 0.31978
 C1133 C 0.42924 1.10780 0.29312
 H1134 H 0.43939 1.12602 0.28311
 O1135 O 0.52772 0.89690 0.35810
 O1136 O 0.52783 0.86374 0.32466
 C1137 C 0.53751 0.88696 0.33483
 C1138 C 0.56086 0.90222 0.31987
 C1139 C 0.57083 0.89255 0.29327
 H1140 H 0.56067 0.87433 0.28329
 O1141 O 0.64220 0.97231 0.39693
 O1142 O 0.67551 0.97227 0.36362
 C1143 C 0.66542 0.96252 0.38686
 C1144 C 0.68036 0.93906 0.40196
 C1145 C 0.70684 0.92895 0.39210
 H1146 H 0.71677 0.93911 0.37385
 O1147 O 0.35774 1.02813 0.39675
 O1148 O 0.32448 1.02819 0.36339
 C1149 C 0.33456 1.03796 0.38663
 C1150 C 0.31962 1.06148 0.40165
 C1151 C 0.29321 1.07165 0.39166
 H1152 H 0.28333 1.06149 0.37339
 O1153 O 0.39680 1.14266 0.47199
 O1154 O 0.36357 1.17605 0.47196
 C1155 C 0.38681 1.16593 0.46226
 C1156 C 0.40202 1.18092 0.43890
 C1157 C 0.39219 1.20740 0.42877
 H1158 H 0.37389 1.21732 0.43885
 O1159 O 0.60308 0.85794 0.47217
 O1160 O 0.63630 0.82454 0.47228
 C1161 C 0.61308 0.83464 0.46250
 C1162 C 0.59789 0.81962 0.43916
 C1163 C 0.60760 0.79303 0.42919
 H1164 H 0.62584 0.78307 0.43935
 O1165 O 0.60307 1.02812 0.35791
 O1166 O 0.63623 1.02814 0.32447
 C1167 C 0.61304 1.03789 0.33464
 C1168 C 0.59786 1.06133 0.31972
 C1169 C 0.60757 1.07138 0.29316
 H1170 H 0.62578 1.06122 0.28315
 O1171 O 0.39684 0.97225 0.35777
 O1172 O 0.36371 0.97227 0.32428
 C1173 C 0.38688 0.96248 0.33449
 C1174 C 0.40204 0.93901 0.31961
 C1175 C 0.39230 0.92888 0.29309
 H1176 H 0.37408 0.93900 0.28306
 O1177 O 0.52801 1.14271 0.39706
 O1178 O 0.52801 1.17602 0.36374
 C1179 C 0.53781 1.16591 0.38696
 C1180 C 0.56136 1.18080 0.40198
 C1181 C 0.57157 1.20719 0.39200
 H1182 H 0.56141 1.21712 0.37374
 O1183 O 0.47196 0.85759 0.39699
 O1184 O 0.47203 0.82427 0.36371
 C1185 C 0.46222 0.83436 0.38691
 C1186 C 0.43873 0.81942 0.40198
 C1187 C 0.42860 0.79296 0.39213
 H1188 H 0.43876 0.78299 0.37390
 O1189 O 0.64239 1.10321 0.47229
 O1190 O 0.67581 1.13639 0.47223
 C1191 C 0.66566 1.11316 0.46254
 C1192 C 0.68060 1.09792 0.43918
 C1193 C 0.70722 1.10752 0.42925
 H1194 H 0.71727 1.12566 0.43948
 O1195 O 0.35771 0.89703 0.47192
 O1196 O 0.32425 0.86389 0.47198
 C1197 C 0.33442 0.88708 0.46220
 C1198 C 0.31947 0.90228 0.43880
 C1199 C 0.29295 0.89254 0.42871
 H1200 H 0.28297 0.87429 0.43883
 Cu1201 Cu 0.49984 0.88058 0.38092
 Cu1202 Cu 0.49996 0.84068 0.34086
 Cu1203 Cu 0.50008 1.11984 0.38092
 Cu1204 Cu 0.50006 1.15973 0.34082
 Cu1205 Cu 0.38067 1.00017 0.38067
 Cu1206 Cu 0.34082 1.00023 0.34055
 Cu1207 Cu 0.61928 1.00022 0.38080
 Cu1208 Cu 0.65917 1.00020 0.34073
 C1209 C 0.42554 0.92563 0.33262
 H1210 H 0.43290 0.93305 0.35326
 C1211 C 0.40557 0.90547 0.27972
 C1212 C 0.57439 1.07474 0.33271
 H1213 H 0.56705 1.06738 0.35339
 C1214 C 0.59430 1.09476 0.27973
 C1215 C 0.33241 0.92581 0.42545
 H1216 H 0.35305 0.93317 0.43285
 C1217 C 0.27951 0.90584 0.40535
 C1218 C 0.66757 1.07451 0.42571
 H1219 H 0.64685 1.06726 0.43300
 C1220 C 0.72069 1.09422 0.40592
 C1221 C 0.42533 0.83235 0.42549
 H1222 H 0.43277 0.85295 0.43292
 C1223 C 0.40515 0.77955 0.40530
 C1224 C 0.57477 1.16790 0.42553
 H1225 H 0.56727 1.14736 0.43307
 C1226 C 0.59509 1.22056 0.40505
 C1227 C 0.42577 1.07469 0.33274
 H1228 H 0.43302 1.06743 0.35349
 C1229 C 0.40604 1.09439 0.27956
 C1230 C 0.57426 0.92573 0.33281
 H1231 H 0.56695 0.93303 0.35351
 C1232 C 0.59410 0.90589 0.27974
 C1233 C 0.57436 0.83254 0.42576
 H1234 H 0.56702 0.85322 0.43307
 C1235 C 0.59427 0.77951 0.40590
 C1236 C 0.42561 1.16804 0.42560
 H1237 H 0.43303 1.14742 0.43303
 C1238 C 0.40544 1.22086 0.40541
 C1239 C 0.33245 1.07487 0.42522
 H1240 H 0.35300 1.06740 0.43277
 C1241 C 0.27976 1.09512 0.40472
 C1242 C 0.66748 0.92567 0.42550
 H1243 H 0.64687 0.93310 0.43295
 C1244 C 0.72029 0.90553 0.40528
 O1245 O 0.52756 0.89728 0.64218
 O1246 O 0.52762 0.86407 0.67559
 C1247 C 0.53735 0.88729 0.66543
 C1248 C 0.56078 0.90246 0.68036
 C1249 C 0.57082 0.89270 0.70691
 H1250 H 0.56064 0.87449 0.71690
 O1251 O 0.47221 1.10348 0.64215
 O1252 O 0.47215 1.13675 0.67549
 C1253 C 0.46242 1.11352 0.66538
 C1254 C 0.43897 1.09840 0.68031
 C1255 C 0.42888 1.10823 0.70680
 H1256 H 0.43906 1.12645 0.71676
 O1257 O 0.35770 1.02832 0.60302
 O1258 O 0.32427 1.02835 0.63620
 C1259 C 0.33442 1.03807 0.61297
 C1260 C 0.31945 1.06143 0.59774
 C1261 C 0.29291 1.07150 0.60747
 H1262 H 0.28294 1.06139 0.62574
 O1263 O 0.64216 0.97265 0.60309
 O1264 O 0.67550 0.97247 0.63635
 C1265 C 0.66539 0.96282 0.61309
 C1266 C 0.68033 0.93943 0.59787
 C1267 C 0.70693 0.92944 0.60753
 H1268 H 0.71694 0.93961 0.62573
 O1269 O 0.60300 0.85815 0.52789
 O1270 O 0.63623 0.82476 0.52805
 C1271 C 0.61299 0.83491 0.53773
 C1272 C 0.59778 0.81999 0.56114
 C1273 C 0.60750 0.79343 0.57117
 H1274 H 0.62572 0.78344 0.56102
 O1275 O 0.39670 1.14254 0.52772
 O1276 O 0.36348 1.17593 0.52775
 C1277 C 0.38669 1.16578 0.53752
 C1278 C 0.40186 1.18069 0.56098
 C1279 C 0.39207 1.20720 0.57109
 H1280 H 0.37380 1.21717 0.56097
 O1281 O 0.39679 0.97261 0.64224
 O1282 O 0.36351 0.97261 0.67557
 C1283 C 0.38673 0.96284 0.66548
 C1284 C 0.40182 0.93937 0.68044
 C1285 C 0.39194 0.92926 0.70691
 H1286 H 0.37369 0.93943 0.71684
 O1287 O 0.60310 1.02835 0.64232
 O1288 O 0.63628 1.02821 0.67575
 C1289 C 0.61310 1.03804 0.66560
 C1290 C 0.59799 1.06151 0.68054
 C1291 C 0.60782 1.07159 0.70704
 H1292 H 0.62604 1.06141 0.71700
 O1293 O 0.47183 0.85804 0.60316
 O1294 O 0.47184 0.82467 0.63642
 C1295 C 0.46209 0.83478 0.61319
 C1296 C 0.43868 0.81983 0.59801
 C1297 C 0.42854 0.79333 0.60781
 H1298 H 0.43861 0.78337 0.62610
 O1299 O 0.52789 1.14262 0.60300
 O1300 O 0.52790 1.17605 0.63617
 C1301 C 0.53764 1.16589 0.61296
 C1302 C 0.56106 1.18082 0.59777
 C1303 C 0.57114 1.20735 0.60749
 H1304 H 0.56100 1.21736 0.62571
 O1305 O 0.35783 0.89717 0.52764
 O1306 O 0.32437 0.86404 0.52776
 C1307 C 0.33457 0.88725 0.53745
 C1308 C 0.31965 0.90249 0.56084
 C1309 C 0.29308 0.89281 0.57083
 H1310 H 0.28308 0.87462 0.56065
 O1311 O 0.64256 1.10361 0.52805
 O1312 O 0.67594 1.13682 0.52805
 C1313 C 0.66578 1.11364 0.53786
 C1314 C 0.68064 1.09856 0.56143
 C1315 C 0.70702 1.10847 0.57176
 H1316 H 0.71698 1.12678 0.56171
 O1317 O 0.52795 1.10361 0.64228
 O1318 O 0.52795 1.13688 0.67561
 C1319 C 0.53771 1.11365 0.66552
 C1320 C 0.56115 1.09850 0.68050
 C1321 C 0.57128 1.10830 0.70701
 H1322 H 0.56118 1.12658 0.71695
 O1323 O 0.47182 0.89718 0.64228
 O1324 O 0.47183 0.86397 0.67569
 C1325 C 0.46206 0.88718 0.66554
 C1326 C 0.43864 0.90236 0.68048
 C1327 C 0.42845 0.89254 0.70695
 H1328 H 0.43851 0.87424 0.71691
 O1329 O 0.64231 1.02840 0.60329
 O1330 O 0.67563 1.02827 0.63658
 C1331 C 0.66554 1.03812 0.61338
 C1332 C 0.68052 1.06161 0.59834
 C1333 C 0.70689 1.07182 0.60837
 H1334 H 0.71675 1.06171 0.62669
 O1335 O 0.35784 0.97259 0.60296
 O1336 O 0.32440 0.97258 0.63614
 C1337 C 0.33458 0.96283 0.61293
 C1338 C 0.31965 0.93942 0.59774
 C1339 C 0.29307 0.92942 0.60743
 H1340 H 0.28306 0.93961 0.62563
 O1341 O 0.60320 1.14248 0.52780
 O1342 O 0.63642 1.17585 0.52779
 C1343 C 0.61318 1.16574 0.53751
 C1344 C 0.59797 1.18073 0.56086
 C1345 C 0.60775 1.20726 0.57087
 H1346 H 0.62599 1.21720 0.56070
 O1347 O 0.39683 0.85794 0.52768
 O1348 O 0.36352 0.82465 0.52780
 C1349 C 0.38677 0.83474 0.53751
 C1350 C 0.40188 0.81982 0.56098
 C1351 C 0.39205 0.79333 0.57106
 H1352 H 0.37383 0.78338 0.56086
 O1353 O 0.60299 0.97259 0.64218
 O1354 O 0.63618 0.97242 0.67561
 C1355 C 0.61295 0.96275 0.66543
 C1356 C 0.59773 0.93933 0.68035
 C1357 C 0.60746 0.92926 0.70690
 H1358 H 0.62569 0.93940 0.71689
 O1359 O 0.39684 1.02835 0.64215
 O1360 O 0.36358 1.02841 0.67549
 C1361 C 0.38681 1.03814 0.66538
 C1362 C 0.40198 1.06157 0.68032
 C1363 C 0.39218 1.07171 0.70681
 H1364 H 0.37391 1.06163 0.71678
 O1365 O 0.47214 1.14258 0.60301
 O1366 O 0.47210 1.17600 0.63618
 C1367 C 0.46234 1.16582 0.61299
 C1368 C 0.43885 1.18072 0.59784
 C1369 C 0.42876 1.20723 0.60763
 H1370 H 0.43893 1.21721 0.62585
 O1371 O 0.52757 0.85812 0.60312
 O1372 O 0.52764 0.82475 0.63638
 C1373 C 0.53737 0.83488 0.61315
 C1374 C 0.56081 0.81996 0.59799
 C1375 C 0.57083 0.79339 0.60773
 H1376 H 0.56064 0.78338 0.62592
 O1377 O 0.64209 0.89728 0.52779
 O1378 O 0.67548 0.86406 0.52793
 C1379 C 0.66534 0.88730 0.53759
 C1380 C 0.68030 0.90253 0.56095
 C1381 C 0.70689 0.89285 0.57091
 H1382 H 0.71688 0.87465 0.56071
 O1383 O 0.35761 1.10341 0.52756
 O1384 O 0.32423 1.13664 0.52758
 C1385 C 0.33436 1.11341 0.53731
 C1386 C 0.31941 1.09824 0.56072
 C1387 C 0.29288 1.10801 0.57074
 H1388 H 0.28290 1.12622 0.56053
 Cu1389 Cu 0.49968 0.88098 0.61935
 Cu1390 Cu 0.49974 0.84102 0.65937
 Cu1391 Cu 0.50007 1.11974 0.61929
 Cu1392 Cu 0.50002 1.15977 0.65920
 Cu1393 Cu 0.38061 0.88078 0.49977
 Cu1394 Cu 0.34052 0.84092 0.49990
 Cu1395 Cu 0.61927 0.88093 0.49995
 Cu1396 Cu 0.65925 0.84094 0.50012
 Cu1397 Cu 0.38051 1.11971 0.49976
 Cu1398 Cu 0.34054 1.15970 0.49977
 Cu1399 Cu 0.61959 1.11964 0.50005
 Cu1400 Cu 0.65958 1.15959 0.50001
 Cu1401 Cu 0.38063 1.00048 0.61927
 Cu1402 Cu 0.34060 1.00049 0.65919
 Cu1403 Cu 0.61932 1.00051 0.61938
 Cu1404 Cu 0.65923 1.00031 0.65943
 C1405 C 0.57421 0.92596 0.66740
 H1406 H 0.56686 0.93333 0.64673
 C1407 C 0.59419 0.90592 0.72037
 C1408 C 0.42555 1.07489 0.66740
 H1409 H 0.43296 1.06746 0.64678
 C1410 C 0.40547 1.09507 0.72025
 C1411 C 0.33237 1.07477 0.57418
 H1412 H 0.35303 1.06740 0.56683
 C1413 C 0.27944 1.09483 0.59414
 C1414 C 0.66734 0.92601 0.57439
 H1415 H 0.64664 0.93333 0.56709
 C1416 C 0.72040 0.90611 0.59422
 C1417 C 0.57426 0.83293 0.57452
 H1418 H 0.56691 0.85360 0.56715
 C1419 C 0.59420 0.77994 0.59449
 C1420 C 0.42543 1.16778 0.57434
 H1421 H 0.43284 1.14715 0.56693
 C1422 C 0.40534 1.22066 0.59444
 C1423 C 0.42535 0.92595 0.66756
 H1424 H 0.43281 0.93338 0.64695
 C1425 C 0.40506 0.90581 0.72036
 C1426 C 0.57448 1.07493 0.66761
 H1427 H 0.56706 1.06752 0.64699
 C1428 C 0.59464 1.09502 0.72047
 C1429 C 0.42537 0.83274 0.57441
 H1430 H 0.43279 0.85336 0.56700
 C1431 C 0.40519 0.77989 0.59450
 C1432 C 0.57445 1.16784 0.57427
 H1433 H 0.56706 1.14718 0.56693
 C1434 C 0.59452 1.22076 0.59422
 C1435 C 0.33262 0.92597 0.57426
 H1436 H 0.35331 0.93329 0.56693
 C1437 C 0.27959 0.90609 0.59415
 C1438 C 0.66773 1.07496 0.57470
 H1439 H 0.64720 1.06746 0.56713
 C1440 C 0.72034 1.09528 0.59526
 O1441 O 0.60290 0.52728 1.14233
 O1442 O 0.63610 0.52737 1.17574
 C1443 C 0.61288 0.53709 1.16557
 C1444 C 0.59768 0.56053 1.18046
 C1445 C 0.60734 0.57052 1.20705
 H1446 H 0.62550 0.56030 1.21710
 O1447 O 0.39671 0.47194 1.14245
 O1448 O 0.36351 0.47199 1.17586
 C1449 C 0.38670 0.46220 1.16572
 C1450 C 0.40181 0.43873 1.18067
 C1451 C 0.39189 0.42860 1.20712
 H1452 H 0.37362 0.43876 1.21702
 O1453 O 0.52768 0.64215 1.10308
 O1454 O 0.52779 0.67545 1.13638
 C1455 C 0.53748 0.66536 1.11312
 C1456 C 0.56087 0.68031 1.09795
 C1457 C 0.57085 0.70689 1.10763
 H1458 H 0.56063 0.71691 1.12580
 O1459 O 0.47215 0.35786 1.10329
 O1460 O 0.47202 0.32435 1.13641
 C1461 C 0.46236 0.33457 1.11318
 C1462 C 0.43902 0.31966 1.09787
 C1463 C 0.42913 0.29299 1.10742
 H1464 H 0.43934 0.28293 1.12558
 O1465 O 0.64211 0.60277 1.02818
 O1466 O 0.67549 0.63598 1.02820
 C1467 C 0.66535 0.61277 1.03796
 C1468 C 0.68028 0.59760 1.06141
 C1469 C 0.70678 0.60738 1.07152
 H1470 H 0.71673 0.62565 1.06140
 O1471 O 0.35736 0.39684 1.02803
 O1472 O 0.32405 0.36356 1.02810
 C1473 C 0.33416 0.38678 1.03787
 C1474 C 0.31927 0.40186 1.06140
 C1475 C 0.29285 0.39196 1.07166
 H1476 H 0.28290 0.37368 1.06158
 O1477 O 0.47199 0.60297 1.14217
 O1478 O 0.47207 0.63612 1.17562
 C1479 C 0.46229 0.61293 1.16546
 C1480 C 0.43891 0.59778 1.18045
 C1481 C 0.42892 0.60760 1.20698
 H1482 H 0.43912 0.62583 1.21690
 O1483 O 0.52782 0.39667 1.14276
 O1484 O 0.52774 0.36333 1.17604
 C1485 C 0.53756 0.38655 1.16598
 C1486 C 0.56107 0.40157 1.18093
 C1487 C 0.57129 0.39159 1.20733
 H1488 H 0.56115 0.37332 1.21726
 O1489 O 0.64215 0.47159 1.10332
 O1490 O 0.67555 0.47160 1.13653
 C1491 C 0.66542 0.46185 1.11330
 C1492 C 0.68038 0.43847 1.09808
 C1493 C 0.70692 0.42837 1.10780
 H1494 H 0.71691 0.43845 1.12606
 O1495 O 0.35756 0.52773 1.10336
 O1496 O 0.32422 0.52781 1.13662
 C1497 C 0.33434 0.53754 1.11339
 C1498 C 0.31944 0.56102 1.09825
 C1499 C 0.29298 0.57121 1.10810
 H1500 H 0.28302 0.56111 1.12636
 O1501 O 0.39674 0.64234 1.02817
 O1502 O 0.36345 0.67567 1.02813
 C1503 C 0.38668 0.66558 1.03791
 C1504 C 0.40179 0.68054 1.06136
 C1505 C 0.39195 0.70700 1.07151
 H1506 H 0.37367 0.71695 1.06140
 O1507 O 0.60303 0.35754 1.02800
 O1508 O 0.63620 0.32409 1.02803
 C1509 C 0.61302 0.33428 1.03781
 C1510 C 0.59790 0.31940 1.06132
 C1511 C 0.60772 0.29291 1.07144
 H1512 H 0.62594 0.28293 1.06127
 O1513 O 0.39672 0.52769 1.14245
 O1514 O 0.36353 0.52778 1.17588
 C1515 C 0.38675 0.53749 1.16571
 C1516 C 0.40196 0.56092 1.18060
 C1517 C 0.39226 0.57105 1.20714
 H1518 H 0.37403 0.56096 1.21717
 O1519 O 0.60320 0.47154 1.14264
 O1520 O 0.63644 0.47156 1.17601
 C1521 C 0.61323 0.46179 1.16590
 C1522 C 0.59810 0.43835 1.18087
 C1523 C 0.60803 0.42808 1.20729
 H1524 H 0.62637 0.43810 1.21718
 O1525 O 0.52788 0.35768 1.10353
 O1526 O 0.52780 0.32418 1.13666
 C1527 C 0.53761 0.33438 1.11349
 C1528 C 0.56106 0.31944 1.09832
 C1529 C 0.57120 0.29294 1.10814
 H1530 H 0.56110 0.28299 1.12642
 O1531 O 0.47194 0.64229 1.10323
 O1532 O 0.47201 0.67558 1.13654
 C1533 C 0.46221 0.66552 1.11332
 C1534 C 0.43874 0.68051 1.09824
 C1535 C 0.42860 0.70697 1.10811
 H1536 H 0.43874 0.71690 1.12637
 O1537 O 0.35773 0.60313 1.02819
 O1538 O 0.32429 0.63630 1.02813
 C1539 C 0.33445 0.61311 1.03792
 C1540 C 0.31951 0.59796 1.06135
 C1541 C 0.29305 0.60785 1.07149
 H1542 H 0.28314 0.62614 1.06137
 O1543 O 0.64216 0.39660 1.02786
 O1544 O 0.67549 0.36332 1.02789
 C1545 C 0.66540 0.38656 1.03763
 C1546 C 0.68036 0.40168 1.06105
 C1547 C 0.70689 0.39189 1.07106
 H1548 H 0.71686 0.37369 1.06083
 O1549 O 0.47205 0.39671 1.14269
 O1550 O 0.47190 0.36337 1.17597
 C1551 C 0.46219 0.38663 1.16588
 C1552 C 0.43869 0.40176 1.18078
 C1553 C 0.42845 0.39192 1.20723
 H1554 H 0.43850 0.37363 1.21722
 O1555 O 0.52771 0.60289 1.14210
 O1556 O 0.52782 0.63604 1.17555
 C1557 C 0.53750 0.61282 1.16538
 C1558 C 0.56085 0.59755 1.18034
 C1559 C 0.57082 0.60722 1.20694
 H1560 H 0.56066 0.62545 1.21691
 O1561 O 0.35752 0.47197 1.10339
 O1562 O 0.32418 0.47200 1.13665
 C1563 C 0.33429 0.46222 1.11344
 C1564 C 0.31934 0.43876 1.09833
 C1565 C 0.29293 0.42857 1.10828
 H1566 H 0.28304 0.43867 1.12659
 O1567 O 0.64217 0.52733 1.10340
 O1568 O 0.67555 0.52740 1.13664
 C1569 C 0.66540 0.53714 1.11341
 C1570 C 0.68031 0.56061 1.09827
 C1571 C 0.70681 0.57070 1.10808
 H1572 H 0.71678 0.56053 1.12631
 O1573 O 0.39676 0.35799 1.02785
 O1574 O 0.36361 0.32454 1.02792
 C1575 C 0.38684 0.33470 1.03760
 C1576 C 0.40212 0.31972 1.06093
 C1577 C 0.39253 0.29306 1.07079
 H1578 H 0.37438 0.28304 1.06055
 O1579 O 0.60307 0.64198 1.02805
 O1580 O 0.63630 0.67535 1.02806
 C1581 C 0.61306 0.66525 1.03778
 C1582 C 0.59784 0.68025 1.06111
 C1583 C 0.60753 0.70684 1.07108
 H1584 H 0.62575 0.71681 1.06092
 Cu1585 Cu 0.61928 0.49942 1.11959
 Cu1586 Cu 0.65925 0.49949 1.15957
 Cu1587 Cu 0.38045 0.49983 1.11958
 Cu1588 Cu 0.34052 0.49990 1.15960
 Cu1589 Cu 0.49982 0.61926 1.11930
 Cu1590 Cu 0.49994 0.65914 1.15938
 Cu1591 Cu 0.49998 0.38058 1.11977
 Cu1592 Cu 0.49984 0.34046 1.15961
 C1593 C 0.57425 0.57402 1.16742
 H1594 H 0.56695 0.56670 1.14672
 C1595 C 0.59409 0.59389 1.22048
 C1596 C 0.42538 0.42534 1.16783
 H1597 H 0.43288 0.43279 1.14724
 C1598 C 0.40501 0.40517 1.22060
 C1599 C 0.57433 0.66732 1.07451
 H1600 H 0.56701 0.64663 1.06720
 C1601 C 0.59420 0.72035 1.09437
 C1602 C 0.42555 0.33271 1.07444
 H1603 H 0.43279 0.35346 1.06722
 C1604 C 0.40586 0.27951 1.09406
 C1605 C 0.66737 0.57403 1.07476
 H1606 H 0.64674 0.56663 1.06734
 C1607 C 0.72023 0.59411 1.09489
 C1608 C 0.33218 0.42543 1.07472
 H1609 H 0.35273 0.43291 1.06720
 C1610 C 0.27949 0.40514 1.09513
 C1611 C 0.42546 0.57427 1.16758
 H1612 H 0.43280 0.56685 1.14693
 C1613 C 0.40557 0.59443 1.22051
 C1614 C 0.57445 0.42512 1.16804
 H1615 H 0.56695 0.43265 1.14748
 C1616 C 0.59480 0.40467 1.22071
 C1617 C 0.66743 0.42515 1.07453
 H1618 H 0.64677 0.43255 1.06718
 C1619 C 0.72037 0.40504 1.09445
 C1620 C 0.33237 0.57437 1.07470
 H1621 H 0.35296 0.56691 1.06726
 C1622 C 0.27960 0.59466 1.09489
 C1623 C 0.42536 0.66763 1.07469
 H1624 H 0.43280 0.64703 1.06723
 C1625 C 0.40518 0.72042 1.09492
 C1626 C 0.57439 0.33235 1.07474
 H1627 H 0.56697 0.35297 1.06731
 C1628 C 0.59456 0.27948 1.09487
 O1629 O 0.60302 0.47194 0.85805
 O1630 O 0.63621 0.47201 0.82463
 C1631 C 0.61301 0.46224 0.83477
 C1632 C 0.59788 0.43884 0.81979
 C1633 C 0.60772 0.42883 0.79327
 H1634 H 0.62594 0.43904 0.78334
 O1635 O 0.39688 0.52772 0.85778
 O1636 O 0.36362 0.52783 0.82442
 C1637 C 0.38684 0.53754 0.83455
 C1638 C 0.40196 0.56099 0.81963
 C1639 C 0.39213 0.57108 0.79313
 H1640 H 0.37391 0.56090 0.78317
 O1641 O 0.47187 0.64224 0.89703
 O1642 O 0.47190 0.67563 0.86380
 C1643 C 0.46212 0.66550 0.88701
 C1644 C 0.43868 0.68044 0.90216
 C1645 C 0.42850 0.70692 0.89233
 H1646 H 0.43857 0.71688 0.87404
 O1647 O 0.52762 0.35763 0.89704
 O1648 O 0.52764 0.32426 0.86381
 C1649 C 0.53735 0.33436 0.88705
 C1650 C 0.56071 0.31936 0.90224
 C1651 C 0.57072 0.29283 0.89246
 H1652 H 0.56053 0.28289 0.87422
 O1653 O 0.64222 0.39643 0.97211
 O1654 O 0.67554 0.36314 0.97209
 C1655 C 0.66545 0.38637 0.96232
 C1656 C 0.68039 0.40150 0.93885
 C1657 C 0.70684 0.39164 0.92865
 H1658 H 0.71678 0.37333 0.93872
 O1659 O 0.35784 0.60301 0.97245
 O1660 O 0.32437 0.63616 0.97235
 C1661 C 0.33457 0.61295 0.96265
 C1662 C 0.31965 0.59772 0.93926
 C1663 C 0.29302 0.60734 0.92932
 H1664 H 0.28298 0.62550 0.93953
 O1665 O 0.52762 0.60300 0.85806
 O1666 O 0.52772 0.63623 0.82466
 C1667 C 0.53743 0.61299 0.83482
 C1668 C 0.56086 0.59781 0.81991
 C1669 C 0.57090 0.60754 0.79335
 H1670 H 0.56072 0.62575 0.78335
 O1671 O 0.47207 0.39686 0.85777
 O1672 O 0.47208 0.36364 0.82439
 C1673 C 0.46235 0.38687 0.83450
 C1674 C 0.43897 0.40204 0.81950
 C1675 C 0.42899 0.39228 0.79296
 H1676 H 0.43920 0.37408 0.78300
 O1677 O 0.64222 0.52754 0.89722
 O1678 O 0.67556 0.52764 0.86395
 C1679 C 0.66547 0.53731 0.88721
 C1680 C 0.68044 0.56067 0.90242
 C1681 C 0.70702 0.57065 0.89271
 H1682 H 0.71700 0.56048 0.87450
 O1683 O 0.35772 0.47198 0.89684
 O1684 O 0.32432 0.47207 0.86362
 C1685 C 0.33443 0.46229 0.88684
 C1686 C 0.31941 0.43894 0.90201
 C1687 C 0.29291 0.42891 0.89218
 H1688 H 0.28302 0.43904 0.87388
 O1689 O 0.60306 0.64187 0.97233
 O1690 O 0.63629 0.67523 0.97229
 C1691 C 0.61307 0.66511 0.96255
 C1692 C 0.59788 0.68010 0.93915
 C1693 C 0.60762 0.70665 0.92912
 H1694 H 0.62587 0.71659 0.93926
 O1695 O 0.39645 0.35787 0.97211
 O1696 O 0.36327 0.32445 0.97213
 C1697 C 0.38645 0.33462 0.96233
 C1698 C 0.40158 0.31970 0.93884
 C1699 C 0.39172 0.29324 0.92867
 H1700 H 0.37343 0.28331 0.93877
 O1701 O 0.39683 0.47199 0.85769
 O1702 O 0.36359 0.47205 0.82432
 C1703 C 0.38682 0.46228 0.83443
 C1704 C 0.40200 0.43889 0.81946
 C1705 C 0.39229 0.42882 0.79290
 H1706 H 0.37404 0.43894 0.78290
 O1707 O 0.60303 0.52768 0.85814
 O1708 O 0.63622 0.52778 0.82472
 C1709 C 0.61301 0.53749 0.83489
 C1710 C 0.59781 0.56092 0.81995
 C1711 C 0.60754 0.57095 0.79339
 H1712 H 0.62577 0.56080 0.78341
 O1713 O 0.47188 0.35775 0.89690
 O1714 O 0.47185 0.32438 0.86367
 C1715 C 0.46207 0.33453 0.88687
 C1716 C 0.43854 0.31966 0.90197
 C1717 C 0.42838 0.29321 0.89210
 H1718 H 0.43852 0.28325 0.87386
 O1719 O 0.52761 0.64211 0.89715
 O1720 O 0.52771 0.67551 0.86392
 C1721 C 0.53742 0.66534 0.88715
 C1722 C 0.56088 0.68022 0.90232
 C1723 C 0.57092 0.70677 0.89259
 H1724 H 0.56072 0.71680 0.87441
 O1725 O 0.35736 0.39702 0.97226
 O1726 O 0.32403 0.36376 0.97226
 C1727 C 0.33413 0.38699 0.96250
 C1728 C 0.31922 0.40213 0.93903
 C1729 C 0.29272 0.39237 0.92889
 H1730 H 0.28269 0.37417 0.93904
 O1731 O 0.64222 0.60278 0.97244
 O1732 O 0.67562 0.63598 0.97241
 C1733 C 0.66549 0.61276 0.96269
 C1734 C 0.68046 0.59756 0.93932
 C1735 C 0.70703 0.60725 0.92932
 H1736 H 0.71702 0.62545 0.93950
 O1737 O 0.52779 0.39670 0.85783
 O1738 O 0.52784 0.36348 0.82445
 C1739 C 0.53759 0.38669 0.83460
 C1740 C 0.56105 0.40186 0.81969
 C1741 C 0.57120 0.39213 0.79317
 H1742 H 0.56112 0.37389 0.78315
 O1743 O 0.47189 0.60313 0.85789
 O1744 O 0.47193 0.63637 0.82450
 C1745 C 0.46217 0.61315 0.83462
 C1746 C 0.43877 0.59799 0.81965
 C1747 C 0.42863 0.60780 0.79314
 H1748 H 0.43870 0.62608 0.78318
 O1749 O 0.35791 0.52769 0.89702
 O1750 O 0.32449 0.52781 0.86383
 C1751 C 0.33465 0.53749 0.88707
 C1752 C 0.31970 0.56084 0.90232
 C1753 C 0.29307 0.57076 0.89268
 H1754 H 0.28307 0.56057 0.87449
 O1755 O 0.64224 0.47180 0.89705
 O1756 O 0.67557 0.47186 0.86377
 C1757 C 0.66546 0.46204 0.88697
 C1758 C 0.68039 0.43852 0.90202
 C1759 C 0.70684 0.42837 0.89212
 H1760 H 0.71678 0.43855 0.87388
 O1761 O 0.60294 0.35747 0.97224
 O1762 O 0.63610 0.32402 0.97223
 C1763 C 0.61289 0.33419 0.96250
 C1764 C 0.59766 0.31926 0.93912
 C1765 C 0.60737 0.29272 0.92903
 H1766 H 0.62561 0.28271 0.93915
 O1767 O 0.39681 0.64226 0.97242
 O1768 O 0.36350 0.67557 0.97232
 C1769 C 0.38674 0.66547 0.96260
 C1770 C 0.40184 0.68041 0.93914
 C1771 C 0.39197 0.70688 0.92903
 H1772 H 0.37372 0.71682 0.93919
 Cu1773 Cu 0.61931 0.49974 0.88095
 Cu1774 Cu 0.65923 0.49984 0.84091
 Cu1775 Cu 0.38068 0.49982 0.88066
 Cu1776 Cu 0.34066 0.49995 0.84070
 Cu1777 Cu 0.61929 0.61902 1.00025
 Cu1778 Cu 0.65928 0.65898 1.00024
 Cu1779 Cu 0.61927 0.38035 1.00004
 Cu1780 Cu 0.65917 0.34029 1.00006
 Cu1781 Cu 0.38062 0.61937 1.00032
 Cu1782 Cu 0.34055 0.65926 1.00022
 Cu1783 Cu 0.38029 0.38077 1.00006
 Cu1784 Cu 0.34040 0.34073 1.00012
 Cu1785 Cu 0.49972 0.61929 0.88086
 Cu1786 Cu 0.49983 0.65928 0.84087
 Cu1787 Cu 0.49985 0.38057 0.88072
 Cu1788 Cu 0.49986 0.34059 0.84074
 C1789 C 0.57437 0.42539 0.83267
 H1790 H 0.56695 0.43274 0.85331
 C1791 C 0.59457 0.40546 0.77976
 C1792 C 0.42545 0.57441 0.83256
 H1793 H 0.43288 0.56699 0.85319
 C1794 C 0.40527 0.59451 0.77969
 C1795 C 0.42537 0.66752 0.92574
 H1796 H 0.43283 0.64692 0.93317
 C1797 C 0.40511 0.72033 0.90559
 C1798 C 0.57414 0.33225 0.92576
 H1799 H 0.56681 0.35291 0.93314
 C1800 C 0.59408 0.27932 0.90566
 C1801 C 0.66750 0.42511 0.92556
 H1802 H 0.64692 0.43257 0.93304
 C1803 C 0.72027 0.40491 0.90526
 C1804 C 0.33267 0.57428 0.92579
 H1805 H 0.35339 0.56701 0.93308
 C1806 C 0.27954 0.59404 0.90600
 C1807 C 0.57429 0.57432 0.83289
 H1808 H 0.56694 0.56696 0.85356
 C1809 C 0.59426 0.59429 0.77990
 C1810 C 0.42552 0.42552 0.83242
 H1811 H 0.43286 0.43289 0.85309
 C1812 C 0.40562 0.40548 0.77946
 C1813 C 0.66749 0.57408 0.92591
 H1814 H 0.64681 0.56676 0.93324
 C1815 C 0.72050 0.59397 0.90599
 C1816 C 0.33223 0.42559 0.92562
 H1817 H 0.35286 0.43296 0.93305
 C1818 C 0.27937 0.40560 0.90543
 C1819 C 0.57432 0.66721 0.92578
 H1820 H 0.56695 0.64654 0.93313
 C1821 C 0.59432 0.72018 0.90581
 C1822 C 0.42516 0.33258 0.92551
 H1823 H 0.43263 0.35316 0.93297
 C1824 C 0.40494 0.27980 0.90527
 N1825 N 1.14081 1.10472 1.28439
 C1826 C 1.12889 1.12796 1.29710
 N1827 N 1.10552 1.13990 1.28463
 N1828 N 1.09474 1.12929 1.26054
 C1829 C 1.10681 1.10621 1.24778
 N1830 N 1.13003 1.09411 1.26029
 N1831 N 1.13876 0.60329 0.78503
 C1832 C 1.12663 0.62643 0.79765
 N1833 N 1.10349 0.63852 0.78499
 N1834 N 1.09306 0.62805 0.76068
 C1835 C 1.10531 0.60503 0.74797
 N1836 N 1.12833 0.59282 0.76073
 N1837 N 0.60435 1.13974 0.78492
 C1838 C 0.62762 1.12773 0.79750
 N1839 N 0.63962 1.10453 0.78479
 N1840 N 0.62902 1.09402 0.76057
 C1841 C 0.60590 1.10619 0.74794
 N1842 N 0.59375 1.12922 0.76070
 N1843 N 0.60348 0.63862 1.28495
 C1844 C 0.62660 0.62650 1.29762
 N1845 N 0.63865 0.60329 1.28506
 N1846 N 0.62817 0.59278 1.26080
 C1847 C 0.60517 0.60501 1.24802
 N1848 N 0.59299 0.62810 1.26069
 N1849 N 0.86031 0.89547 1.28479
 C1850 C 0.87227 0.87221 1.29743
 N1851 N 0.89555 0.86024 1.28484
 N1852 N 0.90619 0.87085 1.26069
 C1853 C 0.89407 0.89396 1.24799
 N1854 N 0.87095 0.90609 1.26063
 N1855 N 0.86011 0.39593 0.78435
 C1856 C 0.87211 0.37279 0.79711
 N1857 N 0.89541 0.36072 0.78470
 N1858 N 0.90613 0.37121 0.76053
 C1859 C 0.89403 0.39424 0.74767
 N1860 N 0.87084 0.40642 0.76017
 N1861 N 0.35986 0.89616 0.78449
 C1862 C 0.37184 0.87295 0.79714
 N1863 N 0.39511 0.86091 0.78466
 N1864 N 0.40581 0.87149 0.76051
 C1865 C 0.39372 0.89459 0.74777
 N1866 N 0.37056 0.90674 0.76034
 N1867 N 0.39493 0.36040 1.28498
 C1868 C 0.37156 0.37237 1.29741
 N1869 N 0.35962 0.39556 1.28461
 N1870 N 0.37038 0.40610 1.26047
 C1871 C 0.39360 0.39397 1.24800
 N1872 N 0.40569 0.37094 1.26084
 N1873 N 0.85918 1.10495 0.71560
 C1874 C 0.87111 1.12819 0.70290
 N1875 N 0.89449 1.14009 0.71537
 N1876 N 0.90527 1.12942 0.73945
 C1877 C 0.89319 1.10634 0.75219
 N1878 N 0.86996 1.09428 0.73969
 N1879 N 0.86041 0.60418 0.21508
 C1880 C 0.87236 0.62744 0.20244
 N1881 N 0.89564 0.63941 0.21503
 N1882 N 0.90629 0.62878 0.23918
 C1883 C 0.89418 0.60567 0.25187
 N1884 N 0.87106 0.59355 0.23923
 N1885 N 0.36148 1.10344 0.21491
 C1886 C 0.37352 1.12658 0.20222
 N1887 N 0.39663 1.13877 0.21483
 N1888 N 0.40712 1.12839 0.23916
 C1889 C 0.39497 1.10536 0.25195
 N1890 N 0.37198 1.09305 0.23923
 N1891 N 0.39533 0.63934 0.71534
 C1892 C 0.37210 0.62725 0.70284
 N1893 N 0.36015 0.60404 0.71549
 N1894 N 0.37084 0.59349 0.73966
 C1895 C 0.39396 0.60569 0.75225
 N1896 N 0.40602 0.62880 0.73951
 N1897 N 1.13885 0.89652 0.71507
 C1898 C 1.12679 0.87333 0.70247
 N1899 N 1.10366 0.86122 0.71514
 N1900 N 1.09318 0.87172 0.73941
 C1901 C 1.10537 0.89478 0.75210
 N1902 N 1.12837 0.90701 0.73934
 N1903 N 1.10535 0.36021 0.21512
 C1904 C 1.12869 0.37215 0.20261
 N1905 N 1.14062 0.39539 0.21529
 N1906 N 1.12988 0.40602 0.23940
 C1907 C 1.10669 0.39392 0.25195
 N1908 N 1.09461 0.37083 0.23922
 N1909 N 0.60350 0.86123 0.21523
 C1910 C 0.62663 0.87333 0.20258
 N1911 N 0.63870 0.89651 0.21518
 N1912 N 0.62820 0.90701 0.23945
 C1913 C 0.60519 0.89479 0.25219
 N1914 N 0.59300 0.87173 0.23950
 N1915 N 0.63973 0.39617 0.71555
 C1916 C 0.62773 0.37305 0.70279
 N1917 N 0.60447 0.36094 0.71522
 N1918 N 0.59379 0.37138 0.73943
 C1919 C 0.60589 0.39439 0.75229
 N1920 N 0.62904 0.40660 0.73976
 N1921 N 1.28501 1.10342 1.13862
 C1922 C 1.29764 1.12656 1.12651
 N1923 N 1.28498 1.13870 1.10338
 N1924 N 1.26067 1.12828 1.09294
 C1925 C 1.24794 1.10525 1.10516
 N1926 N 1.26070 1.09299 1.12817
 N1927 N 1.28461 0.63992 0.60454
 C1928 C 1.29725 0.62794 0.62780
 N1929 N 1.28467 0.60466 0.63976
 N1930 N 1.26052 0.59402 0.62913
 C1931 C 1.24783 0.60615 0.60603
 N1932 N 1.26046 0.62929 0.59391
 N1933 N 0.78451 1.14030 0.60545
 C1934 C 0.79699 1.12834 0.62881
 N1935 N 0.78428 1.10510 0.64073
 N1936 N 0.76019 1.09448 0.62995
 C1937 C 0.74768 1.10659 0.60674
 N1938 N 0.76042 1.12968 0.59467
 N1939 N 0.78457 0.63896 1.10460
 C1940 C 0.79715 0.62689 1.12780
 N1941 N 0.78455 0.60368 1.13982
 N1942 N 0.76036 0.59312 1.12922
 C1943 C 0.74769 0.60531 1.10613
 N1944 N 0.76038 0.62841 1.09400
 N1945 N 1.28437 0.89545 0.86024
 C1946 C 1.29699 0.87216 0.87218
 N1947 N 1.28438 0.86016 0.89544
 N1948 N 1.26023 0.87078 0.90609
 C1949 C 1.24756 0.89391 0.89399
 N1950 N 1.26022 0.90607 0.87089
 N1951 N 1.28487 0.36039 0.39478
 C1952 C 1.29736 0.37236 0.37143
 N1953 N 1.28461 0.39556 0.35946
 N1954 N 1.26046 0.40612 0.37018
 C1955 C 1.24793 0.39399 0.39337
 N1956 N 1.26072 0.37095 0.40549
 N1957 N 0.78464 0.86071 0.39542
 C1958 C 0.79715 0.87279 0.37219
 N1959 N 0.78450 0.89600 0.36020
 N1960 N 0.76033 0.90654 0.37086
 C1961 C 0.74772 0.89434 0.39398
 N1962 N 0.76047 0.87125 0.40608
 N1963 N 0.78461 0.36006 0.89542
 C1964 C 0.79719 0.37206 0.87214
 N1965 N 0.78449 0.39529 0.86016
 N1966 N 0.76031 0.40585 0.87081
 C1967 C 0.74769 0.39368 0.89394
 N1968 N 0.76043 0.37061 0.90606
 N1969 N 0.71505 0.89644 1.13898
 C1970 C 0.70244 0.87328 1.12689
 N1971 N 0.71509 0.86117 1.10375
 N1972 N 0.73938 0.87165 1.09329
 C1973 C 0.75208 0.89470 1.10549
 N1974 N 0.73933 0.90692 1.12851
 N1975 N 0.71513 0.36043 0.60439
 C1976 C 0.70257 0.37241 0.62768
 N1977 N 0.71528 0.39560 0.63967
 N1978 N 0.73947 0.40615 0.62903
 C1979 C 0.75207 0.39401 0.60589
 N1980 N 0.73931 0.37097 0.59375
 N1981 N 0.21513 0.86137 0.60353
 C1982 C 0.20249 0.87343 0.62669
 N1983 N 0.21508 0.89660 0.63879
 N1984 N 0.23933 0.90713 0.62830
 C1985 C 0.25207 0.89496 0.60525
 N1986 N 0.23938 0.87191 0.59304
 N1987 N 0.21547 0.39534 1.14046
 C1988 C 0.20277 0.37211 1.12853
 N1989 N 0.21528 0.36016 1.10519
 N1990 N 0.23939 0.37077 1.09445
 C1991 C 0.25213 0.39385 1.10654
 N1992 N 0.23958 0.40595 1.12972
 N1993 N 0.71540 1.10384 0.86040
 C1994 C 0.70265 1.12697 0.87241
 N1995 N 0.71510 1.13904 0.89568
 N1996 N 0.73930 1.12857 0.90636
 C1997 C 0.75214 1.10555 0.89424
 N1998 N 0.73960 1.09336 0.87108
 N1999 N 0.71505 0.60333 0.36112
 C2000 C 0.70245 0.62649 0.37325
 N2001 N 0.71513 0.63856 0.39638
 N2002 N 0.73943 0.62806 0.40681
 C2003 C 0.75212 0.60502 0.39456
 N2004 N 0.73935 0.59283 0.37155
 N2005 N 0.21548 1.14000 0.39455
 C2006 C 0.20303 1.12802 0.37120
 N2007 N 0.21578 1.10480 0.35929
 N2008 N 0.23990 1.09423 0.37007
 C2009 C 0.25239 1.10636 0.39327
 N2010 N 0.23960 1.12943 0.40532
 N2011 N 0.21496 0.60329 0.86141
 C2012 C 0.20230 0.62642 0.87351
 N2013 N 0.21490 0.63852 0.89667
 N2014 N 0.23919 0.62808 0.90715
 C2015 C 0.25196 0.60507 0.89494
 N2016 N 0.23926 0.59285 0.87190
 N2017 N 1.10470 1.28466 1.13988
 C2018 C 1.12794 1.29720 1.12785
 N2019 N 1.13989 1.28465 1.10458
 N2020 N 1.12918 1.26055 1.09391
 C2021 C 1.10605 1.24793 1.10605
 N2022 N 1.09400 1.26056 1.12922
 N2023 N 1.13891 0.78495 0.60357
 C2024 C 1.12683 0.79756 0.62674
 N2025 N 1.10370 0.78492 0.63885
 N2026 N 1.09321 0.76065 0.62836
 C2027 C 1.10540 0.74794 0.60531
 N2028 N 1.12843 0.76068 0.59308
 N2029 N 0.63960 1.28494 0.60372
 C2030 C 0.62761 1.29760 0.62690
 N2031 N 0.60435 1.28512 0.63896
 N2032 N 0.59367 1.26096 0.62842
 C2033 C 0.60579 1.24820 0.60536
 N2034 N 0.62893 1.26078 0.59318
 N2035 N 0.63882 0.78488 1.10375
 C2036 C 0.62670 0.79753 1.12688
 N2037 N 0.60353 0.78492 1.13895
 N2038 N 0.59305 0.76064 1.12847
 C2039 C 0.60528 0.74790 1.10545
 N2040 N 0.62834 0.76061 1.09327
 N2041 N 0.89539 1.28471 0.86085
 C2042 C 0.87215 1.29720 0.87292
 N2043 N 0.86018 1.28454 0.89613
 N2044 N 0.87087 1.26037 0.90667
 C2045 C 0.89399 1.24779 0.89448
 N2046 N 0.90608 1.26054 0.87139
 N2047 N 0.86086 0.78454 0.39540
 C2048 C 0.87291 0.79709 0.37217
 N2049 N 0.89609 0.78445 0.36014
 N2050 N 0.90664 0.76026 0.37076
 C2051 C 0.89448 0.74762 0.39388
 N2052 N 0.87141 0.76035 0.40602
 N2053 N 0.39558 1.28505 0.36034
 C2054 C 0.37230 1.29756 0.37230
 N2055 N 0.36029 1.28498 0.39553
 N2056 N 0.37097 1.26086 0.40620
 C2057 C 0.39414 1.24826 0.39412
 N2058 N 0.40627 1.26093 0.37101
 N2059 N 0.39512 0.78467 0.86073
 C2060 C 0.37187 0.79715 0.87281
 N2061 N 0.35991 0.78448 0.89602
 N2062 N 0.37062 0.76032 0.90657
 C2063 C 0.39376 0.74775 0.89439
 N2064 N 0.40583 0.76051 0.87129
 N2065 N 1.10342 0.71483 0.86132
 C2066 C 1.12653 0.70215 0.87346
 N2067 N 1.13860 0.71472 0.89665
 N2068 N 1.12814 0.73901 0.90714
 C2069 C 1.10515 0.75179 0.89489
 N2070 N 1.09296 0.73912 0.87181
 N2071 N 1.10492 0.21544 0.35991
 C2072 C 1.12816 0.20287 0.37190
 N2073 N 1.14014 0.21539 0.39518
 N2074 N 1.12946 0.23950 0.40587
 C2075 C 1.10633 0.25215 0.39376
 N2076 N 1.09424 0.23954 0.37060
 N2077 N 0.63891 0.71497 0.39645
 C2078 C 0.62675 0.70233 0.37334
 N2079 N 0.60355 0.71494 0.36130
 N2080 N 0.59309 0.73922 0.37180
 C2081 C 0.60536 0.75196 0.39480
 N2082 N 0.62844 0.73925 0.40695
 N2083 N 0.63883 0.21494 0.89581
 C2084 C 0.62678 0.20248 0.87254
 N2085 N 0.60360 0.21515 0.86055
 N2086 N 0.59305 0.23931 0.87123
 C2087 C 0.60522 0.25187 0.89438
 N2088 N 0.62829 0.23910 0.90650
 N2089 N 0.86082 0.71520 1.10456
 C2090 C 0.87289 0.70261 1.12776
 N2091 N 0.89611 0.71520 1.13976
 N2092 N 0.90667 0.73939 1.12916
 C2093 C 0.89448 0.75208 1.10607
 N2094 N 0.87137 0.73940 1.09395
 N2095 N 0.85994 0.21577 0.60484
 C2096 C 0.87189 0.20320 0.62811
 N2097 N 0.89517 0.21568 0.64010
 N2098 N 0.90593 0.23975 0.62939
 C2099 C 0.89387 0.25241 0.60622
 N2100 N 0.87069 0.23983 0.59413
 N2101 N 0.36008 0.71569 0.60397
 C2102 C 0.37205 0.70302 0.62717
 N2103 N 0.39527 0.71550 0.63928
 N2104 N 0.40595 0.73968 0.62876
 C2105 C 0.39388 0.75245 0.60567
 N2106 N 0.37076 0.73987 0.59345
 N2107 N 0.39663 0.21480 1.13847
 C2108 C 0.37347 0.20221 1.12638
 N2109 N 0.36134 0.21490 1.10326
 N2110 N 0.37179 0.23920 1.09283
 C2111 C 0.39484 0.25190 1.10505
 N2112 N 0.40709 0.23911 1.12803
 N2113 N 1.13908 1.10464 0.71518
 C2114 C 1.12696 1.12787 0.70268
 N2115 N 1.10377 1.13982 0.71535
 N2116 N 1.09327 1.12914 0.73954
 C2117 C 1.10550 1.10603 0.75214
 N2118 N 1.12859 1.09396 0.73938
 N2119 N 1.10473 0.64047 0.21535
 C2120 C 1.12796 0.62857 0.20262
 N2121 N 1.13991 0.60518 0.21506
 N2122 N 1.12930 0.59438 0.23915
 C2123 C 1.10623 0.60643 0.25192
 N2124 N 1.09412 0.62966 0.23944
 N2125 N 0.60376 1.13972 0.21541
 C2126 C 0.62692 1.12769 0.20275
 N2127 N 0.63898 1.10445 0.21527
 N2128 N 0.62847 1.09383 0.23948
 C2129 C 0.60542 1.10598 0.25224
 N2130 N 0.59324 1.12910 0.23962
 N2131 N 0.63901 0.60381 0.71544
 C2132 C 0.62691 0.62697 0.70282
 N2133 N 0.60372 0.63903 0.71542
 N2134 N 0.59320 0.62849 0.73966
 C2135 C 0.60541 0.60544 0.75238
 N2136 N 0.62849 0.59327 0.73969
 N2137 N 0.89646 0.86118 0.71502
 C2138 C 0.87333 0.87330 0.70236
 N2139 N 0.86127 0.89649 0.71495
 N2140 N 0.87175 0.90699 0.73922
 C2141 C 0.89476 0.89475 0.75198
 N2142 N 0.90695 0.87168 0.73929
 N2143 N 0.89648 0.36024 0.21509
 C2144 C 0.87327 0.37221 0.20244
 N2145 N 0.86118 0.39544 0.21493
 N2146 N 0.87172 0.40613 0.23909
 C2147 C 0.89482 0.39405 0.25184
 N2148 N 0.90702 0.37093 0.23925
 N2149 N 0.36091 0.89558 0.21526
 C2150 C 0.37298 0.87230 0.20283
 N2151 N 0.39613 0.86029 0.21556
 N2152 N 0.40662 0.87099 0.23974
 C2153 C 0.39444 0.89415 0.25227
 N2154 N 0.37141 0.90627 0.23944
 N2155 N 0.36109 0.39573 0.71489
 C2156 C 0.37321 0.37251 0.70241
 N2157 N 0.39635 0.36049 0.71515
 N2158 N 0.40679 0.37113 0.73938
 C2159 C 0.39456 0.39424 0.75195
 N2160 N 0.37153 0.40637 0.73913
 N2161 N 1.13952 0.89573 1.28507
 C2162 C 1.12755 0.87245 1.29767
 N2163 N 1.10433 0.86047 1.28501
 N2164 N 1.09374 0.87109 1.26083
 C2165 C 1.10587 0.89420 1.24817
 N2166 N 1.12894 0.90635 1.26088
 N2167 N 1.13968 0.39549 0.78465
 C2168 C 1.12766 0.37226 0.79728
 N2169 N 1.10442 0.36030 0.78462
 N2170 N 1.09388 0.37090 0.76040
 C2171 C 1.10606 0.39397 0.74772
 N2172 N 1.12914 0.40609 0.76043
 N2173 N 0.60370 0.86109 0.78480
 C2174 C 0.62689 0.87313 0.79741
 N2175 N 0.63896 0.89631 0.78481
 N2176 N 0.62842 0.90688 0.76058
 C2177 C 0.60535 0.89473 0.74788
 N2178 N 0.59317 0.87165 0.76057
 N2179 N 0.63996 0.39457 1.28481
 C2180 C 0.62803 0.37125 1.29737
 N2181 N 0.60475 0.35934 1.28475
 N2182 N 0.59406 0.37008 1.26065
 C2183 C 0.60615 0.39325 1.24806
 N2184 N 0.62928 0.40531 1.26072
 N2185 N 0.89700 1.13853 1.28535
 C2186 C 0.87383 1.12647 1.29798
 N2187 N 0.86171 1.10334 1.28535
 N2188 N 0.87216 1.09285 1.26107
 C2189 C 0.89521 1.10503 1.24834
 N2190 N 0.90746 1.12804 1.26107
 N2191 N 0.86112 0.60349 0.78484
 C2192 C 0.87322 0.62665 0.79745
 N2193 N 0.89637 0.63873 0.78481
 N2194 N 0.90684 0.62823 0.76053
 C2195 C 0.89463 0.60519 0.74783
 N2196 N 0.87160 0.59300 0.76057
 N2197 N 0.36068 1.10491 0.78463
 C2198 C 0.37274 1.12815 0.79713
 N2199 N 0.39591 1.14015 0.78446
 N2200 N 0.40645 1.12950 0.76028
 C2201 C 0.39429 1.10637 0.74769
 N2202 N 0.37122 1.09425 0.76045
 N2203 N 0.39621 0.63961 1.28468
 C2204 C 0.37309 0.62761 1.29744
 N2205 N 0.36102 0.60433 1.28502
 N2206 N 0.37148 0.59363 1.26083
 C2207 C 0.39449 0.60574 1.24798
 N2208 N 0.40668 0.62891 1.26049
 N2209 N 1.10367 1.28459 0.86014
 C2210 C 1.12681 1.29727 0.87219
 N2211 N 1.13883 1.28479 0.89548
 N2212 N 1.12829 1.26061 0.90613
 C2213 C 1.10526 1.24783 0.89397
 N2214 N 1.09313 1.26041 0.87079
 N2215 N 1.10386 0.78458 0.36030
 C2216 C 1.12701 0.79726 0.37236
 N2217 N 1.13908 0.78471 0.39558
 N2218 N 1.12859 0.76048 0.40618
 C2219 C 1.10556 0.74772 0.39401
 N2220 N 1.09338 0.76035 0.37090
 N2221 N 0.64016 1.28468 0.39484
 C2222 C 0.62816 1.29721 0.37152
 N2223 N 0.60487 1.28455 0.35965
 N2224 N 0.59424 1.26047 0.37044
 C2225 C 0.60639 1.24790 0.39360
 N2226 N 0.62953 1.26059 0.40562
 N2227 N 0.60375 0.78468 0.86111
 C2228 C 0.62695 0.79726 0.87315
 N2229 N 0.63906 0.78461 0.89630
 N2230 N 0.62855 0.76036 0.90682
 C2231 C 0.60546 0.74769 0.89467
 N2232 N 0.59324 0.76043 0.87163
 N2233 N 0.86046 1.28454 1.10441
 C2234 C 0.87248 1.29723 1.12760
 N2235 N 0.89576 1.28464 1.13958
 N2236 N 0.90636 1.26044 1.12904
 C2237 C 0.89418 1.24770 1.10600
 N2238 N 0.87106 1.26033 1.09386
 N2239 N 0.89638 0.78488 0.63872
 C2240 C 0.87322 0.79751 0.62664
 N2241 N 0.86112 0.78489 0.60349
 N2242 N 0.87159 0.76062 0.59300
 C2243 C 0.89464 0.74788 0.60520
 N2244 N 0.90686 0.76060 0.62824
 N2245 N 0.36058 1.28509 0.60409
 C2246 C 0.37257 1.29769 0.62735
 N2247 N 0.39578 1.28499 0.63936
 N2248 N 0.40631 1.26078 0.62878
 C2249 C 0.39416 1.24814 0.60567
 N2250 N 0.37111 1.26088 0.59351
 N2251 N 0.36028 0.78476 1.10463
 C2252 C 0.37227 0.79737 1.12788
 N2253 N 0.39550 0.78472 1.13988
 N2254 N 0.40609 0.76053 1.12928
 C2255 C 0.39394 0.74786 1.10618
 N2256 N 0.37086 0.76057 1.09404
 N2257 N 0.86119 0.71498 0.89643
 C2258 C 0.87325 0.70240 0.87323
 N2259 N 0.89637 0.71506 0.86111
 N2260 N 0.90685 0.73932 0.87161
 C2261 C 0.89469 0.75200 0.89469
 N2262 N 0.87168 0.73924 0.90693
 N2263 N 0.86169 0.21504 0.39668
 C2264 C 0.87379 0.20236 0.37356
 N2265 N 0.89693 0.21496 0.36142
 N2266 N 0.90740 0.23927 0.37182
 C2267 C 0.89519 0.25206 0.39482
 N2268 N 0.87217 0.23935 0.40708
 N2269 N 0.39554 0.71523 0.36039
 C2270 C 0.37231 0.70257 0.37237
 N2271 N 0.36029 0.71521 0.39560
 N2272 N 0.37084 0.73940 0.40619
 C2273 C 0.39393 0.75210 0.39405
 N2274 N 0.40610 0.73942 0.37097
 N2275 N 0.35999 0.21553 0.89547
 C2276 C 0.37199 0.20293 0.87220
 N2277 N 0.39523 0.21558 0.86024
 N2278 N 0.40582 0.23974 0.87087
 C2279 C 0.39368 0.25239 0.89398
 N2280 N 0.37058 0.23969 0.90610
 N2281 N 1.10481 0.71554 1.14059
 C2282 C 1.12805 0.70285 1.12865
 N2283 N 1.14001 0.71538 1.10533
 N2284 N 1.12941 0.73951 1.09461
 C2285 C 1.10632 0.75225 1.10669
 N2286 N 1.09420 0.73967 1.12987
 N2287 N 1.13963 0.21531 0.60429
 C2288 C 1.12763 0.20273 0.62757
 N2289 N 1.10442 0.21542 0.63954
 N2290 N 1.09387 0.23961 0.62891
 C2291 C 1.10603 0.25224 0.60578
 N2292 N 1.12908 0.23950 0.59365
 N2293 N 0.60370 0.71542 0.63919
 C2294 C 0.62686 0.70282 0.62709
 N2295 N 0.63892 0.71545 0.60391
 N2296 N 0.62839 0.73971 0.59341
 C2297 C 0.60534 0.75241 0.60562
 N2298 N 0.59317 0.73968 0.62868
 N2299 N 0.60434 0.21512 1.13973
 C2300 C 0.62761 0.20253 1.12774
 N2301 N 0.63958 0.21521 1.10451
 N2302 N 0.62895 0.23939 1.09394
 C2303 C 0.60584 0.25203 1.10609
 N2304 N 0.59371 0.23930 1.12917
 N2305 N 1.28438 1.14001 0.89604
 C2306 C 1.29707 1.12802 0.87287
 N2307 N 1.28462 1.10475 0.86081
 N2308 N 1.26046 1.09405 0.87135
 C2309 C 1.24768 1.10615 0.89442
 N2310 N 1.26023 1.12931 0.90659
 N2311 N 1.28500 0.60435 0.36102
 C2312 C 1.29743 0.62761 0.37311
 N2313 N 1.28470 0.63960 0.39625
 N2314 N 1.26051 0.62892 0.40672
 C2315 C 1.24798 0.60577 0.39452
 N2316 N 1.26081 0.59367 0.37149
 N2317 N 0.78533 1.13872 0.39673
 C2318 C 0.79799 1.12662 0.37360
 N2319 N 0.78535 1.10350 0.36147
 N2320 N 0.76104 1.09304 0.37189
 C2321 C 0.74828 1.10526 0.39490
 N2322 N 0.76102 1.12826 0.40715
 N2323 N 0.78498 0.63865 0.89651
 C2324 C 0.79758 0.62658 0.87333
 N2325 N 0.78496 0.60341 0.86126
 N2326 N 0.76072 0.59290 0.87179
 C2327 C 0.74802 0.60509 0.89486
 N2328 N 0.76073 0.62814 0.90704
 N2329 N 1.28463 0.86030 1.10394
 C2330 C 1.29732 0.87230 1.12711
 N2331 N 1.28484 0.89555 1.13917
 N2332 N 1.26066 0.90623 1.12865
 C2333 C 1.24787 0.89411 1.10560
 N2334 N 1.26045 0.87097 1.09342
 N2335 N 1.28517 0.39584 0.63864
 C2336 C 1.29768 0.37262 0.62656
 N2337 N 1.28503 0.36062 0.60338
 N2338 N 1.26083 0.37126 0.59286
 C2339 C 1.24822 0.39437 0.60505
 N2340 N 1.26097 0.40648 0.62812
 N2341 N 0.78488 0.86137 0.60350
 C2342 C 0.79755 0.87342 0.62665
 N2343 N 0.78498 0.89659 0.63877
 N2344 N 0.76071 0.90714 0.62832
 C2345 C 0.74794 0.89497 0.60528
 N2346 N 0.76062 0.87192 0.59305
 N2347 N 0.78467 0.36003 1.10379
 C2348 C 0.79739 0.37204 1.12693
 N2349 N 0.78490 0.39527 1.13903
 N2350 N 0.76067 0.40591 1.12857
 C2351 C 0.74786 0.39378 1.10554
 N2352 N 0.76045 0.37066 1.09333
 N2353 N 0.71519 1.10447 1.13930
 C2354 C 0.70271 1.12769 1.12716
 N2355 N 0.71541 1.13967 1.10398
 N2356 N 0.73962 1.12899 1.09352
 C2357 C 0.75220 1.10588 1.10577
 N2358 N 0.73940 1.09379 1.12884
 N2359 N 0.71523 0.63914 0.60380
 C2360 C 0.70262 0.62703 0.62697
 N2361 N 0.71523 0.60382 0.63899
 N2362 N 0.73945 0.59329 0.62843
 C2363 C 0.75215 0.60552 0.60538
 N2364 N 0.73946 0.62862 0.59324
 N2365 N 0.21516 1.13982 0.60364
 C2366 C 0.20254 1.12782 0.62686
 N2367 N 0.21508 1.10460 0.63894
 N2368 N 0.23926 1.09396 0.62840
 C2369 C 0.25197 1.10607 0.60530
 N2370 N 0.23934 1.12918 0.59310
 N2371 N 0.21555 0.63993 1.10469
 C2372 C 0.20294 0.62794 1.12792
 N2373 N 0.21542 0.60464 1.13991
 N2374 N 0.23952 0.59392 1.12927
 C2375 C 0.25223 0.60602 1.10616
 N2376 N 0.23966 0.62921 1.09406
 N2377 N 0.71534 0.86090 0.89632
 C2378 C 0.70271 0.87300 0.87316
 N2379 N 0.71530 0.89619 0.86110
 N2380 N 0.73955 0.90670 0.87162
 C2381 C 0.75228 0.89448 0.89466
 N2382 N 0.73959 0.87140 0.90684
 N2383 N 0.71575 0.35994 0.39526
 C2384 C 0.70320 0.37190 0.37198
 N2385 N 0.71576 0.39511 0.35992
 N2386 N 0.73989 0.40578 0.37055
 C2387 C 0.75253 0.39372 0.39373
 N2388 N 0.73988 0.37061 0.40590
 N2389 N 0.21520 0.89630 0.36041
 C2390 C 0.20259 0.87310 0.37243
 N2391 N 0.21515 0.86104 0.39565
 N2392 N 0.23934 0.87159 0.40626
 C2393 C 0.25204 0.89467 0.39412
 N2394 N 0.23939 0.90685 0.37101
 N2395 N 0.21496 0.36090 0.89557
 C2396 C 0.20252 0.37294 0.87227
 N2397 N 0.21522 0.39609 0.86025
 N2398 N 0.23939 0.40661 0.87094
 C2399 C 0.25193 0.39445 0.89412
 N2400 N 0.23913 0.37142 0.90626
   
