data_POSCAR
  _audit_creation_date              2014-09-24
  _audit_creation_method            'ToBaCCo'
  _symmetry_space_group_name_H-M    'P1'
  _symmetry_Int_Tables_number       1
  _symmetry_cell_setting            triclinic
  loop_
  _symmetry_equiv_pos_as_xyz
 x,y,z
_cell_length_a 54.2484
_cell_length_b 54.2810
_cell_length_c 54.1509
_cell_angle_alpha 90.159000
_cell_angle_beta 90.171700
_cell_angle_gamma 90.017600
loop_
  _atom_site_label
  _atom_site_type_symbol
  _atom_site_fract_x
  _atom_site_fract_y
  _atom_site_fract_z
C1 C 0.23002 0.98790 -0.01985
 C2 C 0.22958 0.98885 0.00509
 C3 C 0.22446 1.01185 0.01899
 C4 C 0.23537 0.96704 0.02036
 C5 C 0.23555 0.96495 -0.03340
 C6 C 0.22649 1.01000 -0.03524
 C7 C 0.24048 1.03202 0.01789
 C8 C 0.23816 1.05158 0.03463
 C9 C 0.22000 1.05126 0.05351
 C10 C 0.20306 1.03134 0.05312
 C11 C 0.20541 1.01200 0.03629
 C12 C 0.25614 0.96775 0.03577
 C13 C 0.25989 0.94948 0.05341
 C14 C 0.24276 0.93028 0.05618
 C15 C 0.22256 0.92891 0.03985
 C16 C 0.21887 0.94723 0.02206
 C17 C 0.21637 0.95210 -0.04506
 C18 C 0.22161 0.93267 -0.06115
 C19 C 0.24615 0.92612 -0.06616
 C20 C 0.26532 0.93854 -0.05381
 C21 C 0.26003 0.95777 -0.03741
 C22 C 0.20282 1.01905 -0.04038
 C23 C 0.19972 1.03833 -0.05726
 C24 C 0.22030 1.04886 -0.06893
 C25 C 0.24395 1.03993 -0.06330
 C26 C 0.24698 1.02057 -0.04674
 H27 H 0.25576 1.03195 0.00508
 H28 H 0.25229 1.06556 0.03381
 H29 H 0.18750 1.03047 0.06549
 H30 H 0.19268 0.99665 0.03726
 H31 H 0.26902 0.98297 0.03469
 H32 H 0.27586 0.95076 0.06539
 H33 H 0.20254 0.94665 0.01052
 H34 H 0.19740 0.95770 -0.04234
 H35 H 0.20652 0.92358 -0.07064
 H36 H 0.28437 0.93373 -0.05729
 H37 H 0.27502 0.96773 -0.02867
 H38 H 0.18681 1.01079 -0.03183
 H39 H 0.18131 1.04496 -0.06127
 H40 H 0.26008 1.04747 -0.07228
 H41 H 0.26533 1.01357 -0.04315
 H42 H 0.20896 0.91443 0.04168
 C43 C 0.75182 0.51480 0.52791
 C44 C 0.75338 0.51496 0.50294
 C45 C 0.75557 0.53823 0.48883
 C46 C 0.75286 0.49176 0.48848
 C47 C 0.74779 0.49188 0.54221
 C48 C 0.75381 0.53754 0.54292
 C49 C 0.73706 0.54440 0.47186
 C50 C 0.73870 0.56601 0.45809
 C51 C 0.75913 0.58181 0.46069
 C52 C 0.77760 0.57572 0.47793
 C53 C 0.77585 0.55407 0.49187
 C54 C 0.73198 0.47650 0.48819
 C55 C 0.73220 0.45434 0.47492
 C56 C 0.75334 0.44706 0.46176
 C57 C 0.77418 0.46251 0.46220
 C58 C 0.77384 0.48471 0.47524
 C59 C 0.76520 0.47273 0.54237
 C60 C 0.76263 0.45302 0.55881
 C61 C 0.74282 0.45245 0.57549
 C62 C 0.72493 0.47109 0.57447
 C63 C 0.72741 0.49060 0.55802
 C64 C 0.77257 0.53911 0.56068
 C65 C 0.77259 0.55808 0.57804
 C66 C 0.75369 0.57574 0.57810
 C67 C 0.73560 0.57496 0.55945
 C68 C 0.73560 0.55588 0.54199
 H69 H 0.72121 0.53249 0.46940
 H70 H 0.72392 0.57035 0.44536
 H71 H 0.79368 0.58733 0.48017
 H72 H 0.79044 0.54947 0.50474
 H73 H 0.71555 0.48181 0.49821
 H74 H 0.71571 0.44310 0.47468
 H75 H 0.79017 0.49622 0.47543
 H76 H 0.78128 0.47361 0.53060
 H77 H 0.77675 0.43894 0.55942
 H78 H 0.70937 0.47092 0.58696
 H79 H 0.71380 0.50521 0.55817
 H80 H 0.78673 0.52507 0.56166
 H81 H 0.78697 0.55850 0.59195
 H82 H 0.72075 0.58828 0.55920
 H83 H 0.72078 0.55470 0.52860
 H84 H 0.79093 0.45731 0.45271
 C85 C 0.72000 1.03068 1.01687
 C86 C 0.72145 1.00567 1.01581
 C87 C 0.72300 0.99218 0.99197
 C88 C 0.72266 0.99046 1.03856
 C89 C 0.72134 1.04396 1.04077
 C90 C 0.71884 1.04598 0.99420
 C91 C 0.70629 0.97309 0.98699
 C92 C 0.70803 0.95951 0.96515
 C93 C 0.72659 0.96472 0.94788
 C94 C 0.74325 0.98395 0.95279
 C95 C 0.74163 0.99741 0.97478
 C96 C 0.70422 0.99180 1.05669
 C97 C 0.70563 0.97706 1.07782
 C98 C 0.72533 0.96053 1.08098
 C99 C 0.74376 0.95936 1.06282
 C100 C 0.74238 0.97410 1.04182
 C101 C 0.74245 1.04223 1.05570
 C102 C 0.74356 1.05468 1.07827
 C103 C 0.72354 1.06900 1.08631
 C104 C 0.70242 1.07069 1.07132
 C105 C 0.70143 1.05843 1.04860
 C106 C 0.73714 1.06361 0.99001
 C107 C 0.73750 1.07701 0.96808
 C108 C 0.71929 1.07344 0.94962
 C109 C 0.70057 1.05592 0.95441
 C110 C 0.70034 1.04248 0.97642
 H111 H 0.69189 0.96869 1.00008
 H112 H 0.69483 0.94492 0.96173
 H113 H 0.75794 0.98809 0.93995
 H114 H 0.75510 1.01166 0.97855
 H115 H 0.68864 1.00403 1.05433
 H116 H 0.69102 0.97812 1.09136
 H117 H 0.75683 0.97286 1.02810
 H118 H 0.75806 1.03128 1.04979
 H119 H 0.76001 1.05305 1.08952
 H120 H 0.68690 1.08190 1.07696
 H121 H 0.68506 1.06003 1.03721
 H122 H 0.75176 1.06638 1.00340
 H123 H 0.75300 1.08920 0.96538
 H124 H 0.68551 1.05292 0.94164
 H125 H 0.68578 1.02919 0.97953
 H126 H 0.75933 0.94705 1.06491
 C127 C 0.26307 0.49832 0.49282
 C128 C 0.26301 0.47331 0.49088
 C129 C 0.26079 0.45672 0.51251
 C130 C 0.26526 0.46073 0.46660
 C131 C 0.26441 0.51425 0.47056
 C132 C 0.26064 0.51143 0.51682
 C133 C 0.27796 0.45725 0.53197
 C134 C 0.27730 0.43918 0.55040
 C135 C 0.25963 0.42019 0.54946
 C136 C 0.24204 0.42027 0.53040
 C137 C 0.24265 0.43829 0.51213
 C138 C 0.28517 0.44481 0.46246
 C139 C 0.28710 0.43186 0.44027
 C140 C 0.26898 0.43434 0.42182
 C141 C 0.24913 0.45053 0.42592
 C142 C 0.24724 0.46355 0.44817
 C143 C 0.24560 0.53142 0.46621
 C144 C 0.24616 0.54637 0.44532
 C145 C 0.26560 0.54449 0.42833
 C146 C 0.28461 0.52746 0.43281
 C147 C 0.28414 0.51262 0.45389
 C148 C 0.24026 0.50765 0.53229
 C149 C 0.23687 0.52243 0.55326
 C150 C 0.25366 0.54141 0.55894
 C151 C 0.27431 0.54470 0.54371
 C152 C 0.27771 0.52992 0.52287
 H153 H 0.29238 0.47104 0.53237
 H154 H 0.29118 0.43946 0.56481
 H155 H 0.22795 0.40615 0.52944
 H156 H 0.22924 0.43754 0.49728
 H157 H 0.29922 0.44240 0.47650
 H158 H 0.30279 0.41984 0.43755
 H159 H 0.23153 0.47547 0.45122
 H160 H 0.23025 0.53300 0.47887
 H161 H 0.23114 0.55915 0.44221
 H162 H 0.29997 0.52588 0.42018
 H163 H 0.29911 0.49984 0.45718
 H164 H 0.22653 0.49388 0.52766
 H165 H 0.22065 0.51962 0.56451
 H166 H 0.28777 0.55889 0.54781
 H167 H 0.29349 0.53323 0.51113
 H168 H 0.23470 0.45258 0.41222
 C169 C 0.99814 0.25878 0.01487
 C170 C 0.99617 0.26038 -0.01009
 C171 C 1.01825 0.26406 -0.02566
 C172 C 0.97236 0.25838 -0.02357
 C173 C 0.97627 0.25735 0.03120
 C174 C 1.02263 0.25867 0.02714
 C175 C 1.03041 0.28680 -0.02600
 C176 C 1.04974 0.29086 -0.04250
 C177 C 1.05767 0.27202 -0.05871
 C178 C 1.04556 0.24899 -0.05760
 C179 C 1.02589 0.24524 -0.04153
 C180 C 0.96726 0.27502 -0.04265
 C181 C 0.94669 0.27187 -0.05773
 C182 C 0.93029 0.25205 -0.05406
 C183 C 0.93487 0.23602 -0.03406
 C184 C 0.95591 0.23889 -0.01931
 C185 C 0.97465 0.23838 0.04865
 C186 C 0.95462 0.23713 0.06471
 C187 C 0.93589 0.25501 0.06384
 C188 C 0.93752 0.27400 0.04628
 C189 C 0.95758 0.27520 0.03016
 C190 C 1.04004 0.24042 0.02165
 C191 C 1.06300 0.24034 0.03339
 C192 C 1.06906 0.25835 0.05133
 C193 C 1.05122 0.27663 0.05661
 C194 C 1.02835 0.27668 0.04474
 H195 H 1.02455 0.30155 -0.01385
 H196 H 1.05882 0.30861 -0.04197
 H197 H 1.05015 0.23414 -0.07012
 H198 H 1.01638 0.22769 -0.04168
 H199 H 0.97951 0.29037 -0.04617
 H200 H 0.94348 0.28546 -0.07197
 H201 H 0.95977 0.22536 -0.00517
 H202 H 0.98889 0.22444 0.04974
 H203 H 0.95374 0.22208 0.07776
 H204 H 0.92360 0.28826 0.04541
 H205 H 0.95872 0.29026 0.01713
 H206 H 1.03569 0.22597 0.00852
 H207 H 1.07533 0.22529 0.02913
 H208 H 1.05499 0.29159 0.06929
 H209 H 1.01515 0.29102 0.04909
 H210 H 0.92324 0.22018 -0.03071
 C211 C 0.49416 0.74460 0.50851
 C212 C 0.49320 0.74088 0.48373
 C213 C 0.46956 0.73960 0.46997
 C214 C 0.51554 0.73896 0.46821
 C215 C 0.51777 0.74794 0.52201
 C216 C 0.47144 0.74564 0.52362
 C217 C 0.45238 0.72073 0.47412
 C218 C 0.43149 0.71861 0.45900
 C219 C 0.42776 0.73513 0.43937
 C220 C 0.44471 0.75430 0.43574
 C221 C 0.46539 0.75649 0.45086
 C222 C 0.51843 0.71812 0.45313
 C223 C 0.53643 0.71765 0.43483
 C224 C 0.55182 0.73809 0.43117
 C225 C 0.54972 0.75853 0.44708
 C226 C 0.53161 0.75901 0.46542
 C227 C 0.52127 0.76932 0.53616
 C228 C 0.54247 0.77230 0.55048
 C229 C 0.56058 0.75380 0.55120
 C230 C 0.55732 0.73256 0.53657
 C231 C 0.53604 0.72962 0.52213
 C232 C 0.45362 0.76401 0.51991
 C233 C 0.43241 0.76466 0.53453
 C234 C 0.42875 0.74702 0.55318
 C235 C 0.44676 0.72875 0.55682
 C236 C 0.46794 0.72818 0.54228
 H237 H 0.45552 0.70730 0.48854
 H238 H 0.41873 0.70359 0.46207
 H239 H 0.44205 0.76752 0.42102
 H240 H 0.47846 0.77116 0.44738
 H241 H 0.50607 0.70256 0.45494
 H242 H 0.53793 0.70150 0.42314
 H243 H 0.52929 0.77545 0.47654
 H244 H 0.50740 0.78369 0.53626
 H245 H 0.54462 0.78906 0.56117
 H246 H 0.57082 0.71787 0.53694
 H247 H 0.53350 0.71280 0.51162
 H248 H 0.45623 0.77789 0.50583
 H249 H 0.41907 0.77919 0.53152
 H250 H 0.44435 0.71467 0.57073
 H251 H 0.48153 0.71389 0.54538
 H252 H 0.56124 0.77461 0.44454
 C253 C 0.00342 0.72087 -0.00472
 C254 C -0.02128 0.72388 -0.00697
 C255 C -0.03352 0.72828 -0.03111
 C256 C -0.03795 0.72309 0.01461
 C257 C 0.01576 0.71917 0.01963
 C258 C 0.01998 0.71896 -0.02638
 C259 C -0.04781 0.74953 -0.03394
 C260 C -0.06185 0.75313 -0.05519
 C261 C -0.06225 0.73542 -0.07436
 C262 C -0.04679 0.71456 -0.07183
 C263 C -0.03282 0.71093 -0.05032
 C264 C -0.03802 0.74192 0.03231
 C265 C -0.05664 0.74300 0.05013
 C266 C -0.07587 0.72530 0.05055
 C267 C -0.07476 0.70585 0.03317
 C268 C -0.05620 0.70491 0.01544
 C269 C 0.01736 0.69661 0.03210
 C270 C 0.03387 0.69383 0.05183
 C271 C 0.04875 0.71368 0.05954
 C272 C 0.04587 0.73664 0.04797
 C273 C 0.02969 0.73927 0.02805
 C274 C 0.03471 0.69797 -0.02894
 C275 C 0.05232 0.69650 -0.04752
 C276 C 0.05583 0.71609 -0.06425
 C277 C 0.04006 0.73676 -0.06225
 C278 C 0.02255 0.73828 -0.04332
 H279 H -0.04835 0.76330 -0.01944
 H280 H -0.07206 0.77019 -0.05655
 H281 H -0.04659 0.70008 -0.08558
 H282 H -0.02218 0.69418 -0.04829
 H283 H -0.02438 0.75648 0.03155
 H284 H -0.05662 0.75877 0.06235
 H285 H -0.05637 0.69017 0.00189
 H286 H 0.00694 0.68083 0.02560
 H287 H 0.03566 0.67597 0.06053
 H288 H 0.05726 0.75216 0.05332
 H289 H 0.02892 0.75670 0.01837
 H290 H 0.03274 0.68265 -0.01633
 H291 H 0.06279 0.67960 -0.04889
 H292 H 0.04216 0.75257 -0.07416
 H293 H 0.01158 0.75483 -0.04142
 H294 H -0.08798 0.69095 0.03321
 C295 C 0.50744 0.25290 0.49880
 C296 C 0.48282 0.25676 0.49801
 C297 C 0.46978 0.25919 0.47413
 C298 C 0.46715 0.25818 0.52030
 C299 C 0.52129 0.24875 0.52200
 C300 C 0.52255 0.25395 0.47609
 C301 C 0.46843 0.28196 0.46206
 C302 C 0.45416 0.28441 0.44065
 C303 C 0.44147 0.26400 0.43086
 C304 C 0.44363 0.24104 0.44256
 C305 C 0.45748 0.23873 0.46418
 C306 C 0.45328 0.27958 0.52443
 C307 C 0.43484 0.27998 0.54230
 C308 C 0.42972 0.25889 0.55636
 C309 C 0.44450 0.23780 0.55312
 C310 C 0.46305 0.23743 0.53513
 C311 C 0.53444 0.22669 0.52465
 C312 C 0.55232 0.22430 0.54303
 C313 C 0.55766 0.24405 0.55900
 C314 C 0.54330 0.26560 0.55740
 C315 C 0.52525 0.26796 0.53895
 C316 C 0.52153 0.23515 0.45829
 C317 C 0.53722 0.23575 0.43782
 C318 C 0.55426 0.25508 0.43499
 C319 C 0.55475 0.27412 0.45264
 C320 C 0.53913 0.27349 0.47303
 H321 H 0.47786 0.29789 0.46959
 H322 H 0.45275 0.30227 0.43189
 H323 H 0.43376 0.22514 0.43552
 H324 H 0.45833 0.22107 0.47342
 H325 H 0.45616 0.29579 0.51318
 H326 H 0.42415 0.29665 0.54473
 H327 H 0.47330 0.22061 0.53192
 H328 H 0.53172 0.21175 0.51162
 H329 H 0.56272 0.20731 0.54411
 H330 H 0.54708 0.28117 0.56937
 H331 H 0.51556 0.28528 0.53689
 H332 H 0.50905 0.21976 0.46059
 H333 H 0.53661 0.22069 0.42467
 H334 H 0.56737 0.28946 0.45077
 H335 H 0.54010 0.28815 0.48661
 H336 H 0.44091 0.22124 0.56360
 C337 C 1.01488 0.01146 0.24628
 C338 C 1.01151 -0.01319 0.24772
 C339 C 1.03118 -0.03122 0.24188
 C340 C 0.98795 -0.02434 0.25539
 C341 C 0.99432 0.02937 0.24849
 C342 C 1.03957 0.02239 0.24259
 C343 C 1.02676 -0.04867 0.22331
 C344 C 1.04255 -0.06862 0.22009
 C345 C 1.06341 -0.07177 0.23538
 C346 C 1.06853 -0.05321 0.25312
 C347 C 1.05241 -0.03334 0.25650
 C348 C 0.96848 -0.02712 0.23865
 C349 C 0.94940 -0.04372 0.24364
 C350 C 0.94960 -0.05810 0.26546
 C351 C 0.96826 -0.05324 0.28306
 C352 C 0.98723 -0.03676 0.27796
 C353 C 0.98032 0.03163 0.27017
 C354 C 0.96356 0.05113 0.27285
 C355 C 0.96091 0.06880 0.25406
 C356 C 0.97436 0.06594 0.23214
 C357 C 0.99086 0.04646 0.22941
 C358 C 1.04905 0.03782 0.26108
 C359 C 1.07061 0.05110 0.25714
 C360 C 1.08305 0.04942 0.23449
 C361 C 1.07417 0.03309 0.21630
 C362 C 1.05245 0.01970 0.22029
 H363 H 1.01056 -0.04722 0.21166
 H364 H 1.03833 -0.08140 0.20530
 H365 H 1.08391 -0.05480 0.26576
 H366 H 1.05587 -0.02030 0.27129
 H367 H 0.96904 -0.01791 0.22094
 H368 H 0.93595 -0.04670 0.22917
 H369 H 1.00216 -0.03465 0.29114
 H370 H 0.98310 0.01900 0.28535
 H371 H 0.95349 0.05303 0.28998
 H372 H 0.97241 0.07907 0.21724
 H373 H 1.00153 0.04510 0.21258
 H374 H 1.03932 0.04007 0.27839
 H375 H 1.07729 0.06319 0.27163
 H376 H 1.08338 0.03157 0.19864
 H377 H 1.04518 0.00806 0.20572
 H378 H 0.96863 -0.06237 0.30077
 C379 C 0.50404 0.51720 0.73157
 C380 C 0.50182 0.49234 0.73138
 C381 C 0.52329 0.47557 0.73004
 C382 C 0.47764 0.47991 0.73366
 C383 C 0.48226 0.53372 0.73076
 C384 C 0.52831 0.52968 0.73296
 C385 C 0.52382 0.45778 0.71123
 C386 C 0.54096 0.43871 0.71187
 C387 C 0.55794 0.43705 0.73138
 C388 C 0.55831 0.45558 0.74958
 C389 C 0.54095 0.47466 0.74902
 C390 C 0.45984 0.48098 0.71484
 C391 C 0.43830 0.46684 0.71654
 C392 C 0.43445 0.45137 0.73699
 C393 C 0.45200 0.45111 0.75611
 C394 C 0.47341 0.46512 0.75438
 C395 C 0.46401 0.53320 0.74913
 C396 C 0.44459 0.55018 0.74863
 C397 C 0.44349 0.56820 0.73009
 C398 C 0.46158 0.56844 0.71162
 C399 C 0.48075 0.55137 0.71196
 C400 C 0.53327 0.54483 0.75336
 C401 C 0.55429 0.55956 0.75389
 C402 C 0.57069 0.55974 0.73386
 C403 C 0.56633 0.54367 0.71386
 C404 C 0.54520 0.52875 0.71339
 H405 H 0.51024 0.45813 0.69652
 H406 H 0.54054 0.42485 0.69745
 H407 H 0.57115 0.45457 0.76490
 H408 H 0.54049 0.48791 0.76400
 H409 H 0.46300 0.49213 0.69859
 H410 H 0.42514 0.46728 0.70147
 H411 H 0.48697 0.46413 0.76908
 H412 H 0.46514 0.52011 0.76413
 H413 H 0.43100 0.54986 0.76323
 H414 H 0.46102 0.58206 0.69705
 H415 H 0.49468 0.55212 0.69768
 H416 H 0.52045 0.54573 0.76863
 H417 H 0.55741 0.57134 0.76977
 H418 H 0.57859 0.54351 0.69812
 H419 H 0.54149 0.51733 0.69738
 H420 H 0.44932 0.43977 0.77230
 C421 C 1.01486 1.00272 0.75260
 C422 C 0.99020 1.00506 0.75641
 C423 C 0.97797 1.02943 0.75729
 C424 C 0.97381 0.98328 0.75972
 C425 C 1.02691 0.97816 0.75102
 C426 C 1.03143 1.02432 0.74913
 C427 C 0.97413 1.04103 0.78008
 C428 C 0.95941 1.06209 0.78169
 C429 C 0.94693 1.07118 0.76069
 C430 C 0.95125 1.05956 0.73776
 C431 C 0.96707 1.03929 0.73603
 C432 C 0.97790 0.96618 0.77877
 C433 C 0.96201 0.94604 0.78181
 C434 C 0.94152 0.94295 0.76614
 C435 C 0.93756 0.96003 0.74712
 C436 C 0.95351 0.97990 0.74393
 C437 C 1.01948 0.96052 0.73346
 C438 C 1.03192 0.93800 0.73155
 C439 C 1.05224 0.93294 0.74690
 C440 C 1.05946 0.95058 0.76455
 C441 C 1.04697 0.97295 0.76653
 C442 C 1.04588 1.02563 0.72779
 C443 C 1.06448 1.04328 0.72562
 C444 C 1.06931 1.06033 0.74483
 C445 C 1.05383 1.05956 0.76581
 C446 C 1.03544 1.04156 0.76806
 H447 H 0.98194 1.03329 0.79678
 H448 H 0.95632 1.06997 0.79980
 H449 H 0.94275 1.06635 0.72099
 H450 H 0.96994 1.03062 0.71823
 H451 H 0.99327 0.96855 0.79136
 H452 H 0.96540 0.93321 0.79671
 H453 H 0.95001 0.99248 0.72889
 H454 H 1.00435 0.96438 0.72096
 H455 H 1.02615 0.92487 0.71759
 H456 H 1.07484 0.94706 0.77684
 H457 H 1.05303 0.98632 0.78014
 H458 H 1.04315 1.01248 0.71294
 H459 H 1.07479 1.04360 0.70856
 H460 H 1.05696 1.07158 0.78148
 H461 H 1.02528 1.04031 0.78516
 H462 H 0.92216 0.95787 0.73452
 C463 C 0.52528 0.49772 0.24712
 C464 C 0.50037 0.49905 0.24606
 C465 C 0.48494 0.47692 0.24949
 C466 C 0.48676 0.52258 0.24335
 C467 C 0.54119 0.51962 0.24459
 C468 C 0.53829 0.47389 0.24954
 C469 C 0.47807 0.46240 0.22918
 C470 C 0.46084 0.44350 0.23201
 C471 C 0.45002 0.43907 0.25514
 C472 C 0.45749 0.45328 0.27557
 C473 C 0.47481 0.47209 0.27274
 C474 C 0.46923 0.52495 0.22438
 C475 C 0.45314 0.54501 0.22391
 C476 C 0.45434 0.56317 0.24237
 C477 C 0.47246 0.56130 0.26088
 C478 C 0.48838 0.54102 0.26151
 C479 C 0.55127 0.53077 0.26569
 C480 C 0.56960 0.54866 0.26346
 C481 C 0.57831 0.55562 0.24006
 C482 C 0.56761 0.54492 0.21890
 C483 C 0.54920 0.52701 0.22118
 C484 C 0.55151 0.46850 0.27115
 C485 C 0.56631 0.44749 0.27237
 C486 C 0.56791 0.43142 0.25207
 C487 C 0.55406 0.43642 0.23072
 C488 C 0.53959 0.45768 0.22936
 H489 H 0.48531 0.46630 0.21100
 H490 H 0.45515 0.43310 0.21588
 H491 H 0.44958 0.45013 0.29363
 H492 H 0.47980 0.48338 0.28851
 H493 H 0.46750 0.51087 0.21028
 H494 H 0.43951 0.54617 0.20931
 H495 H 0.50108 0.53917 0.27682
 H496 H 0.54552 0.52504 0.28392
 H497 H 0.57767 0.55628 0.28012
 H498 H 0.57374 0.55011 0.20064
 H499 H 0.54182 0.51827 0.20473
 H500 H 0.55078 0.48079 0.28689
 H501 H 0.57673 0.44390 0.28906
 H502 H 0.55527 0.42444 0.21475
 H503 H 0.53008 0.46191 0.21230
 H504 H 0.47356 0.57493 0.27548
 O505 O 0.25490 0.18699 0.19005
 O506 O 0.28489 0.17257 0.21969
 O507 O 0.19969 0.21873 0.23690
 O508 O 0.19752 0.24814 0.26570
 O509 O 0.22576 0.25763 0.17281
 O510 O 0.26214 0.28187 0.16529
 O511 O 0.27729 0.27048 0.29879
 O512 O 0.24662 0.23871 0.30427
 O513 O 0.33357 0.23512 0.25764
 O514 O 0.33341 0.21032 0.21937
 O515 O 0.30868 0.30357 0.23702
 O516 O 0.27248 0.31919 0.21366
 O517 O 0.27859 0.30347 0.27310
 O518 O 0.24869 0.31860 0.24199
 O519 O 0.33384 0.27126 0.22823
 O520 O 0.33315 0.23885 0.19555
 O521 O 0.30777 0.23790 0.29055
 O522 O 0.27732 0.20957 0.29865
 O523 O 0.25632 0.22000 0.16431
 O524 O 0.28572 0.25213 0.15822
 O525 O 0.20038 0.25771 0.20616
 O526 O 0.20181 0.28106 0.24473
 O527 O 0.22462 0.18628 0.22807
 O528 O 0.26122 0.17107 0.24932
 Zr529 Zr 0.26004 0.20198 0.22561
 O530 O 0.28796 0.21714 0.24819
 Zr531 Zr 0.22316 0.24949 0.23640
 O532 O 0.24933 0.26681 0.25931
 Zr533 Zr 0.26081 0.25037 0.18812
 O534 O 0.28885 0.26758 0.20893
 Zr535 Zr 0.27244 0.24020 0.27510
 O536 O 0.24414 0.22235 0.25474
 Zr537 Zr 0.31013 0.24068 0.22701
 O538 O 0.28389 0.22332 0.20374
 Zr539 Zr 0.27299 0.28841 0.23760
 O540 O 0.24481 0.27342 0.21496
 O541 O 0.23758 0.22774 0.20835
 O542 O 0.29572 0.26291 0.25491
 C543 C 0.25440 0.19678 0.16845
 C544 C 0.20347 0.19565 0.23315
 C545 C 0.20450 0.26023 0.18297
 C546 C 0.27948 0.29367 0.29468
 C547 C 0.32928 0.23597 0.28095
 C548 C 0.33001 0.29415 0.23284
 H549 H 0.29762 0.20384 0.25606
 H550 H 0.29900 0.27787 0.19788
 H551 H 0.22464 0.21997 0.19801
 H552 H 0.24063 0.27653 0.27205
 H553 H 0.23435 0.22591 0.29982
 H554 H 0.20671 0.25196 0.28102
 H555 H 0.33082 0.25421 0.18603
 H556 H 0.29801 0.23893 0.16093
 H557 H 0.26685 0.19627 0.29192
 H558 H 0.24904 0.17394 0.26260
 H559 H 0.28393 0.31577 0.19989
 H560 H 0.25336 0.29513 0.17425
 H561 H 0.29705 0.17841 0.20743
 H562 H 0.32969 0.19724 0.23148
 H563 H 0.20671 0.29404 0.23291
 H564 H 0.23786 0.31499 0.25619
 O565 O 0.74882 0.81999 0.21915
 O566 O 0.72226 0.82609 0.25523
 O567 O 0.81603 0.79620 0.25467
 O568 O 0.82690 0.76544 0.28087
 O569 O 0.78782 0.75657 0.19133
 O570 O 0.75383 0.72707 0.18644
 O571 O 0.75594 0.72456 0.32040
 O572 O 0.78592 0.75861 0.32455
 O573 O 0.69246 0.75561 0.29257
 O574 O 0.68331 0.78274 0.25507
 O575 O 0.72329 0.69273 0.25834
 O576 O 0.75944 0.68746 0.22871
 O577 O 0.75668 0.69504 0.29061
 O578 O 0.78400 0.68687 0.25678
 O579 O 0.69279 0.72129 0.26131
 O580 O 0.68119 0.75294 0.23257
 O581 O 0.72327 0.75779 0.32099
 O582 O 0.75484 0.78535 0.32797
 O583 O 0.75092 0.78915 0.19076
 O584 O 0.72641 0.75404 0.18454
 O585 O 0.81760 0.76099 0.22068
 O586 O 0.82625 0.73385 0.25436
 O587 O 0.78431 0.82351 0.25204
 O588 O 0.75160 0.83020 0.28015
 Zr589 Zr 0.75260 0.80170 0.25347
 O590 O 0.73213 0.78022 0.27834
 Zr591 Zr 0.79854 0.76134 0.25423
 O592 O 0.77940 0.73723 0.27796
 Zr593 Zr 0.75443 0.75694 0.21159
 O594 O 0.73258 0.73400 0.23391
 Zr595 Zr 0.75548 0.75794 0.30005
 O596 O 0.77624 0.78250 0.27789
 Zr597 Zr 0.71073 0.75517 0.25809
 O598 O 0.72966 0.77811 0.23289
 Zr599 Zr 0.75599 0.71400 0.25722
 O600 O 0.77808 0.73546 0.23339
 O601 O 0.77623 0.78189 0.23083
 O602 O 0.73283 0.73354 0.28081
 C603 C 0.74875 0.81194 0.19674
 C604 C 0.80732 0.81824 0.25303
 C605 C 0.81052 0.75855 0.19817
 C606 C 0.75585 0.70188 0.31325
 C607 C 0.70044 0.75683 0.31496
 C608 C 0.70056 0.69901 0.26085
 H609 H 0.72186 0.79127 0.28856
 H610 H 0.72248 0.72306 0.22334
 H611 H 0.78577 0.79264 0.21964
 H612 H 0.79110 0.72775 0.28824
 H613 H 0.79645 0.77265 0.31956
 H614 H 0.82371 0.75360 0.29434
 H615 H 0.68636 0.74186 0.21902
 H616 H 0.71202 0.76309 0.19116
 H617 H 0.74635 0.79988 0.32104
 H618 H 0.76405 0.82599 0.29286
 H619 H 0.74430 0.68809 0.21850
 H620 H 0.76750 0.71596 0.19120
 H621 H 0.71011 0.82031 0.24283
 H622 H 0.68491 0.79380 0.26954
 H623 H 0.82069 0.72067 0.24296
 H624 H 0.79759 0.69281 0.26745
 O625 O 0.74575 0.19142 0.79254
 O626 O 0.71361 0.18371 0.76344
 O627 O 0.80776 0.20761 0.74601
 O628 O 0.81597 0.23356 0.71520
 O629 O 0.79173 0.25289 0.80796
 O630 O 0.76300 0.28550 0.81537
 O631 O 0.74322 0.27537 0.68183
 O632 O 0.76582 0.23776 0.67667
 O633 O 0.68142 0.25630 0.72444
 O634 O 0.67503 0.23449 0.76267
 O635 O 0.72411 0.31730 0.74475
 O636 O 0.76362 0.32307 0.76563
 O637 O 0.75033 0.30796 0.70727
 O638 O 0.78523 0.31538 0.73662
 O639 O 0.69106 0.29270 0.75203
 O640 O 0.68404 0.26183 0.78650
 O641 O 0.70569 0.24884 0.69116
 O642 O 0.72990 0.21554 0.68353
 O643 O 0.75377 0.22455 0.81705
 O644 O 0.73240 0.26285 0.82250
 O645 O 0.81659 0.24625 0.77485
 O646 O 0.82047 0.26806 0.73541
 O647 O 0.77509 0.18226 0.75301
 O648 O 0.73434 0.17653 0.73325
 Zr649 Zr 0.74453 0.20631 0.75645
 O650 O 0.72105 0.22772 0.73393
 Zr651 Zr 0.79217 0.24286 0.74465
 O652 O 0.77084 0.26542 0.72131
 Zr653 Zr 0.75616 0.25439 0.79278
 O654 O 0.73350 0.27782 0.77189
 Zr655 Zr 0.74140 0.24523 0.70617
 O656 O 0.76472 0.22145 0.72686
 Zr657 Zr 0.70588 0.25688 0.75453
 O658 O 0.72694 0.23364 0.77782
 Zr659 Zr 0.75394 0.29289 0.74273
 O660 O 0.77748 0.27195 0.76567
 O661 O 0.77284 0.22609 0.77308
 O662 O 0.72507 0.27380 0.72595
 C663 C 0.74947 0.20152 0.81378
 C664 C 0.79813 0.18624 0.74898
 C665 C 0.81299 0.25002 0.79802
 C666 C 0.74644 0.29850 0.68585
 C667 C 0.68465 0.25317 0.70117
 C668 C 0.70100 0.31388 0.74826
 H669 H 0.70819 0.21703 0.72658
 H670 H 0.72659 0.29067 0.78283
 H671 H 0.78347 0.21558 0.78356
 H672 H 0.78138 0.27235 0.70818
 H673 H 0.77545 0.22299 0.68138
 H674 H 0.80878 0.24069 0.70003
 H675 H 0.68951 0.27716 0.79478
 H676 H 0.71748 0.25255 0.82028
 H677 H 0.73864 0.20080 0.68958
 H678 H 0.74691 0.17521 0.72011
 H679 H 0.75288 0.32257 0.78035
 H680 H 0.77518 0.29576 0.80651
 H681 H 0.70286 0.19308 0.77484
 H682 H 0.67628 0.21941 0.75246
 H683 H 0.81908 0.28213 0.74699
 H684 H 0.79358 0.30937 0.72155
 O685 O 0.24100 0.79506 0.78661
 O686 O 0.27385 0.80300 0.75785
 O687 O 0.17993 0.78126 0.73727
 O688 O 0.17149 0.75465 0.70656
 O689 O 0.19393 0.73270 0.79911
 O690 O 0.22335 0.70066 0.80672
 O691 O 0.24591 0.71309 0.67447
 O692 O 0.22193 0.74968 0.66891
 O693 O 0.30575 0.73281 0.71813
 O694 O 0.31055 0.75416 0.75864
 O695 O 0.26386 0.67062 0.73566
 O696 O 0.22309 0.66506 0.75723
 O697 O 0.23699 0.68010 0.69854
 O698 O 0.20297 0.67154 0.72657
 O699 O 0.29620 0.69577 0.74439
 O700 O 0.30358 0.72425 0.77908
 O701 O 0.28179 0.74095 0.68468
 O702 O 0.25322 0.77443 0.67675
 O703 O 0.23130 0.76189 0.81028
 O704 O 0.25311 0.72380 0.81543
 O705 O 0.16975 0.74296 0.76635
 O706 O 0.16612 0.72009 0.72762
 O707 O 0.21283 0.80529 0.74723
 O708 O 0.25151 0.81130 0.72769
 Zr709 Zr 0.24261 0.78090 0.75029
 O710 O 0.26622 0.76027 0.72752
 Zr711 Zr 0.19467 0.74523 0.73660
 O712 O 0.21639 0.72274 0.71330
 Zr713 Zr 0.22999 0.73237 0.78516
 O714 O 0.25326 0.70953 0.76417
 Zr715 Zr 0.24590 0.74323 0.69908
 O716 O 0.22258 0.76657 0.72004
 Zr717 Zr 0.28099 0.73098 0.74787
 O718 O 0.25959 0.75333 0.77155
 Zr719 Zr 0.23337 0.69481 0.73425
 O720 O 0.20922 0.71551 0.75698
 O721 O 0.21380 0.76117 0.76581
 O722 O 0.26228 0.71450 0.71851
 C723 C 0.23614 0.78489 0.80748
 C724 C 0.18997 0.80232 0.74174
 C725 C 0.17289 0.73738 0.78922
 C726 C 0.24221 0.68990 0.67764
 C727 C 0.30277 0.73677 0.69492
 C728 C 0.28695 0.67457 0.73949
 H729 H 0.27927 0.77116 0.72106
 H730 H 0.26014 0.69649 0.77485
 H731 H 0.20306 0.77163 0.77622
 H732 H 0.20615 0.71590 0.69980
 H733 H 0.21029 0.76271 0.67419
 H734 H 0.17723 0.74532 0.69196
 H735 H 0.29626 0.71041 0.78838
 H736 H 0.26821 0.73386 0.81349
 H737 H 0.26628 0.78428 0.68486
 H738 H 0.24242 0.80891 0.71198
 H739 H 0.23553 0.66367 0.77054
 H740 H 0.21159 0.69033 0.79725
 H741 H 0.28388 0.79393 0.77013
 H742 H 0.31131 0.76803 0.74685
 H743 H 0.16786 0.70588 0.73893
 H744 H 0.19304 0.67942 0.71344
 O745 O 0.26093 0.31778 0.72828
 O746 O 0.23480 0.32688 0.76289
 O747 O 0.32202 0.28131 0.76268
 O748 O 0.32721 0.24856 0.78768
 O749 O 0.28959 0.25062 0.69733
 O750 O 0.25247 0.22755 0.68963
 O751 O 0.25400 0.21925 0.82448
 O752 O 0.28304 0.25175 0.83161
 O753 O 0.19159 0.25903 0.79524
 O754 O 0.18722 0.28837 0.76036
 O755 O 0.21434 0.19395 0.76067
 O756 O 0.24861 0.18286 0.73312
 O757 O 0.24686 0.19037 0.79479
 O758 O 0.27488 0.18025 0.75923
 O759 O 0.18818 0.22660 0.76241
 O760 O 0.18444 0.26233 0.73372
 O761 O 0.22071 0.25084 0.82438
 O762 O 0.25089 0.27909 0.83372
 O763 O 0.25842 0.28902 0.69778
 O764 O 0.22805 0.25761 0.68998
 O765 O 0.31839 0.24653 0.72763
 O766 O 0.32163 0.21852 0.76221
 O767 O 0.29562 0.31379 0.76150
 O768 O 0.26219 0.32446 0.78955
 Zr769 Zr 0.26041 0.29757 0.76122
 O770 O 0.23532 0.27866 0.78392
 Zr771 Zr 0.29891 0.25019 0.76081
 O772 O 0.27557 0.22901 0.78330
 Zr773 Zr 0.25620 0.25521 0.71694
 O774 O 0.23077 0.23435 0.73769
 Zr775 Zr 0.25417 0.25256 0.80525
 O776 O 0.27983 0.27387 0.78508
 Zr777 Zr 0.21129 0.25771 0.76178
 O778 O 0.23459 0.27898 0.73884
 Zr779 Zr 0.24976 0.21003 0.76122
 O780 O 0.27518 0.22896 0.73836
 O781 O 0.28116 0.27524 0.73798
 O782 O 0.22899 0.23225 0.78446
 C783 C 0.26003 0.31147 0.70542
 C784 C 0.31741 0.30455 0.76233
 C785 C 0.31186 0.24702 0.70483
 C786 C 0.24999 0.19704 0.81742
 C787 C 0.19836 0.25432 0.81747
 C788 C 0.19262 0.20336 0.76183
 H789 H 0.22640 0.29046 0.79460
 H790 H 0.21958 0.22543 0.72634
 H791 H 0.29275 0.28461 0.72751
 H792 H 0.28581 0.21781 0.79339
 H793 H 0.29429 0.26557 0.82774
 H794 H 0.31978 0.24182 0.80288
 H795 H 0.18605 0.24846 0.72196
 H796 H 0.21598 0.26977 0.69626
 H797 H 0.25878 0.29424 0.82756
 H798 H 0.27603 0.31988 0.80059
 H799 H 0.23647 0.18826 0.72059
 H800 H 0.26226 0.21329 0.69542
 H801 H 0.22138 0.32274 0.75117
 H802 H 0.19163 0.29955 0.77414
 H803 H 0.31492 0.20670 0.74997
 H804 H 0.28628 0.18160 0.77346
 O805 O 0.73416 0.71589 0.71475
 O806 O 0.76125 0.70466 0.74744
 O807 O 0.66952 0.73876 0.75527
 O808 O 0.65937 0.76779 0.78242
 O809 O 0.69716 0.78106 0.69375
 O810 O 0.72997 0.81093 0.69070
 O811 O 0.73198 0.79940 0.82516
 O812 O 0.70516 0.76456 0.82715
 O813 O 0.79652 0.77241 0.79083
 O814 O 0.80457 0.75010 0.75247
 O815 O 0.76426 0.83839 0.76607
 O816 O 0.72909 0.84913 0.74087
 O817 O 0.73193 0.83282 0.80005
 O818 O 0.70232 0.84364 0.76581
 O819 O 0.79497 0.81021 0.76236
 O820 O 0.80268 0.77888 0.72921
 O821 O 0.76708 0.76996 0.82049
 O822 O 0.73924 0.73881 0.82460
 O823 O 0.73304 0.74896 0.68913
 O824 O 0.75881 0.78490 0.68691
 O825 O 0.66821 0.77707 0.72376
 O826 O 0.66226 0.80106 0.76221
 O827 O 0.69939 0.71012 0.74896
 O828 O 0.73575 0.70024 0.77469
 Zr829 Zr 0.73247 0.73072 0.75059
 O830 O 0.75534 0.74937 0.77601
 Zr831 Zr 0.68826 0.77249 0.75675
 O832 O 0.70896 0.79270 0.78274
 Zr833 Zr 0.73077 0.77926 0.71333
 O834 O 0.75336 0.80007 0.73731
 Zr835 Zr 0.73368 0.76931 0.80100
 O836 O 0.71053 0.74819 0.77752
 Zr837 Zr 0.77624 0.77637 0.75778
 O838 O 0.75552 0.75561 0.73173
 Zr839 Zr 0.73155 0.81786 0.76400
 O840 O 0.70868 0.79951 0.73799
 O841 O 0.70878 0.75328 0.73077
 O842 O 0.75569 0.79565 0.78394
 C843 C 0.73437 0.72568 0.69316
 C844 C 0.67672 0.71646 0.75192
 C845 C 0.67466 0.78002 0.70113
 C846 C 0.73178 0.82274 0.82153
 C847 C 0.78964 0.77086 0.81347
 C848 C 0.78715 0.83242 0.76509
 H849 H 0.76581 0.73732 0.78482
 H850 H 0.76301 0.81195 0.72749
 H851 H 0.69840 0.74374 0.71911
 H852 H 0.69766 0.80086 0.79449
 H853 H 0.69475 0.75077 0.82118
 H854 H 0.66615 0.77200 0.79886
 H855 H 0.79928 0.79408 0.71976
 H856 H 0.77221 0.77322 0.69100
 H857 H 0.73000 0.72492 0.81729
 H858 H 0.72126 0.70043 0.78575
 H859 H 0.74030 0.84642 0.72676
 H860 H 0.71768 0.82226 0.69804
 H861 H 0.77428 0.71251 0.73740
 H862 H 0.80089 0.73578 0.76310
 H863 H 0.66630 0.81428 0.75033
 H864 H 0.69150 0.83887 0.77966
 O865 O 0.24687 0.67609 0.28200
 O866 O 0.21459 0.66786 0.25335
 O867 O 0.30781 0.69308 0.23520
 O868 O 0.31721 0.71966 0.20596
 O869 O 0.29127 0.73799 0.29798
 O870 O 0.26264 0.77029 0.30543
 O871 O 0.24119 0.75910 0.17146
 O872 O 0.26469 0.72330 0.16550
 O873 O 0.18131 0.74132 0.21415
 O874 O 0.17391 0.72028 0.25140
 O875 O 0.22403 0.80211 0.23448
 O876 O 0.26267 0.80890 0.25328
 O877 O 0.24946 0.79208 0.19602
 O878 O 0.28553 0.79913 0.22574
 O879 O 0.19097 0.77770 0.24233
 O880 O 0.18463 0.74575 0.27689
 O881 O 0.20511 0.73097 0.18122
 O882 O 0.23480 0.69738 0.17406
 O883 O 0.25306 0.70937 0.30687
 O884 O 0.23172 0.74832 0.31188
 O885 O 0.31638 0.73107 0.26516
 O886 O 0.31962 0.75451 0.22555
 O887 O 0.27575 0.66738 0.24332
 O888 O 0.23637 0.66187 0.22189
 Zr889 Zr 0.24494 0.69119 0.24624
 O890 O 0.22082 0.71219 0.22408
 Zr891 Zr 0.29220 0.72827 0.23459
 O892 O 0.27051 0.74992 0.21069
 Zr893 Zr 0.25582 0.73938 0.28256
 O894 O 0.23336 0.76274 0.26134
 Zr895 Zr 0.24113 0.72923 0.19599
 O896 O 0.26512 0.70645 0.21684
 Zr897 Zr 0.20569 0.74167 0.24429
 O898 O 0.22684 0.71834 0.26752
 Zr899 Zr 0.25358 0.77756 0.23181
 O900 O 0.27704 0.75719 0.25543
 O901 O 0.27292 0.71133 0.26292
 O902 O 0.22472 0.75813 0.21537
 C903 C 0.24975 0.68617 0.30334
 C904 C 0.29872 0.67160 0.23899
 C905 C 0.31262 0.73478 0.28835
 C906 C 0.24468 0.78226 0.17490
 C907 C 0.18432 0.73655 0.19113
 C908 C 0.20104 0.79885 0.23874
 H909 H 0.20774 0.70139 0.21737
 H910 H 0.22657 0.77568 0.27225
 H911 H 0.28359 0.70087 0.27341
 H912 H 0.28086 0.75676 0.19736
 H913 H 0.27720 0.71115 0.17086
 H914 H 0.31016 0.72627 0.19048
 H915 H 0.18927 0.76163 0.28462
 H916 H 0.21737 0.73714 0.31044
 H917 H 0.22072 0.68825 0.18112
 H918 H 0.24730 0.66369 0.20741
 H919 H 0.25458 0.80692 0.26949
 H920 H 0.27472 0.78070 0.29660
 H921 H 0.20379 0.67690 0.26496
 H922 H 0.17699 0.70361 0.24471
 H923 H 0.31915 0.76748 0.23842
 H924 H 0.29252 0.79440 0.20956
 O925 O 0.77636 0.32021 0.30365
 O926 O 0.80321 0.32298 0.26962
 O927 O 0.70899 0.29545 0.26923
 O928 O 0.69856 0.26096 0.24439
 O929 O 0.73385 0.26217 0.33637
 O930 O 0.76482 0.23277 0.34635
 O931 O 0.76989 0.21751 0.21187
 O932 O 0.74398 0.25357 0.20099
 O933 O 0.83285 0.24516 0.24159
 O934 O 0.84315 0.27349 0.27542
 O935 O 0.79526 0.18789 0.27734
 O936 O 0.75944 0.18528 0.30376
 O937 O 0.76347 0.18974 0.24257
 O938 O 0.73305 0.18834 0.27788
 O939 O 0.82814 0.21375 0.27591
 O940 O 0.83877 0.24965 0.30336
 O941 O 0.80437 0.24809 0.21095
 O942 O 0.77146 0.27852 0.20127
 O943 O 0.77151 0.29332 0.33540
 O944 O 0.79534 0.25662 0.34477
 O945 O 0.70466 0.26285 0.30614
 O946 O 0.69570 0.23481 0.27251
 O947 O 0.74158 0.32183 0.26906
 O948 O 0.77685 0.32306 0.24144
 Zr949 Zr 0.77275 0.29879 0.27164
 O950 O 0.79414 0.27408 0.25082
 Zr951 Zr 0.72507 0.26042 0.27307
 O952 O 0.74404 0.23414 0.25162
 Zr953 Zr 0.76743 0.25883 0.31754
 O954 O 0.78787 0.23186 0.29843
 Zr955 Zr 0.77060 0.25178 0.22963
 O956 O 0.74919 0.27834 0.24852
 Zr957 Zr 0.81254 0.24931 0.27432
 O958 O 0.79386 0.27642 0.29536
 Zr959 Zr 0.76452 0.21124 0.27513
 O960 O 0.74355 0.23599 0.29687
 O961 O 0.74739 0.28250 0.29515
 O962 O 0.79037 0.22740 0.25179
 C963 C 0.77526 0.31508 0.32674
 C964 C 0.71832 0.31719 0.26812
 C965 C 0.71134 0.26316 0.32897
 C966 C 0.76680 0.19551 0.21981
 C967 C 0.82662 0.24550 0.21869
 C968 C 0.81854 0.19211 0.27706
 H969 H 0.80571 0.28358 0.24047
 H970 H 0.79651 0.22126 0.31047
 H971 H 0.73787 0.29468 0.30485
 H972 H 0.73216 0.22463 0.24155
 H973 H 0.73105 0.24121 0.20445
 H974 H 0.70658 0.26901 0.23013
 H975 H 0.83412 0.23672 0.31531
 H976 H 0.80930 0.26668 0.33876
 H977 H 0.78591 0.28925 0.20427
 H978 H 0.76396 0.31858 0.22924
 H979 H 0.77142 0.18918 0.31701
 H980 H 0.75272 0.22025 0.34082
 H981 H 0.81611 0.31599 0.28050
 H982 H 0.84105 0.28561 0.26198
 H983 H 0.69953 0.22229 0.28521
 H984 H 0.72290 0.19077 0.26288
 C985 C 0.23120 0.09195 0.06940
 C986 C 0.23237 0.10884 0.08911
 C987 C 0.22189 0.10269 0.11209
 C988 C 0.20969 0.08023 0.11477
 C989 C 0.20842 0.06357 0.09515
 C990 C 0.21960 0.06864 0.07203
 C991 C 0.22397 0.11896 0.13216
 C992 C 0.23626 0.14150 0.12947
 C993 C 0.24602 0.14813 0.10623
 C994 C 0.24407 0.13174 0.08621
 C995 C 0.25774 0.17098 0.10348
 C996 C 0.26010 0.18696 0.12364
 C997 C 0.25109 0.18023 0.14697
 C998 C 0.23904 0.15748 0.14970
 H999 H 0.23874 0.09770 0.05187
 H1000 H 0.20154 0.07523 0.13231
 H1001 H 0.20007 0.04600 0.09926
 H1002 H 0.21620 0.11399 0.14990
 H1003 H 0.25190 0.13669 0.06850
 H1004 H 0.26521 0.17644 0.08578
 H1005 H 0.26944 0.20440 0.12109
 H1006 H 0.23170 0.15226 0.16755
 C1007 C 0.74643 0.61845 0.59473
 C1008 C 0.74484 0.63496 0.61471
 C1009 C 0.74849 0.62622 0.63905
 C1010 C 0.75366 0.60131 0.64305
 C1011 C 0.75536 0.58511 0.62315
 C1012 C 0.75187 0.59347 0.59885
 C1013 C 0.74696 0.64249 0.65907
 C1014 C 0.74200 0.66747 0.65516
 C1015 C 0.73844 0.67638 0.63091
 C1016 C 0.73981 0.66004 0.61080
 C1017 C 0.73363 0.70150 0.62725
 C1018 C 0.73239 0.71761 0.64742
 C1019 C 0.73585 0.70886 0.67163
 C1020 C 0.74063 0.68368 0.67526
 H1021 H 0.74380 0.62505 0.57603
 H1022 H 0.75640 0.59432 0.66159
 H1023 H 0.75911 0.56586 0.62680
 H1024 H 0.74973 0.63570 0.67771
 H1025 H 0.73706 0.66682 0.59217
 H1026 H 0.73083 0.70868 0.60881
 H1027 H 0.72858 0.73689 0.64406
 H1028 H 0.74343 0.67662 0.69376
 C1029 C 0.73303 0.91905 0.09926
 C1030 C 0.73466 0.90305 0.11943
 C1031 C 0.72953 0.91178 0.14349
 C1032 C 0.72261 0.93649 0.14681
 C1033 C 0.72099 0.95237 0.12652
 C1034 C 0.72638 0.94383 0.10260
 C1035 C 0.73141 0.89567 0.16371
 C1036 C 0.73825 0.87094 0.16005
 C1037 C 0.74317 0.86238 0.13585
 C1038 C 0.74139 0.87845 0.11578
 C1039 C 0.74982 0.83780 0.13199
 C1040 C 0.75154 0.82169 0.15185
 C1041 C 0.74676 0.82975 0.17610
 C1042 C 0.74020 0.85456 0.18010
 H1043 H 0.73676 0.91214 0.08084
 H1044 H 0.71857 0.94356 0.16509
 H1045 H 0.71594 0.97143 0.12956
 H1046 H 0.72754 0.90233 0.18219
 H1047 H 0.74525 0.87178 0.09728
 H1048 H 0.75367 0.83100 0.11357
 H1049 H 0.75681 0.80280 0.14810
 H1050 H 0.73643 0.86104 0.19866
 C1051 C 0.26325 0.40447 0.59296
 C1052 C 0.26267 0.38508 0.61010
 C1053 C 0.25901 0.36061 0.60179
 C1054 C 0.25611 0.35594 0.57650
 C1055 C 0.25652 0.37532 0.55961
 C1056 C 0.25992 0.39976 0.56763
 C1057 C 0.25809 0.34123 0.61888
 C1058 C 0.26059 0.34600 0.64424
 C1059 C 0.26430 0.37047 0.65251
 C1060 C 0.26541 0.38981 0.63542
 C1061 C 0.26672 0.37525 0.67781
 C1062 C 0.26531 0.35606 0.69482
 C1063 C 0.26149 0.33159 0.68694
 C1064 C 0.25927 0.32672 0.66149
 H1065 H 0.26571 0.42325 0.59935
 H1066 H 0.25339 0.33731 0.56978
 H1067 H 0.25431 0.37116 0.54016
 H1068 H 0.25524 0.32249 0.61247
 H1069 H 0.26820 0.40856 0.64184
 H1070 H 0.26963 0.39387 0.68448
 H1071 H 0.26726 0.36048 0.71424
 H1072 H 0.25637 0.30800 0.65508
 C1073 C 0.73227 0.10984 0.92562
 C1074 C 0.73374 0.12286 0.90335
 C1075 C 0.72260 0.11328 0.88180
 C1076 C 0.71015 0.09071 0.88297
 C1077 C 0.70885 0.07770 0.90521
 C1078 C 0.72003 0.08688 0.92703
 C1079 C 0.72401 0.12647 0.85952
 C1080 C 0.73637 0.14922 0.85866
 C1081 C 0.74753 0.15866 0.88037
 C1082 C 0.74617 0.14545 0.90248
 C1083 C 0.75976 0.18132 0.87973
 C1084 C 0.76059 0.19485 0.85795
 C1085 C 0.74932 0.18597 0.83623
 C1086 C 0.73750 0.16288 0.83662
 H1087 H 0.74002 0.11837 0.94196
 H1088 H 0.70159 0.08296 0.86660
 H1089 H 0.69990 0.05992 0.90473
 H1090 H 0.71537 0.11915 0.84297
 H1091 H 0.75473 0.15282 0.91906
 H1092 H 0.76851 0.18874 0.89617
 H1093 H 0.77007 0.21242 0.85817
 H1094 H 0.72869 0.15588 0.82003
 C1095 C 0.25971 0.58539 0.40793
 C1096 C 0.25892 0.60031 0.38685
 C1097 C 0.26432 0.59005 0.36346
 C1098 C 0.27077 0.56509 0.36166
 C1099 C 0.27160 0.55036 0.38279
 C1100 C 0.26586 0.56031 0.40606
 C1101 C 0.26313 0.60489 0.34229
 C1102 C 0.25681 0.62990 0.34428
 C1103 C 0.25177 0.64017 0.36777
 C1104 C 0.25275 0.62531 0.38886
 C1105 C 0.24592 0.66523 0.36981
 C1106 C 0.24517 0.68006 0.34882
 C1107 C 0.24996 0.67008 0.32534
 C1108 C 0.25564 0.64488 0.32320
 H1109 H 0.25561 0.59332 0.42586
 H1110 H 0.27501 0.55691 0.34389
 H1111 H 0.27620 0.53104 0.38089
 H1112 H 0.26716 0.59701 0.32432
 H1113 H 0.24874 0.63319 0.40684
 H1114 H 0.24205 0.67339 0.38767
 H1115 H 0.24071 0.69940 0.35098
 H1116 H 0.25965 0.63704 0.30522
 C1117 C 0.23841 0.88551 0.91313
 C1118 C 0.24177 0.86924 0.89324
 C1119 C 0.25841 0.87537 0.87415
 C1120 C 0.27206 0.89726 0.87577
 C1121 C 0.26872 0.91327 0.89572
 C1122 C 0.25158 0.90777 0.91431
 C1123 C 0.26084 0.85976 0.85361
 C1124 C 0.24698 0.83798 0.85198
 C1125 C 0.23098 0.83146 0.87150
 C1126 C 0.22841 0.84716 0.89193
 C1127 C 0.21760 0.80942 0.87014
 C1128 C 0.21974 0.79413 0.84951
 C1129 C 0.23503 0.80073 0.82968
 C1130 C 0.24871 0.82269 0.83109
 H1131 H 0.22532 0.88105 0.92754
 H1132 H 0.28497 0.90221 0.86139
 H1133 H 0.27889 0.93044 0.89616
 H1134 H 0.27332 0.86467 0.83879
 H1135 H 0.21583 0.84232 0.90668
 H1136 H 0.20535 0.80409 0.88496
 H1137 H 0.20894 0.77735 0.84881
 H1138 H 0.26073 0.82781 0.81598
 C1139 C 0.76594 0.42277 0.42442
 C1140 C 0.76661 0.40093 0.41059
 C1141 C 0.75457 0.37960 0.41938
 C1142 C 0.74228 0.38053 0.44212
 C1143 C 0.74187 0.40237 0.45593
 C1144 C 0.75366 0.42374 0.44723
 C1145 C 0.75487 0.35786 0.40518
 C1146 C 0.76698 0.35730 0.38227
 C1147 C 0.77923 0.37868 0.37377
 C1148 C 0.77902 0.40026 0.38798
 C1149 C 0.79117 0.37836 0.35092
 C1150 C 0.79039 0.35734 0.33617
 C1151 C 0.77786 0.33608 0.34401
 C1152 C 0.76658 0.33598 0.36739
 H1153 H 0.77471 0.43916 0.41717
 H1154 H 0.73303 0.36436 0.44925
 H1155 H 0.73256 0.40244 0.47359
 H1156 H 0.74546 0.34154 0.41180
 H1157 H 0.78830 0.41664 0.38129
 H1158 H 0.80072 0.39455 0.34423
 H1159 H 0.79939 0.35783 0.31834
 H1160 H 0.75672 0.31975 0.37352
 C1161 C 0.09433 0.26775 0.08809
 C1162 C 0.11657 0.26625 0.10123
 C1163 C 0.13727 0.25483 0.09038
 C1164 C 0.13538 0.24531 0.06640
 C1165 C 0.11308 0.24664 0.05346
 C1166 C 0.09202 0.25774 0.06407
 C1167 C 0.15933 0.25272 0.10384
 C1168 C 0.16072 0.26144 0.12823
 C1169 C 0.13994 0.27294 0.13900
 C1170 C 0.11813 0.27547 0.12537
 C1171 C 0.14107 0.28121 0.16347
 C1172 C 0.16233 0.27749 0.17747
 C1173 C 0.18300 0.26577 0.16717
 C1174 C 0.18228 0.25823 0.14232
 H1175 H 0.07853 0.27552 0.09745
 H1176 H 0.15112 0.23668 0.05767
 H1177 H 0.11282 0.23954 0.03479
 H1178 H 0.17519 0.24381 0.09555
 H1179 H 0.10219 0.28417 0.13375
 H1180 H 0.12533 0.29009 0.17197
 H1181 H 0.16252 0.28363 0.19653
 H1182 H 0.19807 0.24899 0.13429
 C1183 C 0.57887 0.76590 0.59198
 C1184 C 0.59889 0.76825 0.60824
 C1185 C 0.62268 0.76093 0.60059
 C1186 C 0.62596 0.75143 0.57669
 C1187 C 0.60584 0.74908 0.56059
 C1188 C 0.58212 0.75632 0.56806
 C1189 C 0.64268 0.76300 0.61704
 C1190 C 0.63906 0.77199 0.64112
 C1191 C 0.61519 0.77930 0.64865
 C1192 C 0.59534 0.77754 0.63213
 C1193 C 0.61142 0.78783 0.67277
 C1194 C 0.63095 0.78856 0.68956
 C1195 C 0.65472 0.78113 0.68248
 C1196 C 0.65876 0.77325 0.65804
 H1197 H 0.56060 0.77112 0.59816
 H1198 H 0.64405 0.74574 0.57047
 H1199 H 0.60888 0.74184 0.54220
 H1200 H 0.66093 0.75728 0.61123
 H1201 H 0.57705 0.78309 0.63799
 H1202 H 0.59326 0.79351 0.67880
 H1203 H 0.62739 0.79478 0.70824
 H1204 H 0.67697 0.76720 0.65246
 C1205 C 0.07366 0.72788 0.89542
 C1206 C 0.09308 0.72687 0.87828
 C1207 C 0.11464 0.71345 0.88407
 C1208 C 0.11633 0.70096 0.90651
 C1209 C 0.09692 0.70171 0.92325
 C1210 C 0.07520 0.71519 0.91817
 C1211 C 0.13429 0.71273 0.86740
 C1212 C 0.13263 0.72504 0.84479
 C1213 C 0.11092 0.73804 0.83857
 C1214 C 0.09128 0.73897 0.85542
 C1215 C 0.10937 0.74998 0.81565
 C1216 C 0.12928 0.74933 0.79926
 C1217 C 0.15113 0.73691 0.80562
 C1218 C 0.15252 0.72464 0.82838
 H1219 H 0.05706 0.73781 0.89045
 H1220 H 0.13282 0.69073 0.91127
 H1221 H 0.09969 0.69252 0.94073
 H1222 H 0.15090 0.70261 0.87205
 H1223 H 0.07469 0.74912 0.85077
 H1224 H 0.09286 0.75997 0.81049
 H1225 H 0.12777 0.75902 0.78186
 H1226 H 0.16916 0.71478 0.83343
 C1227 C 0.59699 0.26156 0.41904
 C1228 C 0.61440 0.26137 0.39998
 C1229 C 0.60721 0.25443 0.37584
 C1230 C 0.58260 0.24781 0.37124
 C1231 C 0.56533 0.24799 0.39041
 C1232 C 0.57235 0.25492 0.41446
 C1233 C 0.62476 0.25405 0.35680
 C1234 C 0.64943 0.26033 0.36173
 C1235 C 0.65648 0.26727 0.38595
 C1236 C 0.63893 0.26784 0.40485
 C1237 C 0.68106 0.27331 0.39100
 C1238 C 0.69869 0.27216 0.37237
 C1239 C 0.69209 0.26511 0.34822
 C1240 C 0.66728 0.25948 0.34295
 H1241 H 0.60275 0.26648 0.43760
 H1242 H 0.57671 0.24245 0.35286
 H1243 H 0.54642 0.24297 0.38637
 H1244 H 0.61929 0.24868 0.33828
 H1245 H 0.64442 0.27312 0.42341
 H1246 H 0.68672 0.27873 0.40944
 H1247 H 0.71758 0.27682 0.37693
 H1248 H 0.66196 0.25394 0.32444
 C1249 C 0.90635 0.74018 0.08993
 C1250 C 0.88639 0.74231 0.10626
 C1251 C 0.86346 0.73154 0.10017
 C1252 C 0.86088 0.71885 0.07782
 C1253 C 0.88078 0.71674 0.06165
 C1254 C 0.90400 0.72730 0.06730
 C1255 C 0.84354 0.73346 0.11659
 C1256 C 0.84638 0.74577 0.13924
 C1257 C 0.86940 0.75653 0.14529
 C1258 C 0.88916 0.75485 0.12876
 C1259 C 0.87243 0.76855 0.16798
 C1260 C 0.85307 0.76945 0.18481
 C1261 C 0.83015 0.75859 0.17924
 C1262 C 0.82678 0.74711 0.15617
 H1263 H 0.92392 0.74780 0.09559
 H1264 H 0.84337 0.71065 0.07271
 H1265 H 0.87732 0.70760 0.04423
 H1266 H 0.82596 0.72511 0.11189
 H1267 H 0.90677 0.76309 0.13352
 H1268 H 0.88990 0.77696 0.17288
 H1269 H 0.85611 0.77864 0.20234
 H1270 H 0.80924 0.73859 0.15173
 C1271 C 0.40987 0.24805 0.59689
 C1272 C 0.38959 0.24856 0.61299
 C1273 C 0.36723 0.25964 0.60535
 C1274 C 0.36550 0.26986 0.58169
 C1275 C 0.38578 0.26943 0.56587
 C1276 C 0.40821 0.25872 0.57332
 C1277 C 0.34707 0.26058 0.62154
 C1278 C 0.34905 0.25087 0.64545
 C1279 C 0.37141 0.23974 0.65303
 C1280 C 0.39143 0.23850 0.63673
 C1281 C 0.37355 0.23036 0.67698
 C1282 C 0.35399 0.23244 0.69349
 C1283 C 0.33172 0.24370 0.68637
 C1284 C 0.32923 0.25256 0.66210
 H1285 H 0.42710 0.23987 0.60289
 H1286 H 0.34851 0.27832 0.57545
 H1287 H 0.38385 0.27737 0.54764
 H1288 H 0.32999 0.26918 0.61566
 H1289 H 0.40857 0.23004 0.64266
 H1290 H 0.39051 0.22173 0.68308
 H1291 H 0.35637 0.22527 0.71199
 H1292 H 0.31224 0.26142 0.65643
 C1293 C 0.91221 0.25495 0.90444
 C1294 C 0.89253 0.25150 0.88803
 C1295 C 0.87013 0.24152 0.89665
 C1296 C 0.86816 0.23432 0.92139
 C1297 C 0.88807 0.23730 0.93757
 C1298 C 0.91028 0.24815 0.92953
 C1299 C 0.85010 0.23896 0.88042
 C1300 C 0.85240 0.24592 0.85559
 C1301 C 0.87516 0.25498 0.84676
 C1302 C 0.89503 0.25786 0.86307
 C1303 C 0.87760 0.26123 0.82177
 C1304 C 0.85752 0.25900 0.80574
 C1305 C 0.83461 0.25086 0.81453
 C1306 C 0.83224 0.24411 0.83945
 H1307 H 0.92939 0.26211 0.89724
 H1308 H 0.85113 0.22652 0.92829
 H1309 H 0.88547 0.23216 0.95668
 H1310 H 0.83274 0.23167 0.88710
 H1311 H 0.91238 0.26518 0.85639
 H1312 H 0.89497 0.26803 0.81469
 H1313 H 0.85971 0.26428 0.78659
 H1314 H 0.81470 0.23744 0.84628
 C1315 C 0.41055 0.73433 0.39654
 C1316 C 0.39068 0.73295 0.38001
 C1317 C 0.36657 0.72933 0.38916
 C1318 C 0.36287 0.72662 0.41464
 C1319 C 0.38282 0.72797 0.43099
 C1320 C 0.40674 0.73219 0.42211
 C1321 C 0.34656 0.72874 0.37272
 C1322 C 0.35038 0.73170 0.34728
 C1323 C 0.37454 0.73480 0.33808
 C1324 C 0.39455 0.73542 0.35452
 C1325 C 0.37824 0.73739 0.31259
 C1326 C 0.35817 0.73719 0.29634
 C1327 C 0.33404 0.73461 0.30533
 C1328 C 0.33035 0.73171 0.33088
 H1329 H 0.42903 0.73717 0.38952
 H1330 H 0.34453 0.72376 0.42195
 H1331 H 0.37950 0.72636 0.45063
 H1332 H 0.32803 0.72619 0.37974
 H1333 H 0.41307 0.73804 0.34751
 H1334 H 0.39665 0.73967 0.30523
 H1335 H 0.36151 0.73937 0.27676
 H1336 H 0.31187 0.72935 0.33808
 C1337 C 0.10247 0.09095 0.23641
 C1338 C 0.12249 0.10685 0.23324
 C1339 C 0.14463 0.09787 0.22290
 C1340 C 0.14609 0.07309 0.21548
 C1341 C 0.12595 0.05729 0.21877
 C1342 C 0.10414 0.06602 0.22962
 C1343 C 0.16494 0.11374 0.22043
 C1344 C 0.16329 0.13839 0.22827
 C1345 C 0.14093 0.14732 0.23823
 C1346 C 0.12069 0.13153 0.24059
 C1347 C 0.13918 0.17190 0.24592
 C1348 C 0.15946 0.18754 0.24405
 C1349 C 0.18196 0.17891 0.23453
 C1350 C 0.18368 0.15425 0.22652
 H1351 H 0.08550 0.09797 0.24429
 H1352 H 0.16287 0.06588 0.20742
 H1353 H 0.12760 0.03814 0.21339
 H1354 H 0.18202 0.10686 0.21266
 H1355 H 0.10362 0.13839 0.24842
 H1356 H 0.12214 0.17901 0.25354
 H1357 H 0.15755 0.20639 0.25036
 H1358 H 0.20084 0.14738 0.21895
 C1359 C 0.58658 0.60232 0.74106
 C1360 C 0.60550 0.61986 0.74135
 C1361 C 0.62947 0.61323 0.73366
 C1362 C 0.63391 0.58902 0.72555
 C1363 C 0.61485 0.57157 0.72533
 C1364 C 0.59108 0.57801 0.73334
 C1365 C 0.64846 0.63089 0.73426
 C1366 C 0.64367 0.65505 0.74242
 C1367 C 0.61953 0.66151 0.74988
 C1368 C 0.60068 0.64392 0.74931
 C1369 C 0.61453 0.68551 0.75785
 C1370 C 0.63319 0.70311 0.75847
 C1371 C 0.65736 0.69714 0.75121
 C1372 C 0.66249 0.67293 0.74323
 H1373 H 0.56818 0.60767 0.74673
 H1374 H 0.65214 0.58356 0.71953
 H1375 H 0.61878 0.55294 0.71932
 H1376 H 0.66690 0.62584 0.72844
 H1377 H 0.58223 0.64896 0.75513
 H1378 H 0.59613 0.69070 0.76362
 H1379 H 0.62860 0.72149 0.76478
 H1380 H 0.68098 0.66806 0.73747
 C1381 C 0.90793 0.09091 0.74854
 C1382 C 0.89012 0.10943 0.75177
 C1383 C 0.89475 0.12900 0.76841
 C1384 C 0.91655 0.12913 0.78233
 C1385 C 0.93359 0.11000 0.77997
 C1386 C 0.92978 0.09073 0.76284
 C1387 C 0.87741 0.14798 0.77108
 C1388 C 0.85503 0.14714 0.75807
 C1389 C 0.84976 0.12688 0.74244
 C1390 C 0.86753 0.10838 0.73904
 C1391 C 0.82680 0.12555 0.73045
 C1392 C 0.80945 0.14439 0.73346
 C1393 C 0.81506 0.16508 0.74799
 C1394 C 0.83780 0.16628 0.76040
 H1395 H 0.90399 0.07587 0.73593
 H1396 H 0.92032 0.14394 0.79527
 H1397 H 0.95027 0.11089 0.79097
 H1398 H 0.88122 0.16327 0.78348
 H1399 H 0.86369 0.09308 0.72669
 H1400 H 0.82235 0.11004 0.71860
 H1401 H 0.79202 0.14327 0.72370
 H1402 H 0.84205 0.18216 0.77185
 C1403 C 0.41079 0.57839 0.23977
 C1404 C 0.39336 0.59750 0.24045
 C1405 C 0.40140 0.62206 0.24391
 C1406 C 0.42659 0.62704 0.24698
 C1407 C 0.44376 0.60787 0.24658
 C1408 C 0.43607 0.58346 0.24283
 C1409 C 0.38415 0.64126 0.24428
 C1410 C 0.35893 0.63624 0.24146
 C1411 C 0.35076 0.61170 0.23844
 C1412 C 0.36806 0.59245 0.23784
 C1413 C 0.32541 0.60689 0.23606
 C1414 C 0.30834 0.62625 0.23648
 C1415 C 0.31636 0.65074 0.23902
 C1416 C 0.34175 0.65549 0.24163
 H1417 H 0.40470 0.55952 0.23724
 H1418 H 0.43302 0.64575 0.24971
 H1419 H 0.46314 0.61215 0.24889
 H1420 H 0.39035 0.66011 0.24678
 H1421 H 0.36186 0.57361 0.23536
 H1422 H 0.31880 0.58818 0.23384
 H1423 H 0.28891 0.62208 0.23450
 H1424 H 0.34825 0.67425 0.24398
 C1425 C 0.09245 0.91061 0.74457
 C1426 C 0.10636 0.88895 0.74272
 C1427 C 0.09434 0.86596 0.74022
 C1428 C 0.06848 0.86520 0.73927
 C1429 C 0.05472 0.88695 0.74111
 C1430 C 0.06658 0.90981 0.74406
 C1431 C 0.10839 0.84421 0.73891
 C1432 C 0.13427 0.84524 0.74013
 C1433 C 0.14610 0.86839 0.74234
 C1434 C 0.13212 0.89002 0.74355
 C1435 C 0.17181 0.86960 0.74358
 C1436 C 0.18581 0.84813 0.74303
 C1437 C 0.17447 0.82486 0.74117
 C1438 C 0.14856 0.82358 0.73947
 H1439 H 0.10180 0.92819 0.74636
 H1440 H 0.05891 0.84778 0.73732
 H1441 H 0.03479 0.88587 0.74075
 H1442 H 0.09920 0.82653 0.73716
 H1443 H 0.14130 0.90769 0.74540
 H1444 H 0.18114 0.88720 0.74520
 H1445 H 0.20567 0.84983 0.74420
 H1446 H 0.13952 0.80582 0.73807
 C1447 C 0.60977 0.41392 0.25968
 C1448 C 0.62644 0.39418 0.25965
 C1449 C 0.61820 0.37034 0.25299
 C1450 C 0.59350 0.36677 0.24608
 C1451 C 0.57712 0.38664 0.24574
 C1452 C 0.58508 0.41028 0.25268
 C1453 C 0.63479 0.35052 0.25324
 C1454 C 0.65957 0.35431 0.25975
 C1455 C 0.66788 0.37825 0.26593
 C1456 C 0.65123 0.39800 0.26599
 C1457 C 0.69273 0.38203 0.27201
 C1458 C 0.70919 0.36226 0.27223
 C1459 C 0.70109 0.33829 0.26658
 C1460 C 0.67619 0.33451 0.26023
 H1461 H 0.61607 0.43223 0.26467
 H1462 H 0.58689 0.34866 0.24084
 H1463 H 0.55814 0.38354 0.24029
 H1464 H 0.62844 0.33220 0.24831
 H1465 H 0.65759 0.41632 0.27090
 H1466 H 0.69941 0.40027 0.27671
 H1467 H 0.72821 0.36570 0.27730
 H1468 H 0.66971 0.31615 0.25566
 C1469 C 0.90964 0.92170 0.25681
 C1470 C 0.89398 0.90121 0.25862
 C1471 C 0.90124 0.88056 0.27269
 C1472 C 0.92383 0.88098 0.28514
 C1473 C 0.93935 0.90139 0.28330
 C1474 C 0.93280 0.92208 0.26881
 C1475 C 0.88589 0.85980 0.27399
 C1476 C 0.86317 0.85955 0.26158
 C1477 C 0.85572 0.88046 0.24790
 C1478 C 0.87118 0.90107 0.24643
 C1479 C 0.83283 0.88050 0.23594
 C1480 C 0.81733 0.86014 0.23768
 C1481 C 0.82452 0.83918 0.25111
 C1482 C 0.84763 0.83886 0.26283
 H1483 H 0.90331 0.93750 0.24643
 H1484 H 0.92976 0.86529 0.29597
 H1485 H 0.95714 0.90004 0.29225
 H1486 H 0.89159 0.84389 0.28467
 H1487 H 0.86547 0.91698 0.23575
 H1488 H 0.82683 0.89636 0.22539
 H1489 H 0.79966 0.86071 0.22831
 H1490 H 0.85320 0.82283 0.27337
 C1491 C 0.41606 0.41025 0.74633
 C1492 C 0.39590 0.39426 0.74818
 C1493 C 0.37210 0.40262 0.74161
 C1494 C 0.36899 0.42683 0.73311
 C1495 C 0.38925 0.44268 0.73134
 C1496 C 0.41291 0.43460 0.73812
 C1497 C 0.35187 0.38665 0.74364
 C1498 C 0.35522 0.36241 0.75203
 C1499 C 0.37908 0.35406 0.75843
 C1500 C 0.39925 0.37006 0.75652
 C1501 C 0.38241 0.32977 0.76648
 C1502 C 0.36233 0.31376 0.76800
 C1503 C 0.33851 0.32181 0.76173
 C1504 C 0.33510 0.34629 0.75389
 H1505 H 0.43432 0.40366 0.75113
 H1506 H 0.35089 0.43355 0.72797
 H1507 H 0.38636 0.46140 0.72509
 H1508 H 0.33359 0.39303 0.73862
 H1509 H 0.41754 0.36366 0.76147
 H1510 H 0.40058 0.32309 0.77143
 H1511 H 0.36547 0.29503 0.77408
 H1512 H 0.31687 0.35269 0.74872
 C1513 C 0.09196 0.25658 0.91601
 C1514 C 0.11010 0.26022 0.89803
 C1515 C 0.11309 0.28367 0.88724
 C1516 C 0.09844 0.30332 0.89533
 C1517 C 0.08069 0.29970 0.91363
 C1518 C 0.07675 0.27614 0.92394
 C1519 C 0.13070 0.28710 0.86861
 C1520 C 0.14577 0.26745 0.86114
 C1521 C 0.14332 0.24419 0.87266
 C1522 C 0.12533 0.24067 0.89080
 C1523 C 0.15901 0.22482 0.86597
 C1524 C 0.17706 0.22843 0.84808
 C1525 C 0.17925 0.25123 0.83620
 C1526 C 0.16351 0.27069 0.84257
 H1527 H 0.09039 0.23854 0.92437
 H1528 H 0.10054 0.32148 0.88734
 H1529 H 0.06923 0.31523 0.91859
 H1530 H 0.13279 0.30504 0.86009
 H1531 H 0.12328 0.22274 0.89935
 H1532 H 0.15747 0.20695 0.87471
 H1533 H 0.18918 0.21331 0.84324
 H1534 H 0.16547 0.28836 0.83349
 C1535 C 0.59310 0.74764 0.41284
 C1536 C 0.60930 0.74815 0.39271
 C1537 C 0.60135 0.73956 0.36931
 C1538 C 0.57731 0.73053 0.36650
 C1539 C 0.56133 0.72998 0.38666
 C1540 C 0.56905 0.73850 0.40999
 C1541 C 0.61754 0.74007 0.34916
 C1542 C 0.64168 0.74887 0.35216
 C1543 C 0.64960 0.75732 0.37563
 C1544 C 0.63337 0.75701 0.39568
 C1545 C 0.67375 0.76581 0.37875
 C1546 C 0.69004 0.76573 0.35892
 C1547 C 0.68249 0.75736 0.33546
 C1548 C 0.65813 0.74914 0.33215
 H1549 H 0.59928 0.75405 0.43080
 H1550 H 0.57085 0.72393 0.34872
 H1551 H 0.54275 0.72320 0.38391
 H1552 H 0.61142 0.73348 0.33123
 H1553 H 0.63951 0.76354 0.41364
 H1554 H 0.68012 0.77236 0.39659
 H1555 H 0.70864 0.77232 0.36200
 H1556 H 0.65212 0.74253 0.31420
 C1557 C 0.89926 0.75140 0.90759
 C1558 C 0.88274 0.75374 0.88781
 C1559 C 0.88840 0.74312 0.86471
 C1560 C 0.91054 0.73012 0.86193
 C1561 C 0.92681 0.72748 0.88188
 C1562 C 0.92158 0.73820 0.90510
 C1563 C 0.87165 0.74535 0.84496
 C1564 C 0.84905 0.75758 0.84832
 C1565 C 0.84339 0.76790 0.87165
 C1566 C 0.86034 0.76616 0.89109
 C1567 C 0.82063 0.77948 0.87534
 C1568 C 0.80337 0.78046 0.85627
 C1569 C 0.80867 0.77032 0.83300
 C1570 C 0.83175 0.75920 0.82897
 H1571 H 0.89380 0.75886 0.92530
 H1572 H 0.91526 0.72187 0.84432
 H1573 H 0.94389 0.71773 0.87864
 H1574 H 0.87599 0.73721 0.82718
 H1575 H 0.85591 0.77414 0.90893
 H1576 H 0.81603 0.78745 0.89311
 H1577 H 0.78579 0.78929 0.85972
 H1578 H 0.83588 0.75116 0.81111
 C1579 C 0.42504 0.25036 0.38973
 C1580 C 0.40717 0.25166 0.37095
 C1581 C 0.38824 0.26952 0.37249
 C1582 C 0.38811 0.28641 0.39211
 C1583 C 0.40611 0.28517 0.41052
 C1584 C 0.42438 0.26688 0.40975
 C1585 C 0.36948 0.26995 0.35468
 C1586 C 0.36953 0.25295 0.33517
 C1587 C 0.38900 0.23579 0.33289
 C1588 C 0.40766 0.23514 0.35092
 C1589 C 0.38927 0.21943 0.31273
 C1590 C 0.37014 0.21974 0.29530
 C1591 C 0.35028 0.23602 0.29817
 C1592 C 0.35022 0.25273 0.31798
 H1593 H 0.43925 0.23633 0.38900
 H1594 H 0.37382 0.30030 0.39346
 H1595 H 0.40522 0.29793 0.42590
 H1596 H 0.35469 0.28332 0.35617
 H1597 H 0.42234 0.22167 0.34951
 H1598 H 0.40416 0.20631 0.31054
 H1599 H 0.37048 0.20687 0.27999
 H1600 H 0.33512 0.26568 0.31991
 C1601 C 0.07338 0.72756 0.09642
 C1602 C 0.09411 0.72548 0.11190
 C1603 C 0.11081 0.70576 0.10851
 C1604 C 0.10600 0.68798 0.09029
 C1605 C 0.08522 0.69007 0.07511
 C1606 C 0.06895 0.71005 0.07773
 C1607 C 0.13216 0.70427 0.12319
 C1608 C 0.13683 0.72203 0.14151
 C1609 C 0.11966 0.74127 0.14544
 C1610 C 0.09856 0.74299 0.13049
 C1611 C 0.12387 0.75849 0.16432
 C1612 C 0.14485 0.75671 0.17919
 C1613 C 0.16231 0.73804 0.17512
 C1614 C 0.15829 0.72080 0.15612
 H1615 H 0.06082 0.74293 0.09868
 H1616 H 0.11851 0.67268 0.08750
 H1617 H 0.08236 0.67652 0.06066
 H1618 H 0.14512 0.68932 0.12034
 H1619 H 0.08563 0.75797 0.13329
 H1620 H 0.11087 0.77327 0.16767
 H1621 H 0.14766 0.77019 0.19372
 H1622 H 0.17157 0.70617 0.15312
 C1623 C 0.57880 0.25183 0.59989
 C1624 C 0.59987 0.25069 0.61510
 C1625 C 0.62202 0.24065 0.60571
 C1626 C 0.62276 0.23187 0.58140
 C1627 C 0.60178 0.23294 0.56649
 C1628 C 0.57958 0.24282 0.57551
 C1629 C 0.64310 0.23949 0.62073
 C1630 C 0.64235 0.24805 0.64516
 C1631 C 0.62020 0.25798 0.65464
 C1632 C 0.59914 0.25933 0.63955
 C1633 C 0.61948 0.26632 0.67914
 C1634 C 0.64040 0.26470 0.69416
 C1635 C 0.66258 0.25486 0.68497
 C1636 C 0.66340 0.24669 0.66031
 H1637 H 0.56178 0.25941 0.60707
 H1638 H 0.63959 0.22421 0.57387
 H1639 H 0.60306 0.22634 0.54764
 H1640 H 0.66005 0.23181 0.61343
 H1641 H 0.58218 0.26699 0.64685
 H1642 H 0.60270 0.27402 0.68674
 H1643 H 0.63922 0.27133 0.71300
 H1644 H 0.68030 0.23900 0.65295
 C1645 C 0.91940 0.24786 0.10645
 C1646 C 0.89998 0.24735 0.12347
 C1647 C 0.87580 0.25320 0.11564
 C1648 C 0.87148 0.25929 0.09085
 C1649 C 0.89096 0.25979 0.07401
 C1650 C 0.91510 0.25414 0.08162
 C1651 C 0.85642 0.25311 0.13275
 C1652 C 0.86097 0.24746 0.15764
 C1653 C 0.88514 0.24146 0.16539
 C1654 C 0.90446 0.24134 0.14825
 C1655 C 0.88968 0.23599 0.19026
 C1656 C 0.87058 0.23694 0.20744
 C1657 C 0.84650 0.24324 0.20010
 C1658 C 0.84180 0.24814 0.17500
 H1659 H 0.93798 0.24385 0.11267
 H1660 H 0.85306 0.26376 0.08450
 H1661 H 0.88709 0.26438 0.05494
 H1662 H 0.83789 0.25772 0.12677
 H1663 H 0.92301 0.23684 0.15425
 H1664 H 0.90808 0.23127 0.19648
 H1665 H 0.87475 0.23289 0.22658
 H1666 H 0.82336 0.25306 0.16903
 C1667 C 0.40802 0.74232 0.59427
 C1668 C 0.38690 0.74225 0.60914
 C1669 C 0.36369 0.74781 0.59863
 C1670 C 0.36204 0.75333 0.57340
 C1671 C 0.38316 0.75322 0.55867
 C1672 C 0.40635 0.74765 0.56891
 C1673 C 0.34253 0.74772 0.61349
 C1674 C 0.34431 0.74210 0.63872
 C1675 C 0.36755 0.73649 0.64918
 C1676 C 0.38868 0.73664 0.63435
 C1677 C 0.36928 0.73083 0.67435
 C1678 C 0.34823 0.73084 0.68911
 C1679 C 0.32499 0.73652 0.67902
 C1680 C 0.32322 0.74205 0.65368
 H1681 H 0.42582 0.73839 0.60251
 H1682 H 0.34439 0.75757 0.56501
 H1683 H 0.38128 0.75709 0.53916
 H1684 H 0.32472 0.75200 0.60542
 H1685 H 0.40650 0.73234 0.64241
 H1686 H 0.38694 0.72642 0.68264
 H1687 H 0.35022 0.72639 0.70850
 H1688 H 0.30546 0.74643 0.64558
 C1689 C 0.23335 0.08904 0.91312
 C1690 C 0.23278 0.10660 0.89425
 C1691 C 0.21601 0.10391 0.87438
 C1692 C 0.19957 0.08394 0.87422
 C1693 C 0.20026 0.06646 0.89317
 C1694 C 0.21747 0.06864 0.91250
 C1695 C 0.21622 0.12103 0.85495
 C1696 C 0.23288 0.14086 0.85531
 C1697 C 0.24917 0.14373 0.87560
 C1698 C 0.24907 0.12658 0.89483
 C1699 C 0.26539 0.16376 0.87639
 C1700 C 0.26551 0.18090 0.85733
 C1701 C 0.24972 0.17815 0.83690
 C1702 C 0.23350 0.15798 0.83585
 H1703 H 0.24644 0.09101 0.92817
 H1704 H 0.18649 0.08160 0.85923
 H1705 H 0.18795 0.05077 0.89227
 H1706 H 0.20354 0.11887 0.83957
 H1707 H 0.26179 0.12870 0.91019
 H1708 H 0.27792 0.16624 0.89183
 H1709 H 0.27818 0.19630 0.85844
 H1710 H 0.22106 0.15597 0.82026
 C1711 C 0.75431 0.60233 0.41968
 C1712 C 0.75579 0.62289 0.40420
 C1713 C 0.76479 0.64555 0.41345
 C1714 C 0.77217 0.64708 0.43830
 C1715 C 0.77052 0.62642 0.45372
 C1716 C 0.76143 0.60387 0.44459
 C1717 C 0.76627 0.66611 0.39767
 C1718 C 0.75891 0.66414 0.37278
 C1719 C 0.74988 0.64129 0.36386
 C1720 C 0.74837 0.62095 0.37955
 C1721 C 0.74254 0.63893 0.33925
 C1722 C 0.74443 0.65883 0.32333
 C1723 C 0.75366 0.68169 0.33154
 C1724 C 0.76058 0.68439 0.35652
 H1725 H 0.74781 0.58496 0.41219
 H1726 H 0.77912 0.66425 0.44582
 H1727 H 0.77600 0.62819 0.47289
 H1728 H 0.77323 0.68351 0.40470
 H1729 H 0.74145 0.60352 0.37252
 H1730 H 0.73545 0.62160 0.33223
 H1731 H 0.73851 0.65622 0.30437
 H1732 H 0.76763 0.70191 0.36309
 C1733 C 0.74613 0.09709 0.11510
 C1734 C 0.74726 0.11158 0.13654
 C1735 C 0.72728 0.11159 0.15327
 C1736 C 0.70653 0.09697 0.14821
 C1737 C 0.70536 0.08294 0.12654
 C1738 C 0.72509 0.08297 0.10979
 C1739 C 0.72812 0.12667 0.17437
 C1740 C 0.74832 0.14236 0.17848
 C1741 C 0.76823 0.14233 0.16160
 C1742 C 0.76775 0.12665 0.14103
 C1743 C 0.78795 0.15863 0.16508
 C1744 C 0.78757 0.17549 0.18452
 C1745 C 0.76786 0.17583 0.20122
 C1746 C 0.74853 0.15884 0.19857
 H1747 H 0.76128 0.09747 0.10209
 H1748 H 0.69103 0.09672 0.16079
 H1749 H 0.68905 0.07201 0.12284
 H1750 H 0.71274 0.12680 0.18713
 H1751 H 0.78298 0.12677 0.12808
 H1752 H 0.80330 0.15888 0.15231
 H1753 H 0.80257 0.18856 0.18639
 H1754 H 0.73315 0.15938 0.21130
 C1755 C 0.25345 0.58379 0.57762
 C1756 C 0.24978 0.59987 0.59762
 C1757 C 0.24189 0.59039 0.62057
 C1758 C 0.23762 0.56502 0.62301
 C1759 C 0.24127 0.54914 0.60298
 C1760 C 0.24936 0.55830 0.58015
 C1761 C 0.23850 0.60639 0.64069
 C1762 C 0.24289 0.63176 0.63815
 C1763 C 0.25056 0.64126 0.61514
 C1764 C 0.25394 0.62526 0.59502
 C1765 C 0.25489 0.66660 0.61268
 C1766 C 0.25188 0.68242 0.63287
 C1767 C 0.24447 0.67322 0.65595
 C1768 C 0.23988 0.64778 0.65834
 H1769 H 0.25928 0.59114 0.55999
 H1770 H 0.23156 0.55744 0.64046
 H1771 H 0.23815 0.52960 0.60545
 H1772 H 0.23257 0.59909 0.65832
 H1773 H 0.25993 0.63255 0.57740
 H1774 H 0.26077 0.67419 0.59517
 H1775 H 0.25562 0.70185 0.63042
 H1776 H 0.23416 0.64032 0.67596
 C1777 C 0.72723 0.92372 0.92691
 C1778 C 0.72908 0.90900 0.90572
 C1779 C 0.73267 0.92010 0.88241
 C1780 C 0.73469 0.94583 0.88085
 C1781 C 0.73295 0.96039 0.90214
 C1782 C 0.72899 0.94947 0.92529
 C1783 C 0.73410 0.90531 0.86113
 C1784 C 0.73207 0.87957 0.86294
 C1785 C 0.72883 0.86859 0.88637
 C1786 C 0.72733 0.88334 0.90756
 C1787 C 0.72703 0.84296 0.88830
 C1788 C 0.72819 0.82825 0.86723
 C1789 C 0.73109 0.83882 0.84370
 C1790 C 0.73313 0.86460 0.84173
 H1791 H 0.72461 0.91512 0.94476
 H1792 H 0.73750 0.95469 0.86317
 H1793 H 0.73427 0.98022 0.90048
 H1794 H 0.73671 0.91380 0.84322
 H1795 H 0.72470 0.87485 0.92547
 H1796 H 0.72461 0.83428 0.90613
 H1797 H 0.72659 0.80849 0.86942
 H1798 H 0.73552 0.87303 0.82377
 C1799 C 0.27772 0.39454 0.39998
 C1800 C 0.27847 0.37998 0.37856
 C1801 C 0.27179 0.39032 0.35556
 C1802 C 0.26474 0.41515 0.35440
 C1803 C 0.26398 0.42952 0.37587
 C1804 C 0.27036 0.41935 0.39887
 C1805 C 0.27192 0.37558 0.33422
 C1806 C 0.27831 0.35055 0.33567
 C1807 C 0.28519 0.34033 0.35868
 C1808 C 0.28539 0.35514 0.37992
 C1809 C 0.29128 0.31530 0.36018
 C1810 C 0.28986 0.30030 0.33925
 C1811 C 0.28262 0.31009 0.31633
 C1812 C 0.27733 0.33542 0.31460
 H1813 H 0.28230 0.38633 0.41764
 H1814 H 0.25964 0.42342 0.33693
 H1815 H 0.25855 0.44866 0.37445
 H1816 H 0.26663 0.38346 0.31659
 H1817 H 0.29051 0.34721 0.39758
 H1818 H 0.29670 0.30721 0.37764
 H1819 H 0.29423 0.28093 0.34109
 H1820 H 0.27163 0.34319 0.29707
 C1821 C 0.24021 0.88767 0.07429
 C1822 C 0.24212 0.87160 0.09452
 C1823 C 0.24890 0.88101 0.11797
 C1824 C 0.25368 0.90620 0.12082
 C1825 C 0.25176 0.92200 0.10067
 C1826 C 0.24509 0.91297 0.07722
 C1827 C 0.25075 0.86516 0.13825
 C1828 C 0.24595 0.83996 0.13546
 C1829 C 0.23924 0.83044 0.11206
 C1830 C 0.23736 0.84632 0.09171
 C1831 C 0.23451 0.80517 0.10945
 C1832 C 0.23636 0.78950 0.12981
 C1833 C 0.24296 0.79879 0.15321
 C1834 C 0.24774 0.82414 0.15580
 H1835 H 0.23517 0.88049 0.05627
 H1836 H 0.25878 0.91371 0.13868
 H1837 H 0.25513 0.94146 0.10356
 H1838 H 0.25591 0.87246 0.15621
 H1839 H 0.23218 0.83903 0.07376
 H1840 H 0.22934 0.79753 0.09166
 H1841 H 0.23251 0.77009 0.12722
 H1842 H 0.25286 0.83165 0.17366
 C1843 C 0.74510 0.40870 0.59060
 C1844 C 0.74413 0.39149 0.60996
 C1845 C 0.74028 0.39982 0.63445
 C1846 C 0.73715 0.42498 0.63917
 C1847 C 0.73785 0.44185 0.61987
 C1848 C 0.74185 0.43395 0.59548
 C1849 C 0.73969 0.38294 0.65391
 C1850 C 0.74275 0.35774 0.64931
 C1851 C 0.74615 0.34919 0.62488
 C1852 C 0.74690 0.36615 0.60532
 C1853 C 0.74883 0.32382 0.62055
 C1854 C 0.74851 0.30717 0.64026
 C1855 C 0.74569 0.31565 0.66465
 C1856 C 0.74260 0.34101 0.66892
 H1857 H 0.74808 0.40250 0.57180
 H1858 H 0.73421 0.43163 0.65782
 H1859 H 0.73563 0.46125 0.62406
 H1860 H 0.73693 0.38943 0.67267
 H1861 H 0.74969 0.35965 0.58658
 H1862 H 0.75134 0.31687 0.60195
 H1863 H 0.75090 0.28772 0.63646
 H1864 H 0.74007 0.34781 0.68759
 C1865 C 0.08972 0.09972 0.75616
 C1866 C 0.11014 0.11571 0.75498
 C1867 C 0.13121 0.10875 0.74139
 C1868 C 0.13134 0.08624 0.72880
 C1869 C 0.11089 0.07064 0.72964
 C1870 C 0.08968 0.07688 0.74345
 C1871 C 0.15182 0.12440 0.74051
 C1872 C 0.15146 0.14729 0.75261
 C1873 C 0.13013 0.15459 0.76570
 C1874 C 0.10973 0.13868 0.76701
 C1875 C 0.12953 0.17777 0.77717
 C1876 C 0.14978 0.19361 0.77563
 C1877 C 0.17122 0.18644 0.76298
 C1878 C 0.17199 0.16312 0.75163
 H1879 H 0.07358 0.10568 0.76626
 H1880 H 0.14738 0.08055 0.71835
 H1881 H 0.11246 0.05308 0.72029
 H1882 H 0.16804 0.11887 0.73023
 H1883 H 0.09349 0.14425 0.77725
 H1884 H 0.11335 0.18371 0.78723
 H1885 H 0.14882 0.21140 0.78470
 H1886 H 0.18837 0.15749 0.74168
 C1887 C 0.60065 0.59376 0.25371
 C1888 C 0.62096 0.60971 0.25277
 C1889 C 0.64018 0.60519 0.23577
 C1890 C 0.63861 0.58480 0.21989
 C1891 C 0.61831 0.56896 0.22097
 C1892 C 0.59920 0.57319 0.23797
 C1893 C 0.66054 0.62117 0.23488
 C1894 C 0.66172 0.64180 0.25055
 C1895 C 0.64234 0.64626 0.26746
 C1896 C 0.62224 0.63012 0.26858
 C1897 C 0.64310 0.66711 0.28270
 C1898 C 0.66247 0.68382 0.28076
 C1899 C 0.68170 0.67977 0.26392
 C1900 C 0.68157 0.65844 0.24919
 H1901 H 0.58589 0.59742 0.26667
 H1902 H 0.65316 0.58100 0.20675
 H1903 H 0.61783 0.55305 0.20887
 H1904 H 0.67527 0.61774 0.22182
 H1905 H 0.60744 0.63362 0.28156
 H1906 H 0.62844 0.67079 0.29575
 H1907 H 0.66236 0.70013 0.29234
 H1908 H 0.69627 0.65541 0.23600
 C1909 C 0.10331 0.90683 0.24012
 C1910 C 0.11760 0.88532 0.23861
 C1911 C 0.10666 0.86296 0.23088
 C1912 C 0.08173 0.86259 0.22431
 C1913 C 0.06769 0.88410 0.22544
 C1914 C 0.07810 0.90664 0.23353
 C1915 C 0.12079 0.84133 0.22980
 C1916 C 0.14592 0.84189 0.23591
 C1917 C 0.15700 0.86443 0.24304
 C1918 C 0.14276 0.88592 0.24454
 C1919 C 0.18222 0.86516 0.24847
 C1920 C 0.19639 0.84380 0.24686
 C1921 C 0.18557 0.82120 0.24014
 C1922 C 0.16023 0.82032 0.23480
 H1923 H 0.11226 0.92385 0.24553
 H1924 H 0.07299 0.84560 0.21842
 H1925 H 0.04829 0.88252 0.22106
 H1926 H 0.11229 0.82414 0.22406
 H1927 H 0.15128 0.90311 0.25022
 H1928 H 0.19103 0.88227 0.25389
 H1929 H 0.21586 0.84493 0.25120
 H1930 H 0.15177 0.80302 0.22941
 C1931 C 0.59924 0.41758 0.73862
 C1932 C 0.61434 0.39663 0.74017
 C1933 C 0.60394 0.37292 0.73692
 C1934 C 0.57869 0.37057 0.73202
 C1935 C 0.56388 0.39148 0.73021
 C1936 C 0.57399 0.41512 0.73344
 C1937 C 0.61893 0.35195 0.73845
 C1938 C 0.64428 0.35436 0.74287
 C1939 C 0.65474 0.37807 0.74587
 C1940 C 0.63969 0.39903 0.74468
 C1941 C 0.68015 0.38042 0.74983
 C1942 C 0.69511 0.35952 0.75065
 C1943 C 0.68491 0.33585 0.74781
 C1944 C 0.65938 0.33342 0.74405
 H1945 H 0.60716 0.43578 0.74096
 H1946 H 0.57041 0.35256 0.72952
 H1947 H 0.54438 0.38918 0.72653
 H1948 H 0.61090 0.33380 0.73599
 H1949 H 0.64773 0.41719 0.74704
 H1950 H 0.68850 0.39842 0.75212
 H1951 H 0.71471 0.36192 0.75364
 H1952 H 0.65133 0.31529 0.74158
 C1953 C 0.92099 0.08884 0.26639
 C1954 C 0.90587 0.10982 0.26824
 C1955 C 0.91530 0.13317 0.26154
 C1956 C 0.93964 0.13519 0.25325
 C1957 C 0.95439 0.11425 0.25114
 C1958 C 0.94520 0.09089 0.25747
 C1959 C 0.90018 0.15409 0.26289
 C1960 C 0.87558 0.15197 0.27046
 C1961 C 0.86612 0.12864 0.27715
 C1962 C 0.88137 0.10775 0.27619
 C1963 C 0.84143 0.12652 0.28434
 C1964 C 0.82613 0.14720 0.28454
 C1965 C 0.83524 0.17050 0.27779
 C1966 C 0.86015 0.17275 0.27101
 H1967 H 0.91373 0.07087 0.27117
 H1968 H 0.94719 0.15294 0.24812
 H1969 H 0.97311 0.11631 0.24455
 H1970 H 0.90744 0.17195 0.25766
 H1971 H 0.87405 0.08987 0.28124
 H1972 H 0.83386 0.10881 0.28953
 H1973 H 0.80706 0.14490 0.28994
 H1974 H 0.86740 0.19054 0.26558
 C1975 C 0.39945 0.58217 0.73377
 C1976 C 0.38173 0.60108 0.73393
 C1977 C 0.38943 0.62587 0.73143
 C1978 C 0.41447 0.63135 0.72857
 C1979 C 0.43185 0.61249 0.72813
 C1980 C 0.42457 0.58781 0.73072
 C1981 C 0.37204 0.64487 0.73182
 C1982 C 0.34696 0.63951 0.73453
 C1983 C 0.33901 0.61483 0.73664
 C1984 C 0.35650 0.59570 0.73642
 C1985 C 0.31372 0.60981 0.73900
 C1986 C 0.29656 0.62911 0.73958
 C1987 C 0.30447 0.65372 0.73801
 C1988 C 0.32975 0.65865 0.73524
 H1989 H 0.39375 0.56312 0.73561
 H1990 H 0.42062 0.65025 0.72666
 H1991 H 0.45113 0.61722 0.72604
 H1992 H 0.37804 0.66385 0.73005
 H1993 H 0.35049 0.57673 0.73817
 H1994 H 0.30722 0.59100 0.74053
 H1995 H 0.27718 0.62482 0.74165
 H1996 H 0.33614 0.67751 0.73361
 C1997 C 0.89849 0.92662 0.76829
 C1998 C 0.88164 0.90708 0.76951
 C1999 C 0.89030 0.88265 0.77201
 C2000 C 0.91576 0.87835 0.77392
 C2001 C 0.93246 0.89799 0.77273
 C2002 C 0.92399 0.92223 0.76948
 C2003 C 0.87338 0.86299 0.77220
 C2004 C 0.84795 0.86754 0.76993
 C2005 C 0.83944 0.89210 0.76804
 C2006 C 0.85629 0.91165 0.76786
 C2007 C 0.81415 0.89677 0.76605
 C2008 C 0.79736 0.87735 0.76549
 C2009 C 0.80543 0.85274 0.76680
 C2010 C 0.83088 0.84799 0.76923
 H2011 H 0.89178 0.94531 0.76617
 H2012 H 0.92277 0.85977 0.77595
 H2013 H 0.95204 0.89418 0.77361
 H2014 H 0.88001 0.84422 0.77382
 H2015 H 0.84967 0.93043 0.76611
 H2016 H 0.80734 0.91549 0.76469
 H2017 H 0.77796 0.88169 0.76363
 H2018 H 0.83741 0.82916 0.77044
 C2019 C 0.43140 0.39786 0.24559
 C2020 C 0.41152 0.38135 0.24630
 C2021 C 0.38978 0.38789 0.25910
 C2022 C 0.38851 0.41058 0.27143
 C2023 C 0.40838 0.42690 0.27063
 C2024 C 0.42986 0.42084 0.25750
 C2025 C 0.36955 0.37183 0.25910
 C2026 C 0.37078 0.34927 0.24649
 C2027 C 0.39271 0.34247 0.23416
 C2028 C 0.41293 0.35856 0.23412
 C2029 C 0.39398 0.31973 0.22192
 C2030 C 0.37365 0.30395 0.22167
 C2031 C 0.35160 0.31074 0.23345
 C2032 C 0.35036 0.33344 0.24593
 H2033 H 0.44800 0.39294 0.23564
 H2034 H 0.37202 0.41588 0.28135
 H2035 H 0.40666 0.44462 0.27970
 H2036 H 0.35279 0.37697 0.26871
 H2037 H 0.42965 0.35346 0.22444
 H2038 H 0.41066 0.31418 0.21246
 H2039 H 0.37508 0.28655 0.21194
 H2040 H 0.33356 0.33873 0.25536
   
