data_POSCAR
  _audit_creation_date              2014-09-24
  _audit_creation_method            'ToBaCCo'
  _symmetry_space_group_name_H-M    'P1'
  _symmetry_Int_Tables_number       1
  _symmetry_cell_setting            triclinic
  loop_
  _symmetry_equiv_pos_as_xyz
 x,y,z
_cell_length_a 81.5397
_cell_length_b 80.7020
_cell_length_c 84.3202
_cell_angle_alpha 89.608500
_cell_angle_beta 89.614900
_cell_angle_gamma 90.434700
loop_
  _atom_site_label
  _atom_site_type_symbol
  _atom_site_fract_x
  _atom_site_fract_y
  _atom_site_fract_z
C1 C 0.41498 0.01512 0.27194
 H2 H 0.41551 0.02511 0.26332
 C3 C 0.42519 0.01551 0.28522
 H4 H 0.43367 0.02578 0.28663
 C5 C 0.40328 -0.01034 0.28058
 H6 H 0.39449 -0.02024 0.27902
 C7 C 0.41324 -0.01046 0.29397
 H8 H 0.41192 -0.02048 0.30250
 N9 N 0.40448 0.00217 0.26971
 C10 C 0.39535 -0.00174 0.21881
 H11 H 0.38227 -0.00404 0.21931
 C12 C 0.40335 -0.00076 0.20415
 H13 H 0.39634 -0.00260 0.19344
 C14 C 0.42025 0.00355 0.23223
 H15 H 0.42680 0.00531 0.24318
 C16 C 0.42877 0.00466 0.21778
 H17 H 0.44177 0.00747 0.21780
 Zn18 Zn 0.39091 0.00168 0.25136
 N19 N 0.40374 0.00090 0.23245
 C20 C 0.37906 0.03161 0.23813
 N21 N 0.37788 0.02128 0.25092
 C22 C 0.36806 0.02509 0.26347
 C23 C 0.35883 0.03968 0.26336
 C24 C 0.36999 0.04619 0.23748
 C25 C 0.38566 -0.03247 0.25100
 C26 C 0.37711 -0.04747 0.25220
 C27 C 0.35192 -0.03215 0.25439
 C28 C 0.36106 -0.01741 0.25334
 N29 N 0.37765 -0.01783 0.25196
 H30 H 0.38712 0.02869 0.22837
 H31 H 0.36751 0.01685 0.27364
 H32 H 0.35130 0.04258 0.27358
 H33 H 0.37096 0.05395 0.22698
 H34 H 0.39885 -0.03246 0.24949
 H35 H 0.38424 -0.05860 0.25086
 H36 H 0.33889 -0.03092 0.25633
 H37 H 0.35487 -0.00564 0.25392
 C38 C 0.42022 0.00290 0.20346
 C39 C 0.42449 0.00251 0.29640
 C40 C 0.35982 -0.04778 0.25417
 C41 C 0.35973 0.05051 0.25022
 C42 C 0.09574 0.01397 0.72025
 H43 H 0.10180 0.02531 0.72369
 C44 C 0.08633 0.01371 0.70648
 H45 H 0.08505 0.02506 0.69970
 C46 C 0.08988 -0.01441 0.72505
 H47 H 0.09144 -0.02537 0.73234
 C48 C 0.08051 -0.01528 0.71124
 H49 H 0.07511 -0.02704 0.70794
 N50 N 0.09728 0.00005 0.72927
 C51 C 0.10390 0.00308 0.78031
 H52 H 0.11699 0.00527 0.78086
 C53 C 0.09429 0.00436 0.79402
 H54 H 0.10010 0.00731 0.80518
 C55 C 0.08038 -0.00311 0.76502
 H56 H 0.07495 -0.00568 0.75364
 C57 C 0.07035 -0.00220 0.77849
 H58 H 0.05725 -0.00413 0.77737
 Zn59 Zn 0.11042 -0.00000 0.74781
 N60 N 0.09683 -0.00050 0.76616
 C61 C 0.11589 0.03420 0.75182
 N62 N 0.12353 0.01958 0.74896
 C63 C 0.14017 0.01874 0.74811
 C64 C 0.14978 0.03301 0.74997
 C65 C 0.12503 0.04877 0.75378
 C66 C 0.12463 -0.02989 0.75939
 C67 C 0.13431 -0.04408 0.75839
 C68 C 0.14220 -0.03591 0.73180
 C69 C 0.13248 -0.02181 0.73335
 N70 N 0.12397 -0.01904 0.74700
 H71 H 0.10266 0.03450 0.75274
 H72 H 0.14606 0.00697 0.74622
 H73 H 0.16300 0.03200 0.74948
 H74 H 0.11868 0.06029 0.75588
 H75 H 0.11759 -0.02759 0.77005
 H76 H 0.13459 -0.05263 0.76834
 H77 H 0.14898 -0.03781 0.72088
 H78 H 0.13163 -0.01306 0.72362
 C79 C 0.07728 0.00177 0.79319
 C80 C 0.07865 -0.00109 0.70168
 C81 C 0.14324 -0.04727 0.74444
 C82 C 0.14224 0.04830 0.75290
 C83 C 0.59700 0.51250 0.21843
 H84 H 0.60355 0.52356 0.22187
 C85 C 0.58793 0.51257 0.20444
 H86 H 0.58740 0.52389 0.19750
 C87 C 0.58958 0.48451 0.22339
 H88 H 0.59040 0.47358 0.23083
 C89 C 0.58051 0.48397 0.20938
 H90 H 0.57457 0.47248 0.20609
 N91 N 0.59761 0.49863 0.22764
 C92 C 0.60298 0.50184 0.27878
 H93 H 0.61609 0.50380 0.27955
 C94 C 0.59317 0.50327 0.29234
 H95 H 0.59883 0.50612 0.30359
 C96 C 0.57964 0.49594 0.26313
 H97 H 0.57438 0.49337 0.25168
 C98 C 0.56941 0.49697 0.27646
 H99 H 0.55632 0.49513 0.27516
 Zn100 Zn 0.61021 0.49815 0.24652
 N101 N 0.59611 0.49831 0.26453
 C102 C 0.61665 0.53213 0.25042
 N103 N 0.62398 0.51727 0.24793
 C104 C 0.64061 0.51599 0.24756
 C105 C 0.65052 0.53004 0.24954
 C106 C 0.62609 0.54648 0.25247
 C107 C 0.62168 0.46735 0.25843
 C108 C 0.63033 0.45247 0.25790
 C109 C 0.64116 0.46054 0.23225
 C110 C 0.63232 0.47529 0.23329
 N111 N 0.62287 0.47845 0.24626
 H112 H 0.60341 0.53279 0.25095
 H113 H 0.64624 0.50404 0.24596
 H114 H 0.66372 0.52870 0.24943
 H115 H 0.61996 0.55818 0.25425
 H116 H 0.61387 0.46991 0.26851
 H117 H 0.62902 0.44372 0.26763
 H118 H 0.64873 0.45835 0.22189
 H119 H 0.63290 0.48423 0.22367
 C120 C 0.57616 0.50083 0.29126
 C121 C 0.57960 0.49813 0.19963
 C122 C 0.64024 0.44887 0.24467
 C123 C 0.64329 0.54557 0.25209
 C124 C 0.91446 0.51668 0.77548
 H125 H 0.91492 0.52671 0.76691
 C126 C 0.92435 0.51729 0.78897
 H127 H 0.93256 0.52778 0.79015
 C128 C 0.90356 0.49073 0.78352
 H129 H 0.89517 0.48054 0.78165
 C130 C 0.91328 0.49074 0.79709
 H131 H 0.91168 0.48057 0.80538
 N132 N 0.90454 0.50339 0.77285
 C133 C 0.89810 0.49868 0.72170
 H134 H 0.88493 0.49703 0.72141
 C135 C 0.90723 0.49788 0.70767
 H136 H 0.90098 0.49569 0.69659
 C137 C 0.92219 0.50370 0.73653
 H138 H 0.92802 0.50578 0.74781
 C139 C 0.93180 0.50319 0.72272
 H140 H 0.94496 0.50483 0.72352
 Zn141 Zn 0.89181 0.50262 0.75397
 N142 N 0.90563 0.50164 0.73575
 C143 C 0.88092 0.53283 0.74042
 N144 N 0.87870 0.52209 0.75278
 C145 C 0.86755 0.52527 0.76442
 C146 C 0.85770 0.53938 0.76359
 C147 C 0.87147 0.54715 0.73921
 C148 C 0.88647 0.46827 0.75357
 C149 C 0.87768 0.45335 0.75435
 C150 C 0.85258 0.46898 0.75546
 C151 C 0.86186 0.48362 0.75472
 N152 N 0.87854 0.48303 0.75411
 H153 H 0.89014 0.53042 0.73150
 H154 H 0.86617 0.51671 0.77428
 H155 H 0.84859 0.54134 0.77277
 H156 H 0.87371 0.55557 0.72938
 H157 H 0.89972 0.46812 0.75280
 H158 H 0.88428 0.44177 0.75400
 H159 H 0.83935 0.46973 0.75633
 H160 H 0.85570 0.49541 0.75477
 C161 C 0.92431 0.50021 0.70806
 C162 C 0.92412 0.50407 0.80008
 C163 C 0.86049 0.45356 0.75547
 C164 C 0.85952 0.55057 0.75081
 C165 C 0.22789 0.39288 1.00183
 H166 H 0.23948 0.39906 0.99955
 C167 C 0.21328 0.40189 1.00119
 H168 H 0.21376 0.41503 0.99851
 C169 C 0.21303 0.36814 1.00739
 H170 H 0.21304 0.35491 1.00957
 C171 C 0.19818 0.37660 1.00667
 H172 H 0.18681 0.36985 1.00859
 N173 N 0.22746 0.37626 1.00465
 C174 C 0.27678 0.37503 0.99051
 H175 H 0.27389 0.36715 0.98062
 C176 C 0.29178 0.38353 0.99060
 H177 H 0.30029 0.38179 0.98086
 C178 C 0.26945 0.38662 1.01523
 H179 H 0.26067 0.38802 1.02473
 C180 C 0.28431 0.39536 1.01579
 H181 H 0.28672 0.40338 1.02577
 Zn182 Zn 0.24654 0.36295 1.00337
 N183 N 0.26606 0.37638 1.00288
 C184 C 0.25675 0.33859 0.98077
 N185 N 0.24515 0.35002 0.98449
 C186 C 0.23233 0.35289 0.97463
 C187 C 0.23073 0.34412 0.96056
 C188 C 0.25565 0.32955 0.96670
 C189 C 0.24533 0.35661 1.03594
 C190 C 0.24591 0.34746 1.05000
 C191 C 0.24881 0.32255 1.03460
 C192 C 0.24822 0.33223 1.02078
 N193 N 0.24683 0.34901 1.02168
 H194 H 0.26701 0.33668 0.98862
 H195 H 0.22334 0.36215 0.97749
 H196 H 0.22030 0.34657 0.95304
 H197 H 0.26516 0.32077 0.96378
 H198 H 0.24352 0.36983 1.03645
 H199 H 0.24514 0.35394 1.06118
 H200 H 0.24989 0.30923 1.03364
 H201 H 0.24884 0.32624 1.00940
 C202 C 0.29585 0.39370 1.00347
 C203 C 0.19816 0.39366 1.00331
 C204 C 0.24774 0.33018 1.04949
 C205 C 0.24255 0.33239 0.95632
 C206 C 0.77517 0.12426 1.01201
 H207 H 0.77212 0.13083 1.02275
 C208 C 0.78979 0.11534 1.01113
 H209 H 0.79778 0.11573 1.02129
 C210 C 0.76867 0.11709 0.98565
 H211 H 0.76037 0.11791 0.97573
 C212 C 0.78322 0.10814 0.98417
 H213 H 0.78536 0.10174 0.97314
 N214 N 0.76500 0.12505 0.99935
 C215 C 0.71176 0.13295 0.99987
 H216 H 0.71130 0.14634 0.99970
 C217 C 0.69721 0.12372 1.00077
 H218 H 0.68560 0.13015 1.00099
 C219 C 0.72750 0.10841 0.99990
 H220 H 0.73934 0.10249 0.99983
 C221 C 0.71322 0.09869 1.00074
 H222 H 0.71426 0.08534 1.00131
 Zn223 Zn 0.74605 0.13864 0.99964
 N224 N 0.72656 0.12525 0.99953
 C225 C 0.73502 0.15207 0.97006
 N226 N 0.74731 0.15211 0.98091
 C227 C 0.76162 0.16039 0.97794
 C228 C 0.76394 0.16919 0.96375
 C229 C 0.73689 0.16057 0.95564
 C230 C 0.73426 0.14917 1.02973
 C231 C 0.73385 0.15861 1.04358
 C232 C 0.75764 0.17371 1.03412
 C233 C 0.75757 0.16402 1.02043
 N234 N 0.74592 0.15206 1.01838
 H235 H 0.72392 0.14504 0.97228
 H236 H 0.77162 0.15954 0.98622
 H237 H 0.77560 0.17529 0.96146
 H238 H 0.72706 0.16021 0.94707
 H239 H 0.72538 0.13933 1.02828
 H240 H 0.72461 0.15588 1.05252
 H241 H 0.76696 0.18323 1.03541
 H242 H 0.76695 0.16603 1.01156
 C243 C 0.69778 0.10633 1.00131
 C244 C 0.79428 0.10716 0.99697
 C245 C 0.74566 0.17108 1.04594
 C246 C 0.75156 0.16917 0.95229
 C247 C 0.26956 0.61706 0.48700
 H248 H 0.26056 0.61737 0.47764
 C249 C 0.28379 0.60768 0.48514
 H250 H 0.28550 0.60058 0.47442
 C251 C 0.27830 0.62615 0.51224
 H252 H 0.27635 0.63369 0.52260
 C253 C 0.29266 0.61686 0.51092
 H254 H 0.30156 0.61732 0.52037
 N255 N 0.26704 0.62602 0.50040
 C256 C 0.21417 0.63495 0.50286
 H257 H 0.21433 0.64833 0.50352
 C258 C 0.19928 0.62632 0.50398
 H259 H 0.18800 0.63320 0.50524
 C260 C 0.22875 0.60981 0.50049
 H261 H 0.24029 0.60340 0.49946
 C262 C 0.21410 0.60068 0.50146
 H263 H 0.21455 0.58728 0.50112
 Zn264 Zn 0.24809 0.63964 0.50111
 N265 N 0.22852 0.62665 0.50114
 C266 C 0.23777 0.65188 0.47119
 N267 N 0.24916 0.65343 0.48281
 C268 C 0.26253 0.66345 0.48084
 C269 C 0.26500 0.67218 0.46663
 C270 C 0.23983 0.66028 0.45676
 C271 C 0.24618 0.64378 0.53385
 C272 C 0.24424 0.65210 0.54818
 C273 C 0.24486 0.67806 0.53378
 C274 C 0.24688 0.66922 0.51968
 N275 N 0.24748 0.65237 0.51997
 H276 H 0.22741 0.64362 0.47283
 H277 H 0.27158 0.66420 0.49014
 H278 H 0.27599 0.67966 0.46508
 H279 H 0.23081 0.65862 0.44752
 H280 H 0.24644 0.63038 0.53373
 H281 H 0.24338 0.64495 0.55907
 H282 H 0.24398 0.69143 0.53326
 H283 H 0.24750 0.67582 0.50850
 C284 C 0.19909 0.60894 0.50333
 C285 C 0.29561 0.60752 0.49719
 C286 C 0.24333 0.66949 0.54830
 C287 C 0.25374 0.67036 0.45423
 C288 C 0.72850 0.88982 0.50142
 H289 H 0.74020 0.89617 0.50190
 C290 C 0.71406 0.89902 0.50044
 H291 H 0.71483 0.91242 0.50022
 C292 C 0.71332 0.86472 0.50032
 H293 H 0.71318 0.85132 0.50010
 C294 C 0.69861 0.87342 0.49924
 H295 H 0.68717 0.86659 0.49850
 N296 N 0.72788 0.87297 0.50137
 C297 C 0.77739 0.87252 0.48853
 H298 H 0.77485 0.86464 0.47853
 C299 C 0.79221 0.88131 0.48903
 H300 H 0.80087 0.88007 0.47933
 C301 C 0.76971 0.88286 0.51370
 H302 H 0.76095 0.88316 0.52339
 C303 C 0.78441 0.89183 0.51471
 H304 H 0.78671 0.89928 0.52510
 Zn305 Zn 0.74724 0.85994 0.50100
 N306 N 0.76647 0.87344 0.50075
 C307 C 0.74736 0.83023 0.48234
 N308 N 0.74622 0.84704 0.48230
 C309 C 0.74356 0.85561 0.46864
 C310 C 0.74225 0.84734 0.45424
 C311 C 0.74627 0.82143 0.46812
 C312 C 0.76192 0.83651 0.52097
 C313 C 0.76441 0.82756 0.53498
 C314 C 0.73938 0.83910 0.54552
 C315 C 0.73727 0.84769 0.53124
 N316 N 0.74854 0.84635 0.51936
 H317 H 0.74913 0.82358 0.49335
 H318 H 0.74238 0.86895 0.46899
 H319 H 0.73988 0.85448 0.44360
 H320 H 0.74759 0.80809 0.46835
 H321 H 0.77091 0.83600 0.51149
 H322 H 0.77534 0.82014 0.53621
 H323 H 0.73046 0.84053 0.55497
 H324 H 0.72693 0.85585 0.52989
 C325 C 0.79596 0.89107 0.50229
 C326 C 0.69884 0.89083 0.49921
 C327 C 0.75320 0.82903 0.54758
 C328 C 0.74377 0.83000 0.45378
 C329 C 0.00595 0.27426 0.39632
 H330 H 0.01815 0.26911 0.39685
 C331 C 0.00171 0.28730 0.40620
 H332 H 0.01084 0.29235 0.41414
 C333 C -0.02057 0.27421 0.38494
 H334 H -0.02924 0.26898 0.37671
 C335 C -0.02531 0.28733 0.39458
 H336 H -0.03762 0.29217 0.39365
 N337 N -0.00506 0.26816 0.38579
 C338 C 0.01453 0.21892 0.37752
 H339 H 0.01623 0.21875 0.36484
 C340 C 0.01786 0.20466 0.38631
 H341 H 0.02183 0.19386 0.37986
 C342 C 0.00554 0.23272 0.40058
 H343 H 0.00031 0.24347 0.40615
 C344 C 0.00876 0.21880 0.40986
 H345 H 0.00669 0.21975 0.42249
 Zn346 Zn 0.00175 0.25096 0.37225
 N347 N 0.00830 0.23254 0.38468
 C348 C 0.02404 0.24856 0.34698
 N349 N 0.01900 0.25856 0.35894
 C350 C 0.02578 0.27386 0.36094
 C351 C 0.03889 0.27912 0.35144
 C352 C 0.03715 0.25328 0.33724
 C353 C -0.02383 0.23007 0.36193
 C354 C -0.03763 0.22607 0.35303
 C355 C -0.03421 0.25193 0.33866
 C356 C -0.02046 0.25539 0.34779
 N357 N -0.01577 0.24465 0.35933
 H358 H 0.01786 0.23690 0.34494
 H359 H 0.02114 0.28207 0.36991
 H360 H 0.04429 0.29123 0.35339
 H361 H 0.04142 0.24480 0.32825
 H362 H -0.01987 0.22176 0.37122
 H363 H -0.04408 0.21454 0.35539
 H364 H -0.03820 0.26099 0.33001
 H365 H -0.01379 0.26691 0.34606
 C366 C 0.01461 0.20418 0.40278
 C367 C -0.01403 0.29411 0.40526
 C368 C -0.04315 0.23723 0.34142
 C369 C 0.04496 0.26861 0.33964
 C370 C 0.01516 0.72879 0.11475
 H371 H 0.02616 0.73630 0.11371
 C372 C 0.01436 0.71343 0.10738
 H373 H 0.02472 0.70935 0.10036
 C374 C -0.01167 0.72509 0.12529
 H375 H -0.02160 0.72954 0.13261
 C376 C -0.01294 0.70956 0.11824
 H377 H -0.02391 0.70217 0.12020
 N378 N 0.00223 0.73432 0.12340
 C379 C 0.00963 0.78745 0.12584
 H380 H 0.00889 0.78915 0.13854
 C381 C 0.01158 0.80113 0.11583
 H382 H 0.01225 0.81340 0.12090
 C383 C 0.00883 0.76938 0.10379
 H384 H 0.00743 0.75703 0.09913
 C385 C 0.01072 0.78272 0.09334
 H386 H 0.01108 0.78048 0.08069
 Zn387 Zn 0.00519 0.75438 0.13411
 N388 N 0.00849 0.77196 0.11971
 C389 C 0.03605 0.76269 0.14729
 N390 N 0.02340 0.75163 0.14728
 C391 C 0.02356 0.73773 0.15649
 C392 C 0.03679 0.73458 0.16640
 C393 C 0.04941 0.76015 0.15720
 C394 C -0.02741 0.76284 0.13861
 C395 C -0.04159 0.76671 0.14706
 C396 C -0.02633 0.76378 0.17137
 C397 C -0.01247 0.76005 0.16239
 N398 N -0.01334 0.75936 0.14636
 H399 H 0.03587 0.77343 0.13961
 H400 H 0.01336 0.72909 0.15609
 H401 H 0.03680 0.72350 0.17372
 H402 H 0.05945 0.76901 0.15712
 H403 H -0.02766 0.76232 0.12580
 H404 H -0.05260 0.76835 0.14020
 H405 H -0.02469 0.76476 0.18403
 H406 H -0.00096 0.75785 0.16828
 C407 C 0.01213 0.79882 0.09936
 C408 C 0.00025 0.70351 0.10923
 C409 C -0.04149 0.76703 0.16388
 C410 C 0.04983 0.74595 0.16686
 C411 C 0.51529 0.22923 0.61657
 H412 H 0.52668 0.23603 0.61787
 C413 C 0.51494 0.21465 0.60784
 H414 H 0.52618 0.21016 0.60255
 C415 C 0.48687 0.22667 0.62231
 H416 H 0.47601 0.23127 0.62812
 C417 C 0.48595 0.21204 0.61366
 H418 H 0.47426 0.20571 0.61264
 N419 N 0.50133 0.23508 0.62333
 C420 C 0.50851 0.28814 0.62650
 H421 H 0.50618 0.29000 0.63901
 C422 C 0.51157 0.30170 0.61658
 H423 H 0.51146 0.31405 0.62151
 C424 C 0.51061 0.26976 0.60476
 H425 H 0.50992 0.25734 0.60014
 C426 C 0.51370 0.28296 0.59441
 H427 H 0.51563 0.28054 0.58193
 Zn428 Zn 0.50312 0.25507 0.63451
 N429 N 0.50820 0.27256 0.62049
 C430 C 0.53235 0.26330 0.65072
 N431 N 0.51974 0.25228 0.64957
 C432 C 0.51878 0.23858 0.65902
 C433 C 0.53084 0.23556 0.67030
 C434 C 0.54453 0.26089 0.66198
 C435 C 0.46972 0.26283 0.63593
 C436 C 0.45475 0.26624 0.64328
 C437 C 0.46844 0.26559 0.66863
 C438 C 0.48306 0.26199 0.66081
 N439 N 0.48334 0.26030 0.64479
 H440 H 0.53307 0.27391 0.64288
 H441 H 0.50865 0.22998 0.65772
 H442 H 0.53000 0.22460 0.67774
 H443 H 0.55459 0.26968 0.66271
 H444 H 0.47043 0.26181 0.62316
 H445 H 0.44388 0.26745 0.63609
 H446 H 0.46847 0.26685 0.68140
 H447 H 0.49415 0.26053 0.66759
 C448 C 0.51414 0.29917 0.60031
 C449 C 0.50009 0.20595 0.60619
 C450 C 0.45395 0.26738 0.65989
 C451 C 0.54384 0.24687 0.67188
 C452 C 0.51190 0.77470 0.88803
 H453 H 0.52419 0.76996 0.88657
 C454 C 0.50886 0.78725 0.89890
 H455 H 0.51896 0.79233 0.90562
 C456 C 0.48392 0.77414 0.88057
 H457 H 0.47426 0.76913 0.87332
 C458 C 0.48031 0.78662 0.89136
 H459 H 0.46780 0.79089 0.89245
 N460 N 0.49946 0.76830 0.87929
 C461 C 0.51028 0.71727 0.86845
 H462 H 0.50896 0.71742 0.85569
 C463 C 0.51221 0.70227 0.87647
 H464 H 0.51231 0.69085 0.86980
 C465 C 0.51055 0.73194 0.89273
 H466 H 0.50952 0.74346 0.89906
 C467 C 0.51250 0.71724 0.90121
 H468 H 0.51326 0.71764 0.91402
 Zn469 Zn 0.50462 0.75109 0.86523
 N470 N 0.50943 0.73169 0.87665
 C471 C 0.53485 0.74722 0.84935
 N472 N 0.52251 0.75791 0.85264
 C473 C 0.52230 0.77349 0.84637
 C474 C 0.53475 0.77876 0.83605
 C475 C 0.54734 0.75187 0.83888
 C476 C 0.47295 0.73969 0.85880
 C477 C 0.45944 0.73588 0.84944
 C478 C 0.47501 0.74456 0.82630
 C479 C 0.48816 0.74836 0.83612
 N480 N 0.48678 0.74616 0.85207
 H481 H 0.53487 0.73497 0.85456
 H482 H 0.51228 0.78169 0.84921
 H483 H 0.53440 0.79110 0.83093
 H484 H 0.55699 0.74317 0.83614
 H485 H 0.47237 0.73773 0.87150
 H486 H 0.44830 0.73137 0.85511
 H487 H 0.47633 0.74638 0.81362
 H488 H 0.49944 0.75305 0.83096
 C489 C 0.51310 0.70215 0.89308
 C490 C 0.49286 0.79330 0.90072
 C491 C 0.46032 0.73847 0.83296
 C492 C 0.54724 0.76773 0.83201
 C493 C -0.24189 0.66553 0.97721
 H494 H -0.23148 0.66745 0.98488
 C495 C -0.24308 0.67459 0.96302
 H496 H -0.23352 0.68342 0.95986
 C497 C -0.26657 0.65118 0.97155
 H498 H -0.27566 0.64193 0.97463
 C499 C -0.26825 0.65993 0.95739
 H500 H -0.27882 0.65746 0.95004
 N501 N -0.25356 0.65404 0.98121
 C502 C -0.25636 0.64640 1.03242
 H503 H -0.25932 0.63333 1.03238
 C504 C -0.25623 0.65491 1.04674
 H505 H -0.25838 0.64769 1.05740
 C506 C -0.24937 0.67086 1.01830
 H507 H -0.24688 0.67711 1.00719
 C508 C -0.24905 0.67992 1.03240
 H509 H -0.24666 0.69309 1.03155
 Zn510 Zn -0.25221 0.64089 1.00013
 N511 N -0.25269 0.65432 1.01859
 C512 C -0.22939 0.61850 1.01313
 N513 N -0.23251 0.62821 1.00026
 C514 C -0.22160 0.62927 0.98800
 C515 C -0.20673 0.62076 0.98862
 C516 C -0.21468 0.60980 1.01426
 C517 C -0.28559 0.63347 1.00414
 C518 C -0.30000 0.62414 1.00286
 C519 C -0.28371 0.60045 0.99561
 C520 C -0.26958 0.61029 0.99690
 N521 N -0.27080 0.62655 1.00086
 H522 H -0.23828 0.61749 1.02262
 H523 H -0.22431 0.63682 0.97774
 H524 H -0.19808 0.62212 0.97889
 H525 H -0.21251 0.60214 1.02461
 H526 H -0.28622 0.64645 1.00719
 H527 H -0.31167 0.62995 1.00526
 H528 H -0.28258 0.58767 0.99195
 H529 H -0.25771 0.60511 0.99417
 C530 C -0.25239 0.67201 1.04710
 C531 C -0.25635 0.67169 0.95282
 C532 C -0.29920 0.60746 0.99829
 C533 C -0.20301 0.61099 1.00197
 C534 C -0.24474 0.33870 0.52253
 H535 H -0.23462 0.33619 0.51456
 C536 C -0.24577 0.33083 0.53659
 H537 H -0.23615 0.32229 0.53972
 C538 C -0.26864 0.35452 0.52778
 H539 H -0.27738 0.36393 0.52465
 C540 C -0.27027 0.34626 0.54333
 H541 H -0.28091 0.34940 0.55037
 N542 N -0.25688 0.35065 0.51802
 C543 C -0.25790 0.35368 0.46613
 H544 H -0.25912 0.36697 0.46495
 C545 C -0.25806 0.34376 0.45264
 H546 H -0.25935 0.34952 0.44108
 C547 C -0.25457 0.33010 0.48266
 H548 H -0.25341 0.32478 0.49437
 C549 C -0.25442 0.31971 0.46942
 H550 H -0.25317 0.30646 0.47108
 Zn551 Zn -0.25567 0.36190 0.49800
 N552 N -0.25608 0.34679 0.48077
 C553 C -0.22446 0.37126 0.48564
 N554 N -0.23578 0.37446 0.49713
 C555 C -0.23284 0.38610 0.50838
 C556 C -0.21819 0.39525 0.50816
 C557 C -0.20963 0.38005 0.48502
 C558 C -0.28921 0.36803 0.49558
 C559 C -0.30370 0.37712 0.49568
 C560 C -0.28752 0.40227 0.49519
 C561 C -0.27330 0.39262 0.49531
 N562 N -0.27439 0.37581 0.49592
 H563 H -0.22677 0.36170 0.47702
 H564 H -0.24192 0.38829 0.51752
 H565 H -0.21625 0.40464 0.51707
 H566 H -0.20073 0.37703 0.47593
 H567 H -0.28976 0.35463 0.49572
 H568 H -0.31516 0.37030 0.49529
 H569 H -0.28602 0.41558 0.49553
 H570 H -0.26142 0.39864 0.49532
 C571 C -0.25622 0.32655 0.45417
 C572 C -0.25937 0.33468 0.54795
 C573 C -0.30319 0.39462 0.49583
 C574 C -0.20630 0.39228 0.49636
 C575 C 0.25692 -0.16256 0.02124
 H576 H 0.26681 -0.16331 0.01266
 C577 C 0.25713 -0.17205 0.03435
 H578 H 0.26713 -0.18063 0.03576
 C579 C 0.23147 -0.15038 0.02844
 H580 H 0.22168 -0.14173 0.02643
 C581 C 0.23107 -0.16068 0.04296
 H582 H 0.22102 -0.15869 0.05113
 N583 N 0.24350 -0.15154 0.01830
 C584 C 0.24118 -0.14383 -0.03298
 H585 H 0.24022 -0.13046 -0.03319
 C586 C 0.24171 -0.15256 -0.04719
 H587 H 0.24131 -0.14570 -0.05825
 C588 C 0.24376 -0.16870 -0.01818
 H589 H 0.24458 -0.17494 -0.00685
 C590 C 0.24425 -0.17798 -0.03216
 H591 H 0.24529 -0.19132 -0.03138
 Zn592 Zn 0.24368 -0.13831 -0.00055
 N593 N 0.24260 -0.15190 -0.01887
 C594 C 0.27421 -0.12804 -0.01367
 N595 N 0.26366 -0.12573 -0.00132
 C596 C 0.26750 -0.11515 0.01062
 C597 C 0.28232 -0.10619 0.01025
 C598 C 0.28903 -0.11932 -0.01456
 C599 C 0.21004 -0.13200 -0.00149
 C600 C 0.19559 -0.12284 -0.00095
 C601 C 0.21191 -0.09780 -0.00007
 C602 C 0.22608 -0.10752 -0.00042
 N603 N 0.22490 -0.12433 -0.00082
 H604 H 0.27130 -0.13676 -0.02288
 H605 H 0.25910 -0.11372 0.02049
 H606 H 0.28521 -0.09800 0.01996
 H607 H 0.29697 -0.12119 -0.02471
 H608 H 0.20942 -0.14537 -0.00223
 H609 H 0.18411 -0.12955 -0.00178
 H610 H 0.21346 -0.08454 0.00093
 H611 H 0.23800 -0.10160 -0.00014
 C612 C 0.24345 -0.16989 -0.04696
 C613 C 0.24339 -0.17129 0.04616
 C614 C 0.19620 -0.10537 -0.00002
 C615 C 0.29335 -0.10822 -0.00249
 C616 C 0.24692 1.16892 0.48595
 H617 H 0.24412 1.17441 0.49728
 C618 C 0.24680 1.17887 0.47233
 H619 H 0.24434 1.19199 0.47338
 C620 C 0.25289 1.14520 0.47065
 H621 H 0.25474 1.13203 0.46990
 C622 C 0.25305 1.15472 0.45676
 H623 H 0.25523 1.14873 0.44549
 N624 N 0.25011 1.15241 0.48494
 C625 C 0.23454 1.15128 0.53181
 H626 H 0.22501 1.14225 0.52954
 C627 C 0.23375 1.16091 0.54549
 H628 H 0.22336 1.15934 0.55344
 C629 C 0.25947 1.16438 0.52414
 H630 H 0.26953 1.16556 0.51577
 C631 C 0.25929 1.17410 0.53778
 H632 H 0.26942 1.18253 0.53987
 Zn633 Zn 0.24909 1.13896 0.50361
 N634 N 0.24740 1.15299 0.52158
 C635 C 0.27867 1.12789 0.51804
 N636 N 0.26835 1.12549 0.50561
 C637 C 0.27160 1.11363 0.49464
 C638 C 0.28596 1.10430 0.49550
 C639 C 0.29321 1.11894 0.51930
 C640 C 0.21593 1.13308 0.49759
 C641 C 0.20143 1.12397 0.49585
 C642 C 0.21602 1.09932 0.50364
 C643 C 0.23028 1.10892 0.50520
 N644 N 0.22998 1.12549 0.50214
 H645 H 0.27581 1.13685 0.52704
 H646 H 0.26296 1.11120 0.48528
 H647 H 0.28820 1.09492 0.48664
 H648 H 0.30142 1.12159 0.52900
 H649 H 0.21601 1.14629 0.49528
 H650 H 0.19035 1.13032 0.49239
 H651 H 0.21655 1.08612 0.50596
 H652 H 0.24154 1.10313 0.50890
 C653 C 0.24642 1.17227 0.54883
 C654 C 0.24999 1.17178 0.45750
 C655 C 0.20133 1.10682 0.49885
 C656 C 0.29717 1.10708 0.50782
 C657 C 0.12886 0.47780 0.26564
 H658 H 0.12789 0.48621 0.27554
 C659 C 0.13802 0.46329 0.26714
 H660 H 0.14428 0.46077 0.27817
 C661 C 0.12184 0.47098 0.23926
 H662 H 0.11540 0.47397 0.22846
 C663 C 0.13092 0.45637 0.24021
 H664 H 0.13126 0.44817 0.23011
 N665 N 0.12095 0.48133 0.25189
 C666 C 0.11374 0.53518 0.25082
 H667 H 0.10050 0.53584 0.25100
 C668 C 0.12306 0.54975 0.24971
 H669 H 0.11685 0.56156 0.24938
 C670 C 0.13781 0.51895 0.25086
 H671 H 0.14353 0.50691 0.25102
 C672 C 0.14761 0.53324 0.24981
 H673 H 0.16081 0.53200 0.24917
 Zn674 Zn 0.10769 0.50060 0.25128
 N675 N 0.12117 0.52013 0.25128
 C676 C 0.09367 0.51269 0.28016
 N677 N 0.09396 0.49988 0.26975
 C678 C 0.08517 0.48577 0.27271
 C679 C 0.07520 0.48437 0.28621
 C680 C 0.08390 0.51180 0.29384
 C681 C 0.09713 0.51284 0.22139
 C682 C 0.08741 0.51377 0.20784
 C683 C 0.07294 0.48927 0.21674
 C684 C 0.08287 0.48895 0.23020
 N685 N 0.09457 0.50076 0.23245
 H686 H 0.10118 0.52355 0.27809
 H687 H 0.08615 0.47538 0.26477
 H688 H 0.06815 0.47311 0.28813
 H689 H 0.08408 0.52207 0.30203
 H690 H 0.10693 0.52174 0.22286
 H691 H 0.09062 0.52332 0.19931
 H692 H 0.06338 0.47997 0.21618
 H693 H 0.08109 0.47923 0.23889
 C694 C 0.14025 0.54893 0.24908
 C695 C 0.13910 0.45230 0.25433
 C696 C 0.07482 0.50195 0.20512
 C697 C 0.07441 0.49753 0.29700
 C698 C -0.13018 1.02037 0.26330
 H699 H -0.13076 1.01095 0.27248
 C700 C -0.13923 1.03494 0.26491
 H701 H -0.14699 1.03649 0.27526
 C702 C -0.11921 1.02980 0.23875
 H703 H -0.11107 1.02799 0.22877
 C704 C -0.12802 1.04452 0.23988
 H705 H -0.12653 1.05382 0.23066
 N706 N -0.12046 1.01805 0.25034
 C707 C -0.11169 0.96462 0.24852
 H708 H -0.09842 0.96482 0.24848
 C709 C -0.12008 0.94953 0.24753
 H710 H -0.11318 0.93815 0.24681
 C711 C -0.13674 0.97930 0.24895
 H712 H -0.14315 0.99097 0.24925
 C713 C -0.14564 0.96445 0.24775
 H714 H -0.15891 0.96478 0.24747
 Zn715 Zn -0.10716 0.99884 0.24941
 N716 N -0.12005 0.97910 0.24939
 C717 C -0.09379 0.98720 0.27843
 N718 N -0.09308 0.99939 0.26723
 C719 C -0.08293 1.01272 0.26892
 C720 C -0.07269 1.01397 0.28211
 C721 C -0.08379 0.98795 0.29178
 C722 C -0.10396 0.99682 0.21685
 C723 C -0.09634 0.99578 0.20206
 C724 C -0.07010 0.99844 0.21491
 C725 C -0.07830 0.99936 0.22952
 N726 N -0.09495 0.99868 0.23019
 H727 H -0.10231 0.97699 0.27719
 H728 H -0.08283 1.02242 0.25999
 H729 H -0.06455 1.02456 0.28311
 H730 H -0.08476 0.97822 0.30065
 H731 H -0.11717 0.99589 0.21776
 H732 H -0.10415 0.99353 0.19200
 H733 H -0.05689 0.99964 0.21494
 H734 H -0.07132 1.00055 0.24029
 C735 C -0.13729 0.94930 0.24710
 C736 C -0.13819 1.04730 0.25311
 C737 C -0.07905 0.99666 0.20069
 C738 C -0.07300 1.00144 0.29375
 C739 C 0.36138 0.52121 -0.25132
 H740 H 0.35510 0.50941 -0.25135
 C741 C 0.35222 0.53572 -0.24981
 H742 H 0.33904 0.53477 -0.24838
 C743 C 0.38598 0.53685 -0.25322
 H744 H 0.39908 0.53733 -0.25496
 C745 C 0.37731 0.55164 -0.25170
 H746 H 0.38393 0.56331 -0.25221
 N747 N 0.37803 0.52196 -0.25263
 C748 C 0.37946 0.47130 -0.26678
 H749 H 0.38872 0.47371 -0.27574
 C750 C 0.37053 0.45734 -0.26747
 H751 H 0.37327 0.44878 -0.27691
 C752 C 0.36655 0.47973 -0.24280
 H753 H 0.36517 0.48835 -0.23312
 C754 C 0.35630 0.46453 -0.24313
 H755 H 0.34715 0.46317 -0.23388
 Zn756 Zn 0.39092 0.50222 -0.25353
 N757 N 0.37724 0.48278 -0.25400
 C758 C 0.40329 0.48936 -0.22439
 N759 N 0.40513 0.50148 -0.23557
 C760 C 0.41698 0.51334 -0.23411
 C761 C 0.42714 0.51363 -0.22082
 C762 C 0.41315 0.48921 -0.21090
 C763 C 0.39594 0.50681 -0.28611
 C764 C 0.40408 0.50543 -0.30065
 C765 C 0.42812 0.49600 -0.28676
 C766 C 0.41949 0.49752 -0.27245
 N767 N 0.40363 0.50265 -0.27242
 H768 H 0.39409 0.47982 -0.22577
 H769 H 0.41876 0.52250 -0.24334
 H770 H 0.43653 0.52314 -0.21999
 H771 H 0.41111 0.47970 -0.20197
 H772 H 0.38328 0.51072 -0.28575
 H773 H 0.39766 0.50860 -0.31144
 H774 H 0.44053 0.49133 -0.28662
 H775 H 0.42527 0.49396 -0.26146
 C776 C 0.35799 0.45340 -0.25498
 C777 C 0.36020 0.55121 -0.24979
 C778 C 0.42030 0.49967 -0.30114
 C779 C 0.42520 0.50154 -0.20890
 C780 C 0.63331 -0.02162 -0.23575
 H781 H 0.63330 -0.01297 -0.22600
 C782 C 0.64259 -0.03522 -0.23508
 H783 H 0.65031 -0.03694 -0.22483
 C784 C 0.62324 -0.02835 -0.26138
 H785 H 0.61529 -0.02602 -0.27132
 C786 C 0.63349 -0.04336 -0.26130
 H787 H 0.63234 -0.05157 -0.27132
 N788 N 0.62330 -0.01834 -0.24935
 C789 C 0.61301 0.03466 -0.24666
 H790 H 0.59981 0.03423 -0.24536
 C791 C 0.62116 0.04993 -0.24740
 H792 H 0.61379 0.06100 -0.24688
 C793 C 0.63800 0.02041 -0.25013
 H794 H 0.64448 0.00886 -0.25137
 C795 C 0.64664 0.03544 -0.25128
 H796 H 0.65981 0.03495 -0.25276
 Zn797 Zn 0.60915 0.00024 -0.24843
 N798 N 0.62148 0.02030 -0.24788
 C799 C 0.59792 0.00817 -0.21746
 N800 N 0.59614 -0.00244 -0.22981
 C801 C 0.58621 -0.01603 -0.22859
 C802 C 0.57748 -0.01931 -0.21457
 C803 C 0.58958 0.00525 -0.20319
 C804 C 0.60441 0.00480 -0.28058
 C805 C 0.59612 0.00630 -0.29491
 C806 C 0.57060 0.00123 -0.28093
 C807 C 0.57943 -0.00009 -0.26678
 N808 N 0.59607 0.00146 -0.26692
 H809 H 0.60621 0.01862 -0.21845
 H810 H 0.58536 -0.02454 -0.23842
 H811 H 0.56988 -0.03035 -0.21369
 H812 H 0.59129 0.01372 -0.19342
 H813 H 0.61760 0.00634 -0.28031
 H814 H 0.60308 0.00916 -0.30557
 H815 H 0.55741 -0.00038 -0.28067
 H816 H 0.57295 -0.00232 -0.25576
 C817 C 0.63830 0.05066 -0.24991
 C818 C 0.64280 -0.04714 -0.24856
 C819 C 0.57899 0.00434 -0.29529
 C820 C 0.57931 -0.00872 -0.20157
 C821 C 0.02948 0.25419 0.86539
 H822 H 0.02822 0.26588 0.87143
 C823 C 0.04475 0.24952 0.85953
 H824 H 0.05518 0.25776 0.86096
 C825 C 0.01742 0.22935 0.85588
 H826 H 0.00665 0.22157 0.85463
 C827 C 0.03244 0.22432 0.84959
 H828 H 0.03325 0.21263 0.84341
 N829 N 0.01621 0.24417 0.86335
 C830 C -0.03412 0.26001 0.85846
 H831 H -0.03707 0.26245 0.87075
 C832 C -0.04559 0.26324 0.84674
 H833 H -0.05756 0.26782 0.85012
 C834 C -0.01488 0.25103 0.83919
 H835 H -0.00279 0.24656 0.83627
 C836 C -0.02610 0.25392 0.82706
 H837 H -0.02264 0.25149 0.81488
 Zn838 Zn -0.00426 0.25071 0.87131
 N839 N -0.01914 0.25393 0.85455
 C840 C -0.00674 0.28507 0.87477
 N841 N -0.00194 0.27095 0.88227
 C842 C 0.00449 0.27137 0.89712
 C843 C 0.00584 0.28637 0.90516
 C844 C -0.00582 0.30025 0.88245
 C845 C -0.02727 0.22722 0.88382
 C846 C -0.03218 0.21402 0.89357
 C847 C -0.00541 0.21454 0.90569
 C848 C -0.00102 0.22768 0.89571
 N849 N -0.01193 0.23381 0.88511
 H850 H -0.01127 0.28461 0.86278
 H851 H 0.00848 0.26011 0.90281
 H852 H 0.01071 0.28652 0.91708
 H853 H -0.00985 0.31135 0.87638
 H854 H -0.03566 0.23190 0.87506
 H855 H -0.04440 0.20887 0.89236
 H856 H 0.00363 0.20954 0.91372
 H857 H 0.01133 0.23263 0.89604
 C858 C -0.04164 0.26015 0.83083
 C859 C 0.04628 0.23451 0.85140
 C860 C -0.02114 0.20748 0.90461
 C861 C 0.00040 0.30096 0.89787
 C862 C 0.48141 0.25093 0.14727
 H863 H 0.49063 0.26056 0.14834
 C864 C 0.46793 0.25064 0.15747
 H865 H 0.46704 0.25993 0.16662
 C866 C 0.47145 0.22722 0.13382
 H867 H 0.47273 0.21839 0.12432
 C868 C 0.45763 0.22659 0.14363
 H869 H 0.44831 0.21726 0.14152
 N870 N 0.48293 0.23931 0.13580
 C871 C 0.53436 0.24140 0.12315
 H872 H 0.53319 0.24261 0.11043
 C873 C 0.54982 0.24087 0.12999
 H874 H 0.56061 0.24156 0.12244
 C875 C 0.52158 0.23864 0.14841
 H876 H 0.51055 0.23755 0.15549
 C877 C 0.53683 0.23803 0.15575
 H878 H 0.53741 0.23684 0.16853
 Zn879 Zn 0.50062 0.24182 0.12175
 N880 N 0.52067 0.24066 0.13242
 C881 C 0.51056 0.27413 0.11303
 N882 N 0.49847 0.26253 0.11185
 C883 C 0.48438 0.26565 0.10387
 C884 C 0.48232 0.28078 0.09607
 C885 C 0.50908 0.28932 0.10532
 C886 C 0.50367 0.20940 0.11238
 C887 C 0.50649 0.19643 0.10198
 C888 C 0.50343 0.21558 0.08001
 C889 C 0.50071 0.22823 0.09087
 N890 N 0.50100 0.22492 0.10670
 H891 H 0.52139 0.27165 0.11991
 H892 H 0.47486 0.25626 0.10340
 H893 H 0.47124 0.28300 0.08940
 H894 H 0.51889 0.29839 0.10619
 H895 H 0.50411 0.20726 0.12505
 H896 H 0.50871 0.18414 0.10669
 H897 H 0.50363 0.21842 0.06744
 H898 H 0.49903 0.24077 0.08665
 C899 C 0.55116 0.23933 0.14650
 C900 C 0.45567 0.23852 0.15555
 C901 C 0.50666 0.19952 0.08558
 C902 C 0.49493 0.29266 0.09656
 C903 C -0.02276 0.75626 0.65193
 H904 H -0.01703 0.76840 0.65136
 C905 C -0.03567 0.75360 0.66142
 H906 H -0.04041 0.76397 0.66803
 C907 C -0.02353 0.72866 0.64204
 H908 H -0.01887 0.71905 0.63445
 C909 C -0.03785 0.72513 0.65227
 H910 H -0.04268 0.71262 0.65223
 N911 N -0.01645 0.74314 0.64234
 C912 C 0.03515 0.75390 0.63587
 H913 H 0.03616 0.75287 0.62311
 C914 C 0.04903 0.75721 0.64486
 H915 H 0.06081 0.75855 0.63897
 C916 C 0.01855 0.75287 0.65907
 H917 H 0.00670 0.75099 0.66458
 C918 C 0.03211 0.75617 0.66853
 H919 H 0.03052 0.75705 0.68125
 Zn920 Zn 0.00218 0.74804 0.62995
 N921 N 0.02027 0.75210 0.64304
 C922 C 0.00814 0.77994 0.61725
 N923 N -0.00246 0.76686 0.61760
 C924 C -0.01658 0.76695 0.60908
 C925 C -0.02023 0.78043 0.59929
 C926 C 0.00513 0.79347 0.60744
 C927 C 0.01209 0.71574 0.62377
 C928 C 0.01560 0.70195 0.61453
 C929 C 0.01071 0.71852 0.59105
 C930 C 0.00717 0.73195 0.60075
 N931 N 0.00753 0.73019 0.61679
 H932 H 0.01906 0.77985 0.62440
 H933 H -0.02486 0.75643 0.60975
 H934 H -0.03133 0.78031 0.59231
 H935 H 0.01381 0.80369 0.60702
 H936 H 0.01258 0.71484 0.63656
 H937 H 0.01845 0.69033 0.62033
 H938 H 0.01020 0.72007 0.57830
 H939 H 0.00402 0.74370 0.59545
 C940 C 0.04756 0.75849 0.66140
 C941 C -0.04381 0.73697 0.66194
 C942 C 0.01465 0.70318 0.59794
 C943 C -0.00909 0.79369 0.59823
 C944 C 0.53293 0.76070 0.36819
 H945 H 0.53215 0.76989 0.37738
 C946 C 0.54768 0.75866 0.36004
 H947 H 0.55820 0.76622 0.36313
 C948 C 0.52016 0.74013 0.35243
 H949 H 0.50931 0.73298 0.34959
 C950 C 0.53461 0.73781 0.34387
 H951 H 0.53493 0.72872 0.33449
 N952 N 0.51967 0.75118 0.36452
 C953 C 0.47201 0.74512 0.35713
 H954 H 0.47153 0.73398 0.36428
 C955 C 0.46081 0.74721 0.34493
 H956 H 0.45147 0.73783 0.34304
 C957 C 0.48493 0.77073 0.35057
 H958 H 0.49463 0.77965 0.35273
 C959 C 0.47377 0.77346 0.33837
 H960 H 0.47474 0.78460 0.33118
 Zn961 Zn 0.49958 0.75306 0.37535
 N962 N 0.48368 0.75687 0.35978
 C963 C 0.48925 0.78295 0.38918
 N964 N 0.50018 0.77036 0.39013
 C965 C 0.51155 0.76971 0.40184
 C966 C 0.51303 0.78272 0.41254
 C967 C 0.49008 0.79605 0.39981
 C968 C 0.50408 0.71977 0.38491
 C969 C 0.49957 0.70500 0.39242
 C970 C 0.47609 0.71883 0.40378
 C971 C 0.48093 0.73330 0.39585
 N972 N 0.49456 0.73342 0.38646
 H973 H 0.47992 0.78292 0.38017
 H974 H 0.51975 0.75926 0.40258
 H975 H 0.52244 0.78236 0.42154
 H976 H 0.48158 0.80623 0.39869
 H977 H 0.51507 0.72022 0.37772
 H978 H 0.50714 0.69414 0.39096
 H979 H 0.46506 0.71876 0.41100
 H980 H 0.47368 0.74442 0.39693
 C981 C 0.46161 0.76153 0.33544
 C982 C 0.54862 0.74700 0.34782
 C983 C 0.48534 0.70442 0.40184
 C984 C 0.50229 0.79614 0.41144
 Zr985 Zr 0.01015 -0.01117 1.01621
 O986 O 0.02596 -0.00151 1.03375
 O987 O 0.00952 -0.03639 1.02202
 O988 O -0.00029 -0.01359 1.03922
 O989 O 0.04028 -0.01316 0.98719
 O990 O -0.02614 -0.00356 1.03596
 O991 O 0.03445 -0.01951 1.01303
 O992 O -0.00840 -0.04743 1.00427
 O993 O -0.01442 -0.01748 1.01217
 O994 O 0.00929 -0.02207 0.99380
 O995 O -0.00278 0.01121 1.01777
 O996 O 0.02032 0.00659 1.00037
 Zr997 Zr -0.01930 0.01208 0.97422
 Zr998 Zr -0.02707 0.00494 1.01246
 Zr999 Zr 0.01806 -0.00421 0.97792
 Zr1000 Zr -0.01522 -0.02746 0.98947
 O1001 O 0.03731 0.01193 0.97070
 O1002 O -0.03713 -0.03799 0.99891
 O1003 O -0.00631 -0.01042 0.97250
 O1004 O -0.02912 -0.00574 0.99003
 O1005 O -0.01848 0.02307 0.99660
 O1006 O 0.00532 0.01812 0.97830
 C1007 C 0.00145 -0.04860 1.01611
 C1008 C 0.04419 -0.01899 1.00091
 C1009 C -0.01482 -0.01020 1.04437
 O1010 O -0.04822 -0.00969 1.01718
 O1011 O -0.04793 0.01719 1.00415
 O1012 O -0.04308 0.02198 0.97787
 C1013 C -0.05210 0.02289 0.99049
 O1014 O 0.02401 0.03252 1.01869
 Zr1015 Zr 0.00615 0.02826 1.00090
 O1016 O -0.01893 0.03739 0.96859
 O1017 O -0.03209 0.02495 1.02781
 O1018 O -0.00390 0.04537 1.01721
 O1019 O 0.02680 0.04047 0.99065
 O1020 O -0.00292 0.04859 0.98787
 C1021 C -0.01238 0.04979 0.97574
 O1022 O -0.03609 0.00269 0.95741
 O1023 O 0.02523 -0.02538 0.96497
 O1024 O -0.00951 0.01268 0.95088
 O1025 O 0.01505 -0.00050 0.95345
 O1026 O -0.00467 -0.04573 0.97468
 O1027 O -0.03078 -0.03243 0.96992
 C1028 C 0.00375 0.00637 0.94517
 H1029 H 0.01595 -0.03223 0.99301
 H1030 H -0.04069 -0.00831 0.98745
 H1031 H 0.00981 0.02597 0.97027
 H1032 H -0.00185 0.01597 1.02852
 H1033 H -0.03687 -0.05005 0.99680
 H1034 H -0.05470 -0.00381 1.02534
 H1035 H -0.04275 0.02246 1.03305
 H1036 H 0.00143 0.05626 1.01517
 H1037 H -0.01035 -0.05638 0.97705
 H1038 H 0.03563 -0.02250 0.95942
 H1039 H 0.04400 0.00579 0.96289
 H1040 H 0.02600 0.05237 0.99334
 H1041 H -0.03472 -0.04406 0.97055
 H1042 H -0.03954 0.01217 0.95069
 H1043 H 0.02954 -0.01098 1.04041
 H1044 H 0.02617 0.04457 1.01956
 Zr1045 Zr 0.51072 0.48801 0.51492
 O1046 O 0.52634 0.49855 0.53216
 O1047 O 0.51096 0.46291 0.52126
 O1048 O 0.50046 0.48587 0.53802
 O1049 O 0.54078 0.48636 0.48580
 O1050 O 0.47418 0.49469 0.53468
 O1051 O 0.53526 0.48033 0.51178
 O1052 O 0.49350 0.45089 0.50366
 O1053 O 0.48636 0.48074 0.51109
 O1054 O 0.51015 0.47663 0.49272
 O1055 O 0.49700 0.50993 0.51612
 O1056 O 0.52023 0.50578 0.49873
 Zr1057 Zr 0.48039 0.50931 0.47263
 Zr1058 Zr 0.47291 0.50270 0.51102
 Zr1059 Zr 0.51827 0.49445 0.47649
 Zr1060 Zr 0.48583 0.47029 0.48858
 O1061 O 0.53700 0.51109 0.46900
 O1062 O 0.46437 0.45915 0.49836
 O1063 O 0.49411 0.48726 0.47125
 O1064 O 0.47119 0.49151 0.48879
 O1065 O 0.48086 0.52078 0.49479
 O1066 O 0.50478 0.51631 0.47653
 C1067 C 0.50337 0.45031 0.51552
 C1068 C 0.54492 0.48088 0.49959
 C1069 C 0.48583 0.48878 0.54316
 O1070 O 0.45229 0.48741 0.51606
 O1071 O 0.45160 0.51402 0.50252
 O1072 O 0.45641 0.51869 0.47621
 C1073 C 0.44734 0.51946 0.48879
 O1074 O 0.52302 0.53219 0.51661
 Zr1075 Zr 0.50530 0.52693 0.49893
 O1076 O 0.48004 0.53443 0.46637
 O1077 O 0.46726 0.52283 0.52600
 O1078 O 0.49468 0.54404 0.51491
 O1079 O 0.52550 0.53967 0.48841
 O1080 O 0.49548 0.54663 0.48552
 C1081 C 0.48613 0.54719 0.47329
 O1082 O 0.46379 0.49903 0.45612
 O1083 O 0.52605 0.47331 0.46383
 O1084 O 0.49007 0.50980 0.44926
 O1085 O 0.51513 0.49768 0.45197
 O1086 O 0.49693 0.45215 0.47403
 O1087 O 0.47030 0.46435 0.46925
 C1088 C 0.50357 0.50396 0.44361
 H1089 H 0.51715 0.46669 0.49208
 H1090 H 0.45970 0.48849 0.48628
 H1091 H 0.50901 0.52413 0.46835
 H1092 H 0.49780 0.51495 0.52677
 H1093 H 0.46508 0.44706 0.49649
 H1094 H 0.44560 0.49324 0.52410
 H1095 H 0.45669 0.52009 0.53130
 H1096 H 0.49964 0.55506 0.51263
 H1097 H 0.49169 0.44134 0.47663
 H1098 H 0.53638 0.47639 0.45825
 H1099 H 0.54387 0.50504 0.46127
 H1100 H 0.52427 0.55159 0.49089
 H1101 H 0.46682 0.45259 0.47011
 H1102 H 0.46003 0.50824 0.44923
 H1103 H 0.53024 0.48935 0.53899
 H1104 H 0.52476 0.54432 0.51725
 Zr1105 Zr 0.48716 1.01713 0.52199
 O1106 O 0.47082 1.00873 0.53999
 O1107 O 0.48983 1.04216 0.52761
 O1108 O 0.49791 1.01858 0.54480
 O1109 O 0.45753 1.02153 0.49321
 O1110 O 0.52280 1.00640 0.54120
 O1111 O 0.46326 1.02690 0.51910
 O1112 O 0.50882 1.05179 0.50978
 O1113 O 0.51216 1.02142 0.51751
 O1114 O 0.48891 1.02814 0.49951
 O1115 O 0.49836 0.99379 0.52353
 O1116 O 0.47571 1.00039 0.50636
 Zr1117 Zr 0.51470 0.99172 0.47966
 Zr1118 Zr 0.52305 0.99806 0.51774
 Zr1119 Zr 0.47893 1.01109 0.48380
 Zr1120 Zr 0.51375 1.03153 0.49477
 O1121 O 0.45840 0.99675 0.47683
 O1122 O 0.53653 1.04011 0.50365
 O1123 O 0.50366 1.01530 0.47800
 O1124 O 0.52583 1.00869 0.49520
 O1125 O 0.51303 0.98072 0.50218
 O1126 O 0.48971 0.98776 0.48420
 C1127 C 0.49911 1.05363 0.52177
 C1128 C 0.45367 1.02718 0.50696
 C1129 C 0.51213 1.01397 0.54973
 O1130 O 0.54516 1.01106 0.52223
 O1131 O 0.54315 0.98468 0.50915
 O1132 O 0.53770 0.98014 0.48306
 C1133 C 0.54684 0.97883 0.49544
 O1134 O 0.47018 0.97476 0.52525
 Zr1135 Zr 0.48805 0.97768 0.50695
 O1136 O 0.51211 0.96642 0.47432
 O1137 O 0.52652 0.97743 0.53295
 O1138 O 0.49690 0.95952 0.52298
 O1139 O 0.46624 0.96753 0.49734
 O1140 O 0.49486 0.95685 0.49374
 C1141 C 0.50411 0.95476 0.48153
 O1142 O 0.53221 0.99951 0.46246
 O1143 O 0.47363 1.03296 0.47085
 O1144 O 0.50495 0.99235 0.45639
 O1145 O 0.48148 1.00728 0.45936
 O1146 O 0.50444 1.05070 0.48013
 O1147 O 0.52956 1.03556 0.47495
 C1148 C 0.49221 0.99977 0.45085
 H1149 H 0.48302 1.03880 0.49879
 H1150 H 0.53754 1.01041 0.49242
 H1151 H 0.48453 0.98042 0.47629
 H1152 H 0.49711 0.98902 0.53433
 H1153 H 0.53721 1.05219 0.50153
 H1154 H 0.55121 1.00459 0.53030
 H1155 H 0.53731 0.97905 0.53809
 H1156 H 0.49061 0.94915 0.52116
 H1157 H 0.51077 1.06092 0.48246
 H1158 H 0.46299 1.03111 0.46551
 H1159 H 0.45227 1.00352 0.46906
 H1160 H 0.46592 0.95559 0.50015
 H1161 H 0.53412 1.04696 0.47533
 H1162 H 0.53473 0.98977 0.45578
 H1163 H 0.46800 1.01847 0.54656
 H1164 H 0.46711 0.96291 0.52631
 Zr1165 Zr -0.01727 0.51393 1.02405
 O1166 O -0.03623 0.50513 1.03925
 O1167 O -0.01343 0.53787 1.03274
 O1168 O -0.00908 0.51193 1.04781
 O1169 O -0.04252 0.52468 0.99295
 O1170 O 0.01360 0.49562 1.04591
 O1171 O -0.03981 0.52610 1.01979
 O1172 O 0.00888 0.54705 1.01871
 O1173 O 0.00833 0.51598 1.02289
 O1174 O -0.01176 0.52731 1.00333
 O1175 O -0.00856 0.48945 1.02397
 O1176 O -0.02797 0.50039 1.00537
 Zr1177 Zr 0.01311 0.49104 0.98226
 Zr1178 Zr 0.01693 0.49167 1.02155
 Zr1179 Zr -0.02105 0.51336 0.98471
 Zr1180 Zr 0.01365 0.52855 1.00178
 O1181 O -0.04183 0.50237 0.97400
 O1182 O 0.03590 0.53367 1.01376
 O1183 O 0.00446 0.51568 0.98211
 O1184 O 0.02350 0.50471 1.00090
 O1185 O 0.00766 0.47748 1.00293
 O1186 O -0.01246 0.48915 0.98359
 C1187 C -0.00222 0.54868 1.02951
 C1188 C -0.04774 0.52873 1.00681
 C1189 C 0.00304 0.50395 1.05389
 O1190 O 0.03870 0.50220 1.03075
 O1191 O 0.03728 0.47822 1.01353
 O1192 O 0.03485 0.47755 0.98662
 C1193 C 0.04240 0.47414 0.99964
 O1194 O -0.03805 0.47312 1.02037
 Zr1195 Zr -0.01788 0.47653 1.00455
 O1196 O 0.00946 0.46687 0.97393
 O1197 O 0.01708 0.46860 1.03362
 O1198 O -0.01256 0.45568 1.01901
 O1199 O -0.03922 0.47013 0.99164
 O1200 O -0.01152 0.45695 0.98938
 C1201 C -0.00070 0.45543 0.97832
 O1202 O 0.03283 0.49944 0.96777
 O1203 O -0.02238 0.53705 0.97386
 O1204 O 0.00592 0.49446 0.95835
 O1205 O -0.01612 0.51163 0.96032
 O1206 O 0.00794 0.55039 0.98888
 O1207 O 0.03199 0.53320 0.98424
 C1208 C -0.00553 0.50341 0.95226
 H1209 H -0.01658 0.53854 1.00328
 H1210 H 0.03555 0.50568 0.99966
 H1211 H -0.01727 0.48331 0.97442
 H1212 H -0.01169 0.48352 1.03387
 H1213 H 0.03789 0.54579 1.01308
 H1214 H 0.04322 0.49405 1.03837
 H1215 H 0.02711 0.46844 1.04019
 H1216 H -0.01930 0.44627 1.01519
 H1217 H 0.01488 0.55946 0.99309
 H1218 H -0.03240 0.53707 0.96728
 H1219 H -0.04629 0.51067 0.96650
 H1220 H -0.04093 0.45801 0.99282
 H1221 H 0.03735 0.54402 0.98629
 H1222 H 0.03548 0.49036 0.96033
 H1223 H -0.03897 0.51428 1.04659
 H1224 H -0.04205 0.46153 1.01975
 Zr1225 Zr -0.01739 0.48707 0.48092
 O1226 O -0.03470 0.49660 0.46469
 O1227 O -0.01550 0.46243 0.47351
 O1228 O -0.00797 0.48751 0.45740
 O1229 O -0.04532 0.47987 0.51130
 O1230 O 0.01620 0.50174 0.45963
 O1231 O -0.04110 0.47676 0.48473
 O1232 O 0.00416 0.45175 0.48964
 O1233 O 0.00782 0.48288 0.48320
 O1234 O -0.01437 0.47447 0.50244
 O1235 O -0.00633 0.51071 0.48038
 O1236 O -0.02779 0.50243 0.49847
 Zr1237 Zr 0.01277 0.50942 0.52294
 Zr1238 Zr 0.01868 0.50646 0.48393
 Zr1239 Zr -0.02335 0.49006 0.51995
 Zr1240 Zr 0.01070 0.47110 0.50509
 O1241 O -0.04345 0.50352 0.52907
 O1242 O 0.03253 0.46341 0.49360
 O1243 O 0.00166 0.48569 0.52372
 O1244 O 0.02284 0.49404 0.50537
 O1245 O 0.00980 0.52224 0.50150
 O1246 O -0.01240 0.51347 0.52051
 C1247 C -0.00638 0.45053 0.47839
 C1248 C -0.04996 0.47529 0.49743
 C1249 C 0.00514 0.49426 0.45151
 O1250 O 0.03985 0.49374 0.47623
 O1251 O 0.03962 0.51894 0.49219
 O1252 O 0.03570 0.52132 0.51888
 C1253 C 0.04417 0.52365 0.50605
 O1254 O -0.03456 0.52951 0.48231
 Zr1255 Zr -0.01540 0.52535 0.49879
 O1256 O 0.01105 0.53414 0.53017
 O1257 O 0.02175 0.52876 0.47085
 O1258 O -0.00764 0.54476 0.48333
 O1259 O -0.03631 0.53450 0.51089
 O1260 O -0.00719 0.54522 0.51279
 C1261 C 0.00300 0.54636 0.52433
 O1262 O 0.03102 0.50022 0.53836
 O1263 O -0.02788 0.46727 0.53185
 O1264 O 0.00427 0.50733 0.54672
 O1265 O -0.01946 0.49240 0.54438
 O1266 O 0.00255 0.45086 0.51933
 O1267 O 0.02802 0.46595 0.52316
 C1268 C -0.00831 0.49960 0.55262
 H1269 H -0.02028 0.46372 0.50292
 H1270 H 0.03468 0.49222 0.50714
 H1271 H -0.01700 0.52017 0.52925
 H1272 H -0.00836 0.51639 0.47015
 H1273 H 0.03323 0.45121 0.49484
 H1274 H 0.04557 0.50110 0.46850
 H1275 H 0.03211 0.52776 0.46472
 H1276 H -0.01360 0.55490 0.48644
 H1277 H 0.00876 0.44095 0.51598
 H1278 H -0.03820 0.46856 0.53799
 H1279 H -0.04913 0.49614 0.53682
 H1280 H -0.03658 0.54664 0.50911
 H1281 H 0.03267 0.45479 0.52149
 H1282 H 0.03416 0.50940 0.54552
 H1283 H -0.03795 0.48735 0.45765
 H1284 H -0.03762 0.54136 0.48242
 Zr1285 Zr 0.48415 -0.01940 -0.02145
 O1286 O 0.47035 -0.01163 -0.04130
 O1287 O 0.48369 -0.04514 -0.02391
 O1288 O 0.49626 -0.02470 -0.04313
 O1289 O 0.45164 -0.01666 0.00501
 O1290 O 0.52244 -0.01564 -0.03895
 O1291 O 0.45916 -0.02647 -0.01926
 O1292 O 0.49918 -0.05453 -0.00336
 O1293 O 0.50782 -0.02616 -0.01450
 O1294 O 0.48233 -0.02722 0.00220
 O1295 O 0.49873 0.00197 -0.02474
 O1296 O 0.47385 0.00071 -0.00908
 Zr1297 Zr 0.51130 0.00786 0.01960
 Zr1298 Zr 0.52203 -0.00453 -0.01654
 Zr1299 Zr 0.47340 -0.00702 0.01473
 Zr1300 Zr 0.50593 -0.03305 0.00932
 O1301 O 0.45429 0.01038 0.01730
 O1302 O 0.52786 -0.04562 0.00343
 O1303 O 0.49668 -0.01358 0.02312
 O1304 O 0.52132 -0.01223 0.00719
 O1305 O 0.51323 0.01583 -0.00400
 O1306 O 0.48766 0.01442 0.01253
 C1307 C 0.49038 -0.05679 -0.01581
 C1308 C 0.44853 -0.02412 -0.00810
 C1309 C 0.51131 -0.02241 -0.04754
 O1310 O 0.54231 -0.02070 -0.01747
 O1311 O 0.54293 0.00789 -0.00800
 O1312 O 0.53570 0.01658 0.01672
 C1313 C 0.54596 0.01547 0.00505
 O1314 O 0.47380 0.02401 -0.03105
 Zr1315 Zr 0.48950 0.02144 -0.01118
 O1316 O 0.51194 0.03369 0.02191
 O1317 O 0.52987 0.01313 -0.03371
 O1318 O 0.50223 0.03588 -0.02847
 O1319 O 0.46879 0.03566 -0.00463
 O1320 O 0.49851 0.04289 -0.00004
 C1321 C 0.50679 0.04528 0.01269
 O1322 O 0.52619 0.00029 0.03878
 O1323 O 0.46435 -0.02573 0.03026
 O1324 O 0.49976 0.01143 0.04189
 O1325 O 0.47384 0.00133 0.03824
 O1326 O 0.49297 -0.04895 0.02524
 O1327 O 0.51919 -0.03585 0.03078
 C1328 C 0.48509 0.00797 0.04679
 H1329 H 0.47499 -0.03693 0.00375
 H1330 H 0.53241 -0.01489 0.01113
 H1331 H 0.48299 0.02346 0.01898
 H1332 H 0.49906 0.00537 -0.03604
 H1333 H 0.52659 -0.05725 0.00712
 H1334 H 0.54996 -0.01617 -0.02562
 H1335 H 0.54073 0.00948 -0.03764
 H1336 H 0.49744 0.04713 -0.02839
 H1337 H 0.49830 -0.05994 0.02488
 H1338 H 0.45357 -0.02193 0.03426
 H1339 H 0.44652 0.00573 0.02528
 H1340 H 0.47060 0.04705 -0.00879
 H1341 H 0.52258 -0.04754 0.03201
 H1342 H 0.52954 0.01045 0.04452
 H1343 H 0.46680 -0.02176 -0.04697
 H1344 H 0.47254 0.03591 -0.03368
 Zr1345 Zr 0.51499 0.50934 -0.02552
 O1346 O 0.53243 0.50022 -0.04194
 O1347 O 0.51211 0.53373 -0.03354
 O1348 O 0.50537 0.50840 -0.04879
 O1349 O 0.54328 0.51691 0.00395
 O1350 O 0.48152 0.49373 -0.04566
 O1351 O 0.53842 0.52037 -0.02248
 O1352 O 0.49212 0.54389 -0.01738
 O1353 O 0.48971 0.51279 -0.02269
 O1354 O 0.51188 0.52209 -0.00422
 O1355 O 0.50462 0.48539 -0.02533
 O1356 O 0.52599 0.49446 -0.00791
 Zr1357 Zr 0.48593 0.48649 0.01772
 Zr1358 Zr 0.47956 0.48893 -0.02124
 Zr1359 Zr 0.52145 0.50688 0.01340
 Zr1360 Zr 0.48674 0.52470 -0.00100
 O1361 O 0.54191 0.49416 0.02268
 O1362 O 0.46436 0.53164 -0.01175
 O1363 O 0.49637 0.51055 0.01772
 O1364 O 0.47527 0.50142 0.00004
 O1365 O 0.48906 0.47357 -0.00355
 O1366 O 0.51119 0.48319 0.01470
 C1367 C 0.50240 0.54526 -0.02899
 C1368 C 0.54758 0.52159 -0.01011
 C1369 C 0.49231 0.50138 -0.05421
 O1370 O 0.45783 0.50089 -0.02850
 O1371 O 0.45929 0.47565 -0.01227
 O1372 O 0.46317 0.47408 0.01444
 C1373 C 0.45483 0.47111 0.00178
 O1374 O 0.53325 0.46732 -0.02381
 Zr1375 Zr 0.51430 0.47121 -0.00684
 O1376 O 0.48853 0.46188 0.02543
 O1377 O 0.47705 0.46657 -0.03401
 O1378 O 0.50672 0.45138 -0.02153
 O1379 O 0.53578 0.46297 0.00476
 O1380 O 0.50715 0.45137 0.00799
 C1381 C 0.49717 0.44998 0.01982
 O1382 O 0.46767 0.49530 0.03343
 O1383 O 0.52554 0.53003 0.02443
 O1384 O 0.49475 0.48897 0.04123
 O1385 O 0.51791 0.50472 0.03795
 O1386 O 0.49471 0.54542 0.01233
 O1387 O 0.46970 0.52955 0.01755
 C1388 C 0.50718 0.49714 0.04664
 H1389 H 0.51751 0.53301 -0.00421
 H1390 H 0.46340 0.50290 0.00205
 H1391 H 0.51613 0.47673 0.02346
 H1392 H 0.50668 0.47969 -0.03550
 H1393 H 0.46330 0.54381 -0.01069
 H1394 H 0.45226 0.49332 -0.03597
 H1395 H 0.46655 0.46721 -0.03984
 H1396 H 0.51300 0.44145 -0.01834
 H1397 H 0.48821 0.55510 0.00886
 H1398 H 0.53596 0.52911 0.03035
 H1399 H 0.54750 0.50186 0.03002
 H1400 H 0.53643 0.45081 0.00329
 H1401 H 0.46493 0.54068 0.01598
 H1402 H 0.46490 0.48609 0.04087
 H1403 H 0.53530 0.50948 -0.04927
 H1404 H 0.53655 0.45554 -0.02357
 Zr1405 Zr 0.01483 1.00930 0.47779
 O1406 O 0.03239 1.00036 0.46139
 O1407 O 0.01258 1.03403 0.47046
 O1408 O 0.00561 1.00917 0.45435
 O1409 O 0.04263 1.01584 0.50792
 O1410 O -0.01846 0.99470 0.45669
 O1411 O 0.03836 1.01986 0.48147
 O1412 O -0.00744 1.04405 0.48666
 O1413 O -0.01044 1.01310 0.48028
 O1414 O 0.01153 1.02145 0.49938
 O1415 O 0.00408 0.98553 0.47721
 O1416 O 0.02531 0.99372 0.49517
 Zr1417 Zr -0.01532 0.98571 0.51996
 Zr1418 Zr -0.02099 0.98937 0.48097
 Zr1419 Zr 0.02060 1.00559 0.51673
 Zr1420 Zr -0.01360 1.02441 0.50225
 O1421 O 0.04067 0.99216 0.52587
 O1422 O -0.03558 1.03203 0.49115
 O1423 O -0.00449 1.00957 0.52073
 O1424 O -0.02545 1.00131 0.50251
 O1425 O -0.01203 0.97338 0.49840
 O1426 O 0.00992 0.98204 0.51729
 C1427 C 0.00311 1.04563 0.47531
 C1428 C 0.04726 1.02083 0.49405
 C1429 C -0.00740 1.00242 0.44852
 O1430 O -0.04235 1.00191 0.47360
 O1431 O -0.04167 0.97624 0.48929
 O1432 O -0.03819 0.97378 0.51600
 C1433 C -0.04640 0.97135 0.50316
 O1434 O 0.03259 0.96709 0.47889
 Zr1435 Zr 0.01321 0.97065 0.49548
 O1436 O -0.01341 0.96081 0.52695
 O1437 O -0.02364 0.96737 0.46768
 O1438 O 0.00587 0.95148 0.47992
 O1439 O 0.03411 0.96150 0.50744
 O1440 O 0.00508 0.95039 0.50934
 C1441 C -0.00518 0.94883 0.52092
 O1442 O -0.03373 0.99437 0.53561
 O1443 O 0.02493 1.02828 0.52853
 O1444 O -0.00693 0.98747 0.54369
 O1445 O 0.01651 1.00294 0.54115
 O1446 O -0.00567 1.04453 0.51640
 O1447 O -0.03098 1.02898 0.52058
 C1448 C 0.00547 0.99539 0.54948
 H1449 H 0.01732 1.03226 0.49982
 H1450 H -0.03733 1.00293 0.50436
 H1451 H 0.01453 0.97522 0.52597
 H1452 H 0.00625 0.98008 0.46693
 H1453 H -0.03646 1.04418 0.49249
 H1454 H -0.04791 0.99464 0.46585
 H1455 H -0.03400 0.96834 0.46167
 H1456 H 0.01194 0.94135 0.48293
 H1457 H -0.01198 1.05441 0.51312
 H1458 H 0.03522 1.02698 0.53458
 H1459 H 0.04628 0.99952 0.53351
 H1460 H 0.03452 0.94939 0.50561
 H1461 H -0.03568 1.04016 0.51911
 H1462 H -0.03679 0.98500 0.54274
 H1463 H 0.03555 1.00979 0.45437
 H1464 H 0.03583 0.95529 0.47895
 Zr1465 Zr 0.73890 0.26167 0.22996
 O1466 O 0.74707 0.28018 0.21377
 O1467 O 0.71519 0.25673 0.22170
 O1468 O 0.74076 0.25229 0.20657
 O1469 O 0.72862 0.28882 0.25986
 O1470 O 0.75672 0.22938 0.20944
 O1471 O 0.72656 0.28446 0.23326
 O1472 O 0.70650 0.23522 0.23733
 O1473 O 0.73718 0.23587 0.23246
 O1474 O 0.72610 0.25709 0.25113
 O1475 O 0.76325 0.25319 0.23013
 O1476 O 0.75254 0.27363 0.24786
 Zr1477 Zr 0.76249 0.23349 0.27290
 Zr1478 Zr 0.76136 0.22758 0.23382
 Zr1479 Zr 0.74013 0.26767 0.26902
 Zr1480 Zr 0.72520 0.23150 0.25402
 O1481 O 0.75115 0.28923 0.27852
 O1482 O 0.72011 0.20837 0.24323
 O1483 O 0.73808 0.24205 0.27296
 O1484 O 0.74889 0.22182 0.25496
 O1485 O 0.77549 0.23806 0.25178
 O1486 O 0.76419 0.25925 0.27031
 C1487 C 0.70462 0.24558 0.22584
 C1488 C 0.72419 0.29321 0.24584
 C1489 C 0.74848 0.23966 0.20100
 O1490 O 0.75128 0.20475 0.22626
 O1491 O 0.77577 0.20820 0.24258
 O1492 O 0.77624 0.21157 0.26939
 C1493 C 0.78012 0.20375 0.25661
 O1494 O 0.77898 0.28369 0.23250
 Zr1495 Zr 0.77627 0.26372 0.24890
 O1496 O 0.78644 0.23784 0.28071
 O1497 O 0.78378 0.22725 0.22104
 O1498 O 0.79646 0.25825 0.23389
 O1499 O 0.78304 0.28555 0.26119
 O1500 O 0.79629 0.25733 0.26335
 C1501 C 0.79797 0.24711 0.27501
 O1502 O 0.75466 0.21413 0.28831
 O1503 O 0.71684 0.26966 0.28007
 O1504 O 0.75904 0.24176 0.29653
 O1505 O 0.74204 0.26389 0.29355
 O1506 O 0.70376 0.23770 0.26700
 O1507 O 0.72122 0.21388 0.27253
 C1508 C 0.75007 0.25352 0.30210
 H1509 H 0.71494 0.26182 0.25111
 H1510 H 0.74820 0.20970 0.25678
 H1511 H 0.77011 0.26453 0.27918
 H1512 H 0.76889 0.25589 0.22000
 H1513 H 0.70817 0.20624 0.24429
 H1514 H 0.75930 0.19987 0.21879
 H1515 H 0.78401 0.21671 0.21507
 H1516 H 0.80581 0.26531 0.23721
 H1517 H 0.69481 0.23029 0.26339
 H1518 H 0.71692 0.28011 0.28617
 H1519 H 0.74305 0.29411 0.28591
 H1520 H 0.79503 0.28711 0.25974
 H1521 H 0.71055 0.20821 0.27095
 H1522 H 0.76378 0.21193 0.29576
 H1523 H 0.73788 0.28242 0.20643
 H1524 H 0.79035 0.28806 0.23290
 Zr1525 Zr 0.76459 0.73725 0.72958
 O1526 O 0.75661 0.72258 0.71035
 O1527 O 0.79008 0.73661 0.72684
 O1528 O 0.76998 0.74866 0.70741
 O1529 O 0.76173 0.70557 0.75732
 O1530 O 0.76163 0.77532 0.71088
 O1531 O 0.77121 0.71209 0.73254
 O1532 O 0.79956 0.75281 0.74689
 O1533 O 0.77172 0.76140 0.73565
 O1534 O 0.77225 0.73631 0.75319
 O1535 O 0.74370 0.75194 0.72608
 O1536 O 0.74446 0.72739 0.74254
 Zr1537 Zr 0.73814 0.76630 0.77007
 Zr1538 Zr 0.75057 0.77573 0.73339
 Zr1539 Zr 0.75210 0.72779 0.76623
 Zr1540 Zr 0.77846 0.76037 0.75944
 O1541 O 0.73458 0.70854 0.76931
 O1542 O 0.79132 0.78220 0.75248
 O1543 O 0.75905 0.75156 0.77380
 O1544 O 0.75817 0.77591 0.75703
 O1545 O 0.73030 0.76740 0.74651
 O1546 O 0.73114 0.74221 0.76386
 C1547 C 0.80170 0.74348 0.73473
 C1548 C 0.76905 0.70188 0.74425
 C1549 C 0.76803 0.76372 0.70256
 O1550 O 0.76684 0.79623 0.73164
 O1551 O 0.73840 0.79705 0.74130
 O1552 O 0.73016 0.79092 0.76656
 C1553 C 0.73115 0.80071 0.75442
 O1554 O 0.72134 0.72643 0.72110
 Zr1555 Zr 0.72424 0.74323 0.74020
 O1556 O 0.71261 0.76742 0.77261
 O1557 O 0.73332 0.78301 0.71609
 O1558 O 0.71028 0.75531 0.72248
 O1559 O 0.70954 0.72287 0.74784
 O1560 O 0.70326 0.75334 0.75109
 C1561 C 0.70106 0.76227 0.76352
 O1562 O 0.74605 0.78187 0.78868
 O1563 O 0.77025 0.71923 0.78208
 O1564 O 0.73429 0.75543 0.79275
 O1565 O 0.74360 0.72901 0.78971
 O1566 O 0.79391 0.74793 0.77570
 O1567 O 0.78150 0.77464 0.78033
 C1568 C 0.73729 0.74071 0.79798
 H1569 H 0.78173 0.72896 0.75493
 H1570 H 0.76101 0.78726 0.76054
 H1571 H 0.72205 0.73782 0.77055
 H1572 H 0.74033 0.75186 0.71482
 H1573 H 0.80281 0.78101 0.75604
 H1574 H 0.76250 0.80362 0.72325
 H1575 H 0.73710 0.79384 0.71175
 H1576 H 0.69903 0.75058 0.72291
 H1577 H 0.80489 0.75326 0.77503
 H1578 H 0.76630 0.70845 0.78641
 H1579 H 0.73895 0.70097 0.77753
 H1580 H 0.69831 0.72473 0.74381
 H1581 H 0.79311 0.77817 0.78120
 H1582 H 0.73609 0.78559 0.79443
 H1583 H 0.76657 0.71876 0.70466
 H1584 H 0.70953 0.72506 0.71874
 Zr1585 Zr 0.23795 0.23636 0.77517
 O1586 O 0.24855 0.22116 0.79285
 O1587 O 0.21326 0.23635 0.78198
 O1588 O 0.23625 0.24739 0.79783
 O1589 O 0.23571 0.20527 0.74732
 O1590 O 0.24529 0.27383 0.79329
 O1591 O 0.22996 0.21144 0.77311
 O1592 O 0.20117 0.25322 0.76374
 O1593 O 0.23104 0.26086 0.77048
 O1594 O 0.22632 0.23632 0.75316
 O1595 O 0.25984 0.25031 0.77547
 O1596 O 0.25515 0.22636 0.75912
 Zr1597 Zr 0.25876 0.26591 0.73129
 Zr1598 Zr 0.25294 0.27447 0.76951
 Zr1599 Zr 0.24362 0.22776 0.73702
 Zr1600 Zr 0.22028 0.26076 0.74816
 O1601 O 0.25970 0.20870 0.72991
 O1602 O 0.20977 0.28264 0.75742
 O1603 O 0.23671 0.25197 0.73093
 O1604 O 0.24151 0.27558 0.74740
 O1605 O 0.27045 0.26604 0.75331
 O1606 O 0.26541 0.24139 0.73608
 C1607 C 0.20075 0.24369 0.77608
 C1608 C 0.23038 0.20139 0.76127
 C1609 C 0.23934 0.26233 0.80230
 O1610 O 0.23825 0.29548 0.77392
 O1611 O 0.26439 0.29575 0.76005
 O1612 O 0.26847 0.29021 0.73387
 C1613 C 0.26961 0.29969 0.74609
 O1614 O 0.28167 0.22427 0.77674
 Zr1615 Zr 0.27624 0.24148 0.75835
 O1616 O 0.28357 0.26591 0.72450
 O1617 O 0.27316 0.28058 0.78400
 O1618 O 0.29364 0.25282 0.77348
 O1619 O 0.28826 0.22067 0.74854
 O1620 O 0.29555 0.25081 0.74414
 C1621 C 0.29617 0.25983 0.73149
 O1622 O 0.24867 0.28245 0.71443
 O1623 O 0.22236 0.21944 0.72507
 O1624 O 0.25797 0.25570 0.70817
 O1625 O 0.24634 0.23023 0.71243
 O1626 O 0.20203 0.24915 0.73419
 O1627 O 0.21420 0.27597 0.72841
 C1628 C 0.25193 0.24181 0.70330
 H1629 H 0.21639 0.22919 0.75293
 H1630 H 0.23864 0.28710 0.74450
 H1631 H 0.27289 0.23688 0.72790
 H1632 H 0.26498 0.24983 0.78607
 H1633 H 0.19776 0.28185 0.75584
 H1634 H 0.24422 0.30241 0.78167
 H1635 H 0.27067 0.29138 0.78895
 H1636 H 0.30445 0.24778 0.77123
 H1637 H 0.19141 0.25444 0.73676
 H1638 H 0.22519 0.20885 0.71987
 H1639 H 0.25348 0.20153 0.72255
 H1640 H 0.30013 0.22197 0.75067
 H1641 H 0.20265 0.27955 0.72941
 H1642 H 0.25773 0.28599 0.70723
 H1643 H 0.23952 0.21736 0.79997
 H1644 H 0.29367 0.22254 0.77717
 Zr1645 Zr 0.27106 0.76071 0.27078
 O1646 O 0.26390 0.77542 0.29031
 O1647 O 0.29651 0.75958 0.27382
 O1648 O 0.27461 0.74846 0.29281
 O1649 O 0.27100 0.79333 0.24391
 O1650 O 0.26332 0.72288 0.28889
 O1651 O 0.27956 0.78546 0.26853
 O1652 O 0.30507 0.74288 0.25375
 O1653 O 0.27604 0.73616 0.26451
 O1654 O 0.27970 0.76144 0.24738
 O1655 O 0.24866 0.74788 0.27351
 O1656 O 0.25252 0.77239 0.25745
 Zr1657 Zr 0.24330 0.73464 0.22919
 Zr1658 Zr 0.25345 0.72372 0.26600
 Zr1659 Zr 0.26100 0.77170 0.23393
 Zr1660 Zr 0.28375 0.73700 0.24089
 O1661 O 0.24510 0.79177 0.22944
 O1662 O 0.29429 0.71423 0.24804
 O1663 O 0.26579 0.74750 0.22628
 O1664 O 0.26189 0.72328 0.24253
 O1665 O 0.23451 0.73388 0.25256
 O1666 O 0.23859 0.75919 0.23552
 C1667 C 0.30772 0.75205 0.26592
 C1668 C 0.27801 0.79623 0.25726
 C1669 C 0.27075 0.73366 0.29747
 O1670 O 0.26778 0.70206 0.26807
 O1671 O 0.24019 0.70331 0.25735
 O1672 O 0.23288 0.71067 0.23223
 C1673 C 0.23302 0.70045 0.24408
 O1674 O 0.22868 0.77490 0.27852
 Zr1675 Zr 0.23073 0.75844 0.25905
 O1676 O 0.21786 0.73600 0.22602
 O1677 O 0.23462 0.71764 0.28248
 O1678 O 0.21477 0.74722 0.27602
 O1679 O 0.21881 0.78038 0.25156
 O1680 O 0.20927 0.75091 0.24733
 C1681 C 0.20660 0.74244 0.23473
 O1682 O 0.25022 0.71865 0.21054
 O1683 O 0.28106 0.77976 0.21969
 O1684 O 0.24156 0.74612 0.20654
 O1685 O 0.25530 0.77061 0.20975
 O1686 O 0.30056 0.74842 0.22484
 O1687 O 0.28641 0.72246 0.22011
 C1688 C 0.24780 0.75984 0.20120
 H1689 H 0.28981 0.76817 0.24601
 H1690 H 0.26380 0.71180 0.23893
 H1691 H 0.23037 0.76445 0.22856
 H1692 H 0.24485 0.74808 0.28468
 H1693 H 0.30599 0.71452 0.24482
 H1694 H 0.26237 0.69490 0.27618
 H1695 H 0.23714 0.70650 0.28680
 H1696 H 0.20409 0.75297 0.27542
 H1697 H 0.31112 0.74249 0.22572
 H1698 H 0.27814 0.79073 0.21523
 H1699 H 0.25075 0.79905 0.22160
 H1700 H 0.20726 0.77961 0.25522
 H1701 H 0.29779 0.71831 0.21942
 H1702 H 0.24013 0.71596 0.20453
 H1703 H 0.27401 0.77839 0.29617
 H1704 H 0.21696 0.77727 0.28060
 Zr1705 Zr 0.24039 0.76659 0.72825
 O1706 O 0.24863 0.78087 0.70855
 O1707 O 0.21498 0.76624 0.72486
 O1708 O 0.23627 0.75432 0.70650
 O1709 O 0.24158 0.79932 0.75446
 O1710 O 0.24546 0.72811 0.71117
 O1711 O 0.23295 0.79161 0.72991
 O1712 O 0.20528 0.75041 0.74541
 O1713 O 0.23376 0.74245 0.73521
 O1714 O 0.23174 0.76807 0.75159
 O1715 O 0.26188 0.75252 0.72592
 O1716 O 0.25969 0.77749 0.74124
 Zr1717 Zr 0.26614 0.73975 0.77065
 Zr1718 Zr 0.25541 0.72877 0.73407
 Zr1719 Zr 0.25109 0.77762 0.76472
 Zr1720 Zr 0.22607 0.74403 0.75878
 O1721 O 0.26802 0.79733 0.76776
 O1722 O 0.21414 0.72158 0.75257
 O1723 O 0.24462 0.75390 0.77316
 O1724 O 0.24691 0.72913 0.75754
 O1725 O 0.27494 0.73811 0.74733
 O1726 O 0.27258 0.76385 0.76356
 C1727 C 0.20330 0.75920 0.73278
 C1728 C 0.23463 0.80233 0.74109
 C1729 C 0.23895 0.73923 0.70226
 O1730 O 0.23961 0.70792 0.73259
 O1731 O 0.26728 0.70789 0.74337
 O1732 O 0.27505 0.71528 0.76829
 C1733 C 0.27425 0.70491 0.75672
 O1734 O 0.28376 0.77828 0.72023
 Zr1735 Zr 0.28049 0.76227 0.74013
 O1736 O 0.29158 0.73984 0.77397
 O1737 O 0.27378 0.72138 0.71779
 O1738 O 0.29559 0.74983 0.72354
 O1739 O 0.29400 0.78357 0.74701
 O1740 O 0.30136 0.75368 0.75219
 C1741 C 0.30333 0.74533 0.76510
 O1742 O 0.25811 0.72439 0.78967
 O1743 O 0.23190 0.78637 0.77941
 O1744 O 0.26839 0.75143 0.79304
 O1745 O 0.25805 0.77722 0.78857
 O1746 O 0.20963 0.75655 0.77409
 O1747 O 0.22263 0.73041 0.78023
 C1748 C 0.26431 0.76609 0.79763
 H1749 H 0.22198 0.77520 0.75275
 H1750 H 0.24423 0.71784 0.76147
 H1751 H 0.28117 0.76881 0.77033
 H1752 H 0.26572 0.75233 0.71476
 H1753 H 0.20248 0.72252 0.75579
 H1754 H 0.24452 0.70034 0.72470
 H1755 H 0.27050 0.71031 0.71383
 H1756 H 0.30668 0.75491 0.72402
 H1757 H 0.19884 0.75088 0.77341
 H1758 H 0.23542 0.79733 0.78345
 H1759 H 0.26301 0.80504 0.77546
 H1760 H 0.30547 0.78205 0.74338
 H1761 H 0.21109 0.72657 0.78101
 H1762 H 0.26798 0.72128 0.79581
 H1763 H 0.23878 0.78415 0.70248
 H1764 H 0.29562 0.77983 0.71805
 Zr1765 Zr 0.26394 0.23835 0.23261
 O1766 O 0.25494 0.22228 0.21487
 O1767 O 0.28891 0.23991 0.22679
 O1768 O 0.26577 0.24928 0.20971
 O1769 O 0.26675 0.20767 0.26129
 O1770 O 0.25477 0.27489 0.21332
 O1771 O 0.27298 0.21400 0.23553
 O1772 O 0.29903 0.25847 0.24458
 O1773 O 0.26928 0.26335 0.23695
 O1774 O 0.27472 0.23936 0.25501
 O1775 O 0.24132 0.25066 0.23132
 O1776 O 0.24672 0.22732 0.24835
 Zr1777 Zr 0.24001 0.26679 0.27509
 Zr1778 Zr 0.24665 0.27534 0.23691
 Zr1779 Zr 0.25735 0.22971 0.27080
 Zr1780 Zr 0.27918 0.26424 0.25964
 O1781 O 0.24204 0.20966 0.27787
 O1782 O 0.28877 0.28693 0.25060
 O1783 O 0.26271 0.25443 0.27654
 O1784 O 0.25722 0.27752 0.25933
 O1785 O 0.22910 0.26585 0.25273
 O1786 O 0.23482 0.24179 0.27072
 C1787 C 0.30059 0.24864 0.23271
 C1788 C 0.27264 0.20401 0.24756
 C1789 C 0.26168 0.26382 0.20472
 O1790 O 0.26050 0.29714 0.23225
 O1791 O 0.23399 0.29597 0.24552
 O1792 O 0.22936 0.29046 0.27172
 C1793 C 0.22822 0.29977 0.25925
 O1794 O 0.22109 0.22287 0.23018
 Zr1795 Zr 0.22480 0.24087 0.24811
 O1796 O 0.21502 0.26542 0.28077
 O1797 O 0.22651 0.27995 0.22185
 O1798 O 0.20747 0.25049 0.23190
 O1799 O 0.21348 0.21954 0.25832
 O1800 O 0.20442 0.24936 0.26116
 C1801 C 0.20295 0.25870 0.27341
 O1802 O 0.24859 0.28398 0.29205
 O1803 O 0.27860 0.22298 0.28356
 O1804 O 0.24023 0.25675 0.29840
 O1805 O 0.25369 0.23228 0.29526
 O1806 O 0.29773 0.25395 0.27412
 O1807 O 0.28361 0.27974 0.27946
 C1808 C 0.24694 0.24346 0.30384
 H1809 H 0.28500 0.23296 0.25570
 H1810 H 0.25939 0.28925 0.26204
 H1811 H 0.22727 0.23691 0.27875
 H1812 H 0.23658 0.24969 0.22059
 H1813 H 0.30071 0.28707 0.25271
 H1814 H 0.25436 0.30366 0.22428
 H1815 H 0.22860 0.29082 0.21665
 H1816 H 0.19688 0.24471 0.23392
 H1817 H 0.30805 0.26009 0.27178
 H1818 H 0.27613 0.21231 0.28899
 H1819 H 0.24836 0.20302 0.28560
 H1820 H 0.20165 0.22001 0.25575
 H1821 H 0.29500 0.28406 0.27892
 H1822 H 0.23908 0.28698 0.29882
 H1823 H 0.26445 0.21907 0.20819
 H1824 H 0.20926 0.22012 0.22949
 Zr1825 Zr 0.74067 0.73294 0.27330
 O1826 O 0.74949 0.71824 0.29227
 O1827 O 0.71551 0.73359 0.27815
 O1828 O 0.73729 0.74486 0.29541
 O1829 O 0.74013 0.70083 0.24639
 O1830 O 0.74686 0.77105 0.29060
 O1831 O 0.73254 0.70803 0.27148
 O1832 O 0.70532 0.75004 0.25851
 O1833 O 0.73444 0.75727 0.26715
 O1834 O 0.73100 0.73209 0.25041
 O1835 O 0.76260 0.74672 0.27486
 O1836 O 0.75914 0.72221 0.25909
 Zr1837 Zr 0.76527 0.76060 0.23020
 Zr1838 Zr 0.75645 0.77068 0.26750
 Zr1839 Zr 0.74957 0.72273 0.23608
 Zr1840 Zr 0.72565 0.75635 0.24402
 O1841 O 0.76579 0.70291 0.23168
 O1842 O 0.71463 0.77882 0.25121
 O1843 O 0.74333 0.74668 0.22846
 O1844 O 0.74691 0.77108 0.24453
 O1845 O 0.77511 0.76150 0.25304
 O1846 O 0.77142 0.73629 0.23645
 C1847 C 0.70371 0.74111 0.27116
 C1848 C 0.73367 0.69754 0.26003
 C1849 C 0.74021 0.75994 0.29961
 O1850 O 0.74172 0.79203 0.26974
 O1851 O 0.76954 0.79115 0.25842
 O1852 O 0.77492 0.78496 0.23257
 C1853 C 0.77583 0.79455 0.24474
 O1854 O 0.78410 0.72056 0.27874
 Zr1855 Zr 0.78037 0.73718 0.25945
 O1856 O 0.79048 0.76043 0.22558
 O1857 O 0.77521 0.77720 0.28359
 O1858 O 0.79638 0.74907 0.27558
 O1859 O 0.79311 0.71601 0.25134
 O1860 O 0.80094 0.74605 0.24652
 C1861 C 0.80250 0.75473 0.23371
 O1862 O 0.75669 0.77638 0.21194
 O1863 O 0.72955 0.71462 0.22220
 O1864 O 0.76674 0.74937 0.20758
 O1865 O 0.75582 0.72361 0.21196
 O1866 O 0.70819 0.74429 0.22947
 O1867 O 0.72168 0.77040 0.22301
 C1868 C 0.76227 0.73482 0.20291
 H1869 H 0.72102 0.72509 0.24966
 H1870 H 0.74445 0.78251 0.24101
 H1871 H 0.77963 0.73143 0.22918
 H1872 H 0.76681 0.74660 0.28585
 H1873 H 0.70282 0.77808 0.24857
 H1874 H 0.74715 0.79929 0.27759
 H1875 H 0.77245 0.78825 0.28785
 H1876 H 0.80734 0.74398 0.27438
 H1877 H 0.69761 0.75010 0.23085
 H1878 H 0.73260 0.70372 0.21777
 H1879 H 0.76024 0.69544 0.22410
 H1880 H 0.80476 0.71739 0.25439
 H1881 H 0.71021 0.77434 0.22287
 H1882 H 0.76633 0.77962 0.20535
 H1883 H 0.73984 0.71487 0.29879
 H1884 H 0.79601 0.71895 0.28029
 Zr1885 Zr 0.76683 0.26300 0.77055
 O1886 O 0.76098 0.27749 0.79063
 O1887 O 0.79240 0.26141 0.77224
 O1888 O 0.77133 0.25031 0.79220
 O1889 O 0.76621 0.29597 0.74411
 O1890 O 0.75989 0.22480 0.78824
 O1891 O 0.77560 0.28767 0.76829
 O1892 O 0.79967 0.24501 0.75147
 O1893 O 0.77117 0.23854 0.76357
 O1894 O 0.77411 0.26411 0.74673
 O1895 O 0.74447 0.25034 0.77425
 O1896 O 0.74765 0.27513 0.75849
 Zr1897 Zr 0.73662 0.23802 0.73000
 Zr1898 Zr 0.74856 0.22629 0.76605
 Zr1899 Zr 0.75476 0.27487 0.73454
 Zr1900 Zr 0.77756 0.23978 0.73958
 O1901 O 0.73925 0.29564 0.73217
 O1902 O 0.78817 0.21670 0.74562
 O1903 O 0.75896 0.25084 0.72608
 O1904 O 0.75572 0.22617 0.74218
 O1905 O 0.72909 0.23692 0.75377
 O1906 O 0.73240 0.26243 0.73713
 C1907 C 0.80307 0.25386 0.76368
 C1908 C 0.77388 0.29857 0.75716
 C1909 C 0.76769 0.23540 0.79672
 O1910 O 0.76246 0.20426 0.76655
 O1911 O 0.73365 0.20674 0.75812
 O1912 O 0.72632 0.21401 0.73298
 C1913 C 0.72609 0.20406 0.74503
 O1914 O 0.72502 0.27746 0.78076
 Zr1915 Zr 0.72583 0.26130 0.76097
 O1916 O 0.71103 0.23950 0.72829
 O1917 O 0.73102 0.22013 0.78381
 O1918 O 0.71085 0.24978 0.77858
 O1919 O 0.71357 0.28341 0.75454
 O1920 O 0.70367 0.25407 0.75026
 C1921 C 0.70029 0.24577 0.73770
 O1922 O 0.74238 0.22247 0.71065
 O1923 O 0.77371 0.28231 0.71870
 O1924 O 0.73369 0.25001 0.70774
 O1925 O 0.74601 0.27523 0.71121
 O1926 O 0.79384 0.25126 0.72307
 O1927 O 0.77866 0.22587 0.71830
 C1928 C 0.73829 0.26451 0.70279
 H1929 H 0.78424 0.27071 0.74493
 H1930 H 0.75725 0.21474 0.73829
 H1931 H 0.72377 0.26792 0.73083
 H1932 H 0.74131 0.25036 0.78560
 H1933 H 0.79965 0.21690 0.74170
 H1934 H 0.75744 0.19700 0.77481
 H1935 H 0.73360 0.20880 0.78762
 H1936 H 0.70017 0.25557 0.77866
 H1937 H 0.80421 0.24493 0.72316
 H1938 H 0.77089 0.29354 0.71480
 H1939 H 0.74441 0.30309 0.72415
 H1940 H 0.70225 0.28261 0.75884
 H1941 H 0.78984 0.22135 0.71694
 H1942 H 0.73196 0.21997 0.70511
 H1943 H 0.77144 0.28015 0.79604
 H1944 H 0.71345 0.27971 0.78360
 C1945 C 0.45317 1.00233 0.33931
 C1946 C 0.45080 0.98767 0.33069
 C1947 C 0.44182 0.98780 0.31661
 C1948 C 0.43500 1.00259 0.31078
 C1949 C 0.43778 1.01732 0.31915
 C1950 C 0.44674 1.01720 0.33323
 C1951 C 0.46155 1.00210 0.35492
 N1952 N 0.46251 1.01609 0.36371
 N1953 N 0.46901 1.01581 0.37814
 C1954 C 0.47491 1.00154 0.38446
 N1955 N 0.47422 0.98755 0.37559
 N1956 N 0.46766 0.98783 0.36113
 C1957 C 0.48082 1.00120 0.40109
 C1958 C 0.48897 0.98737 0.40750
 C1959 C 0.49338 0.98697 0.42359
 C1960 C 0.48941 1.00027 0.43354
 C1961 C 0.48170 1.01420 0.42698
 C1962 C 0.47758 1.01472 0.41100
 H1963 H 0.45563 0.97602 0.33497
 H1964 H 0.44013 0.97627 0.31030
 H1965 H 0.43257 1.02889 0.31509
 H1966 H 0.44831 1.02875 0.33952
 H1967 H 0.49172 0.97678 0.40015
 H1968 H 0.49932 0.97609 0.42838
 H1969 H 0.47865 1.02473 0.43432
 H1970 H 0.47137 1.02559 0.40655
 C1971 C -0.04653 0.50429 0.84194
 C1972 C -0.05178 0.48932 0.83524
 C1973 C -0.06125 0.48924 0.82147
 C1974 C -0.06576 0.50417 0.81382
 C1975 C -0.05998 0.51915 0.82043
 C1976 C -0.05062 0.51919 0.83428
 C1977 C -0.03746 0.50442 0.85718
 N1978 N -0.03465 0.51888 0.86488
 N1979 N -0.02746 0.51898 0.87901
 C1980 C -0.02267 0.50463 0.88607
 N1981 N -0.02523 0.49018 0.87827
 N1982 N -0.03248 0.49008 0.86413
 C1983 C -0.01608 0.50474 0.90245
 C1984 C -0.00923 0.49043 0.90932
 C1985 C -0.00474 0.49021 0.92536
 C1986 C -0.00730 0.50421 0.93484
 C1987 C -0.01346 0.51868 0.92780
 C1988 C -0.01766 0.51899 0.91180
 H1989 H -0.04874 0.47758 0.84073
 H1990 H -0.06456 0.47728 0.81669
 H1991 H -0.06330 0.53105 0.81551
 H1992 H -0.04682 0.53099 0.83912
 H1993 H -0.00777 0.47926 0.90242
 H1994 H -0.00012 0.47887 0.93054
 H1995 H -0.01548 0.52967 0.93483
 H1996 H -0.02284 0.53024 0.90695
 C1997 C 0.04750 0.00583 0.83540
 C1998 C 0.05915 0.01815 0.83152
 C1999 C 0.06880 0.01684 0.81780
 C2000 C 0.06682 0.00332 0.80756
 C2001 C 0.05488 -0.00877 0.81121
 C2002 C 0.04541 -0.00760 0.82504
 C2003 C 0.03818 0.00651 0.85055
 N2004 N 0.03126 -0.00745 0.85680
 N2005 N 0.02386 -0.00720 0.87092
 C2006 C 0.02291 0.00705 0.87934
 N2007 N 0.02955 0.02111 0.87298
 N2008 N 0.03707 0.02083 0.85889
 C2009 C 0.01614 0.00685 0.89569
 C2010 C 0.01043 0.02139 0.90295
 C2011 C 0.00541 0.02118 0.91892
 C2012 C 0.00647 0.00653 0.92789
 C2013 C 0.01176 -0.00804 0.92052
 C2014 C 0.01633 -0.00794 0.90457
 H2015 H 0.06110 0.02862 0.83926
 H2016 H 0.07780 0.02643 0.81516
 H2017 H 0.05316 -0.01935 0.80355
 H2018 H 0.03651 -0.01728 0.82767
 H2019 H 0.01010 0.03295 0.89637
 H2020 H 0.00147 0.03257 0.92444
 H2021 H 0.01266 -0.01948 0.92726
 H2022 H 0.02072 -0.01933 0.89938
 C2023 C 0.54628 0.50437 0.33343
 C2024 C 0.55769 0.51693 0.32953
 C2025 C 0.56732 0.51582 0.31579
 C2026 C 0.56555 0.50229 0.30553
 C2027 C 0.55383 0.48999 0.30916
 C2028 C 0.54439 0.49094 0.32304
 C2029 C 0.53709 0.50479 0.34865
 N2030 N 0.53079 0.49061 0.35505
 N2031 N 0.52357 0.49065 0.36926
 C2032 C 0.52217 0.50490 0.37762
 N2033 N 0.52817 0.51917 0.37111
 N2034 N 0.53553 0.51910 0.35693
 C2035 C 0.51563 0.50453 0.39405
 C2036 C 0.50910 0.51879 0.40118
 C2037 C 0.50423 0.51849 0.41718
 C2038 C 0.50628 0.50406 0.42633
 C2039 C 0.51243 0.48977 0.41910
 C2040 C 0.51685 0.48993 0.40311
 H2041 H 0.55950 0.52739 0.33732
 H2042 H 0.57618 0.52554 0.31317
 H2043 H 0.55228 0.47940 0.30148
 H2044 H 0.53569 0.48109 0.32569
 H2045 H 0.50800 0.53020 0.39445
 H2046 H 0.49961 0.52968 0.42259
 H2047 H 0.51411 0.47852 0.42597
 H2048 H 0.52191 0.47878 0.39801
 C2049 C 0.55295 0.49767 0.15541
 C2050 C 0.54726 0.48831 0.16847
 C2051 C 0.55584 0.48845 0.18283
 C2052 C 0.57039 0.49781 0.18440
 C2053 C 0.57615 0.50692 0.17120
 C2054 C 0.56751 0.50694 0.15697
 C2055 C 0.54391 0.49798 0.14019
 N2056 N 0.54730 0.50997 0.12927
 N2057 N 0.53964 0.51025 0.11541
 C2058 C 0.52824 0.49855 0.11175
 N2059 N 0.52475 0.48655 0.12269
 N2060 N 0.53239 0.48631 0.13666
 C2061 C 0.52059 0.49868 0.09580
 C2062 C 0.51147 0.48509 0.09009
 C2063 C 0.50613 0.48480 0.07426
 C2064 C 0.50994 0.49806 0.06395
 C2065 C 0.51818 0.51197 0.06998
 C2066 C 0.52339 0.51230 0.08565
 H2067 H 0.53606 0.48109 0.16768
 H2068 H 0.55090 0.48144 0.19278
 H2069 H 0.58750 0.51394 0.17176
 H2070 H 0.57238 0.51413 0.14710
 H2071 H 0.50904 0.47443 0.09763
 H2072 H 0.49982 0.47391 0.06989
 H2073 H 0.52108 0.52248 0.06238
 H2074 H 0.53010 0.52310 0.08964
 C2075 C 0.05114 0.99744 0.65797
 C2076 C 0.04628 0.98758 0.67100
 C2077 C 0.05512 0.98805 0.68520
 C2078 C 0.06913 0.99826 0.68663
 C2079 C 0.07407 1.00788 0.67346
 C2080 C 0.06515 1.00757 0.65940
 C2081 C 0.04182 0.99741 0.64291
 N2082 N 0.04404 1.00991 0.63227
 N2083 N 0.03621 1.00988 0.61850
 C2084 C 0.02580 0.99734 0.61467
 N2085 N 0.02346 0.98482 0.62534
 N2086 N 0.03126 0.98489 0.63923
 C2087 C 0.01808 0.99717 0.59875
 C2088 C 0.01015 0.98297 0.59274
 C2089 C 0.00494 0.98253 0.57687
 C2090 C 0.00771 0.99625 0.56683
 C2091 C 0.01467 1.01070 0.57316
 C2092 C 0.01972 1.01118 0.58888
 H2093 H 0.03550 0.97970 0.67030
 H2094 H 0.05080 0.98062 0.69513
 H2095 H 0.08500 1.01556 0.67389
 H2096 H 0.06938 1.01518 0.64954
 H2097 H 0.00862 0.97199 0.60007
 H2098 H -0.00036 0.97123 0.57223
 H2099 H 0.01676 1.02153 0.56574
 H2100 H 0.02548 1.02244 0.59309
 C2101 C -0.04825 0.49829 0.66418
 C2102 C -0.04500 0.51080 0.67529
 C2103 C -0.05365 0.51126 0.68971
 C2104 C -0.06585 0.49936 0.69320
 C2105 C -0.06891 0.48675 0.68221
 C2106 C -0.06019 0.48618 0.66792
 C2107 C -0.03972 0.49796 0.64855
 N2108 N -0.04176 0.48481 0.63882
 N2109 N -0.03494 0.48468 0.62445
 C2110 C -0.02577 0.49770 0.61910
 N2111 N -0.02353 0.51083 0.62889
 N2112 N -0.03035 0.51095 0.64334
 C2113 C -0.01938 0.49777 0.60254
 C2114 C -0.01040 0.51131 0.59620
 C2115 C -0.00595 0.51171 0.58006
 C2116 C -0.01060 0.49869 0.57002
 C2117 C -0.01889 0.48492 0.57656
 C2118 C -0.02314 0.48442 0.59256
 H2119 H -0.03587 0.52030 0.67280
 H2120 H -0.05110 0.52117 0.69795
 H2121 H -0.07809 0.47729 0.68467
 H2122 H -0.06304 0.47634 0.65969
 H2123 H -0.00723 0.52176 0.60358
 H2124 H 0.00043 0.52248 0.57529
 H2125 H -0.02245 0.47459 0.56916
 H2126 H -0.02987 0.47371 0.59697
 C2127 C 0.44376 0.01048 0.15788
 C2128 C 0.45203 0.00218 0.17015
 C2129 C 0.44450 -0.00023 0.18500
 C2130 C 0.42854 0.00559 0.18788
 C2131 C 0.42045 0.01415 0.17569
 C2132 C 0.42794 0.01655 0.16092
 C2133 C 0.45118 0.01239 0.14182
 N2134 N 0.44225 0.01885 0.12977
 N2135 N 0.44840 0.01988 0.11514
 C2136 C 0.46381 0.01456 0.11187
 N2137 N 0.47288 0.00830 0.12395
 N2138 N 0.46669 0.00723 0.13862
 C2139 C 0.46997 0.01458 0.09526
 C2140 C 0.48654 0.01147 0.09163
 C2141 C 0.49179 0.01017 0.07580
 C2142 C 0.48048 0.01166 0.06338
 C2143 C 0.46409 0.01533 0.06702
 C2144 C 0.45893 0.01690 0.08272
 H2145 H 0.46422 -0.00268 0.16822
 H2146 H 0.45103 -0.00693 0.19412
 H2147 H 0.40831 0.01913 0.17761
 H2148 H 0.42122 0.02311 0.15183
 H2149 H 0.49537 0.00971 0.10101
 H2150 H 0.50449 0.00727 0.07329
 H2151 H 0.45512 0.01665 0.05768
 H2152 H 0.44609 0.01934 0.08502
 C2153 C 0.34353 0.41756 0.00493
 C2154 C 0.33623 0.41119 0.01887
 C2155 C 0.32070 0.40364 0.01845
 C2156 C 0.31208 0.40231 0.00409
 C2157 C 0.31930 0.40892 -0.00977
 C2158 C 0.33479 0.41642 -0.00936
 C2159 C 0.36021 0.42517 0.00510
 N2160 N 0.36752 0.43007 -0.00867
 N2161 N 0.38248 0.43676 -0.00873
 C2162 C 0.39087 0.43891 0.00497
 N2163 N 0.38358 0.43404 0.01881
 N2164 N 0.36858 0.42729 0.01887
 C2165 C 0.40755 0.44653 0.00459
 C2166 C 0.41619 0.45022 0.01857
 C2167 C 0.43169 0.45795 0.01782
 C2168 C 0.43886 0.46213 0.00308
 C2169 C 0.43029 0.45808 -0.01082
 C2170 C 0.41493 0.45044 -0.01007
 H2171 H 0.34259 0.41182 0.03008
 H2172 H 0.31560 0.39851 0.02932
 H2173 H 0.31292 0.40838 -0.02098
 H2174 H 0.33994 0.42129 -0.02033
 H2175 H 0.41089 0.44734 0.03008
 H2176 H 0.43794 0.46086 0.02876
 H2177 H 0.43536 0.46096 -0.02242
 H2178 H 0.40878 0.44772 -0.02110
 C2179 C -0.15703 0.91618 0.50451
 C2180 C -0.16590 0.91555 0.49026
 C2181 C -0.18118 0.90763 0.48962
 C2182 C -0.18805 0.90008 0.50321
 C2183 C -0.17932 0.90089 0.51754
 C2184 C -0.16400 0.90884 0.51818
 C2185 C -0.14057 0.92425 0.50489
 N2186 N -0.13189 0.92539 0.51858
 N2187 N -0.11706 0.93251 0.51871
 C2188 C -0.11026 0.93877 0.50515
 N2189 N -0.11897 0.93762 0.49152
 N2190 N -0.13376 0.93053 0.49139
 C2191 C -0.09374 0.94675 0.50500
 C2192 C -0.08690 0.95236 0.49058
 C2193 C -0.07158 0.96011 0.49011
 C2194 C -0.06251 0.96256 0.50406
 C2195 C -0.06921 0.95682 0.51853
 C2196 C -0.08466 0.94898 0.51900
 H2197 H -0.16102 0.92114 0.47949
 H2198 H -0.18766 0.90748 0.47846
 H2199 H -0.18417 0.89505 0.52819
 H2200 H -0.15753 0.90906 0.52935
 H2201 H -0.09343 0.95083 0.47954
 H2202 H -0.06690 0.96428 0.47871
 H2203 H -0.06257 0.95847 0.52950
 H2204 H -0.08954 0.94479 0.53031
 C2205 C -0.16014 0.08138 0.99303
 C2206 C -0.16767 0.08377 1.00787
 C2207 C -0.18255 0.09217 1.00916
 C2208 C -0.19059 0.09844 0.99561
 C2209 C -0.18296 0.09584 0.98070
 C2210 C -0.16797 0.08753 0.97947
 C2211 C -0.14424 0.07251 0.99188
 N2212 N -0.13586 0.07145 0.97791
 N2213 N -0.12155 0.06353 0.97709
 C2214 C -0.11505 0.05630 0.99022
 N2215 N -0.12347 0.05737 1.00412
 N2216 N -0.13770 0.06529 1.00494
 C2217 C -0.09910 0.04744 0.98966
 C2218 C -0.09369 0.03892 1.00319
 C2219 C -0.07864 0.03087 1.00322
 C2220 C -0.06840 0.03107 0.98971
 C2221 C -0.07382 0.03940 0.97602
 C2222 C -0.08905 0.04751 0.97599
 H2223 H -0.16208 0.07910 1.01860
 H2224 H -0.18792 0.09308 1.02087
 H2225 H -0.18806 0.10078 0.96988
 H2226 H -0.16250 0.08599 0.96784
 H2227 H -0.10106 0.03848 1.01392
 H2228 H -0.07503 0.02454 1.01399
 H2229 H -0.06625 0.03984 0.96543
 H2230 H -0.09284 0.05397 0.96536
 C2231 C 0.34041 0.57958 0.49229
 C2232 C 0.33174 0.57983 0.50679
 C2233 C 0.31726 0.58885 0.50834
 C2234 C 0.31096 0.59780 0.49543
 C2235 C 0.31953 0.59748 0.48089
 C2236 C 0.33411 0.58852 0.47935
 C2237 C 0.35592 0.57009 0.49085
 N2238 N 0.36539 0.57099 0.47751
 N2239 N 0.37940 0.56260 0.47647
 C2240 C 0.38452 0.55292 0.48870
 N2241 N 0.37500 0.55200 0.50197
 N2242 N 0.36105 0.56039 0.50303
 C2243 C 0.40028 0.54374 0.48794
 C2244 C 0.40474 0.53336 0.50060
 C2245 C 0.41978 0.52527 0.50056
 C2246 C 0.43089 0.52726 0.48784
 C2247 C 0.42633 0.53728 0.47491
 C2248 C 0.41117 0.54547 0.47497
 H2249 H 0.33618 0.57309 0.51703
 H2250 H 0.31087 0.58868 0.51964
 H2251 H 0.31510 0.60440 0.47076
 H2252 H 0.34044 0.58863 0.46802
 H2253 H 0.39669 0.53158 0.51074
 H2254 H 0.42275 0.51755 0.51068
 H2255 H 0.43462 0.53912 0.46496
 H2256 H 0.40811 0.55335 0.46500
 C2257 C 0.15310 0.58201 0.50664
 C2258 C 0.15624 0.59558 0.51657
 C2259 C 0.17115 0.60427 0.51554
 C2260 C 0.18335 0.59953 0.50463
 C2261 C 0.18031 0.58583 0.49485
 C2262 C 0.16536 0.57722 0.49580
 C2263 C 0.13709 0.57304 0.50731
 N2264 N 0.13334 0.56151 0.49624
 N2265 N 0.11891 0.55366 0.49655
 C2266 C 0.10757 0.55694 0.50796
 N2267 N 0.11133 0.56841 0.51912
 N2268 N 0.12578 0.57631 0.51878
 C2269 C 0.09136 0.54835 0.50789
 C2270 C 0.08028 0.54954 0.52072
 C2271 C 0.06499 0.54141 0.52033
 C2272 C 0.06040 0.53210 0.50701
 C2273 C 0.07152 0.53094 0.49425
 C2274 C 0.08677 0.53887 0.49471
 H2275 H 0.14711 0.59961 0.52506
 H2276 H 0.17319 0.61464 0.52338
 H2277 H 0.18937 0.58196 0.48622
 H2278 H 0.16342 0.56683 0.48796
 H2279 H 0.08344 0.55672 0.53108
 H2280 H 0.05669 0.54259 0.53034
 H2281 H 0.06849 0.52379 0.48383
 H2282 H 0.09491 0.53766 0.48459
 C2283 C 0.65295 0.07739 0.00494
 C2284 C 0.66598 0.07222 -0.00483
 C2285 C 0.68052 0.08152 -0.00593
 C2286 C 0.68239 0.09629 0.00264
 C2287 C 0.66940 0.10142 0.01248
 C2288 C 0.65489 0.09208 0.01364
 C2289 C 0.63738 0.06764 0.00586
 N2290 N 0.62506 0.07203 0.01592
 N2291 N 0.61102 0.06344 0.01649
 C2292 C 0.60866 0.05008 0.00702
 N2293 N 0.62100 0.04567 -0.00298
 N2294 N 0.63503 0.05423 -0.00353
 C2295 C 0.59284 0.04074 0.00720
 C2296 C 0.58995 0.02822 -0.00397
 C2297 C 0.57489 0.01986 -0.00440
 C2298 C 0.56228 0.02368 0.00640
 C2299 C 0.56525 0.03592 0.01786
 C2300 C 0.58033 0.04440 0.01821
 H2301 H 0.66496 0.06098 -0.01170
 H2302 H 0.69020 0.07729 -0.01373
 H2303 H 0.67052 0.11260 0.01943
 H2304 H 0.64516 0.09644 0.02131
 H2305 H 0.59925 0.02501 -0.01263
 H2306 H 0.57310 0.01046 -0.01335
 H2307 H 0.55578 0.03923 0.02630
 H2308 H 0.58212 0.05394 0.02701
 C2309 C 0.65366 0.91832 0.49528
 C2310 C 0.65624 0.90405 0.48614
 C2311 C 0.67087 0.89516 0.48740
 C2312 C 0.68332 0.90035 0.49777
 C2313 C 0.68080 0.91468 0.50679
 C2314 C 0.66616 0.92353 0.50560
 C2315 C 0.63800 0.92763 0.49433
 N2316 N 0.63507 0.94039 0.50433
 N2317 N 0.62097 0.94858 0.50381
 C2318 C 0.60915 0.94444 0.49325
 N2319 N 0.61209 0.93174 0.48314
 N2320 N 0.62621 0.92350 0.48368
 C2321 C 0.59327 0.95343 0.49320
 C2322 C 0.58146 0.95086 0.48132
 C2323 C 0.56642 0.95927 0.48176
 C2324 C 0.56286 0.97025 0.49418
 C2325 C 0.57477 0.97285 0.50591
 C2326 C 0.58973 0.96464 0.50540
 H2327 H 0.64691 0.89968 0.47807
 H2328 H 0.67250 0.88429 0.48012
 H2329 H 0.69005 0.91892 0.51501
 H2330 H 0.66464 0.93444 0.51284
 H2331 H 0.58380 0.94233 0.47173
 H2332 H 0.55749 0.95696 0.47256
 H2333 H 0.57255 0.98131 0.51560
 H2334 H 0.59846 0.96698 0.51475
 C2335 C 0.15203 0.41917 0.99905
 C2336 C 0.15447 0.40386 0.99159
 C2337 C 0.16944 0.39564 0.99296
 C2338 C 0.18240 0.40262 1.00165
 C2339 C 0.18010 0.41808 1.00883
 C2340 C 0.16505 0.42622 1.00764
 C2341 C 0.13588 0.42754 0.99829
 N2342 N 0.13216 0.43979 1.00862
 N2343 N 0.11752 0.44698 1.00837
 C2344 C 0.10596 0.44231 0.99774
 N2345 N 0.10970 0.43015 0.98728
 N2346 N 0.12434 0.42288 0.98759
 C2347 C 0.08953 0.45013 0.99794
 C2348 C 0.07888 0.44911 0.98489
 C2349 C 0.06351 0.45686 0.98530
 C2350 C 0.05841 0.46550 0.99887
 C2351 C 0.06902 0.46626 1.01194
 C2352 C 0.08436 0.45879 1.01144
 H2353 H 0.14471 0.39808 0.98490
 H2354 H 0.17094 0.38382 0.98714
 H2355 H 0.18984 0.42372 1.01566
 H2356 H 0.16361 0.43802 1.01349
 H2357 H 0.08252 0.44254 0.97430
 H2358 H 0.05562 0.45604 0.97505
 H2359 H 0.06559 0.47289 1.02256
 H2360 H 0.09217 0.45975 1.02174
 C2361 C -0.02165 0.33886 0.43117
 C2362 C -0.01466 0.32500 0.43863
 C2363 C -0.01292 0.31016 0.43046
 C2364 C -0.01816 0.30887 0.41469
 C2365 C -0.02609 0.32236 0.40757
 C2366 C -0.02783 0.33723 0.41574
 C2367 C -0.02111 0.35521 0.43890
 N2368 N -0.02734 0.36882 0.43161
 N2369 N -0.02547 0.38379 0.43792
 C2370 C -0.01722 0.38576 0.45172
 N2371 N -0.01122 0.37213 0.45912
 N2372 N -0.01311 0.35717 0.45283
 C2373 C -0.01433 0.40241 0.45833
 C2374 C -0.00394 0.40444 0.47140
 C2375 C -0.00107 0.42012 0.47765
 C2376 C -0.00859 0.43413 0.47103
 C2377 C -0.01886 0.43214 0.45785
 C2378 C -0.02167 0.41644 0.45153
 H2379 H -0.00995 0.32577 0.45058
 H2380 H -0.00703 0.29982 0.43630
 H2381 H -0.03017 0.32172 0.39539
 H2382 H -0.03336 0.34764 0.40969
 H2383 H 0.00200 0.39391 0.47686
 H2384 H 0.00686 0.42119 0.48785
 H2385 H -0.02484 0.44269 0.45246
 H2386 H -0.02969 0.41529 0.44141
 C2387 C 0.48440 -0.16628 -0.06741
 C2388 C 0.49482 -0.17930 -0.06304
 C2389 C 0.49727 -0.19263 -0.07322
 C2390 C 0.48942 -0.19317 -0.08799
 C2391 C 0.47863 -0.18040 -0.09214
 C2392 C 0.47610 -0.16714 -0.08194
 C2393 C 0.48303 -0.15136 -0.05746
 N2394 N 0.47252 -0.13909 -0.06145
 N2395 N 0.47232 -0.12497 -0.05343
 C2396 C 0.48263 -0.12250 -0.04109
 N2397 N 0.49293 -0.13490 -0.03687
 N2398 N 0.49311 -0.14905 -0.04489
 C2399 C 0.48357 -0.10614 -0.03337
 C2400 C 0.49511 -0.10302 -0.02142
 C2401 C 0.49710 -0.08705 -0.01539
 C2402 C 0.48764 -0.07392 -0.02125
 C2403 C 0.47569 -0.07720 -0.03276
 C2404 C 0.47365 -0.09312 -0.03872
 H2405 H 0.50130 -0.17908 -0.05188
 H2406 H 0.50541 -0.20247 -0.06958
 H2407 H 0.47254 -0.18037 -0.10351
 H2408 H 0.46803 -0.15729 -0.08570
 H2409 H 0.50291 -0.11280 -0.01701
 H2410 H 0.50635 -0.08492 -0.00646
 H2411 H 0.46802 -0.06741 -0.03737
 H2412 H 0.46457 -0.09510 -0.04784
 C2413 C 0.01435 -0.15807 1.06936
 C2414 C 0.00403 -0.17146 1.06553
 C2415 C 0.00364 -0.18567 1.07504
 C2416 C 0.01354 -0.18675 1.08856
 C2417 C 0.02426 -0.17362 1.09209
 C2418 C 0.02469 -0.15943 1.08257
 C2419 C 0.01368 -0.14243 1.06020
 N2420 N 0.02319 -0.12928 1.06428
 N2421 N 0.02184 -0.11484 1.05674
 C2422 C 0.01089 -0.11292 1.04483
 N2423 N 0.00151 -0.12612 1.04060
 N2424 N 0.00287 -0.14058 1.04815
 C2425 C 0.00878 -0.09661 1.03709
 C2426 C -0.00279 -0.09449 1.02498
 C2427 C -0.00519 -0.07891 1.01813
 C2428 C 0.00391 -0.06513 1.02329
 C2429 C 0.01557 -0.06730 1.03531
 C2430 C 0.01799 -0.08286 1.04211
 H2431 H -0.00407 -0.17082 1.05543
 H2432 H -0.00484 -0.19557 1.07214
 H2433 H 0.03220 -0.17426 1.10232
 H2434 H 0.03286 -0.14938 1.08580
 H2435 H -0.01009 -0.10484 1.02084
 H2436 H -0.01424 -0.07766 1.00887
 H2437 H 0.02288 -0.05698 1.03950
 H2438 H 0.02700 -0.08406 1.05141
 C2439 C 0.51833 0.34191 0.57000
 C2440 C 0.50905 0.32806 0.56530
 C2441 C 0.50810 0.31398 0.57494
 C2442 C 0.51640 0.31346 0.58946
 C2443 C 0.52618 0.32703 0.59388
 C2444 C 0.52716 0.34111 0.58424
 C2445 C 0.51788 0.35744 0.56066
 N2446 N 0.52606 0.37115 0.56561
 N2447 N 0.52462 0.38549 0.55789
 C2448 C 0.51491 0.38672 0.54492
 N2449 N 0.50693 0.37295 0.53983
 N2450 N 0.50838 0.35860 0.54754
 C2451 C 0.51243 0.40287 0.53701
 C2452 C 0.50158 0.40428 0.52420
 C2453 C 0.49862 0.41967 0.51722
 C2454 C 0.50646 0.43399 0.52289
 C2455 C 0.51747 0.43255 0.53558
 C2456 C 0.52042 0.41716 0.54256
 H2457 H 0.50212 0.32825 0.55439
 H2458 H 0.50034 0.30376 0.57131
 H2459 H 0.53291 0.32682 0.60492
 H2460 H 0.53451 0.35152 0.58815
 H2461 H 0.49521 0.39351 0.51964
 H2462 H 0.49013 0.42034 0.50742
 H2463 H 0.52380 0.44331 0.54019
 H2464 H 0.52886 0.41651 0.55239
 C2465 C 0.49821 1.16121 0.57891
 C2466 C 0.50755 1.17487 0.57356
 C2467 C 0.50811 1.18941 0.58240
 C2468 C 0.49938 1.19058 0.59676
 C2469 C 0.49000 1.17696 0.60207
 C2470 C 0.48940 1.16244 0.59323
 C2471 C 0.49780 1.14568 0.56975
 N2472 N 0.48814 1.13281 0.57453
 N2473 N 0.48799 1.11868 0.56652
 C2474 C 0.49749 1.11681 0.55339
 N2475 N 0.50711 1.12971 0.54854
 N2476 N 0.50725 1.14387 0.55656
 C2477 C 0.49760 1.10090 0.54484
 C2478 C 0.50813 1.09847 0.53180
 C2479 C 0.50856 1.08317 0.52416
 C2480 C 0.49846 1.07002 0.52942
 C2481 C 0.48778 1.07258 0.54231
 C2482 C 0.48736 1.08782 0.54992
 H2483 H 0.51442 1.17436 0.56255
 H2484 H 0.51525 1.19982 0.57790
 H2485 H 0.48331 1.17744 0.61320
 H2486 H 0.48214 1.15212 0.59773
 H2487 H 0.51617 1.10831 0.52759
 H2488 H 0.51690 1.08161 0.51424
 H2489 H 0.47977 1.06276 0.54665
 H2490 H 0.47906 1.08927 0.55988
 C2491 C -0.00146 0.65527 1.08802
 C2492 C -0.01560 0.66509 1.08858
 C2493 C -0.01510 0.68075 1.09551
 C2494 C -0.00048 0.68681 1.10212
 C2495 C 0.01355 0.67680 1.10185
 C2496 C 0.01309 0.66125 1.09480
 C2497 C -0.00168 0.63906 1.08007
 N2498 N 0.01257 0.63165 1.07588
 N2499 N 0.01246 0.61724 1.06833
 C2500 C -0.00191 0.60962 1.06473
 N2501 N -0.01619 0.61696 1.06902
 N2502 N -0.01608 0.63143 1.07651
 C2503 C -0.00197 0.59386 1.05600
 C2504 C -0.01615 0.58388 1.05559
 C2505 C -0.01619 0.56908 1.04711
 C2506 C -0.00213 0.56413 1.03873
 C2507 C 0.01203 0.57411 1.03916
 C2508 C 0.01214 0.58877 1.04779
 H2509 H -0.02696 0.66084 1.08336
 H2510 H -0.02606 0.68824 1.09539
 H2511 H 0.02489 0.68095 1.10718
 H2512 H 0.02414 0.65390 1.09471
 H2513 H -0.02718 0.58746 1.06185
 H2514 H -0.02730 0.56165 1.04695
 H2515 H 0.02308 0.57056 1.03288
 H2516 H 0.02323 0.59624 1.04784
 C2517 C 0.51241 0.65546 -0.08224
 C2518 C 0.52258 0.65780 -0.09561
 C2519 C 0.52309 0.67308 -0.10347
 C2520 C 0.51349 0.68629 -0.09808
 C2521 C 0.50360 0.68405 -0.08453
 C2522 C 0.50307 0.66881 -0.07669
 C2523 C 0.51112 0.63910 -0.07438
 N2524 N 0.50078 0.63675 -0.06187
 N2525 N 0.49925 0.62195 -0.05498
 C2526 C 0.50799 0.60885 -0.06033
 N2527 N 0.51838 0.61119 -0.07281
 N2528 N 0.51990 0.62602 -0.07971
 C2529 C 0.50625 0.59244 -0.05264
 C2530 C 0.51567 0.57898 -0.05781
 C2531 C 0.51426 0.56359 -0.05028
 C2532 C 0.50339 0.56133 -0.03742
 C2533 C 0.49379 0.57473 -0.03242
 C2534 C 0.49522 0.59011 -0.03994
 H2535 H 0.52999 0.64779 -0.10014
 H2536 H 0.53095 0.67455 -0.11380
 H2537 H 0.49588 0.69394 -0.08025
 H2538 H 0.49511 0.66744 -0.06643
 H2539 H 0.52425 0.58035 -0.06760
 H2540 H 0.52181 0.55352 -0.05446
 H2541 H 0.48529 0.57342 -0.02256
 H2542 H 0.48773 0.60020 -0.03570
 C2543 C 0.01656 1.15827 0.42771
 C2544 C 0.02666 1.16110 0.41443
 C2545 C 0.02650 1.17636 0.40653
 C2546 C 0.01614 1.18926 0.41166
 C2547 C 0.00663 1.18648 0.42551
 C2548 C 0.00685 1.17125 0.43336
 C2549 C 0.01540 1.14168 0.43516
 N2550 N 0.00500 1.13892 0.44754
 N2551 N 0.00318 1.12382 0.45373
 C2552 C 0.01165 1.11083 0.44778
 N2553 N 0.02218 1.11360 0.43548
 N2554 N 0.02399 1.12872 0.42927
 C2555 C 0.00925 1.09403 0.45449
 C2556 C 0.01841 1.08061 0.44882
 C2557 C 0.01622 1.06481 0.45537
 C2558 C 0.00481 1.06211 0.46771
 C2559 C -0.00452 1.07549 0.47318
 C2560 C -0.00232 1.09126 0.46666
 H2561 H 0.03453 1.15143 0.40993
 H2562 H 0.03472 1.17794 0.39652
 H2563 H -0.00194 1.19553 0.42989
 H2564 H -0.00110 1.16950 0.44359
 H2565 H 0.02738 1.08231 0.43941
 H2566 H 0.02361 1.05476 0.45086
 H2567 H -0.01342 1.07387 0.48267
 H2568 H -0.00965 1.10130 0.47125
 C2569 C 0.73805 0.69644 0.90766
 C2570 C 0.74391 0.70526 0.92082
 C2571 C 0.74602 0.69726 0.93549
 C2572 C 0.74230 0.68029 0.93724
 C2573 C 0.73680 0.67147 0.92397
 C2574 C 0.73465 0.67942 0.90943
 C2575 C 0.73556 0.70460 0.89203
 N2576 N 0.72862 0.69599 0.88002
 N2577 N 0.72686 0.70283 0.86575
 C2578 C 0.73190 0.71862 0.86281
 N2579 N 0.73865 0.72738 0.87488
 N2580 N 0.74042 0.72052 0.88922
 C2581 C 0.73114 0.72544 0.84643
 C2582 C 0.73590 0.74187 0.84287
 C2583 C 0.73688 0.74738 0.82705
 C2584 C 0.73336 0.73645 0.81462
 C2585 C 0.72783 0.72036 0.81824
 C2586 C 0.72660 0.71497 0.83392
 H2587 H 0.74670 0.71837 0.91985
 H2588 H 0.75020 0.70440 0.94552
 H2589 H 0.73419 0.65831 0.92480
 H2590 H 0.73034 0.67213 0.89954
 H2591 H 0.73937 0.75028 0.85223
 H2592 H 0.74127 0.75983 0.82451
 H2593 H 0.72494 0.71174 0.80885
 H2594 H 0.72275 0.70229 0.83614
 C2595 C 0.25010 0.20066 0.41433
 C2596 C 0.23765 0.20281 0.42574
 C2597 C 0.23773 0.19365 0.43991
 C2598 C 0.25013 0.18204 0.44285
 C2599 C 0.26263 0.18002 0.43153
 C2600 C 0.26266 0.18926 0.41749
 C2601 C 0.24994 0.20975 0.39899
 N2602 N 0.26315 0.20911 0.38917
 N2603 N 0.26289 0.21634 0.37497
 C2604 C 0.24942 0.22455 0.36989
 N2605 N 0.23623 0.22545 0.37979
 N2606 N 0.23650 0.21821 0.39408
 C2607 C 0.24898 0.23123 0.35344
 C2608 C 0.23529 0.23977 0.34748
 C2609 C 0.23469 0.24454 0.33142
 C2610 C 0.24767 0.24058 0.32113
 C2611 C 0.26152 0.23265 0.32726
 C2612 C 0.26222 0.22814 0.34317
 H2613 H 0.22782 0.21148 0.42368
 H2614 H 0.22789 0.19536 0.44842
 H2615 H 0.27243 0.17130 0.43357
 H2616 H 0.27244 0.18724 0.40899
 H2617 H 0.22491 0.24242 0.35511
 H2618 H 0.22389 0.25067 0.32693
 H2619 H 0.27181 0.22965 0.31963
 H2620 H 0.27304 0.22174 0.34727
 C2621 C 0.74414 0.29692 0.41177
 C2622 C 0.73199 0.30892 0.41429
 C2623 C 0.73182 0.31834 0.42812
 C2624 C 0.74367 0.31590 0.43988
 C2625 C 0.75561 0.30364 0.43761
 C2626 C 0.75592 0.29432 0.42363
 C2627 C 0.74460 0.28763 0.39661
 N2628 N 0.75802 0.27886 0.39213
 N2629 N 0.75859 0.27140 0.37804
 C2630 C 0.74572 0.27235 0.36790
 N2631 N 0.73227 0.28092 0.37254
 N2632 N 0.73172 0.28838 0.38654
 C2633 C 0.74653 0.26530 0.35166
 C2634 C 0.73305 0.26710 0.34151
 C2635 C 0.73413 0.26251 0.32565
 C2636 C 0.74864 0.25580 0.31946
 C2637 C 0.76185 0.25297 0.32972
 C2638 C 0.76083 0.25776 0.34571
 H2639 H 0.72273 0.31129 0.40544
 H2640 H 0.72238 0.32759 0.42962
 H2641 H 0.76494 0.30158 0.44647
 H2642 H 0.76542 0.28516 0.42208
 H2643 H 0.72176 0.27263 0.34563
 H2644 H 0.72366 0.26463 0.31807
 H2645 H 0.77319 0.24784 0.32523
 H2646 H 0.77141 0.25610 0.35323
 C2647 C 0.25001 0.80544 0.90816
 C2648 C 0.25819 0.79969 0.92171
 C2649 C 0.25574 0.80735 0.93642
 C2650 C 0.24493 0.82081 0.93788
 C2651 C 0.23618 0.82594 0.92443
 C2652 C 0.23877 0.81844 0.90977
 C2653 C 0.25366 0.79870 0.89220
 N2654 N 0.25035 0.80792 0.87912
 N2655 N 0.25384 0.80232 0.86470
 C2656 C 0.26074 0.78723 0.86266
 N2657 N 0.26399 0.77788 0.87574
 N2658 N 0.26061 0.78356 0.89024
 C2659 C 0.26422 0.78131 0.84637
 C2660 C 0.26520 0.76433 0.84275
 C2661 C 0.26624 0.75914 0.82687
 C2662 C 0.26638 0.77089 0.81446
 C2663 C 0.26659 0.78782 0.81829
 C2664 C 0.26548 0.79294 0.83397
 H2665 H 0.26694 0.78971 0.92085
 H2666 H 0.26279 0.80315 0.94648
 H2667 H 0.22744 0.83594 0.92517
 H2668 H 0.23206 0.82300 0.89961
 H2669 H 0.26433 0.75508 0.85209
 H2670 H 0.26605 0.74602 0.82430
 H2671 H 0.26697 0.79722 0.80906
 H2672 H 0.26512 0.80610 0.83634
 C2673 C 0.24396 0.80083 0.08948
 C2674 C 0.22906 0.80589 0.08286
 C2675 C 0.22880 0.81484 0.06859
 C2676 C 0.24348 0.81897 0.06034
 C2677 C 0.25834 0.81328 0.06685
 C2678 C 0.25857 0.80448 0.08120
 C2679 C 0.24441 0.79252 0.10526
 N2680 N 0.25882 0.79098 0.11307
 N2681 N 0.25925 0.78449 0.12761
 C2682 C 0.24530 0.77916 0.13500
 N2683 N 0.23088 0.78042 0.12712
 N2684 N 0.23044 0.78701 0.11256
 C2685 C 0.24588 0.77319 0.15169
 C2686 C 0.23298 0.76386 0.15859
 C2687 C 0.23363 0.75897 0.17462
 C2688 C 0.24700 0.76370 0.18403
 C2689 C 0.25990 0.77283 0.17702
 C2690 C 0.25942 0.77738 0.16108
 H2691 H 0.21755 0.80317 0.08884
 H2692 H 0.21692 0.81809 0.06394
 H2693 H 0.27005 0.81632 0.06146
 H2694 H 0.27030 0.80078 0.08595
 H2695 H 0.22240 0.76040 0.15163
 H2696 H 0.22353 0.75193 0.17975
 H2697 H 0.27047 0.77652 0.18392
 H2698 H 0.26955 0.78459 0.15622
 C2699 C 0.73601 0.31039 0.59307
 C2700 C 0.72920 0.32608 0.59046
 C2701 C 0.73076 0.33402 0.57578
 C2702 C 0.73922 0.32659 0.56301
 C2703 C 0.74621 0.31085 0.56578
 C2704 C 0.74454 0.30285 0.58055
 C2705 C 0.73445 0.30233 0.60893
 N2706 N 0.73976 0.28663 0.61160
 N2707 N 0.73870 0.27979 0.62605
 C2708 C 0.73229 0.28839 0.63841
 N2709 N 0.72687 0.30401 0.63566
 N2710 N 0.72788 0.31079 0.62127
 C2711 C 0.73213 0.28151 0.65481
 C2712 C 0.72979 0.29220 0.66770
 C2713 C 0.73115 0.28639 0.68323
 C2714 C 0.73460 0.26968 0.68635
 C2715 C 0.73610 0.25870 0.67357
 C2716 C 0.73504 0.26461 0.65789
 H2717 H 0.72270 0.33240 0.59986
 H2718 H 0.72578 0.34636 0.57486
 H2719 H 0.75249 0.30426 0.55646
 H2720 H 0.74995 0.29075 0.58213
 H2721 H 0.72750 0.30527 0.66583
 H2722 H 0.72986 0.29510 0.69288
 H2723 H 0.73887 0.24577 0.67568
 H2724 H 0.73679 0.25604 0.64822
 C2725 C 0.24753 0.19826 0.59345
 C2726 C 0.24106 0.18211 0.59246
 C2727 C 0.24072 0.17380 0.57803
 C2728 C 0.24662 0.18147 0.56409
 C2729 C 0.25307 0.19768 0.56504
 C2730 C 0.25361 0.20596 0.57960
 C2731 C 0.24773 0.20678 0.60896
 N2732 N 0.25767 0.22006 0.61171
 N2733 N 0.25801 0.22715 0.62598
 C2734 C 0.24831 0.22130 0.63799
 N2735 N 0.23833 0.20814 0.63510
 N2736 N 0.23806 0.20104 0.62095
 C2737 C 0.24876 0.22843 0.65416
 C2738 C 0.23685 0.22330 0.66528
 C2739 C 0.23780 0.22824 0.68098
 C2740 C 0.25063 0.23853 0.68612
 C2741 C 0.26212 0.24452 0.67494
 C2742 C 0.26122 0.23944 0.65903
 H2743 H 0.23646 0.17572 0.60293
 H2744 H 0.23608 0.16120 0.57791
 H2745 H 0.25756 0.20405 0.55452
 H2746 H 0.25858 0.21843 0.57997
 H2747 H 0.22690 0.21509 0.66198
 H2748 H 0.22854 0.22370 0.68923
 H2749 H 0.27209 0.25253 0.67861
 H2750 H 0.27054 0.24367 0.65070
 C2751 C 0.75204 0.69607 0.09182
 C2752 C 0.75977 0.70283 0.07832
 C2753 C 0.75799 0.69527 0.06349
 C2754 C 0.74840 0.68068 0.06176
 C2755 C 0.73999 0.67465 0.07535
 C2756 C 0.74187 0.68213 0.09007
 C2757 C 0.75500 0.70279 0.10788
 N2758 N 0.75174 0.69318 0.12078
 N2759 N 0.75454 0.69874 0.13531
 C2760 C 0.76069 0.71420 0.13765
 N2761 N 0.76391 0.72394 0.12475
 N2762 N 0.76120 0.71830 0.11013
 C2763 C 0.76339 0.72003 0.15406
 C2764 C 0.76425 0.73699 0.15783
 C2765 C 0.76474 0.74204 0.17375
 C2766 C 0.76438 0.73018 0.18606
 C2767 C 0.76457 0.71329 0.18213
 C2768 C 0.76406 0.70831 0.16640
 H2769 H 0.76771 0.71358 0.07931
 H2770 H 0.76501 0.70045 0.05371
 H2771 H 0.73159 0.66425 0.07478
 H2772 H 0.73535 0.67686 0.10016
 H2773 H 0.76381 0.74631 0.14855
 H2774 H 0.76461 0.75514 0.17644
 H2775 H 0.76462 0.70381 0.19128
 H2776 H 0.76376 0.69515 0.16394
 C2777 C 0.16948 0.59375 0.24474
 C2778 C 0.15486 0.59191 0.23616
 C2779 C 0.14542 0.57739 0.23755
 C2780 C 0.15038 0.56432 0.24750
 C2781 C 0.16507 0.56609 0.25596
 C2782 C 0.17448 0.58062 0.25462
 C2783 C 0.17937 0.60931 0.24361
 N2784 N 0.19280 0.61145 0.25283
 N2785 N 0.20151 0.62547 0.25214
 C2786 C 0.19724 0.63799 0.24218
 N2787 N 0.18385 0.63584 0.23286
 N2788 N 0.17511 0.62180 0.23357
 C2789 C 0.20678 0.65380 0.24192
 C2790 C 0.20340 0.66653 0.23093
 C2791 C 0.21215 0.68159 0.23127
 C2792 C 0.22436 0.68426 0.24270
 C2793 C 0.22787 0.67140 0.25348
 C2794 C 0.21927 0.65640 0.25305
 H2795 H 0.15063 0.60171 0.22841
 H2796 H 0.13429 0.57633 0.23068
 H2797 H 0.16917 0.55635 0.26385
 H2798 H 0.18565 0.58157 0.26143
 H2799 H 0.19389 0.66494 0.22216
 H2800 H 0.20911 0.69126 0.22285
 H2801 H 0.23726 0.67295 0.26238
 H2802 H 0.22228 0.64693 0.26169
 C2803 C 0.66334 0.09722 0.74606
 C2804 C 0.64888 0.09566 0.75507
 C2805 C 0.64063 0.08046 0.75630
 C2806 C 0.64673 0.06614 0.74879
 C2807 C 0.66142 0.06782 0.73988
 C2808 C 0.66947 0.08316 0.73840
 C2809 C 0.67212 0.11337 0.74505
 N2810 N 0.68284 0.11681 0.73302
 N2811 N 0.69084 0.13129 0.73237
 C2812 C 0.68854 0.14286 0.74380
 N2813 N 0.67780 0.13941 0.75578
 N2814 N 0.66972 0.12503 0.75636
 C2815 C 0.69794 0.15867 0.74370
 C2816 C 0.70065 0.16698 0.75802
 C2817 C 0.70980 0.18164 0.75830
 C2818 C 0.71625 0.18858 0.74423
 C2819 C 0.71328 0.18051 0.72980
 C2820 C 0.70437 0.16554 0.72957
 H2821 H 0.64386 0.10625 0.76119
 H2822 H 0.62980 0.07994 0.76377
 H2823 H 0.66649 0.05749 0.73343
 H2824 H 0.68062 0.08396 0.73137
 H2825 H 0.69593 0.16200 0.76912
 H2826 H 0.71174 0.18764 0.76960
 H2827 H 0.71810 0.18559 0.71879
 H2828 H 0.70240 0.15943 0.71834
 C2829 C 0.83653 0.09405 0.25675
 C2830 C 0.83783 0.08581 0.24215
 C2831 C 0.84572 0.07056 0.24108
 C2832 C 0.85261 0.06311 0.25457
 C2833 C 0.85105 0.07116 0.26925
 C2834 C 0.84308 0.08645 0.27034
 C2835 C 0.82866 0.11059 0.25752
 N2836 N 0.82572 0.11822 0.27159
 N2837 N 0.81874 0.13313 0.27202
 C2838 C 0.81450 0.14107 0.25839
 N2839 N 0.81748 0.13341 0.24438
 N2840 N 0.82438 0.11854 0.24395
 C2841 C 0.80661 0.15762 0.25850
 C2842 C 0.80406 0.16599 0.24409
 C2843 C 0.79592 0.18108 0.24369
 C2844 C 0.78998 0.18836 0.25769
 C2845 C 0.79294 0.18031 0.27225
 C2846 C 0.80118 0.16507 0.27265
 H2847 H 0.83279 0.09117 0.23145
 H2848 H 0.84640 0.06457 0.22965
 H2849 H 0.85636 0.06585 0.27985
 H2850 H 0.84232 0.09245 0.28176
 H2851 H 0.80819 0.16080 0.23296
 H2852 H 0.79407 0.18693 0.23225
 H2853 H 0.78855 0.18557 0.28325
 H2854 H 0.80300 0.15897 0.28397
 C2855 C 0.33290 0.59659 0.75567
 C2856 C 0.34808 0.59453 0.76321
 C2857 C 0.35692 0.57984 0.76145
 C2858 C 0.35076 0.56681 0.75215
 C2859 C 0.33553 0.56883 0.74470
 C2860 C 0.32673 0.58353 0.74642
 C2861 C 0.32362 0.61232 0.75718
 N2862 N 0.30951 0.61457 0.74900
 N2863 N 0.30134 0.62875 0.74995
 C2864 C 0.30686 0.64135 0.75915
 N2865 N 0.32092 0.63909 0.76744
 N2866 N 0.32912 0.62487 0.76647
 C2867 C 0.29799 0.65738 0.75952
 C2868 C 0.30273 0.67028 0.76974
 C2869 C 0.29471 0.68562 0.76930
 C2870 C 0.28193 0.68839 0.75852
 C2871 C 0.27699 0.67536 0.74861
 C2872 C 0.28484 0.66008 0.74915
 H2873 H 0.35321 0.60430 0.77043
 H2874 H 0.36851 0.57860 0.76751
 H2875 H 0.33053 0.55914 0.73731
 H2876 H 0.31510 0.58465 0.74040
 H2877 H 0.31277 0.66861 0.77792
 H2878 H 0.29884 0.69544 0.77704
 H2879 H 0.26710 0.67702 0.74025
 H2880 H 0.28078 0.65048 0.74114
 C2881 C 0.32998 0.40828 0.74330
 C2882 C 0.33180 0.41690 0.75759
 C2883 C 0.34086 0.43167 0.75819
 C2884 C 0.34844 0.43847 0.74445
 C2885 C 0.34639 0.42972 0.73009
 C2886 C 0.33736 0.41489 0.72956
 C2887 C 0.32048 0.39246 0.74288
 N2888 N 0.32005 0.38296 0.72962
 N2889 N 0.31168 0.36867 0.72948
 C2890 C 0.30334 0.36332 0.74258
 N2891 N 0.30376 0.37287 0.75578
 N2892 N 0.31213 0.38709 0.75594
 C2893 C 0.29417 0.34730 0.74279
 C2894 C 0.28498 0.34272 0.75629
 C2895 C 0.27684 0.32749 0.75708
 C2896 C 0.27760 0.31627 0.74440
 C2897 C 0.28649 0.32091 0.73070
 C2898 C 0.29471 0.33628 0.72990
 H2899 H 0.32642 0.41212 0.76849
 H2900 H 0.34234 0.43720 0.76973
 H2901 H 0.35121 0.43443 0.71897
 H2902 H 0.33606 0.40869 0.71828
 H2903 H 0.28415 0.35086 0.76641
 H2904 H 0.27004 0.32447 0.76781
 H2905 H 0.28737 0.31256 0.72073
 H2906 H 0.30167 0.33941 0.71931
 C2907 C 0.83711 0.90244 0.24370
 C2908 C 0.85004 0.90460 0.25446
 C2909 C 0.85827 0.91979 0.25553
 C2910 C 0.85368 0.93329 0.24600
 C2911 C 0.84067 0.93124 0.23531
 C2912 C 0.83254 0.91592 0.23408
 C2913 C 0.82833 0.88626 0.24290
 N2914 N 0.81854 0.88234 0.23045
 N2915 N 0.81060 0.86781 0.23002
 C2916 C 0.81206 0.85667 0.24209
 N2917 N 0.82189 0.86060 0.25446
 N2918 N 0.82988 0.87503 0.25484
 C2919 C 0.80279 0.84076 0.24225
 C2920 C 0.80008 0.83249 0.25674
 C2921 C 0.79130 0.81763 0.25735
 C2922 C 0.78511 0.81041 0.24347
 C2923 C 0.78797 0.81849 0.22886
 C2924 C 0.79659 0.83365 0.22828
 H2925 H 0.85391 0.89450 0.26204
 H2926 H 0.86816 0.92104 0.26396
 H2927 H 0.83696 0.94141 0.22773
 H2928 H 0.82259 0.91470 0.22572
 H2929 H 0.80460 0.83760 0.26773
 H2930 H 0.78949 0.81170 0.26880
 H2931 H 0.78338 0.81321 0.21797
 H2932 H 0.79855 0.83971 0.21693
 C2933 C 0.67068 0.90823 0.75370
 C2934 C 0.66673 0.91543 0.73902
 C2935 C 0.65762 0.93002 0.73823
 C2936 C 0.65223 0.93807 0.75215
 C2937 C 0.65649 0.93084 0.76687
 C2938 C 0.66545 0.91612 0.76761
 C2939 C 0.68016 0.89258 0.75440
 N2940 N 0.68178 0.88398 0.76822
 N2941 N 0.69014 0.86983 0.76868
 C2942 C 0.69729 0.86373 0.75535
 N2943 N 0.69569 0.87238 0.74158
 N2944 N 0.68730 0.88646 0.74110
 C2945 C 0.70648 0.84790 0.75563
 C2946 C 0.71560 0.84308 0.74227
 C2947 C 0.72383 0.82798 0.74209
 C2948 C 0.72314 0.81718 0.75525
 C2949 C 0.71423 0.82208 0.76876
 C2950 C 0.70602 0.83730 0.76896
 H2951 H 0.67064 0.90976 0.72804
 H2952 H 0.65542 0.93517 0.72658
 H2953 H 0.65235 0.93601 0.77797
 H2954 H 0.66825 0.91090 0.77913
 H2955 H 0.71634 0.85093 0.73182
 H2956 H 0.73057 0.82471 0.73147
 H2957 H 0.71339 0.81407 0.77909
 H2958 H 0.69910 0.84062 0.77945
 C2959 C 0.16670 0.40684 0.25804
 C2960 C 0.16722 0.41651 0.24408
 C2961 C 0.15831 0.43120 0.24292
 C2962 C 0.14866 0.43668 0.25568
 C2963 C 0.14819 0.42709 0.26969
 C2964 C 0.15707 0.41233 0.27084
 C2965 C 0.17613 0.39114 0.25907
 N2966 N 0.17513 0.38108 0.27207
 N2967 N 0.18353 0.36695 0.27275
 C2968 C 0.19332 0.36230 0.26047
 N2969 N 0.19432 0.37240 0.24754
 N2970 N 0.18594 0.38647 0.24685
 C2971 C 0.20259 0.34648 0.26083
 C2972 C 0.21270 0.34233 0.24793
 C2973 C 0.22110 0.32736 0.24768
 C2974 C 0.21973 0.31599 0.26035
 C2975 C 0.20989 0.32018 0.27347
 C2976 C 0.20137 0.33528 0.27370
 H2977 H 0.17452 0.41274 0.23398
 H2978 H 0.15913 0.43839 0.23205
 H2979 H 0.14074 0.43086 0.27968
 H2980 H 0.15636 0.40521 0.28176
 H2981 H 0.21406 0.35059 0.23783
 H2982 H 0.22864 0.32469 0.23740
 H2983 H 0.20852 0.31169 0.28341
 H2984 H 0.19371 0.33808 0.28385
 C2985 C 0.09283 0.22621 0.82932
 C2986 C 0.07829 0.22397 0.82071
 C2987 C 0.06306 0.22579 0.82813
 C2988 C 0.06216 0.23008 0.84420
 C2989 C 0.07663 0.23154 0.85299
 C2990 C 0.09185 0.22950 0.84564
 C2991 C 0.10886 0.22659 0.82111
 N2992 N 0.12300 0.22612 0.82948
 N2993 N 0.13744 0.22799 0.82222
 C2994 C 0.13830 0.23055 0.80631
 N2995 N 0.12417 0.23081 0.79790
 N2996 N 0.10973 0.22885 0.80515
 C2997 C 0.15425 0.23368 0.79844
 C2998 C 0.15497 0.24059 0.78311
 C2999 C 0.17008 0.24410 0.77591
 C3000 C 0.18475 0.24058 0.78384
 C3001 C 0.18401 0.23359 0.79914
 C3002 C 0.16892 0.23025 0.80639
 H3003 H 0.07867 0.22132 0.80815
 H3004 H 0.05202 0.22467 0.82113
 H3005 H 0.07617 0.23471 0.86544
 H3006 H 0.10282 0.23127 0.85260
 H3007 H 0.14386 0.24348 0.77672
 H3008 H 0.17026 0.24939 0.76407
 H3009 H 0.19511 0.23075 0.80558
 H3010 H 0.16876 0.22492 0.81821
 C3011 C 0.59421 0.73987 0.32335
 C3012 C 0.57957 0.74144 0.31479
 C3013 C 0.56468 0.74358 0.32275
 C3014 C 0.56424 0.74436 0.33936
 C3015 C 0.57882 0.74267 0.34792
 C3016 C 0.59366 0.74036 0.34000
 C3017 C 0.61006 0.73825 0.31502
 N3018 N 0.62378 0.73420 0.32315
 N3019 N 0.63824 0.73351 0.31582
 C3020 C 0.63959 0.73689 0.30008
 N3021 N 0.62584 0.74079 0.29190
 N3022 N 0.61135 0.74143 0.29923
 C3023 C 0.65580 0.73708 0.29224
 C3024 C 0.65778 0.74385 0.27694
 C3025 C 0.67333 0.74504 0.27001
 C3026 C 0.68718 0.73936 0.27819
 C3027 C 0.68512 0.73221 0.29332
 C3028 C 0.66961 0.73112 0.30028
 H3029 H 0.57961 0.74110 0.30196
 H3030 H 0.55357 0.74496 0.31592
 H3031 H 0.57871 0.74306 0.36076
 H3032 H 0.60473 0.73923 0.34693
 H3033 H 0.64738 0.74855 0.27045
 H3034 H 0.67451 0.75051 0.25829
 H3035 H 0.69553 0.72769 0.29994
 H3036 H 0.66847 0.72577 0.31205
 C3037 C 0.59837 0.23975 0.16863
 C3038 C 0.58617 0.22846 0.17369
 C3039 C 0.57085 0.22827 0.16645
 C3040 C 0.56745 0.23932 0.15401
 C3041 C 0.57966 0.25052 0.14887
 C3042 C 0.59497 0.25073 0.15610
 C3043 C 0.61443 0.24025 0.17656
 N3044 N 0.62615 0.25137 0.17200
 N3045 N 0.64050 0.25204 0.17940
 C3046 C 0.64370 0.24159 0.19167
 N3047 N 0.63201 0.23043 0.19617
 N3048 N 0.61767 0.22977 0.18877
 C3049 C 0.65944 0.24251 0.20015
 C3050 C 0.66240 0.23184 0.21302
 C3051 C 0.67708 0.23285 0.22130
 C3052 C 0.68915 0.24456 0.21691
 C3053 C 0.68626 0.25517 0.20396
 C3054 C 0.67153 0.25416 0.19567
 H3055 H 0.58841 0.21981 0.18328
 H3056 H 0.56169 0.21939 0.17051
 H3057 H 0.57726 0.25931 0.13942
 H3058 H 0.60408 0.25961 0.15195
 H3059 H 0.65336 0.22272 0.21678
 H3060 H 0.67890 0.22445 0.23119
 H3061 H 0.69534 0.26429 0.20025
 H3062 H 0.66962 0.26255 0.18579
 C3063 C 0.09115 0.76647 0.68852
 C3064 C 0.08837 0.77573 0.67464
 C3065 C 0.07401 0.77342 0.66603
 C3066 C 0.06216 0.76183 0.67114
 C3067 C 0.06464 0.75303 0.68533
 C3068 C 0.07899 0.75534 0.69395
 C3069 C 0.10710 0.76752 0.69662
 N3070 N 0.11006 0.75817 0.70972
 N3071 N 0.12488 0.75797 0.71620
 C3072 C 0.13736 0.76710 0.70983
 N3073 N 0.13433 0.77668 0.69690
 N3074 N 0.11951 0.77688 0.69043
 C3075 C 0.15410 0.76580 0.71621
 C3076 C 0.16726 0.77413 0.70874
 C3077 C 0.18324 0.77203 0.71414
 C3078 C 0.18638 0.76157 0.72714
 C3079 C 0.17318 0.75349 0.73479
 C3080 C 0.15722 0.75558 0.72938
 H3081 H 0.09744 0.78449 0.67019
 H3082 H 0.07225 0.78058 0.65528
 H3083 H 0.05575 0.74392 0.68947
 H3084 H 0.08075 0.74801 0.70460
 H3085 H 0.16528 0.78210 0.69856
 H3086 H 0.19311 0.77854 0.70805
 H3087 H 0.17517 0.74541 0.74490
 H3088 H 0.14735 0.74899 0.73541
 C3089 C 0.91385 0.73032 0.69093
 C3090 C 0.91643 0.72009 0.67778
 C3091 C 0.93054 0.72186 0.66848
 C3092 C 0.94250 0.73403 0.67203
 C3093 C 0.94014 0.74365 0.68576
 C3094 C 0.92605 0.74180 0.69506
 C3095 C 0.89801 0.72998 0.69950
 N3096 N 0.89517 0.74054 0.71166
 N3097 N 0.88037 0.74147 0.71832
 C3098 C 0.86780 0.73190 0.71306
 N3099 N 0.87073 0.72110 0.70112
 N3100 N 0.88552 0.72016 0.69447
 C3101 C 0.85103 0.73409 0.71936
 C3102 C 0.83781 0.72543 0.71268
 C3103 C 0.82181 0.72844 0.71771
 C3104 C 0.81868 0.74016 0.72959
 C3105 C 0.83194 0.74854 0.73656
 C3106 C 0.84795 0.74555 0.73148
 H3107 H 0.90725 0.71109 0.67428
 H3108 H 0.93136 0.71433 0.65796
 H3109 H 0.94924 0.75253 0.68963
 H3110 H 0.92457 0.74970 0.70529
 H3111 H 0.83975 0.71650 0.70333
 H3112 H 0.81189 0.72163 0.71222
 H3113 H 0.82995 0.75757 0.74580
 H3114 H 0.85788 0.75241 0.73689
 C3115 C 0.41087 0.24004 0.18257
 C3116 C 0.41789 0.22475 0.17867
 C3117 C 0.43263 0.22421 0.17018
 C3118 C 0.44052 0.23894 0.16530
 C3119 C 0.43351 0.25421 0.16934
 C3120 C 0.41892 0.25475 0.17797
 C3121 C 0.39497 0.24078 0.19093
 N3122 N 0.38995 0.25511 0.19767
 N3123 N 0.37532 0.25605 0.20464
 C3124 C 0.36507 0.24273 0.20507
 N3125 N 0.37012 0.22835 0.19841
 N3126 N 0.38480 0.22738 0.19150
 C3127 C 0.34864 0.24405 0.21231
 C3128 C 0.33656 0.23196 0.20943
 C3129 C 0.32087 0.23353 0.21593
 C3130 C 0.31704 0.24711 0.22557
 C3131 C 0.32918 0.25911 0.22856
 C3132 C 0.34479 0.25763 0.22193
 H3133 H 0.41199 0.21321 0.18217
 H3134 H 0.43785 0.21226 0.16745
 H3135 H 0.43906 0.26579 0.16547
 H3136 H 0.41373 0.26673 0.18067
 H3137 H 0.33915 0.22139 0.20202
 H3138 H 0.31179 0.22402 0.21352
 H3139 H 0.32658 0.26972 0.23593
 H3140 H 0.35386 0.26713 0.22440
 C3141 C 0.42212 0.76644 0.30284
 C3142 C 0.42669 0.77989 0.31241
 C3143 C 0.44027 0.77871 0.32235
 C3144 C 0.44935 0.76404 0.32294
 C3145 C 0.44550 0.75108 0.31258
 C3146 C 0.43206 0.75230 0.30254
 C3147 C 0.40610 0.76626 0.29479
 N3148 N 0.40198 0.75360 0.28505
 N3149 N 0.38681 0.75214 0.27951
 C3150 C 0.37510 0.76323 0.28358
 N3151 N 0.37931 0.77612 0.29302
 N3152 N 0.39451 0.77760 0.29853
 C3153 C 0.35791 0.76066 0.27873
 C3154 C 0.34535 0.77035 0.28526
 C3155 C 0.32902 0.76734 0.28133
 C3156 C 0.32491 0.75465 0.27071
 C3157 C 0.33748 0.74503 0.26411
 C3158 C 0.35380 0.74797 0.26811
 H3159 H 0.41935 0.79101 0.31279
 H3160 H 0.44306 0.78885 0.33026
 H3161 H 0.45251 0.73973 0.31274
 H3162 H 0.42895 0.74177 0.29524
 H3163 H 0.34809 0.78017 0.29354
 H3164 H 0.31963 0.77510 0.28649
 H3165 H 0.33473 0.73520 0.25584
 H3166 H 0.36319 0.74027 0.26289
 C3167 C 0.91849 0.26542 0.79859
 C3168 C 0.92263 0.27840 0.80889
 C3169 C 0.93620 0.27709 0.81876
 C3170 C 0.94593 0.26283 0.81847
 C3171 C 0.94262 0.25046 0.80730
 C3172 C 0.92899 0.25173 0.79744
 C3173 C 0.90240 0.26530 0.79065
 N3174 N 0.89773 0.25231 0.78153
 N3175 N 0.88246 0.25116 0.77613
 C3176 C 0.87122 0.26292 0.77972
 N3177 N 0.87600 0.27609 0.78852
 N3178 N 0.89126 0.27725 0.79388
 C3179 C 0.85388 0.26087 0.77513
 C3180 C 0.84183 0.27118 0.78168
 C3181 C 0.82533 0.26873 0.77812
 C3182 C 0.82051 0.25600 0.76783
 C3183 C 0.83257 0.24580 0.76112
 C3184 C 0.84909 0.24817 0.76479
 H3185 H 0.91495 0.28923 0.80992
 H3186 H 0.93873 0.28693 0.82708
 H3187 H 0.94996 0.23934 0.80687
 H3188 H 0.92621 0.24157 0.78956
 H3189 H 0.84509 0.28104 0.78973
 H3190 H 0.81636 0.27693 0.78334
 H3191 H 0.82924 0.23592 0.75310
 H3192 H 0.85809 0.24002 0.75956
 C3193 C 0.55476 1.00928 0.65956
 C3194 C 0.56985 1.00111 0.66084
 C3195 C 0.57738 0.99916 0.67551
 C3196 C 0.57015 1.00549 0.68935
 C3197 C 0.55480 1.01327 0.68819
 C3198 C 0.54714 1.01510 0.67343
 C3199 C 0.54754 1.01202 0.64367
 N3200 N 0.53141 1.01570 0.64176
 N3201 N 0.52519 1.01788 0.62727
 C3202 C 0.53492 1.01664 0.61417
 N3203 N 0.55101 1.01309 0.61618
 N3204 N 0.55717 1.01081 0.63057
 C3205 C 0.52835 1.01838 0.59787
 C3206 C 0.53939 1.01976 0.58507
 C3207 C 0.53385 1.01922 0.56952
 C3208 C 0.51708 1.01732 0.56625
 C3209 C 0.50581 1.01707 0.57894
 C3210 C 0.51142 1.01756 0.59468
 H3211 H 0.57594 0.99622 0.65044
 H3212 H 0.58896 0.99269 0.67600
 H3213 H 0.54894 1.01838 0.69860
 H3214 H 0.53552 1.02146 0.67282
 H3215 H 0.55248 1.02075 0.58702
 H3216 H 0.54282 1.01976 0.55999
 H3217 H 0.49281 1.01563 0.57673
 H3218 H 0.50259 1.01657 0.60430
 C3219 C 0.04574 0.50398 1.16366
 C3220 C 0.04685 0.48931 1.17258
 C3221 C 0.05622 0.48866 1.18641
 C3222 C 0.06511 0.50268 1.19183
 C3223 C 0.06357 0.51750 1.18278
 C3224 C 0.05404 0.51811 1.16905
 C3225 C 0.03657 0.50431 1.14849
 N3226 N 0.03380 0.51879 1.14064
 N3227 N 0.02641 0.51888 1.12657
 C3228 C 0.02151 0.50448 1.11974
 N3229 N 0.02410 0.49005 1.12769
 N3230 N 0.03142 0.48996 1.14176
 C3231 C 0.01476 0.50427 1.10343
 C3232 C 0.01499 0.48950 1.09471
 C3233 C 0.01051 0.48941 1.07879
 C3234 C 0.00534 0.50399 1.07124
 C3235 C 0.00418 0.51862 1.08007
 C3236 C 0.00903 0.51881 1.09602
 H3237 H 0.04065 0.47813 1.16875
 H3238 H 0.05708 0.47667 1.19208
 H3239 H 0.06908 0.52906 1.18642
 H3240 H 0.05333 0.52970 1.16255
 H3241 H 0.01933 0.47809 1.09999
 H3242 H 0.01146 0.47796 1.07222
 H3243 H 0.00034 0.53005 1.07443
 H3244 H 0.00863 0.53037 1.10245
 C3245 C -0.05620 -0.00812 1.15516
 C3246 C -0.04726 -0.01128 1.16900
 C3247 C -0.05460 -0.00952 1.18399
 C3248 C -0.07113 -0.00445 1.18558
 C3249 C -0.07970 -0.00073 1.17149
 C3250 C -0.07241 -0.00265 1.15663
 C3251 C -0.04902 -0.01065 1.13915
 N3252 N -0.05903 -0.01168 1.12641
 N3253 N -0.05290 -0.01362 1.11191
 C3254 C -0.03648 -0.01459 1.10942
 N3255 N -0.02639 -0.01364 1.12217
 N3256 N -0.03255 -0.01178 1.13677
 C3257 C -0.03003 -0.01579 1.09295
 C3258 C -0.01328 -0.01337 1.08931
 C3259 C -0.00793 -0.01249 1.07343
 C3260 C -0.01929 -0.01390 1.06104
 C3261 C -0.03578 -0.01731 1.06476
 C3262 C -0.04106 -0.01829 1.08046
 H3263 H -0.03473 -0.01557 1.16825
 H3264 H -0.04737 -0.01295 1.19416
 H3265 H -0.09199 0.00417 1.17169
 H3266 H -0.07955 0.00031 1.14622
 H3267 H -0.00445 -0.01149 1.09867
 H3268 H 0.00486 -0.00986 1.07086
 H3269 H -0.04478 -0.01873 1.05546
 H3270 H -0.05398 -0.02048 1.08275
 C3271 C 0.44400 0.49057 0.65381
 C3272 C 0.45286 0.49771 0.66633
 C3273 C 0.44524 0.50065 0.68100
 C3274 C 0.42859 0.49662 0.68340
 C3275 C 0.41982 0.48936 0.67093
 C3276 C 0.42741 0.48636 0.65636
 C3277 C 0.45169 0.48786 0.63802
 N3278 N 0.44287 0.48082 0.62622
 N3279 N 0.44928 0.47904 0.61179
 C3280 C 0.46483 0.48418 0.60847
 N3281 N 0.47379 0.49102 0.62032
 N3282 N 0.46735 0.49281 0.63481
 C3283 C 0.47122 0.48340 0.59195
 C3284 C 0.48754 0.48778 0.58812
 C3285 C 0.49277 0.48862 0.57222
 C3286 C 0.48167 0.48534 0.55995
 C3287 C 0.46564 0.48025 0.56383
 C3288 C 0.46051 0.47917 0.57959
 H3289 H 0.46564 0.50112 0.66479
 H3290 H 0.45230 0.50631 0.69037
 H3291 H 0.40708 0.48580 0.67249
 H3292 H 0.42018 0.48080 0.64705
 H3293 H 0.49613 0.49101 0.59736
 H3294 H 0.50518 0.49263 0.56950
 H3295 H 0.45687 0.47751 0.55459
 H3296 H 0.44790 0.47564 0.58202
 C3297 C 0.45349 0.50227 -0.16576
 C3298 C 0.44974 0.48722 -0.17329
 C3299 C 0.44089 0.48702 -0.18742
 C3300 C 0.43549 0.50186 -0.19438
 C3301 C 0.43961 0.51696 -0.18709
 C3302 C 0.44852 0.51716 -0.17295
 C3303 C 0.46176 0.50225 -0.15012
 N3304 N 0.46666 0.51661 -0.14315
 N3305 N 0.47315 0.51650 -0.12866
 C3306 C 0.47497 0.50203 -0.12054
 N3307 N 0.47028 0.48771 -0.12761
 N3308 N 0.46386 0.48781 -0.14208
 C3309 C 0.48075 0.50180 -0.10389
 C3310 C 0.47736 0.48788 -0.09430
 C3311 C 0.48146 0.48781 -0.07830
 C3312 C 0.48932 0.50152 -0.07147
 C3313 C 0.49336 0.51525 -0.08110
 C3314 C 0.48893 0.51546 -0.09718
 H3315 H 0.45348 0.47551 -0.16818
 H3316 H 0.43824 0.47521 -0.19287
 H3317 H 0.43550 0.52861 -0.19204
 H3318 H 0.45114 0.52897 -0.16746
 H3319 H 0.47107 0.47715 -0.09903
 H3320 H 0.47833 0.47700 -0.07119
 H3321 H 0.49940 0.52599 -0.07608
 H3322 H 0.49176 0.52635 -0.10429
 C3323 C -0.04417 1.00378 0.33647
 C3324 C -0.04627 0.98874 0.32837
 C3325 C -0.05526 0.98810 0.31434
 C3326 C -0.06244 1.00246 0.30805
 C3327 C -0.05990 1.01762 0.31584
 C3328 C -0.05084 1.01828 0.32989
 C3329 C -0.03595 1.00399 0.35213
 N3330 N -0.03259 1.01846 0.35969
 N3331 N -0.02628 1.01842 0.37425
 C3332 C -0.02313 1.00390 0.38187
 N3333 N -0.02626 0.98949 0.37420
 N3334 N -0.03249 0.98953 0.35966
 C3335 C -0.01772 1.00355 0.39862
 C3336 C -0.02055 0.98921 0.40780
 C3337 C -0.01686 0.98895 0.42389
 C3338 C -0.00993 1.00287 0.43121
 C3339 C -0.00642 1.01706 0.42202
 C3340 C -0.01049 1.01747 0.40585
 H3341 H -0.04118 0.97735 0.33298
 H3342 H -0.05667 0.97630 0.30846
 H3343 H -0.06537 1.02890 0.31138
 H3344 H -0.04950 1.03006 0.33583
 H3345 H -0.02614 0.97829 0.40267
 H3346 H -0.01958 0.97781 0.43070
 H3347 H -0.00111 1.02796 0.42744
 H3348 H -0.00812 1.02867 0.39905
 C3349 C 0.04555 0.49451 0.34016
 C3350 C 0.04675 0.50942 0.33148
 C3351 C 0.05583 0.51029 0.31738
 C3352 C 0.06406 0.49631 0.31161
 C3353 C 0.06256 0.48128 0.32010
 C3354 C 0.05338 0.48038 0.33418
 C3355 C 0.03690 0.49404 0.35573
 N3356 N 0.03391 0.47948 0.36349
 N3357 N 0.02703 0.47929 0.37790
 C3358 C 0.02292 0.49368 0.38516
 N3359 N 0.02573 0.50818 0.37730
 N3360 N 0.03251 0.50836 0.36290
 C3361 C 0.01679 0.49382 0.40177
 C3362 C 0.01855 0.50829 0.41078
 C3363 C 0.01431 0.50835 0.42681
 C3364 C 0.00786 0.49408 0.43420
 C3365 C 0.00532 0.47977 0.42514
 C3366 C 0.00996 0.47957 0.40905
 H3367 H 0.04077 0.52053 0.33565
 H3368 H 0.05641 0.52197 0.31100
 H3369 H 0.06887 0.47030 0.31611
 H3370 H 0.05279 0.46872 0.34059
 H3371 H 0.02379 0.51946 0.40561
 H3372 H 0.01629 0.51957 0.43354
 H3373 H 0.00043 0.46860 0.43064
 H3374 H 0.00840 0.46826 0.40239
 C3375 C 0.55656 -0.02021 -0.15646
 C3376 C 0.54741 -0.02118 -0.17051
 C3377 C 0.55478 -0.01757 -0.18522
 C3378 C 0.57134 -0.01266 -0.18611
 C3379 C 0.58044 -0.01168 -0.17208
 C3380 C 0.57317 -0.01549 -0.15745
 C3381 C 0.54897 -0.02380 -0.14075
 N3382 N 0.55858 -0.02607 -0.12786
 N3383 N 0.55198 -0.02847 -0.11355
 C3384 C 0.53546 -0.02870 -0.11144
 N3385 N 0.52578 -0.02661 -0.12436
 N3386 N 0.53240 -0.02427 -0.13874
 C3387 C 0.52843 -0.02987 -0.09516
 C3388 C 0.51158 -0.02748 -0.09221
 C3389 C 0.50563 -0.02620 -0.07660
 C3390 C 0.51645 -0.02716 -0.06373
 C3391 C 0.53303 -0.03066 -0.06670
 C3392 C 0.53893 -0.03206 -0.08217
 H3393 H 0.53460 -0.02479 -0.17015
 H3394 H 0.54749 -0.01838 -0.19588
 H3395 H 0.59328 -0.00815 -0.17243
 H3396 H 0.58059 -0.01456 -0.14689
 H3397 H 0.50314 -0.02585 -0.10194
 H3398 H 0.49280 -0.02346 -0.07465
 H3399 H 0.54164 -0.03167 -0.05701
 H3400 H 0.55191 -0.03416 -0.08392
 C3401 C 0.65620 0.57929 -0.00856
 C3402 C 0.66965 0.57220 -0.00071
 C3403 C 0.68417 0.58126 0.00139
 C3404 C 0.68552 0.59767 -0.00414
 C3405 C 0.67213 0.60472 -0.01208
 C3406 C 0.65767 0.59562 -0.01432
 C3407 C 0.64061 0.56986 -0.01032
 N3408 N 0.62831 0.57567 -0.01960
 N3409 N 0.61411 0.56745 -0.02069
 C3410 C 0.61159 0.55310 -0.01248
 N3411 N 0.62393 0.54725 -0.00331
 N3412 N 0.63813 0.55541 -0.00228
 C3413 C 0.59548 0.54438 -0.01280
 C3414 C 0.59178 0.53224 -0.00128
 C3415 C 0.57635 0.52471 -0.00071
 C3416 C 0.56422 0.52891 -0.01177
 C3417 C 0.56802 0.54062 -0.02367
 C3418 C 0.58348 0.54840 -0.02410
 H3419 H 0.66897 0.55965 0.00386
 H3420 H 0.69425 0.57554 0.00762
 H3421 H 0.67289 0.61726 -0.01669
 H3422 H 0.64758 0.60147 -0.02041
 H3423 H 0.60069 0.52882 0.00760
 H3424 H 0.57385 0.51563 0.00853
 H3425 H 0.55889 0.54414 -0.03232
 H3426 H 0.58597 0.55765 -0.03318
 C3427 C 0.15630 1.07860 0.49449
 C3428 C 0.16732 1.07534 0.50689
 C3429 C 0.18195 1.08437 0.50821
 C3430 C 0.18595 1.09692 0.49718
 C3431 C 0.17503 1.10009 0.48469
 C3432 C 0.16039 1.09103 0.48335
 C3433 C 0.14054 1.06928 0.49345
 N3434 N 0.12985 1.07208 0.48142
 N3435 N 0.11555 1.06396 0.48081
 C3436 C 0.11132 1.05271 0.49221
 N3437 N 0.12205 1.04987 0.50417
 N3438 N 0.13632 1.05795 0.50477
 C3439 C 0.09516 1.04403 0.49204
 C3440 C 0.09046 1.03386 0.50490
 C3441 C 0.07506 1.02620 0.50532
 C3442 C 0.06390 1.02838 0.49284
 C3443 C 0.06869 1.03822 0.47975
 C3444 C 0.08414 1.04602 0.47939
 H3445 H 0.16459 1.06589 0.51571
 H3446 H 0.18997 1.08175 0.51808
 H3447 H 0.17785 1.10952 0.47587
 H3448 H 0.15225 1.09385 0.47363
 H3449 H 0.09858 1.03196 0.51484
 H3450 H 0.07188 1.01862 0.51555
 H3451 H 0.06037 1.04018 0.46997
 H3452 H 0.08738 1.05374 0.46927
 C3453 C 0.15205 -0.07715 1.00290
 C3454 C 0.15251 -0.09359 1.00841
 C3455 C 0.16692 -0.10281 1.00740
 C3456 C 0.18154 -0.09587 1.00101
 C3457 C 0.18101 -0.07920 0.99576
 C3458 C 0.16648 -0.07008 0.99656
 C3459 C 0.13653 -0.06759 1.00358
 N3460 N 0.13478 -0.05339 0.99503
 N3461 N 0.12069 -0.04511 0.99529
 C3462 C 0.10777 -0.05060 1.00420
 N3463 N 0.10957 -0.06473 1.01286
 N3464 N 0.12363 -0.07305 1.01253
 C3465 C 0.09185 -0.04172 1.00404
 C3466 C 0.07957 -0.04536 1.01538
 C3467 C 0.06429 -0.03757 1.01471
 C3468 C 0.06085 -0.02611 1.00257
 C3469 C 0.07323 -0.02225 0.99141
 C3470 C 0.08856 -0.02987 0.99220
 H3471 H 0.14165 -0.09943 1.01344
 H3472 H 0.16657 -0.11524 1.01227
 H3473 H 0.19158 -0.07324 0.99033
 H3474 H 0.16656 -0.05743 0.99217
 H3475 H 0.08171 -0.05437 1.02470
 H3476 H 0.05501 -0.04089 1.02344
 H3477 H 0.07101 -0.01345 0.98193
 H3478 H 0.09770 -0.02677 0.98327
 C3479 C 0.65276 0.42292 0.49937
 C3480 C 0.65339 0.40662 0.50521
 C3481 C 0.66774 0.39734 0.50392
 C3482 C 0.68213 0.40409 0.49688
 C3483 C 0.68140 0.42059 0.49118
 C3484 C 0.66693 0.42977 0.49230
 C3485 C 0.63734 0.43258 0.50050
 N3486 N 0.63538 0.44675 0.49194
 N3487 N 0.62136 0.45512 0.49262
 C3488 C 0.60872 0.44977 0.50197
 N3489 N 0.61073 0.43569 0.51065
 N3490 N 0.62472 0.42727 0.50991
 C3491 C 0.59283 0.45870 0.50218
 C3492 C 0.58077 0.45500 0.51372
 C3493 C 0.56543 0.46271 0.51330
 C3494 C 0.56172 0.47412 0.50119
 C3495 C 0.57391 0.47810 0.48989
 C3496 C 0.58930 0.47057 0.49044
 H3497 H 0.64273 0.40094 0.51079
 H3498 H 0.66756 0.38506 0.50913
 H3499 H 0.69176 0.42638 0.48523
 H3500 H 0.66686 0.44229 0.48760
 H3501 H 0.58309 0.44598 0.52298
 H3502 H 0.55628 0.45928 0.52213
 H3503 H 0.57149 0.48687 0.48043
 H3504 H 0.59827 0.47373 0.48137
 C3505 C -0.15982 0.41864 0.49542
 C3506 C -0.16740 0.41424 0.50990
 C3507 C -0.18246 0.40581 0.51020
 C3508 C -0.19041 0.40160 0.49602
 C3509 C -0.18289 0.40612 0.48153
 C3510 C -0.16778 0.41450 0.48123
 C3511 C -0.14369 0.42741 0.49521
 N3512 N -0.13542 0.43033 0.48140
 N3513 N -0.12089 0.43807 0.48135
 C3514 C -0.11403 0.44326 0.49512
 N3515 N -0.12234 0.44035 0.50890
 N3516 N -0.13681 0.43260 0.50895
 C3517 C -0.09779 0.45181 0.49530
 C3518 C -0.09166 0.45811 0.50960
 C3519 C -0.07632 0.46585 0.51012
 C3520 C -0.06655 0.46752 0.49637
 C3521 C -0.07270 0.46138 0.48199
 C3522 C -0.08817 0.45363 0.48146
 H3523 H -0.16163 0.41715 0.52108
 H3524 H -0.18772 0.40231 0.52157
 H3525 H -0.18875 0.40331 0.47037
 H3526 H -0.16236 0.41777 0.46986
 H3527 H -0.09870 0.45703 0.52050
 H3528 H -0.07210 0.47042 0.52144
 H3529 H -0.06552 0.46243 0.47117
 H3530 H -0.09250 0.44892 0.47023
 C3531 C 0.33938 -0.08123 -0.00600
 C3532 C 0.32538 -0.07374 0.00056
 C3533 C 0.31051 -0.08249 0.00186
 C3534 C 0.30928 -0.09899 -0.00331
 C3535 C 0.32338 -0.10654 -0.00962
 C3536 C 0.33818 -0.09777 -0.01102
 C3537 C 0.35516 -0.07195 -0.00754
 N3538 N 0.36798 -0.07836 -0.01579
 N3539 N 0.38221 -0.07017 -0.01697
 C3540 C 0.38426 -0.05522 -0.00991
 N3541 N 0.37141 -0.04878 -0.00172
 N3542 N 0.35717 -0.05694 -0.00059
 C3543 C 0.40036 -0.04643 -0.01055
 C3544 C 0.40334 -0.03277 -0.00071
 C3545 C 0.41882 -0.02522 -0.00033
 C3546 C 0.43171 -0.03101 -0.00993
 C3547 C 0.42860 -0.04425 -0.02026
 C3548 C 0.41312 -0.05193 -0.02051
 H3549 H 0.32584 -0.06101 0.00453
 H3550 H 0.29990 -0.07620 0.00660
 H3551 H 0.32303 -0.11932 -0.01341
 H3552 H 0.34873 -0.10402 -0.01596
 H3553 H 0.39384 -0.02815 0.00709
 H3554 H 0.42077 -0.01501 0.00772
 H3555 H 0.43828 -0.04906 -0.02773
 H3556 H 0.41123 -0.06237 -0.02831
 C3557 C 0.34376 1.08178 0.50953
 C3558 C 0.33522 1.08545 0.52360
 C3559 C 0.32002 1.09342 0.52308
 C3560 C 0.31304 1.09802 0.50847
 C3561 C 0.32160 1.09429 0.49443
 C3562 C 0.33670 1.08624 0.49495
 C3563 C 0.35993 1.07341 0.50990
 N3564 N 0.36690 1.06799 0.49624
 N3565 N 0.38140 1.06056 0.49636
 C3566 C 0.38967 1.05822 0.51011
 N3567 N 0.38275 1.06365 0.52382
 N3568 N 0.36816 1.07107 0.52371
 C3569 C 0.40590 1.04992 0.50989
 C3570 C 0.41602 1.04936 0.52336
 C3571 C 0.43152 1.04186 0.52262
 C3572 C 0.43713 1.03473 0.50842
 C3573 C 0.42682 1.03513 0.49511
 C3574 C 0.41151 1.04261 0.49583
 H3575 H 0.34023 1.08208 0.53503
 H3576 H 0.31369 1.09586 0.53413
 H3577 H 0.31680 1.09791 0.48299
 H3578 H 0.34294 1.08371 0.48387
 H3579 H 0.41207 1.05489 0.53439
 H3580 H 0.43913 1.04178 0.53310
 H3581 H 0.43059 1.02976 0.48394
 H3582 H 0.40407 1.04268 0.48523
 C3583 C -0.15660 0.58559 1.00516
 C3584 C -0.16359 0.59304 1.01861
 C3585 C -0.17864 0.60121 1.01759
 C3586 C -0.18708 0.60215 1.00311
 C3587 C -0.18012 0.59465 0.98970
 C3588 C -0.16510 0.58648 0.99071
 C3589 C -0.14055 0.57701 1.00605
 N3590 N -0.13391 0.57010 0.99289
 N3591 N -0.11950 0.56249 0.99349
 C3592 C -0.11102 0.56143 1.00728
 N3593 N -0.11765 0.56832 1.02050
 N3594 N -0.13211 0.57596 1.01989
 C3595 C -0.09486 0.55300 1.00762
 C3596 C -0.08577 0.55139 1.02169
 C3597 C -0.07047 0.54346 1.02161
 C3598 C -0.06397 0.53704 1.00745
 C3599 C -0.07316 0.53866 0.99346
 C3600 C -0.08832 0.54649 0.99355
 H3601 H -0.15739 0.59265 1.02992
 H3602 H -0.18355 0.60704 1.02811
 H3603 H -0.18638 0.59493 0.97842
 H3604 H -0.16016 0.58085 0.98010
 H3605 H -0.09045 0.55627 1.03275
 H3606 H -0.06373 0.54245 1.03259
 H3607 H -0.06867 0.53387 0.98230
 H3608 H -0.09490 0.54744 0.98247
 C3609 C 0.01787 0.65843 0.57089
 C3610 C 0.00678 0.67090 0.56662
 C3611 C 0.00614 0.68563 0.57510
 C3612 C 0.01664 0.68829 0.58798
 C3613 C 0.02823 0.67613 0.59183
 C3614 C 0.02882 0.66132 0.58338
 C3615 C 0.01717 0.64216 0.56301
 N3616 N 0.02624 0.62924 0.56835
 N3617 N 0.02463 0.61428 0.56195
 C3618 C 0.01386 0.61164 0.54999
 N3619 N 0.00499 0.62461 0.54453
 N3620 N 0.00659 0.63954 0.55091
 C3621 C 0.01134 0.59491 0.54339
 C3622 C -0.00038 0.59236 0.53150
 C3623 C -0.00317 0.57659 0.52547
 C3624 C 0.00571 0.56295 0.53116
 C3625 C 0.01747 0.56548 0.54304
 C3626 C 0.02026 0.58131 0.54909
 H3627 H -0.00185 0.66909 0.55707
 H3628 H -0.00308 0.69465 0.57197
 H3629 H 0.03667 0.67796 0.60154
 H3630 H 0.03761 0.65201 0.58687
 H3631 H -0.00749 0.60255 0.52685
 H3632 H -0.01229 0.57511 0.51631
 H3633 H 0.02459 0.55525 0.54761
 H3634 H 0.02937 0.58286 0.55826
 C3635 C 0.51649 0.15862 0.05488
 C3636 C 0.50427 0.17013 0.05096
 C3637 C 0.50137 0.18375 0.06067
 C3638 C 0.51060 0.18606 0.07447
 C3639 C 0.52335 0.17505 0.07794
 C3640 C 0.52628 0.16148 0.06824
 C3641 C 0.51799 0.14296 0.04606
 N3642 N 0.52820 0.13090 0.05126
 N3643 N 0.52814 0.11603 0.04457
 C3644 C 0.51788 0.11260 0.03240
 N3645 N 0.50798 0.12479 0.02692
 N3646 N 0.50802 0.13967 0.03363
 C3647 C 0.51634 0.09555 0.02633
 C3648 C 0.50581 0.09208 0.01365
 C3649 C 0.50293 0.07576 0.00904
 C3650 C 0.51048 0.06257 0.01707
 C3651 C 0.52145 0.06608 0.02939
 C3652 C 0.52438 0.08241 0.03395
 H3653 H 0.49653 0.16830 0.04072
 H3654 H 0.49147 0.19208 0.05775
 H3655 H 0.53090 0.17680 0.08833
 H3656 H 0.53589 0.15296 0.07153
 H3657 H 0.49947 0.10193 0.00749
 H3658 H 0.49449 0.07349 -0.00058
 H3659 H 0.52762 0.05621 0.03568
 H3660 H 0.53260 0.08466 0.04375
 C3661 C -0.02957 0.16255 0.93097
 C3662 C -0.03555 0.16423 0.91545
 C3663 C -0.03347 0.17911 0.90711
 C3664 C -0.02541 0.19260 0.91415
 C3665 C -0.02028 0.19123 0.92996
 C3666 C -0.02235 0.17636 0.93829
 C3667 C -0.02948 0.14616 0.93890
 N3668 N -0.02182 0.14410 0.95301
 N3669 N -0.02023 0.12908 0.95940
 C3670 C -0.02622 0.11549 0.95194
 N3671 N -0.03417 0.11758 0.93798
 N3672 N -0.03575 0.13260 0.93158
 C3673 C -0.02326 0.09870 0.95839
 C3674 C -0.02968 0.08466 0.95080
 C3675 C -0.02614 0.06878 0.95641
 C3676 C -0.01606 0.06659 0.96971
 C3677 C -0.00980 0.08066 0.97740
 C3678 C -0.01338 0.09653 0.97182
 H3679 H -0.04121 0.15385 0.90946
 H3680 H -0.03742 0.17976 0.89489
 H3681 H -0.01427 0.20154 0.93575
 H3682 H -0.01774 0.17554 0.95028
 H3683 H -0.03736 0.08590 0.94044
 H3684 H -0.03127 0.05822 0.95027
 H3685 H -0.00208 0.07945 0.98774
 H3686 H -0.00821 0.10708 0.97794
 C3687 C 0.47339 0.65816 0.42434
 C3688 C 0.47618 0.65900 0.40790
 C3689 C 0.47969 0.67414 0.40055
 C3690 C 0.48024 0.68873 0.40946
 C3691 C 0.47663 0.68808 0.42574
 C3692 C 0.47334 0.67288 0.43316
 C3693 C 0.47195 0.64189 0.43234
 N3694 N 0.47437 0.64047 0.44820
 N3695 N 0.47490 0.62563 0.45514
 C3696 C 0.47298 0.61161 0.44650
 N3697 N 0.47018 0.61306 0.43071
 N3698 N 0.46971 0.62789 0.42376
 C3699 C 0.47521 0.59514 0.45384
 C3700 C 0.47133 0.58070 0.44539
 C3701 C 0.47469 0.56512 0.45179
 C3702 C 0.48214 0.56366 0.46670
 C3703 C 0.48572 0.57808 0.47529
 C3704 C 0.48222 0.59366 0.46895
 H3705 H 0.47630 0.64789 0.40077
 H3706 H 0.48224 0.67444 0.38793
 H3707 H 0.47701 0.69924 0.43281
 H3708 H 0.47116 0.67261 0.44584
 H3709 H 0.46588 0.58143 0.43373
 H3710 H 0.47171 0.55424 0.44490
 H3711 H 0.49130 0.57737 0.48688
 H3712 H 0.48541 0.60455 0.47574
 C3713 C 0.50683 0.84024 0.43892
 C3714 C 0.49174 0.83175 0.43817
 C3715 C 0.49038 0.81710 0.42961
 C3716 C 0.50412 0.81056 0.42187
 C3717 C 0.51937 0.81858 0.42322
 C3718 C 0.52070 0.83338 0.43159
 C3719 C 0.50773 0.85663 0.44649
 N3720 N 0.52039 0.86721 0.44331
 N3721 N 0.52050 0.88248 0.44923
 C3722 C 0.50798 0.88772 0.45858
 N3723 N 0.49547 0.87704 0.46192
 N3724 N 0.49532 0.86183 0.45597
 C3725 C 0.50753 0.90483 0.46463
 C3726 C 0.49565 0.90918 0.47594
 C3727 C 0.49462 0.92537 0.48133
 C3728 C 0.50540 0.93768 0.47551
 C3729 C 0.51737 0.93338 0.46424
 C3730 C 0.51846 0.91705 0.45887
 H3731 H 0.48082 0.83671 0.44369
 H3732 H 0.47853 0.81102 0.42878
 H3733 H 0.53010 0.81375 0.41723
 H3734 H 0.53249 0.83962 0.43205
 H3735 H 0.48707 0.90007 0.48065
 H3736 H 0.48524 0.92823 0.49002
 H3737 H 0.52591 0.94258 0.45961
 H3738 H 0.52772 0.91407 0.45010
 C3739 C 0.00117 0.34728 0.92242
 C3740 C 0.01522 0.33730 0.92210
 C3741 C 0.01496 0.32211 0.91424
 C3742 C 0.00075 0.31684 0.90639
 C3743 C -0.01323 0.32684 0.90663
 C3744 C -0.01307 0.34187 0.91466
 C3745 C 0.00122 0.36323 0.93083
 N3746 N -0.01313 0.37048 0.93495
 N3747 N -0.01321 0.38491 0.94246
 C3748 C 0.00106 0.39273 0.94608
 N3749 N 0.01544 0.38551 0.94194
 N3750 N 0.01552 0.37100 0.93450
 C3751 C 0.00081 0.40874 0.95439
 C3752 C 0.01461 0.41928 0.95417
 C3753 C 0.01412 0.43457 0.96183
 C3754 C -0.00008 0.43943 0.97004
 C3755 C -0.01379 0.42879 0.97037
 C3756 C -0.01338 0.41367 0.96254
 H3757 H 0.02633 0.34115 0.92803
 H3758 H 0.02591 0.31459 0.91411
 H3759 H -0.02436 0.32293 0.90075
 H3760 H -0.02406 0.34931 0.91465
 H3761 H 0.02570 0.41581 0.94793
 H3762 H 0.02490 0.44250 0.96148
 H3763 H -0.02493 0.43223 0.97655
 H3764 H -0.02418 0.40577 0.96297
 C3765 C 0.49215 0.33872 0.07124
 C3766 C 0.47876 0.33317 0.08048
 C3767 C 0.47948 0.31801 0.08854
 C3768 C 0.49367 0.30832 0.08762
 C3769 C 0.50693 0.31376 0.07824
 C3770 C 0.50616 0.32877 0.07008
 C3771 C 0.49184 0.35494 0.06309
 N3772 N 0.50380 0.35903 0.05249
 N3773 N 0.50406 0.37383 0.04552
 C3774 C 0.49240 0.38521 0.04887
 N3775 N 0.48034 0.38111 0.05941
 N3776 N 0.48006 0.36624 0.06638
 C3777 C 0.49319 0.40177 0.04137
 C3778 C 0.48252 0.41446 0.04605
 C3779 C 0.48379 0.43021 0.03913
 C3780 C 0.49571 0.43349 0.02738
 C3781 C 0.50626 0.42073 0.02267
 C3782 C 0.50503 0.40509 0.02959
 H3783 H 0.46778 0.34056 0.08154
 H3784 H 0.46914 0.31402 0.09577
 H3785 H 0.51791 0.30636 0.07720
 H3786 H 0.51669 0.33266 0.06306
 H3787 H 0.47328 0.41227 0.05512
 H3788 H 0.47542 0.43977 0.04294
 H3789 H 0.51559 0.42279 0.01365
 H3790 H 0.51342 0.39560 0.02567
 C3791 C -0.01519 0.83625 0.56850
 C3792 C -0.02774 0.83146 0.57912
 C3793 C -0.02614 0.81713 0.58838
 C3794 C -0.01187 0.80762 0.58729
 C3795 C 0.00038 0.81205 0.57630
 C3796 C -0.00131 0.82615 0.56690
 C3797 C -0.01579 0.85223 0.55995
 N3798 N -0.00486 0.85561 0.54815
 N3799 N -0.00420 0.87053 0.54141
 C3800 C -0.01439 0.88274 0.54622
 N3801 N -0.02555 0.87931 0.55784
 N3802 N -0.02624 0.86433 0.56457
 C3803 C -0.01262 0.89961 0.53950
 C3804 C -0.02186 0.91285 0.54545
 C3805 C -0.01942 0.92891 0.53953
 C3806 C -0.00771 0.93200 0.52753
 C3807 C 0.00139 0.91870 0.52152
 C3808 C -0.00104 0.90272 0.52742
 H3809 H -0.03860 0.83896 0.58054
 H3810 H -0.03570 0.81385 0.59684
 H3811 H 0.01142 0.80474 0.57524
 H3812 H 0.00858 0.82948 0.55883
 H3813 H -0.03085 0.91086 0.55479
 H3814 H -0.02671 0.93887 0.54434
 H3815 H 0.01047 0.92059 0.51224
 H3816 H 0.00629 0.89283 0.52255
 C3817 C 0.25239 0.30413 0.09401
 C3818 C 0.24100 0.31697 0.09223
 C3819 C 0.23907 0.32491 0.07764
 C3820 C 0.24862 0.32038 0.06447
 C3821 C 0.25954 0.30704 0.06604
 C3822 C 0.26135 0.29893 0.08068
 C3823 C 0.25545 0.29713 0.10998
 N3824 N 0.26223 0.28192 0.11208
 N3825 N 0.26505 0.27603 0.12666
 C3826 C 0.26141 0.28526 0.13963
 N3827 N 0.25469 0.30042 0.13745
 N3828 N 0.25175 0.30621 0.12297
 C3829 C 0.26422 0.27915 0.15598
 C3830 C 0.26539 0.29070 0.16828
 C3831 C 0.26561 0.28549 0.18402
 C3832 C 0.26461 0.26857 0.18795
 C3833 C 0.26465 0.25686 0.17568
 C3834 C 0.26448 0.26213 0.15974
 H3835 H 0.23369 0.32107 0.10221
 H3836 H 0.23021 0.33479 0.07675
 H3837 H 0.26714 0.30329 0.05614
 H3838 H 0.27023 0.28908 0.08171
 H3839 H 0.26559 0.30388 0.16578
 H3840 H 0.26593 0.29483 0.19318
 H3841 H 0.26390 0.24374 0.17838
 H3842 H 0.26366 0.25296 0.15046
 C3843 C 0.76370 0.80662 0.59292
 C3844 C 0.75844 0.82314 0.59181
 C3845 C 0.75479 0.83024 0.57713
 C3846 C 0.75647 0.82107 0.56314
 C3847 C 0.76176 0.80455 0.56416
 C3848 C 0.76520 0.79734 0.57893
 C3849 C 0.76749 0.79932 0.60865
 N3850 N 0.76825 0.78264 0.61091
 N3851 N 0.77093 0.77628 0.62531
 C3852 C 0.77310 0.78635 0.63801
 N3853 N 0.77256 0.80300 0.63564
 N3854 N 0.76982 0.80934 0.62131
 C3855 C 0.77472 0.77959 0.65435
 C3856 C 0.77777 0.79045 0.66696
 C3857 C 0.77671 0.78491 0.68262
 C3858 C 0.77269 0.76833 0.68612
 C3859 C 0.77093 0.75710 0.67357
 C3860 C 0.77189 0.76270 0.65778
 H3861 H 0.75707 0.83063 0.60234
 H3862 H 0.75095 0.84305 0.57669
 H3863 H 0.76311 0.79720 0.55354
 H3864 H 0.76922 0.78459 0.57938
 H3865 H 0.78026 0.80348 0.66481
 H3866 H 0.77833 0.79381 0.69205
 H3867 H 0.76777 0.74425 0.67595
 H3868 H 0.76960 0.75398 0.64834
 C3869 C 0.23553 0.69473 0.59279
 C3870 C 0.22753 0.67964 0.58958
 C3871 C 0.22989 0.67165 0.57511
 C3872 C 0.24040 0.67846 0.56345
 C3873 C 0.24815 0.69374 0.56650
 C3874 C 0.24571 0.70180 0.58099
 C3875 C 0.23368 0.70258 0.60859
 N3876 N 0.23969 0.71804 0.61143
 N3877 N 0.23866 0.72464 0.62586
 C3878 C 0.23162 0.71604 0.63808
 N3879 N 0.22548 0.70068 0.63518
 N3880 N 0.22644 0.69412 0.62076
 C3881 C 0.23165 0.72266 0.65447
 C3882 C 0.22911 0.71186 0.66742
 C3883 C 0.23084 0.71749 0.68293
 C3884 C 0.23484 0.73412 0.68594
 C3885 C 0.23650 0.74519 0.67308
 C3886 C 0.23507 0.73948 0.65747
 H3887 H 0.21947 0.67389 0.59830
 H3888 H 0.22340 0.66013 0.57304
 H3889 H 0.25642 0.69929 0.55784
 H3890 H 0.25211 0.71338 0.58308
 H3891 H 0.22644 0.69886 0.66559
 H3892 H 0.22942 0.70869 0.69262
 H3893 H 0.23969 0.75806 0.67507
 H3894 H 0.23699 0.74813 0.64775
 C3895 C 0.74615 0.19835 0.08992
 C3896 C 0.73125 0.19484 0.08228
 C3897 C 0.73108 0.18617 0.06794
 C3898 C 0.74579 0.18087 0.06086
 C3899 C 0.76068 0.18465 0.06836
 C3900 C 0.76086 0.19325 0.08269
 C3901 C 0.74645 0.20669 0.10560
 N3902 N 0.76075 0.20825 0.11362
 N3903 N 0.76108 0.21494 0.12799
 C3904 C 0.74713 0.22046 0.13503
 N3905 N 0.73281 0.21912 0.12694
 N3906 N 0.73248 0.21237 0.11254
 C3907 C 0.74758 0.22680 0.15153
 C3908 C 0.73404 0.23484 0.15846
 C3909 C 0.73444 0.23976 0.17441
 C3910 C 0.74826 0.23644 0.18374
 C3911 C 0.76187 0.22881 0.17668
 C3912 C 0.76159 0.22417 0.16080
 H3913 H 0.71970 0.19859 0.08747
 H3914 H 0.71941 0.18363 0.06237
 H3915 H 0.77222 0.18059 0.06335
 H3916 H 0.77258 0.19572 0.08820
 H3917 H 0.72308 0.23711 0.15162
 H3918 H 0.72376 0.24557 0.17960
 H3919 H 0.77275 0.22621 0.18354
 H3920 H 0.77225 0.21805 0.15593
 C3921 C 0.76113 0.19121 0.90633
 C3922 C 0.75362 0.17551 0.90775
 C3923 C 0.75023 0.16858 0.92264
 C3924 C 0.75442 0.17708 0.93653
 C3925 C 0.76188 0.19280 0.93518
 C3926 C 0.76509 0.19986 0.92023
 C3927 C 0.76484 0.19827 0.89039
 N3928 N 0.76834 0.21466 0.88829
 N3929 N 0.77118 0.22089 0.87381
 C3930 C 0.77078 0.21095 0.86085
 N3931 N 0.76745 0.19458 0.86303
 N3932 N 0.76454 0.18839 0.87744
 C3933 C 0.77285 0.21775 0.84452
 C3934 C 0.77376 0.20683 0.83164
 C3935 C 0.77325 0.21278 0.81611
 C3936 C 0.77188 0.22983 0.81296
 C3937 C 0.77222 0.24092 0.82574
 C3938 C 0.77267 0.23492 0.84142
 H3939 H 0.75033 0.16852 0.89731
 H3940 H 0.74467 0.15636 0.92330
 H3941 H 0.76518 0.19965 0.94571
 H3942 H 0.77088 0.21196 0.91956
 H3943 H 0.77420 0.19355 0.83352
 H3944 H 0.77321 0.20392 0.80651
 H3945 H 0.77111 0.25413 0.82367
 H3946 H 0.77208 0.24368 0.85107
 C3947 C 0.26417 0.69149 0.40804
 C3948 C 0.26633 0.70105 0.42178
 C3949 C 0.26292 0.69427 0.43682
 C3950 C 0.25705 0.67790 0.43839
 C3951 C 0.25479 0.66844 0.42465
 C3952 C 0.25836 0.67511 0.40970
 C3953 C 0.26785 0.69835 0.39200
 N3954 N 0.26864 0.68809 0.37934
 N3955 N 0.27138 0.69406 0.36481
 C3956 C 0.27345 0.71057 0.36223
 N3957 N 0.27280 0.72088 0.37490
 N3958 N 0.27011 0.71489 0.38950
 C3959 C 0.27529 0.71702 0.34574
 C3960 C 0.27493 0.73412 0.34229
 C3961 C 0.27453 0.73978 0.32650
 C3962 C 0.27440 0.72841 0.31394
 C3963 C 0.27579 0.71144 0.31743
 C3964 C 0.27629 0.70583 0.33308
 H3965 H 0.27079 0.71369 0.42092
 H3966 H 0.26473 0.70185 0.44721
 H3967 H 0.25054 0.65572 0.42549
 H3968 H 0.25649 0.66739 0.39941
 H3969 H 0.27426 0.74309 0.35176
 H3970 H 0.27341 0.75293 0.32416
 H3971 H 0.27592 0.70238 0.30801
 H3972 H 0.27685 0.69260 0.33521
 C3973 C 0.73982 0.80534 0.40861
 C3974 C 0.74774 0.82080 0.40987
 C3975 C 0.74931 0.82852 0.42453
 C3976 C 0.74281 0.82112 0.43837
 C3977 C 0.73518 0.80547 0.43719
 C3978 C 0.73377 0.79762 0.42247
 C3979 C 0.73770 0.79777 0.39278
 N3980 N 0.73446 0.78131 0.39106
 N3981 N 0.73293 0.77472 0.37664
 C3982 C 0.73440 0.78438 0.36341
 N3983 N 0.73749 0.80081 0.36523
 N3984 N 0.73912 0.80734 0.37956
 C3985 C 0.73348 0.77737 0.34722
 C3986 C 0.73241 0.78818 0.33415
 C3987 C 0.73371 0.78224 0.31875
 C3988 C 0.73609 0.76530 0.31591
 C3989 C 0.73606 0.75423 0.32886
 C3990 C 0.73479 0.76023 0.34443
 H3991 H 0.75279 0.82699 0.39948
 H3992 H 0.75567 0.84033 0.42500
 H3993 H 0.72991 0.79947 0.44758
 H3994 H 0.72758 0.78572 0.42187
 H3995 H 0.73108 0.80140 0.33580
 H3996 H 0.73338 0.79107 0.30903
 H3997 H 0.73786 0.74110 0.32700
 H3998 H 0.73556 0.75157 0.35425
 C3999 C 0.23789 0.30750 0.91142
 C4000 C 0.23435 0.32444 0.91289
 C4001 C 0.23611 0.33243 0.92737
 C4002 C 0.24133 0.32372 0.94087
 C4003 C 0.24508 0.30680 0.93944
 C4004 C 0.24336 0.29876 0.92484
 C4005 C 0.23600 0.29933 0.89582
 N4006 N 0.24070 0.28339 0.89344
 N4007 N 0.23951 0.27652 0.87913
 C4008 C 0.23352 0.28530 0.86665
 N4009 N 0.22863 0.30111 0.86914
 N4010 N 0.22982 0.30795 0.88338
 C4011 C 0.23331 0.27845 0.85036
 C4012 C 0.22988 0.28901 0.83751
 C4013 C 0.23128 0.28343 0.82200
 C4014 C 0.23593 0.26708 0.81886
 C4015 C 0.23850 0.25614 0.83161
 C4016 C 0.23733 0.26183 0.84728
 H4017 H 0.23028 0.33165 0.90280
 H4018 H 0.23347 0.34555 0.92796
 H4019 H 0.24903 0.29973 0.94966
 H4020 H 0.24622 0.28571 0.92411
 H4021 H 0.22665 0.30185 0.83936
 H4022 H 0.22905 0.29208 0.81237
 H4023 H 0.24212 0.24346 0.82946
 H4024 H 0.23995 0.25335 0.85693
 C4025 C 0.83283 0.40771 0.75890
 C4026 C 0.82721 0.42097 0.74952
 C4027 C 0.83612 0.43583 0.74846
 C4028 C 0.85092 0.43780 0.75670
 C4029 C 0.85652 0.42459 0.76613
 C4030 C 0.84758 0.40974 0.76724
 C4031 C 0.82347 0.39183 0.75976
 N4032 N 0.82845 0.37914 0.76923
 N4033 N 0.82021 0.36480 0.76969
 C4034 C 0.80662 0.36252 0.76069
 N4035 N 0.80162 0.37524 0.75129
 N4036 N 0.80983 0.38956 0.75085
 C4037 C 0.79769 0.34638 0.76064
 C4038 C 0.78484 0.34372 0.74990
 C4039 C 0.77694 0.32835 0.74910
 C4040 C 0.78156 0.31518 0.75909
 C4041 C 0.79409 0.31792 0.77017
 C4042 C 0.80212 0.33333 0.77090
 H4043 H 0.81592 0.41987 0.74290
 H4044 H 0.83155 0.44569 0.74097
 H4045 H 0.86776 0.42579 0.77281
 H4046 H 0.85228 0.39984 0.77460
 H4047 H 0.78104 0.35344 0.74184
 H4048 H 0.76728 0.32674 0.74048
 H4049 H 0.79799 0.30802 0.77799
 H4050 H 0.81192 0.33495 0.77935
 C4051 C 0.33364 0.90686 0.25901
 C4052 C 0.35046 0.90774 0.26221
 C4053 C 0.35912 0.92268 0.26058
 C4054 C 0.35126 0.93754 0.25582
 C4055 C 0.33415 0.93645 0.25291
 C4056 C 0.32560 0.92139 0.25436
 C4057 C 0.32463 0.89081 0.26020
 N4058 N 0.30944 0.88908 0.25388
 N4059 N 0.30159 0.87454 0.25443
 C4060 C 0.30854 0.86111 0.26140
 N4061 N 0.32367 0.86287 0.26787
 N4062 N 0.33155 0.87740 0.26725
 C4063 C 0.30008 0.84473 0.26129
 C4064 C 0.30558 0.83150 0.27079
 C4065 C 0.29806 0.81585 0.26995
 C4066 C 0.28505 0.81306 0.25942
 C4067 C 0.27937 0.82637 0.25018
 C4068 C 0.28671 0.84202 0.25119
 H4069 H 0.35705 0.89680 0.26594
 H4070 H 0.37188 0.92242 0.26391
 H4071 H 0.32722 0.94689 0.24863
 H4072 H 0.31263 0.92115 0.25171
 H4073 H 0.31582 0.83319 0.27875
 H4074 H 0.30276 0.80582 0.27716
 H4075 H 0.26932 0.82465 0.24201
 H4076 H 0.28215 0.85189 0.24370
 C4077 C 0.17311 0.90889 0.74062
 C4078 C 0.16335 0.91408 0.72785
 C4079 C 0.15374 0.92833 0.72905
 C4080 C 0.15356 0.93766 0.74308
 C4081 C 0.16331 0.93248 0.75583
 C4082 C 0.17301 0.91832 0.75460
 C4083 C 0.18325 0.89369 0.73951
 N4084 N 0.19401 0.88983 0.75116
 N4085 N 0.20291 0.87608 0.75042
 C4086 C 0.20145 0.86553 0.73801
 N4087 N 0.19073 0.86940 0.72631
 N4088 N 0.18185 0.88320 0.72702
 C4089 C 0.21097 0.84988 0.73770
 C4090 C 0.20818 0.83774 0.72609
 C4091 C 0.21633 0.82249 0.72672
 C4092 C 0.22745 0.81908 0.73899
 C4093 C 0.23070 0.83151 0.75018
 C4094 C 0.22259 0.84666 0.74955
 H4095 H 0.16313 0.90713 0.71692
 H4096 H 0.14624 0.93192 0.71907
 H4097 H 0.16359 0.93951 0.76672
 H4098 H 0.18036 0.91472 0.76468
 H4099 H 0.19936 0.83982 0.71675
 H4100 H 0.21351 0.81320 0.71793
 H4101 H 0.23926 0.82941 0.75974
 H4102 H 0.22521 0.85574 0.75860
 C4103 C 0.66655 0.40254 0.24284
 C4104 C 0.65914 0.40902 0.22914
 C4105 C 0.65073 0.42411 0.22967
 C4106 C 0.64949 0.43303 0.24390
 C4107 C 0.65703 0.42660 0.25753
 C4108 C 0.66544 0.41158 0.25701
 C4109 C 0.67529 0.38641 0.24256
 N4110 N 0.68228 0.38041 0.25596
 N4111 N 0.68997 0.36593 0.25597
 C4112 C 0.69106 0.35672 0.24258
 N4113 N 0.68410 0.36270 0.22911
 N4114 N 0.67638 0.37724 0.22911
 C4115 C 0.69959 0.34047 0.24295
 C4116 C 0.70125 0.33061 0.22931
 C4117 C 0.70927 0.31526 0.23007
 C4118 C 0.71575 0.30946 0.24449
 C4119 C 0.71408 0.31942 0.25803
 C4120 C 0.70616 0.33464 0.25727
 H4121 H 0.65973 0.40240 0.21803
 H4122 H 0.64492 0.42863 0.21899
 H4123 H 0.65655 0.43326 0.26863
 H4124 H 0.67104 0.40706 0.26779
 H4125 H 0.69634 0.33473 0.21807
 H4126 H 0.71033 0.30793 0.21941
 H4127 H 0.71891 0.31549 0.26937
 H4128 H 0.70517 0.34181 0.26804
 C4129 C 0.67301 0.58968 0.25845
 C4130 C 0.65866 0.58710 0.26750
 C4131 C 0.64907 0.57281 0.26550
 C4132 C 0.65359 0.56070 0.25439
 C4133 C 0.66801 0.56321 0.24543
 C4134 C 0.67758 0.57750 0.24742
 C4135 C 0.68301 0.60505 0.26020
 N4136 N 0.69656 0.60765 0.25105
 N4137 N 0.70529 0.62160 0.25221
 C4138 C 0.70091 0.63360 0.26260
 N4139 N 0.68741 0.63097 0.27187
 N4140 N 0.67866 0.61700 0.27070
 C4141 C 0.71025 0.64950 0.26317
 C4142 C 0.70611 0.66203 0.27401
 C4143 C 0.71421 0.67744 0.27356
 C4144 C 0.72651 0.68068 0.26216
 C4145 C 0.73102 0.66794 0.25175
 C4146 C 0.72306 0.65257 0.25228
 H4147 H 0.65477 0.59617 0.27613
 H4148 H 0.63818 0.57116 0.27276
 H4149 H 0.67176 0.55426 0.23664
 H4150 H 0.68852 0.57905 0.24020
 H4151 H 0.69636 0.66007 0.28262
 H4152 H 0.71040 0.68701 0.28170
 H4153 H 0.74053 0.66996 0.24289
 H4154 H 0.72669 0.64325 0.24381
 C4155 C 0.17137 0.09277 0.75920
 C4156 C 0.15734 0.08979 0.76862
 C4157 C 0.14790 0.07539 0.76659
 C4158 C 0.15226 0.06362 0.75511
 C4159 C 0.16633 0.06657 0.74576
 C4160 C 0.17575 0.08095 0.74777
 C4161 C 0.18124 0.10821 0.76103
 N4162 N 0.19442 0.11124 0.75149
 N4163 N 0.20303 0.12525 0.75272
 C4164 C 0.19890 0.13689 0.76358
 N4165 N 0.18579 0.13382 0.77324
 N4166 N 0.17716 0.11978 0.77200
 C4167 C 0.20805 0.15288 0.76422
 C4168 C 0.20421 0.16501 0.77557
 C4169 C 0.21203 0.18056 0.77518
 C4170 C 0.22372 0.18434 0.76334
 C4171 C 0.22797 0.17199 0.75242
 C4172 C 0.22031 0.15648 0.75289
 H4173 H 0.15360 0.09858 0.77755
 H4174 H 0.13727 0.07340 0.77414
 H4175 H 0.16993 0.05788 0.73668
 H4176 H 0.18643 0.08283 0.74025
 H4177 H 0.19489 0.16264 0.78453
 H4178 H 0.20843 0.18985 0.78371
 H4179 H 0.23701 0.17444 0.74321
 H4180 H 0.22369 0.14746 0.74402
 C4181 C 0.33188 0.09598 0.24781
 C4182 C 0.34779 0.09516 0.24137
 C4183 C 0.35685 0.08054 0.24237
 C4184 C 0.35020 0.06625 0.24970
 C4185 C 0.33431 0.06710 0.25624
 C4186 C 0.32529 0.08179 0.25535
 C4187 C 0.32231 0.11157 0.24675
 N4188 N 0.30822 0.11342 0.25523
 N4189 N 0.29982 0.12750 0.25451
 C4190 C 0.30507 0.14034 0.24522
 N4191 N 0.31909 0.13845 0.23664
 N4192 N 0.32753 0.12439 0.23741
 C4193 C 0.29600 0.15627 0.24494
 C4194 C 0.29985 0.16877 0.23376
 C4195 C 0.29184 0.18409 0.23416
 C4196 C 0.27996 0.18731 0.24588
 C4197 C 0.27587 0.17466 0.25680
 C4198 C 0.28370 0.15934 0.25628
 H4199 H 0.35335 0.10588 0.23563
 H4200 H 0.36916 0.08052 0.23750
 H4201 H 0.32869 0.05632 0.26179
 H4202 H 0.31306 0.08195 0.26041
 H4203 H 0.30920 0.16681 0.22481
 H4204 H 0.29533 0.19360 0.22563
 H4205 H 0.26671 0.17669 0.26594
 H4206 H 0.28038 0.15003 0.26506
 C4207 C 0.82993 0.59481 0.74716
 C4208 C 0.83486 0.58628 0.73349
 C4209 C 0.84427 0.57188 0.73468
 C4210 C 0.84918 0.56573 0.74957
 C4211 C 0.84422 0.57431 0.76324
 C4212 C 0.83467 0.58860 0.76206
 C4213 C 0.81997 0.61012 0.74597
 N4214 N 0.81238 0.61634 0.75899
 N4215 N 0.80359 0.63015 0.75803
 C4216 C 0.80202 0.63842 0.74403
 N4217 N 0.80961 0.63221 0.73098
 N4218 N 0.81836 0.61833 0.73192
 C4219 C 0.79256 0.65408 0.74326
 C4220 C 0.79382 0.66486 0.73010
 C4221 C 0.78577 0.68018 0.73009
 C4222 C 0.77618 0.68499 0.74319
 C4223 C 0.77444 0.67386 0.75603
 C4224 C 0.78254 0.65869 0.75608
 H4225 H 0.83133 0.59063 0.72184
 H4226 H 0.84754 0.56548 0.72389
 H4227 H 0.84797 0.57018 0.77490
 H4228 H 0.83120 0.59491 0.77284
 H4229 H 0.80142 0.66169 0.72000
 H4230 H 0.78742 0.68843 0.72001
 H4231 H 0.76714 0.67703 0.76633
 H4232 H 0.78112 0.65065 0.76634
 C4233 C 0.91435 0.77292 0.18931
 C4234 C 0.92807 0.76605 0.19668
 C4235 C 0.94290 0.76460 0.18848
 C4236 C 0.94449 0.76986 0.17245
 C4237 C 0.93073 0.77765 0.16554
 C4238 C 0.91597 0.77913 0.17383
 C4239 C 0.89816 0.77250 0.19725
 N4240 N 0.88483 0.77901 0.19003
 N4241 N 0.86997 0.77729 0.19646
 C4242 C 0.86782 0.76895 0.21037
 N4243 N 0.88119 0.76269 0.21774
 N4244 N 0.89605 0.76442 0.21131
 C4245 C 0.85118 0.76592 0.21681
 C4246 C 0.84881 0.75599 0.23041
 C4247 C 0.83301 0.75233 0.23591
 C4248 C 0.81925 0.75853 0.22794
 C4249 C 0.82165 0.76867 0.21449
 C4250 C 0.83743 0.77232 0.20899
 H4251 H 0.92724 0.76117 0.20866
 H4252 H 0.95252 0.75812 0.19463
 H4253 H 0.93118 0.78312 0.15382
 H4254 H 0.90570 0.78486 0.16790
 H4255 H 0.85915 0.75085 0.23670
 H4256 H 0.83160 0.74456 0.24636
 H4257 H 0.81134 0.77379 0.20813
 H4258 H 0.83882 0.78003 0.19850
 C4259 C 0.40727 0.27204 0.68340
 C4260 C 0.41971 0.26224 0.68996
 C4261 C 0.43484 0.26093 0.68239
 C4262 C 0.43802 0.26953 0.66815
 C4263 C 0.42572 0.27961 0.66172
 C4264 C 0.41045 0.28082 0.66925
 C4265 C 0.39095 0.27240 0.69107
 N4266 N 0.37779 0.27896 0.68354
 N4267 N 0.36292 0.27821 0.69017
 C4268 C 0.36064 0.27091 0.70459
 N4269 N 0.37385 0.26461 0.71217
 N4270 N 0.38867 0.26533 0.70556
 C4271 C 0.34410 0.26898 0.71165
 C4272 C 0.34217 0.26079 0.72630
 C4273 C 0.32664 0.25795 0.73269
 C4274 C 0.31258 0.26327 0.72464
 C4275 C 0.31445 0.27180 0.71013
 C4276 C 0.33009 0.27460 0.70368
 H4277 H 0.41764 0.25520 0.70078
 H4278 H 0.44391 0.25278 0.68749
 H4279 H 0.42787 0.28656 0.65086
 H4280 H 0.40113 0.28853 0.66396
 H4281 H 0.35268 0.25632 0.73279
 H4282 H 0.32569 0.25146 0.74395
 H4283 H 0.30386 0.27612 0.70367
 H4284 H 0.33117 0.28097 0.69237
 C4285 C 0.41645 0.73234 0.80564
 C4286 C 0.42773 0.74505 0.80193
 C4287 C 0.44217 0.74673 0.81053
 C4288 C 0.44574 0.73565 0.82293
 C4289 C 0.43483 0.72247 0.82616
 C4290 C 0.42029 0.72087 0.81763
 C4291 C 0.40028 0.73193 0.79788
 N4292 N 0.38793 0.72229 0.80378
 N4293 N 0.37291 0.72316 0.79774
 C4294 C 0.36966 0.73369 0.78555
 N4295 N 0.38210 0.74307 0.77946
 N4296 N 0.39709 0.74223 0.78551
 C4297 C 0.35275 0.73579 0.77974
 C4298 C 0.34965 0.74629 0.76676
 C4299 C 0.33362 0.74928 0.76195
 C4300 C 0.32031 0.74188 0.77004
 C4301 C 0.32342 0.73109 0.78282
 C4302 C 0.33948 0.72806 0.78759
 H4303 H 0.42513 0.75414 0.79280
 H4304 H 0.45020 0.75715 0.80787
 H4305 H 0.43741 0.71354 0.83543
 H4306 H 0.41191 0.71085 0.82067
 H4307 H 0.35960 0.75240 0.76041
 H4308 H 0.33167 0.75757 0.75200
 H4309 H 0.31344 0.72505 0.78920
 H4310 H 0.34145 0.71990 0.79764
 C4311 C 0.91013 0.23276 0.31873
 C4312 C 0.91214 0.22732 0.33445
 C4313 C 0.92748 0.22814 0.34161
 C4314 C 0.94115 0.23432 0.33317
 C4315 C 0.93932 0.23893 0.31719
 C4316 C 0.92395 0.23818 0.31005
 C4317 C 0.89358 0.23387 0.31183
 N4318 N 0.89124 0.24185 0.29781
 N4319 N 0.87622 0.24390 0.29212
 C4320 C 0.86290 0.23809 0.30022
 N4321 N 0.86525 0.22995 0.31415
 N4322 N 0.88028 0.22792 0.31987
 C4323 C 0.84621 0.24080 0.29410
 C4324 C 0.83258 0.23324 0.30151
 C4325 C 0.81685 0.23557 0.29553
 C4326 C 0.81442 0.24559 0.28206
 C4327 C 0.82803 0.25342 0.27486
 C4328 C 0.84375 0.25101 0.28079
 H4329 H 0.90175 0.22306 0.34147
 H4330 H 0.92846 0.22468 0.35399
 H4331 H 0.94970 0.24346 0.31032
 H4332 H 0.92285 0.24227 0.29784
 H4333 H 0.83405 0.22533 0.31183
 H4334 H 0.80663 0.22936 0.30137
 H4335 H 0.82660 0.26118 0.26444
 H4336 H 0.85398 0.25712 0.27488
 C4337 C 0.09024 0.27727 0.31475
 C4338 C 0.07658 0.27090 0.30669
 C4339 C 0.06158 0.26883 0.31454
 C4340 C 0.05998 0.27306 0.33060
 C4341 C 0.07336 0.28036 0.33836
 C4342 C 0.08833 0.28249 0.33051
 C4343 C 0.10670 0.27695 0.30735
 N4344 N 0.11995 0.28294 0.31518
 N4345 N 0.13500 0.28103 0.30933
 C4346 C 0.13743 0.27298 0.29544
 N4347 N 0.12416 0.26727 0.28746
 N4348 N 0.10911 0.26921 0.29329
 C4349 C 0.15419 0.26967 0.28960
 C4350 C 0.15667 0.25958 0.27631
 C4351 C 0.17249 0.25584 0.27118
 C4352 C 0.18621 0.26216 0.27921
 C4353 C 0.18373 0.27234 0.29246
 C4354 C 0.16789 0.27603 0.29762
 H4355 H 0.07759 0.26694 0.29448
 H4356 H 0.05135 0.26350 0.30817
 H4357 H 0.07256 0.28362 0.35078
 H4358 H 0.09860 0.28749 0.33705
 H4359 H 0.14638 0.25442 0.26990
 H4360 H 0.17395 0.24805 0.26087
 H4361 H 0.19402 0.27751 0.29886
 H4362 H 0.16641 0.28384 0.30791
 C4363 C 0.58773 0.77875 0.80125
 C4364 C 0.57719 0.76534 0.79806
 C4365 C 0.56362 0.76217 0.80775
 C4366 C 0.56019 0.77250 0.82062
 C4367 C 0.56995 0.78659 0.82317
 C4368 C 0.58372 0.78964 0.81361
 C4369 C 0.60370 0.78004 0.79299
 N4370 N 0.61611 0.78916 0.79922
 N4371 N 0.63122 0.78828 0.79322
 C4372 C 0.63451 0.77825 0.78075
 N4373 N 0.62198 0.76956 0.77421
 N4374 N 0.60690 0.77041 0.78023
 C4375 C 0.65157 0.77544 0.77546
 C4376 C 0.65479 0.76467 0.76281
 C4377 C 0.67086 0.76049 0.75889
 C4378 C 0.68408 0.76698 0.76753
 C4379 C 0.68089 0.77816 0.77987
 C4380 C 0.66480 0.78236 0.78378
 H4381 H 0.57989 0.75672 0.78862
 H4382 H 0.55608 0.75133 0.80552
 H4383 H 0.56743 0.79470 0.83306
 H4384 H 0.59157 0.80013 0.81628
 H4385 H 0.64489 0.75916 0.75612
 H4386 H 0.67287 0.75196 0.74922
 H4387 H 0.69082 0.78356 0.78662
 H4388 H 0.66274 0.79071 0.79357
 C4389 C 0.58504 0.23941 0.70213
 C4390 C 0.57896 0.22629 0.69294
 C4391 C 0.56502 0.22846 0.68366
 C4392 C 0.55708 0.24381 0.68330
 C4393 C 0.56265 0.25664 0.69306
 C4394 C 0.57644 0.25443 0.70249
 C4395 C 0.60108 0.23809 0.71000
 N4396 N 0.60609 0.24989 0.72032
 N4397 N 0.62128 0.24985 0.72596
 C4398 C 0.63211 0.23807 0.72145
 N4399 N 0.62700 0.22606 0.71138
 N4400 N 0.61178 0.22606 0.70578
 C4401 C 0.64942 0.23914 0.72637
 C4402 C 0.66145 0.22957 0.71880
 C4403 C 0.67799 0.23170 0.72248
 C4404 C 0.68281 0.24334 0.73388
 C4405 C 0.67073 0.25257 0.74175
 C4406 C 0.65422 0.25053 0.73800
 H4407 H 0.58528 0.21455 0.69250
 H4408 H 0.56092 0.21841 0.67617
 H4409 H 0.55656 0.26853 0.69306
 H4410 H 0.58079 0.26477 0.70946
 H4411 H 0.65814 0.22070 0.70977
 H4412 H 0.68699 0.22426 0.71634
 H4413 H 0.67403 0.26160 0.75065
 H4414 H 0.64525 0.25805 0.74408
 C4415 C 0.09275 0.73831 0.19476
 C4416 C 0.08655 0.72547 0.18531
 C4417 C 0.07222 0.72773 0.17663
 C4418 C 0.06403 0.74295 0.17712
 C4419 C 0.06992 0.75560 0.18691
 C4420 C 0.08409 0.75326 0.19576
 C4421 C 0.10874 0.73669 0.20264
 N4422 N 0.11337 0.74773 0.21384
 N4423 N 0.12837 0.74730 0.21990
 C4424 C 0.13937 0.73588 0.21496
 N4425 N 0.13466 0.72465 0.20395
 N4426 N 0.11962 0.72503 0.19792
 C4427 C 0.15642 0.73652 0.22068
 C4428 C 0.16880 0.72736 0.21317
 C4429 C 0.18514 0.72918 0.21776
 C4430 C 0.18936 0.74011 0.22999
 C4431 C 0.17689 0.74889 0.23777
 C4432 C 0.16062 0.74713 0.23315
 H4433 H 0.09295 0.71380 0.18437
 H4434 H 0.06786 0.71785 0.16909
 H4435 H 0.06366 0.76737 0.18754
 H4436 H 0.08856 0.76340 0.20291
 H4437 H 0.16594 0.71908 0.20351
 H4438 H 0.19445 0.72211 0.21165
 H4439 H 0.17969 0.75736 0.24731
 H4440 H 0.15137 0.75431 0.23923
   
