data_POSCAR
  _audit_creation_date              2014-09-24
  _audit_creation_method            'ToBaCCo'
  _symmetry_space_group_name_H-M    'P1'
  _symmetry_Int_Tables_number       1
  _symmetry_cell_setting            triclinic
  loop_
  _symmetry_equiv_pos_as_xyz
 x,y,z
_cell_length_a 56.3059
_cell_length_b 56.3126
_cell_length_c 44.2814
_cell_angle_alpha 89.938600
_cell_angle_beta 90.017100
_cell_angle_gamma 90.031900
loop_
  _atom_site_label
  _atom_site_type_symbol
  _atom_site_fract_x
  _atom_site_fract_y
  _atom_site_fract_z
C1 C 0.31783 -0.03165 0.25137
 C2 C 0.33054 -0.01157 0.24174
 C3 C 0.34526 -0.01305 0.21630
 C4 C 0.34752 -0.03451 0.20067
 C5 C 0.33467 -0.05444 0.21006
 C6 C 0.31980 -0.05306 0.23538
 C7 C 0.33063 0.01031 0.25981
 C8 C 0.34544 0.01173 0.28519
 C9 C 0.34794 0.03322 0.30075
 C10 C 0.33521 0.05323 0.29130
 C11 C 0.32027 0.05187 0.26604
 C12 C 0.31808 0.03046 0.25016
 H13 H 0.30686 -0.03065 0.27146
 H14 H 0.35568 0.00224 0.20945
 H15 H 0.35573 -0.00367 0.29200
 H16 H 0.30706 0.02956 0.23011
 H17 H 0.33672 -0.07113 0.19810
 H18 H 0.33735 0.07000 0.30306
 C19 C 0.18148 -0.03078 0.74782
 C20 C 0.16880 -0.01074 0.75753
 C21 C 0.15412 -0.01231 0.78301
 C22 C 0.15188 -0.03381 0.79860
 C23 C 0.16472 -0.05370 0.78912
 C24 C 0.17953 -0.05222 0.76378
 C25 C 0.16872 0.01121 0.73953
 C26 C 0.15394 0.01272 0.71412
 C27 C 0.15147 0.03427 0.69865
 C28 C 0.16419 0.05425 0.70819
 C29 C 0.17910 0.05281 0.73347
 C30 C 0.18127 0.03133 0.74928
 H31 H 0.19243 -0.02978 0.72773
 H32 H 0.14373 0.00296 0.78993
 H33 H 0.14367 -0.00266 0.70724
 H34 H 0.19227 0.03037 0.76934
 H35 H 0.16273 -0.07045 0.80100
 H36 H 0.16207 0.07106 0.69648
 C37 C 0.68282 0.46893 0.24885
 C38 C 0.67013 0.48899 0.25848
 C39 C 0.65530 0.48742 0.28382
 C40 C 0.65294 0.46591 0.29935
 C41 C 0.66578 0.44600 0.28995
 C42 C 0.68074 0.44748 0.26474
 C43 C 0.67015 0.51093 0.24047
 C44 C 0.65536 0.51250 0.21508
 C45 C 0.65299 0.53403 0.19959
 C46 C 0.66579 0.55396 0.20908
 C47 C 0.68071 0.55248 0.23434
 C48 C 0.68280 0.53102 0.25019
 H49 H 0.69387 0.46993 0.22885
 H50 H 0.64490 0.50270 0.29067
 H51 H 0.64498 0.49721 0.20817
 H52 H 0.69380 0.53002 0.27024
 H53 H 0.66368 0.42924 0.30176
 H54 H 0.66369 0.57073 0.19731
 C55 C 0.81824 0.46881 0.75201
 C56 C 0.83093 0.48881 0.74212
 C57 C 0.84556 0.48717 0.71660
 C58 C 0.84772 0.46562 0.70116
 C59 C 0.83487 0.44576 0.71082
 C60 C 0.82011 0.44733 0.73621
 C61 C 0.83106 0.51081 0.75997
 C62 C 0.84582 0.51236 0.78539
 C63 C 0.84828 0.53394 0.80077
 C64 C 0.83557 0.55390 0.79110
 C65 C 0.82069 0.55240 0.76580
 C66 C 0.81854 0.53091 0.75009
 H67 H 0.80733 0.46988 0.77213
 H68 H 0.85595 0.50241 0.70953
 H69 H 0.85606 0.49699 0.79239
 H70 H 0.80754 0.52990 0.73003
 H71 H 0.83680 0.42899 0.69906
 H72 H 0.83768 0.57072 0.80274
 C73 C 0.24354 0.40322 1.04081
 C74 C 0.25519 0.41435 1.01661
 C75 C 0.27741 0.42490 1.02123
 C76 C 0.28793 0.42452 1.04985
 C77 C 0.27645 0.41315 1.07392
 C78 C 0.25428 0.40234 1.06936
 C79 C 0.24444 0.41441 0.98630
 C80 C 0.22220 0.42491 0.98171
 C81 C 0.21172 0.42468 0.95306
 C82 C 0.22328 0.41351 0.92894
 C83 C 0.24546 0.40277 0.93348
 C84 C 0.25615 0.40349 0.96203
 H85 H 0.22656 0.39459 1.03709
 H86 H 0.28647 0.43344 1.00253
 H87 H 0.21308 0.43330 1.00045
 H88 H 0.27314 0.39489 0.96564
 H89 H 0.28498 0.41231 1.09587
 H90 H 0.21485 0.41275 0.90694
 C91 C 0.75671 0.09657 1.04063
 C92 C 0.74481 0.08550 1.01661
 C93 C 0.72261 0.07500 1.02155
 C94 C 0.71235 0.07537 1.05031
 C95 C 0.72408 0.08668 1.07421
 C96 C 0.74624 0.09744 1.06933
 C97 C 0.75529 0.08542 0.98615
 C98 C 0.77748 0.07490 0.98130
 C99 C 0.78769 0.07508 0.95250
 C100 C 0.77592 0.08623 0.92849
 C101 C 0.75379 0.09699 0.93329
 C102 C 0.74337 0.09632 0.96200
 H103 H 0.77368 0.10515 1.03667
 H104 H 0.71336 0.06650 1.00298
 H105 H 0.78676 0.06652 0.99995
 H106 H 0.72641 0.10494 0.96580
 H107 H 0.71575 0.08751 1.09628
 H108 H 0.78415 0.08695 0.90637
 C109 C 0.25649 0.59609 0.53909
 C110 C 0.24464 0.58506 0.51500
 C111 C 0.22243 0.57454 0.51986
 C112 C 0.21213 0.57488 0.54861
 C113 C 0.22383 0.58616 0.57255
 C114 C 0.24598 0.59691 0.56773
 C115 C 0.25517 0.58505 0.48458
 C116 C 0.27738 0.57454 0.47976
 C117 C 0.28769 0.57488 0.45102
 C118 C 0.27602 0.58616 0.42704
 C119 C 0.25387 0.59690 0.43182
 C120 C 0.24335 0.59608 0.46045
 H121 H 0.27346 0.60471 0.53526
 H122 H 0.21320 0.56607 0.50126
 H123 H 0.28660 0.56608 0.49840
 H124 H 0.22639 0.60470 0.46425
 H125 H 0.21553 0.58701 0.59462
 H126 H 0.28433 0.58701 0.40498
 C127 C 0.74408 0.90423 0.53890
 C128 C 0.75583 0.91526 0.51472
 C129 C 0.77805 0.92581 0.51942
 C130 C 0.78847 0.92550 0.54814
 C131 C 0.77684 0.91421 0.57219
 C132 C 0.75469 0.90344 0.56749
 C133 C 0.74519 0.91523 0.48435
 C134 C 0.72292 0.92565 0.47962
 C135 C 0.71251 0.92528 0.45094
 C136 C 0.72415 0.91406 0.42691
 C137 C 0.74636 0.90341 0.43160
 C138 C 0.75698 0.90427 0.46018
 H139 H 0.72712 0.89559 0.53519
 H140 H 0.78716 0.93426 0.50068
 H141 H 0.71374 0.93406 0.49828
 H142 H 0.77399 0.89572 0.46390
 H143 H 0.78517 0.91335 0.59426
 H144 H 0.71576 0.91319 0.40489
 C145 C -0.02952 0.23912 0.37280
 C146 C -0.00772 0.23874 0.38815
 C147 C -0.00048 0.21797 0.40315
 C148 C -0.01511 0.19780 0.40310
 C149 C -0.03677 0.19822 0.38743
 C150 C -0.04394 0.21882 0.37212
 C151 C 0.00759 0.26000 0.38823
 C152 C 0.00028 0.28073 0.40320
 C153 C 0.01490 0.30089 0.40327
 C154 C 0.03661 0.30052 0.38777
 C155 C 0.04385 0.27998 0.37251
 C156 C 0.02946 0.25967 0.37304
 H157 H -0.03504 0.25513 0.36108
 H158 H 0.01632 0.21771 0.41513
 H159 H -0.01655 0.28101 0.41508
 H160 H 0.03508 0.24374 0.36132
 H161 H -0.04805 0.18258 0.38721
 H162 H 0.04786 0.31615 0.38765
 C163 C -0.02992 0.75962 0.12707
 C164 C -0.00811 0.75985 0.11174
 C165 C -0.00076 0.78052 0.09662
 C166 C -0.01527 0.80074 0.09653
 C167 C -0.03692 0.80049 0.11216
 C168 C -0.04422 0.77999 0.12760
 C169 C 0.00711 0.73856 0.11185
 C170 C -0.00020 0.71781 0.09691
 C171 C 0.01439 0.69763 0.09694
 C172 C 0.03609 0.69803 0.11254
 C173 C 0.04331 0.71861 0.12777
 C174 C 0.02895 0.73891 0.12712
 H175 H -0.03552 0.74369 0.13890
 H176 H 0.01603 0.78072 0.08464
 H177 H -0.01702 0.71758 0.08497
 H178 H 0.03457 0.75487 0.13880
 H179 H -0.04806 0.81621 0.11223
 H180 H 0.04738 0.68243 0.11279
 C181 C 0.46997 0.26018 0.62718
 C182 C 0.49176 0.26035 0.61181
 C183 C 0.49913 0.28099 0.59664
 C184 C 0.48465 0.30123 0.59655
 C185 C 0.46301 0.30102 0.61222
 C186 C 0.45572 0.28056 0.62768
 C187 C 0.50693 0.23903 0.61195
 C188 C 0.49965 0.21834 0.59687
 C189 C 0.51418 0.19814 0.59696
 C190 C 0.53578 0.19843 0.61273
 C191 C 0.54299 0.21894 0.62810
 C192 C 0.52869 0.23929 0.62741
 H193 H 0.46431 0.24431 0.63906
 H194 H 0.51591 0.28115 0.58464
 H195 H 0.48291 0.21812 0.58477
 H196 H 0.53430 0.25520 0.63920
 H197 H 0.45186 0.31672 0.61232
 H198 H 0.54698 0.18277 0.61296
 C199 C 0.47099 0.73948 0.87292
 C200 C 0.49278 0.73911 0.88830
 C201 C 0.49998 0.71837 0.90339
 C202 C 0.48533 0.69821 0.90337
 C203 C 0.46369 0.69863 0.88765
 C204 C 0.45657 0.71920 0.87229
 C205 C 0.50809 0.76036 0.88834
 C206 C 0.50085 0.78106 0.90343
 C207 C 0.51546 0.80122 0.90344
 C208 C 0.53710 0.80088 0.88778
 C209 C 0.54427 0.78037 0.87241
 C210 C 0.52989 0.76006 0.87299
 H211 H 0.46545 0.75543 0.86112
 H212 H 0.51677 0.71811 0.91540
 H213 H 0.48407 0.78132 0.91542
 H214 H 0.53545 0.74415 0.86118
 H215 H 0.45235 0.68304 0.88741
 H216 H 0.54836 0.81652 0.88762
 C217 C -0.28209 0.56885 0.99815
 C218 C -0.26190 0.58135 1.00783
 C219 C -0.26328 0.59602 1.03331
 C220 C -0.28473 0.59844 1.04893
 C221 C -0.30478 0.58580 1.03950
 C222 C -0.30350 0.57096 1.01413
 C223 C -0.23998 0.58124 0.98982
 C224 C -0.23839 0.59594 0.96434
 C225 C -0.21683 0.59825 0.94885
 C226 C -0.19693 0.58541 0.95845
 C227 C -0.19846 0.57058 0.98380
 C228 C -0.21993 0.56859 0.99963
 H229 H -0.28117 0.55790 0.97805
 H230 H -0.24789 0.60626 1.04022
 H231 H -0.25370 0.60630 0.95741
 H232 H -0.22095 0.55765 1.01975
 H233 H -0.32146 0.58796 1.05146
 H234 H -0.18012 0.58740 0.94674
 C235 C -0.28192 0.43174 0.50053
 C236 C -0.26172 0.41925 0.49098
 C237 C -0.26303 0.40453 0.46554
 C238 C -0.28444 0.40205 0.44983
 C239 C -0.30451 0.41470 0.45912
 C240 C -0.30329 0.42958 0.48445
 C241 C -0.23986 0.41937 0.50915
 C242 C -0.23846 0.40483 0.53479
 C243 C -0.21701 0.40255 0.55047
 C244 C -0.19701 0.41522 0.54093
 C245 C -0.19832 0.42991 0.51543
 C246 C -0.21970 0.43188 0.49938
 H247 H -0.28105 0.44272 0.52062
 H248 H -0.24763 0.39427 0.45875
 H249 H -0.25381 0.39454 0.54175
 H250 H -0.22057 0.44270 0.47915
 H251 H -0.32116 0.41250 0.44709
 H252 H -0.18030 0.41319 0.55286
 C253 C 0.21910 -0.06924 -0.00017
 C254 C 0.23921 -0.08182 -0.00983
 C255 C 0.23775 -0.09653 -0.03527
 C256 C 0.21625 -0.09889 -0.05089
 C257 C 0.19628 -0.08613 -0.04143
 C258 C 0.19768 -0.07129 -0.01611
 C259 C 0.26110 -0.08182 0.00827
 C260 C 0.26253 -0.09650 0.03378
 C261 C 0.28399 -0.09881 0.04948
 C262 C 0.30397 -0.08601 0.04003
 C263 C 0.30261 -0.07120 0.01465
 C264 C 0.28123 -0.06920 -0.00138
 H265 H 0.22003 -0.05828 0.01992
 H266 H 0.25312 -0.10683 -0.04210
 H267 H 0.24715 -0.10681 0.04062
 H268 H 0.28032 -0.05825 -0.02150
 H269 H 0.17951 -0.08815 -0.05326
 H270 H 0.32071 -0.08798 0.05194
 C271 C 0.21886 1.06856 0.49915
 C272 C 0.23892 1.08123 0.50887
 C273 C 0.23734 1.09601 0.53424
 C274 C 0.21581 1.09833 0.54971
 C275 C 0.19590 1.08550 0.54022
 C276 C 0.19739 1.07060 0.51497
 C277 C 0.26087 1.08124 0.49092
 C278 C 0.26247 1.09607 0.46555
 C279 C 0.28401 1.09838 0.45003
 C280 C 0.30389 1.08547 0.45951
 C281 C 0.30236 1.07053 0.48476
 C282 C 0.28090 1.06851 0.50061
 H283 H 0.21987 1.05755 0.47912
 H284 H 0.25262 1.10640 0.54116
 H285 H 0.24716 1.10647 0.45870
 H286 H 0.27987 1.05745 0.52062
 H287 H 0.17913 1.08757 0.55198
 H288 H 0.32069 1.08746 0.44775
 C289 C 0.15356 0.49348 0.21136
 C290 C 0.16468 0.50526 0.23544
 C291 C 0.17520 0.52747 0.23060
 C292 C 0.17476 0.53785 0.20189
 C293 C 0.16339 0.52623 0.17796
 C294 C 0.15265 0.50407 0.18275
 C295 C 0.16477 0.49465 0.26584
 C296 C 0.17531 0.47245 0.27059
 C297 C 0.17505 0.46207 0.29931
 C298 C 0.16382 0.47369 0.32334
 C299 C 0.15305 0.49583 0.31863
 C300 C 0.15379 0.50642 0.29001
 H301 H 0.14494 0.47651 0.21517
 H302 H 0.18373 0.53665 0.24920
 H303 H 0.18374 0.46329 0.25192
 H304 H 0.14515 0.52337 0.28627
 H305 H 0.16247 0.53460 0.15592
 H306 H 0.16303 0.46532 0.34538
 C307 C -0.15341 1.00619 0.20984
 C308 C -0.16458 0.99457 0.23402
 C309 C -0.17511 0.97233 0.22944
 C310 C -0.17465 0.96175 0.20085
 C311 C -0.16323 0.97323 0.17679
 C312 C -0.15245 0.99543 0.18134
 C313 C -0.16465 1.00533 0.26431
 C314 C -0.17509 1.02761 0.26880
 C315 C -0.17482 1.03812 0.29745
 C316 C -0.16368 1.02652 0.32163
 C317 C -0.15302 1.00430 0.31715
 C318 C -0.15378 0.99361 0.28863
 H319 H -0.14480 1.02318 0.21355
 H320 H -0.18366 0.96332 0.24820
 H321 H -0.18344 1.03669 0.24996
 H322 H -0.14522 0.97659 0.28508
 H323 H -0.16229 0.96473 0.15483
 H324 H -0.16285 1.03492 0.34365
 C325 C 0.34706 0.50710 -0.29062
 C326 C 0.33591 0.49552 -0.26638
 C327 C 0.32528 0.47333 -0.27092
 C328 C 0.32561 0.46277 -0.29949
 C329 C 0.33700 0.47417 -0.32360
 C330 C 0.34789 0.49632 -0.31912
 C331 C 0.33591 0.50630 -0.23611
 C332 C 0.32542 0.52855 -0.23158
 C333 C 0.32568 0.53905 -0.20293
 C334 C 0.33687 0.52746 -0.17877
 C335 C 0.34758 0.50527 -0.18328
 C336 C 0.34684 0.49460 -0.21181
 H337 H 0.35575 0.52406 -0.28696
 H338 H 0.31672 0.46433 -0.25219
 H339 H 0.31702 0.53761 -0.25040
 H340 H 0.35541 0.47759 -0.21538
 H341 H 0.33780 0.46561 -0.34552
 H342 H 0.33766 0.53584 -0.15673
 C343 C 0.65270 -0.00659 -0.28986
 C344 C 0.66376 0.00516 -0.26570
 C345 C 0.67425 0.02739 -0.27042
 C346 C 0.67388 0.03784 -0.29909
 C347 C 0.66258 0.02627 -0.32312
 C348 C 0.65183 0.00407 -0.31846
 C349 C 0.66386 -0.00552 -0.23534
 C350 C 0.67444 -0.02771 -0.23067
 C351 C 0.67432 -0.03808 -0.20194
 C352 C 0.66319 -0.02648 -0.17783
 C353 C 0.65238 -0.00435 -0.18246
 C354 C 0.65298 0.00624 -0.21109
 H355 H 0.64413 -0.02359 -0.28607
 H356 H 0.68275 0.03653 -0.25176
 H357 H 0.68282 -0.03686 -0.24939
 H358 H 0.64433 0.02320 -0.21476
 H359 H 0.66176 0.03474 -0.34512
 H360 H 0.66254 -0.03483 -0.15577
 C361 C -0.01083 0.22055 0.87807
 C362 C -0.01121 0.24241 0.86282
 C363 C -0.03198 0.24969 0.84789
 C364 C -0.05213 0.23506 0.84792
 C365 C -0.05171 0.21337 0.86348
 C366 C -0.03112 0.20616 0.87870
 C367 C 0.01005 0.25770 0.86277
 C368 C 0.03075 0.25049 0.84766
 C369 C 0.05089 0.26512 0.84757
 C370 C 0.05053 0.28677 0.86319
 C371 C 0.03002 0.29392 0.87858
 C372 C 0.00973 0.27951 0.87807
 H373 H 0.00515 0.21494 0.88976
 H374 H -0.03230 0.26650 0.83595
 H375 H 0.03102 0.23370 0.83569
 H376 H -0.00619 0.28507 0.88988
 H377 H -0.06734 0.20211 0.86367
 H378 H 0.06615 0.29805 0.86329
 C379 C 0.51077 0.22077 0.12301
 C380 C 0.51120 0.24264 0.13818
 C381 C 0.53200 0.24992 0.15305
 C382 C 0.55214 0.23529 0.15304
 C383 C 0.55167 0.21360 0.13754
 C384 C 0.53105 0.20638 0.12238
 C385 C 0.48994 0.25792 0.13825
 C386 C 0.46923 0.25063 0.15331
 C387 C 0.44907 0.26522 0.15337
 C388 C 0.44942 0.28689 0.13776
 C389 C 0.46994 0.29412 0.12240
 C390 C 0.49025 0.27976 0.12295
 H391 H 0.49478 0.21516 0.11138
 H392 H 0.53236 0.26674 0.16493
 H393 H 0.46896 0.23382 0.16527
 H394 H 0.50617 0.28537 0.11115
 H395 H 0.56728 0.20233 0.13736
 H396 H 0.43378 0.29813 0.13762
 C397 C 0.00985 0.72041 0.62331
 C398 C 0.01026 0.74228 0.63846
 C399 C 0.03106 0.74959 0.65332
 C400 C 0.05121 0.73499 0.65331
 C401 C 0.05076 0.71328 0.63785
 C402 C 0.03015 0.70603 0.62269
 C403 C -0.01099 0.75758 0.63848
 C404 C -0.03174 0.75029 0.65347
 C405 C -0.05191 0.76491 0.65350
 C406 C -0.05148 0.78662 0.63791
 C407 C -0.03091 0.79382 0.62263
 C408 C -0.01063 0.77943 0.62322
 H409 H -0.00613 0.71478 0.61167
 H410 H 0.03141 0.76643 0.66517
 H411 H -0.03200 0.73345 0.66539
 H412 H 0.00533 0.78504 0.61149
 H413 H 0.06639 0.70203 0.63766
 H414 H -0.06708 0.79793 0.63769
 C415 C 0.48988 0.72045 0.37638
 C416 C 0.48958 0.74231 0.36113
 C417 C 0.46885 0.74967 0.34618
 C418 C 0.44863 0.73513 0.34620
 C419 C 0.44897 0.71343 0.36176
 C420 C 0.46953 0.70614 0.37700
 C421 C 0.51088 0.75756 0.36119
 C422 C 0.53161 0.75031 0.34618
 C423 C 0.55181 0.76488 0.34628
 C424 C 0.55146 0.78649 0.36198
 C425 C 0.53091 0.79367 0.37728
 C426 C 0.51057 0.77933 0.37658
 H427 H 0.50582 0.71480 0.38810
 H428 H 0.46858 0.76650 0.33427
 H429 H 0.53188 0.73355 0.33416
 H430 H 0.49463 0.78491 0.38833
 H431 H 0.43329 0.70223 0.36196
 H432 H 0.56712 0.79771 0.36223
 B433 B -0.02393 0.01434 1.00987
 B434 B -0.03186 0.00726 0.97476
 B435 B -0.01243 0.02907 0.98071
 B436 B 0.00503 0.02192 1.01033
 B437 B -0.00412 -0.00550 1.02253
 B438 B -0.02740 -0.01436 1.00033
 B439 B 0.01148 -0.00981 0.96449
 B440 B 0.01947 -0.00270 0.99956
 B441 B -0.00002 -0.02450 0.99365
 B442 B -0.01745 -0.01734 0.96403
 B443 B -0.00826 0.01005 0.95180
 B444 B 0.01499 0.01894 0.97397
 B445 B 0.47616 0.51466 0.50902
 B446 B 0.46827 0.50748 0.47393
 B447 B 0.48770 0.52929 0.47980
 B448 B 0.50512 0.52222 0.50950
 B449 B 0.49594 0.49485 0.52181
 B450 B 0.47268 0.48593 0.49962
 B451 B 0.51162 0.49035 0.46384
 B452 B 0.51957 0.49756 0.49888
 B453 B 0.50007 0.47576 0.49304
 B454 B 0.48269 0.48284 0.46335
 B455 B 0.49190 0.51018 0.45100
 B456 B 0.51513 0.51913 0.47318
 B457 B 0.52391 0.98478 0.50961
 B458 B 0.53172 0.99201 0.47449
 B459 B 0.51238 0.97012 0.48044
 B460 B 0.49497 0.97710 0.51015
 B461 B 0.50407 1.00451 0.52240
 B462 B 0.52725 1.01353 0.50015
 B463 B 0.48828 1.00897 0.46444
 B464 B 0.48041 1.00171 0.49952
 B465 B 0.49981 1.02359 0.49361
 B466 B 0.51718 1.01660 0.46390
 B467 B 0.50806 0.98923 0.45162
 B468 B 0.48490 0.98017 0.47384
 B469 B 0.02314 0.48514 1.01060
 B470 B 0.03115 0.49245 0.97558
 B471 B 0.01167 0.47064 0.98128
 B472 B -0.00583 0.47762 1.01089
 B473 B 0.00335 0.50494 1.02335
 B474 B 0.02668 0.51391 1.00132
 B475 B -0.01215 0.50967 0.96530
 B476 B -0.02021 0.50234 1.00027
 B477 B -0.00068 0.52414 0.99462
 B478 B 0.01680 0.51715 0.96500
 B479 B 0.00759 0.48986 0.95252
 B480 B -0.01572 0.48086 0.97452
 B481 B 0.02375 0.51468 0.49078
 B482 B 0.03159 0.50731 0.52584
 B483 B 0.01214 0.52912 0.52006
 B484 B -0.00522 0.52219 0.49027
 B485 B 0.00400 0.49490 0.47779
 B486 B 0.02723 0.48590 0.49999
 B487 B -0.01176 0.49003 0.53570
 B488 B -0.01966 0.49744 0.50068
 B489 B -0.00016 0.47563 0.50642
 B490 B 0.01717 0.48257 0.53621
 B491 B 0.00792 0.50983 0.54872
 B492 B -0.01528 0.51886 0.52654
 B493 B 0.52427 0.01484 -0.00893
 B494 B 0.53203 0.00759 0.02620
 B495 B 0.51259 0.02936 0.02023
 B496 B 0.49530 0.02232 -0.00958
 B497 B 0.50457 -0.00500 -0.02188
 B498 B 0.52775 -0.01391 0.00045
 B499 B 0.48867 -0.00968 0.03599
 B500 B 0.48085 -0.00240 0.00090
 B501 B 0.50035 -0.02417 0.00683
 B502 B 0.51761 -0.01712 0.03665
 B503 B 0.50830 0.01017 0.04898
 B504 B 0.48515 0.01911 0.02667
 B505 B 0.47598 0.48557 -0.00990
 B506 B 0.46819 0.49274 0.02523
 B507 B 0.48765 0.47098 0.01927
 B508 B 0.50496 0.47809 -0.01050
 B509 B 0.49569 0.50544 -0.02278
 B510 B 0.47248 0.51430 -0.00049
 B511 B 0.51154 0.51000 0.03512
 B512 B 0.51939 0.50280 0.00004
 B513 B 0.49988 0.52455 0.00596
 B514 B 0.48260 0.51743 0.03573
 B515 B 0.49190 0.49011 0.04805
 B516 B 0.51507 0.48123 0.02578
 B517 B -0.02436 0.98519 0.49024
 B518 B -0.03219 0.99252 0.52530
 B519 B -0.01277 0.97070 0.51954
 B520 B 0.00459 0.97765 0.48975
 B521 B -0.00460 1.00496 0.47726
 B522 B -0.02782 1.01396 0.49944
 B523 B 0.01118 1.00974 0.53517
 B524 B 0.01906 1.00237 0.50016
 B525 B -0.00041 1.02419 0.50587
 B526 B -0.01775 1.01723 0.53566
 B527 B -0.00852 0.98994 0.54819
 B528 B 0.01467 0.98091 0.52603
 B529 B 0.76614 0.22575 0.24009
 B530 B 0.75877 0.21779 0.27511
 B531 B 0.78064 0.23721 0.26944
 B532 B 0.77374 0.25470 0.23974
 B533 B 0.74641 0.24558 0.22720
 B534 B 0.73735 0.22230 0.24928
 B535 B 0.74164 0.26114 0.28519
 B536 B 0.74904 0.26916 0.25021
 B537 B 0.72718 0.24968 0.25584
 B538 B 0.73409 0.23222 0.28555
 B539 B 0.76139 0.24137 0.29811
 B540 B 0.77047 0.26463 0.27606
 B541 B 0.73544 0.77400 0.73982
 B542 B 0.74270 0.78179 0.77492
 B543 B 0.72087 0.76238 0.76903
 B544 B 0.72788 0.74505 0.73927
 B545 B 0.75523 0.75427 0.72693
 B546 B 0.76420 0.77745 0.74918
 B547 B 0.75985 0.73842 0.78485
 B548 B 0.75256 0.73057 0.74979
 B549 B 0.77439 0.75005 0.75565
 B550 B 0.76737 0.76734 0.78541
 B551 B 0.74004 0.75809 0.79778
 B552 B 0.73105 0.73494 0.77555
 B553 B 0.26445 0.27453 0.75999
 B554 B 0.25723 0.28250 0.72492
 B555 B 0.27901 0.26304 0.73074
 B556 B 0.27196 0.24557 0.76039
 B557 B 0.24462 0.25474 0.77276
 B558 B 0.23570 0.27805 0.75062
 B559 B 0.24000 0.23919 0.71474
 B560 B 0.24726 0.23116 0.74976
 B561 B 0.22547 0.25068 0.74399
 B562 B 0.23254 0.26812 0.71433
 B563 B 0.25985 0.25892 0.70194
 B564 B 0.26879 0.23564 0.72405
 B565 B 0.23471 0.72639 0.25961
 B566 B 0.24200 0.71853 0.22455
 B567 B 0.22015 0.73791 0.23033
 B568 B 0.22711 0.75533 0.26003
 B569 B 0.25447 0.74621 0.27246
 B570 B 0.26348 0.72298 0.25032
 B571 B 0.25911 0.76192 0.21448
 B572 B 0.25179 0.76984 0.24949
 B573 B 0.27363 0.75040 0.24375
 B574 B 0.26666 0.73301 0.21405
 B575 B 0.23933 0.74216 0.20159
 B576 B 0.23029 0.76536 0.22371
 B577 B 0.26539 0.72621 0.73971
 B578 B 0.25813 0.71827 0.77477
 B579 B 0.27993 0.73775 0.76897
 B580 B 0.27291 0.75518 0.73927
 B581 B 0.24557 0.74597 0.72686
 B582 B 0.23663 0.72268 0.74902
 B583 B 0.24091 0.76158 0.78484
 B584 B 0.24819 0.76958 0.74981
 B585 B 0.22640 0.75004 0.75558
 B586 B 0.23344 0.73264 0.78529
 B587 B 0.26074 0.74188 0.79772
 B588 B 0.26971 0.76515 0.77558
 B589 B 0.23541 0.27383 0.24078
 B590 B 0.24266 0.28166 0.27587
 B591 B 0.22084 0.26222 0.27001
 B592 B 0.22786 0.24486 0.24029
 B593 B 0.25521 0.25408 0.22793
 B594 B 0.26416 0.27730 0.25014
 B595 B 0.25984 0.23830 0.28588
 B596 B 0.25255 0.23041 0.25084
 B597 B 0.27436 0.24990 0.25666
 B598 B 0.26734 0.26723 0.28639
 B599 B 0.24002 0.25798 0.29877
 B600 B 0.23103 0.23480 0.27659
 B601 B 0.76571 0.77440 0.25923
 B602 B 0.75841 0.78231 0.22416
 B603 B 0.78022 0.76287 0.22996
 B604 B 0.77324 0.74545 0.25968
 B605 B 0.74592 0.75462 0.27211
 B606 B 0.73694 0.77788 0.24995
 B607 B 0.74119 0.73897 0.21416
 B608 B 0.74853 0.73100 0.24918
 B609 B 0.72672 0.75049 0.24343
 B610 B 0.73371 0.76790 0.21370
 B611 B 0.76100 0.75869 0.20124
 B612 B 0.77001 0.73546 0.22338
 B613 B 0.73407 0.22593 0.76073
 B614 B 0.74134 0.21825 0.72560
 B615 B 0.71948 0.23759 0.73157
 B616 B 0.72647 0.25486 0.76140
 B617 B 0.75383 0.24568 0.77372
 B618 B 0.76283 0.22257 0.75137
 B619 B 0.75843 0.26169 0.71587
 B620 B 0.75113 0.26942 0.75095
 B621 B 0.77298 0.25002 0.74502
 B622 B 0.76598 0.23278 0.71519
 B623 B 0.73865 0.24200 0.70285
 B624 B 0.72962 0.26508 0.72516
 C625 C 0.36418 1.03503 0.32341
 C626 C 0.37924 1.03620 0.34268
 C627 C 0.39800 1.03672 0.36468
 C628 C 0.39313 1.03227 0.39519
 C629 C 0.41179 1.03010 0.41585
 C630 C 0.43535 1.03238 0.40605
 C631 C 0.44017 1.03761 0.37575
 C632 C 0.42152 1.03981 0.35512
 C633 C 0.45447 1.02652 0.42619
 C634 C 0.46997 1.01996 0.44294
 H635 H 0.37501 1.02970 0.40279
 H636 H 0.40791 1.02579 0.43919
 H637 H 0.45833 1.03911 0.36789
 H638 H 0.42548 1.04309 0.33154
 C639 C -0.13557 0.53585 0.82351
 C640 C -0.12058 0.53709 0.84287
 C641 C -0.10192 0.53769 0.86500
 C642 C -0.10692 0.53328 0.89549
 C643 C -0.08834 0.53112 0.91628
 C644 C -0.06474 0.53336 0.90662
 C645 C -0.05980 0.53857 0.87636
 C646 C -0.07836 0.54076 0.85559
 C647 C -0.04572 0.52745 0.92688
 C648 C -0.03031 0.52080 0.94371
 H649 H -0.12507 0.53072 0.90297
 H650 H -0.09233 0.52682 0.93959
 H651 H -0.04160 0.54004 0.86861
 H652 H -0.07430 0.54401 0.83203
 C653 C 0.13489 -0.03584 0.82269
 C654 C 0.11991 -0.03705 0.84204
 C655 C 0.10125 -0.03760 0.86416
 C656 C 0.07767 -0.04059 0.85474
 C657 C 0.05913 -0.03839 0.87550
 C658 C 0.06409 -0.03324 0.90577
 C659 C 0.08771 -0.03106 0.91543
 C660 C 0.10627 -0.03324 0.89464
 C661 C 0.04509 -0.02737 0.92603
 C662 C 0.02968 -0.02079 0.94288
 H663 H 0.07360 -0.04381 0.83118
 H664 H 0.04093 -0.03982 0.86775
 H665 H 0.09170 -0.02681 0.93874
 H666 H 0.12442 -0.03074 0.90212
 C667 C 0.63579 0.46389 0.32326
 C668 C 0.62067 0.46270 0.34244
 C669 C 0.60185 0.46220 0.36436
 C670 C 0.60669 0.46642 0.39492
 C671 C 0.58799 0.46866 0.41550
 C672 C 0.56444 0.46668 0.40556
 C673 C 0.55965 0.46167 0.37521
 C674 C 0.57833 0.45940 0.35466
 C675 C 0.54534 0.47264 0.42564
 C676 C 0.52986 0.47929 0.44234
 H677 H 0.62481 0.46877 0.40262
 H678 H 0.59186 0.47281 0.43888
 H679 H 0.54150 0.46040 0.36725
 H680 H 0.57440 0.45629 0.33103
 C681 C 0.63586 0.53607 0.17565
 C682 C 0.62076 0.53730 0.15645
 C683 C 0.60194 0.53790 0.13452
 C684 C 0.60675 0.53360 0.10397
 C685 C 0.58804 0.53145 0.08338
 C686 C 0.56450 0.53361 0.09329
 C687 C 0.55975 0.53870 0.12362
 C688 C 0.57844 0.54087 0.14419
 C689 C 0.54535 0.52771 0.07323
 C690 C 0.52984 0.52109 0.05655
 H691 H 0.62485 0.53111 0.09629
 H692 H 0.59187 0.52724 0.06001
 H693 H 0.54160 0.54011 0.13157
 H694 H 0.57454 0.54404 0.16780
 C695 C 0.13526 1.03614 0.67596
 C696 C 0.12021 1.03736 0.65667
 C697 C 0.10146 1.03791 0.63464
 C698 C 0.10633 1.03333 0.60418
 C699 C 0.08766 1.03112 0.58353
 C700 C 0.06410 1.03349 0.59331
 C701 C 0.05930 1.03887 0.62355
 C702 C 0.07795 1.04110 0.64417
 C703 C 0.04498 1.02755 0.57323
 C704 C 0.02948 1.02088 0.55656
 H705 H 0.12443 1.03067 0.59662
 H706 H 0.09153 1.02669 0.56024
 H707 H 0.04114 1.04045 0.63139
 H708 H 0.07400 1.04449 0.66772
 C709 C -0.13534 0.46352 0.67703
 C710 C -0.12039 0.46227 0.65765
 C711 C -0.10175 0.46169 0.63550
 C712 C -0.10672 0.46647 0.60509
 C713 C -0.08813 0.46869 0.58434
 C714 C -0.06455 0.46614 0.59395
 C715 C -0.05964 0.46056 0.62412
 C716 C -0.07822 0.45831 0.64485
 C717 C -0.04549 0.47213 0.57381
 C718 C -0.03002 0.47884 0.55710
 H719 H -0.12484 0.46928 0.59766
 H720 H -0.09208 0.47329 0.56110
 H721 H -0.04146 0.45884 0.63185
 H722 H -0.07418 0.45477 0.66836
 C723 C 0.36459 -0.03645 0.17666
 C724 C 0.37964 -0.03759 0.15740
 C725 C 0.39839 -0.03806 0.13539
 C726 C 0.39352 -0.03345 0.10492
 C727 C 0.41219 -0.03118 0.08429
 C728 C 0.43575 -0.03352 0.09410
 C729 C 0.44056 -0.03892 0.12435
 C730 C 0.42191 -0.04122 0.14495
 C731 C 0.45487 -0.02752 0.07404
 C732 C 0.47037 -0.02083 0.05737
 H733 H 0.37542 -0.03082 0.09734
 H734 H 0.40832 -0.02673 0.06099
 H735 H 0.45872 -0.04047 0.13221
 H736 H 0.42586 -0.04462 0.16851
 C737 C 0.31090 0.43522 0.05377
 C738 C 0.33025 0.44426 0.05537
 C739 C 0.35341 0.45500 0.05529
 C740 C 0.37248 0.44379 0.06980
 C741 C 0.39546 0.45296 0.06680
 C742 C 0.39939 0.47334 0.04931
 C743 C 0.38024 0.48485 0.03544
 C744 C 0.35729 0.47571 0.03845
 C745 C 0.42319 0.48108 0.04309
 C746 C 0.44306 0.48684 0.03632
 H747 H 0.36970 0.42763 0.08262
 H748 H 0.41021 0.44378 0.07732
 H749 H 0.38314 0.50043 0.02153
 H750 H 0.34270 0.48436 0.02689
 C751 C -0.18978 0.93558 0.55202
 C752 C -0.17042 0.94457 0.55395
 C753 C -0.14723 0.95523 0.55428
 C754 C -0.12829 0.94381 0.56878
 C755 C -0.10526 0.95290 0.56612
 C756 C -0.10115 0.97342 0.54896
 C757 C -0.12018 0.98515 0.53511
 C758 C -0.14318 0.97608 0.53780
 C759 C -0.07729 0.98106 0.54297
 C760 C -0.05736 0.98674 0.53632
 H761 H -0.13120 0.92754 0.58132
 H762 H -0.09060 0.94355 0.57659
 H763 H -0.11713 1.00084 0.52146
 H764 H -0.15767 0.98490 0.52624
 C765 C -0.18938 0.06441 0.94829
 C766 C -0.17005 0.05539 0.94641
 C767 C -0.14689 0.04470 0.94612
 C768 C -0.14284 0.02396 0.96284
 C769 C -0.11986 0.01487 0.96551
 C770 C -0.10085 0.02646 0.95141
 C771 C -0.10495 0.04686 0.93403
 C772 C -0.12796 0.05597 0.93138
 C773 C -0.07699 0.01880 0.95733
 C774 C -0.05705 0.01310 0.96388
 H775 H -0.15731 0.01526 0.97458
 H776 H -0.11680 -0.00072 0.97933
 H777 H -0.09031 0.05610 0.92335
 H778 H -0.13088 0.07215 0.91865
 C779 C 0.31066 0.56426 0.44687
 C780 C 0.33002 0.55530 0.44506
 C781 C 0.35322 0.54468 0.44485
 C782 C 0.35728 0.52394 0.46157
 C783 C 0.38028 0.51492 0.46433
 C784 C 0.39930 0.52657 0.45033
 C785 C 0.39518 0.54696 0.43297
 C786 C 0.37215 0.55602 0.43022
 C787 C 0.42316 0.51895 0.45634
 C788 C 0.44309 0.51328 0.46297
 H789 H 0.34280 0.51519 0.47324
 H790 H 0.38334 0.49932 0.47815
 H791 H 0.40983 0.55625 0.42236
 H792 H 0.36923 0.57220 0.41750
 C793 C 0.18917 0.56424 0.55281
 C794 C 0.16980 0.55526 0.55469
 C795 C 0.14661 0.54461 0.55495
 C796 C 0.12766 0.55599 0.56944
 C797 C 0.10463 0.54690 0.56674
 C798 C 0.10053 0.52643 0.54955
 C799 C 0.11956 0.51474 0.53571
 C800 C 0.14256 0.52380 0.53843
 C801 C 0.07667 0.51879 0.54354
 C802 C 0.05675 0.51311 0.53688
 H803 H 0.13057 0.57222 0.58202
 H804 H 0.08997 0.55623 0.57721
 H805 H 0.11652 0.49908 0.52203
 H806 H 0.15706 0.51501 0.52687
 C807 C 0.68939 0.06472 0.05454
 C808 C 0.67004 0.05572 0.05633
 C809 C 0.64687 0.04502 0.05642
 C810 C 0.64295 0.02418 0.03988
 C811 C 0.61998 0.01511 0.03690
 C812 C 0.60084 0.02680 0.05048
 C813 C 0.60480 0.04729 0.06769
 C814 C 0.62780 0.05640 0.07066
 C815 C 0.57703 0.01914 0.04420
 C816 C 0.55715 0.01343 0.03737
 H817 H 0.65754 0.01540 0.02851
 H818 H 0.61705 -0.00057 0.02321
 H819 H 0.59006 0.05662 0.07798
 H820 H 0.63060 0.07266 0.08323
 C821 C 0.68948 0.93580 0.44689
 C822 C 0.67008 0.94469 0.44516
 C823 C 0.64684 0.95523 0.44508
 C824 C 0.62791 0.94389 0.43046
 C825 C 0.60486 0.95286 0.43330
 C826 C 0.60071 0.97318 0.45075
 C827 C 0.61972 0.98483 0.46475
 C828 C 0.64275 0.97589 0.46189
 C829 C 0.57684 0.98071 0.45683
 C830 C 0.55690 0.98631 0.46350
 H831 H 0.63086 0.92777 0.41767
 H832 H 0.59021 0.94357 0.42270
 H833 H 0.61665 1.00036 0.47863
 H834 H 0.65723 0.98464 0.47355
 C835 C 0.18874 0.43533 0.94910
 C836 C 0.16939 0.44432 0.94738
 C837 C 0.14621 0.45499 0.94721
 C838 C 0.14214 0.47557 0.96417
 C839 C 0.11916 0.48467 0.96682
 C840 C 0.10017 0.47324 0.95248
 C841 C 0.10430 0.45299 0.93490
 C842 C 0.12731 0.44387 0.93226
 C843 C 0.07631 0.48092 0.95831
 C844 C 0.05636 0.48663 0.96478
 H845 H 0.15659 0.48416 0.97607
 H846 H 0.11609 0.50015 0.98080
 H847 H 0.08968 0.44387 0.92403
 H848 H 0.13024 0.42781 0.91934
 C849 C 0.00796 0.32191 0.41963
 C850 C 0.00287 0.33973 0.43330
 C851 C -0.00222 0.36138 0.44940
 C852 C -0.01638 0.37899 0.43610
 C853 C -0.01913 0.40103 0.45027
 C854 C -0.00777 0.40556 0.47785
 C855 C 0.00574 0.38768 0.49162
 C856 C 0.00848 0.36565 0.47746
 C857 C -0.00733 0.42933 0.48985
 C858 C -0.00536 0.44956 0.49842
 H859 H -0.02462 0.37597 0.41432
 H860 H -0.02934 0.41482 0.43919
 H861 H 0.01490 0.39108 0.51271
 H862 H 0.01960 0.35224 0.48788
 C863 C 0.50858 -0.17780 -0.08010
 C864 C 0.50351 -0.16001 -0.06635
 C865 C 0.49843 -0.13840 -0.05015
 C866 C 0.48399 -0.12091 -0.06319
 C867 C 0.48122 -0.09889 -0.04896
 C868 C 0.49284 -0.09428 -0.02158
 C869 C 0.50664 -0.11205 -0.00805
 C870 C 0.50940 -0.13406 -0.02228
 C871 C 0.49324 -0.07051 -0.00959
 C872 C 0.49518 -0.05027 -0.00107
 H873 H 0.47554 -0.12399 -0.08482
 H874 H 0.47078 -0.08518 -0.05986
 H875 H 0.51599 -0.10859 0.01287
 H876 H 0.52073 -0.14738 -0.01205
 C877 C -0.00826 -0.17831 1.08004
 C878 C -0.00310 -0.16053 1.06627
 C879 C 0.00206 -0.13892 1.05006
 C880 C -0.00891 -0.13449 1.02221
 C881 C -0.00613 -0.11245 1.00803
 C882 C 0.00769 -0.09472 1.02159
 C883 C 0.01934 -0.09942 1.04894
 C884 C 0.01655 -0.12147 1.06313
 C885 C 0.00725 -0.07090 1.00973
 C886 C 0.00524 -0.05062 1.00134
 H887 H -0.02028 -0.14777 1.01198
 H888 H -0.01551 -0.10891 0.98714
 H889 H 0.02979 -0.08574 1.05986
 H890 H 0.02500 -0.12462 1.08475
 C891 C 0.49167 0.32216 0.58001
 C892 C 0.49685 0.33991 0.56620
 C893 C 0.50204 0.36149 0.54993
 C894 C 0.51647 0.37897 0.56299
 C895 C 0.51930 0.40099 0.54873
 C896 C 0.50773 0.40562 0.52131
 C897 C 0.49395 0.38785 0.50776
 C898 C 0.49114 0.36583 0.52201
 C899 C 0.50730 0.42941 0.50935
 C900 C 0.50531 0.44966 0.50087
 H901 H 0.52487 0.37589 0.58467
 H902 H 0.52971 0.41470 0.55965
 H903 H 0.48464 0.39132 0.48680
 H904 H 0.47982 0.35252 0.51178
 C905 C 0.50728 1.17717 0.58047
 C906 C 0.50223 1.15940 0.56667
 C907 C 0.49719 1.13780 0.55042
 C908 C 0.50817 1.13354 0.52254
 C909 C 0.50551 1.11153 0.50831
 C910 C 0.49181 1.09367 0.52183
 C911 C 0.48017 1.09820 0.54919
 C912 C 0.48284 1.12022 0.56345
 C913 C 0.49237 1.06990 0.50987
 C914 C 0.49446 1.04966 0.50140
 H915 H 0.51944 1.14693 0.51234
 H916 H 0.51488 1.10813 0.48739
 H917 H 0.46981 1.08442 0.56009
 H918 H 0.47439 1.12323 0.58509
 C919 C 0.00783 0.67774 1.08145
 C920 C 0.00266 0.65994 1.06774
 C921 C -0.00252 0.63834 1.05158
 C922 C 0.00819 0.63407 1.02354
 C923 C 0.00537 0.61207 1.00933
 C924 C -0.00824 0.59422 1.02303
 C925 C -0.01961 0.59876 1.05058
 C926 C -0.01678 0.62077 1.06481
 C927 C -0.00785 0.57046 1.01103
 C928 C -0.00589 0.55022 1.00251
 H929 H 0.01938 0.64745 1.01317
 H930 H 0.01454 0.60866 0.98826
 H931 H -0.02990 0.58499 1.06162
 H932 H -0.02503 0.62379 1.08657
 C933 C 0.49179 0.67831 -0.08104
 C934 C 0.49687 0.66051 -0.06726
 C935 C 0.50193 0.63888 -0.05103
 C936 C 0.51637 0.62139 -0.06403
 C937 C 0.51911 0.59936 -0.04978
 C938 C 0.50745 0.59471 -0.02243
 C939 C 0.49364 0.61247 -0.00895
 C940 C 0.49092 0.63450 -0.02319
 C941 C 0.50702 0.57092 -0.01044
 C942 C 0.50505 0.55067 -0.00192
 H943 H 0.52485 0.62450 -0.08564
 H944 H 0.52956 0.58566 -0.06064
 H945 H 0.48426 0.60898 0.01195
 H946 H 0.47958 0.64781 -0.01301
 C947 C -0.00860 1.17789 0.41863
 C948 C -0.00349 1.16006 0.43236
 C949 C 0.00161 1.13842 0.44854
 C950 C -0.00909 1.13416 0.47660
 C951 C -0.00633 1.11213 0.49085
 C952 C 0.00720 1.09426 0.47715
 C953 C 0.01856 1.09880 0.44957
 C954 C 0.01579 1.12083 0.43532
 C955 C 0.00678 1.07050 0.48923
 C956 C 0.00481 1.05027 0.49784
 H957 H -0.02023 1.14755 0.48697
 H958 H -0.01549 1.10874 0.51193
 H959 H 0.02879 1.08501 0.43855
 H960 H 0.02403 1.12385 0.41354
 C961 C 0.78516 0.61441 0.92611
 C962 C 0.78651 0.62942 0.90678
 C963 C 0.78725 0.64813 0.88470
 C964 C 0.78280 0.64325 0.85421
 C965 C 0.78079 0.66191 0.83348
 C966 C 0.78324 0.68546 0.84322
 C967 C 0.78850 0.69027 0.87350
 C968 C 0.79053 0.67164 0.89419
 C969 C 0.77746 0.70459 0.82305
 C970 C 0.77091 0.72010 0.80631
 H971 H 0.78008 0.62516 0.84667
 H972 H 0.77645 0.65803 0.81016
 H973 H 0.79012 0.70843 0.88131
 H974 H 0.79382 0.67560 0.91776
 C975 C 0.28596 0.11456 0.42731
 C976 C 0.28723 0.12957 0.40797
 C977 C 0.28784 0.14826 0.38585
 C978 C 0.28329 0.14331 0.35539
 C979 C 0.28113 0.16193 0.33464
 C980 C 0.28350 0.18550 0.34431
 C981 C 0.28885 0.19039 0.37454
 C982 C 0.29105 0.17179 0.39527
 C983 C 0.27758 0.20457 0.32412
 C984 C 0.27094 0.22004 0.30737
 H985 H 0.28063 0.12519 0.34791
 H986 H 0.27671 0.15799 0.31135
 H987 H 0.29043 0.20856 0.38230
 H988 H 0.29441 0.17580 0.41881
 C989 C 0.71381 0.38498 0.42582
 C990 C 0.71285 0.36991 0.40657
 C991 C 0.71262 0.35115 0.38459
 C992 C 0.71724 0.35607 0.35413
 C993 C 0.71971 0.33742 0.33353
 C994 C 0.71758 0.31384 0.34335
 C995 C 0.71218 0.30898 0.37358
 C996 C 0.70968 0.32761 0.39416
 C997 C 0.72371 0.29479 0.32330
 C998 C 0.73047 0.27935 0.30663
 H999 H 0.71970 0.37420 0.34654
 H1000 H 0.72415 0.34134 0.31024
 H1001 H 0.71078 0.29081 0.38146
 H1002 H 0.70626 0.32362 0.41770
 C1003 C 0.21441 0.88499 0.92635
 C1004 C 0.21323 0.87002 0.90698
 C1005 C 0.21272 0.85138 0.88484
 C1006 C 0.21736 0.85640 0.85442
 C1007 C 0.21959 0.83783 0.83366
 C1008 C 0.21718 0.81423 0.84328
 C1009 C 0.21175 0.80928 0.87348
 C1010 C 0.20949 0.82783 0.89422
 C1011 C 0.22313 0.79521 0.82310
 C1012 C 0.22979 0.77979 0.80633
 H1013 H 0.22004 0.87454 0.84697
 H1014 H 0.22406 0.84182 0.81040
 H1015 H 0.21014 0.79109 0.88121
 H1016 H 0.20606 0.82376 0.91774
 C1017 C 0.28579 0.88513 0.07235
 C1018 C 0.28693 0.87022 0.09183
 C1019 C 0.28739 0.85164 0.11409
 C1020 C 0.28262 0.85672 0.14445
 C1021 C 0.28035 0.83820 0.16533
 C1022 C 0.28285 0.81458 0.15588
 C1023 C 0.28841 0.80957 0.12575
 C1024 C 0.29071 0.82807 0.10490
 C1025 C 0.27687 0.79559 0.17615
 C1026 C 0.27020 0.78017 0.19296
 H1027 H 0.27987 0.87487 0.15176
 H1028 H 0.27577 0.84223 0.18853
 H1029 H 0.29009 0.79137 0.11815
 H1030 H 0.29425 0.82396 0.08143
 C1031 C 0.78488 0.38560 0.57465
 C1032 C 0.78601 0.37063 0.59404
 C1033 C 0.78650 0.35195 0.61617
 C1034 C 0.78168 0.35687 0.64657
 C1035 C 0.77946 0.33825 0.66730
 C1036 C 0.78205 0.31468 0.65768
 C1037 C 0.78765 0.30983 0.62752
 C1038 C 0.78990 0.32843 0.60681
 C1039 C 0.77612 0.29558 0.67780
 C1040 C 0.76949 0.28006 0.69449
 H1041 H 0.77887 0.37498 0.65400
 H1042 H 0.77485 0.34216 0.69052
 H1043 H 0.78940 0.29166 0.61979
 H1044 H 0.79347 0.32444 0.58332
 C1045 C 0.21377 0.11541 0.57367
 C1046 C 0.21255 0.13046 0.59291
 C1047 C 0.21198 0.14921 0.61491
 C1048 C 0.20910 0.17275 0.60531
 C1049 C 0.21129 0.19136 0.62595
 C1050 C 0.21633 0.18650 0.65629
 C1051 C 0.21839 0.16292 0.66612
 C1052 C 0.21622 0.14428 0.64545
 C1053 C 0.22225 0.20555 0.67644
 C1054 C 0.22889 0.22099 0.69321
 H1055 H 0.20597 0.17674 0.58169
 H1056 H 0.20996 0.20953 0.61806
 H1057 H 0.22256 0.15900 0.68949
 H1058 H 0.21863 0.12615 0.65308
 C1059 C 0.71348 0.61544 0.07302
 C1060 C 0.71249 0.63043 0.09236
 C1061 C 0.71221 0.64910 0.11446
 C1062 C 0.70908 0.67266 0.10506
 C1063 C 0.71156 0.69123 0.12573
 C1064 C 0.71713 0.68629 0.15589
 C1065 C 0.71946 0.66269 0.16556
 C1066 C 0.71700 0.64411 0.14486
 C1067 C 0.72326 0.70532 0.17600
 C1068 C 0.73002 0.72074 0.19271
 H1069 H 0.70553 0.67671 0.08156
 H1070 H 0.71001 0.70942 0.11797
 H1071 H 0.72403 0.65872 0.18879
 H1072 H 0.71961 0.62597 0.15233
 C1073 C 0.18538 0.56084 0.19773
 C1074 C 0.19433 0.58021 0.19589
 C1075 C 0.20495 0.60342 0.19567
 C1076 C 0.19369 0.62231 0.18087
 C1077 C 0.20273 0.64535 0.18357
 C1078 C 0.22304 0.64952 0.20106
 C1079 C 0.23462 0.63055 0.21524
 C1080 C 0.22560 0.60753 0.21252
 C1081 C 0.23062 0.67340 0.20702
 C1082 C 0.23626 0.69334 0.21361
 H1083 H 0.17757 0.61934 0.16804
 H1084 H 0.19349 0.65997 0.17282
 H1085 H 0.25014 0.63364 0.22916
 H1086 H 0.23430 0.59308 0.22432
 C1087 C 0.68451 0.06083 0.69690
 C1088 C 0.69350 0.08020 0.69526
 C1089 C 0.70417 0.10338 0.69531
 C1090 C 0.72481 0.10734 0.71225
 C1091 C 0.73385 0.13032 0.71528
 C1092 C 0.72232 0.14942 0.70133
 C1093 C 0.70202 0.14541 0.68374
 C1094 C 0.69294 0.12241 0.68073
 C1095 C 0.72992 0.17324 0.70760
 C1096 C 0.73558 0.19313 0.71443
 H1097 H 0.73347 0.09278 0.72387
 H1098 H 0.74937 0.13328 0.72926
 H1099 H 0.69282 0.16013 0.67316
 H1100 H 0.67683 0.11957 0.66784
 C1101 C 0.81520 0.05992 0.30116
 C1102 C 0.80630 0.07932 0.30300
 C1103 C 0.79575 0.10254 0.30331
 C1104 C 0.80710 0.12137 0.31813
 C1105 C 0.79809 0.14443 0.31558
 C1106 C 0.77771 0.14869 0.29824
 C1107 C 0.76606 0.12978 0.28404
 C1108 C 0.77505 0.10675 0.28660
 C1109 C 0.77013 0.17260 0.29246
 C1110 C 0.76450 0.19257 0.28598
 H1111 H 0.82326 0.11834 0.33085
 H1112 H 0.80739 0.15899 0.32633
 H1113 H 0.75048 0.13294 0.27023
 H1114 H 0.76628 0.09235 0.27480
 C1115 C 0.31557 0.56079 0.80083
 C1116 C 0.30655 0.58012 0.80268
 C1117 C 0.29582 0.60327 0.80299
 C1118 C 0.27519 0.60735 0.78610
 C1119 C 0.26603 0.63031 0.78355
 C1120 C 0.27745 0.64928 0.79794
 C1121 C 0.29775 0.64513 0.81546
 C1122 C 0.30694 0.62214 0.81799
 C1123 C 0.26972 0.67314 0.79215
 C1124 C 0.26398 0.69308 0.78567
 H1125 H 0.26660 0.59292 0.77415
 H1126 H 0.25051 0.63339 0.76960
 H1127 H 0.30687 0.65974 0.82636
 H1128 H 0.32304 0.61920 0.83086
 C1129 C 0.31485 0.43982 0.69668
 C1130 C 0.30577 0.42049 0.69513
 C1131 C 0.29500 0.39735 0.69523
 C1132 C 0.30605 0.37832 0.68050
 C1133 C 0.29686 0.35536 0.68347
 C1134 C 0.27661 0.35139 0.70116
 C1135 C 0.26525 0.37050 0.71528
 C1136 C 0.27441 0.39344 0.71229
 C1137 C 0.26885 0.32758 0.70730
 C1138 C 0.26309 0.30768 0.71398
 H1139 H 0.32211 0.38113 0.66751
 H1140 H 0.30592 0.34064 0.67277
 H1141 H 0.24977 0.36756 0.72933
 H1142 H 0.26588 0.40799 0.72402
 C1143 C 0.81530 0.93997 0.19711
 C1144 C 0.80635 0.92059 0.19531
 C1145 C 0.79572 0.89738 0.19511
 C1146 C 0.77489 0.89333 0.21161
 C1147 C 0.76584 0.87033 0.21436
 C1148 C 0.77757 0.85129 0.20057
 C1149 C 0.79808 0.85540 0.18342
 C1150 C 0.80715 0.87843 0.18069
 C1151 C 0.76991 0.82743 0.20657
 C1152 C 0.76422 0.80750 0.21319
 H1153 H 0.76606 0.90783 0.22311
 H1154 H 0.75016 0.86728 0.22801
 H1155 H 0.80743 0.84074 0.17299
 H1156 H 0.82341 0.88135 0.16814
 C1157 C 0.68509 0.93900 0.80210
 C1158 C 0.69419 0.91970 0.80386
 C1159 C 0.70498 0.89659 0.80402
 C1160 C 0.69394 0.87761 0.81892
 C1161 C 0.70315 0.85465 0.81620
 C1162 C 0.72342 0.85065 0.79858
 C1163 C 0.73478 0.86971 0.78430
 C1164 C 0.72559 0.89265 0.78704
 C1165 C 0.73115 0.82683 0.79258
 C1166 C 0.73689 0.80693 0.78595
 H1167 H 0.67786 0.88044 0.83185
 H1168 H 0.69408 0.83996 0.82702
 H1169 H 0.75027 0.86674 0.77028
 H1170 H 0.73412 0.90716 0.77517
 C1171 C 0.18570 0.43911 0.30338
 C1172 C 0.19469 0.41975 0.30514
 C1173 C 0.20534 0.39657 0.30526
 C1174 C 0.22610 0.39260 0.28859
 C1175 C 0.23516 0.36962 0.28576
 C1176 C 0.22352 0.35054 0.29963
 C1177 C 0.20309 0.35457 0.31695
 C1178 C 0.19401 0.37757 0.31977
 C1179 C 0.23117 0.32671 0.29355
 C1180 C 0.23685 0.30680 0.28688
 H1181 H 0.23485 0.40713 0.27702
 H1182 H 0.25077 0.36664 0.27198
 H1183 H 0.19381 0.33987 0.32746
 H1184 H 0.17781 0.38042 0.33245
 C1185 C 0.07186 0.25828 0.83106
 C1186 C 0.08964 0.25325 0.81725
 C1187 C 0.11124 0.24825 0.80098
 C1188 C 0.12877 0.23381 0.81394
 C1189 C 0.15079 0.23114 0.79966
 C1190 C 0.15537 0.24286 0.77233
 C1191 C 0.13755 0.25665 0.75888
 C1192 C 0.11554 0.25931 0.77314
 C1193 C 0.17914 0.24338 0.76034
 C1194 C 0.19938 0.24542 0.75184
 H1195 H 0.12572 0.22529 0.83555
 H1196 H 0.16453 0.22071 0.81050
 H1197 H 0.14099 0.26608 0.73799
 H1198 H 0.10219 0.27064 0.76299
 C1199 C 0.57283 0.75800 0.32990
 C1200 C 0.59067 0.75297 0.31622
 C1201 C 0.61235 0.74796 0.30011
 C1202 C 0.61666 0.75881 0.27214
 C1203 C 0.63873 0.75618 0.25801
 C1204 C 0.65659 0.74262 0.27174
 C1205 C 0.65202 0.73111 0.29921
 C1206 C 0.62994 0.73376 0.31335
 C1207 C 0.68039 0.74317 0.25982
 C1208 C 0.70064 0.74522 0.25133
 H1209 H 0.60326 0.76997 0.26177
 H1210 H 0.64216 0.76545 0.23701
 H1211 H 0.66580 0.72086 0.31026
 H1212 H 0.62689 0.72541 0.33506
 C1213 C 0.57322 0.24219 0.16933
 C1214 C 0.59110 0.24723 0.18296
 C1215 C 0.61281 0.25223 0.19903
 C1216 C 0.61707 0.24152 0.22709
 C1217 C 0.63915 0.24416 0.24121
 C1218 C 0.65708 0.25758 0.22738
 C1219 C 0.65256 0.26895 0.19980
 C1220 C 0.63047 0.26630 0.18566
 C1221 C 0.68087 0.25703 0.23934
 C1222 C 0.70111 0.25497 0.24787
 H1223 H 0.60362 0.23047 0.23756
 H1224 H 0.64254 0.23500 0.26231
 H1225 H 0.66638 0.27909 0.18867
 H1226 H 0.62745 0.27454 0.16388
 C1227 C 0.07230 0.74193 0.66956
 C1228 C 0.09018 0.74703 0.68314
 C1229 C 0.11191 0.75212 0.69913
 C1230 C 0.11629 0.74139 0.72717
 C1231 C 0.13838 0.74413 0.74122
 C1232 C 0.15621 0.75766 0.72736
 C1233 C 0.15157 0.76904 0.69981
 C1234 C 0.12947 0.76629 0.68574
 C1235 C 0.18003 0.75722 0.73924
 C1236 C 0.20030 0.75525 0.74770
 H1237 H 0.10292 0.73026 0.73765
 H1238 H 0.14186 0.73496 0.76228
 H1239 H 0.16532 0.77926 0.68866
 H1240 H 0.12637 0.77454 0.66399
 C1241 C 0.92819 0.75836 0.66900
 C1242 C 0.91036 0.75321 0.68270
 C1243 C 0.88872 0.74807 0.69883
 C1244 C 0.87115 0.73383 0.68560
 C1245 C 0.84910 0.73104 0.69978
 C1246 C 0.84452 0.74246 0.72728
 C1247 C 0.86236 0.75606 0.74099
 C1248 C 0.88440 0.75883 0.72682
 C1249 C 0.82073 0.74287 0.73924
 C1250 C 0.80048 0.74483 0.74775
 H1251 H 0.87421 0.72555 0.66387
 H1252 H 0.83534 0.72076 0.68874
 H1253 H 0.85892 0.76525 0.76202
 H1254 H 0.89777 0.77002 0.73719
 C1255 C 0.42807 0.25827 0.16980
 C1256 C 0.41027 0.25315 0.18355
 C1257 C 0.38864 0.24802 0.19973
 C1258 C 0.37111 0.23368 0.18659
 C1259 C 0.34908 0.23087 0.20081
 C1260 C 0.34448 0.24236 0.22827
 C1261 C 0.36230 0.25606 0.24188
 C1262 C 0.38432 0.25885 0.22767
 C1263 C 0.32071 0.24276 0.24025
 C1264 C 0.30046 0.24470 0.24877
 H1265 H 0.37417 0.22534 0.16490
 H1266 H 0.33534 0.22052 0.18985
 H1267 H 0.35885 0.26531 0.26286
 H1268 H 0.39767 0.27010 0.23796
 C1269 C 0.42759 0.74214 0.32990
 C1270 C 0.40975 0.74731 0.31629
 C1271 C 0.38806 0.75248 0.30026
 C1272 C 0.38371 0.74187 0.27217
 C1273 C 0.36163 0.74466 0.25809
 C1274 C 0.34379 0.75812 0.27199
 C1275 C 0.34841 0.76938 0.29959
 C1276 C 0.37050 0.76658 0.31368
 C1277 C 0.31998 0.75768 0.26010
 C1278 C 0.29972 0.75568 0.25164
 H1279 H 0.39708 0.73080 0.26166
 H1280 H 0.35817 0.73558 0.23699
 H1281 H 0.33465 0.77955 0.31076
 H1282 H 0.37358 0.77474 0.33548
 C1283 C 0.92682 0.24199 0.83158
 C1284 C 0.90898 0.24709 0.81791
 C1285 C 0.88732 0.25219 0.80180
 C1286 C 0.86975 0.26639 0.81507
 C1287 C 0.84769 0.26914 0.80091
 C1288 C 0.84310 0.25775 0.77339
 C1289 C 0.86094 0.24420 0.75964
 C1290 C 0.88299 0.24145 0.77379
 C1291 C 0.81931 0.25729 0.76144
 C1292 C 0.79906 0.25528 0.75294
 H1293 H 0.87282 0.27465 0.83681
 H1294 H 0.83393 0.27938 0.81197
 H1295 H 0.85749 0.23502 0.73860
 H1296 H 0.89636 0.23031 0.76340
 C1297 C 0.63887 0.99385 0.65906
 C1298 C 0.62651 0.98554 0.63950
 C1299 C 0.61062 0.97702 0.61647
 C1300 C 0.58785 0.96920 0.62451
 C1301 C 0.57077 0.96508 0.60218
 C1302 C 0.57644 0.96870 0.57173
 C1303 C 0.59959 0.97526 0.56359
 C1304 C 0.61666 0.97941 0.58593
 C1305 C 0.55774 0.97041 0.54974
 C1306 C 0.54232 0.97469 0.53171
 H1307 H 0.58291 0.96754 0.64807
 H1308 H 0.55281 0.96049 0.60877
 H1309 H 0.60404 0.97856 0.54015
 H1310 H 0.63413 0.98569 0.57947
 C1311 C 0.13884 0.49324 1.15914
 C1312 C 0.12629 0.48500 1.13973
 C1313 C 0.11017 0.47659 1.11691
 C1314 C 0.08733 0.46914 1.12519
 C1315 C 0.07009 0.46516 1.10304
 C1316 C 0.07565 0.46855 1.07252
 C1317 C 0.09885 0.47472 1.06414
 C1318 C 0.11610 0.47873 1.08630
 C1319 C 0.05687 0.47044 1.05067
 C1320 C 0.04144 0.47488 1.03272
 H1321 H 0.08249 0.46767 1.14880
 H1322 H 0.05210 0.46087 1.10981
 H1323 H 0.10323 0.47785 1.04063
 H1324 H 0.13362 0.48473 1.07964
 C1325 C -0.13935 0.00554 1.15889
 C1326 C -0.12686 0.01376 1.13939
 C1327 C -0.11081 0.02219 1.11647
 C1328 C -0.08800 0.02978 1.12466
 C1329 C -0.07083 0.03385 1.10244
 C1330 C -0.07644 0.03042 1.07195
 C1331 C -0.09962 0.02408 1.06366
 C1332 C -0.11679 0.01998 1.08589
 C1333 C -0.05770 0.02870 1.05003
 C1334 C -0.04228 0.02442 1.03203
 H1335 H -0.08311 0.03130 1.14825
 H1336 H -0.05285 0.03827 1.10914
 H1337 H -0.10403 0.02093 1.04018
 H1338 H -0.13429 0.01388 1.07931
 C1339 C 0.36096 0.50637 0.65835
 C1340 C 0.37341 0.51453 0.63876
 C1341 C 0.38940 0.52288 0.61574
 C1342 C 0.38338 0.52051 0.58519
 C1343 C 0.40050 0.52454 0.56289
 C1344 C 0.42369 0.53095 0.57106
 C1345 C 0.42934 0.53454 0.60151
 C1346 C 0.41222 0.53056 0.62381
 C1347 C 0.44239 0.52916 0.54911
 C1348 C 0.45781 0.52481 0.53111
 H1349 H 0.36588 0.51434 0.57871
 H1350 H 0.39606 0.52125 0.53944
 H1351 H 0.44732 0.53903 0.60813
 H1352 H 0.41714 0.53220 0.64737
 C1353 C 0.36114 0.49444 -0.15941
 C1354 C 0.37347 0.48616 -0.13980
 C1355 C 0.38934 0.47765 -0.11673
 C1356 C 0.41211 0.46982 -0.12473
 C1357 C 0.42916 0.46570 -0.10237
 C1358 C 0.42349 0.46931 -0.07193
 C1359 C 0.40033 0.47587 -0.06384
 C1360 C 0.38328 0.48002 -0.08620
 C1361 C 0.44217 0.47105 -0.04994
 C1362 C 0.45759 0.47538 -0.03194
 H1363 H 0.41706 0.46816 -0.14827
 H1364 H 0.44712 0.46111 -0.10893
 H1365 H 0.39588 0.47917 -0.04041
 H1366 H 0.36582 0.48631 -0.07977
 C1367 C -0.13945 0.99349 0.34102
 C1368 C -0.12710 0.98524 0.36063
 C1369 C -0.11118 0.97679 0.38369
 C1370 C -0.08843 0.96896 0.37566
 C1371 C -0.07131 0.96494 0.39797
 C1372 C -0.07693 0.96866 0.42841
 C1373 C -0.10008 0.97521 0.43655
 C1374 C -0.11718 0.97926 0.41422
 C1375 C -0.05820 0.97051 0.45032
 C1376 C -0.04276 0.97492 0.46826
 H1377 H -0.08352 0.96724 0.35210
 H1378 H -0.05337 0.96036 0.39137
 H1379 H -0.10448 0.97859 0.45998
 H1380 H -0.13464 0.98555 0.42068
 C1381 C 0.13937 0.50665 0.34235
 C1382 C 0.12691 0.51490 0.36183
 C1383 C 0.11088 0.52333 0.38472
 C1384 C 0.11677 0.52096 0.41531
 C1385 C 0.09957 0.52497 0.43749
 C1386 C 0.07641 0.53137 0.42915
 C1387 C 0.07089 0.53499 0.39866
 C1388 C 0.08811 0.53102 0.37649
 C1389 C 0.05761 0.52947 0.45095
 C1390 C 0.04214 0.52500 0.46883
 H1391 H 0.13424 0.51477 0.42192
 H1392 H 0.10391 0.52166 0.46097
 H1393 H 0.05294 0.53946 0.39191
 H1394 H 0.08328 0.53266 0.35289
 C1395 C 0.63887 0.00650 -0.15859
 C1396 C 0.62659 0.01477 -0.13896
 C1397 C 0.61078 0.02324 -0.11584
 C1398 C 0.61689 0.02074 -0.08533
 C1399 C 0.59988 0.02480 -0.06292
 C1400 C 0.57671 0.03137 -0.07095
 C1401 C 0.57097 0.03511 -0.10136
 C1402 C 0.58799 0.03109 -0.12376
 C1403 C 0.55805 0.02952 -0.04893
 C1404 C 0.54266 0.02510 -0.03093
 H1405 H 0.63436 0.01443 -0.07896
 H1406 H 0.60437 0.02140 -0.03951
 H1407 H 0.55300 0.03971 -0.10786
 H1408 H 0.58300 0.03283 -0.14729
 C1409 C 0.67655 0.55952 0.00463
 C1410 C 0.65826 0.55000 -0.00272
 C1411 C 0.63572 0.53939 -0.00987
 C1412 C 0.63023 0.51667 0.00096
 C1413 C 0.60721 0.50770 -0.00218
 C1414 C 0.58960 0.52141 -0.01616
 C1415 C 0.59529 0.54380 -0.02793
 C1416 C 0.61833 0.55276 -0.02483
 C1417 C 0.56521 0.51406 -0.01432
 C1418 C 0.54482 0.50857 -0.01006
 H1419 H 0.64345 0.50631 0.01292
 H1420 H 0.60288 0.49056 0.00752
 H1421 H 0.58169 0.55473 -0.03828
 H1422 H 0.62231 0.57047 -0.03296
 C1423 C 0.17640 1.05844 0.50483
 C1424 C 0.15811 1.04894 0.49747
 C1425 C 0.13556 1.03838 0.49029
 C1426 C 0.11827 1.05174 0.47512
 C1427 C 0.09520 1.04288 0.47200
 C1428 C 0.08936 1.02060 0.48397
 C1429 C 0.10687 1.00688 0.49816
 C1430 C 0.12993 1.01575 0.50132
 C1431 C 0.06494 1.01338 0.48581
 C1432 C 0.04452 1.00801 0.49007
 H1433 H 0.12236 1.06939 0.46684
 H1434 H 0.08169 1.05381 0.46149
 H1435 H 0.10243 0.98982 0.50802
 H1436 H 0.14306 1.00541 0.51344
 C1437 C 0.17666 -0.05917 0.99398
 C1438 C 0.15839 -0.04968 1.00133
 C1439 C 0.13586 -0.03910 1.00857
 C1440 C 0.11858 -0.05244 1.02378
 C1441 C 0.09555 -0.04352 1.02705
 C1442 C 0.08977 -0.02119 1.01519
 C1443 C 0.10728 -0.00750 1.00094
 C1444 C 0.13029 -0.01644 0.99763
 C1445 C 0.06538 -0.01387 1.01354
 C1446 C 0.04496 -0.00842 1.00945
 H1447 H 0.12263 -0.07012 1.03200
 H1448 H 0.08203 -0.05443 1.03760
 H1449 H 0.10288 0.00959 0.99116
 H1450 H 0.14343 -0.00611 0.98549
 C1451 C 0.67674 0.44101 0.49386
 C1452 C 0.65845 0.45052 0.50117
 C1453 C 0.63592 0.46111 0.50833
 C1454 C 0.61858 0.44777 0.52344
 C1455 C 0.59555 0.45672 0.52661
 C1456 C 0.58983 0.47906 0.51477
 C1457 C 0.60739 0.49276 0.50063
 C1458 C 0.63040 0.48380 0.49741
 C1459 C 0.56544 0.48640 0.51303
 C1460 C 0.54504 0.49186 0.50887
 H1461 H 0.62259 0.43008 0.53163
 H1462 H 0.58200 0.44580 0.53708
 H1463 H 0.60303 0.50986 0.49088
 H1464 H 0.64358 0.49413 0.48535
 C1465 C -0.17724 0.44192 0.50527
 C1466 C -0.15889 0.45130 0.49792
 C1467 C -0.13627 0.46174 0.49076
 C1468 C -0.13056 0.48436 0.50171
 C1469 C -0.10746 0.49313 0.49858
 C1470 C -0.09000 0.47933 0.48450
 C1471 C -0.09591 0.45706 0.47261
 C1472 C -0.11902 0.44829 0.47570
 C1473 C -0.06555 0.48646 0.48634
 C1474 C -0.04512 0.49180 0.49059
 H1475 H -0.14367 0.49477 0.51375
 H1476 H -0.10296 0.51018 0.50837
 H1477 H -0.08243 0.44605 0.46218
 H1478 H -0.12318 0.43066 0.46748
 C1479 C 0.32364 -0.05902 0.00464
 C1480 C 0.34194 -0.04948 -0.00259
 C1481 C 0.36450 -0.03885 -0.00959
 C1482 C 0.37001 -0.01622 0.00148
 C1483 C 0.39304 -0.00726 -0.00152
 C1484 C 0.41065 -0.02089 -0.01559
 C1485 C 0.40494 -0.04318 -0.02760
 C1486 C 0.38189 -0.05212 -0.02464
 C1487 C 0.43504 -0.01358 -0.01362
 C1488 C 0.45543 -0.00813 -0.00927
 H1489 H 0.35679 -0.00594 0.01350
 H1490 H 0.39739 0.00980 0.00836
 H1491 H 0.41853 -0.05405 -0.03802
 H1492 H 0.37789 -0.06977 -0.03295
 C1493 C 0.32330 1.05826 0.49485
 C1494 C 0.34154 1.04866 0.50217
 C1495 C 0.36404 1.03798 0.50932
 C1496 C 0.36958 1.01540 0.49814
 C1497 C 0.39259 1.00642 0.50129
 C1498 C 0.41014 1.01999 0.51562
 C1499 C 0.40440 1.04222 0.52774
 C1500 C 0.38137 1.05118 0.52464
 C1501 C 0.43454 1.01270 0.51379
 C1502 C 0.45494 1.00731 0.50955
 H1503 H 0.35642 1.00517 0.48591
 H1504 H 0.39697 0.98941 0.49132
 H1505 H 0.41794 1.05304 0.53836
 H1506 H 0.37735 1.06879 0.53304
 C1507 C -0.17749 0.55845 0.99407
 C1508 C -0.15923 0.54897 1.00156
 C1509 C -0.13671 0.53843 1.00893
 C1510 C -0.11948 0.55180 1.02420
 C1511 C -0.09644 0.54293 1.02755
 C1512 C -0.09057 0.52063 1.01573
 C1513 C -0.10803 0.50690 1.00144
 C1514 C -0.13105 0.51578 0.99804
 C1515 C -0.06615 0.51339 1.01416
 C1516 C -0.04572 0.50800 1.01012
 H1517 H -0.12359 0.56945 1.03237
 H1518 H -0.08297 0.55387 1.03814
 H1519 H -0.10356 0.48984 0.99170
 H1520 H -0.14414 0.50543 0.98586
 C1521 C 0.02980 0.68386 0.60644
 C1522 C 0.02932 0.66530 0.59284
 C1523 C 0.02834 0.64304 0.57683
 C1524 C 0.04588 0.62577 0.58154
 C1525 C 0.04410 0.60362 0.56736
 C1526 C 0.02481 0.59867 0.54837
 C1527 C 0.00755 0.61612 0.54319
 C1528 C 0.00932 0.63825 0.55735
 C1529 C 0.02155 0.57510 0.53647
 C1530 C 0.01799 0.55507 0.52800
 H1531 H 0.06064 0.62924 0.59661
 H1532 H 0.05743 0.59019 0.57179
 H1533 H -0.00758 0.61241 0.52881
 H1534 H -0.00438 0.65143 0.55360
 C1535 C 0.53067 0.18420 0.10615
 C1536 C 0.53015 0.16563 0.09257
 C1537 C 0.52913 0.14336 0.07662
 C1538 C 0.54640 0.12590 0.08176
 C1539 C 0.54454 0.10373 0.06765
 C1540 C 0.52544 0.09895 0.04829
 C1541 C 0.50844 0.11658 0.04267
 C1542 C 0.51030 0.13873 0.05677
 C1543 C 0.52206 0.07537 0.03646
 C1544 C 0.51844 0.05533 0.02806
 H1545 H 0.56100 0.12924 0.09712
 H1546 H 0.55765 0.09016 0.07242
 H1547 H 0.49346 0.11300 0.02801
 H1548 H 0.49680 0.15206 0.05268
 C1549 C -0.03078 0.18399 0.89502
 C1550 C -0.03025 0.16543 0.90866
 C1551 C -0.02918 0.14317 0.92470
 C1552 C -0.04680 0.12592 0.92030
 C1553 C -0.04491 0.10375 0.93442
 C1554 C -0.02541 0.09874 0.95306
 C1555 C -0.00806 0.11617 0.95795
 C1556 C -0.00995 0.13833 0.94384
 C1557 C -0.02201 0.07513 0.96479
 C1558 C -0.01836 0.05506 0.97308
 H1559 H -0.06171 0.12943 0.90549
 H1560 H -0.05829 0.09033 0.93022
 H1561 H 0.00722 0.11242 0.97204
 H1562 H 0.00381 0.15149 0.94734
 C1563 C 0.46977 0.68400 0.39336
 C1564 C 0.47022 0.66546 0.40706
 C1565 C 0.47119 0.64324 0.42318
 C1566 C 0.45373 0.62588 0.41843
 C1567 C 0.45555 0.60374 0.43266
 C1568 C 0.47481 0.59888 0.45176
 C1569 C 0.49199 0.61641 0.45699
 C1570 C 0.49017 0.63854 0.44278
 C1571 C 0.47817 0.57530 0.46362
 C1572 C 0.48180 0.55526 0.47203
 H1573 H 0.43901 0.62928 0.40327
 H1574 H 0.44230 0.59024 0.42819
 H1575 H 0.50709 0.61278 0.47144
 H1576 H 0.50381 0.65178 0.44656
 C1577 C 0.53064 0.81573 0.39374
 C1578 C 0.53018 0.83421 0.40752
 C1579 C 0.52920 0.85637 0.42371
 C1580 C 0.54653 0.87384 0.41883
 C1581 C 0.54467 0.89593 0.43310
 C1582 C 0.52551 0.90063 0.45238
 C1583 C 0.50846 0.88299 0.45775
 C1584 C 0.51032 0.86091 0.44349
 C1585 C 0.52207 0.92417 0.46427
 C1586 C 0.51838 0.94419 0.47269
 H1587 H 0.56117 0.87057 0.40352
 H1588 H 0.55781 0.90952 0.42852
 H1589 H 0.49343 0.88651 0.47234
 H1590 H 0.49677 0.84758 0.44737
 C1591 C 0.02973 0.31604 0.89494
 C1592 C 0.02926 0.33456 0.90862
 C1593 C 0.02827 0.35677 0.92470
 C1594 C 0.00932 0.36141 0.94435
 C1595 C 0.00748 0.38352 0.95853
 C1596 C 0.02459 0.40110 0.95321
 C1597 C 0.04382 0.39631 0.93406
 C1598 C 0.04566 0.37418 0.91986
 C1599 C 0.02121 0.42466 0.96506
 C1600 C 0.01757 0.44469 0.97347
 H1601 H -0.00427 0.34812 0.94820
 H1602 H -0.00760 0.38711 0.97303
 H1603 H 0.05702 0.40985 0.92952
 H1604 H 0.06035 0.37084 0.90465
 C1605 C 0.47019 0.31625 0.10600
 C1606 C 0.47062 0.33478 0.09228
 C1607 C 0.47153 0.35701 0.07614
 C1608 C 0.49048 0.36177 0.05653
 C1609 C 0.49222 0.38389 0.04227
 C1610 C 0.47500 0.40136 0.04749
 C1611 C 0.45578 0.39644 0.06661
 C1612 C 0.45403 0.37431 0.08088
 C1613 C 0.47827 0.42494 0.03556
 C1614 C 0.48182 0.44499 0.02711
 H1615 H 0.50415 0.34857 0.05275
 H1616 H 0.50730 0.38757 0.02780
 H1617 H 0.44249 0.40989 0.07107
 H1618 H 0.43933 0.37087 0.09605
 C1619 C -0.03059 0.81598 0.60628
 C1620 C -0.03011 0.83453 0.59261
 C1621 C -0.02915 0.85678 0.57652
 C1622 C -0.01028 0.86145 0.55675
 C1623 C -0.00849 0.88358 0.54253
 C1624 C -0.02558 0.90115 0.54794
 C1625 C -0.04473 0.89631 0.56722
 C1626 C -0.04652 0.87417 0.58146
 C1627 C -0.02226 0.92472 0.53600
 C1628 C -0.01866 0.94475 0.52749
 H1629 H 0.00329 0.84818 0.55282
 H1630 H 0.00652 0.88720 0.52792
 H1631 H -0.05791 0.90983 0.57183
 H1632 H -0.06115 0.87079 0.59675
 C1633 C 0.24414 0.38928 0.09184
 C1634 C 0.23589 0.37684 0.11137
 C1635 C 0.22742 0.36083 0.13432
 C1636 C 0.22977 0.36676 0.16489
 C1637 C 0.22564 0.34959 0.18714
 C1638 C 0.21914 0.32646 0.17888
 C1639 C 0.21556 0.32091 0.14840
 C1640 C 0.21964 0.33808 0.12616
 C1641 C 0.22088 0.30769 0.20077
 C1642 C 0.22522 0.29222 0.21873
 H1643 H 0.23602 0.38421 0.17145
 H1644 H 0.22893 0.35396 0.21061
 H1645 H 0.21100 0.30297 0.14172
 H1646 H 0.21801 0.33323 0.10258
 C1647 C 0.74386 0.88972 0.59122
 C1648 C 0.73560 0.87724 0.61071
 C1649 C 0.72715 0.86118 0.63361
 C1650 C 0.72947 0.86707 0.66419
 C1651 C 0.72541 0.84986 0.68640
 C1652 C 0.71901 0.82671 0.67808
 C1653 C 0.71545 0.82119 0.64758
 C1654 C 0.71947 0.83841 0.62539
 C1655 C 0.72084 0.80791 0.69991
 C1656 C 0.72523 0.79242 0.71782
 H1657 H 0.73564 0.88454 0.67080
 H1658 H 0.72867 0.85420 0.70988
 H1659 H 0.71098 0.80324 0.64085
 H1660 H 0.71787 0.83359 0.60180
 C1661 C 0.25689 0.61063 0.59136
 C1662 C 0.26520 0.62312 0.61077
 C1663 C 0.27371 0.63918 0.63359
 C1664 C 0.28128 0.66199 0.62530
 C1665 C 0.28532 0.67921 0.64744
 C1666 C 0.28189 0.67366 0.67796
 C1667 C 0.27561 0.65048 0.68635
 C1668 C 0.27153 0.63326 0.66420
 C1669 C 0.28005 0.69244 0.69977
 C1670 C 0.27564 0.70788 0.71767
 H1671 H 0.28277 0.66683 0.60168
 H1672 H 0.28969 0.69718 0.64065
 H1673 H 0.27245 0.64611 0.70986
 H1674 H 0.26544 0.61577 0.67087
 C1675 C 0.75661 0.11044 0.09166
 C1676 C 0.76506 0.12285 0.11107
 C1677 C 0.77375 0.13882 0.13389
 C1678 C 0.78148 0.16157 0.12560
 C1679 C 0.78572 0.17873 0.14775
 C1680 C 0.78233 0.17317 0.17828
 C1681 C 0.77589 0.15004 0.18666
 C1682 C 0.77161 0.13288 0.16449
 C1683 C 0.78066 0.19195 0.20012
 C1684 C 0.77635 0.20741 0.21805
 H1685 H 0.78295 0.16642 0.10199
 H1686 H 0.79022 0.19667 0.14097
 H1687 H 0.77275 0.14567 0.21017
 H1688 H 0.76539 0.11543 0.17116
 C1689 C 0.74281 0.11056 0.90955
 C1690 C 0.73445 0.12293 0.89003
 C1691 C 0.72590 0.13886 0.86705
 C1692 C 0.72831 0.13292 0.83649
 C1693 C 0.72420 0.15006 0.81422
 C1694 C 0.71767 0.17319 0.82244
 C1695 C 0.71399 0.17874 0.85290
 C1696 C 0.71806 0.16159 0.87516
 C1697 C 0.71948 0.19196 0.80057
 C1698 C 0.72387 0.20745 0.78267
 H1699 H 0.73461 0.11549 0.82997
 H1700 H 0.72755 0.14570 0.79077
 H1701 H 0.70941 0.19667 0.85956
 H1702 H 0.71639 0.16645 0.89874
 C1703 C 0.24300 0.61064 0.40814
 C1704 C 0.23473 0.62314 0.38869
 C1705 C 0.22628 0.63921 0.36582
 C1706 C 0.22854 0.63333 0.33523
 C1707 C 0.22451 0.65056 0.31304
 C1708 C 0.21821 0.67372 0.32138
 C1709 C 0.21470 0.67924 0.35189
 C1710 C 0.21869 0.66200 0.37406
 C1711 C 0.22007 0.69252 0.29956
 C1712 C 0.22449 0.70800 0.28164
 H1713 H 0.23465 0.61585 0.32860
 H1714 H 0.22773 0.64622 0.28955
 H1715 H 0.21031 0.69719 0.35863
 H1716 H 0.21714 0.66682 0.39766
 C1717 C 0.75722 0.88976 0.40788
 C1718 C 0.76551 0.87733 0.38841
 C1719 C 0.77399 0.86133 0.36551
 C1720 C 0.78166 0.83855 0.37372
 C1721 C 0.78571 0.82138 0.35153
 C1722 C 0.78217 0.82696 0.32103
 C1723 C 0.77578 0.85012 0.31272
 C1724 C 0.77170 0.86729 0.33492
 C1725 C 0.78036 0.80821 0.29918
 C1726 C 0.77596 0.79276 0.28125
 H1727 H 0.78324 0.83368 0.39732
 H1728 H 0.79017 0.80343 0.35825
 H1729 H 0.77254 0.85451 0.28923
 H1730 H 0.76553 0.88476 0.32832
 C1731 C 0.25625 0.38919 0.90964
 C1732 C 0.26446 0.37684 0.89004
 C1733 C 0.27287 0.36095 0.86698
 C1734 C 0.27054 0.36707 0.83646
 C1735 C 0.27456 0.35003 0.81409
 C1736 C 0.28093 0.32681 0.82218
 C1737 C 0.28450 0.32106 0.85262
 C1738 C 0.28052 0.33811 0.87497
 C1739 C 0.27908 0.30818 0.80016
 C1740 C 0.27468 0.29282 0.78212
 H1741 H 0.26439 0.38459 0.83003
 H1742 H 0.27130 0.35455 0.79065
 H1743 H 0.28895 0.30306 0.85917
 H1744 H 0.28213 0.33311 0.89852
 C1745 C 0.80786 0.42641 0.74646
 C1746 C 0.79826 0.40819 0.75388
 C1747 C 0.78755 0.38571 0.76111
 C1748 C 0.80080 0.36835 0.77631
 C1749 C 0.79181 0.34532 0.77941
 C1750 C 0.76952 0.33962 0.76740
 C1751 C 0.75590 0.35720 0.75321
 C1752 C 0.76490 0.38021 0.75006
 C1753 C 0.76220 0.31523 0.76548
 C1754 C 0.75678 0.29484 0.76115
 H1755 H 0.81847 0.37234 0.78460
 H1756 H 0.80267 0.33174 0.78991
 H1757 H 0.73884 0.35286 0.74332
 H1758 H 0.75465 0.39340 0.73792
 C1759 C 0.30821 0.92706 0.24488
 C1760 C 0.29859 0.90883 0.25221
 C1761 C 0.28791 0.88631 0.25934
 C1762 C 0.26544 0.88066 0.24784
 C1763 C 0.25650 0.85762 0.25094
 C1764 C 0.27001 0.84015 0.26554
 C1765 C 0.29212 0.84601 0.27797
 C1766 C 0.30104 0.86907 0.27491
 C1767 C 0.26278 0.81573 0.26371
 C1768 C 0.25741 0.79531 0.25949
 H1769 H 0.25528 0.89376 0.23541
 H1770 H 0.23959 0.85316 0.24074
 H1771 H 0.30289 0.83252 0.28881
 H1772 H 0.31857 0.87317 0.28356
 C1773 C 0.19176 0.92681 0.75373
 C1774 C 0.20132 0.90854 0.74651
 C1775 C 0.21196 0.88600 0.73952
 C1776 C 0.19876 0.86869 0.72418
 C1777 C 0.20767 0.84563 0.72125
 C1778 C 0.22984 0.83985 0.73358
 C1779 C 0.24340 0.85738 0.74795
 C1780 C 0.23448 0.88041 0.75092
 C1781 C 0.23710 0.81544 0.73551
 C1782 C 0.24250 0.79504 0.73978
 H1783 H 0.18120 0.87275 0.71562
 H1784 H 0.19686 0.83210 0.71059
 H1785 H 0.26036 0.85297 0.75807
 H1786 H 0.24469 0.89357 0.76318
 C1787 C 0.69293 0.42649 0.25471
 C1788 C 0.70246 0.40821 0.24745
 C1789 C 0.71304 0.38566 0.24038
 C1790 C 0.69979 0.36840 0.22504
 C1791 C 0.70866 0.34533 0.22199
 C1792 C 0.73086 0.33949 0.23420
 C1793 C 0.74448 0.35698 0.24857
 C1794 C 0.73559 0.38002 0.25166
 C1795 C 0.73808 0.31508 0.23602
 C1796 C 0.74344 0.29465 0.24023
 H1797 H 0.68220 0.37249 0.21657
 H1798 H 0.69780 0.33184 0.21133
 H1799 H 0.76146 0.35253 0.25860
 H1800 H 0.74585 0.39314 0.26391
 C1801 C 0.69282 0.57350 0.24448
 C1802 C 0.70228 0.59181 0.25182
 C1803 C 0.71277 0.61440 0.25897
 C1804 C 0.73534 0.62012 0.24786
 C1805 C 0.74414 0.64321 0.25099
 C1806 C 0.73040 0.66064 0.26523
 C1807 C 0.70818 0.65472 0.27728
 C1808 C 0.69939 0.63161 0.27419
 C1809 C 0.73755 0.68509 0.26342
 C1810 C 0.74289 0.70552 0.25920
 H1811 H 0.74570 0.60704 0.23570
 H1812 H 0.76115 0.64772 0.24108
 H1813 H 0.69723 0.66817 0.28783
 H1814 H 0.68178 0.62745 0.28254
 C1815 C 0.19115 0.07384 0.74368
 C1816 C 0.20057 0.09213 0.75115
 C1817 C 0.21106 0.11468 0.75852
 C1818 C 0.19758 0.13193 0.77352
 C1819 C 0.20644 0.15498 0.77688
 C1820 C 0.22885 0.16082 0.76533
 C1821 C 0.24268 0.14335 0.75131
 C1822 C 0.23381 0.12032 0.74790
 C1823 C 0.23612 0.18524 0.76374
 C1824 C 0.24155 0.20567 0.75967
 H1825 H 0.17985 0.12783 0.78149
 H1826 H 0.19542 0.16847 0.78726
 H1827 H 0.25984 0.14780 0.74178
 H1828 H 0.24426 0.10721 0.73592
 C1829 C 0.30822 0.07295 0.25594
 C1830 C 0.29882 0.09128 0.24859
 C1831 C 0.28836 0.11387 0.24140
 C1832 C 0.30179 0.13112 0.22624
 C1833 C 0.29300 0.15421 0.22305
 C1834 C 0.27072 0.16009 0.23493
 C1835 C 0.25694 0.14263 0.24912
 C1836 C 0.26574 0.11956 0.25235
 C1837 C 0.26356 0.18453 0.23666
 C1838 C 0.25820 0.20495 0.24083
 H1839 H 0.31943 0.12699 0.21801
 H1840 H 0.30399 0.16769 0.21254
 H1841 H 0.23988 0.14711 0.25890
 H1842 H 0.25534 0.10645 0.26445
 C1843 C 0.80863 0.57340 0.75550
 C1844 C 0.79918 0.59167 0.74798
 C1845 C 0.78866 0.61419 0.74059
 C1846 C 0.80212 0.63149 0.72556
 C1847 C 0.79325 0.65453 0.72224
 C1848 C 0.77086 0.66032 0.73385
 C1849 C 0.75704 0.64279 0.74787
 C1850 C 0.76592 0.61977 0.75124
 C1851 C 0.76361 0.68472 0.73555
 C1852 C 0.75822 0.70513 0.73973
 H1853 H 0.81985 0.62743 0.71757
 H1854 H 0.80426 0.66806 0.71187
 H1855 H 0.73990 0.64721 0.75745
 H1856 H 0.75549 0.60662 0.76324
 C1857 C 0.93485 0.77985 0.14312
 C1858 C 0.91633 0.77954 0.15685
 C1859 C 0.89412 0.77877 0.17299
 C1860 C 0.87674 0.79611 0.16778
 C1861 C 0.85461 0.79447 0.18205
 C1862 C 0.84979 0.77551 0.20166
 C1863 C 0.86735 0.75846 0.20735
 C1864 C 0.88946 0.76010 0.19309
 C1865 C 0.82622 0.77229 0.21360
 C1866 C 0.80618 0.76874 0.22208
 H1867 H 0.88010 0.81058 0.15222
 H1868 H 0.84109 0.80761 0.17722
 H1869 H 0.86374 0.74359 0.22220
 H1870 H 0.90273 0.74655 0.19724
 C1871 C 0.43363 0.28044 0.64412
 C1872 C 0.41513 0.28010 0.65787
 C1873 C 0.39293 0.27927 0.67404
 C1874 C 0.38829 0.26050 0.69400
 C1875 C 0.36617 0.25878 0.70824
 C1876 C 0.34860 0.27584 0.70266
 C1877 C 0.35341 0.29489 0.68321
 C1878 C 0.37553 0.29661 0.66895
 C1879 C 0.32503 0.27253 0.71455
 C1880 C 0.30498 0.26893 0.72296
 H1881 H 0.40156 0.24694 0.69804
 H1882 H 0.36257 0.24383 0.72298
 H1883 H 0.33988 0.30804 0.67847
 H1884 H 0.37889 0.31116 0.65350
 C1885 C 0.43448 0.71954 0.85584
 C1886 C 0.41597 0.72007 0.84208
 C1887 C 0.39377 0.72111 0.82591
 C1888 C 0.38912 0.74017 0.80641
 C1889 C 0.36702 0.74204 0.79214
 C1890 C 0.34948 0.72484 0.79723
 C1891 C 0.35430 0.70551 0.81623
 C1892 C 0.37640 0.70363 0.83051
 C1893 C 0.32592 0.72823 0.78529
 C1894 C 0.30589 0.73186 0.77683
 H1895 H 0.40237 0.75382 0.80275
 H1896 H 0.36341 0.75720 0.77777
 H1897 H 0.34079 0.69224 0.82058
 H1898 H 0.37977 0.68885 0.84560
 C1899 C 0.93513 0.21914 0.35658
 C1900 C 0.91661 0.21963 0.34284
 C1901 C 0.89441 0.22062 0.32667
 C1902 C 0.88984 0.23949 0.30685
 C1903 C 0.86775 0.24132 0.29255
 C1904 C 0.85012 0.22426 0.29793
 C1905 C 0.85485 0.20511 0.31726
 C1906 C 0.87695 0.20328 0.33157
 C1907 C 0.82658 0.22763 0.28593
 C1908 C 0.80657 0.23127 0.27739
 H1909 H 0.90316 0.25304 0.30295
 H1910 H 0.86421 0.25634 0.27792
 H1911 H 0.84128 0.19194 0.32184
 H1912 H 0.88025 0.18864 0.34690
 C1913 C 0.06602 0.27971 0.35624
 C1914 C 0.08458 0.27929 0.34262
 C1915 C 0.10685 0.27838 0.32660
 C1916 C 0.12424 0.29575 0.33163
 C1917 C 0.14640 0.29401 0.31746
 C1918 C 0.15124 0.27492 0.29814
 C1919 C 0.13368 0.25782 0.29263
 C1920 C 0.11154 0.25956 0.30680
 C1921 C 0.17483 0.27165 0.28627
 C1922 C 0.19487 0.26808 0.27784
 H1923 H 0.12086 0.31035 0.34696
 H1924 H 0.15992 0.30720 0.32214
 H1925 H 0.13731 0.24285 0.27801
 H1926 H 0.09827 0.24599 0.30279
 C1927 C 0.56637 0.78012 0.85597
 C1928 C 0.58487 0.77968 0.84222
 C1929 C 0.60706 0.77874 0.82603
 C1930 C 0.61169 0.75983 0.80634
 C1931 C 0.63377 0.75804 0.79206
 C1932 C 0.65134 0.77518 0.79732
 C1933 C 0.64655 0.79437 0.81651
 C1934 C 0.62445 0.79616 0.83081
 C1935 C 0.67489 0.77185 0.78536
 C1936 C 0.69492 0.76825 0.77688
 H1937 H 0.59841 0.74622 0.80254
 H1938 H 0.63736 0.74300 0.77753
 H1939 H 0.66008 0.80759 0.82100
 H1940 H 0.62111 0.81082 0.84605
 C1941 C 0.56506 0.21918 0.64459
 C1942 C 0.58354 0.21965 0.65838
 C1943 C 0.60572 0.22067 0.67459
 C1944 C 0.62322 0.20341 0.66969
 C1945 C 0.64532 0.20532 0.68398
 C1946 C 0.65000 0.22446 0.70329
 C1947 C 0.63232 0.24144 0.70869
 C1948 C 0.61023 0.23953 0.69441
 C1949 C 0.67353 0.22793 0.71523
 C1950 C 0.69355 0.23163 0.72370
 H1951 H 0.61997 0.18879 0.65435
 H1952 H 0.65893 0.19222 0.67939
 H1953 H 0.63582 0.25645 0.72331
 H1954 H 0.59687 0.25303 0.69831
 C1955 C 0.06547 0.71896 0.14409
 C1956 C 0.08402 0.71952 0.15773
 C1957 C 0.10626 0.72065 0.17379
 C1958 C 0.12382 0.70346 0.16878
 C1959 C 0.14596 0.70546 0.18295
 C1960 C 0.15063 0.72462 0.20223
 C1961 C 0.13291 0.74153 0.20772
 C1962 C 0.11077 0.73953 0.19357
 C1963 C 0.17419 0.72816 0.21408
 C1964 C 0.19421 0.73191 0.22249
 H1965 H 0.12056 0.68882 0.15347
 H1966 H 0.15961 0.69241 0.17828
 H1967 H 0.13639 0.75656 0.22232
 H1968 H 0.09737 0.75297 0.19755
   
