data_POSCAR
  _audit_creation_date              2014-09-24
  _audit_creation_method            'ToBaCCo'
  _symmetry_space_group_name_H-M    'P1'
  _symmetry_Int_Tables_number       1
  _symmetry_cell_setting            triclinic
  loop_
  _symmetry_equiv_pos_as_xyz
 x,y,z
_cell_length_a 61.2323
_cell_length_b 53.9183
_cell_length_c 50.2216
_cell_angle_alpha 90.001200
_cell_angle_beta 89.869900
_cell_angle_gamma 90.222400
loop_
  _atom_site_label
  _atom_site_type_symbol
  _atom_site_fract_x
  _atom_site_fract_y
  _atom_site_fract_z
C1 C 1.21630 0.25228 0.29245
 H2 H 1.21823 0.23234 0.29286
 C3 C 1.20066 0.26356 0.30864
 H4 H 1.19049 0.25231 0.32158
 C5 C 1.22699 0.29130 0.27480
 H6 H 1.23733 0.30205 0.26169
 C7 C 1.21154 0.30333 0.29068
 H8 H 1.20991 0.32330 0.28961
 N9 N 1.22877 0.26615 0.27557
 C10 C 1.24379 0.21572 0.21019
 H11 H 1.26144 0.21671 0.20978
 C12 C 1.23273 0.20036 0.19226
 H13 H 1.24184 0.18942 0.17800
 C14 C 1.21026 0.22867 0.22930
 H15 H 1.20150 0.23990 0.24350
 C16 C 1.19859 0.21361 0.21174
 H17 H 1.18091 0.21311 0.21270
 Zn18 Zn 1.24839 0.24883 0.25310
 N19 N 1.23248 0.22909 0.22859
 C20 C 1.26599 0.20338 0.27190
 N21 N 1.26592 0.22845 0.27515
 C22 C 1.27778 0.23950 0.29475
 C23 C 1.29098 0.22530 0.31149
 C24 C 1.27893 0.18847 0.28818
 C25 C 1.25591 0.28601 0.21500
 C26 C 1.26815 0.30230 0.19920
 C27 C 1.30093 0.28733 0.22041
 C28 C 1.28810 0.27133 0.23581
 N29 N 1.26598 0.27112 0.23306
 H30 H 1.25600 0.19482 0.25678
 H31 H 1.27711 0.25942 0.29722
 H32 H 1.30059 0.23438 0.32678
 H33 H 1.27901 0.16856 0.28517
 H34 H 1.23835 0.28515 0.21284
 H35 H 1.26000 0.31413 0.18492
 H36 H 1.31851 0.28738 0.22274
 H37 H 1.29589 0.25894 0.24971
 C38 C 1.20992 0.19917 0.19324
 C39 C 1.19810 0.28928 0.30752
 C40 C 1.29086 0.30297 0.20197
 C41 C 1.29166 0.19953 0.30806
 C42 C 0.72147 -0.24031 0.29213
 H43 H 0.72165 -0.26015 0.29530
 C44 C 0.70857 -0.22517 0.30831
 H45 H 0.69865 -0.23335 0.32393
 C46 C 0.73436 -0.20525 0.26817
 H47 H 0.74472 -0.19745 0.25289
 C48 C 0.72172 -0.18948 0.28390
 H49 H 0.72217 -0.16966 0.28039
 N50 N 0.73380 -0.23021 0.27228
 C51 C 0.74390 -0.29001 0.21475
 H52 H 0.76151 -0.28961 0.21302
 C53 C 0.73170 -0.30645 0.19918
 H54 H 0.73991 -0.31885 0.18549
 C55 C 0.71157 -0.27393 0.23418
 H56 H 0.70374 -0.26092 0.24742
 C57 C 0.69877 -0.29006 0.21898
 H58 H 0.68114 -0.28957 0.22078
 Zn59 Zn 0.75131 -0.25173 0.25145
 N60 N 0.73373 -0.27432 0.23198
 C61 C 0.77143 -0.29380 0.27554
 N62 N 0.77019 -0.26860 0.27505
 C63 C 0.78255 -0.25436 0.29162
 C64 C 0.79752 -0.26536 0.30884
 C65 C 0.78621 -0.30556 0.29250
 C66 C 0.75712 -0.22015 0.20747
 C67 C 0.76868 -0.20529 0.18947
 C68 C 0.80229 -0.21852 0.21013
 C69 C 0.79013 -0.23308 0.22774
 N70 N 0.76792 -0.23319 0.22652
 H71 H 0.76116 -0.30482 0.26265
 H72 H 0.78103 -0.23439 0.29103
 H73 H 0.80760 -0.25386 0.32158
 H74 H 0.78740 -0.32560 0.29247
 H75 H 0.73947 -0.22089 0.20669
 H76 H 0.75996 -0.19445 0.17480
 H77 H 0.81994 -0.21812 0.21160
 H78 H 0.79848 -0.24405 0.24249
 C79 C 0.70892 -0.30646 0.20133
 C80 C 0.70866 -0.19954 0.30407
 C81 C 0.79147 -0.20428 0.19106
 C82 C 0.79950 -0.29118 0.30909
 C83 C 0.72058 0.26470 -0.21371
 H84 H 0.71866 0.24482 -0.21180
 C85 C 0.70776 0.28057 -0.19833
 H86 H 0.69584 0.27294 -0.18459
 C87 C 0.73863 0.29897 -0.23373
 H88 H 0.75088 0.30606 -0.24726
 C89 C 0.72613 0.31552 -0.21869
 H90 H 0.72863 0.33532 -0.22088
 N91 N 0.73547 0.27406 -0.23123
 C92 C 0.74409 0.21550 -0.29036
 H93 H 0.76168 0.21368 -0.28999
 C94 C 0.73166 0.20038 -0.30712
 H95 H 0.73966 0.18683 -0.31970
 C96 C 0.71211 0.23521 -0.27426
 H97 H 0.70455 0.24890 -0.26159
 C98 C 0.69907 0.22047 -0.29074
 H99 H 0.68150 0.22272 -0.29054
 Zn100 Zn 0.75222 0.25086 -0.25084
 N101 N 0.73417 0.23213 -0.27397
 C102 C 0.76290 0.20462 -0.22689
 N103 N 0.76590 0.22964 -0.22593
 C104 C 0.77892 0.24026 -0.20716
 C105 C 0.79049 0.22549 -0.18928
 C106 C 0.77415 0.18917 -0.20937
 C107 C 0.76701 0.28254 -0.29173
 C108 C 0.78232 0.29423 -0.30824
 C109 C 0.81108 0.27312 -0.28445
 C110 C 0.79524 0.26188 -0.26842
 N111 N 0.77369 0.26696 -0.27206
 H112 H 0.75206 0.19653 -0.24144
 H113 H 0.78077 0.26022 -0.20661
 H114 H 0.80137 0.23404 -0.17495
 H115 H 0.77216 0.16924 -0.21073
 H116 H 0.74976 0.28586 -0.29457
 H117 H 0.77680 0.30672 -0.32372
 H118 H 0.82818 0.26893 -0.28124
 H119 H 0.80025 0.24887 -0.25331
 C120 C 0.70893 0.20273 -0.30710
 C121 C 0.71051 0.30622 -0.20090
 C122 C 0.80459 0.28950 -0.30451
 C123 C 0.78830 0.19970 -0.19067
 C124 C 1.22082 -0.23806 -0.20781
 H125 H 1.21848 -0.25792 -0.20656
 C126 C 1.20963 -0.22238 -0.19040
 H127 H 1.19855 -0.23013 -0.17573
 C128 C 1.23787 -0.20356 -0.22867
 H129 H 1.24902 -0.19626 -0.24341
 C130 C 1.22702 -0.18724 -0.21165
 H131 H 1.22963 -0.16743 -0.21359
 N132 N 1.23422 -0.22843 -0.22686
 C133 C 1.23332 -0.28320 -0.29082
 H134 H 1.25059 -0.28678 -0.29324
 C135 C 1.21819 -0.29487 -0.30747
 H136 H 1.22376 -0.30765 -0.32266
 C137 C 1.20491 -0.26173 -0.26852
 H138 H 1.19978 -0.24840 -0.25378
 C139 C 1.18926 -0.27298 -0.28474
 H140 H 1.17215 -0.26854 -0.28214
 Zn141 Zn 1.24781 -0.25074 -0.25075
 N142 N 1.22647 -0.26716 -0.27164
 C143 C 1.26076 -0.29843 -0.23184
 N144 N 1.26407 -0.27350 -0.23011
 C145 C 1.27883 -0.26376 -0.21276
 C146 C 1.29143 -0.27931 -0.19680
 C147 C 1.27304 -0.31466 -0.21621
 C148 C 1.25662 -0.21701 -0.29157
 C149 C 1.26931 -0.20250 -0.30869
 C150 C 1.30163 -0.22212 -0.29108
 C151 C 1.28833 -0.23628 -0.27425
 N152 N 1.26629 -0.23310 -0.27439
 H153 H 1.24861 -0.30579 -0.24528
 H154 H 1.28088 -0.24386 -0.21148
 H155 H 1.30332 -0.27139 -0.18327
 H156 H 1.27050 -0.33449 -0.21787
 H157 H 1.23904 -0.21511 -0.29149
 H158 H 1.26152 -0.18930 -0.32184
 H159 H 1.31920 -0.22435 -0.29048
 H160 H 1.29568 -0.24954 -0.26092
 C161 C 1.19596 -0.28968 -0.30437
 C162 C 1.21259 -0.19673 -0.19257
 C163 C 1.29203 -0.20489 -0.30821
 C164 C 1.28858 -0.30498 -0.19863
 C165 C 0.25619 0.21578 0.70811
 H166 H 0.23864 0.21345 0.70837
 C167 C 0.26895 0.20145 0.69095
 H168 H 0.26124 0.18798 0.67798
 C169 C 0.28778 0.23595 0.72492
 H170 H 0.29506 0.24950 0.73804
 C171 C 0.30113 0.22201 0.70806
 H172 H 0.31867 0.22471 0.70844
 N173 N 0.26578 0.23223 0.72504
 C174 C 0.22078 0.23724 0.79215
 H175 H 0.21861 0.25712 0.79328
 C176 C 0.20965 0.22170 0.80985
 H177 H 0.19881 0.22964 0.82464
 C178 C 0.23734 0.20260 0.77127
 H179 H 0.24827 0.19521 0.75639
 C180 C 0.22655 0.18639 0.78858
 H181 H 0.22902 0.16657 0.78671
 Zn182 Zn 0.24737 0.24977 0.74877
 N183 N 0.23392 0.22748 0.77296
 C184 C 0.20428 0.26042 0.73167
 N185 N 0.22581 0.26595 0.72811
 C186 C 0.23241 0.28226 0.70899
 C187 C 0.21702 0.29428 0.69307
 C188 C 0.18840 0.27199 0.71619
 C189 C 0.27864 0.26338 0.78644
 C190 C 0.29112 0.27917 0.80240
 C191 C 0.27233 0.31416 0.78314
 C192 C 0.26018 0.29770 0.76750
 N193 N 0.26371 0.27283 0.76919
 H194 H 0.19934 0.24689 0.74635
 H195 H 0.24964 0.28595 0.70619
 H196 H 0.22238 0.30742 0.67807
 H197 H 0.17130 0.26759 0.71929
 H198 H 0.28086 0.24352 0.78770
 H199 H 0.30308 0.27149 0.81592
 H200 H 0.26953 0.33393 0.78160
 H201 H 0.24789 0.30483 0.75418
 C202 C 0.21238 0.19602 0.80784
 C203 C 0.29164 0.20443 0.69115
 C204 C 0.28798 0.30479 0.80067
 C205 C 0.19482 0.28914 0.69680
 C206 C 0.76505 0.71822 0.70738
 H207 H 0.74772 0.71509 0.70479
 C208 C 0.78001 0.70665 0.69043
 H209 H 0.77423 0.69442 0.67482
 C210 C 0.79383 0.73832 0.73052
 H211 H 0.79919 0.75105 0.74576
 C212 C 0.80931 0.72715 0.71401
 H213 H 0.82651 0.73106 0.71688
 N214 N 0.77216 0.73349 0.72716
 C215 C 0.71968 0.73538 0.78635
 H216 H 0.71793 0.75524 0.78846
 C217 C 0.70689 0.71940 0.80178
 H218 H 0.69517 0.72701 0.81575
 C219 C 0.73727 0.70126 0.76575
 H220 H 0.74933 0.69427 0.75197
 C221 C 0.72479 0.68458 0.78082
 H222 H 0.72717 0.66481 0.77837
 Zn223 Zn 0.75108 0.74948 0.74887
 N224 N 0.73433 0.72615 0.76854
 C225 C 0.71084 0.76528 0.72612
 N226 N 0.73292 0.76838 0.72615
 C227 C 0.74281 0.78511 0.70975
 C228 C 0.73033 0.80027 0.69320
 C229 C 0.69775 0.78006 0.70985
 C230 C 0.77826 0.75988 0.79231
 C231 C 0.78970 0.77458 0.81050
 C232 C 0.77312 0.81091 0.79105
 C233 C 0.76201 0.79554 0.77322
 N234 N 0.76512 0.77056 0.77377
 H235 H 0.70330 0.75152 0.73880
 H236 H 0.76041 0.78695 0.70991
 H237 H 0.73830 0.81387 0.68058
 H238 H 0.68017 0.77777 0.71023
 H239 H 0.78018 0.73994 0.79257
 H240 H 0.80054 0.76599 0.82477
 H241 H 0.77091 0.83082 0.79013
 H242 H 0.75108 0.80367 0.75886
 C243 C 0.70940 0.69375 0.79894
 C244 C 0.80235 0.71115 0.69383
 C245 C 0.78727 0.80034 0.80965
 C246 C 0.70759 0.79787 0.69345
 C247 C 0.75692 0.21979 0.20547
 H248 H 0.73926 0.22032 0.20487
 C249 C 0.76839 0.20495 0.18745
 H250 H 0.75960 0.19394 0.17293
 C251 C 0.79004 0.23322 0.22530
 H252 H 0.79849 0.24439 0.23986
 C253 C 0.80211 0.21871 0.20765
 H254 H 0.81977 0.21854 0.20894
 N255 N 0.76783 0.23306 0.22433
 C256 C 0.72196 0.24024 0.29054
 H257 H 0.72227 0.26009 0.29365
 C258 C 0.70915 0.22512 0.30698
 H259 H 0.69946 0.23332 0.32273
 C260 C 0.73442 0.20515 0.26650
 H261 H 0.74459 0.19733 0.25109
 C262 C 0.72188 0.18939 0.28248
 H263 H 0.72221 0.16956 0.27905
 Zn264 Zn 0.75149 0.25161 0.24941
 N265 N 0.73403 0.23012 0.27053
 C266 C 0.71176 0.27387 0.23270
 N267 N 0.73390 0.27419 0.23014
 C268 C 0.74401 0.28983 0.21272
 C269 C 0.73179 0.30629 0.19733
 C270 C 0.69893 0.29003 0.21770
 C271 C 0.78304 0.25420 0.28919
 C272 C 0.79854 0.26509 0.30589
 C273 C 0.78783 0.30532 0.28930
 C274 C 0.77251 0.29366 0.27287
 N275 N 0.77075 0.26849 0.27271
 H276 H 0.70395 0.26091 0.24610
 H277 H 0.76160 0.28937 0.21070
 H278 H 0.73996 0.31866 0.18350
 H279 H 0.68132 0.28961 0.21980
 H280 H 0.78113 0.23425 0.28885
 H281 H 0.80861 0.25353 0.31849
 H282 H 0.78950 0.32532 0.28893
 H283 H 0.76231 0.30473 0.26004
 C284 C 0.70909 0.19947 0.30283
 C285 C 0.79119 0.20423 0.18880
 C286 C 0.80112 0.29085 0.30570
 C287 C 0.70904 0.30638 0.19987
 C288 C 0.25615 0.71373 0.21316
 H289 H 0.23855 0.71412 0.21133
 C290 C 0.26841 0.69760 0.19731
 H291 H 0.26025 0.68543 0.18332
 C292 C 0.28839 0.72944 0.23322
 H293 H 0.29618 0.74216 0.24684
 C294 C 0.30124 0.71363 0.21776
 H295 H 0.31885 0.71405 0.21978
 N296 N 0.26624 0.72905 0.23089
 C297 C 0.21725 0.74739 0.29111
 H298 H 0.21897 0.76737 0.29118
 C299 C 0.20219 0.73596 0.30807
 H300 H 0.19223 0.74713 0.32125
 C301 C 0.22803 0.70839 0.27373
 H302 H 0.23822 0.69771 0.26046
 C303 C 0.21315 0.69620 0.29040
 H304 H 0.21181 0.67617 0.28977
 Zn305 Zn 0.24871 0.75111 0.25109
 N306 N 0.22952 0.73359 0.27405
 C307 C 0.21020 0.77071 0.22796
 N308 N 0.23241 0.77052 0.22681
 C309 C 0.24346 0.78401 0.20819
 C310 C 0.23214 0.79928 0.19051
 C311 C 0.19827 0.78567 0.21065
 C312 C 0.27839 0.76099 0.29230
 C313 C 0.29157 0.77541 0.30894
 C314 C 0.27922 0.81202 0.28567
 C315 C 0.26630 0.79690 0.26948
 N316 N 0.26636 0.77183 0.27277
 H317 H 0.20165 0.75939 0.24235
 H318 H 0.26110 0.78322 0.20744
 H319 H 0.24105 0.81035 0.17610
 H320 H 0.18061 0.78601 0.21200
 H321 H 0.27782 0.74106 0.29480
 H322 H 0.30126 0.76650 0.32421
 H323 H 0.27916 0.83194 0.28267
 H324 H 0.25618 0.80528 0.25442
 C325 C 0.19999 0.71015 0.30754
 C326 C 0.29116 0.69754 0.19969
 C327 C 0.29207 0.80119 0.30551
 C328 C 0.20935 0.80027 0.19196
 O329 O 1.03062 0.04351 0.04775
 O330 O 1.05478 0.02113 0.02229
 C331 C 1.05021 0.03726 0.04057
 O332 O 0.96922 -0.04574 0.04538
 O333 O 0.94515 -0.02173 0.02177
 C334 C 0.94967 -0.03921 0.03854
 O335 O 1.03008 -0.04332 0.04845
 O336 O 1.05447 -0.02100 0.02311
 C337 C 1.04973 -0.03708 0.04141
 O338 O 0.96962 0.04618 0.04494
 O339 O 0.94537 0.02214 0.02137
 C340 C 0.95002 0.03969 0.03807
 Zr341 Zr 1.00003 0.03155 0.03268
 O342 O 0.99794 0.03243 0.07475
 O343 O 1.00128 0.07065 0.02996
 Zr344 Zr 0.99973 -0.03070 0.03372
 O345 O 0.99872 -0.02584 0.07545
 O346 O 1.00022 -0.06967 0.03834
 O347 O 1.01951 0.00039 0.03841
 O348 O 0.98060 0.00047 0.03796
 O349 O 0.97008 0.04550 -0.04689
 O350 O 0.94558 0.02175 -0.02321
 C351 C 0.95041 0.03907 -0.04013
 O352 O 1.03048 -0.04415 -0.04835
 O353 O 1.05465 -0.02147 -0.02321
 C354 C 1.05006 -0.03777 -0.04130
 O355 O 0.96946 -0.04608 -0.04621
 O356 O 0.94530 -0.02203 -0.02269
 C357 C 0.94988 -0.03957 -0.03938
 O358 O 1.03107 0.04280 -0.04920
 O359 O 1.05499 0.02047 -0.02353
 C360 C 1.05059 0.03645 -0.04198
 Zr361 Zr 1.00035 0.03075 -0.03448
 O362 O 0.99806 0.02932 -0.07652
 O363 O 1.00248 0.06991 -0.03554
 Zr364 Zr 0.99998 -0.03164 -0.03374
 O365 O 0.99773 -0.03124 -0.07581
 O366 O 1.00188 -0.07084 -0.03367
 Zr367 Zr 1.03271 -0.00022 -0.00038
 Zr368 Zr 0.96725 -0.00002 -0.00059
 O369 O 0.98104 -0.00043 -0.03902
 O370 O 1.01980 -0.00056 -0.03928
 O371 O 0.98072 0.03600 -0.00101
 O372 O 1.01875 -0.03591 0.00010
 O373 O 1.01923 0.03563 -0.00086
 O374 O 0.98046 -0.03611 -0.00002
 H375 H 0.97057 0.00061 0.05347
 H376 H 1.02842 -0.05059 0.00026
 H377 H 0.97116 -0.00052 -0.05462
 H378 H 1.02903 0.05030 -0.00099
 H379 H 1.00277 -0.07679 0.02050
 H380 H 0.99005 -0.07713 -0.02200
 H381 H 1.01060 -0.02214 -0.08275
 H382 H 1.01108 0.02050 -0.08327
 H383 H 0.99368 0.07620 -0.02046
 H384 H 1.00133 0.07691 0.04851
 H385 H 1.00855 0.02022 0.08163
 H386 H 0.99813 -0.04274 0.08317
 O387 O 1.03709 0.46561 0.54933
 O388 O 1.01805 0.43765 0.52370
 C389 C 1.03189 0.44324 0.54229
 O390 O 0.95889 0.53425 0.54534
 O391 O 0.97983 0.56184 0.52145
 C392 C 0.96437 0.55651 0.53820
 O393 O 0.96112 0.46523 0.54862
 O394 O 0.98067 0.43750 0.52337
 C395 C 0.96644 0.44292 0.54160
 O396 O 1.03914 0.53470 0.54633
 O397 O 1.01867 0.56204 0.52182
 C398 C 1.03376 0.55689 0.53900
 Zr399 Zr 1.02680 0.49999 0.53366
 O400 O 1.02816 0.49943 0.57582
 O401 O 1.06124 0.49953 0.53070
 Zr402 Zr 0.97194 0.49973 0.53344
 O403 O 0.97285 0.50242 0.57549
 O404 O 0.93746 0.49681 0.53426
 O405 O 0.99934 0.47764 0.53892
 O406 O 0.99929 0.52174 0.53821
 O407 O 1.04046 0.53389 0.45444
 O408 O 1.01915 0.56167 0.47741
 C409 C 1.03482 0.55621 0.46102
 O410 O 0.96142 0.46436 0.45186
 O411 O 0.98096 0.43705 0.47752
 C412 C 0.96676 0.44216 0.45924
 O413 O 0.95923 0.53351 0.45378
 O414 O 0.98011 0.56149 0.47715
 C415 C 0.96470 0.55588 0.46052
 O416 O 1.03826 0.46480 0.45225
 O417 O 1.01838 0.43728 0.47759
 C418 C 1.03277 0.44255 0.45945
 Zr419 Zr 1.02715 0.49946 0.46650
 O420 O 1.02620 0.50199 0.42442
 O421 O 1.06164 0.49740 0.46577
 Zr422 Zr 0.97241 0.49918 0.46602
 O423 O 0.97444 0.50178 0.42399
 O424 O 0.93798 0.49633 0.46383
 Zr425 Zr 0.99953 0.46237 0.50027
 Zr426 Zr 0.99946 0.53687 0.49962
 O427 O 0.99979 0.52118 0.46125
 O428 O 0.99981 0.47688 0.46125
 O429 O 1.03120 0.52187 0.49995
 O430 O 0.96807 0.47800 0.49992
 O431 O 1.03102 0.47811 0.50035
 O432 O 0.96775 0.52144 0.49951
 H433 H 0.99900 0.53338 0.55345
 H434 H 0.95503 0.46706 0.50000
 H435 H 0.99991 0.53250 0.44570
 H436 H 1.04398 0.46717 0.50060
 H437 H 0.93163 0.50950 0.52200
 H438 H 0.93190 0.50772 0.47734
 H439 H 0.98096 0.48621 0.41728
 H440 H 1.01882 0.48692 0.41764
 H441 H 1.06705 0.50745 0.48088
 H442 H 1.06679 0.49915 0.54922
 H443 H 1.01790 0.51199 0.58275
 H444 H 0.98301 0.48955 0.58200
 O445 O 0.53052 0.04372 0.54841
 O446 O 0.55477 0.02108 0.52340
 C447 C 0.55013 0.03731 0.54156
 O448 O 0.46903 -0.04493 0.54620
 O449 O 0.44508 -0.02129 0.52198
 C450 C 0.44952 -0.03853 0.53909
 O451 O 0.53000 -0.04295 0.54900
 O452 O 0.55454 -0.02101 0.52347
 C453 C 0.54969 -0.03692 0.54191
 O454 O 0.46956 0.04636 0.54524
 O455 O 0.44527 0.02201 0.52206
 C456 C 0.44995 0.03966 0.53864
 Zr457 Zr 0.50003 0.03187 0.53303
 O458 O 0.49751 0.03319 0.57504
 O459 O 0.50138 0.07095 0.53001
 Zr460 Zr 0.49964 -0.03058 0.53398
 O461 O 0.49691 -0.02886 0.57600
 O462 O 0.50172 -0.06973 0.53560
 O463 O 0.51939 0.00061 0.53892
 O464 O 0.48072 0.00076 0.53822
 O465 O 0.47038 0.04583 0.45330
 O466 O 0.44573 0.02231 0.47701
 C467 C 0.45066 0.03956 0.46002
 O468 O 0.53055 -0.04385 0.45216
 O469 O 0.55477 -0.02124 0.47733
 C470 C 0.55015 -0.03754 0.45922
 O471 O 0.46956 -0.04572 0.45408
 O472 O 0.44532 -0.02158 0.47741
 C473 C 0.44996 -0.03912 0.46070
 O474 O 0.53125 0.04297 0.45117
 O475 O 0.55512 0.02060 0.47687
 C476 C 0.55075 0.03658 0.45838
 Zr477 Zr 0.50055 0.03103 0.46593
 O478 O 0.49838 0.02970 0.42387
 O479 O 0.50282 0.07020 0.46510
 Zr480 Zr 0.50004 -0.03142 0.46675
 O481 O 0.49786 -0.03126 0.42467
 O482 O 0.50219 -0.07061 0.46703
 Zr483 Zr 0.53279 0.00004 0.50019
 Zr484 Zr 0.46730 0.00036 0.49966
 O485 O 0.48120 -0.00012 0.46132
 O486 O 0.51993 -0.00036 0.46127
 O487 O 0.48079 0.03636 0.49929
 O488 O 0.51876 -0.03568 0.50055
 O489 O 0.51940 0.03591 0.49961
 O490 O 0.48032 -0.03582 0.50029
 H491 H 0.47079 0.00092 0.55383
 H492 H 0.52834 -0.05044 0.50075
 H493 H 0.47138 -0.00017 0.44567
 H494 H 0.52928 0.05051 0.49955
 H495 H 0.49080 -0.07644 0.52302
 H496 H 0.49001 -0.07701 0.47803
 H497 H 0.51059 -0.02191 0.41773
 H498 H 0.51126 0.02057 0.41720
 H499 H 0.49356 0.07650 0.47977
 H500 H 0.50118 0.07735 0.54851
 H501 H 0.50877 0.02195 0.58224
 H502 H 0.51016 -0.02049 0.58284
 O503 O 0.53024 0.54259 0.04778
 O504 O 0.55426 0.52097 0.02140
 C505 C 0.54979 0.53660 0.04024
 O506 O 0.46888 0.45452 0.04616
 O507 O 0.44459 0.47800 0.02227
 C508 C 0.44925 0.46088 0.03944
 O509 O 0.52980 0.45681 0.04800
 O510 O 0.55399 0.47895 0.02219
 C511 C 0.54939 0.46310 0.04079
 O512 O 0.46928 0.54501 0.04618
 O513 O 0.44477 0.52167 0.02217
 C514 C 0.44960 0.53871 0.03943
 Zr515 Zr 0.49961 0.53121 0.03252
 O516 O 0.50009 0.53443 0.07453
 O517 O 0.50033 0.57020 0.02825
 Zr518 Zr 0.49932 0.46872 0.03300
 O519 O 0.49750 0.46954 0.07510
 O520 O 0.50155 0.42954 0.03333
 O521 O 0.51900 0.49996 0.03774
 O522 O 0.48038 0.49997 0.03786
 O523 O 0.46882 0.54522 -0.04680
 O524 O 0.44454 0.52153 -0.02269
 C525 C 0.44920 0.53873 -0.03985
 O526 O 0.52942 0.45621 -0.04951
 O527 O 0.55385 0.47827 -0.02410
 C528 C 0.54908 0.46237 -0.04255
 O529 O 0.46835 0.45413 -0.04656
 O530 O 0.44433 0.47789 -0.02243
 C531 C 0.44881 0.46061 -0.03950
 O532 O 0.52977 0.54288 -0.04988
 O533 O 0.55404 0.52075 -0.02447
 C534 C 0.54940 0.53663 -0.04298
 Zr535 Zr 0.49927 0.53086 -0.03451
 O536 O 0.49662 0.53021 -0.07654
 O537 O 0.50147 0.57005 -0.03474
 Zr538 Zr 0.49899 0.46842 -0.03431
 O539 O 0.49631 0.46892 -0.07634
 O540 O 0.50123 0.42924 -0.03449
 Zr541 Zr 0.53203 0.49968 -0.00119
 Zr542 Zr 0.46652 0.49975 -0.00042
 O543 O 0.47999 0.49964 -0.03904
 O544 O 0.51871 0.49959 -0.03988
 O545 O 0.47987 0.53586 -0.00077
 O546 O 0.51811 0.46393 -0.00081
 O547 O 0.51856 0.53554 -0.00118
 O548 O 0.47965 0.46364 -0.00042
 H549 H 0.47048 0.49989 0.05348
 H550 H 0.52780 0.44926 -0.00075
 H551 H 0.47004 0.49961 -0.05457
 H552 H 0.52841 0.55016 -0.00131
 H553 H 0.48952 0.42299 0.02223
 H554 H 0.48939 0.42275 -0.02298
 H555 H 0.50903 0.47817 -0.08344
 H556 H 0.50910 0.52062 -0.08356
 H557 H 0.49101 0.57628 -0.02128
 H558 H 0.50102 0.57704 0.04654
 H559 H 0.49243 0.51984 0.08198
 H560 H 0.50916 0.48084 0.08145
 C561 C 1.19803 0.18289 0.17575
 C562 C 1.18752 0.16928 0.16166
 C563 C 1.17434 0.15314 0.14546
 C564 C 1.15812 0.16313 0.12913
 C565 C 1.14433 0.14747 0.11465
 C566 C 1.14655 0.12155 0.11637
 C567 C 1.16314 0.11168 0.13253
 C568 C 1.17693 0.12740 0.14698
 C569 C 1.13110 0.10496 0.10212
 C570 C 1.12253 0.08373 0.11474
 C571 C 1.10695 0.06895 0.10193
 C572 C 1.09980 0.07515 0.07635
 C573 C 1.10855 0.09593 0.06342
 C574 C 1.12410 0.11075 0.07619
 C575 C 1.08273 0.06098 0.06383
 C576 C 1.06806 0.04976 0.05329
 H577 H 1.15586 0.18302 0.12798
 H578 H 1.13152 0.15562 0.10272
 H579 H 1.16540 0.09182 0.13402
 H580 H 1.18942 0.11947 0.15960
 H581 H 1.12736 0.07897 0.13482
 H582 H 1.10018 0.05298 0.11217
 H583 H 1.10312 0.10090 0.04361
 H584 H 1.13059 0.12679 0.06584
 C585 C 1.18002 0.69875 0.67863
 C586 C 1.16647 0.68913 0.66461
 C587 C 1.15016 0.67754 0.64814
 C588 C 1.12810 0.68353 0.65144
 C589 C 1.11217 0.67161 0.63612
 C590 C 1.11813 0.65353 0.61728
 C591 C 1.14039 0.64790 0.61387
 C592 C 1.15628 0.65982 0.62922
 C593 C 1.10122 0.63981 0.60201
 C594 C 1.10462 0.63379 0.57506
 C595 C 1.08951 0.61910 0.56136
 C596 C 1.07078 0.61031 0.57437
 C597 C 1.06692 0.61680 0.60093
 C598 C 1.08200 0.63151 0.61467
 C599 C 1.05670 0.59273 0.56130
 C600 C 1.04570 0.57694 0.55084
 H601 H 1.12320 0.69726 0.66600
 H602 H 1.09520 0.67652 0.63900
 H603 H 1.14547 0.63380 0.59984
 H604 H 1.17330 0.65498 0.62658
 H605 H 1.11911 0.64017 0.56469
 H606 H 1.09271 0.61407 0.54083
 H607 H 1.05260 0.60987 0.61128
 H608 H 1.07904 0.63555 0.63548
 C609 C 0.69571 0.18658 0.67674
 C610 C 0.68450 0.17287 0.66357
 C611 C 0.67090 0.15643 0.64822
 C612 C 0.65349 0.16592 0.63346
 C613 C 0.63985 0.14990 0.61919
 C614 C 0.64345 0.12414 0.61952
 C615 C 0.66108 0.11478 0.63431
 C616 C 0.67472 0.13085 0.64854
 C617 C 0.62857 0.10713 0.60491
 C618 C 0.62158 0.08469 0.61651
 C619 C 0.60669 0.06933 0.60326
 C620 C 0.59869 0.07613 0.57824
 C621 C 0.60588 0.09817 0.56632
 C622 C 0.62072 0.11356 0.57953
 C623 C 0.58219 0.06136 0.56536
 C624 C 0.56784 0.04984 0.55452
 H625 H 0.65030 0.18567 0.63320
 H626 H 0.62621 0.15764 0.60835
 H627 H 0.66439 0.09508 0.63473
 H628 H 0.68817 0.12331 0.65991
 H629 H 0.62712 0.07938 0.63615
 H630 H 0.60111 0.05240 0.61275
 H631 H 0.59977 0.10364 0.54697
 H632 H 0.62602 0.13054 0.56994
 C633 C 0.69591 0.67724 0.18507
 C634 C 0.68471 0.66391 0.17142
 C635 C 0.67097 0.64842 0.15513
 C636 C 0.65279 0.65866 0.14245
 C637 C 0.63916 0.64372 0.12691
 C638 C 0.64351 0.61827 0.12383
 C639 C 0.66188 0.60814 0.13660
 C640 C 0.67552 0.62315 0.15213
 C641 C 0.62868 0.60238 0.10775
 C642 C 0.62271 0.57854 0.11664
 C643 C 0.60776 0.56420 0.10221
 C644 C 0.59869 0.57345 0.07868
 C645 C 0.60489 0.59691 0.06938
 C646 C 0.61979 0.61128 0.08378
 C647 C 0.58208 0.55959 0.06484
 C648 C 0.56763 0.54868 0.05347
 H649 H 0.64905 0.67817 0.14473
 H650 H 0.62497 0.65200 0.11771
 H651 H 0.66578 0.58868 0.13439
 H652 H 0.68958 0.61504 0.16182
 H653 H 0.62907 0.57129 0.13516
 H654 H 0.60296 0.54613 0.10969
 H655 H 0.59795 0.60426 0.05121
 H656 H 0.62430 0.62939 0.07621
 C657 C 0.80382 -0.18800 0.17403
 C658 C 0.81475 -0.17416 0.16063
 C659 C 0.82849 -0.15753 0.14568
 C660 C 0.84804 -0.14911 0.15690
 C661 C 0.86159 -0.13294 0.14273
 C662 C 0.85577 -0.12493 0.11706
 C663 C 0.83608 -0.13350 0.10588
 C664 C 0.82250 -0.14970 0.12015
 C665 C 0.87046 -0.10804 0.10201
 C666 C 0.87459 -0.11199 0.07477
 C667 C 0.88962 -0.09705 0.06112
 C668 C 0.90059 -0.07795 0.07450
 C669 C 0.89616 -0.07349 0.10140
 C670 C 0.88118 -0.08840 0.11508
 C671 C 0.91730 -0.06383 0.06117
 C672 C 0.93183 -0.05237 0.05057
 H673 H 0.85286 -0.15514 0.17661
 H674 H 0.87681 -0.12702 0.15169
 H675 H 0.83109 -0.12748 0.08625
 H676 H 0.80736 -0.15607 0.11132
 H677 H 0.86676 -0.12711 0.06425
 H678 H 0.89303 -0.10073 0.04032
 H679 H 0.90457 -0.05876 0.11194
 H680 H 0.87810 -0.08467 0.13593
 C681 C 0.81928 0.30023 0.68042
 C682 C 0.83305 0.31009 0.66679
 C683 C 0.84965 0.32195 0.65088
 C684 C 0.87174 0.31746 0.65602
 C685 C 0.88791 0.32962 0.64119
 C686 C 0.88217 0.34645 0.62099
 C687 C 0.85990 0.35059 0.61577
 C688 C 0.84377 0.33843 0.63063
 C689 C 0.89925 0.36034 0.60607
 C690 C 0.89696 0.36481 0.57861
 C691 C 0.91219 0.37950 0.56502
 C692 C 0.92993 0.38987 0.57865
 C693 C 0.93269 0.38497 0.60579
 C694 C 0.91749 0.37025 0.61942
 C695 C 0.94403 0.40736 0.56536
 C696 C 0.95489 0.42304 0.55441
 H697 H 0.87648 0.30470 0.67162
 H698 H 0.90490 0.32585 0.64549
 H699 H 0.85494 0.36371 0.60064
 H700 H 0.82672 0.34212 0.62656
 H701 H 0.88326 0.35717 0.56771
 H702 H 0.90983 0.38328 0.54404
 H703 H 0.94622 0.39312 0.61660
 H704 H 0.91957 0.36742 0.64060
 C705 C 0.30548 -0.18902 0.67555
 C706 C 0.31683 -0.17537 0.66244
 C707 C 0.33055 -0.15877 0.64741
 C708 C 0.34919 -0.14857 0.65922
 C709 C 0.36249 -0.13221 0.64490
 C710 C 0.35730 -0.12580 0.61850
 C711 C 0.33853 -0.13618 0.60676
 C712 C 0.32522 -0.15254 0.62116
 C713 C 0.37167 -0.10868 0.60327
 C714 C 0.37682 -0.11353 0.57645
 C715 C 0.39139 -0.09818 0.56262
 C716 C 0.40091 -0.07776 0.57536
 C717 C 0.39550 -0.07244 0.60182
 C718 C 0.38095 -0.08777 0.61569
 C719 C 0.41732 -0.06325 0.56194
 C720 C 0.43169 -0.05162 0.55121
 H721 H 0.35348 -0.15330 0.67952
 H722 H 0.37701 -0.12486 0.65435
 H723 H 0.33400 -0.13141 0.58658
 H724 H 0.31076 -0.16026 0.61187
 H725 H 0.37013 -0.12962 0.56643
 H726 H 0.39560 -0.10255 0.54219
 H727 H 0.40282 -0.05671 0.61189
 H728 H 0.37706 -0.08335 0.63619
 C729 C 0.30390 0.31941 0.18579
 C730 C 0.31510 0.33303 0.17239
 C731 C 0.32882 0.34911 0.15662
 C732 C 0.34798 0.35894 0.16755
 C733 C 0.36161 0.37414 0.15220
 C734 C 0.35628 0.37972 0.12562
 C735 C 0.33692 0.36983 0.11483
 C736 C 0.32328 0.35464 0.13025
 C737 C 0.37110 0.39540 0.10919
 C738 C 0.37545 0.38926 0.08246
 C739 C 0.39028 0.40332 0.06744
 C740 C 0.40087 0.42374 0.07889
 C741 C 0.39633 0.43027 0.10530
 C742 C 0.38155 0.41623 0.12034
 C743 C 0.41727 0.43721 0.06415
 C744 C 0.43156 0.44820 0.05246
 H745 H 0.35249 0.35469 0.18789
 H746 H 0.37655 0.38112 0.16098
 H747 H 0.33224 0.37399 0.09454
 H748 H 0.30847 0.34715 0.12158
 H749 H 0.36789 0.37318 0.07339
 H750 H 0.39378 0.39799 0.04708
 H751 H 0.40446 0.44601 0.11439
 H752 H 0.37832 0.42165 0.14073
 C753 C 0.80151 0.18404 -0.17411
 C754 C 0.81316 0.17090 -0.16097
 C755 C 0.82774 0.15528 -0.14618
 C756 C 0.84991 0.15486 -0.15288
 C757 C 0.86421 0.13937 -0.13916
 C758 C 0.85651 0.12401 -0.11851
 C759 C 0.83421 0.12468 -0.11172
 C760 C 0.81990 0.14021 -0.12554
 C761 C 0.87179 0.10740 -0.10423
 C762 C 0.87069 0.10479 -0.07638
 C763 C 0.88581 0.09000 -0.06294
 C764 C 0.90212 0.07758 -0.07719
 C765 C 0.90307 0.07969 -0.10492
 C766 C 0.88802 0.09447 -0.11837
 C767 C 0.91852 0.06351 -0.06346
 C768 C 0.93281 0.05212 -0.05252
 H769 H 0.85616 0.16649 -0.16879
 H770 H 0.88134 0.13956 -0.14455
 H771 H 0.82779 0.11291 -0.09607
 H772 H 0.80273 0.14033 -0.12027
 H773 H 0.85851 0.11470 -0.06494
 H774 H 0.88501 0.08858 -0.04144
 H775 H 0.91563 0.07015 -0.11614
 H776 H 0.88907 0.09581 -0.13985
 C777 C 0.81556 0.69721 0.32579
 C778 C 0.82924 0.68752 0.33947
 C779 C 0.84576 0.67583 0.35542
 C780 C 0.86774 0.68238 0.35211
 C781 C 0.88390 0.67036 0.36684
 C782 C 0.87826 0.65161 0.38512
 C783 C 0.85608 0.64542 0.38857
 C784 C 0.83995 0.65744 0.37380
 C785 C 0.89542 0.63785 0.39976
 C786 C 0.89229 0.63106 0.42656
 C787 C 0.90772 0.61646 0.43968
 C788 C 0.92648 0.60852 0.42623
 C789 C 0.93003 0.61575 0.39982
 C790 C 0.91464 0.63037 0.38667
 C791 C 0.94100 0.59116 0.43874
 C792 C 0.95235 0.57561 0.44887
 H793 H 0.87241 0.69663 0.33796
 H794 H 0.90080 0.67572 0.36395
 H795 H 0.85123 0.63081 0.40218
 H796 H 0.82300 0.65215 0.37644
 H797 H 0.87780 0.63680 0.43727
 H798 H 0.90475 0.61087 0.46010
 H799 H 0.94439 0.60949 0.38914
 H800 H 0.91740 0.63503 0.36595
 C801 C 0.30434 0.18588 0.32293
 C802 C 0.31620 0.17312 0.33626
 C803 C 0.33064 0.15771 0.35156
 C804 C 0.35318 0.15903 0.34720
 C805 C 0.36727 0.14355 0.36132
 C806 C 0.35899 0.12648 0.38002
 C807 C 0.33631 0.12547 0.38451
 C808 C 0.32223 0.14097 0.37031
 C809 C 0.37401 0.10968 0.39453
 C810 C 0.37107 0.10488 0.42186
 C811 C 0.38573 0.08967 0.43556
 C812 C 0.40339 0.07901 0.42210
 C813 C 0.40623 0.08338 0.39485
 C814 C 0.39165 0.09858 0.38115
 C815 C 0.41925 0.06446 0.43624
 C816 C 0.43322 0.05277 0.44746
 H817 H 0.35987 0.17194 0.33277
 H818 H 0.38467 0.14504 0.35773
 H819 H 0.32944 0.11237 0.39858
 H820 H 0.30479 0.13972 0.37376
 H821 H 0.35777 0.11334 0.43275
 H822 H 0.38345 0.08652 0.45670
 H823 H 0.41985 0.07522 0.38423
 H824 H 0.39415 0.10160 0.36004
 C825 C 0.30192 0.67876 -0.18285
 C826 C 0.31354 0.66553 -0.16975
 C827 C 0.32797 0.65020 -0.15435
 C828 C 0.35053 0.65423 -0.15572
 C829 C 0.36473 0.63945 -0.14095
 C830 C 0.35658 0.62037 -0.12455
 C831 C 0.33386 0.61653 -0.12315
 C832 C 0.31965 0.63135 -0.13800
 C833 C 0.37182 0.60457 -0.10912
 C834 C 0.36710 0.59779 -0.08265
 C835 C 0.38195 0.58364 -0.06796
 C836 C 0.40161 0.57604 -0.07960
 C837 C 0.40626 0.58239 -0.10602
 C838 C 0.39150 0.59652 -0.12069
 C839 C 0.41748 0.56240 -0.06447
 C840 C 0.43155 0.55136 -0.05269
 H841 H 0.35714 0.66884 -0.16820
 H842 H 0.38211 0.64314 -0.14213
 H843 H 0.32711 0.60184 -0.11090
 H844 H 0.30221 0.62805 -0.13681
 H845 H 0.35218 0.60391 -0.07312
 H846 H 0.37822 0.57891 -0.04748
 H847 H 0.42142 0.57658 -0.11524
 H848 H 0.39546 0.60111 -0.14114
 C849 C 1.20013 -0.18014 -0.17615
 C850 C 1.18924 -0.16619 -0.16296
 C851 C 1.17571 -0.14959 -0.14787
 C852 C 1.16312 -0.13186 -0.16110
 C853 C 1.14907 -0.11649 -0.14674
 C854 C 1.14740 -0.11869 -0.11889
 C855 C 1.16038 -0.13631 -0.10571
 C856 C 1.17444 -0.15167 -0.12014
 C857 C 1.13152 -0.10334 -0.10388
 C858 C 1.11884 -0.11396 -0.08342
 C859 C 1.10301 -0.09994 -0.07025
 C860 C 1.09965 -0.07515 -0.07731
 C861 C 1.11242 -0.06427 -0.09731
 C862 C 1.12827 -0.07827 -0.11053
 C863 C 1.08255 -0.06127 -0.06463
 C864 C 1.06787 -0.05020 -0.05402
 H865 H 1.16391 -0.13020 -0.18259
 H866 H 1.13906 -0.10338 -0.15750
 H867 H 1.15963 -0.13823 -0.08427
 H868 H 1.18413 -0.16533 -0.10971
 H869 H 1.12072 -0.13329 -0.07811
 H870 H 1.09313 -0.10856 -0.05487
 H871 H 1.10995 -0.04508 -0.10290
 H872 H 1.13796 -0.06951 -0.12597
 C873 C 1.18129 0.30112 0.32300
 C874 C 1.16700 0.31102 0.33563
 C875 C 1.14979 0.32298 0.35032
 C876 C 1.13781 0.34203 0.33846
 C877 C 1.12127 0.35395 0.35271
 C878 C 1.11647 0.34696 0.37910
 C879 C 1.12849 0.32762 0.39078
 C880 C 1.14503 0.31571 0.37646
 C881 C 1.09957 0.36048 0.39457
 C882 C 1.10330 0.36690 0.42134
 C883 C 1.08822 0.38137 0.43528
 C884 C 1.06918 0.38954 0.42272
 C885 C 1.06499 0.38264 0.39636
 C886 C 1.08005 0.36816 0.38238
 C887 C 1.05511 0.40693 0.43605
 C888 C 1.04429 0.42259 0.44692
 H889 H 1.14138 0.34784 0.31825
 H890 H 1.11258 0.36903 0.34329
 H891 H 1.12504 0.32165 0.41095
 H892 H 1.15415 0.30090 0.38581
 H893 H 1.11827 0.36156 0.43120
 H894 H 1.09175 0.38684 0.45558
 H895 H 1.05036 0.38897 0.38639
 H896 H 1.07657 0.36323 0.36191
 C897 C 0.69536 -0.18352 0.32022
 C898 C 0.68417 -0.16990 0.33345
 C899 C 0.67066 -0.15350 0.34888
 C900 C 0.65807 -0.13551 0.33606
 C901 C 0.64461 -0.11981 0.35089
 C902 C 0.64357 -0.12191 0.37879
 C903 C 0.65644 -0.13992 0.39152
 C904 C 0.66990 -0.15561 0.37664
 C905 C 0.62861 -0.10586 0.39441
 C906 C 0.61630 -0.11582 0.41558
 C907 C 0.60139 -0.10108 0.42942
 C908 C 0.59859 -0.07619 0.42237
 C909 C 0.61103 -0.06596 0.40167
 C910 C 0.62597 -0.08068 0.38778
 C911 C 0.58217 -0.06163 0.43556
 C912 C 0.56785 -0.05016 0.44644
 H913 H 0.65850 -0.13377 0.31457
 H914 H 0.63467 -0.10640 0.34047
 H915 H 0.65617 -0.14180 0.41299
 H916 H 0.67963 -0.16942 0.38677
 H917 H 0.61773 -0.13520 0.42093
 H918 H 0.59174 -0.10922 0.44530
 H919 H 0.60898 -0.04671 0.39604
 H920 H 0.63541 -0.07240 0.37182
 C921 C 0.69724 0.32279 -0.18532
 C922 C 0.68585 0.33627 -0.17214
 C923 C 0.67189 0.35187 -0.15629
 C924 C 0.65729 0.34113 -0.13814
 C925 C 0.64335 0.35607 -0.12307
 C926 C 0.64379 0.38203 -0.12595
 C927 C 0.65863 0.39269 -0.14414
 C928 C 0.67259 0.37769 -0.15920
 C929 C 0.62850 0.39779 -0.11043
 C930 C 0.61799 0.41805 -0.12250
 C931 C 0.60275 0.43208 -0.10826
 C932 C 0.59785 0.42613 -0.08178
 C933 C 0.60850 0.40630 -0.06945
 C934 C 0.62373 0.39224 -0.08365
 C935 C 0.58115 0.43954 -0.06768
 C936 C 0.56674 0.45026 -0.05607
 H937 H 0.65654 0.32117 -0.13581
 H938 H 0.63190 0.34727 -0.10957
 H939 H 0.65953 0.41262 -0.14660
 H940 H 0.68385 0.38621 -0.17316
 H941 H 0.62109 0.42261 -0.14316
 H942 H 0.59451 0.44729 -0.11806
 H943 H 0.60483 0.40151 -0.04897
 H944 H 0.63175 0.37698 -0.07368
 C945 C 1.20067 0.18046 -0.17621
 C946 C 1.18989 0.16670 -0.16253
 C947 C 1.17648 0.15039 -0.14675
 C948 C 1.16238 0.16020 -0.12753
 C949 C 1.14836 0.14455 -0.11329
 C950 C 1.14823 0.11885 -0.11816
 C951 C 1.16273 0.10911 -0.13722
 C952 C 1.17675 0.12481 -0.15142
 C953 C 1.13244 0.10247 -0.10410
 C954 C 1.12130 0.08363 -0.11801
 C955 C 1.10548 0.06916 -0.10518
 C956 C 1.10064 0.07326 -0.07831
 C957 C 1.11192 0.09162 -0.06416
 C958 C 1.12773 0.10613 -0.07696
 C959 C 1.08337 0.05954 -0.06557
 C960 C 1.06856 0.04863 -0.05486
 H961 H 1.16194 0.18000 -0.12389
 H962 H 1.13718 0.15265 -0.09903
 H963 H 1.16317 0.08938 -0.14117
 H964 H 1.18760 0.11703 -0.16629
 H965 H 1.12434 0.08058 -0.13900
 H966 H 1.09673 0.05510 -0.11634
 H967 H 1.10828 0.09497 -0.04335
 H968 H 1.13622 0.12028 -0.06565
 C969 C 1.18396 0.69812 0.32416
 C970 C 1.17034 0.68812 0.33786
 C971 C 1.15394 0.67611 0.35397
 C972 C 1.13217 0.68386 0.35268
 C973 C 1.11612 0.67172 0.36772
 C974 C 1.12166 0.65168 0.38429
 C975 C 1.14364 0.64422 0.38565
 C976 C 1.15964 0.65636 0.37057
 C977 C 1.10456 0.63800 0.39941
 C978 C 1.10863 0.62961 0.42546
 C979 C 1.09316 0.61514 0.43892
 C980 C 1.07342 0.60890 0.42658
 C981 C 1.06896 0.61773 0.40097
 C982 C 1.08439 0.63224 0.38748
 C983 C 1.05874 0.59161 0.43923
 C984 C 1.04727 0.57605 0.44942
 H985 H 1.12758 0.69917 0.33992
 H986 H 1.09939 0.67804 0.36645
 H987 H 1.14838 0.62861 0.39788
 H988 H 1.17643 0.65014 0.37164
 H989 H 1.12387 0.63401 0.43530
 H990 H 1.09684 0.60830 0.45869
 H991 H 1.05383 0.61279 0.39112
 H992 H 1.08088 0.63816 0.36735
 C993 C 0.69594 0.18345 0.31930
 C994 C 0.68489 0.16983 0.33282
 C995 C 0.67158 0.15340 0.34862
 C996 C 0.67302 0.12772 0.34505
 C997 C 0.65962 0.11175 0.35980
 C998 C 0.64458 0.12130 0.37834
 C999 C 0.64342 0.14715 0.38198
 C1000 C 0.65683 0.16307 0.36720
 C1001 C 0.62973 0.10447 0.39330
 C1002 C 0.62490 0.10897 0.42027
 C1003 C 0.61001 0.09388 0.43392
 C1004 C 0.59978 0.07411 0.42082
 C1005 C 0.60478 0.06919 0.39415
 C1006 C 0.61968 0.08423 0.38047
 C1007 C 0.58314 0.05991 0.43426
 C1008 C 0.56865 0.04877 0.44536
 H1009 H 0.68442 0.12004 0.33075
 H1010 H 0.66107 0.09194 0.35678
 H1011 H 0.63180 0.15509 0.39581
 H1012 H 0.65552 0.18293 0.37004
 H1013 H 0.63258 0.12420 0.43078
 H1014 H 0.60620 0.09790 0.45455
 H1015 H 0.59681 0.05406 0.38376
 H1016 H 0.62284 0.08048 0.35963
 C1017 C 0.69688 0.67794 -0.18628
 C1018 C 0.68554 0.66430 -0.17308
 C1019 C 0.67165 0.64852 -0.15719
 C1020 C 0.67311 0.62268 -0.15923
 C1021 C 0.65926 0.60748 -0.14410
 C1022 C 0.64378 0.61796 -0.12669
 C1023 C 0.64255 0.64396 -0.12471
 C1024 C 0.65638 0.65909 -0.13985
 C1025 C 0.62865 0.60196 -0.11104
 C1026 C 0.62324 0.60807 -0.08460
 C1027 C 0.60813 0.59377 -0.07034
 C1028 C 0.59825 0.57313 -0.08225
 C1029 C 0.60382 0.56662 -0.10837
 C1030 C 0.61894 0.58089 -0.12267
 C1031 C 0.58157 0.55950 -0.06816
 C1032 C 0.56714 0.54870 -0.05654
 H1033 H 0.68489 0.61429 -0.17256
 H1034 H 0.66077 0.58755 -0.14587
 H1035 H 0.63060 0.65261 -0.11183
 H1036 H 0.65504 0.67907 -0.13819
 H1037 H 0.63064 0.62397 -0.07495
 H1038 H 0.60393 0.59901 -0.05014
 H1039 H 0.59616 0.55078 -0.11786
 H1040 H 0.62255 0.57586 -0.14308
 C1041 C 0.79989 -0.18402 -0.17297
 C1042 C 0.81084 -0.17079 -0.15894
 C1043 C 0.82437 -0.15491 -0.14285
 C1044 C 0.82312 -0.12914 -0.14566
 C1045 C 0.83721 -0.11372 -0.13127
 C1046 C 0.85276 -0.12392 -0.11389
 C1047 C 0.85361 -0.14985 -0.11084
 C1048 C 0.83952 -0.16523 -0.12527
 C1049 C 0.86861 -0.10770 -0.09978
 C1050 C 0.87459 -0.11268 -0.07328
 C1051 C 0.89034 -0.09810 -0.06053
 C1052 C 0.90029 -0.07837 -0.07407
 C1053 C 0.89422 -0.07304 -0.10028
 C1054 C 0.87847 -0.08757 -0.11306
 C1055 C 0.91739 -0.06427 -0.06152
 C1056 C 0.93206 -0.05278 -0.05129
 H1057 H 0.81145 -0.12096 -0.15924
 H1058 H 0.83598 -0.09383 -0.13380
 H1059 H 0.86560 -0.15828 -0.09790
 H1060 H 0.84071 -0.18516 -0.12307
 H1061 H 0.86711 -0.12787 -0.06244
 H1062 H 0.89493 -0.10239 -0.04022
 H1063 H 0.90192 -0.05790 -0.11100
 H1064 H 0.87445 -0.08348 -0.13358
 C1065 C 0.81789 0.30229 0.32159
 C1066 C 0.83220 0.31183 0.33452
 C1067 C 0.84946 0.32336 0.34954
 C1068 C 0.85273 0.31710 0.37628
 C1069 C 0.86931 0.32867 0.39090
 C1070 C 0.88286 0.34664 0.37891
 C1071 C 0.87958 0.35257 0.35193
 C1072 C 0.86300 0.34100 0.33738
 C1073 C 0.89973 0.35996 0.39465
 C1074 C 0.92012 0.36596 0.38329
 C1075 C 0.93522 0.38040 0.39734
 C1076 C 0.93018 0.38893 0.42293
 C1077 C 0.91025 0.38240 0.43472
 C1078 C 0.89513 0.36798 0.42072
 C1079 C 0.94437 0.40636 0.43607
 C1080 C 0.95525 0.42210 0.44681
 H1081 H 0.84240 0.30338 0.38586
 H1082 H 0.87157 0.32352 0.41155
 H1083 H 0.88947 0.36661 0.34223
 H1084 H 0.86060 0.34601 0.31669
 H1085 H 0.92426 0.35978 0.36340
 H1086 H 0.95055 0.38547 0.38797
 H1087 H 0.90608 0.38914 0.45441
 H1088 H 0.87949 0.36397 0.42990
 C1089 C 0.30459 -0.18493 0.32045
 C1090 C 0.31624 -0.17191 0.33388
 C1091 C 0.33034 -0.15613 0.34935
 C1092 C 0.32460 -0.14941 0.37536
 C1093 C 0.33826 -0.13380 0.39016
 C1094 C 0.35783 -0.12466 0.37906
 C1095 C 0.36346 -0.13162 0.35293
 C1096 C 0.34981 -0.14723 0.33821
 C1097 C 0.37244 -0.10809 0.39462
 C1098 C 0.38286 -0.08781 0.38226
 C1099 C 0.39743 -0.07289 0.39651
 C1100 C 0.40176 -0.07797 0.42330
 C1101 C 0.39116 -0.09780 0.43594
 C1102 C 0.37655 -0.11275 0.42171
 C1103 C 0.41803 -0.06372 0.43724
 C1104 C 0.43227 -0.05220 0.44831
 H1105 H 0.30952 -0.15614 0.38415
 H1106 H 0.33339 -0.12860 0.41013
 H1107 H 0.37858 -0.12525 0.34399
 H1108 H 0.35444 -0.15236 0.31812
 H1109 H 0.37980 -0.08353 0.36154
 H1110 H 0.40557 -0.05762 0.38652
 H1111 H 0.39451 -0.10201 0.45662
 H1112 H 0.36897 -0.12838 0.43169
 C1113 C 0.30088 0.32132 -0.18317
 C1114 C 0.31194 0.33487 -0.16960
 C1115 C 0.32546 0.35070 -0.15340
 C1116 C 0.32716 0.34640 -0.12601
 C1117 C 0.34100 0.36109 -0.11043
 C1118 C 0.35337 0.38031 -0.12208
 C1119 C 0.35131 0.38470 -0.14959
 C1120 C 0.33746 0.36997 -0.16512
 C1121 C 0.36886 0.39521 -0.10581
 C1122 C 0.37127 0.42087 -0.11011
 C1123 C 0.38659 0.43460 -0.09560
 C1124 C 0.39968 0.42290 -0.07660
 C1125 C 0.39718 0.39746 -0.07189
 C1126 C 0.38187 0.38371 -0.08636
 C1127 C 0.41644 0.43664 -0.06288
 C1128 C 0.43095 0.44779 -0.05189
 H1129 H 0.31793 0.33154 -0.11672
 H1130 H 0.34202 0.35744 -0.08927
 H1131 H 0.36082 0.39911 -0.15923
 H1132 H 0.33636 0.37340 -0.18634
 H1133 H 0.36132 0.43032 -0.12470
 H1134 H 0.38842 0.45428 -0.09944
 H1135 H 0.40734 0.38817 -0.05738
 H1136 H 0.38065 0.36394 -0.08284
 C1137 C 1.19725 -0.18342 0.17485
 C1138 C 1.18664 -0.16970 0.16109
 C1139 C 1.17343 -0.15335 0.14529
 C1140 C 1.17506 -0.12764 0.14866
 C1141 C 1.16125 -0.11181 0.13453
 C1142 C 1.14561 -0.12153 0.11685
 C1143 C 1.14436 -0.14738 0.11329
 C1144 C 1.15816 -0.16317 0.12745
 C1145 C 1.13013 -0.10490 0.10287
 C1146 C 1.12428 -0.10944 0.07624
 C1147 C 1.10879 -0.09459 0.06359
 C1148 C 1.09896 -0.07500 0.07735
 C1149 C 1.10495 -0.07004 0.10369
 C1150 C 1.12046 -0.08486 0.11638
 C1151 C 1.08200 -0.06082 0.06482
 C1152 C 1.06743 -0.04959 0.05422
 H1153 H 1.18681 -0.11985 0.16246
 H1154 H 1.16278 -0.09199 0.13746
 H1155 H 1.13228 -0.15545 0.10013
 H1156 H 1.15665 -0.18305 0.12485
 H1157 H 1.13163 -0.12453 0.06522
 H1158 H 1.10425 -0.09860 0.04319
 H1159 H 1.09733 -0.05502 0.11458
 H1160 H 1.12439 -0.08109 0.13700
 C1161 C 1.17856 0.30154 0.68107
 C1162 C 1.16471 0.31202 0.66834
 C1163 C 1.14802 0.32477 0.65365
 C1164 C 1.14401 0.34985 0.65873
 C1165 C 1.12759 0.36228 0.64491
 C1166 C 1.11490 0.34978 0.62577
 C1167 C 1.11911 0.32458 0.62068
 C1168 C 1.13554 0.31215 0.63460
 C1169 C 1.09762 0.36322 0.61099
 C1170 C 1.09503 0.35982 0.58339
 C1171 C 1.07988 0.37396 0.56920
 C1172 C 1.06704 0.39151 0.58246
 C1173 C 1.06902 0.39443 0.61003
 C1174 C 1.08417 0.38037 0.62422
 C1175 C 1.05344 0.40826 0.56767
 C1176 C 1.04298 0.42355 0.55577
 H1177 H 1.15359 0.35981 0.67339
 H1178 H 1.12501 0.38178 0.64894
 H1179 H 1.10950 0.31443 0.60622
 H1180 H 1.13846 0.29270 0.63059
 H1181 H 1.10529 0.34692 0.57262
 H1182 H 1.07864 0.37174 0.54782
 H1183 H 1.05927 0.40806 0.62048
 H1184 H 1.08556 0.38314 0.64550
 C1185 C 0.69435 -0.18598 0.67743
 C1186 C 0.68318 -0.17227 0.66432
 C1187 C 0.66969 -0.15578 0.64902
 C1188 C 0.67209 -0.13008 0.65172
 C1189 C 0.65857 -0.11404 0.63745
 C1190 C 0.64246 -0.12352 0.62025
 C1191 C 0.64032 -0.14940 0.61750
 C1192 C 0.65384 -0.16540 0.63182
 C1193 C 0.62763 -0.10657 0.60568
 C1194 C 0.62164 -0.11160 0.57919
 C1195 C 0.60687 -0.09628 0.56591
 C1196 C 0.59790 -0.07572 0.57889
 C1197 C 0.60403 -0.07029 0.60507
 C1198 C 0.61883 -0.08558 0.61839
 C1199 C 0.58150 -0.06109 0.56581
 C1200 C 0.56725 -0.04958 0.55490
 H1201 H 0.68433 -0.12243 0.66496
 H1202 H 0.66078 -0.09422 0.63975
 H1203 H 0.62788 -0.15728 0.60473
 H1204 H 0.65178 -0.18527 0.62967
 H1205 H 0.62836 -0.12742 0.56876
 H1206 H 0.60220 -0.10068 0.54565
 H1207 H 0.59706 -0.05453 0.61538
 H1208 H 0.62290 -0.08138 0.63887
 C1209 C 0.69601 0.32277 0.18384
 C1210 C 0.68485 0.33621 0.17040
 C1211 C 0.67119 0.35190 0.15434
 C1212 C 0.67274 0.37774 0.15638
 C1213 C 0.65906 0.39289 0.14121
 C1214 C 0.64364 0.38235 0.12376
 C1215 C 0.64233 0.35635 0.12174
 C1216 C 0.65600 0.34126 0.13693
 C1217 C 0.62859 0.39829 0.10818
 C1218 C 0.62324 0.39223 0.08172
 C1219 C 0.60818 0.40647 0.06756
 C1220 C 0.59828 0.42697 0.07959
 C1221 C 0.60380 0.43345 0.10572
 C1222 C 0.61888 0.41925 0.11993
 C1223 C 0.58161 0.44048 0.06564
 C1224 C 0.56716 0.45118 0.05416
 H1225 H 0.68446 0.38618 0.16977
 H1226 H 0.66062 0.41283 0.14299
 H1227 H 0.63042 0.34766 0.10882
 H1228 H 0.65458 0.32129 0.13528
 H1229 H 0.63066 0.37643 0.07201
 H1230 H 0.60401 0.40126 0.04736
 H1231 H 0.59612 0.44919 0.11530
 H1232 H 0.62244 0.42422 0.14035
 C1233 C 0.80352 0.18803 0.17177
 C1234 C 0.81457 0.17435 0.15845
 C1235 C 0.82859 0.15799 0.14369
 C1236 C 0.82142 0.14676 0.12013
 C1237 C 0.83523 0.13067 0.10620
 C1238 C 0.85633 0.12559 0.11580
 C1239 C 0.86335 0.13708 0.13944
 C1240 C 0.84957 0.15314 0.15326
 C1241 C 0.87115 0.10861 0.10124
 C1242 C 0.88428 0.09176 0.11531
 C1243 C 0.89924 0.07680 0.10185
 C1244 C 0.90127 0.07842 0.07416
 C1245 C 0.88794 0.09471 0.05988
 C1246 C 0.87291 0.10969 0.07332
 C1247 C 0.91785 0.06431 0.06075
 C1248 C 0.93228 0.05285 0.05010
 H1249 H 0.80517 0.15035 0.11260
 H1250 H 0.82933 0.12194 0.08817
 H1251 H 0.87962 0.13388 0.14708
 H1252 H 0.85530 0.16180 0.17143
 H1253 H 0.88306 0.09024 0.13676
 H1254 H 0.90948 0.06426 0.11309
 H1255 H 0.88947 0.09619 0.03844
 H1256 H 0.86317 0.12264 0.06199
 C1257 C 0.81815 0.69947 0.67671
 C1258 C 0.83159 0.68969 0.66265
 C1259 C 0.84779 0.67787 0.64621
 C1260 C 0.84154 0.65984 0.62767
 C1261 C 0.85733 0.64765 0.61243
 C1262 C 0.87964 0.65333 0.61555
 C1263 C 0.88574 0.67173 0.63400
 C1264 C 0.86990 0.68390 0.64921
 C1265 C 0.89646 0.63937 0.60040
 C1266 C 0.91570 0.63141 0.61302
 C1267 C 0.93074 0.61661 0.59941
 C1268 C 0.92682 0.60965 0.57300
 C1269 C 0.90805 0.61806 0.56002
 C1270 C 0.89297 0.63285 0.57360
 C1271 C 0.94099 0.59212 0.56007
 C1272 C 0.95215 0.57642 0.54977
 H1273 H 0.82448 0.65494 0.62526
 H1274 H 0.85213 0.63332 0.59871
 H1275 H 0.90274 0.67669 0.63666
 H1276 H 0.87493 0.69787 0.66348
 H1277 H 0.91873 0.63582 0.63372
 H1278 H 0.94510 0.60999 0.60974
 H1279 H 0.90479 0.61270 0.53962
 H1280 H 0.87846 0.63896 0.56325
 C1281 C 0.30521 0.18889 0.67480
 C1282 C 0.31678 0.17560 0.66165
 C1283 C 0.33089 0.15954 0.64660
 C1284 C 0.32261 0.14541 0.62550
 C1285 C 0.33632 0.12934 0.61143
 C1286 C 0.35848 0.12715 0.61840
 C1287 C 0.36664 0.14157 0.63953
 C1288 C 0.35294 0.15763 0.65352
 C1289 C 0.37309 0.10994 0.60378
 C1290 C 0.38858 0.09575 0.61766
 C1291 C 0.40302 0.08036 0.60390
 C1292 C 0.40219 0.07889 0.57611
 C1293 C 0.38657 0.09255 0.56212
 C1294 C 0.37206 0.10795 0.57587
 C1295 C 0.41819 0.06440 0.56209
 C1296 C 0.43230 0.05277 0.55100
 H1297 H 0.30554 0.14667 0.62007
 H1298 H 0.32952 0.11831 0.59543
 H1299 H 0.38369 0.14059 0.64509
 H1300 H 0.35952 0.16850 0.66979
 H1301 H 0.38955 0.09657 0.63917
 H1302 H 0.41505 0.06986 0.61493
 H1303 H 0.38587 0.09164 0.54059
 H1304 H 0.36045 0.11881 0.56462
 C1305 C 0.30427 0.68126 0.18354
 C1306 C 0.31566 0.66783 0.17029
 C1307 C 0.32978 0.65204 0.15485
 C1308 C 0.32130 0.63718 0.13445
 C1309 C 0.33518 0.62192 0.11955
 C1310 C 0.35772 0.62131 0.12495
 C1311 C 0.36605 0.63638 0.14546
 C1312 C 0.35217 0.65162 0.16027
 C1313 C 0.37259 0.60515 0.10929
 C1314 C 0.38959 0.59229 0.12199
 C1315 C 0.40419 0.57792 0.10723
 C1316 C 0.40203 0.57612 0.07956
 C1317 C 0.38497 0.58849 0.06674
 C1318 C 0.37029 0.60288 0.08150
 C1319 C 0.41799 0.56245 0.06447
 C1320 C 0.43204 0.55137 0.05258
 H1321 H 0.30398 0.63733 0.13010
 H1322 H 0.32825 0.61036 0.10407
 H1323 H 0.38336 0.63665 0.14982
 H1324 H 0.35894 0.66312 0.17593
 H1325 H 0.39161 0.59335 0.14338
 H1326 H 0.41734 0.56844 0.11737
 H1327 H 0.38321 0.58734 0.04531
 H1328 H 0.35751 0.61274 0.07111
   
