data_POSCAR
  _audit_creation_date              2014-09-24
  _audit_creation_method            'ToBaCCo'
  _symmetry_space_group_name_H-M    'P1'
  _symmetry_Int_Tables_number       1
  _symmetry_cell_setting            triclinic
  loop_
  _symmetry_equiv_pos_as_xyz
 x,y,z
_cell_length_a 66.7576
_cell_length_b 65.4614
_cell_length_c 64.6372
_cell_angle_alpha 88.790500
_cell_angle_beta 91.162100
_cell_angle_gamma 89.735100
loop_
  _atom_site_label
  _atom_site_type_symbol
  _atom_site_fract_x
  _atom_site_fract_y
  _atom_site_fract_z
N1 N 0.15045 0.23204 0.20890
 N2 N 0.15446 0.21734 0.22255
 C3 C 0.14003 0.21696 0.23683
 C4 C 0.12631 0.23230 0.23180
 C5 C 0.13338 0.24153 0.21402
 H6 H 0.13956 0.20633 0.24983
 H7 H 0.12656 0.25420 0.20544
 Cu8 Cu 0.17805 0.20009 0.22001
 Cu9 Cu 0.16767 0.23788 0.18558
 Cu10 Cu 0.21052 0.20806 0.18164
 N11 N 0.20183 0.18312 0.21750
 N12 N 0.21447 0.18628 0.20243
 C13 C 0.22897 0.17192 0.20365
 C14 C 0.22518 0.15908 0.22041
 C15 C 0.20791 0.16667 0.22886
 H16 H 0.24106 0.17070 0.19285
 H17 H 0.20014 0.16030 0.24200
 N18 N 0.20369 0.23076 0.16212
 N19 N 0.18698 0.24153 0.16320
 C20 C 0.18599 0.25496 0.14714
 C21 C 0.20296 0.25274 0.13561
 C22 C 0.21391 0.23729 0.14547
 H23 H 0.17387 0.26567 0.14403
 H24 H 0.22797 0.23095 0.14057
 H25 H 0.17970 0.20879 0.18323
 H26 H 0.19384 0.22709 0.19972
 N27 N 0.67330 0.72317 0.72803
 N28 N 0.67106 0.70557 0.73786
 C29 C 0.65498 0.70674 0.75006
 C30 C 0.64684 0.72620 0.74773
 C31 C 0.65890 0.73620 0.73374
 H32 H 0.64958 0.69432 0.75968
 H33 H 0.65710 0.75170 0.72782
 Cu34 Cu 0.68959 0.68301 0.73370
 Cu35 Cu 0.69440 0.72767 0.70812
 Cu36 Cu 0.71401 0.68294 0.68896
 N37 N 0.70889 0.66161 0.72774
 N38 N 0.71827 0.66161 0.71005
 C39 C 0.73038 0.64516 0.70955
 C40 C 0.72863 0.63433 0.72805
 C41 C 0.71485 0.64519 0.73921
 H42 H 0.73982 0.64160 0.69671
 H43 H 0.70961 0.64139 0.75453
 N44 N 0.71572 0.70948 0.67433
 N45 N 0.70892 0.72663 0.68200
 C46 C 0.71243 0.74212 0.66856
 C47 C 0.72197 0.73426 0.65164
 C48 C 0.72390 0.71358 0.65585
 H49 H 0.70800 0.75780 0.67084
 H50 H 0.73066 0.70234 0.64611
 H51 H 0.68878 0.69885 0.69915
 H52 H 0.71341 0.70223 0.71280
 N53 N 0.32879 0.77749 0.71549
 N54 N 0.32473 0.79258 0.72789
 C55 C 0.33770 0.79191 0.74412
 C56 C 0.35052 0.77551 0.74175
 C57 C 0.34438 0.76660 0.72351
 H58 H 0.33791 0.80263 0.75662
 H59 H 0.35117 0.75361 0.71625
 Cu60 Cu 0.30360 0.81225 0.72105
 Cu61 Cu 0.31472 0.77449 0.68896
 Cu62 Cu 0.26938 0.80062 0.68468
 N63 N 0.28116 0.83044 0.71442
 N64 N 0.26819 0.82610 0.69960
 C65 C 0.25449 0.84119 0.69776
 C66 C 0.25899 0.85568 0.71235
 C67 C 0.27602 0.84838 0.72273
 H68 H 0.24202 0.84147 0.68679
 H69 H 0.28424 0.85566 0.73510
 N70 N 0.27701 0.77873 0.66594
 N71 N 0.29444 0.76911 0.66715
 C72 C 0.29544 0.75584 0.65153
 C73 C 0.27777 0.75729 0.63996
 C74 C 0.26648 0.77189 0.64955
 H75 H 0.30812 0.74603 0.64875
 H76 H 0.25184 0.77746 0.64461
 H77 H 0.29973 0.80259 0.68489
 H78 H 0.28949 0.78301 0.70315
 N79 N 0.81521 0.27090 0.23098
 N80 N 0.81083 0.28714 0.24166
 C81 C 0.82588 0.29068 0.25528
 C82 C 0.84028 0.27569 0.25327
 C83 C 0.83304 0.26331 0.23770
 H84 H 0.82634 0.30315 0.26599
 H85 H 0.84030 0.25011 0.23137
 Cu86 Cu 0.78582 0.30203 0.23689
 Cu87 Cu 0.79792 0.26139 0.20852
 Cu88 Cu 0.75103 0.28434 0.20372
 N89 N 0.76113 0.31710 0.23079
 N90 N 0.74751 0.30997 0.21792
 C91 C 0.73181 0.32294 0.21679
 C92 C 0.73581 0.33911 0.22959
 C93 C 0.75458 0.33495 0.23825
 H94 H 0.71848 0.32081 0.20730
 H95 H 0.76284 0.34416 0.24913
 N96 N 0.76000 0.26240 0.18565
 N97 N 0.77802 0.25403 0.18701
 C98 C 0.78005 0.24087 0.17141
 C99 C 0.76245 0.24107 0.15971
 C100 C 0.75011 0.25481 0.16920
 H101 H 0.79350 0.23223 0.16850
 H102 H 0.73528 0.25954 0.16396
 H103 H 0.78174 0.28824 0.20259
 H104 H 0.77277 0.27009 0.22308
 N105 N 0.82333 0.73379 0.27304
 N106 N 0.82219 0.71486 0.26672
 C107 C 0.83758 0.71118 0.25412
 C108 C 0.84883 0.72888 0.25246
 C109 C 0.83928 0.74289 0.26454
 H110 H 0.84051 0.69669 0.24704
 H111 H 0.84395 0.75839 0.26746
 Cu112 Cu 0.80067 0.69703 0.27591
 Cu113 Cu 0.80472 0.74495 0.29268
 Cu114 Cu 0.78000 0.70786 0.32117
 N115 N 0.77872 0.68077 0.28681
 N116 N 0.77086 0.68506 0.30471
 C117 C 0.75645 0.67144 0.30905
 C118 C 0.75506 0.65797 0.29297
 C119 C 0.76943 0.66428 0.27905
 H120 H 0.74756 0.67142 0.32286
 H121 H 0.77291 0.65746 0.26446
 N122 N 0.78349 0.73600 0.33051
 N123 N 0.79216 0.75037 0.31927
 C124 C 0.79204 0.76795 0.32972
 C125 C 0.78278 0.76445 0.34836
 C126 C 0.77751 0.74402 0.34836
 H127 H 0.79863 0.78212 0.32438
 H128 H 0.77007 0.73550 0.36045
 H129 H 0.80645 0.71718 0.30678
 H130 H 0.78178 0.72311 0.29386
 N131 N 0.33586 0.22655 -0.22018
 N132 N 0.33093 0.21389 -0.23493
 C133 C 0.34572 0.21329 -0.24874
 C134 C 0.36078 0.22632 -0.24222
 C135 C 0.35399 0.23449 -0.22409
 H136 H 0.34549 0.20388 -0.26229
 H137 H 0.36177 0.24527 -0.21438
 Cu138 Cu 0.30599 0.19886 -0.23448
 Cu139 Cu 0.31851 0.23153 -0.19694
 Cu140 Cu 0.27748 0.19980 -0.19214
 N141 N 0.28564 0.17843 -0.22944
 N142 N 0.27456 0.17878 -0.21288
 C143 C 0.26225 0.16255 -0.21292
 C144 C 0.26589 0.15146 -0.23049
 C145 C 0.28079 0.16198 -0.24060
 H146 H 0.25176 0.15898 -0.20087
 H147 H 0.28786 0.15774 -0.25481
 N148 N 0.28328 0.22207 -0.17289
 N149 N 0.29903 0.23406 -0.17464
 C150 C 0.29908 0.24750 -0.15916
 C151 C 0.28254 0.24376 -0.14710
 C152 C 0.27287 0.22760 -0.15626
 H153 H 0.31031 0.25912 -0.15689
 H154 H 0.25929 0.22036 -0.15106
 H155 H 0.30786 0.20189 -0.19716
 H156 H 0.29150 0.22207 -0.20979
 N157 N 0.65990 0.28292 -0.21519
 N158 N 0.65936 0.30267 -0.21928
 C159 C 0.64420 0.30683 -0.23279
 C160 C 0.63483 0.28868 -0.23751
 C161 C 0.64520 0.27377 -0.22606
 H162 H 0.64034 0.32191 -0.23883
 H163 H 0.64209 0.25759 -0.22525
 Cu164 Cu 0.67868 0.32108 -0.20694
 Cu165 Cu 0.67867 0.27087 -0.19494
 Cu166 Cu 0.71711 0.30184 -0.17781
 N167 N 0.70273 0.33675 -0.20145
 N168 N 0.71783 0.32922 -0.19030
 C169 C 0.73264 0.34313 -0.18968
 C170 C 0.72639 0.36024 -0.20109
 C171 C 0.70737 0.35566 -0.20827
 H172 H 0.74687 0.34087 -0.18166
 H173 H 0.69776 0.36526 -0.21807
 N174 N 0.71345 0.27357 -0.16737
 N175 N 0.69899 0.26166 -0.17427
 C176 C 0.69995 0.24362 -0.16392
 C177 C 0.71565 0.24421 -0.14975
 C178 C 0.72396 0.26342 -0.15235
 H179 H 0.68958 0.23115 -0.16598
 H180 H 0.73645 0.26969 -0.14374
 H181 H 0.68647 0.29689 -0.17878
 H182 H 0.70070 0.29170 -0.20287
 N183 N 0.15376 0.79182 0.28698
 N184 N 0.15242 0.81054 0.27926
 C185 C 0.13625 0.81202 0.26656
 C186 C 0.12707 0.79320 0.26611
 C187 C 0.13853 0.78067 0.27926
 H188 H 0.13161 0.82570 0.25806
 H189 H 0.13581 0.76481 0.28321
 Cu190 Cu 0.17209 0.83124 0.28576
 Cu191 Cu 0.17457 0.78387 0.30727
 Cu192 Cu 0.21348 0.81801 0.31345
 N193 N 0.19595 0.84801 0.28552
 N194 N 0.21222 0.84269 0.29613
 C195 C 0.22646 0.85684 0.29300
 C196 C 0.21862 0.87184 0.27964
 C197 C 0.19924 0.86573 0.27524
 H198 H 0.24129 0.85621 0.30002
 H199 H 0.18838 0.87355 0.26522
 N200 N 0.21183 0.79223 0.32952
 N201 N 0.19707 0.77908 0.32713
 C202 C 0.19958 0.76363 0.34107
 C203 C 0.21674 0.76734 0.35276
 C204 C 0.22409 0.78553 0.34501
 H205 H 0.18928 0.75109 0.34308
 H206 H 0.23708 0.79361 0.35077
 H207 H 0.18299 0.81254 0.31693
 H208 H 0.19477 0.80286 0.29289
 N209 N 0.48058 0.42727 0.48169
 N210 N 0.46231 0.42909 0.48863
 C211 C 0.45763 0.41208 0.49949
 C212 C 0.47394 0.39903 0.49952
 C213 C 0.48832 0.40916 0.48813
 H214 H 0.44341 0.40935 0.50675
 H215 H 0.50303 0.40361 0.48425
 Cu216 Cu 0.44666 0.45372 0.48308
 Cu217 Cu 0.49231 0.44832 0.46406
 Cu218 Cu 0.45629 0.47867 0.43856
 N219 N 0.43010 0.47639 0.47324
 N220 N 0.43327 0.48573 0.45540
 C221 C 0.41890 0.50005 0.45200
 C222 C 0.40639 0.49975 0.46887
 C223 C 0.41400 0.48468 0.48203
 H224 H 0.41800 0.51025 0.43863
 H225 H 0.40810 0.48001 0.49685
 N226 N 0.48400 0.47534 0.42861
 N227 N 0.49775 0.46443 0.43890
 C228 C 0.51506 0.46524 0.42867
 C229 C 0.51218 0.47718 0.41105
 C230 C 0.49231 0.48345 0.41146
 H231 H 0.52868 0.45727 0.43343
 H232 H 0.48447 0.49311 0.40016
 H233 H 0.47228 0.47339 0.46508
 H234 H 0.46461 0.45008 0.45090
 N235 N -0.02000 -0.07954 0.97795
 N236 N -0.03361 -0.07353 0.99098
 C237 C -0.03655 -0.08849 1.00518
 C238 C -0.02395 -0.10458 1.00097
 C239 C -0.01366 -0.09846 0.98355
 H240 H -0.04722 -0.08789 1.01752
 H241 H -0.00297 -0.10735 0.97512
 Cu242 Cu -0.04664 -0.04702 0.98775
 Cu243 Cu -0.01331 -0.06316 0.95351
 Cu244 Cu -0.02643 -0.01198 0.95644
 N245 N -0.06026 -0.02118 0.98151
 N246 N -0.05200 -0.00724 0.96955
 C247 C -0.06377 0.00947 0.96783
 C248 C -0.08218 0.00643 0.97971
 C249 C -0.07805 -0.01446 0.98815
 H250 H -0.06020 0.02293 0.95865
 H251 H -0.08784 -0.02320 0.99806
 N252 N -0.00720 -0.02230 0.93647
 N253 N -0.00281 -0.04186 0.93468
 C254 C 0.00892 -0.04414 0.91815
 C255 C 0.01192 -0.02505 0.90913
 C256 C 0.00159 -0.01161 0.92118
 H257 H 0.01433 -0.05865 0.91280
 H258 H -0.00025 0.00465 0.91838
 H259 H -0.01484 -0.03852 0.97144
 H260 H -0.03602 -0.04102 0.95239
 N261 N 1.03656 0.57302 0.96593
 N262 N 1.05092 0.56622 0.97852
 C263 C 1.05282 0.57896 0.99452
 C264 C 1.03880 0.59441 0.99183
 C265 C 1.02874 0.59023 0.97350
 H266 H 1.06379 0.57736 1.00699
 H267 H 1.01718 0.59939 0.96580
 Cu268 Cu 1.06642 0.54203 0.97208
 Cu269 Cu 1.03063 0.56009 0.93969
 Cu270 Cu 1.04539 0.50924 0.93893
 N271 N 1.07898 0.51599 0.96634
 N272 N 1.07063 0.50310 0.95349
 C273 C 1.08227 0.48632 0.95248
 C274 C 1.09887 0.48891 0.96527
 C275 C 1.09629 0.50792 0.97386
 H276 H 1.07906 0.47334 0.94290
 H277 H 1.10627 0.51545 0.98460
 N278 N 1.02539 0.52132 0.91932
 N279 N 1.02040 0.54086 0.91919
 C280 C 1.00785 0.54485 0.90305
 C281 C 1.00480 0.52699 0.89252
 C282 C 1.01613 0.51232 0.90322
 H283 H 1.00164 0.55973 0.89903
 H284 H 1.01818 0.49653 0.89914
 H285 H 1.03425 0.53367 0.95581
 H286 H 1.05411 0.53886 0.93649
 N287 N 0.52735 0.07214 0.46337
 N288 N 0.54228 0.06632 0.47574
 C289 C 0.54492 0.08026 0.49052
 C290 C 0.53083 0.09554 0.48732
 C291 C 0.51989 0.08997 0.46993
 H292 H 0.55646 0.07958 0.50252
 H293 H 0.50797 0.09856 0.46215
 Cu294 Cu 0.55763 0.04170 0.47078
 Cu295 Cu 0.52030 0.05696 0.43866
 Cu296 Cu 0.53460 0.00599 0.44261
 N297 N 0.56944 0.01485 0.46740
 N298 N 0.56022 0.00078 0.45663
 C299 C 0.57138 -0.01640 0.45717
 C300 C 0.58857 -0.01283 0.46875
 C301 C 0.58687 0.00718 0.47506
 H302 H 0.56741 -0.03036 0.44944
 H303 H 0.59745 0.01558 0.48441
 N304 N 0.51436 0.01641 0.42239
 N305 N 0.50944 0.03591 0.42035
 C306 C 0.49694 0.03842 0.40387
 C307 C 0.49396 0.01953 0.39509
 C308 C 0.50514 0.00597 0.40725
 H309 H 0.49096 0.05298 0.39842
 H310 H 0.50718 -0.01017 0.40465
 H311 H 0.52459 0.03237 0.45718
 H312 H 0.54351 0.03526 0.43644
 N313 N -0.02949 0.06499 0.52260
 N314 N -0.04106 0.05642 0.50859
 C315 C -0.04423 0.06962 0.49263
 C316 C -0.03413 0.08745 0.49681
 C317 C -0.02488 0.08402 0.51597
 H318 H -0.05325 0.06653 0.47897
 H319 H -0.01531 0.09441 0.52434
 Cu320 Cu -0.05133 0.02903 0.51246
 Cu321 Cu -0.02067 0.05043 0.54794
 Cu322 Cu -0.03781 0.00079 0.55408
 N323 N -0.06702 0.00565 0.52129
 N324 N -0.06159 -0.00541 0.53765
 C325 C -0.07488 -0.02054 0.54047
 C326 C -0.08950 -0.01878 0.52512
 C327 C -0.08407 -0.00198 0.51314
 H328 H -0.07411 -0.03182 0.55294
 H329 H -0.09195 0.00441 0.49971
 N330 N -0.01958 0.01366 0.57408
 N331 N -0.01338 0.03272 0.57221
 C332 C -0.00175 0.03738 0.58873
 C333 C -0.00014 0.01946 0.60331
 C334 C -0.01248 0.00502 0.59181
 H335 H 0.00524 0.05205 0.59102
 H336 H -0.01578 -0.01041 0.59693
 H337 H -0.02237 0.02222 0.53582
 H338 H -0.04504 0.03107 0.54946
 N339 N 0.47675 0.58407 0.03683
 N340 N 0.46528 0.57887 0.02104
 C341 C 0.46340 0.59493 0.00776
 C342 C 0.47428 0.61103 0.01580
 C343 C 0.48244 0.60361 0.03427
 H344 H 0.45484 0.59484 -0.00662
 H345 H 0.49203 0.61176 0.04495
 Cu346 Cu 0.45393 0.55159 0.01968
 Cu347 Cu 0.48341 0.56515 0.05959
 Cu348 Cu 0.47519 0.51423 0.04877
 N349 N 0.44174 0.52468 0.02193
 N350 N 0.45046 0.50994 0.03299
 C351 C 0.43938 0.49290 0.03171
 C352 C 0.42269 0.49722 0.01942
 C353 C 0.42464 0.51756 0.01339
 H354 H 0.44299 0.47853 0.03954
 H355 H 0.41443 0.52654 0.00366
 N356 N 0.49316 0.52311 0.07128
 N357 N 0.49570 0.54248 0.07588
 C358 C 0.50773 0.54359 0.09277
 C359 C 0.51289 0.52391 0.09914
 C360 C 0.50339 0.51133 0.08519
 H361 H 0.51206 0.55767 0.10003
 H362 H 0.50343 0.49480 0.08552
 H363 H 0.48524 0.54304 0.03829
 H364 H 0.46292 0.54146 0.05518
 N365 N 0.52331 -0.06491 0.02343
 N366 N 0.53909 -0.06176 0.01192
 C367 C 0.53956 -0.07604 -0.00281
 C368 C 0.52309 -0.08857 -0.00046
 C369 C 0.51308 -0.08102 0.01622
 H370 H 0.55070 -0.07694 -0.01468
 H371 H 0.49936 -0.08687 0.02264
 Cu372 Cu 0.55688 -0.03869 0.01679
 Cu373 Cu 0.51713 -0.04813 0.04705
 Cu374 Cu 0.54604 -0.00494 0.05338
 N375 N 0.57424 -0.01538 0.02225
 N376 N 0.56980 -0.00247 0.03679
 C377 C 0.58369 0.01228 0.03749
 C378 C 0.59761 0.00859 0.02257
 C379 C 0.59123 -0.00912 0.01309
 H380 H 0.58361 0.02493 0.04798
 H381 H 0.59834 -0.01679 0.00051
 N382 N 0.52448 -0.01260 0.07215
 N383 N 0.51340 -0.02907 0.06992
 C384 C 0.50030 -0.03018 0.08554
 C385 C 0.50351 -0.01362 0.09817
 C386 C 0.51891 -0.00290 0.08925
 H387 H 0.48948 -0.04223 0.08768
 H388 H 0.52570 0.01089 0.09500
 H389 H 0.52846 -0.02264 0.03337
 H390 H 0.54560 -0.03655 0.05217
 N391 N 1.02777 0.42308 0.53467
 N392 N 1.04407 0.42270 0.52362
 C393 C 1.04283 0.40711 0.51035
 C394 C 1.02475 0.39727 0.51335
 C395 C 1.01561 0.40783 0.52884
 H396 H 1.05421 0.40321 0.49944
 H397 H 1.00125 0.40445 0.53552
 Cu398 Cu 1.06526 0.44265 0.52780
 Cu399 Cu 1.02370 0.44281 0.55625
 Cu400 Cu 1.06074 0.47896 0.56373
 N401 N 1.08559 0.46355 0.53166
 N402 N 1.08374 0.47772 0.54563
 C403 C 1.09973 0.49018 0.54487
 C404 C 1.11224 0.48342 0.52957
 C405 C 1.10282 0.46653 0.52155
 H406 H 1.10203 0.50314 0.55471
 H407 H 1.10814 0.45720 0.50918
 N408 N 1.03629 0.47761 0.58044
 N409 N 1.02217 0.46390 0.57737
 C410 C 1.00767 0.46649 0.59125
 C411 C 1.01289 0.48262 0.60371
 C412 C 1.03112 0.48929 0.59645
 H413 H 0.99456 0.45699 0.59250
 H414 H 1.04005 0.50157 0.60263
 H415 H 1.04112 0.46561 0.54314
 H416 H 1.05372 0.44835 0.56282
 C417 C 0.34190 -0.00734 0.24327
 C418 C 0.35240 0.01059 0.23911
 C419 C 0.34227 0.02897 0.23493
 C420 C 0.32133 0.03025 0.23474
 C421 C 0.30995 0.01265 0.23858
 C422 C 0.31957 -0.00787 0.24355
 C423 C 0.37441 0.01014 0.23970
 C424 C 0.38496 0.00320 0.22270
 C425 C 0.40597 0.00276 0.22318
 C426 C 0.41633 0.00853 0.24132
 C427 C 0.40581 0.01503 0.25867
 C428 C 0.38484 0.01621 0.25751
 H429 H 0.35013 -0.02136 0.24668
 H430 H 0.35096 0.04263 0.23188
 H431 H 0.37678 -0.00149 0.20895
 H432 H 0.37653 0.02134 0.27070
 H433 H 0.29378 0.01343 0.23785
 H434 H 0.43251 0.00790 0.24191
 C435 C 0.15887 -0.01932 0.75618
 C436 C 0.14708 -0.00156 0.75597
 C437 C 0.15630 0.01761 0.75585
 C438 C 0.17724 0.01928 0.75601
 C439 C 0.18894 0.00134 0.75561
 C440 C 0.17978 -0.01796 0.75545
 C441 C 0.12506 -0.00289 0.75580
 C442 C 0.11521 -0.01178 0.77263
 C443 C 0.09421 -0.01194 0.77313
 C444 C 0.08311 -0.00418 0.75591
 C445 C 0.09290 0.00428 0.73866
 C446 C 0.11387 0.00533 0.73903
 H447 H 0.15172 -0.03416 0.75622
 H448 H 0.14706 0.03127 0.75606
 H449 H 0.12394 -0.01782 0.78573
 H450 H 0.12159 0.01214 0.72602
 H451 H 0.20511 0.00210 0.75616
 H452 H 0.06694 -0.00462 0.75599
 C453 C 0.65688 0.48454 0.26662
 C454 C 0.64780 0.50386 0.26484
 C455 C 0.65965 0.52149 0.26490
 C456 C 0.68061 0.51994 0.26728
 C457 C 0.68950 0.50048 0.26888
 C458 C 0.67785 0.48273 0.26818
 C459 C 0.62594 0.50558 0.26162
 C460 C 0.61291 0.50142 0.27794
 C461 C 0.59203 0.50279 0.27466
 C462 C 0.58446 0.50759 0.25473
 C463 C 0.59739 0.51152 0.23824
 C464 C 0.61813 0.51093 0.24195
 H465 H 0.64756 0.47104 0.26649
 H466 H 0.65241 0.53622 0.26275
 H467 H 0.61914 0.49701 0.29297
 H468 H 0.62826 0.51404 0.22938
 H469 H 0.70567 0.49913 0.27024
 H470 H 0.56839 0.50880 0.25228
 C471 C 0.85048 0.47415 0.75778
 C472 C 0.86014 0.49122 0.74925
 C473 C 0.84881 0.50822 0.74242
 C474 C 0.82791 0.50844 0.74432
 C475 C 0.81833 0.49097 0.75237
 C476 C 0.82955 0.47382 0.75937
 C477 C 0.88217 0.49150 0.74793
 C478 C 0.89136 0.49332 0.72866
 C479 C 0.91233 0.49344 0.72731
 C480 C 0.92405 0.49213 0.74566
 C481 C 0.91496 0.49085 0.76508
 C482 C 0.89403 0.49006 0.76604
 H483 H 0.85929 0.46101 0.76303
 H484 H 0.85637 0.52150 0.73607
 H485 H 0.88212 0.49423 0.71468
 H486 H 0.88690 0.48884 0.78093
 H487 H 0.80217 0.49047 0.75246
 H488 H 0.94018 0.49132 0.74495
 C489 C 0.26856 0.36419 -0.02069
 C490 C 0.26345 0.37447 -0.00274
 C491 C 0.25880 0.36329 0.01524
 C492 C 0.25911 0.34189 0.01535
 C493 C 0.26417 0.33169 -0.00276
 C494 C 0.26865 0.34276 -0.02098
 C495 C 0.26243 0.39694 -0.00296
 C496 C 0.24377 0.40681 -0.00230
 C497 C 0.24256 0.42826 -0.00286
 C498 C 0.26031 0.43966 -0.00329
 C499 C 0.27903 0.42996 -0.00382
 C500 C 0.28001 0.40850 -0.00390
 H501 H 0.27205 0.37293 -0.03458
 H502 H 0.25488 0.37129 0.02911
 H503 H 0.23034 0.39766 -0.00128
 H504 H 0.29432 0.40071 -0.00438
 H505 H 0.26525 0.31520 -0.00234
 H506 H 0.25954 0.45621 -0.00339
 C507 C 0.75080 0.13968 -0.01639
 C508 C 0.75528 0.12648 0.00046
 C509 C 0.75995 0.13454 0.01988
 C510 C 0.75973 0.15571 0.02278
 C511 C 0.75577 0.16881 0.00564
 C512 C 0.75145 0.16100 -0.01402
 C513 C 0.75514 0.10415 -0.00216
 C514 C 0.77299 0.09295 0.00037
 C515 C 0.77308 0.07166 -0.00197
 C516 C 0.75489 0.06164 -0.00580
 C517 C 0.73678 0.07256 -0.00787
 C518 C 0.73715 0.09402 -0.00662
 H519 H 0.74692 0.13316 -0.03116
 H520 H 0.76327 0.12425 0.03288
 H521 H 0.78666 0.10097 0.00424
 H522 H 0.72362 0.10301 -0.00876
 H523 H 0.75649 0.18521 0.00733
 H524 H 0.75483 0.04515 -0.00706
 C525 C 0.25266 0.64161 0.47441
 C526 C 0.25673 0.63035 0.49266
 C527 C 0.26146 0.64048 0.51095
 C528 C 0.26239 0.66188 0.51114
 C529 C 0.25849 0.67309 0.49262
 C530 C 0.25318 0.66304 0.47423
 C531 C 0.25593 0.60790 0.49258
 C532 C 0.27170 0.59674 0.48437
 C533 C 0.27110 0.57528 0.48428
 C534 C 0.25405 0.56516 0.49167
 C535 C 0.23804 0.57632 0.49989
 C536 C 0.23934 0.59768 0.50057
 H537 H 0.24883 0.63361 0.46037
 H538 H 0.26454 0.63163 0.52503
 H539 H 0.28438 0.60485 0.47809
 H540 H 0.22722 0.60648 0.50696
 H541 H 0.26023 0.68945 0.49241
 H542 H 0.25374 0.54864 0.49172
 C543 C 0.75100 0.85570 0.48781
 C544 C 0.74744 0.86755 0.50516
 C545 C 0.74299 0.85805 0.52412
 C546 C 0.74236 0.83670 0.52599
 C547 C 0.74553 0.82493 0.50838
 C548 C 0.74997 0.83426 0.48926
 C549 C 0.74796 0.88997 0.50339
 C550 C 0.73015 0.90123 0.50426
 C551 C 0.73041 0.92263 0.50218
 C552 C 0.74886 0.93264 0.50039
 C553 C 0.76690 0.92154 0.49991
 C554 C 0.76623 0.90005 0.50085
 H555 H 0.75380 0.86341 0.47320
 H556 H 0.74026 0.86733 0.53747
 H557 H 0.71620 0.89319 0.50651
 H558 H 0.77971 0.89097 0.49972
 H559 H 0.74419 0.80847 0.50932
 H560 H 0.74915 0.94918 0.49925
 C561 C -0.02865 0.24470 0.35833
 C562 C -0.01018 0.24599 0.36890
 C563 C 0.00762 0.24587 0.35779
 C564 C 0.00721 0.24436 0.33616
 C565 C -0.01146 0.24355 0.32567
 C566 C -0.02941 0.24401 0.33667
 C567 C -0.00935 0.24766 0.39160
 C568 C -0.01507 0.23116 0.40428
 C569 C -0.01337 0.23237 0.42595
 C570 C -0.00694 0.25072 0.43472
 C571 C -0.00155 0.26753 0.42212
 C572 C -0.00235 0.26565 0.40056
 H573 H -0.04242 0.24488 0.36693
 H574 H 0.02186 0.24659 0.36612
 H575 H -0.02063 0.21746 0.39710
 H576 H 0.00210 0.27835 0.39067
 H577 H -0.01228 0.24186 0.30909
 H578 H -0.00548 0.25154 0.45139
 C579 C -0.01873 0.73036 0.14320
 C580 C -0.00064 0.73575 0.13396
 C581 C 0.01624 0.73987 0.14639
 C582 C 0.01516 0.73865 0.16802
 C583 C -0.00306 0.73325 0.17714
 C584 C -0.02022 0.72946 0.16481
 C585 C 0.00058 0.73723 0.11126
 C586 C 0.00341 0.75627 0.10140
 C587 C 0.00381 0.75785 0.07975
 C588 C 0.00270 0.74002 0.06807
 C589 C 0.00055 0.72081 0.07787
 C590 C -0.00118 0.71961 0.09943
 H591 H -0.03177 0.72733 0.13350
 H592 H 0.03023 0.74396 0.13919
 H593 H 0.00453 0.76992 0.11056
 H594 H -0.00314 0.70488 0.10709
 H595 H -0.00366 0.73139 0.19378
 H596 H 0.00352 0.74108 0.05136
 C597 C 0.48559 0.23359 0.63967
 C598 C 0.50327 0.23864 0.62949
 C599 C 0.52058 0.24327 0.64105
 C600 C 0.52029 0.24304 0.66272
 C601 C 0.50241 0.23820 0.67280
 C602 C 0.48490 0.23371 0.66134
 C603 C 0.50344 0.23991 0.60673
 C604 C 0.50624 0.25886 0.59673
 C605 C 0.50558 0.26049 0.57509
 C606 C 0.50341 0.24273 0.56345
 C607 C 0.50119 0.22356 0.57333
 C608 C 0.50057 0.22235 0.59499
 H609 H 0.47219 0.23015 0.63066
 H610 H 0.53428 0.24708 0.63313
 H611 H 0.50815 0.27245 0.60586
 H612 H 0.49856 0.20769 0.60276
 H613 H 0.50236 0.23724 0.68953
 H614 H 0.50342 0.24380 0.54671
 C615 C 0.48082 0.76520 0.85170
 C616 C 0.49756 0.76098 0.86449
 C617 C 0.51602 0.75651 0.85571
 C618 C 0.51807 0.75645 0.83415
 C619 C 0.50123 0.76114 0.82139
 C620 C 0.48258 0.76534 0.83007
 C621 C 0.49582 0.76065 0.88713
 C622 C 0.48936 0.74288 0.89734
 C623 C 0.48938 0.74156 0.91903
 C624 C 0.49555 0.75861 0.93045
 C625 C 0.50159 0.77668 0.92033
 C626 C 0.50184 0.77754 0.89860
 H627 H 0.46658 0.76870 0.85860
 H628 H 0.52880 0.75287 0.86577
 H629 H 0.48487 0.72983 0.88832
 H630 H 0.50717 0.79110 0.89057
 H631 H 0.50220 0.76083 0.80473
 H632 H 0.49525 0.75822 0.94718
 C633 C 0.10787 0.23795 0.24248
 C634 C 0.10163 0.22775 0.26039
 C635 C 0.08300 0.23274 0.27137
 C636 C 0.08060 0.22480 0.29150
 C637 C 0.06315 0.22868 0.30236
 C638 C 0.04766 0.24071 0.29331
 C639 C 0.04993 0.24842 0.27308
 C640 C 0.06737 0.24450 0.26219
 C641 C 0.02861 0.24462 0.30398
 C642 C 0.02654 0.24255 0.32540
 H643 H 0.11107 0.21574 0.26705
 H644 H 0.09224 0.21543 0.29884
 H645 H 0.06177 0.22178 0.31761
 H646 H 0.03809 0.25741 0.26559
 H647 H 0.06823 0.25041 0.24650
 H648 H 0.01600 0.24984 0.29450
 H649 H 0.09929 0.25065 0.23597
 H650 H 0.03978 0.23976 0.33498
 C651 C 0.62881 0.73482 0.75705
 C652 C 0.61692 0.72371 0.77072
 C653 C 0.59824 0.73186 0.77952
 C654 C 0.59065 0.72241 0.79738
 C655 C 0.57289 0.72935 0.80598
 C656 C 0.56230 0.74599 0.79686
 C657 C 0.56967 0.75517 0.77877
 C658 C 0.58744 0.74824 0.77017
 C659 C 0.54316 0.75351 0.80519
 C660 C 0.53767 0.75031 0.82575
 H661 H 0.62171 0.70852 0.77563
 H662 H 0.59847 0.70954 0.80468
 H663 H 0.56735 0.72133 0.81948
 H664 H 0.56162 0.76775 0.77121
 H665 H 0.59233 0.75550 0.75599
 H666 H 0.53358 0.76258 0.79487
 H667 H 0.62502 0.75048 0.75294
 H668 H 0.54843 0.74336 0.83652
 C669 C 0.36766 0.76925 0.75513
 C670 C 0.37732 0.78310 0.76799
 C671 C 0.39503 0.77757 0.78101
 C672 C 0.40991 0.79225 0.78439
 C673 C 0.42672 0.78759 0.79687
 C674 C 0.42869 0.76827 0.80659
 C675 C 0.41356 0.75374 0.80365
 C676 C 0.39697 0.75824 0.79076
 C677 C 0.44599 0.76330 0.82041
 C678 C 0.46525 0.77024 0.81629
 H679 H 0.37272 0.79900 0.76730
 H680 H 0.40857 0.80733 0.77723
 H681 H 0.43793 0.79925 0.79927
 H682 H 0.41469 0.73885 0.81122
 H683 H 0.38546 0.74680 0.78881
 H684 H 0.44377 0.75285 0.83338
 H685 H 0.37357 0.75391 0.75379
 H686 H 0.46797 0.77826 0.80179
 C687 C -0.14167 0.27426 0.26449
 C688 C -0.12870 0.25754 0.26352
 C689 C -0.10937 0.25694 0.27505
 C690 C -0.10271 0.23860 0.28453
 C691 C -0.08441 0.23779 0.29547
 C692 C -0.07226 0.25522 0.29660
 C693 C -0.07869 0.27340 0.28664
 C694 C -0.09720 0.27435 0.27617
 C695 C -0.05254 0.25464 0.30734
 C696 C -0.04904 0.24355 0.32573
 H697 H -0.13325 0.24404 0.25529
 H698 H -0.11179 0.22496 0.28363
 H699 H -0.07958 0.22345 0.30264
 H700 H -0.06943 0.28694 0.28711
 H701 H -0.10181 0.28856 0.26859
 H702 H -0.04089 0.26457 0.30152
 H703 H -0.13792 0.28653 0.27486
 H704 H -0.06140 0.23591 0.33319
 C705 C -0.13231 0.73250 0.24163
 C706 C -0.12235 0.71743 0.23081
 C707 C -0.10257 0.72089 0.22135
 C708 C -0.09664 0.70859 0.20502
 C709 C -0.07804 0.71148 0.19581
 C710 C -0.06495 0.72675 0.20287
 C711 C -0.07068 0.73863 0.21958
 C712 C -0.08924 0.73576 0.22874
 C713 C -0.04510 0.73052 0.19373
 C714 C -0.03980 0.72438 0.17399
 H715 H -0.12942 0.70274 0.22878
 H716 H -0.10647 0.69676 0.19931
 H717 H -0.07392 0.70152 0.18344
 H718 H -0.06075 0.75024 0.22558
 H719 H -0.09283 0.74500 0.24184
 H720 H -0.03476 0.73986 0.20246
 H721 H -0.12608 0.74769 0.24249
 H722 H -0.05085 0.71710 0.16419
 C723 C 0.37913 0.23055 0.74869
 C724 C 0.38524 0.22147 0.73046
 C725 C 0.40473 0.22556 0.72065
 C726 C 0.41170 0.21179 0.70604
 C727 C 0.42992 0.21507 0.69626
 C728 C 0.44148 0.23238 0.70076
 C729 C 0.43458 0.24611 0.71541
 C730 C 0.41633 0.24288 0.72514
 C731 C 0.46087 0.23641 0.69081
 C732 C 0.46580 0.22885 0.67151
 H733 H 0.37568 0.21023 0.72328
 H734 H 0.40310 0.19832 0.70231
 H735 H 0.43500 0.20383 0.68549
 H736 H 0.44321 0.25957 0.71913
 H737 H 0.41134 0.25420 0.73585
 H738 H 0.47099 0.24694 0.69834
 H739 H 0.38896 0.24104 0.75659
 H740 H 0.45471 0.22047 0.66274
 C741 C 0.61819 0.28653 0.74932
 C742 C 0.61041 0.26752 0.74408
 C743 C 0.59237 0.26532 0.73073
 C744 C 0.59072 0.24824 0.71808
 C745 C 0.57363 0.24547 0.70564
 C746 C 0.55772 0.25959 0.70592
 C747 C 0.55919 0.27644 0.71890
 C748 C 0.57643 0.27941 0.73108
 C749 C 0.53912 0.25652 0.69364
 C750 C 0.53899 0.24708 0.67449
 H751 H 0.61830 0.25369 0.74895
 H752 H 0.60270 0.23703 0.71781
 H753 H 0.57269 0.23200 0.69623
 H754 H 0.54697 0.28734 0.71959
 H755 H 0.57704 0.29241 0.74113
 H756 H 0.52529 0.26276 0.69939
 H757 H 0.61140 0.30026 0.74262
 H758 H 0.55309 0.24344 0.66739
 C759 C 0.10871 0.78835 0.25432
 C760 C 0.10311 0.76839 0.25002
 C761 C 0.08494 0.76385 0.23753
 C762 C 0.08494 0.74707 0.22440
 C763 C 0.06807 0.74279 0.21207
 C764 C 0.05078 0.75507 0.21298
 C765 C 0.05055 0.77140 0.22667
 C766 C 0.06752 0.77588 0.23872
 C767 C 0.03262 0.75086 0.20036
 C768 C 0.03338 0.74249 0.18071
 H769 H 0.11307 0.75589 0.25451
 H770 H 0.09811 0.73744 0.22347
 H771 H 0.06849 0.72972 0.20211
 H772 H 0.03728 0.78086 0.22786
 H773 H 0.06687 0.78857 0.24916
 H774 H 0.01834 0.75594 0.20609
 H775 H 0.09997 0.80101 0.24786
 H776 H 0.04781 0.74000 0.17379
 C777 C 0.23596 0.14046 0.22752
 C778 C 0.25211 0.13239 0.21689
 C779 C 0.26248 0.11286 0.22258
 C780 C 0.27892 0.10690 0.21086
 C781 C 0.28892 0.08843 0.21516
 C782 C 0.28277 0.07550 0.23146
 C783 C 0.26629 0.08137 0.24312
 C784 C 0.25626 0.09981 0.23881
 C785 C 0.29255 0.05554 0.23632
 C786 C 0.31177 0.05034 0.22995
 H787 H 0.25731 0.14066 0.20337
 H788 H 0.28395 0.11648 0.19814
 H789 H 0.30114 0.08425 0.20535
 H790 H 0.26110 0.07161 0.25563
 H791 H 0.24360 0.10344 0.24820
 H792 H 0.28457 0.04495 0.24620
 H793 H 0.23041 0.13288 0.24122
 H794 H 0.32077 0.06179 0.22227
 C795 C 0.73913 0.61545 0.73497
 C796 C 0.75293 0.60557 0.72258
 C797 C 0.76418 0.58672 0.72879
 C798 C 0.77973 0.58022 0.71615
 C799 C 0.79078 0.56255 0.72118
 C800 C 0.78656 0.55096 0.73913
 C801 C 0.77079 0.55725 0.75160
 C802 C 0.75971 0.57490 0.74654
 C803 C 0.79780 0.53208 0.74515
 C804 C 0.81658 0.52700 0.73748
 H805 H 0.75608 0.61222 0.70754
 H806 H 0.78336 0.58885 0.70224
 H807 H 0.80233 0.55796 0.71074
 H808 H 0.76703 0.54847 0.76537
 H809 H 0.74760 0.57893 0.75653
 H810 H 0.79144 0.52244 0.75710
 H811 H 0.73598 0.60966 0.75032
 H812 H 0.82408 0.53767 0.72730
 C813 C 0.73722 0.37932 0.79448
 C814 C 0.75731 0.38214 0.80003
 C815 C 0.76841 0.40099 0.79459
 C816 C 0.78929 0.40001 0.79267
 C817 C 0.80016 0.41737 0.78691
 C818 C 0.79030 0.43617 0.78305
 C819 C 0.76952 0.43729 0.78577
 C820 C 0.75867 0.41993 0.79145
 C821 C 0.80093 0.45496 0.77634
 C822 C 0.81990 0.45503 0.76752
 H823 H 0.76560 0.36963 0.80739
 H824 H 0.79719 0.38568 0.79537
 H825 H 0.81622 0.41592 0.78572
 H826 H 0.76159 0.45163 0.78327
 H827 H 0.74271 0.42150 0.79356
 H828 H 0.79302 0.46930 0.77781
 H829 H 0.72920 0.39109 0.78567
 H830 H 0.82821 0.44090 0.76645
 C831 C 0.22769 -0.11045 0.27202
 C832 C 0.24759 -0.10547 0.27664
 C833 C 0.25725 -0.08647 0.26912
 C834 C 0.27822 -0.08586 0.26837
 C835 C 0.28799 -0.06808 0.26193
 C836 C 0.27692 -0.05041 0.25629
 C837 C 0.25595 -0.05099 0.25709
 C838 C 0.24617 -0.06881 0.26348
 C839 C 0.28683 -0.03114 0.25007
 C840 C 0.30753 -0.02964 0.24925
 H841 H 0.25686 -0.11619 0.28555
 H842 H 0.28710 -0.09921 0.27277
 H843 H 0.30419 -0.06817 0.26157
 H844 H 0.24710 -0.03753 0.25300
 H845 H 0.23002 -0.06845 0.26444
 H846 H 0.27764 -0.01779 0.24654
 H847 H 0.21880 -0.10050 0.26186
 H848 H 0.31262 -0.01814 0.24624
 C849 C 0.24838 -0.12624 0.71531
 C850 C 0.25210 -0.11348 0.73197
 C851 C 0.24082 -0.09429 0.73441
 C852 C 0.23467 -0.08868 0.75412
 C853 C 0.22379 -0.07062 0.75666
 C854 C 0.21942 -0.05764 0.73955
 C855 C 0.22615 -0.06294 0.71996
 C856 C 0.23654 -0.08125 0.71734
 C857 C 0.20827 -0.03835 0.74183
 C858 C 0.19186 -0.03685 0.75471
 H859 H 0.26239 -0.11828 0.74432
 H860 H 0.23804 -0.09843 0.76750
 H861 H 0.21910 -0.06664 0.77201
 H862 H 0.22310 -0.05302 0.70663
 H863 H 0.24152 -0.08505 0.70204
 H864 H 0.21181 -0.02558 0.73162
 H865 H 0.23628 -0.12237 0.70448
 H866 H 0.18651 -0.05042 0.76271
 C867 C 0.72252 0.35677 0.23276
 C868 C 0.72742 0.37235 0.24638
 C869 C 0.71468 0.39061 0.24957
 C870 C 0.71871 0.40276 0.26680
 C871 C 0.70757 0.42049 0.27009
 C872 C 0.69221 0.42658 0.25604
 C873 C 0.68793 0.41428 0.23902
 C874 C 0.69911 0.39658 0.23568
 C875 C 0.68055 0.44567 0.25845
 C876 C 0.68816 0.46265 0.26866
 H877 H 0.74115 0.37099 0.25553
 H878 H 0.73056 0.39851 0.27779
 H879 H 0.71096 0.42926 0.28371
 H880 H 0.67619 0.41865 0.22796
 H881 H 0.69571 0.38803 0.22195
 H882 H 0.66645 0.44712 0.24998
 H883 H 0.70842 0.35709 0.22426
 H884 H 0.70326 0.46203 0.27507
 C885 C 0.74091 0.64084 0.29168
 C886 C 0.74048 0.62734 0.27527
 C887 C 0.72650 0.60985 0.27419
 C888 C 0.73147 0.59316 0.26201
 C889 C 0.71887 0.57620 0.26091
 C890 C 0.70094 0.57562 0.27200
 C891 C 0.69562 0.59263 0.28357
 C892 C 0.70824 0.60957 0.28469
 C893 C 0.68732 0.55781 0.27156
 C894 C 0.69383 0.53807 0.26724
 H895 H 0.75146 0.62896 0.26326
 H896 H 0.74526 0.59315 0.25345
 H897 H 0.72314 0.56375 0.25117
 H898 H 0.68171 0.59275 0.29192
 H899 H 0.70345 0.62245 0.29359
 H900 H 0.67204 0.56020 0.27627
 H901 H 0.73094 0.63863 0.30450
 H902 H 0.70963 0.53543 0.26492
 C903 C 0.25681 0.13213 0.76293
 C904 C 0.24214 0.12220 0.77440
 C905 C 0.23304 0.10244 0.76869
 C906 C 0.21529 0.09648 0.77831
 C907 C 0.20636 0.07779 0.77388
 C908 C 0.21501 0.06460 0.75961
 C909 C 0.23294 0.07038 0.75023
 C910 C 0.24189 0.08910 0.75466
 C911 C 0.20630 0.04436 0.75509
 C912 C 0.18609 0.03990 0.75795
 H913 H 0.23665 0.12942 0.78809
 H914 H 0.20834 0.10628 0.78943
 H915 H 0.19298 0.07358 0.78207
 H916 H 0.24010 0.06032 0.73948
 H917 H 0.25589 0.09274 0.74739
 H918 H 0.21610 0.03297 0.74878
 H919 H 0.26186 0.12586 0.74860
 H920 H 0.17602 0.05221 0.76174
 C921 C 0.20752 0.26414 0.11646
 C922 C 0.22692 0.26575 0.10907
 C923 C 0.23137 0.27752 0.08999
 C924 C 0.24926 0.28858 0.08884
 C925 C 0.25364 0.30004 0.07100
 C926 C 0.24035 0.30022 0.05385
 C927 C 0.22276 0.28864 0.05478
 C928 C 0.21818 0.27755 0.07277
 C929 C 0.24482 0.31173 0.03462
 C930 C 0.25470 0.33046 0.03466
 H931 H 0.23933 0.25954 0.11829
 H932 H 0.25975 0.28855 0.10185
 H933 H 0.26758 0.30841 0.07050
 H934 H 0.21245 0.28834 0.04163
 H935 H 0.20450 0.26873 0.07306
 H936 H 0.23891 0.30600 0.02014
 H937 H 0.19540 0.27238 0.10858
 H938 H 0.25811 0.33760 0.04928
 C939 C 0.72839 0.74497 0.63268
 C940 C 0.72405 0.76556 0.62861
 C941 C 0.72953 0.77630 0.60918
 C942 C 0.71847 0.79363 0.60268
 C943 C 0.72292 0.80397 0.58421
 C944 C 0.73882 0.79733 0.57202
 C945 C 0.75003 0.78015 0.57867
 C946 C 0.74555 0.76979 0.59710
 C947 C 0.74371 0.80735 0.55201
 C948 C 0.73772 0.82719 0.54630
 H949 H 0.71521 0.77388 0.63951
 H950 H 0.70607 0.79895 0.61173
 H951 H 0.71358 0.81681 0.57942
 H952 H 0.76237 0.77475 0.56959
 H953 H 0.75482 0.75689 0.60189
 H954 H 0.75321 0.79896 0.54176
 H955 H 0.73594 0.73601 0.62130
 H956 H 0.73040 0.83663 0.55745
 C957 C 0.78016 0.77940 0.36480
 C958 C 0.76971 0.77471 0.38275
 C959 C 0.76746 0.78891 0.40008
 C960 C 0.75216 0.78527 0.41423
 C961 C 0.74987 0.79779 0.43125
 C962 C 0.76310 0.81409 0.43467
 C963 C 0.77823 0.81793 0.42037
 C964 C 0.78051 0.80541 0.40330
 C965 C 0.76133 0.82749 0.45272
 C966 C 0.75240 0.82111 0.47110
 H967 H 0.76233 0.76007 0.38406
 H968 H 0.74185 0.77272 0.41205
 H969 H 0.73758 0.79474 0.44149
 H970 H 0.78856 0.83044 0.42262
 H971 H 0.79278 0.80848 0.39305
 H972 H 0.76839 0.84230 0.45180
 H973 H 0.78644 0.79443 0.36242
 H974 H 0.74761 0.80539 0.47270
 C975 C 0.27621 0.25425 -0.12836
 C976 C 0.28752 0.26978 -0.11943
 C977 C 0.28202 0.28057 -0.10038
 C978 C 0.29303 0.29793 -0.09486
 C979 C 0.28867 0.30852 -0.07694
 C980 C 0.27306 0.30202 -0.06412
 C981 C 0.26224 0.28450 -0.06946
 C982 C 0.26663 0.27387 -0.08735
 C983 C 0.26801 0.31254 -0.04481
 C984 C 0.27389 0.33248 -0.04037
 H985 H 0.30114 0.27456 -0.12691
 H986 H 0.30515 0.30329 -0.10443
 H987 H 0.29785 0.32151 -0.07311
 H988 H 0.25032 0.27898 -0.05971
 H989 H 0.25805 0.26032 -0.09057
 H990 H 0.25834 0.30451 -0.03418
 H991 H 0.26225 0.24943 -0.12172
 H992 H 0.28153 0.34148 -0.05197
 C993 C 0.72096 0.22791 -0.13455
 C994 C 0.73486 0.23066 -0.11845
 C995 C 0.73882 0.21505 -0.10192
 C996 C 0.74616 0.22140 -0.08263
 C997 C 0.74949 0.20725 -0.06641
 C998 C 0.74560 0.18637 -0.06920
 C999 C 0.73902 0.17992 -0.08874
 C1000 C 0.73559 0.19409 -0.10495
 C1001 C 0.74877 0.17096 -0.05232
 C1002 C 0.74756 0.17574 -0.03140
 H1003 H 0.74196 0.24540 -0.11693
 H1004 H 0.74911 0.23740 -0.08001
 H1005 H 0.75538 0.21275 -0.05186
 H1006 H 0.73632 0.16387 -0.09142
 H1007 H 0.73064 0.18850 -0.11981
 H1008 H 0.75173 0.15541 -0.05671
 H1009 H 0.71264 0.21381 -0.13544
 H1010 H 0.74406 0.19129 -0.02736
 C1011 C 0.22491 0.75591 0.37092
 C1012 C 0.21708 0.73729 0.37774
 C1013 C 0.22433 0.72653 0.39687
 C1014 C 0.22162 0.70534 0.39886
 C1015 C 0.22785 0.69478 0.41692
 C1016 C 0.23681 0.70528 0.43344
 C1017 C 0.23913 0.72652 0.43160
 C1018 C 0.23303 0.73706 0.41351
 C1019 C 0.24295 0.69483 0.45313
 C1020 C 0.24823 0.67414 0.45451
 H1021 H 0.20559 0.73000 0.36847
 H1022 H 0.21462 0.69694 0.38642
 H1023 H 0.22512 0.67853 0.41802
 H1024 H 0.24565 0.73502 0.44425
 H1025 H 0.23472 0.75348 0.41287
 H1026 H 0.24337 0.70400 0.46683
 H1027 H 0.23756 0.76249 0.37905
 H1028 H 0.24812 0.66534 0.44052
 C1029 C 0.27182 0.74660 0.62100
 C1030 C 0.28428 0.73269 0.61133
 C1031 C 0.27868 0.72245 0.59180
 C1032 C 0.28903 0.70467 0.58647
 C1033 C 0.28432 0.69464 0.56812
 C1034 C 0.26908 0.70222 0.55465
 C1035 C 0.25906 0.72026 0.55974
 C1036 C 0.26378 0.73029 0.57807
 C1037 C 0.26360 0.69225 0.53494
 C1038 C 0.26807 0.67187 0.53079
 H1039 H 0.29855 0.72870 0.61861
 H1040 H 0.30082 0.69849 0.59657
 H1041 H 0.29293 0.68120 0.56447
 H1042 H 0.24751 0.72666 0.54949
 H1043 H 0.25593 0.74436 0.58111
 H1044 H 0.25466 0.70109 0.52381
 H1045 H 0.25702 0.74990 0.61467
 H1046 H 0.27495 0.66234 0.54284
 C1047 C 0.75770 0.23052 0.14033
 C1048 C 0.77145 0.21815 0.13039
 C1049 C 0.76732 0.20889 0.10999
 C1050 C 0.77908 0.19231 0.10390
 C1051 C 0.77593 0.18348 0.08457
 C1052 C 0.76089 0.19112 0.07088
 C1053 C 0.74938 0.20790 0.07686
 C1054 C 0.75253 0.21672 0.09613
 C1055 C 0.75714 0.18270 0.05004
 C1056 C 0.76401 0.16365 0.04373
 H1057 H 0.78578 0.21489 0.13791
 H1058 H 0.79080 0.18620 0.11412
 H1059 H 0.78557 0.17099 0.08038
 H1060 H 0.73793 0.21433 0.06651
 H1061 H 0.74363 0.22995 0.09979
 H1062 H 0.74758 0.19163 0.03955
 H1063 H 0.74284 0.23292 0.13372
 H1064 H 0.77160 0.15354 0.05480
 C1065 C 0.47489 0.37839 0.50890
 C1066 C 0.49279 0.36745 0.51117
 C1067 C 0.49364 0.34651 0.52014
 C1068 C 0.51100 0.33992 0.53095
 C1069 C 0.51212 0.32024 0.53975
 C1070 C 0.49594 0.30673 0.53760
 C1071 C 0.47887 0.31309 0.52617
 C1072 C 0.47765 0.33284 0.51762
 C1073 C 0.49649 0.28586 0.54672
 C1074 C 0.50699 0.28089 0.56504
 H1075 H 0.50676 0.37480 0.50730
 H1076 H 0.52363 0.35010 0.53278
 H1077 H 0.52573 0.31557 0.54796
 H1078 H 0.46635 0.30283 0.52405
 H1079 H 0.46431 0.33723 0.50878
 H1080 H 0.48672 0.27456 0.53990
 H1081 H 0.46114 0.37195 0.51469
 H1082 H 0.51462 0.29282 0.57342
 C1083 C -0.02327 0.87552 0.01192
 C1084 C -0.00679 0.86245 0.01114
 C1085 C -0.00661 0.84223 0.02171
 C1086 C 0.01115 0.83480 0.03116
 C1087 C 0.01153 0.81567 0.04127
 C1088 C -0.00575 0.80350 0.04158
 C1089 C -0.02333 0.81072 0.03162
 C1090 C -0.02384 0.83001 0.02197
 C1091 C -0.00572 0.78296 0.05146
 C1092 C 0.00521 0.77818 0.06955
 H1093 H 0.00669 0.86761 0.00363
 H1094 H 0.02466 0.84390 0.03091
 H1095 H 0.02542 0.81025 0.04843
 H1096 H -0.03675 0.80147 0.03147
 H1097 H -0.03761 0.83518 0.01436
 H1098 H -0.01600 0.77175 0.04530
 H1099 H -0.03580 0.87142 0.02152
 H1100 H 0.01333 0.79010 0.07745
 C1101 C 0.03667 0.61239 0.00485
 C1102 C 0.01956 0.62468 0.00397
 C1103 C 0.01802 0.64356 0.01593
 C1104 C -0.00060 0.64952 0.02353
 C1105 C -0.00240 0.66749 0.03469
 C1106 C 0.01437 0.68000 0.03798
 C1107 C 0.03286 0.67430 0.02989
 C1108 C 0.03474 0.65615 0.01913
 C1109 C 0.01294 0.69934 0.04917
 C1110 C 0.00032 0.70189 0.06587
 H1111 H 0.00662 0.61991 -0.00505
 H1112 H -0.01373 0.64017 0.02096
 H1113 H -0.01695 0.67179 0.04033
 H1114 H 0.04591 0.68386 0.03204
 H1115 H 0.04917 0.65221 0.01294
 H1116 H 0.02349 0.71131 0.04538
 H1117 H 0.04873 0.61576 0.01567
 H1118 H -0.00823 0.68902 0.07160
 C1119 C 0.52950 0.11442 0.49908
 C1120 C 0.51257 0.12694 0.49842
 C1121 C 0.51199 0.14623 0.50981
 C1122 C 0.49421 0.15238 0.51911
 C1123 C 0.49359 0.17044 0.53030
 C1124 C 0.51069 0.18281 0.53194
 C1125 C 0.52823 0.17699 0.52201
 C1126 C 0.52896 0.15877 0.51121
 C1127 C 0.51058 0.20208 0.54336
 C1128 C 0.49965 0.20469 0.56128
 H1129 H 0.49911 0.12194 0.49042
 H1130 H 0.48089 0.14305 0.51795
 H1131 H 0.47971 0.17485 0.53737
 H1132 H 0.54149 0.18645 0.52285
 H1133 H 0.54272 0.15466 0.50372
 H1134 H 0.52095 0.21388 0.53861
 H1135 H 0.54210 0.11824 0.50906
 H1136 H 0.49142 0.19192 0.56773
 C1137 C -0.03340 0.10558 0.48298
 C1138 C -0.02373 0.12358 0.48847
 C1139 C -0.02243 0.14167 0.47437
 C1140 C -0.01868 0.16088 0.48281
 C1141 C -0.01694 0.17824 0.46999
 C1142 C -0.01886 0.17671 0.44835
 C1143 C -0.02230 0.15743 0.43991
 C1144 C -0.02408 0.14010 0.45272
 C1145 C -0.01631 0.19447 0.43403
 C1146 C -0.01788 0.21483 0.43995
 H1147 H -0.01739 0.12477 0.50394
 H1148 H -0.01702 0.16246 0.49941
 H1149 H -0.01359 0.19262 0.47717
 H1150 H -0.02349 0.15574 0.42329
 H1151 H -0.02626 0.12550 0.44552
 H1152 H -0.01275 0.19117 0.41819
 H1153 H -0.04115 0.10466 0.46818
 H1154 H -0.02143 0.21823 0.45575
 C1155 C 0.47738 0.63167 1.00700
 C1156 C 0.46992 0.63781 0.98752
 C1157 C 0.47410 0.65811 0.97803
 C1158 C 0.47299 0.66042 0.95641
 C1159 C 0.47739 0.67915 0.94679
 C1160 C 0.48271 0.69614 0.95869
 C1161 C 0.48355 0.69388 0.98033
 C1162 C 0.47917 0.67515 0.98994
 C1163 C 0.48822 0.71612 0.94923
 C1164 C 0.48284 0.72217 0.92899
 H1165 H 0.46179 0.62690 0.97826
 H1166 H 0.46912 0.64754 0.94689
 H1167 H 0.47707 0.67997 0.93008
 H1168 H 0.48756 0.70671 0.98987
 H1169 H 0.47959 0.67421 1.00666
 H1170 H 0.49697 0.72630 0.95873
 H1171 H 0.48664 0.64189 1.01593
 H1172 H 0.47397 0.71203 0.91956
 C1173 C 0.51662 0.89423 0.98676
 C1174 C 0.52993 0.88317 0.97496
 C1175 C 0.52331 0.86561 0.96259
 C1176 C 0.53582 0.84843 0.96129
 C1177 C 0.52972 0.83155 0.94987
 C1178 C 0.51119 0.83181 0.93914
 C1179 C 0.49898 0.84926 0.93991
 C1180 C 0.50485 0.86593 0.95174
 C1181 C 0.50462 0.81439 0.92657
 C1182 C 0.50835 0.79416 0.93275
 H1183 H 0.54581 0.88642 0.97608
 H1184 H 0.55021 0.84797 0.96934
 H1185 H 0.53965 0.81847 0.94913
 H1186 H 0.48475 0.84988 0.93154
 H1187 H 0.49512 0.87919 0.95210
 H1188 H 0.49532 0.81752 0.91293
 H1189 H 0.50115 0.88944 0.98764
 H1190 H 0.51520 0.79099 0.94782
 C1191 C 0.01650 0.37919 0.50309
 C1192 C 0.02715 0.36809 0.48868
 C1193 C 0.01961 0.34923 0.47881
 C1194 C 0.03072 0.34077 0.46284
 C1195 C 0.02451 0.32279 0.45335
 C1196 C 0.00694 0.31287 0.45964
 C1197 C -0.00407 0.32118 0.47570
 C1198 C 0.00212 0.33912 0.48519
 C1199 C 0.00003 0.29350 0.45049
 C1200 C 0.00559 0.28694 0.43099
 H1201 H 0.04183 0.37345 0.48436
 H1202 H 0.04439 0.34802 0.45776
 H1203 H 0.03378 0.31655 0.44147
 H1204 H -0.01755 0.31372 0.48099
 H1205 H -0.00680 0.34464 0.49766
 H1206 H -0.01079 0.28465 0.45907
 H1207 H 0.00160 0.37469 0.50741
 H1208 H 0.01439 0.29691 0.42122
 C1209 C 0.38920 0.51298 0.47318
 C1210 C 0.37747 0.52250 0.45770
 C1211 C 0.35979 0.53492 0.46290
 C1212 C 0.34215 0.53379 0.45082
 C1213 C 0.32505 0.54482 0.45618
 C1214 C 0.32553 0.55750 0.47349
 C1215 C 0.34342 0.55917 0.48506
 C1216 C 0.36034 0.54786 0.47997
 C1217 C 0.30798 0.56968 0.47953
 C1218 C 0.28820 0.56324 0.47673
 H1219 H 0.38026 0.51936 0.44162
 H1220 H 0.34149 0.52407 0.43747
 H1221 H 0.31160 0.54365 0.44665
 H1222 H 0.34423 0.56907 0.49828
 H1223 H 0.37390 0.54938 0.48927
 H1224 H 0.31083 0.58338 0.48820
 H1225 H 0.38479 0.51407 0.48916
 H1226 H 0.28529 0.54825 0.47059
 C1227 C 0.89831 0.02208 -0.01794
 C1228 C 0.88191 0.01676 -0.00617
 C1229 C 0.86412 0.03018 -0.00493
 C1230 C 0.84773 0.02357 0.00664
 C1231 C 0.83040 0.03556 0.00750
 C1232 C 0.82908 0.05439 -0.00337
 C1233 C 0.84570 0.06126 -0.01445
 C1234 C 0.86303 0.04927 -0.01531
 C1235 C 0.81075 0.06723 -0.00351
 C1236 C 0.79168 0.05928 -0.00009
 H1237 H 0.88191 0.00209 0.00194
 H1238 H 0.84829 0.00903 0.01495
 H1239 H 0.81820 0.03005 0.01681
 H1240 H 0.84515 0.07580 -0.02277
 H1241 H 0.87544 0.05491 -0.02427
 H1242 H 0.81221 0.08308 -0.00829
 H1243 H 0.90809 0.01364 -0.01880
 H1244 H 0.79003 0.04298 0.00232
 C1245 C 0.61505 0.02158 0.01842
 C1246 C 0.62821 0.01846 0.00229
 C1247 C 0.64577 0.03183 -0.00127
 C1248 C 0.66225 0.02417 -0.01183
 C1249 C 0.67947 0.03601 -0.01440
 C1250 C 0.68054 0.05584 -0.00637
 C1251 C 0.66363 0.06384 0.00320
 C1252 C 0.64643 0.05206 0.00568
 C1253 C 0.69888 0.06857 -0.00715
 C1254 C 0.71800 0.06078 -0.01081
 H1255 H 0.62622 0.00526 -0.00735
 H1256 H 0.66195 0.00882 -0.01776
 H1257 H 0.69179 0.02946 -0.02262
 H1258 H 0.66382 0.07920 0.00915
 H1259 H 0.63374 0.05895 0.01301
 H1260 H 0.69736 0.08427 -0.00256
 H1261 H 0.61757 0.03399 0.02892
 H1262 H 0.71966 0.04472 -0.01396
 C1263 C 0.13147 0.49193 0.52271
 C1264 C 0.13944 0.50994 0.53053
 C1265 C 0.15841 0.51913 0.52335
 C1266 C 0.16160 0.54003 0.52629
 C1267 C 0.17918 0.54940 0.51965
 C1268 C 0.19423 0.53793 0.51018
 C1269 C 0.19107 0.51697 0.50737
 C1270 C 0.17343 0.50761 0.51395
 C1271 C 0.21302 0.54724 0.50251
 C1272 C 0.22000 0.56639 0.50846
 H1273 H 0.13091 0.51833 0.54164
 H1274 H 0.15027 0.54926 0.53347
 H1275 H 0.18057 0.56567 0.52166
 H1276 H 0.20237 0.50774 0.50014
 H1277 H 0.17183 0.49135 0.51189
 H1278 H 0.22154 0.53858 0.49162
 H1279 H 0.13907 0.48401 0.51060
 H1280 H 0.21160 0.57510 0.51937
 C1281 C 0.11580 0.47453 -0.03191
 C1282 C 0.13217 0.47862 -0.01887
 C1283 C 0.15029 0.46548 -0.01651
 C1284 C 0.16443 0.47012 -0.00095
 C1285 C 0.18221 0.45889 0.00136
 C1286 C 0.18633 0.44281 -0.01201
 C1287 C 0.17200 0.43780 -0.02722
 C1288 C 0.15423 0.44907 -0.02959
 C1289 C 0.20532 0.43105 -0.01055
 C1290 C 0.22315 0.43926 -0.00276
 H1291 H 0.13184 0.49235 -0.00985
 H1292 H 0.16176 0.48257 0.00944
 H1293 H 0.19259 0.46280 0.01370
 H1294 H 0.17478 0.42540 -0.03764
 H1295 H 0.14398 0.44502 -0.04196
 H1296 H 0.20561 0.41619 -0.01758
 H1297 H 0.11514 0.46058 -0.04051
 H1298 H 0.22335 0.45505 0.00189
 C1299 C 0.60516 0.97260 0.47262
 C1300 C 0.62241 0.97776 0.48386
 C1301 C 0.64002 0.96409 0.48704
 C1302 C 0.65479 0.96946 0.50168
 C1303 C 0.67208 0.95755 0.50465
 C1304 C 0.67503 0.94005 0.49284
 C1305 C 0.66012 0.93442 0.47850
 C1306 C 0.64287 0.94636 0.47547
 C1307 C 0.69335 0.92733 0.49502
 C1308 C 0.71176 0.93495 0.50192
 H1309 H 0.62314 0.99263 0.49082
 H1310 H 0.65297 0.98298 0.51087
 H1311 H 0.68296 0.96204 0.51630
 H1312 H 0.66203 0.92096 0.46925
 H1313 H 0.63217 0.94177 0.46373
 H1314 H 0.69266 0.91198 0.48916
 H1315 H 0.60349 0.95756 0.46627
 H1316 H 0.71304 0.95100 0.50539
 C1317 C 0.89280 0.96805 0.52310
 C1318 C 0.87840 0.97073 0.50731
 C1319 C 0.85992 0.95835 0.50586
 C1320 C 0.84354 0.96604 0.49413
 C1321 C 0.82557 0.95520 0.49298
 C1322 C 0.82361 0.93635 0.50363
 C1323 C 0.84026 0.92829 0.51466
 C1324 C 0.85822 0.93910 0.51576
 C1325 C 0.80470 0.92456 0.50360
 C1326 C 0.78596 0.93297 0.49827
 H1327 H 0.88014 0.98315 0.49618
 H1328 H 0.84457 0.98064 0.48603
 H1329 H 0.81342 0.96165 0.48363
 H1330 H 0.83932 0.91363 0.52266
 H1331 H 0.87070 0.93216 0.52425
 H1332 H 0.80556 0.90904 0.50962
 H1333 H 0.89091 0.95641 0.53500
 H1334 H 0.78484 0.94905 0.49423
 C1335 C 0.40634 0.48289 0.01485
 C1336 C 0.38866 0.48886 0.00451
 C1337 C 0.37152 0.47487 0.00153
 C1338 C 0.35213 0.48314 -0.00056
 C1339 C 0.33551 0.47036 -0.00248
 C1340 C 0.33798 0.44906 -0.00260
 C1341 C 0.35739 0.44077 -0.00119
 C1342 C 0.37403 0.45353 0.00082
 C1343 C 0.31910 0.43463 -0.00382
 C1344 C 0.29707 0.44287 -0.00399
 H1345 H 0.38664 0.50473 -0.00014
 H1346 H 0.34981 0.49952 -0.00026
 H1347 H 0.32070 0.47713 -0.00367
 H1348 H 0.35971 0.42440 -0.00146
 H1349 H 0.38877 0.44662 0.00166
 H1350 H 0.32580 0.41700 -0.00416
 H1351 H 0.40799 0.46745 0.02095
 H1352 H 0.30858 0.43722 -0.00396
 C1353 C 0.52747 0.48122 0.39540
 C1354 C 0.52350 0.49202 0.37693
 C1355 C 0.53867 0.49494 0.36068
 C1356 C 0.53214 0.49905 0.34024
 C1357 C 0.54593 0.50141 0.32438
 C1358 C 0.56666 0.49971 0.32865
 C1359 C 0.57320 0.49631 0.34920
 C1360 C 0.55940 0.49393 0.36506
 C1361 C 0.58181 0.50208 0.31230
 C1362 C 0.57753 0.49905 0.29134
 H1363 H 0.50840 0.49745 0.37365
 H1364 H 0.51629 0.50028 0.33649
 H1365 H 0.54022 0.50488 0.30894
 H1366 H 0.58906 0.49536 0.35299
 H1367 H 0.56512 0.49158 0.38070
 H1368 H 0.59685 0.50624 0.31709
 H1369 H 0.54211 0.47452 0.39834
 H1370 H 0.56256 0.49462 0.28662
 C1371 C 0.02205 -0.01961 0.88978
 C1372 C 0.03073 -0.03406 0.87713
 C1373 C 0.03952 -0.02865 0.85688
 C1374 C 0.05387 -0.04168 0.84854
 C1375 C 0.06249 -0.03697 0.82948
 C1376 C 0.05682 -0.01908 0.81833
 C1377 C 0.04199 -0.00643 0.82638
 C1378 C 0.03342 -0.01112 0.84541
 C1379 C 0.06574 -0.01314 0.79829
 C1380 C 0.08446 -0.01999 0.79198
 H1381 H 0.03157 -0.04986 0.88240
 H1382 H 0.05853 -0.05549 0.85687
 H1383 H 0.07335 -0.04750 0.82349
 H1384 H 0.03708 0.00724 0.81795
 H1385 H 0.02181 -0.00111 0.85085
 H1386 H 0.05802 -0.00143 0.78910
 H1387 H 0.02236 -0.00358 0.88539
 H1388 H 0.09328 -0.02993 0.80222
 C1389 C 0.01120 0.01487 0.62607
 C1390 C 0.02348 0.02847 0.63645
 C1391 C 0.03314 0.02278 0.65659
 C1392 C 0.04698 0.03610 0.66571
 C1393 C 0.05666 0.03080 0.68449
 C1394 C 0.05267 0.01198 0.69449
 C1395 C 0.03843 -0.00106 0.68563
 C1396 C 0.02884 0.00418 0.66686
 C1397 C 0.06288 0.00544 0.71410
 C1398 C 0.08181 0.01241 0.72016
 H1399 H 0.02636 0.04337 0.62950
 H1400 H 0.05039 0.05060 0.65824
 H1401 H 0.06707 0.04155 0.69117
 H1402 H 0.03494 -0.01554 0.69311
 H1403 H 0.01811 -0.00640 0.66041
 H1404 H 0.05602 -0.00673 0.72301
 H1405 H 0.00610 0.01907 0.61435
 H1406 H 0.08968 0.02281 0.70998
 C1407 C 0.52454 0.51718 0.11763
 C1408 C 0.53417 0.53091 0.13067
 C1409 C 0.54424 0.52467 0.15042
 C1410 C 0.55868 0.53762 0.15913
 C1411 C 0.56787 0.53267 0.17823
 C1412 C 0.56268 0.51465 0.18905
 C1413 C 0.54809 0.50183 0.18044
 C1414 C 0.53898 0.50672 0.16133
 C1415 C 0.57125 0.50931 0.20975
 C1416 C 0.58957 0.51667 0.21719
 H1417 H 0.53460 0.54692 0.12615
 H1418 H 0.56274 0.55171 0.15121
 H1419 H 0.57857 0.54326 0.18466
 H1420 H 0.54359 0.48803 0.18863
 H1421 H 0.52744 0.49670 0.15551
 H1422 H 0.56315 0.49838 0.21915
 H1423 H 0.52541 0.50093 0.12095
 H1424 H 0.59908 0.52539 0.20695
 C1425 C 0.49352 -0.00801 0.11733
 C1426 C 0.47698 -0.01842 0.12508
 C1427 C 0.46658 -0.01262 0.14423
 C1428 C 0.45256 -0.02620 0.15272
 C1429 C 0.44234 -0.02134 0.17067
 C1430 C 0.44590 -0.00270 0.18047
 C1431 C 0.45993 0.01082 0.17210
 C1432 C 0.47001 0.00607 0.15409
 C1433 C 0.43560 0.00302 0.19957
 C1434 C 0.41660 -0.00407 0.20467
 H1435 H 0.47154 -0.03163 0.11694
 H1436 H 0.44960 -0.04070 0.14551
 H1437 H 0.43197 -0.03236 0.17699
 H1438 H 0.46291 0.02529 0.17936
 H1439 H 0.48021 0.01733 0.14800
 H1440 H 0.44257 0.01456 0.20904
 H1441 H 0.49975 0.00483 0.12541
 H1442 H 0.40849 -0.01356 0.19386
 C1443 C 1.00221 0.49040 0.62173
 C1444 C 0.98342 0.48292 0.62724
 C1445 C 0.97257 0.48827 0.64623
 C1446 C 0.95399 0.47896 0.64970
 C1447 C 0.94354 0.48243 0.66780
 C1448 C 0.95136 0.49551 0.68290
 C1449 C 0.96982 0.50502 0.67938
 C1450 C 0.98033 0.50152 0.66125
 C1451 C 0.94145 0.49845 0.70298
 C1452 C 0.92141 0.49355 0.70654
 H1453 H 0.97629 0.47194 0.61727
 H1454 H 0.94768 0.46857 0.63851
 H1455 H 0.92969 0.47427 0.67007
 H1456 H 0.97629 0.51504 0.69083
 H1457 H 0.99457 0.50901 0.65941
 H1458 H 0.95041 0.50487 0.71535
 H1459 H 1.00963 0.50192 0.63076
 H1460 H 0.91175 0.48973 0.69357
 C1461 C 0.99318 0.52509 0.87310
 C1462 C 0.98898 0.50630 0.86428
 C1463 C 0.97798 0.50470 0.84430
 C1464 C 0.96612 0.48748 0.84060
 C1465 C 0.95536 0.48576 0.82192
 C1466 C 0.95652 0.50119 0.80651
 C1467 C 0.96895 0.51803 0.80995
 C1468 C 0.97951 0.51986 0.82868
 C1469 C 0.94529 0.50008 0.78662
 C1470 C 0.92694 0.49011 0.78458
 H1471 H 0.99298 0.49234 0.87268
 H1472 H 0.96500 0.47545 0.85228
 H1473 H 0.94639 0.47226 0.81950
 H1474 H 0.97033 0.52995 0.79818
 H1475 H 0.98907 0.53299 0.83076
 H1476 H 0.95075 0.50906 0.77367
 H1477 H 0.98748 0.53902 0.86578
 H1478 H 0.92018 0.48334 0.79816
 C1479 C 0.48296 0.01452 0.37591
 C1480 C 0.47351 0.02935 0.36326
 C1481 C 0.46364 0.02478 0.34316
 C1482 C 0.44960 0.03876 0.33463
 C1483 C 0.44011 0.03512 0.31559
 C1484 C 0.44453 0.01736 0.30464
 C1485 C 0.45897 0.00367 0.31289
 C1486 C 0.46843 0.00729 0.33193
 C1487 C 0.43478 0.01280 0.28448
 C1488 C 0.41613 0.02077 0.27818
 H1489 H 0.47296 0.04496 0.36842
 H1490 H 0.44593 0.05254 0.34276
 H1491 H 0.42961 0.04643 0.30942
 H1492 H 0.46290 -0.00994 0.30459
 H1493 H 0.47972 -0.00349 0.33751
 H1494 H 0.44187 0.00148 0.27507
 H1495 H 0.48261 -0.00137 0.37169
 H1496 H 0.40790 0.03015 0.28869
   
