data_POSCAR
  _audit_creation_date              2014-09-24
  _audit_creation_method            'ToBaCCo'
  _symmetry_space_group_name_H-M    'P1'
  _symmetry_Int_Tables_number       1
  _symmetry_cell_setting            triclinic
  loop_
  _symmetry_equiv_pos_as_xyz
 x,y,z
_cell_length_a 51.8578
_cell_length_b 52.4883
_cell_length_c 52.1602
_cell_angle_alpha 89.818800
_cell_angle_beta 90.256400
_cell_angle_gamma 89.878500
loop_
  _atom_site_label
  _atom_site_type_symbol
  _atom_site_fract_x
  _atom_site_fract_y
  _atom_site_fract_z
C1 C 0.36066 1.35836 0.32351
 N2 N 0.34097 1.36735 0.33800
 C3 C 0.33095 1.35320 0.35740
 N4 N 0.34159 1.33011 0.36287
 C5 C 0.36210 1.32132 0.34939
 N6 N 0.37126 1.33532 0.32946
 C7 C 0.35555 0.86147 0.83752
 N8 N 0.36375 0.83766 0.84412
 C9 C 0.35075 0.82405 0.86209
 N10 N 0.32940 0.83411 0.87292
 C11 C 0.32119 0.85788 0.86677
 N12 N 0.33451 0.87157 0.84913
 C13 C 0.86482 1.36511 0.82777
 N14 N 0.84595 1.37802 0.84016
 C15 C 0.83126 1.36675 0.85828
 N16 N 0.83627 1.34221 0.86490
 C17 C 0.85593 1.32918 0.85386
 N18 N 0.87000 1.34048 0.83486
 C19 C 0.85789 0.86289 0.32894
 N20 N 0.83912 0.87518 0.34221
 C21 C 0.82629 0.86343 0.36148
 N22 N 0.83267 0.83917 0.36791
 C23 C 0.85184 0.82671 0.35548
 N24 N 0.86430 0.83854 0.33580
 C25 C 0.64192 0.64241 0.32632
 N26 N 0.66443 0.63469 0.33726
 C27 C 0.67429 0.64705 0.35784
 N28 N 0.66162 0.66750 0.36740
 C29 C 0.63888 0.67530 0.35696
 N30 N 0.62898 0.66261 0.33641
 C31 C 0.63584 0.13824 0.84282
 N32 N 0.65505 0.12750 0.85724
 C33 C 0.66433 0.13943 0.87846
 N34 N 0.65331 0.16155 0.88586
 C35 C 0.63381 0.17227 0.87238
 N36 N 0.62546 0.16100 0.85037
 C37 C 1.13197 0.64333 0.82342
 N38 N 1.12022 0.66201 0.83689
 C39 C 1.13211 0.67286 0.85734
 N40 N 1.15597 0.66447 0.86469
 C41 C 1.16774 0.64538 0.85140
 N42 N 1.15576 0.63526 0.83064
 C43 C 1.14454 0.14310 0.32546
 N44 N 1.16664 0.13146 0.33319
 C45 C 1.17774 0.13703 0.35611
 N46 N 1.16700 0.15543 0.37104
 C47 C 1.14557 0.16814 0.36297
 N48 N 1.13420 0.16152 0.34045
 C49 C 0.64159 1.35676 0.67553
 N50 N 0.66342 1.36827 0.66726
 C51 C 0.67469 1.36130 0.64488
 N52 N 0.66404 1.34203 0.63094
 C53 C 0.64272 1.32966 0.63957
 N54 N 0.63146 1.33731 0.66174
 C55 C 0.64913 0.84672 1.18574
 N56 N 0.67005 0.85921 1.17579
 C57 C 0.68168 0.85021 1.15417
 N58 N 0.67174 0.82965 1.14211
 C59 C 0.65083 0.81749 1.15134
 N60 N 0.63996 0.82571 1.17342
 C61 C 1.13872 1.36189 1.16368
 N62 N 1.12328 1.34455 1.15172
 C63 C 1.12923 1.33597 1.12787
 N64 N 1.15045 1.34495 1.11591
 C65 C 1.16643 1.36164 1.12768
 N66 N 1.16062 1.36975 1.15173
 C67 C 1.13578 0.85384 0.66974
 N68 N 1.12503 0.83261 0.65972
 C69 C 1.13522 0.82115 0.63891
 N70 N 1.15632 0.83143 0.62757
 C71 C 1.16790 0.85249 0.63764
 N72 N 1.15764 0.86346 0.65906
 C73 C 0.37014 0.62731 0.66412
 N74 N 0.34960 0.61696 0.65200
 C75 C 0.33726 0.62956 0.63272
 N76 N 0.34614 0.65295 0.62531
 C77 C 0.36754 0.66304 0.63672
 N78 N 0.37911 0.65024 0.65629
 C79 C 0.36544 0.14489 1.17459
 N80 N 0.34322 0.13324 1.16720
 C81 C 0.32823 0.14294 1.14818
 N82 N 0.33553 0.16493 1.13658
 C83 C 0.35799 0.17657 1.14304
 N84 N 0.37311 0.16636 1.16194
 C85 C 0.87220 0.63734 1.15976
 N86 N 0.88425 0.65742 1.14865
 C87 C 0.87326 0.66992 1.12860
 N88 N 0.85016 0.66188 1.11927
 C89 C 0.83803 0.64156 1.13002
 N90 N 0.84896 0.62961 1.15053
 C91 C 0.85098 0.14738 0.67189
 N92 N 0.83068 0.13709 0.65899
 C93 C 0.81801 0.15059 0.64055
 N94 N 0.82640 0.17428 0.63451
 C95 C 0.84722 0.18447 0.64635
 N96 N 0.85932 0.17113 0.66528
 C97 C 1.36004 0.36431 0.67132
 N98 N 1.37105 0.34153 0.66526
 C99 C 1.36121 0.32681 0.64620
 N100 N 1.33987 0.33497 0.63343
 C101 C 1.32901 0.35785 0.63875
 N102 N 1.33929 0.37258 0.65755
 C103 C 1.36357 0.86546 1.17186
 N104 N 1.37185 0.84194 1.16490
 C105 C 1.36309 0.83078 1.14301
 N106 N 1.34506 0.84325 1.12850
 C107 C 1.33628 0.86665 1.13564
 N108 N 1.34586 0.87768 1.15712
 C109 C 0.85434 0.34688 1.17555
 N110 N 0.83030 0.35583 1.16965
 C111 C 0.81630 0.34490 1.15054
 N112 N 0.82615 0.32479 1.13771
 C113 C 0.85003 0.31588 1.14317
 N114 N 0.86416 0.32714 1.16188
 C115 C 0.86009 0.85491 0.67322
 N116 N 0.87044 0.83304 0.66411
 C117 C 0.85832 0.81970 0.64545
 N118 N 0.83551 0.82829 0.63584
 C119 C 0.82478 0.85013 0.64494
 N120 N 0.83715 0.86335 0.66372
 C121 C 0.64553 0.63635 0.67337
 N122 N 0.66744 0.62588 0.66411
 C123 C 0.68046 0.63717 0.64478
 N124 N 0.67149 0.65931 0.63456
 C125 C 0.64955 0.67018 0.64374
 N126 N 0.63665 0.65866 0.66329
 C127 C 0.64041 1.14577 1.17974
 N128 N 0.66237 1.13647 1.16882
 C129 C 0.67145 1.14698 1.14657
 N130 N 0.65882 1.16726 1.13586
 C131 C 0.63767 1.17738 1.14734
 N132 N 0.62869 1.16624 1.16892
 C133 C 0.12675 0.63665 1.16156
 N134 N 0.11518 0.65496 1.14719
 C135 C 0.12798 0.66697 1.12799
 N136 N 0.15253 0.65945 1.12232
 C137 C 0.16403 0.64039 1.13604
 N138 N 0.15125 0.62960 1.15590
 C139 C 0.14762 1.14665 0.67488
 N140 N 0.13529 1.16776 0.66603
 C141 C 0.14292 1.17944 0.64412
 N142 N 0.16347 1.16992 0.63119
 C143 C 0.17634 1.14911 0.64005
 N144 N 0.16831 1.13744 0.66191
 C145 C 1.36024 0.64775 0.32152
 N146 N 1.36862 0.66969 0.33228
 C147 C 1.35611 0.68029 0.35243
 N148 N 1.33497 0.66836 0.36240
 C149 C 1.32664 0.64598 0.35191
 N150 N 1.33919 0.63612 0.33144
 C151 C 1.35416 1.14413 0.83284
 N152 N 1.33247 1.13591 0.84476
 C153 C 1.32514 1.14581 0.86748
 N154 N 1.33947 1.16430 0.87839
 C155 C 1.36096 1.17336 0.86680
 N156 N 1.36835 1.16318 0.84386
 C157 C 0.86016 0.65017 0.82112
 N158 N 0.84009 0.63911 0.83386
 C159 C 0.83257 0.64846 0.85710
 N160 N 0.84508 0.66882 0.86721
 C161 C 0.86500 0.67980 0.85465
 N162 N 0.87241 0.67043 0.83169
 C163 C 0.84920 1.14114 0.32041
 N164 N 0.82651 1.13423 0.33100
 C165 C 0.81783 1.14544 0.35270
 N166 N 0.83191 1.16447 0.36378
 C167 C 0.85428 1.17251 0.35254
 N168 N 0.86276 1.16040 0.33117
 C169 C 0.64446 0.35605 0.32532
 N170 N 0.66344 0.36584 0.34050
 C171 C 0.67160 0.35306 0.36175
 N172 N 0.65987 0.33098 0.36840
 C173 C 0.64073 0.32096 0.35376
 N174 N 0.63361 0.33329 0.33185
 C175 C 0.64287 0.85181 0.83417
 N176 N 0.63405 0.83083 0.84665
 C177 C 0.64872 0.81931 0.86493
 N178 N 0.67215 0.82898 0.87081
 C179 C 0.68103 0.85016 0.85896
 N180 N 0.66640 0.86158 0.84049
 C181 C 0.15103 0.34557 0.81140
 N182 N 0.13887 0.32489 0.82112
 C183 C 0.14526 0.31544 0.84449
 N184 N 0.16482 0.32641 0.85779
 C185 C 0.17766 0.34676 0.84808
 N186 N 0.17042 0.35669 0.82499
 C187 C 0.13912 0.85725 0.32794
 N188 N 0.12773 0.83612 0.33746
 C189 C 0.13880 0.82229 0.35633
 N190 N 0.16155 0.82998 0.36661
 C191 C 0.17333 0.85142 0.35767
 N192 N 0.16228 0.86479 0.33789
 O193 O 0.97291 0.91314 0.86830
 O194 O 0.97107 0.88349 0.83851
 C195 C 0.96322 0.90453 0.84768
 C196 C 0.94223 0.91897 0.83475
 C197 C 0.93092 0.90994 0.81198
 H198 H 0.93781 0.89234 0.80364
 O199 O 1.02145 1.10175 0.87413
 O200 O 1.02123 1.13325 0.84602
 C201 C 1.02994 1.11192 0.85370
 C202 C 1.05007 1.09864 0.83880
 C203 C 1.05868 1.10836 0.81522
 H204 H 1.05075 1.12612 0.80808
 O205 O 0.87423 0.98281 0.90516
 O206 O 0.84323 0.98318 0.87606
 C207 C 0.85295 0.97431 0.89666
 C208 C 0.83938 0.95378 0.91063
 C209 C 0.81560 0.94494 0.90147
 H210 H 0.80723 0.95328 0.88432
 O211 O 1.11943 1.03070 0.90257
 O212 O 1.14954 1.03173 0.87283
 C213 C 1.14060 1.03938 0.89409
 C214 C 1.15519 1.05841 0.90905
 C215 C 1.18019 1.06518 0.90154
 H216 H 1.18833 1.05681 0.88444
 O217 O 0.90608 0.88151 0.97534
 O218 O 0.87592 0.85196 0.97496
 C219 C 0.89690 0.86094 0.96631
 C220 C 0.91003 0.84754 0.94499
 C221 C 0.90039 0.82409 0.93649
 H222 H 0.88481 0.81516 0.94691
 O223 O 1.09112 1.12915 0.97751
 O224 O 1.12159 1.15839 0.97663
 C225 C 1.10003 1.14996 0.96885
 C226 C 1.08550 1.16449 0.94930
 C227 C 1.09486 1.18804 0.94073
 H228 H 1.11281 1.19520 0.94851
 O229 O 0.90645 1.03388 0.86936
 O230 O 0.87538 1.03468 0.84038
 C231 C 0.89642 1.04339 0.84918
 C232 C 0.90933 1.06521 0.83656
 C233 C 0.89990 1.07617 0.81362
 H234 H 0.88269 1.06843 0.80482
 O235 O 1.08518 0.98161 0.86560
 O236 O 1.11540 0.98284 0.83600
 C237 C 1.09483 0.97327 0.84489
 C238 C 1.08286 0.95128 0.83181
 C239 C 1.09404 0.94110 0.80967
 H240 H 1.11016 0.95084 0.80091
 O241 O 1.02313 0.87661 0.90202
 O242 O 1.02166 0.84658 0.87262
 C243 C 1.03138 0.85565 0.89304
 C244 C 1.05312 0.84252 0.90622
 C245 C 1.06333 0.81930 0.89707
 H246 H 1.05475 0.81019 0.88050
 O247 O 0.97000 1.13279 0.91099
 O248 O 0.96998 1.16437 0.88300
 C249 C 0.96087 1.15383 0.90296
 C250 C 0.93914 1.16609 0.91656
 C251 C 0.93060 1.19019 0.90877
 H252 H 0.94029 1.19984 0.89316
 O253 O 0.86969 1.09161 0.98044
 O254 O 0.83906 1.12076 0.98194
 C255 C 0.84821 1.10022 0.97266
 C256 C 0.83469 1.08663 0.95174
 C257 C 0.80861 1.09135 0.94605
 H258 H 0.79776 1.10382 0.95848
 O259 O 1.12416 0.91476 0.97038
 O260 O 1.15510 0.88595 0.96802
 C261 C 1.14513 0.90694 0.96079
 C262 C 1.15779 0.92197 0.94053
 C263 C 1.18301 0.91609 0.93321
 H264 H 1.19372 0.90201 0.94413
 O265 O 0.97172 1.10063 0.87365
 O266 O 0.97150 1.13215 0.84555
 C267 C 0.96323 1.11066 0.85310
 C268 C 0.94280 1.09764 0.83843
 C269 C 0.93414 1.10755 0.81501
 H270 H 0.94445 1.12339 0.80665
 O271 O 1.02291 0.91169 0.86714
 O272 O 1.02167 0.88198 0.83739
 C273 C 1.03108 0.90256 0.84616
 C274 C 1.05214 0.91605 0.83253
 C275 C 1.06385 0.90583 0.81048
 H276 H 1.05708 0.88789 0.80281
 O277 O 1.11976 0.98156 0.90131
 O278 O 1.15007 0.98274 0.87175
 C279 C 1.14109 0.97368 0.89248
 C280 C 1.15555 0.95377 0.90648
 C281 C 1.18038 0.94673 0.89856
 H282 H 1.18857 0.95558 0.88170
 O283 O 0.87380 1.03195 0.90684
 O284 O 0.84251 1.03221 0.87805
 C285 C 0.85197 1.03994 0.89914
 C286 C 0.83721 1.05802 0.91506
 C287 C 0.81152 1.06373 0.90900
 H288 H 0.80321 1.05564 0.89181
 O289 O 0.90170 1.12978 0.97816
 O290 O 0.87136 1.15917 0.97988
 C291 C 0.89197 1.15066 0.97000
 C292 C 0.90494 1.16481 0.94876
 C293 C 0.89639 1.18915 0.94034
 H294 H 0.88004 1.19819 0.94944
 O295 O 1.09132 0.87741 0.96951
 O296 O 1.12231 0.84865 0.96731
 C297 C 1.10072 0.85726 0.95973
 C298 C 1.08692 0.84378 0.93896
 C299 C 1.09663 0.82064 0.92978
 H300 H 1.11334 0.81212 0.93897
 O301 O 1.08433 1.03163 0.86714
 O302 O 1.11436 1.03285 0.83734
 C303 C 1.09352 1.04128 0.84681
 C304 C 1.08042 1.06335 0.83491
 C305 C 1.08840 1.07289 0.81110
 H306 H 1.10292 1.06264 0.80041
 O307 O 0.90864 0.98391 0.86935
 O308 O 0.87764 0.98460 0.84027
 C309 C 0.89880 0.97555 0.84871
 C310 C 0.91131 0.95421 0.83503
 C311 C 0.90073 0.94525 0.81201
 H312 H 0.88480 0.95545 0.80323
 O313 O 1.02049 1.13392 0.91182
 O314 O 1.02036 1.16548 0.88380
 C315 C 1.02909 1.15523 0.90415
 C316 C 1.05033 1.16758 0.91833
 C317 C 1.05944 1.19158 0.91063
 H318 H 1.04923 1.20199 0.89578
 O319 O 0.97287 0.87932 0.90442
 O320 O 0.97092 0.84932 0.87499
 C321 C 0.96297 0.85893 0.89592
 C322 C 0.94168 0.84663 0.91030
 C323 C 0.93102 0.82359 0.90163
 H324 H 0.93844 0.81491 0.88436
 O325 O 1.12534 1.09340 0.97554
 O326 O 1.15600 1.12247 0.97456
 C327 C 1.14603 1.10203 0.96606
 C328 C 1.15822 1.08844 0.94454
 C329 C 1.18345 1.09441 0.93717
 H330 H 1.19443 1.10797 0.94836
 O331 O 0.87156 0.91738 0.97599
 O332 O 0.84148 0.88777 0.97520
 C333 C 0.85081 0.90850 0.96664
 C334 C 0.83798 0.92190 0.94493
 C335 C 0.81416 0.91329 0.93533
 H336 H 0.80444 0.89757 0.94465
 Cu337 Cu 0.99819 0.89810 0.88842
 Cu338 Cu 0.99607 0.86228 0.85295
 Cu339 Cu 0.99603 1.11415 0.89556
 Cu340 Cu 0.99575 1.15214 0.86191
 Cu341 Cu 0.89411 1.00821 0.89039
 Cu342 Cu 0.85667 1.00874 0.85565
 Cu343 Cu 1.09891 1.00629 0.88696
 Cu344 Cu 1.13524 1.00770 0.85132
 C345 C 0.93232 0.94121 0.84605
 H346 H 0.94037 0.94792 0.86399
 C347 C 0.91005 0.92293 0.80052
 C348 C 1.06101 1.07611 0.84839
 H349 H 1.05487 1.06884 0.86683
 C350 C 1.07775 1.09551 0.80106
 C351 C 0.85035 0.94234 0.93253
 H352 H 0.86890 0.94887 0.93948
 C353 C 0.80287 0.92475 0.91360
 C354 C 1.14433 1.07007 0.93064
 H355 H 1.12483 1.06533 0.93624
 C356 C 1.19460 1.08296 0.91558
 C357 C 0.93099 0.85853 0.93203
 H358 H 0.93848 0.87669 0.93842
 C359 C 0.91030 0.81216 0.91458
 C360 C 1.06315 1.15441 0.93809
 H361 H 1.05635 1.13582 0.94404
 C362 C 1.08201 1.20182 0.92144
 C363 C 0.93072 1.07619 0.84871
 H364 H 0.93753 1.06852 0.86682
 C365 C 0.91224 1.09754 0.80262
 C366 C 1.06175 0.93886 0.84282
 H367 H 1.05329 0.94660 0.86008
 C368 C 1.08502 0.91823 0.79900
 C369 C 1.06503 0.85442 0.92732
 H370 H 1.05775 0.87248 0.93423
 C371 C 1.08533 0.80839 0.90872
 C372 C 0.92639 1.15363 0.93666
 H373 H 0.93300 1.13493 0.94264
 C374 C 0.90954 1.20209 0.92052
 C375 C 0.84862 1.06950 0.93646
 H376 H 0.86871 1.06561 0.94079
 C377 C 0.79671 1.07992 0.92457
 C378 C 1.14433 0.94123 0.92745
 H379 H 1.12482 0.94594 0.93312
 C380 C 1.19433 0.92788 0.91184
 O381 O 1.03140 0.90651 1.12606
 O382 O 1.03244 0.87561 1.15474
 C383 C 1.04120 0.89656 1.14609
 C384 C 1.06330 0.90957 1.15879
 C385 C 1.07402 0.90063 1.18208
 H386 H 1.06611 0.88377 1.19105
 O387 O 0.98017 1.08867 1.13055
 O388 O 0.98070 1.11807 1.16066
 C389 C 0.97203 1.09733 1.15174
 C390 C 0.95183 1.08356 1.16595
 C391 C 0.94322 1.09278 1.18960
 H392 H 0.95162 1.11005 1.19718
 O393 O 0.87552 1.02575 1.09895
 O394 O 0.84685 1.02518 1.13003
 C395 C 0.85516 1.03461 1.10914
 C396 C 0.84123 1.05637 1.09688
 C397 C 0.81840 1.06584 1.10778
 H398 H 0.81045 1.05626 1.12435
 O399 O 1.13389 0.97521 1.08847
 O400 O 1.16495 0.97418 1.11745
 C401 C 1.15511 0.96613 1.09666
 C402 C 1.16765 0.94535 1.08211
 C403 C 1.19138 0.93474 1.09003
 H404 H 1.20113 0.94226 1.10677
 O405 O 1.09213 0.87639 1.01951
 O406 O 1.12274 0.84727 1.01696
 C407 C 1.10190 0.85539 1.02677
 C408 C 1.08932 0.84066 1.04735
 C409 C 1.09829 0.81632 1.05388
 H410 H 1.11329 0.80771 1.04241
 O411 O 0.90837 1.12567 1.02753
 O412 O 0.87852 1.15559 1.02967
 C413 C 0.90014 1.14632 1.03689
 C414 C 0.91549 1.15916 1.05696
 C415 C 0.90893 1.18377 1.06486
 H416 H 0.89361 1.19393 1.05499
 O417 O 0.91050 0.97276 1.13063
 O418 O 0.88183 0.97207 1.16170
 C419 C 0.90216 0.96323 1.15146
 C420 C 0.91624 0.94155 1.16367
 C421 C 0.90746 0.93046 1.18669
 H422 H 0.89003 0.93768 1.19541
 O423 O 1.09850 1.02294 1.12548
 O424 O 1.12937 1.02231 1.15471
 C425 C 1.10803 1.03105 1.14636
 C426 C 1.09486 1.05177 1.16032
 C427 C 1.10539 1.06119 1.18316
 H428 H 1.12151 1.05121 1.19178
 O429 O 0.97890 0.87495 1.09100
 O430 O 0.97917 0.84367 1.11931
 C431 C 0.96966 0.85414 1.09931
 C432 C 0.94722 0.84257 1.08583
 C433 C 0.93720 0.81889 1.09367
 H434 H 0.94610 0.80875 1.10953
 O435 O 1.02833 1.12510 1.09447
 O436 O 1.02827 1.15447 1.12465
 C437 C 1.03661 1.14601 1.10351
 C438 C 1.05666 1.16035 1.08980
 C439 C 1.06432 1.18429 1.09861
 H440 H 1.05441 1.19284 1.11470
 O441 O 0.86971 0.91422 1.02642
 O442 O 0.83953 0.88473 1.02560
 C443 C 0.84875 0.90499 1.03508
 C444 C 0.83574 0.91764 1.05700
 C445 C 0.81181 0.90914 1.06660
 H446 H 0.80187 0.89351 1.05735
 O447 O 1.12886 1.09319 1.02532
 O448 O 1.15893 1.12283 1.02433
 C449 C 1.15026 1.10203 1.03319
 C450 C 1.16467 1.08876 1.05377
 C451 C 1.18743 1.09936 1.06352
 H452 H 1.19572 1.11555 1.05372
 O453 O 1.03052 1.08932 1.12849
 O454 O 1.03104 1.11876 1.15856
 C455 C 1.04010 1.09842 1.14894
 C456 C 1.06236 1.08544 1.16119
 C457 C 1.07409 1.09551 1.18329
 H458 H 1.06674 1.11309 1.19121
 O459 O 0.98096 0.90759 1.12776
 O460 O 0.98165 0.87662 1.15640
 C461 C 0.97261 0.89774 1.14838
 C462 C 0.95133 0.91031 1.16249
 C463 C 0.94279 0.90016 1.18586
 H464 H 0.95345 0.88456 1.19447
 O465 O 1.13342 1.02500 1.09058
 O466 O 1.16439 1.02427 1.11968
 C467 C 1.15433 1.03389 1.09964
 C468 C 1.16643 1.05612 1.08702
 C469 C 1.18839 1.06796 1.09760
 H470 H 1.19651 1.06058 1.11525
 O471 O 0.87390 0.97629 1.09663
 O472 O 0.84506 0.97567 1.12757
 C473 C 0.85293 0.96803 1.10589
 C474 C 0.83799 0.94885 1.09155
 C475 C 0.81402 0.94061 1.10054
 H476 H 0.80602 0.94901 1.11772
 O477 O 1.09400 1.12861 1.02708
 O478 O 1.12396 1.15835 1.02631
 C479 C 1.10329 1.14931 1.03559
 C480 C 1.08980 1.16227 1.05685
 C481 C 1.09749 1.18634 1.06603
 H482 H 1.11354 1.19619 1.05726
 O483 O 0.90755 0.88156 1.02542
 O484 O 0.87747 0.85195 1.02475
 C485 C 0.89869 0.86052 1.03352
 C486 C 0.91278 0.84596 1.05363
 C487 C 0.90352 0.82214 1.06143
 H488 H 0.88696 0.81406 1.05174
 O489 O 1.09903 0.97359 1.12377
 O490 O 1.12994 0.97291 1.15296
 C491 C 1.10872 0.96445 1.14421
 C492 C 1.09571 0.94332 1.15771
 C493 C 1.10538 0.93482 1.18127
 H494 H 1.12103 0.94520 1.19017
 O495 O 0.91228 1.02235 1.13274
 O496 O 0.88375 1.02182 1.16395
 C497 C 0.90452 1.03024 1.15434
 C498 C 0.91924 1.05029 1.16769
 C499 C 0.91149 1.05913 1.19185
 H500 H 0.89603 1.04945 1.20176
 O501 O 0.97838 1.12300 1.09467
 O502 O 0.97861 1.15250 1.12471
 C503 C 0.96968 1.14366 1.10380
 C504 C 0.94898 1.15756 1.09006
 C505 C 0.94168 1.18199 1.09808
 H506 H 0.95112 1.19048 1.11452
 O507 O 1.02919 0.87276 1.09000
 O508 O 1.02992 0.84151 1.11833
 C509 C 1.03803 0.85142 1.09764
 C510 C 1.05839 0.83861 1.08243
 C511 C 1.06816 0.81443 1.08927
 H512 H 1.06056 0.80478 1.10597
 O513 O 1.12842 0.91050 1.01997
 O514 O 1.15887 0.88124 1.01720
 C515 C 1.15003 0.90137 1.02724
 C516 C 1.16486 0.91378 1.04798
 C517 C 1.18870 0.90371 1.05582
 H518 H 1.19687 0.88774 1.04554
 O519 O 0.87060 1.09387 1.03089
 O520 O 0.84025 1.12325 1.03261
 C521 C 0.85027 1.10282 1.04122
 C522 C 0.83870 1.08968 1.06386
 C523 C 0.81609 1.09915 1.07552
 H524 H 0.80695 1.11607 1.06776
 Cu525 Cu 1.00519 0.89352 1.10591
 Cu526 Cu 1.00584 0.85626 1.14008
 Cu527 Cu 1.00430 1.10346 1.10907
 Cu528 Cu 1.00455 1.13883 1.14527
 Cu529 Cu 0.89156 0.90176 1.00093
 Cu530 Cu 0.85560 0.86620 1.00010
 Cu531 Cu 1.10589 0.89767 0.99513
 Cu532 Cu 1.14280 0.86287 0.99205
 Cu533 Cu 0.89035 1.10732 1.00391
 Cu534 Cu 0.85427 1.14254 1.00628
 Cu535 Cu 1.10678 1.10811 1.00156
 Cu536 Cu 1.14326 1.14343 1.00028
 Cu537 Cu 0.89596 0.99930 1.11168
 Cu538 Cu 0.86150 0.99862 1.14894
 Cu539 Cu 1.11324 0.99924 1.10400
 Cu540 Cu 1.15032 0.99825 1.13913
 C541 C 1.07448 0.93089 1.14677
 H542 H 1.06699 0.93755 1.12852
 C543 C 1.09526 0.91323 1.19347
 C544 C 0.93985 1.06224 1.15519
 H545 H 0.94587 1.05561 1.13650
 C546 C 0.92316 1.08068 1.20290
 C547 C 0.85104 1.06828 1.07478
 H548 H 0.86868 1.06115 1.06634
 C549 C 0.80573 1.08741 1.09760
 C550 C 1.15469 0.93477 1.06097
 H551 H 1.13616 0.94239 1.05505
 C552 C 1.20199 0.91373 1.07700
 C553 C 1.06913 0.85145 1.06140
 H554 H 1.06227 0.87033 1.05638
 C555 C 1.08820 0.80307 1.07501
 C556 C 0.93586 1.14630 1.06938
 H557 H 0.94097 1.12717 1.06348
 C558 C 0.92170 1.19522 1.08560
 C559 C 0.93818 0.93124 1.15176
 H560 H 0.94467 0.93910 1.13369
 C561 C 0.92061 0.90965 1.19802
 C562 C 1.07301 1.06365 1.14979
 H563 H 1.06475 1.05636 1.13217
 C564 C 1.09571 1.08351 1.19454
 C565 C 0.93482 0.85594 1.06574
 H566 H 0.94197 0.87443 1.05988
 C567 C 0.91523 0.80860 1.08161
 C568 C 1.06924 1.14962 1.06882
 H569 H 1.06343 1.13092 1.06226
 C570 C 1.08480 1.19733 1.08714
 C571 C 0.84842 0.93765 1.06956
 H572 H 0.86706 0.94394 1.06274
 C573 C 0.80071 0.92083 1.08829
 C574 C 1.15465 1.06683 1.06524
 H575 H 1.13711 1.05854 1.05762
 C576 C 1.19906 1.08985 1.08602
 O577 O 0.97404 0.40028 0.37105
 O578 O 0.97344 0.36997 0.34191
 C579 C 0.96466 0.39081 0.35067
 C580 C 0.94302 0.40414 0.33756
 C581 C 0.93138 0.39410 0.31527
 H582 H 0.93824 0.37624 0.30751
 O583 O 1.02231 0.58892 0.36419
 O584 O 1.02244 0.61805 0.33363
 C585 C 1.03113 0.59744 0.34317
 C586 C 1.05181 0.58323 0.32990
 C587 C 1.06145 0.59177 0.30619
 H588 H 1.05392 0.60913 0.29773
 O589 O 0.87321 0.47109 0.40507
 O590 O 0.84240 0.47032 0.37579
 C591 C 0.85192 0.46231 0.39679
 C592 C 0.83819 0.44239 0.41150
 C593 C 0.81310 0.43527 0.40451
 H594 H 0.80401 0.44445 0.38819
 O595 O 1.12725 0.52231 0.39662
 O596 O 1.15600 0.52271 0.36563
 C597 C 1.14734 0.53184 0.38647
 C598 C 1.15994 0.55419 0.39896
 C599 C 1.18201 0.56610 0.38847
 H600 H 1.19069 0.55862 0.37121
 O601 O 0.90833 0.36930 0.47333
 O602 O 0.87825 0.33972 0.47485
 C603 C 0.89896 0.34840 0.46539
 C604 C 0.91208 0.33405 0.44485
 C605 C 0.90243 0.31045 0.43687
 H606 H 0.88487 0.30355 0.44552
 O607 O 1.09002 0.62322 0.46663
 O608 O 1.11867 0.65424 0.46583
 C609 C 1.09766 0.64460 0.45808
 C610 C 1.08240 0.65838 0.43862
 C611 C 1.08849 0.68365 0.43273
 H612 H 1.10402 0.69300 0.44299
 O613 O 0.90737 0.51968 0.36722
 O614 O 0.87666 0.51842 0.33786
 C615 C 0.89773 0.52753 0.34617
 C616 C 0.91064 0.54810 0.33169
 C617 C 0.90114 0.55594 0.30770
 H618 H 0.88533 0.54562 0.29899
 O619 O 1.09183 0.47000 0.36525
 O620 O 1.12042 0.46972 0.33410
 C621 C 1.10008 0.46079 0.34431
 C622 C 1.08608 0.43913 0.33215
 C623 C 1.09291 0.43031 0.30759
 H624 H 1.10762 0.44034 0.29695
 O625 O 1.02568 0.36765 0.40666
 O626 O 1.02568 0.33730 0.37752
 C627 C 1.03488 0.34706 0.39790
 C628 C 1.05726 0.33492 0.41080
 C629 C 1.06686 0.31172 0.40178
 H630 H 1.05653 0.30183 0.38672
 O631 O 0.97151 0.62411 0.39783
 O632 O 0.97145 0.65335 0.36735
 C633 C 0.96270 0.64470 0.38835
 C634 C 0.94197 0.65856 0.40185
 C635 C 0.93362 0.68249 0.39318
 H636 H 0.94243 0.69073 0.37630
 O637 O 0.87362 0.59005 0.46828
 O638 O 0.84242 0.61868 0.46844
 C639 C 0.85202 0.59810 0.45998
 C640 C 0.83837 0.58370 0.43977
 C641 C 0.81377 0.59128 0.43132
 H642 H 0.80411 0.60691 0.44080
 O643 O 1.13288 0.40853 0.46751
 O644 O 1.16380 0.37961 0.46828
 C645 C 1.15411 0.39994 0.45910
 C646 C 1.16706 0.41352 0.43795
 C647 C 1.19203 0.40680 0.43012
 H648 H 1.20255 0.39255 0.44096
 O649 O 0.97226 0.58827 0.36417
 O650 O 0.97192 0.61719 0.33340
 C651 C 0.96337 0.59660 0.34306
 C652 C 0.94248 0.58226 0.33020
 C653 C 0.93243 0.59019 0.30642
 H654 H 0.94028 0.60695 0.29719
 O655 O 1.02453 0.40107 0.37024
 O656 O 1.02410 0.37093 0.34089
 C657 C 1.03300 0.39186 0.34939
 C658 C 1.05359 0.40539 0.33500
 C659 C 1.06136 0.39644 0.31091
 H660 H 1.05247 0.37938 0.30340
 O661 O 1.12875 0.47257 0.39889
 O662 O 1.15761 0.47270 0.36798
 C663 C 1.14970 0.46442 0.38943
 C664 C 1.16465 0.44481 0.40345
 C665 C 1.18919 0.43726 0.39516
 H666 H 1.19699 0.44580 0.37797
 O667 O 0.87343 0.52083 0.40350
 O668 O 0.84275 0.51976 0.37409
 C669 C 0.85223 0.52915 0.39445
 C670 C 0.83868 0.55020 0.40749
 C671 C 0.81438 0.55841 0.39884
 H672 H 0.80564 0.54918 0.38244
 O673 O 0.90723 0.62658 0.46675
 O674 O 0.87621 0.65536 0.46694
 C675 C 0.89719 0.64689 0.45779
 C676 C 0.90991 0.66005 0.43599
 C677 C 0.90180 0.68423 0.42714
 H678 H 0.88647 0.69415 0.43703
 O679 O 1.09852 0.37268 0.46900
 O680 O 1.12916 0.34349 0.46952
 C681 C 1.10774 0.35175 0.46090
 C682 C 1.09343 0.33729 0.44098
 C683 C 1.10308 0.31415 0.43123
 H684 H 1.12115 0.30652 0.43842
 O685 O 1.08932 0.51964 0.36440
 O686 O 1.11794 0.51942 0.33325
 C687 C 1.09716 0.52783 0.34292
 C688 C 1.08291 0.54828 0.32948
 C689 C 1.09123 0.55625 0.30532
 H690 H 1.10608 0.54544 0.29567
 O691 O 0.90868 0.47005 0.37018
 O692 O 0.87784 0.46907 0.34095
 C693 C 0.89907 0.46069 0.34990
 C694 C 0.91186 0.43909 0.33704
 C695 C 0.90147 0.42959 0.31425
 H696 H 0.88590 0.43992 0.30501
 O697 O 1.02140 0.62407 0.39894
 O698 O 1.02156 0.65364 0.36880
 C699 C 1.02986 0.64495 0.39009
 C700 C 1.04977 0.65879 0.40483
 C701 C 1.05633 0.68414 0.39892
 H702 H 1.04645 0.69407 0.38350
 O703 O 0.97538 0.36528 0.40632
 O704 O 0.97520 0.33478 0.37737
 C705 C 0.96668 0.34416 0.39809
 C706 C 0.94565 0.33124 0.41240
 C707 C 0.93641 0.30693 0.40534
 H708 H 0.94625 0.29662 0.39036
 O709 O 1.12593 0.58873 0.46452
 O710 O 1.15432 0.61991 0.46322
 C711 C 1.14579 0.59887 0.45468
 C712 C 1.15878 0.58668 0.43260
 C713 C 1.18066 0.59806 0.42197
 H714 H 1.18871 0.61490 0.43089
 O715 O 0.87339 0.40475 0.47376
 O716 O 0.84309 0.37535 0.47485
 C717 C 0.85201 0.39603 0.46574
 C718 C 0.83793 0.41000 0.44523
 C719 C 0.81255 0.40340 0.43826
 H720 H 0.80269 0.38857 0.44880
 Cu721 Cu 0.99977 0.38657 0.39146
 Cu722 Cu 0.99965 0.35022 0.35650
 Cu723 Cu 0.99694 0.60341 0.38430
 Cu724 Cu 0.99692 0.63846 0.34764
 Cu725 Cu 0.89378 0.49556 0.38946
 Cu726 Cu 0.85685 0.49422 0.35420
 Cu727 Cu 1.10653 0.49605 0.38445
 Cu728 Cu 1.14084 0.49609 0.34709
 C729 C 0.93293 0.42657 0.34834
 H730 H 0.94099 0.43395 0.36601
 C731 C 0.91027 0.40666 0.30363
 C732 C 1.06282 0.56152 0.34148
 H733 H 1.05633 0.55539 0.36022
 C734 C 1.08141 0.57844 0.29388
 C735 C 0.85037 0.42980 0.43197
 H736 H 0.86994 0.43495 0.43710
 C737 C 0.79986 0.41605 0.41789
 C738 C 1.14868 0.56469 0.42113
 H739 H 1.13154 0.55609 0.42917
 C740 C 1.19227 0.58832 0.39983
 C741 C 0.93367 0.34423 0.43259
 H742 H 0.94065 0.36281 0.43829
 C743 C 0.91462 0.29617 0.41757
 C744 C 1.06277 0.64618 0.42491
 H745 H 1.05824 0.62652 0.42933
 C746 C 1.07560 0.69675 0.41309
 C747 C 0.93153 0.56111 0.34256
 H748 H 0.93875 0.55523 0.36118
 C749 C 0.91174 0.57708 0.29496
 C750 C 1.06607 0.42675 0.34546
 H751 H 1.06056 0.43342 0.36429
 C752 C 1.08060 0.40893 0.29664
 C753 C 1.07046 0.34742 0.43065
 H754 H 1.06323 0.36553 0.43750
 C755 C 1.08999 0.30142 0.41136
 C756 C 0.93016 0.64763 0.42331
 H757 H 0.93643 0.62900 0.42982
 C758 C 0.91384 0.69577 0.40582
 C759 C 0.85048 0.56290 0.42801
 H760 H 0.86950 0.55700 0.43438
 C761 C 0.80161 0.57884 0.41072
 C762 C 1.15381 0.43286 0.42483
 H763 H 1.13457 0.43815 0.43085
 C764 C 1.20335 0.41847 0.40856
 O765 O 1.03128 0.40998 0.62199
 O766 O 1.03336 0.38038 0.65203
 C767 C 1.04123 0.40126 0.64254
 C768 C 1.06262 0.41522 0.65509
 C769 C 1.07286 0.40680 0.67866
 H770 H 1.06427 0.39063 0.68832
 O771 O 0.97387 0.59158 0.62361
 O772 O 0.97460 0.62183 0.65280
 C773 C 0.96558 0.60089 0.64449
 C774 C 0.94485 0.58719 0.65860
 C775 C 0.93570 0.59564 0.68257
 H776 H 0.94446 0.61207 0.69156
 O777 O 0.87615 0.52194 0.58824
 O778 O 0.84562 0.52252 0.61754
 C779 C 0.85506 0.53085 0.59659
 C780 C 0.84170 0.55142 0.58200
 C781 C 0.81703 0.55966 0.58940
 H782 H 0.80734 0.55020 0.60511
 O783 O 1.13242 0.47889 0.58296
 O784 O 1.16295 0.47973 0.61254
 C785 C 1.15375 0.47079 0.59181
 C786 C 1.16778 0.45040 0.57822
 C787 C 1.19247 0.44308 0.58640
 H788 H 1.20126 0.45269 0.60256
 O789 O 1.09842 0.37547 0.51876
 O790 O 1.12891 0.34611 0.51955
 C791 C 1.10785 0.35513 0.52807
 C792 C 1.09421 0.34183 0.54898
 C793 C 1.10269 0.31782 0.55726
 H794 H 1.11979 0.30976 0.54867
 O795 O 0.90889 0.62646 0.51694
 O796 O 0.87779 0.65519 0.51718
 C797 C 0.89912 0.64679 0.52579
 C798 C 0.91230 0.66030 0.54689
 C799 C 0.90326 0.68402 0.55524
 H800 H 0.88668 0.69250 0.54582
 O801 O 0.91038 0.47263 0.62521
 O802 O 0.88017 0.47222 0.65477
 C803 C 0.90134 0.46366 0.64594
 C804 C 0.91570 0.44274 0.65920
 C805 C 0.90711 0.43191 0.68247
 H806 H 0.88967 0.43903 0.69128
 O807 O 1.09615 0.52763 0.61805
 O808 O 1.12653 0.52828 0.64777
 C809 C 1.10511 0.53632 0.63892
 C810 C 1.09092 0.55642 0.65281
 C811 C 1.10052 0.56556 0.67616
 H812 H 1.11740 0.55669 0.68465
 O813 O 0.98019 0.37408 0.58890
 O814 O 0.98215 0.34459 0.61908
 C815 C 0.97217 0.35332 0.59855
 C816 C 0.95054 0.33952 0.58627
 C817 C 0.94159 0.31664 0.59689
 H818 H 0.95094 0.30889 0.61382
 O819 O 1.02331 0.62448 0.58562
 O820 O 1.02436 0.65520 0.61436
 C821 C 1.03251 0.64542 0.59359
 C822 C 1.05332 0.65812 0.57886
 C823 C 1.06168 0.68267 0.58560
 H824 H 1.05190 0.69281 0.60079
 O825 O 0.87451 0.40506 0.52361
 O826 O 0.84446 0.37540 0.52462
 C827 C 0.85369 0.39623 0.53278
 C828 C 0.84007 0.41010 0.55325
 C829 C 0.81568 0.40196 0.56125
 H830 H 0.80745 0.38513 0.55258
 O831 O 1.13013 0.59028 0.51460
 O832 O 1.15881 0.62121 0.51294
 C833 C 1.15110 0.60029 0.52227
 C834 C 1.16589 0.58815 0.54319
 C835 C 1.18979 0.59795 0.55102
 H836 H 1.19851 0.61304 0.53988
 O837 O 1.02430 0.59124 0.62195
 O838 O 1.02540 0.62161 0.65104
 C839 C 1.03407 0.60082 0.64208
 C840 C 1.05633 0.58803 0.65453
 C841 C 1.06664 0.59734 0.67764
 H842 H 1.05785 0.61370 0.68674
 O843 O 0.98081 0.40907 0.62363
 O844 O 0.98300 0.37957 0.65376
 C845 C 0.97303 0.39987 0.64477
 C846 C 0.95141 0.41214 0.65855
 C847 C 0.94297 0.40209 0.68194
 H848 H 0.95376 0.38669 0.69076
 O849 O 1.13302 0.52839 0.58448
 O850 O 1.16346 0.52931 0.61411
 C851 C 1.15399 0.53752 0.59321
 C852 C 1.16700 0.55809 0.57878
 C853 C 1.19056 0.56862 0.58703
 H854 H 1.19938 0.56158 0.60452
 O855 O 0.87399 0.47252 0.59070
 O856 O 0.84352 0.47286 0.62004
 C857 C 0.85271 0.46415 0.59934
 C858 C 0.83907 0.44359 0.58545
 C859 C 0.81413 0.43577 0.59266
 H860 H 0.80415 0.44607 0.60758
 O861 O 1.09158 0.62185 0.51656
 O862 O 1.12035 0.65271 0.51524
 C863 C 1.10007 0.64300 0.52478
 C864 C 1.08647 0.65660 0.54564
 C865 C 1.09478 0.68092 0.55306
 H866 H 1.11129 0.68934 0.54368
 O867 O 0.91026 0.37071 0.52332
 O868 O 0.88034 0.34096 0.52498
 C869 C 0.90153 0.35027 0.53300
 C870 C 0.91591 0.33786 0.55432
 C871 C 0.90728 0.31488 0.56521
 H872 H 0.89060 0.30539 0.55715
 O873 O 1.09855 0.47812 0.61912
 O874 O 1.12897 0.47885 0.64880
 C875 C 1.10813 0.46970 0.63994
 C876 C 1.09524 0.44868 0.65371
 C877 C 1.10522 0.43996 0.67717
 H878 H 1.12214 0.44897 0.68530
 O879 O 0.90926 0.52258 0.62537
 O880 O 0.87914 0.52247 0.65506
 C881 C 0.89994 0.53143 0.64602
 C882 C 0.91299 0.55285 0.65919
 C883 C 0.90413 0.56153 0.68298
 H884 H 0.88793 0.55206 0.69191
 O885 O 0.97336 0.62572 0.58726
 O886 O 0.97411 0.65629 0.61614
 C887 C 0.96510 0.64694 0.59554
 C888 C 0.94449 0.66045 0.58116
 C889 C 0.93558 0.68452 0.58895
 H890 H 0.94480 0.69389 0.60501
 O891 O 1.03046 0.37480 0.58698
 O892 O 1.03222 0.34510 0.61695
 C893 C 1.03984 0.35410 0.59567
 C894 C 1.06042 0.34082 0.58133
 C895 C 1.06839 0.31618 0.58853
 H896 H 1.05789 0.30625 0.60336
 O897 O 1.13371 0.41005 0.51716
 O898 O 1.16449 0.38098 0.51811
 C899 C 1.15505 0.40188 0.52601
 C900 C 1.16857 0.41666 0.54611
 C901 C 1.19345 0.40971 0.55442
 H902 H 1.20336 0.39405 0.54522
 O903 O 0.87596 0.58973 0.51811
 O904 O 0.84470 0.61829 0.51828
 C905 C 0.85483 0.59794 0.52712
 C906 C 0.84187 0.58405 0.54825
 C907 C 0.81745 0.59210 0.55629
 H908 H 0.80846 0.60835 0.54702
 Cu909 Cu 1.00559 0.39499 0.60238
 Cu910 Cu 1.00795 0.35949 0.63850
 Cu911 Cu 0.99842 0.60514 0.60184
 Cu912 Cu 0.99966 0.64175 0.63656
 Cu913 Cu 0.89466 0.39039 0.49831
 Cu914 Cu 0.85857 0.35481 0.49990
 Cu915 Cu 1.11283 0.39460 0.49293
 Cu916 Cu 1.14965 0.35955 0.49396
 Cu917 Cu 0.89467 0.60546 0.49234
 Cu918 Cu 0.85715 0.63976 0.49279
 Cu919 Cu 1.10662 0.60278 0.49073
 Cu920 Cu 1.14094 0.64006 0.48916
 Cu921 Cu 0.89552 0.49724 0.60458
 Cu922 Cu 0.85914 0.49760 0.63983
 Cu923 Cu 1.11201 0.50329 0.59813
 Cu924 Cu 1.14850 0.50411 0.63383
 C925 C 1.07381 0.43636 0.64290
 H926 H 1.06629 0.44278 0.62458
 C927 C 1.09422 0.41906 0.68980
 C928 C 0.93347 0.56562 0.64734
 H929 H 0.94009 0.55912 0.62881
 C930 C 0.91538 0.58272 0.69504
 C931 C 0.85388 0.56357 0.56113
 H932 H 0.87295 0.55752 0.55532
 C933 C 0.80479 0.58004 0.57665
 C934 C 1.15606 0.43726 0.55791
 H935 H 1.13677 0.44257 0.55184
 C936 C 1.20556 0.42287 0.57460
 C937 C 1.07307 0.35323 0.56112
 H938 H 1.06693 0.37215 0.55534
 C939 C 1.08970 0.30446 0.57669
 C940 C 0.93299 0.64874 0.55984
 H941 H 0.93963 0.63014 0.55378
 C942 C 0.91484 0.69647 0.57613
 C943 C 0.93791 0.43262 0.64754
 H944 H 0.94437 0.44025 0.62935
 C945 C 0.92066 0.41136 0.69394
 C946 C 1.06859 0.56749 0.64230
 H947 H 1.06122 0.56063 0.62413
 C948 C 1.08883 0.58624 0.68853
 C949 C 0.93773 0.34987 0.56486
 H950 H 0.94434 0.36776 0.55687
 C951 C 0.92004 0.30414 0.58656
 C952 C 1.06564 0.64535 0.55859
 H953 H 1.05942 0.62639 0.55326
 C954 C 1.08249 0.69424 0.57286
 C955 C 0.85159 0.43094 0.56536
 H956 H 0.87072 0.43684 0.55962
 C957 C 0.80214 0.41487 0.58057
 C958 C 1.15499 0.56797 0.55682
 H959 H 1.13650 0.56047 0.55076
 C960 C 1.20231 0.58860 0.57313
 O961 O 0.58687 1.02644 0.64170
 O962 O 0.61704 1.02671 0.67157
 C963 C 0.59637 1.03579 0.66219
 C964 C 0.58350 1.05800 0.67441
 C965 C 0.59281 1.06897 0.69738
 H966 H 0.60973 1.06089 0.70650
 O967 O 0.40644 0.97475 0.63679
 O968 O 0.37554 0.97545 0.66566
 C969 C 0.39647 0.96609 0.65721
 C970 C 0.40913 0.94434 0.67049
 C971 C 0.39909 0.93399 0.69335
 H972 H 0.38214 0.94236 0.70201
 O973 O 0.52249 1.12801 0.59877
 O974 O 0.52142 1.15871 0.62751
 C975 C 0.53071 1.14918 0.60717
 C976 C 0.55189 1.16243 0.59369
 C977 C 0.56131 1.18566 0.60299
 H978 H 0.55163 1.19471 0.61890
 O979 O 0.47093 0.87048 0.60090
 O980 O 0.46965 0.84065 0.63070
 C981 C 0.46124 0.85006 0.60973
 C982 C 0.43961 0.83768 0.59559
 C983 C 0.42917 0.81427 0.60385
 H984 H 0.43716 0.80488 0.62062
 O985 O 0.62197 1.09037 0.53258
 O986 O 0.65308 1.11896 0.53339
 C987 C 0.64309 1.09844 0.54178
 C988 C 0.65592 1.08427 0.56286
 C989 C 0.68102 1.09080 0.57040
 H990 H 0.69145 1.10486 0.55935
 O991 O 0.36899 0.90975 0.53124
 O992 O 0.33867 0.88040 0.53106
 C993 C 0.34815 0.90078 0.54027
 C994 C 0.33535 0.91388 0.56216
 C995 C 0.31216 0.90451 0.57263
 H996 H 0.30388 0.88741 0.56460
 O997 O 0.47207 1.09351 0.63377
 O998 O 0.47130 1.12410 0.66267
 C999 C 0.46303 1.10294 0.65423
 C1000 C 0.44267 1.08929 0.66840
 C1001 C 0.43461 1.09828 0.69227
 H1002 H 0.44316 1.11554 0.69971
 O1003 O 0.52154 0.90423 0.63690
 O1004 O 0.52109 0.87453 0.66688
 C1005 C 0.53007 0.89530 0.65798
 C1006 C 0.55089 0.90921 0.67178
 C1007 C 0.56262 0.89902 0.69403
 H1008 H 0.55628 0.88084 0.70156
 O1009 O 0.62081 0.97529 0.60696
 O1010 O 0.65109 0.97576 0.63678
 C1011 C 0.64190 0.96667 0.61615
 C1012 C 0.65572 0.94565 0.60297
 C1013 C 0.68004 0.93751 0.61186
 H1014 H 0.68851 0.94662 0.62846
 O1015 O 0.37465 1.02506 0.59918
 O1016 O 0.34356 1.02627 0.62787
 C1017 C 0.35355 1.03431 0.60709
 C1018 C 0.34044 1.05461 0.59208
 C1019 C 0.31578 1.06281 0.59923
 H1020 H 0.30680 1.05446 0.61596
 O1021 O 0.40936 1.12665 0.52689
 O1022 O 0.37838 1.15547 0.52541
 C1023 C 0.39943 1.14731 0.53485
 C1024 C 0.41166 1.16125 0.55626
 C1025 C 0.40120 1.18437 0.56482
 H1026 H 0.38596 1.19319 0.55367
 O1027 O 0.59041 0.86961 0.53742
 O1028 O 0.62120 0.84059 0.53882
 C1029 C 0.59957 0.84892 0.54641
 C1030 C 0.58515 0.83490 0.56638
 C1031 C 0.59305 0.81058 0.57470
 H1032 H 0.60907 0.80134 0.56525
 O1033 O 0.40665 1.02471 0.63745
 O1034 O 0.37592 1.02566 0.66649
 C1035 C 0.39721 1.03394 0.65792
 C1036 C 0.41079 1.05524 0.67096
 C1037 C 0.40331 1.06418 0.69537
 H1038 H 0.38825 1.05435 0.70571
 O1039 O 0.58367 0.97628 0.64012
 O1040 O 0.61406 0.97642 0.66981
 C1041 C 0.59318 0.96737 0.66070
 C1042 C 0.58091 0.94518 0.67333
 C1043 C 0.59187 0.93499 0.69567
 H1044 H 0.60772 0.94489 0.70484
 O1045 O 0.52144 0.86903 0.60213
 O1046 O 0.52035 0.83914 0.63190
 C1047 C 0.52972 0.84811 0.61134
 C1048 C 0.55094 0.83457 0.59829
 C1049 C 0.55935 0.81052 0.60679
 H1050 H 0.54989 0.80170 0.62300
 O1051 O 0.47221 1.12820 0.59853
 O1052 O 0.47113 1.15883 0.62736
 C1053 C 0.46285 1.14904 0.60670
 C1054 C 0.44186 1.16164 0.59215
 C1055 C 0.43025 1.18407 0.60127
 H1056 H 0.43672 1.19189 0.61933
 O1057 O 0.37511 1.09053 0.52772
 O1058 O 0.34417 1.11939 0.52634
 C1059 C 0.35374 1.09914 0.53590
 C1060 C 0.34016 1.08587 0.55714
 C1061 C 0.31517 1.09346 0.56443
 H1062 H 0.30533 1.10825 0.55365
 O1063 O 0.62353 0.90678 0.53911
 O1064 O 0.65443 0.87789 0.54065
 C1065 C 0.64444 0.89848 0.54879
 C1066 C 0.65705 0.91262 0.57000
 C1067 C 0.68159 0.90524 0.57882
 H1068 H 0.69170 0.89004 0.56910
 O1069 O 0.47158 0.90556 0.63568
 O1070 O 0.47082 0.87592 0.66573
 C1071 C 0.46260 0.89688 0.65653
 C1072 C 0.44182 0.91073 0.66987
 C1073 C 0.43194 0.90105 0.69278
 H1074 H 0.44081 0.88440 0.70145
 O1075 O 0.52203 1.09475 0.63591
 O1076 O 0.52118 1.12545 0.66466
 C1077 C 0.53011 1.10436 0.65678
 C1078 C 0.55061 1.09121 0.67163
 C1079 C 0.55919 1.10110 0.69508
 H1080 H 0.54892 1.11711 0.70312
 O1081 O 0.37177 0.97556 0.60067
 O1082 O 0.34079 0.97669 0.62944
 C1083 C 0.35016 0.96763 0.60891
 C1084 C 0.33621 0.94704 0.59505
 C1085 C 0.31232 0.93836 0.60411
 H1086 H 0.30333 0.94867 0.61958
 O1087 O 0.61901 1.02495 0.60390
 O1088 O 0.64949 1.02522 0.63351
 C1089 C 0.64025 1.03344 0.61240
 C1090 C 0.65428 1.05317 0.59774
 C1091 C 0.67896 1.06082 0.60566
 H1092 H 0.68728 1.05252 0.62283
 O1093 O 0.40367 0.87405 0.53138
 O1094 O 0.37331 0.84472 0.53073
 C1095 C 0.39428 0.85334 0.53990
 C1096 C 0.40728 0.83944 0.56120
 C1097 C 0.39753 0.81594 0.56951
 H1098 H 0.38159 0.80742 0.55918
 O1099 O 0.58974 1.12824 0.53131
 O1100 O 0.62065 1.15700 0.53219
 C1101 C 0.59928 1.14866 0.54040
 C1102 C 0.58573 1.16224 0.56130
 C1103 C 0.59542 1.18524 0.57138
 H1104 H 0.61277 1.19347 0.56343
 Cu1105 Cu 0.59948 1.00075 0.62037
 Cu1106 Cu 0.63582 1.00111 0.65596
 Cu1107 Cu 0.39309 0.99989 0.61584
 Cu1108 Cu 0.35587 1.00117 0.65024
 Cu1109 Cu 0.49736 1.10810 0.61377
 Cu1110 Cu 0.49620 1.14490 0.64842
 Cu1111 Cu 0.49654 0.89018 0.61583
 Cu1112 Cu 0.49535 0.85454 0.65177
 C1113 C 0.56250 1.06943 0.66177
 H1114 H 0.55578 1.06174 0.64370
 C1115 C 0.58075 1.09074 0.70800
 C1116 C 0.43058 0.93256 0.65903
 H1117 H 0.43806 0.93991 0.64112
 C1118 C 0.41034 0.91210 0.70440
 C1119 C 0.56394 1.15110 0.57259
 H1120 H 0.55683 1.13306 0.56547
 C1121 C 0.58340 1.19703 0.59243
 C1122 C 0.42849 0.85003 0.57417
 H1123 H 0.43594 0.86828 0.56794
 C1124 C 0.40800 0.80326 0.59092
 C1125 C 0.64284 1.06504 0.57632
 H1126 H 0.62347 1.05982 0.57055
 C1127 C 0.69262 1.07955 0.59208
 C1128 C 0.34728 0.93502 0.57375
 H1129 H 0.36562 0.94174 0.56657
 C1130 C 0.30025 0.91661 0.59372
 C1131 C 0.43085 1.06771 0.65799
 H1132 H 0.43676 1.06110 0.63925
 C1133 C 0.41544 1.08569 0.70638
 C1134 C 0.56021 0.93236 0.66169
 H1135 H 0.55191 0.94002 0.64419
 C1136 C 0.58344 0.91170 0.70583
 C1137 C 0.64440 0.93308 0.58198
 H1138 H 0.62546 0.93888 0.57531
 C1139 C 0.69328 0.91741 0.59986
 C1140 C 0.35248 1.06616 0.57092
 H1141 H 0.37172 1.06020 0.56553
 C1142 C 0.30278 1.08196 0.58544
 C1143 C 0.43236 1.15037 0.56969
 H1144 H 0.44053 1.13256 0.56310
 C1145 C 0.40983 1.19577 0.58771
 C1146 C 0.56385 0.84646 0.57800
 H1147 H 0.55781 0.86526 0.57177
 C1148 C 0.58029 0.79814 0.59500
 O1149 O 0.59564 0.97108 0.38231
 O1150 O 0.62711 0.97041 0.35405
 C1151 C 0.60584 0.96171 0.36232
 C1152 C 0.59309 0.94029 0.34868
 C1153 C 0.60327 0.93120 0.32560
 H1154 H 0.62084 0.93968 0.31853
 O1155 O 0.41145 1.02088 0.37421
 O1156 O 0.38171 1.02093 0.34389
 C1157 C 0.40280 1.02935 0.35298
 C1158 C 0.41668 1.04992 0.33912
 C1159 C 0.40764 1.05838 0.31519
 H1160 H 0.39249 1.04764 0.30595
 O1161 O 0.47648 1.12414 0.40786
 O1162 O 0.47672 1.15344 0.37748
 C1163 C 0.46733 1.14445 0.39812
 C1164 C 0.44517 1.15721 0.41073
 C1165 C 0.43345 1.17887 0.39969
 H1166 H 0.44082 1.18638 0.38181
 O1167 O 0.52707 0.87005 0.41672
 O1168 O 0.52765 0.83951 0.38782
 C1169 C 0.53615 0.84913 0.40851
 C1170 C 0.55740 0.83638 0.42271
 C1171 C 0.56868 0.81400 0.41315
 H1172 H 0.56143 0.80594 0.39546
 O1173 O 0.62640 0.90616 0.48906
 O1174 O 0.65723 0.87721 0.49075
 C1175 C 0.64796 0.89764 0.48137
 C1176 C 0.66201 0.91089 0.46058
 C1177 C 0.68558 0.90107 0.45191
 H1178 H 0.69429 0.88504 0.46183
 O1179 O 0.37594 1.08902 0.47744
 O1180 O 0.34503 1.11793 0.47648
 C1181 C 0.35479 1.09733 0.46828
 C1182 C 0.34142 1.08333 0.44760
 C1183 C 0.31681 1.09115 0.43973
 H1184 H 0.30813 1.10752 0.44885
 O1185 O 0.52898 1.08977 0.37573
 O1186 O 0.52999 1.11889 0.34524
 C1187 C 0.53884 1.09851 0.35527
 C1188 C 0.56108 1.08489 0.34354
 C1189 C 0.57296 1.09402 0.32109
 H1190 H 0.56585 1.11150 0.31256
 O1191 O 0.47814 0.90458 0.37902
 O1192 O 0.47854 0.87399 0.35015
 C1193 C 0.46973 0.89505 0.35828
 C1194 C 0.44879 0.90806 0.34399
 C1195 C 0.43977 0.89807 0.32076
 H1196 H 0.44947 0.88181 0.31244
 O1197 O 0.62935 1.02242 0.41707
 O1198 O 0.66092 1.02162 0.38892
 C1199 C 0.65069 1.03105 0.40885
 C1200 C 0.66321 1.05272 0.42227
 C1201 C 0.68699 1.06261 0.41385
 H1202 H 0.69684 1.05384 0.39786
 O1203 O 0.37424 0.97216 0.40945
 O1204 O 0.34457 0.97261 0.37902
 C1205 C 0.35306 0.96402 0.40023
 C1206 C 0.33823 0.94419 0.41410
 C1207 C 0.31432 0.93590 0.40458
 H1208 H 0.30680 0.94422 0.38705
 O1209 O 0.58989 1.12632 0.48094
 O1210 O 0.62067 1.15521 0.48182
 C1211 C 0.59992 1.14655 0.47213
 C1212 C 0.58757 1.15976 0.45008
 C1213 C 0.59727 1.18300 0.44101
 H1214 H 0.61420 1.19084 0.45020
 O1215 O 0.40509 0.87512 0.48123
 O1216 O 0.37471 0.84582 0.48075
 C1217 C 0.39601 0.85448 0.47236
 C1218 C 0.41001 0.84050 0.45183
 C1219 C 0.40054 0.81701 0.44312
 H1220 H 0.38319 0.80925 0.45155
 O1221 O 0.41036 0.97110 0.37531
 O1222 O 0.38077 0.97104 0.34484
 C1223 C 0.40142 0.96208 0.35456
 C1224 C 0.41503 0.94057 0.34217
 C1225 C 0.40594 0.93001 0.31910
 H1226 H 0.38894 0.93795 0.30994
 O1227 O 0.59515 1.02110 0.38063
 O1228 O 0.62670 1.02028 0.35245
 C1229 C 0.60532 1.02931 0.36010
 C1230 C 0.59286 1.05040 0.34559
 C1231 C 0.60359 1.05908 0.32252
 H1232 H 0.61946 1.04853 0.31432
 O1233 O 0.47633 0.87084 0.41523
 O1234 O 0.47664 0.84005 0.38661
 C1235 C 0.46713 0.85007 0.40670
 C1236 C 0.44465 0.83804 0.41989
 C1237 C 0.43468 0.81445 0.41158
 H1238 H 0.44410 0.80439 0.39612
 O1239 O 0.52654 1.12559 0.40974
 O1240 O 0.52724 1.15506 0.37955
 C1241 C 0.53525 1.14646 0.40097
 C1242 C 0.55556 1.16014 0.41557
 C1243 C 0.56477 1.18403 0.40744
 H1244 H 0.55546 1.19337 0.39136
 O1245 O 0.36839 0.90892 0.48048
 O1246 O 0.33787 0.87978 0.48026
 C1247 C 0.34748 0.90011 0.47122
 C1248 C 0.33505 0.91314 0.44898
 C1249 C 0.31096 0.90512 0.43918
 H1250 H 0.30052 0.89009 0.44885
 O1251 O 0.62534 1.09146 0.48282
 O1252 O 0.65606 1.12044 0.48384
 C1253 C 0.64689 1.09987 0.47495
 C1254 C 0.66123 1.08609 0.45481
 C1255 C 0.68508 1.09541 0.44638
 H1256 H 0.69320 1.11229 0.45514
 O1257 O 0.52843 0.90353 0.38002
 O1258 O 0.52903 0.87320 0.35091
 C1259 C 0.53781 0.89411 0.35962
 C1260 C 0.55966 0.90746 0.34672
 C1261 C 0.56960 0.89927 0.32289
 H1262 H 0.56013 0.88380 0.31299
 O1263 O 0.47843 1.08926 0.37326
 O1264 O 0.47895 1.11827 0.34262
 C1265 C 0.46991 1.09778 0.35202
 C1266 C 0.44874 1.08399 0.33875
 C1267 C 0.43818 1.09322 0.31554
 H1268 H 0.44571 1.11065 0.30742
 O1269 O 0.37572 1.02163 0.40920
 O1270 O 0.34575 1.02205 0.37906
 C1271 C 0.35474 1.03041 0.40015
 C1272 C 0.34104 1.05079 0.41427
 C1273 C 0.31597 1.05845 0.40713
 H1274 H 0.30612 1.04854 0.39179
 O1275 O 0.62900 0.97255 0.41939
 O1276 O 0.66052 0.97176 0.39116
 C1277 C 0.65036 0.96354 0.41171
 C1278 C 0.66310 0.94274 0.42633
 C1279 C 0.68639 0.93217 0.41759
 H1280 H 0.69519 0.93964 0.40035
 O1281 O 0.59161 0.87081 0.48752
 O1282 O 0.62244 0.84183 0.48890
 C1283 C 0.60160 0.85035 0.47917
 C1284 C 0.58929 0.83688 0.45736
 C1285 C 0.59990 0.81415 0.44786
 H1286 H 0.61614 0.80557 0.45776
 O1287 O 0.41004 1.12493 0.47665
 O1288 O 0.37905 1.15374 0.47541
 C1289 C 0.40023 1.14499 0.46693
 C1290 C 0.41287 1.15765 0.44481
 C1291 C 0.40195 1.17966 0.43389
 H1292 H 0.38555 1.18844 0.44312
 Cu1293 Cu 0.60915 0.99690 0.40267
 Cu1294 Cu 0.64693 0.99591 0.36881
 Cu1295 Cu 0.39595 0.99645 0.39502
 Cu1296 Cu 0.36031 0.99679 0.35857
 Cu1297 Cu 0.60353 1.10635 0.50682
 Cu1298 Cu 0.64063 1.14083 0.50796
 Cu1299 Cu 0.60488 0.89122 0.51321
 Cu1300 Cu 0.64196 0.85653 0.51498
 Cu1301 Cu 0.39576 1.10492 0.50239
 Cu1302 Cu 0.35860 1.13953 0.50079
 Cu1303 Cu 0.38938 0.89502 0.50610
 Cu1304 Cu 0.35310 0.85984 0.50561
 Cu1305 Cu 0.50262 1.10425 0.39458
 Cu1306 Cu 0.50335 1.13929 0.35810
 Cu1307 Cu 0.50252 0.89022 0.40064
 Cu1308 Cu 0.50299 0.85355 0.36608
 C1309 C 0.57132 0.92834 0.35903
 H1310 H 0.56383 0.93494 0.37720
 C1311 C 0.59149 0.91119 0.31191
 C1312 C 0.43763 1.06247 0.35046
 H1313 H 0.44476 1.05594 0.36890
 C1314 C 0.41738 1.08063 0.30351
 C1315 C 0.43468 1.14678 0.43328
 H1316 H 0.44309 1.12971 0.44154
 C1317 C 0.41169 1.19023 0.41107
 C1318 C 0.56780 0.84761 0.44486
 H1319 H 0.55963 0.86523 0.45194
 C1320 C 0.58999 0.80267 0.42552
 C1321 C 0.65107 0.93198 0.44791
 H1322 H 0.63272 0.93947 0.45431
 C1323 C 0.69770 0.91120 0.43015
 C1324 C 0.35340 1.06306 0.43487
 H1325 H 0.37268 1.05735 0.44054
 C1326 C 0.30359 1.07868 0.41988
 C1327 C 0.57134 1.06311 0.35565
 H1328 H 0.56296 1.05640 0.37342
 C1329 C 0.59424 1.08115 0.31015
 C1330 C 0.43654 0.92950 0.35437
 H1331 H 0.44332 0.93711 0.37245
 C1332 C 0.41820 0.90866 0.30829
 C1333 C 0.65061 1.06457 0.44288
 H1334 H 0.63208 1.05749 0.44920
 C1335 C 0.69807 1.08395 0.42592
 C1336 C 0.34827 0.93288 0.43641
 H1337 H 0.36689 0.93898 0.44358
 C1338 C 0.30029 0.91658 0.41700
 C1339 C 0.56672 1.14853 0.43724
 H1340 H 0.55966 1.13020 0.44370
 C1341 C 0.58577 1.19576 0.42001
 C1342 C 0.43219 0.85077 0.44022
 H1343 H 0.43941 0.86903 0.44662
 C1344 C 0.41266 0.80373 0.42316
 O1345 O 0.58734 0.52680 1.13104
 O1346 O 0.61553 0.52650 1.16280
 C1347 C 0.59492 0.53511 1.15260
 C1348 C 0.57994 0.55554 1.16542
 C1349 C 0.58678 0.56406 1.19006
 H1350 H 0.60225 0.55458 1.20035
 O1351 O 0.40233 0.47401 1.12264
 O1352 O 0.37234 0.47267 1.15243
 C1353 C 0.39339 0.46443 1.14320
 C1354 C 0.40753 0.44319 1.15600
 C1355 C 0.39846 0.43215 1.17900
 H1356 H 0.38082 0.43914 1.18751
 O1357 O 0.52078 0.62737 1.09103
 O1358 O 0.51994 0.65652 1.12136
 C1359 C 0.52987 0.64742 1.10108
 C1360 C 0.55302 0.65965 1.09005
 C1361 C 0.56327 0.68131 1.10189
 H1362 H 0.55295 0.69006 1.11758
 O1363 O 0.47426 0.37333 1.08687
 O1364 O 0.47399 0.34324 1.11649
 C1365 C 0.46560 0.35234 1.09547
 C1366 C 0.44535 0.33834 1.08126
 C1367 C 0.43803 0.31396 1.08941
 H1368 H 0.44754 0.30548 1.10589
 O1369 O 0.63215 0.59151 1.03000
 O1370 O 0.66097 0.62229 1.03141
 C1371 C 0.65220 0.60126 1.03986
 C1372 C 0.66451 0.58834 1.06207
 C1373 C 0.68790 0.59707 1.07242
 H1374 H 0.69719 0.61336 1.06370
 O1375 O 0.37087 0.40590 1.01944
 O1376 O 0.34149 0.37560 1.01895
 C1377 C 0.35023 0.39633 1.02814
 C1378 C 0.33678 0.40947 1.04942
 C1379 C 0.31401 0.39951 1.06013
 H1380 H 0.30601 0.38193 1.05278
 O1381 O 0.46819 0.59366 1.12357
 O1382 O 0.46693 0.62299 1.15371
 C1383 C 0.45852 0.60239 1.14406
 C1384 C 0.43726 0.58838 1.15667
 C1385 C 0.42652 0.59720 1.17972
 H1386 H 0.43340 0.61494 1.18764
 O1387 O 0.52375 0.40794 1.12417
 O1388 O 0.52299 0.37755 1.15343
 C1389 C 0.53186 0.39855 1.14523
 C1390 C 0.55241 0.41156 1.16005
 C1391 C 0.56153 0.40076 1.18302
 H1392 H 0.55155 0.38443 1.19078
 O1393 O 0.62483 0.47857 1.09662
 O1394 O 0.65341 0.47806 1.12808
 C1395 C 0.64536 0.46978 1.10656
 C1396 C 0.65960 0.44921 1.09340
 C1397 C 0.68284 0.44007 1.10370
 H1398 H 0.69059 0.44857 1.12099
 O1399 O 0.36599 0.52435 1.08880
 O1400 O 0.33576 0.52330 1.11835
 C1401 C 0.34481 0.53268 1.09781
 C1402 C 0.33127 0.55392 1.08434
 C1403 C 0.30653 0.56242 1.09175
 H1404 H 0.29651 0.55288 1.10721
 O1405 O 0.40171 0.62804 1.02400
 O1406 O 0.37176 0.65794 1.02298
 C1407 C 0.39255 0.64896 1.03224
 C1408 C 0.40615 0.66291 1.05284
 C1409 C 0.39726 0.68681 1.06099
 H1410 H 0.37996 0.69458 1.05230
 O1411 O 0.59472 0.37689 1.02533
 O1412 O 0.62508 0.34741 1.02551
 C1413 C 0.60370 0.35587 1.03360
 C1414 C 0.58935 0.34131 1.05307
 C1415 C 0.59801 0.31724 1.06102
 H1416 H 0.61563 0.30981 1.05291
 O1417 O 0.40331 0.52384 1.12211
 O1418 O 0.37327 0.52257 1.15187
 C1419 C 0.39408 0.53184 1.14307
 C1420 C 0.40689 0.55298 1.15675
 C1421 C 0.39760 0.56106 1.18056
 H1422 H 0.38298 0.54974 1.18989
 O1423 O 0.58993 0.47667 1.13129
 O1424 O 0.61822 0.47636 1.16296
 C1425 C 0.59835 0.46713 1.15218
 C1426 C 0.58533 0.44456 1.16343
 C1427 C 0.59516 0.43255 1.18566
 H1428 H 0.61240 0.44005 1.19458
 O1429 O 0.52460 0.37305 1.08863
 O1430 O 0.52398 0.34275 1.11800
 C1431 C 0.53311 0.35203 1.09747
 C1432 C 0.55446 0.33895 1.08404
 C1433 C 0.56271 0.31431 1.09115
 H1434 H 0.55195 0.30401 1.10554
 O1435 O 0.47024 0.63045 1.09029
 O1436 O 0.46943 0.65994 1.12028
 C1437 C 0.46130 0.65125 1.09908
 C1438 C 0.44035 0.66463 1.08500
 C1439 C 0.43173 0.68901 1.09242
 H1440 H 0.44200 0.69898 1.10742
 O1441 O 0.36755 0.59212 1.02291
 O1442 O 0.33751 0.62193 1.02227
 C1443 C 0.34644 0.60108 1.03114
 C1444 C 0.33241 0.58730 1.05152
 C1445 C 0.30790 0.59543 1.05906
 H1446 H 0.29923 0.61180 1.04968
 O1447 O 0.62900 0.41250 1.02816
 O1448 O 0.65947 0.38313 1.02895
 C1449 C 0.64962 0.40350 1.03783
 C1450 C 0.66174 0.41661 1.06000
 C1451 C 0.68504 0.40772 1.07069
 H1452 H 0.69487 0.39168 1.06207
 O1453 O 0.47347 0.40862 1.12166
 O1454 O 0.47303 0.37846 1.15118
 C1455 C 0.46436 0.39936 1.14220
 C1456 C 0.44289 0.41230 1.15552
 C1457 C 0.43441 0.40265 1.17899
 H1458 H 0.44541 0.38759 1.18814
 O1459 O 0.51840 0.59364 1.12715
 O1460 O 0.51702 0.62283 1.15744
 C1461 C 0.52614 0.60217 1.14865
 C1462 C 0.54639 0.58834 1.16329
 C1463 C 0.55383 0.59681 1.18773
 H1464 H 0.54442 0.61334 1.19583
 O1465 O 0.36930 0.47472 1.08530
 O1466 O 0.33918 0.47358 1.11500
 C1467 C 0.34861 0.46540 1.09409
 C1468 C 0.33587 0.44401 1.08077
 C1469 C 0.31279 0.43439 1.09042
 H1470 H 0.30330 0.44435 1.10590
 O1471 O 0.62632 0.52781 1.09934
 O1472 O 0.65464 0.52761 1.13099
 C1473 C 0.64694 0.53626 1.10952
 C1474 C 0.66177 0.55658 1.09632
 C1475 C 0.68563 0.56501 1.10597
 H1476 H 0.69386 0.55553 1.12255
 O1477 O 0.40622 0.37124 1.01864
 O1478 O 0.37730 0.34054 1.01768
 C1479 C 0.39790 0.34998 1.02687
 C1480 C 0.41214 0.33678 1.04786
 C1481 C 0.40499 0.31226 1.05643
 H1482 H 0.38939 0.30225 1.04700
 O1483 O 0.59638 0.62581 1.03027
 O1484 O 0.62513 0.65668 1.03167
 C1485 C 0.60442 0.64663 1.03979
 C1486 C 0.58983 0.65899 1.06083
 C1487 C 0.60003 0.68040 1.07349
 H1488 H 0.61857 0.68792 1.06776
 Cu1489 Cu 0.60414 0.50273 1.11160
 Cu1490 Cu 0.63823 0.50222 1.14942
 Cu1491 Cu 0.38821 0.49942 1.10179
 Cu1492 Cu 0.35212 0.49790 1.13736
 Cu1493 Cu 0.49438 0.60842 1.10494
 Cu1494 Cu 0.49322 0.64358 1.14112
 Cu1495 Cu 0.49920 0.39373 1.10230
 Cu1496 Cu 0.49838 0.35755 1.13778
 C1497 C 0.55944 0.56759 1.15238
 H1498 H 0.55417 0.56135 1.13329
 C1499 C 0.57391 0.58482 1.20138
 C1500 C 0.42968 0.43289 1.14434
 H1501 H 0.43626 0.44044 1.12617
 C1502 C 0.41172 0.41154 1.19050
 C1503 C 0.56628 0.64869 1.06933
 H1504 H 0.55860 0.63179 1.06025
 C1505 C 0.58697 0.69150 1.09423
 C1506 C 0.43255 0.34947 1.06031
 H1507 H 0.43800 0.36844 1.05419
 C1508 C 0.41811 0.30060 1.07712
 C1509 C 0.65170 0.56807 1.07414
 H1510 H 0.63332 0.56167 1.06664
 C1511 C 0.69892 0.58537 1.09426
 C1512 C 0.34759 0.43171 1.06002
 H1513 H 0.36556 0.43911 1.05258
 C1514 C 0.30206 0.41182 1.08091
 C1515 C 0.42712 0.56639 1.14523
 H1516 H 0.43455 0.56004 1.12695
 C1517 C 0.40665 0.58359 1.19205
 C1518 C 0.56410 0.43373 1.15068
 H1519 H 0.55705 0.44218 1.13301
 C1520 C 0.58346 0.41041 1.19568
 C1521 C 0.64931 0.43755 1.07140
 H1522 H 0.63116 0.44432 1.06359
 C1523 C 0.69569 0.41940 1.09255
 C1524 C 0.34380 0.56643 1.06405
 H1525 H 0.36289 0.56029 1.05835
 C1526 C 0.29457 0.58304 1.07886
 C1527 C 0.42773 0.65208 1.06487
 H1528 H 0.43422 0.63335 1.05905
 C1529 C 0.41009 0.70044 1.08045
 C1530 C 0.56758 0.35194 1.06458
 H1531 H 0.56134 0.37086 1.05895
 C1532 C 0.58469 0.30315 1.07974
 O1533 O 0.59839 0.48094 0.87533
 O1534 O 0.62848 0.48142 0.84558
 C1535 C 0.60747 0.47266 0.85436
 C1536 C 0.59405 0.45201 0.84049
 C1537 C 0.60455 0.44215 0.81783
 H1538 H 0.62137 0.45112 0.80960
 O1539 O 0.40492 0.52745 0.87277
 O1540 O 0.37644 0.52795 0.84125
 C1541 C 0.39707 0.53632 0.85147
 C1542 C 0.41209 0.55676 0.83887
 C1543 C 0.40497 0.56629 0.81460
 H1544 H 0.38825 0.55859 0.80485
 O1545 O 0.47501 0.62645 0.91061
 O1546 O 0.47586 0.65680 0.88127
 C1547 C 0.46655 0.64744 0.90162
 C1548 C 0.44530 0.66099 0.91446
 C1549 C 0.43770 0.68517 0.90580
 H1550 H 0.44783 0.69401 0.88999
 O1551 O 0.52838 0.38097 0.90747
 O1552 O 0.52949 0.35217 0.87679
 C1553 C 0.53784 0.36078 0.89800
 C1554 C 0.55931 0.34743 0.91116
 C1555 C 0.56873 0.32454 0.90115
 H1556 H 0.55943 0.31610 0.88459
 O1557 O 0.63124 0.41421 0.97825
 O1558 O 0.66164 0.38476 0.97900
 C1559 C 0.65267 0.40561 0.97035
 C1560 C 0.66679 0.41909 0.94993
 C1561 C 0.69024 0.40927 0.94127
 H1562 H 0.69913 0.39361 0.95160
 O1563 O 0.36764 0.59328 0.97284
 O1564 O 0.33771 0.62319 0.97227
 C1565 C 0.34684 0.60248 0.96366
 C1566 C 0.33328 0.58928 0.94251
 C1567 C 0.30905 0.59790 0.93422
 H1568 H 0.30028 0.61409 0.94364
 O1569 O 0.52667 0.59273 0.87617
 O1570 O 0.52675 0.62340 0.84715
 C1571 C 0.53570 0.60260 0.85581
 C1572 C 0.55743 0.59046 0.84238
 C1573 C 0.56609 0.60058 0.81910
 H1574 H 0.55560 0.61616 0.81019
 O1575 O 0.47801 0.41614 0.87187
 O1576 O 0.47950 0.38718 0.84139
 C1577 C 0.46992 0.40746 0.85063
 C1578 C 0.44826 0.42009 0.83697
 C1579 C 0.44026 0.41073 0.81315
 H1580 H 0.45197 0.39645 0.80383
 O1581 O 0.63359 0.53022 0.91117
 O1582 O 0.66365 0.53042 0.88141
 C1583 C 0.65449 0.53904 0.90220
 C1584 C 0.66775 0.56027 0.91540
 C1585 C 0.68972 0.57120 0.90451
 H1586 H 0.69794 0.56280 0.88744
 O1587 O 0.36888 0.47735 0.90577
 O1588 O 0.33987 0.47754 0.87473
 C1589 C 0.34846 0.46850 0.89578
 C1590 C 0.33506 0.44705 0.90849
 C1591 C 0.31121 0.43849 0.89927
 H1592 H 0.30265 0.44786 0.88278
 O1593 O 0.59543 0.62536 0.98058
 O1594 O 0.62349 0.65686 0.98174
 C1595 C 0.60294 0.64697 0.97278
 C1596 C 0.58782 0.66038 0.95273
 C1597 C 0.59431 0.68527 0.94534
 H1598 H 0.60983 0.69510 0.95511
 O1599 O 0.40687 0.37371 0.96868
 O1600 O 0.37785 0.34313 0.96719
 C1601 C 0.39861 0.35312 0.95901
 C1602 C 0.41344 0.34112 0.93790
 C1603 C 0.40618 0.31746 0.92749
 H1604 H 0.38918 0.30804 0.93479
 O1605 O 0.40436 0.47808 0.87120
 O1606 O 0.37568 0.47810 0.83987
 C1607 C 0.39639 0.46952 0.84982
 C1608 C 0.41143 0.44924 0.83680
 C1609 C 0.40285 0.43842 0.81354
 H1610 H 0.38479 0.44474 0.80519
 O1611 O 0.59857 0.53028 0.87575
 O1612 O 0.62846 0.53099 0.84581
 C1613 C 0.60738 0.53929 0.85496
 C1614 C 0.59296 0.55994 0.84188
 C1615 C 0.60164 0.57058 0.81868
 H1616 H 0.61908 0.56340 0.80989
 O1617 O 0.47795 0.37872 0.90488
 O1618 O 0.47950 0.34995 0.87420
 C1619 C 0.46999 0.35801 0.89502
 C1620 C 0.44891 0.34344 0.90728
 C1621 C 0.44197 0.31940 0.89781
 H1622 H 0.45349 0.31092 0.88284
 O1623 O 0.52528 0.62517 0.91356
 O1624 O 0.52558 0.65571 0.88440
 C1625 C 0.53390 0.64626 0.90534
 C1626 C 0.55407 0.65989 0.91990
 C1627 C 0.56103 0.68464 0.91265
 H1628 H 0.55136 0.69369 0.89657
 O1629 O 0.37001 0.40711 0.96968
 O1630 O 0.34050 0.37697 0.96860
 C1631 C 0.34907 0.39825 0.96068
 C1632 C 0.33516 0.41270 0.94031
 C1633 C 0.31091 0.40474 0.93118
 H1634 H 0.30159 0.38860 0.94014
 O1635 O 0.63450 0.59461 0.97970
 O1636 O 0.66304 0.62562 0.98050
 C1637 C 0.65487 0.60492 0.97094
 C1638 C 0.66825 0.59292 0.94878
 C1639 C 0.69028 0.60395 0.93726
 H1640 H 0.69850 0.62121 0.94511
 O1641 O 0.52879 0.41523 0.87181
 O1642 O 0.52971 0.38625 0.84129
 C1643 C 0.53837 0.40657 0.85116
 C1644 C 0.56047 0.41959 0.83899
 C1645 C 0.57175 0.40947 0.81674
 H1646 H 0.56382 0.39235 0.80833
 O1647 O 0.47622 0.59101 0.87605
 O1648 O 0.47684 0.62153 0.84688
 C1649 C 0.46795 0.60053 0.85518
 C1650 C 0.44722 0.58764 0.84071
 C1651 C 0.44020 0.59651 0.81634
 H1652 H 0.45126 0.61165 0.80754
 O1653 O 0.36708 0.52712 0.90497
 O1654 O 0.33811 0.52773 0.87392
 C1655 C 0.34644 0.53612 0.89523
 C1656 C 0.33273 0.55700 0.90881
 C1657 C 0.30831 0.56597 0.90068
 H1658 H 0.29869 0.55700 0.88461
 O1659 O 0.63373 0.48058 0.91047
 O1660 O 0.66397 0.48051 0.88089
 C1661 C 0.65463 0.47171 0.90159
 C1662 C 0.66759 0.45056 0.91543
 C1663 C 0.69053 0.43960 0.90619
 H1664 H 0.69900 0.44678 0.88867
 O1665 O 0.59652 0.37888 0.97547
 O1666 O 0.62680 0.34933 0.97557
 C1667 C 0.60603 0.35854 0.96630
 C1668 C 0.59285 0.34604 0.94431
 C1669 C 0.60192 0.32288 0.93401
 H1670 H 0.61849 0.31344 0.94251
 O1671 O 0.40378 0.62723 0.97433
 O1672 O 0.37404 0.65732 0.97327
 C1673 C 0.39528 0.64815 0.96541
 C1674 C 0.41019 0.66148 0.94538
 C1675 C 0.40279 0.68574 0.93648
 H1676 H 0.38640 0.69529 0.94497
 Cu1677 Cu 0.61310 0.50546 0.89620
 Cu1678 Cu 0.64925 0.50587 0.86046
 Cu1679 Cu 0.38908 0.50253 0.89180
 Cu1680 Cu 0.35456 0.50289 0.85436
 Cu1681 Cu 0.61200 0.60611 1.00498
 Cu1682 Cu 0.64613 0.64337 1.00632
 Cu1683 Cu 0.60981 0.39856 1.00177
 Cu1684 Cu 0.64636 0.36325 1.00229
 Cu1685 Cu 0.38815 0.60715 0.99860
 Cu1686 Cu 0.35217 0.64304 0.99760
 Cu1687 Cu 0.39140 0.39243 0.99417
 Cu1688 Cu 0.35635 0.35598 0.99294
 Cu1689 Cu 0.50073 0.60571 0.89703
 Cu1690 Cu 0.50133 0.64238 0.86199
 Cu1691 Cu 0.50308 0.40073 0.89204
 Cu1692 Cu 0.50458 0.36604 0.85536
 C1693 C 0.57176 0.44088 0.85071
 H1694 H 0.56367 0.44828 0.86830
 C1695 C 0.59389 0.42055 0.80600
 C1696 C 0.43332 0.56754 0.85171
 H1697 H 0.43862 0.56078 0.87066
 C1698 C 0.41893 0.58629 0.80326
 C1699 C 0.43165 0.64939 0.93441
 H1700 H 0.43731 0.63055 0.94087
 C1701 C 0.41656 0.69775 0.91667
 C1702 C 0.57136 0.35800 0.93278
 H1703 H 0.56434 0.37593 0.94027
 C1704 C 0.58996 0.31217 0.91227
 C1705 C 0.65584 0.44006 0.93728
 H1706 H 0.63763 0.44762 0.94396
 C1707 C 0.70187 0.41868 0.91896
 C1708 C 0.34481 0.56870 0.92990
 H1709 H 0.36367 0.56222 0.93615
 C1710 C 0.29617 0.58631 0.91359
 C1711 C 0.57074 0.56997 0.85347
 H1712 H 0.56417 0.56233 0.87162
 C1713 C 0.58829 0.59107 0.80725
 C1714 C 0.43404 0.43969 0.84844
 H1715 H 0.44024 0.44701 0.86685
 C1716 C 0.41707 0.41881 0.80166
 C1717 C 0.65738 0.57101 0.93765
 H1718 H 0.64018 0.56270 0.94586
 C1719 C 0.70093 0.59325 0.91481
 C1720 C 0.34680 0.43414 0.92909
 H1721 H 0.36553 0.44034 0.93588
 C1722 C 0.29873 0.41752 0.91056
 C1723 C 0.56740 0.64793 0.94012
 H1724 H 0.56241 0.62861 0.94547
 C1725 C 0.58108 0.69747 0.92521
 C1726 C 0.43483 0.35393 0.92755
 H1727 H 0.44021 0.37247 0.93489
 C1728 C 0.42047 0.30626 0.90743
 C1729 C 1.10674 1.14274 1.29715
 C1730 C 1.13252 1.13587 1.30244
 C1731 C 1.14594 1.12099 1.28447
 C1732 C 1.13384 1.11285 1.26192
 C1733 C 1.10757 1.11851 1.25758
 C1734 C 1.09424 1.13369 1.27520
 C1735 C 1.09508 1.10881 1.23577
 C1736 C 1.10884 1.09447 1.21754
 C1737 C 1.13548 1.09052 1.22147
 C1738 C 1.14769 1.09912 1.24364
 H1739 H 1.16599 1.11597 1.28774
 H1740 H 1.07416 1.13854 1.27203
 H1741 H 1.07459 1.11213 1.23340
 H1742 H 1.16805 1.09520 1.24636
 H1743 H 1.09580 1.15425 1.31046
 H1744 H 1.14717 1.08080 1.20742
 C1745 C 1.09267 0.63285 0.79759
 C1746 C 1.11964 0.63294 0.80023
 C1747 C 1.13498 0.62379 0.78018
 C1748 C 1.12358 0.61489 0.75757
 C1749 C 1.09642 0.61447 0.75514
 C1750 C 1.08112 0.62344 0.77530
 C1751 C 1.08508 0.60517 0.73258
 C1752 C 1.10058 0.59664 0.71227
 C1753 C 1.12758 0.59782 0.71476
 C1754 C 1.13897 0.60664 0.73726
 H1755 H 1.15582 0.62416 0.78190
 H1756 H 1.06028 0.62336 0.77376
 H1757 H 1.06425 0.60425 0.73100
 H1758 H 1.15982 0.60715 0.73870
 H1759 H 1.08052 0.63987 0.81287
 H1760 H 1.14001 0.59204 0.69919
 C1761 C 0.63389 1.10038 0.81535
 C1762 C 0.62745 1.12609 0.82012
 C1763 C 0.61307 1.13942 0.80138
 C1764 C 0.60591 1.12756 0.77826
 C1765 C 0.61167 1.10157 0.77421
 C1766 C 0.62563 1.08816 0.79297
 C1767 C 0.60351 1.08949 0.75145
 C1768 C 0.59053 1.10335 0.73204
 C1769 C 0.58648 1.12969 0.73593
 C1770 C 0.59352 1.14145 0.75888
 H1771 H 0.60828 1.15932 0.80424
 H1772 H 0.63048 1.06827 0.79019
 H1773 H 0.60703 1.06929 0.74915
 H1774 H 0.58957 1.16158 0.76129
 H1775 H 0.64488 1.08938 0.82921
 H1776 H 0.57792 1.14155 0.72119
 C1777 C 0.65066 0.61807 1.28632
 C1778 C 0.63273 0.62973 1.30271
 C1779 C 0.60642 0.62937 1.29613
 C1780 C 0.59818 0.61751 1.27339
 C1781 C 0.61651 0.60644 1.25679
 C1782 C 0.64267 0.60674 1.26349
 C1783 C 0.60847 0.59549 1.23359
 C1784 C 0.58220 0.59499 1.22678
 C1785 C 0.56405 0.60531 1.24390
 C1786 C 0.57196 0.61661 1.26685
 H1787 H 0.59242 0.63811 1.30875
 H1788 H 0.65698 0.59827 1.25105
 H1789 H 0.62283 0.58803 1.22058
 H1790 H 0.55757 0.62471 1.27945
 H1791 H 0.67105 0.61818 1.29088
 H1792 H 0.54363 0.60474 1.23953
 C1793 C 0.86536 0.90134 1.30334
 C1794 C 0.86943 0.87506 1.30773
 C1795 C 0.88406 0.86125 1.28975
 C1796 C 0.89328 0.87316 1.26738
 C1797 C 0.88911 0.89949 1.26343
 C1798 C 0.87541 0.91344 1.28171
 C1799 C 0.89833 0.91141 1.24109
 C1800 C 0.91098 0.89720 1.22202
 C1801 C 0.91437 0.87079 1.22600
 C1802 C 0.90599 0.85902 1.24853
 H1803 H 0.88729 0.84100 1.29245
 H1804 H 0.87197 0.93364 1.27902
 H1805 H 0.89568 0.93175 1.23869
 H1806 H 0.90902 0.83872 1.25098
 H1807 H 0.85443 0.91278 1.31671
 H1808 H 0.92322 0.85897 1.21153
 C1809 C 0.87408 0.40362 0.80312
 C1810 C 0.87685 0.37703 0.80669
 C1811 C 0.88943 0.36287 0.78753
 C1812 C 0.89724 0.37478 0.76456
 C1813 C 0.89389 0.40136 0.76126
 C1814 C 0.88280 0.41562 0.78092
 C1815 C 0.90132 0.41324 0.73824
 C1816 C 0.91170 0.39885 0.71808
 C1817 C 0.91437 0.37228 0.72141
 C1818 C 0.90751 0.36045 0.74443
 H1819 H 0.89161 0.34242 0.78963
 H1820 H 0.88016 0.43601 0.77884
 H1821 H 0.89925 0.43369 0.73615
 H1822 H 0.90990 0.34002 0.74634
 H1823 H 0.86488 0.41536 0.81749
 H1824 H 0.92168 0.36048 0.70608
 C1825 C 0.36761 0.90183 0.81496
 C1826 C 0.36712 0.87507 0.81568
 C1827 C 0.37520 0.86127 0.79421
 C1828 C 0.38304 0.87398 0.77195
 C1829 C 0.38374 0.90093 0.77133
 C1830 C 0.37619 0.91467 0.79306
 C1831 C 0.39194 0.91356 0.74899
 C1832 C 0.39930 0.89948 0.72733
 C1833 C 0.39756 0.87273 0.72801
 C1834 C 0.38972 0.86010 0.75013
 H1835 H 0.37431 0.84062 0.79443
 H1836 H 0.37648 0.93531 0.79297
 H1837 H 0.39321 0.93417 0.74866
 H1838 H 0.38891 0.83947 0.75016
 H1839 H 0.36117 0.91279 0.83130
 H1840 H 0.40255 0.86147 0.71138
 C1841 C 0.36175 0.39778 1.29810
 C1842 C 0.36874 0.37201 1.30173
 C1843 C 0.38272 0.35966 1.28233
 C1844 C 0.38872 0.37238 1.25948
 C1845 C 0.38239 0.39842 1.25637
 C1846 C 0.36902 0.41098 1.27592
 C1847 C 0.38949 0.41132 1.23375
 C1848 C 0.40207 0.39818 1.21387
 C1849 C 0.40645 0.37178 1.21674
 C1850 C 0.40041 0.35920 1.23943
 H1851 H 0.38785 0.33971 1.28433
 H1852 H 0.36377 0.43088 1.27388
 H1853 H 0.38567 0.43154 1.23191
 H1854 H 0.40470 0.33904 1.24118
 H1855 H 0.35097 0.40795 1.31258
 H1856 H 0.41481 0.36066 1.20143
 C1857 C 0.85671 1.10817 0.69696
 C1858 C 0.86194 1.13424 0.69284
 C1859 C 0.87696 1.14730 0.71108
 C1860 C 0.88539 1.13500 0.73352
 C1861 C 0.88045 1.10878 0.73719
 C1862 C 0.86635 1.09548 0.71860
 C1863 C 0.88935 1.09646 0.75955
 C1864 C 0.90220 1.11028 0.77888
 C1865 C 0.90572 1.13672 0.77531
 C1866 C 0.89796 1.14877 0.75273
 H1867 H 0.88090 1.16744 0.70866
 H1868 H 0.86221 1.07540 0.72110
 H1869 H 0.88636 1.07615 0.76172
 H1870 H 0.90132 1.16903 0.75053
 H1871 H 0.84531 1.09741 0.68334
 H1872 H 0.91433 1.14839 0.79008
 C1873 C 0.91054 0.62597 0.18663
 C1874 C 0.88375 0.62507 0.18258
 C1875 C 0.86797 0.61364 0.20114
 C1876 C 0.87874 0.60399 0.22391
 C1877 C 0.90571 0.60508 0.22785
 C1878 C 0.92147 0.61583 0.20895
 C1879 C 0.91643 0.59582 0.25080
 C1880 C 0.90051 0.58600 0.27022
 C1881 C 0.87368 0.58515 0.26606
 C1882 C 0.86293 0.59385 0.24306
 H1883 H 0.84725 0.61311 0.19832
 H1884 H 0.94217 0.61683 0.21165
 H1885 H 0.93715 0.59633 0.25354
 H1886 H 0.84221 0.59307 0.24046
 H1887 H 0.92307 0.63463 0.17253
 H1888 H 0.86084 0.57820 0.28081
 C1889 C 0.40456 1.14318 0.20166
 C1890 C 0.37921 1.13531 0.19593
 C1891 C 0.36714 1.11799 0.21272
 C1892 C 0.37961 1.10930 0.23493
 C1893 C 0.40531 1.11644 0.24004
 C1894 C 0.41768 1.13336 0.22316
 C1895 C 0.41794 1.10678 0.26205
 C1896 C 0.40465 1.09110 0.27973
 C1897 C 0.37845 1.08567 0.27478
 C1898 C 0.36636 1.09405 0.25243
 H1899 H 0.34743 1.11200 0.20924
 H1900 H 0.43733 1.13934 0.22683
 H1901 H 0.43801 1.11146 0.26518
 H1902 H 0.34635 1.08904 0.24913
 H1903 H 0.41449 1.15651 0.18928
 H1904 H 0.36681 1.07516 0.28827
 C1905 C 0.37864 0.58862 0.69106
 C1906 C 0.38063 0.61507 0.68740
 C1907 C 0.39058 0.63025 0.70717
 C1908 C 0.39762 0.61933 0.73068
 C1909 C 0.39558 0.59270 0.73431
 C1910 C 0.38636 0.57746 0.71424
 C1911 C 0.40249 0.58188 0.75802
 C1912 C 0.41103 0.59744 0.77824
 C1913 C 0.41243 0.62396 0.77444
 C1914 C 0.40603 0.63476 0.75084
 H1915 H 0.39176 0.65074 0.70468
 H1916 H 0.38460 0.55703 0.71665
 H1917 H 0.40143 0.56142 0.76064
 H1918 H 0.40738 0.65524 0.74847
 H1919 H 0.37089 0.57660 0.67605
 H1920 H 0.41832 0.63648 0.78984
 C1921 C 1.09595 0.86441 0.69393
 C1922 C 1.12292 0.86616 0.69173
 C1923 C 1.13705 0.87837 0.71114
 C1924 C 1.12435 0.88805 0.73286
 C1925 C 1.09720 0.88611 0.73480
 C1926 C 1.08320 0.87445 0.71510
 C1927 C 1.08446 0.89576 0.75643
 C1928 C 1.09848 0.90718 0.77641
 C1929 C 1.12555 0.90857 0.77446
 C1930 C 1.13832 0.89926 0.75288
 H1931 H 1.15786 0.87959 0.70974
 H1932 H 1.06241 0.87280 0.71622
 H1933 H 1.06362 0.89470 0.75751
 H1934 H 1.15913 0.90069 0.75193
 H1935 H 1.08462 0.85518 0.67914
 H1936 H 1.13697 0.91675 0.78978
 C1937 C 1.15047 0.38554 0.20251
 C1938 C 1.13232 0.37153 0.18808
 C1939 C 1.10748 0.36796 0.19838
 C1940 C 1.10081 0.37856 0.22217
 C1941 C 1.11944 0.39185 0.23670
 C1942 C 1.14424 0.39515 0.22670
 C1943 C 1.11294 0.40169 0.26093
 C1944 C 1.08766 0.39926 0.27054
 C1945 C 1.06906 0.38700 0.25512
 C1946 C 1.07565 0.37641 0.23150
 H1947 H 1.09297 0.35767 0.18757
 H1948 H 1.15878 0.40544 0.23744
 H1949 H 1.12773 0.41085 0.27232
 H1950 H 1.06092 0.36677 0.22039
 H1951 H 1.16979 0.38874 0.19539
 H1952 H 1.04919 0.38558 0.26116
 C1953 C 0.62054 0.83815 0.22205
 C1954 C 0.63711 0.85482 0.20863
 C1955 C 0.64081 0.87954 0.21847
 C1956 C 0.62781 0.88749 0.24077
 C1957 C 0.61223 0.87018 0.25451
 C1958 C 0.60878 0.84553 0.24494
 C1959 C 0.60030 0.87778 0.27754
 C1960 C 0.60275 0.90298 0.28661
 C1961 C 0.61694 0.92040 0.27151
 C1962 C 0.62976 0.91264 0.24934
 H1963 H 0.65298 0.89294 0.20832
 H1964 H 0.59671 0.83199 0.25500
 H1965 H 0.58956 0.86385 0.28846
 H1966 H 0.64096 0.92646 0.23870
 H1967 H 0.61713 0.81895 0.21530
 H1968 H 0.61830 0.94027 0.27669
 C1969 C 0.60203 0.36359 0.70198
 C1970 C 0.62885 0.36581 0.69908
 C1971 C 0.64339 0.37776 0.71836
 C1972 C 0.63129 0.38771 0.74012
 C1973 C 0.60420 0.38619 0.74250
 C1974 C 0.58976 0.37391 0.72341
 C1975 C 0.59203 0.39708 0.76384
 C1976 C 0.60664 0.40897 0.78324
 C1977 C 0.63369 0.40952 0.78093
 C1978 C 0.64584 0.39927 0.75949
 H1979 H 0.66414 0.37932 0.71642
 H1980 H 0.56899 0.37240 0.72496
 H1981 H 0.57119 0.39660 0.76507
 H1982 H 0.66666 0.40027 0.75814
 H1983 H 0.59044 0.35453 0.68730
 H1984 H 0.64565 0.41769 0.79583
 C1985 C 1.30137 1.10459 1.14729
 C1986 C 1.30571 1.13022 1.14034
 C1987 C 1.28724 1.14273 1.12493
 C1988 C 1.26509 1.12994 1.11652
 C1989 C 1.26173 1.10387 1.12232
 C1990 C 1.27991 1.09142 1.13791
 C1991 C 1.24033 1.09071 1.11236
 C1992 C 1.22154 1.10360 1.09758
 C1993 C 1.22441 1.13007 1.09366
 C1994 C 1.24616 1.14292 1.10248
 H1995 H 1.28976 1.16261 1.11982
 H1996 H 1.27753 1.07151 1.14289
 H1997 H 1.23872 1.07044 1.11581
 H1998 H 1.24805 1.16310 1.09850
 H1999 H 1.31507 1.09431 1.15919
 H2000 H 1.20983 1.14115 1.08376
 C2001 C 1.30939 0.59266 0.62644
 C2002 C 1.31510 0.61855 0.62166
 C2003 C 1.29759 0.63302 0.60682
 C2004 C 1.27434 0.62214 0.59814
 C2005 C 1.26912 0.59617 0.60306
 C2006 C 1.28695 0.58155 0.61690
 C2007 C 1.24596 0.58525 0.59447
 C2008 C 1.22721 0.60013 0.58182
 C2009 C 1.23243 0.62618 0.57755
 C2010 C 1.25585 0.63694 0.58527
 H2011 H 1.30134 0.65300 0.60307
 H2012 H 1.28327 0.56161 0.62088
 H2013 H 1.24266 0.56512 0.59768
 H2014 H 1.25925 0.65699 0.58163
 H2015 H 1.32239 0.58070 0.63749
 H2016 H 1.21827 0.63850 0.56856
 C2017 C 0.77999 1.15676 0.61353
 C2018 C 0.79582 1.14079 0.62869
 C2019 C 0.78850 1.11518 0.63230
 C2020 C 0.76559 1.10594 0.62143
 C2021 C 0.74936 1.12260 0.60746
 C2022 C 0.75684 1.14786 0.60339
 C2023 C 0.72572 1.11389 0.59800
 C2024 C 0.71831 1.08832 0.60132
 C2025 C 0.73525 1.07157 0.61422
 C2026 C 0.75850 1.08038 0.62447
 H2027 H 0.80055 1.10236 0.64348
 H2028 H 0.74471 1.16081 0.59246
 H2029 H 0.71289 1.12734 0.58865
 H2030 H 0.77091 1.06719 0.63476
 H2031 H 0.78494 1.17653 0.61017
 H2032 H 0.73058 1.05162 0.61651
 C2033 C 0.80786 0.63479 1.09316
 C2034 C 0.81317 0.63251 1.11950
 C2035 C 0.79474 0.62126 1.13563
 C2036 C 0.77119 0.61252 1.12559
 C2037 C 0.76631 0.61432 1.09898
 C2038 C 0.78477 0.62550 1.08294
 C2039 C 0.74303 0.60503 1.08885
 C2040 C 0.72396 0.59470 1.10502
 C2041 C 0.72893 0.59363 1.13160
 C2042 C 0.75237 0.60215 1.14171
 H2043 H 0.79856 0.61967 1.15603
 H2044 H 0.78131 0.62717 1.06250
 H2045 H 0.73996 0.60571 1.06831
 H2046 H 0.75565 0.60091 1.16221
 H2047 H 0.82182 0.64330 1.08037
 H2048 H 0.71457 0.58652 1.14477
 C2049 C 1.28219 0.85119 0.89166
 C2050 C 1.29846 0.86744 0.87753
 C2051 C 1.29108 0.89306 0.87384
 C2052 C 1.26774 0.90208 0.88378
 C2053 C 1.25118 0.88516 0.89678
 C2054 C 1.25863 0.85986 0.90081
 C2055 C 1.22731 0.89368 0.90551
 C2056 C 1.21998 0.91933 0.90262
 C2057 C 1.23702 0.93631 0.89045
 C2058 C 1.26055 0.92768 0.88082
 H2059 H 1.30347 0.90606 0.86342
 H2060 H 1.24621 0.84674 0.91101
 H2061 H 1.21429 0.88004 0.91412
 H2062 H 1.27317 0.94104 0.87119
 H2063 H 1.28714 0.83139 0.89500
 H2064 H 1.23225 0.95629 0.88839
 C2065 C 1.29475 0.34513 0.38627
 C2066 C 1.30902 0.36182 0.37059
 C2067 C 1.30021 0.38706 0.36741
 C2068 C 1.27726 0.39520 0.37889
 C2069 C 1.26233 0.37781 0.39315
 C2070 C 1.27144 0.35293 0.39707
 C2071 C 1.23838 0.38544 0.40293
 C2072 C 1.22944 0.41062 0.39945
 C2073 C 1.24539 0.42811 0.38651
 C2074 C 1.26882 0.42039 0.37602
 H2075 H 1.31110 0.40050 0.35594
 H2076 H 1.26040 0.33942 0.40827
 H2077 H 1.22650 0.37145 0.41253
 H2078 H 1.28031 0.43414 0.36558
 H2079 H 1.30093 0.32563 0.38935
 H2080 H 1.23978 0.44786 0.38431
 C2081 C 0.80257 0.90318 0.37374
 C2082 C 0.80478 0.87649 0.37453
 C2083 C 0.78574 0.86220 0.38710
 C2084 C 0.76447 0.87430 0.39823
 C2085 C 0.76239 0.90114 0.39738
 C2086 C 0.78167 0.91542 0.38527
 C2087 C 0.74090 0.91319 0.40830
 C2088 C 0.72113 0.89870 0.41960
 C2089 C 0.72344 0.87197 0.42010
 C2090 C 0.74497 0.85992 0.40974
 H2091 H 0.78707 0.84158 0.38761
 H2092 H 0.78040 0.93602 0.38440
 H2093 H 0.73957 0.93379 0.40795
 H2094 H 0.74615 0.83931 0.41033
 H2095 H 0.81703 0.91462 0.36422
 H2096 H 0.70830 0.86022 0.42803
 C2097 C 0.80746 0.40647 0.86489
 C2098 C 0.81037 0.38001 0.86891
 C2099 C 0.79127 0.36691 0.88269
 C2100 C 0.76925 0.37969 0.89131
 C2101 C 0.76673 0.40625 0.88748
 C2102 C 0.78609 0.41950 0.87445
 C2103 C 0.74480 0.41904 0.89652
 C2104 C 0.72496 0.40544 0.90867
 C2105 C 0.72733 0.37880 0.91131
 C2106 C 0.74940 0.36615 0.90314
 H2107 H 0.79283 0.34651 0.88576
 H2108 H 0.78448 0.43985 0.87124
 H2109 H 0.74335 0.43953 0.89430
 H2110 H 0.75077 0.34569 0.90574
 H2111 H 0.82180 0.41728 0.85447
 H2112 H 0.71202 0.36755 0.91963
 C2113 C 0.72521 0.84324 1.13627
 C2114 C 0.70616 0.86059 1.14421
 C2115 C 0.70973 0.88673 1.13965
 C2116 C 0.73179 0.89524 1.12639
 C2117 C 0.75057 0.87744 1.11817
 C2118 C 0.74723 0.85155 1.12355
 C2119 C 0.77246 0.88575 1.10477
 C2120 C 0.77612 0.91174 1.09963
 C2121 C 0.75726 0.92930 1.10765
 C2122 C 0.73529 0.92115 1.12082
 H2123 H 0.69496 0.90017 1.14539
 H2124 H 0.76143 0.83765 1.11753
 H2125 H 0.78706 0.87211 1.09906
 H2126 H 0.72115 0.93512 1.12679
 H2127 H 0.72280 0.82300 1.13956
 H2128 H 0.75968 0.94946 1.10391
 C2129 C 0.71173 0.38868 0.65396
 C2130 C 0.69735 0.37355 0.63675
 C2131 C 0.70624 0.37096 0.61141
 C2132 C 0.72893 0.38317 0.60350
 C2133 C 0.74382 0.39708 0.62134
 C2134 C 0.73494 0.39985 0.64648
 C2135 C 0.76744 0.40778 0.61383
 C2136 C 0.77604 0.40559 0.58834
 C2137 C 0.75994 0.39324 0.57040
 C2138 C 0.73696 0.38174 0.57799
 H2139 H 0.69527 0.35993 0.59763
 H2140 H 0.74592 0.41069 0.66038
 H2141 H 0.77934 0.41710 0.62808
 H2142 H 0.72546 0.37176 0.56385
 H2143 H 0.70557 0.39123 0.67360
 H2144 H 0.76514 0.39215 0.55037
 C2145 C 0.19731 0.85525 0.60102
 C2146 C 0.19035 0.86246 0.62611
 C2147 C 0.20662 0.87940 0.63947
 C2148 C 0.22959 0.88827 0.62830
 C2149 C 0.23575 0.88163 0.60285
 C2150 C 0.21937 0.86518 0.58935
 C2151 C 0.25832 0.89126 0.59142
 C2152 C 0.27582 0.90640 0.60554
 C2153 C 0.26984 0.91159 0.63143
 C2154 C 0.24683 0.90321 0.64240
 H2155 H 0.20206 0.88489 0.65896
 H2156 H 0.22384 0.85963 0.56988
 H2157 H 0.26197 0.88693 0.57150
 H2158 H 0.24280 0.90796 0.66219
 H2159 H 0.18536 0.84235 0.59002
 H2160 H 0.28300 0.92189 0.64369
 C2161 C 0.19302 0.36445 1.08917
 C2162 C 0.18926 0.36923 1.11551
 C2163 C 0.20919 0.38086 1.12956
 C2164 C 0.23253 0.38706 1.11773
 C2165 C 0.23574 0.38293 1.09115
 C2166 C 0.21583 0.37164 1.07706
 C2167 C 0.25872 0.39036 1.07914
 C2168 C 0.27873 0.40137 1.09353
 C2169 C 0.27582 0.40381 1.12026
 C2170 C 0.25284 0.39712 1.13216
 H2171 H 0.20699 0.38431 1.14993
 H2172 H 0.21797 0.36816 1.05671
 H2173 H 0.26068 0.38824 1.05858
 H2174 H 0.25095 0.39985 1.15265
 H2175 H 0.17813 0.35554 1.07767
 H2176 H 0.29126 0.41130 1.13206
 C2177 C 0.69907 1.14638 0.90926
 C2178 C 0.68626 1.13042 0.89158
 C2179 C 0.69676 1.10621 0.88648
 C2180 C 0.72014 1.09867 0.89791
 C2181 C 0.73368 1.11578 0.91387
 C2182 C 0.72272 1.13933 0.91986
 C2183 C 0.75829 1.10941 0.92305
 C2184 C 0.76938 1.08563 0.91735
 C2185 C 0.75461 1.06788 0.90330
 C2186 C 0.73050 1.07450 0.89328
 H2187 H 0.68697 1.09332 0.87347
 H2188 H 0.73263 1.15252 0.93244
 H2189 H 0.76907 1.12354 0.93368
 H2190 H 0.72010 1.06081 0.88170
 H2191 H 0.69160 1.16506 0.91401
 H2192 H 0.76179 1.04889 0.89958
 C2193 C 0.71572 0.65601 0.38066
 C2194 C 0.69871 0.63841 0.36951
 C2195 C 0.70521 0.61244 0.36940
 C2196 C 0.72850 0.60407 0.38026
 C2197 C 0.74587 0.62196 0.39078
 C2198 C 0.73926 0.64788 0.39097
 C2199 C 0.76960 0.61366 0.40077
 C2200 C 0.77604 0.58758 0.40098
 C2201 C 0.75813 0.56993 0.39123
 C2202 C 0.73472 0.57810 0.38076
 H2203 H 0.69199 0.59872 0.36112
 H2204 H 0.75228 0.66186 0.39908
 H2205 H 0.78322 0.62763 0.40784
 H2206 H 0.72146 0.56410 0.37309
 H2207 H 0.71104 0.67613 0.38091
 H2208 H 0.76216 0.54969 0.39170
 C2209 C 0.21485 1.11013 0.34603
 C2210 C 0.20021 1.12412 0.36389
 C2211 C 0.20847 1.12472 0.38962
 C2212 C 0.23082 1.11165 0.39731
 C2213 C 0.24605 1.09893 0.37894
 C2214 C 0.23778 1.09814 0.35337
 C2215 C 0.26945 1.08753 0.38636
 C2216 C 0.27747 1.08795 0.41217
 C2217 C 0.26097 1.09894 0.43052
 C2218 C 0.23819 1.11108 0.42311
 H2219 H 0.19723 1.13481 0.40385
 H2220 H 0.24903 1.08823 0.33905
 H2221 H 0.28170 1.07920 0.37185
 H2222 H 0.22639 1.12011 0.43759
 H2223 H 0.20912 1.10911 0.32606
 H2224 H 0.26585 1.09862 0.45071
 C2225 C 0.21057 0.62682 0.84015
 C2226 C 0.19332 0.63526 0.85906
 C2227 C 0.19988 0.63201 0.88501
 C2228 C 0.22316 0.61993 0.89197
 C2229 C 0.24047 0.61169 0.87278
 C2230 C 0.23403 0.61541 0.84692
 C2231 C 0.26394 0.59997 0.87976
 C2232 C 0.27034 0.59628 0.90575
 C2233 C 0.25250 0.60383 0.92458
 C2234 C 0.22928 0.61564 0.91779
 H2235 H 0.18650 0.63805 0.89972
 H2236 H 0.24697 0.60922 0.83191
 H2237 H 0.27750 0.59441 0.86503
 H2238 H 0.21615 0.62149 0.93277
 H2239 H 0.20586 0.62904 0.82001
 H2240 H 0.25664 0.60080 0.94472
 C2241 C 1.11361 1.31186 1.08981
 C2242 C 1.11599 1.31390 1.11658
 C2243 C 1.11042 1.29277 1.13205
 C2244 C 1.10408 1.26934 1.12088
 C2245 C 1.10221 1.26723 1.09387
 C2246 C 1.10640 1.28880 1.07855
 C2247 C 1.09660 1.24353 1.08272
 C2248 C 1.09291 1.22197 1.09827
 C2249 C 1.09521 1.22430 1.12505
 C2250 C 1.10062 1.24776 1.13625
 H2251 H 1.11286 1.29406 1.15267
 H2252 H 1.10505 1.28761 1.05785
 H2253 H 1.09468 1.24192 1.06208
 H2254 H 1.10226 1.24896 1.15693
 H2255 H 1.11819 1.32792 1.07757
 H2256 H 1.09269 1.20787 1.13739
 C2257 C 1.11306 0.78021 0.64804
 C2258 C 1.12414 0.79685 0.63004
 C2259 C 1.12439 0.79004 0.60403
 C2260 C 1.11342 0.76687 0.59610
 C2261 C 1.10281 0.75008 0.61450
 C2262 C 1.10273 0.75695 0.64040
 C2263 C 1.09258 0.72662 0.60680
 C2264 C 1.09223 0.71972 0.58078
 C2265 C 1.10212 0.73693 0.56254
 C2266 C 1.11280 0.76016 0.57014
 H2267 H 1.13270 0.80288 0.59002
 H2268 H 1.09462 0.74436 0.65474
 H2269 H 1.08545 0.71353 0.62120
 H2270 H 1.12052 0.77288 0.55570
 H2271 H 1.11278 0.78502 0.66822
 H2272 H 1.10163 0.73246 0.54230
 C2273 C 0.63561 1.30379 0.59961
 C2274 C 0.63292 1.30677 0.62623
 C2275 C 0.62140 1.28721 0.64056
 C2276 C 0.61275 1.26493 0.62862
 C2277 C 0.61491 1.26221 0.60177
 C2278 C 0.62640 1.28181 0.58742
 C2279 C 0.60554 1.24000 0.58985
 C2280 C 0.59437 1.22035 0.60458
 C2281 C 0.59336 1.22312 0.63141
 C2282 C 0.60217 1.24522 0.64324
 H2283 H 0.61966 1.28909 0.66118
 H2284 H 0.62840 1.28007 0.56683
 H2285 H 0.60653 1.23824 0.56919
 H2286 H 0.60079 1.24683 0.66390
 H2287 H 0.64456 1.31858 0.58821
 H2288 H 0.58579 1.20807 0.64344
 C2289 C 0.64375 0.79394 1.11051
 C2290 C 0.64021 0.79561 1.13717
 C2291 C 0.62695 0.77614 1.15001
 C2292 C 0.61758 0.75507 1.13639
 C2293 C 0.62092 0.75375 1.10952
 C2294 C 0.63400 0.77331 1.09677
 C2295 C 0.61110 0.73293 1.09583
 C2296 C 0.59821 0.71318 1.10867
 C2297 C 0.59566 0.71440 1.13552
 C2298 C 0.60505 0.73521 1.14921
 H2299 H 0.62438 0.77716 1.17060
 H2300 H 0.63681 0.77260 1.07621
 H2301 H 0.61308 0.73236 1.07516
 H2302 H 0.60260 0.73573 1.16982
 H2303 H 0.65384 0.80879 1.10020
 H2304 H 0.58643 0.69914 1.14604
 C2305 C 0.84221 1.28582 0.86817
 C2306 C 0.86214 1.30341 0.86378
 C2307 C 0.88715 1.29759 0.87238
 C2308 C 0.89211 1.27468 0.88570
 C2309 C 0.87201 1.25691 0.88975
 C2310 C 0.84715 1.26264 0.88067
 C2311 C 0.87720 1.23370 0.90259
 C2312 C 0.90229 1.22809 0.91134
 C2313 C 0.92177 1.24644 0.90803
 C2314 C 0.91679 1.26940 0.89532
 H2315 H 0.90246 1.31137 0.86972
 H2316 H 0.83143 1.24941 0.88363
 H2317 H 0.86207 1.21965 0.90482
 H2318 H 0.93237 1.28287 0.89271
 H2319 H 0.82269 1.29019 0.86210
 H2320 H 0.94122 1.24262 0.91469
 C2321 C 0.84027 0.78433 0.37407
 C2322 C 0.85913 0.80076 0.36406
 C2323 C 0.88505 0.79294 0.36423
 C2324 C 0.89211 0.76927 0.37491
 C2325 C 0.87296 0.75281 0.38479
 C2326 C 0.84706 0.76048 0.38406
 C2327 C 0.88004 0.72904 0.39529
 C2328 C 0.90611 0.72154 0.39627
 C2329 C 0.92497 0.73849 0.38700
 C2330 C 0.91805 0.76196 0.37628
 H2331 H 0.89977 0.80565 0.35695
 H2332 H 0.83210 0.74821 0.39156
 H2333 H 0.86524 0.71622 0.40218
 H2334 H 0.93304 0.77443 0.36914
 H2335 H 0.82018 0.79001 0.37421
 H2336 H 0.94524 0.73359 0.38801
 C2337 C 0.40138 1.29367 0.35308
 C2338 C 0.37482 1.29718 0.35702
 C2339 C 0.36074 1.27806 0.36959
 C2340 C 0.37311 1.25595 0.37862
 C2341 C 0.40001 1.25304 0.37553
 C2342 C 0.41392 1.27190 0.36245
 C2343 C 0.41257 1.23154 0.38590
 C2344 C 0.39849 1.21261 0.39896
 C2345 C 0.37152 1.21532 0.40076
 C2346 C 0.35902 1.23684 0.39097
 H2347 H 0.34019 1.28046 0.37250
 H2348 H 0.43453 1.26995 0.35971
 H2349 H 0.43333 1.22995 0.38432
 H2350 H 0.33832 1.23856 0.39313
 H2351 H 0.41264 1.30818 0.34350
 H2352 H 0.35989 1.20076 0.40978
 C2353 C 0.34079 0.78025 0.87720
 C2354 C 0.35927 0.79849 0.87016
 C2355 C 0.38557 0.79289 0.87314
 C2356 C 0.39331 0.76956 0.88397
 C2357 C 0.37454 0.75138 0.89112
 C2358 C 0.34835 0.75678 0.88733
 C2359 C 0.38220 0.72816 0.90210
 C2360 C 0.40843 0.72286 0.90632
 C2361 C 0.42694 0.74121 0.89945
 C2362 C 0.41946 0.76429 0.88828
 H2363 H 0.39988 0.80706 0.86809
 H2364 H 0.33371 0.74308 0.89267
 H2365 H 0.36777 0.71406 0.90696
 H2366 H 0.43412 0.77806 0.88315
 H2367 H 0.32039 0.78427 0.87504
 H2368 H 0.44726 0.73770 0.90278
 C2369 C 1.09268 0.69647 0.87095
 C2370 C 1.11973 0.69510 0.86952
 C2371 C 1.13445 0.71634 0.87665
 C2372 C 1.12225 0.73906 0.88416
 C2373 C 1.09501 0.74033 0.88538
 C2374 C 1.08044 0.71877 0.87908
 C2375 C 1.08284 0.76316 0.89272
 C2376 C 1.09760 0.78475 0.89884
 C2377 C 1.12466 0.78332 0.89698
 C2378 C 1.13685 0.76072 0.88985
 H2379 H 1.15528 0.71562 0.87510
 H2380 H 1.05957 0.71931 0.87988
 H2381 H 1.06201 0.76398 0.89419
 H2382 H 1.15770 0.76022 0.88874
 H2383 H 1.08097 0.68034 0.86534
 H2384 H 1.13648 0.79978 0.90119
 C2385 C 1.13973 0.19362 0.40336
 C2386 C 1.13634 0.19090 0.37677
 C2387 C 1.12513 0.21089 0.36268
 C2388 C 1.11748 0.23337 0.37479
 C2389 C 1.12035 0.23591 0.40163
 C2390 C 1.13151 0.21586 0.41576
 C2391 C 1.11189 0.25837 0.41370
 C2392 C 1.10081 0.27824 0.39911
 C2393 C 1.09916 0.27567 0.37231
 C2394 C 1.10718 0.25343 0.36031
 H2395 H 1.12294 0.20925 0.34207
 H2396 H 1.13403 0.21745 0.43633
 H2397 H 1.11336 0.26014 0.43435
 H2398 H 1.10528 0.25190 0.33967
 H2399 H 1.14855 0.17849 0.41454
 H2400 H 1.09148 0.29093 0.36051
 C2401 C 0.59878 0.70093 0.36510
 C2402 C 0.62556 0.69775 0.36780
 C2403 C 0.63980 0.71607 0.38142
 C2404 C 0.62753 0.73723 0.39229
 C2405 C 0.60053 0.74002 0.39000
 C2406 C 0.58633 0.72177 0.37631
 C2407 C 0.58827 0.76105 0.40131
 C2408 C 0.60273 0.77976 0.41434
 C2409 C 0.62969 0.77684 0.41598
 C2410 C 0.64191 0.75570 0.40531
 H2411 H 0.66053 0.71401 0.38338
 H2412 H 0.56561 0.72365 0.37423
 H2413 H 0.56748 0.76271 0.40004
 H2414 H 0.66268 0.75397 0.40698
 H2415 H 0.58741 0.68704 0.35474
 H2416 H 0.64155 0.79114 0.42513
 C2417 C 0.61897 0.19795 0.90920
 C2418 C 0.62236 0.19588 0.88255
 C2419 C 0.61808 0.21727 0.86690
 C2420 C 0.61154 0.24083 0.87801
 C2421 C 0.60868 0.24273 0.90495
 C2422 C 0.61202 0.22106 0.92028
 C2423 C 0.60259 0.26626 0.91616
 C2424 C 0.59904 0.28796 0.90081
 C2425 C 0.60211 0.28597 0.87409
 C2426 C 0.60835 0.26265 0.86280
 H2427 H 0.62108 0.21588 0.84639
 H2428 H 0.60981 0.22211 0.94090
 H2429 H 0.59993 0.26757 0.93672
 H2430 H 0.61058 0.26169 0.84218
 H2431 H 0.62228 0.18165 0.92158
 H2432 H 0.59950 0.30253 0.86190
 C2433 C 0.91230 0.69617 1.11916
 C2434 C 0.88536 0.69336 1.11871
 C2435 C 0.86988 0.71386 1.11070
 C2436 C 0.88111 0.73718 1.10387
 C2437 C 0.90824 0.73985 1.10417
 C2438 C 0.92368 0.71912 1.11163
 C2439 C 0.91942 0.76322 1.09716
 C2440 C 0.90376 0.78407 1.09019
 C2441 C 0.87676 0.78125 1.09072
 C2442 C 0.86557 0.75801 1.09724
 H2443 H 0.84906 0.71200 1.11077
 H2444 H 0.94450 0.72079 1.11207
 H2445 H 0.94023 0.76504 1.09676
 H2446 H 0.84474 0.75641 1.09728
 H2447 H 0.92455 0.68059 1.12541
 H2448 H 0.86417 0.79711 1.08612
 C2449 C 0.83943 0.22777 0.62830
 C2450 C 0.85688 0.20939 0.63759
 C2451 C 0.88348 0.21394 0.63589
 C2452 C 0.89257 0.23620 0.62398
 C2453 C 0.87483 0.25448 0.61448
 C2454 C 0.84832 0.25027 0.61712
 C2455 C 0.88386 0.27651 0.60219
 C2456 C 0.91045 0.28045 0.59890
 C2457 C 0.92790 0.26202 0.60826
 C2458 C 0.91906 0.24019 0.62079
 H2459 H 0.89703 0.19964 0.64265
 H2460 H 0.83445 0.26406 0.60997
 H2461 H 0.87020 0.29070 0.59544
 H2462 H 0.93294 0.22631 0.62775
 H2463 H 0.81884 0.22456 0.62940
 H2464 H 0.94846 0.26441 0.60572
 C2465 C 0.40542 0.69155 0.63056
 C2466 C 0.37867 0.68764 0.62829
 C2467 C 0.36302 0.70758 0.61911
 C2468 C 0.37397 0.73131 0.61276
 C2469 C 0.40093 0.73490 0.61493
 C2470 C 0.41647 0.71482 0.62374
 C2471 C 0.41195 0.75845 0.60822
 C2472 C 0.39636 0.77870 0.59954
 C2473 C 0.36946 0.77506 0.59818
 C2474 C 0.35842 0.75161 0.60453
 H2475 H 0.34235 0.70486 0.61757
 H2476 H 0.43715 0.71718 0.62557
 H2477 H 0.43269 0.76080 0.60924
 H2478 H 0.33770 0.74940 0.60305
 H2479 H 0.41790 0.67646 0.63754
 H2480 H 0.35683 0.79042 0.59218
 C2481 C 0.34593 0.21665 1.11993
 C2482 C 0.36527 0.20040 1.12967
 C2483 C 0.39126 0.20677 1.12581
 C2484 C 0.39783 0.22906 1.11231
 C2485 C 0.37821 0.24553 1.10308
 C2486 C 0.35232 0.23909 1.10697
 C2487 C 0.38480 0.26837 1.09055
 C2488 C 0.41082 0.27500 1.08710
 C2489 C 0.43010 0.25787 1.09539
 C2490 C 0.42369 0.23523 1.10796
 H2491 H 0.40631 0.19420 1.13293
 H2492 H 0.33700 0.25139 1.10000
 H2493 H 0.36973 0.28141 1.08442
 H2494 H 0.43900 0.22271 1.11455
 H2495 H 0.32575 0.21215 1.12263
 H2496 H 0.45029 0.26224 1.09255
 C2497 C 1.15567 1.12060 0.71447
 C2498 C 1.13857 1.13431 0.69865
 C2499 C 1.11267 1.13695 0.70604
 C2500 C 1.10396 1.12634 0.72908
 C2501 C 1.12144 1.11324 0.74527
 C2502 C 1.14722 1.11033 0.73772
 C2503 C 1.11287 1.10339 0.76876
 C2504 C 1.08685 1.10589 0.77609
 C2505 C 1.06957 1.11844 0.75941
 C2506 C 1.07808 1.12874 0.73625
 H2507 H 1.09924 1.14725 0.69381
 H2508 H 1.16086 1.10021 0.74984
 H2509 H 1.12661 1.09417 0.78146
 H2510 H 1.06438 1.13850 0.72391
 H2511 H 1.17571 1.11838 0.70916
 H2512 H 1.04934 1.12017 0.76413
 C2513 C 1.08779 0.63111 0.18736
 C2514 C 1.11421 0.62644 0.18303
 C2515 C 1.12830 0.61246 0.20140
 C2516 C 1.11665 0.60432 0.22408
 C2517 C 1.09010 0.60879 0.22811
 C2518 C 1.07577 0.62198 0.20948
 C2519 C 1.07847 0.60025 0.25081
 C2520 C 1.09331 0.58803 0.26987
 C2521 C 1.11997 0.58476 0.26591
 C2522 C 1.13140 0.59238 0.24310
 H2523 H 1.14872 0.60887 0.19875
 H2524 H 1.05541 0.62569 0.21225
 H2525 H 1.05794 0.60296 0.25349
 H2526 H 1.15190 0.58931 0.24053
 H2527 H 1.07627 0.64172 0.17362
 H2528 H 1.13221 0.57639 0.28056
 C2529 C 0.60316 1.14057 0.20754
 C2530 C 0.62907 1.13467 0.20163
 C2531 C 0.64277 1.11821 0.21825
 C2532 C 0.63104 1.10887 0.24078
 C2533 C 0.60491 1.11461 0.24585
 C2534 C 0.59114 1.13025 0.22898
 C2535 C 0.59295 1.10502 0.26794
 C2536 C 0.60698 1.09079 0.28619
 C2537 C 0.63334 1.08595 0.28131
 C2538 C 0.64504 1.09443 0.25869
 H2539 H 0.66277 1.11364 0.21437
 H2540 H 0.57113 1.13498 0.23262
 H2541 H 0.57262 1.10872 0.27072
 H2542 H 0.66523 1.09018 0.25550
 H2543 H 0.59170 1.15287 0.19525
 H2544 H 0.64526 1.07590 0.29507
 C2545 C 0.63369 0.59739 0.69786
 C2546 C 0.63283 0.62405 0.69531
 C2547 C 0.62227 0.63877 0.71504
 C2548 C 0.61368 0.62704 0.73764
 C2549 C 0.61487 0.60020 0.74016
 C2550 C 0.62452 0.58553 0.71997
 C2551 C 0.60672 0.58850 0.76293
 C2552 C 0.59762 0.60330 0.78337
 C2553 C 0.59683 0.63000 0.78074
 C2554 C 0.60462 0.64174 0.75805
 H2555 H 0.62194 0.65937 0.71334
 H2556 H 0.62556 0.56496 0.72153
 H2557 H 0.60723 0.56792 0.76466
 H2558 H 0.60382 0.66232 0.75657
 H2559 H 0.64182 0.58573 0.68281
 H2560 H 0.59033 0.64188 0.79637
 C2561 C 0.90033 0.86693 0.69652
 C2562 C 0.87337 0.86853 0.69412
 C2563 C 0.85918 0.88176 0.71267
 C2564 C 0.87171 0.89247 0.73394
 C2565 C 0.89884 0.89066 0.73626
 C2566 C 0.91300 0.87814 0.71726
 C2567 C 0.91132 0.90097 0.75776
 C2568 C 0.89701 0.91263 0.77733
 C2569 C 0.86998 0.91411 0.77485
 C2570 C 0.85750 0.90435 0.75328
 H2571 H 0.83835 0.88281 0.71111
 H2572 H 0.93379 0.87655 0.71871
 H2573 H 0.93215 0.89989 0.75924
 H2574 H 0.83668 0.90569 0.75195
 H2575 H 0.91164 0.85686 0.68236
 H2576 H 0.85835 0.92244 0.78984
 C2577 C 0.89477 0.35096 0.19964
 C2578 C 0.86837 0.35679 0.19636
 C2579 C 0.85598 0.37154 0.21511
 C2580 C 0.86932 0.37939 0.23711
 C2581 C 0.89591 0.37398 0.23989
 C2582 C 0.90849 0.35991 0.22091
 C2583 C 0.90936 0.38263 0.26166
 C2584 C 0.89630 0.39592 0.28109
 C2585 C 0.86947 0.39973 0.27860
 C2586 C 0.85627 0.39204 0.25668
 H2587 H 0.83559 0.37590 0.21332
 H2588 H 0.92882 0.35542 0.22272
 H2589 H 0.92994 0.37935 0.26321
 H2590 H 0.83575 0.39576 0.25519
 H2591 H 0.90504 0.33971 0.18560
 H2592 H 0.85849 0.40880 0.29364
 C2593 C 0.37221 0.90410 0.19844
 C2594 C 0.37314 0.87748 0.19561
 C2595 C 0.38272 0.86242 0.21581
 C2596 C 0.39105 0.87377 0.23868
 C2597 C 0.39033 0.90057 0.24125
 C2598 C 0.38092 0.91556 0.22099
 C2599 C 0.39906 0.91191 0.26401
 C2600 C 0.40824 0.89678 0.28441
 C2601 C 0.40825 0.87010 0.28178
 C2602 C 0.39991 0.85872 0.25910
 H2603 H 0.38324 0.84186 0.21394
 H2604 H 0.38018 0.93613 0.22262
 H2605 H 0.39909 0.93249 0.26567
 H2606 H 0.40031 0.83813 0.25757
 H2607 H 0.36494 0.91611 0.18310
 H2608 H 0.41461 0.85792 0.29737
 C2609 C 0.36107 0.40368 0.69669
 C2610 C 0.36905 0.37832 0.69251
 C2611 C 0.38526 0.36664 0.71082
 C2612 C 0.39249 0.37953 0.73318
 C2613 C 0.38498 0.40513 0.73688
 C2614 C 0.36940 0.41710 0.71837
 C2615 C 0.39298 0.41813 0.75913
 C2616 C 0.40759 0.40545 0.77816
 C2617 C 0.41348 0.37945 0.77463
 C2618 C 0.40656 0.36685 0.75223
 H2619 H 0.39133 0.34701 0.70841
 H2620 H 0.36324 0.43667 0.72088
 H2621 H 0.38803 0.43805 0.76140
 H2622 H 0.41186 0.34699 0.75001
 H2623 H 0.34861 0.41336 0.68305
 H2624 H 0.42344 0.36854 0.78928
 C2625 C 1.10076 0.86563 1.30224
 C2626 C 1.12734 0.86940 1.30688
 C2627 C 1.14184 0.88294 1.28867
 C2628 C 1.13040 0.89049 1.26530
 C2629 C 1.10377 0.88640 1.26097
 C2630 C 1.08904 0.87452 1.27986
 C2631 C 1.09234 0.89375 1.23762
 C2632 C 1.10734 0.90434 1.21796
 C2633 C 1.13408 0.90737 1.22218
 C2634 C 1.14536 0.90099 1.24570
 H2635 H 1.16235 0.88572 1.29163
 H2636 H 1.06861 0.87124 1.27695
 H2637 H 1.07176 0.89135 1.23490
 H2638 H 1.16590 0.90378 1.24835
 H2639 H 1.08884 0.85563 1.31598
 H2640 H 1.14648 0.91464 1.20723
 C2641 C 1.13358 0.33865 0.76758
 C2642 C 1.14257 0.35562 0.78636
 C2643 C 1.14116 0.38196 0.78185
 C2644 C 1.12983 0.39125 0.75916
 C2645 C 1.12062 0.37397 0.74050
 C2646 C 1.12295 0.34772 0.74473
 C2647 C 1.10894 0.38315 0.71803
 C2648 C 1.10596 0.40946 0.71397
 C2649 C 1.11505 0.42651 0.73270
 C2650 C 1.12698 0.41750 0.75504
 H2651 H 1.14776 0.39513 0.79644
 H2652 H 1.11603 0.33422 0.73062
 H2653 H 1.10242 0.36981 0.70357
 H2654 H 1.13374 0.43104 0.76917
 H2655 H 1.13454 0.31825 0.77073
 H2656 H 1.11278 0.44687 0.73014
 C2657 C 0.60071 0.86007 0.81198
 C2658 C 0.62769 0.86267 0.81270
 C2659 C 0.64028 0.87420 0.79196
 C2660 C 0.62621 0.88265 0.77054
 C2661 C 0.59903 0.88024 0.77002
 C2662 C 0.58647 0.86902 0.79094
 C2663 C 0.58498 0.88916 0.74863
 C2664 C 0.59785 0.90036 0.72779
 C2665 C 0.62496 0.90178 0.72829
 C2666 C 0.63896 0.89321 0.74948
 H2667 H 0.66112 0.87589 0.79212
 H2668 H 0.56569 0.86692 0.79092
 H2669 H 0.56412 0.88793 0.74847
 H2670 H 0.65979 0.89486 0.74940
 H2671 H 0.59061 0.85113 0.82774
 H2672 H 0.63543 0.90971 0.71223
 C2673 C 0.64255 0.39507 1.29926
 C2674 C 0.63612 0.36924 1.30318
 C2675 C 0.62098 0.35690 1.28447
 C2676 C 0.61260 0.36995 1.26241
 C2677 C 0.61810 0.39610 1.25936
 C2678 C 0.63319 0.40846 1.27789
 C2679 C 0.60847 0.40940 1.23783
 C2680 C 0.59432 0.39659 1.21860
 C2681 C 0.59054 0.37009 1.22138
 C2682 C 0.59903 0.35710 1.24321
 H2683 H 0.61619 0.33691 1.28665
 H2684 H 0.63790 0.42846 1.27579
 H2685 H 0.61178 0.42970 1.23638
 H2686 H 0.59524 0.33687 1.24489
 H2687 H 0.65416 0.40528 1.31314
 H2688 H 0.58112 0.35903 1.20662
 C2689 C 0.84233 1.11272 1.28401
 C2690 C 0.85862 1.12839 1.29880
 C2691 C 0.88473 1.13062 1.29186
 C2692 C 0.89443 1.11723 1.27082
 C2693 C 0.87764 1.10254 1.25549
 C2694 C 0.85163 1.10038 1.26226
 C2695 C 0.88708 1.09039 1.23357
 C2696 C 0.91342 1.09181 1.22726
 C2697 C 0.93018 1.10520 1.24371
 C2698 C 0.92071 1.11815 1.26498
 H2699 H 0.89780 1.14209 1.30326
 H2700 H 0.83852 1.08898 1.25085
 H2701 H 0.87368 1.08048 1.22116
 H2702 H 0.93398 1.12884 1.27690
 H2703 H 0.82215 1.11051 1.28877
 H2704 H 0.95069 1.10594 1.24008
 C2705 C 0.87697 0.65910 0.77738
 C2706 C 0.86879 0.64115 0.79568
 C2707 C 0.87117 0.61506 0.79020
 C2708 C 0.88238 0.60707 0.76698
 C2709 C 0.89055 0.62536 0.74875
 C2710 C 0.88748 0.65132 0.75407
 C2711 C 0.90174 0.61744 0.72556
 C2712 C 0.90510 0.59138 0.72028
 C2713 C 0.89735 0.57341 0.73883
 C2714 C 0.88601 0.58114 0.76182
 H2715 H 0.86528 0.60110 0.80435
 H2716 H 0.89360 0.66563 0.74039
 H2717 H 0.90733 0.63155 0.71144
 H2718 H 0.88016 0.56681 0.77561
 H2719 H 0.87537 0.67931 0.78122
 H2720 H 0.90006 0.55322 0.73557
 C2721 C 0.34337 1.11798 0.79561
 C2722 C 0.36142 1.13265 0.80955
 C2723 C 0.38677 1.13449 0.80018
 C2724 C 0.39404 1.12129 0.77787
 C2725 C 0.37547 1.10744 0.76372
 C2726 C 0.35018 1.10602 0.77275
 C2727 C 0.38247 1.09529 0.74074
 C2728 C 0.40810 1.09609 0.73204
 C2729 C 0.42670 1.10850 0.74740
 C2730 C 0.41968 1.12135 0.76971
 H2731 H 0.40114 1.14519 0.81076
 H2732 H 0.33568 1.09536 0.76231
 H2733 H 0.36779 1.08587 0.72940
 H2734 H 0.43437 1.13125 0.78062
 H2735 H 0.32363 1.11610 0.80203
 H2736 H 0.44683 1.10861 0.74205
 C2737 C 0.39752 0.64582 1.29295
 C2738 C 0.37263 0.63766 1.29992
 C2739 C 0.35997 0.61969 1.28435
 C2740 C 0.37149 0.61080 1.26185
 C2741 C 0.39677 0.61842 1.25555
 C2742 C 0.40970 0.63580 1.27136
 C2743 C 0.40849 0.60892 1.23333
 C2744 C 0.39468 0.59313 1.21628
 C2745 C 0.36898 0.58680 1.22239
 C2746 C 0.35780 0.59498 1.24517
 H2747 H 0.34060 0.61349 1.28897
 H2748 H 0.42903 0.64208 1.26672
 H2749 H 0.42833 0.61395 1.22951
 H2750 H 0.33814 0.58947 1.24940
 H2751 H 0.40789 0.65957 1.30449
 H2752 H 0.35707 0.57581 1.20949
 C2753 C 1.11530 1.28004 0.83902
 C2754 C 1.13172 1.29470 0.85471
 C2755 C 1.13396 1.28844 0.88090
 C2756 C 1.11997 1.26808 0.89121
 C2757 C 1.10449 1.25291 0.87502
 C2758 C 1.10221 1.25908 0.84899
 C2759 C 1.09174 1.23165 0.88503
 C2760 C 1.09351 1.22572 0.91131
 C2761 C 1.10780 1.24191 0.92749
 C2762 C 1.12120 1.26265 0.91748
 H2763 H 1.14605 1.29974 0.89349
 H2764 H 1.09022 1.24777 0.83634
 H2765 H 1.08118 1.21934 0.87211
 H2766 H 1.13256 1.27441 0.93028
 H2767 H 1.11302 1.28427 0.81880
 H2768 H 1.10892 1.23839 0.94792
 C2769 C 1.11907 0.78142 0.34372
 C2770 C 1.12699 0.79794 0.36334
 C2771 C 1.12193 0.79177 0.38895
 C2772 C 1.10870 0.76922 0.39489
 C2773 C 1.10121 0.75243 0.37500
 C2774 C 1.10652 0.75871 0.34949
 C2775 C 1.08899 0.72940 0.38094
 C2776 C 1.08419 0.72282 0.40654
 C2777 C 1.09059 0.74015 0.42609
 C2778 C 1.10283 0.76310 0.42034
 H2779 H 1.12767 0.80476 0.40405
 H2780 H 1.10088 0.74614 0.33402
 H2781 H 1.08437 0.71609 0.36576
 H2782 H 1.10808 0.77584 0.43580
 H2783 H 1.12275 0.78610 0.32382
 H2784 H 1.08674 0.73558 0.44597
 C2785 C 0.61341 1.28392 0.34429
 C2786 C 0.62858 1.29824 0.36146
 C2787 C 0.63130 1.28947 0.38690
 C2788 C 0.61913 1.26709 0.39506
 C2789 C 0.60514 1.25218 0.37739
 C2790 C 0.60232 1.26083 0.35203
 C2791 C 0.59428 1.22894 0.38540
 C2792 C 0.59621 1.22095 0.41125
 C2793 C 0.60879 1.23711 0.42884
 C2794 C 0.62058 1.25955 0.42076
 H2795 H 0.64229 1.30042 0.40074
 H2796 H 0.59138 1.24984 0.33822
 H2797 H 0.58485 1.21704 0.37132
 H2798 H 0.63065 1.27116 0.43472
 H2799 H 0.61078 1.29007 0.32461
 H2800 H 0.60966 1.23256 0.44906
 C2801 C 0.65809 0.77864 0.88773
 C2802 C 0.63990 0.79601 0.87787
 C2803 C 0.61349 0.79098 0.88057
 C2804 C 0.60532 0.76867 0.89289
 C2805 C 0.62381 0.75103 0.90219
 C2806 C 0.65012 0.75624 0.89964
 C2807 C 0.61573 0.72823 0.91345
 C2808 C 0.58936 0.72276 0.91576
 C2809 C 0.57110 0.74081 0.90729
 C2810 C 0.57901 0.76355 0.89587
 H2811 H 0.59936 0.80445 0.87326
 H2812 H 0.66452 0.74295 0.90672
 H2813 H 0.63001 0.71433 0.91953
 H2814 H 0.56458 0.77696 0.88911
 H2815 H 0.67857 0.78215 0.88581
 H2816 H 0.55065 0.73719 0.90924
 C2817 C 0.84232 1.27600 1.11879
 C2818 C 0.85979 1.29324 1.12986
 C2819 C 0.88636 1.28823 1.12880
 C2820 C 0.89538 1.26596 1.11714
 C2821 C 0.87756 1.24840 1.10678
 C2822 C 0.85113 1.25368 1.10748
 C2823 C 0.88638 1.22560 1.09625
 C2824 C 0.91287 1.22013 1.09545
 C2825 C 0.93054 1.23803 1.10510
 C2826 C 0.92185 1.26073 1.11597
 H2827 H 0.89996 1.30157 1.13710
 H2828 H 0.83726 1.24043 1.09951
 H2829 H 0.87247 1.21180 1.08939
 H2830 H 0.93580 1.27408 1.12362
 H2831 H 0.82173 1.27945 1.11946
 H2832 H 0.95109 1.23443 1.10434
 C2833 C 0.88107 0.77882 0.65411
 C2834 C 0.86966 0.79567 0.63643
 C2835 C 0.86977 0.78973 0.61024
 C2836 C 0.88153 0.76721 0.60172
 C2837 C 0.89244 0.75004 0.61971
 C2838 C 0.89208 0.75601 0.64587
 C2839 C 0.90348 0.72716 0.61129
 C2840 C 0.90439 0.72136 0.58499
 C2841 C 0.89429 0.73909 0.56724
 C2842 C 0.88274 0.76163 0.57553
 H2843 H 0.86129 0.80290 0.59652
 H2844 H 0.90046 0.74315 0.65991
 H2845 H 0.91082 0.71367 0.62531
 H2846 H 0.87483 0.77474 0.56144
 H2847 H 0.88114 0.78318 0.67440
 H2848 H 0.89526 0.73554 0.54684
 C2849 C 0.39822 1.29766 0.64766
 C2850 C 0.37305 1.30370 0.63931
 C2851 C 0.36009 1.28640 0.62317
 C2852 C 0.37207 1.26384 0.61527
 C2853 C 0.39779 1.25872 0.62255
 C2854 C 0.41064 1.27565 0.63894
 C2855 C 0.41021 1.23680 0.61328
 C2856 C 0.39684 1.21919 0.59775
 C2857 C 0.37068 1.22403 0.59198
 C2858 C 0.35863 1.24629 0.60019
 H2859 H 0.34048 1.29024 0.61693
 H2860 H 0.43029 1.27189 0.64503
 H2861 H 0.43035 1.23382 0.61796
 H2862 H 0.33866 1.24965 0.59494
 H2863 H 0.40880 1.31041 0.66014
 H2864 H 0.35921 1.21057 0.58123
 C2865 C 0.38731 0.79182 1.15302
 C2866 C 0.37274 0.80674 1.13564
 C2867 C 0.36864 0.79728 1.11067
 C2868 C 0.37935 0.77384 1.10313
 C2869 C 0.39320 0.75883 1.12103
 C2870 C 0.39698 0.76799 1.14595
 C2871 C 0.40314 0.73497 1.11371
 C2872 C 0.40032 0.72618 1.08832
 C2873 C 0.38750 0.74205 1.07045
 C2874 C 0.37677 0.76532 1.07786
 H2875 H 0.35790 0.80849 1.09675
 H2876 H 0.40771 0.75686 1.15992
 H2877 H 0.41268 0.72322 1.12798
 H2878 H 0.36670 0.77679 1.06369
 H2879 H 0.39090 0.79827 1.17242
 H2880 H 0.38574 0.73664 1.05053
 C2881 C 0.90424 0.70642 0.86175
 C2882 C 0.87771 0.70252 0.86523
 C2883 C 0.86307 0.72093 0.87811
 C2884 C 0.87469 0.74330 0.88703
 C2885 C 0.90150 0.74694 0.88389
 C2886 C 0.91614 0.72831 0.87133
 C2887 C 0.91314 0.76924 0.89314
 C2888 C 0.89820 0.78834 0.90485
 C2889 C 0.87140 0.78466 0.90713
 C2890 C 0.85984 0.76226 0.89863
 H2891 H 0.84249 0.71819 0.88047
 H2892 H 0.93668 0.73081 0.86861
 H2893 H 0.93381 0.77157 0.89136
 H2894 H 0.83921 0.75994 0.90082
 H2895 H 0.91580 0.69240 0.85181
 H2896 H 0.85916 0.79926 0.91526
 C2897 C 0.88605 0.20606 0.34542
 C2898 C 0.86805 0.19387 0.36159
 C2899 C 0.86407 0.20390 0.38628
 C2900 C 0.87783 0.22556 0.39451
 C2901 C 0.89450 0.23836 0.37744
 C2902 C 0.89859 0.22830 0.35301
 C2903 C 0.90669 0.26109 0.38494
 C2904 C 0.90352 0.27080 0.40990
 C2905 C 0.88852 0.25648 0.42733
 C2906 C 0.87535 0.23459 0.41957
 H2907 H 0.85081 0.19462 0.39931
 H2908 H 0.91157 0.23761 0.33973
 H2909 H 0.91802 0.27139 0.37098
 H2910 H 0.86335 0.22464 0.43327
 H2911 H 0.88979 0.19910 0.32626
 H2912 H 0.88663 0.26214 0.44714
 C2913 C 0.37590 0.72273 0.34464
 C2914 C 0.36546 0.70515 0.36215
 C2915 C 0.36601 0.71087 0.38846
 C2916 C 0.37767 0.73356 0.39713
 C2917 C 0.38820 0.75096 0.37925
 C2918 C 0.38693 0.74545 0.35304
 C2919 C 0.39992 0.77356 0.38779
 C2920 C 0.40149 0.77910 0.41411
 C2921 C 0.39126 0.76146 0.43175
 C2922 C 0.37942 0.73901 0.42337
 H2923 H 0.35830 0.69731 0.40213
 H2924 H 0.39484 0.75854 0.33904
 H2925 H 0.40737 0.78703 0.37391
 H2926 H 0.37170 0.72588 0.43744
 H2927 H 0.37566 0.71879 0.32426
 H2928 H 0.39248 0.76498 0.45216
 C2929 C 0.36963 0.19959 0.90428
 C2930 C 0.37388 0.19406 0.87816
 C2931 C 0.38908 0.21095 0.86362
 C2932 C 0.39782 0.23395 0.87449
 C2933 C 0.39307 0.23920 0.90062
 C2934 C 0.37956 0.22156 0.91546
 C2935 C 0.40113 0.26234 0.91138
 C2936 C 0.41290 0.28115 0.89617
 C2937 C 0.41721 0.27581 0.87002
 C2938 C 0.41017 0.25236 0.85944
 H2939 H 0.39237 0.20729 0.84345
 H2940 H 0.37577 0.22522 0.93554
 H2941 H 0.39798 0.26570 0.93161
 H2942 H 0.41367 0.24894 0.83927
 H2943 H 0.35844 0.18691 0.91628
 H2944 H 0.42559 0.28993 0.85743
 C2945 C 1.09002 0.69341 1.11967
 C2946 C 1.11654 0.68837 1.11621
 C2947 C 1.13157 0.70646 1.10305
 C2948 C 1.12078 0.72992 1.09548
 C2949 C 1.09428 0.73478 1.09947
 C2950 C 1.07897 0.71613 1.11101
 C2951 C 1.08363 0.75844 1.09248
 C2952 C 1.09929 0.77778 1.08227
 C2953 C 1.12578 0.77278 1.07882
 C2954 C 1.13631 0.74903 1.08499
 H2955 H 1.15203 0.70319 1.10033
 H2956 H 1.05860 0.71946 1.11417
 H2957 H 1.06317 0.76175 1.09505
 H2958 H 1.15675 0.74584 1.08213
 H2959 H 1.07768 0.67987 1.12937
 H2960 H 1.13862 0.78738 1.07169
 C2961 C 1.11399 0.21541 0.65180
 C2962 C 1.13021 0.20145 0.63535
 C2963 C 1.13372 0.21017 0.61006
 C2964 C 1.12150 0.23244 0.60146
 C2965 C 1.10667 0.24710 0.61862
 C2966 C 1.10283 0.23830 0.64368
 C2967 C 1.09615 0.27043 0.61052
 C2968 C 1.09921 0.27884 0.58503
 C2969 C 1.11241 0.26294 0.56770
 C2970 C 1.12389 0.24031 0.57595
 H2971 H 1.14555 0.19941 0.59683
 H2972 H 1.09121 0.24912 0.65702
 H2973 H 1.08628 0.28218 0.62438
 H2974 H 1.13460 0.22892 0.56233
 H2975 H 1.11072 0.20927 0.67136
 H2976 H 1.11416 0.26799 0.54766
 C2977 C 0.65823 0.71210 0.62263
 C2978 C 0.64048 0.69484 0.63318
 C2979 C 0.61419 0.70140 0.63371
 C2980 C 0.60573 0.72490 0.62374
 C2981 C 0.62384 0.74234 0.61371
 C2982 C 0.65003 0.73572 0.61322
 C2983 C 0.61550 0.76612 0.60442
 C2984 C 0.58912 0.77264 0.60439
 C2985 C 0.57126 0.75476 0.61381
 C2986 C 0.57949 0.73127 0.62358
 H2987 H 0.60031 0.68812 0.64158
 H2988 H 0.66418 0.74880 0.60551
 H2989 H 0.62967 0.77967 0.59765
 H2990 H 0.56528 0.71803 0.63090
 H2991 H 0.67859 0.70752 0.62209
 H2992 H 0.55079 0.75882 0.61352
 C2993 C 0.60815 0.21302 1.15379
 C2994 C 0.62544 0.19952 1.13795
 C2995 C 0.63018 0.20893 1.11309
 C2996 C 0.61784 0.23127 1.10435
 C2997 C 0.60174 0.24519 1.12103
 C2998 C 0.59692 0.23580 1.14564
 C2999 C 0.59081 0.26838 1.11297
 C3000 C 0.59473 0.27754 1.08789
 C3001 C 0.60937 0.26244 1.07091
 C3002 C 0.62121 0.23991 1.07919
 H3003 H 0.64296 0.19867 1.10034
 H3004 H 0.58438 0.24605 1.15861
 H3005 H 0.57987 0.27946 1.12660
 H3006 H 0.63291 0.22919 1.06584
 H3007 H 0.60389 0.20655 1.17305
 H3008 H 0.61193 0.26799 1.05110
 C3009 C 1.28577 1.15519 0.89278
 C3010 C 1.30106 1.13754 0.87953
 C3011 C 1.29283 1.11223 0.87718
 C3012 C 1.26928 1.10464 0.88772
 C3013 C 1.25351 1.12275 0.90015
 C3014 C 1.26201 1.14792 0.90279
 C3015 C 1.22933 1.11551 0.90940
 C3016 C 1.22084 1.09020 0.90702
 C3017 C 1.23722 1.07211 0.89560
 C3018 C 1.26110 1.07932 0.88581
 H3019 H 1.30477 1.09850 0.86721
 H3020 H 1.25023 1.16199 0.91242
 H3021 H 1.21689 1.12982 0.91779
 H3022 H 1.27313 1.06512 0.87667
 H3023 H 1.29185 1.17483 0.89471
 H3024 H 1.23154 1.05234 0.89411
 C3025 C 1.30457 0.60516 0.36243
 C3026 C 1.30403 0.63196 0.36193
 C3027 C 1.28116 0.64465 0.36854
 C3028 C 1.25892 0.63064 0.37498
 C3029 C 1.25976 0.60366 0.37557
 C3030 C 1.28279 0.59116 0.36943
 C3031 C 1.23765 0.58968 0.38248
 C3032 C 1.21469 0.60236 0.38895
 C3033 C 1.21392 0.62916 0.38740
 C3034 C 1.23576 0.64313 0.38059
 H3035 H 1.28041 0.66528 0.36773
 H3036 H 1.28389 0.57055 0.36971
 H3037 H 1.23855 0.56908 0.38372
 H3038 H 1.23457 0.66374 0.37996
 H3039 H 1.32197 0.59497 0.35724
 H3040 H 1.19638 0.63940 0.39195
 C3041 C 0.77365 1.12857 0.34612
 C3042 C 0.79301 1.13654 0.36326
 C3043 C 0.78937 1.13315 0.38973
 C3044 C 0.76702 1.12091 0.39881
 C3045 C 0.74794 1.11257 0.38125
 C3046 C 0.75129 1.11688 0.35500
 C3047 C 0.72586 1.09994 0.39014
 C3048 C 0.72238 1.09555 0.41645
 C3049 C 0.74146 1.10382 0.43379
 C3050 C 0.76357 1.11635 0.42507
 H3051 H 0.80435 1.13895 0.40304
 H3052 H 0.73685 1.11075 0.34128
 H3053 H 0.71111 1.09403 0.37662
 H3054 H 0.77795 1.12245 0.43886
 H3055 H 0.77603 1.13102 0.32564
 H3056 H 0.73923 1.10059 0.45418
 C3057 C 0.81102 0.63723 0.89837
 C3058 C 0.81050 0.63756 0.87139
 C3059 C 0.78810 0.62952 0.85859
 C3060 C 0.76630 0.62174 0.87260
 C3061 C 0.76711 0.62125 0.89974
 C3062 C 0.78968 0.62891 0.91239
 C3063 C 0.74543 0.61294 0.91371
 C3064 C 0.72294 0.60508 0.90083
 C3065 C 0.72216 0.60663 0.87385
 C3066 C 0.74358 0.61471 0.85991
 H3067 H 0.78732 0.63015 0.83782
 H3068 H 0.79074 0.62874 0.93314
 H3069 H 0.74634 0.61182 0.93445
 H3070 H 0.74241 0.61529 0.83917
 H3071 H 0.82804 0.64348 0.90866
 H3072 H 0.70494 0.60119 0.86342
 C3073 C 1.31282 0.90603 1.12202
 C3074 C 1.31480 0.87931 1.12190
 C3075 C 1.29460 0.86487 1.11143
 C3076 C 1.27211 0.87693 1.10237
 C3077 C 1.27013 0.90382 1.10294
 C3078 C 1.29082 0.91820 1.11235
 C3079 C 1.24731 0.91582 1.09458
 C3080 C 1.22627 0.90128 1.08593
 C3081 C 1.22851 0.87453 1.08563
 C3082 C 1.25122 0.86251 1.09358
 H3083 H 1.29577 0.84425 1.11166
 H3084 H 1.28970 0.93880 1.11293
 H3085 H 1.24597 0.93643 1.09475
 H3086 H 1.25227 0.84189 1.09324
 H3087 H 1.32815 0.91753 1.13008
 H3088 H 1.21249 0.86277 1.07957
 C3089 C 1.28883 0.34779 0.61439
 C3090 C 1.30570 0.36606 0.62470
 C3091 C 1.30003 0.39206 0.62161
 C3092 C 1.27758 0.39973 0.60859
 C3093 C 1.26035 0.38119 0.59898
 C3094 C 1.26625 0.35528 0.60181
 C3095 C 1.23726 0.38883 0.58715
 C3096 C 1.23118 0.41482 0.58460
 C3097 C 1.24901 0.43309 0.59326
 C3098 C 1.27192 0.42562 0.60527
 H3099 H 1.31310 0.40627 0.62923
 H3100 H 1.25332 0.34081 0.59447
 H3101 H 1.22364 0.37451 0.58083
 H3102 H 1.28506 0.44010 0.61221
 H3103 H 1.29283 0.32764 0.61656
 H3104 H 1.24509 0.45325 0.59104
 C3105 C 0.78208 0.84135 0.62430
 C3106 C 0.79941 0.85888 0.63514
 C3107 C 0.79217 0.88467 0.63681
 C3108 C 0.76798 0.89284 0.62767
 C3109 C 0.75056 0.87494 0.61727
 C3110 C 0.75781 0.84925 0.61566
 C3111 C 0.72620 0.88298 0.60859
 C3112 C 0.71909 0.90889 0.60945
 C3113 C 0.73684 0.92657 0.61947
 C3114 C 0.76092 0.91861 0.62867
 H3115 H 0.80545 0.89842 0.64493
 H3116 H 0.74473 0.83527 0.60766
 H3117 H 0.71273 0.86893 0.60142
 H3118 H 0.77411 0.93265 0.63636
 H3119 H 0.78712 0.82137 0.62290
 H3120 H 0.73228 0.94670 0.61994
 C3121 C 0.77205 0.33817 1.13351
 C3122 C 0.79100 0.35499 1.14263
 C3123 C 0.78672 0.38135 1.14119
 C3124 C 0.76420 0.39085 1.12953
 C3125 C 0.74543 0.37373 1.12003
 C3126 C 0.74932 0.34745 1.12255
 C3127 C 0.72325 0.38315 1.10779
 C3128 C 0.71960 0.40948 1.10467
 C3129 C 0.73841 0.42635 1.11412
 C3130 C 0.76046 0.41712 1.12652
 H3131 H 0.80147 0.39440 1.14785
 H3132 H 0.73512 0.33407 1.11543
 H3133 H 0.70870 0.36998 1.10095
 H3134 H 0.77470 0.43052 1.13352
 H3135 H 0.77508 0.31776 1.13443
 H3136 H 0.73612 0.44673 1.11177
 C3137 C 0.69760 1.13906 1.10704
 C3138 C 0.69480 1.13656 1.13376
 C3139 C 0.71466 1.12471 1.14793
 C3140 C 0.73711 1.11585 1.13561
 C3141 C 0.73950 1.11817 1.10871
 C3142 C 0.71955 1.12975 1.09463
 C3143 C 0.76178 1.10896 1.09635
 C3144 C 0.78210 1.09777 1.11055
 C3145 C 0.77962 1.09628 1.13744
 C3146 C 0.75737 1.10496 1.14975
 H3147 H 0.71292 1.12291 1.16856
 H3148 H 0.72099 1.13180 1.07401
 H3149 H 0.76305 1.11020 1.07566
 H3150 H 0.75610 1.10331 1.17042
 H3151 H 0.68262 1.14805 1.09563
 H3152 H 0.79504 1.08856 1.14917
 C3153 C 0.72188 0.61511 0.65386
 C3154 C 0.70467 0.62576 0.63592
 C3155 C 0.71036 0.62465 0.60971
 C3156 C 0.73304 0.61269 0.60143
 C3157 C 0.75058 0.60254 0.61966
 C3158 C 0.74483 0.60386 0.64582
 C3159 C 0.77367 0.59140 0.61147
 C3160 C 0.77938 0.58984 0.58522
 C3161 C 0.76129 0.59910 0.56723
 C3162 C 0.73845 0.61062 0.57526
 H3163 H 0.69689 0.63254 0.59584
 H3164 H 0.75798 0.59609 0.66004
 H3165 H 0.78748 0.58465 0.62560
 H3166 H 0.72507 0.61794 0.56101
 H3167 H 0.71770 0.61581 0.67417
 H3168 H 0.76489 0.59763 0.54686
 C3169 C 0.21584 1.15786 0.61436
 C3170 C 0.19972 1.14023 0.62673
 C3171 C 0.20647 1.11432 0.62684
 C3172 C 0.22930 1.10614 0.61504
 C3173 C 0.24592 1.12414 0.60354
 C3174 C 0.23887 1.14993 0.60308
 C3175 C 0.26953 1.11614 0.59320
 C3176 C 0.27667 1.09026 0.59389
 C3177 C 0.25926 1.07242 0.60417
 C3178 C 0.23595 1.08029 0.61484
 H3179 H 0.19396 1.10058 0.63608
 H3180 H 0.25127 1.16399 0.59422
 H3181 H 0.28269 1.13020 0.58551
 H3182 H 0.22325 1.06617 0.62317
 H3183 H 0.21100 1.17794 0.61407
 H3184 H 0.26380 1.05228 0.60428
 C3185 C 0.20670 0.62234 1.14913
 C3186 C 0.18999 0.63076 1.12954
 C3187 C 0.19731 0.62767 1.10387
 C3188 C 0.22079 0.61573 1.09782
 C3189 C 0.23760 0.60750 1.11766
 C3190 C 0.23041 0.61110 1.14326
 C3191 C 0.26131 0.59595 1.11154
 C3192 C 0.26841 0.59246 1.08580
 C3193 C 0.25106 0.59995 1.06632
 C3194 C 0.22761 0.61157 1.07224
 H3195 H 0.18430 0.63366 1.08866
 H3196 H 0.24295 0.60490 1.15875
 H3197 H 0.27452 0.59041 1.12674
 H3198 H 0.21485 0.61741 1.05678
 H3199 H 0.20134 0.62439 1.16906
 H3200 H 0.25581 0.59708 1.04634
 C3201 C 0.72545 0.84366 0.87575
 C3202 C 0.70621 0.86046 0.86690
 C3203 C 0.71036 0.88683 0.86817
 C3204 C 0.73313 0.89633 0.87924
 C3205 C 0.75219 0.87921 0.88842
 C3206 C 0.74834 0.85294 0.88620
 C3207 C 0.77471 0.88860 0.89990
 C3208 C 0.77848 0.91493 0.90252
 C3209 C 0.75941 0.93182 0.89343
 C3210 C 0.73695 0.92262 0.88184
 H3211 H 0.69545 0.89988 0.86167
 H3212 H 0.76276 0.83956 0.89306
 H3213 H 0.78947 0.87541 0.90646
 H3214 H 0.72253 0.93604 0.87507
 H3215 H 0.72262 0.82324 0.87489
 H3216 H 0.76183 0.95221 0.89538
 C3217 C 0.71036 0.34339 0.38858
 C3218 C 0.69465 0.36154 0.37616
 C3219 C 0.70201 0.38728 0.37645
 C3220 C 0.72512 0.39468 0.38846
 C3221 C 0.74132 0.37608 0.39984
 C3222 C 0.73357 0.35055 0.40012
 C3223 C 0.76532 0.38318 0.41013
 C3224 C 0.77331 0.40878 0.40957
 C3225 C 0.75627 0.42729 0.39953
 C3226 C 0.73257 0.42029 0.38887
 H3227 H 0.68991 0.40145 0.36713
 H3228 H 0.74563 0.33604 0.40890
 H3229 H 0.77812 0.36858 0.41760
 H3230 H 0.72022 0.43490 0.38067
 H3231 H 0.70518 0.32341 0.38858
 H3232 H 0.76138 0.44727 0.39956
 C3233 C 0.21436 0.84164 0.38137
 C3234 C 0.19813 0.85966 0.36940
 C3235 C 0.20536 0.88548 0.36967
 C3236 C 0.22829 0.89317 0.38200
 C3237 C 0.24456 0.87482 0.39369
 C3238 C 0.23741 0.84908 0.39318
 C3239 C 0.26775 0.88247 0.40556
 C3240 C 0.27489 0.90835 0.40610
 C3241 C 0.25805 0.92644 0.39501
 C3242 C 0.23515 0.91895 0.38299
 H3243 H 0.19290 0.89962 0.36081
 H3244 H 0.24956 0.83470 0.40205
 H3245 H 0.28048 0.86820 0.41379
 H3246 H 0.22280 0.93336 0.37444
 H3247 H 0.20930 0.82163 0.38146
 H3248 H 0.26262 0.94655 0.39557
 C3249 C 0.21719 0.33916 0.87411
 C3250 C 0.20051 0.35645 0.86178
 C3251 C 0.20605 0.38260 0.86248
 C3252 C 0.22812 0.39137 0.87543
 C3253 C 0.24524 0.37371 0.88703
 C3254 C 0.23952 0.34766 0.88636
 C3255 C 0.26796 0.38231 0.89883
 C3256 C 0.27368 0.40848 0.89979
 C3257 C 0.25583 0.42593 0.88922
 C3258 C 0.23346 0.41745 0.87693
 H3259 H 0.19307 0.39604 0.85323
 H3260 H 0.25232 0.33386 0.89526
 H3261 H 0.28148 0.36849 0.90655
 H3262 H 0.22037 0.43131 0.86855
 H3263 H 0.21327 0.31890 0.87371
 H3264 H 0.25919 0.44624 0.89027
   
