data_POSCAR
  _audit_creation_date              2014-09-24
  _audit_creation_method            'ToBaCCo'
  _symmetry_space_group_name_H-M    'P1'
  _symmetry_Int_Tables_number       1
  _symmetry_cell_setting            triclinic
  loop_
  _symmetry_equiv_pos_as_xyz
 x,y,z
_cell_length_a 61.6340
_cell_length_b 61.3744
_cell_length_c 53.8982
_cell_angle_alpha 89.974800
_cell_angle_beta 91.928500
_cell_angle_gamma 88.966900
loop_
  _atom_site_label
  _atom_site_type_symbol
  _atom_site_fract_x
  _atom_site_fract_y
  _atom_site_fract_z
C1 C 0.35008 -0.00323 0.23972
 C2 C 0.15340 0.00844 0.75094
 C3 C 0.65877 0.50639 0.25215
 C4 C 0.85005 0.49282 0.73865
 C5 C 0.24937 0.39949 1.00305
 C6 C 0.75385 0.09551 1.00165
 C7 C 0.25672 0.59627 0.50490
 C8 C 0.74296 0.89690 0.50116
 C9 C 0.00147 0.24761 0.37452
 C10 C -0.00195 0.74848 0.12309
 C11 C 0.49224 0.25327 0.61835
 C12 C 0.50162 0.74288 0.87651
 C13 C -0.25363 0.59849 1.00358
 C14 C -0.24262 0.40913 0.50307
 C15 C 0.25324 -0.09377 0.00866
 C16 C 0.23967 1.10703 0.50411
 C17 C 0.15191 0.49739 0.24929
 C18 C -0.15146 1.00397 0.24101
 C19 C 0.34958 0.50528 -0.25464
 C20 C 0.65308 -0.00321 -0.24548
 C21 C -0.00241 0.24886 0.87211
 C22 C 0.49766 0.24343 0.12799
 C23 C -0.00265 0.74802 0.62888
 C24 C 0.50481 0.75503 0.37676
 B25 B -0.01312 0.01007 1.01711
 B26 B -0.02058 0.00479 0.98739
 B27 B -0.00222 0.02417 0.99401
 B28 B 0.01359 0.01585 1.01849
 B29 B 0.00485 -0.00913 1.02713
 B30 B -0.01642 -0.01601 1.00781
 B31 B 0.01922 -0.01217 0.97967
 B32 B 0.02669 -0.00700 1.00936
 B33 B 0.00836 -0.02625 1.00288
 B34 B -0.00751 -0.01791 0.97828
 B35 B 0.00129 0.00715 0.96974
 B36 B 0.02269 0.01368 0.98916
 B37 B 0.49230 0.51506 0.52209
 B38 B 0.48308 0.51016 0.49301
 B39 B 0.50122 0.52987 0.49824
 B40 B 0.51876 0.52163 0.52130
 B41 B 0.51131 0.49621 0.53010
 B42 B 0.48901 0.48911 0.51244
 B43 B 0.52258 0.49449 0.48140
 B44 B 0.53180 0.49939 0.51051
 B45 B 0.51364 0.47967 0.50520
 B46 B 0.49609 0.48795 0.48219
 B47 B 0.50357 0.51332 0.47339
 B48 B 0.52587 0.52043 0.49104
 B49 B 0.50710 0.99220 0.52392
 B50 B 0.51530 0.99469 0.49450
 B51 B 0.49588 0.97690 0.50123
 B52 B 0.48006 0.98792 0.52316
 B53 B 0.49005 1.01307 0.53005
 B54 B 0.51201 1.01704 0.51226
 B55 B 0.47667 1.01298 0.48109
 B56 B 0.46841 1.01048 0.51046
 B57 B 0.48786 1.02825 0.50377
 B58 B 0.50368 1.01722 0.48186
 B59 B 0.49367 0.99210 0.47496
 B60 B 0.47171 0.98810 0.49273
 B61 B 0.00824 0.48510 1.02225
 B62 B 0.01919 0.49249 0.99541
 B63 B 0.00103 0.47229 0.99577
 B64 B -0.01793 0.47867 1.01661
 B65 B -0.01143 0.50342 1.02887
 B66 B 0.01184 0.51179 1.01594
 B67 B -0.01957 0.50882 0.97908
 B68 B -0.03048 0.50173 1.00601
 B69 B -0.01228 0.52178 1.00550
 B70 B 0.00676 0.51532 0.98482
 B71 B -0.00000 0.49075 0.97244
 B72 B -0.02322 0.48222 0.98564
 B73 B 0.02270 0.51217 0.47773
 B74 B 0.03480 0.50462 0.50486
 B75 B 0.01602 0.52485 0.50417
 B76 B -0.00361 0.51881 0.48279
 B77 B 0.00335 0.49435 0.47018
 B78 B 0.02729 0.48546 0.48396
 B79 B -0.00290 0.48815 0.51974
 B80 B -0.01506 0.49593 0.49265
 B81 B 0.00369 0.47557 0.49324
 B82 B 0.02325 0.48155 0.51474
 B83 B 0.01655 0.50620 0.52720
 B84 B -0.00744 0.51492 0.51371
 B85 B 0.51757 0.00633 -0.02043
 B86 B 0.53205 -0.00305 0.00448
 B87 B 0.51404 0.01775 0.00745
 B88 B 0.49230 0.01328 -0.01166
 B89 B 0.49705 -0.01079 -0.02639
 B90 B 0.52186 -0.02081 -0.01655
 B91 B 0.49564 -0.01915 0.02327
 B92 B 0.48119 -0.00976 -0.00164
 B93 B 0.49916 -0.03059 -0.00461
 B94 B 0.52093 -0.02614 0.01450
 B95 B 0.51617 -0.00205 0.02923
 B96 B 0.49139 0.00796 0.01938
 B97 B 0.48819 0.48051 -0.02497
 B98 B 0.47687 0.48726 0.00193
 B99 B 0.49553 0.46696 0.00125
 B100 B 0.51458 0.47351 -0.01911
 B101 B 0.50742 0.49842 -0.03104
 B102 B 0.48393 0.50706 -0.01789
 B103 B 0.51514 0.50299 0.01896
 B104 B 0.52647 0.49593 -0.00791
 B105 B 0.50789 0.51642 -0.00726
 B106 B 0.48885 0.50993 0.01321
 B107 B 0.49577 0.48489 0.02499
 B108 B 0.51934 0.47639 0.01212
 B109 B -0.02017 0.98488 0.47753
 B110 B -0.03250 0.99173 0.50380
 B111 B -0.01330 0.97192 0.50426
 B112 B 0.00624 0.97869 0.48456
 B113 B -0.00124 1.00323 0.47187
 B114 B -0.02539 1.01139 0.48389
 B115 B 0.00478 1.00878 0.52198
 B116 B 0.01715 1.00168 0.49576
 B117 B -0.00206 1.02162 0.49523
 B118 B -0.02151 1.01488 0.51507
 B119 B -0.01426 0.99021 0.52760
 B120 B 0.00995 0.98218 0.51585
 B121 B 0.75899 0.23899 0.23020
 B122 B 0.75263 0.22896 0.25803
 B123 B 0.77350 0.24617 0.25576
 B124 B 0.76685 0.26498 0.23376
 B125 B 0.74129 0.25940 0.22272
 B126 B 0.73266 0.23680 0.23758
 B127 B 0.73898 0.26889 0.27206
 B128 B 0.74505 0.27886 0.24417
 B129 B 0.72433 0.26160 0.24658
 B130 B 0.73105 0.24273 0.26845
 B131 B 0.75644 0.24859 0.27961
 B132 B 0.76522 0.27110 0.26446
 B133 B 0.73495 0.75757 0.72692
 B134 B 0.74112 0.76693 0.75551
 B135 B 0.72220 0.74776 0.75164
 B136 B 0.72990 0.73068 0.72882
 B137 B 0.75416 0.73949 0.71875
 B138 B 0.76111 0.76214 0.73539
 B139 B 0.75943 0.72803 0.76775
 B140 B 0.75330 0.71866 0.73914
 B141 B 0.77221 0.73785 0.74307
 B142 B 0.76447 0.75492 0.76582
 B143 B 0.74024 0.74611 0.77588
 B144 B 0.73329 0.72345 0.75925
 B145 B 0.25996 0.27337 0.76972
 B146 B 0.25271 0.28375 0.74177
 B147 B 0.27184 0.26393 0.74404
 B148 B 0.26510 0.24640 0.76658
 B149 B 0.24124 0.25557 0.77816
 B150 B 0.23352 0.27891 0.76269
 B151 B 0.23421 0.24570 0.72901
 B152 B 0.24148 0.23533 0.75698
 B153 B 0.22234 0.25513 0.75472
 B154 B 0.22905 0.27268 0.73216
 B155 B 0.25294 0.26351 0.72057
 B156 B 0.26065 0.24017 0.73605
 B157 B 0.23705 0.73750 0.28087
 B158 B 0.24307 0.72522 0.25408
 B159 B 0.22328 0.74441 0.25443
 B160 B 0.23060 0.76398 0.27492
 B161 B 0.25547 0.75659 0.28725
 B162 B 0.26328 0.73242 0.27422
 B163 B 0.25933 0.76271 0.23729
 B164 B 0.25306 0.77505 0.26405
 B165 B 0.27301 0.75590 0.26372
 B166 B 0.26573 0.73636 0.24317
 B167 B 0.24074 0.74353 0.23100
 B168 B 0.23307 0.76774 0.24373
 B169 B 0.26020 0.74163 0.72949
 B170 B 0.25722 0.73321 0.75890
 B171 B 0.27575 0.75213 0.75257
 B172 B 0.26549 0.76852 0.72975
 B173 B 0.24017 0.75957 0.72190
 B174 B 0.23505 0.73761 0.74004
 B175 B 0.24046 0.77252 0.77058
 B176 B 0.24332 0.78099 0.74119
 B177 B 0.22494 0.76207 0.74738
 B178 B 0.23525 0.74561 0.77029
 B179 B 0.26062 0.75466 0.77806
 B180 B 0.26537 0.77677 0.75990
 B181 B 0.23542 0.25903 0.22652
 B182 B 0.24192 0.26811 0.25512
 B183 B 0.22288 0.24903 0.25133
 B184 B 0.23023 0.23216 0.22820
 B185 B 0.25444 0.24095 0.21789
 B186 B 0.26169 0.26343 0.23468
 B187 B 0.26021 0.22903 0.26668
 B188 B 0.25370 0.21997 0.23803
 B189 B 0.27275 0.23902 0.24191
 B190 B 0.26536 0.25595 0.26499
 B191 B 0.24120 0.24712 0.27529
 B192 B 0.23395 0.22462 0.25851
 B193 B 0.76347 0.77106 0.26915
 B194 B 0.75696 0.78066 0.24063
 B195 B 0.77610 0.76096 0.24430
 B196 B 0.76874 0.74404 0.26714
 B197 B 0.74451 0.75349 0.27750
 B198 B 0.73720 0.77638 0.26098
 B199 B 0.73892 0.74225 0.22856
 B200 B 0.74539 0.73268 0.25709
 B201 B 0.72627 0.75237 0.25343
 B202 B 0.73361 0.76928 0.23057
 B203 B 0.75787 0.75986 0.22022
 B204 B 0.76518 0.73697 0.23675
 B205 B 0.73374 0.23279 0.76921
 B206 B 0.73963 0.22167 0.74172
 B207 B 0.71957 0.24051 0.74332
 B208 B 0.72683 0.25940 0.76467
 B209 B 0.75191 0.25195 0.77631
 B210 B 0.75991 0.22843 0.76197
 B211 B 0.75516 0.26008 0.72668
 B212 B 0.74899 0.27127 0.75408
 B213 B 0.76919 0.25244 0.75257
 B214 B 0.76198 0.23362 0.73110
 B215 B 0.73679 0.24085 0.71959
 B216 B 0.72890 0.26441 0.73366
 C217 C 0.38092 1.03334 0.28752
 C218 C 0.39353 1.01781 0.30063
 C219 C 0.39358 0.99609 0.29283
 C220 C 0.38017 0.98972 0.27283
 C221 C 0.36577 1.00479 0.26075
 C222 C 0.36753 1.02702 0.26747
 C223 C 0.40515 1.02373 0.32314
 C224 C 0.41414 1.02777 0.34275
 C225 C 0.42396 1.03101 0.36643
 C226 C 0.43184 1.03210 0.38714
 C227 C 0.44075 1.03094 0.41211
 C228 C 0.45928 1.04249 0.41933
 C229 C 0.46978 1.03815 0.44230
 C230 C 0.46198 1.02201 0.45819
 C231 C 0.44268 1.01141 0.45110
 C232 C 0.43214 1.01594 0.42839
 H233 H 0.38116 1.05031 0.29303
 H234 H 0.40357 0.98395 0.30262
 H235 H 0.38030 0.97274 0.26738
 H236 H 0.35856 1.03975 0.25754
 H237 H 0.46617 1.05409 0.40678
 H238 H 0.48461 1.04663 0.44699
 H239 H 0.43633 0.99852 0.46218
 H240 H 0.41790 1.00676 0.42291
 C241 C -0.10909 0.52350 0.78098
 C242 C -0.10418 0.50823 0.79963
 C243 C -0.11242 0.48718 0.79761
 C244 C -0.12652 0.48180 0.77778
 C245 C -0.13338 0.49768 0.76008
 C246 C -0.12313 0.51813 0.76112
 C247 C -0.09162 0.51434 0.82145
 C248 C -0.08186 0.51898 0.84043
 C249 C -0.07126 0.52333 0.86348
 C250 C -0.06292 0.52555 0.88385
 C251 C -0.05388 0.52578 0.90883
 C252 C -0.06426 0.51390 0.92688
 C253 C -0.05407 0.51008 0.94993
 C254 C -0.03334 0.51842 0.95570
 C255 C -0.02360 0.53161 0.93792
 C256 C -0.03379 0.53517 0.91456
 H257 H -0.10242 0.53969 0.78202
 H258 H -0.10820 0.47499 0.81158
 H259 H -0.13218 0.46525 0.77659
 H260 H -0.12668 0.53031 0.74695
 H261 H -0.07971 0.50637 0.92261
 H262 H -0.06196 0.49930 0.96253
 H263 H -0.00752 0.53797 0.94134
 H264 H -0.02550 0.54426 0.90062
 C265 C 0.10502 0.00226 0.79478
 C266 C 0.11561 -0.00687 0.81575
 C267 C 0.13819 -0.00930 0.81652
 C268 C 0.15004 -0.00360 0.79596
 C269 C 0.13951 0.00397 0.77380
 C270 C 0.11684 0.00797 0.77413
 C271 C 0.10341 -0.01335 0.83671
 C272 C 0.09339 -0.01848 0.85455
 C273 C 0.08186 -0.02352 0.87590
 C274 C 0.07218 -0.02642 0.89463
 C275 C 0.06093 -0.02755 0.91751
 C276 C 0.06917 -0.01604 0.93793
 C277 C 0.05657 -0.01275 0.95859
 C278 C 0.03549 -0.02123 0.95944
 C279 C 0.02794 -0.03415 0.93945
 C280 C 0.04056 -0.03718 0.91854
 H281 H 0.08759 0.00496 0.79436
 H282 H 0.14664 -0.01580 0.83293
 H283 H 0.16751 -0.00591 0.79693
 H284 H 0.10805 0.01554 0.75865
 H285 H 0.08483 -0.00833 0.93726
 H286 H 0.06294 -0.00228 0.97312
 H287 H 0.01174 -0.04068 0.93914
 H288 H 0.03393 -0.04598 0.90268
 C289 C 0.64070 0.48928 0.31691
 C290 C 0.61818 0.49206 0.31498
 C291 C 0.60849 0.50073 0.29325
 C292 C 0.62119 0.50588 0.27313
 C293 C 0.64387 0.50176 0.27409
 C294 C 0.65343 0.49437 0.29686
 C295 C 0.60515 0.48687 0.33575
 C296 C 0.59454 0.48303 0.35354
 C297 C 0.58253 0.47963 0.37496
 C298 C 0.57273 0.47815 0.39382
 C299 C 0.56172 0.47864 0.41691
 C300 C 0.54169 0.46860 0.41948
 C301 C 0.52980 0.47221 0.44087
 C302 C 0.53778 0.48604 0.45981
 C303 C 0.55836 0.49528 0.45723
 C304 C 0.57022 0.49147 0.43612
 H305 H 0.64846 0.48315 0.33392
 H306 H 0.59110 0.50368 0.29191
 H307 H 0.61308 0.51329 0.25710
 H308 H 0.67086 0.49200 0.29882
 H309 H 0.53485 0.45879 0.40456
 H310 H 0.51390 0.46514 0.44186
 H311 H 0.56500 0.50640 0.47094
 H312 H 0.58560 0.49950 0.43423
 C313 C 0.63848 0.53320 0.19006
 C314 C 0.62234 0.51881 0.18232
 C315 C 0.61864 0.50016 0.19632
 C316 C 0.63054 0.49626 0.21841
 C317 C 0.64594 0.51132 0.22751
 C318 C 0.65043 0.52934 0.21217
 C319 C 0.60952 0.52292 0.15998
 C320 C 0.59819 0.52552 0.14154
 C321 C 0.58421 0.52715 0.12036
 C322 C 0.57168 0.52700 0.10274
 C323 C 0.55612 0.52458 0.08252
 C324 C 0.53783 0.51209 0.08632
 C325 C 0.52415 0.50648 0.06635
 C326 C 0.52858 0.51314 0.04203
 C327 C 0.54615 0.52712 0.03871
 C328 C 0.56000 0.53259 0.05880
 H329 H 0.64191 0.54737 0.17896
 H330 H 0.60648 0.48863 0.19020
 H331 H 0.62741 0.48160 0.22878
 H332 H 0.66331 0.54047 0.21686
 H333 H 0.53464 0.50583 0.10462
 H334 H 0.51064 0.49611 0.07010
 H335 H 0.54988 0.53304 0.02047
 H336 H 0.57412 0.54234 0.05567
 C337 C 0.13061 1.03591 0.69024
 C338 C 0.11399 1.02177 0.68332
 C339 C 0.11073 1.00305 0.69737
 C340 C 0.12358 0.99883 0.71873
 C341 C 0.13952 1.01365 0.72706
 C342 C 0.14349 1.03174 0.71161
 C343 C 0.10027 1.02628 0.66174
 C344 C 0.08830 1.02936 0.64390
 C345 C 0.07371 1.03171 0.62332
 C346 C 0.06076 1.03220 0.60608
 C347 C 0.04485 1.03049 0.58608
 C348 C 0.02670 1.01774 0.58962
 C349 C 0.01306 1.01231 0.56954
 C350 C 0.01740 1.01945 0.54536
 C351 C 0.03462 1.03394 0.54241
 C352 C 0.04846 1.03917 0.56259
 H353 H 0.13369 1.05013 0.67907
 H354 H 0.09819 0.99171 0.69187
 H355 H 0.12075 0.98413 0.72916
 H356 H 0.15666 1.04271 0.71562
 H357 H 0.02368 1.01101 0.60775
 H358 H -0.00020 1.00154 0.57302
 H359 H 0.03825 1.04023 0.52430
 H360 H 0.06247 1.04913 0.55964
 C361 C -0.11092 0.46290 0.69518
 C362 C -0.10788 0.47843 0.67675
 C363 C -0.11734 0.49920 0.67886
 C364 C -0.13054 0.50415 0.69875
 C365 C -0.13527 0.48809 0.71648
 C366 C -0.12411 0.46781 0.71507
 C367 C -0.09453 0.47337 0.65603
 C368 C -0.08320 0.46978 0.63864
 C369 C -0.06954 0.46678 0.61838
 C370 C -0.05736 0.46574 0.60137
 C371 C -0.04216 0.46683 0.58173
 C372 C -0.02262 0.47743 0.58638
 C373 C -0.00940 0.48265 0.56688
 C374 C -0.01551 0.47742 0.54216
 C375 C -0.03414 0.46477 0.53800
 C376 C -0.04761 0.45985 0.55762
 H377 H -0.10310 0.44698 0.69421
 H378 H -0.11442 0.51165 0.66517
 H379 H -0.13687 0.52063 0.70020
 H380 H -0.12596 0.45553 0.72923
 H381 H -0.01812 0.48275 0.60500
 H382 H 0.00507 0.49177 0.57131
 H383 H -0.03895 0.45957 0.51950
 H384 H -0.06267 0.45145 0.55379
 C385 C 0.39219 -0.00185 0.18840
 C386 C 0.39396 -0.02376 0.18154
 C387 C 0.38238 -0.03941 0.19408
 C388 C 0.36851 -0.03316 0.21287
 C389 C 0.36528 -0.01090 0.21896
 C390 C 0.37830 0.00446 0.20717
 C391 C 0.40771 -0.03009 0.16162
 C392 C 0.41924 -0.03471 0.14472
 C393 C 0.43293 -0.03883 0.12474
 C394 C 0.44493 -0.04076 0.10766
 C395 C 0.45963 -0.04063 0.08750
 C396 C 0.45307 -0.04759 0.06373
 C397 C 0.46569 -0.04286 0.04334
 C398 C 0.48460 -0.03044 0.04642
 C399 C 0.49197 -0.02544 0.07078
 C400 C 0.47956 -0.03044 0.09106
 H401 H 0.40149 0.01038 0.17918
 H402 H 0.38412 -0.05651 0.18941
 H403 H 0.36069 -0.04602 0.22270
 H404 H 0.37735 0.02152 0.21222
 H405 H 0.43767 -0.05558 0.06074
 H406 H 0.45980 -0.04767 0.02507
 H407 H 0.50668 -0.01643 0.07431
 H408 H 0.48487 -0.02509 0.10940
 C409 C 0.30634 0.41533 0.02718
 C410 C 0.30762 0.43697 0.01941
 C411 C 0.28975 0.44707 0.00731
 C412 C 0.27069 0.43552 0.00274
 C413 C 0.26893 0.41369 0.01079
 C414 C 0.28734 0.40375 0.02267
 C415 C 0.32811 0.44778 0.02128
 C416 C 0.34581 0.45578 0.02179
 C417 C 0.36708 0.46377 0.02109
 C418 C 0.38562 0.46924 0.01933
 C419 C 0.40805 0.47399 0.01575
 C420 C 0.41734 0.49318 0.02478
 C421 C 0.43918 0.49744 0.02054
 C422 C 0.45195 0.48253 0.00717
 C423 C 0.44226 0.46328 -0.00164
 C424 C 0.42059 0.45909 0.00261
 H425 H 0.32032 0.40714 0.03593
 H426 H 0.29081 0.46362 0.00050
 H427 H 0.25780 0.44353 -0.00809
 H428 H 0.28718 0.38672 0.02792
 H429 H 0.40773 0.50485 0.03498
 H430 H 0.44594 0.51243 0.02766
 H431 H 0.45124 0.45141 -0.01218
 H432 H 0.41355 0.44421 -0.00455
 C433 C -0.21871 0.94619 0.50490
 C434 C -0.20062 0.93702 0.51758
 C435 C -0.20117 0.91550 0.52590
 C436 C -0.21960 0.90308 0.52132
 C437 C -0.23822 0.91206 0.50887
 C438 C -0.23723 0.93382 0.50033
 C439 C -0.18060 0.94864 0.51956
 C440 C -0.16321 0.95727 0.52027
 C441 C -0.14219 0.96589 0.51990
 C442 C -0.12377 0.97185 0.51849
 C443 C -0.10139 0.97711 0.51545
 C444 C -0.08819 0.96233 0.50300
 C445 C -0.06650 0.96693 0.49942
 C446 C -0.05746 0.98651 0.50821
 C447 C -0.07094 1.00132 0.52082
 C448 C -0.09278 0.99664 0.52441
 H449 H -0.21818 0.96265 0.49767
 H450 H -0.18702 0.90803 0.53514
 H451 H -0.21915 0.88615 0.52700
 H452 H -0.25030 0.94111 0.48913
 H453 H -0.09471 0.94719 0.49589
 H454 H -0.05698 0.95514 0.48939
 H455 H -0.06471 1.01657 0.52788
 H456 H -0.10291 1.00823 0.53406
 C457 C -0.20635 0.05977 0.96445
 C458 C -0.18624 0.06525 0.97529
 C459 C -0.18528 0.08092 0.99400
 C460 C -0.20425 0.09062 1.00248
 C461 C -0.22492 0.08434 0.99304
 C462 C -0.22545 0.06956 0.97288
 C463 C -0.16636 0.05480 0.96798
 C464 C -0.14895 0.04659 0.96373
 C465 C -0.12794 0.03755 0.96100
 C466 C -0.10968 0.03021 0.96066
 C467 C -0.08771 0.02186 0.96272
 C468 C -0.08334 0.00253 0.97580
 C469 C -0.06195 -0.00364 0.98210
 C470 C -0.04458 0.00982 0.97616
 C471 C -0.04904 0.02788 0.96056
 C472 C -0.07049 0.03414 0.95434
 H473 H -0.20727 0.04796 0.94954
 H474 H -0.16976 0.08574 1.00209
 H475 H -0.20238 0.10335 1.01617
 H476 H -0.24079 0.06538 0.96388
 H477 H -0.09650 -0.00733 0.98205
 H478 H -0.05922 -0.01861 0.99242
 H479 H -0.03608 0.03768 0.95383
 H480 H -0.07365 0.04896 0.94381
 C481 C 0.29985 0.56835 0.46396
 C482 C 0.31157 0.55595 0.48174
 C483 C 0.30462 0.55524 0.50611
 C484 C 0.28669 0.56774 0.51301
 C485 C 0.27572 0.58184 0.49585
 C486 C 0.28183 0.58086 0.47080
 C487 C 0.33198 0.54583 0.47591
 C488 C 0.34990 0.53851 0.47258
 C489 C 0.37166 0.53145 0.47074
 C490 C 0.39073 0.52684 0.47112
 C491 C 0.41376 0.52316 0.47407
 C492 C 0.42581 0.53825 0.48781
 C493 C 0.44777 0.53440 0.49317
 C494 C 0.45830 0.51537 0.48474
 C495 C 0.44611 0.50048 0.47032
 C496 C 0.42394 0.50433 0.46509
 H497 H 0.30491 0.56874 0.44491
 H498 H 0.31347 0.54555 0.52003
 H499 H 0.28186 0.56716 0.53213
 H500 H 0.27294 0.58975 0.45633
 H501 H 0.41806 0.55279 0.49507
 H502 H 0.45617 0.54610 0.50476
 H503 H 0.45349 0.48558 0.46359
 H504 H 0.41469 0.49245 0.45455
 C505 C 0.21250 0.55326 0.49704
 C506 C 0.20516 0.55108 0.52112
 C507 C 0.21588 0.56170 0.54078
 C508 C 0.23308 0.57552 0.53617
 C509 C 0.23925 0.57964 0.51158
 C510 C 0.22960 0.56707 0.49237
 C511 C 0.18512 0.54016 0.52486
 C512 C 0.16742 0.53241 0.52649
 C513 C 0.14592 0.52506 0.52661
 C514 C 0.12706 0.52030 0.52515
 C515 C 0.10426 0.51644 0.52157
 C516 C 0.09509 0.49692 0.52903
 C517 C 0.07302 0.49323 0.52404
 C518 C 0.05987 0.50901 0.51144
 C519 C 0.06941 0.52864 0.50434
 C520 C 0.09134 0.53229 0.50938
 H521 H 0.20443 0.54498 0.48167
 H522 H 0.21054 0.55980 0.55960
 H523 H 0.24116 0.58309 0.55194
 H524 H 0.23459 0.56890 0.47342
 H525 H 0.10501 0.48450 0.53842
 H526 H 0.06641 0.47790 0.52983
 H527 H 0.06015 0.54111 0.49430
 H528 H 0.09832 0.54740 0.50335
 C529 C 0.72064 0.04305 0.01193
 C530 C 0.70003 0.05223 0.01553
 C531 C 0.69747 0.07481 0.01702
 C532 C 0.71506 0.08824 0.01349
 C533 C 0.73563 0.07946 0.00765
 C534 C 0.73842 0.05654 0.00852
 C535 C 0.68102 0.03903 0.01623
 C536 C 0.66407 0.02953 0.01606
 C537 C 0.64332 0.02017 0.01521
 C538 C 0.62502 0.01357 0.01416
 C539 C 0.60265 0.00724 0.01273
 C540 C 0.58905 0.01254 0.03214
 C541 C 0.56682 0.00871 0.02983
 C542 C 0.55772 -0.00021 0.00787
 C543 C 0.57176 -0.00651 -0.01107
 C544 C 0.59402 -0.00257 -0.00876
 H545 H 0.72290 0.02552 0.01138
 H546 H 0.68167 0.08212 0.02019
 H547 H 0.71238 0.10572 0.01413
 H548 H 0.75413 0.04883 0.00639
 H549 H 0.59557 0.02007 0.04891
 H550 H 0.55684 0.01298 0.04522
 H551 H 0.56549 -0.01377 -0.02808
 H552 H 0.60439 -0.00669 -0.02396
 C553 C 0.69389 0.93639 0.50321
 C554 C 0.68125 0.92994 0.48260
 C555 C 0.68861 0.91312 0.46741
 C556 C 0.70861 0.90279 0.47276
 C557 C 0.72196 0.90949 0.49313
 C558 C 0.71386 0.92609 0.50862
 C559 C 0.66005 0.93956 0.47820
 C560 C 0.64210 0.94746 0.47551
 C561 C 0.62095 0.95653 0.47372
 C562 C 0.60283 0.96417 0.47357
 C563 C 0.58124 0.97314 0.47523
 C564 C 0.56331 0.96135 0.46663
 C565 C 0.54231 0.96882 0.47142
 C566 C 0.53901 0.98763 0.48588
 C567 C 0.55714 1.00035 0.49234
 C568 C 0.57809 0.99300 0.48735
 H569 H 0.68808 0.94905 0.51545
 H570 H 0.67863 0.90758 0.45182
 H571 H 0.71312 0.88909 0.46132
 H572 H 0.72295 0.93092 0.52519
 H573 H 0.56556 0.94613 0.45680
 H574 H 0.52875 0.95948 0.46434
 H575 H 0.55532 1.01583 0.50167
 H576 H 0.59186 1.00253 0.49358
 C577 C 0.19521 0.41878 0.97097
 C578 C 0.18882 0.43547 0.98692
 C579 C 0.20216 0.44097 1.00732
 C580 C 0.22176 0.42975 1.01190
 C581 C 0.22886 0.41317 0.99573
 C582 C 0.21489 0.40756 0.97544
 C583 C 0.16776 0.44572 0.98378
 C584 C 0.14988 0.45394 0.98224
 C585 C 0.12871 0.46302 0.98165
 C586 C 0.11043 0.47020 0.98210
 C587 C 0.08839 0.47796 0.98372
 C588 C 0.08226 0.49021 1.00427
 C589 C 0.06043 0.49561 1.00742
 C590 C 0.04433 0.48852 0.99023
 C591 C 0.05091 0.47745 0.96881
 C592 C 0.07275 0.47196 0.96576
 H593 H 0.18467 0.41397 0.95552
 H594 H 0.19712 0.45353 1.02013
 H595 H 0.23134 0.43380 1.02841
 H596 H 0.21863 0.39398 0.96346
 H597 H 0.09427 0.49502 1.01826
 H598 H 0.05615 0.50454 1.02392
 H599 H 0.03928 0.47271 0.95453
 H600 H 0.07736 0.46261 0.94966
 C601 C 0.01627 0.29234 0.42234
 C602 C 0.00040 0.30844 0.41729
 C603 C -0.01464 0.30554 0.39763
 C604 C -0.01431 0.28639 0.38359
 C605 C 0.00068 0.26925 0.38942
 C606 C 0.01663 0.27314 0.40831
 C607 C -0.00012 0.32834 0.43158
 C608 C -0.00081 0.34536 0.44281
 C609 C -0.00173 0.36587 0.45477
 C610 C -0.00243 0.38397 0.46355
 C611 C -0.00295 0.40635 0.47178
 C612 C -0.00114 0.41195 0.49698
 C613 C -0.00003 0.43395 0.50407
 C614 C -0.00087 0.45063 0.48606
 C615 C -0.00290 0.44458 0.46084
 C616 C -0.00411 0.42278 0.45387
 H617 H 0.02841 0.29460 0.43707
 H618 H -0.02656 0.31820 0.39298
 H619 H -0.02571 0.28538 0.36799
 H620 H 0.02918 0.26100 0.41253
 H621 H -0.00002 0.39935 0.51106
 H622 H 0.00225 0.43779 0.52356
 H623 H -0.00280 0.45657 0.44614
 H624 H -0.00527 0.41871 0.43431
 C625 C 0.49460 -0.19643 -0.10639
 C626 C 0.49109 -0.19714 -0.08093
 C627 C 0.48987 -0.21731 -0.06904
 C628 C 0.49291 -0.23667 -0.08236
 C629 C 0.49796 -0.23623 -0.10780
 C630 C 0.49762 -0.21569 -0.11973
 C631 C 0.48915 -0.17707 -0.06715
 C632 C 0.48809 -0.15985 -0.05636
 C633 C 0.48746 -0.13917 -0.04478
 C634 C 0.48744 -0.12105 -0.03602
 C635 C 0.48803 -0.09886 -0.02723
 C636 C 0.49358 -0.09405 -0.00244
 C637 C 0.49614 -0.07235 0.00510
 C638 C 0.49308 -0.05510 -0.01203
 C639 C 0.48735 -0.06029 -0.03685
 C640 C 0.48468 -0.08188 -0.04427
 H641 H 0.49519 -0.18093 -0.11596
 H642 H 0.48657 -0.21811 -0.04945
 H643 H 0.49102 -0.25183 -0.07257
 H644 H 0.50026 -0.21459 -0.13945
 H645 H 0.49657 -0.10706 0.01088
 H646 H 0.50129 -0.06918 0.02413
 H647 H 0.48577 -0.04783 -0.05100
 H648 H 0.48075 -0.08537 -0.06359
 C649 C 0.01925 -0.21187 1.07399
 C650 C 0.00715 -0.19283 1.07831
 C651 C -0.00750 -0.19238 1.09753
 C652 C -0.01052 -0.21093 1.11196
 C653 C 0.00059 -0.23076 1.10701
 C654 C 0.01627 -0.23050 1.08843
 C655 C 0.01002 -0.17341 1.06373
 C656 C 0.01186 -0.15660 1.05238
 C657 C 0.01345 -0.13622 1.04033
 C658 C 0.01442 -0.11822 1.03142
 C659 C 0.01514 -0.09598 1.02281
 C660 C 0.00761 -0.09003 0.99888
 C661 C 0.00634 -0.06797 0.99196
 C662 C 0.01249 -0.05159 1.00896
 C663 C 0.02056 -0.05795 1.03272
 C664 C 0.02195 -0.07987 1.03947
 H665 H 0.03106 -0.21230 1.05956
 H666 H -0.01648 -0.17754 1.10161
 H667 H -0.02131 -0.20934 1.12726
 H668 H 0.02607 -0.24492 1.08493
 H669 H 0.00216 -0.10235 0.98583
 H670 H -0.00014 -0.06378 0.97365
 H671 H 0.02545 -0.04598 1.04644
 H672 H 0.02773 -0.08421 1.05807
 C673 C 0.51646 0.29319 0.57164
 C674 C 0.50562 0.31278 0.57684
 C675 C 0.49067 0.31345 0.59575
 C676 C 0.48619 0.29462 0.60909
 C677 C 0.49611 0.27436 0.60332
 C678 C 0.51201 0.27429 0.58497
 C679 C 0.51004 0.33243 0.56334
 C680 C 0.51320 0.34935 0.55272
 C681 C 0.51627 0.36976 0.54126
 C682 C 0.51836 0.38771 0.53256
 C683 C 0.52015 0.40979 0.52378
 C684 C 0.51108 0.41616 0.50066
 C685 C 0.51025 0.43822 0.49390
 C686 C 0.51839 0.45426 0.51025
 C687 C 0.52825 0.44745 0.53301
 C688 C 0.52917 0.42546 0.53963
 H689 H 0.52845 0.29252 0.55740
 H690 H 0.48261 0.32867 0.60043
 H691 H 0.47526 0.29631 0.62425
 H692 H 0.52089 0.25943 0.58083
 H693 H 0.50390 0.40419 0.48828
 H694 H 0.50232 0.44272 0.47639
 H695 H 0.53462 0.45918 0.54624
 H696 H 0.53614 0.42079 0.55761
 C697 C 0.47757 1.21653 0.56149
 C698 C 0.47798 1.19591 0.57255
 C699 C 0.48180 1.19402 0.59816
 C700 C 0.48600 1.21250 0.61252
 C701 C 0.48714 1.23335 0.60153
 C702 C 0.48172 1.23512 0.57585
 C703 C 0.47547 1.17647 0.55775
 C704 C 0.47437 1.15959 0.54632
 C705 C 0.47439 1.13911 0.53427
 C706 C 0.47573 1.12108 0.52546
 C707 C 0.47914 1.09899 0.51712
 C708 C 0.49809 1.08799 0.52519
 C709 C 0.50109 1.06595 0.51996
 C710 C 0.48515 1.05425 0.50641
 C711 C 0.46651 1.06575 0.49731
 C712 C 0.46345 1.08794 0.50281
 H713 H 0.47417 1.21826 0.54173
 H714 H 0.48186 1.17818 0.60705
 H715 H 0.48896 1.21048 0.63231
 H716 H 0.48050 1.25074 0.56664
 H717 H 0.51035 1.09631 0.53632
 H718 H 0.51572 1.05807 0.52743
 H719 H 0.45373 1.05743 0.48712
 H720 H 0.44861 1.09626 0.49656
 C721 C -0.00925 0.68796 1.10612
 C722 C -0.01369 0.68867 1.08054
 C723 C -0.01511 0.70882 1.06841
 C724 C -0.01153 0.72813 1.08167
 C725 C -0.00576 0.72765 1.10732
 C726 C -0.00566 0.70718 1.11939
 C727 C -0.01661 0.66861 1.06697
 C728 C -0.01860 0.65139 1.05637
 C729 C -0.02038 0.63073 1.04490
 C730 C -0.02137 0.61270 1.03602
 C731 C -0.02182 0.59068 1.02665
 C732 C -0.01269 0.58547 1.00391
 C733 C -0.01075 0.56369 0.99644
 C734 C -0.01779 0.54676 1.01170
 C735 C -0.02776 0.55233 1.03405
 C736 C -0.02977 0.57407 1.04140
 H737 H -0.00848 0.67251 1.11586
 H738 H -0.01909 0.70964 1.04869
 H739 H -0.01367 0.74332 1.07167
 H740 H -0.00241 0.70608 1.13922
 H741 H -0.00640 0.59818 0.99236
 H742 H -0.00295 0.56015 0.97919
 H743 H -0.03349 0.53987 1.04632
 H744 H -0.03686 0.57786 1.05904
 C745 C 0.49699 0.68391 -0.09823
 C746 C 0.51207 0.68390 -0.07830
 C747 C 0.52420 0.70254 -0.07340
 C748 C 0.52082 0.72126 -0.08801
 C749 C 0.50470 0.72202 -0.10735
 C750 C 0.49357 0.70254 -0.11282
 C751 C 0.51518 0.66441 -0.06353
 C752 C 0.51693 0.64745 -0.05223
 C753 C 0.51805 0.62680 -0.04054
 C754 C 0.51828 0.60851 -0.03226
 C755 C 0.51773 0.58594 -0.02490
 C756 C 0.51401 0.57973 -0.00040
 C757 C 0.51156 0.55765 0.00552
 C758 C 0.51292 0.54147 -0.01297
 C759 C 0.51654 0.54813 -0.03750
 C760 C 0.51917 0.57002 -0.04328
 H761 H 0.48796 0.66935 -0.10271
 H762 H 0.53632 0.70260 -0.05837
 H763 H 0.53062 0.73538 -0.08403
 H764 H 0.48244 0.70128 -0.12864
 H765 H 0.51247 0.59196 0.01396
 H766 H 0.50800 0.55334 0.02441
 H767 H 0.51660 0.53664 -0.05266
 H768 H 0.52161 0.57462 -0.06239
 C769 C 0.00577 1.18757 0.39564
 C770 C 0.00183 1.18887 0.42098
 C771 C -0.00300 1.20910 0.43155
 C772 C -0.00328 1.22803 0.41702
 C773 C 0.00192 1.22721 0.39162
 C774 C 0.00548 1.20642 0.38108
 C775 C 0.00236 1.16928 0.43581
 C776 C 0.00292 1.15236 0.44728
 C777 C 0.00357 1.13186 0.45929
 C778 C 0.00401 1.11370 0.46793
 C779 C 0.00426 1.09123 0.47579
 C780 C 0.00122 1.08528 0.50053
 C781 C -0.00001 1.06319 0.50705
 C782 C 0.00202 1.04676 0.48895
 C783 C 0.00502 1.05316 0.46418
 C784 C 0.00632 1.07507 0.45779
 H785 H 0.00906 1.17194 0.38707
 H786 H -0.00673 1.21024 0.45101
 H787 H -0.00799 1.24312 0.42582
 H788 H 0.00839 1.20484 0.36146
 H789 H -0.00072 1.09767 0.51461
 H790 H -0.00317 1.05905 0.52609
 H791 H 0.00560 1.04140 0.44930
 H792 H 0.00830 1.07943 0.43852
 C793 C 0.78049 0.62801 0.95494
 C794 C 0.76441 0.63972 0.94155
 C795 C 0.74286 0.63900 0.94877
 C796 C 0.73731 0.62602 0.96881
 C797 C 0.75307 0.61278 0.98149
 C798 C 0.77500 0.61500 0.97494
 C799 C 0.76991 0.65184 0.91988
 C800 C 0.77398 0.66148 0.90118
 C801 C 0.77762 0.67220 0.87860
 C802 C 0.77923 0.68092 0.85875
 C803 C 0.77880 0.69079 0.83455
 C804 C 0.76664 0.68096 0.81548
 C805 C 0.76205 0.69212 0.79339
 C806 C 0.76980 0.71331 0.78974
 C807 C 0.78333 0.72247 0.80843
 C808 C 0.78770 0.71130 0.83077
 H809 H 0.79732 0.62884 0.94986
 H810 H 0.73029 0.64830 0.93874
 H811 H 0.72052 0.62585 0.97411
 H812 H 0.78816 0.60692 0.98524
 H813 H 0.75949 0.66517 0.81828
 H814 H 0.75119 0.68457 0.77990
 H815 H 0.78933 0.73883 0.80661
 H816 H 0.79699 0.71915 0.84554
 C817 C 0.26948 0.14717 0.46264
 C818 C 0.26335 0.14024 0.43879
 C819 C 0.24963 0.12250 0.43576
 C820 C 0.24173 0.11190 0.45644
 C821 C 0.24686 0.11929 0.48075
 C822 C 0.26161 0.13660 0.48338
 C823 C 0.27060 0.15153 0.41727
 C824 C 0.27555 0.16085 0.39867
 C825 C 0.27967 0.17156 0.37620
 C826 C 0.28133 0.18047 0.35646
 C827 C 0.28068 0.19072 0.33244
 C828 C 0.26835 0.18115 0.31333
 C829 C 0.26331 0.19273 0.29161
 C830 C 0.27082 0.21406 0.28834
 C831 C 0.28445 0.22301 0.30707
 C832 C 0.28925 0.21144 0.32906
 H833 H 0.28034 0.16073 0.46523
 H834 H 0.24509 0.11675 0.41733
 H835 H 0.23197 0.09767 0.45317
 H836 H 0.26698 0.14203 0.50165
 H837 H 0.26139 0.16524 0.31585
 H838 H 0.25233 0.18534 0.27813
 H839 H 0.29023 0.23949 0.30559
 H840 H 0.29858 0.21913 0.34390
 C841 C 0.73951 0.38945 0.43782
 C842 C 0.74114 0.36681 0.44011
 C843 C 0.74959 0.35752 0.46212
 C844 C 0.75549 0.37077 0.48222
 C845 C 0.75236 0.39365 0.48096
 C846 C 0.74539 0.40274 0.45786
 C847 C 0.73493 0.35317 0.41948
 C848 C 0.73029 0.34200 0.40179
 C849 C 0.72607 0.32937 0.38040
 C850 C 0.72410 0.31917 0.36140
 C851 C 0.72429 0.30800 0.33799
 C852 C 0.71395 0.28807 0.33426
 C853 C 0.71726 0.27614 0.31246
 C854 C 0.73107 0.28401 0.29429
 C855 C 0.74080 0.30440 0.29821
 C856 C 0.73724 0.31630 0.31964
 H857 H 0.73359 0.39686 0.42058
 H858 H 0.75171 0.34001 0.46373
 H859 H 0.76261 0.36288 0.49853
 H860 H 0.74381 0.42024 0.45569
 H861 H 0.70409 0.28136 0.34855
 H862 H 0.70996 0.26032 0.31053
 H863 H 0.75211 0.31086 0.28532
 H864 H 0.74556 0.33156 0.32246
 C865 C 0.23660 0.89012 0.94176
 C866 C 0.24011 0.86759 0.94178
 C867 C 0.24905 0.85730 0.96300
 C868 C 0.25373 0.86937 0.98446
 C869 C 0.24894 0.89198 0.98532
 C870 C 0.24128 0.90222 0.96312
 C871 C 0.23522 0.85519 0.91972
 C872 C 0.23150 0.84503 0.90098
 C873 C 0.22803 0.83341 0.87867
 C874 C 0.22627 0.82372 0.85929
 C875 C 0.22610 0.81252 0.83586
 C876 C 0.21661 0.79207 0.83310
 C877 C 0.21967 0.77990 0.81147
 C878 C 0.23240 0.78802 0.79241
 C879 C 0.24097 0.80906 0.79509
 C880 C 0.23774 0.82119 0.81652
 H881 H 0.23021 0.89837 0.92523
 H882 H 0.25254 0.83993 0.96292
 H883 H 0.26136 0.86086 1.00006
 H884 H 0.23839 0.91968 0.96261
 H885 H 0.20771 0.78512 0.84808
 H886 H 0.21309 0.76370 0.81038
 H887 H 0.25116 0.81586 0.78119
 H888 H 0.24531 0.83693 0.81853
 C889 C 0.24885 0.86397 0.06119
 C890 C 0.26730 0.86809 0.07612
 C891 C 0.28089 0.88509 0.07008
 C892 C 0.27647 0.89751 0.04875
 C893 C 0.25869 0.89271 0.03242
 C894 C 0.24437 0.87639 0.03983
 C895 C 0.27213 0.85496 0.09776
 C896 C 0.27567 0.84362 0.11573
 C897 C 0.27872 0.82980 0.13648
 C898 C 0.27985 0.81744 0.15385
 C899 C 0.27888 0.80207 0.17387
 C900 C 0.28743 0.80679 0.19761
 C901 C 0.28289 0.79326 0.21766
 C902 C 0.26919 0.77529 0.21428
 C903 C 0.26222 0.76989 0.18989
 C904 C 0.26698 0.78319 0.16997
 H905 H 0.23791 0.85114 0.06602
 H906 H 0.29487 0.88883 0.08194
 H907 H 0.28700 0.91103 0.04546
 H908 H 0.22987 0.87298 0.02872
 H909 H 0.29679 0.82135 0.20082
 H910 H 0.28922 0.79759 0.23591
 H911 H 0.25213 0.75597 0.18608
 H912 H 0.26039 0.77931 0.15163
 C913 C 0.74979 0.37018 0.55802
 C914 C 0.76886 0.37291 0.57233
 C915 C 0.78385 0.38836 0.56537
 C916 C 0.78024 0.40041 0.54358
 C917 C 0.76183 0.39668 0.52779
 C918 C 0.74612 0.38220 0.53627
 C919 C 0.77301 0.35945 0.59383
 C920 C 0.77568 0.34741 0.61134
 C921 C 0.77746 0.33253 0.63122
 C922 C 0.77747 0.31922 0.64763
 C923 C 0.77532 0.30287 0.66640
 C924 C 0.78453 0.30546 0.69026
 C925 C 0.77950 0.29094 0.70917
 C926 C 0.76477 0.27398 0.70455
 C927 C 0.75677 0.27086 0.68003
 C928 C 0.76199 0.28519 0.66120
 H929 H 0.73784 0.35853 0.56351
 H930 H 0.79840 0.39104 0.57674
 H931 H 0.79195 0.41266 0.53940
 H932 H 0.73121 0.37969 0.52553
 H933 H 0.79490 0.31912 0.69449
 H934 H 0.78629 0.29378 0.72761
 H935 H 0.74566 0.25793 0.67536
 H936 H 0.75480 0.28302 0.64276
 C937 C 0.22058 0.12767 0.56731
 C938 C 0.21506 0.14945 0.56235
 C939 C 0.21649 0.15759 0.53825
 C940 C 0.22412 0.14418 0.51934
 C941 C 0.23125 0.12253 0.52441
 C942 C 0.22823 0.11427 0.54850
 C943 C 0.20956 0.16367 0.58250
 C944 C 0.20645 0.17513 0.60021
 C945 C 0.20485 0.18786 0.62187
 C946 C 0.20557 0.19794 0.64104
 C947 C 0.20923 0.20877 0.66442
 C948 C 0.20085 0.22971 0.66892
 C949 C 0.20759 0.24108 0.69031
 C950 C 0.22291 0.23166 0.70733
 C951 C 0.23064 0.21034 0.70274
 C952 C 0.22370 0.19899 0.68169
 H953 H 0.21934 0.12112 0.58587
 H954 H 0.21192 0.17436 0.53411
 H955 H 0.22430 0.15089 0.50081
 H956 H 0.23233 0.09745 0.55288
 H957 H 0.18984 0.23756 0.65546
 H958 H 0.20165 0.25760 0.69278
 H959 H 0.24283 0.20258 0.71483
 H960 H 0.23052 0.18291 0.67827
 C961 C 0.71306 0.63459 0.04820
 C962 C 0.72942 0.64658 0.05999
 C963 C 0.75090 0.64393 0.05282
 C964 C 0.75610 0.62871 0.03458
 C965 C 0.74005 0.61522 0.02373
 C966 C 0.71821 0.61941 0.02995
 C967 C 0.72435 0.66076 0.08030
 C968 C 0.72073 0.67197 0.09807
 C969 C 0.71777 0.68429 0.11980
 C970 C 0.71687 0.69406 0.13912
 C971 C 0.71830 0.70469 0.16286
 C972 C 0.70933 0.72552 0.16651
 C973 C 0.71429 0.73696 0.18843
 C974 C 0.72847 0.72772 0.20679
 C975 C 0.73647 0.70634 0.20320
 C976 C 0.73128 0.69493 0.18159
 H977 H 0.69630 0.63686 0.05322
 H978 H 0.76368 0.65341 0.06157
 H979 H 0.77285 0.62705 0.02930
 H980 H 0.70485 0.61119 0.02074
 H981 H 0.69938 0.73331 0.15199
 H982 H 0.70809 0.75346 0.19024
 H983 H 0.74781 0.69870 0.21641
 H984 H 0.73849 0.67890 0.17888
 C985 C 0.19913 0.53832 0.24988
 C986 C 0.18940 0.55595 0.23714
 C987 C 0.16797 0.55459 0.22808
 C988 C 0.15630 0.53565 0.23170
 C989 C 0.16600 0.51732 0.24380
 C990 C 0.18751 0.51931 0.25348
 C991 C 0.20053 0.57623 0.23553
 C992 C 0.20894 0.59375 0.23505
 C993 C 0.21746 0.61488 0.23562
 C994 C 0.22336 0.63342 0.23722
 C995 C 0.22853 0.65596 0.24058
 C996 C 0.21389 0.66934 0.25291
 C997 C 0.21847 0.69117 0.25702
 C998 C 0.23784 0.70016 0.24885
 C999 C 0.25251 0.68651 0.23631
 C1000 C 0.24786 0.66452 0.23220
 H1001 H 0.21548 0.53951 0.25773
 H1002 H 0.16008 0.56839 0.21879
 H1003 H 0.13949 0.53532 0.22520
 H1004 H 0.19528 0.50660 0.26465
 H1005 H 0.19893 0.66285 0.25959
 H1006 H 0.20683 0.70081 0.26703
 H1007 H 0.26763 0.69270 0.22979
 H1008 H 0.25934 0.65423 0.22266
 C1009 C 0.68266 0.03988 0.71575
 C1010 C 0.69565 0.04962 0.73422
 C1011 C 0.69669 0.04083 0.75814
 C1012 C 0.68366 0.02333 0.76402
 C1013 C 0.66872 0.01471 0.74631
 C1014 C 0.66966 0.02228 0.72157
 C1015 C 0.70575 0.07010 0.72963
 C1016 C 0.71290 0.08807 0.72705
 C1017 C 0.71968 0.10982 0.72561
 C1018 C 0.72410 0.12886 0.72580
 C1019 C 0.72770 0.15188 0.72782
 C1020 C 0.71213 0.16486 0.73927
 C1021 C 0.71569 0.18695 0.74312
 C1022 C 0.73494 0.19662 0.73553
 C1023 C 0.75038 0.18344 0.72357
 C1024 C 0.74678 0.16120 0.71978
 H1025 H 0.68208 0.04630 0.69701
 H1026 H 0.70691 0.04806 0.77254
 H1027 H 0.68435 0.01722 0.78289
 H1028 H 0.66022 0.01500 0.70662
 H1029 H 0.69739 0.15778 0.74581
 H1030 H 0.70359 0.19615 0.75293
 H1031 H 0.76546 0.19013 0.71756
 H1032 H 0.75902 0.15123 0.71102
 C1033 C 0.82011 0.04817 0.28082
 C1034 C 0.80765 0.05925 0.26253
 C1035 C 0.80695 0.05141 0.23820
 C1036 C 0.81956 0.03329 0.23188
 C1037 C 0.83376 0.02300 0.24958
 C1038 C 0.83274 0.02995 0.27455
 C1039 C 0.79687 0.07955 0.26802
 C1040 C 0.78854 0.09717 0.27129
 C1041 C 0.77958 0.11835 0.27347
 C1042 C 0.77260 0.13679 0.27383
 C1043 C 0.76508 0.15907 0.27237
 C1044 C 0.75165 0.16570 0.25227
 C1045 C 0.74680 0.18776 0.24851
 C1046 C 0.75571 0.20366 0.26454
 C1047 C 0.76799 0.19666 0.28565
 C1048 C 0.77282 0.17452 0.28940
 H1049 H 0.82038 0.05384 0.29986
 H1050 H 0.79713 0.05969 0.22392
 H1051 H 0.81900 0.02779 0.21278
 H1052 H 0.84165 0.02158 0.28939
 H1053 H 0.74560 0.15389 0.23892
 H1054 H 0.73697 0.19234 0.23226
 H1055 H 0.77429 0.20821 0.29901
 H1056 H 0.78312 0.16954 0.30515
 C1057 C 0.31177 0.55583 0.74431
 C1058 C 0.31420 0.56379 0.76851
 C1059 C 0.32623 0.55170 0.78631
 C1060 C 0.33686 0.53235 0.77960
 C1061 C 0.33634 0.52520 0.75463
 C1062 C 0.32239 0.53657 0.73755
 C1063 C 0.30544 0.58501 0.77438
 C1064 C 0.29854 0.60320 0.77794
 C1065 C 0.29072 0.62483 0.78037
 C1066 C 0.28407 0.64342 0.78075
 C1067 C 0.27596 0.66552 0.77892
 C1068 C 0.28782 0.68282 0.78905
 C1069 C 0.28121 0.70437 0.78399
 C1070 C 0.26319 0.70887 0.76790
 C1071 C 0.25042 0.69129 0.75971
 C1072 C 0.25691 0.66985 0.76490
 H1073 H 0.30220 0.56487 0.73043
 H1074 H 0.32776 0.55744 0.80529
 H1075 H 0.34560 0.52334 0.79408
 H1076 H 0.32065 0.53105 0.71852
 H1077 H 0.30247 0.67967 0.80023
 H1078 H 0.29069 0.71745 0.79195
 H1079 H 0.23556 0.69391 0.74883
 H1080 H 0.24737 0.65661 0.75731
 C1081 C 0.30558 0.46229 0.75232
 C1082 C 0.30334 0.45381 0.72834
 C1083 C 0.31389 0.46374 0.70887
 C1084 C 0.32780 0.48114 0.71364
 C1085 C 0.33214 0.48828 0.73823
 C1086 C 0.31950 0.47958 0.75714
 C1087 C 0.29233 0.43352 0.72453
 C1088 C 0.28441 0.41575 0.72261
 C1089 C 0.27668 0.39423 0.72191
 C1090 C 0.27146 0.37541 0.72271
 C1091 C 0.26696 0.35261 0.72543
 C1092 C 0.24699 0.34397 0.71768
 C1093 C 0.24265 0.32199 0.72213
 C1094 C 0.25822 0.30837 0.73451
 C1095 C 0.27834 0.31734 0.74174
 C1096 C 0.28264 0.33915 0.73722
 H1097 H 0.29731 0.45491 0.76754
 H1098 H 0.31192 0.45760 0.69010
 H1099 H 0.33538 0.48849 0.69800
 H1100 H 0.32152 0.48530 0.77607
 H1101 H 0.23466 0.35428 0.70863
 H1102 H 0.22692 0.31586 0.71635
 H1103 H 0.29066 0.30781 0.75176
 H1104 H 0.29809 0.34568 0.74351
 C1105 C 0.80649 0.95892 0.24654
 C1106 C 0.80500 0.95061 0.22245
 C1107 C 0.81560 0.96100 0.20335
 C1108 C 0.82879 0.97885 0.20863
 C1109 C 0.83233 0.98599 0.23337
 C1110 C 0.81969 0.97664 0.25187
 C1111 C 0.79469 0.93005 0.21827
 C1112 C 0.78731 0.91207 0.21640
 C1113 C 0.78016 0.89038 0.21614
 C1114 C 0.77534 0.87151 0.21758
 C1115 C 0.77111 0.84880 0.22128
 C1116 C 0.75153 0.83964 0.21308
 C1117 C 0.74724 0.81787 0.21860
 C1118 C 0.76247 0.80501 0.23250
 C1119 C 0.78224 0.81446 0.24018
 C1120 C 0.78648 0.83609 0.23461
 H1121 H 0.79817 0.95114 0.26146
 H1122 H 0.81420 0.95494 0.18450
 H1123 H 0.83637 0.98662 0.19326
 H1124 H 0.82106 0.98233 0.27087
 H1125 H 0.73944 0.84940 0.20286
 H1126 H 0.73180 0.81134 0.21238
 H1127 H 0.79428 0.80545 0.25124
 H1128 H 0.80162 0.84307 0.24126
 C1129 C 0.68471 0.95053 0.79024
 C1130 C 0.69442 0.93960 0.77065
 C1131 C 0.69265 0.94830 0.74671
 C1132 C 0.68011 0.96710 0.74209
 C1133 C 0.66838 0.97720 0.76116
 C1134 C 0.67217 0.96941 0.78568
 C1135 C 0.70425 0.91839 0.77440
 C1136 C 0.71127 0.90000 0.77632
 C1137 C 0.71806 0.87795 0.77702
 C1138 C 0.72267 0.85883 0.77618
 C1139 C 0.72678 0.83585 0.77332
 C1140 C 0.71134 0.82339 0.76051
 C1141 C 0.71558 0.80149 0.75558
 C1142 C 0.73541 0.79150 0.76340
 C1143 C 0.75066 0.80410 0.77689
 C1144 C 0.74637 0.82614 0.78177
 H1145 H 0.68637 0.94417 0.80898
 H1146 H 0.70034 0.94012 0.73141
 H1147 H 0.67860 0.97322 0.72324
 H1148 H 0.66536 0.97756 0.80145
 H1149 H 0.69619 0.83079 0.75370
 H1150 H 0.70353 0.79270 0.74479
 H1151 H 0.76615 0.79718 0.78317
 H1152 H 0.75850 0.83569 0.79162
 C1153 C 0.19495 0.45117 0.24925
 C1154 C 0.18940 0.43857 0.26959
 C1155 C 0.17187 0.44495 0.28384
 C1156 C 0.15995 0.46393 0.27787
 C1157 C 0.16569 0.47727 0.25779
 C1158 C 0.18305 0.47010 0.24320
 C1159 C 0.20004 0.41784 0.27397
 C1160 C 0.20808 0.39992 0.27639
 C1161 C 0.21620 0.37833 0.27752
 C1162 C 0.22178 0.35945 0.27680
 C1163 C 0.22656 0.33664 0.27374
 C1164 C 0.24640 0.32727 0.28191
 C1165 C 0.25110 0.30533 0.27675
 C1166 C 0.23599 0.29256 0.26328
 C1167 C 0.21597 0.30228 0.25566
 C1168 C 0.21134 0.32401 0.26087
 H1169 H 0.20810 0.44604 0.23763
 H1170 H 0.16695 0.43487 0.29910
 H1171 H 0.14582 0.46756 0.28858
 H1172 H 0.18730 0.47918 0.22689
 H1173 H 0.25839 0.33700 0.29176
 H1174 H 0.26674 0.29860 0.28281
 H1175 H 0.20404 0.29347 0.24474
 H1176 H 0.19603 0.33116 0.25418
 C1177 C 0.05508 0.23293 0.84987
 C1178 C 0.05801 0.24858 0.83147
 C1179 C 0.04175 0.26428 0.82651
 C1180 C 0.02252 0.26409 0.83953
 C1181 C 0.01876 0.24779 0.85737
 C1182 C 0.03585 0.23269 0.86293
 C1183 C 0.07802 0.24895 0.81837
 C1184 C 0.09498 0.24922 0.80781
 C1185 C 0.11520 0.24945 0.79618
 C1186 C 0.13286 0.24955 0.78714
 C1187 C 0.15451 0.24955 0.77778
 C1188 C 0.15881 0.25920 0.75495
 C1189 C 0.18020 0.26029 0.74701
 C1190 C 0.19759 0.25172 0.76182
 C1191 C 0.19288 0.24176 0.78457
 C1192 C 0.17159 0.24063 0.79237
 H1193 H 0.06784 0.22106 0.85440
 H1194 H 0.04400 0.27682 0.81272
 H1195 H 0.01037 0.27670 0.83558
 H1196 H 0.03482 0.22093 0.87774
 H1197 H 0.14570 0.26630 0.74355
 H1198 H 0.18310 0.26841 0.72965
 H1199 H 0.20569 0.23506 0.79667
 H1200 H 0.16852 0.23318 0.81011
 C1201 C 0.56134 0.73886 0.35191
 C1202 C 0.56327 0.75376 0.33253
 C1203 C 0.54682 0.76938 0.32797
 C1204 C 0.52830 0.76970 0.34231
 C1205 C 0.52543 0.75395 0.36103
 C1206 C 0.54286 0.73914 0.36626
 C1207 C 0.58252 0.75334 0.31799
 C1208 C 0.59900 0.75264 0.30649
 C1209 C 0.61884 0.75154 0.29404
 C1210 C 0.63632 0.75043 0.28460
 C1211 C 0.65793 0.74898 0.27516
 C1212 C 0.66280 0.75791 0.25211
 C1213 C 0.68433 0.75802 0.24442
 C1214 C 0.70128 0.74926 0.25976
 C1215 C 0.69596 0.73979 0.28257
 C1216 C 0.67455 0.73960 0.29008
 H1217 H 0.57428 0.72712 0.35616
 H1218 H 0.54834 0.78137 0.31341
 H1219 H 0.51594 0.78215 0.33857
 H1220 H 0.54262 0.72791 0.38167
 H1221 H 0.65007 0.76531 0.24040
 H1222 H 0.68772 0.76567 0.22692
 H1223 H 0.70842 0.73296 0.29505
 H1224 H 0.67104 0.73267 0.30798
 C1225 C 0.53787 0.26943 0.17552
 C1226 C 0.55718 0.25786 0.17141
 C1227 C 0.55747 0.24168 0.15321
 C1228 C 0.53859 0.23676 0.13946
 C1229 C 0.51859 0.24749 0.14407
 C1230 C 0.51890 0.26453 0.16176
 C1231 C 0.57700 0.26280 0.18511
 C1232 C 0.59414 0.26617 0.19581
 C1233 C 0.61481 0.26923 0.20739
 C1234 C 0.63291 0.27101 0.21635
 C1235 C 0.65506 0.27204 0.22578
 C1236 C 0.66100 0.26327 0.24906
 C1237 C 0.68294 0.26124 0.25648
 C1238 C 0.69932 0.26784 0.24062
 C1239 C 0.69302 0.27762 0.21775
 C1240 C 0.67112 0.27971 0.21045
 H1241 H 0.53752 0.28236 0.18918
 H1242 H 0.57246 0.23303 0.14933
 H1243 H 0.54009 0.22494 0.12475
 H1244 H 0.50431 0.27409 0.16490
 H1245 H 0.64873 0.25717 0.26106
 H1246 H 0.68701 0.25352 0.27410
 H1247 H 0.70503 0.28298 0.20499
 H1248 H 0.66677 0.28648 0.19236
 C1249 C 0.05696 0.75620 0.65011
 C1250 C 0.05670 0.75245 0.67566
 C1251 C 0.03740 0.74627 0.68640
 C1252 C 0.01829 0.74449 0.67176
 C1253 C 0.01796 0.74955 0.64611
 C1254 C 0.03796 0.75444 0.63548
 C1255 C 0.07642 0.75483 0.69049
 C1256 C 0.09346 0.75711 0.70182
 C1257 C 0.11404 0.75995 0.71364
 C1258 C 0.13216 0.76236 0.72229
 C1259 C 0.15443 0.76501 0.73062
 C1260 C 0.16223 0.75634 0.75331
 C1261 C 0.18449 0.75664 0.75955
 C1262 C 0.19927 0.76553 0.74309
 C1263 C 0.19100 0.77489 0.72073
 C1264 C 0.16883 0.77471 0.71467
 H1265 H 0.07189 0.76056 0.64145
 H1266 H 0.03713 0.74272 0.70608
 H1267 H 0.00399 0.73887 0.68069
 H1268 H 0.03873 0.75738 0.61572
 H1269 H 0.15125 0.74864 0.76576
 H1270 H 0.19015 0.74900 0.77672
 H1271 H 0.20172 0.78170 0.70737
 H1272 H 0.16304 0.78138 0.69699
 C1273 C 0.94118 0.72898 0.65038
 C1274 C 0.93712 0.74361 0.66959
 C1275 C 0.95200 0.75998 0.67511
 C1276 C 0.97112 0.76132 0.66191
 C1277 C 0.97616 0.74587 0.64341
 C1278 C 0.96024 0.73028 0.63716
 C1279 C 0.91732 0.74204 0.68299
 C1280 C 0.90045 0.74037 0.69356
 C1281 C 0.88028 0.73818 0.70502
 C1282 C 0.86263 0.73631 0.71379
 C1283 C 0.84097 0.73428 0.72278
 C1284 C 0.83546 0.74272 0.74592
 C1285 C 0.81383 0.74272 0.75316
 C1286 C 0.79737 0.73433 0.73729
 C1287 C 0.80334 0.72515 0.71448
 C1288 C 0.82491 0.72508 0.70737
 H1289 H 0.92946 0.71664 0.64539
 H1290 H 0.94881 0.77178 0.68955
 H1291 H 0.98223 0.77432 0.66639
 H1292 H 0.96211 0.71917 0.62181
 H1293 H 0.84775 0.74994 0.75800
 H1294 H 0.80995 0.75010 0.77072
 H1295 H 0.79126 0.71857 0.70166
 H1296 H 0.82893 0.71850 0.68942
 C1297 C 0.45916 0.23408 0.18277
 C1298 C 0.43890 0.23427 0.17025
 C1299 C 0.43782 0.23615 0.14440
 C1300 C 0.45675 0.23863 0.13122
 C1301 C 0.47728 0.23998 0.14360
 C1302 C 0.47820 0.23654 0.16959
 C1303 C 0.41909 0.23291 0.18370
 C1304 C 0.40205 0.23220 0.19410
 C1305 C 0.38154 0.23176 0.20517
 C1306 C 0.36359 0.23166 0.21351
 C1307 C 0.34156 0.23179 0.22187
 C1308 C 0.32496 0.22449 0.20582
 C1309 C 0.30334 0.22614 0.21259
 C1310 C 0.29779 0.23502 0.23571
 C1311 C 0.31467 0.24187 0.25201
 C1312 C 0.33640 0.24028 0.24511
 H1313 H 0.46027 0.23208 0.20274
 H1314 H 0.42228 0.23593 0.13439
 H1315 H 0.45536 0.24015 0.11121
 H1316 H 0.49348 0.23558 0.17997
 H1317 H 0.32870 0.21797 0.18775
 H1318 H 0.29095 0.22072 0.19940
 H1319 H 0.31114 0.24904 0.26978
 H1320 H 0.34909 0.24614 0.25765
 C1321 C 0.44393 0.76044 0.35846
 C1322 C 0.44352 0.75641 0.33294
 C1323 C 0.46284 0.75100 0.32132
 C1324 C 0.48257 0.75028 0.33502
 C1325 C 0.48347 0.75563 0.36059
 C1326 C 0.46355 0.75971 0.37216
 C1327 C 0.42311 0.75757 0.31904
 C1328 C 0.40555 0.75872 0.30845
 C1329 C 0.38440 0.76009 0.29746
 C1330 C 0.36584 0.76109 0.28954
 C1331 C 0.34312 0.76189 0.28221
 C1332 C 0.33609 0.75920 0.25743
 C1333 C 0.31382 0.75823 0.25125
 C1334 C 0.29826 0.76011 0.26977
 C1335 C 0.30572 0.76294 0.29456
 C1336 C 0.32783 0.76401 0.30063
 H1337 H 0.42903 0.76418 0.36781
 H1338 H 0.46265 0.74719 0.30169
 H1339 H 0.49691 0.74520 0.32544
 H1340 H 0.46329 0.76277 0.39194
 H1341 H 0.34779 0.75725 0.24301
 H1342 H 0.30887 0.75526 0.23212
 H1343 H 0.29462 0.76352 0.30966
 H1344 H 0.33304 0.76580 0.31992
 C1345 C 0.93754 0.25574 0.85068
 C1346 C 0.93812 0.25187 0.82516
 C1347 C 0.95783 0.24627 0.81453
 C1348 C 0.97698 0.24508 0.82925
 C1349 C 0.97692 0.25017 0.85488
 C1350 C 0.95660 0.25457 0.86540
 C1351 C 0.91828 0.25324 0.81026
 C1352 C 0.90111 0.25451 0.79887
 C1353 C 0.88029 0.25599 0.78710
 C1354 C 0.86189 0.25710 0.77875
 C1355 C 0.83923 0.25806 0.77125
 C1356 C 0.83226 0.25559 0.74642
 C1357 C 0.80999 0.25480 0.74017
 C1358 C 0.79441 0.25664 0.75867
 C1359 C 0.80184 0.25921 0.78351
 C1360 C 0.82393 0.26011 0.78963
 H1361 H 0.92230 0.25964 0.85925
 H1362 H 0.95839 0.24262 0.79490
 H1363 H 0.99164 0.23983 0.82040
 H1364 H 0.95558 0.25748 0.88514
 H1365 H 0.84398 0.25367 0.73202
 H1366 H 0.80504 0.25202 0.72099
 H1367 H 0.79074 0.25963 0.79861
 H1368 H 0.82910 0.26167 0.80896
 C1369 C 0.60690 1.00271 0.70468
 C1370 C 0.60418 0.98126 0.69662
 C1371 C 0.61624 0.96442 0.70816
 C1372 C 0.63162 0.96906 0.72697
 C1373 C 0.63590 0.99084 0.73402
 C1374 C 0.62229 1.00741 0.72346
 C1375 C 0.58989 0.97678 0.67564
 C1376 C 0.57858 0.97381 0.65731
 C1377 C 0.56613 0.97171 0.63502
 C1378 C 0.55623 0.97152 0.61535
 C1379 C 0.54541 0.97370 0.59138
 C1380 C 0.55337 0.98876 0.57473
 C1381 C 0.54185 0.99363 0.55273
 C1382 C 0.52215 0.98333 0.54665
 C1383 C 0.51471 0.96739 0.56304
 C1384 C 0.52625 0.96266 0.58534
 H1385 H 0.59737 1.01589 0.69616
 H1386 H 0.61388 0.94766 0.70249
 H1387 H 0.63992 0.95538 0.73591
 H1388 H 0.62405 1.02418 0.72932
 H1389 H 0.56806 0.99757 0.57931
 H1390 H 0.54795 1.00641 0.54132
 H1391 H 0.49956 0.95920 0.55915
 H1392 H 0.51985 0.95103 0.59820
 C1393 C 0.13346 0.48649 1.18095
 C1394 C 0.11621 0.47240 1.18404
 C1395 C 0.11107 0.46570 1.20789
 C1396 C 0.12270 0.47365 1.22859
 C1397 C 0.13922 0.48911 1.22596
 C1398 C 0.14511 0.49445 1.20158
 C1399 C 0.10303 0.46609 1.16276
 C1400 C 0.09163 0.46226 1.14473
 C1401 C 0.07774 0.45971 1.12361
 C1402 C 0.06527 0.45949 1.10589
 C1403 C 0.04964 0.46189 1.08557
 C1404 C 0.05408 0.45459 1.06163
 C1405 C 0.04011 0.46046 1.04154
 C1406 C 0.02194 0.47426 1.04509
 C1407 C 0.01700 0.48012 1.06959
 C1408 C 0.03073 0.47404 1.08952
 H1409 H 0.13781 0.49151 1.16252
 H1410 H 0.09790 0.45457 1.21053
 H1411 H 0.11849 0.46809 1.24685
 H1412 H 0.15878 0.50467 1.19818
 H1413 H 0.06868 0.44510 1.05832
 H1414 H 0.04416 0.45498 1.02318
 H1415 H 0.00300 0.49025 1.07354
 H1416 H 0.02708 0.47975 1.10797
 C1417 C -0.12039 0.03872 1.19397
 C1418 C -0.10913 0.02255 1.18121
 C1419 C -0.11078 0.00075 1.18830
 C1420 C -0.12419 -0.00493 1.20755
 C1421 C -0.13690 0.01097 1.21961
 C1422 C -0.13381 0.03309 1.21324
 C1423 C -0.09636 0.02807 1.16036
 C1424 C -0.08598 0.03163 1.14230
 C1425 C -0.07422 0.03406 1.12052
 C1426 C -0.06455 0.03417 1.10148
 C1427 C -0.05361 0.03148 1.07852
 C1428 C -0.03478 0.04288 1.07352
 C1429 C -0.02260 0.03721 1.05289
 C1430 C -0.02904 0.01990 1.03725
 C1431 C -0.04849 0.00927 1.04213
 C1432 C -0.06069 0.01512 1.06239
 H1433 H -0.11882 0.05572 1.18900
 H1434 H -0.10184 -0.01191 1.17880
 H1435 H -0.12503 -0.02193 1.21276
 H1436 H -0.14144 0.04628 1.22317
 H1437 H -0.02904 0.05548 1.08604
 H1438 H -0.00768 0.04572 1.04989
 H1439 H -0.05379 -0.00453 1.03136
 H1440 H -0.07509 0.00599 1.06625
 C1441 C 0.38247 0.53835 0.69842
 C1442 C 0.39279 0.52167 0.68548
 C1443 C 0.38950 0.49996 0.69198
 C1444 C 0.37557 0.49494 0.71099
 C1445 C 0.36399 0.51148 0.72346
 C1446 C 0.36853 0.53339 0.71744
 C1447 C 0.40658 0.52670 0.66532
 C1448 C 0.41782 0.53017 0.64794
 C1449 C 0.43053 0.53292 0.62693
 C1450 C 0.44087 0.53369 0.60839
 C1451 C 0.45240 0.53224 0.58567
 C1452 C 0.44444 0.51840 0.56712
 C1453 C 0.45662 0.51399 0.54641
 C1454 C 0.47700 0.52359 0.54355
 C1455 C 0.48450 0.53829 0.56185
 C1456 C 0.47227 0.54254 0.58286
 H1457 H 0.38532 0.55526 0.69394
 H1458 H 0.39773 0.48688 0.68236
 H1459 H 0.37365 0.47799 0.71592
 H1460 H 0.36185 0.54694 0.72764
 H1461 H 0.42918 0.51020 0.56918
 H1462 H 0.45030 0.50230 0.53312
 H1463 H 0.50021 0.54571 0.56060
 H1464 H 0.47868 0.55316 0.59727
 C1465 C 0.39705 0.50236 -0.20617
 C1466 C 0.39750 0.48038 -0.19935
 C1467 C 0.38324 0.46597 -0.21108
 C1468 C 0.36800 0.47362 -0.22893
 C1469 C 0.36614 0.49611 -0.23479
 C1470 C 0.38182 0.51006 -0.22400
 C1471 C 0.41159 0.47304 -0.17914
 C1472 C 0.42267 0.46788 -0.16119
 C1473 C 0.43468 0.46355 -0.13897
 C1474 C 0.44396 0.46182 -0.11904
 C1475 C 0.45365 0.46265 -0.09445
 C1476 C 0.47383 0.45279 -0.08851
 C1477 C 0.48428 0.45700 -0.06552
 C1478 C 0.47469 0.47129 -0.04840
 C1479 C 0.45404 0.48039 -0.05449
 C1480 C 0.44359 0.47593 -0.07710
 H1481 H 0.40824 0.51364 -0.19741
 H1482 H 0.38375 0.44882 -0.20628
 H1483 H 0.35796 0.46164 -0.23814
 H1484 H 0.38191 0.52715 -0.22900
 H1485 H 0.48189 0.44267 -0.10199
 H1486 H 0.50032 0.45007 -0.06184
 H1487 H 0.44624 0.49196 -0.04237
 H1488 H 0.42811 0.48387 -0.08161
 C1489 C -0.10584 1.00400 0.29183
 C1490 C -0.10437 0.98206 0.29881
 C1491 C -0.11717 0.96679 0.28632
 C1492 C -0.13202 0.97348 0.26758
 C1493 C -0.13501 0.99584 0.26155
 C1494 C -0.12069 1.01075 0.27310
 C1495 C -0.09084 0.97554 0.31988
 C1496 C -0.08035 0.97086 0.33844
 C1497 C -0.06912 0.96685 0.36126
 C1498 C -0.06057 0.96525 0.38162
 C1499 C -0.05184 0.96611 0.40666
 C1500 C -0.03155 0.95687 0.41345
 C1501 C -0.02205 0.96124 0.43691
 C1502 C -0.03269 0.97508 0.45368
 C1503 C -0.05346 0.98347 0.44675
 C1504 C -0.06297 0.97883 0.42367
 H1505 H -0.09577 1.01597 0.30117
 H1506 H -0.11586 0.94968 0.29123
 H1507 H -0.14093 0.96091 0.25790
 H1508 H -0.12147 1.02783 0.26803
 H1509 H -0.02267 0.94716 0.40027
 H1510 H -0.00588 0.95487 0.44124
 H1511 H -0.06204 0.99471 0.45854
 H1512 H -0.07855 0.98629 0.41854
 C1513 C 0.13289 0.51822 0.31251
 C1514 C 0.11081 0.52261 0.30781
 C1515 C 0.10186 0.51971 0.28390
 C1516 C 0.11479 0.51181 0.26491
 C1517 C 0.13684 0.50590 0.26972
 C1518 C 0.14582 0.51032 0.29362
 C1519 C 0.09728 0.52869 0.32804
 C1520 C 0.08652 0.53249 0.34584
 C1521 C 0.07473 0.53509 0.36768
 C1522 C 0.06558 0.53538 0.38709
 C1523 C 0.05600 0.53303 0.41091
 C1524 C 0.03565 0.54219 0.41601
 C1525 C 0.02553 0.53688 0.43812
 C1526 C 0.03562 0.52222 0.45524
 C1527 C 0.05634 0.51367 0.44995
 C1528 C 0.06646 0.51921 0.42823
 H1529 H 0.14008 0.52060 0.33091
 H1530 H 0.08483 0.52341 0.27995
 H1531 H 0.10738 0.51056 0.24653
 H1532 H 0.16289 0.50716 0.29782
 H1533 H 0.02726 0.55270 0.40254
 H1534 H 0.00939 0.54336 0.44110
 H1535 H 0.06450 0.50180 0.46200
 H1536 H 0.08207 0.51178 0.42436
 C1537 C 0.61351 -0.00460 -0.19161
 C1538 C 0.61321 0.01703 -0.18351
 C1539 C 0.62492 0.03262 -0.19602
 C1540 C 0.63755 0.02648 -0.21601
 C1541 C 0.63931 0.00438 -0.22342
 C1542 C 0.62608 -0.01077 -0.21159
 C1543 C 0.60078 0.02307 -0.16237
 C1544 C 0.59024 0.02715 -0.14447
 C1545 C 0.57754 0.03036 -0.12344
 C1546 C 0.56624 0.03133 -0.10565
 C1547 C 0.55219 0.02988 -0.08497
 C1548 C 0.55897 0.03650 -0.06113
 C1549 C 0.54691 0.03084 -0.04058
 C1550 C 0.52838 0.01784 -0.04358
 C1551 C 0.52088 0.01294 -0.06792
 C1552 C 0.53269 0.01889 -0.08834
 H1553 H 0.60408 -0.01674 -0.18241
 H1554 H 0.62425 0.04956 -0.19040
 H1555 H 0.64557 0.03929 -0.22569
 H1556 H 0.62587 -0.02761 -0.21758
 H1557 H 0.57406 0.04507 -0.05829
 H1558 H 0.55287 0.03555 -0.02229
 H1559 H 0.50649 0.00344 -0.07140
 H1560 H 0.52723 0.01375 -0.10671
 C1561 C 0.70189 0.56584 -0.03229
 C1562 C 0.69223 0.55521 -0.01268
 C1563 C 0.70081 0.55741 0.01146
 C1564 C 0.71840 0.57090 0.01617
 C1565 C 0.72741 0.58312 -0.00306
 C1566 C 0.71959 0.57937 -0.02764
 C1567 C 0.67267 0.54320 -0.01681
 C1568 C 0.65569 0.53392 -0.01908
 C1569 C 0.63524 0.52406 -0.02038
 C1570 C 0.61733 0.51660 -0.02038
 C1571 C 0.59554 0.50890 -0.01912
 C1572 C 0.58945 0.49703 0.00157
 C1573 C 0.56767 0.49214 0.00460
 C1574 C 0.55158 0.49945 -0.01282
 C1575 C 0.55815 0.51010 -0.03436
 C1576 C 0.57994 0.51503 -0.03733
 H1577 H 0.69559 0.56389 -0.05115
 H1578 H 0.69359 0.54906 0.02677
 H1579 H 0.72460 0.57247 0.03511
 H1580 H 0.72697 0.58669 -0.04342
 H1581 H 0.60142 0.49219 0.01579
 H1582 H 0.56341 0.48344 0.02116
 H1583 H 0.54654 0.51494 -0.04882
 H1584 H 0.58452 0.52413 -0.05351
 C1585 C 0.18264 1.08846 0.48313
 C1586 C 0.18206 1.06731 0.49263
 C1587 C 0.20026 1.05853 0.50547
 C1588 C 0.21903 1.07082 0.50875
 C1589 C 0.22016 1.09205 0.49870
 C1590 C 0.20133 1.10079 0.48642
 C1591 C 0.16225 1.05527 0.49061
 C1592 C 0.14530 1.04578 0.48932
 C1593 C 0.12504 1.03542 0.48832
 C1594 C 0.10738 1.02729 0.48797
 C1595 C 0.08589 1.01854 0.48821
 C1596 C 0.07969 1.00593 0.50829
 C1597 C 0.05813 0.99958 0.51001
 C1598 C 0.04230 1.00624 0.49193
 C1599 C 0.04907 1.01771 0.47104
 C1600 C 0.07065 1.02398 0.46931
 H1601 H 0.16847 1.09562 0.47363
 H1602 H 0.19976 1.04237 0.51351
 H1603 H 0.23227 1.06382 0.51993
 H1604 H 0.20105 1.11737 0.47955
 H1605 H 0.09135 1.00158 0.52303
 H1606 H 0.05373 0.99040 0.52617
 H1607 H 0.03771 1.02227 0.45619
 H1608 H 0.07533 1.03356 0.45353
 C1609 C 0.19340 -0.07439 1.01307
 C1610 C 0.19507 -0.05748 1.03025
 C1611 C 0.21536 -0.05234 1.04085
 C1612 C 0.23398 -0.06389 1.03374
 C1613 C 0.23274 -0.08029 1.01529
 C1614 C 0.21183 -0.08590 1.00601
 C1615 C 0.17551 -0.04596 1.03657
 C1616 C 0.15790 -0.03778 1.03969
 C1617 C 0.13628 -0.03005 1.04067
 C1618 C 0.11729 -0.02508 1.03917
 C1619 C 0.09444 -0.02115 1.03458
 C1620 C 0.08410 -0.00192 1.04218
 C1621 C 0.06234 0.00227 1.03502
 C1622 C 0.05074 -0.01268 1.02001
 C1623 C 0.06137 -0.03213 1.01308
 C1624 C 0.08290 -0.03631 1.02036
 H1625 H 0.17768 -0.07891 1.00525
 H1626 H 0.21678 -0.03957 1.05463
 H1627 H 0.24945 -0.06000 1.04258
 H1628 H 0.20931 -0.09955 0.99367
 H1629 H 0.09295 0.01004 1.05304
 H1630 H 0.05488 0.01749 1.04067
 H1631 H 0.05349 -0.04385 1.00104
 H1632 H 0.09082 -0.05114 1.01410
 C1633 C 0.69864 0.43219 0.50573
 C1634 C 0.70111 0.44942 0.52237
 C1635 C 0.72165 0.45388 0.53276
 C1636 C 0.73968 0.44117 0.52615
 C1637 C 0.73762 0.42417 0.50852
 C1638 C 0.71647 0.41951 0.49921
 C1639 C 0.68199 0.46162 0.52880
 C1640 C 0.66460 0.47013 0.53226
 C1641 C 0.64308 0.47799 0.53392
 C1642 C 0.62406 0.48289 0.53326
 C1643 C 0.60105 0.48661 0.52996
 C1644 C 0.59083 0.50553 0.53860
 C1645 C 0.56867 0.50931 0.53319
 C1646 C 0.55653 0.49424 0.51895
 C1647 C 0.56710 0.47513 0.51085
 C1648 C 0.58906 0.47136 0.51636
 H1649 H 0.68270 0.42822 0.49810
 H1650 H 0.72368 0.46692 0.54612
 H1651 H 0.75534 0.44451 0.53491
 H1652 H 0.71322 0.40562 0.48747
 H1653 H 0.60003 0.51753 0.54902
 H1654 H 0.56127 0.52429 0.53966
 H1655 H 0.55874 0.46333 0.49935
 H1656 H 0.59685 0.45675 0.50936
 C1657 C -0.18391 0.41993 0.48541
 C1658 C -0.18399 0.44243 0.48171
 C1659 C -0.20344 0.45441 0.48305
 C1660 C -0.22259 0.44402 0.48920
 C1661 C -0.22240 0.42154 0.49497
 C1662 C -0.20291 0.40956 0.49159
 C1663 C -0.16375 0.45311 0.47810
 C1664 C -0.14621 0.46121 0.47634
 C1665 C -0.12513 0.46973 0.47572
 C1666 C -0.10680 0.47623 0.47642
 C1667 C -0.08464 0.48312 0.47864
 C1668 C -0.07800 0.49604 0.49875
 C1669 C -0.05607 0.50072 0.50269
 C1670 C -0.04033 0.49232 0.48669
 C1671 C -0.04739 0.48028 0.46581
 C1672 C -0.06934 0.47553 0.46197
 H1673 H -0.16901 0.41041 0.48408
 H1674 H -0.20377 0.47181 0.47964
 H1675 H -0.23735 0.45377 0.48935
 H1676 H -0.20228 0.39211 0.49465
 H1677 H -0.08971 0.50198 0.51181
 H1678 H -0.05144 0.51021 0.51888
 H1679 H -0.03601 0.47422 0.45258
 H1680 H -0.07431 0.46553 0.44629
 C1681 C 0.31126 -0.07905 -0.00764
 C1682 C 0.31023 -0.05638 -0.00937
 C1683 C 0.29027 -0.04540 -0.00741
 C1684 C 0.27154 -0.05706 -0.00252
 C1685 C 0.27273 -0.07985 0.00144
 C1686 C 0.29273 -0.09066 -0.00264
 C1687 C 0.33013 -0.04479 -0.01160
 C1688 C 0.34768 -0.03660 -0.01243
 C1689 C 0.36900 -0.02866 -0.01237
 C1690 C 0.38766 -0.02318 -0.01164
 C1691 C 0.41032 -0.01800 -0.01014
 C1692 C 0.41916 -0.00817 0.01121
 C1693 C 0.44154 -0.00511 0.01368
 C1694 C 0.45548 -0.01225 -0.00500
 C1695 C 0.44623 -0.02132 -0.02678
 C1696 C 0.42386 -0.02432 -0.02924
 H1697 H 0.32657 -0.08777 -0.00949
 H1698 H 0.28923 -0.02784 -0.00932
 H1699 H 0.25635 -0.04807 -0.00179
 H1700 H 0.29416 -0.10821 -0.00091
 H1701 H 0.40883 -0.00330 0.02617
 H1702 H 0.44792 0.00226 0.03058
 H1703 H 0.45617 -0.02625 -0.04196
 H1704 H 0.41718 -0.03192 -0.04587
 C1705 C 0.28803 1.06650 0.50347
 C1706 C 0.30144 1.07406 0.52291
 C1707 C 0.29464 1.09173 0.53718
 C1708 C 0.27455 1.10195 0.53196
 C1709 C 0.26053 1.09434 0.51263
 C1710 C 0.26795 1.07666 0.49820
 C1711 C 0.32288 1.06477 0.52684
 C1712 C 0.34102 1.05723 0.52918
 C1713 C 0.36237 1.04854 0.53065
 C1714 C 0.38061 1.04115 0.53062
 C1715 C 0.40226 1.03227 0.52884
 C1716 C 0.42019 1.04377 0.53806
 C1717 C 0.44124 1.03626 0.53346
 C1718 C 0.44461 1.01762 0.51874
 C1719 C 0.42644 1.00526 0.51147
 C1720 C 0.40546 1.01269 0.51618
 H1721 H 0.29335 1.05313 0.49191
 H1722 H 0.30517 1.09809 0.55184
 H1723 H 0.27060 1.11636 0.54251
 H1724 H 0.25831 1.07101 0.48240
 H1725 H 0.41791 1.05879 0.54828
 H1726 H 0.45480 1.04543 0.54087
 H1727 H 0.42825 0.98996 0.50175
 H1728 H 0.39171 1.00341 0.50937
 C1729 C -0.20887 0.55436 1.00036
 C1730 C -0.19952 0.55450 1.02430
 C1731 C -0.20877 0.56740 1.04267
 C1732 C -0.22667 0.58103 1.03676
 C1733 C -0.23502 0.58261 1.01204
 C1734 C -0.22658 0.56799 0.99438
 C1735 C -0.17908 0.54333 1.02876
 C1736 C -0.16125 0.53504 1.03046
 C1737 C -0.13980 0.52676 1.03013
 C1738 C -0.12117 0.52106 1.02798
 C1739 C -0.09882 0.51603 1.02338
 C1740 C -0.08886 0.49660 1.03174
 C1741 C -0.06724 0.49194 1.02617
 C1742 C -0.05532 0.50668 1.01213
 C1743 C -0.06568 0.52615 1.00394
 C1744 C -0.08716 0.53073 1.00949
 H1745 H -0.20196 0.54431 0.98600
 H1746 H -0.20183 0.56735 1.06141
 H1747 H -0.23361 0.59034 1.05161
 H1748 H -0.23315 0.56793 0.97549
 H1749 H -0.09780 0.48505 1.04243
 H1750 H -0.05995 0.47679 1.03287
 H1751 H -0.05735 0.53789 0.99295
 H1752 H -0.09477 0.54576 1.00275
 C1753 C 0.01186 0.70971 0.57401
 C1754 C 0.01155 0.68930 0.58551
 C1755 C 0.00747 0.68798 0.61081
 C1756 C 0.00311 0.70686 0.62436
 C1757 C 0.00205 0.72757 0.61283
 C1758 C 0.00752 0.72868 0.58756
 C1759 C 0.01522 0.66960 0.57152
 C1760 C 0.01784 0.65273 0.56040
 C1761 C 0.02037 0.63249 0.54816
 C1762 C 0.02201 0.61480 0.53852
 C1763 C 0.02327 0.59316 0.52815
 C1764 C 0.03296 0.57624 0.54219
 C1765 C 0.03178 0.55474 0.53385
 C1766 C 0.02089 0.54970 0.51120
 C1767 C 0.01208 0.56699 0.49665
 C1768 C 0.01321 0.58853 0.50512
 H1769 H 0.01555 0.71100 0.55456
 H1770 H 0.00756 0.67231 0.62008
 H1771 H 0.00015 0.70531 0.64397
 H1772 H 0.00886 0.74409 0.57811
 H1773 H 0.04074 0.57957 0.56009
 H1774 H 0.03881 0.54200 0.54565
 H1775 H 0.00344 0.56387 0.47926
 H1776 H 0.00553 0.60147 0.49412
 C1777 C 0.49756 0.20184 0.07344
 C1778 C 0.50427 0.18274 0.08582
 C1779 C 0.50738 0.18294 0.11163
 C1780 C 0.50468 0.20232 0.12486
 C1781 C 0.49951 0.22217 0.11253
 C1782 C 0.49484 0.22128 0.08665
 C1783 C 0.50793 0.16286 0.07219
 C1784 C 0.51116 0.14597 0.06134
 C1785 C 0.51485 0.12574 0.04951
 C1786 C 0.51766 0.10799 0.04039
 C1787 C 0.52031 0.08614 0.03101
 C1788 C 0.52549 0.06925 0.04767
 C1789 C 0.52501 0.04761 0.03980
 C1790 C 0.51960 0.04236 0.01490
 C1791 C 0.51535 0.05959 -0.00199
 C1792 C 0.51569 0.08130 0.00602
 H1793 H 0.49444 0.20173 0.05354
 H1794 H 0.51208 0.16814 0.12153
 H1795 H 0.50730 0.20202 0.14483
 H1796 H 0.48896 0.23542 0.07638
 H1797 H 0.52886 0.07275 0.06712
 H1798 H 0.52759 0.03509 0.05374
 H1799 H 0.51056 0.05631 -0.02110
 H1800 H 0.51143 0.09423 -0.00703
 C1801 C -0.01549 0.20995 0.92640
 C1802 C -0.01356 0.18959 0.91503
 C1803 C -0.00872 0.18840 0.88990
 C1804 C -0.00527 0.20742 0.87639
 C1805 C -0.00582 0.22811 0.88790
 C1806 C -0.01202 0.22901 0.91295
 C1807 C -0.01600 0.16987 0.92919
 C1808 C -0.01723 0.15306 0.94067
 C1809 C -0.01746 0.13288 0.95337
 C1810 C -0.01628 0.11518 0.96316
 C1811 C -0.01279 0.09351 0.97307
 C1812 C 0.00612 0.08227 0.96691
 C1813 C 0.00957 0.06074 0.97433
 C1814 C -0.00587 0.04975 0.98825
 C1815 C -0.02463 0.06147 0.99515
 C1816 C -0.02813 0.08318 0.98746
 H1817 H -0.01973 0.21113 0.94571
 H1818 H -0.00750 0.17274 0.88073
 H1819 H -0.00180 0.20600 0.85689
 H1820 H -0.01460 0.24435 0.92231
 H1821 H 0.01810 0.09001 0.95575
 H1822 H 0.02423 0.05267 0.96836
 H1823 H -0.03709 0.05365 1.00540
 H1824 H -0.04296 0.09169 0.99223
 C1825 C 0.50075 0.69467 0.39588
 C1826 C 0.49738 0.69599 0.42136
 C1827 C 0.49548 0.71642 0.43259
 C1828 C 0.49761 0.73544 0.41861
 C1829 C 0.50246 0.73443 0.39313
 C1830 C 0.50289 0.71363 0.38187
 C1831 C 0.49587 0.67633 0.43583
 C1832 C 0.49489 0.65952 0.44735
 C1833 C 0.49402 0.63929 0.45983
 C1834 C 0.49347 0.62146 0.46922
 C1835 C 0.49302 0.59941 0.47845
 C1836 C 0.50297 0.59359 0.50132
 C1837 C 0.50454 0.57161 0.50848
 C1838 C 0.49625 0.55518 0.49276
 C1839 C 0.48574 0.56146 0.47015
 C1840 C 0.48405 0.58331 0.46320
 H1841 H 0.50179 0.67895 0.38681
 H1842 H 0.49223 0.71768 0.45217
 H1843 H 0.49509 0.75081 0.42792
 H1844 H 0.50532 0.71209 0.36214
 H1845 H 0.51013 0.60592 0.51323
 H1846 H 0.51302 0.56749 0.52579
 H1847 H 0.47930 0.54945 0.45733
 H1848 H 0.47642 0.58756 0.44540
 C1849 C 0.49810 0.81386 0.40232
 C1850 C 0.51330 0.81375 0.42215
 C1851 C 0.52666 0.79537 0.42632
 C1852 C 0.52416 0.77689 0.41133
 C1853 C 0.50768 0.77607 0.39244
 C1854 C 0.49557 0.79545 0.38735
 C1855 C 0.51478 0.83258 0.43811
 C1856 C 0.51483 0.84881 0.45078
 C1857 C 0.51348 0.86843 0.46447
 C1858 C 0.51102 0.88572 0.47476
 C1859 C 0.50643 0.90701 0.48486
 C1860 C 0.52127 0.91770 0.50069
 C1861 C 0.51740 0.93947 0.50753
 C1862 C 0.49880 0.95093 0.49824
 C1863 C 0.48352 0.93945 0.48346
 C1864 C 0.48734 0.91782 0.47687
 H1865 H 0.48808 0.82823 0.39843
 H1866 H 0.53886 0.79523 0.44127
 H1867 H 0.53470 0.76286 0.41495
 H1868 H 0.48411 0.79666 0.37178
 H1869 H 0.53619 0.90953 0.50694
 H1870 H 0.52970 0.94763 0.51862
 H1871 H 0.46894 0.94732 0.47584
 H1872 H 0.47572 0.90977 0.46460
 C1873 C -0.00783 0.30766 0.89808
 C1874 C 0.00712 0.30700 0.91816
 C1875 C 0.01951 0.28804 0.92276
 C1876 C 0.01643 0.26964 0.90781
 C1877 C 0.00039 0.26953 0.88839
 C1878 C -0.01093 0.28933 0.88312
 C1879 C 0.00979 0.32607 0.93350
 C1880 C 0.01124 0.34264 0.94543
 C1881 C 0.01209 0.36285 0.95798
 C1882 C 0.01214 0.38083 0.96704
 C1883 C 0.01141 0.40316 0.97529
 C1884 C 0.00850 0.40871 1.00020
 C1885 C 0.00597 0.43067 1.00705
 C1886 C 0.00639 0.44733 0.98907
 C1887 C 0.00920 0.44129 0.96412
 C1888 C 0.01194 0.41955 0.95742
 H1889 H -0.01704 0.32249 0.89384
 H1890 H 0.03155 0.28747 0.93786
 H1891 H 0.02638 0.25522 0.91163
 H1892 H -0.02201 0.29102 0.86725
 H1893 H 0.00763 0.39610 1.01417
 H1894 H 0.00302 0.43451 1.02625
 H1895 H 0.00854 0.45317 0.94932
 H1896 H 0.01376 0.41549 0.93802
 C1897 C 0.50993 0.28700 0.07891
 C1898 C 0.49338 0.30249 0.08217
 C1899 C 0.47833 0.29935 0.10059
 C1900 C 0.47946 0.28061 0.11533
 C1901 C 0.49536 0.26413 0.11148
 C1902 C 0.51109 0.26821 0.09361
 C1903 C 0.49227 0.32207 0.06738
 C1904 C 0.49120 0.33880 0.05560
 C1905 C 0.48993 0.35888 0.04275
 C1906 C 0.48894 0.37654 0.03291
 C1907 C 0.48800 0.39831 0.02287
 C1908 C 0.47848 0.41499 0.03663
 C1909 C 0.47981 0.43661 0.02897
 C1910 C 0.49062 0.44201 0.00722
 C1911 C 0.49930 0.42498 -0.00714
 C1912 C 0.49805 0.40328 0.00070
 H1913 H 0.52204 0.28951 0.06513
 H1914 H 0.46585 0.31159 0.10383
 H1915 H 0.46806 0.27950 0.13004
 H1916 H 0.52427 0.25663 0.09090
 H1917 H 0.47070 0.41136 0.05385
 H1918 H 0.47295 0.44914 0.04063
 H1919 H 0.50789 0.42841 -0.02383
 H1920 H 0.50559 0.39049 -0.01007
 C1921 C -0.00014 0.80761 0.60497
 C1922 C -0.01453 0.80720 0.58441
 C1923 C -0.02583 0.78815 0.57887
 C1924 C -0.02216 0.76941 0.59339
 C1925 C -0.00649 0.76905 0.61319
 C1926 C 0.00358 0.78895 0.61943
 C1927 C -0.01765 0.82656 0.56940
 C1928 C -0.01950 0.84328 0.55764
 C1929 C -0.02092 0.86348 0.54496
 C1930 C -0.02161 0.88126 0.53532
 C1931 C -0.02189 0.90316 0.52554
 C1932 C -0.03119 0.91996 0.53932
 C1933 C -0.02925 0.94160 0.53193
 C1934 C -0.01805 0.94694 0.51043
 C1935 C -0.00945 0.92984 0.49613
 C1936 C -0.01131 0.90810 0.50369
 H1937 H 0.00820 0.82246 0.60995
 H1938 H -0.03743 0.78775 0.56334
 H1939 H -0.03125 0.75494 0.58884
 H1940 H 0.01422 0.79043 0.63566
 H1941 H -0.03934 0.91638 0.55632
 H1942 H -0.03614 0.95417 0.54352
 H1943 H -0.00059 0.93322 0.47962
 H1944 H -0.00390 0.89524 0.49292
 C1945 C 0.21930 0.35500 0.03812
 C1946 C 0.22495 0.35957 0.06285
 C1947 C 0.23810 0.37732 0.06857
 C1948 C 0.24607 0.39015 0.04964
 C1949 C 0.24161 0.38506 0.02443
 C1950 C 0.22718 0.36787 0.01915
 C1951 C 0.21816 0.34565 0.08249
 C1952 C 0.21385 0.33416 0.09967
 C1953 C 0.21081 0.32110 0.12074
 C1954 C 0.21036 0.31052 0.13953
 C1955 C 0.21280 0.29896 0.16266
 C1956 C 0.22656 0.30766 0.18102
 C1957 C 0.23266 0.29541 0.20186
 C1958 C 0.22476 0.27423 0.20514
 C1959 C 0.21004 0.26594 0.18707
 C1960 C 0.20418 0.27822 0.16586
 H1961 H 0.20890 0.34145 0.03350
 H1962 H 0.24224 0.38125 0.08773
 H1963 H 0.25551 0.40417 0.05496
 H1964 H 0.22226 0.36419 0.00016
 H1965 H 0.23358 0.32356 0.17858
 H1966 H 0.24444 0.30231 0.21480
 H1967 H 0.20397 0.24958 0.18858
 H1968 H 0.19374 0.27119 0.15153
 C1969 C 0.71477 0.85162 0.53712
 C1970 C 0.71994 0.85698 0.56177
 C1971 C 0.73200 0.87556 0.56710
 C1972 C 0.73945 0.88841 0.54790
 C1973 C 0.73562 0.88253 0.52281
 C1974 C 0.72217 0.86450 0.51785
 C1975 C 0.71392 0.84305 0.58177
 C1976 C 0.71033 0.83165 0.59931
 C1977 C 0.70818 0.81879 0.62074
 C1978 C 0.70843 0.80840 0.63971
 C1979 C 0.71154 0.79697 0.66289
 C1980 C 0.72587 0.80569 0.68068
 C1981 C 0.73230 0.79360 0.70155
 C1982 C 0.72423 0.77256 0.70538
 C1983 C 0.70897 0.76428 0.68792
 C1984 C 0.70274 0.77641 0.66670
 H1985 H 0.70518 0.83742 0.53277
 H1986 H 0.73574 0.88011 0.58617
 H1987 H 0.74804 0.90305 0.55292
 H1988 H 0.71765 0.86018 0.49893
 H1989 H 0.73297 0.82149 0.67781
 H1990 H 0.74435 0.80053 0.71414
 H1991 H 0.70266 0.74807 0.68994
 H1992 H 0.69181 0.76939 0.65286
 C1993 C 0.25346 0.63739 0.55863
 C1994 C 0.27526 0.64002 0.56575
 C1995 C 0.29142 0.62882 0.55315
 C1996 C 0.28580 0.61468 0.53375
 C1997 C 0.26375 0.61089 0.52707
 C1998 C 0.24779 0.62326 0.53931
 C1999 C 0.28070 0.65402 0.58632
 C2000 C 0.28387 0.66555 0.60409
 C2001 C 0.28549 0.67866 0.62549
 C2002 C 0.28470 0.68935 0.64417
 C2003 C 0.28079 0.70120 0.66660
 C2004 C 0.29325 0.71907 0.67397
 C2005 C 0.28733 0.73153 0.69457
 C2006 C 0.26888 0.72620 0.70797
 C2007 C 0.25676 0.70802 0.70032
 C2008 C 0.26278 0.69560 0.68005
 H2009 H 0.24080 0.64625 0.56803
 H2010 H 0.30839 0.63111 0.55820
 H2011 H 0.29892 0.60720 0.52383
 H2012 H 0.23078 0.62180 0.53397
 H2013 H 0.30712 0.72371 0.66347
 H2014 H 0.29684 0.74561 0.69960
 H2015 H 0.24202 0.70370 0.70920
 H2016 H 0.25281 0.68200 0.67429
 C2017 C 0.77120 0.10750 0.06960
 C2018 C 0.76585 0.12959 0.07189
 C2019 C 0.75534 0.14062 0.05211
 C2020 C 0.75093 0.12991 0.02973
 C2021 C 0.75764 0.10799 0.02636
 C2022 C 0.76678 0.09671 0.04722
 C2023 C 0.77076 0.14115 0.09451
 C2024 C 0.77421 0.15185 0.11289
 C2025 C 0.77701 0.16556 0.13366
 C2026 C 0.77790 0.17828 0.15063
 C2027 C 0.77672 0.19453 0.16974
 C2028 C 0.78548 0.19078 0.19368
 C2029 C 0.78131 0.20567 0.21271
 C2030 C 0.76784 0.22415 0.20812
 C2031 C 0.76044 0.22832 0.18351
 C2032 C 0.76482 0.21364 0.16459
 H2033 H 0.77887 0.09864 0.08502
 H2034 H 0.75047 0.15758 0.05400
 H2035 H 0.74207 0.13893 0.01535
 H2036 H 0.77110 0.07958 0.04584
 H2037 H 0.79483 0.17604 0.19784
 H2038 H 0.78782 0.20211 0.23117
 H2039 H 0.75043 0.24247 0.17877
 H2040 H 0.75808 0.21677 0.14607
 C2041 C 0.75348 0.14292 0.95447
 C2042 C 0.73480 0.13894 0.93985
 C2043 C 0.72273 0.12039 0.94419
 C2044 C 0.72882 0.10623 0.96356
 C2045 C 0.74680 0.11070 0.97970
 C2046 C 0.75962 0.12877 0.97390
 C2047 C 0.72872 0.15306 0.91938
 C2048 C 0.72407 0.16433 0.90161
 C2049 C 0.71978 0.17673 0.87992
 C2050 C 0.71775 0.18647 0.86055
 C2051 C 0.71796 0.19677 0.83661
 C2052 C 0.70804 0.21717 0.83198
 C2053 C 0.71158 0.22813 0.80964
 C2054 C 0.72522 0.21883 0.79187
 C2055 C 0.73439 0.19798 0.79665
 C2056 C 0.73059 0.18703 0.81858
 H2057 H 0.76337 0.15690 0.95078
 H2058 H 0.70872 0.11668 0.93236
 H2059 H 0.71942 0.09167 0.96544
 H2060 H 0.77423 0.13216 0.98484
 H2061 H 0.69839 0.22497 0.84599
 H2062 H 0.70463 0.24431 0.80698
 H2063 H 0.74556 0.19039 0.78409
 H2064 H 0.73855 0.17138 0.82205
 C2065 C 0.25527 0.64307 0.45710
 C2066 C 0.23323 0.64477 0.45028
 C2067 C 0.21840 0.63131 0.46149
 C2068 C 0.22562 0.61578 0.47899
 C2069 C 0.24804 0.61284 0.48505
 C2070 C 0.26254 0.62757 0.47458
 C2071 C 0.22616 0.65951 0.43077
 C2072 C 0.22131 0.67123 0.41345
 C2073 C 0.21746 0.68400 0.39196
 C2074 C 0.21629 0.69379 0.37258
 C2075 C 0.21799 0.70371 0.34859
 C2076 C 0.23167 0.69352 0.33192
 C2077 C 0.23675 0.70387 0.31003
 C2078 C 0.22783 0.72456 0.30389
 C2079 C 0.21326 0.73438 0.32031
 C2080 C 0.20844 0.72403 0.34265
 H2081 H 0.26691 0.65359 0.44871
 H2082 H 0.20123 0.63276 0.45665
 H2083 H 0.21339 0.60643 0.48787
 H2084 H 0.27968 0.62677 0.47971
 H2085 H 0.23934 0.67791 0.33642
 H2086 H 0.24844 0.69584 0.29843
 H2087 H 0.20640 0.75044 0.31652
 H2088 H 0.19797 0.73218 0.35561
 C2089 C 0.76479 0.88250 0.43703
 C2090 C 0.77159 0.86081 0.44011
 C2091 C 0.76990 0.85068 0.46317
 C2092 C 0.76086 0.86202 0.48292
 C2093 C 0.75255 0.88351 0.47969
 C2094 C 0.75570 0.89383 0.45667
 C2095 C 0.77880 0.84867 0.41903
 C2096 C 0.78340 0.83879 0.40058
 C2097 C 0.78676 0.82762 0.37817
 C2098 C 0.78756 0.81850 0.35843
 C2099 C 0.78572 0.80827 0.33451
 C2100 C 0.79444 0.78740 0.33047
 C2101 C 0.78881 0.77607 0.30870
 C2102 C 0.77423 0.78543 0.29084
 C2103 C 0.76640 0.80682 0.29480
 C2104 C 0.77224 0.81814 0.31629
 H2105 H 0.76623 0.89059 0.41930
 H2106 H 0.77543 0.83397 0.46585
 H2107 H 0.76060 0.85387 0.50069
 H2108 H 0.75072 0.91067 0.45378
 H2109 H 0.80467 0.77948 0.34465
 H2110 H 0.79485 0.75953 0.30669
 H2111 H 0.75478 0.81453 0.28195
 H2112 H 0.76515 0.83416 0.31936
 C2113 C 0.26980 0.38494 0.93830
 C2114 C 0.27564 0.36294 0.94092
 C2115 C 0.27379 0.35266 0.96386
 C2116 C 0.26550 0.36415 0.98393
 C2117 C 0.25808 0.38600 0.98116
 C2118 C 0.26144 0.39643 0.95827
 C2119 C 0.28183 0.35064 0.91952
 C2120 C 0.28551 0.34054 0.90093
 C2121 C 0.28771 0.32912 0.87845
 C2122 C 0.28748 0.31986 0.85875
 C2123 C 0.28439 0.30964 0.83494
 C2124 C 0.29294 0.28884 0.83015
 C2125 C 0.28648 0.27775 0.80847
 C2126 C 0.27125 0.28731 0.79147
 C2127 C 0.26346 0.30858 0.79627
 C2128 C 0.27011 0.31964 0.81763
 H2129 H 0.27139 0.39316 0.92067
 H2130 H 0.27858 0.33569 0.96619
 H2131 H 0.26509 0.35580 1.00156
 H2132 H 0.25720 0.41350 0.95575
 H2133 H 0.30376 0.28080 0.84366
 H2134 H 0.29250 0.26128 0.80582
 H2135 H 0.25134 0.31643 0.78416
 H2136 H 0.26312 0.33560 0.82131
 C2137 C 0.81292 0.45333 0.77268
 C2138 C 0.80834 0.43794 0.75422
 C2139 C 0.81567 0.44110 0.73027
 C2140 C 0.82851 0.45890 0.72507
 C2141 C 0.83514 0.47348 0.74403
 C2142 C 0.82577 0.47123 0.76747
 C2143 C 0.79701 0.41833 0.75974
 C2144 C 0.78832 0.40122 0.76323
 C2145 C 0.77900 0.38057 0.76586
 C2146 C 0.77169 0.36252 0.76670
 C2147 C 0.76370 0.34065 0.76588
 C2148 C 0.75009 0.33438 0.74601
 C2149 C 0.74459 0.31258 0.74301
 C2150 C 0.75296 0.29652 0.75964
 C2151 C 0.76552 0.30325 0.78044
 C2152 C 0.77105 0.32514 0.78340
 H2153 H 0.80686 0.45135 0.79116
 H2154 H 0.81169 0.42960 0.71563
 H2155 H 0.83344 0.46099 0.70616
 H2156 H 0.82894 0.48299 0.78204
 H2157 H 0.74434 0.34624 0.73229
 H2158 H 0.73462 0.30825 0.72691
 H2159 H 0.77148 0.29166 0.79419
 H2160 H 0.78152 0.32984 0.79895
 C2161 C 0.32116 0.95407 0.27976
 C2162 C 0.30913 0.94306 0.26144
 C2163 C 0.30889 0.95043 0.23693
 C2164 C 0.32156 0.96801 0.23048
 C2165 C 0.33535 0.97819 0.24827
 C2166 C 0.33384 0.97174 0.27337
 C2167 C 0.29842 0.92319 0.26718
 C2168 C 0.29025 0.90585 0.27078
 C2169 C 0.28157 0.88496 0.27348
 C2170 C 0.27480 0.86672 0.27443
 C2171 C 0.26742 0.84467 0.27386
 C2172 C 0.25380 0.83793 0.25421
 C2173 C 0.24857 0.81602 0.25172
 C2174 C 0.25721 0.80037 0.26866
 C2175 C 0.26993 0.80755 0.28913
 C2176 C 0.27518 0.82953 0.29157
 H2177 H 0.32105 0.94877 0.29893
 H2178 H 0.29939 0.94219 0.22262
 H2179 H 0.32135 0.97317 0.21125
 H2180 H 0.34237 0.98010 0.28826
 H2181 H 0.24776 0.84951 0.24034
 H2182 H 0.23849 0.81132 0.23586
 H2183 H 0.27614 0.79625 0.30308
 H2184 H 0.28570 0.83461 0.30692
 C2185 C 0.19460 0.97051 0.71853
 C2186 C 0.18966 0.95015 0.72831
 C2187 C 0.17296 0.94845 0.74497
 C2188 C 0.16150 0.96691 0.75237
 C2189 C 0.16690 0.98791 0.74394
 C2190 C 0.18304 0.98917 0.72593
 C2191 C 0.20116 0.93052 0.72170
 C2192 C 0.20933 0.91285 0.71831
 C2193 C 0.21716 0.89118 0.71687
 C2194 C 0.22239 0.87219 0.71778
 C2195 C 0.22698 0.84932 0.72134
 C2196 C 0.21320 0.83737 0.73599
 C2197 C 0.21804 0.81566 0.74166
 C2198 C 0.23678 0.80532 0.73269
 C2199 C 0.25032 0.81738 0.71739
 C2200 C 0.24547 0.83927 0.71183
 H2201 H 0.20722 0.97196 0.70515
 H2202 H 0.16859 0.93267 0.75214
 H2203 H 0.14802 0.96432 0.76425
 H2204 H 0.18675 1.00470 0.71769
 H2205 H 0.19893 0.84504 0.74364
 H2206 H 0.20736 0.80729 0.75382
 H2207 H 0.26495 0.81016 0.71016
 H2208 H 0.25634 0.84843 0.70058
 C2209 C 0.68007 0.44692 0.24743
 C2210 C 0.69751 0.44909 0.23186
 C2211 C 0.70237 0.46958 0.22240
 C2212 C 0.68998 0.48790 0.22904
 C2213 C 0.67302 0.48619 0.24598
 C2214 C 0.66776 0.46506 0.25408
 C2215 C 0.70977 0.42979 0.22585
 C2216 C 0.71838 0.41229 0.22280
 C2217 C 0.72634 0.39067 0.22162
 C2218 C 0.73120 0.37161 0.22266
 C2219 C 0.73465 0.34860 0.22628
 C2220 C 0.75345 0.33780 0.21863
 C2221 C 0.75667 0.31559 0.22389
 C2222 C 0.74113 0.30397 0.23696
 C2223 C 0.72226 0.31517 0.24428
 C2224 C 0.71908 0.33718 0.23896
 H2225 H 0.67576 0.43101 0.25428
 H2226 H 0.71557 0.47137 0.20982
 H2227 H 0.69369 0.50354 0.22108
 H2228 H 0.65379 0.46215 0.26512
 H2229 H 0.76571 0.34657 0.20894
 H2230 H 0.77148 0.30769 0.21805
 H2231 H 0.71011 0.30722 0.25486
 H2232 H 0.70457 0.34544 0.24523
 C2233 C 0.70548 0.54424 0.27444
 C2234 C 0.69419 0.56412 0.27615
 C2235 C 0.67173 0.56492 0.27196
 C2236 C 0.66069 0.54620 0.26492
 C2237 C 0.67194 0.52627 0.26118
 C2238 C 0.69441 0.52535 0.26750
 C2239 C 0.70542 0.58419 0.28019
 C2240 C 0.71347 0.60187 0.28197
 C2241 C 0.72123 0.62332 0.28214
 C2242 C 0.72641 0.64208 0.28058
 C2243 C 0.73087 0.66470 0.27669
 C2244 C 0.71563 0.67741 0.26317
 C2245 C 0.72002 0.69898 0.25749
 C2246 C 0.73979 0.70837 0.26525
 C2247 C 0.75489 0.69552 0.27934
 C2248 C 0.75046 0.67380 0.28497
 H2249 H 0.72287 0.54339 0.27812
 H2250 H 0.66276 0.58019 0.27346
 H2251 H 0.64331 0.54741 0.26142
 H2252 H 0.70362 0.51023 0.26711
 H2253 H 0.70048 0.67048 0.25649
 H2254 H 0.70806 0.70798 0.24629
 H2255 H 0.77031 0.70201 0.28564
 H2256 H 0.76243 0.66403 0.29536
 C2257 C 0.20155 0.04585 0.76995
 C2258 C 0.19054 0.06580 0.77267
 C2259 C 0.16793 0.06673 0.77020
 C2260 C 0.15642 0.04812 0.76388
 C2261 C 0.16724 0.02813 0.75916
 C2262 C 0.18999 0.02705 0.76369
 C2263 C 0.20204 0.08582 0.77625
 C2264 C 0.21018 0.10349 0.77793
 C2265 C 0.21795 0.12498 0.77829
 C2266 C 0.22311 0.14379 0.77717
 C2267 C 0.22750 0.16657 0.77408
 C2268 C 0.21181 0.17981 0.76197
 C2269 C 0.21602 0.20160 0.75717
 C2270 C 0.23607 0.21073 0.76441
 C2271 C 0.25163 0.19732 0.77708
 C2272 C 0.24738 0.17538 0.78184
 H2273 H 0.21906 0.04487 0.77233
 H2274 H 0.15918 0.08203 0.77254
 H2275 H 0.13891 0.04946 0.76172
 H2276 H 0.19903 0.01188 0.76246
 H2277 H 0.19641 0.17314 0.75571
 H2278 H 0.20369 0.21098 0.74698
 H2279 H 0.26729 0.20358 0.78292
 H2280 H 0.25969 0.16524 0.79116
 C2281 C 0.30630 0.04198 0.24269
 C2282 C 0.30547 0.05021 0.21853
 C2283 C 0.31736 0.03988 0.20015
 C2284 C 0.33102 0.02209 0.20624
 C2285 C 0.33375 0.01495 0.23114
 C2286 C 0.32002 0.02437 0.24885
 C2287 C 0.29451 0.07070 0.21370
 C2288 C 0.28656 0.08868 0.21147
 C2289 C 0.27880 0.11040 0.21107
 C2290 C 0.27354 0.12932 0.21264
 C2291 C 0.26893 0.15202 0.21681
 C2292 C 0.24925 0.16176 0.20875
 C2293 C 0.24457 0.18346 0.21493
 C2294 C 0.25951 0.19565 0.22938
 C2295 C 0.27938 0.18562 0.23691
 C2296 C 0.28402 0.16408 0.23066
 H2297 H 0.29701 0.04973 0.25706
 H2298 H 0.31653 0.04594 0.18126
 H2299 H 0.33952 0.01434 0.19135
 H2300 H 0.32080 0.01873 0.26791
 H2301 H 0.23739 0.15249 0.19811
 H2302 H 0.22908 0.19047 0.20876
 H2303 H 0.29123 0.19407 0.24836
 H2304 H 0.29924 0.15664 0.23720
 C2305 C 0.80884 0.53295 0.70662
 C2306 C 0.80549 0.54813 0.72551
 C2307 C 0.81468 0.54438 0.74919
 C2308 C 0.82833 0.52635 0.75362
 C2309 C 0.83387 0.51210 0.73414
 C2310 C 0.82244 0.51475 0.71111
 C2311 C 0.79416 0.56846 0.72066
 C2312 C 0.78608 0.58637 0.71814
 C2313 C 0.77827 0.60810 0.71709
 C2314 C 0.77301 0.62708 0.71788
 C2315 C 0.76845 0.64997 0.72093
 C2316 C 0.78371 0.66258 0.73382
 C2317 C 0.77915 0.68438 0.73896
 C2318 C 0.75921 0.69415 0.73120
 C2319 C 0.74411 0.68140 0.71767
 C2320 C 0.74869 0.65943 0.71264
 H2321 H 0.80137 0.53542 0.68833
 H2322 H 0.81174 0.55572 0.76416
 H2323 H 0.83488 0.52392 0.77231
 H2324 H 0.82472 0.50317 0.69623
 H2325 H 0.79898 0.65538 0.74054
 H2326 H 0.79106 0.69324 0.74988
 H2327 H 0.72853 0.68817 0.71145
 H2328 H 0.73669 0.64975 0.70276
 C2329 C 0.95937 0.74674 0.17871
 C2330 C 0.93949 0.75250 0.16702
 C2331 C 0.93841 0.75595 0.14138
 C2332 C 0.95717 0.75434 0.12761
 C2333 C 0.97769 0.74995 0.13925
 C2334 C 0.97821 0.74513 0.16496
 C2335 C 0.92010 0.75472 0.18113
 C2336 C 0.90351 0.75677 0.19226
 C2337 C 0.88358 0.75925 0.20431
 C2338 C 0.86608 0.76131 0.21354
 C2339 C 0.84453 0.76355 0.22296
 C2340 C 0.82814 0.77336 0.20805
 C2341 C 0.80667 0.77351 0.21549
 C2342 C 0.80113 0.76397 0.23816
 C2343 C 0.81789 0.75485 0.25350
 C2344 C 0.83943 0.75463 0.24592
 H2345 H 0.96031 0.74340 0.19846
 H2346 H 0.92304 0.75997 0.13198
 H2347 H 0.95579 0.75700 0.10775
 H2348 H 0.99299 0.73979 0.17465
 H2349 H 0.83183 0.78026 0.19020
 H2350 H 0.79435 0.78059 0.20301
 H2351 H 0.81434 0.74708 0.27087
 H2352 H 0.85198 0.74687 0.25759
 C2353 C 0.43305 0.26300 0.63733
 C2354 C 0.43397 0.25814 0.66269
 C2355 C 0.45361 0.25106 0.67395
 C2356 C 0.47237 0.24935 0.66010
 C2357 C 0.47205 0.25533 0.63470
 C2358 C 0.45175 0.26129 0.62344
 C2359 C 0.41461 0.26002 0.67690
 C2360 C 0.39810 0.26170 0.68824
 C2361 C 0.37831 0.26368 0.70068
 C2362 C 0.36097 0.26532 0.71033
 C2363 C 0.33962 0.26711 0.72041
 C2364 C 0.33513 0.25760 0.74326
 C2365 C 0.31381 0.25757 0.75155
 C2366 C 0.29667 0.26701 0.73705
 C2367 C 0.30161 0.27707 0.71444
 C2368 C 0.32285 0.27717 0.70630
 H2369 H 0.41784 0.26806 0.62824
 H2370 H 0.45440 0.24666 0.69343
 H2371 H 0.48689 0.24290 0.66940
 H2372 H 0.45048 0.26494 0.60378
 H2373 H 0.34797 0.24964 0.75430
 H2374 H 0.31073 0.24940 0.76882
 H2375 H 0.28896 0.28440 0.70258
 H2376 H 0.32608 0.28452 0.68854
 C2377 C 0.44170 0.73676 0.85508
 C2378 C 0.44235 0.73981 0.82942
 C2379 C 0.46194 0.74507 0.81876
 C2380 C 0.48097 0.74650 0.83354
 C2381 C 0.48094 0.74196 0.85930
 C2382 C 0.46067 0.73815 0.86988
 C2383 C 0.42270 0.73837 0.81428
 C2384 C 0.40589 0.73758 0.80223
 C2385 C 0.38564 0.73757 0.78913
 C2386 C 0.36783 0.73881 0.77919
 C2387 C 0.34602 0.74227 0.76934
 C2388 C 0.33447 0.72586 0.75691
 C2389 C 0.31244 0.72919 0.75019
 C2390 C 0.30160 0.74878 0.75636
 C2391 C 0.31389 0.76543 0.76778
 C2392 C 0.33575 0.76216 0.77417
 H2393 H 0.42650 0.73331 0.86368
 H2394 H 0.46250 0.74826 0.79902
 H2395 H 0.49549 0.75147 0.82458
 H2396 H 0.45966 0.73574 0.88971
 H2397 H 0.34227 0.71032 0.75306
 H2398 H 0.30373 0.71602 0.74131
 H2399 H 0.30665 0.78094 0.77270
 H2400 H 0.34450 0.77502 0.78373
 C2401 C 0.94114 0.24284 0.35410
 C2402 C 0.94212 0.23831 0.32875
 C2403 C 0.96235 0.23587 0.31799
 C2404 C 0.98148 0.23857 0.33233
 C2405 C 0.98079 0.24452 0.35770
 C2406 C 0.96019 0.24554 0.36846
 C2407 C 0.92226 0.23629 0.31402
 C2408 C 0.90510 0.23506 0.30267
 C2409 C 0.88429 0.23422 0.29082
 C2410 C 0.86589 0.23408 0.28236
 C2411 C 0.84321 0.23471 0.27478
 C2412 C 0.83632 0.23663 0.24981
 C2413 C 0.81412 0.23934 0.24347
 C2414 C 0.79853 0.23997 0.26203
 C2415 C 0.80588 0.23783 0.28700
 C2416 C 0.82786 0.23505 0.29322
 H2417 H 0.92559 0.24436 0.36281
 H2418 H 0.96335 0.23178 0.29850
 H2419 H 0.99668 0.23563 0.32341
 H2420 H 0.95888 0.24889 0.38808
 H2421 H 0.84809 0.23669 0.23533
 H2422 H 0.80930 0.24166 0.22415
 H2423 H 0.79485 0.23915 0.30212
 H2424 H 0.83296 0.23396 0.31263
 C2425 C 0.05998 0.23888 0.35102
 C2426 C 0.06008 0.25343 0.33107
 C2427 C 0.04184 0.26676 0.32597
 C2428 C 0.02336 0.26500 0.34021
 C2429 C 0.02239 0.24931 0.35938
 C2430 C 0.04156 0.23708 0.36528
 C2431 C 0.07916 0.25481 0.31633
 C2432 C 0.09555 0.25549 0.30467
 C2433 C 0.11534 0.25589 0.29207
 C2434 C 0.13283 0.25602 0.28259
 C2435 C 0.15452 0.25606 0.27323
 C2436 C 0.15919 0.24715 0.25001
 C2437 C 0.18075 0.24565 0.24241
 C2438 C 0.19791 0.25301 0.25798
 C2439 C 0.19280 0.26232 0.28105
 C2440 C 0.17139 0.26389 0.28848
 H2441 H 0.07425 0.22895 0.35570
 H2442 H 0.04186 0.27851 0.31096
 H2443 H 0.00950 0.27559 0.33592
 H2444 H 0.04266 0.22621 0.38106
 H2445 H 0.14626 0.24089 0.23806
 H2446 H 0.18396 0.23813 0.22474
 H2447 H 0.20540 0.26814 0.29372
 H2448 H 0.16805 0.27074 0.30651
 C2449 C 0.54558 0.72808 0.82959
 C2450 C 0.56087 0.74433 0.83372
 C2451 C 0.55780 0.75957 0.85260
 C2452 C 0.53919 0.75910 0.86671
 C2453 C 0.52276 0.74375 0.86168
 C2454 C 0.52694 0.72756 0.84369
 C2455 C 0.57996 0.74526 0.81901
 C2456 C 0.59619 0.74642 0.80718
 C2457 C 0.61566 0.74806 0.79421
 C2458 C 0.63282 0.74961 0.78424
 C2459 C 0.65407 0.75149 0.77412
 C2460 C 0.67036 0.76161 0.78829
 C2461 C 0.69165 0.76147 0.78038
 C2462 C 0.69715 0.75135 0.75790
 C2463 C 0.68045 0.74192 0.74323
 C2464 C 0.65905 0.74197 0.75133
 H2465 H 0.54800 0.71584 0.81543
 H2466 H 0.56989 0.77181 0.85653
 H2467 H 0.53801 0.77073 0.88166
 H2468 H 0.51539 0.71475 0.84013
 H2469 H 0.66676 0.76896 0.80600
 H2470 H 0.70394 0.76871 0.79242
 H2471 H 0.68399 0.73367 0.72608
 H2472 H 0.64657 0.73397 0.74023
 C2473 C 0.54872 0.23150 0.64251
 C2474 C 0.55325 0.24579 0.66210
 C2475 C 0.53854 0.26271 0.66709
 C2476 C 0.51918 0.26497 0.65294
 C2477 C 0.51369 0.24994 0.63396
 C2478 C 0.52937 0.23369 0.62836
 C2479 C 0.57335 0.24344 0.67645
 C2480 C 0.59042 0.24132 0.68794
 C2481 C 0.61080 0.23885 0.70058
 C2482 C 0.62863 0.23690 0.71042
 C2483 C 0.65050 0.23497 0.72069
 C2484 C 0.65621 0.24445 0.74356
 C2485 C 0.67803 0.24493 0.75172
 C2486 C 0.69446 0.23603 0.73701
 C2487 C 0.68830 0.22565 0.71460
 C2488 C 0.66655 0.22510 0.70659
 H2489 H 0.56029 0.21874 0.63794
 H2490 H 0.54209 0.27423 0.68183
 H2491 H 0.50822 0.27838 0.65703
 H2492 H 0.52711 0.22281 0.61278
 H2493 H 0.64393 0.25220 0.75464
 H2494 H 0.68204 0.25317 0.76896
 H2495 H 0.70034 0.21859 0.70269
 H2496 H 0.66236 0.21771 0.68885
 C2497 C 0.05525 0.73069 0.14918
 C2498 C 0.05867 0.74588 0.16815
 C2499 C 0.04311 0.76232 0.17186
 C2500 C 0.02395 0.76312 0.15717
 C2501 C 0.01954 0.74707 0.13894
 C2502 C 0.03613 0.73145 0.13447
 C2503 C 0.07841 0.74478 0.18332
 C2504 C 0.09519 0.74354 0.19550
 C2505 C 0.11526 0.74187 0.20895
 C2506 C 0.13286 0.74044 0.21943
 C2507 C 0.15451 0.73886 0.23040
 C2508 C 0.15993 0.74966 0.25257
 C2509 C 0.18160 0.75022 0.26128
 C2510 C 0.19818 0.74006 0.24782
 C2511 C 0.19229 0.72848 0.22610
 C2512 C 0.17069 0.72785 0.21757
 H2513 H 0.06748 0.71829 0.14560
 H2514 H 0.04578 0.77453 0.18609
 H2515 H 0.01225 0.77611 0.16034
 H2516 H 0.03470 0.71988 0.11943
 H2517 H 0.14755 0.75833 0.26265
 H2518 H 0.18541 0.75947 0.27789
 H2519 H 0.20445 0.72052 0.21507
 H2520 H 0.16674 0.71946 0.20036
   
