data_POSCAR
  _audit_creation_date              2014-09-24
  _audit_creation_method            'ToBaCCo'
  _symmetry_space_group_name_H-M    'P1'
  _symmetry_Int_Tables_number       1
  _symmetry_cell_setting            triclinic
  loop_
  _symmetry_equiv_pos_as_xyz
 x,y,z
_cell_length_a 75.3071
_cell_length_b 75.1407
_cell_length_c 76.2314
_cell_angle_alpha 90.140800
_cell_angle_beta 89.478300
_cell_angle_gamma 89.486200
loop_
  _atom_site_label
  _atom_site_type_symbol
  _atom_site_fract_x
  _atom_site_fract_y
  _atom_site_fract_z
C1 C 0.33847 0.35718 0.32521
 C2 C 0.35426 0.34951 0.31858
 C3 C 0.36193 0.33445 0.32661
 C4 C 0.35345 0.32702 0.34140
 C5 C 0.33775 0.33458 0.34825
 C6 C 0.33020 0.34964 0.34010
 C7 C 0.33067 0.37215 0.31715
 C8 C 0.31467 0.37951 0.32381
 C9 C 0.30655 0.37174 0.33849
 C10 C 0.31420 0.35699 0.34670
 C11 C 0.30599 0.34947 0.36142
 C12 C 0.31355 0.33472 0.36981
 C13 C 0.32938 0.32717 0.36304
 H14 H 0.36060 0.35522 0.30710
 H15 H 0.35868 0.31515 0.34751
 H16 H 0.33687 0.37774 0.30557
 H17 H 0.29421 0.37731 0.34361
 H18 H 0.29370 0.35522 0.36648
 H19 H 0.33509 0.31540 0.36899
 C20 C 0.35700 0.85221 -0.16971
 C21 C 0.37341 0.84641 -0.17655
 C22 C 0.38249 0.83176 -0.16913
 C23 C 0.37476 0.82312 -0.15463
 C24 C 0.35842 0.82889 -0.14758
 C25 C 0.34948 0.84347 -0.15516
 C26 C 0.34792 0.86651 -0.17745
 C27 C 0.33125 0.87230 -0.17087
 C28 C 0.32405 0.86362 -0.15610
 C29 C 0.33297 0.84923 -0.14827
 C30 C 0.32553 0.84042 -0.13378
 C31 C 0.33431 0.82571 -0.12622
 C32 C 0.35081 0.82018 -0.13316
 H33 H 0.37858 0.85318 -0.18794
 H34 H 0.38147 0.81179 -0.14877
 H35 H 0.35412 0.87288 -0.18856
 H36 H 0.31129 0.86790 -0.15078
 H37 H 0.31302 0.84521 -0.12846
 H38 H 0.35769 0.80891 -0.12739
 C39 C 0.84609 0.34425 -0.16859
 C40 C 0.86241 0.33952 -0.17643
 C41 C 0.87253 0.32504 -0.17004
 C42 C 0.86585 0.31533 -0.15570
 C43 C 0.84966 0.32002 -0.14767
 C44 C 0.83975 0.33457 -0.15408
 C45 C 0.83603 0.35849 -0.17518
 C46 C 0.81950 0.36330 -0.16752
 C47 C 0.81351 0.35369 -0.15277
 C48 C 0.82347 0.33940 -0.14603
 C49 C 0.81737 0.32976 -0.13143
 C50 C 0.82734 0.31531 -0.12488
 C51 C 0.84330 0.31040 -0.13324
 H52 H 0.86682 0.34711 -0.18764
 H53 H 0.87336 0.30411 -0.15063
 H54 H 0.84143 0.36566 -0.18622
 H55 H 0.80094 0.35723 -0.14658
 H56 H 0.80475 0.33334 -0.12540
 H57 H 0.85093 0.29921 -0.12829
 C58 C 0.84644 0.86256 0.33378
 C59 C 0.86298 0.85746 0.32688
 C60 C 0.87200 0.84249 0.33333
 C61 C 0.86449 0.83279 0.34731
 C62 C 0.84793 0.83789 0.35451
 C63 C 0.83884 0.85279 0.34763
 C64 C 0.83729 0.87713 0.32677
 C65 C 0.82045 0.88219 0.33323
 C66 C 0.81305 0.87256 0.34737
 C67 C 0.82214 0.85791 0.35455
 C68 C 0.81468 0.84824 0.36845
 C69 C 0.82354 0.83326 0.37539
 C70 C 0.84022 0.82829 0.36837
 H71 H 0.86871 0.86497 0.31613
 H72 H 0.87146 0.82143 0.35271
 H73 H 0.84326 0.88441 0.31597
 H74 H 0.80023 0.87607 0.35287
 H75 H 0.80206 0.85265 0.37382
 H76 H 0.84717 0.81682 0.37365
 C77 C 0.66087 0.64146 0.32243
 C78 C 0.64568 0.64956 0.31530
 C79 C 0.63814 0.66493 0.32312
 C80 C 0.64593 0.67195 0.33831
 C81 C 0.66106 0.66401 0.34559
 C82 C 0.66858 0.64874 0.33761
 C83 C 0.66862 0.62633 0.31448
 C84 C 0.68401 0.61845 0.32159
 C85 C 0.69152 0.62586 0.33667
 C86 C 0.68397 0.64089 0.34470
 C87 C 0.69173 0.64826 0.35962
 C88 C 0.68428 0.66335 0.36774
 C89 C 0.66894 0.67125 0.36061
 H90 H 0.63995 0.64376 0.30369
 H91 H 0.64023 0.68376 0.34443
 H92 H 0.66280 0.62108 0.30267
 H93 H 0.70342 0.61992 0.34215
 H94 H 0.70363 0.64221 0.36499
 H95 H 0.66332 0.68324 0.36637
 C96 C 0.65775 0.15911 -0.16475
 C97 C 0.64177 0.16710 -0.17023
 C98 C 0.63448 0.18171 -0.16094
 C99 C 0.64339 0.18832 -0.14630
 C100 C 0.65921 0.18046 -0.14064
 C101 C 0.66644 0.16577 -0.14982
 C102 C 0.66520 0.14467 -0.17405
 C103 C 0.68132 0.13670 -0.16863
 C104 C 0.68968 0.14343 -0.15354
 C105 C 0.68242 0.15790 -0.14415
 C106 C 0.69093 0.16470 -0.12923
 C107 C 0.68373 0.17935 -0.11995
 C108 C 0.66788 0.18721 -0.12594
 H109 H 0.63533 0.16211 -0.18185
 H110 H 0.63789 0.19964 -0.13918
 H111 H 0.65824 0.13989 -0.18542
 H112 H 0.70203 0.13749 -0.14911
 H113 H 0.70321 0.15861 -0.12484
 H114 H 0.66215 0.19872 -0.11948
 C115 C 0.14033 0.65011 -0.17827
 C116 C 0.12533 0.65827 -0.18576
 C117 C 0.11693 0.67288 -0.17742
 C118 C 0.12374 0.67919 -0.16151
 C119 C 0.13867 0.67122 -0.15393
 C120 C 0.14704 0.65663 -0.16231
 C121 C 0.14884 0.63565 -0.18657
 C122 C 0.16400 0.62751 -0.17926
 C123 C 0.17051 0.63417 -0.16321
 C124 C 0.16218 0.64867 -0.15478
 C125 C 0.16886 0.65542 -0.13896
 C126 C 0.16067 0.67016 -0.13067
 C127 C 0.14547 0.67780 -0.13818
 H128 H 0.12052 0.65332 -0.19816
 H129 H 0.11742 0.69048 -0.15503
 H130 H 0.14363 0.63076 -0.19888
 H131 H 0.18209 0.62841 -0.15711
 H132 H 0.18032 0.64903 -0.13316
 H133 H 0.13904 0.68911 -0.13183
 C134 C 0.16796 0.13864 0.33266
 C135 C 0.15233 0.14726 0.32719
 C136 C 0.14614 0.16291 0.33567
 C137 C 0.15599 0.16968 0.34977
 C138 C 0.17154 0.16113 0.35544
 C139 C 0.17758 0.14557 0.34685
 C140 C 0.17416 0.12325 0.32400
 C141 C 0.18998 0.11461 0.32926
 C142 C 0.19937 0.12168 0.34356
 C143 C 0.19332 0.13704 0.35235
 C144 C 0.20281 0.14404 0.36653
 C145 C 0.19675 0.15940 0.37535
 C146 C 0.18120 0.16801 0.36953
 H147 H 0.14537 0.14167 0.31619
 H148 H 0.15150 0.18169 0.35646
 H149 H 0.16649 0.11836 0.31314
 H150 H 0.21153 0.11526 0.34784
 H151 H 0.21490 0.13747 0.37080
 H152 H 0.17667 0.18026 0.37564
 C153 C 0.64260 0.33287 0.67072
 C154 C 0.62749 0.32602 0.67918
 C155 C 0.61961 0.31021 0.67316
 C156 C 0.62679 0.30158 0.65832
 C157 C 0.64180 0.30830 0.64970
 C158 C 0.64978 0.32397 0.65593
 C159 C 0.65065 0.34849 0.67684
 C160 C 0.66597 0.35520 0.66849
 C161 C 0.67291 0.34623 0.65370
 C162 C 0.66495 0.33072 0.64736
 C163 C 0.67198 0.32181 0.63262
 C164 C 0.66392 0.30627 0.62620
 C165 C 0.64896 0.29954 0.63495
 H166 H 0.62190 0.33317 0.69027
 H167 H 0.62073 0.28948 0.65354
 H168 H 0.64477 0.35534 0.68798
 H169 H 0.68463 0.35135 0.64713
 H170 H 0.68389 0.32688 0.62644
 H171 H 0.64280 0.28749 0.63017
 C172 C 0.64450 0.85464 1.16493
 C173 C 0.63054 0.84609 1.17364
 C174 C 0.62271 0.83078 1.16657
 C175 C 0.62916 0.82416 1.15034
 C176 C 0.64322 0.83258 1.14154
 C177 C 0.65094 0.84787 1.14884
 C178 C 0.65224 0.86975 1.17226
 C179 C 0.66626 0.87846 1.16362
 C180 C 0.67280 0.87152 1.14764
 C181 C 0.66523 0.85627 1.14016
 C182 C 0.67178 0.84918 1.12425
 C183 C 0.66422 0.83375 1.11700
 C184 C 0.64983 0.82574 1.12566
 H185 H 0.62578 0.85140 1.18610
 H186 H 0.62364 0.81239 1.14442
 H187 H 0.64753 0.87435 1.18495
 H188 H 0.68380 0.87801 1.14106
 H189 H 0.68262 0.85580 1.11762
 H190 H 0.64394 0.81389 1.12012
 C191 C 0.15669 0.35433 1.18852
 C192 C 0.14299 0.34531 1.19727
 C193 C 0.13688 0.32874 1.19118
 C194 C 0.14492 0.32124 1.17600
 C195 C 0.15866 0.33010 1.16712
 C196 C 0.16453 0.34670 1.17339
 C197 C 0.16276 0.37081 1.19472
 C198 C 0.17663 0.37975 1.18606
 C199 C 0.18416 0.37213 1.17081
 C200 C 0.17832 0.35566 1.16457
 C201 C 0.18622 0.34797 1.14966
 C202 C 0.18060 0.33143 1.14332
 C203 C 0.16677 0.32253 1.15213
 H204 H 0.13706 0.35128 1.20893
 H205 H 0.14084 0.30850 1.17095
 H206 H 0.15679 0.37664 1.20641
 H207 H 0.19442 0.37896 1.16354
 H208 H 0.19691 0.35486 1.14297
 H209 H 0.16250 0.30959 1.14767
 C210 C 0.13946 0.84872 0.67601
 C211 C 0.12360 0.84192 0.68277
 C212 C 0.11511 0.82751 0.67469
 C213 C 0.12278 0.82005 0.65931
 C214 C 0.13872 0.82680 0.65234
 C215 C 0.14708 0.84118 0.66076
 C216 C 0.14789 0.86285 0.68446
 C217 C 0.16391 0.86964 0.67791
 C218 C 0.17160 0.86196 0.66275
 C219 C 0.16323 0.84785 0.65411
 C220 C 0.17092 0.84016 0.63906
 C221 C 0.16257 0.82600 0.63036
 C222 C 0.14656 0.81931 0.63720
 H223 H 0.11794 0.84784 0.69459
 H224 H 0.11669 0.80896 0.65270
 H225 H 0.14198 0.86859 0.69623
 H226 H 0.18423 0.86661 0.65778
 H227 H 0.18360 0.84505 0.63447
 H228 H 0.14021 0.80824 0.63069
 C229 C 0.34877 0.65601 0.67519
 C230 C 0.36378 0.66274 0.68360
 C231 C 0.37277 0.67761 0.67690
 C232 C 0.36663 0.68566 0.66136
 C233 C 0.35155 0.67913 0.65281
 C234 C 0.34262 0.66425 0.65977
 C235 C 0.33974 0.64121 0.68202
 C236 C 0.32465 0.63452 0.67351
 C237 C 0.31864 0.64289 0.65823
 C238 C 0.32751 0.65760 0.65129
 C239 C 0.32141 0.66577 0.63600
 C240 C 0.33004 0.68065 0.62899
 C241 C 0.34524 0.68723 0.63741
 H242 H 0.36846 0.65642 0.69549
 H243 H 0.37354 0.69684 0.65569
 H244 H 0.34436 0.63523 0.69406
 H245 H 0.30698 0.63787 0.65166
 H246 H 0.30974 0.66060 0.62956
 H247 H 0.35231 0.69846 0.63202
 C248 C 0.35199 0.14594 1.17969
 C249 C 0.36597 0.15420 1.18862
 C250 C 0.37339 0.17020 1.18228
 C251 C 0.36655 0.17764 1.16680
 C252 C 0.35261 0.16956 1.15784
 C253 C 0.34527 0.15367 1.16427
 C254 C 0.34457 0.13010 1.18603
 C255 C 0.33049 0.12175 1.17724
 C256 C 0.32393 0.12969 1.16175
 C257 C 0.33118 0.14555 1.15528
 C258 C 0.32449 0.15348 1.13996
 C259 C 0.33170 0.16949 1.13359
 C260 C 0.34585 0.17727 1.14257
 H261 H 0.37082 0.14798 1.20042
 H262 H 0.37204 0.18991 1.16170
 H263 H 0.34980 0.12426 1.19794
 H264 H 0.31313 0.12387 1.15458
 H265 H 0.31383 0.14703 1.13307
 H266 H 0.35152 0.18956 1.13773
 C267 C 0.85099 0.65131 1.16599
 C268 C 0.86611 0.65937 1.17284
 C269 C 0.87192 0.67586 1.16652
 C270 C 0.86259 0.68417 1.15276
 C271 C 0.84743 0.67616 1.14564
 C272 C 0.84159 0.65969 1.15239
 C273 C 0.84504 0.63507 1.17275
 C274 C 0.82968 0.62694 1.16622
 C275 C 0.82041 0.63540 1.15251
 C276 C 0.82627 0.65165 1.14564
 C277 C 0.81688 0.66004 1.13219
 C278 C 0.82257 0.67630 1.12522
 C279 C 0.83789 0.68437 1.13203
 H280 H 0.87326 0.65290 1.18337
 H281 H 0.86711 0.69668 1.14744
 H282 H 0.85236 0.62881 1.18331
 H283 H 0.80852 0.62973 1.14710
 H284 H 0.80504 0.65385 1.12706
 H285 H 0.84222 0.69712 1.12709
 C286 C 0.85988 0.16345 0.67242
 C287 C 0.87599 0.16930 0.67927
 C288 C 0.88488 0.18379 0.67181
 C289 C 0.87765 0.19224 0.65701
 C290 C 0.86152 0.18644 0.64995
 C291 C 0.85257 0.17198 0.65768
 C292 C 0.85090 0.14930 0.68027
 C293 C 0.83469 0.14336 0.67365
 C294 C 0.82737 0.15186 0.65886
 C295 C 0.83626 0.16615 0.65081
 C296 C 0.82906 0.17486 0.63616
 C297 C 0.83802 0.18925 0.62827
 C298 C 0.85415 0.19495 0.63536
 H299 H 0.88151 0.16273 0.69067
 H300 H 0.88453 0.20316 0.65081
 H301 H 0.85657 0.14286 0.69168
 H302 H 0.81469 0.14770 0.65378
 H303 H 0.81636 0.17061 0.63122
 H304 H 0.86103 0.20609 0.62944
 C305 C 0.35989 0.35110 0.67454
 C306 C 0.35265 0.36712 0.68075
 C307 C 0.33733 0.37451 0.67324
 C308 C 0.32940 0.36579 0.65892
 C309 C 0.33667 0.34972 0.65236
 C310 C 0.35192 0.34235 0.66031
 C311 C 0.37489 0.34362 0.68254
 C312 C 0.38195 0.32726 0.67663
 C313 C 0.37418 0.31880 0.66222
 C314 C 0.35923 0.32619 0.65408
 C315 C 0.35139 0.31751 0.63992
 C316 C 0.33630 0.32464 0.63176
 C317 C 0.32892 0.34080 0.63809
 H318 H 0.35881 0.37375 0.69175
 H319 H 0.31777 0.37144 0.65275
 H320 H 0.38101 0.35068 0.69325
 H321 H 0.37965 0.30625 0.65750
 H322 H 0.35710 0.30506 0.63521
 H323 H 0.31713 0.34643 0.63222
 C324 C 0.35343 0.83326 0.16575
 C325 C 0.34585 0.84828 0.17398
 C326 C 0.33144 0.85741 0.16644
 C327 C 0.32445 0.85112 0.15050
 C328 C 0.33189 0.83616 0.14208
 C329 C 0.34645 0.82723 0.14971
 C330 C 0.36779 0.82410 0.17336
 C331 C 0.37530 0.80899 0.16503
 C332 C 0.36825 0.80321 0.14904
 C333 C 0.35394 0.81217 0.14136
 C334 C 0.34691 0.80615 0.12549
 C335 C 0.33230 0.81477 0.11788
 C336 C 0.32491 0.82991 0.12620
 H337 H 0.35120 0.85292 0.18632
 H338 H 0.31303 0.85750 0.14467
 H339 H 0.37277 0.82866 0.18583
 H340 H 0.37390 0.79157 0.14256
 H341 H 0.35270 0.79451 0.11913
 H342 H 0.31392 0.83701 0.12033
 C343 C 0.87550 0.34482 0.17515
 C344 C 0.87091 0.36109 0.18319
 C345 C 0.85766 0.37208 0.17608
 C346 C 0.84879 0.36650 0.16089
 C347 C 0.85318 0.35031 0.15279
 C348 C 0.86657 0.33937 0.15990
 C349 C 0.88868 0.33383 0.18230
 C350 C 0.89329 0.31748 0.17428
 C351 C 0.88415 0.31208 0.15917
 C352 C 0.87077 0.32287 0.15193
 C353 C 0.86139 0.31739 0.13700
 C354 C 0.84782 0.32826 0.13003
 C355 C 0.84404 0.34475 0.13790
 H356 H 0.87761 0.36521 0.19505
 H357 H 0.83798 0.37436 0.15561
 H358 H 0.89495 0.33798 0.19431
 H359 H 0.88744 0.29940 0.15308
 H360 H 0.86477 0.30479 0.13086
 H361 H 0.83364 0.35318 0.13258
 C362 C 0.84275 0.85533 0.66171
 C363 C 0.83429 0.87074 0.66845
 C364 C 0.82164 0.88008 0.65835
 C365 C 0.81767 0.87391 0.64144
 C366 C 0.82588 0.85862 0.63457
 C367 C 0.83845 0.84929 0.64470
 C368 C 0.85504 0.84552 0.67179
 C369 C 0.86284 0.82978 0.66499
 C370 C 0.85849 0.82412 0.64806
 C371 C 0.84643 0.83369 0.63790
 C372 C 0.84183 0.82749 0.62123
 C373 C 0.82900 0.83641 0.61131
 C374 C 0.82132 0.85223 0.61790
 H375 H 0.83730 0.87505 0.68163
 H376 H 0.80789 0.88094 0.63365
 H377 H 0.85806 0.84986 0.68498
 H378 H 0.86441 0.81199 0.64280
 H379 H 0.84780 0.81528 0.61620
 H380 H 0.81173 0.85956 0.61019
 C381 C 0.64552 0.63763 0.66642
 C382 C 0.65405 0.62199 0.67187
 C383 C 0.66946 0.61568 0.66318
 C384 C 0.67584 0.62495 0.64841
 C385 C 0.66735 0.64061 0.64267
 C386 C 0.65217 0.64698 0.65180
 C387 C 0.63051 0.64415 0.67550
 C388 C 0.62203 0.65995 0.67024
 C389 C 0.62876 0.66921 0.65563
 C390 C 0.64363 0.66275 0.64635
 C391 C 0.65017 0.67199 0.63179
 C392 C 0.66522 0.66586 0.62255
 C393 C 0.67379 0.65007 0.62803
 H394 H 0.64841 0.61474 0.68279
 H395 H 0.68758 0.62007 0.64153
 H396 H 0.62549 0.63700 0.68682
 H397 H 0.62285 0.68168 0.65157
 H398 H 0.64353 0.68412 0.62766
 H399 H 0.68525 0.64497 0.62093
 C400 C 0.64003 0.15357 0.17502
 C401 C 0.64774 0.13843 0.18269
 C402 C 0.66167 0.12918 0.17413
 C403 C 0.66794 0.13538 0.15791
 C404 C 0.66048 0.15056 0.15020
 C405 C 0.64647 0.15975 0.15874
 C406 C 0.62614 0.16273 0.18353
 C407 C 0.61826 0.17787 0.17588
 C408 C 0.62500 0.18415 0.15977
 C409 C 0.63910 0.17522 0.15114
 C410 C 0.64608 0.18153 0.13514
 C411 C 0.66026 0.17243 0.12672
 C412 C 0.66709 0.15683 0.13421
 H413 H 0.64303 0.13421 0.19545
 H414 H 0.67878 0.12841 0.15132
 H415 H 0.62179 0.15810 0.19627
 H416 H 0.61923 0.19599 0.15393
 H417 H 0.64041 0.19338 0.12929
 H418 H 0.67797 0.14978 0.12776
 C419 C 0.13424 0.65294 0.16355
 C420 C 0.14229 0.63863 0.17225
 C421 C 0.15802 0.63083 0.16572
 C422 C 0.16548 0.63726 0.14996
 C423 C 0.15757 0.65162 0.14109
 C424 C 0.14191 0.65952 0.14796
 C425 C 0.11871 0.66087 0.17030
 C426 C 0.11077 0.67544 0.16183
 C427 C 0.11833 0.68180 0.14613
 C428 C 0.13386 0.67395 0.13920
 C429 C 0.14149 0.68037 0.12366
 C430 C 0.15717 0.67276 0.11677
 C431 C 0.16507 0.65823 0.12549
 H432 H 0.13641 0.63368 0.18431
 H433 H 0.17730 0.63110 0.14440
 H434 H 0.11288 0.65584 0.18235
 H435 H 0.11212 0.69268 0.13914
 H436 H 0.13530 0.69151 0.11698
 H437 H 0.17691 0.65188 0.12021
 C438 C 0.15615 0.15169 0.67610
 C439 C 0.16540 0.13628 0.68125
 C440 C 0.18013 0.13000 0.67140
 C441 C 0.18551 0.13941 0.65640
 C442 C 0.17642 0.15480 0.65111
 C443 C 0.16170 0.16099 0.66099
 C444 C 0.14156 0.15810 0.68594
 C445 C 0.13247 0.17366 0.68090
 C446 C 0.13835 0.18298 0.66596
 C447 C 0.15275 0.17668 0.65595
 C448 C 0.15846 0.18599 0.64105
 C449 C 0.17295 0.17982 0.63101
 C450 C 0.18199 0.16425 0.63623
 H451 H 0.16124 0.12956 0.69309
 H452 H 0.19689 0.13473 0.64882
 H453 H 0.13727 0.15099 0.69757
 H454 H 0.13212 0.19539 0.66217
 H455 H 0.15158 0.19809 0.63722
 H456 H 0.19361 0.15959 0.62909
 C457 C 0.35937 0.65823 0.33664
 C458 C 0.35240 0.64378 0.32747
 C459 C 0.33612 0.63630 0.33242
 C460 C 0.32686 0.64332 0.34710
 C461 C 0.33373 0.65786 0.35647
 C462 C 0.35003 0.66535 0.35116
 C463 C 0.37544 0.66580 0.33128
 C464 C 0.38247 0.68045 0.34032
 C465 C 0.37300 0.68764 0.35464
 C466 C 0.35689 0.68014 0.36018
 C467 C 0.34749 0.68733 0.37450
 C468 C 0.33137 0.67978 0.38020
 C469 C 0.32455 0.66512 0.37099
 H470 H 0.35962 0.63842 0.31623
 H471 H 0.31445 0.63755 0.35137
 H472 H 0.38211 0.66052 0.31974
 H473 H 0.37824 0.69908 0.36151
 H474 H 0.35271 0.69902 0.38084
 H475 H 0.31203 0.65939 0.37514
 C476 C 0.34049 0.14309 0.83568
 C477 C 0.33307 0.12761 0.82863
 C478 C 0.31827 0.11962 0.83673
 C479 C 0.31094 0.12743 0.85192
 C480 C 0.31816 0.14295 0.85903
 C481 C 0.33302 0.15083 0.85093
 C482 C 0.35511 0.15110 0.82753
 C483 C 0.36249 0.16670 0.83438
 C484 C 0.35486 0.17448 0.84956
 C485 C 0.34018 0.16662 0.85789
 C486 C 0.33233 0.17444 0.87288
 C487 C 0.31745 0.16659 0.88101
 C488 C 0.31054 0.15086 0.87396
 H489 H 0.33870 0.12220 0.81664
 H490 H 0.29944 0.12147 0.85814
 H491 H 0.36081 0.14515 0.81576
 H492 H 0.35999 0.18679 0.85477
 H493 H 0.33767 0.18675 0.87785
 H494 H 0.29903 0.14479 0.88008
 C495 C 0.83787 0.63717 0.82287
 C496 C 0.82931 0.62158 0.81759
 C497 C 0.81391 0.61571 0.82640
 C498 C 0.80754 0.62539 0.84102
 C499 C 0.81604 0.64097 0.84656
 C500 C 0.83121 0.64690 0.83737
 C501 C 0.85289 0.64329 0.81373
 C502 C 0.86136 0.65904 0.81884
 C503 C 0.85454 0.66873 0.83325
 C504 C 0.83964 0.66270 0.84256
 C505 C 0.83294 0.67243 0.85686
 C506 C 0.81795 0.66664 0.86623
 C507 C 0.80948 0.65086 0.86098
 H508 H 0.83487 0.61407 0.80671
 H509 H 0.79578 0.62088 0.84796
 H510 H 0.85796 0.63587 0.80250
 H511 H 0.86042 0.68122 0.83707
 H512 H 0.83946 0.68461 0.86075
 H513 H 0.79768 0.64635 0.86775
 C514 C 0.85100 0.13977 0.32427
 C515 C 0.84186 0.12581 0.31612
 C516 C 0.82633 0.11885 0.32373
 C517 C 0.81992 0.12620 0.33957
 C518 C 0.82898 0.13999 0.34788
 C519 C 0.84454 0.14691 0.34023
 C520 C 0.86644 0.14675 0.31665
 C521 C 0.87561 0.16076 0.32469
 C522 C 0.86900 0.16790 0.34064
 C523 C 0.85351 0.16105 0.34847
 C524 C 0.84675 0.16812 0.36435
 C525 C 0.83117 0.16115 0.37199
 C526 C 0.82252 0.14707 0.36368
 H527 H 0.84681 0.12035 0.30382
 H528 H 0.80766 0.12162 0.34541
 H529 H 0.87136 0.14124 0.30436
 H530 H 0.87559 0.17888 0.34695
 H531 H 0.85375 0.17881 0.37075
 H532 H 0.81052 0.14168 0.36949
 C533 C 0.65203 0.34685 0.32158
 C534 C 0.66015 0.35941 0.31067
 C535 C 0.67691 0.36623 0.31468
 C536 C 0.68569 0.36012 0.32979
 C537 C 0.67766 0.34757 0.34087
 C538 C 0.66077 0.34087 0.33675
 C539 C 0.63530 0.34019 0.31746
 C540 C 0.62708 0.32746 0.32816
 C541 C 0.63577 0.32159 0.34344
 C542 C 0.65262 0.32821 0.34778
 C543 C 0.66147 0.32238 0.36292
 C544 C 0.67846 0.32892 0.36704
 C545 C 0.68633 0.34157 0.35596
 H546 H 0.65335 0.36399 0.29901
 H547 H 0.69883 0.36481 0.33291
 H548 H 0.62868 0.34481 0.30572
 H549 H 0.62953 0.31205 0.35207
 H550 H 0.65495 0.31296 0.37146
 H551 H 0.69934 0.34672 0.35907
 C552 C 0.65926 0.85874 0.81941
 C553 C 0.66728 0.87414 0.81264
 C554 C 0.68248 0.88127 0.82061
 C555 C 0.68960 0.87270 0.83532
 C556 C 0.68175 0.85735 0.84217
 C557 C 0.66651 0.85031 0.83425
 C558 C 0.64420 0.85156 0.81147
 C559 C 0.63625 0.83604 0.81803
 C560 C 0.64352 0.82777 0.83297
 C561 C 0.65864 0.83477 0.84108
 C562 C 0.66613 0.82641 0.85582
 C563 C 0.68141 0.83343 0.86373
 C564 C 0.68906 0.84887 0.85677
 H565 H 0.66176 0.88020 0.80104
 H566 H 0.70136 0.87802 0.84147
 H567 H 0.63867 0.85803 0.80002
 H568 H 0.63750 0.81603 0.83850
 H569 H 0.66020 0.81435 0.86078
 H570 H 0.70085 0.85432 0.86275
 C571 C 0.15511 0.35983 0.84073
 C572 C 0.16506 0.37375 0.83361
 C573 C 0.18100 0.37911 0.84146
 C574 C 0.18704 0.37007 0.85643
 C575 C 0.17722 0.35602 0.86370
 C576 C 0.16116 0.35092 0.85581
 C577 C 0.13933 0.35449 0.83276
 C578 C 0.12950 0.34025 0.83952
 C579 C 0.13543 0.33157 0.85476
 C580 C 0.15125 0.33675 0.86284
 C581 C 0.15745 0.32779 0.87770
 C582 C 0.17345 0.33264 0.88565
 C583 C 0.18331 0.34683 0.87855
 H584 H 0.16049 0.37997 0.82168
 H585 H 0.19942 0.37397 0.86241
 H586 H 0.13480 0.36126 0.82106
 H587 H 0.12782 0.32087 0.86048
 H588 H 0.14985 0.31682 0.88302
 H589 H 0.19585 0.35058 0.88419
 C590 C 0.15564 0.83727 0.32144
 C591 C 0.16408 0.85148 0.31291
 C592 C 0.17923 0.85943 0.32020
 C593 C 0.18595 0.85276 0.33604
 C594 C 0.17770 0.83857 0.34470
 C595 C 0.16248 0.83079 0.33739
 C596 C 0.14055 0.82933 0.31420
 C597 C 0.13214 0.81505 0.32278
 C598 C 0.13922 0.80857 0.33852
 C599 C 0.15426 0.81636 0.34592
 C600 C 0.16122 0.80991 0.36171
 C601 C 0.17624 0.81771 0.36920
 C602 C 0.18452 0.83197 0.36050
 H603 H 0.15890 0.85603 0.30050
 H604 H 0.19767 0.85871 0.34169
 H605 H 0.13564 0.83412 0.30177
 H606 H 0.13290 0.79748 0.34509
 H607 H 0.15488 0.79881 0.36825
 H608 H 0.19647 0.83779 0.36569
 O609 O 0.24221 1.00658 0.20679
 O610 O 0.21761 0.97144 0.22973
 O611 O 0.21829 1.00603 0.23155
 O612 O 0.24208 0.97195 0.20537
 O613 O 0.26299 0.97054 0.22546
 O614 O 0.23923 1.00468 0.25161
 O615 O 0.23851 0.96993 0.24983
 O616 O 0.26318 1.00544 0.22684
 Cu617 Cu 0.22797 0.98912 0.21635
 Cu618 Cu 0.25309 0.98749 0.24044
 C619 C 0.25675 1.01213 0.21294
 C620 C 0.22383 0.96466 0.24363
 C621 C 0.22476 1.01124 0.24598
 C622 C 0.25652 0.96537 0.21100
 O623 O 0.25758 0.52105 0.72988
 O624 O 0.22876 0.48770 0.75110
 O625 O 0.23316 0.52178 0.75413
 O626 O 0.25150 0.48708 0.72506
 O627 O 0.27266 0.48143 0.74417
 O628 O 0.25404 0.51625 0.77357
 O629 O 0.24994 0.48204 0.77019
 O630 O 0.27850 0.51521 0.74922
 Cu631 Cu 0.24069 0.50493 0.73806
 Cu632 Cu 0.26590 0.49814 0.76119
 C633 C 0.27292 0.52390 0.73613
 C634 C 0.23449 0.47925 0.76435
 C635 C 0.24036 0.52495 0.76877
 C636 C 0.26514 0.47831 0.72962
 O637 O 0.72064 -0.01722 0.28894
 O638 O 0.69764 0.01831 0.26531
 O639 O 0.69785 -0.01622 0.26344
 O640 O 0.72261 0.01733 0.28876
 O641 O 0.74352 0.01713 0.26825
 O642 O 0.71932 -0.01652 0.24352
 O643 O 0.71865 0.01810 0.24489
 O644 O 0.74213 -0.01741 0.26902
 Cu645 Cu 0.70757 0.00057 0.27864
 Cu646 Cu 0.73302 0.00028 0.25439
 C647 C 0.73528 -0.02331 0.28315
 C648 C 0.70411 0.02425 0.25112
 C649 C 0.70447 -0.02206 0.24912
 C650 C 0.73731 0.02296 0.28269
 O651 O 0.74574 0.46907 0.76934
 O652 O 0.71715 0.50356 0.74945
 O653 O 0.71679 0.46874 0.75087
 O654 O 0.74564 0.50380 0.76840
 O655 O 0.76174 0.50288 0.74405
 O656 O 0.73301 0.46759 0.72661
 O657 O 0.73329 0.50238 0.72513
 O658 O 0.76197 0.46821 0.74508
 Cu659 Cu 0.72967 0.48637 0.76192
 Cu660 Cu 0.74911 0.48511 0.73278
 C661 C 0.75878 0.46280 0.76054
 C662 C 0.72048 0.50899 0.73400
 C663 C 0.72004 0.46210 0.73584
 C664 C 0.75853 0.50940 0.75914
 O665 O 0.25954 0.49983 0.22122
 O666 O 0.27617 0.53577 0.25005
 O667 O 0.28152 0.50168 0.24716
 O668 O 0.25725 0.53467 0.22143
 O669 O 0.23364 0.53193 0.23858
 O670 O 0.25808 0.49795 0.26435
 O671 O 0.25262 0.53242 0.26716
 O672 O 0.23602 0.49737 0.23851
 Cu673 Cu 0.27089 0.51838 0.23322
 Cu674 Cu 0.24279 0.51470 0.25391
 C675 C 0.24493 0.49238 0.22518
 C676 C 0.26713 0.54007 0.26364
 C677 C 0.27398 0.49397 0.25990
 C678 C 0.24145 0.53897 0.22547
 O679 O 0.74146 1.03128 0.75665
 O680 O 0.76998 0.99683 0.73695
 O681 O 0.76677 1.03136 0.73315
 O682 O 0.74217 0.99652 0.75756
 O683 O 0.72334 0.99481 0.73558
 O684 O 0.74830 1.02817 0.71105
 O685 O 0.75121 0.99366 0.71509
 O686 O 0.72284 1.02944 0.73454
 Cu687 Cu 0.75696 1.01424 0.74824
 Cu688 Cu 0.73461 1.01129 0.72187
 C689 C 0.72740 1.03637 0.74906
 C690 C 0.76546 0.98918 0.72288
 C691 C 0.76156 1.03565 0.71786
 C692 C 0.72843 0.98983 0.75058
 O693 O 0.74992 0.51101 0.25372
 O694 O 0.78014 0.47954 0.23123
 O695 O 0.77328 0.51334 0.22865
 O696 O 0.75750 0.47738 0.25707
 O697 O 0.73661 0.47109 0.23791
 O698 O 0.75201 0.50776 0.20969
 O699 O 0.75922 0.47402 0.21187
 O700 O 0.72876 0.50480 0.23484
 Cu701 Cu 0.76731 0.49590 0.24461
 Cu702 Cu 0.74202 0.48874 0.22167
 C703 C 0.73423 0.51331 0.24808
 C704 C 0.77482 0.47157 0.21757
 C705 C 0.76535 0.51676 0.21441
 C706 C 0.74440 0.46809 0.25235
 O707 O 0.26164 -0.02379 0.76159
 O708 O 0.23268 0.01118 0.74398
 O709 O 0.23566 -0.02308 0.73936
 O710 O 0.26004 0.01066 0.76462
 O711 O 0.27871 0.01374 0.74232
 O712 O 0.25405 -0.01916 0.71699
 O713 O 0.25130 0.01514 0.72180
 O714 O 0.28014 -0.02064 0.73919
 Cu715 Cu 0.24563 -0.00661 0.75461
 Cu716 Cu 0.26788 -0.00238 0.72781
 C717 C 0.27578 -0.02822 0.75347
 C718 C 0.23704 0.01921 0.73002
 C719 C 0.24078 -0.02682 0.72383
 C720 C 0.27363 0.01785 0.75770
 O721 O 0.25081 0.27590 0.99901
 O722 O 0.26874 0.24357 1.03059
 O723 O 0.27408 0.25016 0.99747
 O724 O 0.24533 0.26920 1.03219
 O725 O 0.22409 0.25042 1.02533
 O726 O 0.25293 0.23120 0.99082
 O727 O 0.24743 0.22475 1.02403
 O728 O 0.22968 0.25699 0.99213
 Cu729 Cu 0.26185 0.26162 1.01552
 Cu730 Cu 0.23640 0.23895 1.00737
 C731 C 0.23726 0.27190 0.99010
 C732 C 0.26113 0.22870 1.03275
 C733 C 0.26836 0.23742 0.98821
 C734 C 0.22987 0.26303 1.03472
 O735 O 0.26145 0.79568 0.48699
 O736 O 0.28685 0.77485 0.52244
 O737 O 0.28740 0.77259 0.48836
 O738 O 0.25982 0.79657 0.52110
 O739 O 0.24115 0.77408 0.52170
 O740 O 0.26836 0.75041 0.48860
 O741 O 0.26829 0.75226 0.52278
 O742 O 0.24249 0.77341 0.48735
 Cu743 Cu 0.27575 0.78716 0.50467
 Cu744 Cu 0.25316 0.76031 0.50519
 C745 C 0.24775 0.78813 0.48105
 C746 C 0.28197 0.76003 0.52863
 C747 C 0.28249 0.75747 0.48282
 C748 C 0.24583 0.78933 0.52705
 O749 O 0.26770 0.75140 -0.02416
 O750 O 0.24941 0.72195 0.01000
 O751 O 0.24975 0.72195 -0.02427
 O752 O 0.26749 0.75128 0.00996
 O753 O 0.24250 0.76690 0.01018
 O754 O 0.22476 0.73756 -0.02413
 O755 O 0.22444 0.73759 0.00999
 O756 O 0.24270 0.76700 -0.02405
 Cu757 Cu 0.26110 0.73507 -0.00714
 Cu758 Cu 0.23109 0.75383 -0.00700
 C759 C 0.25830 0.76420 -0.02992
 C760 C 0.23380 0.72482 0.01585
 C761 C 0.23424 0.72479 -0.03006
 C762 C 0.25803 0.76404 0.01594
 O763 O 0.23353 0.24904 0.48549
 O764 O 0.25438 0.27602 0.51919
 O765 O 0.25735 0.27287 0.48588
 O766 O 0.23402 0.24711 0.52028
 O767 O 0.25625 0.22778 0.52033
 O768 O 0.28001 0.25411 0.48776
 O769 O 0.27605 0.25620 0.52175
 O770 O 0.25570 0.22956 0.48615
 Cu771 Cu 0.24253 0.26275 0.50303
 Cu772 Cu 0.26923 0.24002 0.50412
 C773 C 0.24095 0.23493 0.47986
 C774 C 0.26861 0.27084 0.52633
 C775 C 0.27281 0.26772 0.48104
 C776 C 0.24120 0.23287 0.52595
 O777 O 0.74368 0.77028 0.97372
 O778 O 0.77316 0.75231 1.00763
 O779 O 0.76665 0.74437 0.97494
 O780 O 0.74949 0.77771 1.00661
 O781 O 0.72824 0.75914 1.01428
 O782 O 0.74585 0.72561 0.98334
 O783 O 0.75207 0.73388 1.01606
 O784 O 0.72271 0.75144 0.98146
 Cu785 Cu 0.76036 0.76302 0.98991
 Cu786 Cu 0.73513 0.74063 0.99964
 C787 C 0.72828 0.76390 0.97168
 C788 C 0.76759 0.74016 1.01774
 C789 C 0.75909 0.72936 0.97369
 C790 C 0.73585 0.77407 1.01580
 O791 O 0.74849 0.26890 0.47726
 O792 O 0.77440 0.24723 0.51290
 O793 O 0.77870 0.25045 0.47907
 O794 O 0.75040 0.27206 0.51177
 O795 O 0.73194 0.24935 0.51180
 O796 O 0.76030 0.22779 0.47759
 O797 O 0.75590 0.22460 0.51190
 O798 O 0.73002 0.24626 0.47796
 Cu799 Cu 0.76449 0.26178 0.49505
 Cu800 Cu 0.74305 0.23482 0.49450
 C801 C 0.73463 0.26110 0.47171
 C802 C 0.76929 0.23206 0.51845
 C803 C 0.77447 0.23558 0.47263
 C804 C 0.73658 0.26457 0.51758
 O805 O 0.77163 0.25731 -0.00534
 O806 O 0.74197 0.23625 0.02781
 O807 O 0.74369 0.23762 -0.00627
 O808 O 0.77304 0.25171 0.02872
 O809 O 0.75827 0.27708 0.03162
 O810 O 0.72828 0.26267 -0.00405
 O811 O 0.72728 0.26172 0.03026
 O812 O 0.75641 0.28239 -0.00193
 Cu813 Cu 0.75913 0.24327 0.01107
 Cu814 Cu 0.74105 0.27340 0.01430
 C815 C 0.76875 0.27356 -0.00930
 C816 C 0.72946 0.24562 0.03456
 C817 C 0.73115 0.24763 -0.01135
 C818 C 0.77087 0.26666 0.03611
 O819 O 0.74417 0.73042 0.51409
 O820 O 0.75865 0.75979 0.47856
 O821 O 0.76123 0.76058 0.51244
 O822 O 0.73880 0.73174 0.48021
 O823 O 0.71424 0.74768 0.48386
 O824 O 0.73644 0.77629 0.51541
 O825 O 0.73404 0.77580 0.48136
 O826 O 0.71950 0.74621 0.51748
 Cu827 Cu 0.75314 0.74399 0.49607
 Cu828 Cu 0.72361 0.76307 0.49987
 C829 C 0.72946 0.73321 0.52185
 C830 C 0.74894 0.77277 0.47386
 C831 C 0.75253 0.77349 0.51926
 C832 C 0.72263 0.73500 0.47653
 O833 O 1.03405 0.25656 0.25849
 O834 O 0.99865 0.23688 0.28571
 O835 O 1.03293 0.23136 0.28180
 O836 O 1.00002 0.26153 0.26169
 O837 O 0.99513 0.24156 0.24103
 O838 O 1.02774 0.21138 0.26123
 O839 O 0.99351 0.21707 0.26498
 O840 O 1.02925 0.23656 0.23784
 Cu841 Cu 1.01688 0.24852 0.27405
 Cu842 Cu 1.01093 0.22459 0.24925
 C843 C 1.03766 0.24995 0.24351
 C844 C 0.98990 0.22379 0.27992
 C845 C 1.03606 0.21628 0.27479
 C846 C 0.99205 0.25670 0.24788
 O847 O 0.51595 0.27223 0.77304
 O848 O 0.48047 0.24982 0.79745
 O849 O 0.51473 0.24501 0.79380
 O850 O 0.48161 0.27578 0.77482
 O851 O 0.47854 0.25720 0.75259
 O852 O 0.51066 0.22629 0.77184
 O853 O 0.47644 0.23141 0.77524
 O854 O 0.51278 0.25351 0.75091
 Cu855 Cu 0.49851 0.26253 0.78705
 Cu856 Cu 0.49421 0.24021 0.76045
 C857 C 0.52049 0.26672 0.75791
 C858 C 0.47231 0.23694 0.79054
 C859 C 0.51841 0.23048 0.78591
 C860 C 0.47460 0.27171 0.76026
 O861 O -0.00955 0.28559 0.75994
 O862 O 0.02641 0.26488 0.73388
 O863 O -0.00781 0.26758 0.73097
 O864 O 0.02485 0.28332 0.76295
 O865 O 0.02189 0.25849 0.77811
 O866 O -0.01049 0.24260 0.74595
 O867 O 0.02375 0.24011 0.74920
 O868 O -0.01253 0.26071 0.77502
 Cu869 Cu 0.00884 0.27787 0.74546
 Cu870 Cu 0.00537 0.24799 0.76362
 C871 C -0.01730 0.27660 0.77178
 C872 C 0.03115 0.24897 0.73704
 C873 C -0.01470 0.25237 0.73303
 C874 C 0.02893 0.27361 0.77595
 O875 O 0.47701 0.21447 0.27659
 O876 O 0.51151 0.23887 0.29981
 O877 O 0.47682 0.24037 0.29931
 O878 O 0.51150 0.21514 0.27484
 O879 O 0.51146 0.23583 0.25431
 O880 O 0.47666 0.26064 0.27839
 O881 O 0.51151 0.25956 0.27928
 O882 O 0.47682 0.23467 0.25559
 Cu883 Cu 0.49423 0.22522 0.28971
 Cu884 Cu 0.49408 0.24975 0.26486
 C885 C 0.47105 0.22026 0.26219
 C886 C 0.51752 0.25323 0.29355
 C887 C 0.47071 0.25474 0.29285
 C888 C 0.51739 0.22126 0.26039
 O889 O 0.96521 0.75269 0.72706
 O890 O 1.00008 0.72163 0.74241
 O891 O 0.96628 0.72605 0.74887
 O892 O 0.99864 0.74692 0.71922
 O893 O 1.00561 0.76601 0.74008
 O894 O 0.97303 0.74512 0.76981
 O895 O 1.00675 0.74082 0.76327
 O896 O 0.97227 0.77175 0.74790
 Cu897 Cu 0.98182 0.73494 0.73229
 Cu898 Cu 0.99008 0.75784 0.75735
 C899 C 0.96283 0.76751 0.73489
 C900 C 1.00941 0.72605 0.75551
 C901 C 0.96415 0.73195 0.76436
 C902 C 1.00775 0.75990 0.72462
 O903 O 0.48586 0.73934 0.22408
 O904 O 0.52312 0.71174 0.24003
 O905 O 0.48919 0.71321 0.24631
 O906 O 0.51971 0.73700 0.21705
 O907 O 0.52479 0.75659 0.23803
 O908 O 0.49352 0.73312 0.26718
 O909 O 0.52762 0.73129 0.26117
 O910 O 0.49094 0.75912 0.24488
 Cu911 Cu 0.50396 0.72336 0.22976
 Cu912 Cu 0.50973 0.74701 0.25492
 C913 C 0.48212 0.75396 0.23175
 C914 C 0.53167 0.71683 0.25339
 C915 C 0.48609 0.71909 0.26164
 C916 C 0.52753 0.75077 0.22255
 O917 O 0.00699 0.77103 0.21656
 O918 O -0.02478 0.78779 0.25026
 O919 O 0.00929 0.79049 0.24472
 O920 O -0.02747 0.77073 0.22057
 O921 O -0.02437 0.74570 0.23541
 O922 O 0.01295 0.76565 0.25976
 O923 O -0.02133 0.76279 0.26508
 O924 O 0.00985 0.74620 0.23175
 Cu925 Cu -0.00934 0.78250 0.23155
 Cu926 Cu -0.00543 0.75263 0.24954
 C927 C 0.01378 0.75561 0.21851
 C928 C -0.02844 0.77801 0.26340
 C929 C 0.01749 0.78153 0.25618
 C930 C -0.03217 0.75491 0.22373
 O931 O 0.48503 0.73590 0.74335
 O932 O 0.52267 0.75175 0.76966
 O933 O 0.48819 0.75581 0.77115
 O934 O 0.51942 0.73175 0.74191
 O935 O 0.52121 0.75546 0.72494
 O936 O 0.49046 0.77960 0.75435
 O937 O 0.52480 0.77543 0.75271
 O938 O 0.48696 0.75980 0.72666
 Cu939 Cu 0.50364 0.74142 0.75823
 Cu940 Cu 0.50609 0.76996 0.73799
 C941 C 0.47956 0.74520 0.73055
 C942 C 0.53017 0.76627 0.76564
 C943 C 0.48396 0.77180 0.76766
 C944 C 0.52555 0.73951 0.72840
 C945 C 0.37835 0.32647 0.31879
 C946 C 0.38918 0.31409 0.32740
 C947 C 0.40464 0.30537 0.31891
 N948 N 0.41368 0.29244 0.32758
 N949 N 0.42747 0.28409 0.32004
 C950 C 0.43276 0.28840 0.30353
 N951 N 0.42379 0.30140 0.29488
 N952 N 0.40997 0.30971 0.30241
 C953 C 0.44779 0.27914 0.29484
 C954 C 0.45642 0.26447 0.30224
 H955 H 0.38637 0.31039 0.34081
 H956 H 0.45180 0.28371 0.28194
 H957 H 0.38209 0.33058 0.30566
 H958 H 0.45220 0.25958 0.31494
 C959 C 0.39866 0.82503 0.82402
 C960 C 0.40853 0.83294 0.81054
 C961 C 0.42403 0.82413 0.80236
 N962 N 0.43305 0.83249 0.78934
 N963 N 0.44657 0.82442 0.78113
 C964 C 0.45157 0.80767 0.78562
 N965 N 0.44264 0.79931 0.79873
 N966 N 0.42911 0.80739 0.80696
 C967 C 0.46592 0.79869 0.77575
 C968 C 0.47110 0.78118 0.77906
 H969 H 0.40500 0.84585 0.80541
 H970 H 0.47206 0.80590 0.76504
 H971 H 0.40383 0.81276 0.82952
 H972 H 0.46512 0.77394 0.78984
 C973 C -0.11108 0.31965 0.82253
 C974 C -0.10211 0.32845 0.80898
 C975 C -0.08545 0.32141 0.80137
 N976 N -0.07693 0.33063 0.78858
 N977 N -0.06206 0.32422 0.78126
 C978 C -0.05517 0.30836 0.78645
 N979 N -0.06365 0.29916 0.79929
 N980 N -0.07850 0.30557 0.80662
 C981 C -0.03911 0.30121 0.77780
 C982 C -0.03223 0.28442 0.78174
 H983 H -0.10702 0.34081 0.80362
 H984 H -0.03298 0.30910 0.76757
 H985 H -0.10482 0.30779 0.82780
 H986 H -0.03842 0.27644 0.79186
 C987 C -0.11095 0.83754 0.32475
 C988 C -0.10374 0.82038 0.32461
 C989 C -0.08880 0.81560 0.31286
 N990 N -0.08215 0.79877 0.31279
 N991 N -0.06928 0.79407 0.30154
 C992 C -0.06263 0.80602 0.28990
 N993 N -0.06923 0.82286 0.29002
 N994 N -0.08205 0.82757 0.30129
 C995 C -0.04895 0.80083 0.27692
 C996 C -0.04122 0.78395 0.27689
 H997 H -0.10982 0.80990 0.33221
 H998 H -0.04509 0.81042 0.26703
 H999 H -0.10468 0.84755 0.31664
 H1000 H -0.04477 0.77455 0.28707
 C1001 C 0.62232 0.67429 0.31599
 C1002 C 0.61373 0.66981 0.30043
 C1003 C 0.59851 0.68025 0.29392
 N1004 N 0.59032 0.67534 0.27890
 N1005 N 0.57666 0.68479 0.27277
 C1006 C 0.57072 0.69953 0.28144
 N1007 N 0.57890 0.70443 0.29645
 N1008 N 0.59253 0.69498 0.30258
 C1009 C 0.55579 0.71028 0.27486
 C1010 C 0.54644 0.70575 0.25982
 H1011 H 0.61815 0.65865 0.29255
 H1012 H 0.55207 0.72215 0.28215
 H1013 H 0.61731 0.68566 0.32334
 H1014 H 0.54996 0.69379 0.25258
 C1015 C 0.61791 0.19092 0.83387
 C1016 C 0.60518 0.18388 0.82272
 C1017 C 0.58883 0.19390 0.81875
 N1018 N 0.57709 0.18742 0.80701
 N1019 N 0.56243 0.19661 0.80313
 C1020 C 0.55895 0.21257 0.81093
 N1021 N 0.57061 0.21896 0.82276
 N1022 N 0.58526 0.20980 0.82660
 C1023 C 0.54333 0.22331 0.80622
 C1024 C 0.53214 0.21841 0.79265
 H1025 H 0.60696 0.17084 0.81691
 H1026 H 0.54129 0.23596 0.81282
 H1027 H 0.61529 0.20382 0.83978
 H1028 H 0.53437 0.20591 0.78582
 C1029 C 1.10143 0.68246 0.81513
 C1030 C 1.09147 0.67678 0.80081
 C1031 C 1.07640 0.68749 0.79432
 N1032 N 1.06677 0.68181 0.78043
 N1033 N 1.05321 0.69154 0.77448
 C1034 C 1.04881 0.70731 0.78221
 N1035 N 1.05842 0.71295 0.79607
 N1036 N 1.07194 0.70324 0.80201
 C1037 C 1.03409 0.71849 0.77589
 C1038 C 1.02353 0.71397 0.76165
 H1039 H 1.09448 0.66433 0.79426
 H1040 H 1.03164 0.73096 0.78270
 H1041 H 1.09748 0.69478 0.82154
 H1042 H 1.02580 0.70152 0.75476
 C1043 C 1.13068 0.17224 0.33058
 C1044 C 1.11914 0.16705 0.31722
 C1045 C 1.10365 0.17794 0.31213
 N1046 N 1.09294 0.17224 0.29909
 N1047 N 1.07911 0.18206 0.29400
 C1048 C 1.07544 0.19797 0.30179
 N1049 N 1.08610 0.20365 0.31489
 N1050 N 1.09994 0.19382 0.31997
 C1051 C 1.06056 0.20926 0.29590
 C1052 C 1.04969 0.20431 0.28203
 H1053 H 1.12119 0.15482 0.31003
 H1054 H 1.05854 0.22205 0.30222
 H1055 H 1.12741 0.18445 0.33755
 H1056 H 1.05176 0.19154 0.27567
 C1057 C 0.60381 0.30228 0.68176
 C1058 C 0.59823 0.30624 0.69886
 C1059 C 0.58305 0.29727 0.70719
 N1060 N 0.57817 0.30164 0.72382
 N1061 N 0.56464 0.29349 0.73168
 C1062 C 0.55547 0.28063 0.72319
 N1063 N 0.56033 0.27625 0.70654
 N1064 N 0.57386 0.28442 0.69868
 C1065 C 0.54063 0.27138 0.73184
 C1066 C 0.53496 0.27593 0.74873
 H1067 H 0.60540 0.31571 0.70673
 H1068 H 0.53410 0.26078 0.72481
 H1069 H 0.59672 0.29217 0.67455
 H1070 H 0.54139 0.28669 0.75561
 C1071 C 0.60900 0.82267 0.17627
 C1072 C 0.59975 0.80745 0.17121
 C1073 C 0.58631 0.79933 0.18271
 N1074 N 0.57761 0.78460 0.17731
 N1075 N 0.56566 0.77688 0.18771
 C1076 C 0.56197 0.78361 0.20391
 N1077 N 0.57064 0.79836 0.20930
 N1078 N 0.58259 0.80608 0.19890
 C1079 C 0.54906 0.77505 0.21566
 C1080 C 0.53993 0.75984 0.21069
 H1081 H 0.60225 0.80098 0.15877
 H1082 H 0.54688 0.78073 0.22858
 H1083 H 0.60538 0.82861 0.18879
 H1084 H 0.54205 0.75421 0.19774
 C1085 C 1.12309 0.32038 0.20068
 C1086 C 1.11505 0.30427 0.19612
 C1087 C 1.10088 0.29627 0.20694
 N1088 N 1.09299 0.28105 0.20155
 N1089 N 1.08023 0.27359 0.21120
 C1090 C 1.07489 0.28106 0.22664
 N1091 N 1.08279 0.29625 0.23204
 N1092 N 1.09553 0.30373 0.22238
 C1093 C 1.06086 0.27300 0.23754
 C1094 C 1.05172 0.25778 0.23247
 H1095 H 1.11882 0.29713 0.18435
 H1096 H 1.05756 0.27937 0.24993
 H1097 H 1.11819 0.32701 0.21243
 H1098 H 1.05481 0.25148 0.22000
 C1099 C 1.09951 0.82114 0.68272
 C1100 C 1.08931 0.80683 0.67695
 C1101 C 1.07393 0.80064 0.68731
 N1102 N 1.06411 0.78678 0.68156
 N1103 N 1.05050 0.78081 0.69111
 C1104 C 1.04623 0.78850 0.70677
 N1105 N 1.05601 0.80238 0.71248
 N1106 N 1.06959 0.80833 0.70293
 C1107 C 1.03171 0.78176 0.71785
 C1108 C 1.02112 0.76759 0.71277
 H1109 H 1.09254 0.79971 0.66501
 H1110 H 1.02962 0.78788 0.73060
 H1111 H 1.09511 0.82778 0.69466
 H1112 H 1.02302 0.76158 0.69996
 C1113 C 0.38864 0.68398 0.68645
 C1114 C 0.39671 0.70044 0.68372
 C1115 C 0.41220 0.70619 0.69394
 N1116 N 0.41969 0.72223 0.69067
 N1117 N 0.43361 0.72767 0.69986
 C1118 C 0.44056 0.71729 0.71270
 N1119 N 0.43307 0.70126 0.71597
 N1120 N 0.41917 0.69581 0.70677
 C1121 C 0.45587 0.72314 0.72310
 C1122 C 0.46443 0.73923 0.71999
 H1123 H 0.39151 0.70967 0.67417
 H1124 H 0.46049 0.71451 0.73349
 H1125 H 0.39392 0.67542 0.69660
 H1126 H 0.45994 0.74779 0.70948
 C1127 C 0.38726 0.17929 0.19067
 C1128 C 0.39551 0.17407 0.20623
 C1129 C 0.40967 0.18474 0.21422
 N1130 N 0.41714 0.17933 0.22945
 N1131 N 0.42984 0.18889 0.23691
 C1132 C 0.43558 0.20422 0.22943
 N1133 N 0.42814 0.20962 0.21418
 N1134 N 0.41542 0.20007 0.20672
 C1135 C 0.44954 0.21495 0.23765
 C1136 C 0.45727 0.20986 0.25341
 H1137 H 0.39169 0.16212 0.21306
 H1138 H 0.45371 0.22708 0.23125
 H1139 H 0.39189 0.19147 0.18463
 H1140 H 0.45301 0.19772 0.25976
 C1141 C -0.11219 0.68370 0.17476
 C1142 C -0.10797 0.70173 0.17432
 C1143 C -0.09309 0.70889 0.18452
 N1144 N -0.08936 0.72650 0.18388
 N1145 N -0.07620 0.73318 0.19337
 C1146 C -0.06631 0.72250 0.20390
 N1147 N -0.07003 0.70489 0.20454
 N1148 N -0.08316 0.69821 0.19504
 C1149 C -0.05181 0.72970 0.21457
 C1150 C -0.04684 0.74748 0.21354
 H1151 H -0.11610 0.71103 0.16707
 H1152 H -0.04474 0.72075 0.22323
 H1153 H -0.10405 0.67492 0.18265
 H1154 H -0.05369 0.75630 0.20458
 C1155 C -0.09839 0.18954 0.68003
 C1156 C -0.09125 0.20652 0.67826
 C1157 C -0.07603 0.21217 0.68882
 N1158 N -0.06981 0.22900 0.68743
 N1159 N -0.05655 0.23446 0.69752
 C1160 C -0.04906 0.22328 0.70938
 N1161 N -0.05521 0.20643 0.71069
 N1162 N -0.06843 0.20098 0.70060
 C1163 C -0.03496 0.22922 0.72115
 C1164 C -0.02785 0.24624 0.72032
 H1165 H -0.09746 0.21631 0.66989
 H1166 H -0.03029 0.21997 0.73101
 H1167 H -0.09215 0.18034 0.68906
 H1168 H -0.03217 0.25540 0.71023
 C1169 C 0.30554 0.39494 0.31578
 C1170 C 0.31385 0.40772 0.30543
 C1171 C 0.30404 0.42347 0.29908
 N1172 N 0.31246 0.43583 0.28918
 N1173 N 0.30369 0.45011 0.28340
 C1174 C 0.28620 0.45261 0.28734
 N1175 N 0.27781 0.44028 0.29729
 N1176 N 0.28656 0.42599 0.30305
 C1177 C 0.27622 0.46802 0.28053
 C1178 C 0.28406 0.48007 0.26908
 H1179 H 0.32787 0.40660 0.30237
 H1180 H 0.26224 0.46932 0.28381
 H1181 H 0.29165 0.39693 0.31915
 H1182 H 0.29794 0.47844 0.26554
 C1183 C 0.32137 -0.11374 0.82147
 C1184 C 0.32627 -0.10449 0.80625
 C1185 C 0.31499 -0.09046 0.79863
 N1186 N 0.32011 -0.08241 0.78351
 N1187 N 0.31002 -0.06978 0.77632
 C1188 C 0.29442 -0.06475 0.78401
 N1189 N 0.28932 -0.07278 0.79914
 N1190 N 0.29941 -0.08541 0.80632
 C1191 C 0.28308 -0.05085 0.77632
 C1192 C 0.28734 -0.04224 0.76067
 H1193 H 0.33840 -0.10753 0.79921
 H1194 H 0.27096 -0.04729 0.78330
 H1195 H 0.30882 -0.11008 0.82763
 H1196 H 0.29940 -0.04576 0.75358
 C1197 C 0.80871 0.37726 0.82600
 C1198 C 0.81235 0.38709 0.81079
 C1199 C 0.80051 0.40126 0.80426
 N1200 N 0.80448 0.40934 0.78884
 N1201 N 0.79399 0.42211 0.78252
 C1202 C 0.77912 0.42734 0.79140
 N1203 N 0.77517 0.41931 0.80688
 N1204 N 0.78566 0.40649 0.81320
 C1205 C 0.76738 0.44138 0.78441
 C1206 C 0.77048 0.44907 0.76803
 H1207 H 0.82391 0.38432 0.80277
 H1208 H 0.75596 0.44553 0.79218
 H1209 H 0.79651 0.38039 0.83305
 H1210 H 0.78176 0.44468 0.76019
 C1211 C 0.81170 -0.10356 0.32490
 C1212 C 0.79469 -0.09718 0.32910
 C1213 C 0.78612 -0.08313 0.31867
 N1214 N 0.76962 -0.07725 0.32314
 N1215 N 0.76156 -0.06478 0.31364
 C1216 C 0.76969 -0.05775 0.29929
 N1217 N 0.78619 -0.06363 0.29481
 N1218 N 0.79426 -0.07610 0.30433
 C1219 C 0.76090 -0.04401 0.28868
 C1220 C 0.74419 -0.03733 0.29321
 H1221 H 0.78708 -0.10255 0.33988
 H1222 H 0.76780 -0.03895 0.27723
 H1223 H 0.81855 -0.09725 0.31404
 H1224 H 0.73743 -0.04229 0.30478
 C1225 C 0.31437 0.61922 0.68025
 C1226 C 0.32078 0.60675 0.69221
 C1227 C 0.30988 0.59167 0.69808
 N1228 N 0.31644 0.57989 0.70987
 N1229 N 0.30665 0.56628 0.71537
 C1230 C 0.28993 0.56392 0.70926
 N1231 N 0.28340 0.57566 0.69742
 N1232 N 0.29318 0.58928 0.69193
 C1233 C 0.27877 0.54922 0.71553
 C1234 C 0.28448 0.53756 0.72852
 H1235 H 0.33412 0.60771 0.69723
 H1236 H 0.26553 0.54798 0.71026
 H1237 H 0.30120 0.61734 0.67498
 H1238 H 0.29764 0.53897 0.73394
 C1239 C 0.32354 1.10595 0.18446
 C1240 C 0.30966 1.09602 0.17735
 C1241 C 0.30257 1.07998 0.18593
 N1242 N 0.28881 1.07127 0.17855
 N1243 N 0.28194 1.05694 0.18620
 C1244 C 0.28858 1.05074 0.20155
 N1245 N 0.30241 1.05939 0.20891
 N1246 N 0.30928 1.07375 0.20126
 C1247 C 0.28074 1.03518 0.21036
 C1248 C 0.26584 1.02667 0.20371
 H1249 H 0.30339 1.09987 0.16526
 H1250 H 0.28642 1.03073 0.22261
 H1251 H 0.32930 1.10110 0.19655
 H1252 H 0.26006 1.03133 0.19158
 C1253 C 0.82412 0.61091 0.17398
 C1254 C 0.80924 0.60111 0.16907
 C1255 C 0.80366 0.58522 0.17883
 N1256 N 0.78907 0.57615 0.17376
 N1257 N 0.78359 0.56202 0.18277
 C1258 C 0.79251 0.55647 0.19719
 N1259 N 0.80712 0.56551 0.20223
 N1260 N 0.81260 0.57962 0.19322
 C1261 C 0.78648 0.54123 0.20760
 C1262 C 0.77155 0.53139 0.20325
 H1263 H 0.80112 0.60496 0.15810
 H1264 H 0.79394 0.53785 0.21923
 H1265 H 0.83188 0.60584 0.18482
 H1266 H 0.76414 0.53456 0.19154
 C1267 C 0.82582 1.12862 0.68310
 C1268 C 0.81265 1.11785 0.67609
 C1269 C 0.80518 1.10287 0.68613
 N1270 N 0.79272 1.09232 0.67883
 N1271 N 0.78595 1.07871 0.68777
 C1272 C 0.79140 1.07510 0.70435
 N1273 N 0.80387 1.08564 0.71165
 N1274 N 0.81064 1.09925 0.70271
 C1275 C 0.78381 1.06027 0.71450
 C1276 C 0.77052 1.04959 0.70768
 H1277 H 0.80803 1.11997 0.66286
 H1278 H 0.78841 1.05807 0.72775
 H1279 H 0.83058 1.12557 0.69613
 H1280 H 0.76585 1.05200 0.69449
 C1281 C 0.69321 0.60292 0.31356
 C1282 C 0.68641 0.59228 0.30023
 C1283 C 0.69693 0.57741 0.29285
 N1284 N 0.69042 0.56746 0.27954
 N1285 N 0.70007 0.55422 0.27258
 C1286 C 0.71657 0.55045 0.27872
 N1287 N 0.72302 0.56033 0.29207
 N1288 N 0.71339 0.57356 0.29900
 C1289 C 0.72770 0.53634 0.27093
 C1290 C 0.72224 0.52618 0.25671
 H1291 H 0.67331 0.59468 0.29504
 H1292 H 0.74087 0.53432 0.27622
 H1293 H 0.70620 0.59957 0.31866
 H1294 H 0.70908 0.52810 0.25139
 C1295 C 0.68956 1.12235 0.82236
 C1296 C 0.68341 1.11441 0.80690
 C1297 C 0.69317 1.09970 0.79815
 N1298 N 0.68707 1.09273 0.78290
 N1299 N 0.69587 1.07954 0.77480
 C1300 C 0.71110 1.07283 0.78167
 N1301 N 0.71716 1.07978 0.79691
 N1302 N 0.70838 1.09295 0.80499
 C1303 C 0.72123 1.05839 0.77303
 C1304 C 0.71636 1.05053 0.75717
 H1305 H 0.67139 1.11893 0.80066
 H1306 H 0.73321 1.05386 0.77947
 H1307 H 0.70183 1.11713 0.82771
 H1308 H 0.70442 1.05490 0.75057
 C1309 C 0.17203 0.61319 0.81156
 C1310 C 0.18716 0.60371 0.81689
 C1311 C 0.19498 0.58923 0.80617
 N1312 N 0.20973 0.58047 0.81177
 N1313 N 0.21703 0.56746 0.80214
 C1314 C 0.20985 0.56273 0.78655
 N1315 N 0.19511 0.57146 0.78097
 N1316 N 0.18781 0.58446 0.79059
 C1317 C 0.21770 0.54853 0.77558
 C1318 C 0.23283 0.53888 0.78032
 H1319 H 0.19378 0.60672 0.82901
 H1320 H 0.21130 0.54564 0.76324
 H1321 H 0.16609 0.60924 0.79926
 H1322 H 0.23929 0.54160 0.79266
 C1323 C 0.19697 1.09933 0.32077
 C1324 C 0.18936 1.09077 0.30635
 C1325 C 0.19785 1.07535 0.29761
 N1326 N 0.19013 1.06802 0.28333
 N1327 N 0.19775 1.05430 0.27500
 C1328 C 0.21341 1.04738 0.28065
 N1329 N 0.22110 1.05466 0.29498
 N1330 N 0.21348 1.06839 0.30331
 C1331 C 0.22222 1.03252 0.27132
 C1332 C 0.21534 1.02521 0.25601
 H1333 H 0.17700 1.09532 0.30084
 H1334 H 0.23471 1.02756 0.27639
 H1335 H 0.20934 1.09384 0.32565
 H1336 H 0.20293 1.03026 0.25085
 C1337 C 0.67511 0.37154 0.67452
 C1338 C 0.67218 0.37978 0.69077
 C1339 C 0.68225 0.39553 0.69635
 N1340 N 0.67892 0.40302 0.71228
 N1341 N 0.68810 0.41707 0.71765
 C1342 C 0.70097 0.42418 0.70728
 N1343 N 0.70427 0.41672 0.69134
 N1344 N 0.69508 0.40267 0.68597
 C1345 C 0.71155 0.43944 0.71318
 C1346 C 0.70867 0.44769 0.72939
 H1347 H 0.66269 0.37443 0.70002
 H1348 H 0.72212 0.44406 0.70466
 H1349 H 0.68518 0.37702 0.66590
 H1350 H 0.69802 0.44318 0.73786
 C1351 C 0.67485 -0.10578 0.17150
 C1352 C 0.66637 -0.09497 0.18402
 C1353 C 0.67562 -0.08104 0.19382
 N1354 N 0.66709 -0.07254 0.20721
 N1355 N 0.67540 -0.06036 0.21675
 C1356 C 0.69257 -0.05622 0.21322
 N1357 N 0.70107 -0.06463 0.19974
 N1358 N 0.69278 -0.07687 0.19024
 C1359 C 0.70201 -0.04295 0.22370
 C1360 C 0.69474 -0.03536 0.23890
 H1361 H 0.65254 -0.09701 0.18729
 H1362 H 0.71525 -0.03929 0.21945
 H1363 H 0.68830 -0.10273 0.16745
 H1364 H 0.68171 -0.03930 0.24349
 C1365 C 0.18270 0.39707 0.19315
 C1366 C 0.19889 0.40491 0.18859
 C1367 C 0.20466 0.42198 0.19603
 N1368 N 0.22057 0.42887 0.19118
 N1369 N 0.22616 0.44414 0.19805
 C1370 C 0.21599 0.45309 0.21000
 N1371 N 0.20006 0.44624 0.21478
 N1372 N 0.19447 0.43099 0.20791
 C1373 C 0.22215 0.46951 0.21842
 C1374 C 0.23841 0.47746 0.21451
 H1375 H 0.20803 0.39827 0.17969
 H1376 H 0.21375 0.47516 0.22866
 H1377 H 0.17430 0.40366 0.20283
 H1378 H 0.24677 0.47221 0.20405
 C1379 C 0.17237 -0.11570 0.68768
 C1380 C 0.18529 -0.10458 0.68057
 C1381 C 0.19343 -0.09032 0.69091
 N1382 N 0.20621 -0.08009 0.68355
 N1383 N 0.21387 -0.06725 0.69280
 C1384 C 0.20900 -0.06416 0.70974
 N1385 N 0.19617 -0.07435 0.71709
 N1386 N 0.18853 -0.08721 0.70784
 C1387 C 0.21755 -0.05022 0.72017
 C1388 C 0.23149 -0.04023 0.71341
 H1389 H 0.18951 -0.10606 0.66705
 H1390 H 0.21304 -0.04807 0.73355
 H1391 H 0.16780 -0.11322 0.70100
 H1392 H 0.23612 -0.04256 0.70010
 C1393 C 0.30421 0.32743 0.38532
 C1394 C 0.31245 0.31709 0.39808
 C1395 C 0.30268 0.31047 0.41348
 N1396 N 0.31109 0.29990 0.42522
 N1397 N 0.30237 0.29355 0.43908
 C1398 C 0.28493 0.29758 0.44178
 N1399 N 0.27655 0.30827 0.43011
 N1400 N 0.28526 0.31460 0.41621
 C1401 C 0.27504 0.29004 0.45669
 C1402 C 0.28272 0.27720 0.46740
 H1403 H 0.32646 0.31392 0.39706
 H1404 H 0.26127 0.29390 0.45866
 H1405 H 0.29037 0.33109 0.38718
 H1406 H 0.29634 0.27300 0.46499
 C1407 C 0.32693 0.81574 -0.11107
 C1408 C 0.30931 0.81697 -0.10525
 C1409 C 0.30254 0.80602 -0.09070
 N1410 N 0.28541 0.80787 -0.08529
 N1411 N 0.27901 0.79786 -0.07233
 C1412 C 0.28952 0.78560 -0.06431
 N1413 N 0.30665 0.78376 -0.06971
 N1414 N 0.31305 0.79379 -0.08265
 C1415 C 0.28261 0.77422 -0.05019
 C1416 C 0.26534 0.77598 -0.04365
 H1417 H 0.29995 0.82570 -0.11166
 H1418 H 0.29137 0.76412 -0.04485
 H1419 H 0.33570 0.80638 -0.10459
 H1420 H 0.25664 0.78626 -0.04875
 C1421 C 0.82139 0.30492 -0.10948
 C1422 C 0.81148 0.31242 -0.09579
 C1423 C 0.80623 0.30227 -0.08013
 N1424 N 0.79785 0.31079 -0.06670
 N1425 N 0.79267 0.30187 -0.05252
 C1426 C 0.79566 0.28407 -0.05118
 N1427 N 0.80412 0.27552 -0.06460
 N1428 N 0.80935 0.28447 -0.07881
 C1429 C 0.78895 0.27407 -0.03590
 C1430 C 0.77927 0.28274 -0.02273
 H1431 H 0.80790 0.32640 -0.09617
 H1432 H 0.79043 0.25972 -0.03568
 H1433 H 0.82606 0.29130 -0.10830
 H1434 H 0.77760 0.29706 -0.02336
 C1435 C 0.81602 0.82262 0.39006
 C1436 C 0.79846 0.82402 0.39614
 C1437 C 0.79164 0.81318 0.41076
 N1438 N 0.77470 0.81560 0.41662
 N1439 N 0.76831 0.80586 0.42980
 C1440 C 0.77865 0.79332 0.43759
 N1441 N 0.79556 0.79090 0.43172
 N1442 N 0.80196 0.80065 0.41857
 C1443 C 0.77191 0.78224 0.45203
 C1444 C 0.75505 0.78443 0.45955
 H1445 H 0.78917 0.83307 0.39007
 H1446 H 0.78071 0.77197 0.45697
 H1447 H 0.82469 0.81291 0.39616
 H1448 H 0.74626 0.79490 0.45499
 C1449 C 0.67103 0.29643 0.61073
 C1450 C 0.68160 0.30428 0.59783
 C1451 C 0.68910 0.29425 0.58287
 N1452 N 0.70007 0.30258 0.57142
 N1453 N 0.70743 0.29372 0.55805
 C1454 C 0.70408 0.27617 0.55555
 N1455 N 0.69295 0.26783 0.56691
 N1456 N 0.68561 0.27670 0.58035
 C1457 C 0.71278 0.26622 0.54110
 C1458 C 0.72622 0.27400 0.53115
 H1459 H 0.68459 0.31831 0.59854
 H1460 H 0.70922 0.25247 0.53884
 H1461 H 0.66733 0.28262 0.60918
 H1462 H 0.73009 0.28754 0.53401
 C1463 C 0.67078 0.82532 1.10054
 C1464 C 0.68732 0.82845 1.09274
 C1465 C 0.69372 0.81762 1.07776
 N1466 N 0.70986 0.82076 1.07036
 N1467 N 0.71601 0.81050 1.05731
 C1468 C 0.70624 0.79670 1.05123
 N1469 N 0.69011 0.79363 1.05859
 N1470 N 0.68396 0.80390 1.07157
 C1471 C 0.71298 0.78464 1.03745
 C1472 C 0.72898 0.78727 1.02852
 H1473 H 0.69620 0.83825 1.09809
 H1474 H 0.70510 0.77306 1.03442
 H1475 H 0.66251 0.81512 1.09486
 H1476 H 0.73667 0.79911 1.03098
 C1477 C 0.19013 0.32382 1.12793
 C1478 C 0.18385 0.31002 1.11745
 C1479 C 0.19426 0.30329 1.10234
 N1480 N 0.18773 0.29016 1.09204
 N1481 N 0.19715 0.28395 1.07842
 C1482 C 0.21343 0.29065 1.07460
 N1483 N 0.21993 0.30377 1.08489
 N1484 N 0.21053 0.30997 1.09849
 C1485 C 0.22421 0.28385 1.05984
 C1486 C 0.21846 0.27031 1.04881
 H1487 H 0.17101 0.30419 1.12003
 H1488 H 0.23724 0.28953 1.05779
 H1489 H 0.20267 0.32984 1.12435
 H1490 H 0.20543 0.26461 1.05075
 C1491 C 0.17066 0.81745 0.61459
 C1492 C 0.18310 0.82590 0.60382
 C1493 C 0.19233 0.81683 0.58918
 N1494 N 0.20514 0.82555 0.58010
 N1495 N 0.21409 0.81747 0.56715
 C1496 C 0.21054 0.80034 0.56278
 N1497 N 0.19764 0.79165 0.57179
 N1498 N 0.18871 0.79973 0.58477
 C1499 C 0.22061 0.79112 0.54877
 C1500 C 0.23516 0.79886 0.54039
 H1501 H 0.18649 0.83964 0.60617
 H1502 H 0.21679 0.77769 0.54535
 H1503 H 0.16655 0.80408 0.61128
 H1504 H 0.23922 0.81214 0.54407
 C1505 C 0.32259 0.68860 0.61284
 C1506 C 0.32630 0.70567 0.60671
 C1507 C 0.31684 0.71320 0.59155
 N1508 N 0.32061 0.72984 0.58583
 N1509 N 0.31178 0.73691 0.57243
 C1510 C 0.29882 0.72762 0.56428
 N1511 N 0.29507 0.71098 0.56997
 N1512 N 0.30392 0.70390 0.58334
 C1513 C 0.28865 0.73532 0.54971
 C1514 C 0.29240 0.75204 0.54285
 H1515 H 0.33565 0.71405 0.61343
 H1516 H 0.27789 0.72763 0.54430
 H1517 H 0.31277 0.68088 0.60593
 H1518 H 0.30337 0.75960 0.54802
 C1519 C 0.32508 0.17868 1.11770
 C1520 C 0.30901 0.17513 1.10944
 C1521 C 0.30269 0.18617 1.09476
 N1522 N 0.28700 0.18253 1.08694
 N1523 N 0.28094 0.19280 1.07402
 C1524 C 0.29035 0.20712 1.06849
 N1525 N 0.30603 0.21071 1.07627
 N1526 N 0.31209 0.20044 1.08914
 C1527 C 0.28370 0.21904 1.05471
 C1528 C 0.26804 0.21591 1.04564
 H1529 H 0.30046 0.16465 1.11409
 H1530 H 0.29133 0.23084 1.05180
 H1531 H 0.33300 0.18957 1.11274
 H1532 H 0.26057 0.20393 1.04816
 C1533 C 0.81166 0.68444 1.11123
 C1534 C 0.81764 0.69722 1.09937
 C1535 C 0.80620 0.70365 1.08507
 N1536 N 0.81249 0.71552 1.07319
 N1537 N 0.80228 0.72118 1.06010
 C1538 C 0.78541 0.71515 1.05838
 N1539 N 0.77914 0.70332 1.07026
 N1540 N 0.78933 0.69767 1.08333
 C1541 C 0.77388 0.72122 1.04405
 C1542 C 0.77941 0.73358 1.03160
 H1543 H 0.83107 0.70215 1.10004
 H1544 H 0.76056 0.71594 1.04345
 H1545 H 0.79837 0.67929 1.10962
 H1546 H 0.79268 0.73898 1.03226
 C1547 C 0.83083 0.19906 0.61298
 C1548 C 0.81850 0.19202 0.60137
 C1549 C 0.81186 0.20205 0.58614
 N1550 N 0.80001 0.19437 0.57527
 N1551 N 0.79369 0.20321 0.56153
 C1552 C 0.79896 0.22009 0.55807
 N1553 N 0.81088 0.22779 0.56890
 N1554 N 0.81722 0.21894 0.58269
 C1555 C 0.79159 0.23005 0.54307
 C1556 C 0.77848 0.22262 0.53264
 H1557 H 0.81374 0.17861 0.60313
 H1558 H 0.79602 0.24350 0.54061
 H1559 H 0.83610 0.21216 0.61031
 H1560 H 0.77396 0.20928 0.53549
 C1561 C 0.69334 0.67077 0.38321
 C1562 C 0.68491 0.68150 0.39573
 C1563 C 0.69449 0.68889 0.41075
 N1564 N 0.68573 0.69941 0.42247
 N1565 N 0.69429 0.70660 0.43590
 C1566 C 0.71193 0.70352 0.43814
 N1567 N 0.72068 0.69290 0.42648
 N1568 N 0.71212 0.68571 0.41302
 C1569 C 0.72160 0.71209 0.45251
 C1570 C 0.71319 0.72438 0.46351
 H1571 H 0.67089 0.68452 0.39472
 H1572 H 0.73568 0.70941 0.45384
 H1573 H 0.70713 0.66707 0.38514
 H1574 H 0.69918 0.72724 0.46186
 C1575 C 0.69326 0.18624 -0.10436
 C1576 C 0.68653 0.19949 -0.09311
 C1577 C 0.69657 0.20644 -0.07816
 N1578 N 0.68995 0.22036 -0.06869
 N1579 N 0.69886 0.22688 -0.05512
 C1580 C 0.71471 0.21965 -0.05052
 N1581 N 0.72130 0.20570 -0.05994
 N1582 N 0.71243 0.19922 -0.07354
 C1583 C 0.72479 0.22639 -0.03555
 C1584 C 0.72007 0.24166 -0.02602
 H1585 H 0.67353 0.20524 -0.09503
 H1586 H 0.73672 0.21908 -0.03211
 H1587 H 0.70622 0.18058 -0.10161
 H1588 H 0.70852 0.24947 -0.02962
 C1589 C 0.16740 0.67809 -0.11423
 C1590 C 0.18464 0.67568 -0.10800
 C1591 C 0.19107 0.68548 -0.09259
 N1592 N 0.20802 0.68312 -0.08712
 N1593 N 0.21416 0.69236 -0.07355
 C1594 C 0.20356 0.70431 -0.06496
 N1595 N 0.18660 0.70660 -0.07039
 N1596 N 0.18046 0.69736 -0.08394
 C1597 C 0.21022 0.71507 -0.05034
 C1598 C 0.22741 0.71316 -0.04394
 H1599 H 0.19401 0.66718 -0.11492
 H1600 H 0.20137 0.72500 -0.04463
 H1601 H 0.15863 0.68723 -0.10725
 H1602 H 0.23620 0.70304 -0.04938
 C1603 C 0.20722 0.16641 0.39023
 C1604 C 0.19988 0.17748 0.40318
 C1605 C 0.21032 0.18547 0.41733
 N1606 N 0.20234 0.19732 0.42834
 N1607 N 0.21150 0.20517 0.44099
 C1608 C 0.22901 0.20146 0.44319
 N1609 N 0.23701 0.18945 0.43229
 N1610 N 0.22784 0.18162 0.41954
 C1611 C 0.23918 0.21052 0.45700
 C1612 C 0.23184 0.22501 0.46603
 H1613 H 0.18585 0.18068 0.40303
 H1614 H 0.25261 0.20612 0.45973
 H1615 H 0.22103 0.16242 0.39122
 H1616 H 0.21868 0.22969 0.46259
 C1617 C 0.33035 0.39126 0.68108
 C1618 C 0.31324 0.39812 0.67881
 C1619 C 0.30681 0.41342 0.68934
 N1620 N 0.29046 0.42055 0.68652
 N1621 N 0.28440 0.43400 0.69641
 C1622 C 0.29444 0.44076 0.70954
 N1623 N 0.31076 0.43362 0.71235
 N1624 N 0.31683 0.42025 0.70244
 C1625 C 0.28786 0.45525 0.72096
 C1626 C 0.27199 0.46428 0.71781
 H1627 H 0.30411 0.39186 0.66990
 H1628 H 0.29581 0.45893 0.73216
 H1629 H 0.33892 0.39801 0.69025
 H1630 H 0.26433 0.46105 0.70630
 C1631 C 0.32378 0.87305 0.17590
 C1632 C 0.31187 0.88521 0.16849
 C1633 C 0.30396 0.90011 0.17853
 N1634 N 0.29133 0.91051 0.17103
 N1635 N 0.28377 0.92388 0.17996
 C1636 C 0.28861 0.92738 0.19673
 N1637 N 0.30132 0.91706 0.20420
 N1638 N 0.30884 0.90365 0.19528
 C1639 C 0.28017 0.94193 0.20685
 C1640 C 0.26562 0.95151 0.20054
 H1641 H 0.30800 0.88398 0.15494
 H1642 H 0.28517 0.94476 0.21983
 H1643 H 0.32787 0.87519 0.18933
 H1644 H 0.26028 0.94832 0.18778
 C1645 C 0.85237 0.38862 0.18541
 C1646 C 0.84341 0.40254 0.17714
 C1647 C 0.83402 0.41662 0.18693
 N1648 N 0.82190 0.42686 0.17852
 N1649 N 0.81212 0.43876 0.18733
 C1650 C 0.81416 0.44092 0.20488
 N1651 N 0.82655 0.43094 0.21326
 N1652 N 0.83625 0.41891 0.20445
 C1653 C 0.80279 0.45342 0.21477
 C1654 C 0.78673 0.45943 0.20793
 H1655 H 0.84184 0.40243 0.16305
 H1656 H 0.80660 0.45718 0.22792
 H1657 H 0.85489 0.38948 0.19935
 H1658 H 0.78243 0.45466 0.19525
 C1659 C 0.81150 0.89583 0.66491
 C1660 C 0.81553 0.90571 0.67986
 C1661 C 0.80450 0.92114 0.68534
 N1662 N 0.80902 0.93088 0.69960
 N1663 N 0.79908 0.94476 0.70470
 C1664 C 0.78423 0.94943 0.69575
 N1665 N 0.77971 0.93970 0.68149
 N1666 N 0.78965 0.92583 0.67639
 C1667 C 0.77291 0.96455 0.70143
 C1668 C 0.77705 0.97484 0.71604
 H1669 H 0.82704 0.90241 0.68763
 H1670 H 0.76091 0.96739 0.69419
 H1671 H 0.80023 0.90011 0.65719
 H1672 H 0.78907 0.97192 0.72322
 C1673 C 0.67899 0.59937 0.66908
 C1674 C 0.67715 0.59238 0.68598
 C1675 C 0.68635 0.57612 0.69187
 N1676 N 0.68314 0.56988 0.70827
 N1677 N 0.69137 0.55529 0.71403
 C1678 C 0.70316 0.54638 0.70361
 N1679 N 0.70639 0.55261 0.68718
 N1680 N 0.69811 0.56720 0.68139
 C1681 C 0.71278 0.53057 0.71006
 C1682 C 0.70953 0.52343 0.72665
 H1683 H 0.66889 0.59910 0.69563
 H1684 H 0.72303 0.52476 0.70173
 H1685 H 0.68819 0.59299 0.65999
 H1686 H 0.69910 0.52907 0.73488
 C1687 C 0.67056 0.11347 0.18190
 C1688 C 0.66327 0.10333 0.19540
 C1689 C 0.67298 0.08833 0.20323
 N1690 N 0.66574 0.07948 0.21697
 N1691 N 0.67451 0.06612 0.22448
 C1692 C 0.69085 0.06108 0.21851
 N1693 N 0.69807 0.06985 0.20469
 N1694 N 0.68930 0.08326 0.19720
 C1695 C 0.70077 0.04656 0.22694
 C1696 C 0.69436 0.03840 0.24206
 H1697 H 0.65014 0.10628 0.20052
 H1698 H 0.71347 0.04251 0.22139
 H1699 H 0.68338 0.10954 0.17650
 H1700 H 0.68180 0.04272 0.24773
 C1701 C 0.16606 0.61597 0.17577
 C1702 C 0.18379 0.61062 0.17413
 C1703 C 0.19160 0.59663 0.18522
 N1704 N 0.20893 0.59204 0.18304
 N1705 N 0.21633 0.57963 0.19310
 C1706 C 0.20671 0.57133 0.20578
 N1707 N 0.18936 0.57590 0.20797
 N1708 N 0.18193 0.58833 0.19788
 C1709 C 0.21490 0.55768 0.21706
 C1710 C 0.23252 0.55238 0.21459
 H1711 H 0.19255 0.61720 0.16495
 H1712 H 0.20697 0.55172 0.22737
 H1713 H 0.15787 0.60961 0.18566
 H1714 H 0.24026 0.55825 0.20408
 C1715 C 0.19073 0.11412 0.67651
 C1716 C 0.18542 0.10168 0.68904
 C1717 C 0.19685 0.08654 0.69397
 N1718 N 0.19153 0.07534 0.70687
 N1719 N 0.20185 0.06176 0.71173
 C1720 C 0.21787 0.05885 0.70384
 N1721 N 0.22315 0.06999 0.69087
 N1722 N 0.21284 0.08360 0.68603
 C1723 C 0.22954 0.04412 0.70936
 C1724 C 0.22525 0.03339 0.72363
 H1725 H 0.17265 0.10286 0.69552
 H1726 H 0.24197 0.04201 0.70236
 H1727 H 0.20336 0.11203 0.66987
 H1728 H 0.21295 0.03577 0.73078
 C1729 C 0.32958 0.62123 0.32174
 C1730 C 0.31220 0.61491 0.32198
 C1731 C 0.30648 0.60096 0.30968
 N1732 N 0.28970 0.59460 0.31061
 N1733 N 0.28432 0.58218 0.29938
 C1734 C 0.29550 0.57570 0.28674
 N1735 N 0.31226 0.58209 0.28579
 N1736 N 0.31765 0.59447 0.29705
 C1737 C 0.28972 0.56201 0.27421
 C1738 C 0.27316 0.55404 0.27567
 H1739 H 0.30237 0.62054 0.33085
 H1740 H 0.29881 0.55791 0.26384
 H1741 H 0.33886 0.61534 0.31241
 H1742 H 0.26430 0.55786 0.28633
 C1743 C 0.30952 0.10367 0.82941
 C1744 C 0.31692 0.09287 0.81629
 C1745 C 0.30703 0.07820 0.80831
 N1746 N 0.31399 0.06953 0.79420
 N1747 N 0.30498 0.05663 0.78637
 C1748 C 0.28867 0.05189 0.79240
 N1749 N 0.28177 0.06043 0.80664
 N1750 N 0.29076 0.07338 0.81443
 C1751 C 0.27841 0.03803 0.78350
 C1752 C 0.28387 0.03112 0.76735
 H1753 H 0.33014 0.09527 0.81127
 H1754 H 0.26607 0.03368 0.78943
 H1755 H 0.29651 0.10034 0.83456
 H1756 H 0.29592 0.03596 0.76121
 C1757 C 0.80421 0.59953 0.82083
 C1758 C 0.80612 0.59171 0.80424
 C1759 C 0.79608 0.57593 0.79879
 N1760 N 0.79895 0.56885 0.78261
 N1761 N 0.78987 0.55473 0.77727
 C1762 C 0.77754 0.54715 0.78792
 N1763 N 0.77467 0.55422 0.80413
 N1764 N 0.78378 0.56833 0.80948
 C1765 C 0.76707 0.53182 0.78202
 C1766 C 0.76982 0.52384 0.76566
 H1767 H 0.81491 0.59744 0.79455
 H1768 H 0.75673 0.52691 0.79066
 H1769 H 0.79464 0.59396 0.82993
 H1770 H 0.78031 0.52858 0.75711
 C1771 C 0.81676 0.10446 0.31448
 C1772 C 0.80380 0.09394 0.32251
 C1773 C 0.79331 0.08085 0.31281
 N1774 N 0.77968 0.07246 0.32101
 N1775 N 0.76980 0.06077 0.31241
 C1776 C 0.77321 0.05701 0.29528
 N1777 N 0.78689 0.06533 0.28710
 N1778 N 0.79673 0.07708 0.29568
 C1779 C 0.76259 0.04403 0.28559
 C1780 C 0.74730 0.03632 0.29259
 H1781 H 0.80091 0.09529 0.33636
 H1782 H 0.76692 0.04055 0.27242
 H1783 H 0.82004 0.10208 0.30081
 H1784 H 0.74253 0.04016 0.30551
 C1785 C 0.68476 0.37941 0.30253
 C1786 C 0.69880 0.39057 0.30679
 C1787 C 0.70552 0.40394 0.29440
 N1788 N 0.71916 0.41457 0.29906
 N1789 N 0.72522 0.42690 0.28807
 C1790 C 0.71785 0.42908 0.27201
 N1791 N 0.70423 0.41844 0.26733
 N1792 N 0.69818 0.40609 0.27831
 C1793 C 0.72421 0.44284 0.25986
 C1794 C 0.73833 0.45385 0.26403
 H1795 H 0.70479 0.39003 0.31960
 H1796 H 0.71750 0.44442 0.24744
 H1797 H 0.67864 0.38092 0.28980
 H1798 H 0.74513 0.45213 0.27638
 C1799 C 0.69177 0.89725 0.81385
 C1800 C 0.68479 0.90900 0.80149
 C1801 C 0.69488 0.92435 0.79491
 N1802 N 0.68799 0.93461 0.78201
 N1803 N 0.69706 0.94831 0.77561
 C1804 C 0.71337 0.95234 0.78191
 N1805 N 0.72022 0.94217 0.79493
 N1806 N 0.71116 0.92842 0.80130
 C1807 C 0.72371 0.96713 0.77447
 C1808 C 0.71802 0.97607 0.75952
 H1809 H 0.67164 0.90708 0.79632
 H1810 H 0.73631 0.97046 0.78030
 H1811 H 0.70478 0.90002 0.81910
 H1812 H 0.70568 0.97221 0.75345
 C1813 C 0.19202 0.39350 0.83386
 C1814 C 0.18546 0.40615 0.82211
 C1815 C 0.19686 0.41924 0.81332
 N1816 N 0.18987 0.43008 0.80090
 N1817 N 0.20002 0.44176 0.79248
 C1818 C 0.21756 0.44305 0.79618
 N1819 N 0.22455 0.43228 0.80866
 N1820 N 0.21440 0.42054 0.81705
 C1821 C 0.22897 0.45589 0.78704
 C1822 C 0.22298 0.46620 0.77305
 H1823 H 0.17151 0.40654 0.81893
 H1824 H 0.24256 0.45714 0.79140
 H1825 H 0.20583 0.39413 0.83767
 H1826 H 0.20954 0.46470 0.76836
 C1827 C 0.18875 0.87436 0.31164
 C1828 C 0.18181 0.88480 0.29814
 C1829 C 0.19185 0.89951 0.29015
 N1830 N 0.18469 0.90891 0.27675
 N1831 N 0.19359 0.92220 0.26932
 C1832 C 0.21001 0.92663 0.27504
 N1833 N 0.21717 0.91727 0.28848
 N1834 N 0.20827 0.90395 0.29589
 C1835 C 0.22008 0.94121 0.26686
 C1836 C 0.21372 0.95048 0.25235
 H1837 H 0.16859 0.88247 0.29330
 H1838 H 0.23293 0.94450 0.27219
 H1839 H 0.20178 0.87760 0.31657
 H1840 H 0.20099 0.94698 0.24687
 C1841 C 0.39732 0.31853 0.68511
 C1842 C 0.40277 0.32222 0.70219
 C1843 C 0.41697 0.31186 0.71060
 N1844 N 0.42175 0.31558 0.72733
 N1845 N 0.43420 0.30588 0.73526
 C1846 C 0.44228 0.29210 0.72672
 N1847 N 0.43754 0.28843 0.70999
 N1848 N 0.42513 0.29813 0.70207
 C1849 C 0.45559 0.28080 0.73527
 C1850 C 0.46175 0.28394 0.75217
 H1851 H 0.39604 0.33225 0.71003
 H1852 H 0.46065 0.26946 0.72791
 H1853 H 0.40392 0.30785 0.67794
 H1854 H 0.45721 0.29551 0.75949
 C1855 C 0.39016 0.79846 0.17253
 C1856 C 0.40055 0.80372 0.18668
 C1857 C 0.41519 0.79242 0.19313
 N1858 N 0.42511 0.79788 0.20687
 N1859 N 0.43841 0.78777 0.21276
 C1860 C 0.44228 0.77183 0.20511
 N1861 N 0.43237 0.76638 0.19137
 N1862 N 0.41908 0.77648 0.18550
 C1863 C 0.45694 0.76048 0.21136
 C1864 C 0.46743 0.76526 0.22554
 H1865 H 0.39828 0.81639 0.19309
 H1866 H 0.45951 0.74802 0.20459
 H1867 H 0.39334 0.78588 0.16622
 H1868 H 0.46483 0.77769 0.23238
 C1869 C 0.90706 0.30546 0.18168
 C1870 C 0.91972 0.31095 0.19380
 C1871 C 0.93258 0.29861 0.20178
 N1872 N 0.94348 0.30457 0.21455
 N1873 N 0.95506 0.29361 0.22215
 C1874 C 0.95621 0.27626 0.21721
 N1875 N 0.94538 0.27030 0.20437
 N1876 N 0.93374 0.28126 0.19682
 C1877 C 0.96897 0.26399 0.22545
 C1878 C 0.97917 0.26895 0.23981
 H1879 H 0.92041 0.32473 0.19779
 H1880 H 0.97019 0.25063 0.22018
 H1881 H 0.90734 0.29175 0.17725
 H1882 H 0.97763 0.28214 0.24541
 C1883 C 0.87491 0.81811 0.67507
 C1884 C 0.88547 0.82344 0.68904
 C1885 C 0.89862 0.81096 0.69656
 N1886 N 0.90983 0.81633 0.70934
 N1887 N 0.92211 0.80518 0.71563
 C1888 C 0.92361 0.78827 0.70934
 N1889 N 0.91236 0.78291 0.69666
 N1890 N 0.90012 0.79402 0.69041
 C1891 C 0.93728 0.77579 0.71567
 C1892 C 0.94906 0.78009 0.72897
 H1893 H 0.88487 0.83699 0.69385
 H1894 H 0.93808 0.76276 0.70958
 H1895 H 0.87645 0.80458 0.67029
 H1896 H 0.94811 0.79297 0.73533
 C1897 C 0.60947 0.32088 0.32263
 C1898 C 0.60149 0.30539 0.32882
 C1899 C 0.58501 0.29862 0.32100
 N1900 N 0.57763 0.28344 0.32715
 N1901 N 0.56313 0.27684 0.31974
 C1902 C 0.55547 0.28516 0.30588
 N1903 N 0.56281 0.30038 0.29978
 N1904 N 0.57729 0.30699 0.30720
 C1905 C 0.53989 0.27763 0.29708
 C1906 C 0.53185 0.26213 0.30305
 H1907 H 0.60770 0.29751 0.33893
 H1908 H 0.53499 0.28412 0.28539
 H1909 H 0.60291 0.32812 0.31222
 H1910 H 0.53666 0.25582 0.31487
 C1911 C 0.62034 0.82919 0.80886
 C1912 C 0.61270 0.81254 0.81176
 C1913 C 0.59722 0.80641 0.80174
 N1914 N 0.59004 0.79027 0.80517
 N1915 N 0.57615 0.78451 0.79611
 C1916 C 0.56893 0.79467 0.78325
 N1917 N 0.57611 0.81080 0.77981
 N1918 N 0.58998 0.81657 0.78888
 C1919 C 0.55368 0.78851 0.77295
 C1920 C 0.54526 0.77236 0.77618
 H1921 H 0.61821 0.80348 0.82129
 H1922 H 0.54894 0.79702 0.76251
 H1923 H 0.61459 0.83761 0.79884
 H1924 H 0.54982 0.76392 0.78676
 C1925 C 0.11324 0.33491 0.83016
 C1926 C 0.10539 0.31822 0.83176
 C1927 C 0.09046 0.31288 0.82068
 N1928 N 0.08352 0.29637 0.82232
 N1929 N 0.07042 0.29113 0.81194
 C1930 C 0.06379 0.30222 0.79951
 N1931 N 0.07068 0.31875 0.79792
 N1932 N 0.08376 0.32400 0.80831
 C1933 C 0.04978 0.29646 0.78753
 C1934 C 0.04209 0.27971 0.78867
 H1935 H 0.11075 0.30838 0.84062
 H1936 H 0.04564 0.30558 0.77734
 H1937 H 0.10791 0.34415 0.82062
 H1938 H 0.04597 0.27068 0.79903
 C1939 C 0.11624 0.80627 0.31553
 C1940 C 0.10448 0.81465 0.30410
 C1941 C 0.08863 0.80576 0.29723
 N1942 N 0.07750 0.81483 0.28652
 N1943 N 0.06316 0.80703 0.28004
 C1944 C 0.05938 0.78986 0.28401
 N1945 N 0.07049 0.78077 0.29475
 N1946 N 0.08485 0.78858 0.30125
 C1947 C 0.04371 0.78106 0.27656
 C1948 C 0.03249 0.78999 0.26504
 H1949 H 0.10657 0.82833 0.30029
 H1950 H 0.04126 0.76727 0.27980
 H1951 H 0.11323 0.79296 0.32005
 H1952 H 0.03514 0.80374 0.26176
 C1953 C 0.60682 0.66679 0.68086
 C1954 C 0.59526 0.68019 0.67524
 C1955 C 0.58173 0.68826 0.68686
 N1956 N 0.57265 0.70287 0.68145
 N1957 N 0.56084 0.71084 0.69200
 C1958 C 0.55762 0.70445 0.70836
 N1959 N 0.56656 0.68970 0.71372
 N1960 N 0.57845 0.68178 0.70318
 C1961 C 0.54492 0.71340 0.72027
 C1962 C 0.53783 0.73012 0.71644
 H1963 H 0.59628 0.68548 0.66211
 H1964 H 0.54157 0.70698 0.73255
 H1965 H 0.60482 0.66118 0.69380
 H1966 H 0.54172 0.73681 0.70445
 C1967 C 0.60342 0.18770 0.18470
 C1968 C 0.59268 0.18017 0.19775
 C1969 C 0.57875 0.19017 0.20733
 N1970 N 0.56997 0.18225 0.22080
 N1971 N 0.55746 0.19104 0.22985
 C1972 C 0.55322 0.20812 0.22575
 N1973 N 0.56194 0.21604 0.21223
 N1974 N 0.57451 0.20725 0.20320
 C1975 C 0.53939 0.21803 0.23561
 C1976 C 0.53123 0.21124 0.25067
 H1977 H 0.59440 0.16635 0.20129
 H1978 H 0.53572 0.23116 0.23097
 H1979 H 0.60072 0.20124 0.18060
 H1980 H 0.53522 0.19833 0.25562
 C1981 C 0.09455 0.68342 0.16977
 C1982 C 0.08863 0.70078 0.16656
 C1983 C 0.07340 0.70848 0.17626
 N1984 N 0.06872 0.72582 0.17400
 N1985 N 0.05541 0.73305 0.18332
 C1986 C 0.04632 0.72315 0.19521
 N1987 N 0.05092 0.70581 0.19735
 N1988 N 0.06418 0.69861 0.18806
 C1989 C 0.03226 0.73083 0.20640
 C1990 C 0.02653 0.74851 0.20546
 H1991 H 0.09576 0.70931 0.15759
 H1992 H 0.02654 0.72217 0.21625
 H1993 H 0.08760 0.67560 0.17952
 H1994 H 0.03163 0.75722 0.19534
 C1995 C 0.11740 0.18021 0.69190
 C1996 C 0.10511 0.19290 0.68617
 C1997 C 0.09134 0.20065 0.69769
 N1998 N 0.08189 0.21496 0.69210
 N1999 N 0.06960 0.22251 0.70240
 C2000 C 0.06625 0.21599 0.71867
 N2001 N 0.07558 0.20156 0.72423
 N2002 N 0.08797 0.19406 0.71395
 C2003 C 0.05267 0.22426 0.73009
 C2004 C 0.04523 0.24081 0.72620
 H2005 H 0.10561 0.19783 0.67288
 H2006 H 0.04866 0.21731 0.74189
 H2007 H 0.11598 0.17487 0.70502
 H2008 H 0.04989 0.24813 0.71486
 C2009 C 0.39910 0.68907 0.33449
 C2010 C 0.41198 0.68029 0.32435
 C2011 C 0.42689 0.68958 0.31602
 N2012 N 0.43701 0.68089 0.30390
 N2013 N 0.44988 0.68932 0.29530
 C2014 C 0.45315 0.70675 0.29856
 N2015 N 0.44323 0.71539 0.31091
 N2016 N 0.43027 0.70698 0.31945
 C2017 C 0.46670 0.71636 0.28842
 C2018 C 0.47368 0.70931 0.27288
 H2019 H 0.41076 0.66623 0.32158
 H2020 H 0.47038 0.72959 0.29262
 H2021 H 0.40113 0.70286 0.33809
 H2022 H 0.46920 0.69648 0.26825
 C2023 C 0.37778 0.17460 0.82489
 C2024 C 0.38923 0.18711 0.83208
 C2025 C 0.40432 0.19433 0.82203
 N2026 N 0.41505 0.20655 0.82950
 N2027 N 0.42871 0.21326 0.82056
 C2028 C 0.43218 0.20796 0.80381
 N2029 N 0.42149 0.19571 0.79635
 N2030 N 0.40781 0.18902 0.80529
 C2031 C 0.44712 0.21543 0.79372
 C2032 C 0.45786 0.22867 0.80061
 H2033 H 0.38746 0.19160 0.84547
 H2034 H 0.44946 0.21065 0.78047
 H2035 H 0.38049 0.16984 0.81170
 H2036 H 0.45534 0.23356 0.81379
 C2037 C 0.87665 0.66548 0.80831
 C2038 C 0.88877 0.67795 0.81445
 C2039 C 0.90264 0.68562 0.80314
 N2040 N 0.91330 0.69851 0.80956
 N2041 N 0.92555 0.70605 0.79936
 C2042 C 0.92758 0.70096 0.78235
 N2043 N 0.91699 0.68799 0.77596
 N2044 N 0.90472 0.68048 0.78615
 C2045 C 0.94082 0.70932 0.77080
 C2046 C 0.95125 0.72352 0.77623
 H2047 H 0.88808 0.68257 0.82788
 H2048 H 0.94214 0.70431 0.75751
 H2049 H 0.87838 0.66019 0.79516
 H2050 H 0.94984 0.72870 0.78945
 C2051 C 0.89175 0.16759 0.31562
 C2052 C 0.90372 0.17970 0.32273
 C2053 C 0.91948 0.18576 0.31281
 N2054 N 0.93057 0.19786 0.31998
 N2055 N 0.94478 0.20352 0.31110
 C2056 C 0.94844 0.19726 0.29472
 N2057 N 0.93738 0.18513 0.28757
 N2058 N 0.92318 0.17949 0.29643
 C2059 C 0.96390 0.20354 0.28453
 C2060 C 0.97526 0.21668 0.29070
 H2061 H 0.90181 0.18486 0.33585
 H2062 H 0.96610 0.19796 0.27157
 H2063 H 0.89450 0.16250 0.30255
 H2064 H 0.97297 0.22244 0.30357
 C2065 C 0.32880 0.31435 0.61695
 C2066 C 0.31537 0.32024 0.60582
 C2067 C 0.30909 0.30904 0.59124
 N2068 N 0.29565 0.31485 0.58094
 N2069 N 0.28982 0.30480 0.56780
 C2070 C 0.29724 0.28857 0.56442
 N2071 N 0.31072 0.28279 0.57468
 N2072 N 0.31652 0.29283 0.58784
 C2073 C 0.29073 0.27720 0.55010
 C2074 C 0.27618 0.28219 0.54005
 H2075 H 0.30936 0.33325 0.60753
 H2076 H 0.29723 0.26448 0.54774
 H2077 H 0.33455 0.30131 0.61445
 H2078 H 0.26958 0.29480 0.54269
 C2079 C 0.32539 0.80750 0.10123
 C2080 C 0.30836 0.81083 0.09485
 C2081 C 0.30174 0.80162 0.07916
 N2082 N 0.28486 0.80449 0.07370
 N2083 N 0.27856 0.79573 0.05989
 C2084 C 0.28894 0.78377 0.05106
 N2085 N 0.30583 0.78098 0.05647
 N2086 N 0.31212 0.78974 0.07025
 C2087 C 0.28212 0.77342 0.03622
 C2088 C 0.26493 0.77555 0.02989
 H2089 H 0.29928 0.81958 0.10185
 H2090 H 0.29087 0.76350 0.03035
 H2091 H 0.33382 0.79808 0.09420
 H2092 H 0.25621 0.78564 0.03548
 C2093 C 0.83706 0.32312 0.11470
 C2094 C 0.83463 0.30565 0.10906
 C2095 C 0.82169 0.30133 0.09534
 N2096 N 0.81998 0.28429 0.08977
 N2097 N 0.80804 0.28017 0.07766
 C2098 C 0.79729 0.29291 0.07072
 N2099 N 0.79897 0.30995 0.07633
 N2100 N 0.81094 0.31408 0.08840
 C2101 C 0.78406 0.28850 0.05731
 C2102 C 0.78331 0.27154 0.05000
 H2103 H 0.84162 0.29477 0.11528
 H2104 H 0.77511 0.29885 0.05283
 H2105 H 0.82948 0.33358 0.10838
 H2106 H 0.79271 0.26143 0.05416
 C2107 C 0.82348 0.82829 0.59456
 C2108 C 0.80651 0.83056 0.58773
 C2109 C 0.79981 0.81925 0.57355
 N2110 N 0.78265 0.82094 0.56857
 N2111 N 0.77598 0.81008 0.55655
 C2112 C 0.78618 0.79708 0.54908
 N2113 N 0.80340 0.79547 0.55394
 N2114 N 0.81009 0.80635 0.56599
 C2115 C 0.77866 0.78465 0.53626
 C2116 C 0.76080 0.78563 0.53178
 H2117 H 0.79717 0.83968 0.59391
 H2118 H 0.78718 0.77449 0.53048
 H2119 H 0.83227 0.81847 0.58860
 H2120 H 0.75240 0.79588 0.53757
 C2121 C 0.32105 0.68728 0.39524
 C2122 C 0.32819 0.69892 0.40761
 C2123 C 0.31750 0.70740 0.42160
 N2124 N 0.32484 0.72027 0.43166
 N2125 N 0.31536 0.72842 0.44418
 C2126 C 0.29817 0.72397 0.44717
 N2127 N 0.29085 0.71100 0.43721
 N2128 N 0.30031 0.70289 0.42461
 C2129 C 0.28749 0.73298 0.46086
 C2130 C 0.29341 0.74817 0.46952
 H2131 H 0.34209 0.70231 0.40710
 H2132 H 0.27441 0.72784 0.46380
 H2133 H 0.30728 0.68343 0.39666
 H2134 H 0.30617 0.75377 0.46607
 C2135 C 0.30813 0.17452 0.89640
 C2136 C 0.31467 0.18825 0.90682
 C2137 C 0.30423 0.19543 0.92171
 N2138 N 0.31081 0.20872 0.93176
 N2139 N 0.30133 0.21537 0.94515
 C2140 C 0.28493 0.20895 0.94896
 N2141 N 0.27838 0.19566 0.93893
 N2142 N 0.28784 0.18903 0.92557
 C2143 C 0.27409 0.21617 0.96349
 C2144 C 0.27979 0.22997 0.97423
 H2145 H 0.32763 0.19380 0.90431
 H2146 H 0.26106 0.21053 0.96562
 H2147 H 0.29536 0.16895 0.89988
 H2148 H 0.29281 0.23566 0.97220
 C2149 C 0.81157 0.67793 0.88103
 C2150 C 0.79910 0.67289 0.89370
 C2151 C 0.79390 0.68504 0.90813
 N2152 N 0.78149 0.68007 0.92013
 N2153 N 0.77667 0.69105 0.93314
 C2154 C 0.78413 0.70739 0.93463
 N2155 N 0.79657 0.71231 0.92268
 N2156 N 0.80137 0.70135 0.90969
 C2157 C 0.77878 0.71991 0.94863
 C2158 C 0.76540 0.71612 0.96076
 H2159 H 0.79315 0.65986 0.89335
 H2160 H 0.78520 0.73274 0.94900
 H2161 H 0.81749 0.69097 0.88226
 H2162 H 0.75881 0.70337 0.96033
 C2163 C 0.82326 0.16787 0.38861
 C2164 C 0.82597 0.18480 0.39554
 C2165 C 0.81534 0.19137 0.41061
 N2166 N 0.81803 0.20795 0.41708
 N2167 N 0.80801 0.21422 0.43025
 C2168 C 0.79489 0.20419 0.43740
 N2169 N 0.79223 0.18760 0.43096
 N2170 N 0.80226 0.18132 0.41783
 C2171 C 0.78336 0.21115 0.45160
 C2172 C 0.78622 0.22775 0.45913
 H2173 H 0.83519 0.19382 0.38935
 H2174 H 0.77234 0.20313 0.45608
 H2175 H 0.81357 0.15943 0.39500
 H2176 H 0.79749 0.23554 0.45486
 C2177 C 0.68848 0.32319 0.38279
 C2178 C 0.68473 0.30796 0.39254
 C2179 C 0.69574 0.30229 0.40746
 N2180 N 0.69163 0.28719 0.41624
 N2181 N 0.70159 0.28163 0.42953
 C2182 C 0.71607 0.29094 0.43458
 N2183 N 0.72016 0.30610 0.42584
 N2184 N 0.71018 0.31168 0.41253
 C2185 C 0.72736 0.28458 0.44906
 C2186 C 0.72353 0.26882 0.45785
 H2187 H 0.67384 0.29946 0.38895
 H2188 H 0.73897 0.29217 0.45258
 H2189 H 0.69994 0.33096 0.38640
 H2190 H 0.71189 0.26136 0.45415
 C2191 C 0.69037 0.82501 0.87889
 C2192 C 0.68327 0.81163 0.88947
 C2193 C 0.69338 0.80442 0.90439
 N2194 N 0.68636 0.79156 0.91478
 N2195 N 0.69553 0.78504 0.92826
 C2196 C 0.71204 0.79119 0.93182
 N2197 N 0.71901 0.80402 0.92145
 N2198 N 0.70987 0.81051 0.90802
 C2199 C 0.72262 0.78423 0.94644
 C2200 C 0.71678 0.77087 0.95770
 H2201 H 0.67013 0.80651 0.88713
 H2202 H 0.73571 0.78978 0.94823
 H2203 H 0.70336 0.83005 0.88216
 H2204 H 0.70372 0.76520 0.95607
 C2205 C 0.17956 0.32196 0.90084
 C2206 C 0.19341 0.32663 0.91197
 C2207 C 0.19909 0.31489 0.92638
 N2208 N 0.21277 0.31966 0.93680
 N2209 N 0.21821 0.30899 0.94966
 C2210 C 0.21015 0.29315 0.95257
 N2211 N 0.19644 0.28841 0.94220
 N2212 N 0.19101 0.29907 0.92935
 C2213 C 0.21619 0.28095 0.96641
 C2214 C 0.23057 0.28473 0.97714
 H2215 H 0.20032 0.33905 0.91029
 H2216 H 0.20935 0.26841 0.96788
 H2217 H 0.17256 0.30970 0.90349
 H2218 H 0.23746 0.29724 0.97570
 C2219 C 0.18321 0.81020 0.38577
 C2220 C 0.19448 0.81940 0.39699
 C2221 C 0.20183 0.81132 0.41295
 N2222 N 0.21348 0.82062 0.42277
 N2223 N 0.22064 0.81342 0.43702
 C2224 C 0.21639 0.79664 0.44203
 N2225 N 0.20464 0.78737 0.43228
 N2226 N 0.19750 0.79456 0.41799
 C2227 C 0.22465 0.78836 0.45747
 C2228 C 0.23822 0.79671 0.46658
 H2229 H 0.19814 0.83297 0.39415
 H2230 H 0.22048 0.77515 0.46128
 H2231 H 0.17895 0.79698 0.38948
 H2232 H 0.24266 0.80973 0.46245
 C2233 C 0.67111 0.67642 0.60717
 C2234 C 0.68782 0.67519 0.59917
 C2235 C 0.69292 0.68726 0.58477
 N2236 N 0.70929 0.68594 0.57726
 N2237 N 0.71410 0.69699 0.56444
 C2238 C 0.70273 0.70981 0.55867
 N2239 N 0.68637 0.71112 0.56617
 N2240 N 0.68156 0.70007 0.57896
 C2241 C 0.70783 0.72223 0.54461
 C2242 C 0.72421 0.72103 0.53602
 H2243 H 0.69762 0.66575 0.60379
 H2244 H 0.69841 0.73247 0.54085
 H2245 H 0.66192 0.68645 0.60240
 H2246 H 0.73352 0.71062 0.53963
 C2247 C 0.66867 0.17871 0.11027
 C2248 C 0.66940 0.19653 0.10535
 C2249 C 0.68115 0.20251 0.09101
 N2250 N 0.68194 0.22004 0.08696
 N2251 N 0.69313 0.22575 0.07462
 C2252 C 0.70403 0.21416 0.06588
 N2253 N 0.70321 0.19661 0.06989
 N2254 N 0.69199 0.19090 0.08222
 C2255 C 0.71673 0.22048 0.05249
 C2256 C 0.71713 0.23831 0.04766
 H2257 H 0.66231 0.20657 0.11291
 H2258 H 0.72579 0.21102 0.04635
 H2259 H 0.67640 0.16908 0.10276
 H2260 H 0.70771 0.24755 0.05360
 C2261 C 0.16463 0.68045 0.10042
 C2262 C 0.18201 0.67767 0.09437
 C2263 C 0.18896 0.68704 0.07884
 N2264 N 0.20601 0.68434 0.07347
 N2265 N 0.21257 0.69318 0.05976
 C2266 C 0.20231 0.70504 0.05092
 N2267 N 0.18526 0.70768 0.05625
 N2268 N 0.17870 0.69885 0.06993
 C2269 C 0.20939 0.71542 0.03615
 C2270 C 0.22668 0.71330 0.02976
 H2271 H 0.19106 0.66912 0.10142
 H2272 H 0.20073 0.72534 0.03034
 H2273 H 0.15621 0.68959 0.09324
 H2274 H 0.23531 0.70319 0.03527
 C2275 C 0.17862 0.19044 0.61563
 C2276 C 0.18950 0.18378 0.60221
 C2277 C 0.19596 0.19503 0.58782
 N2278 N 0.20826 0.18841 0.57642
 N2279 N 0.21482 0.19856 0.56369
 C2280 C 0.20930 0.21571 0.56183
 N2281 N 0.19681 0.22228 0.57309
 N2282 N 0.19029 0.21214 0.58590
 C2283 C 0.21706 0.22713 0.54818
 C2284 C 0.23231 0.22180 0.53909
 H2285 H 0.19378 0.17001 0.60222
 H2286 H 0.21124 0.24013 0.54584
 H2287 H 0.17385 0.20405 0.61478
 H2288 H 0.23848 0.20911 0.54212
   
