data_POSCAR
  _audit_creation_date              2014-09-24
  _audit_creation_method            'ToBaCCo'
  _symmetry_space_group_name_H-M    'P1'
  _symmetry_Int_Tables_number       1
  _symmetry_cell_setting            triclinic
  loop_
  _symmetry_equiv_pos_as_xyz
 x,y,z
_cell_length_a 45.1381
_cell_length_b 45.1390
_cell_length_c 40.8332
_cell_angle_alpha 90.000300
_cell_angle_beta 89.996500
_cell_angle_gamma 90.003900
loop_
  _atom_site_label
  _atom_site_type_symbol
  _atom_site_fract_x
  _atom_site_fract_y
  _atom_site_fract_z
C1 C 0.35917 0.00001 0.25000
 C2 C 0.14083 0.00003 0.75000
 C3 C 0.64083 0.50002 0.25001
 C4 C 0.85918 0.50000 0.75001
 C5 C 0.24999 0.39082 1.00000
 C6 C 0.75002 0.10918 0.99998
 C7 C 0.25001 0.60917 0.50000
 C8 C 0.75000 0.89083 0.50004
 C9 C -0.00002 0.25000 0.37500
 C10 C 0.00001 0.74999 0.12501
 C11 C 0.50004 0.24995 0.62498
 C12 C 0.49998 0.75003 0.87500
 C13 C -0.24999 0.60916 1.00002
 C14 C -0.25000 0.39082 0.49998
 C15 C 0.25001 -0.10917 0.00001
 C16 C 0.25001 1.10917 0.50001
 C17 C 0.14083 0.49999 0.24999
 C18 C -0.14083 1.00003 0.25002
 C19 C 0.35914 0.50004 -0.24996
 C20 C 0.64083 -0.00001 -0.25002
 C21 C 0.00002 0.24998 0.87501
 C22 C 0.49999 0.25003 0.12498
 C23 C 0.00000 0.75001 0.62501
 C24 C 0.50001 0.74994 0.37499
 B25 B -0.01615 0.01655 1.02875
 B26 B -0.03291 0.00938 0.99330
 B27 B -0.00559 0.03426 0.99488
 B28 B 0.02012 0.02259 1.02203
 B29 B 0.00790 -0.01069 1.03699
 B30 B -0.02543 -0.01856 1.01917
 B31 B 0.01616 -0.01658 0.97125
 B32 B 0.03292 -0.00941 1.00670
 B33 B 0.00560 -0.03429 1.00512
 B34 B -0.02011 -0.02263 0.97797
 B35 B -0.00789 0.01066 0.96301
 B36 B 0.02544 0.01853 0.98083
 B37 B 0.48383 0.51652 0.52876
 B38 B 0.46707 0.50935 0.49331
 B39 B 0.49439 0.53424 0.49489
 B40 B 0.52010 0.52257 0.52205
 B41 B 0.50788 0.48928 0.53701
 B42 B 0.47456 0.48141 0.51918
 B43 B 0.51615 0.48339 0.47126
 B44 B 0.53290 0.49056 0.50672
 B45 B 0.50558 0.46568 0.50513
 B46 B 0.47988 0.47735 0.47798
 B47 B 0.49209 0.51063 0.46302
 B48 B 0.52542 0.51851 0.48085
 B49 B 0.51613 0.98336 0.52876
 B50 B 0.53289 0.99055 0.49331
 B51 B 0.50558 0.96566 0.49489
 B52 B 0.47986 0.97732 0.52204
 B53 B 0.49207 1.01060 0.53701
 B54 B 0.52540 1.01848 0.51918
 B55 B 0.48382 1.01650 0.47127
 B56 B 0.46706 1.00932 0.50672
 B57 B 0.49438 1.03421 0.50515
 B58 B 0.52009 1.02255 0.47799
 B59 B 0.50788 0.98927 0.46302
 B60 B 0.47455 0.98139 0.48085
 B61 B 0.01615 0.48342 1.02874
 B62 B 0.03292 0.49060 0.99329
 B63 B 0.00560 0.46572 0.99487
 B64 B -0.02011 0.47738 1.02202
 B65 B -0.00790 0.51066 1.03699
 B66 B 0.02543 0.51854 1.01917
 B67 B -0.01615 0.51656 0.97125
 B68 B -0.03291 0.50938 1.00670
 B69 B -0.00559 0.53427 1.00513
 B70 B 0.02012 0.52261 0.97798
 B71 B 0.00791 0.48933 0.96300
 B72 B -0.02542 0.48145 0.98083
 B73 B 0.01616 0.51659 0.47124
 B74 B 0.03291 0.50940 0.50670
 B75 B 0.00560 0.53429 0.50512
 B76 B -0.02011 0.52263 0.47796
 B77 B -0.00790 0.48935 0.46299
 B78 B 0.02542 0.48147 0.48082
 B79 B -0.01616 0.48344 0.52873
 B80 B -0.03292 0.49062 0.49328
 B81 B -0.00561 0.46574 0.49485
 B82 B 0.02010 0.47740 0.52201
 B83 B 0.00789 0.51068 0.53698
 B84 B -0.02543 0.51856 0.51916
 B85 B 0.51616 0.01660 -0.02876
 B86 B 0.53292 0.00943 0.00670
 B87 B 0.50560 0.03431 0.00512
 B88 B 0.47989 0.02264 -0.02204
 B89 B 0.49211 -0.01064 -0.03700
 B90 B 0.52543 -0.01851 -0.01918
 B91 B 0.48385 -0.01654 0.02874
 B92 B 0.46709 -0.00936 -0.00672
 B93 B 0.49441 -0.03425 -0.00514
 B94 B 0.52012 -0.02258 0.02202
 B95 B 0.50790 0.01070 0.03698
 B96 B 0.47457 0.01858 0.01916
 B97 B 0.48382 0.48348 -0.02872
 B98 B 0.46705 0.49066 0.00673
 B99 B 0.49437 0.46577 0.00516
 B100 B 0.52009 0.47744 -0.02199
 B101 B 0.50788 0.51072 -0.03696
 B102 B 0.47455 0.51860 -0.01914
 B103 B 0.51612 0.51662 0.02879
 B104 B 0.53289 0.50944 -0.00666
 B105 B 0.50557 0.53433 -0.00509
 B106 B 0.47985 0.52266 0.02206
 B107 B 0.49206 0.48938 0.03703
 B108 B 0.52539 0.48150 0.01920
 B109 B -0.01616 0.98344 0.47126
 B110 B -0.03292 0.99061 0.50672
 B111 B -0.00560 0.96573 0.50514
 B112 B 0.02011 0.97740 0.47798
 B113 B 0.00790 1.01068 0.46302
 B114 B -0.02543 1.01855 0.48085
 B115 B 0.01616 1.01658 0.52876
 B116 B 0.03291 1.00940 0.49330
 B117 B 0.00560 1.03429 0.49488
 B118 B -0.02011 1.02262 0.52204
 B119 B -0.00790 0.98934 0.53700
 B120 B 0.02543 0.98146 0.51918
 B121 B 0.76657 0.23388 0.22121
 B122 B 0.75938 0.21711 0.25665
 B123 B 0.78428 0.24442 0.25509
 B124 B 0.77262 0.27015 0.22795
 B125 B 0.73934 0.25794 0.21297
 B126 B 0.73145 0.22461 0.23078
 B127 B 0.73343 0.26618 0.27871
 B128 B 0.74062 0.28295 0.24327
 B129 B 0.71572 0.25563 0.24483
 B130 B 0.72738 0.22991 0.27197
 B131 B 0.76066 0.24211 0.28695
 B132 B 0.76855 0.27545 0.26914
 B133 B 0.73344 0.76615 0.72129
 B134 B 0.74061 0.78291 0.75674
 B135 B 0.71573 0.75559 0.75516
 B136 B 0.72740 0.72988 0.72801
 B137 B 0.76068 0.74209 0.71305
 B138 B 0.76855 0.77543 0.73086
 B139 B 0.76658 0.73385 0.77879
 B140 B 0.75940 0.71709 0.74334
 B141 B 0.78428 0.74441 0.74491
 B142 B 0.77262 0.77012 0.77206
 B143 B 0.73933 0.75790 0.78703
 B144 B 0.73146 0.72457 0.76921
 B145 B 0.26661 0.26616 0.77875
 B146 B 0.25941 0.28293 0.74331
 B147 B 0.28431 0.25562 0.74485
 B148 B 0.27266 0.22989 0.77200
 B149 B 0.23938 0.24209 0.78699
 B150 B 0.23149 0.27542 0.76919
 B151 B 0.23346 0.23386 0.72125
 B152 B 0.24066 0.21709 0.75669
 B153 B 0.21576 0.24440 0.75514
 B154 B 0.22741 0.27013 0.72799
 B155 B 0.26069 0.25793 0.71300
 B156 B 0.26858 0.22460 0.73080
 B157 B 0.23344 0.73384 0.27875
 B158 B 0.24061 0.71708 0.24330
 B159 B 0.21573 0.74439 0.24487
 B160 B 0.22740 0.77011 0.27202
 B161 B 0.26068 0.75790 0.28699
 B162 B 0.26855 0.72456 0.26917
 B163 B 0.26658 0.76614 0.22124
 B164 B 0.25941 0.78290 0.25669
 B165 B 0.28429 0.75559 0.25512
 B166 B 0.27262 0.72987 0.22797
 B167 B 0.23934 0.74208 0.21300
 B168 B 0.23147 0.77541 0.23082
 B169 B 0.26657 0.73389 0.72123
 B170 B 0.25939 0.71713 0.75669
 B171 B 0.28428 0.74445 0.75510
 B172 B 0.27261 0.77016 0.72795
 B173 B 0.23932 0.75794 0.71299
 B174 B 0.23145 0.72461 0.73082
 B175 B 0.23343 0.76620 0.77873
 B176 B 0.24061 0.78296 0.74328
 B177 B 0.21572 0.75564 0.74486
 B178 B 0.22739 0.72993 0.77202
 B179 B 0.26068 0.74215 0.78697
 B180 B 0.26855 0.77547 0.76914
 B181 B 0.23342 0.26615 0.22126
 B182 B 0.24060 0.28291 0.25671
 B183 B 0.21571 0.25559 0.25513
 B184 B 0.22738 0.22988 0.22798
 B185 B 0.26067 0.24210 0.21302
 B186 B 0.26854 0.27543 0.23084
 B187 B 0.26656 0.23385 0.27876
 B188 B 0.25939 0.21708 0.24331
 B189 B 0.28427 0.24440 0.24488
 B190 B 0.27260 0.27012 0.27203
 B191 B 0.23932 0.25790 0.28700
 B192 B 0.23145 0.22457 0.26918
 B193 B 0.76658 0.76617 0.27877
 B194 B 0.75941 0.78293 0.24332
 B195 B 0.78430 0.75562 0.24490
 B196 B 0.77262 0.72990 0.27205
 B197 B 0.73933 0.74211 0.28701
 B198 B 0.73146 0.77544 0.26918
 B199 B 0.73346 0.73386 0.22126
 B200 B 0.74062 0.71710 0.25672
 B201 B 0.71574 0.74442 0.25513
 B202 B 0.72741 0.77013 0.22798
 B203 B 0.76070 0.75792 0.21303
 B204 B 0.76857 0.72459 0.23085
 B205 B 0.73348 0.23382 0.77871
 B206 B 0.74065 0.21706 0.74326
 B207 B 0.71577 0.24438 0.74484
 B208 B 0.72744 0.27009 0.77199
 B209 B 0.76072 0.25788 0.78696
 B210 B 0.76859 0.22455 0.76913
 B211 B 0.76662 0.26613 0.72121
 B212 B 0.75944 0.28289 0.75667
 B213 B 0.78433 0.25557 0.75509
 B214 B 0.77266 0.22986 0.72793
 B215 B 0.73938 0.24208 0.71297
 B216 B 0.73150 0.27540 0.73080
 C217 C 0.40806 1.01850 0.33279
 C218 C 0.40971 0.99153 0.35540
 C219 C 0.42477 0.99676 0.38356
 C220 C 0.43681 1.02848 0.38647
 C221 C 0.40967 1.04855 0.38223
 C222 C 0.39450 1.04330 0.35388
 C223 C 0.44036 1.02788 0.32720
 C224 C 0.45551 1.03313 0.35550
 C225 C 0.39171 1.01211 0.30272
 C226 C 0.37757 1.00633 0.27857
 C227 C 0.45329 1.03196 0.41700
 C228 C 0.46710 1.02921 0.44196
 H229 H 0.39985 0.97017 0.34984
 H230 H 0.42779 0.97980 0.40215
 H231 H 0.40305 1.06538 0.39975
 H232 H 0.37480 1.05566 0.34709
 H233 H 0.45039 1.03030 0.30319
 H234 H 0.47853 1.04009 0.35576
 C235 C -0.09191 0.51852 0.83277
 C236 C -0.10551 0.54329 0.85389
 C237 C -0.09033 0.54855 0.88224
 C238 C -0.06316 0.52853 0.88645
 C239 C -0.04448 0.53322 0.85547
 C240 C -0.05963 0.52797 0.82718
 C241 C -0.09020 0.49155 0.85537
 C242 C -0.07514 0.49678 0.88353
 C243 C -0.10827 0.51212 0.80271
 C244 C -0.12241 0.50633 0.77857
 C245 C -0.04668 0.53201 0.91698
 C246 C -0.03287 0.52927 0.94195
 H247 H -0.12523 0.55561 0.84711
 H248 H -0.09697 0.56536 0.89977
 H249 H -0.02147 0.54023 0.85573
 H250 H -0.04961 0.53042 0.80316
 H251 H -0.10002 0.47017 0.84980
 H252 H -0.07208 0.47982 0.90210
 C253 C 0.09193 -0.01851 0.83277
 C254 C 0.09021 0.00847 0.85538
 C255 C 0.07515 0.00322 0.88353
 C256 C 0.06318 -0.02852 0.88645
 C257 C 0.09036 -0.04854 0.88223
 C258 C 0.10553 -0.04327 0.85388
 C259 C 0.05965 -0.02796 0.82718
 C260 C 0.04450 -0.03322 0.85547
 C261 C 0.10829 -0.01209 0.80271
 C262 C 0.12243 -0.00630 0.77856
 C263 C 0.04669 -0.03202 0.91698
 C264 C 0.03289 -0.02928 0.94194
 H265 H 0.10003 0.02985 0.84981
 H266 H 0.07209 0.02018 0.90211
 H267 H 0.09700 -0.06535 0.89976
 H268 H 0.12526 -0.05559 0.84711
 H269 H 0.04964 -0.03040 0.80316
 H270 H 0.02149 -0.04023 0.85572
 C271 C 0.59193 0.48148 0.33279
 C272 C 0.59025 0.50844 0.35541
 C273 C 0.57519 0.50319 0.38357
 C274 C 0.56317 0.47146 0.38646
 C275 C 0.59033 0.45142 0.38222
 C276 C 0.60550 0.45668 0.35387
 C277 C 0.55964 0.47207 0.32719
 C278 C 0.54448 0.46681 0.35548
 C279 C 0.60829 0.48789 0.30273
 C280 C 0.62243 0.49368 0.27858
 C281 C 0.54669 0.46796 0.41699
 C282 C 0.53288 0.47070 0.44195
 H283 H 0.60010 0.52981 0.34986
 H284 H 0.57215 0.52014 0.40216
 H285 H 0.59695 0.43458 0.39973
 H286 H 0.62521 0.44434 0.34708
 H287 H 0.54962 0.46966 0.30317
 H288 H 0.52147 0.45983 0.35574
 C289 C 0.59190 0.51855 0.16725
 C290 C 0.59017 0.49157 0.14465
 C291 C 0.57510 0.49681 0.11651
 C292 C 0.56314 0.52856 0.11358
 C293 C 0.59033 0.54857 0.11779
 C294 C 0.60551 0.54330 0.14613
 C295 C 0.55963 0.52800 0.17286
 C296 C 0.54447 0.53326 0.14457
 C297 C 0.60827 0.51213 0.19731
 C298 C 0.62242 0.50635 0.22145
 C299 C 0.54665 0.53205 0.08306
 C300 C 0.53284 0.52931 0.05810
 H301 H 0.59998 0.47019 0.15022
 H302 H 0.57203 0.47985 0.09793
 H303 H 0.59697 0.56538 0.10025
 H304 H 0.62524 0.55562 0.15290
 H305 H 0.54963 0.53045 0.19688
 H306 H 0.52147 0.54028 0.14433
 C307 C 0.09192 1.01855 0.66723
 C308 C 0.09020 0.99156 0.64464
 C309 C 0.07514 0.99679 0.61649
 C310 C 0.06317 1.02854 0.61355
 C311 C 0.09036 1.04855 0.61775
 C312 C 0.10554 1.04329 0.64610
 C313 C 0.05966 1.02801 0.67282
 C314 C 0.04450 1.03326 0.64453
 C315 C 0.10829 1.01214 0.69729
 C316 C 0.12243 1.00636 0.72144
 C317 C 0.04669 1.03203 0.58302
 C318 C 0.03288 1.02928 0.55806
 H319 H 0.10001 0.97018 0.65022
 H320 H 0.07207 0.97983 0.59792
 H321 H 0.09701 1.06536 0.60021
 H322 H 0.12527 1.05562 0.65287
 H323 H 0.04964 1.03047 0.69684
 H324 H 0.02150 1.04027 0.64428
 C325 C -0.09193 0.48149 0.66722
 C326 C -0.05966 0.47203 0.67280
 C327 C -0.04451 0.46677 0.64451
 C328 C -0.06318 0.47149 0.61353
 C329 C -0.07514 0.50324 0.61647
 C330 C -0.09020 0.50847 0.64463
 C331 C -0.10554 0.45674 0.64610
 C332 C -0.09037 0.45148 0.61774
 C333 C -0.10828 0.48790 0.69728
 C334 C -0.12242 0.49368 0.72144
 C335 C -0.04670 0.46800 0.58300
 C336 C -0.03290 0.47074 0.55804
 H337 H -0.04964 0.46957 0.69682
 H338 H -0.02150 0.45975 0.64425
 H339 H -0.07208 0.52020 0.59790
 H340 H -0.10001 0.52986 0.65021
 H341 H -0.12528 0.44443 0.65287
 H342 H -0.09703 0.43468 0.60021
 C343 C 0.40808 -0.01850 0.16722
 C344 C 0.40980 0.00848 0.14463
 C345 C 0.42486 0.00325 0.11647
 C346 C 0.43683 -0.02850 0.11354
 C347 C 0.40965 -0.04851 0.11775
 C348 C 0.39447 -0.04326 0.14610
 C349 C 0.44035 -0.02795 0.17281
 C350 C 0.45550 -0.03321 0.14452
 C351 C 0.39172 -0.01210 0.19728
 C352 C 0.37757 -0.00632 0.22143
 C353 C 0.45331 -0.03199 0.08301
 C354 C 0.46712 -0.02924 0.05805
 H355 H 0.39998 0.02986 0.15021
 H356 H 0.42792 0.02021 0.09790
 H357 H 0.40300 -0.06532 0.10022
 H358 H 0.37474 -0.05558 0.15287
 H359 H 0.45037 -0.03041 0.19683
 H360 H 0.47851 -0.04022 0.14426
 C361 C 0.32801 0.43620 0.01156
 C362 C 0.34197 0.44051 -0.02236
 C363 C 0.36950 0.45265 -0.02136
 C364 C 0.38036 0.45927 0.01345
 C365 C 0.37807 0.42972 0.03180
 C366 C 0.35050 0.41757 0.03081
 C367 C 0.32871 0.46694 0.02761
 C368 C 0.35638 0.47914 0.02861
 C369 C 0.29887 0.42236 0.00966
 C370 C 0.27599 0.40909 0.00625
 C371 C 0.41016 0.47168 0.01367
 C372 C 0.43510 0.48073 0.01190
 H373 H 0.33115 0.43462 -0.04520
 H374 H 0.38228 0.45720 -0.04333
 H375 H 0.39644 0.41933 0.04456
 H376 H 0.34521 0.39673 0.04273
 H377 H 0.30930 0.47809 0.03732
 H378 H 0.36073 0.50077 0.03919
 C379 C -0.17197 0.93618 0.51159
 C380 C -0.15793 0.94031 0.47768
 C381 C -0.13041 0.95244 0.47867
 C382 C -0.11961 0.95924 0.51347
 C383 C -0.12195 0.92979 0.53201
 C384 C -0.14953 0.91765 0.53102
 C385 C -0.17128 0.96701 0.52745
 C386 C -0.14361 0.97920 0.52844
 C387 C -0.20112 0.92235 0.50970
 C388 C -0.22400 0.90910 0.50630
 C389 C -0.08981 0.97164 0.51367
 C390 C -0.06487 0.98069 0.51190
 H391 H -0.16872 0.93430 0.45485
 H392 H -0.11758 0.95686 0.45670
 H393 H -0.10362 0.91945 0.54487
 H394 H -0.15486 0.89687 0.54306
 H395 H -0.19071 0.97822 0.53704
 H396 H -0.13927 1.00088 0.53889
 C397 C -0.17195 0.06382 0.98844
 C398 C -0.15792 0.05969 1.02235
 C399 C -0.13039 0.04755 1.02135
 C400 C -0.11959 0.04076 0.98655
 C401 C -0.12193 0.07020 0.96802
 C402 C -0.14950 0.08235 0.96900
 C403 C -0.17127 0.03299 0.97258
 C404 C -0.14360 0.02080 0.97158
 C405 C -0.20110 0.07765 0.99033
 C406 C -0.22398 0.09091 0.99373
 C407 C -0.08980 0.02835 0.98635
 C408 C -0.06486 0.01930 0.98813
 H409 H -0.16870 0.06570 1.04518
 H410 H -0.11757 0.04313 1.04332
 H411 H -0.10360 0.08054 0.95515
 H412 H -0.15483 0.10313 0.95696
 H413 H -0.19070 0.02178 0.96299
 H414 H -0.13927 -0.00088 0.96114
 C415 C 0.32804 0.56381 0.48845
 C416 C 0.34209 0.55971 0.52236
 C417 C 0.36961 0.54758 0.52136
 C418 C 0.38039 0.54074 0.48657
 C419 C 0.37805 0.57017 0.46800
 C420 C 0.35048 0.58232 0.46898
 C421 C 0.32871 0.53297 0.47263
 C422 C 0.35637 0.52077 0.47163
 C423 C 0.29889 0.57765 0.49034
 C424 C 0.27602 0.59091 0.49374
 C425 C 0.41019 0.52833 0.48636
 C426 C 0.43512 0.51928 0.48814
 H427 H 0.33131 0.56575 0.54519
 H428 H 0.38245 0.54317 0.54333
 H429 H 0.39638 0.58049 0.45510
 H430 H 0.34515 0.60309 0.45692
 H431 H 0.30927 0.52176 0.46307
 H432 H 0.36070 0.49908 0.46121
 C433 C 0.17197 0.56383 0.51155
 C434 C 0.17128 0.53299 0.52740
 C435 C 0.14361 0.52081 0.52840
 C436 C 0.11961 0.54077 0.51344
 C437 C 0.13040 0.54758 0.47864
 C438 C 0.15793 0.55971 0.47765
 C439 C 0.14953 0.58235 0.53100
 C440 C 0.12196 0.57021 0.53199
 C441 C 0.20112 0.57765 0.50966
 C442 C 0.22400 0.59091 0.50626
 C443 C 0.08980 0.52837 0.51365
 C444 C 0.06487 0.51933 0.51187
 H445 H 0.19071 0.52178 0.53698
 H446 H 0.13927 0.49912 0.53884
 H447 H 0.11757 0.54317 0.45668
 H448 H 0.16871 0.56573 0.45482
 H449 H 0.15487 0.60313 0.54304
 H450 H 0.10362 0.58055 0.54486
 C451 C 0.67197 0.06384 0.01155
 C452 C 0.65793 0.05973 -0.02235
 C453 C 0.63040 0.04761 -0.02136
 C454 C 0.61961 0.04079 0.01344
 C455 C 0.62197 0.07023 0.03200
 C456 C 0.64955 0.08237 0.03101
 C457 C 0.67129 0.03300 0.02739
 C458 C 0.64362 0.02082 0.02839
 C459 C 0.70113 0.07766 0.00966
 C460 C 0.72401 0.09091 0.00625
 C461 C 0.58981 0.02839 0.01365
 C462 C 0.56487 0.01935 0.01187
 H463 H 0.66871 0.06576 -0.04518
 H464 H 0.61757 0.04320 -0.04332
 H465 H 0.60364 0.08056 0.04488
 H466 H 0.65488 0.10314 0.04306
 H467 H 0.69072 0.02179 0.03696
 H468 H 0.63928 -0.00087 0.03883
 C469 C 0.67195 0.93616 0.48848
 C470 C 0.67127 0.96699 0.47261
 C471 C 0.64360 0.97916 0.47161
 C472 C 0.61959 0.95920 0.48658
 C473 C 0.63039 0.95242 0.52139
 C474 C 0.65792 0.94030 0.52239
 C475 C 0.64952 0.91762 0.46905
 C476 C 0.62195 0.92975 0.46806
 C477 C 0.70111 0.92234 0.49038
 C478 C 0.72399 0.90909 0.49378
 C479 C 0.58979 0.97159 0.48637
 C480 C 0.56485 0.98063 0.48814
 H481 H 0.69070 0.97820 0.46302
 H482 H 0.63925 1.00084 0.46115
 H483 H 0.61755 0.95684 0.54335
 H484 H 0.66870 0.93430 0.54522
 H485 H 0.65486 0.89684 0.45702
 H486 H 0.60362 0.91940 0.45519
 C487 C 0.17196 0.43616 0.98844
 C488 C 0.15793 0.44030 1.02235
 C489 C 0.13040 0.45243 1.02135
 C490 C 0.11960 0.45923 0.98655
 C491 C 0.12194 0.42977 0.96802
 C492 C 0.14951 0.41763 0.96901
 C493 C 0.17128 0.46699 0.97257
 C494 C 0.14362 0.47918 0.97157
 C495 C 0.20110 0.42233 0.99033
 C496 C 0.22398 0.40907 0.99374
 C497 C 0.08981 0.47163 0.98635
 C498 C 0.06487 0.48068 0.98812
 H499 H 0.16871 0.43429 1.04518
 H500 H 0.11757 0.45686 1.04332
 H501 H 0.10360 0.41943 0.95516
 H502 H 0.15484 0.39684 0.95698
 H503 H 0.19071 0.47819 0.96298
 H504 H 0.13928 0.50086 0.96112
 C505 C -0.00699 0.32763 0.42959
 C506 C -0.03836 0.34083 0.43090
 C507 C -0.03991 0.36736 0.44692
 C508 C -0.00994 0.37819 0.46011
 C509 C 0.01063 0.37842 0.43014
 C510 C 0.01218 0.35199 0.41419
 C511 C 0.00308 0.32613 0.46552
 C512 C 0.00153 0.35268 0.48155
 C513 C -0.00496 0.29928 0.41159
 C514 C -0.00285 0.27670 0.39566
 C515 C -0.01091 0.40742 0.47637
 C516 C -0.00996 0.43248 0.48691
 H517 H -0.05769 0.33022 0.42028
 H518 H -0.06053 0.37940 0.45000
 H519 H 0.02299 0.39775 0.42213
 H520 H 0.02583 0.34875 0.39259
 H521 H 0.01067 0.30597 0.47735
 H522 H 0.00779 0.35522 0.50706
 C523 C 0.49302 -0.17235 -0.07040
 C524 C 0.46165 -0.15914 -0.06909
 C525 C 0.46010 -0.13261 -0.05307
 C526 C 0.49007 -0.12179 -0.03987
 C527 C 0.51065 -0.12156 -0.06984
 C528 C 0.51219 -0.14799 -0.08579
 C529 C 0.50308 -0.17386 -0.03447
 C530 C 0.50154 -0.14731 -0.01844
 C531 C 0.49505 -0.20069 -0.08841
 C532 C 0.49716 -0.22327 -0.10434
 C533 C 0.48911 -0.09257 -0.02362
 C534 C 0.49005 -0.06751 -0.01308
 H535 H 0.44232 -0.16975 -0.07971
 H536 H 0.43948 -0.12057 -0.04998
 H537 H 0.52300 -0.10223 -0.07785
 H538 H 0.52584 -0.15122 -0.10740
 H539 H 0.51068 -0.19401 -0.02264
 H540 H 0.50780 -0.14477 0.00708
 C541 C 0.00697 -0.17240 1.07040
 C542 C 0.03834 -0.15917 1.06910
 C543 C 0.03988 -0.13265 1.05308
 C544 C 0.00992 -0.12184 1.03986
 C545 C -0.01067 -0.12162 1.06981
 C546 C -0.01221 -0.14804 1.08576
 C547 C -0.00307 -0.17391 1.03445
 C548 C -0.00152 -0.14736 1.01842
 C549 C 0.00494 -0.20074 1.08840
 C550 C 0.00283 -0.22331 1.10434
 C551 C 0.01089 -0.09261 1.02360
 C552 C 0.00995 -0.06756 1.01306
 H553 H 0.05766 -0.16977 1.07975
 H554 H 0.06051 -0.12060 1.05001
 H555 H -0.02304 -0.10229 1.07781
 H556 H -0.02588 -0.15128 1.10736
 H557 H -0.01064 -0.19407 1.02262
 H558 H -0.00776 -0.14484 0.99290
 C559 C 0.50698 0.32756 0.57037
 C560 C 0.53825 0.34106 0.56961
 C561 C 0.53979 0.36759 0.55360
 C562 C 0.50992 0.37813 0.53985
 C563 C 0.48891 0.37818 0.56944
 C564 C 0.48737 0.35175 0.58539
 C565 C 0.49747 0.32594 0.53426
 C566 C 0.49900 0.35249 0.51824
 C567 C 0.50497 0.29922 0.58837
 C568 C 0.50286 0.27664 0.60431
 C569 C 0.51088 0.40736 0.52360
 C570 C 0.50994 0.43242 0.51307
 H571 H 0.55751 0.33064 0.58059
 H572 H 0.56035 0.37982 0.55087
 H573 H 0.47626 0.39741 0.57721
 H574 H 0.47343 0.34841 0.60675
 H575 H 0.49024 0.30571 0.52232
 H576 H 0.49311 0.35495 0.49261
 C577 C 0.49305 1.17232 0.57040
 C578 C 0.51269 1.14813 0.58537
 C579 C 0.51114 1.12170 0.56942
 C580 C 0.49007 1.12176 0.53988
 C581 C 0.50094 1.14739 0.51824
 C582 C 0.50250 1.17395 0.53427
 C583 C 0.46179 1.15881 0.56971
 C584 C 0.46023 1.13228 0.55370
 C585 C 0.49509 1.20066 0.58840
 C586 C 0.49721 1.22324 0.60432
 C587 C 0.48909 1.09253 0.52363
 C588 C 0.49003 1.06747 0.51309
 H589 H 0.52667 1.15148 0.60670
 H590 H 0.52380 1.10248 0.57716
 H591 H 0.50680 1.14494 0.49260
 H592 H 0.50971 1.19418 0.52231
 H593 H 0.44254 1.16923 0.58075
 H594 H 0.43966 1.12005 0.55102
 C595 C -0.00696 0.67237 1.07041
 C596 C 0.01221 0.64801 1.08579
 C597 C 0.01066 0.62159 1.06983
 C598 C -0.00992 0.62181 1.03988
 C599 C 0.00154 0.64733 1.01844
 C600 C 0.00309 0.67388 1.03447
 C601 C -0.03834 0.65916 1.06911
 C602 C -0.03988 0.63263 1.05309
 C603 C -0.00493 0.70071 1.08841
 C604 C -0.00282 0.72329 1.10434
 C605 C -0.01089 0.59259 1.02362
 C606 C -0.00995 0.56753 1.01308
 H607 H 0.02587 0.65125 1.10739
 H608 H 0.02302 0.60225 1.07784
 H609 H 0.00779 0.64480 0.99292
 H610 H 0.01067 0.69404 1.02264
 H611 H -0.05766 0.66976 1.07975
 H612 H -0.06051 0.62059 1.05002
 C613 C 0.50694 0.67242 -0.07038
 C614 C 0.48774 0.64807 -0.08573
 C615 C 0.48929 0.62164 -0.06976
 C616 C 0.50989 0.62187 -0.03983
 C617 C 0.49847 0.64740 -0.01839
 C618 C 0.49692 0.67394 -0.03443
 C619 C 0.53831 0.65920 -0.06911
 C620 C 0.53985 0.63267 -0.05308
 C621 C 0.50491 0.70076 -0.08839
 C622 C 0.50280 0.72333 -0.10433
 C623 C 0.51087 0.59265 -0.02357
 C624 C 0.50992 0.56759 -0.01303
 H625 H 0.47406 0.65130 -0.10731
 H626 H 0.47691 0.60231 -0.07775
 H627 H 0.49224 0.64487 0.00714
 H628 H 0.48935 0.69410 -0.02259
 H629 H 0.55762 0.66979 -0.07977
 H630 H 0.56048 0.62062 -0.05002
 C631 C 0.00695 1.17239 0.42961
 C632 C -0.00309 1.17390 0.46556
 C633 C -0.00154 1.14735 0.48159
 C634 C 0.00992 1.12183 0.46015
 C635 C 0.03988 1.13265 0.44693
 C636 C 0.03833 1.15918 0.43091
 C637 C -0.01222 1.14803 0.41424
 C638 C -0.01067 1.12160 0.43020
 C639 C 0.00492 1.20073 0.41161
 C640 C 0.00281 1.22330 0.39568
 C641 C 0.01089 1.09260 0.47640
 C642 C 0.00995 1.06755 0.48694
 H643 H -0.01067 1.19405 0.47739
 H644 H -0.00778 1.14482 0.50711
 H645 H 0.06051 1.12061 0.45000
 H646 H 0.05765 1.16979 0.42026
 H647 H -0.02588 1.15126 0.39265
 H648 H -0.02303 1.10227 0.42220
 C649 C 0.76854 0.65807 0.91726
 C650 C 0.77797 0.69035 0.92286
 C651 C 0.78323 0.70551 0.89457
 C652 C 0.77854 0.68684 0.86358
 C653 C 0.74680 0.67485 0.86651
 C654 C 0.74156 0.65978 0.89465
 C655 C 0.79331 0.64449 0.89614
 C656 C 0.79857 0.65967 0.86780
 C657 C 0.76213 0.64171 0.94731
 C658 C 0.75634 0.62756 0.97146
 C659 C 0.78203 0.70333 0.83306
 C660 C 0.77928 0.71713 0.80810
 H661 H 0.78041 0.70036 0.94688
 H662 H 0.79022 0.72852 0.89432
 H663 H 0.72984 0.67790 0.84793
 H664 H 0.72019 0.64995 0.90022
 H665 H 0.80564 0.62477 0.90291
 H666 H 0.81539 0.65304 0.85027
 C667 C 0.26853 0.15808 0.41724
 C668 C 0.27798 0.19035 0.42283
 C669 C 0.28323 0.20551 0.39454
 C670 C 0.27852 0.18683 0.36356
 C671 C 0.24678 0.17486 0.36650
 C672 C 0.24155 0.15979 0.39465
 C673 C 0.29329 0.14448 0.39611
 C674 C 0.29854 0.15966 0.36776
 C675 C 0.26213 0.14171 0.44730
 C676 C 0.25635 0.12757 0.47145
 C677 C 0.28201 0.20332 0.33303
 C678 C 0.27926 0.21713 0.30807
 H679 H 0.28044 0.20036 0.44685
 H680 H 0.29024 0.22852 0.39428
 H681 H 0.22982 0.17792 0.34793
 H682 H 0.22017 0.14997 0.40023
 H683 H 0.30562 0.12475 0.40288
 H684 H 0.31535 0.15302 0.35023
 C685 C 0.73147 0.34192 0.41720
 C686 C 0.72204 0.30964 0.42279
 C687 C 0.71679 0.29449 0.39450
 C688 C 0.72147 0.31318 0.36352
 C689 C 0.75321 0.32517 0.36644
 C690 C 0.75844 0.34023 0.39459
 C691 C 0.70670 0.35551 0.39610
 C692 C 0.70144 0.34034 0.36775
 C693 C 0.73788 0.35828 0.44727
 C694 C 0.74367 0.37242 0.47142
 C695 C 0.71798 0.29670 0.33299
 C696 C 0.72072 0.28290 0.30802
 H697 H 0.71961 0.29962 0.44681
 H698 H 0.70979 0.27148 0.39424
 H699 H 0.77016 0.32212 0.34785
 H700 H 0.77982 0.35006 0.40016
 H701 H 0.69437 0.37523 0.40289
 H702 H 0.68462 0.34698 0.35023
 C703 C 0.23149 0.84194 0.91723
 C704 C 0.20672 0.85554 0.89612
 C705 C 0.20146 0.84037 0.86777
 C706 C 0.22149 0.81320 0.86354
 C707 C 0.21679 0.79451 0.89452
 C708 C 0.22205 0.80966 0.92281
 C709 C 0.25846 0.84024 0.89463
 C710 C 0.25323 0.82518 0.86647
 C711 C 0.23790 0.85829 0.94729
 C712 C 0.24368 0.87243 0.97145
 C713 C 0.21799 0.79672 0.83301
 C714 C 0.22074 0.78292 0.80804
 H715 H 0.19440 0.87526 0.90291
 H716 H 0.18465 0.84701 0.85024
 H717 H 0.20979 0.77150 0.89426
 H718 H 0.21960 0.79964 0.94683
 H719 H 0.27984 0.85006 0.90020
 H720 H 0.27019 0.82213 0.84789
 C721 C 0.26854 0.84191 0.08277
 C722 C 0.27799 0.80964 0.07717
 C723 C 0.28324 0.79448 0.10546
 C724 C 0.27855 0.81315 0.13644
 C725 C 0.24680 0.82513 0.13352
 C726 C 0.24156 0.84020 0.10537
 C727 C 0.29330 0.85551 0.10389
 C728 C 0.29856 0.84033 0.13223
 C729 C 0.26213 0.85828 0.05272
 C730 C 0.25634 0.87242 0.02857
 C731 C 0.28204 0.79667 0.16697
 C732 C 0.27929 0.78286 0.19193
 H733 H 0.28043 0.79963 0.05315
 H734 H 0.29025 0.77147 0.10571
 H735 H 0.22984 0.82207 0.15210
 H736 H 0.22018 0.85001 0.09980
 H737 H 0.30563 0.87524 0.09712
 H738 H 0.31538 0.84697 0.14976
 C739 C 0.76854 0.34191 0.58275
 C740 C 0.77801 0.30964 0.57715
 C741 C 0.78328 0.29449 0.60543
 C742 C 0.77856 0.31315 0.63642
 C743 C 0.74681 0.32510 0.63349
 C744 C 0.74156 0.34017 0.60534
 C745 C 0.79329 0.35553 0.60387
 C746 C 0.79856 0.34035 0.63221
 C747 C 0.76213 0.35827 0.55269
 C748 C 0.75634 0.37242 0.52854
 C749 C 0.78206 0.29667 0.66694
 C750 C 0.77932 0.28286 0.69191
 H751 H 0.78048 0.29964 0.55312
 H752 H 0.79030 0.27149 0.60568
 H753 H 0.72985 0.32203 0.65206
 H754 H 0.72018 0.34997 0.59977
 H755 H 0.80560 0.37526 0.59710
 H756 H 0.81537 0.34700 0.64975
 C757 C 0.23149 0.15808 0.58278
 C758 C 0.22213 0.19038 0.57718
 C759 C 0.21688 0.20554 0.60547
 C760 C 0.22149 0.18685 0.63645
 C761 C 0.25321 0.17480 0.63357
 C762 C 0.25845 0.15973 0.60542
 C763 C 0.20668 0.14453 0.60385
 C764 C 0.20142 0.15972 0.63220
 C765 C 0.23790 0.14172 0.55272
 C766 C 0.24369 0.12757 0.52858
 C767 C 0.21801 0.20333 0.66698
 C768 C 0.22075 0.21714 0.69194
 H769 H 0.21974 0.20041 0.55316
 H770 H 0.20993 0.22856 0.60572
 H771 H 0.27016 0.17781 0.65217
 H772 H 0.27981 0.14986 0.59987
 H773 H 0.19431 0.12484 0.59706
 H774 H 0.18457 0.15311 0.64971
 C775 C 0.73150 0.65808 0.08279
 C776 C 0.72207 0.69035 0.07719
 C777 C 0.71682 0.70551 0.10548
 C778 C 0.72151 0.68684 0.13646
 C779 C 0.75325 0.67485 0.13354
 C780 C 0.75848 0.65978 0.10539
 C781 C 0.70674 0.64449 0.10391
 C782 C 0.70148 0.65967 0.13225
 C783 C 0.73791 0.64171 0.05273
 C784 C 0.74369 0.62756 0.02859
 C785 C 0.71802 0.70333 0.16699
 C786 C 0.72077 0.71714 0.19195
 H787 H 0.71963 0.70036 0.05317
 H788 H 0.70983 0.72852 0.10573
 H789 H 0.77021 0.67791 0.15212
 H790 H 0.77986 0.64995 0.09982
 H791 H 0.69440 0.62477 0.09714
 H792 H 0.68466 0.65304 0.14978
 C793 C 0.18618 0.57803 0.23844
 C794 C 0.21700 0.57872 0.22256
 C795 C 0.22918 0.60639 0.22156
 C796 C 0.20924 0.63039 0.23656
 C797 C 0.20246 0.61958 0.27136
 C798 C 0.19033 0.59205 0.27235
 C799 C 0.16763 0.60047 0.21903
 C800 C 0.17977 0.62805 0.21805
 C801 C 0.17235 0.54888 0.24033
 C802 C 0.15909 0.52600 0.24373
 C803 C 0.22164 0.66019 0.23636
 C804 C 0.23069 0.68512 0.23813
 H805 H 0.22820 0.55929 0.21296
 H806 H 0.25086 0.61073 0.21110
 H807 H 0.20689 0.63240 0.29333
 H808 H 0.18432 0.58126 0.29518
 H809 H 0.14685 0.59515 0.20701
 H810 H 0.16943 0.64639 0.20519
 C811 C 0.68619 0.07802 0.73842
 C812 C 0.69030 0.09207 0.77232
 C813 C 0.70243 0.11959 0.77133
 C814 C 0.70926 0.13038 0.73652
 C815 C 0.67983 0.12802 0.71796
 C816 C 0.66768 0.10045 0.71895
 C817 C 0.71704 0.07869 0.72259
 C818 C 0.72923 0.10636 0.72159
 C819 C 0.67236 0.04887 0.74031
 C820 C 0.65910 0.02600 0.74372
 C821 C 0.72167 0.16017 0.73632
 C822 C 0.73072 0.18511 0.73809
 H823 H 0.68426 0.08130 0.79515
 H824 H 0.70683 0.13244 0.79329
 H825 H 0.66951 0.14635 0.70507
 H826 H 0.64691 0.09512 0.70690
 H827 H 0.72825 0.05926 0.71303
 H828 H 0.75092 0.11069 0.71116
 C829 C 0.81381 0.07807 0.26153
 C830 C 0.78279 0.07868 0.27691
 C831 C 0.77060 0.10634 0.27789
 C832 C 0.79075 0.13042 0.26339
 C833 C 0.79799 0.11981 0.22863
 C834 C 0.81012 0.09228 0.22765
 C835 C 0.83211 0.10040 0.28140
 C836 C 0.81996 0.12797 0.28237
 C837 C 0.82765 0.04892 0.25965
 C838 C 0.84090 0.02604 0.25626
 C839 C 0.77835 0.16022 0.26359
 C840 C 0.76930 0.18516 0.26182
 H841 H 0.77145 0.05920 0.28619
 H842 H 0.74878 0.11063 0.28802
 H843 H 0.79386 0.13276 0.20668
 H844 H 0.81643 0.08162 0.20484
 H845 H 0.85273 0.09500 0.29372
 H846 H 0.83014 0.14624 0.29551
 C847 C 0.31382 0.57809 0.76158
 C848 C 0.30968 0.59211 0.72766
 C849 C 0.29755 0.61964 0.72865
 C850 C 0.29076 0.63045 0.76345
 C851 C 0.32022 0.62811 0.78198
 C852 C 0.33236 0.60054 0.78100
 C853 C 0.28299 0.57878 0.77745
 C854 C 0.27081 0.60645 0.77843
 C855 C 0.32764 0.54894 0.75969
 C856 C 0.34089 0.52606 0.75630
 C857 C 0.27836 0.66024 0.76364
 C858 C 0.26932 0.68518 0.76186
 H859 H 0.31569 0.58132 0.70484
 H860 H 0.29313 0.63246 0.70668
 H861 H 0.33056 0.64645 0.79483
 H862 H 0.35314 0.59521 0.79303
 H863 H 0.27178 0.55935 0.78704
 H864 H 0.24913 0.61079 0.78889
 C865 C 0.31376 0.42201 0.73852
 C866 C 0.30770 0.40883 0.77249
 C867 C 0.29558 0.38129 0.77149
 C868 C 0.29073 0.36965 0.73662
 C869 C 0.32117 0.37152 0.72008
 C870 C 0.33329 0.39909 0.72107
 C871 C 0.28388 0.42097 0.72060
 C872 C 0.27171 0.39329 0.71960
 C873 C 0.32759 0.45117 0.74041
 C874 C 0.34085 0.47404 0.74381
 C875 C 0.27834 0.33984 0.73640
 C876 C 0.26932 0.31489 0.73816
 H877 H 0.31244 0.42016 0.79536
 H878 H 0.28990 0.36901 0.79348
 H879 H 0.33218 0.35287 0.70852
 H880 H 0.35473 0.40410 0.71034
 H881 H 0.27328 0.44016 0.70970
 H882 H 0.25064 0.38871 0.70782
 C883 C 0.81383 0.92199 0.23847
 C884 C 0.83240 0.89954 0.21908
 C885 C 0.82026 0.87197 0.21809
 C886 C 0.79078 0.86963 0.23658
 C887 C 0.77084 0.89362 0.22157
 C888 C 0.78303 0.92129 0.22256
 C889 C 0.80966 0.90797 0.27238
 C890 C 0.79753 0.88044 0.27139
 C891 C 0.82766 0.95114 0.24036
 C892 C 0.84091 0.97402 0.24376
 C893 C 0.77838 0.83982 0.23638
 C894 C 0.76934 0.81489 0.23815
 H895 H 0.85319 0.90487 0.20707
 H896 H 0.83062 0.85362 0.20525
 H897 H 0.74917 0.88927 0.21109
 H898 H 0.77183 0.94071 0.21295
 H899 H 0.81564 0.91877 0.29522
 H900 H 0.79309 0.86762 0.29336
 C901 C 0.68617 0.92195 0.76155
 C902 C 0.69032 0.90792 0.72765
 C903 C 0.70245 0.88040 0.72865
 C904 C 0.70923 0.86960 0.76346
 C905 C 0.67977 0.87194 0.78197
 C906 C 0.66763 0.89951 0.78098
 C907 C 0.71699 0.92128 0.77743
 C908 C 0.72918 0.89361 0.77844
 C909 C 0.67234 0.95111 0.75965
 C910 C 0.65909 0.97399 0.75625
 C911 C 0.72163 0.83980 0.76367
 C912 C 0.73068 0.81487 0.76190
 H913 H 0.68432 0.91870 0.70481
 H914 H 0.70688 0.86757 0.70669
 H915 H 0.66942 0.85361 0.79483
 H916 H 0.64684 0.90484 0.79300
 H917 H 0.72819 0.94071 0.78703
 H918 H 0.75085 0.88927 0.78890
 C919 C 0.18617 0.42196 0.26154
 C920 C 0.19041 0.40797 0.22763
 C921 C 0.20254 0.38044 0.22862
 C922 C 0.20923 0.36960 0.26343
 C923 C 0.17972 0.37192 0.28187
 C924 C 0.16758 0.39949 0.28088
 C925 C 0.21696 0.42126 0.27751
 C926 C 0.22914 0.39359 0.27851
 C927 C 0.17235 0.45111 0.25965
 C928 C 0.15909 0.47399 0.25624
 C929 C 0.22163 0.33980 0.26365
 C930 C 0.23067 0.31486 0.26188
 H931 H 0.18446 0.41877 0.20479
 H932 H 0.20702 0.36763 0.20666
 H933 H 0.16935 0.35357 0.29467
 H934 H 0.14677 0.40481 0.29284
 H935 H 0.22813 0.44068 0.28716
 H936 H 0.25079 0.38924 0.28903
 C937 C 0.07766 0.24301 0.82043
 C938 C 0.07617 0.25314 0.78451
 C939 C 0.10272 0.25159 0.76848
 C940 C 0.12822 0.24005 0.78989
 C941 C 0.11735 0.21007 0.80302
 C942 C 0.09082 0.21162 0.81904
 C943 C 0.10204 0.26211 0.83586
 C944 C 0.12847 0.26056 0.81991
 C945 C 0.04931 0.24504 0.83842
 C946 C 0.02673 0.24715 0.85435
 C947 C 0.15744 0.23908 0.77364
 C948 C 0.18250 0.24003 0.76309
 H949 H 0.05603 0.26078 0.77270
 H950 H 0.10527 0.25789 0.74298
 H951 H 0.12937 0.18943 0.79990
 H952 H 0.08019 0.19229 0.82963
 H953 H 0.09882 0.27572 0.85750
 H954 H 0.14782 0.27287 0.82795
 C955 C 0.57762 0.74300 0.32038
 C956 C 0.60198 0.76217 0.33577
 C957 C 0.62841 0.76064 0.31981
 C958 C 0.62818 0.74007 0.28984
 C959 C 0.60267 0.75153 0.26841
 C960 C 0.57611 0.75306 0.28444
 C961 C 0.59084 0.71163 0.31906
 C962 C 0.61737 0.71009 0.30304
 C963 C 0.54928 0.74502 0.33839
 C964 C 0.52671 0.74712 0.35432
 C965 C 0.65741 0.73911 0.27359
 C966 C 0.68247 0.74006 0.26306
 H967 H 0.59874 0.77582 0.35737
 H968 H 0.64774 0.77300 0.32782
 H969 H 0.60520 0.75778 0.24290
 H970 H 0.55596 0.76064 0.27262
 H971 H 0.58023 0.69230 0.32969
 H972 H 0.62941 0.68947 0.29996
 C973 C 0.57762 0.25701 0.17956
 C974 C 0.59082 0.28839 0.18089
 C975 C 0.61735 0.28994 0.19691
 C976 C 0.62818 0.25997 0.21009
 C977 C 0.62841 0.23941 0.18011
 C978 C 0.60198 0.23787 0.16416
 C979 C 0.57612 0.24693 0.21550
 C980 C 0.60267 0.24848 0.23152
 C981 C 0.54927 0.25498 0.16157
 C982 C 0.52669 0.25287 0.14564
 C983 C 0.65741 0.26094 0.22634
 C984 C 0.68247 0.25999 0.23688
 H985 H 0.58020 0.30772 0.17027
 H986 H 0.62938 0.31057 0.20000
 H987 H 0.64775 0.22707 0.17209
 H988 H 0.59875 0.22422 0.14255
 H989 H 0.55597 0.23933 0.22732
 H990 H 0.60521 0.24222 0.25703
 C991 C 0.07762 0.75699 0.67961
 C992 C 0.10197 0.73781 0.66424
 C993 C 0.12840 0.73936 0.68019
 C994 C 0.12817 0.75995 0.71014
 C995 C 0.10265 0.74850 0.73158
 C996 C 0.07610 0.74695 0.71555
 C997 C 0.09083 0.78836 0.68090
 C998 C 0.11736 0.78991 0.69692
 C999 C 0.04927 0.75495 0.66161
 C1000 C 0.02670 0.75284 0.64567
 C1001 C 0.15740 0.76093 0.72639
 C1002 C 0.18246 0.75999 0.73693
 H1003 H 0.09874 0.72415 0.64264
 H1004 H 0.14773 0.72700 0.67219
 H1005 H 0.10518 0.74226 0.75710
 H1006 H 0.05595 0.73937 0.72739
 H1007 H 0.08022 0.80768 0.67026
 H1008 H 0.12940 0.81054 0.69999
 C1009 C 0.92239 0.74304 0.67962
 C1010 C 0.90917 0.71167 0.68092
 C1011 C 0.88264 0.71012 0.69695
 C1012 C 0.87183 0.74009 0.71017
 C1013 C 0.87160 0.76067 0.68022
 C1014 C 0.89803 0.76222 0.66426
 C1015 C 0.92390 0.75309 0.71557
 C1016 C 0.89735 0.75154 0.73160
 C1017 C 0.95073 0.74507 0.66162
 C1018 C 0.97330 0.74718 0.64568
 C1019 C 0.84261 0.73912 0.72643
 C1020 C 0.81755 0.74006 0.73697
 H1021 H 0.91977 0.69235 0.67028
 H1022 H 0.87060 0.68950 0.70003
 H1023 H 0.85227 0.77303 0.67222
 H1024 H 0.90126 0.77588 0.64266
 H1025 H 0.94406 0.76067 0.72739
 H1026 H 0.89483 0.75778 0.75712
 C1027 C 0.42238 0.24306 0.17960
 C1028 C 0.40917 0.21168 0.18092
 C1029 C 0.38265 0.21013 0.19694
 C1030 C 0.37182 0.24009 0.21014
 C1031 C 0.37159 0.26067 0.18018
 C1032 C 0.39801 0.26221 0.16422
 C1033 C 0.42388 0.25312 0.21554
 C1034 C 0.39733 0.25157 0.23157
 C1035 C 0.45072 0.24509 0.16159
 C1036 C 0.47329 0.24721 0.14566
 C1037 C 0.34259 0.23912 0.22640
 C1038 C 0.31753 0.24006 0.23694
 H1039 H 0.41979 0.19236 0.17028
 H1040 H 0.37061 0.18950 0.20002
 H1041 H 0.35225 0.27301 0.17217
 H1042 H 0.40124 0.27587 0.14261
 H1043 H 0.44404 0.26072 0.22736
 H1044 H 0.39480 0.25782 0.25709
 C1045 C 0.42239 0.75692 0.32039
 C1046 C 0.42390 0.74690 0.28444
 C1047 C 0.39736 0.74845 0.26841
 C1048 C 0.37183 0.75989 0.28985
 C1049 C 0.38265 0.78985 0.30309
 C1050 C 0.40918 0.78829 0.31911
 C1051 C 0.39803 0.73774 0.33575
 C1052 C 0.37161 0.73929 0.31979
 C1053 C 0.45073 0.75489 0.33839
 C1054 C 0.47330 0.75277 0.35433
 C1055 C 0.34261 0.76087 0.27360
 C1056 C 0.31755 0.75993 0.26306
 H1057 H 0.44406 0.73932 0.27261
 H1058 H 0.39483 0.74223 0.24289
 H1059 H 0.37061 0.81048 0.30003
 H1060 H 0.41978 0.80761 0.32977
 H1061 H 0.40126 0.72406 0.35734
 H1062 H 0.35227 0.72692 0.32779
 C1063 C 0.92242 0.25694 0.82039
 C1064 C 0.92394 0.24689 0.78445
 C1065 C 0.89739 0.24844 0.76841
 C1066 C 0.87187 0.25989 0.78984
 C1067 C 0.88268 0.28986 0.80306
 C1068 C 0.90921 0.28831 0.81908
 C1069 C 0.89806 0.23777 0.83576
 C1070 C 0.87163 0.23931 0.81980
 C1071 C 0.95076 0.25491 0.83840
 C1072 C 0.97333 0.25280 0.85434
 C1073 C 0.84265 0.26087 0.77358
 C1074 C 0.81759 0.25992 0.76303
 H1075 H 0.94410 0.23931 0.77262
 H1076 H 0.89487 0.24219 0.74289
 H1077 H 0.87064 0.31049 0.79998
 H1078 H 0.91981 0.30764 0.82972
 H1079 H 0.90128 0.22411 0.85736
 H1080 H 0.85230 0.22696 0.82780
 C1081 C 0.59191 0.98145 0.66722
 C1082 C 0.55964 0.97201 0.67282
 C1083 C 0.54448 0.96674 0.64454
 C1084 C 0.56316 0.97143 0.61355
 C1085 C 0.59033 0.95141 0.61777
 C1086 C 0.60551 0.95668 0.64612
 C1087 C 0.59020 1.00842 0.64461
 C1088 C 0.57514 1.00317 0.61646
 C1089 C 0.60828 0.98787 0.69728
 C1090 C 0.62242 0.99366 0.72142
 C1091 C 0.54667 0.96793 0.58303
 C1092 C 0.53286 0.97067 0.55807
 H1093 H 0.54963 0.96957 0.69685
 H1094 H 0.52147 0.95974 0.64429
 H1095 H 0.59697 0.93459 0.60025
 H1096 H 0.62523 0.94436 0.65289
 H1097 H 0.60003 1.02980 0.65017
 H1098 H 0.57208 1.02013 0.59788
 C1099 C 0.09192 0.48146 1.16722
 C1100 C 0.05964 0.47202 1.17281
 C1101 C 0.04449 0.46676 1.14452
 C1102 C 0.06317 0.47146 1.11354
 C1103 C 0.09035 0.45145 1.11775
 C1104 C 0.10552 0.45671 1.14610
 C1105 C 0.09021 0.50844 1.14462
 C1106 C 0.07514 0.50321 1.11647
 C1107 C 0.10828 0.48787 1.19728
 C1108 C 0.12242 0.49366 1.22142
 C1109 C 0.04668 0.46797 1.08301
 C1110 C 0.03288 0.47072 1.05805
 H1111 H 0.04963 0.46957 1.19683
 H1112 H 0.02148 0.45975 1.14427
 H1113 H 0.09699 0.43463 1.10022
 H1114 H 0.12525 0.44438 1.15287
 H1115 H 0.10002 0.52982 1.15019
 H1116 H 0.07208 0.52017 1.09789
 C1117 C -0.09191 0.01854 1.16724
 C1118 C -0.09018 -0.00846 1.14467
 C1119 C -0.07511 -0.00323 1.11651
 C1120 C -0.06316 0.02852 1.11355
 C1121 C -0.04449 0.03326 1.14453
 C1122 C -0.05965 0.02801 1.17283
 C1123 C -0.10553 0.04327 1.14610
 C1124 C -0.09035 0.04852 1.11775
 C1125 C -0.10827 0.01214 1.19730
 C1126 C -0.12242 0.00636 1.22145
 C1127 C -0.04668 0.03200 1.08302
 C1128 C -0.03287 0.02925 1.05806
 H1129 H -0.09998 -0.02984 1.15026
 H1130 H -0.07204 -0.02020 1.09795
 H1131 H -0.02149 0.04029 1.14427
 H1132 H -0.04964 0.03049 1.19685
 H1133 H -0.12526 0.05558 1.15286
 H1134 H -0.09701 0.06532 1.10020
 C1135 C 0.40804 0.51851 0.66725
 C1136 C 0.39445 0.54327 0.64612
 C1137 C 0.40963 0.54852 0.61777
 C1138 C 0.43680 0.52849 0.61356
 C1139 C 0.42481 0.49675 0.61650
 C1140 C 0.40974 0.49153 0.64466
 C1141 C 0.44032 0.52794 0.67283
 C1142 C 0.45548 0.53319 0.64454
 C1143 C 0.39168 0.51212 0.69731
 C1144 C 0.37754 0.50635 0.72147
 C1145 C 0.45329 0.53196 0.58304
 C1146 C 0.46710 0.52922 0.55807
 H1147 H 0.37473 0.55560 0.65289
 H1148 H 0.40300 0.56533 0.60024
 H1149 H 0.42786 0.47978 0.59793
 H1150 H 0.39991 0.47015 0.65024
 H1151 H 0.45034 0.53040 0.69685
 H1152 H 0.47849 0.54018 0.64429
 C1153 C 0.40806 0.48152 -0.16720
 C1154 C 0.44030 0.47198 -0.17280
 C1155 C 0.45546 0.46673 -0.14451
 C1156 C 0.43681 0.47153 -0.11352
 C1157 C 0.40957 0.45158 -0.11767
 C1158 C 0.39440 0.45684 -0.14602
 C1159 C 0.40986 0.50853 -0.14465
 C1160 C 0.42493 0.50330 -0.11650
 C1161 C 0.39169 0.48793 -0.19725
 C1162 C 0.37755 0.49371 -0.22140
 C1163 C 0.45329 0.46804 -0.08299
 C1164 C 0.46710 0.47079 -0.05803
 H1165 H 0.45030 0.46946 -0.19682
 H1166 H 0.47845 0.45966 -0.14425
 H1167 H 0.40289 0.43481 -0.10011
 H1168 H 0.37463 0.44456 -0.15276
 H1169 H 0.40010 0.52993 -0.15026
 H1170 H 0.42805 0.52028 -0.09796
 C1171 C -0.09193 0.98152 0.33280
 C1172 C -0.05965 0.97208 0.32720
 C1173 C -0.04450 0.96682 0.35549
 C1174 C -0.06318 0.97150 0.38647
 C1175 C -0.09035 0.95148 0.38225
 C1176 C -0.10553 0.95675 0.35390
 C1177 C -0.09023 1.00849 0.35541
 C1178 C -0.07516 1.00325 0.38356
 C1179 C -0.10829 0.98793 0.30274
 C1180 C -0.12243 0.99371 0.27859
 C1181 C -0.04670 0.96801 0.41699
 C1182 C -0.03289 0.97074 0.44196
 H1183 H -0.04964 0.96965 0.30318
 H1184 H -0.02149 0.95982 0.35574
 H1185 H -0.09699 0.93466 0.39977
 H1186 H -0.12525 0.94442 0.34712
 H1187 H -0.10005 1.02987 0.34984
 H1188 H -0.07211 1.02020 0.40214
 C1189 C 0.09192 0.51852 0.33276
 C1190 C 0.05965 0.52796 0.32718
 C1191 C 0.04450 0.53322 0.35547
 C1192 C 0.06318 0.52853 0.38645
 C1193 C 0.09035 0.54855 0.38222
 C1194 C 0.10553 0.54329 0.35387
 C1195 C 0.09022 0.49155 0.35537
 C1196 C 0.07515 0.49679 0.38352
 C1197 C 0.10828 0.51211 0.30270
 C1198 C 0.12242 0.50632 0.27855
 C1199 C 0.04670 0.53203 0.41697
 C1200 C 0.03289 0.52929 0.44194
 H1201 H 0.04963 0.53040 0.30316
 H1202 H 0.02149 0.54023 0.35572
 H1203 H 0.09700 0.56537 0.39974
 H1204 H 0.12525 0.55561 0.34709
 H1205 H 0.10003 0.47017 0.34980
 H1206 H 0.07210 0.47984 0.40211
 C1207 C 0.59193 0.01853 -0.16724
 C1208 C 0.55965 0.02798 -0.17283
 C1209 C 0.54450 0.03325 -0.14454
 C1210 C 0.56318 0.02855 -0.11356
 C1211 C 0.59036 0.04856 -0.11778
 C1212 C 0.60553 0.04329 -0.14613
 C1213 C 0.59021 -0.00844 -0.14464
 C1214 C 0.57515 -0.00320 -0.11648
 C1215 C 0.60828 0.01212 -0.19730
 C1216 C 0.62243 0.00633 -0.22145
 C1217 C 0.54670 0.03204 -0.08303
 C1218 C 0.53289 0.02930 -0.05807
 H1219 H 0.54964 0.03043 -0.19685
 H1220 H 0.52150 0.04026 -0.14428
 H1221 H 0.59701 0.06537 -0.10025
 H1222 H 0.62526 0.05562 -0.15291
 H1223 H 0.60002 -0.02982 -0.15021
 H1224 H 0.57209 -0.02016 -0.09791
 C1225 C 0.67196 0.56383 -0.01152
 C1226 C 0.67125 0.53302 -0.02742
 C1227 C 0.64358 0.52085 -0.02842
 C1228 C 0.61959 0.54079 -0.01340
 C1229 C 0.62194 0.57026 -0.03189
 C1230 C 0.64951 0.58240 -0.03091
 C1231 C 0.65794 0.55967 0.02239
 C1232 C 0.63041 0.54755 0.02140
 C1233 C 0.70111 0.57765 -0.00963
 C1234 C 0.72400 0.59090 -0.00623
 C1235 C 0.58978 0.52840 -0.01360
 C1236 C 0.56484 0.51936 -0.01183
 H1237 H 0.69067 0.52182 -0.03704
 H1238 H 0.63923 0.49918 -0.03889
 H1239 H 0.60360 0.58062 -0.04473
 H1240 H 0.65485 0.60319 -0.04292
 H1241 H 0.66874 0.56565 0.04522
 H1242 H 0.61759 0.54310 0.04337
 C1243 C 0.17197 1.06382 0.48846
 C1244 C 0.15794 1.05966 0.52237
 C1245 C 0.13042 1.04754 0.52137
 C1246 C 0.11961 1.04077 0.48656
 C1247 C 0.14361 1.02082 0.47156
 C1248 C 0.17128 1.03301 0.47256
 C1249 C 0.14953 1.08237 0.46905
 C1250 C 0.12195 1.07023 0.46806
 C1251 C 0.20112 1.07765 0.49035
 C1252 C 0.22400 1.09090 0.49376
 C1253 C 0.08981 1.02837 0.48636
 C1254 C 0.06487 1.01932 0.48813
 H1255 H 0.16873 1.06566 0.54520
 H1256 H 0.11759 1.04310 0.54333
 H1257 H 0.13927 0.99915 0.46109
 H1258 H 0.19071 1.02181 0.46296
 H1259 H 0.15486 1.10316 0.45703
 H1260 H 0.10362 1.08058 0.45521
 C1261 C 0.17197 -0.06383 1.01157
 C1262 C 0.17128 -0.03300 1.02743
 C1263 C 0.14361 -0.02082 1.02842
 C1264 C 0.11961 -0.04078 1.01345
 C1265 C 0.12195 -0.07023 1.03198
 C1266 C 0.14953 -0.08237 1.03100
 C1267 C 0.15794 -0.05970 0.97766
 C1268 C 0.13041 -0.04757 0.97865
 C1269 C 0.20112 -0.07766 1.00968
 C1270 C 0.22400 -0.09091 1.00627
 C1271 C 0.08981 -0.02838 1.01365
 C1272 C 0.06487 -0.01934 1.01188
 H1273 H 0.19071 -0.02180 1.03702
 H1274 H 0.13927 0.00086 1.03887
 H1275 H 0.10361 -0.08057 1.04485
 H1276 H 0.15485 -0.10315 1.04303
 H1277 H 0.16873 -0.06571 0.95483
 H1278 H 0.11759 -0.04315 0.95668
 C1279 C 0.67196 0.43615 0.51155
 C1280 C 0.67128 0.46701 0.52734
 C1281 C 0.64362 0.47919 0.52834
 C1282 C 0.61960 0.45920 0.51345
 C1283 C 0.62197 0.42979 0.53205
 C1284 C 0.64954 0.41765 0.53106
 C1285 C 0.65789 0.44021 0.47765
 C1286 C 0.63036 0.45234 0.47865
 C1287 C 0.70111 0.42233 0.50965
 C1288 C 0.72399 0.40908 0.50625
 C1289 C 0.58980 0.47160 0.51366
 C1290 C 0.56486 0.48064 0.51189
 H1291 H 0.69072 0.47824 0.53688
 H1292 H 0.63928 0.50090 0.53875
 H1293 H 0.60365 0.41947 0.54497
 H1294 H 0.65489 0.39690 0.54314
 H1295 H 0.66865 0.43416 0.45482
 H1296 H 0.61751 0.45671 0.45669
 C1297 C -0.17197 0.43618 0.48842
 C1298 C -0.15793 0.44031 0.52232
 C1299 C -0.13041 0.45245 0.52133
 C1300 C -0.11961 0.45925 0.48653
 C1301 C -0.14362 0.47920 0.47156
 C1302 C -0.17129 0.46701 0.47256
 C1303 C -0.14953 0.41765 0.46898
 C1304 C -0.12196 0.42980 0.46799
 C1305 C -0.20112 0.42235 0.49031
 C1306 C -0.22400 0.40909 0.49372
 C1307 C -0.08981 0.47165 0.48632
 C1308 C -0.06487 0.48070 0.48810
 H1309 H -0.16871 0.43430 0.54515
 H1310 H -0.11758 0.45687 0.54329
 H1311 H -0.13928 0.50089 0.46111
 H1312 H -0.19072 0.47822 0.46297
 H1313 H -0.15486 0.39688 0.45694
 H1314 H -0.10362 0.41947 0.45512
 C1315 C 0.32804 -0.06380 -0.01155
 C1316 C 0.35048 -0.08234 -0.03098
 C1317 C 0.37806 -0.07020 -0.03197
 C1318 C 0.38040 -0.04074 -0.01345
 C1319 C 0.36960 -0.04753 0.02136
 C1320 C 0.34207 -0.05966 0.02236
 C1321 C 0.32872 -0.03298 -0.02742
 C1322 C 0.35639 -0.02079 -0.02843
 C1323 C 0.29889 -0.07764 -0.00965
 C1324 C 0.27601 -0.09090 -0.00624
 C1325 C 0.41020 -0.02833 -0.01366
 C1326 C 0.43514 -0.01929 -0.01189
 H1327 H 0.34516 -0.10313 -0.04300
 H1328 H 0.39639 -0.08054 -0.04483
 H1329 H 0.38243 -0.04310 0.04332
 H1330 H 0.33129 -0.06567 0.04519
 H1331 H 0.30929 -0.02178 -0.03701
 H1332 H 0.36073 0.00089 -0.03888
 C1333 C 0.32803 1.06379 0.51157
 C1334 C 0.32868 1.03293 0.52735
 C1335 C 0.35634 1.02073 0.52835
 C1336 C 0.38038 1.04071 0.51346
 C1337 C 0.37802 1.07012 0.53207
 C1338 C 0.35046 1.08227 0.53108
 C1339 C 0.34210 1.05973 0.47767
 C1340 C 0.36962 1.04758 0.47866
 C1341 C 0.29889 1.07763 0.50967
 C1342 C 0.27601 1.09090 0.50627
 C1343 C 0.41017 1.02829 0.51367
 C1344 C 0.43511 1.01924 0.51189
 H1345 H 0.30924 1.02171 0.53688
 H1346 H 0.36066 0.99902 0.53875
 H1347 H 0.39635 1.08042 0.54499
 H1348 H 0.34512 1.10303 0.54317
 H1349 H 0.33135 1.06579 0.45484
 H1350 H 0.38247 1.04321 0.45670
 C1351 C -0.17196 0.56380 1.01157
 C1352 C -0.17128 0.53297 1.02743
 C1353 C -0.14361 0.52079 1.02843
 C1354 C -0.11960 0.54074 1.01345
 C1355 C -0.12195 0.57020 1.03198
 C1356 C -0.14952 0.58234 1.03099
 C1357 C -0.15793 0.55966 0.97765
 C1358 C -0.13041 0.54753 0.97865
 C1359 C -0.20111 0.57763 1.00968
 C1360 C -0.22399 0.59089 1.00627
 C1361 C -0.08980 0.52834 1.01365
 C1362 C -0.06487 0.51930 1.01188
 H1363 H -0.19071 0.52177 1.03702
 H1364 H -0.13927 0.49911 1.03888
 H1365 H -0.10361 0.58054 1.04484
 H1366 H -0.15485 0.60312 1.04302
 H1367 H -0.16871 0.56567 0.95482
 H1368 H -0.11758 0.54311 0.95668
 C1369 C 0.00697 0.67239 0.57041
 C1370 C -0.00309 0.67390 0.53447
 C1371 C -0.00155 0.64735 0.51844
 C1372 C 0.00992 0.62183 0.53987
 C1373 C -0.01065 0.62160 0.56984
 C1374 C -0.01219 0.64803 0.58579
 C1375 C 0.03834 0.65918 0.56909
 C1376 C 0.03989 0.63266 0.55307
 C1377 C 0.00494 0.70073 0.58841
 C1378 C 0.00283 0.72331 0.60434
 C1379 C 0.01089 0.59261 0.52361
 C1380 C 0.00995 0.56755 0.51307
 H1381 H -0.01069 0.69405 0.52265
 H1382 H -0.00780 0.64482 0.49292
 H1383 H -0.02300 0.60226 0.57785
 H1384 H -0.02585 0.65125 0.60740
 H1385 H 0.05767 0.66980 0.57972
 H1386 H 0.06052 0.62062 0.54999
 C1387 C 0.50696 0.17241 0.07039
 C1388 C 0.48780 0.14805 0.08577
 C1389 C 0.48934 0.12163 0.06982
 C1390 C 0.50992 0.12186 0.03985
 C1391 C 0.53989 0.13268 0.05306
 C1392 C 0.53834 0.15921 0.06908
 C1393 C 0.49691 0.17392 0.03445
 C1394 C 0.49845 0.14737 0.01842
 C1395 C 0.50493 0.20076 0.08839
 C1396 C 0.50282 0.22333 0.10432
 C1397 C 0.51089 0.09263 0.02360
 C1398 C 0.50995 0.06757 0.01306
 H1399 H 0.47414 0.15128 0.10737
 H1400 H 0.47699 0.10229 0.07783
 H1401 H 0.56052 0.12065 0.04998
 H1402 H 0.55766 0.16982 0.07971
 H1403 H 0.48931 0.19407 0.02262
 H1404 H 0.49221 0.14483 -0.00710
 C1405 C -0.00695 0.17237 0.92962
 C1406 C 0.01221 0.14801 0.91422
 C1407 C 0.01066 0.12158 0.93018
 C1408 C -0.00991 0.12181 0.96015
 C1409 C -0.03988 0.13263 0.94695
 C1410 C -0.03833 0.15916 0.93094
 C1411 C 0.00311 0.17387 0.96555
 C1412 C 0.00157 0.14732 0.98158
 C1413 C -0.00492 0.20071 0.91161
 C1414 C -0.00281 0.22328 0.89568
 C1415 C -0.01088 0.09258 0.97640
 C1416 C -0.00994 0.06752 0.98694
 H1417 H 0.02586 0.15124 0.89262
 H1418 H 0.02301 0.10225 0.92216
 H1419 H -0.06051 0.12060 0.95004
 H1420 H -0.05765 0.16977 0.92031
 H1421 H 0.01071 0.19403 0.97738
 H1422 H 0.00782 0.14479 1.00709
 C1423 C 0.49304 0.67233 0.42960
 C1424 C 0.51219 0.64796 0.41421
 C1425 C 0.51064 0.62154 0.43018
 C1426 C 0.49008 0.62178 0.46015
 C1427 C 0.46011 0.63261 0.44696
 C1428 C 0.46166 0.65913 0.43094
 C1429 C 0.50311 0.67384 0.46554
 C1430 C 0.50157 0.64729 0.48157
 C1431 C 0.49507 0.70067 0.41159
 C1432 C 0.49718 0.72324 0.39566
 C1433 C 0.48911 0.59255 0.47641
 C1434 C 0.49005 0.56750 0.48696
 H1435 H 0.52584 0.65119 0.39260
 H1436 H 0.52299 0.60220 0.42216
 H1437 H 0.43948 0.62057 0.45006
 H1438 H 0.44234 0.66974 0.42031
 H1439 H 0.51072 0.69400 0.47735
 H1440 H 0.50783 0.64476 0.50708
 C1441 C 0.50697 0.82756 0.42960
 C1442 C 0.48779 0.85191 0.41422
 C1443 C 0.48933 0.87834 0.43018
 C1444 C 0.50991 0.87812 0.46014
 C1445 C 0.53988 0.86731 0.44692
 C1446 C 0.53834 0.84078 0.43090
 C1447 C 0.49692 0.82605 0.46554
 C1448 C 0.49846 0.85259 0.48157
 C1449 C 0.50494 0.79922 0.41159
 C1450 C 0.50283 0.77664 0.39566
 C1451 C 0.51088 0.90734 0.47640
 C1452 C 0.50993 0.93240 0.48694
 H1453 H 0.47413 0.84868 0.39263
 H1454 H 0.47697 0.89767 0.42218
 H1455 H 0.56051 0.87935 0.45000
 H1456 H 0.55766 0.83018 0.42026
 H1457 H 0.48934 0.80589 0.47737
 H1458 H 0.49221 0.85512 0.50709
 C1459 C 0.00698 0.32761 0.92960
 C1460 C -0.01216 0.35197 0.91419
 C1461 C -0.01062 0.37840 0.93015
 C1462 C 0.00993 0.37817 0.96013
 C1463 C 0.03990 0.36734 0.94695
 C1464 C 0.03836 0.34081 0.93093
 C1465 C -0.00311 0.32611 0.96553
 C1466 C -0.00156 0.35266 0.98156
 C1467 C 0.00495 0.29926 0.91160
 C1468 C 0.00285 0.27669 0.89567
 C1469 C 0.01090 0.40740 0.97638
 C1470 C 0.00995 0.43246 0.98692
 H1471 H -0.02581 0.34874 0.89258
 H1472 H -0.02296 0.39774 0.92212
 H1473 H 0.06053 0.37937 0.95005
 H1474 H 0.05769 0.33019 0.92032
 H1475 H -0.01071 0.30596 0.97735
 H1476 H -0.00783 0.35520 1.00707
 C1477 C 0.49301 0.32766 0.07039
 C1478 C 0.51208 0.35205 0.08585
 C1479 C 0.51054 0.37848 0.06990
 C1480 C 0.49005 0.37822 0.03987
 C1481 C 0.46006 0.36733 0.05296
 C1482 C 0.46162 0.34080 0.06897
 C1483 C 0.50318 0.32618 0.03449
 C1484 C 0.50163 0.35273 0.01846
 C1485 C 0.49504 0.29931 0.08839
 C1486 C 0.49716 0.27674 0.10432
 C1487 C 0.48907 0.40745 0.02362
 C1488 C 0.49002 0.43251 0.01309
 H1489 H 0.52568 0.34884 0.10750
 H1490 H 0.52283 0.39783 0.07797
 H1491 H 0.43942 0.37933 0.04981
 H1492 H 0.44228 0.33015 0.07953
 H1493 H 0.51084 0.30605 0.02268
 H1494 H 0.50795 0.35529 -0.00703
 C1495 C -0.00697 0.82763 0.57041
 C1496 C 0.00308 0.82612 0.53446
 C1497 C 0.00153 0.85267 0.51843
 C1498 C -0.00992 0.87818 0.53987
 C1499 C 0.01066 0.87841 0.56982
 C1500 C 0.01221 0.85198 0.58578
 C1501 C -0.03834 0.84084 0.56911
 C1502 C -0.03989 0.86737 0.55309
 C1503 C -0.00494 0.79928 0.58841
 C1504 C -0.00283 0.77671 0.60434
 C1505 C -0.01090 0.90741 0.52362
 C1506 C -0.00995 0.93247 0.51308
 H1507 H 0.01066 0.80596 0.52263
 H1508 H 0.00777 0.85520 0.49291
 H1509 H 0.02302 0.89774 0.57783
 H1510 H 0.02587 0.84875 0.60737
 H1511 H -0.05766 0.83023 0.57975
 H1512 H -0.06052 0.87941 0.55002
 C1513 C 0.23147 0.34191 0.08278
 C1514 C 0.25845 0.34019 0.10537
 C1515 C 0.25322 0.32513 0.13352
 C1516 C 0.22147 0.31316 0.13646
 C1517 C 0.21676 0.29449 0.10548
 C1518 C 0.22201 0.30964 0.07719
 C1519 C 0.20672 0.35552 0.10390
 C1520 C 0.20146 0.34035 0.13225
 C1521 C 0.23788 0.35827 0.05271
 C1522 C 0.24366 0.37242 0.02856
 C1523 C 0.21798 0.29668 0.16699
 C1524 C 0.22073 0.28287 0.19195
 H1525 H 0.27984 0.35001 0.09979
 H1526 H 0.27018 0.32206 0.15209
 H1527 H 0.20975 0.27148 0.10573
 H1528 H 0.21956 0.29963 0.05317
 H1529 H 0.19440 0.37525 0.09714
 H1530 H 0.18466 0.34699 0.14979
 C1531 C 0.73147 0.84191 0.58281
 C1532 C 0.75844 0.84023 0.60542
 C1533 C 0.75321 0.82516 0.63357
 C1534 C 0.72147 0.81316 0.63649
 C1535 C 0.71681 0.79447 0.60550
 C1536 C 0.72206 0.80963 0.57722
 C1537 C 0.70669 0.85549 0.60391
 C1538 C 0.70143 0.84031 0.63226
 C1539 C 0.73788 0.85828 0.55275
 C1540 C 0.74367 0.87242 0.52860
 C1541 C 0.71799 0.79667 0.66701
 C1542 C 0.72073 0.78287 0.69198
 H1543 H 0.77982 0.85007 0.59986
 H1544 H 0.77016 0.82212 0.65216
 H1545 H 0.70982 0.77146 0.60576
 H1546 H 0.71963 0.79961 0.55320
 H1547 H 0.69435 0.87520 0.59713
 H1548 H 0.68460 0.84694 0.64978
 C1549 C 0.26852 0.65810 0.58276
 C1550 C 0.27795 0.69038 0.57716
 C1551 C 0.28321 0.70554 0.60545
 C1552 C 0.27852 0.68686 0.63643
 C1553 C 0.29855 0.65970 0.63222
 C1554 C 0.29329 0.64451 0.60387
 C1555 C 0.24155 0.65980 0.60536
 C1556 C 0.24678 0.67487 0.63351
 C1557 C 0.26212 0.64173 0.55270
 C1558 C 0.25634 0.62758 0.52856
 C1559 C 0.28201 0.70335 0.66696
 C1560 C 0.27926 0.71716 0.69192
 H1561 H 0.28040 0.70039 0.55314
 H1562 H 0.29020 0.72855 0.60570
 H1563 H 0.31537 0.65307 0.64975
 H1564 H 0.30563 0.62480 0.59710
 H1565 H 0.22017 0.64997 0.59980
 H1566 H 0.22982 0.67792 0.65209
 C1567 C 0.76855 0.15810 0.08274
 C1568 C 0.74165 0.15957 0.10548
 C1569 C 0.74688 0.17464 0.13363
 C1570 C 0.77854 0.18687 0.13641
 C1571 C 0.78297 0.20562 0.10544
 C1572 C 0.77771 0.19046 0.07715
 C1573 C 0.79350 0.14467 0.10371
 C1574 C 0.79876 0.15985 0.13206
 C1575 C 0.76214 0.14174 0.05268
 C1576 C 0.75635 0.12759 0.02854
 C1577 C 0.78203 0.20335 0.16694
 C1578 C 0.77928 0.21716 0.19190
 H1579 H 0.72033 0.14959 0.10000
 H1580 H 0.72998 0.17754 0.15230
 H1581 H 0.78979 0.22868 0.10569
 H1582 H 0.77999 0.20052 0.05314
 H1583 H 0.80595 0.12505 0.09684
 H1584 H 0.81569 0.15332 0.14949
 C1585 C 0.73151 0.15807 0.91720
 C1586 C 0.72211 0.19035 0.92278
 C1587 C 0.71685 0.20550 0.89449
 C1588 C 0.72151 0.18681 0.86351
 C1589 C 0.70146 0.15966 0.86775
 C1590 C 0.70672 0.14449 0.89611
 C1591 C 0.75848 0.15974 0.89458
 C1592 C 0.75324 0.17480 0.86642
 C1593 C 0.73791 0.14171 0.94726
 C1594 C 0.74370 0.12757 0.97141
 C1595 C 0.71803 0.20329 0.83298
 C1596 C 0.72077 0.21709 0.80802
 H1597 H 0.71968 0.20038 0.94680
 H1598 H 0.70988 0.22852 0.89423
 H1599 H 0.68463 0.15303 0.85024
 H1600 H 0.69437 0.12478 0.90290
 H1601 H 0.77985 0.14989 0.90014
 H1602 H 0.77020 0.17783 0.84783
 C1603 C 0.23149 0.65808 0.41722
 C1604 C 0.22205 0.69036 0.42282
 C1605 C 0.21679 0.70551 0.39453
 C1606 C 0.22148 0.68683 0.36355
 C1607 C 0.20146 0.65966 0.36777
 C1608 C 0.20672 0.64448 0.39612
 C1609 C 0.25846 0.65978 0.39462
 C1610 C 0.25322 0.67485 0.36647
 C1611 C 0.23790 0.64172 0.44728
 C1612 C 0.24368 0.62757 0.47143
 C1613 C 0.21799 0.70332 0.33302
 C1614 C 0.22073 0.71712 0.30806
 H1615 H 0.21961 0.70037 0.44684
 H1616 H 0.20979 0.72852 0.39428
 H1617 H 0.18464 0.65302 0.35025
 H1618 H 0.19439 0.62476 0.40289
 H1619 H 0.27984 0.64996 0.40018
 H1620 H 0.27018 0.67791 0.34788
 C1621 C 0.76852 0.84193 0.41726
 C1622 C 0.77794 0.80965 0.42285
 C1623 C 0.78319 0.79449 0.39456
 C1624 C 0.77852 0.81318 0.36358
 C1625 C 0.79855 0.84035 0.36781
 C1626 C 0.79329 0.85552 0.39616
 C1627 C 0.74155 0.84024 0.39465
 C1628 C 0.74678 0.82517 0.36650
 C1629 C 0.76211 0.85829 0.44733
 C1630 C 0.75632 0.87243 0.47147
 C1631 C 0.78201 0.79670 0.33305
 C1632 C 0.77927 0.78290 0.30809
 H1633 H 0.78037 0.79963 0.44687
 H1634 H 0.79018 0.77148 0.39430
 H1635 H 0.81538 0.84698 0.35028
 H1636 H 0.80563 0.87523 0.40294
 H1637 H 0.72017 0.85007 0.40022
 H1638 H 0.72983 0.82213 0.34792
 C1639 C 0.26854 0.34190 0.91723
 C1640 C 0.27924 0.31003 0.92285
 C1641 C 0.28451 0.29487 0.89456
 C1642 C 0.27855 0.31315 0.86356
 C1643 C 0.29765 0.34106 0.86709
 C1644 C 0.29238 0.35624 0.89544
 C1645 C 0.24122 0.33906 0.89529
 C1646 C 0.24646 0.32400 0.86714
 C1647 C 0.26212 0.35827 0.94729
 C1648 C 0.25633 0.37241 0.97144
 C1649 C 0.28205 0.29668 0.83303
 C1650 C 0.27931 0.28287 0.80806
 H1651 H 0.28251 0.30028 0.94688
 H1652 H 0.29233 0.27213 0.89431
 H1653 H 0.31389 0.34818 0.84914
 H1654 H 0.30413 0.37643 0.90177
 H1655 H 0.21960 0.34814 0.90129
 H1656 H 0.22927 0.32019 0.84900
 C1657 C 0.81385 0.42195 0.76155
 C1658 C 0.78303 0.42125 0.77744
 C1659 C 0.77085 0.39358 0.77843
 C1660 C 0.79081 0.36959 0.76342
 C1661 C 0.82027 0.37193 0.78193
 C1662 C 0.83240 0.39951 0.78096
 C1663 C 0.80970 0.40794 0.72764
 C1664 C 0.79758 0.38041 0.72862
 C1665 C 0.82767 0.45111 0.75966
 C1666 C 0.84092 0.47399 0.75626
 C1667 C 0.77841 0.33978 0.76362
 C1668 C 0.76937 0.31484 0.76184
 H1669 H 0.77183 0.44067 0.78705
 H1670 H 0.74918 0.38923 0.78889
 H1671 H 0.83062 0.35359 0.79478
 H1672 H 0.85319 0.40484 0.79298
 H1673 H 0.81569 0.41873 0.70481
 H1674 H 0.79314 0.36758 0.70665
 C1675 C 0.31382 0.92196 0.26153
 C1676 C 0.28300 0.92127 0.27742
 C1677 C 0.27082 0.89360 0.27842
 C1678 C 0.29077 0.86960 0.26342
 C1679 C 0.32024 0.87195 0.28192
 C1680 C 0.33237 0.89952 0.28094
 C1681 C 0.30967 0.90794 0.22762
 C1682 C 0.29754 0.88041 0.22861
 C1683 C 0.32764 0.95112 0.25964
 C1684 C 0.34090 0.97400 0.25624
 C1685 C 0.27838 0.83980 0.26362
 C1686 C 0.26933 0.81486 0.26185
 H1687 H 0.27180 0.94069 0.28702
 H1688 H 0.24915 0.88925 0.28888
 H1689 H 0.33059 0.85361 0.29477
 H1690 H 0.35316 0.90485 0.29296
 H1691 H 0.31566 0.91873 0.20479
 H1692 H 0.29311 0.86759 0.20665
 C1693 C 0.18618 0.92199 0.73843
 C1694 C 0.21700 0.92131 0.72255
 C1695 C 0.22919 0.89365 0.72155
 C1696 C 0.20924 0.86964 0.73654
 C1697 C 0.17978 0.87198 0.71802
 C1698 C 0.16763 0.89955 0.71901
 C1699 C 0.19033 0.90797 0.77234
 C1700 C 0.20245 0.88044 0.77134
 C1701 C 0.17235 0.95114 0.74033
 C1702 C 0.15910 0.97402 0.74373
 C1703 C 0.22164 0.83984 0.73633
 C1704 C 0.23068 0.81491 0.73810
 H1705 H 0.22820 0.94074 0.71295
 H1706 H 0.25086 0.88931 0.71109
 H1707 H 0.16943 0.85364 0.70516
 H1708 H 0.14685 0.90488 0.70699
 H1709 H 0.18432 0.91875 0.79517
 H1710 H 0.20689 0.86762 0.79331
 C1711 C 0.68619 0.42199 0.23844
 C1712 C 0.71702 0.42132 0.22258
 C1713 C 0.72920 0.39365 0.22158
 C1714 C 0.70925 0.36964 0.23655
 C1715 C 0.67980 0.37198 0.21802
 C1716 C 0.66765 0.39955 0.21901
 C1717 C 0.69032 0.40796 0.27235
 C1718 C 0.70245 0.38043 0.27135
 C1719 C 0.67235 0.45114 0.24034
 C1720 C 0.65910 0.47401 0.24375
 C1721 C 0.72166 0.33984 0.23634
 C1722 C 0.73070 0.31490 0.23810
 H1723 H 0.72822 0.44075 0.21299
 H1724 H 0.75089 0.38932 0.21112
 H1725 H 0.66946 0.35364 0.20515
 H1726 H 0.64687 0.40488 0.20698
 H1727 H 0.68431 0.41874 0.29518
 H1728 H 0.70688 0.36760 0.29332
 C1729 C 0.68618 0.57806 0.26156
 C1730 C 0.69030 0.59209 0.22765
 C1731 C 0.70244 0.61962 0.22865
 C1732 C 0.70924 0.63041 0.26345
 C1733 C 0.72920 0.60640 0.27841
 C1734 C 0.71701 0.57874 0.27741
 C1735 C 0.66765 0.60049 0.28100
 C1736 C 0.67979 0.62806 0.28199
 C1737 C 0.67235 0.54891 0.25966
 C1738 C 0.65909 0.52602 0.25626
 C1739 C 0.72165 0.66021 0.26365
 C1740 C 0.73069 0.68515 0.26188
 H1741 H 0.68429 0.58132 0.20482
 H1742 H 0.70685 0.63245 0.20668
 H1743 H 0.75088 0.61074 0.28885
 H1744 H 0.72822 0.55930 0.28699
 H1745 H 0.64687 0.59516 0.29304
 H1746 H 0.66946 0.64640 0.29486
 C1747 C 0.18621 0.07805 0.76153
 C1748 C 0.19027 0.09211 0.72763
 C1749 C 0.20241 0.11963 0.72862
 C1750 C 0.20929 0.13040 0.76341
 C1751 C 0.22927 0.10637 0.77830
 C1752 C 0.21707 0.07871 0.77731
 C1753 C 0.16773 0.10048 0.78105
 C1754 C 0.17988 0.12804 0.78203
 C1755 C 0.17237 0.04890 0.75965
 C1756 C 0.15911 0.02603 0.75625
 C1757 C 0.22170 0.16019 0.76362
 C1758 C 0.23074 0.18513 0.76185
 H1759 H 0.18420 0.08135 0.70480
 H1760 H 0.20679 0.13248 0.70665
 H1761 H 0.25098 0.11070 0.78869
 H1762 H 0.22830 0.05927 0.78684
 H1763 H 0.14697 0.09514 0.79313
 H1764 H 0.16957 0.14637 0.79494
 C1765 C 0.31382 0.07804 0.23845
 C1766 C 0.28300 0.07873 0.22258
 C1767 C 0.27081 0.10639 0.22158
 C1768 C 0.29076 0.13040 0.23657
 C1769 C 0.32022 0.12806 0.21805
 C1770 C 0.33236 0.10049 0.21903
 C1771 C 0.30967 0.09207 0.27237
 C1772 C 0.29754 0.11959 0.27137
 C1773 C 0.32765 0.04889 0.24035
 C1774 C 0.34090 0.02601 0.24375
 C1775 C 0.27836 0.16020 0.23636
 C1776 C 0.26931 0.18513 0.23814
 H1777 H 0.27180 0.05930 0.21298
 H1778 H 0.24914 0.11073 0.21112
 H1779 H 0.33057 0.14640 0.20519
 H1780 H 0.35315 0.09516 0.20701
 H1781 H 0.31568 0.08128 0.29520
 H1782 H 0.29311 0.13242 0.29334
 C1783 C 0.81383 0.57804 0.73848
 C1784 C 0.80970 0.59207 0.77239
 C1785 C 0.79758 0.61960 0.77140
 C1786 C 0.79078 0.63040 0.73660
 C1787 C 0.77081 0.60639 0.72164
 C1788 C 0.78300 0.57872 0.72263
 C1789 C 0.83236 0.60048 0.71904
 C1790 C 0.82022 0.62805 0.71806
 C1791 C 0.82765 0.54889 0.74037
 C1792 C 0.84091 0.52601 0.74376
 C1793 C 0.77837 0.66020 0.73640
 C1794 C 0.76933 0.68513 0.73817
 H1795 H 0.81572 0.58129 0.79522
 H1796 H 0.79316 0.63243 0.79337
 H1797 H 0.74913 0.61073 0.71119
 H1798 H 0.77179 0.55929 0.71304
 H1799 H 0.85314 0.59515 0.70700
 H1800 H 0.83056 0.64639 0.70519
 C1801 C 0.92240 0.75697 0.17963
 C1802 C 0.89805 0.73778 0.16428
 C1803 C 0.87162 0.73932 0.18024
 C1804 C 0.87185 0.75993 0.21018
 C1805 C 0.88265 0.78989 0.19693
 C1806 C 0.90918 0.78834 0.18090
 C1807 C 0.92392 0.74695 0.21558
 C1808 C 0.89737 0.74850 0.23162
 C1809 C 0.95074 0.75493 0.16162
 C1810 C 0.97331 0.75282 0.14568
 C1811 C 0.84262 0.76091 0.22643
 C1812 C 0.81756 0.75997 0.23697
 H1813 H 0.90128 0.72410 0.14270
 H1814 H 0.85229 0.72695 0.17225
 H1815 H 0.87061 0.81052 0.19999
 H1816 H 0.91978 0.80765 0.17024
 H1817 H 0.94408 0.73938 0.22741
 H1818 H 0.89485 0.74228 0.25714
 C1819 C 0.42242 0.25694 0.67958
 C1820 C 0.40000 0.23339 0.66866
 C1821 C 0.37357 0.23495 0.68462
 C1822 C 0.37186 0.25993 0.71010
 C1823 C 0.37974 0.28819 0.69105
 C1824 C 0.40626 0.28662 0.67505
 C1825 C 0.42494 0.25298 0.71689
 C1826 C 0.39838 0.25454 0.73292
 C1827 C 0.45077 0.25490 0.66158
 C1828 C 0.47334 0.25278 0.64565
 C1829 C 0.34263 0.26092 0.72635
 C1830 C 0.31757 0.25998 0.73690
 H1831 H 0.40451 0.21686 0.65000
 H1832 H 0.35551 0.21973 0.67955
 H1833 H 0.36576 0.30775 0.69028
 H1834 H 0.41493 0.30486 0.66060
 H1835 H 0.44575 0.24934 0.72958
 H1836 H 0.39648 0.25225 0.75929
 C1837 C 0.42237 0.74307 0.82038
 C1838 C 0.42389 0.75313 0.78444
 C1839 C 0.39734 0.75159 0.76841
 C1840 C 0.37182 0.74012 0.78983
 C1841 C 0.37159 0.76069 0.81980
 C1842 C 0.39801 0.76223 0.83576
 C1843 C 0.40916 0.71169 0.81906
 C1844 C 0.38264 0.71015 0.80304
 C1845 C 0.45071 0.74509 0.83839
 C1846 C 0.47328 0.74720 0.85433
 C1847 C 0.34260 0.73915 0.77357
 C1848 C 0.31754 0.74010 0.76304
 H1849 H 0.44405 0.76072 0.77262
 H1850 H 0.39482 0.75784 0.74289
 H1851 H 0.35225 0.77305 0.82780
 H1852 H 0.40124 0.77589 0.85736
 H1853 H 0.41977 0.69237 0.82970
 H1854 H 0.37060 0.68952 0.79995
 C1855 C 0.92236 0.24302 0.32040
 C1856 C 0.92386 0.25319 0.28450
 C1857 C 0.89731 0.25165 0.26846
 C1858 C 0.87181 0.24007 0.28985
 C1859 C 0.87155 0.26056 0.31989
 C1860 C 0.89797 0.26210 0.33585
 C1861 C 0.90920 0.21163 0.31898
 C1862 C 0.88268 0.21008 0.30295
 C1863 C 0.95070 0.24505 0.33841
 C1864 C 0.97328 0.24716 0.35434
 C1865 C 0.84259 0.23911 0.27359
 C1866 C 0.81753 0.24006 0.26304
 H1867 H 0.94400 0.26085 0.27270
 H1868 H 0.89477 0.25797 0.24297
 H1869 H 0.85219 0.27285 0.32795
 H1870 H 0.90118 0.27569 0.35751
 H1871 H 0.91984 0.19229 0.32954
 H1872 H 0.87067 0.18944 0.29979
 C1873 C 0.07760 0.25696 0.32040
 C1874 C 0.10196 0.23779 0.33578
 C1875 C 0.12839 0.23934 0.31983
 C1876 C 0.12816 0.25991 0.28986
 C1877 C 0.11734 0.28988 0.30307
 C1878 C 0.09081 0.28833 0.31909
 C1879 C 0.07610 0.24690 0.28446
 C1880 C 0.10265 0.24845 0.26843
 C1881 C 0.04926 0.25493 0.33840
 C1882 C 0.02668 0.25282 0.35433
 C1883 C 0.15739 0.26088 0.27361
 C1884 C 0.18245 0.25994 0.26307
 H1885 H 0.09872 0.22413 0.35738
 H1886 H 0.14772 0.22698 0.32784
 H1887 H 0.12938 0.31051 0.29999
 H1888 H 0.08020 0.30765 0.32972
 H1889 H 0.05594 0.23931 0.27263
 H1890 H 0.10518 0.24220 0.24291
 C1891 C 0.57761 0.75697 0.82041
 C1892 C 0.59083 0.78834 0.81911
 C1893 C 0.61736 0.78989 0.80310
 C1894 C 0.62818 0.75992 0.78988
 C1895 C 0.60266 0.74847 0.76844
 C1896 C 0.57610 0.74693 0.78447
 C1897 C 0.60196 0.73780 0.83579
 C1898 C 0.62839 0.73934 0.81984
 C1899 C 0.54926 0.75495 0.83841
 C1900 C 0.52669 0.75285 0.85434
 C1901 C 0.65740 0.76089 0.77364
 C1902 C 0.68246 0.75994 0.76310
 H1903 H 0.58023 0.80767 0.82975
 H1904 H 0.62941 0.81051 0.80003
 H1905 H 0.60519 0.74222 0.74293
 H1906 H 0.55595 0.73935 0.77264
 H1907 H 0.59872 0.72414 0.85739
 H1908 H 0.64772 0.72697 0.82785
 C1909 C 0.57766 0.24300 0.67957
 C1910 C 0.57614 0.25299 0.71554
 C1911 C 0.60269 0.25144 0.73156
 C1912 C 0.62822 0.24005 0.71011
 C1913 C 0.62843 0.26068 0.68019
 C1914 C 0.60200 0.26222 0.66424
 C1915 C 0.59091 0.21164 0.68081
 C1916 C 0.61744 0.21009 0.69683
 C1917 C 0.54932 0.24502 0.66157
 C1918 C 0.52674 0.24713 0.64564
 C1919 C 0.65745 0.23908 0.72636
 C1920 C 0.68251 0.24003 0.73690
 H1921 H 0.55598 0.26053 0.72738
 H1922 H 0.60521 0.25765 0.75709
 H1923 H 0.64775 0.27307 0.67221
 H1924 H 0.59876 0.27591 0.64267
 H1925 H 0.58032 0.19232 0.67014
 H1926 H 0.62950 0.18947 0.69987
 C1927 C 0.07763 0.74303 0.17960
 C1928 C 0.09084 0.71166 0.18090
 C1929 C 0.11737 0.71011 0.19692
 C1930 C 0.12819 0.74008 0.21014
 C1931 C 0.10267 0.75153 0.23157
 C1932 C 0.07612 0.75308 0.21554
 C1933 C 0.10199 0.76220 0.16422
 C1934 C 0.12842 0.76066 0.18018
 C1935 C 0.04929 0.74506 0.16160
 C1936 C 0.02671 0.74717 0.14567
 C1937 C 0.15741 0.73910 0.22639
 C1938 C 0.18247 0.74005 0.23693
 H1939 H 0.08023 0.69234 0.17026
 H1940 H 0.12941 0.68948 0.20000
 H1941 H 0.10520 0.75777 0.25709
 H1942 H 0.05596 0.76066 0.22737
 H1943 H 0.09876 0.77586 0.14263
 H1944 H 0.14775 0.77302 0.17218
   
