data_POSCAR
  _audit_creation_date              2014-09-24
  _audit_creation_method            'ToBaCCo'
  _symmetry_space_group_name_H-M    'P1'
  _symmetry_Int_Tables_number       1
  _symmetry_cell_setting            triclinic
  loop_
  _symmetry_equiv_pos_as_xyz
 x,y,z
_cell_length_a 101.5691
_cell_length_b 101.3649
_cell_length_c 100.7950
_cell_angle_alpha 89.972700
_cell_angle_beta 89.996900
_cell_angle_gamma 90.139400
loop_
  _atom_site_label
  _atom_site_type_symbol
  _atom_site_fract_x
  _atom_site_fract_y
  _atom_site_fract_z
C1 C 0.31120 0.43902 0.92314
 C2 C 0.32265 0.44472 0.92838
 C3 C 0.32867 0.43916 0.93958
 C4 C 0.32318 0.42792 0.94554
 C5 C 0.31173 0.42222 0.94030
 C6 C 0.30574 0.42779 0.92911
 H7 H 0.32696 0.45332 0.92364
 H8 H 0.32790 0.42348 0.95411
 H9 H 0.29697 0.42329 0.92494
 C10 C 0.44195 0.82688 0.44201
 C11 C 0.44751 0.82108 0.43070
 C12 C 0.44185 0.80970 0.42522
 C13 C 0.43064 0.80410 0.43106
 C14 C 0.42507 0.80987 0.44236
 C15 C 0.43073 0.82124 0.44784
 H16 H 0.45610 0.82550 0.42606
 H17 H 0.42617 0.79538 0.42672
 H18 H 0.42630 0.82578 0.45650
 C19 C 0.93935 0.92286 0.80968
 C20 C 0.94505 0.92838 0.82106
 C21 C 0.93936 0.93950 0.82701
 C22 C 0.92799 0.94511 0.82152
 C23 C 0.92230 0.93958 0.81014
 C24 C 0.92799 0.92848 0.80422
 H25 H 0.95374 0.92389 0.82538
 H26 H 0.92345 0.95360 0.82619
 H27 H 0.92347 0.92409 0.79552
 C28 C 0.44138 -0.07508 0.30757
 C29 C 0.44719 -0.06959 0.31891
 C30 C 0.44167 -0.05839 0.32483
 C31 C 0.43036 -0.05265 0.31938
 C32 C 0.42455 -0.05812 0.30804
 C33 C 0.43007 -0.06932 0.30213
 H34 H 0.45582 -0.07416 0.32325
 H35 H 0.42597 -0.04411 0.32408
 H36 H 0.42545 -0.07369 0.29348
 C37 C 0.80978 0.30999 0.32640
 C38 C 0.82105 0.30439 0.32072
 C39 C 0.82683 0.31019 0.30952
 C40 C 0.82132 0.32159 0.30399
 C41 C 0.81006 0.32721 0.30966
 C42 C 0.80428 0.32140 0.32086
 H43 H 0.82540 0.29565 0.32511
 H44 H 0.82589 0.32618 0.29542
 H45 H 0.79565 0.32583 0.32535
 C46 C -0.18981 0.82735 0.80910
 C47 C -0.17856 0.82163 0.80348
 C48 C -0.17312 0.81024 0.80911
 C49 C -0.17893 0.80455 0.82035
 C50 C -0.19018 0.81025 0.82600
 C51 C -0.19562 0.82165 0.82036
 H52 H -0.17396 0.82609 0.79486
 H53 H -0.17461 0.79581 0.82477
 H54 H -0.20424 0.82616 0.82480
 C55 C 0.94153 0.32559 0.44156
 C56 C 0.93056 0.31978 0.44766
 C57 C 0.92495 0.30833 0.44229
 C58 C 0.93032 0.30268 0.43083
 C59 C 0.94129 0.30849 0.42472
 C60 C 0.94690 0.31993 0.43009
 H61 H 0.92629 0.32426 0.45643
 H62 H 0.92586 0.29392 0.42656
 H63 H 0.95528 0.32453 0.42526
 C64 C 0.43911 0.43882 0.82710
 C65 C 0.42780 0.44451 0.82156
 C66 C 0.42204 0.43895 0.81023
 C67 C 0.42759 0.42772 0.80442
 C68 C 0.43889 0.42201 0.80994
 C69 C 0.44465 0.42757 0.82127
 H70 H 0.42336 0.45310 0.82615
 H71 H 0.42302 0.42330 0.79577
 H72 H 0.45329 0.42302 0.82563
 C73 C 0.80856 0.92592 0.94228
 C74 C 0.82003 0.93144 0.94767
 C75 C 0.82590 0.94243 0.94163
 C76 C 0.82026 0.94793 0.93022
 C77 C 0.80879 0.94242 0.92482
 C78 C 0.80293 0.93142 0.93087
 H79 H 0.82450 0.92706 0.95639
 H80 H 0.82491 0.95632 0.92543
 H81 H 0.79416 0.92703 0.92659
 C82 C 0.30752 0.82417 0.30620
 C83 C 0.31850 0.81836 0.30014
 C84 C 0.32393 0.80680 0.30543
 C85 C 0.31837 0.80103 0.31675
 C86 C 0.30740 0.80681 0.32282
 C87 C 0.30196 0.81836 0.31754
 H88 H 0.32296 0.82293 0.29150
 H89 H 0.32271 0.79221 0.32097
 H90 H 0.29360 0.82294 0.32239
 C91 C 0.80993 0.42463 0.44206
 C92 C 0.82139 0.43027 0.44737
 C93 C 0.82714 0.44130 0.44125
 C94 C 0.82139 0.44669 0.42983
 C95 C 0.80993 0.44105 0.42452
 C96 C 0.80421 0.43004 0.43065
 H97 H 0.82589 0.42597 0.45612
 H98 H 0.82589 0.45512 0.42497
 H99 H 0.79543 0.42557 0.42645
 C100 C 0.94132 0.82738 -0.05911
 C101 C 0.94675 0.82177 -0.07059
 C102 C 0.94123 0.81030 -0.07600
 C103 C 0.93030 0.80439 -0.06993
 C104 C 0.92486 0.80997 -0.05847
 C105 C 0.93038 0.82145 -0.05305
 H106 H 0.95512 0.82642 -0.07541
 H107 H 0.92592 0.79561 -0.07423
 H108 H 0.92603 0.82585 -0.04427
 C109 C 0.31006 0.32757 0.81013
 C110 C 0.30425 0.32185 0.82136
 C111 C 0.30979 0.31055 0.82708
 C112 C 0.32113 0.30495 0.82154
 C113 C 0.32695 0.31067 0.81032
 C114 C 0.32140 0.32197 0.80461
 H115 H 0.29557 0.32628 0.82574
 H116 H 0.32552 0.29631 0.82607
 H117 H 0.32601 0.32650 0.79603
 C118 C 0.17516 0.55847 0.55736
 C119 C 0.18060 0.56997 0.55190
 C120 C 0.19182 0.57567 0.55763
 C121 C 0.19762 0.56984 0.56879
 C122 C 0.19219 0.55834 0.57425
 C123 C 0.18096 0.55265 0.56852
 H124 H 0.17601 0.57457 0.54336
 H125 H 0.20621 0.57434 0.57332
 H126 H 0.17665 0.54384 0.57285
 C127 C 0.57687 0.69165 0.05828
 C128 C 0.57112 0.69710 0.06965
 C129 C 0.55982 0.69132 0.07515
 C130 C 0.55426 0.68011 0.06924
 C131 C 0.56001 0.67465 0.05787
 C132 C 0.57130 0.68044 0.05238
 H133 H 0.57554 0.70566 0.07433
 H134 H 0.54564 0.67551 0.07361
 H135 H 0.57588 0.67610 0.04370
 C136 C 0.69085 0.19079 0.67591
 C137 C 0.67948 0.19614 0.68162
 C138 C 0.67403 0.19040 0.69301
 C139 C 0.67997 0.17931 0.69873
 C140 C 0.69136 0.17394 0.69304
 C141 C 0.69680 0.17971 0.68163
 H142 H 0.67476 0.20461 0.67708
 H143 H 0.67562 0.17477 0.70744
 H144 H 0.70550 0.17547 0.67708
 C145 C 1.07589 0.05769 0.19173
 C146 C 1.07029 0.06888 0.19760
 C147 C 1.05894 0.07453 0.19213
 C148 C 1.05318 0.06897 0.18080
 C149 C 1.05877 0.05777 0.17491
 C150 C 1.07012 0.05213 0.18041
 H151 H 1.07484 0.07328 0.20627
 H152 H 1.04448 0.07346 0.17649
 H153 H 1.07457 0.04356 0.17579
 C154 C 0.05661 0.17669 1.05654
 C155 C 0.06790 0.18231 1.05086
 C156 C 0.07365 0.19352 1.05658
 C157 C 0.06809 0.19914 1.06797
 C158 C 0.05679 0.19353 1.07367
 C159 C 0.05105 0.18231 1.06792
 H160 H 0.07230 0.17786 1.04215
 H161 H 0.07266 0.20772 1.07248
 H162 H 0.04241 0.17783 1.07240
 C163 C 0.17455 0.69226 0.69208
 C164 C 0.18016 0.69794 0.68073
 C165 C 0.19148 0.69241 0.67508
 C166 C 0.19722 0.68122 0.68083
 C167 C 0.19162 0.67554 0.69219
 C168 C 0.18030 0.68108 0.69782
 H169 H 0.17559 0.70646 0.67616
 H170 H 0.20586 0.67681 0.67634
 H171 H 0.17583 0.67655 0.70647
 C172 C 1.19074 0.17391 0.19299
 C173 C 1.19653 0.17976 0.18182
 C174 C 1.19114 0.19127 0.17640
 C175 C 1.17996 0.19696 0.18218
 C176 C 1.17417 0.19112 0.19336
 C177 C 1.17957 0.17960 0.19876
 H178 H 1.20507 0.17525 0.17724
 H179 H 1.17568 0.20577 0.17788
 H180 H 1.17498 0.17498 0.20730
 C181 C 0.67566 1.05887 0.55659
 C182 C 0.68128 1.05285 0.56775
 C183 C 0.69246 1.05837 0.57372
 C184 C 0.69805 1.06991 0.56852
 C185 C 0.69245 1.07596 0.55736
 C186 C 0.68127 1.07043 0.55139
 H187 H 0.67686 1.04401 0.57191
 H188 H 0.70661 1.07426 0.57328
 H189 H 0.67683 1.07519 0.54285
 C190 C 0.55832 0.55878 0.17509
 C191 C 0.56965 0.55329 0.18075
 C192 C 0.57541 0.55917 0.19191
 C193 C 0.56981 0.57053 0.19743
 C194 C 0.55847 0.57603 0.19178
 C195 C 0.55272 0.57014 0.18062
 H196 H 0.57409 0.54460 0.17637
 H197 H 0.57436 0.57519 0.20596
 H198 H 0.54405 0.57449 0.17613
 C199 C 0.67320 0.69146 0.19175
 C200 C 0.67892 0.68020 0.19737
 C201 C 0.69012 0.67459 0.19157
 C202 C 0.69561 0.68026 0.18015
 C203 C 0.68990 0.69150 0.17452
 C204 C 0.67870 0.69711 0.18033
 H205 H 0.67455 0.67571 0.20609
 H206 H 0.70416 0.67580 0.17554
 H207 H 0.67417 0.70571 0.17586
 C208 C 0.17449 0.05760 1.05771
 C209 C 0.18042 0.06877 1.05205
 C210 C 0.19155 0.07443 1.05799
 C211 C 0.19678 0.06890 1.06958
 C212 C 0.19087 0.05773 1.07525
 C213 C 0.17974 0.05208 1.06931
 H214 H 0.17628 0.07318 1.04317
 H215 H 0.20529 0.07337 1.07428
 H216 H 0.17508 0.04354 1.07382
 C217 C 0.57545 0.19273 0.55736
 C218 C 0.56966 0.19810 0.56875
 C219 C 0.55822 0.19243 0.57404
 C220 C 0.55253 0.18140 0.56791
 C221 C 0.55831 0.17602 0.55652
 C222 C 0.56975 0.18170 0.55123
 H223 H 0.57418 0.20651 0.57362
 H224 H 0.54380 0.17687 0.57213
 H225 H 0.57435 0.17740 0.54254
 C226 C 0.07478 0.55801 0.69216
 C227 C 0.06925 0.56936 0.69776
 C228 C 0.05783 0.57486 0.69227
 C229 C 0.05193 0.56896 0.68119
 C230 C 0.05744 0.55760 0.67558
 C231 C 0.06886 0.55212 0.68108
 H232 H 0.07395 0.57405 0.70619
 H233 H 0.04322 0.57334 0.67680
 H234 H 0.07326 0.54346 0.67661
 C235 C 0.67532 0.55879 0.05708
 C236 C 0.68084 0.57022 0.05156
 C237 C 0.69186 0.57612 0.05748
 C238 C 0.69737 0.57055 0.06892
 C239 C 0.69187 0.55912 0.07446
 C240 C 0.68085 0.55323 0.06852
 H241 H 0.67646 0.57463 0.04281
 H242 H 0.70579 0.57521 0.07362
 H243 H 0.67647 0.54449 0.07292
 C244 C 0.05918 0.69182 0.57388
 C245 C 0.07056 0.69728 0.56823
 C246 C 0.07598 0.69170 0.55675
 C247 C 0.06999 0.68067 0.55091
 C248 C 0.05861 0.67521 0.55655
 C249 C 0.05320 0.68080 0.56802
 H250 H 0.07530 0.70570 0.57286
 H251 H 0.07429 0.67624 0.54213
 H252 H 0.04450 0.67645 0.57250
 C253 C 0.55754 1.05776 0.67585
 C254 C 0.56877 1.05210 0.68158
 C255 C 0.57436 1.05769 0.69298
 C256 C 0.56870 1.06893 0.69868
 C257 C 0.55748 1.07462 0.69298
 C258 C 0.55189 1.06901 0.68158
 H259 H 0.57331 1.04354 0.67704
 H260 H 0.57320 1.07338 0.70737
 H261 H 0.54334 1.07355 0.67701
 C262 C 0.44004 0.32639 0.94124
 C263 C 0.44561 0.32068 0.92990
 C264 C 0.43990 0.30939 0.92429
 C265 C 0.42864 0.30379 0.93005
 C266 C 0.42307 0.30949 0.94139
 C267 C 0.42878 0.32077 0.94699
 H268 H 0.45423 0.32511 0.92535
 H269 H 0.42412 0.29515 0.92561
 H270 H 0.42438 0.32529 0.95567
 C271 C 0.93907 0.43827 0.32710
 C272 C 0.92770 0.44402 0.32176
 C273 C 0.92176 0.43854 0.31048
 C274 C 0.92722 0.42733 0.30452
 C275 C 0.93858 0.42158 0.30984
 C276 C 0.94451 0.42706 0.32112
 H277 H 0.92335 0.45260 0.32646
 H278 H 0.92253 0.42298 0.29589
 H279 H 0.95322 0.42248 0.32531
 C280 C 0.30934 0.94296 0.42624
 C281 C 0.32076 0.94844 0.43177
 C282 C 0.32652 0.94264 0.44297
 C283 C 0.32083 0.93138 0.44865
 C284 C 0.30940 0.92589 0.44313
 C285 C 0.30365 0.93170 0.43194
 H286 H 0.32528 0.95704 0.42725
 H287 H 0.32540 0.92676 0.45719
 H288 H 0.29493 0.92733 0.42753
 O289 O 0.21474 0.51768 0.74924
 O290 O 0.21877 0.51579 0.77190
 O291 O 0.24946 0.53599 0.73365
 O292 O 0.27116 0.53214 0.73353
 O293 O 0.23335 0.50152 0.71460
 O294 O 0.23415 0.47852 0.71937
 O295 O 0.28398 0.49990 0.76806
 O296 O 0.28033 0.52237 0.76561
 O297 O 0.25039 0.48328 0.78474
 O298 O 0.22669 0.48421 0.77988
 O299 O 0.26676 0.46620 0.75111
 O300 O 0.26634 0.47095 0.72738
 O301 O 0.28417 0.48411 0.75195
 O302 O 0.27969 0.48568 0.72730
 O303 O 0.25067 0.46589 0.76682
 O304 O 0.22644 0.47084 0.76507
 O305 O 0.26648 0.49895 0.78502
 O306 O 0.26213 0.52288 0.78090
 O307 O 0.21477 0.50170 0.73330
 O308 O 0.21968 0.47828 0.73423
 O309 O 0.24924 0.51741 0.71483
 O310 O 0.27294 0.51537 0.72057
 O311 O 0.23314 0.53580 0.74917
 O312 O 0.23590 0.53040 0.77309
 Zr313 Zr 0.23379 0.51666 0.75734
 O314 O 0.24507 0.50473 0.77010
 Zr315 Zr 0.25711 0.51673 0.73416
 O316 O 0.26956 0.50521 0.74618
 Zr317 Zr 0.23388 0.49356 0.73388
 O318 O 0.24548 0.48080 0.74551
 Zr319 Zr 0.26510 0.50809 0.76631
 O320 O 0.25387 0.52105 0.75436
 Zr321 Zr 0.24204 0.48471 0.76568
 O322 O 0.22944 0.49658 0.75402
 Zr323 Zr 0.26556 0.48516 0.74273
 O324 O 0.25396 0.49669 0.72967
 O325 O 0.23718 0.51348 0.73725
 O326 O 0.26207 0.48804 0.76285
 C327 C 0.20921 0.51094 0.74000
 C328 C 0.24008 0.54147 0.74016
 C329 C 0.24014 0.51070 0.70909
 C330 C 0.28947 0.49050 0.76159
 C331 C 0.25989 0.48951 0.79032
 C332 C 0.26023 0.46060 0.76044
 H333 H 0.24287 0.50680 0.77943
 H334 H 0.24341 0.47156 0.74319
 H335 H 0.23164 0.51915 0.73155
 H336 H 0.27885 0.50748 0.74434
 H337 H 0.27619 0.53076 0.76282
 H338 H 0.27785 0.53012 0.74035
 H339 H 0.22807 0.46480 0.75755
 H340 H 0.21511 0.47892 0.74288
 H341 H 0.26956 0.52245 0.78727
 H342 H 0.22895 0.53720 0.77226
 H343 H 0.25808 0.46578 0.72771
 H344 H 0.24305 0.47869 0.71538
 H345 H 0.21510 0.50674 0.77163
 H346 H 0.22744 0.49225 0.78539
 H347 H 0.27147 0.50729 0.71525
 H348 H 0.28587 0.49300 0.72916
 O349 O 0.26739 -0.03535 0.25140
 O350 O 0.26563 -0.03117 0.22875
 O351 O 0.28479 -0.00030 0.26740
 O352 O 0.28049 0.02135 0.26766
 O353 O 0.25056 -0.01732 0.28603
 O354 O 0.22763 -0.01694 0.28106
 O355 O 0.24849 0.03383 0.23299
 O356 O 0.27091 0.03056 0.23554
 O357 O 0.23270 -0.00007 0.21582
 O358 O 0.23405 -0.02381 0.22053
 O359 O 0.21495 0.01572 0.24942
 O360 O 0.21943 0.01524 0.27314
 O361 O 0.23256 0.03358 0.24894
 O362 O 0.23390 0.02883 0.27355
 O363 O 0.21514 -0.00031 0.23362
 O364 O 0.22058 -0.02447 0.23519
 O365 O 0.24800 0.01638 0.21583
 O366 O 0.27190 0.01247 0.22013
 O367 O 0.25127 -0.03577 0.26718
 O368 O 0.22782 -0.03132 0.26609
 O369 O 0.26609 -0.00107 0.28605
 O370 O 0.26361 0.02267 0.28048
 O371 O 0.28509 -0.01654 0.25177
 O372 O 0.27987 -0.01371 0.22783
 Zr373 Zr 0.26606 -0.01623 0.24343
 O374 O 0.25404 -0.00507 0.23064
 Zr375 Zr 0.26541 0.00696 0.26678
 O376 O 0.25378 0.01928 0.25474
 Zr377 Zr 0.24278 -0.01679 0.26668
 O378 O 0.22993 -0.00534 0.25500
 Zr379 Zr 0.25695 0.01504 0.23461
 O380 O 0.26999 0.00396 0.24660
 Zr381 Zr 0.23410 -0.00853 0.23484
 O382 O 0.24607 -0.02102 0.24653
 Zr383 Zr 0.23382 0.01484 0.25796
 O384 O 0.24544 0.00336 0.27106
 O385 O 0.26262 -0.01305 0.26352
 O386 O 0.23697 0.01158 0.23784
 C387 C 0.26067 -0.04111 0.26053
 C388 C 0.29051 -0.00953 0.26087
 C389 C 0.25953 -0.01037 0.29166
 C390 C 0.23898 0.03912 0.23945
 C391 C 0.23878 0.00962 0.21036
 C392 C 0.20958 0.00909 0.24003
 H393 H 0.25625 -0.00715 0.22132
 H394 H 0.22073 -0.00763 0.25722
 H395 H 0.26834 -0.01854 0.26923
 H396 H 0.25585 0.02861 0.25669
 H397 H 0.27933 0.02655 0.23840
 H398 H 0.27841 0.02805 0.26086
 H399 H 0.21447 -0.02305 0.24270
 H400 H 0.22863 -0.03581 0.25741
 H401 H 0.27139 0.01996 0.21382
 H402 H 0.28679 -0.02055 0.22867
 H403 H 0.21455 0.00680 0.27279
 H404 H 0.22760 -0.00805 0.28513
 H405 H 0.25667 -0.03504 0.22892
 H406 H 0.24212 -0.02287 0.21512
 H407 H 0.25554 0.02098 0.28573
 H408 H 0.24112 0.03517 0.27184
 O409 O 0.48214 0.78519 0.24976
 O410 O 0.48426 0.78075 0.22722
 O411 O 0.46388 0.75054 0.26578
 O412 O 0.46791 0.72888 0.26662
 O413 O 0.49812 0.76732 0.28487
 O414 O 0.52111 0.76649 0.28029
 O415 O 0.50027 0.71551 0.23252
 O416 O 0.47786 0.71912 0.23472
 O417 O 0.51681 0.74894 0.21519
 O418 O 0.51581 0.77274 0.21958
 O419 O 0.53380 0.73330 0.24933
 O420 O 0.52889 0.73413 0.27297
 O421 O 0.51593 0.71569 0.24873
 O422 O 0.51425 0.72072 0.27325
 O423 O 0.53411 0.74911 0.23330
 O424 O 0.52903 0.77336 0.23445
 O425 O 0.50123 0.73276 0.21516
 O426 O 0.47733 0.73706 0.21908
 O427 O 0.49803 0.78555 0.26578
 O428 O 0.52140 0.78070 0.26515
 O429 O 0.48230 0.75137 0.28485
 O430 O 0.48454 0.72750 0.27966
 O431 O 0.46412 0.76659 0.24995
 O432 O 0.46976 0.76352 0.22619
 Zr433 Zr 0.48332 0.76596 0.24204
 O434 O 0.49534 0.75444 0.22960
 Zr435 Zr 0.48318 0.74305 0.26571
 O436 O 0.49482 0.73040 0.25403
 Zr437 Zr 0.50620 0.76642 0.26566
 O438 O 0.51905 0.75463 0.25435
 Zr439 Zr 0.49205 0.73443 0.23379
 O440 O 0.47901 0.74588 0.24542
 Zr441 Zr 0.51527 0.75764 0.23409
 O442 O 0.50332 0.77046 0.24541
 Zr443 Zr 0.51479 0.73455 0.25752
 O444 O 0.50315 0.74637 0.27027
 O445 O 0.48634 0.76298 0.26223
 O446 O 0.51203 0.73761 0.23730
 C447 C 0.48882 0.79095 0.25891
 C448 C 0.45840 0.75972 0.25898
 C449 C 0.48893 0.76061 0.29045
 C450 C 0.50960 0.71015 0.23919
 C451 C 0.51062 0.73932 0.20974
 C452 C 0.53942 0.73973 0.23994
 H453 H 0.49332 0.75645 0.22022
 H454 H 0.52825 0.75680 0.25670
 H455 H 0.48060 0.76861 0.26776
 H456 H 0.49257 0.72112 0.25606
 H457 H 0.46946 0.72329 0.23740
 H458 H 0.46994 0.72211 0.25988
 H459 H 0.53499 0.77194 0.24208
 H460 H 0.52082 0.78509 0.25640
 H461 H 0.47782 0.72949 0.21287
 H462 H 0.46295 0.77049 0.22681
 H463 H 0.53394 0.74246 0.27257
 H464 H 0.52092 0.75767 0.28449
 H465 H 0.49327 0.78449 0.22752
 H466 H 0.50778 0.77190 0.21408
 H467 H 0.49255 0.72915 0.28502
 H468 H 0.50693 0.71450 0.27152
 O469 O 0.03470 0.73323 0.74870
 O470 O 0.03037 0.73504 0.77134
 O471 O 0.00025 0.71481 0.73265
 O472 O -0.02143 0.71860 0.73200
 O473 O 0.01658 0.74948 0.71398
 O474 O 0.01545 0.77246 0.71878
 O475 O -0.03494 0.75042 0.76661
 O476 O -0.03108 0.72802 0.76413
 O477 O -0.00168 0.76718 0.78391
 O478 O 0.02203 0.76651 0.77941
 O479 O -0.01768 0.78440 0.75009
 O480 O -0.01697 0.77984 0.72643
 O481 O -0.03504 0.76631 0.75059
 O482 O -0.03010 0.76492 0.72597
 O483 O -0.00182 0.78472 0.76603
 O484 O 0.02247 0.77990 0.76463
 O485 O -0.01766 0.75140 0.78388
 O486 O -0.01310 0.72754 0.77967
 O487 O 0.03478 0.74937 0.73290
 O488 O 0.02967 0.77277 0.73390
 O489 O 0.00084 0.73344 0.71386
 O490 O -0.02304 0.73544 0.71918
 O491 O 0.01638 0.71501 0.74838
 O492 O 0.01332 0.72030 0.77226
 Zr493 Zr 0.01554 0.73412 0.75658
 O494 O 0.00399 0.74589 0.76923
 Zr495 Zr -0.00745 0.73404 0.73304
 O496 O -0.02015 0.74539 0.74495
 Zr497 Zr 0.01562 0.75736 0.73325
 O498 O 0.00375 0.76996 0.74476
 Zr499 Zr -0.01597 0.74241 0.76513
 O500 O -0.00447 0.72962 0.75326
 Zr501 Zr 0.00692 0.76595 0.76496
 O502 O 0.01979 0.75425 0.75343
 Zr503 Zr -0.01625 0.76548 0.74167
 O504 O -0.00437 0.75413 0.72870
 O505 O 0.01241 0.73740 0.73647
 O506 O -0.01304 0.76251 0.76183
 C507 C 0.04030 0.74008 0.73957
 C508 C 0.00956 0.70934 0.73928
 C509 C 0.01002 0.74022 0.70833
 C510 C -0.04043 0.75979 0.76010
 C511 C -0.01120 0.76083 0.78934
 C512 C -0.01129 0.79000 0.75951
 H513 H 0.00606 0.74377 0.77858
 H514 H 0.00580 0.77923 0.74252
 H515 H 0.01807 0.73177 0.73084
 H516 H -0.02939 0.74305 0.74295
 H517 H -0.02683 0.71969 0.76132
 H518 H -0.02815 0.72044 0.73885
 H519 H 0.02090 0.78599 0.75713
 H520 H 0.03418 0.77206 0.74259
 H521 H -0.02062 0.72787 0.78593
 H522 H 0.02035 0.71356 0.77150
 H523 H -0.00864 0.78489 0.72674
 H524 H 0.00663 0.77219 0.71460
 H525 H 0.03401 0.74410 0.77111
 H526 H 0.02137 0.75836 0.78477
 H527 H -0.02144 0.74349 0.71385
 H528 H -0.03627 0.75756 0.72772
 O529 O 0.03537 0.01801 -0.00005
 O530 O 0.03094 0.01614 -0.02260
 O531 O 0.00087 0.03616 0.01613
 O532 O -0.02076 0.03211 0.01695
 O533 O 0.01743 0.00162 0.03488
 O534 O 0.01651 -0.02134 0.03008
 O535 O -0.03426 0.00008 -0.01752
 O536 O -0.03050 0.02253 -0.01512
 O537 O -0.00102 -0.01642 -0.03493
 O538 O 0.02275 -0.01542 -0.03057
 O539 O -0.01676 -0.03369 -0.00106
 O540 O -0.01586 -0.02903 0.02267
 O541 O -0.03417 -0.01579 -0.00148
 O542 O -0.02918 -0.01434 0.02308
 O543 O -0.00095 -0.03386 -0.01706
 O544 O 0.02332 -0.02880 -0.01578
 O545 O -0.01710 -0.00081 -0.03484
 O546 O -0.01260 0.02312 -0.03077
 O547 O 0.03563 0.00192 0.01580
 O548 O 0.03065 -0.02150 0.01493
 O549 O 0.00160 0.01749 0.03503
 O550 O -0.02224 0.01532 0.02978
 O551 O 0.01690 0.03608 0.00032
 O552 O 0.01381 0.03066 -0.02352
 Zr553 Zr 0.01618 0.01693 -0.00779
 O554 O 0.00462 0.00500 -0.02036
 Zr555 Zr -0.00669 0.01682 0.01586
 O556 O -0.01939 0.00531 0.00406
 Zr557 Zr 0.01650 -0.00625 0.01560
 O558 O 0.00465 -0.01901 0.00417
 Zr559 Zr -0.01533 0.00828 -0.01615
 O560 O -0.00385 0.02122 -0.00438
 Zr561 Zr 0.00770 -0.01501 -0.01605
 O562 O 0.02055 -0.00315 -0.00461
 Zr563 Zr -0.01536 -0.01475 0.00735
 O564 O -0.00349 -0.00323 0.02023
 O565 O 0.01318 0.01368 0.01237
 O566 O -0.01226 -0.01177 -0.01282
 C567 C 0.04108 0.01120 0.00903
 C568 C 0.01006 0.04173 0.00939
 C569 C 0.01078 0.01076 0.04056
 C570 C -0.03966 -0.00935 -0.01097
 C571 C -0.01063 -0.01020 -0.04031
 C572 C -0.01039 -0.03922 -0.01052
 H573 H 0.00664 0.00711 -0.02972
 H574 H 0.00676 -0.02826 0.00642
 H575 H 0.01883 0.01938 0.01796
 H576 H -0.02863 0.00755 0.00610
 H577 H -0.02628 0.03092 -0.01239
 H578 H -0.02746 0.03023 0.01009
 H579 H 0.02181 -0.03490 -0.00827
 H580 H 0.03506 -0.02082 0.00620
 H581 H -0.02016 0.02269 -0.03699
 H582 H 0.02078 0.03749 -0.02281
 H583 H -0.00761 -0.03416 0.02216
 H584 H 0.00767 -0.02125 0.03422
 H585 H 0.03457 0.00709 -0.02244
 H586 H 0.02194 -0.00735 -0.03602
 H587 H -0.02064 0.00725 0.03506
 H588 H -0.03536 -0.00700 0.02139
 O589 O 0.03560 0.51732 0.49986
 O590 O 0.03141 0.51535 0.47726
 O591 O 0.00100 0.53558 0.51562
 O592 O -0.02066 0.53161 0.51615
 O593 O 0.01723 0.50106 0.53467
 O594 O 0.01638 0.47810 0.52993
 O595 O -0.03389 0.49948 0.48174
 O596 O -0.03007 0.52192 0.48404
 O597 O -0.00049 0.48279 0.46474
 O598 O 0.02323 0.48378 0.46932
 O599 O -0.01660 0.46570 0.49851
 O600 O -0.01598 0.47046 0.52221
 O601 O -0.03402 0.48366 0.49784
 O602 O -0.02925 0.48517 0.52243
 O603 O -0.00059 0.46542 0.48271
 O604 O 0.02365 0.47048 0.48419
 O605 O -0.01655 0.49842 0.46459
 O606 O -0.01202 0.52236 0.46857
 O607 O 0.03566 0.50132 0.51581
 O608 O 0.03066 0.47788 0.51492
 O609 O 0.00143 0.51697 0.53458
 O610 O -0.02234 0.51488 0.52906
 O611 O 0.01718 0.53541 0.49996
 O612 O 0.01431 0.52991 0.47611
 Zr613 Zr 0.01649 0.51623 0.49191
 O614 O 0.00505 0.50428 0.47927
 Zr615 Zr -0.00663 0.51627 0.51532
 O616 O -0.01921 0.50473 0.50342
 Zr617 Zr 0.01652 0.49315 0.51540
 O618 O 0.00477 0.48037 0.50390
 Zr619 Zr -0.01494 0.50761 0.48324
 O620 O -0.00356 0.52058 0.49508
 Zr621 Zr 0.00804 0.48428 0.48370
 O622 O 0.02080 0.49616 0.49522
 Zr623 Zr -0.01528 0.48468 0.50684
 O624 O -0.00351 0.49623 0.51979
 O625 O 0.01327 0.51307 0.51205
 O626 O -0.01195 0.48756 0.48669
 C627 C 0.04119 0.51057 0.50905
 C628 C 0.01028 0.54109 0.50896
 C629 C 0.01052 0.51023 0.54025
 C630 C -0.03939 0.49011 0.48829
 C631 C -0.01005 0.48898 0.45923
 C632 C -0.01010 0.46010 0.48918
 H633 H 0.00717 0.50634 0.46992
 H634 H 0.00684 0.47113 0.50622
 H635 H 0.01887 0.51877 0.51769
 H636 H -0.02848 0.50701 0.50536
 H637 H -0.02585 0.53030 0.48678
 H638 H -0.02730 0.52970 0.50925
 H639 H 0.02209 0.46444 0.49175
 H640 H 0.03520 0.47857 0.50626
 H641 H -0.01951 0.52191 0.46227
 H642 H 0.02130 0.53673 0.47686
 H643 H -0.00772 0.46532 0.52183
 H644 H 0.00749 0.47820 0.53396
 H645 H 0.03502 0.50630 0.47750
 H646 H 0.02249 0.49183 0.46384
 H647 H -0.02083 0.50681 0.53438
 H648 H -0.03538 0.49253 0.52065
 O649 O 0.53663 0.01763 0.49962
 O650 O 0.53210 0.01554 0.47707
 O651 O 0.50223 0.03580 0.51585
 O652 O 0.48059 0.03176 0.51672
 O653 O 0.51891 0.00145 0.53474
 O654 O 0.51798 -0.02158 0.53009
 O655 O 0.46695 -0.00057 0.48259
 O656 O 0.47065 0.02188 0.48484
 O657 O 0.50020 -0.01703 0.46507
 O658 O 0.52396 -0.01607 0.46940
 O659 O 0.48462 -0.03419 0.49924
 O660 O 0.48556 -0.02938 0.52287
 O661 O 0.46713 -0.01629 0.49877
 O662 O 0.47230 -0.01467 0.52329
 O663 O 0.50031 -0.03446 0.48313
 O664 O 0.52454 -0.02938 0.48422
 O665 O 0.48412 -0.00142 0.46514
 O666 O 0.48849 0.02249 0.46914
 O667 O 0.53700 0.00167 0.51560
 O668 O 0.53209 -0.02178 0.51486
 O669 O 0.50304 0.01729 0.53482
 O670 O 0.47918 0.01504 0.52973
 O671 O 0.51816 0.03563 0.49994
 O672 O 0.51495 0.03006 0.47616
 Zr673 Zr 0.51741 0.01643 0.49196
 O674 O 0.50581 0.00441 0.47954
 Zr675 Zr 0.49465 0.01646 0.51572
 O676 O 0.48192 0.00484 0.50406
 Zr677 Zr 0.51789 -0.00658 0.51551
 O678 O 0.50601 -0.01943 0.50422
 Zr679 Zr 0.48587 0.00768 0.48381
 O680 O 0.49740 0.02073 0.49543
 Zr681 Zr 0.50894 -0.01558 0.48395
 O682 O 0.52183 -0.00362 0.49525
 Zr683 Zr 0.48600 -0.01518 0.50747
 O684 O 0.49791 -0.00355 0.52021
 O685 O 0.51451 0.01332 0.51214
 O686 O 0.48898 -0.01235 0.48725
 C687 C 0.54238 0.01094 0.50875
 C688 C 0.51140 0.04132 0.50903
 C689 C 0.51227 0.01063 0.54037
 C690 C 0.46159 -0.00993 0.48927
 C691 C 0.49062 -0.01079 0.45967
 C692 C 0.49095 -0.03980 0.48980
 H693 H 0.50779 0.00647 0.47016
 H694 H 0.50814 -0.02865 0.50653
 H695 H 0.52017 0.01906 0.51767
 H696 H 0.47268 0.00708 0.50613
 H697 H 0.47484 0.03029 0.48754
 H698 H 0.47377 0.02974 0.51002
 H699 H 0.52314 -0.03536 0.49185
 H700 H 0.53645 -0.02114 0.50610
 H701 H 0.48091 0.02203 0.46296
 H702 H 0.52194 0.03689 0.47677
 H703 H 0.49388 -0.03440 0.52246
 H704 H 0.50919 -0.02141 0.53432
 H705 H 0.53582 0.00653 0.47736
 H706 H 0.52316 -0.00799 0.46395
 H707 H 0.48083 0.00701 0.53507
 H708 H 0.46608 -0.00737 0.52158
 O709 O 0.50187 0.53535 0.01617
 O710 O 0.47936 0.53124 0.01435
 O711 O 0.51742 0.50086 0.03486
 O712 O 0.51787 0.47912 0.03116
 O713 O 0.53609 0.51670 -0.00027
 O714 O 0.53115 0.51556 -0.02332
 O715 O 0.48330 0.46560 -0.00064
 O716 O 0.48584 0.46967 0.02186
 O717 O 0.46643 0.49887 -0.01774
 O718 O 0.47111 0.52264 -0.01718
 O719 O 0.49971 0.48242 -0.03497
 O720 O 0.52329 0.48308 -0.03043
 O721 O 0.49914 0.46523 -0.01668
 O722 O 0.52359 0.46996 -0.01542
 O723 O 0.48408 0.49847 -0.03536
 O724 O 0.48576 0.52285 -0.03069
 O725 O 0.46637 0.48298 -0.00178
 O726 O 0.47059 0.48780 0.02220
 O727 O 0.51753 0.53517 -0.00008
 O728 O 0.51632 0.52993 -0.02359
 O729 O 0.53607 0.50109 0.01599
 O730 O 0.53049 0.47723 0.01424
 O731 O 0.50194 0.51710 0.03458
 O732 O 0.47822 0.51429 0.02927
 Zr733 Zr 0.49381 0.51623 0.01536
 O734 O 0.48110 0.50465 0.00364
 Zr735 Zr 0.51693 0.49301 0.01555
 O736 O 0.50495 0.48029 0.00425
 Zr737 Zr 0.51689 0.51593 -0.00806
 O738 O 0.50531 0.50402 -0.02062
 Zr739 Zr 0.48498 0.48466 0.00726
 O740 O 0.49690 0.49619 0.02002
 Zr741 Zr 0.48531 0.50739 -0.01656
 O742 O 0.49692 0.52030 -0.00491
 Zr743 Zr 0.50818 0.48399 -0.01600
 O744 O 0.52120 0.49588 -0.00469
 O745 O 0.51374 0.51291 0.01206
 O746 O 0.48823 0.48740 -0.01297
 C747 C 0.51100 0.54082 0.00925
 C748 C 0.51088 0.51023 0.04033
 C749 C 0.54167 0.51012 0.00903
 C750 C 0.48967 0.45996 -0.01005
 C751 C 0.46099 0.48938 -0.01132
 C752 C 0.49039 0.48884 -0.04060
 H753 H 0.47184 0.50682 0.00576
 H754 H 0.50753 0.50597 -0.02997
 H755 H 0.51942 0.51855 0.01767
 H756 H 0.50685 0.47103 0.00666
 H757 H 0.48866 0.47398 0.03021
 H758 H 0.51095 0.47247 0.02942
 H759 H 0.49317 0.52117 -0.03682
 H760 H 0.50775 0.53452 -0.02286
 H761 H 0.46429 0.48031 0.02191
 H762 H 0.47906 0.52138 0.03600
 H763 H 0.52288 0.49128 -0.03574
 H764 H 0.53513 0.50666 -0.02311
 H765 H 0.47961 0.53479 0.00520
 H766 H 0.46580 0.52206 -0.00897
 H767 H 0.53573 0.47867 0.00608
 H768 H 0.52185 0.46389 -0.00793
 O769 O 0.76800 0.28569 0.50103
 O770 O 0.76610 0.28131 0.52361
 O771 O 0.78604 0.25106 0.48494
 O772 O 0.78197 0.22938 0.48426
 O773 O 0.75164 0.26766 0.46614
 O774 O 0.72872 0.26682 0.47093
 O775 O 0.74995 0.21600 0.51869
 O776 O 0.77233 0.21973 0.51633
 O777 O 0.73354 0.24943 0.53603
 O778 O 0.73458 0.27322 0.53156
 O779 O 0.71626 0.23363 0.50215
 O780 O 0.72093 0.23437 0.47848
 O781 O 0.73413 0.21607 0.50265
 O782 O 0.73559 0.22105 0.47808
 O783 O 0.71610 0.24953 0.51808
 O784 O 0.72124 0.27378 0.51680
 O785 O 0.74908 0.23329 0.53601
 O786 O 0.77296 0.23770 0.53190
 O787 O 0.75198 0.28595 0.48516
 O788 O 0.72858 0.28103 0.48604
 O789 O 0.76743 0.25175 0.46606
 O790 O 0.76522 0.22789 0.47139
 O791 O 0.78597 0.26716 0.50071
 O792 O 0.78056 0.26411 0.52456
 Zr793 Zr 0.76686 0.26648 0.50883
 O794 O 0.75492 0.25497 0.52143
 Zr795 Zr 0.76673 0.24350 0.48525
 O796 O 0.75519 0.23085 0.49710
 Zr797 Zr 0.74376 0.26680 0.48542
 O798 O 0.73099 0.25499 0.49689
 Zr799 Zr 0.75814 0.23496 0.51730
 O800 O 0.77110 0.24640 0.50550
 Zr801 Zr 0.73496 0.25809 0.51710
 O802 O 0.74684 0.27091 0.50563
 Zr803 Zr 0.73519 0.23491 0.49378
 O804 O 0.74673 0.24675 0.48087
 O805 O 0.76364 0.26343 0.48868
 O806 O 0.73814 0.23806 0.51395
 C807 C 0.76125 0.29140 0.49192
 C808 C 0.79159 0.26029 0.49164
 C809 C 0.76076 0.26096 0.46049
 C810 C 0.74057 0.21057 0.51213
 C811 C 0.73973 0.23983 0.54145
 C812 C 0.71072 0.24010 0.51154
 H813 H 0.75703 0.25702 0.53078
 H814 H 0.72178 0.25713 0.49461
 H815 H 0.76934 0.26907 0.48307
 H816 H 0.75742 0.22158 0.49509
 H817 H 0.78071 0.22392 0.51356
 H818 H 0.78003 0.22265 0.49109
 H819 H 0.71522 0.27234 0.50922
 H820 H 0.72929 0.28549 0.49475
 H821 H 0.77251 0.23015 0.53815
 H822 H 0.78739 0.27109 0.52384
 H823 H 0.71593 0.24271 0.47886
 H824 H 0.72882 0.25796 0.46679
 H825 H 0.75708 0.28499 0.52341
 H826 H 0.74263 0.27241 0.53702
 H827 H 0.75717 0.22950 0.46609
 H828 H 0.74289 0.21485 0.47979
 O829 O 0.78614 0.75198 -0.01654
 O830 O 0.78188 0.72945 -0.01509
 O831 O 0.75169 0.76801 -0.03493
 O832 O 0.73002 0.76847 -0.03116
 O833 O 0.76773 0.78620 0.00030
 O834 O 0.76662 0.78099 0.02331
 O835 O 0.71649 0.73348 0.00035
 O836 O 0.72042 0.73634 -0.02214
 O837 O 0.74975 0.71623 0.01697
 O838 O 0.77345 0.72088 0.01642
 O839 O 0.73353 0.74950 0.03476
 O840 O 0.73422 0.77314 0.03049
 O841 O 0.71628 0.74918 0.01654
 O842 O 0.72109 0.77368 0.01554
 O843 O 0.74942 0.73372 0.03488
 O844 O 0.77373 0.73534 0.03014
 O845 O 0.73384 0.71641 0.00106
 O846 O 0.73847 0.72101 -0.02284
 O847 O 0.78609 0.76745 -0.00009
 O848 O 0.78090 0.76609 0.02337
 O849 O 0.75205 0.78644 -0.01585
 O850 O 0.72823 0.78092 -0.01406
 O851 O 0.76786 0.75248 -0.03493
 O852 O 0.76491 0.72864 -0.02994
 Zr853 Zr 0.76700 0.74404 -0.01583
 O854 O 0.75544 0.73121 -0.00419
 Zr855 Zr 0.74392 0.76729 -0.01560
 O856 O 0.73122 0.75520 -0.00439
 Zr857 Zr 0.76689 0.76687 0.00789
 O858 O 0.75502 0.75515 0.02036
 Zr859 Zr 0.73548 0.73521 -0.00766
 O860 O 0.74699 0.74727 -0.02033
 Zr861 Zr 0.75827 0.73515 0.01605
 O862 O 0.77114 0.74688 0.00448
 Zr863 Zr 0.73502 0.75818 0.01587
 O864 O 0.74689 0.77131 0.00466
 O865 O 0.76379 0.76398 -0.01225
 O866 O 0.73831 0.73820 0.01259
 C867 C 0.79169 0.76096 -0.00948
 C868 C 0.76101 0.76154 -0.04053
 C869 C 0.76112 0.79193 -0.00889
 C870 C 0.71094 0.73980 0.00986
 C871 C 0.74029 0.71086 0.01047
 C872 C 0.73991 0.74007 0.04026
 H873 H 0.75757 0.72196 -0.00645
 H874 H 0.75701 0.75725 0.02972
 H875 H 0.76945 0.76971 -0.01781
 H876 H 0.72198 0.75717 -0.00673
 H877 H 0.72468 0.73927 -0.03047
 H878 H 0.72332 0.76159 -0.02944
 H879 H 0.77211 0.74270 0.03636
 H880 H 0.78538 0.75746 0.02260
 H881 H 0.73096 0.71474 -0.02262
 H882 H 0.77195 0.72954 -0.03671
 H883 H 0.74247 0.77270 0.03569
 H884 H 0.75777 0.78506 0.02313
 H885 H 0.78546 0.72953 -0.00596
 H886 H 0.77282 0.71566 0.00817
 H887 H 0.72973 0.78606 -0.00585
 H888 H 0.71498 0.77205 0.00807
 O889 O 1.00056 0.21361 0.23285
 O890 O 0.97805 0.21752 0.23441
 O891 O 1.01612 0.24838 0.21439
 O892 O 1.01647 0.27009 0.21819
 O893 O 1.03456 0.23255 0.24963
 O894 O 1.02940 0.23359 0.27265
 O895 O 0.98152 0.28315 0.24968
 O896 O 0.98433 0.27918 0.22719
 O897 O 0.96465 0.24972 0.26654
 O898 O 0.96940 0.22597 0.26587
 O899 O 0.99775 0.26627 0.28417
 O900 O 1.02132 0.26596 0.27979
 O901 O 0.99715 0.28358 0.26592
 O902 O 1.02165 0.27914 0.26485
 O903 O 0.98220 0.25007 0.28435
 O904 O 0.98390 0.22578 0.27951
 O905 O 0.96468 0.26562 0.25058
 O906 O 0.96915 0.26092 0.22664
 O907 O 1.01605 0.21390 0.24926
 O908 O 1.01467 0.21907 0.27274
 O909 O 1.03461 0.24823 0.23343
 O910 O 1.02891 0.27202 0.23524
 O911 O 1.00075 0.23197 0.21446
 O912 O 0.97697 0.23451 0.21956
 Zr913 Zr 0.99243 0.23267 0.23360
 O914 O 0.97955 0.24409 0.24524
 Zr915 Zr 1.01544 0.25612 0.23374
 O916 O 1.00330 0.26869 0.24497
 Zr917 Zr 1.01528 0.23312 0.25725
 O918 O 1.00351 0.24486 0.26974
 Zr919 Zr 0.98338 0.26413 0.24174
 O920 O 0.99548 0.25276 0.22906
 Zr921 Zr 0.98356 0.24132 0.26548
 O922 O 0.99536 0.22857 0.25390
 Zr923 Zr 1.00634 0.26494 0.26523
 O924 O 1.01952 0.25322 0.25400
 O925 O 1.01231 0.23618 0.23711
 O926 O 0.98643 0.26135 0.26199
 C927 C 1.00962 0.20819 0.23988
 C928 C 1.00969 0.23897 0.20882
 C929 C 1.04019 0.23923 0.24041
 C930 C 0.98774 0.28880 0.25921
 C931 C 0.95924 0.25917 0.26007
 C932 C 0.98847 0.25968 0.28972
 H933 H 0.97033 0.24185 0.24301
 H934 H 1.00566 0.24288 0.27909
 H935 H 1.01806 0.23060 0.23153
 H936 H 1.00517 0.27798 0.24261
 H937 H 0.98724 0.27492 0.21886
 H938 H 1.00951 0.27667 0.21990
 H939 H 0.99131 0.22743 0.28567
 H940 H 1.00612 0.21441 0.27194
 H941 H 0.96283 0.26836 0.22687
 H942 H 0.97791 0.22746 0.21280
 H943 H 1.02099 0.25769 0.28499
 H944 H 1.03340 0.24251 0.27244
 H945 H 0.97815 0.21401 0.24358
 H946 H 0.96411 0.22659 0.25766
 H947 H 1.03406 0.27060 0.24346
 H948 H 1.01994 0.28524 0.25738
 O949 O 0.74896 1.03471 0.73216
 O950 O 0.77138 1.03044 0.73381
 O951 O 0.73294 0.99994 0.71403
 O952 O 0.73236 0.97825 0.71810
 O953 O 0.71452 1.01651 0.74877
 O954 O 0.71938 1.01559 0.77187
 O955 O 0.76688 0.96515 0.75009
 O956 O 0.76429 0.96882 0.72753
 O957 O 0.78402 0.99862 0.76656
 O958 O 0.77954 1.02241 0.76554
 O959 O 0.75058 0.98267 0.78417
 O960 O 0.72709 0.98320 0.77964
 O961 O 0.75111 0.96511 0.76618
 O962 O 0.72663 0.96989 0.76480
 O963 O 0.76636 0.99865 0.78423
 O964 O 0.76496 1.02291 0.77909
 O965 O 0.78394 0.98250 0.75084
 O966 O 0.77969 0.98689 0.72680
 O967 O 0.73335 1.03487 0.74845
 O968 O 0.73434 1.02989 0.77199
 O969 O 0.71437 1.00057 0.73285
 O970 O 0.71972 0.97671 0.73510
 O971 O 0.74849 1.01618 0.71398
 O972 O 0.77224 1.01323 0.71923
 Zr973 Zr 0.75674 1.01553 0.73317
 O974 O 0.76938 1.00411 0.74509
 Zr975 Zr 0.73343 0.99240 0.73346
 O976 O 0.74532 0.97982 0.74497
 Zr977 Zr 0.73369 1.01570 0.75664
 O978 O 0.74520 1.00397 0.76939
 Zr979 Zr 0.76532 0.98407 0.74184
 O980 O 0.75347 0.99543 0.72889
 Zr981 Zr 0.76522 1.00720 0.76525
 O982 O 0.75370 1.01994 0.75338
 Zr983 Zr 0.74216 0.98387 0.76515
 O984 O 0.72921 0.99562 0.75365
 O985 O 0.73679 1.01235 0.73658
 O986 O 0.76213 0.98716 0.76202
 C987 C 0.73998 1.04037 0.73908
 C988 C 0.73948 1.00923 0.70839
 C989 C 0.70888 1.00979 0.73959
 C990 C 0.76052 0.95970 0.75964
 C991 C 0.78938 0.98903 0.76027
 C992 C 0.75993 0.98918 0.78969
 H993 H 0.77864 1.00621 0.74290
 H994 H 0.74301 1.00609 0.77870
 H995 H 0.73118 1.01796 0.73090
 H996 H 0.74335 0.97052 0.74273
 H997 H 0.76147 0.97300 0.71911
 H998 H 0.73917 0.97157 0.71999
 H999 H 0.75752 1.02138 0.78524
 H1000 H 0.74296 1.03441 0.77125
 H1001 H 0.78592 0.97938 0.72720
 H1002 H 0.77143 1.02018 0.71235
 H1003 H 0.72739 0.99160 0.78460
 H1004 H 0.71525 1.00674 0.77171
 H1005 H 0.77131 1.03406 0.74293
 H1006 H 0.78493 1.02158 0.75742
 H1007 H 0.71449 0.97833 0.74322
 H1008 H 0.72837 0.96363 0.75748
 O1009 O 0.71469 0.51766 0.24943
 O1010 O 0.71884 0.51589 0.27207
 O1011 O 0.74943 0.53578 0.23359
 O1012 O 0.77110 0.53181 0.23328
 O1013 O 0.73301 0.50131 0.21478
 O1014 O 0.73383 0.47831 0.21963
 O1015 O 0.78395 0.49974 0.26799
 O1016 O 0.78040 0.52221 0.26540
 O1017 O 0.75039 0.48336 0.28493
 O1018 O 0.72668 0.48431 0.28016
 O1019 O 0.76655 0.46601 0.25127
 O1020 O 0.76606 0.47061 0.22757
 O1021 O 0.78403 0.48387 0.25197
 O1022 O 0.77940 0.48536 0.22729
 O1023 O 0.75057 0.46585 0.26710
 O1024 O 0.72633 0.47086 0.26544
 O1025 O 0.76652 0.49900 0.28504
 O1026 O 0.76226 0.52291 0.28077
 O1027 O 0.71457 0.50157 0.23360
 O1028 O 0.71945 0.47815 0.23459
 O1029 O 0.74897 0.51714 0.21485
 O1030 O 0.77272 0.51496 0.22044
 O1031 O 0.73317 0.53573 0.24916
 O1032 O 0.73603 0.53044 0.27309
 Zr1033 Zr 0.73378 0.51663 0.25743
 O1034 O 0.74508 0.50472 0.27019
 Zr1035 Zr 0.75698 0.51648 0.23412
 O1036 O 0.76945 0.50499 0.24614
 Zr1037 Zr 0.73367 0.49340 0.23409
 O1038 O 0.74529 0.48067 0.24573
 Zr1039 Zr 0.76511 0.50800 0.26628
 O1040 O 0.75386 0.52093 0.25431
 Zr1041 Zr 0.74198 0.48469 0.26590
 O1042 O 0.72935 0.49654 0.25424
 Zr1043 Zr 0.76537 0.48494 0.24282
 O1044 O 0.75374 0.49643 0.22975
 O1045 O 0.73705 0.51333 0.23734
 O1046 O 0.76199 0.48794 0.26294
 C1047 C 0.70908 0.51086 0.24028
 C1048 C 0.74011 0.54133 0.24011
 C1049 C 0.73979 0.51046 0.20920
 C1050 C 0.78938 0.49029 0.26155
 C1051 C 0.75993 0.48962 0.29044
 C1052 C 0.76005 0.46049 0.26068
 H1053 H 0.74294 0.50686 0.27952
 H1054 H 0.74318 0.47142 0.24347
 H1055 H 0.73149 0.51899 0.23165
 H1056 H 0.77874 0.50722 0.24423
 H1057 H 0.77628 0.53059 0.26256
 H1058 H 0.77780 0.52984 0.24010
 H1059 H 0.72792 0.46476 0.25796
 H1060 H 0.71494 0.47882 0.24326
 H1061 H 0.76973 0.52250 0.28710
 H1062 H 0.72909 0.53727 0.27226
 H1063 H 0.75771 0.46558 0.22788
 H1064 H 0.74270 0.47847 0.21556
 H1065 H 0.71514 0.50685 0.27188
 H1066 H 0.72747 0.49238 0.28562
 H1067 H 0.77115 0.50689 0.21514
 H1068 H 0.78565 0.49263 0.22912
 O1069 O 0.49997 0.21386 0.73293
 O1070 O 0.47749 0.21810 0.73458
 O1071 O 0.51604 0.24853 0.71483
 O1072 O 0.51651 0.27026 0.71881
 O1073 O 0.53429 0.23208 0.74969
 O1074 O 0.52930 0.23302 0.77279
 O1075 O 0.48194 0.28343 0.75065
 O1076 O 0.48461 0.27971 0.72809
 O1077 O 0.46471 0.25000 0.76715
 O1078 O 0.46918 0.22620 0.76619
 O1079 O 0.49806 0.26598 0.78484
 O1080 O 0.52160 0.26539 0.78041
 O1081 O 0.49765 0.28348 0.76681
 O1082 O 0.52211 0.27870 0.76556
 O1083 O 0.48229 0.24999 0.78488
 O1084 O 0.48371 0.22571 0.77980
 O1085 O 0.46487 0.26610 0.75140
 O1086 O 0.46919 0.26165 0.72738
 O1087 O 0.51554 0.21373 0.74926
 O1088 O 0.51434 0.21868 0.77282
 O1089 O 0.53449 0.24799 0.73373
 O1090 O 0.52914 0.27184 0.73586
 O1091 O 0.50046 0.23232 0.71477
 O1092 O 0.47669 0.23527 0.71989
 Zr1093 Zr 0.49212 0.23301 0.73391
 O1094 O 0.47944 0.24446 0.74574
 Zr1095 Zr 0.51543 0.25616 0.73423
 O1096 O 0.50351 0.26875 0.74566
 Zr1097 Zr 0.51508 0.23288 0.75747
 O1098 O 0.50351 0.24463 0.77015
 Zr1099 Zr 0.48352 0.26449 0.74245
 O1100 O 0.49542 0.25311 0.72958
 Zr1101 Zr 0.48351 0.24140 0.76592
 O1102 O 0.49509 0.22863 0.75415
 Zr1103 Zr 0.50658 0.26472 0.76586
 O1104 O 0.51957 0.25296 0.75444
 O1105 O 0.51205 0.23622 0.73740
 O1106 O 0.48662 0.26143 0.76266
 C1107 C 0.50899 0.20824 0.73983
 C1108 C 0.50954 0.23921 0.70921
 C1109 C 0.53995 0.23877 0.74050
 C1110 C 0.48827 0.28889 0.76021
 C1111 C 0.45939 0.25960 0.76083
 C1112 C 0.48868 0.25948 0.79033
 H1113 H 0.47018 0.24237 0.74352
 H1114 H 0.50567 0.24252 0.77947
 H1115 H 0.51770 0.23061 0.73175
 H1116 H 0.50549 0.27804 0.74341
 H1117 H 0.48745 0.27551 0.71970
 H1118 H 0.50976 0.27700 0.72072
 H1119 H 0.49114 0.22724 0.78597
 H1120 H 0.50573 0.21414 0.77201
 H1121 H 0.46297 0.26917 0.72774
 H1122 H 0.47752 0.22828 0.71306
 H1123 H 0.52122 0.25702 0.78545
 H1124 H 0.53343 0.24187 0.77262
 H1125 H 0.47760 0.21443 0.74368
 H1126 H 0.46385 0.22700 0.75802
 H1127 H 0.53432 0.27025 0.74402
 H1128 H 0.52042 0.28493 0.75820
 O1129 O 0.28595 0.75147 0.48328
 O1130 O 0.28190 0.72891 0.48521
 O1131 O 0.25157 0.76677 0.46420
 O1132 O 0.22985 0.76716 0.46775
 O1133 O 0.26711 0.78577 0.49923
 O1134 O 0.26570 0.78103 0.52235
 O1135 O 0.21626 0.73267 0.49969
 O1136 O 0.22046 0.73511 0.47723
 O1137 O 0.24946 0.71600 0.51710
 O1138 O 0.27313 0.72083 0.51674
 O1139 O 0.23280 0.74949 0.53407
 O1140 O 0.23327 0.77299 0.52934
 O1141 O 0.21571 0.74864 0.51560
 O1142 O 0.22036 0.77316 0.51420
 O1143 O 0.24886 0.73388 0.53468
 O1144 O 0.27317 0.73555 0.53014
 O1145 O 0.23376 0.71575 0.50099
 O1146 O 0.23865 0.71994 0.47706
 O1147 O 0.28557 0.76723 0.49944
 O1148 O 0.28012 0.76624 0.52290
 O1149 O 0.25164 0.78557 0.48287
 O1150 O 0.22782 0.77993 0.48459
 O1151 O 0.26787 0.75137 0.46472
 O1152 O 0.26512 0.72762 0.47016
 Zr1153 Zr 0.26689 0.74332 0.48398
 O1154 O 0.25529 0.73062 0.49571
 Zr1155 Zr 0.24361 0.76638 0.48346
 O1156 O 0.23088 0.75440 0.49476
 Zr1157 Zr 0.26629 0.76661 0.50723
 O1158 O 0.25437 0.75502 0.51978
 Zr1159 Zr 0.23535 0.73439 0.49192
 O1160 O 0.24691 0.74630 0.47916
 Zr1161 Zr 0.25785 0.73497 0.51590
 O1162 O 0.27077 0.74659 0.50427
 Zr1163 Zr 0.23440 0.75778 0.51501
 O1164 O 0.24630 0.77081 0.50369
 O1165 O 0.26345 0.76329 0.48712
 O1166 O 0.23790 0.73777 0.51216
 C1167 C 0.29133 0.76065 0.49021
 C1168 C 0.26101 0.76025 0.45886
 C1169 C 0.26062 0.79125 0.48981
 C1170 C 0.21053 0.73911 0.50900
 C1171 C 0.24013 0.71043 0.51058
 C1172 C 0.23925 0.74026 0.53985
 H1173 H 0.25752 0.72135 0.49365
 H1174 H 0.25625 0.75733 0.52912
 H1175 H 0.26912 0.76895 0.48150
 H1176 H 0.22165 0.75624 0.49227
 H1177 H 0.22481 0.73794 0.46890
 H1178 H 0.22319 0.76026 0.46954
 H1179 H 0.27147 0.74307 0.53615
 H1180 H 0.28474 0.75767 0.52229
 H1181 H 0.23120 0.71360 0.47731
 H1182 H 0.27225 0.72845 0.46348
 H1183 H 0.24152 0.77282 0.53454
 H1184 H 0.25684 0.78506 0.52194
 H1185 H 0.28540 0.72924 0.49437
 H1186 H 0.27267 0.71548 0.50855
 H1187 H 0.22921 0.78527 0.49269
 H1188 H 0.21436 0.77134 0.50668
 O1189 O 0.23252 0.24860 1.03613
 O1190 O 0.23428 0.27112 1.03207
 O1191 O 0.21456 0.23303 1.00096
 O1192 O 0.21867 0.23258 0.97918
 O1193 O 0.24906 0.21434 1.01754
 O1194 O 0.27196 0.21929 1.01677
 O1195 O 0.25042 0.26733 0.96633
 O1196 O 0.22804 0.26477 0.97003
 O1197 O 0.26681 0.28420 1.00021
 O1198 O 0.26577 0.27946 1.02407
 O1199 O 0.28422 0.25093 0.98387
 O1200 O 0.27972 0.22735 0.98427
 O1201 O 0.26635 0.25152 0.96620
 O1202 O 0.26503 0.22699 0.97087
 O1203 O 0.28430 0.26653 1.00010
 O1204 O 0.27915 0.26482 1.02450
 O1205 O 0.25128 0.28428 0.98392
 O1206 O 0.22740 0.28001 0.98831
 O1207 O 0.24866 0.23298 1.03617
 O1208 O 0.27204 0.23411 1.03127
 O1209 O 0.23325 0.21436 1.00151
 O1210 O 0.23549 0.22001 0.97757
 O1211 O 0.21451 0.24844 1.01740
 O1212 O 0.21983 0.27224 1.01475
 Zr1213 Zr 0.23360 0.25666 1.01692
 O1214 O 0.24547 0.26946 1.00556
 Zr1215 Zr 0.23388 0.23356 0.99347
 O1216 O 0.24533 0.24562 0.98094
 Zr1217 Zr 0.25685 0.23358 1.01694
 O1218 O 0.26954 0.24525 1.00526
 Zr1219 Zr 0.24226 0.26562 0.98537
 O1220 O 0.22938 0.25360 0.99667
 Zr1221 Zr 0.26545 0.26527 1.00867
 O1222 O 0.25364 0.25358 1.02137
 Zr1223 Zr 0.26535 0.24242 0.98502
 O1224 O 0.25390 0.22931 0.99671
 O1225 O 0.23694 0.23670 1.01356
 O1226 O 0.26228 0.26240 0.98848
 C1227 C 0.23935 0.23953 1.04174
 C1228 C 0.20894 0.23951 1.01031
 C1229 C 0.23997 0.20875 1.01071
 C1230 C 0.25985 0.26097 0.96080
 C1231 C 0.26063 0.28966 0.99057
 C1232 C 0.28970 0.26023 0.99052
 H1233 H 0.24332 0.27872 1.00774
 H1234 H 0.27877 0.24304 1.00740
 H1235 H 0.23127 0.23101 1.01913
 H1236 H 0.24311 0.24373 0.97158
 H1237 H 0.21968 0.26191 0.97422
 H1238 H 0.22049 0.23958 0.97260
 H1239 H 0.28527 0.25741 1.02290
 H1240 H 0.27129 0.24269 1.03589
 H1241 H 0.22783 0.28634 0.98081
 H1242 H 0.21299 0.27136 1.02173
 H1243 H 0.28471 0.22764 0.99269
 H1244 H 0.27188 0.21530 1.00780
 H1245 H 0.24331 0.27098 1.03575
 H1246 H 0.25768 0.28482 1.02331
 H1247 H 0.24353 0.21475 0.97917
 H1248 H 0.25772 0.22873 0.96462
 C1249 C 0.30474 0.33952 0.80462
 C1250 C 0.30048 0.34968 0.80013
 C1251 C 0.29564 0.36195 0.79491
 C1252 C 0.30452 0.37162 0.79061
 C1253 C 0.29991 0.38372 0.78591
 C1254 C 0.28632 0.38634 0.78544
 C1255 C 0.27745 0.37650 0.78964
 C1256 C 0.28209 0.36439 0.79436
 C1257 C 0.28146 0.39935 0.78079
 C1258 C 0.27025 0.40024 0.77264
 C1259 C 0.26572 0.41254 0.76831
 C1260 C 0.27231 0.42408 0.77210
 C1261 C 0.28345 0.42328 0.78022
 C1262 C 0.28800 0.41102 0.78454
 C1263 C 0.26772 0.43677 0.76773
 C1264 C 0.26413 0.44757 0.76427
 H1265 H 0.31503 0.36983 0.79097
 H1266 H 0.30698 0.39102 0.78257
 H1267 H 0.26694 0.37827 0.78954
 H1268 H 0.27512 0.35699 0.79771
 H1269 H 0.26509 0.39143 0.76947
 H1270 H 0.25710 0.41305 0.76200
 H1271 H 0.28860 0.43216 0.78325
 H1272 H 0.29653 0.41068 0.79097
 C1273 C 0.30266 -0.16422 0.30149
 C1274 C 0.29854 -0.15381 0.29751
 C1275 C 0.29383 -0.14120 0.29300
 C1276 C 0.29659 -0.12986 0.30041
 C1277 C 0.29224 -0.11754 0.29603
 C1278 C 0.28505 -0.11639 0.28415
 C1279 C 0.28224 -0.12786 0.27681
 C1280 C 0.28662 -0.14019 0.28121
 C1281 C 0.28059 -0.10325 0.27945
 C1282 C 0.26796 -0.10161 0.27393
 C1283 C 0.26373 -0.08915 0.26977
 C1284 C 0.27206 -0.07820 0.27105
 C1285 C 0.28466 -0.07976 0.27641
 C1286 C 0.28891 -0.09219 0.28058
 C1287 C 0.26769 -0.06529 0.26707
 C1288 C 0.26432 -0.05433 0.26396
 H1289 H 0.30213 -0.13053 0.30957
 H1290 H 0.29438 -0.10893 0.30200
 H1291 H 0.27685 -0.12728 0.26756
 H1292 H 0.28446 -0.14891 0.27538
 H1293 H 0.26129 -0.10990 0.27307
 H1294 H 0.25394 -0.08804 0.26567
 H1295 H 0.29120 -0.07136 0.27741
 H1296 H 0.29874 -0.09316 0.28460
 C1297 C 0.80516 0.83868 0.80389
 C1298 C 0.80082 0.84879 0.79938
 C1299 C 0.79578 0.86098 0.79412
 C1300 C 0.78354 0.86573 0.79829
 C1301 C 0.77884 0.87779 0.79349
 C1302 C 0.78636 0.88526 0.78447
 C1303 C 0.79860 0.88033 0.78024
 C1304 C 0.80327 0.86827 0.78504
 C1305 C 0.78159 0.89827 0.77970
 C1306 C 0.79036 0.90897 0.77847
 C1307 C 0.78586 0.92128 0.77418
 C1308 C 0.77257 0.92307 0.77106
 C1309 C 0.76376 0.91249 0.77220
 C1310 C 0.76824 0.90016 0.77650
 C1311 C 0.76800 0.93584 0.76687
 C1312 C 0.76442 0.94666 0.76348
 H1313 H 0.77768 0.86019 0.80535
 H1314 H 0.76946 0.88139 0.79707
 H1315 H 0.80454 0.88576 0.77318
 H1316 H 0.81276 0.86468 0.78173
 H1317 H 0.80065 0.90790 0.78104
 H1318 H 0.79275 0.92942 0.77339
 H1319 H 0.75345 0.91376 0.76980
 H1320 H 0.76128 0.89208 0.77721
 C1321 C 0.44661 0.91301 0.30191
 C1322 C 0.45078 0.90288 0.29730
 C1323 C 0.45549 0.89060 0.29196
 C1324 C 0.46867 0.88927 0.28813
 C1325 C 0.47324 0.87722 0.28321
 C1326 C 0.46467 0.86634 0.28206
 C1327 C 0.45143 0.86782 0.28589
 C1328 C 0.44689 0.87987 0.29080
 C1329 C 0.46952 0.85343 0.27714
 C1330 C 0.46169 0.84570 0.26862
 C1331 C 0.46600 0.83329 0.26446
 C1332 C 0.47817 0.82844 0.26872
 C1333 C 0.48612 0.83614 0.27702
 C1334 C 0.48184 0.84856 0.28119
 C1335 C 0.48223 0.81537 0.26500
 C1336 C 0.48538 0.80428 0.26210
 H1337 H 0.47541 0.89753 0.28898
 H1338 H 0.48344 0.87642 0.28022
 H1339 H 0.44464 0.85959 0.28532
 H1340 H 0.43669 0.88077 0.29380
 H1341 H 0.45224 0.84924 0.26519
 H1342 H 0.45976 0.82741 0.25804
 H1343 H 0.49553 0.83245 0.28044
 H1344 H 0.48801 0.85421 0.28788
 C1345 C -0.05522 0.91106 0.80396
 C1346 C -0.05088 0.90104 0.79929
 C1347 C -0.04595 0.88889 0.79385
 C1348 C -0.03312 0.88475 0.79671
 C1349 C -0.02854 0.87269 0.79184
 C1350 C -0.03676 0.86460 0.78407
 C1351 C -0.04958 0.86893 0.78112
 C1352 C -0.05413 0.88100 0.78598
 C1353 C -0.03210 0.85155 0.77932
 C1354 C -0.04056 0.84054 0.77962
 C1355 C -0.03616 0.82820 0.77535
 C1356 C -0.02327 0.82669 0.77071
 C1357 C -0.01478 0.83758 0.77033
 C1358 C -0.01916 0.84994 0.77461
 C1359 C -0.01876 0.81390 0.76655
 C1360 C -0.01522 0.80305 0.76323
 H1361 H -0.02673 0.89077 0.80284
 H1362 H -0.01868 0.86955 0.79442
 H1363 H -0.05607 0.86301 0.77502
 H1364 H -0.06407 0.88412 0.78370
 H1365 H -0.05051 0.84141 0.78337
 H1366 H -0.04279 0.81982 0.77574
 H1367 H -0.00478 0.83652 0.76675
 H1368 H -0.01247 0.85826 0.77413
 C1369 C -0.05366 -0.16115 -0.05419
 C1370 C -0.04933 -0.15088 -0.05001
 C1371 C -0.04431 -0.13847 -0.04523
 C1372 C -0.04378 -0.13589 -0.03160
 C1373 C -0.03922 -0.12368 -0.02703
 C1374 C -0.03517 -0.11388 -0.03605
 C1375 C -0.03564 -0.11662 -0.04973
 C1376 C -0.04018 -0.12883 -0.05427
 C1377 C -0.03065 -0.10077 -0.03125
 C1378 C -0.03446 -0.08920 -0.03793
 C1379 C -0.03022 -0.07685 -0.03346
 C1380 C -0.02213 -0.07588 -0.02227
 C1381 C -0.01830 -0.08733 -0.01553
 C1382 C -0.02254 -0.09970 -0.01998
 C1383 C -0.01779 -0.06312 -0.01779
 C1384 C -0.01431 -0.05228 -0.01430
 H1385 H -0.04700 -0.14327 -0.02452
 H1386 H -0.03912 -0.12181 -0.01645
 H1387 H -0.03242 -0.10935 -0.05691
 H1388 H -0.04053 -0.13073 -0.06484
 H1389 H -0.04086 -0.08967 -0.04651
 H1390 H -0.03329 -0.06805 -0.03872
 H1391 H -0.01201 -0.08669 -0.00688
 H1392 H -0.01932 -0.10843 -0.01473
 C1393 C -0.05307 0.33769 0.44671
 C1394 C -0.04866 0.34795 0.45083
 C1395 C -0.04355 0.36035 0.45554
 C1396 C -0.04480 0.36382 0.46891
 C1397 C -0.04021 0.37606 0.47336
 C1398 C -0.03434 0.38501 0.46445
 C1399 C -0.03301 0.38136 0.45105
 C1400 C -0.03759 0.36911 0.44663
 C1401 C -0.02984 0.39819 0.46904
 C1402 C -0.03202 0.40945 0.46117
 C1403 C -0.02787 0.42187 0.46548
 C1404 C -0.02149 0.42324 0.47771
 C1405 C -0.01926 0.41212 0.48562
 C1406 C -0.02341 0.39966 0.48132
 C1407 C -0.01730 0.43610 0.48208
 C1408 C -0.01393 0.44699 0.48548
 H1409 H -0.04945 0.35712 0.47588
 H1410 H -0.04152 0.37865 0.48369
 H1411 H -0.02837 0.38795 0.44399
 H1412 H -0.03656 0.36651 0.43626
 H1413 H -0.03711 0.40867 0.45176
 H1414 H -0.02969 0.43043 0.45930
 H1415 H -0.01430 0.41307 0.49509
 H1416 H -0.02147 0.39117 0.48753
 C1417 C 0.44714 -0.16178 0.44706
 C1418 C 0.45159 -0.15164 0.45145
 C1419 C 0.45670 -0.13941 0.45658
 C1420 C 0.46701 -0.13294 0.45003
 C1421 C 0.47167 -0.12083 0.45475
 C1422 C 0.46605 -0.11501 0.46608
 C1423 C 0.45578 -0.12166 0.47267
 C1424 C 0.45114 -0.13377 0.46794
 C1425 C 0.47069 -0.10192 0.47082
 C1426 C 0.46161 -0.09243 0.47525
 C1427 C 0.46592 -0.07999 0.47941
 C1428 C 0.47934 -0.07687 0.47922
 C1429 C 0.48847 -0.08627 0.47493
 C1430 C 0.48418 -0.09872 0.47075
 C1431 C 0.48367 -0.06391 0.48314
 C1432 C 0.48711 -0.05296 0.48627
 H1433 H 0.47135 -0.13719 0.44119
 H1434 H 0.47947 -0.11588 0.44936
 H1435 H 0.45136 -0.11752 0.48151
 H1436 H 0.44316 -0.13870 0.47309
 H1437 H 0.45115 -0.09452 0.47525
 H1438 H 0.45876 -0.07277 0.48265
 H1439 H 0.49889 -0.08395 0.47474
 H1440 H 0.49142 -0.10586 0.46755
 C1441 C 0.44555 0.33830 -0.05331
 C1442 C 0.44996 0.34841 -0.04883
 C1443 C 0.45501 0.36062 -0.04358
 C1444 C 0.46681 0.36589 -0.04842
 C1445 C 0.47145 0.37800 -0.04366
 C1446 C 0.46430 0.38500 -0.03401
 C1447 C 0.45252 0.37954 -0.02911
 C1448 C 0.44791 0.36743 -0.03387
 C1449 C 0.46896 0.39809 -0.02929
 C1450 C 0.45996 0.40844 -0.02731
 C1451 C 0.46434 0.42083 -0.02312
 C1452 C 0.47775 0.42306 -0.02084
 C1453 C 0.48678 0.41282 -0.02271
 C1454 C 0.48242 0.40041 -0.02692
 C1455 C 0.48221 0.43594 -0.01684
 C1456 C 0.48574 0.44685 -0.01364
 H1457 H 0.47235 0.36073 -0.05599
 H1458 H 0.48046 0.38202 -0.04775
 H1459 H 0.44688 0.38460 -0.02155
 H1460 H 0.43876 0.36343 -0.03005
 H1461 H 0.44957 0.40703 -0.02924
 H1462 H 0.45728 0.42871 -0.02177
 H1463 H 0.49718 0.41445 -0.02097
 H1464 H 0.48956 0.39260 -0.02821
 C1465 C 0.80435 0.41298 0.44800
 C1466 C 0.79977 0.40309 0.45280
 C1467 C 0.79447 0.39111 0.45832
 C1468 C 0.79918 0.38630 0.47043
 C1469 C 0.79445 0.37434 0.47548
 C1470 C 0.78494 0.36703 0.46846
 C1471 C 0.78013 0.37205 0.45639
 C1472 C 0.78487 0.38400 0.45135
 C1473 C 0.78036 0.35402 0.47347
 C1474 C 0.76706 0.35027 0.47236
 C1475 C 0.76290 0.33779 0.47658
 C1476 C 0.77198 0.32891 0.48197
 C1477 C 0.78520 0.33260 0.48326
 C1478 C 0.78937 0.34507 0.47906
 C1479 C 0.76788 0.31583 0.48572
 C1480 C 0.76470 0.30474 0.48866
 H1481 H 0.80660 0.39172 0.47591
 H1482 H 0.79823 0.37082 0.48488
 H1483 H 0.77294 0.36657 0.45066
 H1484 H 0.78120 0.38760 0.44193
 H1485 H 0.75986 0.35699 0.46825
 H1486 H 0.75264 0.33502 0.47553
 H1487 H 0.79232 0.32577 0.48735
 H1488 H 0.79971 0.34758 0.47988
 C1489 C 0.80293 0.91423 -0.05190
 C1490 C 0.79838 0.90428 -0.04719
 C1491 C 0.79315 0.89223 -0.04176
 C1492 C 0.79760 0.88760 -0.02947
 C1493 C 0.79301 0.87556 -0.02450
 C1494 C 0.78390 0.86798 -0.03177
 C1495 C 0.77934 0.87283 -0.04402
 C1496 C 0.78395 0.88486 -0.04898
 C1497 C 0.77949 0.85489 -0.02683
 C1498 C 0.76631 0.85083 -0.02832
 C1499 C 0.76233 0.83827 -0.02417
 C1500 C 0.77145 0.82963 -0.01848
 C1501 C 0.78453 0.83364 -0.01680
 C1502 C 0.78853 0.84619 -0.02093
 C1503 C 0.76754 0.81647 -0.01482
 C1504 C 0.76449 0.80532 -0.01198
 H1505 H 0.80473 0.89323 -0.02380
 H1506 H 0.79658 0.87218 -0.01497
 H1507 H 0.77247 0.86715 -0.04994
 H1508 H 0.78049 0.88832 -0.05853
 H1509 H 0.75909 0.85736 -0.03269
 H1510 H 0.75218 0.83525 -0.02553
 H1511 H 0.79169 0.82700 -0.01248
 H1512 H 0.79878 0.84895 -0.01982
 C1513 C 0.80418 0.30433 0.33823
 C1514 C 0.79963 0.29969 0.34825
 C1515 C 0.79440 0.29430 0.36037
 C1516 C 0.80245 0.28675 0.36867
 C1517 C 0.79756 0.28190 0.38069
 C1518 C 0.78453 0.28457 0.38458
 C1519 C 0.77646 0.29205 0.37609
 C1520 C 0.78138 0.29688 0.36407
 C1521 C 0.77952 0.27988 0.39761
 C1522 C 0.77166 0.28813 0.40555
 C1523 C 0.76741 0.28395 0.41806
 C1524 C 0.77093 0.27147 0.42280
 C1525 C 0.77859 0.26311 0.41492
 C1526 C 0.78285 0.26728 0.40240
 C1527 C 0.76711 0.26749 0.43596
 C1528 C 0.76410 0.26437 0.44710
 H1529 H 0.81257 0.28475 0.36593
 H1530 H 0.80407 0.27634 0.38709
 H1531 H 0.76634 0.29414 0.37874
 H1532 H 0.77505 0.30271 0.35771
 H1533 H 0.76908 0.29795 0.40223
 H1534 H 0.76155 0.29053 0.42411
 H1535 H 0.78138 0.25343 0.41850
 H1536 H 0.78875 0.26064 0.39646
 C1537 C 0.80446 0.80498 -0.16279
 C1538 C 0.79984 0.80041 -0.15277
 C1539 C 0.79450 0.79512 -0.14065
 C1540 C 0.80152 0.78562 -0.13351
 C1541 C 0.79661 0.78085 -0.12146
 C1542 C 0.78460 0.78556 -0.11638
 C1543 C 0.77753 0.79499 -0.12374
 C1544 C 0.78246 0.79973 -0.13579
 C1545 C 0.77967 0.78094 -0.10330
 C1546 C 0.77403 0.78991 -0.09431
 C1547 C 0.76983 0.78568 -0.08180
 C1548 C 0.77119 0.77245 -0.07810
 C1549 C 0.77665 0.76341 -0.08702
 C1550 C 0.78087 0.76761 -0.09955
 C1551 C 0.76737 0.76829 -0.06500
 C1552 C 0.76436 0.76506 -0.05389
 H1553 H 0.81089 0.78202 -0.13715
 H1554 H 0.80237 0.77374 -0.11596
 H1555 H 0.76818 0.79868 -0.12018
 H1556 H 0.77693 0.80708 -0.14125
 H1557 H 0.77315 0.80025 -0.09681
 H1558 H 0.76569 0.79278 -0.07494
 H1559 H 0.77775 0.75314 -0.08426
 H1560 H 0.78503 0.76045 -0.10630
 C1561 C 0.30535 0.44438 0.91130
 C1562 C 0.30058 0.44870 0.90126
 C1563 C 0.29502 0.45367 0.88911
 C1564 C 0.28771 0.44528 0.88090
 C1565 C 0.28272 0.44992 0.86885
 C1566 C 0.28499 0.46304 0.86485
 C1567 C 0.29223 0.47144 0.87325
 C1568 C 0.29722 0.46677 0.88530
 C1569 C 0.28010 0.46783 0.85182
 C1570 C 0.27479 0.48058 0.85052
 C1571 C 0.27041 0.48511 0.83818
 C1572 C 0.27128 0.47698 0.82700
 C1573 C 0.27650 0.46427 0.82821
 C1574 C 0.28088 0.45972 0.84052
 C1575 C 0.26703 0.48166 0.81422
 C1576 C 0.26366 0.48538 0.80339
 H1577 H 0.28594 0.43513 0.88376
 H1578 H 0.27704 0.44327 0.86269
 H1579 H 0.29428 0.48153 0.87038
 H1580 H 0.30292 0.47333 0.89156
 H1581 H 0.27393 0.48699 0.85906
 H1582 H 0.26637 0.49496 0.83736
 H1583 H 0.27728 0.45792 0.81960
 H1584 H 0.28509 0.44993 0.84116
 C1585 C 0.30383 -0.05149 0.41433
 C1586 C 0.29941 -0.04699 0.40420
 C1587 C 0.29436 -0.04181 0.39192
 C1588 C 0.28084 -0.03969 0.39031
 C1589 C 0.27595 -0.03501 0.37822
 C1590 C 0.28454 -0.03240 0.36758
 C1591 C 0.29812 -0.03449 0.36934
 C1592 C 0.30298 -0.03916 0.38142
 C1593 C 0.27939 -0.02779 0.35459
 C1594 C 0.28623 -0.01816 0.34725
 C1595 C 0.28171 -0.01425 0.33475
 C1596 C 0.27029 -0.01990 0.32943
 C1597 C 0.26330 -0.02934 0.33673
 C1598 C 0.26780 -0.03326 0.34924
 C1599 C 0.26610 -0.01638 0.31626
 C1600 C 0.26291 -0.01356 0.30510
 H1601 H 0.27408 -0.04170 0.39838
 H1602 H 0.26547 -0.03337 0.37722
 H1603 H 0.30497 -0.03277 0.36128
 H1604 H 0.31346 -0.04083 0.38254
 H1605 H 0.29509 -0.01364 0.35117
 H1606 H 0.28721 -0.00694 0.32918
 H1607 H 0.25448 -0.03383 0.33267
 H1608 H 0.26240 -0.04081 0.35457
 C1609 C -0.05544 -0.05551 -0.16159
 C1610 C -0.05097 -0.05126 -0.15137
 C1611 C -0.04577 -0.04640 -0.13902
 C1612 C -0.04242 -0.05527 -0.12894
 C1613 C -0.03771 -0.05060 -0.11679
 C1614 C -0.03630 -0.03697 -0.11454
 C1615 C -0.03959 -0.02812 -0.12478
 C1616 C -0.04431 -0.03282 -0.13694
 C1617 C -0.03159 -0.03202 -0.10151
 C1618 C -0.02270 -0.02137 -0.10078
 C1619 C -0.01830 -0.01675 -0.08848
 C1620 C -0.02274 -0.02270 -0.07676
 C1621 C -0.03160 -0.03327 -0.07739
 C1622 C -0.03600 -0.03791 -0.08967
 C1623 C -0.01826 -0.01801 -0.06407
 C1624 C -0.01467 -0.01431 -0.05329
 H1625 H -0.04349 -0.06580 -0.13046
 H1626 H -0.03509 -0.05766 -0.10917
 H1627 H -0.03876 -0.01758 -0.12331
 H1628 H -0.04693 -0.02587 -0.14466
 H1629 H -0.01902 -0.01673 -0.10973
 H1630 H -0.01142 -0.00857 -0.08810
 H1631 H -0.03513 -0.03792 -0.06838
 H1632 H -0.04298 -0.04599 -0.08989
 C1633 C -0.05548 0.44327 0.33838
 C1634 C -0.05077 0.44756 0.34848
 C1635 C -0.04531 0.45251 0.36068
 C1636 C -0.03953 0.44380 0.36973
 C1637 C -0.03463 0.44849 0.38180
 C1638 C -0.03545 0.46197 0.38499
 C1639 C -0.04115 0.47068 0.37576
 C1640 C -0.04606 0.46596 0.36370
 C1641 C -0.03062 0.46688 0.39800
 C1642 C -0.02381 0.47895 0.39892
 C1643 C -0.01942 0.48360 0.41122
 C1644 C -0.02180 0.47625 0.42274
 C1645 C -0.02854 0.46423 0.42192
 C1646 C -0.03293 0.45957 0.40964
 C1647 C -0.01744 0.48103 0.43545
 C1648 C -0.01396 0.48480 0.44623
 H1649 H -0.03889 0.43337 0.36749
 H1650 H -0.03014 0.44157 0.38861
 H1651 H -0.04207 0.48108 0.37800
 H1652 H -0.05057 0.47278 0.35678
 H1653 H -0.02176 0.48473 0.39012
 H1654 H -0.01418 0.49291 0.41175
 H1655 H -0.03048 0.45849 0.43078
 H1656 H -0.03831 0.45034 0.40929
 C1657 C 0.44722 -0.05316 0.33687
 C1658 C 0.45168 -0.04890 0.34709
 C1659 C 0.45678 -0.04395 0.35944
 C1660 C 0.46667 -0.05085 0.36615
 C1661 C 0.47127 -0.04633 0.37841
 C1662 C 0.46600 -0.03483 0.38413
 C1663 C 0.45616 -0.02789 0.37724
 C1664 C 0.45159 -0.03243 0.36498
 C1665 C 0.47056 -0.03026 0.39736
 C1666 C 0.46148 -0.02547 0.40672
 C1667 C 0.46572 -0.02138 0.41926
 C1668 C 0.47907 -0.02202 0.42261
 C1669 C 0.48819 -0.02671 0.41335
 C1670 C 0.48398 -0.03081 0.40080
 C1671 C 0.48334 -0.01800 0.43561
 C1672 C 0.48675 -0.01468 0.44656
 H1673 H 0.47071 -0.05983 0.36198
 H1674 H 0.47873 -0.05198 0.38354
 H1675 H 0.45203 -0.01892 0.38130
 H1676 H 0.44393 -0.02701 0.35987
 H1677 H 0.45107 -0.02510 0.40445
 H1678 H 0.45856 -0.01782 0.42638
 H1679 H 0.49856 -0.02722 0.41584
 H1680 H 0.49122 -0.03430 0.39375
 C1681 C 0.44433 0.44386 -0.16152
 C1682 C 0.44876 0.44820 -0.15132
 C1683 C 0.45380 0.45322 -0.13897
 C1684 C 0.44560 0.45372 -0.12783
 C1685 C 0.45047 0.45835 -0.11573
 C1686 C 0.46363 0.46255 -0.11460
 C1687 C 0.47179 0.46210 -0.12588
 C1688 C 0.46689 0.45745 -0.13799
 C1689 C 0.46883 0.46726 -0.10167
 C1690 C 0.47727 0.47827 -0.10101
 C1691 C 0.48197 0.48278 -0.08877
 C1692 C 0.47831 0.47632 -0.07706
 C1693 C 0.47000 0.46531 -0.07762
 C1694 C 0.46528 0.46080 -0.08983
 C1695 C 0.48291 0.48101 -0.06440
 C1696 C 0.48649 0.48472 -0.05363
 H1697 H 0.43544 0.45051 -0.12849
 H1698 H 0.44389 0.45876 -0.10729
 H1699 H 0.48200 0.46512 -0.12529
 H1700 H 0.47334 0.45706 -0.14654
 H1701 H 0.48006 0.48353 -0.10994
 H1702 H 0.48838 0.49133 -0.08844
 H1703 H 0.46713 0.46022 -0.06861
 H1704 H 0.45896 0.45219 -0.09001
 C1705 C 0.44723 0.80408 0.41329
 C1706 C 0.45158 0.79948 0.40317
 C1707 C 0.45659 0.79413 0.39095
 C1708 C 0.45093 0.78274 0.38552
 C1709 C 0.45541 0.77785 0.37337
 C1710 C 0.46562 0.78429 0.36648
 C1711 C 0.47136 0.79563 0.37211
 C1712 C 0.46686 0.80051 0.38426
 C1713 C 0.47003 0.77942 0.35330
 C1714 C 0.48346 0.77949 0.34986
 C1715 C 0.48751 0.77528 0.33730
 C1716 C 0.47821 0.77096 0.32801
 C1717 C 0.46484 0.77075 0.33138
 C1718 C 0.46077 0.77494 0.34394
 C1719 C 0.48227 0.76710 0.31490
 C1720 C 0.48545 0.76404 0.30380
 H1721 H 0.44298 0.77772 0.39062
 H1722 H 0.45091 0.76900 0.36938
 H1723 H 0.47911 0.80091 0.36697
 H1724 H 0.47126 0.80937 0.38834
 H1725 H 0.49083 0.78274 0.35691
 H1726 H 0.49788 0.77549 0.33479
 H1727 H 0.45755 0.76750 0.32425
 H1728 H 0.45035 0.77495 0.34620
 C1729 C -0.05354 0.80490 0.91189
 C1730 C -0.04928 0.80054 0.90163
 C1731 C -0.04432 0.79553 0.88925
 C1732 C -0.03459 0.80251 0.88235
 C1733 C -0.03007 0.79791 0.87010
 C1734 C -0.03524 0.78625 0.86458
 C1735 C -0.04493 0.77923 0.87166
 C1736 C -0.04945 0.78386 0.88391
 C1737 C -0.03072 0.78157 0.85139
 C1738 C -0.02866 0.76805 0.84901
 C1739 C -0.02455 0.76367 0.83652
 C1740 C -0.02245 0.77274 0.82626
 C1741 C -0.02445 0.78621 0.82853
 C1742 C -0.02855 0.79060 0.84100
 C1743 C -0.01838 0.76828 0.81335
 C1744 C -0.01505 0.76476 0.80244
 H1745 H -0.03055 0.81155 0.88640
 H1746 H -0.02248 0.80344 0.86498
 H1747 H -0.04923 0.77032 0.86760
 H1748 H -0.05703 0.77841 0.88914
 H1749 H -0.03010 0.76087 0.85684
 H1750 H -0.02301 0.75323 0.83487
 H1751 H -0.02292 0.79331 0.82064
 H1752 H -0.03023 0.80104 0.84246
 C1753 C 0.33564 0.80125 0.29967
 C1754 C 0.34562 0.79673 0.29508
 C1755 C 0.35772 0.79151 0.28986
 C1756 C 0.36296 0.79652 0.27805
 C1757 C 0.37507 0.79194 0.27335
 C1758 C 0.38210 0.78228 0.28044
 C1759 C 0.37664 0.77716 0.29220
 C1760 C 0.36453 0.78177 0.29687
 C1761 C 0.39528 0.77790 0.27585
 C1762 C 0.39901 0.76456 0.27680
 C1763 C 0.41163 0.76058 0.27298
 C1764 C 0.42066 0.76986 0.26815
 C1765 C 0.41699 0.78310 0.26702
 C1766 C 0.40440 0.78711 0.27083
 C1767 C 0.43384 0.76592 0.26473
 C1768 C 0.44499 0.76292 0.26202
 H1769 H 0.35776 0.80407 0.27254
 H1770 H 0.37894 0.79595 0.26418
 H1771 H 0.38188 0.76986 0.29797
 H1772 H 0.36060 0.77787 0.30607
 H1773 H 0.39217 0.75722 0.28048
 H1774 H 0.41437 0.75029 0.27388
 H1775 H 0.42394 0.79038 0.26337
 H1776 H 0.40190 0.79746 0.27016
 C1777 C -0.16131 0.80463 0.80363
 C1778 C -0.15130 0.80001 0.79920
 C1779 C -0.13923 0.79460 0.79411
 C1780 C -0.13291 0.80058 0.78332
 C1781 C -0.12093 0.79561 0.77868
 C1782 C -0.11510 0.78459 0.78480
 C1783 C -0.12162 0.77856 0.79554
 C1784 C -0.13359 0.78354 0.80015
 C1785 C -0.10214 0.77961 0.78020
 C1786 C -0.09255 0.77561 0.78944
 C1787 C -0.08022 0.77126 0.78517
 C1788 C -0.07729 0.77081 0.77161
 C1789 C -0.08677 0.77467 0.76233
 C1790 C -0.09912 0.77904 0.76658
 C1791 C -0.06442 0.76672 0.76731
 C1792 C -0.05353 0.76345 0.76390
 H1793 H -0.13716 0.80918 0.77860
 H1794 H -0.11609 0.80058 0.77051
 H1795 H -0.11747 0.76997 0.80034
 H1796 H -0.13841 0.77883 0.80850
 H1797 H -0.09449 0.77612 0.79999
 H1798 H -0.07292 0.76837 0.79244
 H1799 H -0.08460 0.77436 0.75181
 H1800 H -0.10634 0.78191 0.75923
 C1801 C 0.91331 0.30271 0.44818
 C1802 C 0.90341 0.29812 0.45293
 C1803 C 0.89142 0.29280 0.45836
 C1804 C 0.88400 0.28373 0.45103
 C1805 C 0.87204 0.27900 0.45600
 C1806 C 0.86733 0.28331 0.46839
 C1807 C 0.87496 0.29230 0.47578
 C1808 C 0.88693 0.29701 0.47078
 C1809 C 0.85431 0.27879 0.47337
 C1810 C 0.84569 0.28773 0.47955
 C1811 C 0.83320 0.28364 0.48371
 C1812 C 0.82917 0.27057 0.48178
 C1813 C 0.83773 0.26155 0.47581
 C1814 C 0.85022 0.26562 0.47163
 C1815 C 0.81606 0.26660 0.48549
 C1816 C 0.80496 0.26355 0.48841
 H1817 H 0.88735 0.28047 0.44137
 H1818 H 0.86631 0.27225 0.45000
 H1819 H 0.87168 0.29567 0.48541
 H1820 H 0.89260 0.30402 0.47654
 H1821 H 0.84846 0.29796 0.48086
 H1822 H 0.82662 0.29072 0.48825
 H1823 H 0.83470 0.25141 0.47426
 H1824 H 0.85670 0.25848 0.46705
 C1825 C 0.91325 0.80425 -0.05261
 C1826 C 0.90337 0.79962 -0.04787
 C1827 C 0.89141 0.79428 -0.04241
 C1828 C 0.88464 0.78427 -0.04913
 C1829 C 0.87267 0.77952 -0.04418
 C1830 C 0.86729 0.78475 -0.03245
 C1831 C 0.87428 0.79468 -0.02566
 C1832 C 0.88625 0.79941 -0.03062
 C1833 C 0.85426 0.78018 -0.02756
 C1834 C 0.84508 0.78929 -0.02258
 C1835 C 0.83261 0.78510 -0.01848
 C1836 C 0.82915 0.77176 -0.01926
 C1837 C 0.83825 0.76258 -0.02405
 C1838 C 0.85074 0.76675 -0.02817
 C1839 C 0.81609 0.76762 -0.01557
 C1840 C 0.80502 0.76442 -0.01268
 H1841 H 0.88851 0.78028 -0.05830
 H1842 H 0.86746 0.77200 -0.04973
 H1843 H 0.87048 0.79878 -0.01652
 H1844 H 0.89141 0.80716 -0.02534
 H1845 H 0.84741 0.79971 -0.02217
 H1846 H 0.82560 0.79230 -0.01486
 H1847 H 0.83567 0.75222 -0.02470
 H1848 H 0.85764 0.75948 -0.03182
 C1849 C -0.16196 -0.05234 -0.05319
 C1850 C -0.15167 -0.04819 -0.04894
 C1851 C -0.13923 -0.04349 -0.04398
 C1852 C -0.13618 -0.03003 -0.04434
 C1853 C -0.12393 -0.02556 -0.03985
 C1854 C -0.11455 -0.03453 -0.03496
 C1855 C -0.11777 -0.04804 -0.03453
 C1856 C -0.13002 -0.05247 -0.03901
 C1857 C -0.10139 -0.02988 -0.03051
 C1858 C -0.09002 -0.03712 -0.03368
 C1859 C -0.07762 -0.03276 -0.02956
 C1860 C -0.07641 -0.02111 -0.02221
 C1861 C -0.08765 -0.01383 -0.01900
 C1862 C -0.10007 -0.01817 -0.02313
 C1863 C -0.06359 -0.01669 -0.01804
 C1864 C -0.05273 -0.01320 -0.01471
 H1865 H -0.14322 -0.02300 -0.04822
 H1866 H -0.12169 -0.01513 -0.04045
 H1867 H -0.11084 -0.05517 -0.03065
 H1868 H -0.13228 -0.06292 -0.03866
 H1869 H -0.09068 -0.04607 -0.03952
 H1870 H -0.06897 -0.03845 -0.03214
 H1871 H -0.08682 -0.00481 -0.01329
 H1872 H -0.10866 -0.01247 -0.02041
 C1873 C -0.16146 0.44648 0.44612
 C1874 C -0.15126 0.45096 0.45030
 C1875 C -0.13898 0.45618 0.45513
 C1876 C -0.13321 0.45092 0.46656
 C1877 C -0.12105 0.45568 0.47100
 C1878 C -0.11448 0.46577 0.46402
 C1879 C -0.12044 0.47108 0.45260
 C1880 C -0.13260 0.46631 0.44819
 C1881 C -0.10137 0.47054 0.46847
 C1882 C -0.09139 0.47321 0.45916
 C1883 C -0.07895 0.47743 0.46334
 C1884 C -0.07632 0.47906 0.47686
 C1885 C -0.08619 0.47651 0.48621
 C1886 C -0.09864 0.47227 0.48205
 C1887 C -0.06340 0.48312 0.48111
 C1888 C -0.05249 0.48639 0.48450
 H1889 H -0.13803 0.44303 0.47197
 H1890 H -0.11665 0.45127 0.47972
 H1891 H -0.11572 0.47897 0.44711
 H1892 H -0.13698 0.47046 0.43933
 H1893 H -0.09311 0.47178 0.44865
 H1894 H -0.07136 0.47931 0.45602
 H1895 H -0.08426 0.47776 0.49671
 H1896 H -0.10616 0.47045 0.48944
 C1897 C 0.33863 -0.05215 0.44824
 C1898 C 0.34891 -0.04799 0.45254
 C1899 C 0.36133 -0.04325 0.45752
 C1900 C 0.36574 -0.03056 0.45428
 C1901 C 0.37804 -0.02616 0.45873
 C1902 C 0.38610 -0.03444 0.46645
 C1903 C 0.38150 -0.04712 0.46976
 C1904 C 0.36921 -0.05149 0.46532
 C1905 C 0.39934 -0.02996 0.47080
 C1906 C 0.41011 -0.03867 0.47045
 C1907 C 0.42262 -0.03444 0.47438
 C1908 C 0.42456 -0.02147 0.47872
 C1909 C 0.41392 -0.01273 0.47914
 C1910 C 0.40139 -0.01694 0.47520
 C1911 C 0.43751 -0.01716 0.48259
 C1912 C 0.44845 -0.01374 0.48571
 H1913 H 0.35975 -0.02413 0.44820
 H1914 H 0.38136 -0.01641 0.45588
 H1915 H 0.38739 -0.05365 0.47584
 H1916 H 0.36588 -0.06133 0.46789
 H1917 H 0.40890 -0.04869 0.46693
 H1918 H 0.43080 -0.04127 0.47396
 H1919 H 0.41531 -0.00268 0.48250
 H1920 H 0.39327 -0.01005 0.47573
 C1921 C 0.34010 0.44437 -0.05564
 C1922 C 0.35033 0.44886 -0.05155
 C1923 C 0.36268 0.45404 -0.04685
 C1924 C 0.37336 0.45516 -0.05555
 C1925 C 0.38547 0.45989 -0.05098
 C1926 C 0.38708 0.46356 -0.03762
 C1927 C 0.37625 0.46251 -0.02896
 C1928 C 0.36413 0.45777 -0.03356
 C1929 C 0.40004 0.46831 -0.03272
 C1930 C 0.40085 0.47891 -0.02374
 C1931 C 0.41310 0.48336 -0.01919
 C1932 C 0.42467 0.47726 -0.02354
 C1933 C 0.42396 0.46669 -0.03244
 C1934 C 0.41174 0.46224 -0.03700
 C1935 C 0.43731 0.48180 -0.01897
 C1936 C 0.44804 0.48540 -0.01534
 H1937 H 0.37233 0.45233 -0.06587
 H1938 H 0.39356 0.46075 -0.05793
 H1939 H 0.37721 0.46512 -0.01859
 H1940 H 0.35594 0.45690 -0.02673
 H1941 H 0.39204 0.48387 -0.02038
 H1942 H 0.41354 0.49157 -0.01233
 H1943 H 0.43285 0.46187 -0.03584
 H1944 H 0.41144 0.45393 -0.04375
 C1945 C 0.41007 0.44441 0.80494
 C1946 C 0.39991 0.44881 0.80065
 C1947 C 0.38762 0.45384 0.79570
 C1948 C 0.38589 0.46742 0.79385
 C1949 C 0.37381 0.47229 0.78936
 C1950 C 0.36329 0.46362 0.78670
 C1951 C 0.36517 0.44999 0.78851
 C1952 C 0.37725 0.44515 0.79298
 C1953 C 0.35034 0.46876 0.78223
 C1954 C 0.33859 0.46334 0.78724
 C1955 C 0.32639 0.46807 0.78298
 C1956 C 0.32576 0.47829 0.77366
 C1957 C 0.33739 0.48380 0.76865
 C1958 C 0.34961 0.47908 0.77291
 C1959 C 0.31314 0.48295 0.76921
 C1960 C 0.30242 0.48658 0.76564
 H1961 H 0.39385 0.47424 0.79598
 H1962 H 0.37262 0.48284 0.78821
 H1963 H 0.35732 0.44306 0.78637
 H1964 H 0.37848 0.43462 0.79436
 H1965 H 0.33882 0.45552 0.79456
 H1966 H 0.31745 0.46376 0.78695
 H1967 H 0.33700 0.49169 0.76140
 H1968 H 0.35848 0.48336 0.76877
 C1969 C 0.41251 -0.05269 0.30290
 C1970 C 0.40226 -0.04834 0.29878
 C1971 C 0.38982 -0.04341 0.29410
 C1972 C 0.38918 -0.03156 0.28699
 C1973 C 0.37701 -0.02677 0.28264
 C1974 C 0.36534 -0.03376 0.28539
 C1975 C 0.36613 -0.04569 0.29248
 C1976 C 0.37828 -0.05047 0.29680
 C1977 C 0.35237 -0.02867 0.28095
 C1978 C 0.34133 -0.02959 0.28932
 C1979 C 0.32903 -0.02517 0.28505
 C1980 C 0.32757 -0.01977 0.27236
 C1981 C 0.33852 -0.01866 0.26399
 C1982 C 0.35086 -0.02306 0.26826
 C1983 C 0.31473 -0.01574 0.26791
 C1984 C 0.30378 -0.01271 0.26450
 H1985 H 0.39806 -0.02600 0.28488
 H1986 H 0.37671 -0.01749 0.27731
 H1987 H 0.35735 -0.05141 0.29457
 H1988 H 0.37867 -0.05967 0.30226
 H1989 H 0.34222 -0.03367 0.29921
 H1990 H 0.32062 -0.02606 0.29161
 H1991 H 0.33748 -0.01454 0.25413
 H1992 H 0.35915 -0.02235 0.26154
 C1993 C 0.08691 0.55282 0.69734
 C1994 C 0.09723 0.54869 0.70153
 C1995 C 0.10972 0.54404 0.70634
 C1996 C 0.11033 0.53337 0.71514
 C1997 C 0.12252 0.52894 0.71981
 C1998 C 0.13425 0.53516 0.71573
 C1999 C 0.13351 0.54585 0.70685
 C2000 C 0.12133 0.55024 0.70219
 C2001 C 0.14723 0.53057 0.72068
 C2002 C 0.15709 0.53974 0.72408
 C2003 C 0.16943 0.53545 0.72838
 C2004 C 0.17211 0.52196 0.72937
 C2005 C 0.16233 0.51274 0.72615
 C2006 C 0.14996 0.51701 0.72186
 C2007 C 0.18501 0.51766 0.73334
 C2008 C 0.19598 0.51440 0.73649
 H2009 H 0.10140 0.52851 0.71843
 H2010 H 0.12277 0.52079 0.72674
 H2011 H 0.14236 0.55071 0.70336
 H2012 H 0.12097 0.55847 0.69534
 H2013 H 0.15523 0.55024 0.72347
 H2014 H 0.17692 0.54267 0.73086
 H2015 H 0.16432 0.50226 0.72683
 H2016 H 0.14262 0.50971 0.71918
 C2017 C 0.08785 0.05220 0.19703
 C2018 C 0.09797 0.04771 0.20130
 C2019 C 0.11020 0.04246 0.20621
 C2020 C 0.11551 0.04712 0.21813
 C2021 C 0.12762 0.04236 0.22265
 C2022 C 0.13459 0.03289 0.21527
 C2023 C 0.12909 0.02817 0.20336
 C2024 C 0.11698 0.03294 0.19887
 C2025 C 0.14768 0.02818 0.21981
 C2026 C 0.15797 0.02636 0.21065
 C2027 C 0.17037 0.02219 0.21492
 C2028 C 0.17266 0.01977 0.22839
 C2029 C 0.16248 0.02147 0.23758
 C2030 C 0.15006 0.02565 0.23333
 C2031 C 0.18555 0.01580 0.23275
 C2032 C 0.19646 0.01263 0.23620
 H2033 H 0.11037 0.05454 0.22386
 H2034 H 0.13167 0.04631 0.23177
 H2035 H 0.13413 0.02076 0.19754
 H2036 H 0.11295 0.02926 0.18963
 H2037 H 0.15651 0.02841 0.20021
 H2038 H 0.17821 0.02098 0.20773
 H2039 H 0.16415 0.01961 0.24803
 H2040 H 0.14230 0.02681 0.24059
 C2041 C 0.66133 0.69686 0.19731
 C2042 C 0.65125 0.70128 0.20178
 C2043 C 0.63906 0.70643 0.20686
 C2044 C 0.63319 0.71734 0.20077
 C2045 C 0.62107 0.72202 0.20532
 C2046 C 0.61465 0.71584 0.21604
 C2047 C 0.62073 0.70499 0.22221
 C2048 C 0.63285 0.70031 0.21763
 C2049 C 0.60153 0.72049 0.22054
 C2050 C 0.59842 0.72104 0.23414
 C2051 C 0.58596 0.72517 0.23830
 C2052 C 0.57645 0.72879 0.22894
 C2053 C 0.57947 0.72834 0.21541
 C2054 C 0.59192 0.72423 0.21122
 C2055 C 0.56352 0.73277 0.23314
 C2056 C 0.55257 0.73601 0.23640
 H2057 H 0.63792 0.72216 0.19243
 H2058 H 0.61673 0.73050 0.20048
 H2059 H 0.61596 0.69992 0.23036
 H2060 H 0.63728 0.69182 0.22237
 H2061 H 0.60566 0.71837 0.24155
 H2062 H 0.58373 0.72550 0.24881
 H2063 H 0.57216 0.73106 0.20808
 H2064 H 0.59393 0.72373 0.20069
 C2065 C 0.16248 0.69747 0.69739
 C2066 C 0.15220 0.70163 0.70163
 C2067 C 0.13973 0.70635 0.70642
 C2068 C 0.13906 0.71778 0.71419
 C2069 C 0.12686 0.72241 0.71863
 C2070 C 0.11518 0.71567 0.71530
 C2071 C 0.11600 0.70415 0.70756
 C2072 C 0.12818 0.69954 0.70316
 C2073 C 0.10218 0.72063 0.71979
 C2074 C 0.09128 0.72030 0.71118
 C2075 C 0.07896 0.72467 0.71544
 C2076 C 0.07733 0.72944 0.72836
 C2077 C 0.08813 0.72995 0.73698
 C2078 C 0.10049 0.72559 0.73272
 C2079 C 0.06449 0.73353 0.73274
 C2080 C 0.05354 0.73668 0.73607
 H2081 H 0.14794 0.72314 0.71674
 H2082 H 0.12653 0.73137 0.72445
 H2083 H 0.10721 0.69864 0.70501
 H2084 H 0.12860 0.69067 0.69718
 H2085 H 0.09230 0.71673 0.70111
 H2086 H 0.07067 0.72426 0.70868
 H2087 H 0.08696 0.73358 0.74701
 H2088 H 0.10866 0.72584 0.73962
 C2089 C 0.58759 0.19813 0.55235
 C2090 C 0.59789 0.20250 0.54833
 C2091 C 0.61034 0.20756 0.54376
 C2092 C 0.61472 0.20475 0.53090
 C2093 C 0.62704 0.20926 0.52664
 C2094 C 0.63516 0.21661 0.53522
 C2095 C 0.63060 0.21949 0.54808
 C2096 C 0.61828 0.21499 0.55231
 C2097 C 0.64843 0.22104 0.53088
 C2098 C 0.65920 0.22035 0.53962
 C2099 C 0.67173 0.22437 0.53552
 C2100 C 0.67367 0.22913 0.52264
 C2101 C 0.66302 0.22989 0.51386
 C2102 C 0.65048 0.22586 0.51794
 C2103 C 0.68663 0.23313 0.51846
 C2104 C 0.69758 0.23638 0.51517
 H2105 H 0.60867 0.19895 0.52422
 H2106 H 0.63033 0.20675 0.51675
 H2107 H 0.63654 0.22528 0.55485
 H2108 H 0.61498 0.21722 0.56228
 H2109 H 0.65799 0.21650 0.54957
 H2110 H 0.67991 0.22369 0.54238
 H2111 H 0.66442 0.23359 0.50387
 H2112 H 0.64235 0.22665 0.51103
 C2113 C 0.58887 0.69717 0.05304
 C2114 C 0.59906 0.70161 0.04883
 C2115 C 0.61139 0.70672 0.04400
 C2116 C 0.61482 0.70527 0.03063
 C2117 C 0.62704 0.70978 0.02608
 C2118 C 0.63599 0.71579 0.03488
 C2119 C 0.63238 0.71733 0.04826
 C2120 C 0.62016 0.71282 0.05278
 C2121 C 0.64915 0.72019 0.03019
 C2122 C 0.66039 0.71808 0.03807
 C2123 C 0.67280 0.72215 0.03367
 C2124 C 0.67417 0.72837 0.02136
 C2125 C 0.66306 0.73051 0.01343
 C2126 C 0.65063 0.72644 0.01780
 C2127 C 0.68699 0.73253 0.01694
 C2128 C 0.69786 0.73591 0.01353
 H2129 H 0.60813 0.70050 0.02376
 H2130 H 0.62960 0.70832 0.01576
 H2131 H 0.63897 0.72207 0.05523
 H2132 H 0.61760 0.71400 0.06315
 H2133 H 0.65962 0.71312 0.04755
 H2134 H 0.68134 0.72040 0.03987
 H2135 H 0.66401 0.73535 0.00389
 H2136 H 0.64215 0.72832 0.01158
 C2137 C 0.16334 0.05245 0.05225
 C2138 C 0.15334 0.04804 0.04755
 C2139 C 0.14125 0.04296 0.04212
 C2140 C 0.13422 0.03317 0.04891
 C2141 C 0.12217 0.02866 0.04397
 C2142 C 0.11696 0.03391 0.03216
 C2143 C 0.12419 0.04362 0.02531
 C2144 C 0.13625 0.04811 0.03027
 C2145 C 0.10386 0.02957 0.02725
 C2146 C 0.09489 0.03882 0.02213
 C2147 C 0.08237 0.03484 0.01798
 C2148 C 0.07863 0.02158 0.01887
 C2149 C 0.08753 0.01226 0.02381
 C2150 C 0.10007 0.01622 0.02797
 C2151 C 0.06552 0.01765 0.01515
 C2152 C 0.05442 0.01458 0.01223
 H2153 H 0.13797 0.02917 0.05813
 H2154 H 0.11676 0.02131 0.04957
 H2155 H 0.12052 0.04773 0.01611
 H2156 H 0.14161 0.05569 0.02493
 H2157 H 0.09743 0.04919 0.02163
 H2158 H 0.07553 0.04215 0.01425
 H2159 H 0.08474 0.00197 0.02454
 H2160 H 0.10680 0.00885 0.03172
 C2161 C 0.16330 0.55294 0.55182
 C2162 C 0.15325 0.54846 0.54733
 C2163 C 0.14110 0.54328 0.54212
 C2164 C 0.13644 0.54754 0.52979
 C2165 C 0.12437 0.54292 0.52497
 C2166 C 0.11680 0.53396 0.53245
 C2167 C 0.12165 0.52961 0.54477
 C2168 C 0.13372 0.53426 0.54957
 C2169 C 0.10373 0.52944 0.52761
 C2170 C 0.09969 0.51626 0.52934
 C2171 C 0.08720 0.51216 0.52517
 C2172 C 0.07860 0.52116 0.51921
 C2173 C 0.08258 0.53425 0.51733
 C2174 C 0.09506 0.53837 0.52148
 C2175 C 0.06555 0.51712 0.51541
 C2176 C 0.05449 0.51398 0.51240
 H2177 H 0.14208 0.55452 0.52393
 H2178 H 0.12098 0.54632 0.51538
 H2179 H 0.11598 0.52287 0.55085
 H2180 H 0.13720 0.53095 0.55917
 H2181 H 0.10619 0.50912 0.53388
 H2182 H 0.08421 0.50200 0.52668
 H2183 H 0.07598 0.54132 0.51280
 H2184 H 0.09780 0.54862 0.52018
 C2185 C 0.66446 0.05381 0.55113
 C2186 C 0.65443 0.04947 0.54645
 C2187 C 0.64229 0.04446 0.54105
 C2188 C 0.63538 0.05183 0.53160
 C2189 C 0.62329 0.04728 0.52679
 C2190 C 0.61793 0.03530 0.53137
 C2191 C 0.62505 0.02787 0.54072
 C2192 C 0.63715 0.03244 0.54553
 C2193 C 0.60480 0.03077 0.52672
 C2194 C 0.60243 0.01734 0.52402
 C2195 C 0.58994 0.01309 0.51999
 C2196 C 0.57968 0.02218 0.51861
 C2197 C 0.58198 0.03556 0.52117
 C2198 C 0.59444 0.03983 0.52519
 C2199 C 0.56670 0.01784 0.51488
 C2200 C 0.55568 0.01451 0.51196
 H2201 H 0.63928 0.06114 0.52806
 H2202 H 0.61813 0.05314 0.51946
 H2203 H 0.62112 0.01870 0.54457
 H2204 H 0.64239 0.02670 0.55289
 H2205 H 0.61024 0.01016 0.52497
 H2206 H 0.58826 0.00271 0.51803
 H2207 H 0.57409 0.04267 0.52021
 H2208 H 0.59590 0.05019 0.52738
 C2209 C 0.66364 0.55310 0.05137
 C2210 C 0.65370 0.54848 0.04674
 C2211 C 0.64166 0.54315 0.04142
 C2212 C 0.63479 0.53338 0.04838
 C2213 C 0.62277 0.52864 0.04355
 C2214 C 0.61745 0.53365 0.03168
 C2215 C 0.62454 0.54334 0.02466
 C2216 C 0.63656 0.54806 0.02951
 C2217 C 0.60437 0.52910 0.02690
 C2218 C 0.59529 0.53818 0.02168
 C2219 C 0.58279 0.53402 0.01765
 C2220 C 0.57919 0.52074 0.01877
 C2221 C 0.58819 0.51159 0.02380
 C2222 C 0.60071 0.51573 0.02785
 C2223 C 0.56610 0.51664 0.01513
 C2224 C 0.55501 0.51349 0.01225
 H2225 H 0.63861 0.52956 0.05764
 H2226 H 0.61747 0.52131 0.04928
 H2227 H 0.62079 0.54728 0.01542
 H2228 H 0.64180 0.55563 0.02403
 H2229 H 0.59773 0.54857 0.02101
 H2230 H 0.57587 0.54120 0.01384
 H2231 H 0.58550 0.50127 0.02471
 H2232 H 0.60753 0.50848 0.03168
 C2233 C 0.05347 0.05267 0.16360
 C2234 C 0.04892 0.04826 0.15348
 C2235 C 0.04367 0.04315 0.14126
 C2236 C 0.04772 0.03081 0.13658
 C2237 C 0.04304 0.02608 0.12442
 C2238 C 0.03426 0.03365 0.11678
 C2239 C 0.03012 0.04596 0.12166
 C2240 C 0.03481 0.05068 0.13381
 C2241 C 0.02971 0.02889 0.10361
 C2242 C 0.01661 0.03082 0.09951
 C2243 C 0.01250 0.02675 0.08692
 C2244 C 0.02141 0.02070 0.07827
 C2245 C 0.03442 0.01861 0.08231
 C2246 C 0.03855 0.02267 0.09489
 C2247 C 0.01737 0.01700 0.06510
 C2248 C 0.01422 0.01406 0.05395
 H2249 H 0.05457 0.02490 0.14226
 H2250 H 0.04628 0.01649 0.12102
 H2251 H 0.02351 0.05210 0.11594
 H2252 H 0.03167 0.06027 0.13731
 H2253 H 0.00954 0.03544 0.10606
 H2254 H 0.00240 0.02841 0.08389
 H2255 H 0.04142 0.01401 0.07566
 H2256 H 0.04874 0.02121 0.09767
 C2257 C 0.05180 0.55199 0.66376
 C2258 C 0.04726 0.54745 0.65369
 C2259 C 0.04207 0.54223 0.64149
 C2260 C 0.03267 0.54936 0.63433
 C2261 C 0.02812 0.54464 0.62213
 C2262 C 0.03293 0.53271 0.61692
 C2263 C 0.04223 0.52551 0.62430
 C2264 C 0.04677 0.53025 0.63650
 C2265 C 0.02860 0.52803 0.60365
 C2266 C 0.03775 0.52259 0.59472
 C2267 C 0.03380 0.51863 0.58205
 C2268 C 0.02066 0.52003 0.57813
 C2269 C 0.01144 0.52529 0.58697
 C2270 C 0.01537 0.52927 0.59966
 C2271 C 0.01678 0.51640 0.56489
 C2272 C 0.01378 0.51351 0.55369
 H2273 H 0.02903 0.55868 0.63807
 H2274 H 0.02109 0.55050 0.61661
 H2275 H 0.04600 0.51622 0.62063
 H2276 H 0.05404 0.52465 0.64196
 H2277 H 0.04802 0.52169 0.59741
 H2278 H 0.04103 0.51464 0.57526
 H2279 H 0.00125 0.52641 0.58403
 H2280 H 0.00807 0.53327 0.60636
 C2281 C 0.55257 0.05281 0.66432
 C2282 C 0.54833 0.04865 0.65396
 C2283 C 0.54346 0.04398 0.64140
 C2284 C 0.54262 0.03044 0.63882
 C2285 C 0.53833 0.02599 0.62641
 C2286 C 0.53487 0.03504 0.61641
 C2287 C 0.53562 0.04863 0.61918
 C2288 C 0.53989 0.05305 0.63158
 C2289 C 0.53074 0.03038 0.60308
 C2290 C 0.53521 0.03692 0.59160
 C2291 C 0.53133 0.03260 0.57903
 C2292 C 0.52295 0.02171 0.57773
 C2293 C 0.51847 0.01510 0.58907
 C2294 C 0.52236 0.01940 0.60168
 C2295 C 0.51896 0.01742 0.56473
 C2296 C 0.51580 0.01415 0.55368
 H2297 H 0.54542 0.02334 0.64633
 H2298 H 0.53800 0.01547 0.62453
 H2299 H 0.53284 0.05584 0.61177
 H2300 H 0.54048 0.06356 0.63349
 H2301 H 0.54183 0.04527 0.59233
 H2302 H 0.53489 0.03776 0.57032
 H2303 H 0.51196 0.00667 0.58818
 H2304 H 0.51865 0.01425 0.61033
 C2305 C 0.55276 0.55308 0.16326
 C2306 C 0.54826 0.54847 0.15321
 C2307 C 0.54305 0.54317 0.14105
 C2308 C 0.55014 0.53364 0.13402
 C2309 C 0.54541 0.52892 0.12189
 C2310 C 0.53351 0.53371 0.11662
 C2311 C 0.52637 0.54316 0.12386
 C2312 C 0.53112 0.54785 0.13599
 C2313 C 0.52880 0.52917 0.10343
 C2314 C 0.52339 0.53822 0.09436
 C2315 C 0.51939 0.53407 0.08177
 C2316 C 0.52071 0.52084 0.07806
 C2317 C 0.52595 0.51173 0.08705
 C2318 C 0.52997 0.51586 0.09966
 C2319 C 0.51706 0.51676 0.06489
 C2320 C 0.51415 0.51362 0.05374
 H2321 H 0.55943 0.52999 0.13782
 H2322 H 0.55122 0.52178 0.11648
 H2323 H 0.51710 0.54691 0.12014
 H2324 H 0.52555 0.55523 0.14136
 H2325 H 0.52254 0.54856 0.09688
 H2326 H 0.51542 0.54122 0.07486
 H2327 H 0.52702 0.50146 0.08428
 H2328 H 0.53396 0.50863 0.10647
 C2329 C 0.19781 0.55273 0.58608
 C2330 C 0.20242 0.54825 0.59613
 C2331 C 0.20779 0.54315 0.60829
 C2332 C 0.20190 0.53230 0.61453
 C2333 C 0.20674 0.52775 0.62668
 C2334 C 0.21753 0.53403 0.63277
 C2335 C 0.22351 0.54481 0.62632
 C2336 C 0.21866 0.54933 0.61417
 C2337 C 0.22227 0.52962 0.64599
 C2338 C 0.22584 0.53893 0.65569
 C2339 C 0.22987 0.53484 0.66829
 C2340 C 0.23041 0.52139 0.67136
 C2341 C 0.22700 0.51203 0.66175
 C2342 C 0.22295 0.51611 0.64913
 C2343 C 0.23408 0.51729 0.68452
 C2344 C 0.23696 0.51412 0.69567
 H2345 H 0.19344 0.52749 0.61010
 H2346 H 0.20182 0.51955 0.63147
 H2347 H 0.23193 0.54973 0.63067
 H2348 H 0.22330 0.55774 0.60943
 H2349 H 0.22523 0.54940 0.65365
 H2350 H 0.23241 0.54217 0.67568
 H2351 H 0.22739 0.50159 0.66403
 H2352 H 0.22041 0.50870 0.64183
 C2353 C 0.19590 0.05239 0.08747
 C2354 C 0.19994 0.04804 0.09783
 C2355 C 0.20456 0.04297 0.11032
 C2356 C 0.21800 0.04329 0.11339
 C2357 C 0.22242 0.03870 0.12570
 C2358 C 0.21343 0.03375 0.13511
 C2359 C 0.19996 0.03336 0.13186
 C2360 C 0.19557 0.03794 0.11956
 C2361 C 0.21804 0.02921 0.14833
 C2362 C 0.21079 0.03225 0.15982
 C2363 C 0.21515 0.02808 0.17228
 C2364 C 0.22679 0.02082 0.17344
 C2365 C 0.23407 0.01773 0.16208
 C2366 C 0.22973 0.02190 0.14959
 C2367 C 0.23125 0.01666 0.18633
 C2368 C 0.23480 0.01335 0.19724
 H2369 H 0.22504 0.04721 0.10634
 H2370 H 0.23282 0.03927 0.12796
 H2371 H 0.19282 0.02944 0.13881
 H2372 H 0.18515 0.03763 0.11727
 H2373 H 0.20186 0.03802 0.15920
 H2374 H 0.20946 0.03057 0.18102
 H2375 H 0.24309 0.01209 0.16287
 H2376 H 0.23545 0.01928 0.14092
 C2377 C 0.69605 0.19631 0.66384
 C2378 C 0.70024 0.20079 0.65359
 C2379 C 0.70505 0.20598 0.64121
 C2380 C 0.69657 0.21295 0.63283
 C2381 C 0.70107 0.21760 0.62058
 C2382 C 0.71413 0.21533 0.61654
 C2383 C 0.72263 0.20844 0.62511
 C2384 C 0.71810 0.20378 0.63735
 C2385 C 0.71879 0.21994 0.60336
 C2386 C 0.73146 0.22539 0.60184
 C2387 C 0.73584 0.22959 0.58937
 C2388 C 0.72764 0.22838 0.57828
 C2389 C 0.71502 0.22299 0.57970
 C2390 C 0.71062 0.21880 0.59214
 C2391 C 0.73214 0.23256 0.56541
 C2392 C 0.73572 0.23595 0.55453
 H2393 H 0.68645 0.21471 0.63572
 H2394 H 0.69434 0.22303 0.61429
 H2395 H 0.73268 0.20639 0.62221
 H2396 H 0.72473 0.19834 0.64374
 H2397 H 0.73792 0.22653 0.61031
 H2398 H 0.74562 0.23377 0.58839
 H2399 H 0.70861 0.22196 0.57116
 H2400 H 0.70089 0.21447 0.59294
 C2401 C 0.69516 0.69693 0.16242
 C2402 C 0.69941 0.70133 0.15216
 C2403 C 0.70429 0.70640 0.13976
 C2404 C 0.69551 0.71161 0.13044
 C2405 C 0.70013 0.71616 0.11821
 C2406 C 0.71363 0.71555 0.11511
 C2407 C 0.72240 0.71042 0.12460
 C2408 C 0.71775 0.70586 0.13684
 C2409 C 0.71848 0.72006 0.10197
 C2410 C 0.73034 0.72720 0.10086
 C2411 C 0.73488 0.73138 0.08845
 C2412 C 0.72766 0.72847 0.07699
 C2413 C 0.71587 0.72136 0.07799
 C2414 C 0.71131 0.71718 0.09038
 C2415 C 0.73227 0.73272 0.06418
 C2416 C 0.73591 0.73616 0.05333
 H2417 H 0.68507 0.71209 0.13261
 H2418 H 0.69316 0.72022 0.11119
 H2419 H 0.73282 0.70968 0.12246
 H2420 H 0.72462 0.70179 0.14396
 H2421 H 0.73600 0.72969 0.10961
 H2422 H 0.74400 0.73691 0.08779
 H2423 H 0.71022 0.71901 0.06917
 H2424 H 0.70226 0.71154 0.09087
 C2425 C 0.55431 0.69652 0.08721
 C2426 C 0.54985 0.70071 0.09745
 C2427 C 0.54468 0.70552 0.10983
 C2428 C 0.53627 0.69757 0.11739
 C2429 C 0.53162 0.70200 0.12965
 C2430 C 0.53534 0.71448 0.13452
 C2431 C 0.54368 0.72247 0.12676
 C2432 C 0.54832 0.71801 0.11451
 C2433 C 0.53073 0.71903 0.14773
 C2434 C 0.52690 0.73221 0.14972
 C2435 C 0.52269 0.73647 0.16222
 C2436 C 0.52228 0.72762 0.17288
 C2437 C 0.52605 0.71449 0.17099
 C2438 C 0.53024 0.71021 0.15851
 C2439 C 0.51807 0.73198 0.18578
 C2440 C 0.51462 0.73544 0.19668
 H2441 H 0.53338 0.68789 0.11386
 H2442 H 0.52508 0.69570 0.13530
 H2443 H 0.54685 0.73205 0.13031
 H2444 H 0.55488 0.72422 0.10875
 H2445 H 0.52702 0.73919 0.14159
 H2446 H 0.51977 0.74666 0.16357
 H2447 H 0.52582 0.70757 0.17919
 H2448 H 0.53331 0.70006 0.15735
 C2449 C 0.05398 0.69714 0.58603
 C2450 C 0.04976 0.70138 0.59636
 C2451 C 0.04490 0.70620 0.60886
 C2452 C 0.04797 0.69946 0.62056
 C2453 C 0.04339 0.70410 0.63276
 C2454 C 0.03565 0.71558 0.63343
 C2455 C 0.03255 0.72226 0.62159
 C2456 C 0.03716 0.71760 0.60938
 C2457 C 0.03091 0.72054 0.64643
 C2458 C 0.01803 0.72544 0.64786
 C2459 C 0.01353 0.72981 0.66021
 C2460 C 0.02185 0.72938 0.67128
 C2461 C 0.03471 0.72464 0.66992
 C2462 C 0.03922 0.72026 0.65760
 C2463 C 0.01723 0.73351 0.68411
 C2464 C 0.01371 0.73672 0.69506
 H2465 H 0.05391 0.69060 0.62026
 H2466 H 0.04578 0.69863 0.64166
 H2467 H 0.02674 0.73120 0.62180
 H2468 H 0.03475 0.72291 0.60038
 H2469 H 0.01136 0.72565 0.63948
 H2470 H 0.00354 0.73342 0.66116
 H2471 H 0.04124 0.72429 0.67841
 H2472 H 0.04924 0.71674 0.65679
 C2473 C 0.55308 0.58803 0.19710
 C2474 C 0.54873 0.59820 0.20145
 C2475 C 0.54374 0.61048 0.20652
 C2476 C 0.53218 0.61589 0.20129
 C2477 C 0.52760 0.62806 0.20588
 C2478 C 0.53454 0.63499 0.21575
 C2479 C 0.54608 0.62940 0.22104
 C2480 C 0.55063 0.61723 0.21645
 C2481 C 0.52994 0.64813 0.22031
 C2482 C 0.53903 0.65838 0.22260
 C2483 C 0.53472 0.67082 0.22665
 C2484 C 0.52128 0.67320 0.22848
 C2485 C 0.51215 0.66307 0.22630
 C2486 C 0.51645 0.65060 0.22223
 C2487 C 0.51690 0.68611 0.23240
 C2488 C 0.51344 0.69703 0.23557
 H2489 H 0.52680 0.61077 0.19356
 H2490 H 0.51879 0.63218 0.20149
 H2491 H 0.55154 0.63441 0.22877
 H2492 H 0.55958 0.61312 0.22057
 H2493 H 0.54946 0.65685 0.22102
 H2494 H 0.54186 0.67862 0.22825
 H2495 H 0.50172 0.66480 0.22770
 H2496 H 0.50923 0.64288 0.22070
 C2497 C 0.05261 0.58695 0.69755
 C2498 C 0.04843 0.59725 0.70176
 C2499 C 0.04367 0.60974 0.70652
 C2500 C 0.03232 0.61038 0.71437
 C2501 C 0.02765 0.62260 0.71878
 C2502 C 0.03427 0.63432 0.71534
 C2503 C 0.04572 0.63354 0.70752
 C2504 C 0.05037 0.62134 0.70315
 C2505 C 0.02925 0.64735 0.71977
 C2506 C 0.02946 0.65821 0.71108
 C2507 C 0.02504 0.67056 0.71529
 C2508 C 0.02033 0.67223 0.72822
 C2509 C 0.01996 0.66147 0.73692
 C2510 C 0.02437 0.64909 0.73272
 C2511 C 0.01620 0.68510 0.73254
 C2512 C 0.01300 0.69607 0.73582
 H2513 H 0.02704 0.60146 0.71701
 H2514 H 0.01874 0.62289 0.72467
 H2515 H 0.05115 0.64237 0.70488
 H2516 H 0.05919 0.62095 0.69712
 H2517 H 0.03297 0.65715 0.70099
 H2518 H 0.02535 0.67881 0.70846
 H2519 H 0.01638 0.66267 0.74697
 H2520 H 0.02422 0.64094 0.73967
 C2521 C 0.05107 0.16483 0.05100
 C2522 C 0.04658 0.15475 0.04652
 C2523 C 0.04142 0.14256 0.04133
 C2524 C 0.04557 0.13795 0.02894
 C2525 C 0.04103 0.12581 0.02418
 C2526 C 0.03228 0.11811 0.03177
 C2527 C 0.02803 0.12293 0.04414
 C2528 C 0.03258 0.13507 0.04888
 C2529 C 0.02793 0.10493 0.02703
 C2530 C 0.01487 0.10064 0.02896
 C2531 C 0.01096 0.08802 0.02496
 C2532 C 0.02003 0.07953 0.01897
 C2533 C 0.03299 0.08375 0.01686
 C2534 C 0.03692 0.09637 0.02084
 C2535 C 0.01622 0.06632 0.01538
 C2536 C 0.01326 0.05514 0.01255
 H2537 H 0.05240 0.14368 0.02301
 H2538 H 0.04435 0.12245 0.01455
 H2539 H 0.02144 0.11716 0.05030
 H2540 H 0.02937 0.13851 0.05852
 H2541 H 0.00769 0.10706 0.03355
 H2542 H 0.00091 0.08485 0.02664
 H2543 H 0.04011 0.07723 0.01230
 H2544 H 0.04707 0.09929 0.01939
 C2545 C 0.05284 0.66350 0.55093
 C2546 C 0.04817 0.65353 0.54638
 C2547 C 0.04280 0.64146 0.54114
 C2548 C 0.04687 0.63684 0.52873
 C2549 C 0.04215 0.62478 0.52392
 C2550 C 0.03330 0.61718 0.53150
 C2551 C 0.02911 0.62203 0.54388
 C2552 C 0.03385 0.63408 0.54866
 C2553 C 0.02878 0.60407 0.52672
 C2554 C 0.01567 0.59995 0.52864
 C2555 C 0.01160 0.58739 0.52460
 C2556 C 0.02057 0.57879 0.51861
 C2557 C 0.03358 0.58285 0.51652
 C2558 C 0.03766 0.59540 0.52053
 C2559 C 0.01660 0.56563 0.51500
 C2560 C 0.01355 0.55449 0.51214
 H2561 H 0.05380 0.64248 0.52282
 H2562 H 0.04543 0.62140 0.51429
 H2563 H 0.02245 0.61634 0.55002
 H2564 H 0.03069 0.63754 0.55832
 H2565 H 0.00856 0.60645 0.53323
 H2566 H 0.00150 0.58434 0.52627
 H2567 H 0.04062 0.57625 0.51196
 H2568 H 0.04786 0.59820 0.51909
 C2569 C 0.55289 0.16425 0.55067
 C2570 C 0.54852 0.15423 0.54596
 C2571 C 0.54352 0.14207 0.54056
 C2572 C 0.55047 0.13555 0.53054
 C2573 C 0.54602 0.12339 0.52578
 C2574 C 0.53454 0.11756 0.53099
 C2575 C 0.52749 0.12430 0.54091
 C2576 C 0.53197 0.13647 0.54566
 C2577 C 0.53018 0.10432 0.52643
 C2578 C 0.51673 0.10151 0.52455
 C2579 C 0.51267 0.08889 0.52065
 C2580 C 0.52198 0.07895 0.51859
 C2581 C 0.53538 0.08169 0.52034
 C2582 C 0.53946 0.09427 0.52422
 C2583 C 0.51786 0.06583 0.51500
 C2584 C 0.51472 0.05471 0.51218
 H2585 H 0.55942 0.13980 0.52652
 H2586 H 0.55156 0.11852 0.51802
 H2587 H 0.51872 0.12000 0.54524
 H2588 H 0.52655 0.14140 0.55347
 H2589 H 0.50937 0.10907 0.52604
 H2590 H 0.50227 0.08688 0.51932
 H2591 H 0.54266 0.07404 0.51884
 H2592 H 0.54986 0.09606 0.52578
 C2593 C 0.55474 0.66271 0.05223
 C2594 C 0.55055 0.65255 0.04767
 C2595 C 0.54583 0.64021 0.04244
 C2596 C 0.55456 0.62968 0.04083
 C2597 C 0.54999 0.61752 0.03619
 C2598 C 0.53660 0.61571 0.03310
 C2599 C 0.52791 0.62640 0.03459
 C2600 C 0.53251 0.63857 0.03925
 C2601 C 0.53171 0.60263 0.02861
 C2602 C 0.52234 0.60162 0.01837
 C2603 C 0.51783 0.58925 0.01417
 C2604 C 0.52261 0.57777 0.02017
 C2605 C 0.53188 0.57868 0.03039
 C2606 C 0.53640 0.59101 0.03459
 C2607 C 0.51811 0.56498 0.01591
 C2608 C 0.51467 0.55406 0.01267
 H2609 H 0.56489 0.63084 0.04324
 H2610 H 0.55695 0.60954 0.03496
 H2611 H 0.51753 0.62528 0.03243
 H2612 H 0.52566 0.64665 0.04051
 H2613 H 0.51864 0.61038 0.01349
 H2614 H 0.51066 0.58865 0.00623
 H2615 H 0.53561 0.56986 0.03513
 H2616 H 0.54346 0.59146 0.04263
 C2617 C 0.69758 0.08748 0.55264
 C2618 C 0.70200 0.09777 0.54860
 C2619 C 0.70714 0.11019 0.54396
 C2620 C 0.71711 0.11660 0.55106
 C2621 C 0.72179 0.12889 0.54683
 C2622 C 0.71654 0.13492 0.53543
 C2623 C 0.70661 0.12832 0.52828
 C2624 C 0.70194 0.11604 0.53253
 C2625 C 0.72121 0.14816 0.53116
 C2626 C 0.72306 0.15106 0.51763
 C2627 C 0.72723 0.16361 0.51365
 C2628 C 0.72958 0.17343 0.52312
 C2629 C 0.72782 0.17063 0.53660
 C2630 C 0.72367 0.15809 0.54061
 C2631 C 0.73360 0.18644 0.51905
 C2632 C 0.73685 0.19741 0.51579
 H2633 H 0.72121 0.11215 0.55991
 H2634 H 0.72955 0.13363 0.55245
 H2635 H 0.70226 0.13279 0.51956
 H2636 H 0.69417 0.11119 0.52700
 H2637 H 0.72140 0.14358 0.51014
 H2638 H 0.72857 0.16567 0.50319
 H2639 H 0.72955 0.17817 0.54401
 H2640 H 0.72215 0.15623 0.55108
 C2641 C 0.69717 0.58819 0.05219
 C2642 C 0.70154 0.59844 0.04796
 C2643 C 0.70666 0.61080 0.04316
 C2644 C 0.70179 0.61630 0.03141
 C2645 C 0.70644 0.62855 0.02702
 C2646 C 0.71602 0.63546 0.03436
 C2647 C 0.72095 0.62977 0.04608
 C2648 C 0.71629 0.61752 0.05044
 C2649 C 0.72065 0.64867 0.02996
 C2650 C 0.72265 0.65883 0.03927
 C2651 C 0.72682 0.67132 0.03514
 C2652 C 0.72906 0.67385 0.02168
 C2653 C 0.72715 0.66381 0.01234
 C2654 C 0.72297 0.65130 0.01645
 C2655 C 0.73316 0.68680 0.01750
 C2656 C 0.73648 0.69774 0.01418
 H2657 H 0.69429 0.61120 0.02573
 H2658 H 0.70234 0.63274 0.01806
 H2659 H 0.72845 0.63476 0.05185
 H2660 H 0.72014 0.61335 0.05955
 H2661 H 0.72076 0.65719 0.04971
 H2662 H 0.72821 0.67904 0.04245
 H2663 H 0.72888 0.66565 0.00190
 H2664 H 0.72166 0.64364 0.00907
 C2665 C 0.19703 0.66361 0.69764
 C2666 C 0.20130 0.65343 0.70207
 C2667 C 0.20608 0.64107 0.70717
 C2668 C 0.19715 0.63100 0.71025
 C2669 C 0.20169 0.61881 0.71479
 C2670 C 0.21527 0.61652 0.71630
 C2671 C 0.22418 0.62676 0.71334
 C2672 C 0.21960 0.63896 0.70878
 C2673 C 0.22007 0.60340 0.72072
 C2674 C 0.23055 0.60234 0.72980
 C2675 C 0.23496 0.58994 0.73397
 C2676 C 0.22897 0.57847 0.72909
 C2677 C 0.21860 0.57944 0.72001
 C2678 C 0.21418 0.59180 0.71585
 C2679 C 0.23334 0.56566 0.73334
 C2680 C 0.23663 0.55472 0.73663
 H2681 H 0.18666 0.63254 0.70906
 H2682 H 0.19458 0.61119 0.71717
 H2683 H 0.23468 0.62525 0.71428
 H2684 H 0.22660 0.64668 0.70639
 H2685 H 0.23520 0.61109 0.73382
 H2686 H 0.24298 0.58930 0.74102
 H2687 H 0.21393 0.57063 0.71613
 H2688 H 0.20624 0.59228 0.70869
 C2689 C 0.19591 0.16175 0.19818
 C2690 C 0.20009 0.15145 0.20239
 C2691 C 0.20489 0.13902 0.20727
 C2692 C 0.19675 0.13101 0.21508
 C2693 C 0.20121 0.11873 0.21947
 C2694 C 0.21388 0.11427 0.21608
 C2695 C 0.22204 0.12246 0.20833
 C2696 C 0.21756 0.13474 0.20394
 C2697 C 0.21848 0.10106 0.22042
 C2698 C 0.23150 0.09920 0.22480
 C2699 C 0.23580 0.08671 0.22878
 C2700 C 0.22717 0.07594 0.22842
 C2701 C 0.21420 0.07770 0.22409
 C2702 C 0.20987 0.09016 0.22012
 C2703 C 0.23157 0.06306 0.23241
 C2704 C 0.23507 0.05218 0.23568
 H2705 H 0.18693 0.13423 0.21772
 H2706 H 0.19477 0.11274 0.22557
 H2707 H 0.23178 0.11924 0.20542
 H2708 H 0.22391 0.14084 0.19784
 H2709 H 0.23831 0.10742 0.22529
 H2710 H 0.24586 0.08546 0.23214
 H2711 H 0.20745 0.06941 0.22373
 H2712 H 0.19986 0.09123 0.21662
 C2713 C 0.69678 1.16280 0.69822
 C2714 C 0.70144 1.15279 0.70265
 C2715 C 0.70682 1.14068 0.70773
 C2716 C 0.71902 1.13615 0.70321
 C2717 C 0.72396 1.12408 0.70769
 C2718 C 0.71673 1.11636 0.71675
 C2719 C 0.70455 1.12110 0.72137
 C2720 C 0.69963 1.13317 0.71688
 C2721 C 0.72165 1.10326 0.72106
 C2722 C 0.72015 1.09906 0.73428
 C2723 C 0.72433 1.08650 0.73818
 C2724 C 0.73006 1.07799 0.72892
 C2725 C 0.73174 1.08213 0.71578
 C2726 C 0.72759 1.09468 0.71187
 C2727 C 0.73381 1.06485 0.73274
 C2728 C 0.73674 1.05373 0.73575
 H2729 H 0.72467 1.14189 0.69613
 H2730 H 0.73343 1.12078 0.70407
 H2731 H 0.69866 1.11532 0.72820
 H2732 H 0.69014 1.13655 0.72038
 H2733 H 0.71577 1.10549 0.74162
 H2734 H 0.72297 1.08340 0.74837
 H2735 H 0.73610 1.07559 0.70851
 H2736 H 0.72871 1.09754 0.70158
 C2737 C 0.69559 0.66264 0.19692
 C2738 C 0.70005 0.65247 0.20118
 C2739 C 0.70519 0.64014 0.20597
 C2740 C 0.70122 0.62832 0.20001
 C2741 C 0.70620 0.61630 0.20452
 C2742 C 0.71525 0.61592 0.21508
 C2743 C 0.71916 0.62785 0.22106
 C2744 C 0.71416 0.63988 0.21651
 C2745 C 0.72052 0.60310 0.21981
 C2746 C 0.72197 0.60057 0.23347
 C2747 C 0.72647 0.58829 0.23788
 C2748 C 0.72964 0.57843 0.22871
 C2749 C 0.72842 0.58093 0.21512
 C2750 C 0.72391 0.59317 0.21069
 C2751 C 0.73366 0.56557 0.23316
 C2752 C 0.73677 0.55460 0.23654
 H2753 H 0.69424 0.62840 0.19187
 H2754 H 0.70284 0.60728 0.19985
 H2755 H 0.72621 0.62788 0.22911
 H2756 H 0.71732 0.64898 0.22118
 H2757 H 0.71931 0.60796 0.24073
 H2758 H 0.72732 0.58643 0.24843
 H2759 H 0.73084 0.57336 0.20793
 H2760 H 0.72309 0.59488 0.20012
 C2761 C 0.55248 0.08601 0.69806
 C2762 C 0.54826 0.09626 0.70236
 C2763 C 0.54350 0.10871 0.70723
 C2764 C 0.53094 0.10967 0.71286
 C2765 C 0.52627 0.12189 0.71727
 C2766 C 0.53411 0.13329 0.71605
 C2767 C 0.54676 0.13217 0.71049
 C2768 C 0.55141 0.11997 0.70611
 C2769 C 0.52910 0.14635 0.72040
 C2770 C 0.53158 0.15768 0.71271
 C2771 C 0.52709 0.17002 0.71685
 C2772 C 0.52005 0.17123 0.72872
 C2773 C 0.51744 0.16002 0.73641
 C2774 C 0.52192 0.14764 0.73227
 C2775 C 0.51577 0.18406 0.73302
 C2776 C 0.51249 0.19500 0.73631
 H2777 H 0.52471 0.10102 0.71374
 H2778 H 0.51644 0.12246 0.72138
 H2779 H 0.55311 0.14073 0.70960
 H2780 H 0.56116 0.11933 0.70180
 H2781 H 0.53690 0.15698 0.70343
 H2782 H 0.52914 0.17863 0.71081
 H2783 H 0.51204 0.16086 0.74564
 H2784 H 0.51998 0.13913 0.73846
 C2785 C 1.05351 0.08634 0.19783
 C2786 C 1.04911 0.09637 0.20245
 C2787 C 1.04403 0.10849 0.20780
 C2788 C 1.03171 0.11317 0.20377
 C2789 C 1.02704 0.12524 0.20852
 C2790 C 1.03467 0.13282 0.21735
 C2791 C 1.04696 0.12794 0.22149
 C2792 C 1.05160 0.11586 0.21673
 C2793 C 1.03000 0.14593 0.22193
 C2794 C 1.03883 0.15662 0.22280
 C2795 C 1.03443 0.16905 0.22678
 C2796 C 1.02117 0.17100 0.22995
 C2797 C 1.01231 0.16043 0.22919
 C2798 C 1.01669 0.14797 0.22521
 C2799 C 1.01670 0.18393 0.23369
 C2800 C 1.01327 0.19493 0.23663
 H2801 H 1.02579 0.10757 0.19680
 H2802 H 1.01762 0.12881 0.20502
 H2803 H 1.05298 0.13345 0.22842
 H2804 H 1.06115 0.11233 0.21993
 H2805 H 1.04909 0.15543 0.22016
 H2806 H 1.04136 0.17718 0.22726
 H2807 H 1.00202 0.16183 0.23163
 H2808 H 1.00969 0.13990 0.22477
 C2809 C 0.19710 0.58779 0.55240
 C2810 C 0.20144 0.59806 0.54822
 C2811 C 0.20654 0.61044 0.54345
 C2812 C 0.21656 0.61689 0.55045
 C2813 C 0.22123 0.62914 0.54611
 C2814 C 0.21592 0.63511 0.53470
 C2815 C 0.20593 0.62848 0.52766
 C2816 C 0.20127 0.61623 0.53203
 C2817 C 0.22061 0.64830 0.53031
 C2818 C 0.22240 0.65108 0.51675
 C2819 C 0.22661 0.66358 0.51264
 C2820 C 0.22907 0.67345 0.52203
 C2821 C 0.22736 0.67077 0.53554
 C2822 C 0.22317 0.65828 0.53966
 C2823 C 0.23313 0.68640 0.51783
 C2824 C 0.23641 0.69733 0.51444
 H2825 H 0.22072 0.61249 0.55930
 H2826 H 0.22905 0.63391 0.55164
 H2827 H 0.20153 0.63289 0.51895
 H2828 H 0.19346 0.61135 0.52658
 H2829 H 0.22066 0.64355 0.50932
 H2830 H 0.22791 0.66555 0.50216
 H2831 H 0.22917 0.67836 0.54288
 H2832 H 0.22169 0.65651 0.55015
 C2833 C 0.19726 0.08624 1.05250
 C2834 C 0.20187 0.09627 1.04803
 C2835 C 0.20717 0.10840 1.04286
 C2836 C 0.21917 0.11329 1.04762
 C2837 C 0.22403 0.12537 1.04302
 C2838 C 0.21694 0.13273 1.03360
 C2839 C 0.20497 0.12764 1.02874
 C2840 C 0.20013 0.11556 1.03336
 C2841 C 0.22177 0.14586 1.02916
 C2842 C 0.22057 0.14976 1.01581
 C2843 C 0.22468 0.16232 1.01178
 C2844 C 0.23004 0.17112 1.02102
 C2845 C 0.23140 0.16728 1.03428
 C2846 C 0.22731 0.15473 1.03833
 C2847 C 0.23375 0.18425 1.01705
 C2848 C 0.23669 0.19538 1.01400
 H2849 H 0.22471 0.10782 1.05497
 H2850 H 0.23335 0.12895 1.04683
 H2851 H 0.19919 0.13315 1.02163
 H2852 H 0.19080 0.11190 1.02965
 H2853 H 0.21649 0.14310 1.00849
 H2854 H 0.22358 0.16520 1.00149
 H2855 H 0.23546 0.17404 1.04154
 H2856 H 0.22818 0.15211 1.04871
 C2857 C 0.19679 0.69782 0.66301
 C2858 C 0.20102 0.70224 0.65275
 C2859 C 0.20582 0.70738 0.64035
 C2860 C 0.19830 0.71652 0.63324
 C2861 C 0.20268 0.72116 0.62094
 C2862 C 0.21466 0.71670 0.61557
 C2863 C 0.22223 0.70762 0.62287
 C2864 C 0.21782 0.70298 0.63517
 C2865 C 0.21911 0.72129 0.60231
 C2866 C 0.23246 0.72421 0.59994
 C2867 C 0.23663 0.72832 0.58738
 C2868 C 0.22754 0.72954 0.57702
 C2869 C 0.21424 0.72671 0.57929
 C2870 C 0.21004 0.72261 0.59184
 C2871 C 0.23183 0.73350 0.56401
 C2872 C 0.23530 0.73667 0.55302
 H2873 H 0.18900 0.72000 0.63716
 H2874 H 0.19673 0.72828 0.61565
 H2875 H 0.23140 0.70387 0.61893
 H2876 H 0.22368 0.69586 0.64056
 H2877 H 0.23965 0.72343 0.60784
 H2878 H 0.24695 0.73051 0.58573
 H2879 H 0.20712 0.72756 0.57133
 H2880 H 0.19974 0.72025 0.59329
 C2881 C 0.19673 0.19690 1.16456
 C2882 C 0.20129 0.20143 1.15450
 C2883 C 0.20658 0.20661 1.14232
 C2884 C 0.20010 0.21684 1.13569
 C2885 C 0.20490 0.22148 1.12355
 C2886 C 0.21625 0.21590 1.11786
 C2887 C 0.22280 0.20574 1.12470
 C2888 C 0.21798 0.20113 1.13685
 C2889 C 0.22101 0.22040 1.10468
 C2890 C 0.22549 0.21119 1.09527
 C2891 C 0.22957 0.21534 1.08270
 C2892 C 0.22925 0.22873 1.07936
 C2893 C 0.22493 0.23799 1.08868
 C2894 C 0.22084 0.23386 1.10126
 C2895 C 0.23301 0.23286 1.06623
 C2896 C 0.23600 0.23606 1.05511
 H2897 H 0.19122 0.22111 1.13981
 H2898 H 0.19955 0.22918 1.11845
 H2899 H 0.23165 0.20137 1.12067
 H2900 H 0.22308 0.19321 1.14190
 H2901 H 0.22556 0.20074 1.09752
 H2902 H 0.23283 0.20808 1.07554
 H2903 H 0.22465 0.24839 1.08619
 H2904 H 0.21758 0.24119 1.10834
 C2905 C 0.69716 0.55380 0.08657
 C2906 C 0.70147 0.54956 0.09686
 C2907 C 0.70647 0.54476 0.10932
 C2908 C 0.71359 0.53297 0.10989
 C2909 C 0.71837 0.52835 0.12206
 C2910 C 0.71609 0.53550 0.13380
 C2911 C 0.70892 0.54734 0.13309
 C2912 C 0.70415 0.55192 0.12094
 C2913 C 0.72108 0.53064 0.14676
 C2914 C 0.72636 0.53952 0.15609
 C2915 C 0.73060 0.53505 0.16848
 C2916 C 0.72965 0.52166 0.17173
 C2917 C 0.72457 0.51271 0.16247
 C2918 C 0.72033 0.51716 0.15004
 C2919 C 0.73345 0.51728 0.18476
 C2920 C 0.73646 0.51395 0.19583
 H2921 H 0.71546 0.52735 0.10095
 H2922 H 0.72397 0.51928 0.12226
 H2923 H 0.70683 0.55297 0.14197
 H2924 H 0.69861 0.56104 0.12062
 H2925 H 0.72724 0.54992 0.15379
 H2926 H 0.73452 0.54207 0.17558
 H2927 H 0.72373 0.50234 0.16491
 H2928 H 0.71618 0.51012 0.14314
 C2929 C 0.69784 1.05252 0.58554
 C2930 C 0.70219 1.04776 0.59559
 C2931 C 0.70717 1.04225 0.60775
 C2932 C 0.70043 1.03190 0.61397
 C2933 C 0.70489 1.02696 0.62610
 C2934 C 0.71616 1.03232 0.63220
 C2935 C 0.72298 1.04259 0.62576
 C2936 C 0.71850 1.04753 0.61362
 C2937 C 0.72053 1.02751 0.64540
 C2938 C 0.73401 1.02598 0.64826
 C2939 C 0.73808 1.02184 0.66085
 C2940 C 0.72875 1.01920 0.67073
 C2941 C 0.71533 1.02059 0.66794
 C2942 C 0.71124 1.02471 0.65537
 C2943 C 0.73288 1.01543 0.68385
 C2944 C 0.73605 1.01247 0.69498
 H2945 H 0.69165 1.02774 0.60950
 H2946 H 0.69952 1.01894 0.63073
 H2947 H 0.73158 1.04704 0.63028
 H2948 H 0.72375 1.05558 0.60893
 H2949 H 0.74139 1.02792 0.64075
 H2950 H 0.74850 1.02080 0.66291
 H2951 H 0.70803 1.01865 0.67554
 H2952 H 0.70082 1.02599 0.65355
 C2953 C 0.55271 0.19748 0.58617
 C2954 C 0.54828 0.20150 0.59650
 C2955 C 0.54321 0.20604 0.60902
 C2956 C 0.53855 0.21895 0.61038
 C2957 C 0.53396 0.22339 0.62268
 C2958 C 0.53402 0.21496 0.63378
 C2959 C 0.53862 0.20197 0.63225
 C2960 C 0.54318 0.19755 0.61996
 C2961 C 0.52951 0.21971 0.64694
 C2962 C 0.53640 0.21617 0.65851
 C2963 C 0.53213 0.22049 0.67094
 C2964 C 0.52092 0.22841 0.67200
 C2965 C 0.51401 0.23206 0.66056
 C2966 C 0.51829 0.22776 0.64809
 C2967 C 0.51652 0.23260 0.68489
 C2968 C 0.51314 0.23580 0.69589
 H2969 H 0.53857 0.22562 0.60197
 H2970 H 0.53062 0.23349 0.62357
 H2971 H 0.53861 0.19518 0.64056
 H2972 H 0.54674 0.18753 0.61901
 H2973 H 0.54519 0.21017 0.65794
 H2974 H 0.53757 0.21764 0.67973
 H2975 H 0.50530 0.23816 0.66128
 H2976 H 0.51270 0.23053 0.63938
 C2977 C 1.05170 0.19865 0.08506
 C2978 C 1.04732 0.20304 0.09525
 C2979 C 1.04223 0.20807 0.10757
 C2980 C 1.02970 0.20431 0.11194
 C2981 C 1.02498 0.20875 0.12418
 C2982 C 1.03276 0.21702 0.13222
 C2983 C 1.04528 0.22088 0.12765
 C2984 C 1.04998 0.21642 0.11541
 C2985 C 1.02800 0.22130 0.14547
 C2986 C 1.03039 0.23420 0.15003
 C2987 C 1.02630 0.23805 0.16270
 C2988 C 1.01978 0.22906 0.17096
 C2989 C 1.01724 0.21625 0.16646
 C2990 C 1.02131 0.21239 0.15380
 C2991 C 1.01603 0.23282 0.18420
 C2992 C 1.01305 0.23575 0.19539
 H2993 H 1.02361 0.19785 0.10595
 H2994 H 1.01524 0.20574 0.12734
 H2995 H 1.05158 0.22708 0.13368
 H2996 H 1.05973 0.21934 0.11216
 H2997 H 1.03538 0.24133 0.14380
 H2998 H 1.02831 0.24799 0.16609
 H2999 H 1.01226 0.20919 0.17280
 H3000 H 1.01949 0.20233 0.15066
 C3001 C 0.66195 0.19549 0.69843
 C3002 C 0.65169 0.19959 0.70276
 C3003 C 0.63924 0.20429 0.70766
 C3004 C 0.63847 0.21628 0.71450
 C3005 C 0.62629 0.22092 0.71896
 C3006 C 0.61471 0.21364 0.71658
 C3007 C 0.61563 0.20155 0.70978
 C3008 C 0.62781 0.19692 0.70536
 C3009 C 0.60171 0.21864 0.72100
 C3010 C 0.59060 0.21734 0.71276
 C3011 C 0.57830 0.22183 0.71696
 C3012 C 0.57690 0.22768 0.72944
 C3013 C 0.58789 0.22912 0.73770
 C3014 C 0.60024 0.22465 0.73350
 C3015 C 0.56410 0.23194 0.73377
 C3016 C 0.55317 0.23523 0.73705
 H3017 H 0.64727 0.22208 0.71630
 H3018 H 0.62588 0.23032 0.72404
 H3019 H 0.60693 0.19562 0.70797
 H3020 H 0.62829 0.18762 0.70010
 H3021 H 0.59145 0.21295 0.70300
 H3022 H 0.56986 0.22069 0.71048
 H3023 H 0.58691 0.23360 0.74740
 H3024 H 0.60857 0.22567 0.74012
 C3025 C 1.16233 0.19658 0.19892
 C3026 C 1.15227 0.20096 0.20345
 C3027 C 1.14009 0.20595 0.20872
 C3028 C 1.13031 0.19714 0.21290
 C3029 C 1.11830 0.20188 0.21765
 C3030 C 1.11589 0.21554 0.21827
 C3031 C 1.12583 0.22433 0.21413
 C3032 C 1.13785 0.21955 0.20939
 C3033 C 1.10295 0.22052 0.22291
 C3034 C 1.09678 0.23110 0.21636
 C3035 C 1.08430 0.23537 0.22033
 C3036 C 1.07785 0.22916 0.23090
 C3037 C 1.08400 0.21878 0.23761
 C3038 C 1.09646 0.21449 0.23366
 C3039 C 1.06471 0.23303 0.23448
 C3040 C 1.05357 0.23602 0.23730
 H3041 H 1.13191 0.18659 0.21236
 H3042 H 1.11078 0.19486 0.22056
 H3043 H 1.12432 0.23489 0.21463
 H3044 H 1.14536 0.22645 0.20618
 H3045 H 1.10143 0.23584 0.20794
 H3046 H 1.07960 0.24337 0.21501
 H3047 H 1.07909 0.21389 0.24580
 H3048 H 1.10103 0.20644 0.23901
 C3049 C 0.08801 0.69691 0.55130
 C3050 C 0.09822 0.70112 0.54686
 C3051 C 0.11053 0.70596 0.54170
 C3052 C 0.11682 0.69924 0.53137
 C3053 C 0.12903 0.70364 0.52668
 C3054 C 0.13510 0.71482 0.53227
 C3055 C 0.12862 0.72159 0.54256
 C3056 C 0.11642 0.71716 0.54724
 C3057 C 0.14827 0.71925 0.52761
 C3058 C 0.15114 0.73276 0.52619
 C3059 C 0.16364 0.73690 0.52209
 C3060 C 0.17343 0.72759 0.51937
 C3061 C 0.17065 0.71412 0.52067
 C3062 C 0.15815 0.70997 0.52475
 C3063 C 0.18642 0.73182 0.51552
 C3064 C 0.19738 0.73523 0.51245
 H3065 H 0.11235 0.69056 0.52701
 H3066 H 0.13368 0.69832 0.51864
 H3067 H 0.13311 0.73012 0.54719
 H3068 H 0.11166 0.72240 0.55528
 H3069 H 0.14369 0.74013 0.52816
 H3070 H 0.16569 0.74735 0.52111
 H3071 H 0.17817 0.70684 0.51866
 H3072 H 0.15632 0.69951 0.52593
 C3073 C 0.08558 0.19892 1.05109
 C3074 C 0.09571 0.20328 1.04663
 C3075 C 0.10796 0.20828 1.04148
 C3076 C 0.11482 0.21812 1.04835
 C3077 C 0.12702 0.22256 1.04369
 C3078 C 0.13252 0.21719 1.03207
 C3079 C 0.12545 0.20743 1.02513
 C3080 C 0.11325 0.20301 1.02982
 C3081 C 0.14576 0.22146 1.02747
 C3082 C 0.15483 0.21214 1.02266
 C3083 C 0.16746 0.21605 1.01878
 C3084 C 0.17120 0.22932 1.01962
 C3085 C 0.16221 0.23869 1.02425
 C3086 C 0.14957 0.23480 1.02814
 C3087 C 0.18439 0.23319 1.01612
 C3088 C 0.19555 0.23620 1.01337
 H3089 H 0.11084 0.22222 1.05743
 H3090 H 0.13229 0.22995 1.04935
 H3091 H 0.12934 0.20323 1.01608
 H3092 H 0.10802 0.19540 1.02441
 H3093 H 0.15227 0.20177 1.02220
 H3094 H 0.17436 0.20870 1.01529
 H3095 H 0.16501 0.24899 1.02494
 H3096 H 0.14276 0.24223 1.03165
 C3097 C 0.58739 0.55391 0.19736
 C3098 C 0.59757 0.54969 0.20180
 C3099 C 0.60987 0.54489 0.20695
 C3100 C 0.61094 0.53190 0.21154
 C3101 C 0.62298 0.52725 0.21636
 C3102 C 0.63411 0.53555 0.21666
 C3103 C 0.63290 0.54860 0.21205
 C3104 C 0.62086 0.55322 0.20723
 C3105 C 0.64697 0.53063 0.22158
 C3106 C 0.65511 0.53875 0.22941
 C3107 C 0.66744 0.53433 0.23360
 C3108 C 0.67182 0.52174 0.23006
 C3109 C 0.66374 0.51350 0.22244
 C3110 C 0.65138 0.51790 0.21823
 C3111 C 0.68480 0.51752 0.23386
 C3112 C 0.69581 0.51429 0.23688
 H3113 H 0.60248 0.52537 0.21138
 H3114 H 0.62357 0.51720 0.21997
 H3115 H 0.64132 0.55517 0.21196
 H3116 H 0.62016 0.56327 0.20365
 H3117 H 0.65192 0.54852 0.23230
 H3118 H 0.67362 0.54078 0.23950
 H3119 H 0.66706 0.50376 0.21958
 H3120 H 0.64542 0.51148 0.21209
 C3121 C 0.58636 1.05240 0.69835
 C3122 C 0.59660 1.04823 0.70268
 C3123 C 0.60904 1.04356 0.70764
 C3124 C 0.61943 1.05246 0.70944
 C3125 C 0.63167 1.04798 0.71383
 C3126 C 0.63371 1.03451 0.71646
 C3127 C 0.62315 1.02565 0.71478
 C3128 C 0.61089 1.03015 0.71037
 C3129 C 0.64686 1.02973 0.72073
 C3130 C 0.64806 1.02006 0.73068
 C3131 C 0.66050 1.01570 0.73471
 C3132 C 0.67186 1.02092 0.72882
 C3133 C 0.67074 1.03048 0.71887
 C3134 C 0.65834 1.03486 0.71485
 C3135 C 0.68471 1.01660 0.73295
 C3136 C 0.69565 1.01331 0.73614
 H3137 H 0.61809 1.06287 0.70738
 H3138 H 0.63954 1.05507 0.71522
 H3139 H 0.62445 1.01520 0.71659
 H3140 H 0.60292 1.02317 0.70896
 H3141 H 0.63941 1.01603 0.73548
 H3142 H 0.66126 1.00831 0.74244
 H3143 H 0.67947 1.03455 0.71422
 H3144 H 0.65774 1.04216 0.70702
 C3145 C 0.90976 0.44406 0.30535
 C3146 C 0.89957 0.44849 0.30115
 C3147 C 0.88726 0.45354 0.29628
 C3148 C 0.88616 0.46676 0.29244
 C3149 C 0.87411 0.47166 0.28791
 C3150 C 0.86299 0.46337 0.28720
 C3151 C 0.86423 0.45008 0.29101
 C3152 C 0.87628 0.44521 0.29552
 C3153 C 0.85011 0.46856 0.28261
 C3154 C 0.83838 0.46470 0.28898
 C3155 C 0.82623 0.46944 0.28459
 C3156 C 0.82561 0.47809 0.27379
 C3157 C 0.83721 0.48206 0.26742
 C3158 C 0.84939 0.47734 0.27181
 C3159 C 0.81303 0.48272 0.26922
 C3160 C 0.80232 0.48634 0.26559
 H3161 H 0.89460 0.47330 0.29302
 H3162 H 0.87342 0.48196 0.28518
 H3163 H 0.85591 0.44341 0.29040
 H3164 H 0.87703 0.43495 0.29844
 H3165 H 0.83862 0.45812 0.29743
 H3166 H 0.81732 0.46633 0.28961
 H3167 H 0.83684 0.48872 0.25902
 H3168 H 0.85823 0.48037 0.26661
 C3169 C 0.91026 0.94491 0.80488
 C3170 C 0.90004 0.94914 0.80057
 C3171 C 0.88768 0.95392 0.79554
 C3172 C 0.87726 0.94510 0.79350
 C3173 C 0.86514 0.94968 0.78886
 C3174 C 0.86327 0.96318 0.78620
 C3175 C 0.87384 0.97197 0.78820
 C3176 C 0.88596 0.96736 0.79285
 C3177 C 0.85031 0.96805 0.78150
 C3178 C 0.84953 0.97775 0.77153
 C3179 C 0.83728 0.98222 0.76707
 C3180 C 0.82568 0.97707 0.77253
 C3181 C 0.82636 0.96747 0.78247
 C3182 C 0.83858 0.96298 0.78694
 C3183 C 0.81305 0.98156 0.76795
 C3184 C 0.80232 0.98510 0.76432
 H3185 H 0.87849 0.93468 0.79552
 H3186 H 0.85727 0.94265 0.78724
 H3187 H 0.87266 0.98243 0.78639
 H3188 H 0.89395 0.97428 0.79445
 H3189 H 0.85838 0.98173 0.76705
 H3190 H 0.83686 0.98964 0.75934
 H3191 H 0.81744 0.96345 0.78679
 H3192 H 0.83885 0.95566 0.79475
 C3193 C 0.33894 0.30529 0.80499
 C3194 C 0.34911 0.30097 0.80065
 C3195 C 0.36140 0.29603 0.79561
 C3196 C 0.36297 0.28256 0.79306
 C3197 C 0.37504 0.27777 0.78844
 C3198 C 0.38570 0.28642 0.78636
 C3199 C 0.38398 0.29996 0.78887
 C3200 C 0.37192 0.30472 0.79346
 C3201 C 0.39862 0.28135 0.78173
 C3202 C 0.41040 0.28634 0.78714
 C3203 C 0.42257 0.28165 0.78277
 C3204 C 0.42316 0.27192 0.77295
 C3205 C 0.41152 0.26686 0.76752
 C3206 C 0.39931 0.27153 0.77189
 C3207 C 0.43576 0.26726 0.76844
 C3208 C 0.44647 0.26361 0.76484
 H3209 H 0.35491 0.27574 0.79473
 H3210 H 0.37610 0.26728 0.78674
 H3211 H 0.39194 0.30689 0.78718
 H3212 H 0.37080 0.31517 0.79539
 H3213 H 0.41020 0.29375 0.79487
 H3214 H 0.43153 0.28561 0.78706
 H3215 H 0.41187 0.25935 0.75989
 H3216 H 0.39043 0.26761 0.76744
 C3217 C 0.83871 0.30475 0.30402
 C3218 C 0.84877 0.30033 0.29952
 C3219 C 0.86093 0.29526 0.29428
 C3220 C 0.86452 0.28214 0.29661
 C3221 C 0.87654 0.27735 0.29189
 C3222 C 0.88516 0.28566 0.28480
 C3223 C 0.88138 0.29879 0.28239
 C3224 C 0.86936 0.30355 0.28711
 C3225 C 0.89813 0.28074 0.28016
 C3226 C 0.90941 0.28877 0.28114
 C3227 C 0.92165 0.28413 0.27690
 C3228 C 0.92280 0.27142 0.27163
 C3229 C 0.91165 0.26335 0.27058
 C3230 C 0.89938 0.26797 0.27483
 C3231 C 0.93548 0.26673 0.26738
 C3232 C 0.94625 0.26309 0.26396
 H3233 H 0.85809 0.27565 0.30221
 H3234 H 0.87923 0.26725 0.29405
 H3235 H 0.88771 0.30538 0.27681
 H3236 H 0.86667 0.31372 0.28523
 H3237 H 0.90881 0.29856 0.28538
 H3238 H 0.93023 0.29044 0.27781
 H3239 H 0.91244 0.25351 0.26648
 H3240 H 0.89086 0.26161 0.27381
 C3241 C 0.41323 0.80444 0.44802
 C3242 C 0.40317 0.80006 0.45264
 C3243 C 0.39101 0.79507 0.45799
 C3244 C 0.38676 0.78229 0.45489
 C3245 C 0.37466 0.77766 0.45964
 C3246 C 0.36664 0.78578 0.46755
 C3247 C 0.37109 0.79855 0.47076
 C3248 C 0.38318 0.80315 0.46600
 C3249 C 0.35352 0.78112 0.47211
 C3250 C 0.34264 0.78968 0.47191
 C3251 C 0.33022 0.78527 0.47592
 C3252 C 0.32848 0.77225 0.48021
 C3253 C 0.33924 0.76365 0.48052
 C3254 C 0.35169 0.76805 0.47649
 C3255 C 0.31558 0.76775 0.48401
 C3256 C 0.30459 0.76431 0.48698
 H3257 H 0.39271 0.77597 0.44864
 H3258 H 0.37144 0.76785 0.45687
 H3259 H 0.36522 0.80497 0.47697
 H3260 H 0.38638 0.81305 0.46848
 H3261 H 0.34367 0.79973 0.46840
 H3262 H 0.32195 0.79199 0.47557
 H3263 H 0.33800 0.75356 0.48382
 H3264 H 0.35990 0.76127 0.47689
 C3265 C 0.41117 0.30409 0.94695
 C3266 C 0.40108 0.29974 0.95150
 C3267 C 0.38889 0.29475 0.95679
 C3268 C 0.38416 0.28237 0.95286
 C3269 C 0.37206 0.27776 0.95761
 C3270 C 0.36451 0.28551 0.96634
 C3271 C 0.36943 0.29787 0.97033
 C3272 C 0.38153 0.30245 0.96558
 C3273 C 0.35143 0.28085 0.97100
 C3274 C 0.34078 0.28967 0.97181
 C3275 C 0.32840 0.28528 0.97599
 C3276 C 0.32649 0.27204 0.97943
 C3277 C 0.33702 0.26319 0.97871
 C3278 C 0.34942 0.26756 0.97452
 C3279 C 0.31365 0.26757 0.98350
 C3280 C 0.30278 0.26407 0.98679
 H3281 H 0.38975 0.27636 0.94601
 H3282 H 0.36847 0.26828 0.95423
 H3283 H 0.36393 0.30399 0.97717
 H3284 H 0.38510 0.31205 0.96869
 H3285 H 0.34195 0.29991 0.96899
 H3286 H 0.32030 0.29220 0.97645
 H3287 H 0.33564 0.25292 0.98136
 H3288 H 0.35745 0.26057 0.97414
 C3289 C 0.80434 0.44625 0.41250
 C3290 C 0.79975 0.45044 0.40231
 C3291 C 0.79440 0.45527 0.39001
 C3292 C 0.79769 0.46790 0.38546
 C3293 C 0.79285 0.47241 0.37330
 C3294 C 0.78465 0.46430 0.36550
 C3295 C 0.78130 0.45167 0.37024
 C3296 C 0.78615 0.44720 0.38241
 C3297 C 0.77985 0.46889 0.35237
 C3298 C 0.77955 0.46021 0.34149
 C3299 C 0.77525 0.46456 0.32907
 C3300 C 0.77118 0.47762 0.32735
 C3301 C 0.77139 0.48634 0.33811
 C3302 C 0.77570 0.48201 0.35055
 C3303 C 0.76701 0.48209 0.31446
 C3304 C 0.76368 0.48564 0.30356
 H3305 H 0.80413 0.47421 0.39125
 H3306 H 0.79574 0.48211 0.36985
 H3307 H 0.77487 0.44528 0.36456
 H3308 H 0.78352 0.43741 0.38584
 H3309 H 0.78286 0.45012 0.34252
 H3310 H 0.77519 0.45775 0.32078
 H3311 H 0.76826 0.49647 0.33689
 H3312 H 0.77568 0.48889 0.35877
 C3313 C 0.80335 0.94764 0.91274
 C3314 C 0.79888 0.95179 0.90247
 C3315 C 0.79365 0.95648 0.89008
 C3316 C 0.79694 0.96907 0.88542
 C3317 C 0.79223 0.97340 0.87313
 C3318 C 0.78418 0.96517 0.86533
 C3319 C 0.78082 0.95258 0.87018
 C3320 C 0.78553 0.94828 0.88246
 C3321 C 0.77954 0.96956 0.85208
 C3322 C 0.77943 0.96073 0.84131
 C3323 C 0.77523 0.96486 0.82879
 C3324 C 0.77106 0.97787 0.82684
 C3325 C 0.77110 0.98673 0.83748
 C3326 C 0.77531 0.98262 0.85003
 C3327 C 0.76694 0.98209 0.81386
 C3328 C 0.76364 0.98544 0.80288
 H3329 H 0.80327 0.97547 0.89121
 H3330 H 0.79512 0.98308 0.86961
 H3331 H 0.77450 0.94609 0.86449
 H3332 H 0.78291 0.93852 0.88598
 H3333 H 0.78281 0.95067 0.84252
 H3334 H 0.77530 0.95794 0.82060
 H3335 H 0.76788 0.99682 0.83608
 H3336 H 0.77515 0.98960 0.85815
 C3337 C 0.30218 0.80128 0.33488
 C3338 C 0.29805 0.79677 0.34514
 C3339 C 0.29340 0.79157 0.35757
 C3340 C 0.28034 0.79357 0.36152
 C3341 C 0.27602 0.78900 0.37387
 C3342 C 0.28473 0.78240 0.38245
 C3343 C 0.29778 0.78028 0.37830
 C3344 C 0.30207 0.78485 0.36595
 C3345 C 0.28035 0.77806 0.39582
 C3346 C 0.28867 0.77965 0.40686
 C3347 C 0.28452 0.77577 0.41949
 C3348 C 0.27201 0.77024 0.42127
 C3349 C 0.26366 0.76856 0.41035
 C3350 C 0.26779 0.77245 0.39770
 C3351 C 0.26778 0.76647 0.43436
 C3352 C 0.26452 0.76351 0.44547
 H3353 H 0.27356 0.79882 0.35513
 H3354 H 0.26596 0.79092 0.37685
 H3355 H 0.30467 0.77508 0.38460
 H3356 H 0.31220 0.78323 0.36298
 H3357 H 0.29830 0.78412 0.40578
 H3358 H 0.29104 0.77717 0.42788
 H3359 H 0.25396 0.76427 0.41163
 H3360 H 0.26122 0.77097 0.38937
 C3361 C 0.30416 0.30502 0.83895
 C3362 C 0.29957 0.30054 0.84903
 C3363 C 0.29426 0.29536 0.86120
 C3364 C 0.28281 0.30080 0.86663
 C3365 C 0.27793 0.29613 0.87872
 C3366 C 0.28445 0.28595 0.88556
 C3367 C 0.29586 0.28045 0.87993
 C3368 C 0.30073 0.28514 0.86784
 C3369 C 0.27955 0.28131 0.89864
 C3370 C 0.27971 0.26781 0.90190
 C3371 C 0.27541 0.26351 0.91436
 C3372 C 0.27090 0.27265 0.92371
 C3373 C 0.27061 0.28608 0.92053
 C3374 C 0.27490 0.29039 0.90809
 C3375 C 0.26683 0.26831 0.93668
 C3376 C 0.26357 0.26485 0.94764
 H3377 H 0.27772 0.30872 0.86156
 H3378 H 0.26903 0.30046 0.88271
 H3379 H 0.30120 0.27272 0.88503
 H3380 H 0.30964 0.28090 0.86376
 H3381 H 0.28309 0.26056 0.89479
 H3382 H 0.27566 0.25309 0.91672
 H3383 H 0.26720 0.29324 0.92773
 H3384 H 0.27483 0.30086 0.90596
 C3385 C 0.44527 0.30385 0.91232
 C3386 C 0.44958 0.29929 0.90217
 C3387 C 0.45452 0.29397 0.88991
 C3388 C 0.44702 0.28476 0.88283
 C3389 C 0.45155 0.27992 0.87068
 C3390 C 0.46366 0.28425 0.86544
 C3391 C 0.47119 0.29341 0.87271
 C3392 C 0.46663 0.29824 0.88486
 C3393 C 0.46826 0.27945 0.85232
 C3394 C 0.48161 0.27643 0.85019
 C3395 C 0.48593 0.27212 0.83775
 C3396 C 0.47696 0.27079 0.82729
 C3397 C 0.46366 0.27373 0.82932
 C3398 C 0.45933 0.27803 0.84174
 C3399 C 0.48138 0.26662 0.81439
 C3400 C 0.48485 0.26327 0.80347
 H3401 H 0.43763 0.28138 0.88666
 H3402 H 0.44561 0.27275 0.86541
 H3403 H 0.48047 0.29705 0.86886
 H3404 H 0.47248 0.30542 0.89023
 H3405 H 0.48869 0.27729 0.85818
 H3406 H 0.49624 0.26986 0.83628
 H3407 H 0.45665 0.27280 0.82127
 H3408 H 0.44903 0.28046 0.84300
 C3409 C 0.94642 0.30302 0.41261
 C3410 C 0.95056 0.29855 0.40234
 C3411 C 0.95530 0.29336 0.38995
 C3412 C 0.96756 0.29734 0.38500
 C3413 C 0.97195 0.29265 0.37273
 C3414 C 0.96410 0.28394 0.36524
 C3415 C 0.95186 0.27991 0.37038
 C3416 C 0.94750 0.28459 0.38265
 C3417 C 0.96855 0.27930 0.35201
 C3418 C 0.95959 0.27842 0.34139
 C3419 C 0.96378 0.27425 0.32888
 C3420 C 0.97697 0.27089 0.32679
 C3421 C 0.98596 0.27168 0.33728
 C3422 C 0.98179 0.27586 0.34981
 C3423 C 0.98125 0.26679 0.31382
 C3424 C 0.98465 0.26348 0.30287
 H3425 H 0.97365 0.30417 0.39054
 H3426 H 0.98134 0.29607 0.36896
 H3427 H 0.94568 0.27308 0.36494
 H3428 H 0.93800 0.28145 0.38641
 H3429 H 0.94938 0.28118 0.34271
 H3430 H 0.95675 0.27373 0.32081
 H3431 H 0.99619 0.26909 0.33577
 H3432 H 0.98889 0.27630 0.35782
 C3433 C 0.44419 0.41010 0.80434
 C3434 C 0.44843 0.39998 0.79977
 C3435 C 0.45327 0.38773 0.79447
 C3436 C 0.46667 0.38465 0.79528
 C3437 C 0.47126 0.37254 0.79053
 C3438 C 0.46247 0.36334 0.78494
 C3439 C 0.44904 0.36660 0.78404
 C3440 C 0.44448 0.37871 0.78878
 C3441 C 0.46722 0.35029 0.78029
 C3442 C 0.45980 0.33881 0.78279
 C3443 C 0.46428 0.32651 0.77852
 C3444 C 0.47623 0.32548 0.77170
 C3445 C 0.48369 0.33682 0.76914
 C3446 C 0.47923 0.34915 0.77342
 C3447 C 0.48079 0.31274 0.76743
 C3448 C 0.48435 0.30192 0.76403
 H3449 H 0.47355 0.39154 0.79972
 H3450 H 0.48162 0.37025 0.79151
 H3451 H 0.44206 0.35981 0.77962
 H3452 H 0.43409 0.38100 0.78809
 H3453 H 0.45062 0.33933 0.78823
 H3454 H 0.45845 0.31778 0.78060
 H3455 H 0.49295 0.33613 0.76385
 H3456 H 0.48510 0.35782 0.77122
 C3457 C 0.94382 0.40973 0.30404
 C3458 C 0.94806 0.39968 0.29930
 C3459 C 0.95292 0.38755 0.29379
 C3460 C 0.96566 0.38324 0.29679
 C3461 C 0.97020 0.37120 0.29182
 C3462 C 0.96203 0.36330 0.28380
 C3463 C 0.94929 0.36780 0.28072
 C3464 C 0.94478 0.37984 0.28569
 C3465 C 0.96666 0.35029 0.27891
 C3466 C 0.95813 0.33933 0.27890
 C3467 C 0.96254 0.32702 0.27459
 C3468 C 0.97551 0.32547 0.27021
 C3469 C 0.98407 0.33632 0.27010
 C3470 C 0.97968 0.34866 0.27443
 C3471 C 0.98006 0.31268 0.26609
 C3472 C 0.98369 0.30184 0.26283
 H3473 H 0.97202 0.38910 0.30310
 H3474 H 0.97998 0.36794 0.29450
 H3475 H 0.94284 0.36203 0.27444
 H3476 H 0.93490 0.38309 0.28330
 H3477 H 0.94812 0.34022 0.28248
 H3478 H 0.95585 0.31867 0.27477
 H3479 H 0.99413 0.33523 0.26672
 H3480 H 0.98643 0.35693 0.27418
 C3481 C 0.30400 0.91390 0.44854
 C3482 C 0.29971 0.90370 0.45294
 C3483 C 0.29488 0.89132 0.45800
 C3484 C 0.30379 0.88176 0.46237
 C3485 C 0.29922 0.86952 0.46682
 C3486 C 0.28566 0.86666 0.46693
 C3487 C 0.27675 0.87641 0.46268
 C3488 C 0.28135 0.88866 0.45822
 C3489 C 0.28087 0.85347 0.47119
 C3490 C 0.26949 0.85218 0.47906
 C3491 C 0.26505 0.83970 0.48303
 C3492 C 0.27192 0.82838 0.47916
 C3493 C 0.28322 0.82957 0.47131
 C3494 C 0.28767 0.84201 0.46735
 C3495 C 0.26749 0.81549 0.48319
 C3496 C 0.26413 0.80452 0.48635
 H3497 H 0.31428 0.88372 0.46226
 H3498 H 0.30630 0.86230 0.47021
 H3499 H 0.26627 0.87446 0.46252
 H3500 H 0.27438 0.89598 0.45481
 H3501 H 0.26412 0.86082 0.48228
 H3502 H 0.25631 0.83889 0.48913
 H3503 H 0.28859 0.82087 0.46822
 H3504 H 0.29634 0.84265 0.46113
 C3505 C 0.30642 0.41035 0.94606
 C3506 C 0.30210 0.40028 0.95072
 C3507 C 0.29708 0.38812 0.95610
 C3508 C 0.30562 0.37932 0.96242
 C3509 C 0.30089 0.36727 0.96723
 C3510 C 0.28754 0.36385 0.96576
 C3511 C 0.27899 0.37284 0.95952
 C3512 C 0.28375 0.38488 0.95472
 C3513 C 0.28261 0.35086 0.97046
 C3514 C 0.27026 0.34975 0.97672
 C3515 C 0.26561 0.33746 0.98100
 C3516 C 0.27323 0.32614 0.97907
 C3517 C 0.28551 0.32714 0.97287
 C3518 C 0.29018 0.33940 0.96860
 C3519 C 0.26847 0.31344 0.98332
 C3520 C 0.26473 0.30266 0.98673
 H3521 H 0.31596 0.38173 0.96356
 H3522 H 0.30768 0.36064 0.97214
 H3523 H 0.26870 0.37043 0.95810
 H3524 H 0.27707 0.39160 0.94978
 H3525 H 0.26427 0.35841 0.97843
 H3526 H 0.25610 0.33680 0.98582
 H3527 H 0.29146 0.31842 0.97128
 H3528 H 0.29963 0.33989 0.96364
 C3529 C 0.80473 0.33922 0.30428
 C3530 C 0.80045 0.34941 0.29987
 C3531 C 0.79555 0.36170 0.29473
 C3532 C 0.80431 0.37094 0.28936
 C3533 C 0.79966 0.38306 0.28471
 C3534 C 0.78617 0.38611 0.28538
 C3535 C 0.77742 0.37669 0.29067
 C3536 C 0.78209 0.36457 0.29532
 C3537 C 0.78131 0.39915 0.28079
 C3538 C 0.76942 0.40019 0.27368
 C3539 C 0.76488 0.41251 0.26943
 C3540 C 0.77213 0.42392 0.27225
 C3541 C 0.78394 0.42299 0.27932
 C3542 C 0.78851 0.41070 0.28357
 C3543 C 0.76752 0.43664 0.26796
 C3544 C 0.76394 0.44745 0.26453
 H3545 H 0.81474 0.36881 0.28882
 H3546 H 0.80662 0.39002 0.28053
 H3547 H 0.76700 0.37881 0.29146
 H3548 H 0.77523 0.35751 0.29951
 H3549 H 0.76374 0.39146 0.27127
 H3550 H 0.75573 0.41312 0.26394
 H3551 H 0.78961 0.43177 0.28160
 H3552 H 0.79758 0.41025 0.28919
   
