data_POSCAR
  _audit_creation_date              2014-09-24
  _audit_creation_method            'ToBaCCo'
  _symmetry_space_group_name_H-M    'P1'
  _symmetry_Int_Tables_number       1
  _symmetry_cell_setting            triclinic
  loop_
  _symmetry_equiv_pos_as_xyz
 x,y,z
_cell_length_a 51.5110
_cell_length_b 51.6474
_cell_length_c 51.6970
_cell_angle_alpha 91.347600
_cell_angle_beta 91.970300
_cell_angle_gamma 92.314500
loop_
  _atom_site_label
  _atom_site_type_symbol
  _atom_site_fract_x
  _atom_site_fract_y
  _atom_site_fract_z
C1 C 0.12410 -0.00125 0.24918
 C2 C 0.37554 0.00677 0.74843
 C3 C 0.87636 0.50407 0.24876
 C4 C 0.62384 0.49684 0.74901
 C5 C 0.25191 0.12694 1.00156
 C6 C 0.74509 0.37290 0.99657
 C7 C 0.24727 0.87330 0.50355
 C8 C 0.75262 0.62598 0.49999
 C9 C -0.00001 0.25172 0.12294
 C10 C 0.00224 0.74462 0.37783
 C11 C 0.50306 0.24412 0.87790
 C12 C 0.50224 0.75228 0.62524
 C13 C 0.87318 1.00572 0.74101
 C14 C 0.37432 0.50742 0.24208
 C15 C 0.62507 0.99510 0.25638
 C16 C 0.12623 0.49771 0.75716
 C17 C 0.74194 0.87360 0.00443
 C18 C 0.24333 0.37383 0.50712
 C19 C 0.25556 0.62608 -0.00179
 C20 C 0.75746 0.12508 0.49131
 C21 C 1.00957 0.74738 0.87546
 C22 C 0.50752 0.24613 0.37545
 C23 C 0.99385 0.24953 0.62439
 C24 C 0.49351 0.74933 0.12678
 O25 O -0.01907 0.98292 0.92225
 O26 O 0.02547 0.99462 0.92252
 O27 O -0.02072 0.92638 0.98350
 O28 O -0.01365 0.92534 1.02531
 O29 O -0.07860 0.98665 0.97879
 O30 O -0.07711 1.03095 0.99061
 O31 O 0.04705 0.99671 1.05346
 O32 O 0.05025 0.95636 1.03312
 O33 O 0.05498 1.05003 0.99228
 O34 O 0.03180 1.05547 0.95062
 O35 O -0.00365 1.05854 1.04583
 O36 O -0.04444 1.03898 1.05299
 O37 O 0.01249 1.01706 1.06934
 O38 O -0.03575 1.00437 1.06704
 O39 O 0.01565 1.07358 1.01003
 O40 O 0.00150 1.07313 0.96423
 O41 O 0.07031 1.01544 1.01337
 O42 O 0.06958 0.97027 0.99937
 O43 O -0.05380 1.00399 0.93679
 O44 O -0.05741 1.04541 0.95926
 O45 O -0.06376 0.95137 0.99909
 O46 O -0.04077 0.94945 1.04215
 O47 O -0.00205 0.94124 0.94724
 O48 O 0.03936 0.96307 0.94205
 Zr49 Zr 0.00580 0.98095 0.95505
 O50 O 0.03186 1.00532 0.97743
 Zr51 Zr -0.02384 0.95980 1.00688
 O52 O 0.00176 0.98246 1.03164
 Zr53 Zr -0.04512 1.01112 0.97664
 O54 O -0.02127 1.03623 1.00086
 Zr55 Zr 0.03750 0.98967 1.01419
 O56 O 0.01325 0.96379 0.99091
 Zr57 Zr 0.01534 1.04113 0.98469
 O58 O -0.00936 1.01803 0.95912
 Zr59 Zr -0.01336 1.01934 1.03680
 O60 O -0.04041 0.99575 1.01384
 O61 O -0.03066 0.97459 0.97035
 O62 O 0.02308 1.02627 1.02130
 C63 C -0.04110 0.99328 0.91866
 C64 C -0.01150 0.92294 0.96097
 C65 C -0.08209 0.96428 0.98875
 C66 C 0.03472 1.00677 1.07211
 C67 C 0.07339 1.03783 1.00329
 C68 C 0.00717 1.07672 1.03291
 H69 H 0.04826 1.00741 0.96821
 H70 H -0.02983 1.05289 1.00301
 H71 H -0.04223 0.96306 0.95907
 H72 H 0.00399 0.97330 1.04810
 H73 H 0.04212 0.94113 1.02353
 H74 H 0.00238 0.92950 1.03591
 H75 H -0.01458 1.07857 0.97235
 H76 H -0.04389 1.05060 0.94702
 H77 H 0.07425 0.97815 0.98284
 H78 H 0.04506 0.95150 0.95596
 H79 H -0.05296 1.04849 1.03889
 H80 H -0.07936 1.02536 1.00862
 H81 H 0.02020 1.01264 0.92006
 H82 H 0.04525 1.04349 0.94530
 H83 H -0.05503 0.96136 1.04509
 H84 H -0.02667 0.98947 1.07420
 O85 O 0.48318 0.48279 0.42266
 O86 O 0.52758 0.49604 0.42402
 O87 O 0.48161 0.42582 0.48304
 O88 O 0.49040 0.42460 0.52478
 O89 O 0.42263 0.48397 0.47881
 O90 O 0.42216 0.52810 0.48993
 O91 O 0.54680 0.50041 0.55527
 O92 O 0.55125 0.45908 0.53604
 O93 O 0.55339 0.55235 0.49396
 O94 O 0.53135 0.55803 0.45317
 O95 O 0.49217 0.55789 0.54642
 O96 O 0.45081 0.53412 0.55153
 O97 O 0.51062 0.51868 0.57002
 O98 O 0.46450 0.50325 0.56871
 O99 O 0.51252 0.57428 0.51180
 O100 O 0.49853 0.57268 0.46480
 O101 O 0.56989 0.51812 0.51479
 O102 O 0.57105 0.47325 0.50218
 O103 O 0.44732 0.50212 0.43689
 O104 O 0.44166 0.54307 0.45895
 O105 O 0.43822 0.44926 0.49956
 O106 O 0.46106 0.44712 0.54199
 O107 O 0.50126 0.44151 0.44765
 O108 O 0.54223 0.46499 0.44378
 Zr109 Zr 0.50763 0.48145 0.45599
 O110 O 0.53212 0.50687 0.47907
 Zr111 Zr 0.47801 0.45873 0.50712
 O112 O 0.50204 0.48244 0.53256
 Zr113 Zr 0.45519 0.50946 0.47672
 O114 O 0.47733 0.53546 0.50143
 Zr115 Zr 0.53785 0.49145 0.51598
 O116 O 0.51530 0.46456 0.49200
 Zr117 Zr 0.51410 0.54202 0.48608
 O118 O 0.49101 0.51791 0.45990
 Zr119 Zr 0.48505 0.51845 0.53730
 O120 O 0.45973 0.49380 0.51378
 O121 O 0.47113 0.47358 0.47060
 O122 O 0.52158 0.52726 0.52274
 C123 C 0.46071 0.49224 0.41885
 C124 C 0.49150 0.42284 0.46073
 C125 C 0.41961 0.46176 0.48917
 C126 C 0.53371 0.51053 0.57339
 C127 C 0.57225 0.54053 0.50462
 C128 C 0.50272 0.57670 0.53423
 H129 H 0.54862 0.50961 0.47013
 H130 H 0.46790 0.55164 0.50337
 H131 H 0.46001 0.46178 0.45914
 H132 H 0.50458 0.47360 0.54916
 H133 H 0.54444 0.44342 0.52621
 H134 H 0.50484 0.42980 0.53716
 H135 H 0.48304 0.57856 0.47371
 H136 H 0.45526 0.54897 0.44710
 H137 H 0.57484 0.48018 0.48499
 H138 H 0.54773 0.45309 0.45748
 H139 H 0.44503 0.54733 0.53930
 H140 H 0.42008 0.52291 0.50808
 H141 H 0.52135 0.51368 0.42120
 H142 H 0.54362 0.54541 0.44658
 H143 H 0.44729 0.45937 0.54571
 H144 H 0.47352 0.48785 0.57478
 O145 O 0.50334 -0.05502 0.55356
 O146 O 0.54443 -0.03315 0.56160
 O147 O 0.45298 0.01116 0.55797
 O148 O 0.44455 0.04577 0.53612
 O149 O 0.44221 -0.04902 0.49698
 O150 O 0.46357 -0.05576 0.45704
 O151 O 0.52208 0.07321 0.48932
 O152 O 0.50710 0.07577 0.53194
 O153 O 0.57608 0.01363 0.49061
 O154 O 0.57486 -0.03115 0.50302
 O155 O 0.51728 0.01323 0.43060
 O156 O 0.47211 0.00304 0.42727
 O157 O 0.50245 0.05603 0.45247
 O158 O 0.45811 0.03363 0.44564
 O159 O 0.55244 -0.00554 0.44865
 O160 O 0.55553 -0.04717 0.47233
 O161 O 0.56127 0.05079 0.50802
 O162 O 0.54107 0.05775 0.54912
 O163 O 0.48345 -0.07204 0.51674
 O164 O 0.49585 -0.07379 0.47274
 O165 O 0.42792 -0.01203 0.51529
 O166 O 0.43109 0.03257 0.49888
 O167 O 0.48616 -0.01078 0.57598
 O168 O 0.53159 0.00073 0.57830
 Zr169 Zr 0.51148 -0.01576 0.54517
 O170 O 0.53789 0.00642 0.52365
 Zr171 Zr 0.46102 0.01315 0.51861
 O172 O 0.48525 0.03695 0.49643
 Zr173 Zr 0.48193 -0.04067 0.49171
 O174 O 0.50679 -0.01935 0.46789
 Zr175 Zr 0.52206 0.04215 0.51481
 O176 O 0.49679 0.02116 0.53881
 Zr177 Zr 0.54283 -0.01156 0.48740
 O178 O 0.51888 -0.03551 0.51026
 Zr179 Zr 0.49212 0.01743 0.46138
 O180 O 0.46544 -0.00532 0.48246
 O181 O 0.47513 -0.02294 0.52724
 O182 O 0.52884 0.02477 0.47893
 C183 C 0.49296 -0.07410 0.53985
 C184 C 0.46484 0.00125 0.57738
 C185 C 0.42425 -0.03525 0.50609
 C186 C 0.51348 0.07498 0.46584
 C187 C 0.57934 0.03724 0.49888
 C188 C 0.53982 0.00368 0.42929
 H189 H 0.55459 0.00861 0.53359
 H190 H 0.50856 -0.02935 0.45155
 H191 H 0.46349 -0.03333 0.53822
 H192 H 0.47708 0.05373 0.49381
 H193 H 0.49631 0.06996 0.54636
 H194 H 0.45549 0.06113 0.53183
 H195 H 0.54459 -0.05197 0.45671
 H196 H 0.51340 -0.07645 0.48037
 H197 H 0.55413 0.04550 0.55509
 H198 H 0.52603 0.01880 0.57998
 H199 H 0.47648 -0.01532 0.42490
 H200 H 0.45177 -0.04242 0.45077
 H201 H 0.55067 -0.04512 0.54815
 H202 H 0.57904 -0.02370 0.52053
 H203 H 0.42629 0.02225 0.48292
 H204 H 0.45502 0.04969 0.45568
 O205 O -0.05880 0.45059 0.99141
 O206 O -0.03545 0.44369 0.95359
 O207 O 0.00259 0.44400 1.05039
 O208 O 0.04046 0.46424 1.06084
 O209 O -0.05102 0.50651 1.05607
 O210 O -0.05685 0.54515 1.03408
 O211 O 0.07351 0.51639 0.98998
 O212 O 0.07360 0.47348 1.00285
 O213 O 0.01543 0.51799 0.93017
 O214 O -0.02984 0.50409 0.92567
 O215 O 0.01744 0.57416 0.98962
 O216 O 0.00400 0.57476 1.03497
 O217 O 0.05751 0.55236 1.00868
 O218 O 0.03510 0.55793 1.04980
 O219 O -0.00374 0.55805 0.95309
 O220 O -0.04556 0.53316 0.94438
 O221 O 0.05078 0.49876 0.94723
 O222 O 0.05495 0.45687 0.96752
 O223 O -0.07465 0.48549 1.01227
 O224 O -0.07387 0.53006 0.99999
 O225 O -0.01632 0.48678 1.07391
 O226 O 0.02920 0.50162 1.07578
 O227 O -0.01758 0.42751 1.01348
 O228 O -0.00307 0.42712 0.96991
 Zr229 Zr -0.01886 0.45932 0.98883
 O230 O 0.00520 0.48228 0.96572
 Zr231 Zr 0.00936 0.48360 1.04315
 O232 O 0.03528 0.50718 1.02232
 Zr233 Zr -0.04210 0.51134 1.01721
 O234 O -0.01860 0.53658 0.99586
 Zr235 Zr 0.04093 0.49065 0.98553
 O236 O 0.01782 0.46522 1.00772
 Zr237 Zr -0.01083 0.51859 0.96032
 O238 O -0.03668 0.49429 0.98056
 Zr239 Zr 0.01814 0.54256 1.01453
 O240 O -0.00671 0.51999 1.03773
 O241 O -0.02670 0.47560 1.02478
 O242 O 0.02566 0.52671 0.97822
 C243 C -0.07748 0.46318 1.00076
 C244 C -0.00791 0.42512 1.03651
 C245 C -0.03845 0.49728 1.07539
 C246 C 0.07612 0.53963 0.99935
 C247 C 0.03826 0.50915 0.92846
 C248 C 0.00739 0.57663 0.96679
 H249 H 0.00737 0.47309 0.94901
 H250 H -0.02766 0.55293 0.99367
 H251 H -0.03834 0.46444 1.03505
 H252 H 0.05195 0.50962 1.03229
 H253 H 0.06686 0.45893 1.01319
 H254 H 0.05666 0.47093 1.05319
 H255 H -0.05053 0.54777 0.95564
 H256 H -0.07700 0.52206 0.98252
 H257 H 0.04284 0.45140 0.95299
 H258 H 0.01430 0.42489 0.97817
 H259 H -0.01206 0.57995 1.02579
 H260 H -0.04278 0.55290 1.04567
 H261 H -0.04585 0.45747 0.94591
 H262 H -0.02252 0.48721 0.92125
 H263 H 0.02101 0.51836 1.07896
 H264 H 0.04930 0.54667 1.05515
 O265 O 0.06994 0.48326 0.52249
 O266 O 0.07323 0.52809 0.51160
 O267 O 0.00910 0.48372 0.57829
 O268 O -0.03208 0.49528 0.57880
 O269 O 0.00797 0.42529 0.51680
 O270 O -0.00478 0.42556 0.47174
 O271 O -0.05683 0.55006 0.50771
 O272 O -0.03624 0.55388 0.54960
 O273 O 0.00691 0.55654 0.45707
 O274 O 0.04723 0.53214 0.45257
 O275 O -0.05131 0.49665 0.44465
 O276 O -0.06036 0.45451 0.46617
 O277 O -0.07411 0.51507 0.48486
 O278 O -0.07880 0.47008 0.49552
 O279 O -0.01387 0.51614 0.43162
 O280 O 0.03038 0.50279 0.43217
 O281 O -0.01488 0.57234 0.49111
 O282 O -0.00166 0.57425 0.53580
 O283 O 0.05162 0.44828 0.50032
 O284 O 0.02981 0.44250 0.45937
 O285 O -0.01276 0.44126 0.55152
 O286 O -0.05198 0.46482 0.55492
 O287 O 0.04632 0.50284 0.56414
 O288 O 0.05572 0.54258 0.54406
 Zr289 Zr 0.03923 0.50902 0.52471
 O290 O 0.01882 0.53455 0.50118
 Zr291 Zr -0.01548 0.48112 0.54464
 O292 O -0.03829 0.50534 0.52161
 Zr293 Zr 0.01288 0.45744 0.49298
 O294 O -0.00838 0.48065 0.46776
 Zr295 Zr -0.01804 0.54073 0.51594
 O296 O 0.00377 0.51770 0.54149
 Zr297 Zr 0.01091 0.51701 0.46465
 O298 O 0.03393 0.49248 0.48725
 Zr299 Zr -0.04395 0.48896 0.48406
 O300 O -0.02384 0.46320 0.50811
 O301 O 0.02050 0.47320 0.52997
 O302 O -0.02553 0.52508 0.47870
 C303 C 0.07111 0.46073 0.51152
 C304 C 0.03238 0.49342 0.58205
 C305 C -0.00330 0.42263 0.53841
 C306 C -0.07581 0.53757 0.49558
 C307 C -0.00370 0.57497 0.46944
 C308 C -0.03716 0.50696 0.42731
 H309 H 0.02934 0.55085 0.49995
 H310 H -0.01079 0.47147 0.45082
 H311 H 0.03070 0.46183 0.54125
 H312 H -0.05490 0.50803 0.53012
 H313 H -0.02617 0.54750 0.56465
 H314 H -0.04433 0.50867 0.57369
 H315 H 0.02213 0.48574 0.42699
 H316 H 0.04229 0.45611 0.45369
 H317 H 0.01627 0.57730 0.53002
 H318 H 0.04188 0.54971 0.55462
 H319 H -0.04921 0.44963 0.45179
 H320 H -0.02251 0.42296 0.47829
 H321 H 0.07611 0.52086 0.49408
 H322 H 0.05286 0.54670 0.46449
 H323 H -0.05788 0.45248 0.54078
 H324 H -0.08295 0.47734 0.51269
 O325 O 0.50687 0.98349 0.07842
 O326 O 0.46272 0.99693 0.07628
 O327 O 0.50478 0.92404 0.01773
 O328 O 0.49443 0.92141 -0.02445
 O329 O 0.56793 0.98242 0.02207
 O330 O 0.57070 1.02722 0.01134
 O331 O 0.44623 0.99440 -0.05546
 O332 O 0.43915 0.95305 -0.03574
 O333 O 0.44101 1.04884 0.00593
 O334 O 0.46377 1.05403 0.04994
 O335 O 0.50268 1.05392 -0.04443
 O336 O 0.54435 1.03104 -0.04768
 O337 O 0.48395 1.01331 -0.06856
 O338 O 0.52860 1.00008 -0.06716
 O339 O 0.48413 1.07085 -0.00893
 O340 O 0.49495 1.07251 0.03642
 O341 O 0.42339 1.01347 -0.01608
 O342 O 0.41788 0.97015 -0.00400
 O343 O 0.54471 1.00109 0.06393
 O344 O 0.55309 1.04155 0.04416
 O345 O 0.54918 0.94667 0.00161
 O346 O 0.52768 0.94238 -0.04049
 O347 O 0.48448 0.94067 0.05244
 O348 O 0.44667 0.96408 0.05776
 Zr349 Zr 0.48210 0.98041 0.04489
 O350 O 0.45920 1.00404 0.02143
 Zr351 Zr 0.51048 0.95587 -0.00633
 O352 O 0.48908 0.97866 -0.03194
 Zr353 Zr 0.53698 1.00786 0.02471
 O354 O 0.51644 1.03309 0.00088
 Zr355 Zr 0.45349 0.98729 -0.01593
 O356 O 0.47358 0.96193 0.00859
 Zr357 Zr 0.47958 1.03927 0.01559
 O358 O 0.50154 1.01673 0.04139
 Zr359 Zr 0.50847 1.01499 -0.03543
 O360 O 0.53156 0.99083 -0.01245
 O361 O 0.51813 0.97218 0.03040
 O362 O 0.47210 1.02325 -0.02148
 C363 C 0.53055 0.99217 0.08190
 C364 C 0.49367 0.92179 0.03949
 C365 C 0.56892 0.95952 0.01189
 C366 C 0.46059 1.00437 -0.07284
 C367 C 0.42197 1.03636 -0.00619
 C368 C 0.49339 1.07280 -0.03157
 H369 H 0.44258 1.00678 0.02986
 H370 H 0.52680 1.04950 -0.00048
 H371 H 0.52825 0.96079 0.04173
 H372 H 0.48649 0.96927 -0.04877
 H373 H 0.44365 0.93832 -0.02473
 H374 H 0.48243 0.92646 -0.03864
 H375 H 0.51318 1.07539 0.03142
 H376 H 0.53945 1.04804 0.05538
 H377 H 0.41508 0.97624 0.01391
 H378 H 0.43911 0.95306 0.04325
 H379 H 0.54921 1.04633 -0.03641
 H380 H 0.57313 1.02042 -0.00643
 H381 H 0.47106 1.01431 0.07980
 H382 H 0.44748 1.04392 0.05297
 H383 H 0.54154 0.95531 -0.04463
 H384 H 0.51991 0.98332 -0.07266
 O385 O 0.55754 0.45335 0.00739
 O386 O 0.53356 0.44756 0.04544
 O387 O 0.49751 0.43982 -0.05226
 O388 O 0.45938 0.45687 -0.06278
 O389 O 0.55195 0.50492 -0.05749
 O390 O 0.55742 0.54597 -0.03542
 O391 O 0.42627 0.51090 0.00666
 O392 O 0.42575 0.46725 -0.00703
 O393 O 0.48302 0.51799 0.06773
 O394 O 0.52973 0.50698 0.07145
 O395 O 0.48379 0.57245 0.00778
 O396 O 0.49779 0.57142 -0.03721
 O397 O 0.44325 0.54698 -0.01181
 O398 O 0.46654 0.55202 -0.05253
 O399 O 0.50193 0.55863 0.04535
 O400 O 0.54293 0.53941 0.05550
 O401 O 0.44766 0.49615 0.04937
 O402 O 0.44289 0.45353 0.02907
 O403 O 0.57446 0.48812 -0.01342
 O404 O 0.57443 0.53312 -0.00116
 O405 O 0.51696 0.48222 -0.07558
 O406 O 0.47220 0.49428 -0.07860
 O407 O 0.51620 0.42674 -0.01455
 O408 O 0.50156 0.42747 0.02859
 Zr409 Zr 0.51776 0.45989 0.00973
 O410 O 0.49332 0.48216 0.03215
 Zr411 Zr 0.49079 0.47933 -0.04529
 O412 O 0.46493 0.50249 -0.02516
 Zr413 Zr 0.54237 0.51179 -0.01873
 O414 O 0.51885 0.53645 0.00243
 Zr415 Zr 0.45821 0.48724 0.01140
 O416 O 0.48150 0.46219 -0.00997
 Zr417 Zr 0.50984 0.51972 0.03786
 O418 O 0.53599 0.49646 0.01801
 Zr419 Zr 0.48260 0.53936 -0.01698
 O420 O 0.50738 0.51709 -0.03978
 O421 O 0.52639 0.47471 -0.02619
 O422 O 0.47391 0.52465 0.01909
 C423 C 0.57659 0.46639 -0.00205
 C424 C 0.50731 0.42247 -0.03783
 C425 C 0.53953 0.49355 -0.07687
 C426 C 0.42424 0.53356 -0.00270
 C427 C 0.45993 0.50773 0.06868
 C428 C 0.49221 0.57624 0.03131
 H429 H 0.49066 0.47352 0.04875
 H430 H 0.52806 0.55353 0.00491
 H431 H 0.53799 0.46371 -0.03618
 H432 H 0.44848 0.50347 -0.03545
 H433 H 0.43252 0.45239 -0.01681
 H434 H 0.44312 0.46405 -0.05662
 H435 H 0.54982 0.55187 0.04295
 H436 H 0.57641 0.52685 0.01672
 H437 H 0.45495 0.44903 0.04340
 H438 H 0.48414 0.42369 0.02035
 H439 H 0.51409 0.57769 -0.02804
 H440 H 0.54406 0.55133 -0.04820
 H441 H 0.54494 0.46209 0.05259
 H442 H 0.52040 0.49116 0.07728
 H443 H 0.48038 0.51163 -0.08132
 H444 H 0.45229 0.53954 -0.05820
 O445 O -0.00329 -0.06192 0.44870
 O446 O -0.04282 -0.04125 0.43908
 O447 O 0.05108 0.00527 0.44199
 O448 O 0.06178 0.04165 0.46314
 O449 O 0.05819 -0.04958 0.50573
 O450 O 0.03562 -0.05365 0.54534
 O451 O -0.01485 0.07110 0.50834
 O452 O 0.00120 0.07062 0.46583
 O453 O -0.07243 0.00997 0.50711
 O454 O -0.07288 -0.03625 0.49677
 O455 O -0.01448 0.01666 0.56859
 O456 O 0.03064 0.00653 0.57263
 O457 O 0.00379 0.05730 0.54571
 O458 O 0.04625 0.03656 0.55417
 O459 O -0.05072 -0.00363 0.55019
 O460 O -0.05577 -0.04781 0.52933
 O461 O -0.05528 0.04607 0.48885
 O462 O -0.03392 0.05097 0.44882
 O463 O 0.01669 -0.07517 0.48573
 O464 O 0.00243 -0.07392 0.52917
 O465 O 0.07480 -0.01416 0.48579
 O466 O 0.07424 0.03158 0.50068
 O467 O 0.01690 -0.01918 0.42454
 O468 O -0.02760 -0.00897 0.42132
 Zr469 Zr -0.00883 -0.02207 0.45530
 O470 O -0.03408 0.00135 0.47567
 Zr471 Zr 0.04317 0.01008 0.48136
 O472 O 0.02012 0.03508 0.50261
 Zr473 Zr 0.01881 -0.04188 0.50985
 O474 O -0.00520 -0.01927 0.53264
 Zr475 Zr -0.01621 0.03813 0.48363
 O476 O 0.00799 0.01568 0.46059
 Zr477 Zr -0.04050 -0.01380 0.51233
 O478 O -0.01767 -0.03911 0.49069
 Zr479 Zr 0.01164 0.01825 0.53816
 O480 O 0.03729 -0.00546 0.51805
 O481 O 0.02699 -0.02698 0.47382
 O482 O -0.02445 0.02348 0.51984
 C483 C 0.00666 -0.07938 0.46288
 C484 C 0.03873 -0.00647 0.42280
 C485 C 0.07703 -0.03637 0.49612
 C486 C -0.00619 0.07489 0.53178
 C487 C -0.07437 0.03262 0.49764
 C488 C -0.03802 0.00762 0.56943
 H489 H -0.05050 0.00233 0.46535
 H490 H -0.00789 -0.02785 0.54928
 H491 H 0.03817 -0.03795 0.46331
 H492 H 0.02927 0.05223 0.50483
 H493 H 0.01165 0.06386 0.45162
 H494 H 0.05180 0.05715 0.46698
 H495 H -0.04511 -0.05098 0.54513
 H496 H -0.01528 -0.07721 0.52145
 H497 H -0.04658 0.03731 0.44219
 H498 H -0.02093 0.00904 0.41898
 H499 H 0.02374 -0.01107 0.57641
 H500 H 0.04792 -0.03942 0.55150
 H501 H -0.04980 -0.05250 0.45267
 H502 H -0.07709 -0.02977 0.47933
 H503 H 0.07804 0.02285 0.51715
 H504 H 0.05101 0.05126 0.54310
 O505 O 0.73969 0.17509 0.25818
 O506 O 0.78334 0.17693 0.24521
 O507 O 0.74411 0.23659 0.31838
 O508 O 0.75190 0.27855 0.32104
 O509 O 0.67876 0.23137 0.26111
 O510 O 0.67526 0.24237 0.21679
 O511 O 0.80162 0.30834 0.24650
 O512 O 0.80901 0.28905 0.28762
 O513 O 0.80460 0.24730 0.19204
 O514 O 0.78114 0.20371 0.18685
 O515 O 0.74392 0.29853 0.18900
 O516 O 0.70325 0.30272 0.21194
 O517 O 0.76354 0.32242 0.22967
 O518 O 0.71842 0.32039 0.24396
 O519 O 0.76161 0.26302 0.17118
 O520 O 0.74961 0.21744 0.16962
 O521 O 0.82352 0.26835 0.22731
 O522 O 0.82894 0.25630 0.27073
 O523 O 0.70155 0.18929 0.24150
 O524 O 0.69272 0.20994 0.20138
 O525 O 0.69816 0.25187 0.29646
 O526 O 0.72055 0.29470 0.29978
 O527 O 0.76109 0.20050 0.30092
 O528 O 0.79992 0.19632 0.27743
 Zr529 Zr 0.76430 0.20865 0.26142
 O530 O 0.78701 0.23179 0.23714
 Zr531 Zr 0.73680 0.25999 0.28651
 O532 O 0.75852 0.28540 0.26358
 Zr533 Zr 0.70929 0.22888 0.23507
 O534 O 0.72965 0.25303 0.20969
 Zr535 Zr 0.79365 0.26901 0.25397
 O536 O 0.77347 0.24488 0.27979
 Zr537 Zr 0.76611 0.23807 0.20244
 O538 O 0.74445 0.21220 0.22547
 Zr539 Zr 0.73853 0.28928 0.22783
 O540 O 0.71534 0.26614 0.25204
 O541 O 0.72853 0.22320 0.27039
 O542 O 0.77449 0.27502 0.21855
 C543 C 0.71602 0.17133 0.24979
 C544 C 0.75367 0.21410 0.32025
 C545 C 0.67816 0.24162 0.28399
 C546 C 0.78730 0.32616 0.23762
 C547 C 0.82423 0.25867 0.20426
 C548 C 0.75281 0.28587 0.16979
 H549 H 0.80338 0.22311 0.23397
 H550 H 0.71908 0.25464 0.19354
 H551 H 0.71848 0.21181 0.28190
 H552 H 0.76158 0.30215 0.27306
 H553 H 0.80428 0.27843 0.30259
 H554 H 0.76593 0.29094 0.31617
 H555 H 0.73175 0.22335 0.16668
 H556 H 0.70613 0.19862 0.19463
 H557 H 0.83133 0.23837 0.26443
 H558 H 0.80674 0.21038 0.28947
 H559 H 0.69711 0.29053 0.19778
 H560 H 0.67355 0.26041 0.22320
 H561 H 0.77584 0.17408 0.22744
 H562 H 0.79743 0.20031 0.19666
 H563 H 0.70557 0.29801 0.28798
 H564 H 0.72814 0.32656 0.25992
 O565 O 0.69634 0.75202 0.70383
 O566 O 0.71744 0.79324 0.69938
 O567 O 0.76018 0.70113 0.69489
 O568 O 0.79772 0.69406 0.71490
 O569 O 0.70557 0.68976 0.75584
 O570 O 0.70089 0.71027 0.79705
 O571 O 0.82882 0.76893 0.76839
 O572 O 0.82870 0.75614 0.72496
 O573 O 0.76830 0.82332 0.77193
 O574 O 0.72272 0.82169 0.76054
 O575 O 0.77348 0.76382 0.82761
 O576 O 0.76284 0.71950 0.82820
 O577 O 0.81461 0.74705 0.80313
 O578 O 0.79035 0.70386 0.80723
 O579 O 0.75319 0.79880 0.81225
 O580 O 0.70943 0.80188 0.79011
 O581 O 0.80442 0.80952 0.75277
 O582 O 0.80920 0.78940 0.71044
 O583 O 0.68111 0.73185 0.73918
 O584 O 0.68243 0.74295 0.78450
 O585 O 0.74101 0.67579 0.73557
 O586 O 0.78669 0.67854 0.75152
 O587 O 0.73935 0.73602 0.67985
 O588 O 0.75030 0.78120 0.68145
 Zr589 Zr 0.73599 0.76011 0.71288
 O590 O 0.75953 0.78590 0.73638
 Zr591 Zr 0.76612 0.70901 0.73474
 O592 O 0.79153 0.73279 0.75870
 Zr593 Zr 0.71420 0.72936 0.76399
 O594 O 0.73736 0.75349 0.78974
 Zr595 Zr 0.79587 0.77005 0.74354
 O596 O 0.77325 0.74521 0.71762
 Zr597 Zr 0.74392 0.78978 0.77315
 O598 O 0.71837 0.76656 0.74848
 Zr599 Zr 0.77467 0.73889 0.79472
 O600 O 0.75023 0.71279 0.77157
 O601 O 0.72954 0.72346 0.72774
 O602 O 0.78102 0.77594 0.78019
 C603 C 0.67788 0.74171 0.71674
 C604 C 0.74985 0.71409 0.67657
 C605 C 0.71847 0.67192 0.74503
 C606 C 0.83263 0.75832 0.79033
 C607 C 0.79101 0.82734 0.76298
 C608 C 0.76408 0.78634 0.83059
 H609 H 0.76096 0.80273 0.72773
 H610 H 0.72859 0.75496 0.80638
 H611 H 0.71829 0.71211 0.71597
 H612 H 0.80839 0.72438 0.76034
 H613 H 0.82204 0.74484 0.71026
 H614 H 0.81362 0.70388 0.72129
 H615 H 0.70603 0.79085 0.80510
 H616 H 0.67937 0.76061 0.77835
 H617 H 0.79660 0.80255 0.70562
 H618 H 0.76822 0.77562 0.67890
 H619 H 0.74418 0.72257 0.83015
 H620 H 0.71493 0.69895 0.80280
 H621 H 0.70597 0.79885 0.71325
 H622 H 0.72871 0.82621 0.74319
 H623 H 0.77738 0.67330 0.76713
 H624 H 0.80551 0.70040 0.79661
 O625 O 0.24596 0.20181 0.81114
 O626 O 0.20429 0.19363 0.79032
 O627 O 0.29675 0.19548 0.74724
 O628 O 0.30297 0.21447 0.70992
 O629 O 0.30727 0.25953 0.80250
 O630 O 0.28528 0.29851 0.80948
 O631 O 0.22709 0.26222 0.68140
 O632 O 0.24132 0.21957 0.67981
 O633 O 0.17332 0.26339 0.74138
 O634 O 0.17401 0.25277 0.78597
 O635 O 0.23237 0.32232 0.73811
 O636 O 0.27834 0.32570 0.74966
 O637 O 0.24783 0.29917 0.69723
 O638 O 0.29150 0.30697 0.71895
 O639 O 0.19754 0.30582 0.75888
 O640 O 0.19457 0.28316 0.80161
 O641 O 0.18738 0.24377 0.70499
 O642 O 0.20787 0.20269 0.69899
 O643 O 0.26655 0.23887 0.82702
 O644 O 0.25315 0.28284 0.82777
 O645 O 0.32138 0.23847 0.76687
 O646 O 0.31837 0.25294 0.72194
 O647 O 0.26215 0.17797 0.76780
 O648 O 0.21655 0.17575 0.75667
 Zr649 Zr 0.23727 0.20917 0.77194
 O650 O 0.21108 0.23020 0.74936
 Zr651 Zr 0.28808 0.23430 0.74211
 O652 O 0.26403 0.25580 0.71770
 Zr653 Zr 0.26728 0.26333 0.79505
 O654 O 0.24281 0.28668 0.77304
 Zr655 Zr 0.22689 0.23763 0.71322
 O656 O 0.25204 0.21411 0.73480
 Zr657 Zr 0.20662 0.26713 0.76613
 O658 O 0.23021 0.24476 0.79064
 Zr659 Zr 0.25761 0.29157 0.73602
 O660 O 0.28398 0.27112 0.75935
 O661 O 0.27374 0.22722 0.77846
 O662 O 0.22065 0.27414 0.72944
 C663 C 0.25703 0.21573 0.82967
 C664 C 0.28439 0.17641 0.75742
 C665 C 0.32518 0.24947 0.78930
 C666 C 0.23641 0.28543 0.67884
 C667 C 0.16953 0.25366 0.71839
 C668 C 0.21003 0.32442 0.74800
 H669 H 0.19428 0.22029 0.74765
 H670 H 0.24118 0.30342 0.78239
 H671 H 0.28547 0.21678 0.78919
 H672 H 0.27222 0.25782 0.70081
 H673 H 0.25252 0.20563 0.68587
 H674 H 0.29352 0.22024 0.69426
 H675 H 0.20532 0.29917 0.80553
 H676 H 0.23589 0.27468 0.83102
 H677 H 0.19485 0.19712 0.71156
 H678 H 0.22248 0.17303 0.73883
 H679 H 0.27185 0.33030 0.76688
 H680 H 0.29603 0.30535 0.79548
 H681 H 0.19859 0.20739 0.80224
 H682 H 0.17061 0.23450 0.78028
 H683 H 0.32295 0.26952 0.73131
 H684 H 0.29519 0.29569 0.70390
 O685 O 0.18770 0.74156 0.29570
 O686 O 0.21027 0.70242 0.30059
 O687 O 0.25022 0.79903 0.30969
 O688 O 0.28761 0.81032 0.29252
 O689 O 0.19530 0.80608 0.24474
 O690 O 0.19060 0.78469 0.20316
 O691 O 0.31961 0.73906 0.23835
 O692 O 0.31998 0.75354 0.28241
 O693 O 0.26199 0.67953 0.23104
 O694 O 0.21532 0.67633 0.24112
 O695 O 0.26341 0.74026 0.17701
 O696 O 0.25072 0.78499 0.17770
 O697 O 0.30433 0.76017 0.20324
 O698 O 0.28084 0.80073 0.19818
 O699 O 0.24477 0.70253 0.19046
 O700 O 0.20244 0.69346 0.20924
 O701 O 0.29735 0.69744 0.25314
 O702 O 0.30220 0.71711 0.29559
 O703 O 0.17200 0.76212 0.26043
 O704 O 0.17252 0.75034 0.21540
 O705 O 0.23081 0.82321 0.26732
 O706 O 0.27603 0.82568 0.25555
 O707 O 0.22983 0.76192 0.32259
 O708 O 0.24253 0.71826 0.32136
 Zr709 Zr 0.22751 0.73798 0.28911
 O710 O 0.25184 0.71526 0.26689
 Zr711 Zr 0.25633 0.79261 0.27012
 O712 O 0.28206 0.77227 0.24714
 Zr713 Zr 0.20453 0.76727 0.23726
 O714 O 0.22798 0.74585 0.21270
 Zr715 Zr 0.28751 0.73545 0.26215
 O716 O 0.26435 0.75698 0.28712
 Zr717 Zr 0.23591 0.71003 0.22917
 O718 O 0.20981 0.73023 0.25232
 Zr719 Zr 0.26467 0.76482 0.21018
 O720 O 0.24005 0.78783 0.23234
 O721 O 0.22016 0.77423 0.27448
 O722 O 0.27227 0.72838 0.22462
 C723 C 0.16912 0.75122 0.28231
 C724 C 0.23997 0.78479 0.32703
 C725 C 0.20832 0.82509 0.25617
 C726 C 0.32256 0.74965 0.21636
 C727 C 0.28497 0.67832 0.24136
 C728 C 0.25489 0.71672 0.17310
 H729 H 0.25402 0.69854 0.27541
 H730 H 0.21900 0.74362 0.19554
 H731 H 0.20879 0.78439 0.28559
 H732 H 0.29875 0.78234 0.24646
 H733 H 0.31323 0.76288 0.29756
 H734 H 0.30381 0.80299 0.28639
 H735 H 0.19691 0.70573 0.19593
 H736 H 0.17020 0.73232 0.22129
 H737 H 0.28954 0.70324 0.30020
 H738 H 0.26026 0.72582 0.32519
 H739 H 0.23371 0.77682 0.17206
 H740 H 0.20423 0.79758 0.19836
 H741 H 0.19873 0.69594 0.28594
 H742 H 0.22359 0.67086 0.25754
 H743 H 0.26755 0.82932 0.23862
 H744 H 0.29514 0.80615 0.21064
 O745 O 0.31019 0.74726 0.69955
 O746 O 0.28834 0.70497 0.69510
 O747 O 0.24321 0.79602 0.69411
 O748 O 0.20815 0.80336 0.71605
 O749 O 0.30449 0.81087 0.75356
 O750 O 0.31400 0.79065 0.79415
 O751 O 0.18431 0.73123 0.76882
 O752 O 0.18108 0.74298 0.72357
 O753 O 0.24508 0.67681 0.76912
 O754 O 0.28957 0.67837 0.75346
 O755 O 0.24688 0.73728 0.82505
 O756 O 0.25815 0.78333 0.82545
 O757 O 0.20349 0.75241 0.80389
 O758 O 0.22582 0.79553 0.80879
 O759 O 0.26616 0.70217 0.80828
 O760 O 0.30633 0.69820 0.78372
 O761 O 0.20687 0.69029 0.75215
 O762 O 0.19680 0.70502 0.71262
 O763 O 0.32803 0.76983 0.73446
 O764 O 0.33258 0.75895 0.77854
 O765 O 0.26643 0.82323 0.73509
 O766 O 0.22271 0.82017 0.75164
 O767 O 0.26541 0.76272 0.67745
 O768 O 0.25460 0.71730 0.67727
 Zr769 Zr 0.27132 0.73876 0.70944
 O770 O 0.25015 0.71334 0.73305
 Zr771 Zr 0.24226 0.78951 0.73390
 O772 O 0.22018 0.76647 0.75863
 Zr773 Zr 0.29785 0.77118 0.76055
 O774 O 0.27830 0.74697 0.78634
 Zr775 Zr 0.21456 0.72895 0.74255
 O776 O 0.23415 0.75282 0.71601
 Zr777 Zr 0.27004 0.71022 0.76892
 O778 O 0.29271 0.73348 0.74421
 Zr779 Zr 0.24166 0.76151 0.79335
 O780 O 0.26250 0.78740 0.76979
 O781 O 0.27843 0.77586 0.72516
 O782 O 0.23388 0.72414 0.77812
 C783 C 0.32944 0.75921 0.71189
 C784 C 0.25306 0.78373 0.67518
 C785 C 0.28974 0.82799 0.74396
 C786 C 0.18369 0.74154 0.79165
 C787 C 0.22108 0.67287 0.76189
 C788 C 0.25697 0.71507 0.82718
 H789 H 0.24739 0.69631 0.72405
 H790 H 0.28909 0.74594 0.80243
 H791 H 0.28814 0.78730 0.71343
 H792 H 0.20351 0.77481 0.76131
 H793 H 0.18660 0.75015 0.70692
 H794 H 0.19344 0.79212 0.72149
 H795 H 0.31232 0.71054 0.79780
 H796 H 0.33492 0.74102 0.77212
 H797 H 0.21016 0.70205 0.69977
 H798 H 0.23707 0.72396 0.67394
 H799 H 0.27581 0.77715 0.82904
 H800 H 0.30059 0.80223 0.80044
 H801 H 0.30173 0.70035 0.70820
 H802 H 0.28003 0.67231 0.73737
 H803 H 0.23282 0.82536 0.76769
 H804 H 0.21031 0.79934 0.79794
 O805 O 0.25726 0.20351 0.19637
 O806 O 0.29726 0.19880 0.21900
 O807 O 0.20268 0.19365 0.25720
 O808 O 0.19519 0.21279 0.29491
 O809 O 0.19402 0.25547 0.20322
 O810 O 0.21600 0.29627 0.19823
 O811 O 0.26990 0.26805 0.32758
 O812 O 0.25572 0.22471 0.32803
 O813 O 0.32614 0.27196 0.26976
 O814 O 0.32606 0.26032 0.22408
 O815 O 0.26619 0.32681 0.27177
 O816 O 0.22079 0.32572 0.25907
 O817 O 0.24945 0.30288 0.31206
 O818 O 0.20651 0.30644 0.28865
 O819 O 0.30208 0.31242 0.25264
 O820 O 0.30752 0.29009 0.21021
 O821 O 0.31043 0.25229 0.30514
 O822 O 0.28944 0.20957 0.30935
 O823 O 0.23687 0.23802 0.17996
 O824 O 0.24899 0.28325 0.18093
 O825 O 0.17853 0.23512 0.23833
 O826 O 0.17995 0.24969 0.28357
 O827 O 0.23855 0.17910 0.23802
 O828 O 0.28348 0.18095 0.25143
 Zr829 Zr 0.26338 0.21229 0.23592
 O830 O 0.28859 0.23601 0.25987
 Zr831 Zr 0.21109 0.23345 0.26392
 O832 O 0.23411 0.25767 0.28973
 Zr833 Zr 0.23380 0.26305 0.21252
 O834 O 0.25736 0.28901 0.23608
 Zr835 Zr 0.27119 0.24285 0.29535
 O836 O 0.24696 0.21666 0.27238
 Zr837 Zr 0.29349 0.27289 0.24408
 O838 O 0.27089 0.24798 0.21821
 Zr839 Zr 0.24119 0.29366 0.27263
 O840 O 0.21583 0.27030 0.24778
 O841 O 0.22693 0.22676 0.22803
 O842 O 0.27802 0.27959 0.28032
 C843 C 0.24735 0.21595 0.17748
 C844 C 0.21591 0.17554 0.24732
 C845 C 0.17544 0.24504 0.21593
 C846 C 0.26030 0.29043 0.33048
 C847 C 0.32900 0.26282 0.29255
 C848 C 0.28896 0.33044 0.26285
 H849 H 0.30532 0.22747 0.26197
 H850 H 0.25924 0.30567 0.22718
 H851 H 0.21574 0.21511 0.21650
 H852 H 0.22527 0.25935 0.30632
 H853 H 0.24457 0.20977 0.32144
 H854 H 0.20389 0.21979 0.31108
 H855 H 0.29591 0.30416 0.20548
 H856 H 0.26676 0.27715 0.17866
 H857 H 0.30332 0.20507 0.29750
 H858 H 0.27656 0.17795 0.26878
 H859 H 0.22737 0.33000 0.24187
 H860 H 0.20459 0.30239 0.21193
 H861 H 0.30391 0.21288 0.20804
 H862 H 0.33071 0.24337 0.23102
 H863 H 0.17601 0.26608 0.27497
 H864 H 0.20245 0.29537 0.30346
 O865 O 0.79814 0.69385 0.24246
 O866 O 0.80070 0.71713 0.20260
 O867 O 0.81012 0.75538 0.29922
 O868 O 0.79133 0.79216 0.30961
 O869 O 0.74731 0.69783 0.30692
 O870 O 0.70548 0.69082 0.28530
 O871 O 0.73387 0.82207 0.24096
 O872 O 0.77913 0.82363 0.25401
 O873 O 0.72883 0.76456 0.17990
 O874 O 0.74126 0.71843 0.17751
 O875 O 0.67500 0.76231 0.24085
 O876 O 0.67748 0.74814 0.28590
 O877 O 0.69925 0.80346 0.26045
 O878 O 0.69582 0.77979 0.30090
 O879 O 0.68862 0.74464 0.20333
 O880 O 0.70911 0.70472 0.19356
 O881 O 0.74901 0.80091 0.19777
 O882 O 0.79003 0.80895 0.21601
 O883 O 0.76370 0.67568 0.26274
 O884 O 0.71856 0.67356 0.25155
 O885 O 0.76868 0.73414 0.32364
 O886 O 0.75527 0.77818 0.32603
 O887 O 0.82301 0.73567 0.26232
 O888 O 0.82081 0.74988 0.21878
 Zr889 Zr 0.78925 0.73293 0.23835
 O890 O 0.76533 0.75631 0.21584
 Zr891 Zr 0.76993 0.75981 0.29281
 O892 O 0.74485 0.78417 0.27270
 Zr893 Zr 0.73891 0.70668 0.26793
 O894 O 0.71270 0.72874 0.24642
 Zr895 Zr 0.75895 0.79124 0.23587
 O896 O 0.78586 0.76926 0.25707
 Zr897 Zr 0.72822 0.73828 0.21061
 O898 O 0.75309 0.71331 0.23081
 Zr899 Zr 0.70860 0.76470 0.26531
 O900 O 0.73270 0.74147 0.28833
 O901 O 0.77557 0.72429 0.27464
 O902 O 0.72197 0.77392 0.22884
 C903 C 0.78588 0.67445 0.25221
 C904 C 0.82752 0.74550 0.28514
 C905 C 0.75840 0.71126 0.32579
 C906 C 0.71152 0.82308 0.25119
 C907 C 0.73818 0.78794 0.17854
 C908 C 0.67092 0.75374 0.21747
 H909 H 0.77362 0.75926 0.19915
 H910 H 0.69591 0.71885 0.24423
 H911 H 0.78731 0.71343 0.28488
 H912 H 0.74341 0.80046 0.28286
 H913 H 0.79536 0.81729 0.26201
 H914 H 0.78382 0.80792 0.30250
 H915 H 0.69766 0.69709 0.20659
 H916 H 0.72393 0.67201 0.23339
 H917 H 0.79837 0.79522 0.20604
 H918 H 0.82476 0.76710 0.22716
 H919 H 0.67158 0.73176 0.27684
 H920 H 0.70023 0.70389 0.29821
 H921 H 0.78700 0.70403 0.19688
 H922 H 0.75698 0.72794 0.17171
 H923 H 0.73834 0.76936 0.32937
 H924 H 0.70792 0.79435 0.30654
 O925 O 0.69277 0.30221 0.74061
 O926 O 0.68574 0.28033 0.69998
 O927 O 0.68844 0.23579 0.79151
 O928 O 0.71068 0.20133 0.79992
 O929 O 0.74832 0.29745 0.80350
 O930 O 0.78863 0.30627 0.78296
 O931 O 0.76004 0.17673 0.72479
 O932 O 0.71706 0.17257 0.73825
 O933 O 0.75931 0.23727 0.67050
 O934 O 0.74490 0.28182 0.67147
 O935 O 0.81754 0.23804 0.72947
 O936 O 0.82000 0.24917 0.77498
 O937 O 0.79653 0.19554 0.74423
 O938 O 0.80224 0.21723 0.78853
 O939 O 0.80046 0.25911 0.69515
 O940 O 0.77532 0.29851 0.69056
 O941 O 0.74191 0.19938 0.68495
 O942 O 0.70026 0.19051 0.70409
 O943 O 0.72855 0.32059 0.76172
 O944 O 0.77308 0.32431 0.75054
 O945 O 0.73039 0.25952 0.81730
 O946 O 0.74767 0.21587 0.81464
 O947 O 0.67074 0.25774 0.75808
 O948 O 0.66953 0.24572 0.71294
 Zr949 Zr 0.70207 0.26347 0.73333
 O950 O 0.72479 0.24264 0.70763
 Zr951 Zr 0.72820 0.23494 0.78426
 O952 O 0.75161 0.21245 0.76076
 Zr953 Zr 0.75451 0.29019 0.76396
 O954 O 0.77949 0.27024 0.73975
 Zr955 Zr 0.73402 0.20704 0.72377
 O956 O 0.70885 0.22664 0.74828
 Zr957 Zr 0.76088 0.26227 0.70346
 O958 O 0.73683 0.28482 0.72676
 Zr959 Zr 0.78650 0.23347 0.75448
 O960 O 0.76422 0.25489 0.78054
 O961 O 0.71910 0.27089 0.76990
 O962 O 0.76978 0.22603 0.71764
 C963 C 0.70563 0.32173 0.75129
 C964 C 0.66910 0.24558 0.77943
 C965 C 0.73912 0.28297 0.82120
 C966 C 0.78370 0.17612 0.73335
 C967 C 0.75135 0.21346 0.66715
 C968 C 0.81943 0.24903 0.70758
 H969 H 0.71522 0.24030 0.69081
 H970 H 0.79574 0.28087 0.73830
 H971 H 0.70769 0.28075 0.78121
 H972 H 0.75450 0.19570 0.76903
 H973 H 0.70227 0.17767 0.74874
 H974 H 0.71621 0.18630 0.78959
 H975 H 0.78971 0.30463 0.70263
 H976 H 0.76559 0.32711 0.73298
 H977 H 0.69420 0.20282 0.69107
 H978 H 0.66790 0.22771 0.71902
 H979 H 0.82280 0.26726 0.76951
 H980 H 0.79535 0.29269 0.79430
 H981 H 0.69920 0.29264 0.69369
 H982 H 0.72830 0.27268 0.66602
 H983 H 0.76371 0.22640 0.81933
 H984 H 0.79236 0.20081 0.79151
 C985 C 0.08219 0.99761 1.17400
 C986 C 0.10723 0.98827 1.17650
 C987 C 0.11964 0.98779 1.20068
 C988 C 0.10754 0.99617 1.22331
 C989 C 0.08253 1.00631 1.21963
 N990 N 0.07077 1.00672 1.19557
 C991 C 0.06903 0.99912 1.14806
 N992 N 0.05111 1.01737 1.14349
 C993 C 0.03969 1.02035 1.11956
 C994 C 0.04660 1.00469 1.09847
 C995 C 0.06453 0.98546 1.10305
 C996 C 0.07544 0.98240 1.12766
 H997 H 0.13938 0.98171 1.20109
 H998 H 0.07297 1.01556 1.23541
 H999 H 0.02558 1.03512 1.11695
 H1000 H 0.06986 0.97234 1.08765
 H1001 H 0.11789 0.98240 1.15983
 H1002 H 0.08862 0.96687 1.13053
 C1003 C 0.57998 0.50714 0.67646
 C1004 C 0.57359 0.52143 0.69867
 C1005 C 0.58700 0.51757 0.72229
 C1006 C 0.60618 0.49888 0.72427
 C1007 C 0.61222 0.48570 0.70110
 N1008 N 0.59920 0.49002 0.67851
 C1009 C 0.56772 0.51043 0.65037
 N1010 N 0.58031 0.50130 0.62952
 C1011 C 0.57030 0.50201 0.60492
 C1012 C 0.54576 0.51205 0.59998
 C1013 C 0.53247 0.52199 0.62113
 C1014 C 0.54336 0.52126 0.64632
 H1015 H 0.58280 0.52964 0.73890
 H1016 H 0.62798 0.47255 0.70045
 H1017 H 0.58135 0.49412 0.58937
 H1018 H 0.51342 0.52981 0.61831
 H1019 H 0.55918 0.53606 0.69779
 H1020 H 0.53240 0.52830 0.66230
 C1021 C 0.41641 0.01111 0.67566
 C1022 C 0.39182 0.02139 0.67769
 C1023 C 0.37946 0.02077 0.70116
 C1024 C 0.39132 0.01037 0.72341
 C1025 C 0.41596 -0.00029 0.72009
 N1026 N 0.42754 0.00034 0.69683
 C1027 C 0.42955 0.00987 0.65061
 N1028 N 0.44775 -0.00817 0.64683
 C1029 C 0.45961 -0.01116 0.62386
 C1030 C 0.45299 0.00434 0.60288
 C1031 C 0.43478 0.02343 0.60661
 C1032 C 0.42327 0.02643 0.63038
 H1033 H 0.36009 0.02778 0.70117
 H1034 H 0.42544 -0.01065 0.73540
 H1035 H 0.47378 -0.02593 0.62189
 H1036 H 0.42954 0.03629 0.59120
 H1037 H 0.38142 0.02882 0.66112
 H1038 H 0.40978 0.04174 0.63271
 C1039 C -0.08509 0.50649 1.17466
 C1040 C -0.11011 0.51565 1.17695
 C1041 C -0.12164 0.51565 1.20081
 C1042 C -0.10856 0.50700 1.22324
 C1043 C -0.08362 0.49711 1.21965
 N1044 N -0.07280 0.49717 1.19598
 C1045 C -0.07268 0.50506 1.14923
 N1046 N -0.05375 0.48781 1.14534
 C1047 C -0.04239 0.48489 1.12208
 C1048 C -0.05030 0.49964 1.10095
 C1049 C -0.06939 0.51782 1.10476
 C1050 C -0.08034 0.52079 1.12878
 H1051 H -0.14139 0.52161 1.20107
 H1052 H -0.07330 0.48773 1.23510
 H1053 H -0.02748 0.47088 1.12006
 H1054 H -0.07560 0.53015 1.08926
 H1055 H -0.12143 0.52173 1.16035
 H1056 H -0.09444 0.53553 1.13115
 C1057 C -0.07955 0.50387 0.32259
 C1058 C -0.06778 0.51464 0.30101
 C1059 C -0.08113 0.51367 0.27701
 C1060 C -0.10624 0.50165 0.27382
 C1061 C -0.11702 0.49119 0.29629
 N1062 N -0.10371 0.49253 0.31939
 C1063 C -0.06766 0.50556 0.34917
 N1064 N -0.08269 0.49846 0.36921
 C1065 C -0.07367 0.49924 0.39423
 C1066 C -0.04791 0.50756 0.40040
 C1067 C -0.03205 0.51513 0.38010
 C1068 C -0.04174 0.51408 0.35455
 H1069 H -0.07238 0.52419 0.26149
 H1070 H -0.13647 0.48273 0.29609
 H1071 H -0.08662 0.49312 0.40918
 H1072 H -0.01193 0.52142 0.38385
 H1073 H -0.04907 0.52485 0.30253
 H1074 H -0.02876 0.51950 0.33946
 C1075 C 0.41897 1.00361 -0.17764
 C1076 C 0.43088 1.01533 -0.19864
 C1077 C 0.41771 1.01533 -0.22268
 C1078 C 0.39262 1.00339 -0.22646
 C1079 C 0.38167 0.99199 -0.20452
 N1080 N 0.39484 0.99239 -0.18137
 C1081 C 0.43067 1.00434 -0.15104
 N1082 N 0.41526 0.99748 -0.13120
 C1083 C 0.42414 0.99762 -0.10614
 C1084 C 0.45009 1.00505 -0.09979
 C1085 C 0.46635 1.01221 -0.11993
 C1086 C 0.45682 1.01176 -0.14549
 H1087 H 0.42654 1.02649 -0.23772
 H1088 H 0.36224 0.98351 -0.20511
 H1089 H 0.41091 0.99185 -0.09131
 H1090 H 0.48663 1.01778 -0.11603
 H1091 H 0.44955 1.02560 -0.19657
 H1092 H 0.47009 1.01679 -0.16047
 C1093 C 0.58751 0.49455 -0.17612
 C1094 C 0.61456 0.49676 -0.17785
 C1095 C 0.62549 0.49743 -0.20197
 C1096 C 0.60986 0.49614 -0.22494
 C1097 C 0.58282 0.49228 -0.22234
 N1098 N 0.57250 0.49181 -0.19836
 C1099 C 0.57533 0.49474 -0.15052
 N1100 N 0.55195 0.48205 -0.14763
 C1101 C 0.54022 0.48121 -0.12441
 C1102 C 0.55211 0.49368 -0.10229
 C1103 C 0.57601 0.50715 -0.10503
 C1104 C 0.58753 0.50785 -0.12898
 H1105 H 0.64647 0.49921 -0.20279
 H1106 H 0.56987 0.48932 -0.23911
 H1107 H 0.52164 0.47082 -0.12330
 H1108 H 0.58575 0.51743 -0.08872
 H1109 H 0.62736 0.49762 -0.16080
 H1110 H 0.60564 0.51897 -0.13055
 C1111 C 0.08491 0.00090 0.32302
 C1112 C 0.11059 0.01032 0.32128
 C1113 C 0.12231 0.01021 0.29754
 C1114 C 0.10880 0.00127 0.27460
 C1115 C 0.08321 -0.00910 0.27759
 N1116 N 0.07216 -0.00895 0.30122
 C1117 C 0.07235 -0.00003 0.34844
 N1118 N 0.05316 -0.01828 0.35252
 C1119 C 0.04199 -0.02077 0.37592
 C1120 C 0.05038 -0.00451 0.39704
 C1121 C 0.06971 0.01472 0.39299
 C1122 C 0.08046 0.01721 0.36883
 H1123 H 0.14250 0.01643 0.29773
 H1124 H 0.07245 -0.01878 0.26163
 H1125 H 0.02686 -0.03564 0.37809
 H1126 H 0.07633 0.02819 0.40843
 H1127 H 0.12217 0.01676 0.33824
 H1128 H 0.09484 0.03269 0.36627
 C1129 C 0.17559 1.08771 1.00351
 C1130 C 0.17821 1.11459 1.00090
 C1131 C 0.20276 1.12644 1.00014
 C1132 C 0.22530 1.11192 1.00187
 C1133 C 0.22183 1.08513 1.00620
 N1134 N 0.19741 1.07385 1.00665
 C1135 C 0.14942 1.07459 1.00298
 N1136 N 0.14515 1.05246 1.01633
 C1137 C 0.12117 1.04029 1.01690
 C1138 C 0.09977 1.05049 1.00355
 C1139 C 0.10404 1.07298 0.98934
 C1140 C 0.12867 1.08486 0.98883
 H1141 H 0.20424 1.14726 0.99804
 H1142 H 0.23826 1.07318 1.00956
 H1143 H 0.11884 1.02279 1.02784
 H1144 H 0.08840 1.08135 0.97825
 H1145 H 0.16149 1.12659 0.99975
 H1146 H 0.13136 1.10178 0.97711
 C1147 C 0.67470 0.58875 0.49872
 C1148 C 0.67859 0.61405 0.49012
 C1149 C 0.70356 0.62513 0.48979
 C1150 C 0.72550 0.61137 0.49759
 C1151 C 0.72037 0.58627 0.50723
 N1152 N 0.69566 0.57583 0.50739
 C1153 C 0.64821 0.57650 0.49990
 N1154 N 0.64385 0.55642 0.51608
 C1155 C 0.61985 0.54474 0.51830
 C1156 C 0.59843 0.55337 0.50381
 C1157 C 0.60265 0.57383 0.48689
 C1158 C 0.62736 0.58518 0.48467
 H1159 H 0.70523 0.64506 0.48421
 H1160 H 0.73562 0.57546 0.51616
 H1161 H 0.61753 0.52880 0.53135
 H1162 H 0.58694 0.58076 0.47479
 H1163 H 0.66255 0.62586 0.48464
 H1164 H 0.62992 0.60024 0.47071
 C1165 C 0.67418 0.41640 0.00240
 C1166 C 0.67558 0.39171 0.01276
 C1167 C 0.69834 0.37836 0.01115
 C1168 C 0.72059 0.38934 -0.00027
 C1169 C 0.71765 0.41380 -0.01164
 N1170 N 0.69505 0.42645 -0.00993
 C1171 C 0.64984 0.43071 0.00292
 N1172 N 0.64489 0.44843 -0.01557
 C1173 C 0.62206 0.46083 -0.01712
 C1174 C 0.60244 0.45515 0.00032
 C1175 C 0.60756 0.43770 0.02003
 C1176 C 0.63123 0.42574 0.02159
 H1177 H 0.69785 0.35901 0.01842
 H1178 H 0.73276 0.42246 -0.02300
 H1179 H 0.61894 0.47440 -0.03245
 H1180 H 0.59321 0.43326 0.03428
 H1181 H 0.65898 0.38209 0.02120
 H1182 H 0.63471 0.41270 0.03728
 C1183 C 0.17632 -0.08283 0.49892
 C1184 C 0.19891 -0.07104 0.51035
 C1185 C 0.22162 -0.08482 0.51175
 C1186 C 0.22259 -0.11018 0.50083
 C1187 C 0.19883 -0.12124 0.49035
 N1188 N 0.17691 -0.10758 0.48969
 C1189 C 0.15132 -0.06996 0.49820
 N1190 N 0.12901 -0.08484 0.49939
 C1191 C 0.10519 -0.07454 0.49885
 C1192 C 0.10285 -0.04772 0.49660
 C1193 C 0.12557 -0.03202 0.49489
 C1194 C 0.14987 -0.04304 0.49583
 H1195 H 0.23811 -0.07583 0.52248
 H1196 H 0.19705 -0.14091 0.48311
 H1197 H 0.08813 -0.08737 0.49992
 H1198 H 0.12458 -0.01123 0.49309
 H1199 H 0.19882 -0.05183 0.51917
 H1200 H 0.16721 -0.03071 0.49429
 C1201 C 0.32167 -0.08267 0.50653
 C1202 C 0.30001 -0.07193 0.49456
 C1203 C 0.27618 -0.08573 0.49378
 C1204 C 0.27318 -0.10996 0.50582
 C1205 C 0.29601 -0.12007 0.51691
 N1206 N 0.31909 -0.10645 0.51695
 C1207 C 0.34765 -0.06970 0.50657
 N1208 N 0.36886 -0.08452 0.50550
 C1209 C 0.39342 -0.07398 0.50522
 C1210 C 0.39769 -0.04698 0.50643
 C1211 C 0.37611 -0.03134 0.50801
 C1212 C 0.35106 -0.04262 0.50796
 H1213 H 0.26042 -0.07782 0.48255
 H1214 H 0.29602 -0.13902 0.52509
 H1215 H 0.40956 -0.08673 0.50428
 H1216 H 0.37858 -0.01041 0.50904
 H1217 H 0.30166 -0.05364 0.48482
 H1218 H 0.33464 -0.03030 0.50937
 C1219 C -0.17973 0.41444 0.99086
 C1220 C -0.18337 0.38896 0.98130
 C1221 C -0.20761 0.37641 0.98234
 C1222 C -0.22913 0.38892 0.99236
 C1223 C -0.22419 0.41453 1.00229
 N1224 N -0.20013 0.42630 1.00133
 C1225 C -0.15368 0.42770 0.99197
 N1226 N -0.14829 0.44702 1.00998
 C1227 C -0.12428 0.45891 1.01304
 C1228 C -0.10390 0.45109 0.99769
 C1229 C -0.10924 0.43169 0.97861
 C1230 C -0.13405 0.42021 0.97549
 H1231 H -0.20881 0.35638 0.97608
 H1232 H -0.23877 0.42464 1.01256
 H1233 H -0.12103 0.47405 1.02776
 H1234 H -0.09429 0.42555 0.96585
 H1235 H -0.16746 0.37808 0.97425
 H1236 H -0.13765 0.40572 0.96021
 C1237 C -0.17673 0.58180 0.49842
 C1238 C -0.20024 0.57004 0.48873
 C1239 C -0.22317 0.58349 0.49003
 C1240 C -0.22341 0.60851 0.50173
 C1241 C -0.19915 0.61920 0.51128
 N1242 N -0.17712 0.60586 0.50946
 C1243 C -0.15118 0.56966 0.49659
 N1244 N -0.13024 0.58143 0.50951
 C1245 C -0.10600 0.57205 0.50892
 C1246 C -0.10162 0.54927 0.49470
 C1247 C -0.12279 0.53699 0.48083
 C1248 C -0.14749 0.54710 0.48163
 H1249 H -0.24032 0.57473 0.48024
 H1250 H -0.19717 0.63859 0.51941
 H1251 H -0.09034 0.58219 0.51995
 H1252 H -0.12036 0.51942 0.46948
 H1253 H -0.20119 0.55097 0.47965
 H1254 H -0.16317 0.53725 0.47047
 C1255 C 0.32257 1.08406 -0.00677
 C1256 C 0.30014 1.07653 -0.02182
 C1257 C 0.27721 1.08980 -0.01870
 C1258 C 0.27605 1.11009 -0.00010
 C1259 C 0.29949 1.11751 0.01362
 N1260 N 0.32144 1.10446 0.01013
 C1261 C 0.34786 1.07144 -0.00878
 N1262 N 0.36941 1.08384 0.00241
 C1263 C 0.39324 1.07347 0.00279
 C1264 C 0.39652 1.04883 -0.00832
 C1265 C 0.37465 1.03575 -0.02031
 C1266 C 0.35036 1.04692 -0.02056
 H1267 H 0.26042 1.08447 -0.03115
 H1268 H 0.30083 1.13418 0.02668
 H1269 H 0.40943 1.08433 0.01225
 H1270 H 0.37616 1.01663 -0.02903
 H1271 H 0.30028 1.06116 -0.03635
 H1272 H 0.33381 1.03601 -0.02922
 C1273 C 0.00896 1.17919 1.07988
 C1274 C 0.01301 1.20267 1.06706
 C1275 C 0.01036 1.22625 1.08046
 C1276 C 0.00290 1.22666 1.10645
 C1277 C 0.00026 1.20260 1.11864
 N1278 N 0.00293 1.18006 1.10524
 C1279 C 0.01009 1.15327 1.06703
 N1280 N 0.00054 1.13239 1.07982
 C1281 C 0.00000 1.10789 1.06965
 C1282 C 0.00939 1.10313 1.04491
 C1283 C 0.01989 1.12425 1.03151
 C1284 C 0.02035 1.14928 1.04247
 H1285 H 0.01446 1.24397 1.07040
 H1286 H -0.00438 1.20176 1.13886
 H1287 H -0.00816 1.09229 1.08083
 H1288 H 0.02752 1.12151 1.01242
 H1289 H 0.01791 1.20314 1.04693
 H1290 H 0.02869 1.16504 1.03170
 C1291 C 0.50353 0.67720 0.58525
 C1292 C 0.50016 0.67904 0.61198
 C1293 C 0.49969 0.70320 0.62412
 C1294 C 0.50248 0.72612 0.61004
 C1295 C 0.50758 0.72338 0.58348
 N1296 N 0.50772 0.69935 0.57190
 C1297 C 0.50270 0.65152 0.57174
 N1298 N 0.51655 0.64778 0.55005
 C1299 C 0.51691 0.62423 0.53756
 C1300 C 0.50286 0.60272 0.54699
 C1301 C 0.48807 0.60647 0.56895
 C1302 C 0.48777 0.63069 0.58115
 H1303 H 0.49690 0.70408 0.64479
 H1304 H 0.51173 0.74008 0.57191
 H1305 H 0.52834 0.62228 0.52049
 H1306 H 0.47642 0.59073 0.57667
 H1307 H 0.49815 0.66200 0.62364
 H1308 H 0.47563 0.63300 0.59765
 C1309 C 0.00104 0.67608 0.42533
 C1310 C 0.02409 0.69121 0.42365
 C1311 C 0.02397 0.71395 0.40959
 C1312 C 0.00137 0.72094 0.39572
 C1313 C -0.02188 0.70667 0.40060
 N1314 N -0.02136 0.68474 0.41463
 C1315 C 0.00074 0.65051 0.43754
 N1316 N -0.02005 0.64262 0.45139
 C1317 C -0.02180 0.61877 0.46203
 C1318 C -0.00227 0.60102 0.45822
 C1319 C 0.01911 0.60867 0.44371
 C1320 C 0.02080 0.63344 0.43357
 H1321 H 0.04193 0.72544 0.40840
 H1322 H -0.04048 0.71256 0.39306
 H1323 H -0.03865 0.61351 0.47302
 H1324 H 0.03464 0.59558 0.44042
 H1325 H 0.04203 0.68542 0.43293
 H1326 H 0.03728 0.63892 0.42214
 C1327 C 0.49756 1.17226 -0.07903
 C1328 C 0.51103 1.19389 -0.06762
 C1329 C 0.51287 1.21692 -0.08112
 C1330 C 0.50028 1.21924 -0.10567
 C1331 C 0.48794 1.19636 -0.11659
 N1332 N 0.48689 1.17403 -0.10326
 C1333 C 0.49608 1.14708 -0.06615
 N1334 N 0.49603 1.12487 -0.08087
 C1335 C 0.49508 1.10101 -0.07032
 C1336 C 0.49372 1.09856 -0.04341
 C1337 C 0.49316 1.12121 -0.02793
 C1338 C 0.49450 1.14549 -0.03919
 H1339 H 0.52523 1.23250 -0.07264
 H1340 H 0.47949 1.19581 -0.13595
 H1341 H 0.49528 1.08402 -0.08297
 H1342 H 0.49210 1.12017 -0.00709
 H1343 H 0.52105 1.19275 -0.04895
 H1344 H 0.49397 1.16276 -0.02698
 C1345 C 0.51066 0.31898 -0.08054
 C1346 C 0.50097 0.29734 -0.06765
 C1347 C 0.49928 0.27321 -0.08039
 C1348 C 0.50809 0.26987 -0.10586
 C1349 C 0.51748 0.29260 -0.11784
 N1350 N 0.51837 0.31597 -0.10520
 C1351 C 0.51057 0.34534 -0.06891
 N1352 N 0.50697 0.36577 -0.08464
 C1353 C 0.50589 0.39050 -0.07526
 C1354 C 0.50874 0.39579 -0.04855
 C1355 C 0.51299 0.37503 -0.03205
 C1356 C 0.51385 0.34983 -0.04212
 H1357 H 0.48925 0.25768 -0.07065
 H1358 H 0.52323 0.29239 -0.13762
 H1359 H 0.50288 0.40595 -0.08870
 H1360 H 0.51539 0.37821 -0.01131
 H1361 H 0.49330 0.29920 -0.04850
 H1362 H 0.51729 0.33413 -0.02909
 C1363 C 0.00512 -0.18462 0.42484
 C1364 C -0.01729 -0.20092 0.42424
 C1365 C -0.01729 -0.22472 0.41097
 C1366 C 0.00439 -0.23164 0.39678
 C1367 C 0.02750 -0.21624 0.40113
 N1368 N 0.02712 -0.19319 0.41433
 C1369 C 0.00482 -0.15780 0.43513
 N1370 N 0.02557 -0.14762 0.44950
 C1371 C 0.02660 -0.12263 0.45854
 C1372 C 0.00632 -0.10619 0.45246
 C1373 C -0.01494 -0.11616 0.43721
 C1374 C -0.01590 -0.14203 0.42875
 H1375 H -0.03496 -0.23685 0.41002
 H1376 H 0.04568 -0.22189 0.39332
 H1377 H 0.04337 -0.11552 0.47021
 H1378 H -0.03101 -0.10409 0.43227
 H1379 H -0.03480 -0.19500 0.43334
 H1380 H -0.03237 -0.14948 0.41685
 C1381 C 0.49624 -0.17596 0.58317
 C1382 C 0.48063 -0.19786 0.57527
 C1383 C 0.48343 -0.22122 0.58804
 C1384 C 0.50216 -0.22335 0.60835
 C1385 C 0.51693 -0.20056 0.61580
 N1386 N 0.51367 -0.17810 0.60324
 C1387 C 0.49379 -0.15011 0.57153
 N1388 N 0.50436 -0.12894 0.58486
 C1389 C 0.50374 -0.10457 0.57554
 C1390 C 0.49216 -0.10030 0.55113
 C1391 C 0.48096 -0.12183 0.53707
 C1392 C 0.48176 -0.14668 0.54713
 H1393 H 0.47038 -0.23754 0.58256
 H1394 H 0.53033 -0.20000 0.63235
 H1395 H 0.51273 -0.08867 0.58708
 H1396 H 0.47195 -0.11958 0.51807
 H1397 H 0.46571 -0.19693 0.56014
 H1398 H 0.47361 -0.16288 0.53550
 C1399 C -0.00698 0.32399 1.08163
 C1400 C -0.02118 0.30159 1.07259
 C1401 C -0.01852 0.27832 1.08556
 C1402 C -0.00119 0.27680 1.10715
 C1403 C 0.01157 0.30019 1.11613
 N1404 N 0.00856 0.32252 1.10328
 C1405 C -0.00873 0.34956 1.06929
 N1406 N 0.00076 0.37099 1.08290
 C1407 C 0.00082 0.39515 1.07308
 C1408 C -0.00894 0.39896 1.04783
 C1409 C -0.01895 0.37717 1.03339
 C1410 C -0.01884 0.35250 1.04397
 H1411 H -0.03022 0.26145 1.07885
 H1412 H 0.02350 0.30112 1.13376
 H1413 H 0.00877 0.41128 1.08498
 H1414 H -0.02652 0.37909 1.01376
 H1415 H -0.03473 0.30194 1.05619
 H1416 H -0.02604 0.33608 1.03210
 C1417 C 0.75212 0.33467 0.07104
 C1418 C 0.76367 0.35925 0.06795
 C1419 C 0.76183 0.37090 0.04407
 C1420 C 0.74921 0.35811 0.02235
 C1421 C 0.73760 0.33331 0.02676
 N1422 N 0.73952 0.32240 0.05043
 C1423 C 0.75243 0.32249 0.09658
 N1424 N 0.75414 0.29634 0.09813
 C1425 C 0.75460 0.28422 0.12123
 C1426 C 0.75284 0.29860 0.14448
 C1427 C 0.75066 0.32552 0.14320
 C1428 C 0.75052 0.33750 0.11937
 H1429 H 0.77000 0.39034 0.04324
 H1430 H 0.72564 0.32312 0.01194
 H1431 H 0.75601 0.26337 0.12137
 H1432 H 0.74917 0.33736 0.16061
 H1433 H 0.77390 0.36960 0.08393
 H1434 H 0.74845 0.35826 0.11881
 C1435 C 0.24460 0.83208 0.57646
 C1436 C 0.23518 0.85702 0.57481
 C1437 C 0.23566 0.86972 0.55147
 C1438 C 0.24502 0.85782 0.52897
 C1439 C 0.25537 0.83302 0.53201
 N1440 N 0.25483 0.82104 0.55517
 C1441 C 0.24524 0.81844 0.60132
 N1442 N 0.26358 0.80063 0.60586
 C1443 C 0.26611 0.78869 0.62898
 C1444 C 0.24985 0.79490 0.64928
 C1445 C 0.23032 0.81252 0.64464
 C1446 C 0.22778 0.82407 0.62074
 H1447 H 0.22913 0.88924 0.55167
 H1448 H 0.26496 0.82354 0.51636
 H1449 H 0.28125 0.77497 0.63168
 H1450 H 0.21691 0.81740 0.65951
 H1451 H 0.22836 0.86727 0.59159
 H1452 H 0.21225 0.83726 0.61765
 C1453 C 0.75320 0.66870 0.57425
 C1454 C 0.76436 0.68074 0.55308
 C1455 C 0.76473 0.66727 0.52931
 C1456 C 0.75270 0.64224 0.52586
 C1457 C 0.74336 0.63064 0.54845
 N1458 N 0.74367 0.64392 0.57139
 C1459 C 0.75269 0.68139 0.60010
 N1460 N 0.75363 0.66631 0.62132
 C1461 C 0.75271 0.67630 0.64579
 C1462 C 0.75021 0.70300 0.64998
 C1463 C 0.74876 0.71891 0.62836
 C1464 C 0.75017 0.70821 0.60339
 H1465 H 0.77543 0.67626 0.51407
 H1466 H 0.73606 0.61082 0.54829
 H1467 H 0.75372 0.66331 0.66190
 H1468 H 0.74687 0.73963 0.63077
 H1469 H 0.77362 0.69990 0.55508
 H1470 H 0.74879 0.72069 0.58691
 C1471 C 0.25098 0.16663 0.07667
 C1472 C 0.25420 0.13988 0.07471
 C1473 C 0.25481 0.12786 0.05052
 C1474 C 0.25251 0.14213 0.02772
 C1475 C 0.24786 0.16879 0.03058
 N1476 N 0.24739 0.18020 0.05463
 C1477 C 0.25092 0.17988 0.10238
 N1478 N 0.23650 0.20115 0.10600
 C1479 C 0.23506 0.21322 0.12963
 C1480 C 0.24850 0.20373 0.15134
 C1481 C 0.26393 0.18225 0.14771
 C1482 C 0.26534 0.17049 0.12342
 H1483 H 0.25704 0.10710 0.04950
 H1484 H 0.24402 0.18049 0.01395
 H1485 H 0.22321 0.22995 0.13149
 H1486 H 0.27517 0.17455 0.16364
 H1487 H 0.25573 0.12810 0.09168
 H1488 H 0.27783 0.15430 0.12120
 C1489 C 0.25869 0.16996 0.93035
 C1490 C 0.27445 0.17763 0.95215
 C1491 C 0.27195 0.16422 0.97526
 C1492 C 0.25321 0.14374 0.97718
 C1493 C 0.23876 0.13623 0.95431
 N1494 N 0.24171 0.14937 0.93219
 C1495 C 0.26017 0.18244 0.90486
 N1496 N 0.24908 0.16935 0.88386
 C1497 C 0.24833 0.17933 0.85981
 C1498 C 0.25896 0.20427 0.85569
 C1499 C 0.27070 0.21817 0.87702
 C1500 C 0.27135 0.20736 0.90161
 H1501 H 0.28491 0.16964 0.99159
 H1502 H 0.22551 0.11945 0.95357
 H1503 H 0.23907 0.16782 0.84407
 H1504 H 0.27907 0.23753 0.87482
 H1505 H 0.28906 0.19317 0.95133
 H1506 H 0.27989 0.21874 0.91778
 C1507 C 0.75719 0.66720 0.42694
 C1508 C 0.74916 0.68052 0.44898
 C1509 C 0.74775 0.66774 0.47245
 C1510 C 0.75544 0.64185 0.47474
 C1511 C 0.76218 0.62921 0.45144
 N1512 N 0.76296 0.64193 0.42882
 C1513 C 0.75801 0.67919 0.40130
 N1514 N 0.75372 0.66387 0.37964
 C1515 C 0.75400 0.67350 0.35538
 C1516 C 0.75915 0.70005 0.35189
 C1517 C 0.76417 0.71609 0.37399
 C1518 C 0.76353 0.70578 0.39866
 H1519 H 0.73920 0.67795 0.48829
 H1520 H 0.76626 0.60898 0.45068
 H1521 H 0.75018 0.66041 0.33891
 H1522 H 0.76822 0.73670 0.37226
 H1523 H 0.74286 0.70021 0.44792
 H1524 H 0.76764 0.71845 0.41540
 C1525 C 0.24464 0.82797 0.43082
 C1526 C 0.23303 0.81743 0.45257
 C1527 C 0.23472 0.83131 0.47614
 C1528 C 0.24820 0.85572 0.47865
 C1529 C 0.25945 0.86522 0.45600
 N1530 N 0.25740 0.85142 0.43339
 C1531 C 0.24250 0.81568 0.40462
 N1532 N 0.25015 0.83017 0.38436
 C1533 C 0.24916 0.82090 0.35958
 C1534 C 0.24003 0.79540 0.35386
 C1535 C 0.23192 0.78002 0.37438
 C1536 C 0.23319 0.79001 0.39976
 H1537 H 0.22406 0.82343 0.49201
 H1538 H 0.26933 0.88391 0.45556
 H1539 H 0.25567 0.83350 0.34446
 H1540 H 0.22496 0.76013 0.37091
 H1541 H 0.22182 0.79929 0.45146
 H1542 H 0.22731 0.77751 0.41515
 C1543 C 0.73707 0.32782 0.92389
 C1544 C 0.74753 0.31615 0.94584
 C1545 C 0.74938 0.32995 0.96943
 C1546 C 0.73995 0.35524 0.97185
 C1547 C 0.72970 0.36591 0.94889
 N1548 N 0.72869 0.35230 0.92611
 C1549 C 0.73709 0.31541 0.89788
 N1550 N 0.73931 0.33077 0.87696
 C1551 C 0.74002 0.32092 0.85241
 C1552 C 0.73816 0.29403 0.84778
 C1553 C 0.73537 0.27782 0.86905
 C1554 C 0.73494 0.28841 0.89411
 H1555 H 0.76004 0.32131 0.98513
 H1556 H 0.72343 0.38551 0.94845
 H1557 H 0.74190 0.33413 0.83657
 H1558 H 0.73379 0.25695 0.86635
 H1559 H 0.75572 0.29721 0.94456
 H1560 H 0.73263 0.27562 0.91023
 C1561 C 0.83270 0.42963 0.24196
 C1562 C 0.82086 0.45087 0.25323
 C1563 C 0.83448 0.47482 0.25547
 C1564 C 0.85956 0.47831 0.24546
 C1565 C 0.87080 0.45580 0.23542
 N1566 N 0.85735 0.43270 0.23389
 C1567 C 0.82013 0.40344 0.24026
 N1568 N 0.83546 0.38258 0.24093
 C1569 C 0.82551 0.35782 0.23969
 C1570 C 0.79855 0.35292 0.23736
 C1571 C 0.78238 0.37416 0.23598
 C1572 C 0.79308 0.39943 0.23753
 H1573 H 0.82571 0.49011 0.26630
 H1574 H 0.89054 0.45606 0.22928
 H1575 H 0.83868 0.34204 0.24063
 H1576 H 0.76145 0.37127 0.23419
 H1577 H 0.80183 0.44878 0.26135
 H1578 H 0.78034 0.41555 0.23633
 C1579 C 0.33212 0.93235 0.74221
 C1580 C 0.32007 0.95374 0.75287
 C1581 C 0.33340 0.97785 0.75433
 C1582 C 0.35849 0.98129 0.74427
 C1583 C 0.36962 0.95879 0.73407
 N1584 N 0.35648 0.93554 0.73342
 C1585 C 0.32029 0.90591 0.74231
 N1586 N 0.33626 0.88561 0.74418
 C1587 C 0.32701 0.86065 0.74469
 C1588 C 0.30017 0.85496 0.74293
 C1589 C 0.28334 0.87558 0.74051
 C1590 C 0.29332 0.90108 0.74032
 H1591 H 0.32458 0.99320 0.76501
 H1592 H 0.38918 0.95906 0.72748
 H1593 H 0.34066 0.84532 0.74633
 H1594 H 0.26247 0.87203 0.73909
 H1595 H 0.30122 0.95164 0.76138
 H1596 H 0.28009 0.91672 0.73829
 C1597 C 0.16394 0.92544 0.25325
 C1598 C 0.17704 0.94709 0.24335
 C1599 C 0.16462 0.97056 0.24188
 C1600 C 0.13942 0.97330 0.25140
 C1601 C 0.12676 0.95033 0.25987
 N1602 N 0.13910 0.92761 0.26066
 C1603 C 0.17588 0.89995 0.25451
 N1604 N 0.16051 0.87796 0.25105
 C1605 C 0.17029 0.85389 0.25168
 C1606 C 0.19700 0.85097 0.25637
 C1607 C 0.21306 0.87341 0.26056
 C1608 C 0.20263 0.89787 0.25953
 H1609 H 0.17454 0.98606 0.23201
 H1610 H 0.10682 0.95004 0.26547
 H1611 H 0.15718 0.83710 0.24855
 H1612 H 0.23379 0.87209 0.26423
 H1613 H 0.19628 0.94569 0.23577
 H1614 H 0.21532 0.91491 0.26292
 C1615 C 0.65861 0.42130 0.74987
 C1616 C 0.63170 0.42344 0.74647
 C1617 C 0.62127 0.44778 0.74601
 C1618 C 0.63727 0.47054 0.74871
 C1619 C 0.66409 0.46748 0.75348
 N1620 N 0.67390 0.44332 0.75375
 C1621 C 0.67040 0.39553 0.74992
 N1622 N 0.69355 0.39255 0.76283
 C1623 C 0.70507 0.36928 0.76380
 C1624 C 0.69318 0.34716 0.75126
 C1625 C 0.66949 0.34996 0.73762
 C1626 C 0.65820 0.37397 0.73675
 H1627 H 0.60039 0.44894 0.74352
 H1628 H 0.67723 0.48401 0.75750
 H1629 H 0.72348 0.36811 0.77434
 H1630 H 0.65978 0.33366 0.72724
 H1631 H 0.61858 0.40657 0.74470
 H1632 H 0.64032 0.37556 0.72542
 C1633 C 0.67024 0.56902 0.74374
 C1634 C 0.67631 0.54745 0.72832
 C1635 C 0.66198 0.52394 0.73047
 C1636 C 0.64216 0.52139 0.74853
 C1637 C 0.63643 0.54401 0.76282
 N1638 N 0.65039 0.56649 0.76018
 C1639 C 0.68341 0.59504 0.74234
 N1640 N 0.67161 0.61547 0.75334
 C1641 C 0.68217 0.63997 0.75400
 C1642 C 0.70642 0.64527 0.74331
 C1643 C 0.71903 0.62456 0.73168
 C1644 C 0.70763 0.59944 0.73115
 H1645 H 0.66605 0.50786 0.71765
 H1646 H 0.62025 0.54434 0.77556
 H1647 H 0.67165 0.65518 0.76319
 H1648 H 0.73783 0.62769 0.72327
 H1649 H 0.69122 0.54876 0.71415
 H1650 H 0.71801 0.58379 0.72261
 C1651 C 0.16866 0.07275 0.24678
 C1652 C 0.18084 0.05124 0.25683
 C1653 C 0.16698 0.02749 0.25767
 C1654 C 0.14117 0.02436 0.24739
 C1655 C 0.12968 0.04714 0.23862
 N1656 N 0.14342 0.07010 0.23847
 C1657 C 0.18170 0.09874 0.24666
 N1658 N 0.16695 0.11992 0.24881
 C1659 C 0.17739 0.14449 0.24898
 C1660 C 0.20425 0.14888 0.24654
 C1661 C 0.21979 0.12733 0.24379
 C1662 C 0.20862 0.10224 0.24396
 H1663 H 0.17627 0.01209 0.26775
 H1664 H 0.10953 0.04718 0.23241
 H1665 H 0.16466 0.16054 0.25090
 H1666 H 0.24060 0.12984 0.24182
 H1667 H 0.20043 0.05297 0.26513
 H1668 H 0.22087 0.08587 0.24164
 C1669 C 0.33438 0.07900 0.75620
 C1670 C 0.35905 0.07696 0.76774
 C1671 C 0.37171 0.05385 0.76560
 C1672 C 0.35986 0.03178 0.75265
 C1673 C 0.33480 0.03504 0.74123
 N1674 N 0.32290 0.05804 0.74340
 C1675 C 0.32160 0.10405 0.75648
 N1676 N 0.29544 0.10488 0.75922
 C1677 C 0.28305 0.12769 0.75993
 C1678 C 0.29717 0.15131 0.75740
 C1679 C 0.32406 0.15070 0.75420
 C1680 C 0.33629 0.12723 0.75377
 H1681 H 0.39111 0.05403 0.77390
 H1682 H 0.32510 0.01982 0.72940
 H1683 H 0.26223 0.12735 0.76214
 H1684 H 0.33573 0.16840 0.75211
 H1685 H 0.36875 0.09326 0.77813
 H1686 H 0.35702 0.12722 0.75095
 C1687 C 0.83584 0.57693 0.25328
 C1688 C 0.86098 0.57545 0.26388
 C1689 C 0.87331 0.55207 0.26297
 C1690 C 0.86072 0.52922 0.25228
 C1691 C 0.83520 0.53196 0.24174
 N1692 N 0.82363 0.55521 0.24266
 C1693 C 0.82312 0.60202 0.25240
 N1694 N 0.79712 0.60307 0.25601
 C1695 C 0.78474 0.62588 0.25599
 C1696 C 0.79867 0.64931 0.25187
 C1697 C 0.82535 0.64846 0.24754
 C1698 C 0.83760 0.62495 0.24783
 H1699 H 0.89311 0.55260 0.27025
 H1700 H 0.82491 0.51619 0.23122
 H1701 H 0.76406 0.62566 0.25912
 H1702 H 0.83688 0.66599 0.24421
 H1703 H 0.87129 0.59235 0.27256
 H1704 H 0.85818 0.62473 0.24426
 C1705 C 0.92401 0.25488 0.15730
 C1706 C 0.92783 0.23715 0.13702
 C1707 C 0.95226 0.23553 0.12666
 C1708 C 0.97381 0.25069 0.13692
 C1709 C 0.96897 0.26833 0.15730
 N1710 N 0.94472 0.26978 0.16695
 C1711 C 0.89794 0.25753 0.16831
 N1712 N 0.89607 0.26584 0.19334
 C1713 C 0.87279 0.26733 0.20492
 C1714 C 0.84949 0.25988 0.19122
 C1715 C 0.85095 0.25220 0.16512
 C1716 C 0.87498 0.25119 0.15360
 H1717 H 0.95380 0.22277 0.10996
 H1718 H 0.98438 0.28140 0.16512
 H1719 H 0.87262 0.27358 0.22504
 H1720 H 0.83354 0.24669 0.15364
 H1721 H 0.91214 0.22457 0.12898
 H1722 H 0.87539 0.24549 0.13336
 C1723 C 0.42949 0.76009 0.66503
 C1724 C 0.45124 0.77625 0.67236
 C1725 C 0.47467 0.77336 0.65991
 C1726 C 0.47699 0.75400 0.64055
 C1727 C 0.45414 0.73924 0.63305
 N1728 N 0.43165 0.74247 0.64539
 C1729 C 0.40394 0.76166 0.67730
 N1730 N 0.38270 0.74971 0.66506
 C1731 C 0.35872 0.74915 0.67531
 C1732 C 0.35504 0.76089 0.69958
 C1733 C 0.37664 0.77350 0.71249
 C1734 C 0.40103 0.77389 0.70152
 H1735 H 0.49105 0.78640 0.66529
 H1736 H 0.45371 0.72548 0.61697
 H1737 H 0.34272 0.73917 0.66463
 H1738 H 0.37486 0.78273 0.73133
 H1739 H 0.45027 0.79140 0.68703
 H1740 H 0.41734 0.78306 0.71236
 C1741 C 0.42708 0.24961 0.83822
 C1742 C 0.43096 0.25807 0.86399
 C1743 C 0.45520 0.25631 0.87615
 C1744 C 0.47651 0.24674 0.86295
 C1745 C 0.47100 0.23664 0.83755
 N1746 N 0.44699 0.23854 0.82601
 C1747 C 0.40131 0.25097 0.82484
 N1748 N 0.39455 0.23396 0.80497
 C1749 C 0.37062 0.23343 0.79289
 C1750 C 0.35176 0.25047 0.80103
 C1751 C 0.35862 0.26859 0.82093
 C1752 C 0.38334 0.26911 0.83263
 H1753 H 0.45669 0.26207 0.89629
 H1754 H 0.48530 0.22626 0.82714
 H1755 H 0.36615 0.21929 0.77742
 H1756 H 0.34489 0.28250 0.82739
 H1757 H 0.41528 0.26520 0.87518
 H1758 H 0.38818 0.28370 0.84755
 C1759 C 0.93148 0.74445 0.32924
 C1760 C 0.94627 0.72224 0.33001
 C1761 C 0.96956 0.72285 0.34469
 C1762 C 0.97780 0.74514 0.35951
 C1763 C 0.96373 0.76771 0.35557
 N1764 N 0.94097 0.76656 0.34150
 C1765 C 0.90517 0.74428 0.31692
 N1766 N 0.88757 0.76049 0.32675
 C1767 C 0.86276 0.76115 0.31706
 C1768 C 0.85444 0.74496 0.29597
 C1769 C 0.87239 0.72835 0.28525
 C1770 C 0.89771 0.72787 0.29571
 H1771 H 0.98055 0.70543 0.34558
 H1772 H 0.97039 0.78628 0.36386
 H1773 H 0.84967 0.77444 0.32574
 H1774 H 0.86681 0.71557 0.26892
 H1775 H 0.93949 0.70428 0.32039
 H1776 H 0.91128 0.71508 0.28704
 C1777 C 0.06851 0.74643 0.32759
 C1778 C 0.05284 0.76791 0.32940
 C1779 C 0.03106 0.76666 0.34469
 C1780 C 0.02511 0.74443 0.35908
 C1781 C 0.03989 0.72250 0.35433
 N1782 N 0.06124 0.72430 0.33965
 C1783 C 0.09364 0.74764 0.31454
 N1784 N 0.11297 0.73256 0.32335
 C1785 C 0.13701 0.73331 0.31332
 C1786 C 0.14280 0.74996 0.29302
 C1787 C 0.12298 0.76527 0.28321
 C1788 C 0.09844 0.76423 0.29394
 H1789 H 0.01947 0.78361 0.34635
 H1790 H 0.03491 0.70394 0.36239
 H1791 H 0.15155 0.72089 0.32126
 H1792 H 0.12651 0.77827 0.26746
 H1793 H 0.05786 0.78590 0.32013
 H1794 H 0.08344 0.77613 0.28603
 C1795 C 0.57250 0.23865 0.83174
 C1796 C 0.57196 0.22839 0.85651
 C1797 C 0.54962 0.22973 0.87067
 C1798 C 0.52693 0.24078 0.86047
 C1799 C 0.52890 0.25174 0.83569
 N1800 N 0.55113 0.25038 0.82228
 C1801 C 0.59653 0.23871 0.81675
 N1802 N 0.60092 0.25752 0.79916
 C1803 C 0.62351 0.25968 0.78628
 C1804 C 0.64349 0.24258 0.79130
 C1805 C 0.63893 0.22254 0.80860
 C1806 C 0.61549 0.22036 0.82107
 H1807 H 0.55084 0.22254 0.89001
 H1808 H 0.51331 0.26259 0.82740
 H1809 H 0.62617 0.27524 0.77283
 H1810 H 0.65354 0.20852 0.81256
 H1811 H 0.58894 0.22032 0.86558
 H1812 H 0.61246 0.20446 0.83402
 C1813 C 0.57495 0.74642 0.66995
 C1814 C 0.55143 0.74404 0.68287
 C1815 C 0.52783 0.74639 0.66906
 C1816 C 0.52742 0.75182 0.64243
 C1817 C 0.55156 0.75358 0.63039
 N1818 N 0.57413 0.75114 0.64420
 C1819 C 0.60086 0.74428 0.68301
 N1820 N 0.62212 0.75290 0.67029
 C1821 C 0.64669 0.75183 0.68042
 C1822 C 0.65118 0.74153 0.70499
 C1823 C 0.62962 0.73209 0.71837
 C1824 C 0.60448 0.73336 0.70747
 H1825 H 0.51007 0.74322 0.67925
 H1826 H 0.55238 0.75676 0.60981
 H1827 H 0.66263 0.75929 0.66929
 H1828 H 0.63213 0.72388 0.73733
 H1829 H 0.55099 0.74042 0.70335
 H1830 H 0.58834 0.72563 0.71809
 C1831 C 0.07218 0.24836 0.16905
 C1832 C 0.04849 0.24343 0.18119
 C1833 C 0.02492 0.24507 0.16702
 C1834 C 0.02470 0.25223 0.14087
 C1835 C 0.04902 0.25668 0.12965
 N1836 N 0.07150 0.25486 0.14374
 C1837 C 0.09817 0.24677 0.18224
 N1838 N 0.11927 0.25640 0.16986
 C1839 C 0.14392 0.25570 0.17996
 C1840 C 0.14870 0.24470 0.20413
 C1841 C 0.12731 0.23432 0.21720
 C1842 C 0.10209 0.23526 0.20636
 H1843 H 0.00708 0.23999 0.17645
 H1844 H 0.05010 0.26133 0.10941
 H1845 H 0.15968 0.26396 0.16910
 H1846 H 0.13000 0.22557 0.23589
 H1847 H 0.04789 0.23825 0.20129
 H1848 H 0.08616 0.22680 0.21678
 C1849 C -0.08391 0.99868 0.81437
 C1850 C -0.07526 0.98588 0.79213
 C1851 C -0.08816 0.98905 0.76818
 C1852 C -0.10930 1.00545 0.76593
 C1853 C -0.11748 1.01730 0.78901
 N1854 N -0.10477 1.01378 0.81194
 C1855 C -0.07229 0.99575 0.84079
 N1856 N -0.08539 1.00505 0.86127
 C1857 C -0.07623 1.00396 0.88617
 C1858 C -0.05225 0.99308 0.89179
 C1859 C -0.03843 0.98313 0.87102
 C1860 C -0.04829 0.98446 0.84558
 H1861 H -0.08212 0.97800 0.75156
 H1862 H -0.13464 1.02865 0.78918
 H1863 H -0.08759 1.01193 0.90144
 H1864 H -0.01972 0.97471 0.87433
 H1865 H -0.05941 0.97282 0.79309
 H1866 H -0.03684 0.97721 0.83008
 C1867 C 0.41857 0.49949 0.31457
 C1868 C 0.42414 0.48391 0.29299
 C1869 C 0.41099 0.48747 0.26924
 C1870 C 0.39267 0.50692 0.26648
 C1871 C 0.38794 0.52199 0.28890
 N1872 N 0.40068 0.51789 0.31170
 C1873 C 0.42990 0.49585 0.34095
 N1874 N 0.41740 0.50601 0.36139
 C1875 C 0.42641 0.50440 0.38626
 C1876 C 0.44971 0.49219 0.39191
 C1877 C 0.46293 0.48135 0.37117
 C1878 C 0.45311 0.48311 0.34570
 H1879 H 0.41438 0.47433 0.25320
 H1880 H 0.37309 0.53615 0.28900
 H1881 H 0.41555 0.51316 0.40149
 H1882 H 0.48108 0.47190 0.37454
 H1883 H 0.43751 0.46837 0.29453
 H1884 H 0.46399 0.47519 0.33008
 C1885 C 0.58706 -0.00360 0.33027
 C1886 C 0.61382 0.00155 0.32906
 C1887 C 0.62545 0.00079 0.30524
 C1888 C 0.61066 -0.00468 0.28214
 C1889 C 0.58409 -0.01156 0.28454
 N1890 N 0.57307 -0.01037 0.30811
 C1891 C 0.57426 -0.00186 0.35542
 N1892 N 0.58885 -0.00280 0.37784
 C1893 C 0.57838 -0.00090 0.40153
 C1894 C 0.55167 0.00252 0.40366
 C1895 C 0.53625 0.00374 0.38079
 C1896 C 0.54744 0.00136 0.35666
 H1897 H 0.64620 0.00494 0.30474
 H1898 H 0.57208 -0.01821 0.26800
 H1899 H 0.59099 -0.00193 0.41863
 H1900 H 0.51550 0.00613 0.38154
 H1901 H 0.62567 0.00656 0.34629
 H1902 H 0.53531 0.00233 0.33921
 C1903 C 0.08472 0.50643 0.82866
 C1904 C 0.07759 0.52085 0.80702
 C1905 C 0.09038 0.51741 0.78384
 C1906 C 0.10984 0.49913 0.78163
 C1907 C 0.11692 0.48596 0.80430
 N1908 N 0.10431 0.48977 0.82658
 C1909 C 0.07253 0.50911 0.85411
 N1910 N 0.08502 0.49957 0.87527
 C1911 C 0.07493 0.50008 0.89920
 C1912 C 0.05052 0.51041 0.90295
 C1913 C 0.03737 0.52065 0.88146
 C1914 C 0.04823 0.52000 0.85708
 H1915 H 0.08539 0.52942 0.76768
 H1916 H 0.13304 0.47323 0.80482
 H1917 H 0.08580 0.49192 0.91511
 H1918 H 0.01841 0.52867 0.88333
 H1919 H 0.06296 0.53523 0.80799
 H1920 H 0.03723 0.52726 0.84082
 C1921 C 0.08390 0.49355 0.68271
 C1922 C 0.11102 0.49689 0.68418
 C1923 C 0.12398 0.49794 0.70814
 C1924 C 0.11031 0.49586 0.73118
 C1925 C 0.08323 0.49038 0.72869
 N1926 N 0.07086 0.48971 0.70488
 C1927 C 0.06972 0.49451 0.65734
 N1928 N 0.04748 0.47973 0.65235
 C1929 C 0.03473 0.47929 0.62872
 C1930 C 0.04455 0.49412 0.60849
 C1931 C 0.06691 0.51005 0.61372
 C1932 C 0.07933 0.51043 0.63796
 H1933 H 0.14493 0.50090 0.70877
 H1934 H 0.07184 0.48657 0.74543
 H1935 H 0.01734 0.46699 0.62561
 H1936 H 0.07491 0.52236 0.59904
 H1937 H 0.12228 0.49868 0.66697
 H1938 H 0.09632 0.52322 0.64144
 C1939 C 0.58091 0.99486 0.18290
 C1940 C 0.57110 1.00793 0.20432
 C1941 C 0.58516 1.00851 0.22808
 C1942 C 0.60811 0.99467 0.23103
 C1943 C 0.61764 0.98311 0.20841
 N1944 N 0.60398 0.98330 0.18562
 C1945 C 0.56768 0.99414 0.15702
 N1946 N 0.54143 0.99625 0.15428
 C1947 C 0.52886 0.99493 0.13059
 C1948 C 0.54298 0.99171 0.10803
 C1949 C 0.56995 0.98947 0.11059
 C1950 C 0.58228 0.99048 0.13492
 H1951 H 0.57813 1.01988 0.24401
 H1952 H 0.63618 0.97400 0.20864
 H1953 H 0.50803 0.99698 0.12933
 H1954 H 0.58157 0.98692 0.09371
 H1955 H 0.55324 1.01821 0.20251
 H1956 H 0.60316 0.98875 0.13637
 C1957 C 0.41024 0.50853 0.16702
 C1958 C 0.38321 0.50582 0.16885
 C1959 C 0.37235 0.50527 0.19303
 C1960 C 0.38805 0.50729 0.21592
 C1961 C 0.41505 0.51142 0.21318
 N1962 N 0.42527 0.51173 0.18918
 C1963 C 0.42254 0.50835 0.14147
 N1964 N 0.44629 0.52043 0.13894
 C1965 C 0.45846 0.52090 0.11595
 C1966 C 0.44668 0.50860 0.09371
 C1967 C 0.42231 0.49590 0.09604
 C1968 C 0.41032 0.49559 0.11975
 H1969 H 0.35140 0.50319 0.19398
 H1970 H 0.42804 0.51481 0.22985
 H1971 H 0.47736 0.53073 0.11515
 H1972 H 0.41260 0.48578 0.07962
 H1973 H 0.37034 0.50455 0.15186
 H1974 H 0.39194 0.48490 0.12098
 C1975 C -0.08987 0.00901 0.66650
 C1976 C -0.11598 0.00064 0.66816
 C1977 C -0.12721 -0.00040 0.69215
 C1978 C -0.11256 0.00562 0.71516
 C1979 C -0.08648 0.01431 0.71265
 N1980 N -0.07597 0.01555 0.68880
 C1981 C -0.07706 0.01039 0.64114
 N1982 N -0.05059 0.01141 0.64064
 C1983 C -0.03764 0.01146 0.61810
 C1984 C -0.05147 0.00990 0.59417
 C1985 C -0.07866 0.00963 0.59421
 C1986 C -0.09147 0.01023 0.61749
 H1987 H -0.14762 -0.00618 0.69277
 H1988 H -0.07460 0.02068 0.72941
 H1989 H -0.01660 0.01186 0.61889
 H1990 H -0.09007 0.00900 0.57619
 H1991 H -0.12789 -0.00541 0.65134
 H1992 H -0.11242 0.01062 0.61661
 C1993 C -0.18564 0.91853 0.99498
 C1994 C -0.20769 0.92386 0.97958
 C1995 C -0.23126 0.91018 0.98334
 C1996 C -0.23338 0.89164 1.00287
 C1997 C -0.21042 0.88683 1.01743
 N1998 N -0.18783 0.90012 1.01319
 C1999 C -0.15950 0.93084 0.99154
 N2000 N -0.13859 0.91895 1.00189
 C2001 C -0.11389 0.92889 1.00062
 C2002 C -0.10891 0.95256 0.98858
 C2003 C -0.13015 0.96519 0.97756
 C2004 C -0.15544 0.95442 0.97898
 H2005 H -0.24775 0.91358 0.97050
 H2006 H -0.20983 0.87172 1.03150
 H2007 H -0.09827 0.91841 1.00947
 H2008 H -0.12729 0.98358 0.96821
 H2009 H -0.20669 0.93760 0.96415
 H2010 H -0.17148 0.96485 0.97092
 C2011 C 0.31586 0.41826 0.49919
 C2012 C 0.29371 0.42461 0.48448
 C2013 C 0.27001 0.41139 0.48829
 C2014 C 0.26785 0.39211 0.50706
 C2015 C 0.29076 0.38657 0.52132
 N2016 N 0.31358 0.39949 0.51703
 C2017 C 0.34211 0.42986 0.49502
 N2018 N 0.36309 0.41726 0.50426
 C2019 C 0.38790 0.42656 0.50187
 C2020 C 0.39285 0.45018 0.48973
 C2021 C 0.37153 0.46344 0.47983
 C2022 C 0.34620 0.45342 0.48246
 H2023 H 0.25349 0.41546 0.47574
 H2024 H 0.29116 0.37098 0.53487
 H2025 H 0.40364 0.41569 0.50994
 H2026 H 0.37434 0.48187 0.47054
 H2027 H 0.29469 0.43866 0.46934
 H2028 H 0.33019 0.46446 0.47532
 C2029 C 0.32486 0.58068 -0.00421
 C2030 C 0.30074 0.56829 -0.01108
 C2031 C 0.27810 0.58242 -0.01055
 C2032 C 0.27926 0.60866 -0.00225
 C2033 C 0.30415 0.62032 0.00324
 N2034 N 0.32576 0.60631 0.00229
 C2035 C 0.34970 0.56732 -0.00459
 N2036 N 0.37196 0.58182 -0.00780
 C2037 C 0.39578 0.57147 -0.00745
 C2038 C 0.39830 0.54495 -0.00321
 C2039 C 0.37562 0.52960 0.00039
 C2040 C 0.35128 0.54067 -0.00039
 H2041 H 0.25998 0.57284 -0.01721
 H2042 H 0.30636 0.64074 0.00841
 H2043 H 0.41270 0.58410 -0.01017
 H2044 H 0.37666 0.50904 0.00374
 H2045 H 0.29939 0.54820 -0.01756
 H2046 H 0.33411 0.52861 0.00289
 C2047 C -0.17350 0.07947 0.48952
 C2048 C -0.19774 0.06667 0.48418
 C2049 C -0.22030 0.08091 0.48377
 C2050 C -0.21886 0.10776 0.48955
 C2051 C -0.19387 0.11980 0.49288
 N2052 N -0.17237 0.10561 0.49308
 C2053 C -0.14880 0.06600 0.49109
 N2054 N -0.12642 0.08021 0.48769
 C2055 C -0.10264 0.07001 0.48986
 C2056 C -0.10028 0.04392 0.49616
 C2057 C -0.12307 0.02886 0.50009
 C2058 C -0.14739 0.03981 0.49752
 H2059 H -0.23860 0.07079 0.47874
 H2060 H -0.19154 0.14055 0.49618
 H2061 H -0.08565 0.08241 0.48676
 H2062 H -0.12213 0.00864 0.50497
 H2063 H -0.19930 0.04605 0.47994
 H2064 H -0.16468 0.02804 0.50109
 C2065 C 0.68081 0.08676 0.49418
 C2066 C 0.68442 0.10831 0.47867
 C2067 C 0.70895 0.12023 0.47743
 C2068 C 0.73061 0.11044 0.49094
 C2069 C 0.72568 0.08934 0.50721
 N2070 N 0.70143 0.07789 0.50801
 C2071 C 0.65475 0.07425 0.49611
 N2072 N 0.65183 0.04793 0.49618
 C2073 C 0.62800 0.03559 0.49687
 C2074 C 0.60546 0.04999 0.49784
 C2075 C 0.60821 0.07712 0.49826
 C2076 C 0.63272 0.08928 0.49731
 H2077 H 0.71058 0.13757 0.46617
 H2078 H 0.74108 0.08209 0.51944
 H2079 H 0.62670 0.01462 0.49685
 H2080 H 0.59138 0.08899 0.49907
 H2081 H 0.66837 0.11599 0.46761
 H2082 H 0.63445 0.11025 0.49772
 C2083 C 0.17809 0.58925 0.99945
 C2084 C 0.18217 0.61196 0.98576
 C2085 C 0.20702 0.62330 0.98504
 C2086 C 0.22850 0.61185 0.99728
 C2087 C 0.22314 0.58965 1.01191
 N2088 N 0.19859 0.57876 1.01215
 C2089 C 0.15180 0.57685 1.00032
 N2090 N 0.14872 0.55056 0.99873
 C2091 C 0.12482 0.53827 0.99824
 C2092 C 0.10227 0.55263 0.99966
 C2093 C 0.10513 0.57972 1.00184
 C2094 C 0.12978 0.59187 1.00208
 H2095 H 0.20919 0.64140 0.97508
 H2096 H 0.23839 0.58109 1.02332
 H2097 H 0.12347 0.51731 0.99691
 H2098 H 0.08830 0.59154 1.00311
 H2099 H 0.16630 0.62090 0.97554
 H2100 H 0.13159 0.61280 1.00381
 C2101 C 0.16909 0.41084 0.51022
 C2102 C 0.17016 0.38406 0.50568
 C2103 C 0.19408 0.37279 0.50454
 C2104 C 0.21743 0.38785 0.50777
 C2105 C 0.21542 0.41444 0.51399
 N2106 N 0.19167 0.42511 0.51478
 C2107 C 0.14385 0.42359 0.51030
 N2108 N 0.14146 0.44604 0.52426
 C2109 C 0.11856 0.45833 0.52514
 C2110 C 0.09635 0.44795 0.51141
 C2111 C 0.09865 0.42508 0.49663
 C2112 C 0.12223 0.41304 0.49586
 H2113 H 0.19445 0.35206 0.50097
 H2114 H 0.23248 0.42675 0.51854
 H2115 H 0.11774 0.47608 0.53657
 H2116 H 0.08229 0.41655 0.48528
 H2117 H 0.15275 0.37169 0.50335
 H2118 H 0.12345 0.39587 0.48365
 C2119 C 0.66753 0.91057 0.00828
 C2120 C 0.66874 0.88359 0.00566
 C2121 C 0.69269 0.87242 0.00409
 C2122 C 0.71599 0.88773 0.00500
 C2123 C 0.71394 0.91470 0.00909
 N2124 N 0.69013 0.92524 0.01040
 C2125 C 0.64211 0.92306 0.00904
 N2126 N 0.64014 0.94633 0.02169
 C2127 C 0.61711 0.95834 0.02317
 C2128 C 0.59427 0.94685 0.01146
 C2129 C 0.59611 0.92306 -0.00190
 C2130 C 0.61982 0.91129 -0.00331
 H2131 H 0.69314 0.85151 0.00216
 H2132 H 0.73103 0.92741 0.01175
 H2133 H 0.61668 0.97681 0.03344
 H2134 H 0.57926 0.91358 -0.01169
 H2135 H 0.65143 0.87099 0.00525
 H2136 H 0.62059 0.89336 -0.01445
 C2137 C -0.00128 0.81985 0.91918
 C2138 C -0.01049 0.79645 0.92938
 C2139 C -0.00622 0.77303 0.91637
 C2140 C 0.00702 0.77244 0.89283
 C2141 C 0.01665 0.79673 0.88420
 N2142 N 0.01216 0.81907 0.89713
 C2143 C -0.00581 0.84571 0.93074
 N2144 N -0.00011 0.86679 0.91635
 C2145 C -0.00260 0.89143 0.92524
 C2146 C -0.01111 0.89613 0.95031
 C2147 C -0.01757 0.87473 0.96547
 C2148 C -0.01491 0.84950 0.95581
 H2149 H -0.01370 0.75587 0.92523
 H2150 H 0.02743 0.79830 0.86671
 H2151 H 0.00257 0.90725 0.91280
 H2152 H -0.02405 0.87744 0.98502
 H2153 H -0.02138 0.79596 0.94686
 H2154 H -0.01933 0.83348 0.96820
 C2155 C 0.49812 0.31970 0.41669
 C2156 C 0.48311 0.29766 0.42321
 C2157 C 0.48678 0.27394 0.41051
 C2158 C 0.50583 0.27161 0.39171
 C2159 C 0.51979 0.29460 0.38540
 N2160 N 0.51570 0.31740 0.39786
 C2161 C 0.49493 0.34579 0.42853
 N2162 N 0.50468 0.36680 0.41609
 C2163 C 0.50334 0.39142 0.42566
 C2164 C 0.49181 0.39615 0.44943
 C2165 C 0.48152 0.37479 0.46263
 C2166 C 0.48306 0.34965 0.45231
 H2167 H 0.47437 0.25737 0.41506
 H2168 H 0.53335 0.29494 0.36992
 H2169 H 0.51163 0.40718 0.41479
 H2170 H 0.47261 0.37742 0.48112
 H2171 H 0.46809 0.29868 0.43724
 H2172 H 0.47558 0.33358 0.46325
 C2173 C -0.00843 0.32154 0.58169
 C2174 C -0.02978 0.30386 0.58009
 C2175 C -0.02847 0.28044 0.59303
 C2176 C -0.00611 0.27453 0.60803
 C2177 C 0.01463 0.29346 0.60916
 N2178 N 0.01301 0.31574 0.59597
 C2179 C -0.00864 0.34676 0.56904
 N2180 N 0.01300 0.35543 0.55697
 C2181 C 0.01489 0.37933 0.54656
 C2182 C -0.00541 0.39641 0.54897
 C2183 C -0.02782 0.38796 0.56153
 C2184 C -0.02966 0.36299 0.57129
 H2185 H -0.04516 0.26697 0.59170
 H2186 H 0.03203 0.29144 0.62091
 H2187 H 0.03250 0.38523 0.53706
 H2188 H -0.04392 0.40062 0.56361
 H2189 H -0.04718 0.30805 0.56886
 H2190 H -0.04687 0.35675 0.58128
 C2191 C 0.48908 0.82170 0.08489
 C2192 C 0.46792 0.80379 0.08369
 C2193 C 0.46976 0.78040 0.09663
 C2194 C 0.49252 0.77474 0.11115
 C2195 C 0.51287 0.79408 0.11221
 N2196 N 0.51075 0.81628 0.09900
 C2197 C 0.48861 0.84661 0.07170
 N2198 N 0.51007 0.85498 0.05914
 C2199 C 0.51180 0.87861 0.04817
 C2200 C 0.49156 0.89575 0.05047
 C2201 C 0.46931 0.88762 0.06348
 C2202 C 0.46761 0.86288 0.07383
 H2203 H 0.45331 0.76664 0.09545
 H2204 H 0.53043 0.79235 0.12379
 H2205 H 0.52929 0.88428 0.03835
 H2206 H 0.45326 0.90035 0.06552
 H2207 H 0.45033 0.80769 0.07263
 H2208 H 0.45054 0.85687 0.08417
 C2209 C 0.49353 0.67808 0.07952
 C2210 C 0.49072 0.70170 0.06699
 C2211 C 0.49121 0.72489 0.08160
 C2212 C 0.49411 0.72477 0.10886
 C2213 C 0.49833 0.70063 0.12021
 N2214 N 0.49765 0.67847 0.10562
 C2215 C 0.49264 0.65252 0.06578
 N2216 N 0.50097 0.63184 0.07910
 C2217 C 0.50063 0.60751 0.06864
 C2218 C 0.49138 0.60265 0.04305
 C2219 C 0.48233 0.62358 0.02892
 C2220 C 0.48286 0.64851 0.04019
 H2221 H 0.48936 0.74263 0.07122
 H2222 H 0.50123 0.69933 0.14097
 H2223 H 0.50777 0.59207 0.08038
 H2224 H 0.47493 0.62073 0.00915
 H2225 H 0.48848 0.70253 0.04617
 H2226 H 0.47538 0.66414 0.02900
 C2227 C -0.00606 0.17711 0.57900
 C2228 C -0.00816 0.20046 0.56584
 C2229 C -0.00787 0.22397 0.57988
 C2230 C -0.00585 0.22446 0.60719
 C2231 C -0.00247 0.20051 0.61927
 N2232 N -0.00290 0.17802 0.60520
 C2233 C -0.00658 0.15136 0.56569
 N2234 N 0.00232 0.13099 0.57914
 C2235 C 0.00232 0.10656 0.56888
 C2236 C -0.00717 0.10133 0.54343
 C2237 C -0.01681 0.12195 0.52923
 C2238 C -0.01661 0.14694 0.54026
 H2239 H -0.00907 0.24148 0.56902
 H2240 H -0.00026 0.19968 0.64013
 H2241 H 0.00990 0.09134 0.58065
 H2242 H -0.02446 0.11882 0.50958
 H2243 H -0.00959 0.20083 0.54494
 H2244 H -0.02459 0.16231 0.52904
 C2245 C 0.51520 0.17502 0.41851
 C2246 C 0.51775 0.19893 0.43211
 C2247 C 0.51539 0.22202 0.41876
 C2248 C 0.50973 0.22153 0.39186
 C2249 C 0.50840 0.19706 0.37905
 N2250 N 0.51072 0.17497 0.39245
 C2251 C 0.51628 0.14966 0.43134
 N2252 N 0.50621 0.12820 0.41818
 C2253 C 0.50571 0.10422 0.42846
 C2254 C 0.51572 0.10068 0.45368
 C2255 C 0.52683 0.12242 0.46742
 C2256 C 0.52722 0.14686 0.45636
 H2257 H 0.51837 0.24007 0.42963
 H2258 H 0.50507 0.19558 0.35827
 H2259 H 0.49709 0.08808 0.41702
 H2260 H 0.53500 0.12064 0.48685
 H2261 H 0.52120 0.20005 0.45285
 H2262 H 0.53612 0.16314 0.46734
 C2263 C 0.00947 0.67645 0.92084
 C2264 C 0.03227 0.68508 0.90957
 C2265 C 0.03237 0.70735 0.89507
 C2266 C 0.00992 0.72227 0.89212
 C2267 C -0.01256 0.71253 0.90434
 N2268 N -0.01234 0.69014 0.91771
 C2269 C 0.00857 0.65166 0.93428
 N2270 N -0.01126 0.63408 0.92853
 C2271 C -0.01193 0.61002 0.93865
 C2272 C 0.00808 0.60267 0.95575
 C2273 C 0.02834 0.62076 0.96246
 C2274 C 0.02878 0.64520 0.95155
 H2275 H 0.05040 0.71195 0.88598
 H2276 H -0.03072 0.72224 0.90243
 H2277 H -0.02814 0.59671 0.93342
 H2278 H 0.04403 0.61582 0.97569
 H2279 H 0.04970 0.67408 0.91105
 H2280 H 0.04475 0.65892 0.95647
 C2281 C 0.26231 0.66854 0.92695
 C2282 C 0.26987 0.68136 0.95042
 C2283 C 0.26861 0.66795 0.97355
 C2284 C 0.25884 0.64205 0.97353
 C2285 C 0.25353 0.62962 0.94923
 N2286 N 0.25504 0.64299 0.92707
 C2287 C 0.26202 0.68166 0.90191
 N2288 N 0.26455 0.66712 0.87991
 C2289 C 0.26316 0.67735 0.85598
 C2290 C 0.25844 0.70372 0.85314
 C2291 C 0.25554 0.71907 0.87556
 C2292 C 0.25741 0.70815 0.89997
 H2293 H 0.27545 0.67794 0.99124
 H2294 H 0.24743 0.60932 0.94796
 H2295 H 0.26540 0.66477 0.83923
 H2296 H 0.25191 0.73951 0.87425
 H2297 H 0.27706 0.70134 0.95092
 H2298 H 0.25456 0.72018 0.91697
 C2299 C 0.76176 0.16871 0.42054
 C2300 C 0.76763 0.18193 0.44422
 C2301 C 0.76700 0.16833 0.46731
 C2302 C 0.75973 0.14172 0.46696
 C2303 C 0.75574 0.12917 0.44253
 N2304 N 0.75657 0.14275 0.42047
 C2305 C 0.76099 0.18174 0.39541
 N2306 N 0.76420 0.16722 0.37352
 C2307 C 0.76224 0.17714 0.34948
 C2308 C 0.75620 0.20315 0.34637
 C2309 C 0.75276 0.21852 0.36870
 C2310 C 0.75519 0.20793 0.39322
 H2311 H 0.77251 0.17873 0.48515
 H2312 H 0.75127 0.10852 0.44108
 H2313 H 0.76503 0.16454 0.33287
 H2314 H 0.74809 0.23870 0.36723
 H2315 H 0.77309 0.20239 0.44495
 H2316 H 0.75177 0.21994 0.41009
 C2317 C 0.25391 0.33377 0.43347
 C2318 C 0.26916 0.32759 0.45531
 C2319 C 0.26494 0.33970 0.47915
 C2320 C 0.24517 0.35761 0.48174
 C2321 C 0.23083 0.36351 0.45901
 N2322 N 0.23547 0.35162 0.43607
 C2323 C 0.25766 0.32256 0.40732
 N2324 N 0.24757 0.33494 0.38654
 C2325 C 0.24901 0.32562 0.36188
 C2326 C 0.26092 0.30214 0.35694
 C2327 C 0.27182 0.28917 0.37803
 C2328 C 0.27021 0.29925 0.40319
 H2329 H 0.27758 0.33556 0.49557
 H2330 H 0.21663 0.37833 0.45896
 H2331 H 0.24028 0.33630 0.34630
 H2332 H 0.28105 0.27090 0.37520
 H2333 H 0.28480 0.31433 0.45404
 H2334 H 0.27799 0.28838 0.41909
 C2335 C 0.75198 0.83181 0.93172
 C2336 C 0.73168 0.84882 0.93384
 C2337 C 0.72743 0.86102 0.95742
 C2338 C 0.74274 0.85593 0.97979
 C2339 C 0.76250 0.83796 0.97683
 N2340 N 0.76654 0.82652 0.95330
 C2341 C 0.75820 0.82090 0.90599
 N2342 N 0.76494 0.79576 0.90320
 C2343 C 0.76845 0.78456 0.87945
 C2344 C 0.76470 0.79877 0.85681
 C2345 C 0.75912 0.82504 0.85956
 C2346 C 0.75599 0.83612 0.88396
 H2347 H 0.71286 0.87549 0.95744
 H2348 H 0.77550 0.83398 0.99300
 H2349 H 0.77300 0.76430 0.87823
 H2350 H 0.75652 0.83696 0.84278
 H2351 H 0.71953 0.85329 0.91715
 H2352 H 0.75143 0.85637 0.88552
 C2353 C 0.73972 0.83660 0.07921
 C2354 C 0.74239 0.86358 0.07747
 C2355 C 0.74361 0.87471 0.05340
 C2356 C 0.74211 0.85937 0.03045
 C2357 C 0.73814 0.83237 0.03300
 N2358 N 0.73724 0.82184 0.05696
 C2359 C 0.73931 0.82425 0.10486
 N2360 N 0.72678 0.80074 0.10750
 C2361 C 0.72565 0.78886 0.13076
 C2362 C 0.73760 0.80076 0.15313
 C2363 C 0.75075 0.82484 0.15062
 C2364 C 0.75184 0.83644 0.12670
 H2365 H 0.74559 0.89563 0.05258
 H2366 H 0.73526 0.81964 0.01619
 H2367 H 0.71558 0.77013 0.13171
 H2368 H 0.76075 0.83462 0.16708
 H2369 H 0.74307 0.87625 0.09446
 H2370 H 0.76294 0.85456 0.12542
 C2371 C 0.23729 0.33095 0.57826
 C2372 C 0.23449 0.31724 0.55446
 C2373 C 0.23681 0.33055 0.53137
 C2374 C 0.24267 0.35747 0.53174
 C2375 C 0.24470 0.37032 0.55611
 N2376 N 0.24229 0.35698 0.57822
 C2377 C 0.23560 0.31837 0.60364
 N2378 N 0.24492 0.33205 0.62504
 C2379 C 0.24471 0.32222 0.64913
 C2380 C 0.23473 0.29695 0.65289
 C2381 C 0.22440 0.28262 0.63123
 C2382 C 0.22473 0.29324 0.60662
 H2383 H 0.23339 0.31967 0.51338
 H2384 H 0.24817 0.39113 0.55751
 H2385 H 0.25274 0.33411 0.66522
 H2386 H 0.21635 0.26311 0.63322
 H2387 H 0.23067 0.29652 0.55341
 H2388 H 0.21642 0.28184 0.59038
 C2389 C 0.75667 0.16481 0.56650
 C2390 C 0.77154 0.14300 0.56339
 C2391 C 0.77215 0.13068 0.53932
 C2392 C 0.75876 0.14036 0.51752
 C2393 C 0.74335 0.16195 0.52187
 N2394 N 0.74303 0.17370 0.54575
 C2395 C 0.75485 0.17723 0.59233
 N2396 N 0.75516 0.20354 0.59502
 C2397 C 0.75443 0.21567 0.61867
 C2398 C 0.75298 0.20107 0.64122
 C2399 C 0.75225 0.17395 0.63867
 C2400 C 0.75322 0.16203 0.61437
 H2401 H 0.78274 0.11306 0.53824
 H2402 H 0.73131 0.16925 0.50634
 H2403 H 0.75467 0.23663 0.61981
 H2404 H 0.75104 0.16189 0.65548
 H2405 H 0.78247 0.13531 0.57954
 H2406 H 0.75243 0.14106 0.61284
 C2407 C 0.25477 0.66912 0.07161
 C2408 C 0.24233 0.67908 0.04967
 C2409 C 0.24232 0.66524 0.02611
 C2410 C 0.25590 0.64217 0.02384
 C2411 C 0.26656 0.63225 0.04694
 N2412 N 0.26590 0.64581 0.06966
 C2413 C 0.25503 0.68234 0.09723
 N2414 N 0.25547 0.66764 0.11872
 C2415 C 0.25582 0.67821 0.14302
 C2416 C 0.25614 0.70521 0.14678
 C2417 C 0.25636 0.72083 0.12492
 C2418 C 0.25564 0.70946 0.10009
 H2419 H 0.23174 0.67265 0.00962
 H2420 H 0.27523 0.61354 0.04714
 H2421 H 0.25585 0.66548 0.15937
 H2422 H 0.25654 0.74175 0.12700
 H2423 H 0.23206 0.69692 0.05083
 H2424 H 0.25591 0.72175 0.08341
 C2425 C 0.17135 0.57106 0.76460
 C2426 C 0.17837 0.55024 0.77999
 C2427 C 0.16407 0.52661 0.77744
 C2428 C 0.14336 0.52312 0.75890
 C2429 C 0.13644 0.54513 0.74493
 N2430 N 0.15042 0.56783 0.74797
 C2431 C 0.18490 0.59693 0.76614
 N2432 N 0.17201 0.61727 0.75652
 C2433 C 0.18296 0.64153 0.75565
 C2434 C 0.20879 0.64660 0.76446
 C2435 C 0.22252 0.62600 0.77477
 C2436 C 0.21066 0.60114 0.77567
 H2437 H 0.16912 0.51097 0.79001
 H2438 H 0.11954 0.54472 0.73193
 H2439 H 0.17148 0.65668 0.74758
 H2440 H 0.24251 0.62899 0.78173
 H2441 H 0.19417 0.55225 0.79431
 H2442 H 0.22184 0.58544 0.78299
 C2443 C 0.66883 0.06854 0.25019
 C2444 C 0.67838 0.04622 0.23846
 C2445 C 0.66450 0.02245 0.24018
 C2446 C 0.64194 0.02046 0.25483
 C2447 C 0.63250 0.04387 0.26479
 N2448 N 0.64600 0.06668 0.26243
 C2449 C 0.68195 0.09441 0.24893
 N2450 N 0.66711 0.11562 0.24956
 C2451 C 0.67753 0.14019 0.24965
 C2452 C 0.70457 0.14459 0.24974
 C2453 C 0.72034 0.12302 0.24935
 C2454 C 0.70911 0.09788 0.24875
 H2455 H 0.67133 0.00576 0.22982
 H2456 H 0.61414 0.04421 0.27429
 H2457 H 0.66465 0.15623 0.25007
 H2458 H 0.74132 0.12557 0.24932
 H2459 H 0.69584 0.04725 0.22741
 H2460 H 0.72152 0.08147 0.24884
 C2461 C 0.83567 0.07948 0.73405
 C2462 C 0.86192 0.07854 0.74193
 C2463 C 0.87330 0.05478 0.74415
 C2464 C 0.85870 0.03133 0.73982
 C2465 C 0.83248 0.03309 0.73155
 N2466 N 0.82179 0.05672 0.72915
 C2467 C 0.82271 0.10460 0.73165
 N2468 N 0.79626 0.10492 0.73169
 C2469 C 0.78328 0.12738 0.73113
 C2470 C 0.79708 0.15141 0.73112
 C2471 C 0.82420 0.15152 0.73017
 C2472 C 0.83702 0.12830 0.73003
 H2473 H 0.89380 0.05469 0.74956
 H2474 H 0.82061 0.01587 0.72647
 H2475 H 0.76227 0.12649 0.73169
 H2476 H 0.83554 0.16961 0.72958
 H2477 H 0.87381 0.09578 0.74677
 H2478 H 0.85791 0.12924 0.72870
 C2479 C 0.33610 0.58104 0.23941
 C2480 C 0.36325 0.58019 0.24088
 C2481 C 0.37486 0.55646 0.24186
 C2482 C 0.35981 0.53306 0.24144
 C2483 C 0.33261 0.53475 0.23821
 N2484 N 0.32163 0.55834 0.23756
 C2485 C 0.32317 0.60617 0.23988
 N2486 N 0.29915 0.60816 0.22836
 C2487 C 0.28658 0.63091 0.22823
 C2488 C 0.29823 0.65336 0.24031
 C2489 C 0.32284 0.65150 0.25247
 C2490 C 0.33520 0.62810 0.25245
 H2491 H 0.39589 0.55628 0.24313
 H2492 H 0.32002 0.51757 0.23591
 H2493 H 0.26751 0.63137 0.21882
 H2494 H 0.33254 0.66809 0.26238
 H2495 H 0.37561 0.59764 0.24103
 H2496 H 0.35378 0.62723 0.26272
 C2497 C 0.33175 0.43443 0.25425
 C2498 C 0.32615 0.45646 0.26914
 C2499 C 0.33888 0.48026 0.26436
 C2500 C 0.35669 0.48259 0.24430
 C2501 C 0.36163 0.45968 0.23013
 N2502 N 0.34932 0.43685 0.23541
 C2503 C 0.32060 0.40813 0.25890
 N2504 N 0.33330 0.38750 0.24951
 C2505 C 0.32416 0.36265 0.25155
 C2506 C 0.30045 0.35726 0.26328
 C2507 C 0.28713 0.37820 0.27354
 C2508 C 0.29714 0.40364 0.27143
 H2509 H 0.33546 0.49675 0.27692
 H2510 H 0.37624 0.45929 0.21565
 H2511 H 0.33514 0.34726 0.24330
 H2512 H 0.26868 0.37501 0.28262
 H2513 H 0.31304 0.45527 0.28500
 H2514 H 0.28613 0.41945 0.27874
 C2515 C 0.83184 0.93214 0.75351
 C2516 C 0.82277 0.95491 0.76491
 C2517 C 0.83508 0.97891 0.75992
 C2518 C 0.85599 0.98060 0.74302
 C2519 C 0.86449 0.95702 0.73255
 N2520 N 0.85241 0.93410 0.73787
 C2521 C 0.82097 0.90569 0.75838
 N2522 N 0.83497 0.88515 0.75092
 C2523 C 0.82636 0.86014 0.75324
 C2524 C 0.80192 0.85442 0.76332
 C2525 C 0.78726 0.87525 0.77168
 C2526 C 0.79666 0.90086 0.76924
 H2527 H 0.82883 0.99604 0.76998
 H2528 H 0.88150 0.95651 0.72090
 H2529 H 0.83841 0.84484 0.74653
 H2530 H 0.76819 0.87182 0.77942
 H2531 H 0.80710 0.95433 0.77828
 H2532 H 0.78458 0.91644 0.77505
 C2533 C 0.66299 0.92134 0.25874
 C2534 C 0.63617 0.92233 0.25397
 C2535 C 0.62461 0.94608 0.25394
 C2536 C 0.63952 0.96943 0.25780
 C2537 C 0.66625 0.96744 0.26400
 N2538 N 0.67722 0.94382 0.26380
 C2539 C 0.67573 0.89619 0.25796
 N2540 N 0.70000 0.89463 0.24853
 C2541 C 0.71185 0.87162 0.24601
 C2542 C 0.69908 0.84842 0.25316
 C2543 C 0.67426 0.84983 0.26336
 C2544 C 0.66264 0.87354 0.26587
 H2545 H 0.60381 0.94632 0.25013
 H2546 H 0.67843 0.98437 0.26924
 H2547 H 0.73117 0.87151 0.23842
 H2548 H 0.66373 0.83261 0.26951
 H2549 H 0.62418 0.90497 0.24961
 H2550 H 0.64362 0.87408 0.27409
 C2551 C 0.16618 0.42523 0.75112
 C2552 C 0.18048 0.44866 0.74809
 C2553 C 0.16816 0.47217 0.75030
 C2554 C 0.14171 0.47268 0.75636
 C2555 C 0.12815 0.44859 0.75858
 N2556 N 0.14054 0.42602 0.75627
 C2557 C 0.17793 0.39958 0.74923
 N2558 N 0.16555 0.37894 0.76009
 C2559 C 0.17502 0.35476 0.75948
 C2560 C 0.19843 0.35020 0.74736
 C2561 C 0.21122 0.37108 0.73549
 C2562 C 0.20104 0.39569 0.73630
 H2563 H 0.17937 0.48974 0.74662
 H2564 H 0.10756 0.44779 0.76215
 H2565 H 0.16441 0.33927 0.76879
 H2566 H 0.22921 0.36849 0.72569
 H2567 H 0.20096 0.44906 0.74418
 H2568 H 0.21113 0.41125 0.72663
 C2569 C 0.08458 0.74865 0.83898
 C2570 C 0.08255 0.75806 0.86444
 C2571 C 0.05840 0.75858 0.87538
 C2572 C 0.03564 0.74967 0.86136
 C2573 C 0.03865 0.73999 0.83593
 N2574 N 0.06264 0.73975 0.82561
 C2575 C 0.11022 0.74714 0.82696
 N2576 N 0.11320 0.73021 0.80675
 C2577 C 0.13643 0.72764 0.79530
 C2578 C 0.15846 0.74252 0.80437
 C2579 C 0.15567 0.76018 0.82500
 C2580 C 0.13171 0.76276 0.83608
 H2581 H 0.05761 0.76476 0.89550
 H2582 H 0.02218 0.73194 0.82448
 H2583 H 0.13765 0.71402 0.77920
 H2584 H 0.17188 0.77261 0.83223
 H2585 H 0.09943 0.76401 0.87644
 H2586 H 0.13019 0.77730 0.85127
 C2587 C 0.58047 0.24459 0.33532
 C2588 C 0.58016 0.24886 0.36216
 C2589 C 0.55662 0.24968 0.37430
 C2590 C 0.53281 0.24632 0.36014
 C2591 C 0.53400 0.24079 0.33334
 N2592 N 0.55744 0.24023 0.32180
 C2593 C 0.60551 0.24438 0.32188
 N2594 N 0.60754 0.23007 0.29958
 C2595 C 0.63037 0.22872 0.28707
 C2596 C 0.65296 0.24219 0.29708
 C2597 C 0.65100 0.25737 0.31973
 C2598 C 0.62747 0.25869 0.33196
 H2599 H 0.55692 0.25291 0.39509
 H2600 H 0.51655 0.23647 0.32160
 H2601 H 0.63089 0.21703 0.26945
 H2602 H 0.66762 0.26862 0.32793
 H2603 H 0.59789 0.25109 0.37395
 H2604 H 0.62657 0.27116 0.34899
 C2605 C 0.56712 0.75040 0.17157
 C2606 C 0.54390 0.75173 0.18495
 C2607 C 0.52001 0.75098 0.17112
 C2608 C 0.51900 0.74928 0.14380
 C2609 C 0.54288 0.74664 0.13152
 N2610 N 0.56572 0.74750 0.14538
 C2611 C 0.59327 0.75160 0.18461
 N2612 N 0.61372 0.74376 0.17083
 C2613 C 0.63849 0.74455 0.18077
 C2614 C 0.64404 0.75380 0.20619
 C2615 C 0.62332 0.76231 0.22074
 C2616 C 0.59797 0.76130 0.21005
 H2617 H 0.50263 0.75165 0.18212
 H2618 H 0.54336 0.74472 0.11065
 H2619 H 0.65375 0.73781 0.16874
 H2620 H 0.62665 0.76971 0.24040
 H2621 H 0.54393 0.75295 0.20585
 H2622 H 0.58252 0.76844 0.22154
 C2623 C 0.06648 0.25007 0.67072
 C2624 C 0.04304 0.25246 0.68354
 C2625 C 0.01944 0.25189 0.66922
 C2626 C 0.01895 0.24930 0.64197
 C2627 C 0.04298 0.24561 0.63030
 N2628 N 0.06554 0.24633 0.64461
 C2629 C 0.09238 0.25115 0.68426
 N2630 N 0.11292 0.24231 0.67124
 C2631 C 0.13752 0.24306 0.68161
 C2632 C 0.14280 0.25339 0.70669
 C2633 C 0.12198 0.26288 0.72046
 C2634 C 0.09681 0.26184 0.70935
 H2635 H 0.00185 0.25343 0.67979
 H2636 H 0.04384 0.24301 0.60951
 H2637 H 0.15287 0.23554 0.67018
 H2638 H 0.12511 0.27112 0.73983
 H2639 H 0.04268 0.25440 0.70439
 H2640 H 0.08131 0.26978 0.72022
 C2641 C 0.92076 0.25261 0.66480
 C2642 C 0.93869 0.27373 0.66669
 C2643 C 0.96252 0.27211 0.65465
 C2644 C 0.96861 0.24967 0.64025
 C2645 C 0.94945 0.22914 0.63888
 N2646 N 0.92677 0.23106 0.65120
 C2647 C 0.89519 0.25303 0.67670
 N2648 N 0.88607 0.23145 0.68863
 C2649 C 0.86207 0.22986 0.69874
 C2650 C 0.84534 0.25048 0.69630
 C2651 C 0.85416 0.27279 0.68373
 C2652 C 0.87924 0.27427 0.67418
 H2653 H 0.97614 0.28866 0.65611
 H2654 H 0.95158 0.21168 0.62753
 H2655 H 0.85590 0.21233 0.70827
 H2656 H 0.84181 0.28915 0.68165
 H2657 H 0.93440 0.29119 0.67745
 H2658 H 0.88583 0.29147 0.66432
 C2659 C 0.42242 0.74913 0.17065
 C2660 C 0.42762 0.72734 0.15560
 C2661 C 0.45014 0.72710 0.14158
 C2662 C 0.46864 0.74818 0.14319
 C2663 C 0.46225 0.76981 0.15869
 N2664 N 0.43960 0.76986 0.17158
 C2665 C 0.39777 0.74997 0.18422
 N2666 N 0.38168 0.76984 0.18011
 C2667 C 0.35763 0.77018 0.19021
 C2668 C 0.34873 0.74977 0.20554
 C2669 C 0.36532 0.72948 0.21052
 C2670 C 0.38973 0.72937 0.19965
 H2671 H 0.45211 0.71038 0.12908
 H2672 H 0.47521 0.78685 0.16017
 H2673 H 0.34549 0.78636 0.18629
 H2674 H 0.35917 0.71341 0.22227
 H2675 H 0.41382 0.71093 0.15391
 H2676 H 0.40216 0.71329 0.20307
 C2677 C 0.43205 0.25181 0.33635
 C2678 C 0.43578 0.23232 0.35428
 C2679 C 0.46026 0.22929 0.36561
 C2680 C 0.48191 0.24498 0.35868
 C2681 C 0.47733 0.26371 0.33972
 N2682 N 0.45297 0.26661 0.32923
 C2683 C 0.40557 0.25692 0.32602
 N2684 N 0.40200 0.26511 0.30134
 C2685 C 0.37785 0.26846 0.29059
 C2686 C 0.35551 0.26317 0.30483
 C2687 C 0.35896 0.25593 0.33066
 C2688 C 0.38381 0.25293 0.34130
 H2689 H 0.46153 0.21544 0.38089
 H2690 H 0.49292 0.27693 0.33426
 H2691 H 0.37612 0.27428 0.27065
 H2692 H 0.34242 0.25204 0.34257
 H2693 H 0.41976 0.21982 0.36010
 H2694 H 0.38587 0.24736 0.36130
 C2695 C 0.93868 0.75030 0.82735
 C2696 C 0.95690 0.77114 0.82775
 C2697 C 0.98063 0.76908 0.84109
 C2698 C 0.98624 0.74678 0.85525
 C2699 C 0.96897 0.72505 0.85059
 N2700 N 0.94562 0.72763 0.83796
 C2701 C 0.91170 0.75290 0.81720
 N2702 N 0.89212 0.73875 0.82789
 C2703 C 0.86675 0.74081 0.82031
 C2704 C 0.85982 0.75781 0.80064
 C2705 C 0.87974 0.77253 0.78932
 C2706 C 0.90561 0.77016 0.79752
 H2707 H 0.99401 0.78558 0.84087
 H2708 H 0.97336 0.70613 0.85750
 H2709 H 0.85213 0.72875 0.82929
 H2710 H 0.87540 0.78565 0.77386
 H2711 H 0.95253 0.78938 0.81907
 H2712 H 0.92061 0.78139 0.78815
   
