data_POSCAR
  _audit_creation_date              2014-09-24
  _audit_creation_method            'ToBaCCo'
  _symmetry_space_group_name_H-M    'P1'
  _symmetry_Int_Tables_number       1
  _symmetry_cell_setting            triclinic
  loop_
  _symmetry_equiv_pos_as_xyz
 x,y,z
_cell_length_a 52.6044
_cell_length_b 50.9686
_cell_length_c 52.3564
_cell_angle_alpha 93.018800
_cell_angle_beta 90.571000
_cell_angle_gamma 92.943300
loop_
  _atom_site_label
  _atom_site_type_symbol
  _atom_site_fract_x
  _atom_site_fract_y
  _atom_site_fract_z
N1 N 0.18707 0.21460 0.23766
 N2 N 0.19739 0.19860 0.25311
 C3 C 0.18101 0.19328 0.27198
 C4 C 0.15914 0.20674 0.26809
 C5 C 0.16383 0.22008 0.24609
 H6 H 0.18476 0.18045 0.28722
 H7 H 0.15142 0.23302 0.23685
 Cu8 Cu 0.23108 0.18617 0.24687
 Cu9 Cu 0.20440 0.22732 0.20785
 Cu10 Cu 0.26027 0.19838 0.19115
 N11 N 0.25920 0.16619 0.23457
 N12 N 0.27057 0.17078 0.21291
 C13 C 0.28875 0.15340 0.20900
 C14 C 0.28871 0.13694 0.22931
 C15 C 0.26966 0.14579 0.24515
 H16 H 0.30070 0.15255 0.19234
 H17 H 0.26351 0.13791 0.26296
 N18 N 0.24612 0.22674 0.17195
 N19 N 0.22473 0.23757 0.17846
 C20 C 0.21978 0.25608 0.16204
 C21 C 0.23897 0.25712 0.14420
 C22 C 0.25536 0.23814 0.15106
 H23 H 0.20321 0.26773 0.16288
 H24 H 0.27281 0.23312 0.14169
 H25 H 0.22308 0.19254 0.20203
 H26 H 0.24189 0.22106 0.21818
 N27 N 0.66128 0.73221 0.72267
 N28 N 0.67119 0.71650 0.73871
 C29 C 0.65469 0.71218 0.75766
 C30 C 0.63316 0.72598 0.75331
 C31 C 0.63811 0.73848 0.73087
 H32 H 0.65831 0.70003 0.77347
 H33 H 0.62583 0.75114 0.72109
 Cu34 Cu 0.70461 0.70304 0.73352
 Cu35 Cu 0.67923 0.74347 0.69254
 Cu36 Cu 0.73445 0.71226 0.67784
 N37 N 0.73245 0.68194 0.72248
 N38 N 0.74404 0.68550 0.70074
 C39 C 0.76213 0.66793 0.69771
 C40 C 0.76185 0.65241 0.71870
 C41 C 0.74271 0.66197 0.73403
 H42 H 0.77422 0.66635 0.68120
 H43 H 0.73651 0.65494 0.75218
 N44 N 0.72134 0.73998 0.65731
 N45 N 0.70031 0.75192 0.66298
 C46 C 0.69647 0.76996 0.64568
 C47 C 0.71603 0.76936 0.62820
 C48 C 0.73144 0.75007 0.63620
 H49 H 0.68052 0.78249 0.64575
 H50 H 0.74893 0.74408 0.62754
 H51 H 0.69674 0.70811 0.68840
 H52 H 0.71611 0.73670 0.70373
 N53 N 0.32065 0.74601 0.75278
 N54 N 0.31336 0.76720 0.76549
 C55 C 0.32871 0.77223 0.78615
 C56 C 0.34660 0.75315 0.78647
 C57 C 0.34077 0.73685 0.76492
 H58 H 0.32719 0.78873 0.79978
 H59 H 0.35093 0.72004 0.75804
 Cu60 Cu 0.28507 0.78662 0.75311
 Cu61 Cu 0.30452 0.73261 0.72059
 Cu62 Cu 0.25380 0.76642 0.69882
 N63 N 0.25612 0.80512 0.74081
 N64 N 0.24399 0.79695 0.71960
 C65 C 0.22528 0.81319 0.71505
 C66 C 0.22553 0.83288 0.73446
 C67 C 0.24548 0.82693 0.75052
 H68 H 0.21272 0.81084 0.69856
 H69 H 0.25203 0.83771 0.76784
 N70 N 0.26639 0.73515 0.68030
 N71 N 0.28571 0.72221 0.68844
 C72 C 0.29023 0.70258 0.67103
 C73 C 0.27291 0.70318 0.65091
 C74 C 0.25813 0.72414 0.65761
 H75 H 0.30531 0.68914 0.67270
 H76 H 0.24290 0.73142 0.64644
 H77 H 0.29182 0.76805 0.70993
 H78 H 0.26945 0.74700 0.72851
 N79 N 0.82172 0.26523 0.24528
 N80 N 0.81628 0.28604 0.25967
 C81 C 0.83308 0.28916 0.27933
 C82 C 0.85008 0.26915 0.27730
 C83 C 0.84201 0.25430 0.25537
 H84 H 0.83302 0.30502 0.29384
 H85 H 0.85066 0.23731 0.24670
 Cu86 Cu 0.78815 0.30742 0.25077
 Cu87 Cu 0.80327 0.25477 0.21350
 Cu88 Cu 0.75299 0.29243 0.19763
 N89 N 0.75943 0.32803 0.24193
 N90 N 0.74573 0.32192 0.22115
 C91 C 0.72743 0.33923 0.21926
 C92 C 0.72965 0.35731 0.23999
 C93 C 0.75025 0.34950 0.25398
 H94 H 0.71380 0.33887 0.20366
 H95 H 0.75802 0.35876 0.27159
 N96 N 0.76321 0.26188 0.17619
 N97 N 0.78232 0.24747 0.18212
 C98 C 0.78505 0.22887 0.16318
 C99 C 0.76678 0.23168 0.14434
 C100 C 0.75330 0.25285 0.15342
 H101 H 0.79959 0.21465 0.16294
 H102 H 0.73778 0.26155 0.14389
 H103 H 0.79151 0.29165 0.20616
 H104 H 0.76945 0.27018 0.22465
 N105 N 0.81363 0.75132 0.24638
 N106 N 0.80330 0.73225 0.23124
 C107 C 0.81982 0.72567 0.21289
 C108 C 0.84193 0.74146 0.21655
 C109 C 0.83721 0.75760 0.23806
 H110 H 0.81606 0.71004 0.19839
 H111 H 0.85003 0.77248 0.24731
 Cu112 Cu 0.77004 0.71630 0.23767
 Cu113 Cu 0.79581 0.76556 0.27623
 Cu114 Cu 0.74143 0.72968 0.29346
 N115 N 0.74346 0.69296 0.25021
 N116 N 0.73242 0.69787 0.27220
 C117 C 0.71611 0.67748 0.27690
 C118 C 0.71717 0.65871 0.25678
 C119 C 0.73471 0.66940 0.24017
 H120 H 0.70510 0.67602 0.29414
 H121 H 0.74125 0.66054 0.22239
 N122 N 0.75400 0.76250 0.31213
 N123 N 0.77470 0.77621 0.30565
 C124 C 0.77835 0.79724 0.32222
 C125 C 0.75900 0.79681 0.34003
 C126 C 0.74396 0.77443 0.33293
 H127 H 0.79402 0.81172 0.32139
 H128 H 0.72717 0.76701 0.34245
 H129 H 0.77900 0.72899 0.28217
 H130 H 0.75880 0.75283 0.26639
 N131 N 0.29923 0.22842 -0.22575
 N132 N 0.29341 0.20585 -0.23821
 C133 C 0.31122 0.20110 -0.25583
 C134 C 0.32958 0.22173 -0.25437
 C135 C 0.32120 0.23872 -0.23488
 H136 H 0.31076 0.18367 -0.26852
 H137 H 0.33007 0.25739 -0.22801
 Cu138 Cu 0.26358 0.18405 -0.23020
 Cu139 Cu 0.27735 0.24274 -0.19909
 Cu140 Cu 0.21940 0.20864 -0.19133
 N141 N 0.22986 0.16714 -0.22808
 N142 N 0.21249 0.17688 -0.21302
 C143 C 0.19170 0.16031 -0.21385
 C144 C 0.19626 0.13893 -0.23035
 C145 C 0.22072 0.14409 -0.23908
 H146 H 0.17490 0.16323 -0.20255
 H147 H 0.23159 0.13152 -0.25159
 N148 N 0.22992 0.24098 -0.17099
 N149 N 0.25218 0.25372 -0.17340
 C150 C 0.25461 0.27323 -0.15497
 C151 C 0.23288 0.27260 -0.14017
 C152 C 0.21766 0.25197 -0.15109
 H153 H 0.27148 0.28603 -0.15176
 H154 H 0.19937 0.24477 -0.14443
 H155 H 0.25885 0.20816 -0.18917
 H156 H 0.24519 0.22512 -0.21659
 N157 N 0.67249 0.27208 -0.23248
 N158 N 0.67841 0.28921 -0.24959
 C159 C 0.65809 0.29150 -0.26505
 C160 C 0.63824 0.27478 -0.25718
 C161 C 0.64834 0.26281 -0.23640
 H162 H 0.65792 0.30451 -0.28067
 H163 H 0.63891 0.24867 -0.22459
 Cu164 Cu 0.71205 0.30697 -0.24973
 Cu165 Cu 0.69603 0.26355 -0.20579
 Cu166 Cu 0.75272 0.30086 -0.20018
 N167 N 0.74218 0.33034 -0.24402
 N168 N 0.75794 0.32798 -0.22476
 C169 C 0.77664 0.34699 -0.22523
 C170 C 0.77240 0.36222 -0.24592
 C171 C 0.75027 0.35094 -0.25737
 H172 H 0.79192 0.34968 -0.21125
 H173 H 0.74041 0.35738 -0.27392
 N174 N 0.74367 0.27228 -0.17739
 N175 N 0.72216 0.25787 -0.17996
 C176 C 0.72129 0.23999 -0.16199
 C177 C 0.74327 0.24324 -0.14724
 C178 C 0.75704 0.26398 -0.15752
 H179 H 0.70554 0.22595 -0.15949
 H180 H 0.77549 0.27225 -0.15112
 H181 H 0.71373 0.30105 -0.20404
 H182 H 0.73017 0.27478 -0.22286
 N183 N 0.18545 0.75958 0.25692
 N184 N 0.19243 0.77796 0.24142
 C185 C 0.17376 0.78003 0.22392
 C186 C 0.15402 0.76189 0.22872
 C187 C 0.16230 0.74925 0.24981
 H188 H 0.17423 0.79421 0.20931
 H189 H 0.15207 0.73405 0.25974
 Cu190 Cu 0.22468 0.79816 0.24640
 Cu191 Cu 0.20580 0.75169 0.28630
 Cu192 Cu 0.26204 0.78891 0.29786
 N193 N 0.25600 0.81929 0.25369
 N194 N 0.27054 0.81575 0.27363
 C195 C 0.29041 0.83356 0.27412
 C196 C 0.28823 0.84932 0.25337
 C197 C 0.26604 0.83945 0.24090
 H198 H 0.30505 0.83509 0.28881
 H199 H 0.25741 0.84662 0.22402
 N200 N 0.24998 0.76068 0.31999
 N201 N 0.22867 0.74642 0.31515
 C202 C 0.22544 0.72876 0.33315
 C203 C 0.24561 0.73190 0.35031
 C204 C 0.26083 0.75243 0.34142
 H205 H 0.20927 0.71491 0.33399
 H206 H 0.27857 0.76056 0.34981
 H207 H 0.22337 0.78913 0.29167
 H208 H 0.24105 0.76423 0.27250
 N209 N 0.48488 0.42007 0.50171
 N210 N 0.46479 0.42715 0.51453
 C211 C 0.46119 0.41134 0.53409
 C212 C 0.47999 0.39330 0.53352
 C213 C 0.49467 0.39938 0.51261
 H214 H 0.44578 0.41254 0.54752
 H215 H 0.51139 0.38971 0.50601
 Cu216 Cu 0.44498 0.45603 0.50428
 Cu217 Cu 0.49690 0.43869 0.47221
 Cu218 Cu 0.46199 0.49064 0.45358
 N219 N 0.42503 0.48444 0.49326
 N220 N 0.43197 0.49836 0.47384
 C221 C 0.41485 0.51672 0.47055
 C222 C 0.39607 0.51394 0.48876
 C223 C 0.40318 0.49324 0.50278
 H224 H 0.41561 0.53058 0.45560
 H225 H 0.39316 0.48525 0.51878
 N226 N 0.49293 0.47956 0.43566
 N227 N 0.50613 0.45985 0.44294
 C228 C 0.52598 0.45699 0.42724
 C229 C 0.52540 0.47572 0.40906
 C230 C 0.50407 0.48965 0.41496
 H231 H 0.53966 0.44203 0.42866
 H232 H 0.49728 0.50601 0.40499
 H233 H 0.48193 0.47456 0.48244
 H234 H 0.46173 0.45135 0.46113
 N235 N -0.01117 -0.07942 0.98840
 N236 N -0.03252 -0.07293 0.99926
 C237 C -0.03554 -0.08572 1.02089
 C238 C -0.01509 -0.10136 1.02370
 C239 C -0.00001 -0.09699 1.00264
 H240 H -0.05170 -0.08416 1.03338
 H241 H 0.01787 -0.10566 0.99820
 Cu242 Cu -0.05487 -0.04910 0.98392
 Cu243 Cu 0.00045 -0.06371 0.95709
 Cu244 Cu -0.03479 -0.01330 0.93525
 N245 N -0.07202 -0.01827 0.97482
 N246 N -0.06420 -0.00394 0.95599
 C247 C -0.07972 0.01616 0.95412
 C248 C -0.09826 0.01412 0.97275
 C249 C -0.09263 -0.00797 0.98550
 H250 H -0.07793 0.03084 0.93998
 H251 H -0.10263 -0.01589 1.00155
 N252 N -0.00439 -0.02616 0.91732
 N253 N 0.00892 -0.04522 0.92588
 C254 C 0.02811 -0.04984 0.90978
 C255 C 0.02700 -0.03298 0.88997
 C256 C 0.00604 -0.01827 0.89535
 H257 H 0.04158 -0.06488 0.91199
 H258 H -0.00108 -0.00297 0.88410
 H259 H -0.01693 -0.02874 0.96583
 H260 H -0.03411 -0.05260 0.94256
 N261 N 1.02138 0.58716 0.97717
 N262 N 1.04282 0.58421 0.98952
 C263 C 1.04406 0.60091 1.01044
 C264 C 1.02207 0.61484 1.01121
 C265 C 1.00820 0.60554 0.98978
 H266 H 1.05956 0.60257 1.02424
 H267 H 0.99002 0.61203 0.98353
 Cu268 Cu 1.06664 0.55834 0.97722
 Cu269 Cu 1.01219 0.56783 0.94526
 Cu270 Cu 1.05300 0.52123 0.92283
 N271 N 1.08794 0.53003 0.96528
 N272 N 1.08284 0.51628 0.94373
 C273 C 1.09990 0.49769 0.94041
 C274 C 1.11654 0.49958 0.96108
 C275 C 1.10837 0.52035 0.97655
 H276 H 1.09938 0.48294 0.92478
 H277 H 1.11636 0.52750 0.99487
 N278 N 1.02174 0.52898 0.90446
 N279 N 1.00603 0.54654 0.91325
 C280 C 0.98635 0.54725 0.89675
 C281 C 0.98973 0.52919 0.87653
 C282 C 1.01244 0.51798 0.88210
 H283 H 0.97094 0.56032 0.89911
 H284 H 1.02151 0.50287 0.87079
 H285 H 1.03182 0.53485 0.95324
 H286 H 1.04885 0.56016 0.93412
 N287 N 0.51395 0.10157 0.49734
 N288 N 0.53643 0.10177 0.50851
 C289 C 0.53689 0.11901 0.52901
 C290 C 0.51333 0.13000 0.53073
 C291 C 0.49937 0.11845 0.51025
 H292 H 0.55292 0.12285 0.54199
 H293 H 0.48004 0.12223 0.50494
 Cu294 Cu 0.56250 0.07875 0.49559
 Cu295 Cu 0.50501 0.07995 0.46675
 Cu296 Cu 0.54932 0.03737 0.44374
 N297 N 0.58577 0.05220 0.48379
 N298 N 0.58081 0.03673 0.46328
 C299 C 0.59927 0.01956 0.46034
 C300 C 0.61671 0.02424 0.48021
 C301 C 0.60751 0.04515 0.49475
 H302 H 0.59910 0.00370 0.44579
 H303 H 0.61553 0.05396 0.51246
 N304 N 0.51619 0.04080 0.42680
 N305 N 0.49918 0.05678 0.43595
 C306 C 0.47850 0.05473 0.42054
 C307 C 0.48256 0.03652 0.40064
 C308 C 0.50675 0.02810 0.40526
 H309 H 0.46195 0.06619 0.42332
 H310 H 0.51678 0.01384 0.39379
 H311 H 0.52895 0.05013 0.47500
 H312 H 0.54170 0.07579 0.45351
 N313 N -0.02347 0.09320 0.51885
 N314 N -0.04480 0.08993 0.50552
 C315 C -0.04465 0.10715 0.48695
 C316 C -0.02194 0.12213 0.48856
 C317 C -0.00892 0.11272 0.50911
 H318 H -0.05958 0.10793 0.47271
 H319 H 0.00983 0.11927 0.51626
 Cu320 Cu -0.07054 0.06267 0.51236
 Cu321 Cu -0.01662 0.07102 0.54735
 Cu322 Cu -0.04818 0.00981 0.53860
 N323 N -0.09081 0.02986 0.51266
 N324 N -0.08173 0.00909 0.52257
 C325 C -0.09906 -0.01116 0.51967
 C326 C -0.12035 -0.00268 0.50730
 C327 C -0.11435 0.02359 0.50318
 H328 H -0.09638 -0.03044 0.52660
 H329 H -0.12605 0.03715 0.49385
 N330 N -0.01911 0.01699 0.56238
 N331 N -0.00747 0.04041 0.56649
 C332 C 0.01017 0.03909 0.58519
 C333 C 0.00953 0.01353 0.59330
 C334 C -0.00931 0.00020 0.57832
 H335 H 0.02241 0.05556 0.59239
 H336 H -0.01617 -0.02004 0.57953
 H337 H -0.03076 0.04271 0.52261
 H338 H -0.05090 0.04828 0.55136
 N339 N 0.45823 0.60145 0.04151
 N340 N 0.43565 0.59533 0.03121
 C341 C 0.43140 0.61130 0.01217
 C342 C 0.45244 0.62848 0.01017
 C343 C 0.46914 0.62162 0.02918
 H344 H 0.41472 0.60957 -0.00015
 H345 H 0.48797 0.63032 0.03347
 Cu346 Cu 0.41462 0.56545 0.04127
 Cu347 Cu 0.47181 0.58218 0.06975
 Cu348 Cu 0.43300 0.52988 0.08878
 N349 N 0.40074 0.52972 0.04464
 N350 N 0.40859 0.51574 0.06323
 C351 C 0.39618 0.49205 0.06184
 C352 C 0.37957 0.49095 0.04115
 C353 C 0.38284 0.51533 0.03068
 H354 H 0.39854 0.47708 0.07544
 H355 H 0.37292 0.52214 0.01429
 N356 N 0.46550 0.54049 0.10541
 N357 N 0.48095 0.55992 0.09828
 C358 C 0.50263 0.56013 0.11248
 C359 C 0.50054 0.53952 0.12880
 C360 C 0.47676 0.52774 0.12380
 H361 H 0.51911 0.57335 0.11027
 H362 H 0.46861 0.51038 0.13227
 H363 H 0.45207 0.54721 0.05938
 H364 H 0.43728 0.57051 0.08276
 N365 N 0.54378 -0.09905 0.02358
 N366 N 0.55957 -0.09185 0.00565
 C367 C 0.55538 -0.10807 -0.01531
 C368 C 0.53598 -0.12643 -0.01014
 C369 C 0.52916 -0.12008 0.01477
 H370 H 0.56592 -0.10693 -0.03287
 H371 H 0.51433 -0.12974 0.02554
 Cu372 Cu 0.58434 -0.06224 0.01158
 Cu373 Cu 0.54206 -0.07970 0.05637
 Cu374 Cu 0.58613 -0.02769 0.06843
 N375 N 0.61042 -0.03434 0.01982
 N376 N 0.61124 -0.02122 0.04213
 C377 C 0.63060 -0.00286 0.04244
 C378 C 0.64260 -0.00439 0.01901
 C379 C 0.62923 -0.02469 0.00517
 H380 H 0.63499 0.01122 0.05823
 H381 H 0.63276 -0.03172 -0.01424
 N382 N 0.55925 -0.03735 0.09268
 N383 N 0.54299 -0.05771 0.08835
 C384 C 0.52592 -0.05817 0.10730
 C385 C 0.53145 -0.03692 0.12429
 C386 C 0.55276 -0.02416 0.11444
 H387 H 0.50944 -0.07171 0.10767
 H388 H 0.56212 -0.00596 0.12193
 H389 H 0.55709 -0.04393 0.04473
 H390 H 0.58014 -0.06699 0.05738
 N391 N 1.02993 0.39952 0.51746
 N392 N 1.05046 0.40615 0.50472
 C393 C 1.05140 0.39010 0.48344
 C394 C 1.03044 0.37241 0.48315
 C395 C 1.01732 0.37901 0.50505
 H396 H 1.06633 0.39092 0.46942
 H397 H 0.99957 0.36990 0.51121
 Cu398 Cu 1.07388 0.43480 0.51790
 Cu399 Cu 1.01998 0.41878 0.54829
 Cu400 Cu 1.06070 0.47001 0.57218
 N401 N 1.09684 0.46353 0.53164
 N402 N 1.09178 0.47694 0.55296
 C403 C 1.11021 0.49600 0.55758
 C404 C 1.12784 0.49460 0.53808
 C405 C 1.11866 0.47363 0.52201
 H406 H 1.11021 0.51043 0.57346
 H407 H 1.12698 0.46650 0.50437
 N408 N 1.02822 0.45978 0.58862
 N409 N 1.01279 0.44036 0.57916
 C410 C 0.99122 0.43963 0.59267
 C411 C 0.99301 0.45946 0.61163
 C412 C 1.01681 0.47179 0.60872
 H413 H 0.97495 0.42622 0.58851
 H414 H 1.02450 0.48916 0.61944
 H415 H 1.03925 0.45441 0.54143
 H416 H 1.05658 0.43096 0.56061
 C417 C 0.38628 0.02100 0.23363
 C418 C 0.36983 -0.00469 0.23417
 C419 C 0.38255 -0.02582 0.24115
 C420 C 0.41105 -0.01949 0.24654
 C421 C 0.39899 0.02429 0.26014
 C422 C 0.41193 0.00327 0.26695
 C423 C 0.40813 0.01418 0.21553
 C424 C 0.42105 -0.00693 0.22231
 H425 H 0.34948 -0.00559 0.23056
 H426 H 0.42163 -0.03667 0.25200
 H427 H 0.39891 0.04247 0.27183
 H428 H 0.41266 0.02405 0.19830
 C429 C 0.12875 -0.05189 0.72776
 C430 C 0.14583 -0.02657 0.73059
 C431 C 0.13310 -0.00428 0.73522
 C432 C 0.10411 -0.00922 0.73661
 C433 C 0.11285 -0.05188 0.75207
 C434 C 0.10007 -0.02968 0.75693
 C435 C 0.10974 -0.04628 0.70635
 C436 C 0.09694 -0.02386 0.71086
 H437 H 0.16632 -0.02642 0.72869
 H438 H 0.09368 0.00887 0.74060
 H439 H 0.11160 -0.06847 0.76420
 H440 H 0.10869 -0.05684 0.68793
 C441 C 0.63296 0.47477 0.25022
 C442 C 0.64958 0.50028 0.25470
 C443 C 0.63633 0.52198 0.26081
 C444 C 0.60741 0.51624 0.26190
 C445 C 0.61715 0.47268 0.27442
 C446 C 0.60378 0.49420 0.28071
 C447 C 0.61390 0.48157 0.22936
 C448 C 0.60055 0.50324 0.23539
 H449 H 0.67001 0.50116 0.25227
 H450 H 0.59653 0.53382 0.26691
 H451 H 0.61613 0.45509 0.28520
 H452 H 0.61315 0.47228 0.21030
 C453 C 0.86175 0.53919 0.72771
 C454 C 0.84616 0.51317 0.72995
 C455 C 0.85991 0.49291 0.73739
 C456 C 0.88841 0.50044 0.74163
 C457 C 0.87525 0.54419 0.75374
 C458 C 0.88912 0.52401 0.76116
 C459 C 0.88304 0.53204 0.70906
 C460 C 0.89700 0.51205 0.71653
 H461 H 0.82575 0.51134 0.72680
 H462 H 0.89974 0.48380 0.74711
 H463 H 0.87450 0.56266 0.76485
 H464 H 0.88651 0.54080 0.69101
 C465 C 0.22983 0.36244 0.03602
 C466 C 0.22900 0.34679 0.01020
 C467 C 0.23241 0.36176 -0.01039
 C468 C 0.23591 0.39139 -0.00336
 C469 C 0.25506 0.37883 0.03619
 C470 C 0.25828 0.39408 0.01577
 C471 C 0.20930 0.38263 0.03319
 C472 C 0.21261 0.39792 0.01279
 H473 H 0.22670 0.32553 0.00850
 H474 H 0.23856 0.40359 -0.02015
 H475 H 0.26826 0.37975 0.05226
 H476 H 0.19270 0.38398 0.04505
 C477 C 0.76044 0.14437 -0.03454
 C478 C 0.76241 0.16068 -0.00906
 C479 C 0.76977 0.14704 0.01123
 C480 C 0.77445 0.11796 0.00416
 C481 C 0.78638 0.13251 -0.03768
 C482 C 0.79384 0.11863 -0.01769
 C483 C 0.74206 0.12104 -0.02875
 C484 C 0.74937 0.10709 -0.00870
 H485 H 0.75806 0.18123 -0.00729
 H486 H 0.78043 0.10674 0.02058
 H487 H 0.79713 0.13365 -0.05516
 H488 H 0.72343 0.11752 -0.03753
 C489 C 0.24804 0.63254 0.46441
 C490 C 0.24575 0.64846 0.48989
 C491 C 0.25117 0.63502 0.51094
 C492 C 0.25820 0.60646 0.50465
 C493 C 0.27484 0.62237 0.46491
 C494 C 0.28037 0.60874 0.48574
 C495 C 0.23030 0.60799 0.46754
 C496 C 0.23561 0.59432 0.48842
 H497 H 0.24050 0.66875 0.49106
 H498 H 0.26240 0.59538 0.52176
 H499 H 0.28782 0.62458 0.44914
 H500 H 0.21333 0.60307 0.45615
 C501 C 0.72334 0.87356 0.51845
 C502 C 0.72012 0.85792 0.49271
 C503 C 0.72693 0.87174 0.47209
 C504 C 0.73594 0.90044 0.47896
 C505 C 0.75101 0.88450 0.51894
 C506 C 0.75764 0.89856 0.49847
 C507 C 0.70753 0.89775 0.51520
 C508 C 0.71410 0.91181 0.49461
 H509 H 0.71398 0.83728 0.49110
 H510 H 0.74139 0.91184 0.46217
 H511 H 0.76385 0.88244 0.53493
 H512 H 0.69103 0.90230 0.52635
 C513 C 0.02730 0.23150 0.33917
 C514 C 0.00164 0.23018 0.32496
 C515 C -0.01837 0.23701 0.33967
 C516 C -0.01096 0.24421 0.36779
 C517 C 0.03002 0.25925 0.35172
 C518 C 0.01035 0.26599 0.36692
 C519 C 0.02263 0.21347 0.36150
 C520 C 0.00267 0.22013 0.37654
 H521 H -0.00046 0.22429 0.30484
 H522 H -0.02728 0.24973 0.37984
 H523 H 0.04750 0.27136 0.35080
 H524 H 0.03253 0.19570 0.36402
 C525 C -0.02221 0.75474 0.14744
 C526 C 0.00282 0.75811 0.16283
 C527 C 0.02404 0.76063 0.14827
 C528 C 0.01834 0.75941 0.11938
 C529 C -0.02183 0.77809 0.13028
 C530 C -0.00077 0.78073 0.11558
 C531 C -0.01823 0.73071 0.12910
 C532 C 0.00290 0.73317 0.11435
 H533 H 0.00362 0.75804 0.18350
 H534 H 0.03559 0.76146 0.10750
 H535 H -0.03777 0.79062 0.12903
 H536 H -0.02951 0.71240 0.12933
 C537 C 0.45817 0.25840 0.67229
 C538 C 0.48332 0.26379 0.68722
 C539 C 0.50375 0.26971 0.67235
 C540 C 0.49717 0.26968 0.64368
 C541 C 0.45537 0.28267 0.65671
 C542 C 0.47563 0.28876 0.64181
 C543 C 0.46424 0.23633 0.65237
 C544 C 0.48452 0.24225 0.63734
 H545 H 0.48475 0.26259 0.70776
 H546 H 0.51372 0.27449 0.63151
 H547 H 0.43823 0.29358 0.65696
 H548 H 0.45537 0.21673 0.65174
 C549 C 0.52209 0.72514 0.85714
 C550 C 0.49607 0.72117 0.84389
 C551 C 0.47615 0.72801 0.85872
 C552 C 0.48400 0.73804 0.88610
 C553 C 0.52354 0.75387 0.86742
 C554 C 0.50391 0.76074 0.88265
 C555 C 0.51942 0.70934 0.88131
 C556 C 0.49963 0.71609 0.89650
 H557 H 0.49375 0.71426 0.82403
 H558 H 0.46776 0.74360 0.89827
 H559 H 0.54029 0.76678 0.86513
 H560 H 0.53151 0.69387 0.88620
 C561 C 0.13495 0.19547 0.30763
 C562 C 0.13593 0.20726 0.28394
 C563 C 0.11459 0.22013 0.27558
 C564 C 0.09296 0.22179 0.29077
 C565 C 0.09223 0.21013 0.31463
 C566 C 0.11329 0.19686 0.32282
 C567 C 0.07073 0.21245 0.33011
 C568 C 0.04978 0.22620 0.32193
 C569 C 0.05117 0.23809 0.29826
 C570 C 0.07230 0.23559 0.28271
 H571 H 0.11470 0.22919 0.25736
 H572 H 0.11313 0.18781 0.34109
 H573 H 0.07094 0.20434 0.34877
 H574 H 0.07272 0.24499 0.26462
 H575 H 0.15100 0.18542 0.31469
 H576 H 0.03601 0.24987 0.29192
 C577 C 0.59176 0.74578 0.76463
 C578 C 0.61021 0.72757 0.76946
 C579 C 0.60678 0.71123 0.79013
 C580 C 0.58563 0.71346 0.80603
 C581 C 0.56749 0.73206 0.80117
 C582 C 0.57058 0.74796 0.78030
 C583 C 0.54678 0.73483 0.81751
 C584 C 0.54394 0.71956 0.83906
 C585 C 0.56196 0.70065 0.84335
 C586 C 0.58252 0.69764 0.82696
 H587 H 0.62056 0.69687 0.79409
 H588 H 0.55681 0.76235 0.77630
 H589 H 0.53307 0.74940 0.81385
 H590 H 0.59623 0.68316 0.83090
 H591 H 0.59374 0.75871 0.74898
 H592 H 0.56079 0.68819 0.85931
 C593 C 0.37640 0.77315 0.82102
 C594 C 0.36836 0.75147 0.80461
 C595 C 0.38196 0.72842 0.80490
 C596 C 0.40382 0.72740 0.82033
 C597 C 0.41219 0.74957 0.83616
 C598 C 0.39806 0.77219 0.83666
 C599 C 0.43506 0.74907 0.85031
 C600 C 0.44991 0.72693 0.84814
 C601 C 0.44091 0.70471 0.83307
 C602 C 0.41799 0.70485 0.81946
 H603 H 0.37590 0.71135 0.79275
 H604 H 0.40413 0.78939 0.84865
 H605 H 0.44207 0.76637 0.86168
 H606 H 0.41181 0.68763 0.80753
 H607 H 0.36643 0.79119 0.82131
 H608 H 0.45205 0.68743 0.83128
 C609 C -0.12094 0.28408 0.31299
 C610 C -0.12848 0.26551 0.29302
 C611 C -0.11359 0.24350 0.28865
 C612 C -0.09125 0.24075 0.30291
 C613 C -0.08346 0.26004 0.32215
 C614 C -0.09870 0.28139 0.32730
 C615 C -0.06020 0.25805 0.33526
 C616 C -0.04450 0.23724 0.32891
 C617 C -0.05304 0.21760 0.31051
 C618 C -0.07619 0.21928 0.29768
 H619 H -0.11893 0.22851 0.27391
 H620 H -0.09315 0.29632 0.34208
 H621 H -0.05373 0.27334 0.34936
 H622 H -0.08199 0.20414 0.28318
 H623 H -0.13173 0.30119 0.31734
 H624 H -0.04151 0.20109 0.30567
 C625 C -0.13308 0.72267 0.17986
 C626 C -0.13442 0.74048 0.20125
 C627 C -0.11299 0.75724 0.20782
 C628 C -0.09071 0.75622 0.19332
 C629 C -0.08967 0.73821 0.17197
 C630 C -0.11098 0.72156 0.16540
 C631 C -0.06750 0.73733 0.15732
 C632 C -0.04596 0.75400 0.16390
 C633 C -0.04759 0.77231 0.18488
 C634 C -0.06956 0.77322 0.19958
 H635 H -0.11350 0.77115 0.22412
 H636 H -0.11058 0.70765 0.14904
 H637 H -0.06756 0.72413 0.14048
 H638 H -0.07010 0.78746 0.21565
 H639 H -0.14908 0.70947 0.17409
 H640 H -0.03186 0.78626 0.18979
 C641 C 0.35596 0.20630 0.71007
 C642 C 0.35159 0.22459 0.73056
 C643 C 0.36973 0.24570 0.73547
 C644 C 0.39155 0.24840 0.72035
 C645 C 0.39535 0.23001 0.69983
 C646 C 0.37745 0.20907 0.69488
 C647 C 0.41683 0.23290 0.68436
 C648 C 0.43517 0.25376 0.68936
 C649 C 0.43101 0.27201 0.70987
 C650 C 0.40955 0.26933 0.72523
 H651 H 0.36720 0.26004 0.75110
 H652 H 0.38005 0.19476 0.67919
 H653 H 0.41855 0.21911 0.66821
 H654 H 0.40695 0.28377 0.74080
 H655 H 0.34272 0.18984 0.70528
 H656 H 0.44436 0.28865 0.71384
 C657 C 0.59571 0.25269 0.74294
 C658 C 0.61330 0.27095 0.73254
 C659 C 0.60525 0.28526 0.71180
 C660 C 0.58029 0.28156 0.70196
 C661 C 0.56305 0.26328 0.71281
 C662 C 0.57097 0.24892 0.73318
 C663 C 0.53813 0.25958 0.70313
 C664 C 0.53003 0.27398 0.68268
 C665 C 0.54730 0.29207 0.67188
 C666 C 0.57222 0.29586 0.68145
 H667 H 0.61814 0.29942 0.70326
 H668 H 0.55798 0.23475 0.74167
 H669 H 0.52519 0.24515 0.71129
 H670 H 0.58513 0.31002 0.67287
 H671 H 0.60076 0.24105 0.75869
 H672 H 0.54146 0.30359 0.65626
 C673 C 0.10976 0.74108 0.22539
 C674 C 0.12883 0.75798 0.21555
 C675 C 0.12337 0.77140 0.19345
 C676 C 0.09917 0.76833 0.18174
 C677 C 0.08019 0.75162 0.19219
 C678 C 0.08573 0.73793 0.21385
 C679 C 0.05587 0.74895 0.18096
 C680 C 0.05007 0.76289 0.15939
 C681 C 0.06914 0.77910 0.14878
 C682 C 0.09350 0.78185 0.15989
 H683 H 0.13776 0.78434 0.18538
 H684 H 0.07140 0.72496 0.22204
 H685 H 0.04149 0.73590 0.18898
 H686 H 0.10780 0.79474 0.15156
 H687 H 0.11309 0.73042 0.24229
 H688 H 0.06505 0.79016 0.13226
 C689 C 0.29985 0.09764 0.25322
 C690 C 0.30485 0.11436 0.23310
 C691 C 0.32528 0.10922 0.21672
 C692 C 0.34041 0.08779 0.22040
 C693 C 0.33513 0.07130 0.24070
 C694 C 0.31485 0.07638 0.25700
 C695 C 0.35020 0.04996 0.24445
 C696 C 0.37060 0.04447 0.22814
 C697 C 0.37576 0.06119 0.20799
 C698 C 0.36078 0.08258 0.20418
 H699 H 0.32959 0.12186 0.20119
 H700 H 0.31052 0.06386 0.27265
 H701 H 0.34611 0.03750 0.26023
 H702 H 0.36519 0.09509 0.18854
 H703 H 0.28424 0.10074 0.26611
 H704 H 0.39132 0.05829 0.19511
 C705 C 0.77258 0.61352 0.74348
 C706 C 0.77811 0.63020 0.72347
 C707 C 0.79928 0.62544 0.70800
 C708 C 0.81462 0.60440 0.71241
 C709 C 0.80886 0.58785 0.73256
 C710 C 0.78781 0.59257 0.74799
 C711 C 0.82427 0.56692 0.73702
 C712 C 0.84538 0.56191 0.72149
 C713 C 0.85107 0.57886 0.70165
 C714 C 0.83577 0.59977 0.69712
 H715 H 0.80407 0.63813 0.69264
 H716 H 0.78309 0.58002 0.76353
 H717 H 0.81991 0.55447 0.75273
 H718 H 0.84062 0.61245 0.68172
 H719 H 0.75637 0.61643 0.75565
 H720 H 0.86744 0.57665 0.68968
 C721 C 0.77967 0.39988 0.72546
 C722 C 0.78741 0.38607 0.74655
 C723 C 0.80925 0.39561 0.76063
 C724 C 0.82265 0.41884 0.75419
 C725 C 0.81427 0.43271 0.73329
 C726 C 0.79296 0.42291 0.71890
 C727 C 0.82702 0.45641 0.72740
 C728 C 0.84795 0.46672 0.74229
 C729 C 0.85655 0.45249 0.76266
 C730 C 0.84403 0.42873 0.76855
 H731 H 0.81574 0.38530 0.77682
 H732 H 0.78634 0.43327 0.70276
 H733 H 0.82047 0.46695 0.71134
 H734 H 0.85076 0.41837 0.78464
 H735 H 0.76315 0.39319 0.71404
 H736 H 0.87244 0.46013 0.77461
 C737 C 0.29845 -0.11456 0.22536
 C738 C 0.30419 -0.12892 0.24684
 C739 C 0.32595 -0.12064 0.26178
 C740 C 0.34099 -0.09820 0.25587
 C741 C 0.33438 -0.08379 0.23471
 C742 C 0.31333 -0.09232 0.21942
 C743 C 0.34863 -0.06075 0.22942
 C744 C 0.36937 -0.05165 0.24516
 C745 C 0.37633 -0.06651 0.26572
 C746 C 0.36226 -0.08960 0.27104
 H747 H 0.33117 -0.13121 0.27826
 H748 H 0.30811 -0.08157 0.20299
 H749 H 0.34333 -0.04969 0.21323
 H750 H 0.36771 -0.10040 0.28734
 H751 H 0.28226 -0.12006 0.21304
 H752 H 0.39206 -0.05979 0.27830
 C753 C 0.21266 -0.12682 0.75760
 C754 C 0.20954 -0.14564 0.73691
 C755 C 0.19016 -0.14230 0.71862
 C756 C 0.17467 -0.12066 0.72075
 C757 C 0.17833 -0.10198 0.74144
 C758 C 0.19726 -0.10530 0.75981
 C759 C 0.16310 -0.08019 0.74338
 C760 C 0.14426 -0.07639 0.72477
 C761 C 0.14048 -0.09554 0.70448
 C762 C 0.15559 -0.11735 0.70248
 H763 H 0.18696 -0.15632 0.70253
 H764 H 0.20028 -0.09113 0.77586
 H765 H 0.16601 -0.06591 0.75938
 H766 H 0.15233 -0.13164 0.68657
 H767 H 0.22707 -0.12838 0.77221
 H768 H 0.12589 -0.09414 0.69009
 C769 C 0.72118 0.39951 0.26485
 C770 C 0.71386 0.38029 0.24552
 C771 C 0.69143 0.38336 0.23131
 C772 C 0.67680 0.40534 0.23605
 C773 C 0.68451 0.42457 0.25532
 C774 C 0.70664 0.42139 0.26972
 C775 C 0.67003 0.44669 0.25982
 C776 C 0.64817 0.45038 0.24488
 C777 C 0.64024 0.43047 0.22637
 C778 C 0.65451 0.40835 0.22188
 H779 H 0.68519 0.36871 0.21656
 H780 H 0.71283 0.43594 0.28463
 H781 H 0.67587 0.46117 0.27493
 H782 H 0.64803 0.39352 0.20735
 H783 H 0.73831 0.39792 0.27612
 H784 H 0.62281 0.43149 0.21549
 C785 C 0.71240 0.61326 0.23610
 C786 C 0.70411 0.63218 0.25428
 C787 C 0.68360 0.62536 0.27013
 C788 C 0.67168 0.60001 0.26790
 C789 C 0.68041 0.58125 0.24965
 C790 C 0.70068 0.58810 0.23380
 C791 C 0.66879 0.55590 0.24749
 C792 C 0.64848 0.54883 0.26337
 C793 C 0.63966 0.56763 0.28128
 C794 C 0.65121 0.59301 0.28358
 H795 H 0.67679 0.63969 0.28410
 H796 H 0.70759 0.57392 0.21972
 H797 H 0.67537 0.54179 0.23314
 H798 H 0.64420 0.60711 0.29768
 H799 H 0.72824 0.61764 0.22376
 H800 H 0.62409 0.56258 0.29378
 C801 C 0.15836 0.10919 0.77956
 C802 C 0.17996 0.11450 0.76465
 C803 C 0.18661 0.09567 0.74561
 C804 C 0.17266 0.07155 0.74222
 C805 C 0.15139 0.06616 0.75773
 C806 C 0.14419 0.08527 0.77609
 C807 C 0.13808 0.04155 0.75497
 C808 C 0.14608 0.02218 0.73718
 C809 C 0.16691 0.02802 0.72147
 C810 C 0.18004 0.05250 0.72391
 H811 H 0.20288 0.09946 0.73361
 H812 H 0.12789 0.08154 0.78811
 H813 H 0.12212 0.03718 0.76725
 H814 H 0.19619 0.05639 0.71173
 H815 H 0.15265 0.12319 0.79436
 H816 H 0.17307 0.01362 0.70721
 C817 C 0.25769 0.26972 0.10227
 C818 C 0.24098 0.27471 0.12254
 C819 C 0.22573 0.29655 0.12186
 C820 C 0.22674 0.31284 0.10115
 C821 C 0.24334 0.30750 0.08076
 C822 C 0.25887 0.28599 0.08156
 C823 C 0.24408 0.32375 0.05994
 C824 C 0.22812 0.34511 0.05889
 C825 C 0.21224 0.35054 0.07984
 C826 C 0.21145 0.33447 0.10060
 H827 H 0.21307 0.30110 0.13746
 H828 H 0.27178 0.28162 0.06609
 H829 H 0.25711 0.31980 0.04446
 H830 H 0.19891 0.33907 0.11633
 H831 H 0.26961 0.25304 0.10217
 H832 H 0.20064 0.36738 0.08082
 C833 C 0.73684 0.77895 0.58658
 C834 C 0.71978 0.78594 0.60599
 C835 C 0.70640 0.80897 0.60409
 C836 C 0.71007 0.82482 0.58322
 C837 C 0.72726 0.81760 0.56390
 C838 C 0.74053 0.79462 0.56572
 C839 C 0.73103 0.83354 0.54315
 C840 C 0.71782 0.85673 0.54117
 C841 C 0.70093 0.86381 0.56080
 C842 C 0.69703 0.84794 0.58150
 H843 H 0.69340 0.81488 0.61897
 H844 H 0.75377 0.78877 0.55102
 H845 H 0.74446 0.82803 0.52848
 H846 H 0.68393 0.85389 0.59630
 H847 H 0.74724 0.76124 0.58733
 H848 H 0.69086 0.88169 0.56081
 C849 C 0.77513 0.83413 0.37034
 C850 C 0.75570 0.81531 0.36255
 C851 C 0.73331 0.81366 0.37700
 C852 C 0.73079 0.82963 0.39937
 C853 C 0.75071 0.84800 0.40735
 C854 C 0.77263 0.85036 0.39247
 C855 C 0.74871 0.86296 0.43051
 C856 C 0.72735 0.85916 0.44605
 C857 C 0.70737 0.84141 0.43756
 C858 C 0.70897 0.82691 0.41433
 H859 H 0.71791 0.79964 0.37124
 H860 H 0.78810 0.86434 0.39826
 H861 H 0.76430 0.87644 0.43710
 H862 H 0.69347 0.81302 0.40844
 H863 H 0.79260 0.83601 0.35972
 H864 H 0.69065 0.83841 0.44918
 C865 C 0.20920 0.27935 -0.09927
 C866 C 0.22817 0.28813 -0.11605
 C867 C 0.24309 0.31119 -0.10908
 C868 C 0.23954 0.32478 -0.08542
 C869 C 0.22083 0.31525 -0.06857
 C870 C 0.20557 0.29276 -0.07581
 C871 C 0.21804 0.32796 -0.04447
 C872 C 0.23381 0.35008 -0.03678
 C873 C 0.25181 0.36001 -0.05391
 C874 C 0.25468 0.34745 -0.07805
 H875 H 0.25759 0.31843 -0.12186
 H876 H 0.19111 0.28523 -0.06311
 H877 H 0.20379 0.32042 -0.03155
 H878 H 0.26909 0.35512 -0.09072
 H879 H 0.19746 0.26167 -0.10382
 H880 H 0.26431 0.37692 -0.04830
 C881 C 0.76803 0.23799 -0.10668
 C882 C 0.74998 0.22790 -0.12510
 C883 C 0.73788 0.20304 -0.12208
 C884 C 0.74334 0.18864 -0.10083
 C885 C 0.76118 0.19908 -0.08219
 C886 C 0.77355 0.22373 -0.08537
 C887 C 0.76637 0.18466 -0.06080
 C888 C 0.75374 0.15999 -0.05751
 C889 C 0.73674 0.14952 -0.07688
 C890 C 0.73139 0.16382 -0.09809
 H891 H 0.72429 0.19470 -0.13632
 H892 H 0.78735 0.23204 -0.07130
 H893 H 0.78037 0.19256 -0.04673
 H894 H 0.71806 0.15530 -0.11252
 H895 H 0.77756 0.25712 -0.10846
 H896 H 0.72782 0.13003 -0.07627
 C897 C 0.26554 0.72622 0.39344
 C898 C 0.24942 0.71648 0.37316
 C899 C 0.23637 0.69189 0.37496
 C900 C 0.23895 0.67743 0.39676
 C901 C 0.25487 0.68749 0.41720
 C902 C 0.26821 0.71186 0.41530
 C903 C 0.25727 0.67292 0.43905
 C904 C 0.24387 0.64838 0.44091
 C905 C 0.22857 0.63845 0.41996
 C906 C 0.22598 0.65292 0.39830
 H907 H 0.22427 0.68376 0.35934
 H908 H 0.28059 0.71988 0.43076
 H909 H 0.26979 0.68052 0.45458
 H910 H 0.21401 0.64475 0.38257
 H911 H 0.27576 0.74513 0.39262
 H912 H 0.21892 0.61926 0.41961
 C913 C 0.29020 0.66851 0.62058
 C914 C 0.27136 0.68638 0.62672
 C915 C 0.25130 0.68871 0.60911
 C916 C 0.25050 0.67426 0.58554
 C917 C 0.26976 0.65675 0.57939
 C918 C 0.28937 0.65380 0.59720
 C919 C 0.26939 0.64307 0.55532
 C920 C 0.25030 0.64722 0.53719
 C921 C 0.23096 0.66424 0.54381
 C922 C 0.23097 0.67753 0.56778
 H923 H 0.23638 0.70202 0.61341
 H924 H 0.30432 0.64047 0.59287
 H925 H 0.28448 0.63010 0.55031
 H926 H 0.21598 0.69078 0.57223
 H927 H 0.30590 0.66613 0.63360
 H928 H 0.21583 0.66740 0.53030
 C929 C 0.74295 0.22190 0.10281
 C930 C 0.76318 0.21660 0.11927
 C931 C 0.78009 0.19729 0.11123
 C932 C 0.77716 0.18406 0.08701
 C933 C 0.75707 0.19014 0.07061
 C934 C 0.73995 0.20886 0.07879
 C935 C 0.75453 0.17765 0.04614
 C936 C 0.77188 0.15910 0.03763
 C937 C 0.79144 0.15265 0.05426
 C938 C 0.79412 0.16507 0.07872
 H939 H 0.79574 0.19274 0.12353
 H940 H 0.72434 0.21363 0.06649
 H941 H 0.73901 0.18239 0.03372
 H942 H 0.80962 0.16006 0.09103
 H943 H 0.72935 0.23630 0.10826
 H944 H 0.80510 0.13851 0.04810
 C945 C 0.49636 0.34965 0.54399
 C946 C 0.48321 0.37209 0.55137
 C947 C 0.47255 0.37396 0.57586
 C948 C 0.47438 0.35349 0.59252
 C949 C 0.48706 0.33070 0.58472
 C950 C 0.49821 0.32908 0.56049
 C951 C 0.48796 0.30977 0.60110
 C952 C 0.47624 0.31138 0.62512
 C953 C 0.46433 0.33451 0.63288
 C954 C 0.46338 0.35534 0.61674
 H955 H 0.46274 0.39132 0.58202
 H956 H 0.50807 0.31180 0.55418
 H957 H 0.49701 0.29199 0.59476
 H958 H 0.45382 0.37280 0.62312
 H959 H 0.50471 0.34768 0.52522
 H960 H 0.45568 0.33653 0.65151
 C961 C -0.02175 0.88609 0.06859
 C962 C -0.01117 0.88067 0.04447
 C963 C 0.00183 0.85745 0.04010
 C964 C 0.00307 0.83921 0.05925
 C965 C -0.00820 0.84469 0.08321
 C966 C -0.02010 0.86838 0.08785
 C967 C -0.00819 0.82603 0.10189
 C968 C 0.00223 0.80147 0.09684
 C969 C 0.01405 0.79643 0.07326
 C970 C 0.01459 0.81520 0.05466
 H971 H 0.00993 0.85303 0.02151
 H972 H -0.02873 0.87291 0.10616
 H973 H -0.01687 0.83045 0.12020
 H974 H 0.02331 0.81062 0.03641
 H975 H -0.03151 0.90403 0.07254
 H976 H 0.02203 0.77761 0.06875
 C977 C -0.01120 0.64036 0.03359
 C978 C 0.01465 0.63541 0.03035
 C979 C 0.03314 0.65066 0.04495
 C980 C 0.02588 0.67095 0.06217
 C981 C -0.00020 0.67571 0.06515
 C982 C -0.01856 0.66023 0.05088
 C983 C -0.00752 0.69598 0.08221
 C984 C 0.01085 0.71182 0.09632
 C985 C 0.03674 0.70708 0.09316
 C986 C 0.04419 0.68676 0.07630
 H987 H 0.05314 0.64720 0.04247
 H988 H -0.03863 0.66358 0.05297
 H989 H -0.02754 0.69969 0.08422
 H990 H 0.06427 0.68342 0.07431
 H991 H -0.02587 0.62875 0.02286
 H992 H 0.05124 0.71876 0.10407
 C993 C 0.47810 0.15127 0.55426
 C994 C 0.50435 0.14949 0.55016
 C995 C 0.52163 0.16664 0.56438
 C996 C 0.51271 0.18553 0.58220
 C997 C 0.48625 0.18705 0.58604
 C998 C 0.46915 0.16981 0.57203
 C999 C 0.47725 0.20574 0.60384
 C1000 C 0.49429 0.22309 0.61802
 C1001 C 0.52056 0.22166 0.61397
 C1002 C 0.52971 0.20302 0.59623
 H1003 H 0.54190 0.16563 0.56127
 H1004 H 0.44881 0.17065 0.57481
 H1005 H 0.45692 0.20691 0.60650
 H1006 H 0.55006 0.20219 0.59359
 H1007 H 0.46434 0.13813 0.54390
 H1008 H 0.53412 0.23455 0.62490
 C1009 C 0.01300 0.14824 0.46755
 C1010 C -0.01311 0.14216 0.47065
 C1011 C -0.03084 0.15441 0.45557
 C1012 C -0.02265 0.17173 0.43702
 C1013 C 0.00366 0.17699 0.43345
 C1014 C 0.02132 0.16547 0.44907
 C1015 C 0.01185 0.19327 0.41401
 C1016 C -0.00595 0.20441 0.39811
 C1017 C -0.03205 0.19971 0.40236
 C1018 C -0.04035 0.18347 0.42162
 H1019 H -0.05105 0.15030 0.45803
 H1020 H 0.04157 0.16939 0.44667
 H1021 H 0.03205 0.19714 0.41113
 H1022 H -0.06060 0.17970 0.42416
 H1023 H 0.02706 0.13907 0.47884
 H1024 H -0.04610 0.20789 0.39025
 C1025 C 0.43619 0.65577 0.97553
 C1026 C 0.45674 0.64791 0.99025
 C1027 C 0.48147 0.65769 0.98485
 C1028 C 0.48574 0.67398 0.96433
 C1029 C 0.46500 0.68105 0.94917
 C1030 C 0.44026 0.67222 0.95527
 C1031 C 0.46947 0.69601 0.92768
 C1032 C 0.49447 0.70339 0.92085
 C1033 C 0.51483 0.69708 0.93662
 C1034 C 0.51052 0.68260 0.95818
 H1035 H 0.49756 0.65181 0.99587
 H1036 H 0.42410 0.67755 0.94401
 H1037 H 0.45366 0.70073 0.91560
 H1038 H 0.52662 0.67758 0.96968
 H1039 H 0.41686 0.64899 0.97945
 H1040 H 0.53424 0.70307 0.93204
 C1041 C 0.51329 0.82926 0.98310
 C1042 C 0.52525 0.85156 0.97278
 C1043 C 0.52741 0.85241 0.94610
 C1044 C 0.51866 0.83088 0.93000
 C1045 C 0.50752 0.80816 0.94064
 C1046 C 0.50453 0.80774 0.96719
 C1047 C 0.50069 0.78582 0.92470
 C1048 C 0.50543 0.78577 0.89835
 C1049 C 0.51523 0.80893 0.88781
 C1050 C 0.52168 0.83134 0.90347
 H1051 H 0.53621 0.86964 0.93786
 H1052 H 0.49600 0.79053 0.97569
 H1053 H 0.49339 0.76797 0.93305
 H1054 H 0.52993 0.84868 0.89494
 H1055 H 0.51138 0.82804 1.00357
 H1056 H 0.51880 0.80935 0.86749
 C1057 C 0.00902 0.32854 0.47113
 C1058 C 0.02329 0.35097 0.46390
 C1059 C 0.03042 0.35280 0.43825
 C1060 C 0.02360 0.33234 0.42009
 C1061 C 0.00977 0.30959 0.42771
 C1062 C 0.00243 0.30798 0.45324
 C1063 C 0.00416 0.28851 0.40986
 C1064 C 0.01240 0.28977 0.38450
 C1065 C 0.02517 0.31295 0.37688
 C1066 C 0.03073 0.33403 0.39450
 H1067 H 0.04113 0.37017 0.43242
 H1068 H -0.00818 0.29071 0.45944
 H1069 H -0.00540 0.27066 0.41609
 H1070 H 0.04110 0.35141 0.38824
 H1071 H 0.00339 0.32661 0.49080
 H1072 H 0.03142 0.31451 0.35735
 C1073 C 0.35103 0.51771 0.50311
 C1074 C 0.37293 0.52906 0.49204
 C1075 C 0.37248 0.55484 0.48388
 C1076 C 0.35032 0.56893 0.48627
 C1077 C 0.32815 0.55707 0.49675
 C1078 C 0.32882 0.53153 0.50536
 C1079 C 0.30556 0.57065 0.49776
 C1080 C 0.30483 0.59585 0.48818
 C1081 C 0.32732 0.60785 0.47887
 C1082 C 0.34982 0.59453 0.47790
 H1083 H 0.38935 0.56395 0.47566
 H1084 H 0.31206 0.52211 0.51349
 H1085 H 0.28833 0.56112 0.50483
 H1086 H 0.36671 0.60406 0.47011
 H1087 H 0.35083 0.49784 0.50948
 H1088 H 0.32740 0.62748 0.47189
 C1089 C 0.85866 0.02154 -0.00904
 C1090 C 0.88011 0.03115 -0.02220
 C1091 C 0.88061 0.05696 -0.03046
 C1092 C 0.85990 0.07284 -0.02589
 C1093 C 0.83831 0.06279 -0.01298
 C1094 C 0.83797 0.03718 -0.00451
 C1095 C 0.81717 0.07827 -0.00931
 C1096 C 0.81721 0.10359 -0.01867
 C1097 C 0.83909 0.11368 -0.03079
 C1098 C 0.86024 0.09847 -0.03433
 H1099 H 0.89709 0.06474 -0.04038
 H1100 H 0.82159 0.02911 0.00537
 H1101 H 0.80033 0.07015 -0.00022
 H1102 H 0.87668 0.10661 -0.04407
 H1103 H 0.85757 0.00169 -0.00262
 H1104 H 0.83972 0.13329 -0.03784
 C1105 C 0.66807 0.01493 -0.01631
 C1106 C 0.66362 0.01328 0.01001
 C1107 C 0.67880 0.02932 0.02753
 C1108 C 0.69755 0.04728 0.01884
 C1109 C 0.70122 0.04921 -0.00769
 C1110 C 0.68666 0.03271 -0.02507
 C1111 C 0.71893 0.06807 -0.01647
 C1112 C 0.73297 0.08530 0.00088
 C1113 C 0.72992 0.08262 0.02725
 C1114 C 0.71233 0.06377 0.03617
 H1115 H 0.67591 0.02808 0.04790
 H1116 H 0.68929 0.03390 -0.04549
 H1117 H 0.72145 0.06969 -0.03686
 H1118 H 0.70987 0.06252 0.05660
 H1119 H 0.65672 0.00300 -0.03031
 H1120 H 0.74038 0.09577 0.04098
 C1121 C 0.15910 0.53125 0.55362
 C1122 C 0.15024 0.51293 0.53406
 C1123 C 0.16234 0.51298 0.51021
 C1124 C 0.18213 0.53160 0.50561
 C1125 C 0.19045 0.55032 0.52521
 C1126 C 0.17905 0.54967 0.54928
 C1127 C 0.20928 0.56992 0.52005
 C1128 C 0.21921 0.57139 0.49532
 C1129 C 0.21133 0.55220 0.47625
 C1130 C 0.19312 0.53237 0.48137
 H1131 H 0.15585 0.49921 0.49479
 H1132 H 0.18518 0.56379 0.56459
 H1133 H 0.21510 0.58484 0.53477
 H1134 H 0.18704 0.51814 0.46614
 H1135 H 0.15050 0.53157 0.57231
 H1136 H 0.21891 0.55294 0.45712
 C1137 C 0.14737 0.46634 -0.05367
 C1138 C 0.13669 0.48131 -0.03356
 C1139 C 0.14441 0.47764 -0.00828
 C1140 C 0.16185 0.45862 -0.00310
 C1141 C 0.17218 0.44341 -0.02345
 C1142 C 0.16504 0.44766 -0.04869
 C1143 C 0.18907 0.42387 -0.01821
 C1144 C 0.19546 0.41906 0.00716
 C1145 C 0.18529 0.43449 0.02724
 C1146 C 0.16871 0.45414 0.02216
 H1147 H 0.13617 0.48884 0.00743
 H1148 H 0.17281 0.43626 -0.06455
 H1149 H 0.19660 0.41191 -0.03382
 H1150 H 0.16105 0.46565 0.03801
 H1151 H 0.14199 0.46898 -0.07334
 H1152 H 0.19030 0.43146 0.04694
 C1153 C 0.64678 1.00673 0.51177
 C1154 C 0.63804 1.00768 0.48640
 C1155 C 0.64857 0.99129 0.46724
 C1156 C 0.66660 0.97324 0.47352
 C1157 C 0.67433 0.97164 0.49929
 C1158 C 0.66475 0.98884 0.51816
 C1159 C 0.69082 0.95226 0.50588
 C1160 C 0.69959 0.93431 0.48708
 C1161 C 0.69280 0.93682 0.46137
 C1162 C 0.67639 0.95613 0.45462
 H1163 H 0.64233 0.99212 0.44753
 H1164 H 0.67060 0.98796 0.53799
 H1165 H 0.69631 0.95068 0.52573
 H1166 H 0.67077 0.95716 0.43475
 H1167 H 0.63901 1.01904 0.52693
 H1168 H 0.69924 0.92311 0.44661
 C1169 C 0.83378 0.99427 0.49278
 C1170 C 0.85547 0.98187 0.50103
 C1171 C 0.85366 0.95461 0.50420
 C1172 C 0.83039 0.94022 0.50051
 C1173 C 0.80854 0.95301 0.49293
 C1174 C 0.81056 0.97995 0.48868
 C1175 C 0.78493 0.93885 0.49073
 C1176 C 0.78288 0.91232 0.49680
 C1177 C 0.80483 0.89961 0.50353
 C1178 C 0.82844 0.91337 0.50516
 H1179 H 0.87015 0.94451 0.51013
 H1180 H 0.79404 0.99010 0.48282
 H1181 H 0.76798 0.94880 0.48575
 H1182 H 0.84503 0.90323 0.51085
 H1183 H 0.83446 1.01517 0.49005
 H1184 H 0.80360 0.87908 0.50803
 C1185 C 0.36549 0.44348 0.04091
 C1186 C 0.36103 0.46905 0.03375
 C1187 C 0.33807 0.47375 0.02125
 C1188 C 0.31911 0.45347 0.01747
 C1189 C 0.32346 0.42809 0.02572
 C1190 C 0.34694 0.42314 0.03680
 C1191 C 0.30393 0.40835 0.02377
 C1192 C 0.27982 0.41373 0.01424
 C1193 C 0.27592 0.43867 0.00513
 C1194 C 0.29545 0.45837 0.00664
 H1195 H 0.33439 0.49340 0.01571
 H1196 H 0.35065 0.40375 0.04303
 H1197 H 0.30726 0.38903 0.03045
 H1198 H 0.29175 0.47768 0.00018
 H1199 H 0.38322 0.43924 0.05012
 H1200 H 0.25743 0.44339 -0.00208
 C1201 C 0.56755 0.46833 0.38892
 C1202 C 0.54358 0.47929 0.38783
 C1203 C 0.53707 0.49286 0.36613
 C1204 C 0.55393 0.49460 0.34549
 C1205 C 0.57765 0.48289 0.34672
 C1206 C 0.58440 0.47015 0.36863
 C1207 C 0.59410 0.48361 0.32585
 C1208 C 0.58714 0.49559 0.30342
 C1209 C 0.56385 0.50784 0.30255
 C1210 C 0.54737 0.50736 0.32341
 H1211 H 0.51868 0.50140 0.36492
 H1212 H 0.60261 0.46124 0.36995
 H1213 H 0.61226 0.47458 0.32700
 H1214 H 0.52930 0.51651 0.32208
 H1215 H 0.57340 0.45823 0.40548
 H1216 H 0.55797 0.51706 0.28545
 C1217 C 0.06805 -0.04333 0.86893
 C1218 C 0.04427 -0.03199 0.86770
 C1219 C 0.03704 -0.02066 0.84492
 C1220 C 0.05296 -0.02157 0.82345
 C1221 C 0.07645 -0.03370 0.82491
 C1222 C 0.08396 -0.04416 0.84781
 C1223 C 0.09193 -0.03563 0.80333
 C1224 C 0.08427 -0.02583 0.78002
 C1225 C 0.06124 -0.01313 0.77886
 C1226 C 0.04568 -0.01105 0.80038
 H1227 H 0.01880 -0.01185 0.84361
 H1228 H 0.10202 -0.05332 0.84929
 H1229 H 0.10993 -0.04495 0.80466
 H1230 H 0.02778 -0.00161 0.79886
 H1231 H 0.07448 -0.05172 0.88626
 H1232 H 0.05488 -0.00551 0.76111
 C1233 C 0.02485 -0.02472 0.61636
 C1234 C 0.02469 0.00267 0.61405
 C1235 C 0.03879 0.01937 0.63187
 C1236 C 0.05267 0.00887 0.65169
 C1237 C 0.05253 -0.01867 0.65375
 C1238 C 0.03857 -0.03526 0.63600
 C1239 C 0.06652 -0.02922 0.67339
 C1240 C 0.08093 -0.01263 0.69101
 C1241 C 0.08081 0.01476 0.68887
 C1242 C 0.06677 0.02541 0.66946
 H1243 H 0.03883 0.04051 0.63056
 H1244 H 0.03832 -0.05643 0.63721
 H1245 H 0.06618 -0.05035 0.67494
 H1246 H 0.06720 0.04658 0.66817
 H1247 H 0.01452 -0.03822 0.60289
 H1248 H 0.09212 0.02807 0.70175
 C1249 C 0.52102 0.50211 0.14767
 C1250 C 0.51983 0.52945 0.14598
 C1251 C 0.53570 0.54645 0.16187
 C1252 C 0.55187 0.53609 0.18001
 C1253 C 0.55258 0.50851 0.18163
 C1254 C 0.53733 0.49174 0.16518
 C1255 C 0.56833 0.49804 0.19983
 C1256 C 0.58343 0.51466 0.21673
 C1257 C 0.58258 0.54206 0.21517
 C1258 C 0.56700 0.55270 0.19691
 H1259 H 0.53471 0.56756 0.16080
 H1260 H 0.53772 0.47057 0.16611
 H1261 H 0.56858 0.47689 0.20106
 H1262 H 0.56677 0.57387 0.19603
 H1263 H 0.50915 0.48864 0.13544
 H1264 H 0.59436 0.55531 0.22770
 C1265 C 0.51503 -0.00063 0.15265
 C1266 C 0.51513 -0.02757 0.14539
 C1267 C 0.49807 -0.04530 0.15703
 C1268 C 0.48027 -0.03613 0.17470
 C1269 C 0.47954 -0.00886 0.18088
 C1270 C 0.49735 0.00865 0.17021
 C1271 C 0.46056 0.00051 0.19704
 C1272 C 0.44232 -0.01704 0.20717
 C1273 C 0.44387 -0.04418 0.20190
 C1274 C 0.46266 -0.05367 0.18569
 H1275 H 0.49824 -0.06617 0.15192
 H1276 H 0.49717 0.02961 0.17490
 H1277 H 0.45973 0.02147 0.20146
 H1278 H 0.46305 -0.07466 0.18130
 H1279 H 0.52789 0.01347 0.14397
 H1280 H 0.42996 -0.05799 0.20953
 C1281 C 0.94691 0.46357 0.62052
 C1282 C 0.97239 0.46748 0.62882
 C1283 C 0.97783 0.47897 0.65337
 C1284 C 0.95794 0.48632 0.66954
 C1285 C 0.93241 0.48267 0.66073
 C1286 C 0.92712 0.47125 0.63625
 C1287 C 0.91257 0.49074 0.67644
 C1288 C 0.91784 0.50202 0.70099
 C1289 C 0.94307 0.50507 0.70996
 C1290 C 0.96304 0.49736 0.69429
 H1291 H 0.99742 0.48184 0.65997
 H1292 H 0.90767 0.46831 0.62924
 H1293 H 0.89301 0.48842 0.66959
 H1294 H 0.98245 0.50028 0.70142
 H1295 H 0.94226 0.45501 0.60159
 H1296 H 0.94736 0.51420 0.72874
 C1297 C 0.98143 0.50904 0.83218
 C1298 C 0.97305 0.52386 0.85362
 C1299 C 0.94878 0.53417 0.85280
 C1300 C 0.93350 0.53057 0.83071
 C1301 C 0.94232 0.51609 0.80913
 C1302 C 0.96618 0.50514 0.81016
 C1303 C 0.92738 0.51330 0.78672
 C1304 C 0.90395 0.52527 0.78541
 C1305 C 0.89512 0.53910 0.80723
 C1306 C 0.90971 0.54165 0.82970
 H1307 H 0.94172 0.54527 0.86919
 H1308 H 0.97324 0.49395 0.79380
 H1309 H 0.93446 0.50257 0.77013
 H1310 H 0.90256 0.55264 0.84615
 H1311 H 0.99998 0.50083 0.83211
 H1312 H 0.87687 0.54798 0.80695
 C1313 C 0.43999 0.03708 0.37885
 C1314 C 0.46522 0.02912 0.37861
 C1315 C 0.47388 0.01501 0.35683
 C1316 C 0.45799 0.01008 0.33521
 C1317 C 0.43306 0.01917 0.33545
 C1318 C 0.42409 0.03217 0.35749
 C1319 C 0.41772 0.01581 0.31340
 C1320 C 0.42701 0.00370 0.29093
 C1321 C 0.45139 -0.00628 0.29109
 C1322 C 0.46680 -0.00309 0.31307
 H1323 H 0.49318 0.00861 0.35625
 H1324 H 0.40493 0.03902 0.35806
 H1325 H 0.39874 0.02317 0.31354
 H1326 H 0.48582 -0.01029 0.31254
 H1327 H 0.43245 0.04742 0.39542
 H1328 H 0.45895 -0.01556 0.27391
   
