data_POSCAR
  _audit_creation_date              2014-09-24
  _audit_creation_method            'ToBaCCo'
  _symmetry_space_group_name_H-M    'P1'
  _symmetry_Int_Tables_number       1
  _symmetry_cell_setting            triclinic
  loop_
  _symmetry_equiv_pos_as_xyz
 x,y,z
_cell_length_a 41.4929
_cell_length_b 41.6065
_cell_length_c 41.5648
_cell_angle_alpha 89.967900
_cell_angle_beta 90.024200
_cell_angle_gamma 89.923800
loop_
  _atom_site_label
  _atom_site_type_symbol
  _atom_site_fract_x
  _atom_site_fract_y
  _atom_site_fract_z
C1 C 0.24573 0.99872 -0.01935
 C2 C 0.24547 0.99761 0.01326
 C3 C 0.24620 0.96707 0.03153
 C4 C 0.24483 1.02702 0.03318
 C5 C 0.24643 1.02965 -0.03717
 C6 C 0.24611 0.96916 -0.03928
 C7 C 0.22043 0.94533 0.03039
 C8 C 0.21942 0.91914 0.05158
 C9 C 0.24426 0.91432 0.07433
 C10 C 0.27053 0.93569 0.07426
 C11 C 0.27142 0.96173 0.05327
 C12 C 0.21773 1.03339 0.05211
 C13 C 0.21799 1.05851 0.07429
 C14 C 0.24609 1.07713 0.07920
 C15 C 0.27249 1.07174 0.05828
 C16 C 0.27194 1.04680 0.03575
 C17 C 0.27082 1.03490 -0.05985
 C18 C 0.27079 1.06259 -0.07871
 C19 C 0.24661 1.08610 -0.07512
 C20 C 0.22195 1.08058 -0.05243
 C21 C 0.22193 1.05265 -0.03362
 C22 C 0.27157 0.94706 -0.03739
 C23 C 0.27315 0.92106 -0.05870
 C24 C 0.24927 0.91678 -0.08252
 C25 C 0.22345 0.93876 -0.08359
 C26 C 0.22202 0.96470 -0.06243
 H27 H 0.20051 0.94941 0.01403
 H28 H 0.19861 0.90369 0.05050
 H29 H 0.28999 0.93279 0.09141
 H30 H 0.29144 0.97837 0.05462
 H31 H 0.19638 1.01859 0.04991
 H32 H 0.19593 1.06289 0.08733
 H33 H 0.29302 1.04224 0.02107
 H34 H 0.28965 1.01719 -0.06337
 H35 H 0.28938 1.06528 -0.09678
 H36 H 0.20192 1.09696 -0.04988
 H37 H 0.20224 1.04850 -0.01706
 H38 H 0.29073 0.95046 -0.02002
 H39 H 0.29345 0.90505 -0.05646
 H40 H 0.20463 0.93620 -0.10147
 H41 H 0.20229 0.98167 -0.06443
 H42 H 0.29398 1.08640 0.05991
 C43 C 0.74452 0.49442 0.47957
 C44 C 0.74465 0.49509 0.51227
 C45 C 0.74495 0.46536 0.53204
 C46 C 0.74466 0.52550 0.53091
 C47 C 0.74644 0.52415 0.45972
 C48 C 0.74343 0.46375 0.46132
 C49 C 0.71905 0.44375 0.53173
 C50 C 0.71797 0.41823 0.55373
 C51 C 0.74285 0.41394 0.57655
 C52 C 0.76907 0.43536 0.57594
 C53 C 0.77005 0.46073 0.55409
 C54 C 0.72100 0.52999 0.55451
 C55 C 0.72226 0.55629 0.57516
 C56 C 0.74687 0.57939 0.57228
 C57 C 0.77079 0.57463 0.54864
 C58 C 0.76965 0.54799 0.52809
 C59 C 0.77018 0.52619 0.43584
 C60 C 0.77158 0.55264 0.41531
 C61 C 0.74970 0.57835 0.41856
 C62 C 0.72534 0.57584 0.44209
 C63 C 0.72376 0.54906 0.46251
 C64 C 0.76756 0.44033 0.46475
 C65 C 0.76796 0.41327 0.44476
 C66 C 0.74413 0.40908 0.42090
 C67 C 0.72007 0.43276 0.41775
 C68 C 0.71967 0.45962 0.43774
 H69 H 0.69916 0.44731 0.51522
 H70 H 0.69718 0.40276 0.55302
 H71 H 0.78858 0.43288 0.59310
 H72 H 0.79014 0.47733 0.55488
 H73 H 0.70198 0.51244 0.55763
 H74 H 0.70449 0.55757 0.59409
 H75 H 0.78882 0.54435 0.51080
 H76 H 0.78743 0.50688 0.43270
 H77 H 0.78942 0.55222 0.39640
 H78 H 0.70706 0.59428 0.44430
 H79 H 0.70447 0.54747 0.47997
 H80 H 0.78678 0.44364 0.48207
 H81 H 0.78781 0.39668 0.44734
 H82 H 0.70200 0.43093 0.39903
 H83 H 0.70121 0.47774 0.43424
 H84 H 0.79099 0.59094 0.54669
 C85 C 0.75755 0.97755 0.99671
 C86 C 0.75590 1.01016 0.99728
 C87 C 0.75504 1.02983 0.96756
 C88 C 0.75397 1.02870 1.02763
 C89 C 0.75580 0.95788 1.02657
 C90 C 0.75903 0.95940 0.96600
 C91 C 0.78113 1.03052 0.94618
 C92 C 0.78160 1.05256 0.92070
 C93 C 0.75587 1.07439 0.91622
 C94 C 0.72942 1.07267 0.93732
 C95 C 0.72905 1.05078 0.96266
 C96 C 0.77750 1.05193 1.03395
 C97 C 0.77428 1.07256 1.06011
 C98 C 0.74736 1.07064 1.08063
 C99 C 0.72402 1.04676 1.07448
 C100 C 0.72734 1.02602 1.04818
 C101 C 0.73330 0.93288 1.02829
 C102 C 0.73146 0.91337 1.05546
 C103 C 0.75143 0.91887 1.08242
 C104 C 0.77495 0.94331 1.07998
 C105 C 0.77701 0.96263 1.05245
 C106 C 0.73384 0.96109 0.94359
 C107 C 0.73353 0.94081 0.91677
 C108 C 0.75853 0.91829 0.91179
 C109 C 0.78410 0.91744 0.93408
 C110 C 0.78427 0.93761 0.96090
 H111 H 0.80164 1.01482 0.94993
 H112 H 0.80261 1.05271 0.90549
 H113 H 0.70928 1.08906 0.93468
 H114 H 0.70876 1.05073 0.97905
 H115 H 0.79803 1.05460 1.01808
 H116 H 0.79249 1.09081 1.06388
 H117 H 0.70858 1.00864 1.04318
 H118 H 0.71722 0.92818 1.00830
 H119 H 0.71471 0.89349 1.05479
 H120 H 0.79240 0.94710 1.09895
 H121 H 0.79553 0.98089 1.05113
 H122 H 0.71374 0.97725 0.94755
 H123 H 0.71300 0.94240 0.90098
 H124 H 0.80355 0.90028 0.93124
 H125 H 0.80375 0.93569 0.97816
 H126 H 0.70261 1.04440 1.08895
 C127 C 0.25442 0.51337 0.49772
 C128 C 0.25521 0.48074 0.49690
 C129 C 0.25303 0.46106 0.52665
 C130 C 0.25635 0.46258 0.46617
 C131 C 0.25373 0.53323 0.46814
 C132 C 0.25373 0.53178 0.52826
 C133 C 0.27507 0.46447 0.55204
 C134 C 0.27249 0.44516 0.57950
 C135 C 0.24781 0.42205 0.58220
 C136 C 0.22658 0.41810 0.55603
 C137 C 0.22898 0.43757 0.52886
 C138 C 0.28119 0.44031 0.46115
 C139 C 0.28063 0.41996 0.43449
 C140 C 0.25502 0.42102 0.41226
 C141 C 0.23052 0.44413 0.41700
 C142 C 0.23122 0.46464 0.44370
 C143 C 0.22827 0.55491 0.46374
 C144 C 0.22893 0.57700 0.43859
 C145 C 0.25520 0.57824 0.41725
 C146 C 0.28036 0.55566 0.42120
 C147 C 0.27960 0.53342 0.44649
 C148 C 0.22788 0.52920 0.54983
 C149 C 0.22597 0.54957 0.57657
 C150 C 0.24999 0.57288 0.58225
 C151 C 0.27579 0.57511 0.56038
 C152 C 0.27770 0.55475 0.53388
 H153 H 0.29450 0.48175 0.55041
 H154 H 0.29022 0.44785 0.59843
 H155 H 0.20853 0.39944 0.55575
 H156 H 0.21210 0.43407 0.50928
 H157 H 0.30065 0.43814 0.47841
 H158 H 0.29977 0.40244 0.43175
 H159 H 0.21147 0.48125 0.44752
 H160 H 0.20816 0.55523 0.48036
 H161 H 0.20915 0.59386 0.43624
 H162 H 0.30110 0.55523 0.40563
 H163 H 0.29971 0.51714 0.44985
 H164 H 0.20862 0.51225 0.54530
 H165 H 0.20493 0.54768 0.59170
 H166 H 0.29414 0.59336 0.56332
 H167 H 0.29754 0.55748 0.51717
 H168 H 0.21010 0.44607 0.40111
 C169 C 0.99627 0.24418 -0.01188
 C170 C 0.99672 0.24174 0.02069
 C171 C 1.02737 0.24252 0.03906
 C172 C 0.96687 0.23843 0.04012
 C173 C 0.96598 0.24497 -0.03077
 C174 C 1.02630 0.24588 -0.03110
 C175 C 1.05053 0.21819 0.03583
 C176 C 1.07818 0.21814 0.05517
 C177 C 1.08335 0.24267 0.07818
 C178 C 1.05999 0.26729 0.08056
 C179 C 1.03240 0.26709 0.06144
 C180 C 0.96456 0.21318 0.06232
 C181 C 0.93820 0.21090 0.08300
 C182 C 0.91306 0.23367 0.08172
 C183 C 0.91567 0.25917 0.05950
 C184 C 0.94222 0.26149 0.03888
 C185 C 0.96015 0.27120 -0.05105
 C186 C 0.93442 0.27078 -0.07256
 C187 C 0.91366 0.24400 -0.07461
 C188 C 0.91940 0.21786 -0.05352
 C189 C 0.94524 0.21847 -0.03182
 C190 C 1.04788 0.27154 -0.02777
 C191 C 1.07455 0.27415 -0.04819
 C192 C 1.08039 0.25087 -0.07231
 C193 C 1.05815 0.22542 -0.07547
 C194 C 1.03166 0.22290 -0.05508
 H195 H 1.04673 0.19875 0.01893
 H196 H 1.09453 0.19823 0.05225
 H197 H 1.06269 0.28639 0.09806
 H198 H 1.01465 0.28599 0.06438
 H199 H 0.98368 0.19551 0.06416
 H200 H 0.93849 0.19187 0.10065
 H201 H 0.94401 0.28182 0.02270
 H202 H 0.97619 0.29173 -0.05085
 H203 H 0.93132 0.29117 -0.08850
 H204 H 0.90516 0.19624 -0.05412
 H205 H 0.94987 0.19768 -0.01681
 H206 H 1.04346 0.29012 -0.01006
 H207 H 1.08948 0.29518 -0.04550
 H208 H 1.06084 0.20769 -0.09436
 H209 H 1.01489 0.20325 -0.05842
 H210 H 0.89752 0.27788 0.05871
 C211 C 0.49806 0.74304 0.48634
 C212 C 0.49931 0.74350 0.51899
 C213 C 0.46989 0.74477 0.53943
 C214 C 0.53060 0.74408 0.53626
 C215 C 0.52766 0.74333 0.46637
 C216 C 0.46740 0.74380 0.46813
 C217 C 0.46820 0.76758 0.56419
 C218 C 0.44197 0.76834 0.58508
 C219 C 0.41608 0.74679 0.58135
 C220 C 0.41821 0.72337 0.55692
 C221 C 0.44479 0.72240 0.53615
 C222 C 0.55190 0.76999 0.53281
 C223 C 0.57986 0.77171 0.55153
 C224 C 0.58707 0.74742 0.57411
 C225 C 0.56571 0.72126 0.57689
 C226 C 0.53780 0.71967 0.55829
 C227 C 0.54989 0.71794 0.46735
 C228 C 0.57626 0.71753 0.44634
 C229 C 0.58075 0.74257 0.42386
 C230 C 0.55860 0.76823 0.42372
 C231 C 0.53235 0.76852 0.44456
 C232 C 0.46138 0.71966 0.44548
 C233 C 0.43543 0.72226 0.42439
 C234 C 0.41489 0.74920 0.42518
 C235 C 0.42043 0.77295 0.44879
 C236 C 0.44650 0.77023 0.47003
 H237 H 0.48760 0.78463 0.56771
 H238 H 0.44272 0.78541 0.60463
 H239 H 0.39963 0.70533 0.55429
 H240 H 0.44609 0.70375 0.51805
 H241 H 0.54630 0.78942 0.51637
 H242 H 0.59479 0.79273 0.54885
 H243 H 0.52143 0.69966 0.56151
 H244 H 0.54638 0.69809 0.48385
 H245 H 0.59237 0.69724 0.44769
 H246 H 0.56130 0.78787 0.40682
 H247 H 0.51538 0.78830 0.44342
 H248 H 0.47747 0.69923 0.44346
 H249 H 0.43199 0.70362 0.40653
 H250 H 0.40572 0.79423 0.45052
 H251 H 0.45119 0.78941 0.48700
 H252 H 0.57018 0.70244 0.59436
 C253 C 0.01372 0.75776 0.00155
 C254 C -0.01900 0.75849 0.00151
 C255 C -0.03806 0.75993 -0.02875
 C256 C -0.03788 0.75807 0.03185
 C257 C 0.03278 0.75742 0.03169
 C258 C 0.03296 0.75661 -0.02846
 C259 C -0.06174 0.78372 -0.03214
 C260 C -0.08158 0.78455 -0.05921
 C261 C -0.07783 0.76194 -0.08428
 C262 C -0.05425 0.73769 -0.08034
 C263 C -0.03465 0.73671 -0.05296
 C264 C -0.03570 0.78313 0.05426
 C265 C -0.05604 0.78387 0.08114
 C266 C -0.07909 0.75934 0.08628
 C267 C -0.08038 0.73395 0.06376
 C268 C -0.06023 0.73344 0.03694
 C269 C 0.03102 0.73155 0.05320
 C270 C 0.05249 0.72944 0.07909
 C271 C 0.07626 0.75324 0.08386
 C272 C 0.07697 0.77962 0.06266
 C273 C 0.05563 0.78160 0.03685
 C274 C 0.05393 0.73071 -0.03337
 C275 C 0.07479 0.73039 -0.05960
 C276 C 0.07550 0.75610 -0.08176
 C277 C 0.05389 0.78199 -0.07679
 C278 C 0.03285 0.78213 -0.05044
 H279 H -0.06534 0.80141 -0.01335
 H280 H -0.10049 0.80238 -0.05942
 H281 H -0.05156 0.71883 -0.09808
 H282 H -0.01741 0.71733 -0.05031
 H283 H -0.01892 0.80267 0.05037
 H284 H -0.05382 0.80429 0.09689
 H285 H -0.06244 0.71400 0.01975
 H286 H 0.01385 0.71236 0.04921
 H287 H 0.05066 0.70861 0.09437
 H288 H 0.09488 0.79832 0.06555
 H289 H 0.05749 0.80165 0.02031
 H290 H 0.05456 0.71091 -0.01644
 H291 H 0.09113 0.71022 -0.06216
 H292 H 0.05339 0.80280 -0.09220
 H293 H 0.01720 0.80263 -0.04661
 H294 H -0.09781 0.71477 0.06648
 C295 C 0.47919 0.25902 0.50446
 C296 C 0.51186 0.25768 0.50427
 C297 C 0.53062 0.25589 0.47406
 C298 C 0.53131 0.25727 0.53418
 C299 C 0.46049 0.25898 0.53485
 C300 C 0.45995 0.26074 0.47433
 C301 C 0.55044 0.22917 0.46878
 C302 C 0.57088 0.22818 0.44226
 C303 C 0.57240 0.25407 0.42051
 C304 C 0.55172 0.28059 0.42550
 C305 C 0.53105 0.28144 0.45210
 C306 C 0.52936 0.23166 0.55601
 C307 C 0.55121 0.22938 0.58159
 C308 C 0.57557 0.25271 0.58571
 C309 C 0.57645 0.27887 0.56424
 C310 C 0.55474 0.28102 0.53875
 C311 C 0.46328 0.28399 0.55727
 C312 C 0.44289 0.28518 0.58410
 C313 C 0.41926 0.26127 0.58894
 C314 C 0.41741 0.23585 0.56666
 C315 C 0.43761 0.23482 0.53992
 C316 C 0.43739 0.28555 0.47064
 C317 C 0.41720 0.28663 0.44382
 C318 C 0.41932 0.26302 0.41959
 C319 C 0.44202 0.23806 0.42352
 C320 C 0.46207 0.23688 0.45058
 H321 H 0.55048 0.20927 0.48560
 H322 H 0.58637 0.20743 0.43918
 H323 H 0.55168 0.30114 0.40973
 H324 H 0.51612 0.30243 0.45611
 H325 H 0.51173 0.21281 0.55252
 H326 H 0.54912 0.20883 0.59721
 H327 H 0.55676 0.30086 0.52198
 H328 H 0.48053 0.30313 0.55345
 H329 H 0.44545 0.30534 0.60015
 H330 H 0.39951 0.21714 0.56954
 H331 H 0.43500 0.21541 0.52276
 H332 H 0.43495 0.30387 0.48900
 H333 H 0.39937 0.30548 0.44312
 H334 H 0.44361 0.21890 0.40596
 H335 H 0.47860 0.21692 0.45339
 H336 H 0.59474 0.29726 0.56669
 C337 C 1.00149 0.01791 0.24347
 C338 C 1.00216 -0.01467 0.24536
 C339 C 1.03253 -0.03342 0.24524
 C340 C 0.97235 -0.03409 0.24781
 C341 C 0.97074 0.03622 0.24495
 C342 C 1.03132 0.03747 0.24070
 C343 C 1.05299 -0.03368 0.21843
 C344 C 1.07898 -0.05519 0.21699
 C345 C 1.08505 -0.07688 0.24254
 C346 C 1.06461 -0.07558 0.26964
 C347 C 1.03880 -0.05425 0.27092
 C348 C 0.96601 -0.05720 0.22423
 C349 C 0.93992 -0.07793 0.22742
 C350 C 0.91937 -0.07638 0.25445
 C351 C 0.92576 -0.05264 0.27796
 C352 C 0.95198 -0.03177 0.27459
 C353 C 0.96749 0.06081 0.26772
 C354 C 0.93976 0.07968 0.26859
 C355 C 0.91410 0.07406 0.24714
 C356 C 0.91771 0.04970 0.22384
 C357 C 0.94573 0.03094 0.22281
 C358 C 1.05579 0.03585 0.26395
 C359 C 1.08186 0.05713 0.26272
 C360 C 1.08414 0.08044 0.23817
 C361 C 1.05924 0.08198 0.21514
 C362 C 1.03339 0.06063 0.21631
 H363 H 1.04806 -0.01817 0.19808
 H364 H 1.09313 -0.05509 0.19527
 H365 H 1.06808 -0.09193 0.28966
 H366 H 1.02304 -0.05461 0.29169
 H367 H 0.98170 -0.05953 0.20353
 H368 H 0.93618 -0.09592 0.20894
 H369 H 0.95697 -0.01440 0.29334
 H370 H 0.98677 0.06574 0.28459
 H371 H 0.93877 0.09924 0.28571
 H372 H 0.89954 0.04573 0.20564
 H373 H 0.94826 0.01287 0.20424
 H374 H 1.05414 0.01893 0.28368
 H375 H 1.09987 0.05597 0.28154
 H376 H 1.05864 0.10031 0.19680
 H377 H 1.01436 0.06278 0.19857
 H378 H 0.91155 -0.05024 0.29950
 C379 C 0.50371 0.52088 0.74675
 C380 C 0.50417 0.48831 0.74915
 C381 C 0.47408 0.46932 0.75148
 C382 C 0.53431 0.46908 0.74897
 C383 C 0.53353 0.54030 0.74312
 C384 C 0.47297 0.53927 0.74770
 C385 C 0.45346 0.47212 0.77805
 C386 C 0.42677 0.45179 0.78110
 C387 C 0.42029 0.42826 0.75753
 C388 C 0.44098 0.42612 0.73077
 C389 C 0.46753 0.44632 0.72783
 C390 C 0.53992 0.44754 0.77428
 C391 C 0.56517 0.42553 0.77269
 C392 C 0.58561 0.42429 0.74570
 C393 C 0.58046 0.44666 0.72064
 C394 C 0.55500 0.46880 0.72229
 C395 C 0.53507 0.56326 0.71848
 C396 C 0.56118 0.58419 0.71619
 C397 C 0.58689 0.58242 0.73828
 C398 C 0.58514 0.55936 0.76311
 C399 C 0.55879 0.53850 0.76549
 C400 C 0.44893 0.53472 0.72441
 C401 C 0.42114 0.55384 0.72449
 C402 C 0.41679 0.57791 0.74801
 C403 C 0.44120 0.58229 0.77115
 C404 C 0.46885 0.56320 0.77103
 H405 H 0.45856 0.48942 0.79683
 H406 H 0.41214 0.45427 0.80237
 H407 H 0.43695 0.40813 0.71239
 H408 H 0.48335 0.44366 0.70728
 H409 H 0.52402 0.44714 0.79495
 H410 H 0.56826 0.40867 0.79232
 H411 H 0.55063 0.48481 0.70219
 H412 H 0.51550 0.56553 0.70135
 H413 H 0.56019 0.60239 0.69772
 H414 H 0.60383 0.55806 0.78125
 H415 H 0.55765 0.52171 0.78537
 H416 H 0.45211 0.51697 0.70563
 H417 H 0.40395 0.55030 0.70533
 H418 H 0.43921 0.60115 0.78897
 H419 H 0.48736 0.56741 0.78892
 H420 H 0.59508 0.44678 0.69922
 C421 C 1.02089 1.00482 0.75842
 C422 C 0.98819 1.00341 0.75766
 C423 C 0.97044 0.97260 0.75601
 C424 C 0.96774 1.03266 0.75725
 C425 C 1.03826 1.03593 0.75982
 C426 C 1.04137 0.97554 0.75582
 C427 C 0.97284 0.95250 0.72907
 C428 C 0.95286 0.92558 0.72619
 C429 C 0.93007 0.91829 0.75032
 C430 C 0.92858 0.93826 0.77762
 C431 C 0.94839 0.96512 0.78035
 C432 C 0.94638 1.03730 0.73159
 C433 C 0.92454 1.06273 0.73194
 C434 C 0.92318 1.08432 0.75808
 C435 C 0.94526 1.07971 0.78367
 C436 C 0.96727 1.05415 0.78315
 C437 C 1.05993 1.04160 0.78500
 C438 C 1.07948 1.06885 0.78477
 C439 C 1.07812 1.09102 0.75918
 C440 C 1.05568 1.08549 0.73424
 C441 C 1.03597 1.05824 0.73464
 C442 C 1.03790 0.94939 0.77687
 C443 C 1.05783 0.92237 0.77388
 C444 C 1.08165 0.92069 0.74963
 C445 C 1.08590 0.94791 0.72978
 C446 C 1.06578 0.97461 0.73256
 H447 H 0.98934 0.95834 0.70976
 H448 H 0.95484 0.91158 0.70448
 H449 H 0.91115 0.93362 0.79645
 H450 H 0.94600 0.98060 0.80117
 H451 H 0.94625 1.02080 0.71144
 H452 H 0.90799 1.06512 0.71190
 H453 H 0.98326 1.05055 0.80345
 H454 H 1.06228 1.02443 0.80447
 H455 H 1.09667 1.07207 0.80412
 H456 H 1.05387 1.10113 0.71366
 H457 H 1.01986 1.05385 0.71461
 H458 H 1.02011 0.95008 0.79591
 H459 H 1.05493 0.90303 0.79107
 H460 H 1.10524 0.94933 0.71243
 H461 H 1.06950 0.99484 0.71657
 H462 H 0.94552 1.09484 0.80467
 C463 C 0.48623 0.50190 0.25462
 C464 C 0.51893 0.50275 0.25464
 C465 C 0.53882 0.47321 0.25174
 C466 C 0.53710 0.53344 0.25569
 C467 C 0.46642 0.53155 0.25449
 C468 C 0.46784 0.47138 0.25354
 C469 C 0.53667 0.44802 0.27406
 C470 C 0.55718 0.42139 0.27157
 C471 C 0.58033 0.41942 0.24681
 C472 C 0.58250 0.44514 0.22484
 C473 C 0.56186 0.47146 0.22719
 C474 C 0.55960 0.53835 0.28030
 C475 C 0.58027 0.56475 0.27943
 C476 C 0.57929 0.58676 0.25370
 C477 C 0.55582 0.58223 0.22951
 C478 C 0.53501 0.55579 0.23052
 C479 C 0.44465 0.53656 0.22924
 C480 C 0.42343 0.56248 0.22992
 C481 C 0.42319 0.58406 0.25599
 C482 C 0.44564 0.57927 0.28109
 C483 C 0.46704 0.55322 0.28029
 C484 C 0.46953 0.45088 0.22684
 C485 C 0.44881 0.42446 0.22438
 C486 C 0.42591 0.41807 0.24867
 C487 C 0.42509 0.43843 0.27571
 C488 C 0.44567 0.46477 0.27804
 H489 H 0.51964 0.44928 0.29376
 H490 H 0.55546 0.40253 0.28944
 H491 H 0.60054 0.44597 0.20622
 H492 H 0.56424 0.49088 0.20998
 H493 H 0.56178 0.52117 0.29978
 H494 H 0.59796 0.56742 0.29841
 H495 H 0.51816 0.55204 0.21097
 H496 H 0.44372 0.51997 0.20917
 H497 H 0.40645 0.56530 0.21031
 H498 H 0.44651 0.59475 0.30185
 H499 H 0.48340 0.54939 0.30025
 H500 H 0.48606 0.45605 0.20735
 H501 H 0.45039 0.41010 0.20287
 H502 H 0.40767 0.43446 0.29469
 H503 H 0.44377 0.48055 0.29868
 H504 H 0.55378 0.59812 0.20915
 O505 O 0.25637 0.16571 0.20009
 O506 O 0.29281 0.15723 0.24474
 O507 O 0.17263 0.20327 0.24555
 O508 O 0.16092 0.24459 0.27887
 O509 O 0.21001 0.24843 0.16107
 O510 O 0.25455 0.28468 0.15187
 O511 O 0.25557 0.29390 0.32723
 O512 O 0.21932 0.25103 0.33653
 O513 O 0.33890 0.25138 0.28855
 O514 O 0.34827 0.21379 0.24214
 O515 O 0.29906 0.33224 0.24475
 O516 O 0.25214 0.34120 0.20795
 O517 O 0.25598 0.33230 0.28830
 O518 O 0.21911 0.34195 0.24328
 O519 O 0.33825 0.29402 0.24493
 O520 O 0.34891 0.24897 0.20891
 O521 O 0.30013 0.25309 0.32716
 O522 O 0.25708 0.21404 0.33775
 O523 O 0.25473 0.20413 0.16110
 O524 O 0.29076 0.24858 0.15167
 O525 O 0.17176 0.24711 0.20024
 O526 O 0.16372 0.28523 0.24414
 O527 O 0.21201 0.16509 0.24565
 O528 O 0.25707 0.15669 0.28069
 Zr529 Zr 0.25517 0.19152 0.24369
 O530 O 0.28502 0.21952 0.27348
 Zr531 Zr 0.19768 0.24718 0.24368
 O532 O 0.22503 0.27772 0.27344
 Zr533 Zr 0.25389 0.24767 0.18674
 O534 O 0.28389 0.27807 0.21398
 Zr535 Zr 0.25655 0.25028 0.30179
 O536 O 0.22638 0.21930 0.27491
 Zr537 Zr 0.31290 0.25041 0.24495
 O538 O 0.28571 0.21971 0.21473
 Zr539 Zr 0.25552 0.30630 0.24489
 O540 O 0.22514 0.27848 0.21481
 O541 O 0.22472 0.21767 0.21393
 O542 O 0.28622 0.28049 0.27499
 C543 C 0.25542 0.17468 0.17045
 C544 C 0.18229 0.17386 0.24592
 C545 C 0.18052 0.24759 0.17059
 C546 C 0.25566 0.32335 0.31789
 C547 C 0.32968 0.25298 0.31803
 C548 C 0.32876 0.32339 0.24491
 H549 H 0.29870 0.20526 0.28670
 H550 H 0.29694 0.29140 0.19925
 H551 H 0.21099 0.20363 0.20048
 H552 H 0.21046 0.29080 0.28696
 H553 H 0.20314 0.23494 0.32969
 H554 H 0.16714 0.25889 0.29683
 H555 H 0.34286 0.26461 0.19203
 H556 H 0.30757 0.23336 0.15905
 H557 H 0.27507 0.19911 0.33323
 H558 H 0.24298 0.16469 0.29816
 H559 H 0.27005 0.33744 0.19270
 H560 H 0.23897 0.30116 0.15919
 H561 H 0.30924 0.16465 0.22917
 H562 H 0.34506 0.19907 0.26054
 H563 H 0.17037 0.30065 0.22726
 H564 H 0.20280 0.33646 0.25973
 O565 O 0.75241 0.83875 0.21198
 O566 O 0.71553 0.84691 0.25595
 O567 O 0.83481 0.79869 0.25783
 O568 O 0.84672 0.75633 0.28874
 O569 O 0.79634 0.75632 0.17188
 O570 O 0.75237 0.72037 0.16188
 O571 O 0.74877 0.70902 0.33786
 O572 O 0.78694 0.75025 0.34746
 O573 O 0.66793 0.75160 0.29871
 O574 O 0.65801 0.78982 0.25396
 O575 O 0.70692 0.67156 0.25445
 O576 O 0.75330 0.66186 0.21858
 O577 O 0.74986 0.67104 0.29856
 O578 O 0.78724 0.66170 0.25295
 O579 O 0.66815 0.71020 0.25460
 O580 O 0.65886 0.75693 0.21849
 O581 O 0.70617 0.75082 0.33788
 O582 O 0.75047 0.78912 0.34827
 O583 O 0.75069 0.80051 0.17286
 O584 O 0.71587 0.75542 0.16251
 O585 O 0.83507 0.75540 0.21063
 O586 O 0.84198 0.71628 0.25473
 O587 O 0.79613 0.83755 0.25764
 O588 O 0.75083 0.84598 0.29279
 Zr589 Zr 0.75255 0.81196 0.25507
 O590 O 0.72202 0.78402 0.28429
 Zr591 Zr 0.80915 0.75530 0.25433
 O592 O 0.78129 0.72511 0.28410
 Zr593 Zr 0.75274 0.75651 0.19761
 O594 O 0.72261 0.72593 0.22437
 Zr595 Zr 0.74992 0.75269 0.31255
 O596 O 0.78084 0.78324 0.28595
 Zr597 Zr 0.69391 0.75363 0.25539
 O598 O 0.72147 0.78460 0.22584
 Zr599 Zr 0.75064 0.69714 0.25517
 O600 O 0.78114 0.72487 0.22516
 O601 O 0.78256 0.78573 0.22496
 O602 O 0.72012 0.72303 0.28527
 C603 C 0.75142 0.82990 0.18234
 C604 C 0.82566 0.82823 0.25847
 C605 C 0.82593 0.75595 0.18104
 C606 C 0.74881 0.67970 0.32823
 C607 C 0.67675 0.75026 0.32831
 C608 C 0.67732 0.68072 0.25430
 H609 H 0.70844 0.79829 0.29759
 H610 H 0.70949 0.71290 0.20943
 H611 H 0.79644 0.79982 0.21172
 H612 H 0.79557 0.71175 0.29768
 H613 H 0.80361 0.76597 0.34092
 H614 H 0.83957 0.74350 0.30745
 H615 H 0.66300 0.73941 0.20294
 H616 H 0.69888 0.77039 0.16996
 H617 H 0.73218 0.80386 0.34433
 H618 H 0.76551 0.83798 0.30979
 H619 H 0.73666 0.66701 0.20233
 H620 H 0.76718 0.70328 0.16942
 H621 H 0.69868 0.83938 0.24089
 H622 H 0.66238 0.80514 0.27161
 H623 H 0.83568 0.70175 0.23695
 H624 H 0.80263 0.66589 0.27062
 O625 O 0.75018 0.16543 0.79525
 O626 O 0.71519 0.15586 0.75099
 O627 O 0.83396 0.20494 0.75107
 O628 O 0.84638 0.24625 0.71957
 O629 O 0.79351 0.24900 0.83528
 O630 O 0.74931 0.28397 0.84437
 O631 O 0.74780 0.29209 0.66716
 O632 O 0.78554 0.25140 0.65814
 O633 O 0.66665 0.25000 0.70709
 O634 O 0.65528 0.21574 0.75185
 O635 O 0.70673 0.33258 0.74888
 O636 O 0.75128 0.34334 0.78428
 O637 O 0.74839 0.33110 0.70543
 O638 O 0.78784 0.33989 0.75200
 O639 O 0.66757 0.29444 0.74864
 O640 O 0.65852 0.24796 0.78815
 O641 O 0.70514 0.24947 0.66815
 O642 O 0.75080 0.21136 0.65943
 O643 O 0.74971 0.20386 0.83423
 O644 O 0.71230 0.24908 0.84236
 O645 O 0.83279 0.24862 0.79707
 O646 O 0.84000 0.28756 0.75148
 O647 O 0.79544 0.16602 0.75176
 O648 O 0.75057 0.15735 0.71440
 Zr649 Zr 0.75145 0.19148 0.75206
 O650 O 0.72086 0.21888 0.72244
 Zr651 Zr 0.80781 0.24811 0.75276
 O652 O 0.78038 0.27736 0.72157
 Zr653 Zr 0.75051 0.24777 0.80873
 O654 O 0.72122 0.27843 0.78090
 Zr655 Zr 0.74907 0.24920 0.69359
 O656 O 0.78014 0.21953 0.72113
 Zr657 Zr 0.69263 0.25028 0.75034
 O658 O 0.71978 0.21927 0.78039
 Zr659 Zr 0.74974 0.30616 0.74959
 O660 O 0.77935 0.27897 0.78104
 O661 O 0.78080 0.21828 0.78220
 O662 O 0.71928 0.27976 0.71988
 C663 C 0.74996 0.17437 0.82481
 C664 C 0.82499 0.17539 0.75155
 C665 C 0.82319 0.24881 0.82654
 C666 C 0.74738 0.32164 0.67600
 C667 C 0.67561 0.24979 0.67755
 C668 C 0.67711 0.32384 0.74815
 H669 H 0.70733 0.20424 0.70952
 H670 H 0.70805 0.29205 0.79528
 H671 H 0.79452 0.20453 0.79599
 H672 H 0.79478 0.29028 0.70774
 H673 H 0.80308 0.23699 0.66545
 H674 H 0.83910 0.25732 0.69981
 H675 H 0.66051 0.26779 0.80111
 H676 H 0.69674 0.23233 0.83573
 H677 H 0.73229 0.19692 0.66331
 H678 H 0.76726 0.16397 0.69875
 H679 H 0.73649 0.33732 0.80191
 H680 H 0.76340 0.30150 0.83656
 H681 H 0.69778 0.16346 0.76539
 H682 H 0.66194 0.19750 0.73813
 H683 H 0.83465 0.30151 0.77002
 H684 H 0.80081 0.33783 0.73214
 O685 O 0.24562 0.82950 0.79178
 O686 O 0.27984 0.83783 0.74607
 O687 O 0.16032 0.79029 0.74947
 O688 O 0.14851 0.74855 0.71691
 O689 O 0.20081 0.74813 0.83326
 O690 O 0.24509 0.71150 0.84229
 O691 O 0.24290 0.69953 0.66665
 O692 O 0.20560 0.74146 0.65777
 O693 O 0.32606 0.74402 0.70289
 O694 O 0.33729 0.78029 0.74841
 O695 O 0.28827 0.66200 0.74971
 O696 O 0.24280 0.65289 0.78605
 O697 O 0.24515 0.66165 0.70604
 O698 O 0.20777 0.65303 0.75253
 O699 O 0.32674 0.70063 0.74613
 O700 O 0.33771 0.74664 0.78270
 O701 O 0.28676 0.74146 0.66484
 O702 O 0.24261 0.77924 0.65519
 O703 O 0.24674 0.79166 0.83135
 O704 O 0.28180 0.74665 0.84067
 O705 O 0.16133 0.74701 0.79525
 O706 O 0.15295 0.70816 0.75195
 O707 O 0.19938 0.82862 0.74727
 O708 O 0.24360 0.83699 0.71104
 Zr709 Zr 0.24300 0.80288 0.74876
 O710 O 0.27248 0.77469 0.71883
 Zr711 Zr 0.18621 0.74674 0.75119
 O712 O 0.21320 0.71606 0.72105
 Zr713 Zr 0.24398 0.74769 0.80658
 O714 O 0.27344 0.71691 0.77911
 Zr715 Zr 0.24372 0.74337 0.69151
 O716 O 0.21376 0.77436 0.71874
 Zr717 Zr 0.30131 0.74428 0.74705
 O718 O 0.27467 0.77541 0.77728
 Zr719 Zr 0.24464 0.68803 0.74926
 O720 O 0.21487 0.71614 0.77979
 O721 O 0.21371 0.77706 0.77979
 O722 O 0.27432 0.71364 0.71801
 C723 C 0.24710 0.82094 0.82151
 C724 C 0.16974 0.81972 0.74810
 C725 C 0.17103 0.74793 0.82459
 C726 C 0.24400 0.67024 0.67635
 C727 C 0.31644 0.74250 0.67353
 C728 C 0.31778 0.67115 0.74759
 H729 H 0.28568 0.78897 0.70519
 H730 H 0.28699 0.70388 0.79371
 H731 H 0.20044 0.79138 0.79342
 H732 H 0.19849 0.70269 0.70801
 H733 H 0.18937 0.75750 0.66471
 H734 H 0.15448 0.73412 0.69897
 H735 H 0.33410 0.72889 0.79811
 H736 H 0.29893 0.76085 0.83218
 H737 H 0.26011 0.79476 0.65946
 H738 H 0.22861 0.82894 0.69436
 H739 H 0.25888 0.65886 0.80256
 H740 H 0.22923 0.69501 0.83568
 H741 H 0.29723 0.83053 0.76067
 H742 H 0.33232 0.79612 0.73134
 H743 H 0.16017 0.69314 0.76898
 H744 H 0.19258 0.65665 0.73454
 O745 O 0.25018 0.34366 0.71502
 O746 O 0.21393 0.35276 0.75937
 O747 O 0.33274 0.30352 0.76123
 O748 O 0.34445 0.26138 0.79245
 O749 O 0.29349 0.26055 0.67587
 O750 O 0.24900 0.22461 0.66665
 O751 O 0.24774 0.21517 0.84249
 O752 O 0.28528 0.25696 0.85140
 O753 O 0.16573 0.25996 0.80358
 O754 O 0.15560 0.29579 0.75803
 O755 O 0.20403 0.17744 0.75913
 O756 O 0.25014 0.16707 0.72365
 O757 O 0.24617 0.17710 0.80333
 O758 O 0.28409 0.16700 0.75798
 O759 O 0.16542 0.21619 0.76054
 O760 O 0.15628 0.26252 0.72321
 O761 O 0.20432 0.25726 0.84232
 O762 O 0.24863 0.29530 0.85235
 O763 O 0.24802 0.30488 0.67646
 O764 O 0.21310 0.26021 0.66672
 O765 O 0.33242 0.25978 0.71443
 O766 O 0.33935 0.22114 0.75879
 O767 O 0.29443 0.34274 0.76057
 O768 O 0.24946 0.35195 0.79584
 Zr769 Zr 0.25062 0.31747 0.75853
 O770 O 0.22016 0.29005 0.78831
 Zr771 Zr 0.30674 0.26035 0.75819
 O772 O 0.27886 0.23063 0.78836
 Zr773 Zr 0.25000 0.26133 0.70178
 O774 O 0.21971 0.23139 0.72904
 Zr775 Zr 0.24796 0.25873 0.81677
 O776 O 0.27883 0.28884 0.78961
 Zr777 Zr 0.19145 0.25960 0.76003
 O778 O 0.21909 0.28998 0.72991
 Zr779 Zr 0.24778 0.20275 0.75985
 O780 O 0.27836 0.22984 0.72945
 O781 O 0.28024 0.29066 0.72858
 O782 O 0.21763 0.22906 0.79004
 C783 C 0.24879 0.33438 0.68553
 C784 C 0.32388 0.33315 0.76158
 C785 C 0.32313 0.26003 0.68490
 C786 C 0.24636 0.18582 0.83296
 C787 C 0.17481 0.25847 0.83308
 C788 C 0.17449 0.18666 0.75971
 H789 H 0.20684 0.30466 0.80149
 H790 H 0.20639 0.21831 0.71432
 H791 H 0.29412 0.30453 0.71510
 H792 H 0.29314 0.21726 0.80193
 H793 H 0.30184 0.27264 0.84450
 H794 H 0.33726 0.24881 0.81131
 H795 H 0.15974 0.24430 0.70833
 H796 H 0.19589 0.27477 0.67446
 H797 H 0.23065 0.31033 0.84810
 H798 H 0.26390 0.34383 0.81300
 H799 H 0.23389 0.17249 0.70709
 H800 H 0.26441 0.20791 0.67386
 H801 H 0.19722 0.34564 0.74394
 H802 H 0.16135 0.31251 0.77392
 H803 H 0.33271 0.20634 0.74137
 H804 H 0.29933 0.17101 0.77583
 O805 O 0.75974 0.66648 0.69563
 O806 O 0.79673 0.65698 0.73962
 O807 O 0.67701 0.70416 0.74142
 O808 O 0.66529 0.74485 0.77504
 O809 O 0.71534 0.75017 0.65777
 O810 O 0.75990 0.78624 0.64934
 O811 O 0.76013 0.79240 0.82502
 O812 O 0.72390 0.74950 0.83350
 O813 O 0.84358 0.75006 0.78578
 O814 O 0.85343 0.71383 0.73932
 O815 O 0.80423 0.83200 0.74347
 O816 O 0.75799 0.84228 0.70690
 O817 O 0.76119 0.83146 0.78677
 O818 O 0.72414 0.84189 0.74139
 O819 O 0.84325 0.79362 0.74332
 O820 O 0.85321 0.74855 0.70561
 O821 O 0.80467 0.75186 0.82424
 O822 O 0.76147 0.71225 0.83392
 O823 O 0.76059 0.70565 0.65735
 O824 O 0.79606 0.75045 0.64881
 O825 O 0.67694 0.74980 0.69682
 O826 O 0.66887 0.78613 0.74195
 O827 O 0.71600 0.66560 0.74167
 O828 O 0.76136 0.65618 0.77601
 Zr829 Zr 0.75940 0.69162 0.73961
 O830 O 0.78944 0.71885 0.76995
 Zr831 Zr 0.70250 0.74781 0.74036
 O832 O 0.72990 0.77750 0.77085
 Zr833 Zr 0.75902 0.74874 0.68367
 O834 O 0.78903 0.77852 0.71158
 Zr835 Zr 0.76114 0.74928 0.79877
 O836 O 0.73078 0.71912 0.77121
 Zr837 Zr 0.81769 0.75009 0.74214
 O838 O 0.79040 0.72004 0.71137
 Zr839 Zr 0.76065 0.80633 0.74287
 O840 O 0.73036 0.77929 0.71212
 O841 O 0.72930 0.71854 0.71012
 O842 O 0.79106 0.77978 0.77259
 C843 C 0.76036 0.67604 0.66618
 C844 C 0.68637 0.67466 0.74197
 C845 C 0.68582 0.75064 0.66723
 C846 C 0.76051 0.82200 0.81618
 C847 C 0.83425 0.75159 0.81522
 C848 C 0.83386 0.82302 0.74376
 H849 H 0.80299 0.70427 0.78297
 H850 H 0.80223 0.79205 0.69717
 H851 H 0.71544 0.70493 0.69636
 H852 H 0.71533 0.79040 0.78455
 H853 H 0.70768 0.73357 0.82636
 H854 H 0.67194 0.75790 0.79377
 H855 H 0.84879 0.76630 0.69038
 H856 H 0.81314 0.73558 0.65629
 H857 H 0.78000 0.69790 0.82970
 H858 H 0.74755 0.66404 0.79376
 H859 H 0.77549 0.83824 0.69126
 H860 H 0.74470 0.80288 0.65710
 H861 H 0.81320 0.66468 0.72421
 H862 H 0.84895 0.69785 0.75636
 H863 H 0.67574 0.80205 0.72563
 H864 H 0.70849 0.83704 0.75866
 O865 O 0.25013 0.66816 0.29567
 O866 O 0.21514 0.65782 0.25155
 O867 O 0.33381 0.70710 0.25111
 O868 O 0.34607 0.74780 0.21873
 O869 O 0.29308 0.75296 0.33439
 O870 O 0.24842 0.78747 0.34279
 O871 O 0.24787 0.79281 0.16561
 O872 O 0.28574 0.75178 0.15750
 O873 O 0.16651 0.75106 0.20591
 O874 O 0.15533 0.71701 0.25125
 O875 O 0.20601 0.83417 0.24664
 O876 O 0.25084 0.84541 0.28236
 O877 O 0.24791 0.83230 0.20338
 O878 O 0.28673 0.84243 0.24959
 O879 O 0.16707 0.79581 0.24699
 O880 O 0.15793 0.74998 0.28681
 O881 O 0.20513 0.75034 0.16711
 O882 O 0.25055 0.71212 0.15887
 O883 O 0.24957 0.70715 0.33409
 O884 O 0.21199 0.75210 0.34153
 O885 O 0.33237 0.75245 0.29619
 O886 O 0.33977 0.78966 0.24978
 O887 O 0.29530 0.66819 0.25194
 O888 O 0.25057 0.65863 0.21511
 Zr889 Zr 0.25134 0.69351 0.25208
 O890 O 0.22079 0.72027 0.22188
 Zr891 Zr 0.30753 0.75028 0.25192
 O892 O 0.28005 0.77900 0.22033
 Zr893 Zr 0.25014 0.75063 0.30785
 O894 O 0.22070 0.78065 0.27949
 Zr895 Zr 0.24896 0.75030 0.19267
 O896 O 0.27999 0.72112 0.22074
 Zr897 Zr 0.19235 0.75189 0.24926
 O898 O 0.21954 0.72158 0.27993
 Zr899 Zr 0.24919 0.80804 0.24786
 O900 O 0.27889 0.78146 0.27967
 O901 O 0.28064 0.72083 0.28187
 O902 O 0.21894 0.78108 0.21845
 C903 C 0.24985 0.67753 0.32509
 C904 C 0.32484 0.67755 0.25164
 C905 C 0.32274 0.75335 0.32561
 C906 C 0.24725 0.82245 0.17407
 C907 C 0.17558 0.75068 0.17641
 C908 C 0.17645 0.82523 0.24605
 H909 H 0.20736 0.70539 0.20913
 H910 H 0.20742 0.79440 0.29363
 H911 H 0.29448 0.70746 0.29593
 H912 H 0.29445 0.79177 0.20635
 H913 H 0.30299 0.73710 0.16497
 H914 H 0.33883 0.75864 0.19882
 H915 H 0.16025 0.76967 0.29993
 H916 H 0.19635 0.73541 0.33493
 H917 H 0.23216 0.69761 0.16305
 H918 H 0.26681 0.66536 0.19902
 H919 H 0.23499 0.84027 0.29935
 H920 H 0.26224 0.80506 0.33463
 H921 H 0.19769 0.66562 0.26580
 H922 H 0.16183 0.69892 0.23725
 H923 H 0.33387 0.80444 0.26748
 H924 H 0.30030 0.83955 0.23024
 O925 O 0.74472 0.32329 0.29495
 O926 O 0.77890 0.33234 0.24928
 O927 O 0.65840 0.28684 0.24986
 O928 O 0.64567 0.24575 0.21755
 O929 O 0.69777 0.24150 0.33372
 O930 O 0.74145 0.20392 0.34175
 O931 O 0.74067 0.19703 0.16615
 O932 O 0.70299 0.23955 0.15839
 O933 O 0.82331 0.23709 0.20378
 O934 O 0.83489 0.27428 0.24951
 O935 O 0.78405 0.15668 0.24684
 O936 O 0.73849 0.14756 0.28446
 O937 O 0.74064 0.15811 0.20458
 O938 O 0.70359 0.14872 0.25052
 O939 O 0.82328 0.19472 0.24753
 O940 O 0.83501 0.24012 0.28350
 O941 O 0.78419 0.23952 0.16553
 O942 O 0.74028 0.27702 0.15671
 O943 O 0.74357 0.28439 0.33348
 O944 O 0.77859 0.23891 0.34155
 O945 O 0.65840 0.24325 0.29562
 O946 O 0.64976 0.20473 0.25172
 O947 O 0.69813 0.32456 0.25037
 O948 O 0.74248 0.33356 0.21467
 Zr949 Zr 0.74134 0.29812 0.25111
 O950 O 0.77037 0.27030 0.22040
 Zr951 Zr 0.68348 0.24291 0.25165
 O952 O 0.71004 0.21266 0.22073
 Zr953 Zr 0.74099 0.24129 0.30728
 O954 O 0.77007 0.21086 0.27908
 Zr955 Zr 0.74114 0.24030 0.19213
 O956 O 0.71170 0.27099 0.22016
 Zr957 Zr 0.79852 0.23866 0.24792
 O958 O 0.77234 0.26930 0.27900
 Zr959 Zr 0.74086 0.18337 0.24833
 O960 O 0.71143 0.21106 0.27951
 O961 O 0.71138 0.27197 0.28118
 O962 O 0.77108 0.20937 0.21795
 C963 C 0.74522 0.31390 0.32447
 C964 C 0.66834 0.31610 0.24963
 C965 C 0.66806 0.24281 0.32500
 C966 C 0.74074 0.16748 0.17514
 C967 C 0.81382 0.23800 0.17435
 C968 C 0.81374 0.16541 0.24654
 H969 H 0.78385 0.28467 0.20714
 H970 H 0.78334 0.19721 0.29336
 H971 H 0.69827 0.28623 0.29503
 H972 H 0.69521 0.19987 0.20725
 H973 H 0.68684 0.25543 0.16585
 H974 H 0.65143 0.23166 0.19927
 H975 H 0.82999 0.22346 0.29973
 H976 H 0.79550 0.25396 0.33413
 H977 H 0.75712 0.29292 0.16209
 H978 H 0.72732 0.32639 0.19774
 H979 H 0.75616 0.15158 0.29991
 H980 H 0.72572 0.18767 0.33430
 H981 H 0.79638 0.32399 0.26319
 H982 H 0.83120 0.28935 0.23146
 H983 H 0.65645 0.18955 0.26883
 H984 H 0.68802 0.15355 0.23314
 C985 C 0.24803 0.10214 0.10363
 C986 C 0.22308 0.10153 0.12876
 C987 C 0.22570 0.12729 0.15135
 C988 C 0.25301 0.14850 0.14531
 C989 C 0.28118 0.12752 0.14456
 C990 C 0.27839 0.10179 0.12180
 C991 C 0.24600 0.13422 0.08936
 C992 C 0.24877 0.15974 0.11222
 H993 H 0.20780 0.08118 0.13432
 H994 H 0.21077 0.12841 0.17279
 H995 H 0.30186 0.13012 0.16037
 H996 H 0.29666 0.08319 0.11976
 H997 H 0.24234 0.13873 0.06386
 H998 H 0.24740 0.18481 0.10506
 C999 C 0.75009 0.60637 0.59681
 C1000 C 0.71861 0.61641 0.61392
 C1001 C 0.72269 0.63928 0.63685
 C1002 C 0.75757 0.65085 0.64045
 C1003 C 0.77736 0.62033 0.64682
 C1004 C 0.77338 0.59714 0.62411
 C1005 C 0.76334 0.63833 0.58352
 C1006 C 0.76741 0.66152 0.60633
 H1007 H 0.69471 0.60832 0.60718
 H1008 H 0.70256 0.64948 0.65007
 H1009 H 0.79334 0.61727 0.66728
 H1010 H 0.78592 0.57425 0.62531
 H1011 H 0.76828 0.64275 0.55827
 H1012 H 0.77633 0.68532 0.60045
 C1013 C 0.75088 0.89704 0.10952
 C1014 C 0.76069 0.91129 0.14248
 C1015 C 0.76123 0.88936 0.16693
 C1016 C 0.75156 0.85520 0.15646
 C1017 C 0.71843 0.85931 0.14073
 C1018 C 0.71784 0.88135 0.11659
 C1019 C 0.77415 0.86875 0.10430
 C1020 C 0.77463 0.84711 0.12873
 H1021 H 0.76546 0.93658 0.14672
 H1022 H 0.76715 0.89601 0.19148
 H1023 H 0.69677 0.84743 0.14925
 H1024 H 0.69529 0.88857 0.10547
 H1025 H 0.78945 0.86621 0.08325
 H1026 H 0.79041 0.82626 0.12850
 C1027 C 0.24698 0.39939 0.61100
 C1028 C 0.25359 0.41531 0.64388
 C1029 C 0.25447 0.39422 0.66907
 C1030 C 0.24842 0.35909 0.65915
 C1031 C 0.21607 0.35989 0.64137
 C1032 C 0.21508 0.38105 0.61648
 C1033 C 0.27286 0.37314 0.60799
 C1034 C 0.27372 0.35224 0.63307
 H1035 H 0.25663 0.44100 0.64722
 H1036 H 0.25866 0.40198 0.69364
 H1037 H 0.19499 0.34648 0.64906
 H1038 H 0.19263 0.38600 0.60411
 H1039 H 0.28943 0.37135 0.58785
 H1040 H 0.29110 0.33273 0.63437
 C1041 C 0.75584 0.10085 0.89083
 C1042 C 0.72586 0.09959 0.86899
 C1043 C 0.72371 0.12428 0.84763
 C1044 C 0.75185 0.14808 0.84958
 C1045 C 0.75263 0.15913 0.88483
 C1046 C 0.75480 0.13452 0.90626
 C1047 C 0.78440 0.10256 0.86706
 C1048 C 0.78224 0.12728 0.84569
 H1049 H 0.70795 0.08061 0.87005
 H1050 H 0.70393 0.12649 0.83066
 H1051 H 0.75194 0.18407 0.89243
 H1052 H 0.75608 0.13863 0.93203
 H1053 H 0.80448 0.08599 0.86613
 H1054 H 0.80047 0.13149 0.82741
 C1055 C 0.25539 0.60465 0.39181
 C1056 C 0.22559 0.60316 0.36976
 C1057 C 0.22355 0.62767 0.34820
 C1058 C 0.25161 0.65156 0.35018
 C1059 C 0.25205 0.66290 0.38534
 C1060 C 0.25412 0.63845 0.40700
 C1061 C 0.28418 0.60632 0.36831
 C1062 C 0.28211 0.63085 0.34672
 H1063 H 0.20766 0.58421 0.37091
 H1064 H 0.20383 0.62975 0.33114
 H1065 H 0.25120 0.68791 0.39273
 H1066 H 0.25517 0.64276 0.43274
 H1067 H 0.30462 0.59018 0.36803
 H1068 H 0.30064 0.63519 0.32878
 C1069 C 0.25042 0.89023 0.89218
 C1070 C 0.22053 0.86837 0.89343
 C1071 C 0.21943 0.84582 0.86977
 C1072 C 0.24844 0.84672 0.84687
 C1073 C 0.24938 0.88143 0.83416
 C1074 C 0.25053 0.90401 0.85776
 C1075 C 0.27920 0.86657 0.89256
 C1076 C 0.27803 0.84397 0.86888
 H1077 H 0.20189 0.87034 0.91164
 H1078 H 0.19979 0.82871 0.86770
 H1079 H 0.24949 0.88787 0.80885
 H1080 H 0.25170 0.92952 0.85240
 H1081 H 0.29907 0.86699 0.90940
 H1082 H 0.29658 0.82577 0.86604
 C1083 C 0.74540 0.38214 0.39612
 C1084 C 0.71250 0.36599 0.39017
 C1085 C 0.71276 0.34369 0.36626
 C1086 C 0.74589 0.33903 0.35044
 C1087 C 0.75596 0.37276 0.33922
 C1088 C 0.75571 0.39510 0.36300
 C1089 C 0.76838 0.35355 0.40257
 C1090 C 0.76877 0.33126 0.37856
 H1091 H 0.69088 0.37126 0.40390
 H1092 H 0.69134 0.33031 0.35950
 H1093 H 0.76336 0.37863 0.31487
 H1094 H 0.76278 0.41985 0.35869
 H1095 H 0.78147 0.34945 0.42476
 H1096 H 0.78288 0.30934 0.38025
 C1097 C 0.10977 0.24256 0.10099
 C1098 C 0.09723 0.23873 0.13565
 C1099 C 0.12035 0.24053 0.15865
 C1100 C 0.15451 0.24579 0.14530
 C1101 C 0.15941 0.21818 0.12125
 C1102 C 0.13630 0.21646 0.09798
 C1103 C 0.12887 0.27439 0.10125
 C1104 C 0.15202 0.27608 0.12442
 H1105 H 0.07212 0.23438 0.14162
 H1106 H 0.11465 0.23772 0.18398
 H1107 H 0.17983 0.20183 0.12197
 H1108 H 0.13825 0.19882 0.07898
 H1109 H 0.12485 0.29381 0.08424
 H1110 H 0.16749 0.29691 0.12730
 C1111 C 0.61492 0.74971 0.59788
 C1112 C 0.63569 0.71902 0.59921
 C1113 C 0.65899 0.71951 0.62227
 C1114 C 0.65981 0.75070 0.64196
 C1115 C 0.66309 0.77756 0.61683
 C1116 C 0.63979 0.77707 0.59365
 C1117 C 0.60219 0.75406 0.63233
 C1118 C 0.62542 0.75450 0.65527
 H1119 H 0.63265 0.69879 0.58300
 H1120 H 0.67564 0.69968 0.62583
 H1121 H 0.68263 0.79488 0.61668
 H1122 H 0.64052 0.79380 0.57373
 H1123 H 0.57685 0.75701 0.63816
 H1124 H 0.61962 0.75785 0.68051
 C1125 C 0.09957 0.75544 0.89301
 C1126 C 0.09840 0.72432 0.87282
 C1127 C 0.12240 0.72171 0.85066
 C1128 C 0.14543 0.75050 0.85009
 C1129 C 0.12348 0.77989 0.84529
 C1130 C 0.09944 0.78253 0.86743
 C1131 C 0.13399 0.75630 0.90704
 C1132 C 0.15782 0.75362 0.88479
 H1133 H 0.07992 0.70605 0.87541
 H1134 H 0.12450 0.70120 0.83465
 H1135 H 0.12609 0.79678 0.82552
 H1136 H 0.08173 0.80150 0.86530
 H1137 H 0.13919 0.75920 0.93249
 H1138 H 0.18311 0.75416 0.89144
 C1139 C 0.59758 0.25262 0.39389
 C1140 C 0.59369 0.22281 0.37225
 C1141 C 0.61729 0.21933 0.34979
 C1142 C 0.64270 0.24604 0.35061
 C1143 C 0.62340 0.27745 0.34751
 C1144 C 0.59978 0.28098 0.36998
 C1145 C 0.63187 0.24978 0.40783
 C1146 C 0.65536 0.24623 0.38537
 H1147 H 0.57376 0.20604 0.37423
 H1148 H 0.61763 0.19954 0.33278
 H1149 H 0.62794 0.29545 0.32912
 H1150 H 0.58451 0.30207 0.36994
 H1151 H 0.63725 0.25088 0.43338
 H1152 H 0.68060 0.24415 0.39195
 C1153 C 0.89725 0.75996 0.11195
 C1154 C 0.86277 0.76261 0.09838
 C1155 C 0.83915 0.76114 0.12092
 C1156 C 0.85174 0.75741 0.15553
 C1157 C 0.87336 0.72750 0.15472
 C1158 C 0.89714 0.72884 0.13219
 C1159 C 0.89898 0.78706 0.13748
 C1160 C 0.87512 0.78566 0.15999
 H1161 H 0.85737 0.76590 0.07301
 H1162 H 0.81387 0.76312 0.11450
 H1163 H 0.87050 0.70716 0.17084
 H1164 H 0.91466 0.70964 0.12937
 H1165 H 0.91745 0.80530 0.13915
 H1166 H 0.87346 0.80278 0.17964
 C1167 C 0.39429 0.26249 0.61584
 C1168 C 0.35990 0.26488 0.60213
 C1169 C 0.33624 0.26396 0.62467
 C1170 C 0.34885 0.26092 0.65935
 C1171 C 0.37039 0.23093 0.65914
 C1172 C 0.39413 0.23178 0.63657
 C1173 C 0.39610 0.29012 0.64065
 C1174 C 0.37229 0.28923 0.66322
 H1175 H 0.35461 0.26758 0.57668
 H1176 H 0.31096 0.26581 0.61821
 H1177 H 0.36741 0.21085 0.67556
 H1178 H 0.41151 0.21244 0.63390
 H1179 H 0.41434 0.30865 0.64135
 H1180 H 0.37046 0.30697 0.68230
 C1181 C 0.88931 0.24380 0.90040
 C1182 C 0.90468 0.24361 0.86660
 C1183 C 0.88321 0.24546 0.84196
 C1184 C 0.84792 0.24715 0.85298
 C1185 C 0.84352 0.21753 0.87463
 C1186 C 0.86485 0.21572 0.89948
 C1187 C 0.86776 0.27407 0.90085
 C1188 C 0.84643 0.27588 0.87604
 H1189 H 0.93045 0.24176 0.86240
 H1190 H 0.89082 0.24526 0.81698
 H1191 H 0.82453 0.19989 0.87125
 H1192 H 0.86274 0.19675 0.91715
 H1193 H 0.86885 0.29237 0.91944
 H1194 H 0.82964 0.29575 0.87336
 C1195 C 0.38920 0.75211 0.39912
 C1196 C 0.36583 0.78107 0.40015
 C1197 C 0.34421 0.78160 0.37545
 C1198 C 0.34755 0.75328 0.35199
 C1199 C 0.38282 0.75439 0.34082
 C1200 C 0.40445 0.75388 0.36537
 C1201 C 0.36686 0.72262 0.39788
 C1202 C 0.34531 0.72316 0.37324
 H1203 H 0.36526 0.79938 0.41860
 H1204 H 0.32610 0.80031 0.37304
 H1205 H 0.39032 0.75590 0.31585
 H1206 H 0.43025 0.75504 0.36119
 H1207 H 0.36775 0.70306 0.41515
 H1208 H 0.32800 0.70397 0.36938
 C1209 C 0.11120 0.10523 0.23916
 C1210 C 0.10572 0.13013 0.26598
 C1211 C 0.12949 0.15246 0.26864
 C1212 C 0.15679 0.14822 0.24415
 C1213 C 0.16857 0.11341 0.24898
 C1214 C 0.14478 0.09099 0.24624
 C1215 C 0.11657 0.12539 0.20838
 C1216 C 0.14013 0.14788 0.21121
 H1217 H 0.08480 0.13012 0.28166
 H1218 H 0.12891 0.17138 0.28661
 H1219 H 0.19343 0.10680 0.25375
 H1220 H 0.14960 0.06543 0.24833
 H1221 H 0.10521 0.12096 0.18534
 H1222 H 0.14761 0.16278 0.19108
 C1223 C 0.61430 0.60683 0.73807
 C1224 C 0.61007 0.63202 0.76482
 C1225 C 0.63417 0.65406 0.76644
 C1226 C 0.66057 0.64928 0.74107
 C1227 C 0.67208 0.61436 0.74581
 C1228 C 0.64793 0.59223 0.74411
 C1229 C 0.61886 0.62665 0.70692
 C1230 C 0.64277 0.64888 0.70872
 H1231 H 0.58973 0.63238 0.78124
 H1232 H 0.63446 0.67311 0.78428
 H1233 H 0.69701 0.60748 0.74974
 H1234 H 0.65249 0.56662 0.74625
 H1235 H 0.60666 0.62214 0.68433
 H1236 H 0.64974 0.66352 0.68822
 C1237 C 0.89831 0.10880 0.75794
 C1238 C 0.89927 0.12994 0.72742
 C1239 C 0.87467 0.15146 0.72513
 C1240 C 0.85126 0.15052 0.75365
 C1241 C 0.83986 0.11545 0.75558
 C1242 C 0.86431 0.09381 0.75794
 C1243 C 0.89727 0.13346 0.78583
 C1244 C 0.87264 0.15499 0.78350
 H1245 H 0.91805 0.12840 0.70929
 H1246 H 0.87235 0.16799 0.70504
 H1247 H 0.81476 0.10811 0.75563
 H1248 H 0.85983 0.06818 0.76009
 H1249 H 0.91435 0.13521 0.80541
 H1250 H 0.86900 0.17393 0.80112
 C1251 C 0.39742 0.61018 0.25641
 C1252 C 0.39737 0.63462 0.28441
 C1253 C 0.37302 0.65656 0.28271
 C1254 C 0.35095 0.65249 0.25329
 C1255 C 0.37375 0.65321 0.22426
 C1256 C 0.39805 0.63129 0.22595
 C1257 C 0.36333 0.59559 0.25705
 C1258 C 0.33913 0.61754 0.25533
 H1259 H 0.41482 0.63560 0.30372
 H1260 H 0.36993 0.67536 0.30057
 H1261 H 0.37119 0.66977 0.20423
 H1262 H 0.41635 0.62934 0.20739
 H1263 H 0.35864 0.57001 0.25914
 H1264 H 0.31396 0.61049 0.25590
 C1265 C 0.10362 0.89366 0.74817
 C1266 C 0.13062 0.89684 0.77331
 C1267 C 0.15194 0.87206 0.77344
 C1268 C 0.14481 0.84604 0.74825
 C1269 C 0.10987 0.83565 0.75512
 C1270 C 0.08833 0.86046 0.75488
 C1271 C 0.12127 0.88848 0.71576
 C1272 C 0.14294 0.86393 0.71608
 H1273 H 0.13266 0.91691 0.78988
 H1274 H 0.17203 0.87099 0.79018
 H1275 H 0.10247 0.81095 0.75905
 H1276 H 0.06268 0.85651 0.75807
 H1277 H 0.11545 0.90080 0.69351
 H1278 H 0.15591 0.85649 0.69465
 C1279 C 0.60373 0.39110 0.24616
 C1280 C 0.62588 0.38799 0.21638
 C1281 C 0.64685 0.36295 0.21794
 C1282 C 0.64388 0.34275 0.24862
 C1283 C 0.64770 0.36669 0.27643
 C1284 C 0.62689 0.39190 0.27508
 C1285 C 0.58722 0.35799 0.24833
 C1286 C 0.60816 0.33271 0.24972
 H1287 H 0.62386 0.40186 0.19445
 H1288 H 0.66272 0.35683 0.19809
 H1289 H 0.66495 0.36378 0.29588
 H1290 H 0.62660 0.41056 0.29333
 H1291 H 0.56127 0.35468 0.24830
 H1292 H 0.59990 0.30800 0.25112
 C1293 C 0.89417 0.89977 0.25738
 C1294 C 0.90836 0.86558 0.25969
 C1295 C 0.88601 0.84177 0.26015
 C1296 C 0.85107 0.85398 0.25856
 C1297 C 0.84814 0.87775 0.28664
 C1298 C 0.87046 0.90178 0.28613
 C1299 C 0.87189 0.89893 0.22767
 C1300 C 0.84967 0.87498 0.22822
 H1301 H 0.93400 0.86051 0.26125
 H1302 H 0.89280 0.81664 0.26200
 H1303 H 0.82965 0.87619 0.30504
 H1304 H 0.86984 0.92050 0.30415
 H1305 H 0.87319 0.91607 0.20800
 H1306 H 0.83228 0.87159 0.20898
 C1307 C 0.39334 0.40362 0.76042
 C1308 C 0.40703 0.36935 0.76338
 C1309 C 0.38434 0.34588 0.76390
 C1310 C 0.34960 0.35857 0.76161
 C1311 C 0.34662 0.38283 0.78930
 C1312 C 0.36935 0.40648 0.78874
 C1313 C 0.37162 0.40270 0.73038
 C1314 C 0.34897 0.37912 0.73094
 H1315 H 0.43259 0.36403 0.76532
 H1316 H 0.39075 0.32069 0.76623
 H1317 H 0.32785 0.38184 0.80746
 H1318 H 0.36904 0.42556 0.80641
 H1319 H 0.37365 0.41948 0.71047
 H1320 H 0.33190 0.37565 0.71143
 C1321 C 0.10596 0.25381 0.90424
 C1322 C 0.09257 0.26395 0.87118
 C1323 C 0.11506 0.26570 0.84751
 C1324 C 0.14931 0.25722 0.85876
 C1325 C 0.15575 0.27992 0.88719
 C1326 C 0.13340 0.27803 0.91111
 C1327 C 0.12406 0.22198 0.89786
 C1328 C 0.14634 0.22377 0.87395
 H1329 H 0.06740 0.26970 0.86683
 H1330 H 0.10894 0.27296 0.82318
 H1331 H 0.17697 0.29504 0.88911
 H1332 H 0.13689 0.29092 0.93347
 H1333 H 0.11993 0.19992 0.91118
 H1334 H 0.16047 0.20315 0.86641
 C1335 C 0.60752 0.74282 0.39879
 C1336 C 0.62866 0.77314 0.40109
 C1337 C 0.65124 0.77562 0.37752
 C1338 C 0.65109 0.74750 0.35369
 C1339 C 0.65462 0.71730 0.37470
 C1340 C 0.63198 0.71476 0.39832
 C1341 C 0.59373 0.74344 0.36439
 C1342 C 0.61633 0.74599 0.34091
 H1343 H 0.62624 0.79103 0.41995
 H1344 H 0.66792 0.79566 0.37616
 H1345 H 0.67329 0.69932 0.37119
 H1346 H 0.63212 0.69449 0.41463
 H1347 H 0.56821 0.74151 0.35895
 H1348 H 0.60987 0.74631 0.31560
 C1349 C 0.90005 0.76052 0.88881
 C1350 C 0.88010 0.79118 0.88160
 C1351 C 0.85861 0.78772 0.85715
 C1352 C 0.85912 0.75441 0.84137
 C1353 C 0.89449 0.74943 0.83133
 C1354 C 0.91588 0.75278 0.85605
 C1355 C 0.87488 0.73384 0.89369
 C1356 C 0.85371 0.73058 0.86900
 H1357 H 0.88430 0.81462 0.89214
 H1358 H 0.84420 0.80767 0.84829
 H1359 H 0.90220 0.74446 0.80688
 H1360 H 0.94172 0.75100 0.85236
 H1361 H 0.87386 0.71861 0.91490
 H1362 H 0.83482 0.71255 0.86911
 C1363 C 0.39568 0.26175 0.39148
 C1364 C 0.41150 0.25516 0.35856
 C1365 C 0.39009 0.25197 0.33382
 C1366 C 0.35465 0.25582 0.34413
 C1367 C 0.35002 0.23115 0.37118
 C1368 C 0.37127 0.23432 0.39583
 C1369 C 0.37484 0.29199 0.38532
 C1370 C 0.35338 0.28866 0.36082
 H1371 H 0.43737 0.25368 0.35491
 H1372 H 0.39780 0.24754 0.30927
 H1373 H 0.33159 0.21264 0.37093
 H1374 H 0.37084 0.21856 0.41666
 H1375 H 0.37808 0.31507 0.39686
 H1376 H 0.33821 0.30839 0.35274
 C1377 C 0.10237 0.75101 0.10959
 C1378 C 0.10159 0.72226 0.13315
 C1379 C 0.12619 0.72222 0.15483
 C1380 C 0.14937 0.75075 0.15142
 C1381 C 0.16078 0.74946 0.11628
 C1382 C 0.13629 0.74949 0.09455
 C1383 C 0.10318 0.78074 0.13164
 C1384 C 0.12775 0.78066 0.15332
 H1385 H 0.08349 0.70359 0.13371
 H1386 H 0.12877 0.70362 0.17300
 H1387 H 0.18586 0.74833 0.10895
 H1388 H 0.14063 0.74825 0.06882
 H1389 H 0.08569 0.80013 0.13043
 H1390 H 0.13135 0.80007 0.17041
 C1391 C 0.60195 0.25034 0.61118
 C1392 C 0.60134 0.22152 0.63467
 C1393 C 0.62610 0.22143 0.65618
 C1394 C 0.64927 0.24996 0.65269
 C1395 C 0.66043 0.24874 0.61746
 C1396 C 0.63577 0.24880 0.59590
 C1397 C 0.60296 0.28002 0.63328
 C1398 C 0.62768 0.27988 0.65479
 H1399 H 0.58343 0.20268 0.63510
 H1400 H 0.62890 0.20269 0.67416
 H1401 H 0.68546 0.24758 0.60997
 H1402 H 0.63994 0.24755 0.57014
 H1403 H 0.58552 0.29946 0.63219
 H1404 H 0.63144 0.29926 0.67188
 C1405 C 0.88558 0.23351 0.10609
 C1406 C 0.85225 0.24170 0.09183
 C1407 C 0.82818 0.24347 0.11411
 C1408 C 0.83947 0.23664 0.14877
 C1409 C 0.85575 0.20359 0.14684
 C1410 C 0.87963 0.20175 0.12449
 C1411 C 0.89100 0.25882 0.13245
 C1412 C 0.86699 0.26053 0.15460
 H1413 H 0.84778 0.24513 0.06633
 H1414 H 0.80344 0.24874 0.10746
 H1415 H 0.84759 0.18272 0.16025
 H1416 H 0.89079 0.17890 0.11879
 H1417 H 0.91204 0.27428 0.13351
 H1418 H 0.86750 0.27750 0.17442
 C1419 C 0.38828 0.74626 0.60536
 C1420 C 0.35495 0.73823 0.59099
 C1421 C 0.33082 0.73650 0.61323
 C1422 C 0.34206 0.74323 0.64792
 C1423 C 0.36948 0.71913 0.65374
 C1424 C 0.39358 0.72079 0.63165
 C1425 C 0.38228 0.77796 0.62375
 C1426 C 0.35846 0.77616 0.64608
 H1427 H 0.35048 0.73494 0.56548
 H1428 H 0.30608 0.73126 0.60658
 H1429 H 0.36966 0.70181 0.67327
 H1430 H 0.41440 0.70499 0.63249
 H1431 H 0.39356 0.80075 0.61809
 H1432 H 0.35057 0.79697 0.65975
 C1433 C 0.24582 0.11428 0.90150
 C1434 C 0.22411 0.14326 0.91004
 C1435 C 0.22399 0.16690 0.88727
 C1436 C 0.24568 0.15975 0.85813
 C1437 C 0.27900 0.15315 0.87270
 C1438 C 0.27910 0.12962 0.89546
 C1439 C 0.23412 0.10342 0.86818
 C1440 C 0.23397 0.12699 0.84562
 H1441 H 0.21176 0.14641 0.93278
 H1442 H 0.21126 0.18942 0.89071
 H1443 H 0.30056 0.16644 0.86626
 H1444 H 0.30077 0.12319 0.90863
 H1445 H 0.22597 0.07918 0.86294
 H1446 H 0.22550 0.12271 0.82128
 C1447 C 0.75005 0.60649 0.39498
 C1448 C 0.74110 0.63940 0.40957
 C1449 C 0.74023 0.66388 0.38773
 C1450 C 0.74866 0.65342 0.35316
 C1451 C 0.78166 0.63715 0.35619
 C1452 C 0.78260 0.61296 0.37815
 C1453 C 0.72579 0.60163 0.36743
 C1454 C 0.72497 0.62609 0.34571
 H1455 H 0.73656 0.64336 0.43497
 H1456 H 0.73446 0.68838 0.39461
 H1457 H 0.80305 0.64530 0.34356
 H1458 H 0.80523 0.60159 0.38457
 H1459 H 0.71027 0.58074 0.36539
 H1460 H 0.70869 0.62610 0.32524
 C1461 C 0.74396 0.09587 0.10696
 C1462 C 0.71547 0.09302 0.13074
 C1463 C 0.71430 0.11709 0.15293
 C1464 C 0.74162 0.14176 0.14975
 C1465 C 0.77273 0.12180 0.15095
 C1466 C 0.77388 0.09776 0.12883
 C1467 C 0.74051 0.12985 0.09262
 C1468 C 0.73938 0.15377 0.11484
 H1469 H 0.69809 0.07367 0.13133
 H1470 H 0.69590 0.11814 0.17146
 H1471 H 0.79227 0.12629 0.16772
 H1472 H 0.79427 0.08149 0.12707
 H1473 H 0.73877 0.13463 0.06700
 H1474 H 0.73677 0.17882 0.10800
 C1475 C 0.24735 0.59800 0.60876
 C1476 C 0.22259 0.59221 0.63589
 C1477 C 0.22118 0.61641 0.65793
 C1478 C 0.24477 0.64410 0.65134
 C1479 C 0.27793 0.62797 0.64880
 C1480 C 0.27925 0.60374 0.62689
 C1481 C 0.23826 0.63105 0.59480
 C1482 C 0.23691 0.65506 0.61688
 H1483 H 0.20859 0.57048 0.63899
 H1484 H 0.20551 0.61537 0.67882
 H1485 H 0.29880 0.63542 0.66262
 H1486 H 0.30111 0.58999 0.62277
 H1487 H 0.23298 0.63512 0.56953
 H1488 H 0.23044 0.67948 0.61030
 C1489 C 0.75791 0.89317 0.88504
 C1490 C 0.73043 0.89494 0.85995
 C1491 C 0.73140 0.87107 0.83759
 C1492 C 0.75968 0.84761 0.84177
 C1493 C 0.78982 0.86899 0.84208
 C1494 C 0.78887 0.89281 0.86455
 C1495 C 0.75550 0.85894 0.89891
 C1496 C 0.75652 0.83521 0.87648
 H1497 H 0.71229 0.91357 0.85849
 H1498 H 0.71396 0.86948 0.81817
 H1499 H 0.81009 0.86579 0.82586
 H1500 H 0.80828 0.91006 0.86730
 H1501 H 0.75296 0.85381 0.92440
 H1502 H 0.75496 0.81001 0.88304
 C1503 C 0.25390 0.39555 0.38581
 C1504 C 0.22605 0.39696 0.36111
 C1505 C 0.22672 0.37279 0.33902
 C1506 C 0.25507 0.34939 0.34310
 C1507 C 0.28520 0.37078 0.34272
 C1508 C 0.28456 0.39490 0.36489
 C1509 C 0.25167 0.36149 0.40015
 C1510 C 0.25239 0.33747 0.37802
 H1511 H 0.20768 0.41538 0.35990
 H1512 H 0.20890 0.37083 0.31998
 H1513 H 0.30524 0.36738 0.32626
 H1514 H 0.30401 0.41218 0.36714
 H1515 H 0.24939 0.35668 0.42572
 H1516 H 0.25085 0.31236 0.38495
 C1517 C 0.24327 0.88858 0.10042
 C1518 C 0.24243 0.90375 0.13421
 C1519 C 0.24376 0.88221 0.15875
 C1520 C 0.24564 0.84705 0.14756
 C1521 C 0.21633 0.84283 0.12532
 C1522 C 0.21502 0.86439 0.10062
 C1523 C 0.27360 0.86720 0.10040
 C1524 C 0.27490 0.84572 0.12504
 H1525 H 0.24047 0.92943 0.13845
 H1526 H 0.24297 0.88970 0.18375
 H1527 H 0.19826 0.82423 0.12858
 H1528 H 0.19580 0.86337 0.08306
 H1529 H 0.29235 0.86863 0.08225
 H1530 H 0.29482 0.82903 0.12802
 C1531 C 0.74227 0.38825 0.60278
 C1532 C 0.71396 0.36414 0.60346
 C1533 C 0.71568 0.34248 0.62803
 C1534 C 0.74541 0.34651 0.64973
 C1535 C 0.77424 0.34521 0.62666
 C1536 C 0.77255 0.36681 0.60215
 C1537 C 0.74211 0.40329 0.63665
 C1538 C 0.74384 0.38163 0.66110
 H1539 H 0.69428 0.36334 0.58640
 H1540 H 0.69754 0.32402 0.63163
 H1541 H 0.79419 0.32850 0.62923
 H1542 H 0.79101 0.36832 0.58371
 H1543 H 0.74028 0.42896 0.64103
 H1544 H 0.74352 0.38898 0.68615
 C1545 C 0.10304 0.11795 0.75818
 C1546 C 0.10410 0.13814 0.78925
 C1547 C 0.12794 0.16064 0.78979
 C1548 C 0.14863 0.16127 0.75917
 C1549 C 0.16103 0.12662 0.75534
 C1550 C 0.13730 0.10420 0.75473
 C1551 C 0.10046 0.14327 0.73105
 C1552 C 0.12437 0.16568 0.73160
 H1553 H 0.08726 0.13522 0.80901
 H1554 H 0.13154 0.17673 0.81004
 H1555 H 0.18625 0.12009 0.75297
 H1556 H 0.14245 0.07878 0.75174
 H1557 H 0.08117 0.14493 0.71362
 H1558 H 0.12539 0.18535 0.71445
 C1559 C 0.60497 0.61298 0.25239
 C1560 C 0.60516 0.63436 0.28265
 C1561 C 0.62936 0.65642 0.28332
 C1562 C 0.65131 0.65551 0.25361
 C1563 C 0.66327 0.62057 0.25166
 C1564 C 0.63914 0.59852 0.25091
 C1565 C 0.60409 0.63717 0.22414
 C1566 C 0.62834 0.65919 0.22486
 H1567 H 0.58751 0.63247 0.30182
 H1568 H 0.63245 0.67317 0.30311
 H1569 H 0.68846 0.61359 0.25056
 H1570 H 0.64393 0.57292 0.24907
 H1571 H 0.58619 0.63786 0.20523
 H1572 H 0.63081 0.67776 0.20667
 C1573 C 0.10964 0.89841 0.24163
 C1574 C 0.09460 0.86451 0.24161
 C1575 C 0.11633 0.84009 0.24309
 C1576 C 0.15152 0.85144 0.24425
 C1577 C 0.15530 0.87311 0.21455
 C1578 C 0.13364 0.89774 0.21309
 C1579 C 0.13164 0.89904 0.27155
 C1580 C 0.15320 0.87447 0.27300
 H1581 H 0.06885 0.86007 0.24006
 H1582 H 0.10897 0.81507 0.24287
 H1583 H 0.17396 0.86979 0.19652
 H1584 H 0.13503 0.91525 0.19391
 H1585 H 0.13069 0.91762 0.28988
 H1586 H 0.17033 0.87198 0.29261
 C1587 C 0.61103 0.39776 0.74451
 C1588 C 0.63318 0.39807 0.77424
 C1589 C 0.65452 0.37327 0.77544
 C1590 C 0.65235 0.35030 0.74666
 C1591 C 0.61699 0.33939 0.74582
 C1592 C 0.59554 0.36411 0.74463
 C1593 C 0.63462 0.39685 0.71574
 C1594 C 0.65605 0.37200 0.71694
 H1595 H 0.63235 0.41650 0.79270
 H1596 H 0.67166 0.37047 0.79499
 H1597 H 0.60934 0.31445 0.74566
 H1598 H 0.56971 0.36009 0.74338
 H1599 H 0.63534 0.41406 0.69624
 H1600 H 0.67420 0.36827 0.69849
 C1601 C 0.88560 0.09714 0.24677
 C1602 C 0.87488 0.10859 0.28041
 C1603 C 0.85108 0.13109 0.27994
 C1604 C 0.83950 0.13992 0.24604
 C1605 C 0.87005 0.15021 0.22784
 C1606 C 0.89400 0.12800 0.22834
 C1607 C 0.85400 0.08518 0.23118
 C1608 C 0.82997 0.10762 0.23071
 H1609 H 0.88413 0.09883 0.30281
 H1610 H 0.84053 0.14075 0.30180
 H1611 H 0.87262 0.17299 0.21535
 H1612 H 0.91687 0.13187 0.21627
 H1613 H 0.84999 0.06081 0.22288
 H1614 H 0.80607 0.10236 0.22150
 C1615 C 0.38876 0.60164 0.74720
 C1616 C 0.40016 0.63489 0.73594
 C1617 C 0.37687 0.65779 0.73596
 C1618 C 0.34371 0.64566 0.74721
 C1619 C 0.33635 0.61685 0.72528
 C1620 C 0.35972 0.59377 0.72529
 C1621 C 0.37327 0.60763 0.78041
 C1622 C 0.34990 0.63069 0.78039
 H1623 H 0.42468 0.63997 0.72835
 H1624 H 0.38179 0.68229 0.72850
 H1625 H 0.31366 0.61366 0.71275
 H1626 H 0.35609 0.57115 0.71294
 H1627 H 0.37964 0.59434 0.80198
 H1628 H 0.33662 0.63721 0.80192
 C1629 C 0.90512 0.89164 0.74711
 C1630 C 0.90428 0.86900 0.77645
 C1631 C 0.88042 0.84660 0.77534
 C1632 C 0.85954 0.84846 0.74489
 C1633 C 0.84709 0.88327 0.74392
 C1634 C 0.87083 0.90566 0.74498
 C1635 C 0.90750 0.86864 0.71801
 C1636 C 0.88359 0.84626 0.71690
 H1637 H 0.92130 0.87024 0.79625
 H1638 H 0.87698 0.82891 0.79425
 H1639 H 0.82185 0.88994 0.74224
 H1640 H 0.86569 0.93124 0.74410
 H1641 H 0.92658 0.86854 0.70029
 H1642 H 0.88237 0.82810 0.69819
 C1643 C 0.40052 0.39169 0.24616
 C1644 C 0.40001 0.36939 0.27576
 C1645 C 0.37595 0.34718 0.27536
 C1646 C 0.35452 0.34883 0.24528
 C1647 C 0.34232 0.38371 0.24413
 C1648 C 0.36628 0.40595 0.24449
 C1649 C 0.40214 0.36835 0.21727
 C1650 C 0.37804 0.34615 0.21688
 H1651 H 0.41736 0.37076 0.29527
 H1652 H 0.37267 0.32982 0.29459
 H1653 H 0.31709 0.39052 0.24283
 H1654 H 0.36133 0.43156 0.24339
 H1655 H 0.42075 0.36802 0.19906
 H1656 H 0.37624 0.32788 0.19831
   
