data_POSCAR
  _audit_creation_date              2014-09-24
  _audit_creation_method            'ToBaCCo'
  _symmetry_space_group_name_H-M    'P1'
  _symmetry_Int_Tables_number       1
  _symmetry_cell_setting            triclinic
  loop_
  _symmetry_equiv_pos_as_xyz
 x,y,z
_cell_length_a 71.2705
_cell_length_b 73.0077
_cell_length_c 73.0137
_cell_angle_alpha 89.987200
_cell_angle_beta 89.942000
_cell_angle_gamma 90.003800
loop_
  _atom_site_label
  _atom_site_type_symbol
  _atom_site_fract_x
  _atom_site_fract_y
  _atom_site_fract_z
C1 C 0.35982 0.33629 0.33603
 C2 C 0.35190 0.35203 0.32813
 C3 C 0.33604 0.36040 0.33590
 C4 C 0.32819 0.35293 0.35189
 C5 C 0.33591 0.33720 0.36003
 C6 C 0.35177 0.32901 0.35203
 H7 H 0.35827 0.35794 0.31601
 H8 H 0.31589 0.35924 0.35791
 H9 H 0.35742 0.31654 0.35787
 C10 C 0.35824 0.83639 -0.16336
 C11 C 0.34988 0.82903 -0.14746
 C12 C 0.33401 0.83711 -0.13951
 C13 C 0.32635 0.85292 -0.14741
 C14 C 0.33416 0.86079 -0.16332
 C15 C 0.35018 0.85234 -0.17103
 H16 H 0.35580 0.81711 -0.14086
 H17 H 0.31471 0.85943 -0.14048
 H18 H 0.35535 0.85721 -0.18405
 C19 C 0.85918 0.33773 -0.16478
 C20 C 0.85113 0.35365 -0.17219
 C21 C 0.83501 0.36175 -0.16430
 C22 C 0.82737 0.35343 -0.14848
 C23 C 0.83527 0.33752 -0.14090
 C24 C 0.85119 0.32981 -0.14912
 H25 H 0.85719 0.35918 -0.18459
 H26 H 0.81568 0.35967 -0.14137
 H27 H 0.85699 0.31721 -0.14370
 C28 C 0.85791 0.83648 0.33569
 C29 C 0.84984 0.82861 0.35134
 C30 C 0.83395 0.83641 0.35952
 C31 C 0.82616 0.85238 0.35194
 C32 C 0.83391 0.86065 0.33614
 C33 C 0.84998 0.85246 0.32828
 H34 H 0.85556 0.81597 0.35676
 H35 H 0.81450 0.85868 0.35901
 H36 H 0.85610 0.85796 0.31590
 C37 C 0.64118 0.66170 0.33565
 C38 C 0.64912 0.66943 0.35147
 C39 C 0.66504 0.66161 0.35966
 C40 C 0.67294 0.64577 0.35191
 C41 C 0.66523 0.63784 0.33609
 C42 C 0.64930 0.64587 0.32810
 H43 H 0.64332 0.68198 0.35700
 H44 H 0.68499 0.63944 0.35836
 H45 H 0.64334 0.63991 0.31584
 C46 C 0.64205 0.16367 -0.16460
 C47 C 0.64982 0.14778 -0.17237
 C48 C 0.66583 0.13928 -0.16473
 C49 C 0.67370 0.14718 -0.14882
 C50 C 0.66611 0.16307 -0.14091
 C51 C 0.65026 0.17117 -0.14886
 H52 H 0.64393 0.14287 -0.18510
 H53 H 0.68531 0.14064 -0.14190
 H54 H 0.64441 0.18349 -0.14288
 C55 C 0.14095 0.66478 -0.16326
 C56 C 0.14884 0.64887 -0.17087
 C57 C 0.16487 0.64052 -0.16311
 C58 C 0.17265 0.64860 -0.14725
 C59 C 0.16494 0.66452 -0.13950
 C60 C 0.14907 0.67247 -0.14756
 H61 H 0.14303 0.64383 -0.18358
 H62 H 0.18428 0.64218 -0.14026
 H63 H 0.14312 0.68480 -0.14171
 C64 C 0.14251 0.16439 0.33696
 C65 C 0.15044 0.14845 0.32946
 C66 C 0.16634 0.14032 0.33740
 C67 C 0.17422 0.14827 0.35313
 C68 C 0.16650 0.16421 0.36085
 C69 C 0.15060 0.17213 0.35270
 H70 H 0.14435 0.14247 0.31726
 H71 H 0.18626 0.14187 0.35954
 H72 H 0.14493 0.18474 0.35821
 C73 C 0.64209 0.33662 0.66333
 C74 C 0.64995 0.35249 0.67104
 C75 C 0.66587 0.36074 0.66321
 C76 C 0.67383 0.35298 0.64740
 C77 C 0.66618 0.33712 0.63950
 C78 C 0.65026 0.32908 0.64752
 H79 H 0.64409 0.35803 0.68356
 H80 H 0.68588 0.35946 0.64108
 H81 H 0.64435 0.31678 0.64158
 C82 C 0.64028 0.83641 1.16463
 C83 C 0.64840 0.82885 1.14870
 C84 C 0.66423 0.83677 1.14049
 C85 C 0.67208 0.85260 1.14815
 C86 C 0.66447 0.86071 1.16404
 C87 C 0.64848 0.85244 1.17200
 H88 H 0.64327 0.81605 1.14318
 H89 H 0.68370 0.85898 1.14106
 H90 H 0.64244 0.85843 1.18414
 C91 C 0.14154 0.33561 1.16428
 C92 C 0.14969 0.32801 1.14833
 C93 C 0.16558 0.33589 1.14010
 C94 C 0.17341 0.35174 1.14776
 C95 C 0.16567 0.35967 1.16353
 C96 C 0.14980 0.35162 1.17162
 H97 H 0.14455 0.31521 1.14282
 H98 H 0.18544 0.35810 1.14128
 H99 H 0.14381 0.35821 1.18352
 C100 C 0.14046 0.83686 0.66391
 C101 C 0.14858 0.82940 0.64788
 C102 C 0.16452 0.83730 0.63975
 C103 C 0.17245 0.85300 0.64762
 C104 C 0.16475 0.86077 0.66348
 C105 C 0.14882 0.85271 0.67146
 H106 H 0.14338 0.81669 0.64221
 H107 H 0.18452 0.85937 0.64121
 H108 H 0.14287 0.85918 0.68344
 C109 C 0.35743 0.66479 0.66381
 C110 C 0.34941 0.64898 0.67153
 C111 C 0.33352 0.64079 0.66363
 C112 C 0.32573 0.64853 0.64775
 C113 C 0.33352 0.66434 0.63984
 C114 C 0.34941 0.67233 0.64793
 H115 H 0.35513 0.64344 0.68410
 H116 H 0.31371 0.64208 0.64137
 H117 H 0.35544 0.68458 0.64198
 C118 C 0.35968 0.16389 1.16445
 C119 C 0.35158 0.17156 1.14854
 C120 C 0.33562 0.16384 1.14034
 C121 C 0.32767 0.14803 1.14797
 C122 C 0.33538 0.13999 1.16370
 C123 C 0.35132 0.14792 1.17178
 H124 H 0.35806 0.18317 1.14185
 H125 H 0.31530 0.14206 1.14176
 H126 H 0.35634 0.14213 1.18449
 C127 C 0.85814 0.66368 1.16408
 C128 C 0.84991 0.67133 1.14820
 C129 C 0.83401 0.66343 1.14003
 C130 C 0.82625 0.64753 1.14769
 C131 C 0.83407 0.63957 1.16338
 C132 C 0.84995 0.64763 1.17141
 H133 H 0.85499 0.68416 1.14270
 H134 H 0.81422 0.64116 1.14124
 H135 H 0.85599 0.64102 1.18326
 C136 C 0.85989 0.16360 0.66487
 C137 C 0.85189 0.14754 0.67237
 C138 C 0.83581 0.13920 0.66465
 C139 C 0.82796 0.14725 0.64884
 C140 C 0.83563 0.16315 0.64109
 C141 C 0.85152 0.17111 0.64908
 H142 H 0.85812 0.14157 0.68441
 H143 H 0.81509 0.14196 0.64306
 H144 H 0.85775 0.18280 0.64231
 C145 C 0.33480 0.36111 0.66484
 C146 C 0.35072 0.35291 0.67266
 C147 C 0.35877 0.33717 0.66488
 C148 C 0.35081 0.32973 0.64894
 C149 C 0.33491 0.33775 0.64087
 C150 C 0.32704 0.35347 0.64889
 H151 H 0.35702 0.35896 0.68473
 H152 H 0.35658 0.31726 0.64320
 H153 H 0.31472 0.35966 0.64283
 C154 C 0.33452 0.85981 0.16441
 C155 C 0.35046 0.85185 0.17243
 C156 C 0.35864 0.83602 0.16495
 C157 C 0.35076 0.82825 0.14913
 C158 C 0.33482 0.83601 0.14089
 C159 C 0.32684 0.85183 0.14859
 H160 H 0.35670 0.85814 0.18440
 H161 H 0.35692 0.81598 0.14334
 H162 H 0.31420 0.85755 0.14267
 C163 C 0.83588 0.35904 0.16257
 C164 C 0.82812 0.35134 0.14666
 C165 C 0.83588 0.33553 0.13875
 C166 C 0.85174 0.32750 0.14686
 C167 C 0.85974 0.33500 0.16276
 C168 C 0.85174 0.35081 0.17048
 H169 H 0.81613 0.35783 0.14026
 H170 H 0.85775 0.31524 0.14090
 H171 H 0.85744 0.35632 0.18308
 C172 C 0.83427 0.85937 0.66255
 C173 C 0.85018 0.85111 0.67033
 C174 C 0.85809 0.83530 0.66254
 C175 C 0.84996 0.82783 0.64669
 C176 C 0.83404 0.83588 0.63871
 C177 C 0.82635 0.85169 0.64670
 H178 H 0.85600 0.85660 0.68288
 H179 H 0.85590 0.81557 0.64068
 H180 H 0.81432 0.85819 0.64040
 C181 C 0.66403 0.64023 0.66340
 C182 C 0.64811 0.64846 0.67123
 C183 C 0.64012 0.66423 0.66342
 C184 C 0.64819 0.67168 0.64751
 C185 C 0.66411 0.66365 0.63949
 C186 C 0.67187 0.64789 0.64749
 H187 H 0.64235 0.64300 0.68383
 H188 H 0.64219 0.68391 0.64149
 H189 H 0.68390 0.64140 0.64116
 C190 C 0.66582 0.13973 0.16221
 C191 C 0.64990 0.14791 0.17008
 C192 C 0.64194 0.16375 0.16240
 C193 C 0.65006 0.17135 0.14658
 C194 C 0.66599 0.16337 0.13851
 C195 C 0.67371 0.14752 0.14639
 H196 H 0.64411 0.14233 0.18262
 H197 H 0.64409 0.18364 0.14066
 H198 H 0.68575 0.14107 0.14002
 C199 C 0.16460 0.63945 0.16356
 C200 C 0.14866 0.64768 0.17137
 C201 C 0.14072 0.66348 0.16358
 C202 C 0.14884 0.67096 0.14771
 C203 C 0.16477 0.66294 0.13971
 C204 C 0.17249 0.64715 0.14769
 H205 H 0.14285 0.64219 0.18394
 H206 H 0.14287 0.68320 0.14170
 H207 H 0.18455 0.64068 0.14138
 C208 C 0.16596 0.14035 0.66342
 C209 C 0.17389 0.14810 0.64759
 C210 C 0.16623 0.16397 0.63970
 C211 C 0.15033 0.17201 0.64776
 C212 C 0.14218 0.16446 0.66358
 C213 C 0.15006 0.14859 0.67127
 H214 H 0.18592 0.14162 0.64125
 H215 H 0.14441 0.18431 0.64182
 H216 H 0.14423 0.14305 0.68381
 C217 C 0.33406 0.63943 0.33715
 C218 C 0.35003 0.64734 0.32912
 C219 C 0.35817 0.66322 0.33654
 C220 C 0.35019 0.67111 0.35227
 C221 C 0.33421 0.66339 0.36051
 C222 C 0.32630 0.64751 0.35288
 H223 H 0.35603 0.64125 0.31692
 H224 H 0.35601 0.68368 0.35771
 H225 H 0.31421 0.64127 0.35937
 C226 C 0.33533 0.14002 0.83602
 C227 C 0.35122 0.14825 0.82815
 C228 C 0.35921 0.16404 0.83586
 C229 C 0.35122 0.17151 0.85179
 C230 C 0.33535 0.16346 0.85991
 C231 C 0.32754 0.14768 0.85195
 H232 H 0.35755 0.14218 0.81609
 H233 H 0.35694 0.18401 0.85749
 H234 H 0.31522 0.14147 0.85805
 C235 C 0.83405 0.64075 0.83697
 C236 C 0.84996 0.64876 0.82886
 C237 C 0.85810 0.66461 0.83632
 C238 C 0.85023 0.67237 0.85216
 C239 C 0.83432 0.66460 0.86045
 C240 C 0.82637 0.64875 0.85280
 H241 H 0.85558 0.64304 0.81632
 H242 H 0.85667 0.68436 0.85821
 H243 H 0.81404 0.64273 0.85905
 C244 C 0.83518 0.13905 0.33667
 C245 C 0.82748 0.14680 0.35260
 C246 C 0.83538 0.16255 0.36049
 C247 C 0.85130 0.17047 0.35235
 C248 C 0.85923 0.16291 0.33642
 C249 C 0.85110 0.14716 0.32873
 H250 H 0.81544 0.14040 0.35901
 H251 H 0.85710 0.18296 0.35801
 H252 H 0.85705 0.14132 0.31638
 C253 C 0.66657 0.35868 0.33666
 C254 C 0.65065 0.35042 0.32890
 C255 C 0.64270 0.33465 0.33675
 C256 C 0.65081 0.32722 0.35263
 C257 C 0.66674 0.33528 0.36059
 C258 C 0.67446 0.35105 0.35255
 H259 H 0.64484 0.35588 0.31633
 H260 H 0.64484 0.31499 0.35869
 H261 H 0.68650 0.35755 0.35883
 C262 C 0.66489 0.86016 0.83652
 C263 C 0.67258 0.85228 0.85239
 C264 C 0.66465 0.83647 0.86019
 C265 C 0.64874 0.82862 0.85199
 C266 C 0.64084 0.83630 0.83613
 C267 C 0.64898 0.85210 0.82853
 H268 H 0.68462 0.85863 0.85883
 H269 H 0.64291 0.81611 0.85757
 H270 H 0.64304 0.85803 0.81624
 C271 C 0.16553 0.36051 0.83753
 C272 C 0.14968 0.35244 0.82942
 C273 C 0.14173 0.33643 0.83674
 C274 C 0.14975 0.32857 0.85245
 C275 C 0.16562 0.33638 0.86073
 C276 C 0.17337 0.35241 0.85322
 H277 H 0.14395 0.35825 0.81697
 H278 H 0.14345 0.31644 0.85840
 H279 H 0.18567 0.35847 0.85947
 C280 C 0.16431 0.86028 0.33575
 C281 C 0.17219 0.85267 0.35165
 C282 C 0.16452 0.83687 0.35968
 C283 C 0.14865 0.82875 0.35168
 C284 C 0.14054 0.83615 0.33578
 C285 C 0.14844 0.85196 0.32795
 H286 H 0.18419 0.85922 0.35797
 H287 H 0.14271 0.81650 0.35772
 H288 H 0.14264 0.85740 0.31537
 O289 O 0.27264 0.98219 0.24653
 O290 O 0.24804 1.01791 0.27282
 O291 O 0.24756 0.98219 0.27240
 O292 O 0.27309 1.01792 0.24691
 O293 O 0.25056 1.01841 0.22611
 O294 O 0.22502 0.98269 0.25161
 O295 O 0.22549 1.01842 0.25204
 O296 O 0.25011 0.98266 0.22573
 Cu297 Cu 0.26260 1.00000 0.26176
 Cu298 Cu 0.23552 1.00060 0.23677
 C299 C 0.26549 0.97632 0.23175
 C300 C 0.23265 1.02425 0.26683
 C301 C 0.23202 0.97635 0.26627
 C302 C 0.26609 1.02425 0.23225
 O303 O 0.22539 0.48296 0.75333
 O304 O 0.25030 0.51875 0.72732
 O305 O 0.25036 0.48301 0.72733
 O306 O 0.22521 0.51871 0.75320
 O307 O 0.24779 0.51883 0.77396
 O308 O 0.27294 0.48313 0.74809
 O309 O 0.27288 0.51886 0.74808
 O310 O 0.24797 0.48309 0.77408
 Cu311 Cu 0.23554 0.50085 0.73820
 Cu312 Cu 0.26267 0.50099 0.76315
 C313 C 0.23253 0.47693 0.76806
 C314 C 0.26576 0.52490 0.73335
 C315 C 0.26586 0.47698 0.73339
 C316 C 0.23229 0.52485 0.76790
 O317 O 0.75078 -0.01782 0.27310
 O318 O 0.72594 0.01795 0.24709
 O319 O 0.72576 -0.01777 0.24719
 O320 O 0.75100 0.01790 0.27295
 O321 O 0.77358 0.01772 0.25215
 O322 O 0.74834 -0.01795 0.22638
 O323 O 0.74852 0.01777 0.22629
 O324 O 0.77336 -0.01800 0.25230
 Cu325 Cu 0.73609 0.00008 0.26218
 Cu326 Cu 0.76322 -0.00014 0.23718
 C327 C 0.76623 -0.02399 0.26705
 C328 C 0.73308 0.02395 0.23234
 C329 C 0.73283 -0.02394 0.23247
 C330 C 0.76652 0.02388 0.26686
 O331 O 0.77282 0.51899 0.75298
 O332 O 0.74793 0.48313 0.72714
 O333 O 0.74762 0.51886 0.72724
 O334 O 0.77311 0.48327 0.75289
 O335 O 0.75065 0.48302 0.77381
 O336 O 0.72516 0.51863 0.74816
 O337 O 0.72547 0.48289 0.74806
 O338 O 0.75036 0.51876 0.77391
 Cu339 Cu 0.76263 0.50109 0.73795
 Cu340 Cu 0.73564 0.50080 0.76309
 C341 C 0.76575 0.52498 0.76777
 C342 C 0.73254 0.47690 0.73327
 C343 C 0.73213 0.52481 0.73341
 C344 C 0.76614 0.47708 0.76764
 O345 O 0.24829 0.48212 0.22683
 O346 O 0.27309 0.51782 0.25296
 O347 O 0.27338 0.48210 0.25266
 O348 O 0.24795 0.51785 0.22717
 O349 O 0.22544 0.51748 0.24804
 O350 O 0.25088 0.48172 0.27353
 O351 O 0.25059 0.51744 0.27383
 O352 O 0.22578 0.48174 0.24770
 Cu353 Cu 0.26295 0.50001 0.23780
 Cu354 Cu 0.23590 0.49955 0.26288
 C355 C 0.23289 0.47585 0.23289
 C356 C 0.26599 0.52370 0.26777
 C357 C 0.26639 0.47582 0.26736
 C358 C 0.23245 0.52375 0.23334
 O359 O 0.74833 1.01747 0.77232
 O360 O 0.77368 0.98165 0.74681
 O361 O 0.77359 1.01738 0.74661
 O362 O 0.74843 0.98174 0.77254
 O363 O 0.72603 0.98158 0.75160
 O364 O 0.75121 1.01725 0.72566
 O365 O 0.75128 0.98150 0.72586
 O366 O 0.72593 1.01731 0.75138
 Cu367 Cu 0.76327 0.99958 0.76168
 Cu368 Cu 0.73635 0.99939 0.73651
 C369 C 0.73289 1.02349 0.76612
 C370 C 0.76671 0.97547 0.73207
 C371 C 0.76661 1.02340 0.73181
 C372 C 0.73302 0.97559 0.76641
 O373 O 0.77459 0.48084 0.24681
 O374 O 0.74918 0.51639 0.27262
 O375 O 0.74938 0.48066 0.27259
 O376 O 0.77429 0.51657 0.24676
 O377 O 0.75181 0.51641 0.22591
 O378 O 0.72691 0.48052 0.25173
 O379 O 0.72669 0.51624 0.25176
 O380 O 0.75211 0.48067 0.22595
 Cu381 Cu 0.76413 0.49863 0.26180
 Cu382 Cu 0.73712 0.49844 0.23673
 C383 C 0.76760 0.47469 0.23207
 C384 C 0.73369 0.52237 0.26651
 C385 C 0.73398 0.47448 0.26648
 C386 C 0.76720 0.52262 0.23202
 O387 O 0.22594 0.01806 0.74795
 O388 O 0.25113 -0.01777 0.77359
 O389 O 0.25104 0.01797 0.77377
 O390 O 0.22594 -0.01768 0.74784
 O391 O 0.24843 -0.01758 0.72695
 O392 O 0.27353 0.01807 0.75288
 O393 O 0.27362 -0.01766 0.75269
 O394 O 0.24844 0.01815 0.72706
 Cu395 Cu 0.23624 0.00013 0.76290
 Cu396 Cu 0.26327 0.00025 0.73779
 C397 C 0.23299 0.02421 0.73321
 C398 C 0.26659 -0.02381 0.76743
 C399 C 0.26648 0.02409 0.76766
 C400 C 0.23298 -0.02370 0.73305
 O401 O 0.24947 0.27305 0.98247
 O402 O 0.27442 0.24698 1.01810
 O403 O 0.27455 0.24718 0.98236
 O404 O 0.24925 0.27276 1.01819
 O405 O 0.22676 0.25189 1.01799
 O406 O 0.25205 0.22632 0.98218
 O407 O 0.25192 0.22611 1.01791
 O408 O 0.22697 0.25219 0.98226
 Cu409 Cu 0.26419 0.26209 1.00030
 Cu410 Cu 0.23716 0.23702 1.00006
 C411 C 0.23404 0.26698 0.97629
 C412 C 0.26734 0.23219 1.02409
 C413 C 0.26752 0.23247 0.97616
 C414 C 0.23378 0.26660 1.02420
 O415 O 0.24802 0.77428 0.48194
 O416 O 0.27306 0.74844 0.51770
 O417 O 0.27322 0.74851 0.48197
 O418 O 0.24788 0.77421 0.51767
 O419 O 0.22542 0.75330 0.51757
 O420 O 0.25077 0.72761 0.48188
 O421 O 0.25060 0.72753 0.51760
 O422 O 0.22557 0.75337 0.48184
 Cu423 Cu 0.26281 0.76347 0.49983
 Cu424 Cu 0.23582 0.73834 0.49971
 C425 C 0.23261 0.76814 0.47580
 C426 C 0.26602 0.73366 0.52374
 C427 C 0.26623 0.73376 0.47585
 C428 C 0.23242 0.76805 0.52371
 O429 O 0.22562 0.74840 -0.01725
 O430 O 0.25065 0.77401 0.01868
 O431 O 0.25067 0.77431 -0.01706
 O432 O 0.22566 0.74805 0.01847
 O433 O 0.24826 0.72729 0.01825
 O434 O 0.27325 0.75354 -0.01727
 O435 O 0.27324 0.75325 0.01846
 O436 O 0.24822 0.72764 -0.01747
 Cu437 Cu 0.23587 0.76329 0.00073
 Cu438 Cu 0.26302 0.73834 0.00047
 C439 C 0.23273 0.73374 -0.02348
 C440 C 0.26613 0.76791 0.02469
 C441 C 0.26614 0.76831 -0.02323
 C442 C 0.23278 0.73327 0.02440
 O443 O 0.22742 0.24880 0.48248
 O444 O 0.25234 0.27464 0.51832
 O445 O 0.25245 0.27472 0.48257
 O446 O 0.22736 0.24867 0.51821
 O447 O 0.24997 0.22792 0.51818
 O448 O 0.27505 0.25396 0.48255
 O449 O 0.27495 0.25389 0.51830
 O450 O 0.25002 0.22805 0.48245
 Cu451 Cu 0.23762 0.26381 0.50040
 Cu452 Cu 0.26478 0.23887 0.50037
 C453 C 0.23455 0.23410 0.47637
 C454 C 0.26780 0.26859 0.52442
 C455 C 0.26794 0.26869 0.47648
 C456 C 0.23447 0.23394 0.52426
 O457 O 0.74718 0.77327 0.98259
 O458 O 0.77245 0.74768 1.01837
 O459 O 0.77243 0.74758 0.98265
 O460 O 0.74714 0.77333 1.01833
 O461 O 0.72476 0.75234 1.01839
 O462 O 0.75006 0.72658 0.98270
 O463 O 0.75008 0.72669 1.01843
 O464 O 0.72480 0.75229 0.98264
 Cu465 Cu 0.76205 0.76258 1.00048
 Cu466 Cu 0.73516 0.73736 1.00055
 C467 C 0.73178 0.76706 0.97651
 C468 C 0.76549 0.73290 1.02450
 C469 C 0.76547 0.73278 0.97659
 C470 C 0.73172 0.76714 1.02444
 O471 O 0.75223 0.22557 0.48287
 O472 O 0.72718 0.25170 0.51847
 O473 O 0.72731 0.25158 0.48275
 O474 O 0.75193 0.22552 0.51862
 O475 O 0.77466 0.24614 0.51869
 O476 O 0.75004 0.27220 0.48281
 O477 O 0.74991 0.27232 0.51852
 O478 O 0.77495 0.24620 0.48296
 Cu479 Cu 0.73737 0.23651 0.50067
 Cu480 Cu 0.76469 0.26129 0.50076
 C481 C 0.76778 0.23153 0.47684
 C482 C 0.73436 0.26640 0.52454
 C483 C 0.73455 0.26624 0.47668
 C484 C 0.76740 0.23148 0.52477
 O485 O 0.77505 0.25203 -0.01927
 O486 O 0.74988 0.22624 0.01650
 O487 O 0.74992 0.22620 -0.01922
 O488 O 0.77508 0.25200 0.01646
 O489 O 0.75261 0.27288 0.01649
 O490 O 0.72744 0.24708 -0.01921
 O491 O 0.72741 0.24712 0.01651
 O492 O 0.75257 0.27291 -0.01924
 Cu493 Cu 0.76475 0.23701 -0.00138
 Cu494 Cu 0.73774 0.26211 -0.00136
 C495 C 0.76801 0.26679 -0.02534
 C496 C 0.73444 0.23237 0.02260
 C497 C 0.73447 0.23232 -0.02529
 C498 C 0.76805 0.26675 0.02256
 O499 O 0.77298 0.75166 0.48128
 O500 O 0.74772 0.72603 0.51710
 O501 O 0.74782 0.72586 0.48137
 O502 O 0.77287 0.75184 0.51701
 O503 O 0.75039 0.77271 0.51687
 O504 O 0.72533 0.74673 0.48123
 O505 O 0.72524 0.74690 0.51696
 O506 O 0.75049 0.77254 0.48115
 Cu507 Cu 0.76261 0.73674 0.49921
 Cu508 Cu 0.73559 0.76183 0.49903
 C509 C 0.76596 0.76639 0.47512
 C510 C 0.73226 0.73218 0.52313
 C511 C 0.73239 0.73195 0.47523
 C512 C 0.76582 0.76662 0.52301
 O513 O 1.01906 0.22669 0.25300
 O514 O 0.98244 0.25140 0.22740
 O515 O 1.01902 0.25151 0.22744
 O516 O 0.98247 0.22649 0.25288
 O517 O 0.98229 0.24816 0.27403
 O518 O 1.01886 0.27320 0.24858
 O519 O 0.98227 0.27309 0.24855
 O520 O 1.01889 0.24837 0.27415
 Cu521 Cu 1.00076 0.23683 0.23805
 Cu522 Cu 1.00056 0.26289 0.26346
 C523 C 1.02521 0.23339 0.26785
 C524 C 0.97614 0.26639 0.23368
 C525 C 1.02515 0.26655 0.23374
 C526 C 0.97616 0.23313 0.26771
 O527 O 0.48247 0.24877 0.77331
 O528 O 0.51900 0.27389 0.74792
 O529 O 0.48240 0.27386 0.74801
 O530 O 0.51906 0.24860 0.77304
 O531 O 0.51892 0.22718 0.75162
 O532 O 0.48228 0.25244 0.72660
 O533 O 0.51887 0.25247 0.72651
 O534 O 0.48233 0.22734 0.75190
 Cu535 Cu 0.50075 0.26344 0.76273
 Cu536 Cu 0.50059 0.23770 0.73700
 C537 C 0.47619 0.23385 0.76686
 C538 C 0.52515 0.26739 0.73297
 C539 C 0.47611 0.26738 0.73311
 C540 C 0.52522 0.23366 0.76652
 O541 O 0.01896 0.24839 0.72669
 O542 O -0.01776 0.27371 0.75158
 O543 O 0.01882 0.27389 0.75157
 O544 O -0.01762 0.24819 0.72672
 O545 O -0.01752 0.22703 0.74840
 O546 O 0.01891 0.25273 0.77324
 O547 O -0.01768 0.25255 0.77327
 O548 O 0.01906 0.22722 0.74836
 Cu549 Cu 0.00059 0.26318 0.73695
 Cu550 Cu 0.00070 0.23775 0.76301
 C551 C 0.02525 0.23357 0.73335
 C552 C -0.02396 0.26737 0.76660
 C553 C 0.02506 0.26761 0.76657
 C554 C -0.02376 0.23330 0.73339
 O555 O 0.48282 0.22515 0.24912
 O556 O 0.51950 0.25042 0.27408
 O557 O 0.48290 0.25030 0.27437
 O558 O 0.51941 0.22533 0.24877
 O559 O 0.51914 0.24683 0.22744
 O560 O 0.48267 0.27178 0.25301
 O561 O 0.51925 0.27191 0.25273
 O562 O 0.48257 0.24664 0.22778
 Cu563 Cu 0.50118 0.23563 0.26374
 Cu564 Cu 0.50088 0.26146 0.23809
 C565 C 0.47646 0.23166 0.23427
 C566 C 0.52561 0.26539 0.26759
 C567 C 0.47658 0.26523 0.26797
 C568 C 0.52548 0.23190 0.23381
 O569 O 0.98146 0.75144 0.72571
 O570 O 1.01812 0.72653 0.75109
 O571 O 0.98153 0.72626 0.75093
 O572 O 1.01806 0.75165 0.72580
 O573 O 1.01781 0.77312 0.74716
 O574 O 0.98128 0.74773 0.77229
 O575 O 1.01787 0.74800 0.77245
 O576 O 0.98123 0.77290 0.74708
 Cu577 Cu 0.99982 0.73680 0.73622
 Cu578 Cu 0.99952 0.76260 0.76190
 C579 C 0.97511 0.76634 0.73214
 C580 C 1.02423 0.73310 0.76602
 C581 C 0.97519 0.73275 0.76582
 C582 C 1.02414 0.76664 0.73227
 O583 O 0.51835 0.77241 0.24863
 O584 O 0.48174 0.74724 0.27386
 O585 O 0.51833 0.74708 0.27371
 O586 O 0.48177 0.77254 0.24877
 O587 O 0.48162 0.75123 0.22725
 O588 O 0.51817 0.72577 0.25218
 O589 O 0.48158 0.72593 0.25234
 O590 O 0.51819 0.75110 0.22711
 Cu591 Cu 0.50007 0.76197 0.26341
 Cu592 Cu 0.49988 0.73635 0.23755
 C593 C 0.52448 0.76598 0.23363
 C594 C 0.47543 0.73237 0.26733
 C595 C 0.52447 0.73216 0.26712
 C596 C 0.47548 0.76615 0.23382
 O597 O -0.01906 0.77303 0.25160
 O598 O 0.01752 0.74774 0.22644
 O599 O -0.01907 0.74787 0.22637
 O600 O 0.01753 0.77303 0.25154
 O601 O 0.01748 0.75163 0.27298
 O602 O -0.01914 0.72647 0.24781
 O603 O 0.01745 0.72635 0.24789
 O604 O -0.01911 0.75162 0.27305
 Cu605 Cu -0.00076 0.76258 0.23682
 Cu606 Cu -0.00084 0.73686 0.26259
 C607 C -0.02530 0.76656 0.26654
 C608 C 0.02370 0.73281 0.23295
 C609 C -0.02533 0.73296 0.23287
 C610 C 0.02373 0.76655 0.26647
 O611 O 0.51734 0.75190 0.77386
 O612 O 0.48062 0.72688 0.74870
 O613 O 0.51721 0.72677 0.74860
 O614 O 0.48074 0.75209 0.77390
 O615 O 0.48082 0.77353 0.75250
 O616 O 0.51727 0.74823 0.72722
 O617 O 0.48068 0.74834 0.72731
 O618 O 0.51741 0.77335 0.75247
 Cu619 Cu 0.49897 0.73725 0.76343
 Cu620 Cu 0.49905 0.76303 0.73772
 C621 C 0.52362 0.76682 0.76738
 C622 C 0.47441 0.73342 0.73379
 C623 C 0.52344 0.73326 0.73367
 C624 C 0.47458 0.76705 0.76744
 C625 C 0.40609 0.31122 0.32971
 C626 C 0.40676 0.30932 0.31065
 C627 C 0.39222 0.31636 0.29989
 C628 C 0.37702 0.32522 0.30814
 C629 C 0.37616 0.32715 0.32729
 C630 C 0.39089 0.32008 0.33800
 C631 C 0.42222 0.29996 0.30206
 C632 C 0.43497 0.29207 0.29462
 C633 C 0.44969 0.28277 0.28561
 C634 C 0.46207 0.27479 0.27769
 H635 H 0.41729 0.30584 0.33817
 H636 H 0.39255 0.31490 0.28513
 H637 H 0.36578 0.33027 0.29954
 H638 H 0.39072 0.32152 0.35276
 C639 C 0.39254 0.80026 0.82181
 C640 C 0.40495 0.81048 0.81110
 C641 C 0.40214 0.82929 0.80902
 C642 C 0.38688 0.83787 0.81748
 C643 C 0.37401 0.82777 0.82829
 C644 C 0.37728 0.80874 0.83033
 C645 C 0.42035 0.80155 0.80198
 C646 C 0.43307 0.79388 0.79424
 C647 C 0.44774 0.78470 0.78505
 C648 C 0.46010 0.77672 0.77708
 H649 H 0.39449 0.78562 0.82337
 H650 H 0.41177 0.83738 0.80085
 H651 H 0.38570 0.85256 0.81596
 H652 H 0.36766 0.80002 0.83775
 C653 C -0.09429 0.31335 0.82823
 C654 C -0.09382 0.31153 0.80915
 C655 C -0.10857 0.31846 0.79858
 C656 C -0.12378 0.32711 0.80703
 C657 C -0.12444 0.32893 0.82621
 C658 C -0.10950 0.32199 0.83672
 C659 C -0.07840 0.30228 0.80039
 C660 C -0.06566 0.29443 0.79289
 C661 C -0.05093 0.28511 0.78392
 C662 C -0.03852 0.27706 0.77610
 H663 H -0.08294 0.30804 0.83654
 H664 H -0.10840 0.31705 0.78381
 H665 H -0.13520 0.33204 0.79860
 H666 H -0.10955 0.32334 0.85149
 C667 C -0.09563 0.81200 0.32864
 C668 C -0.09515 0.81027 0.30955
 C669 C -0.10990 0.81723 0.29901
 C670 C -0.12511 0.82583 0.30749
 C671 C -0.12576 0.82761 0.32667
 C672 C -0.11084 0.82060 0.33716
 C673 C -0.07970 0.80112 0.30074
 C674 C -0.06694 0.79337 0.29316
 C675 C -0.05221 0.78417 0.28407
 C676 C -0.03982 0.77620 0.27615
 H677 H -0.08428 0.80666 0.33693
 H678 H -0.10972 0.81588 0.28423
 H679 H -0.13652 0.83081 0.29907
 H680 H -0.11089 0.82191 0.35194
 C681 C 0.59474 0.68625 0.32877
 C682 C 0.59419 0.68792 0.30968
 C683 C 0.60885 0.68084 0.29907
 C684 C 0.62406 0.67219 0.30750
 C685 C 0.62481 0.67052 0.32669
 C686 C 0.60995 0.67761 0.33723
 C687 C 0.57878 0.69717 0.30094
 C688 C 0.56605 0.70503 0.29344
 C689 C 0.55135 0.71435 0.28446
 C690 C 0.53898 0.72242 0.27663
 H691 H 0.58345 0.69168 0.33710
 H692 H 0.60861 0.68213 0.28429
 H693 H 0.63541 0.66713 0.29903
 H694 H 0.61004 0.67637 0.35201
 C695 C 0.61003 0.20063 0.81645
 C696 C 0.59513 0.19021 0.80961
 C697 C 0.59545 0.17112 0.81131
 C698 C 0.61066 0.16246 0.81977
 C699 C 0.62574 0.17283 0.82665
 C700 C 0.62524 0.19202 0.82491
 C701 C 0.57968 0.19915 0.80061
 C702 C 0.56691 0.20683 0.79298
 C703 C 0.55218 0.21602 0.78392
 C704 C 0.53977 0.22400 0.77605
 H705 H 0.60997 0.21541 0.81513
 H706 H 0.58398 0.16292 0.80607
 H707 H 0.61058 0.14769 0.82107
 H708 H 0.63675 0.20035 0.82982
 C709 C 1.10877 0.70131 0.81720
 C710 C 1.09402 0.69070 0.81033
 C711 C 1.09446 0.67163 0.81228
 C712 C 1.10965 0.66319 0.82098
 C713 C 1.12460 0.67374 0.82785
 C714 C 1.12396 0.69290 0.82590
 C715 C 1.07861 0.69941 0.80104
 C716 C 1.06588 0.70687 0.79315
 C717 C 1.05116 0.71581 0.78381
 C718 C 1.03877 0.72361 0.77574
 H719 H 1.10862 0.71607 0.81569
 H720 H 1.08311 0.66329 0.80702
 H721 H 1.10966 0.64843 0.82244
 H722 H 1.13537 0.70137 0.83080
 C723 C 1.09608 0.18901 0.33014
 C724 C 1.09540 0.19048 0.31104
 C725 C 1.11001 0.18332 0.30042
 C726 C 1.12528 0.17477 0.30884
 C727 C 1.12614 0.17326 0.32803
 C728 C 1.11136 0.18047 0.33860
 C729 C 1.07986 0.19951 0.30227
 C730 C 1.06704 0.20714 0.29470
 C731 C 1.05224 0.21617 0.28557
 C732 C 1.03979 0.22398 0.27759
 H733 H 1.08484 0.19450 0.33849
 H734 H 1.10967 0.18445 0.28563
 H735 H 1.13657 0.16962 0.30034
 H736 H 1.11154 0.17935 0.35339
 C737 C 0.59553 0.32952 0.68768
 C738 C 0.59504 0.31042 0.68932
 C739 C 0.60980 0.29989 0.68233
 C740 C 0.62504 0.30840 0.67379
 C741 C 0.62572 0.32759 0.67213
 C742 C 0.61078 0.33806 0.67914
 C743 C 0.57957 0.30158 0.69842
 C744 C 0.56680 0.29399 0.70614
 C745 C 0.55206 0.28490 0.71533
 C746 C 0.53967 0.27698 0.72330
 H747 H 0.58417 0.33780 0.69303
 H748 H 0.60960 0.28511 0.68361
 H749 H 0.63645 0.29998 0.66879
 H750 H 0.61082 0.35284 0.67790
 C751 C 0.59666 0.80838 0.17157
 C752 C 0.59390 0.81019 0.19042
 C753 C 0.60627 0.82083 0.20073
 C754 C 0.62143 0.82957 0.19230
 C755 C 0.62462 0.82784 0.17323
 C756 C 0.61182 0.81707 0.16304
 C757 C 0.57859 0.80087 0.19929
 C758 C 0.56593 0.79298 0.20691
 C759 C 0.55130 0.78367 0.21603
 C760 C 0.53897 0.77563 0.22398
 H761 H 0.58707 0.80026 0.16342
 H762 H 0.60437 0.82216 0.21540
 H763 H 0.63104 0.83689 0.20109
 H764 H 0.61297 0.81575 0.14833
 C765 C 1.10714 0.32081 0.20035
 C766 C 1.09488 0.30993 0.19016
 C767 C 1.09785 0.30770 0.17138
 C768 C 1.11310 0.31619 0.16281
 C769 C 1.12579 0.32720 0.17288
 C770 C 1.12238 0.32936 0.19187
 C771 C 1.07947 0.30083 0.19909
 C772 C 1.06674 0.29312 0.20678
 C773 C 1.05204 0.28400 0.21599
 C774 C 1.03966 0.27610 0.22402
 H775 H 1.10507 0.32248 0.21496
 H776 H 1.08834 0.29940 0.16332
 H777 H 1.11439 0.31454 0.14815
 H778 H 1.13188 0.33691 0.20059
 C779 C 1.09669 0.80897 0.67059
 C780 C 1.09374 0.81092 0.68940
 C781 C 1.10600 0.82163 0.69975
 C782 C 1.12125 0.83030 0.69140
 C783 C 1.12467 0.82840 0.67238
 C784 C 1.11194 0.81759 0.66215
 C785 C 1.07835 0.80163 0.69819
 C786 C 1.06565 0.79375 0.70574
 C787 C 1.05098 0.78442 0.71479
 C788 C 1.03863 0.77635 0.72268
 H789 H 1.08717 0.80080 0.66240
 H790 H 1.10394 0.82308 0.71438
 H791 H 1.13076 0.83771 0.70022
 H792 H 1.11322 0.81615 0.64746
 C793 C 0.40381 0.67165 0.68845
 C794 C 0.40443 0.69075 0.69004
 C795 C 0.38981 0.70135 0.68291
 C796 C 0.37459 0.69293 0.67429
 C797 C 0.37378 0.67374 0.67268
 C798 C 0.38859 0.66318 0.67983
 C799 C 0.41989 0.69950 0.69922
 C800 C 0.43266 0.70701 0.70699
 C801 C 0.44741 0.71602 0.71621
 C802 C 0.45984 0.72388 0.72418
 H803 H 0.41507 0.66331 0.69390
 H804 H 0.39010 0.71614 0.68415
 H805 H 0.36328 0.70141 0.66918
 H806 H 0.38846 0.64840 0.67863
 C807 C 0.39443 0.19936 0.17974
 C808 C 0.40650 0.18891 0.19058
 C809 C 0.40329 0.17015 0.19263
 C810 C 0.38799 0.16185 0.18398
 C811 C 0.37549 0.17218 0.17301
 C812 C 0.37914 0.19115 0.17105
 C813 C 0.42197 0.19757 0.19982
 C814 C 0.43474 0.20507 0.20761
 C815 C 0.44949 0.21411 0.21680
 C816 C 0.46190 0.22202 0.22473
 H817 H 0.39669 0.21395 0.17821
 H818 H 0.41265 0.16189 0.20090
 H819 H 0.38651 0.14719 0.18551
 H820 H 0.36979 0.20005 0.16352
 C821 C -0.10733 0.67845 0.19997
 C822 C -0.09515 0.68940 0.18974
 C823 C -0.09821 0.69168 0.17099
 C824 C -0.11347 0.68317 0.16249
 C825 C -0.12609 0.67210 0.17261
 C826 C -0.12259 0.66989 0.19157
 C827 C -0.07972 0.69853 0.19859
 C828 C -0.06698 0.70626 0.20620
 C829 C -0.05226 0.71543 0.21532
 C830 C -0.03987 0.72336 0.22326
 H831 H -0.10519 0.67674 0.21457
 H832 H -0.08876 0.70004 0.16289
 H833 H -0.11483 0.68487 0.14784
 H834 H -0.13202 0.66228 0.20032
 C835 C -0.09586 0.17058 0.69195
 C836 C -0.09328 0.18946 0.69015
 C837 C -0.10592 0.19973 0.67979
 C838 C -0.12119 0.19123 0.67134
 C839 C -0.12424 0.17214 0.67311
 C840 C -0.11113 0.16199 0.68355
 C841 C -0.07788 0.19841 0.69922
 C842 C -0.06518 0.20612 0.70690
 C843 C -0.05053 0.21539 0.71601
 C844 C -0.03820 0.22348 0.72388
 H845 H -0.08604 0.16246 0.69984
 H846 H -0.10414 0.21441 0.67845
 H847 H -0.13100 0.19997 0.66419
 H848 H -0.11209 0.14727 0.68483
 C849 C 0.31694 0.39246 0.29951
 C850 C 0.31026 0.40701 0.31015
 C851 C 0.31222 0.40647 0.32922
 C852 C 0.32072 0.39139 0.33762
 C853 C 0.32739 0.37665 0.32703
 C854 C 0.32545 0.37739 0.30787
 C855 C 0.30112 0.42229 0.30147
 C856 C 0.29334 0.43488 0.29397
 C857 C 0.28409 0.44939 0.28494
 C858 C 0.27608 0.46158 0.27702
 H859 H 0.31543 0.39270 0.28474
 H860 H 0.30711 0.41767 0.33759
 H861 H 0.32221 0.39131 0.35238
 H862 H 0.33019 0.36615 0.29937
 C863 C 0.32834 -0.09617 0.80905
 C864 C 0.30920 -0.09272 0.81128
 C865 C 0.29836 -0.10442 0.82210
 C866 C 0.30655 -0.11960 0.83058
 C867 C 0.32589 -0.12350 0.82839
 C868 C 0.33662 -0.11135 0.81748
 C869 C 0.30053 -0.07743 0.80216
 C870 C 0.29305 -0.06482 0.79441
 C871 C 0.28404 -0.05029 0.78518
 C872 C 0.27616 -0.03808 0.77717
 H873 H 0.33691 -0.08710 0.80079
 H874 H 0.28346 -0.10198 0.82378
 H875 H 0.29733 -0.12864 0.83811
 H876 H 0.35160 -0.11305 0.81583
 C877 C 0.82860 0.40520 0.80885
 C878 C 0.80943 0.40839 0.81119
 C879 C 0.79879 0.39642 0.82191
 C880 C 0.80719 0.38122 0.83014
 C881 C 0.82656 0.37756 0.82779
 C882 C 0.83710 0.39001 0.81703
 C883 C 0.80054 0.42365 0.80223
 C884 C 0.79292 0.43623 0.79455
 C885 C 0.78378 0.45071 0.78538
 C886 C 0.77582 0.46287 0.77737
 H887 H 0.83702 0.41448 0.80068
 H888 H 0.78386 0.39867 0.82367
 H889 H 0.79811 0.37196 0.83756
 H890 H 0.85209 0.38853 0.81529
 C891 C 0.82784 -0.09591 0.30920
 C892 C 0.80867 -0.09265 0.31142
 C893 C 0.79792 -0.10453 0.32213
 C894 C 0.80622 -0.11973 0.33046
 C895 C 0.82558 -0.12349 0.32820
 C896 C 0.83623 -0.11111 0.31747
 C897 C 0.79991 -0.07742 0.30230
 C898 C 0.79241 -0.06486 0.29448
 C899 C 0.78347 -0.05038 0.28512
 C900 C 0.77568 -0.03822 0.27696
 H901 H 0.83635 -0.08670 0.30103
 H902 H 0.78300 -0.10221 0.32380
 H903 H 0.79706 -0.12893 0.33787
 H904 H 0.85122 -0.11266 0.31581
 C905 C 0.32754 0.59515 0.68796
 C906 C 0.30798 0.59396 0.68928
 C907 C 0.29678 0.60793 0.68203
 C908 C 0.30508 0.62308 0.67357
 C909 C 0.32473 0.62447 0.67226
 C910 C 0.33588 0.61031 0.67951
 C911 C 0.29935 0.57863 0.69838
 C912 C 0.29192 0.56598 0.70614
 C913 C 0.28300 0.55142 0.71541
 C914 C 0.27521 0.53919 0.72350
 H915 H 0.33634 0.58441 0.69352
 H916 H 0.28164 0.60719 0.68305
 H917 H 0.29613 0.63387 0.66837
 H918 H 0.35103 0.61090 0.67854
 C919 C 0.32878 1.09409 0.18736
 C920 C 0.30922 1.09324 0.18889
 C921 C 0.29821 1.10752 0.18199
 C922 C 0.30670 1.12265 0.17368
 C923 C 0.32635 1.12370 0.17216
 C924 C 0.33731 1.10923 0.17906
 C925 C 0.30041 1.07792 0.19785
 C926 C 0.29283 1.06529 0.20550
 C927 C 0.28373 1.05074 0.21463
 C928 C 0.27578 1.03852 0.22258
 H929 H 0.33744 1.08311 0.19266
 H930 H 0.28307 1.10704 0.18318
 H931 H 0.29790 1.13369 0.16876
 H932 H 0.35246 1.10957 0.17792
 C933 C 0.79760 0.60639 0.18163
 C934 C 0.80887 0.59215 0.18821
 C935 C 0.82839 0.59322 0.18638
 C936 C 0.83662 0.60854 0.17814
 C937 C 0.82540 0.62300 0.17163
 C938 C 0.80578 0.62171 0.17339
 C939 C 0.80039 0.57668 0.19721
 C940 C 0.79308 0.56394 0.20493
 C941 C 0.78430 0.54928 0.21417
 C942 C 0.77661 0.53697 0.22223
 H943 H 0.78247 0.60574 0.18305
 H944 H 0.83725 0.58226 0.19141
 H945 H 0.85174 0.60904 0.17677
 H946 H 0.79680 0.63272 0.16872
 C947 C 0.82063 1.10472 0.69985
 C948 C 0.81019 1.09256 0.68919
 C949 C 0.80840 1.09562 0.67039
 C950 C 0.81690 1.11087 0.66227
 C951 C 0.82746 1.12346 0.67282
 C952 C 0.82917 1.11996 0.69182
 C953 C 0.80102 1.07717 0.69769
 C954 C 0.79327 1.06450 0.70509
 C955 C 0.78409 1.04991 0.71409
 C956 C 0.77616 1.03767 0.72203
 H957 H 0.82193 1.10259 0.71448
 H958 H 0.80044 1.08620 0.66197
 H959 H 0.81561 1.11228 0.64758
 H960 H 0.83629 1.12937 0.70089
 C961 C 0.67144 0.59205 0.31217
 C962 C 0.69099 0.59103 0.31070
 C963 C 0.70211 0.60513 0.31780
 C964 C 0.69374 0.62026 0.32622
 C965 C 0.67409 0.62149 0.32764
 C966 C 0.66302 0.60717 0.32058
 C967 C 0.69968 0.57577 0.30156
 C968 C 0.70717 0.56319 0.29375
 C969 C 0.71617 0.54871 0.28443
 C970 C 0.72406 0.53656 0.27632
 H971 H 0.66269 0.58120 0.30673
 H972 H 0.71726 0.60453 0.31666
 H973 H 0.70263 0.63117 0.33128
 H974 H 0.64788 0.60763 0.32166
 C975 C 0.67138 1.09623 0.80761
 C976 C 0.69047 1.09261 0.80989
 C977 C 0.70136 1.10419 0.82076
 C978 C 0.69327 1.11942 0.82924
 C979 C 0.67398 1.12350 0.82700
 C980 C 0.66320 1.11146 0.81604
 C981 C 0.69905 1.07726 0.80076
 C982 C 0.70647 1.06461 0.79301
 C983 C 0.71543 1.05003 0.78380
 C984 C 0.72329 1.03779 0.77581
 H985 H 0.66277 1.08725 0.79931
 H986 H 0.71623 1.10161 0.82247
 H987 H 0.70255 1.12837 0.83679
 H988 H 0.64824 1.11329 0.81433
 C989 C 0.20063 0.60552 0.82268
 C990 C 0.18982 0.59381 0.81186
 C991 C 0.17071 0.59730 0.80955
 C992 C 0.16242 0.61254 0.81788
 C993 C 0.17313 0.62471 0.82877
 C994 C 0.19244 0.62075 0.83107
 C995 C 0.19849 0.57849 0.80278
 C996 C 0.20595 0.56587 0.79502
 C997 C 0.21492 0.55132 0.78577
 C998 C 0.22275 0.53911 0.77770
 H999 H 0.21551 0.60304 0.82442
 H1000 H 0.16216 0.58823 0.80129
 H1001 H 0.14746 0.61427 0.81615
 H1002 H 0.20164 0.62980 0.83858
 C1003 C 0.20273 1.10720 0.31889
 C1004 C 0.19140 1.09321 0.31188
 C1005 C 0.17187 1.09440 0.31355
 C1006 C 0.16370 1.10961 0.32204
 C1007 C 0.17497 1.12384 0.32897
 C1008 C 0.19460 1.12241 0.32739
 C1009 C 0.19983 1.07789 0.30259
 C1010 C 0.20706 1.06527 0.29462
 C1011 C 0.21573 1.05072 0.28511
 C1012 C 0.22334 1.03852 0.27684
 H1013 H 0.21786 1.10646 0.31759
 H1014 H 0.16297 1.08364 0.30819
 H1015 H 0.14857 1.11022 0.32325
 H1016 H 0.20364 1.13324 0.33235
 C1017 C 0.67136 0.40641 0.68754
 C1018 C 0.69090 0.40770 0.68901
 C1019 C 0.70224 0.39380 0.68184
 C1020 C 0.69411 0.37861 0.67331
 C1021 C 0.67449 0.37711 0.67186
 C1022 C 0.66319 0.39122 0.67902
 C1023 C 0.69935 0.42306 0.69820
 C1024 C 0.70664 0.43573 0.70603
 C1025 C 0.71543 0.45033 0.71536
 C1026 C 0.72313 0.46258 0.72346
 H1027 H 0.66245 0.41710 0.69303
 H1028 H 0.71738 0.39461 0.68298
 H1029 H 0.70317 0.36786 0.66818
 H1030 H 0.64806 0.39056 0.67793
 C1031 C 0.67069 -0.09572 0.19073
 C1032 C 0.68989 -0.09260 0.18858
 C1033 C 0.70061 -0.10462 0.17801
 C1034 C 0.69224 -0.11982 0.16974
 C1035 C 0.67285 -0.12344 0.17194
 C1036 C 0.66223 -0.11091 0.18252
 C1037 C 0.69873 -0.07736 0.19761
 C1038 C 0.70630 -0.06479 0.20535
 C1039 C 0.71535 -0.05031 0.21461
 C1040 C 0.72324 -0.03815 0.22268
 H1041 H 0.66221 -0.08638 0.19878
 H1042 H 0.71556 -0.10242 0.17639
 H1043 H 0.70136 -0.12914 0.16243
 H1044 H 0.64721 -0.11231 0.18409
 C1045 C 0.20231 0.39261 0.18180
 C1046 C 0.19109 0.40684 0.18851
 C1047 C 0.17157 0.40587 0.18673
 C1048 C 0.16327 0.39063 0.17842
 C1049 C 0.17442 0.37617 0.17180
 C1050 C 0.19404 0.37738 0.17348
 C1051 C 0.19965 0.42219 0.19762
 C1052 C 0.20699 0.43484 0.20544
 C1053 C 0.21580 0.44939 0.21480
 C1054 C 0.22350 0.46160 0.22297
 H1055 H 0.21743 0.39319 0.18317
 H1056 H 0.16276 0.41682 0.19187
 H1057 H 0.14814 0.39019 0.17711
 H1058 H 0.20298 0.36636 0.16873
 C1059 C 0.20161 -0.10668 0.68201
 C1060 C 0.19051 -0.09243 0.68885
 C1061 C 0.17097 -0.09329 0.68713
 C1062 C 0.16255 -0.10842 0.67873
 C1063 C 0.17360 -0.12289 0.67195
 C1064 C 0.19324 -0.12180 0.67360
 C1065 C 0.19919 -0.07716 0.69797
 C1066 C 0.20666 -0.06457 0.70577
 C1067 C 0.21562 -0.05008 0.71509
 C1068 C 0.22345 -0.03791 0.72320
 H1069 H 0.21675 -0.10618 0.68333
 H1070 H 0.16224 -0.08233 0.69236
 H1071 H 0.14742 -0.10876 0.67745
 H1072 H 0.20210 -0.13282 0.66872
 C1073 C 0.32978 0.31382 0.40612
 C1074 C 0.31023 0.31242 0.40724
 C1075 C 0.29907 0.31936 0.39310
 C1076 C 0.30741 0.32757 0.37783
 C1077 C 0.32706 0.32894 0.37650
 C1078 C 0.33816 0.32203 0.39086
 C1079 C 0.30158 0.30347 0.42265
 C1080 C 0.29414 0.29579 0.43535
 C1081 C 0.28522 0.28658 0.44996
 C1082 C 0.27743 0.27852 0.46220
 H1083 H 0.33855 0.30849 0.41700
 H1084 H 0.28393 0.31826 0.39377
 H1085 H 0.29849 0.33251 0.36689
 H1086 H 0.35331 0.32305 0.39031
 C1087 C 0.29723 0.81899 -0.10657
 C1088 C 0.30837 0.81236 -0.09227
 C1089 C 0.32791 0.81411 -0.09320
 C1090 C 0.33629 0.82232 -0.10847
 C1091 C 0.32520 0.82888 -0.12300
 C1092 C 0.30557 0.82721 -0.12183
 C1093 C 0.29973 0.80337 -0.07688
 C1094 C 0.29230 0.79564 -0.06421
 C1095 C 0.28339 0.78636 -0.04965
 C1096 C 0.27560 0.77823 -0.03745
 H1097 H 0.28210 0.81764 -0.10602
 H1098 H 0.33666 0.80903 -0.08219
 H1099 H 0.35141 0.82362 -0.10887
 H1100 H 0.29669 0.83193 -0.13290
 C1101 C 0.79877 0.31853 -0.10812
 C1102 C 0.81006 0.31131 -0.09422
 C1103 C 0.82960 0.31286 -0.09541
 C1104 C 0.83783 0.32150 -0.11051
 C1105 C 0.82659 0.32871 -0.12462
 C1106 C 0.80696 0.32718 -0.12322
 C1107 C 0.80155 0.30202 -0.07893
 C1108 C 0.79419 0.29412 -0.06633
 C1109 C 0.78533 0.28474 -0.05180
 C1110 C 0.77754 0.27661 -0.03960
 H1111 H 0.78364 0.31733 -0.10738
 H1112 H 0.83847 0.30733 -0.08471
 H1113 H 0.85297 0.32265 -0.11111
 H1114 H 0.79795 0.33235 -0.13397
 C1115 C 0.82799 0.81182 0.40503
 C1116 C 0.80843 0.81043 0.40618
 C1117 C 0.79724 0.81770 0.39223
 C1118 C 0.80553 0.82626 0.37714
 C1119 C 0.82517 0.82766 0.37579
 C1120 C 0.83632 0.82038 0.38993
 C1121 C 0.79981 0.80126 0.42147
 C1122 C 0.79236 0.79346 0.43409
 C1123 C 0.78340 0.78418 0.44863
 C1124 C 0.77554 0.77613 0.46084
 H1125 H 0.83679 0.80625 0.41576
 H1126 H 0.78209 0.81662 0.39295
 H1127 H 0.79658 0.83149 0.36636
 H1128 H 0.85147 0.82142 0.38936
 C1129 C 0.70313 0.31870 0.60690
 C1130 C 0.69202 0.31148 0.59285
 C1131 C 0.67247 0.31298 0.59383
 C1132 C 0.66404 0.32151 0.60888
 C1133 C 0.67508 0.32865 0.62317
 C1134 C 0.69473 0.32723 0.62195
 C1135 C 0.70071 0.30215 0.57769
 C1136 C 0.70814 0.29417 0.56520
 C1137 C 0.71705 0.28464 0.55080
 C1138 C 0.72485 0.27637 0.53870
 H1139 H 0.71827 0.31754 0.60632
 H1140 H 0.66374 0.30746 0.58302
 H1141 H 0.64889 0.32259 0.60932
 H1142 H 0.70360 0.33236 0.63284
 C1143 C 0.70077 0.81819 1.10753
 C1144 C 0.68950 0.81111 1.09354
 C1145 C 0.66996 0.81261 1.09474
 C1146 C 0.66171 0.82108 1.10993
 C1147 C 0.67293 0.82815 1.12412
 C1148 C 0.69256 0.82666 1.12271
 C1149 C 0.69805 0.80199 1.07818
 C1150 C 0.70543 0.79421 1.06551
 C1151 C 0.71433 0.78495 1.05094
 C1152 C 0.72215 0.77690 1.03871
 H1153 H 0.71591 0.81702 1.10678
 H1154 H 0.66111 0.80718 1.08398
 H1155 H 0.64657 0.82219 1.11054
 H1156 H 0.70156 0.83173 1.13353
 C1157 C 0.20234 0.31734 1.10735
 C1158 C 0.19117 0.31018 1.09333
 C1159 C 0.17161 0.31158 1.09447
 C1160 C 0.16326 0.32003 1.10962
 C1161 C 0.17439 0.32720 1.12382
 C1162 C 0.19403 0.32580 1.12249
 C1163 C 0.19982 0.30114 1.07798
 C1164 C 0.20730 0.29344 1.06533
 C1165 C 0.21630 0.28427 1.05074
 C1166 C 0.22418 0.27629 1.03850
 H1167 H 0.21749 0.31626 1.10666
 H1168 H 0.16283 0.30609 1.08369
 H1169 H 0.14811 0.32108 1.11017
 H1170 H 0.20297 0.33094 1.13332
 C1171 C 0.17044 0.81337 0.59391
 C1172 C 0.18998 0.81181 0.59281
 C1173 C 0.20120 0.81878 0.60690
 C1174 C 0.19293 0.82719 0.62208
 C1175 C 0.17329 0.82874 0.62339
 C1176 C 0.16213 0.82178 0.60910
 C1177 C 0.19858 0.80275 0.57744
 C1178 C 0.20602 0.79502 0.56478
 C1179 C 0.21497 0.78581 0.55020
 C1180 C 0.22283 0.77779 0.53798
 H1181 H 0.16163 0.80803 0.58307
 H1182 H 0.21633 0.81757 0.60623
 H1183 H 0.20188 0.83217 0.63297
 H1184 H 0.14699 0.82293 0.60964
 C1185 C 0.29688 0.68258 0.60688
 C1186 C 0.30811 0.68963 0.59281
 C1187 C 0.32766 0.68816 0.59394
 C1188 C 0.33596 0.67979 0.60914
 C1189 C 0.32478 0.67278 0.62342
 C1190 C 0.30514 0.67420 0.62207
 C1191 C 0.29953 0.69872 0.57746
 C1192 C 0.29215 0.70649 0.56481
 C1193 C 0.28327 0.71578 0.55025
 C1194 C 0.27550 0.72386 0.53802
 H1195 H 0.28174 0.68371 0.60618
 H1196 H 0.33648 0.69357 0.58313
 H1197 H 0.35110 0.67871 0.60969
 H1198 H 0.29617 0.66917 0.63295
 C1199 C 0.31203 0.17013 1.09411
 C1200 C 0.31022 0.18920 1.09334
 C1201 C 0.31689 0.19997 1.10778
 C1202 C 0.32525 0.19172 1.12299
 C1203 C 0.32706 0.17255 1.12396
 C1204 C 0.32039 0.16184 1.10933
 C1205 C 0.30127 0.19780 1.07791
 C1206 C 0.29367 0.20528 1.06520
 C1207 C 0.28464 0.21435 1.05060
 C1208 C 0.27681 0.22236 1.03836
 H1209 H 0.30693 0.16167 1.08299
 H1210 H 0.31549 0.21474 1.10736
 H1211 H 0.33001 0.20032 1.13415
 H1212 H 0.32177 0.14707 1.10959
 C1213 C 0.82779 0.68787 1.09449
 C1214 C 0.80823 0.68922 1.09344
 C1215 C 0.79711 0.68199 1.10749
 C1216 C 0.80548 0.67351 1.12257
 C1217 C 0.82514 0.67215 1.12381
 C1218 C 0.83621 0.67939 1.10958
 C1219 C 0.79952 0.69829 1.07815
 C1220 C 0.79200 0.70601 1.06553
 C1221 C 0.78298 0.71520 1.05099
 C1222 C 0.77509 0.72319 1.03878
 H1223 H 0.83654 0.69341 1.08368
 H1224 H 0.78196 0.68303 1.10687
 H1225 H 0.79659 0.66831 1.13343
 H1226 H 0.85136 0.67838 1.11005
 C1227 C 0.81622 0.19915 0.60877
 C1228 C 0.80967 0.18836 0.59430
 C1229 C 0.81162 0.16929 0.59505
 C1230 C 0.82009 0.16105 0.61024
 C1231 C 0.82672 0.17180 0.62486
 C1232 C 0.82468 0.19095 0.62395
 C1233 C 0.80078 0.19694 0.57882
 C1234 C 0.79328 0.20445 0.56608
 C1235 C 0.78441 0.21357 0.55141
 C1236 C 0.77672 0.22162 0.53912
 H1237 H 0.81470 0.21391 0.60837
 H1238 H 0.80660 0.16081 0.58391
 H1239 H 0.82162 0.14629 0.61048
 H1240 H 0.82940 0.19957 0.63510
 C1241 C 0.67079 0.68604 0.40524
 C1242 C 0.69034 0.68749 0.40642
 C1243 C 0.70160 0.68027 0.39248
 C1244 C 0.69339 0.67172 0.37736
 C1245 C 0.67375 0.67028 0.37597
 C1246 C 0.66254 0.67749 0.39012
 C1247 C 0.69888 0.69671 0.42171
 C1248 C 0.70625 0.70457 0.43431
 C1249 C 0.71512 0.71394 0.44882
 C1250 C 0.72290 0.72208 0.46100
 H1251 H 0.66194 0.69157 0.41597
 H1252 H 0.71674 0.68140 0.39321
 H1253 H 0.70239 0.66656 0.36658
 H1254 H 0.64739 0.67642 0.38954
 C1255 C 0.70304 0.18113 -0.10816
 C1256 C 0.69193 0.18822 -0.09404
 C1257 C 0.67238 0.18681 -0.09503
 C1258 C 0.66394 0.17847 -0.11017
 C1259 C 0.67499 0.17143 -0.12452
 C1260 C 0.69465 0.17278 -0.12330
 C1261 C 0.70064 0.19732 -0.07876
 C1262 C 0.70812 0.20511 -0.06618
 C1263 C 0.71708 0.21441 -0.05168
 C1264 C 0.72492 0.22251 -0.03951
 H1265 H 0.71819 0.18222 -0.10757
 H1266 H 0.66365 0.19225 -0.08415
 H1267 H 0.64879 0.17744 -0.11062
 H1268 H 0.70351 0.16771 -0.13424
 C1269 C 0.17093 0.68850 -0.09370
 C1270 C 0.19048 0.68995 -0.09261
 C1271 C 0.20167 0.68286 -0.10668
 C1272 C 0.19337 0.67445 -0.12183
 C1273 C 0.17372 0.67304 -0.12313
 C1274 C 0.16259 0.68010 -0.10886
 C1275 C 0.19911 0.69902 -0.07727
 C1276 C 0.20653 0.70676 -0.06463
 C1277 C 0.21544 0.71599 -0.05005
 C1278 C 0.22323 0.72401 -0.03780
 H1279 H 0.16214 0.69393 -0.08287
 H1280 H 0.21681 0.68397 -0.10602
 H1281 H 0.20230 0.66937 -0.13271
 H1282 H 0.14745 0.67903 -0.10937
 C1283 C 0.20336 0.18263 0.39350
 C1284 C 0.19222 0.18997 0.40747
 C1285 C 0.17265 0.18870 0.40635
 C1286 C 0.16426 0.18021 0.39127
 C1287 C 0.17536 0.17287 0.37710
 C1288 C 0.19501 0.17413 0.37842
 C1289 C 0.20089 0.19912 0.42274
 C1290 C 0.20835 0.20691 0.43534
 C1291 C 0.21728 0.21620 0.44987
 C1292 C 0.22508 0.22428 0.46208
 H1293 H 0.21852 0.18361 0.39419
 H1294 H 0.16389 0.19434 0.41710
 H1295 H 0.14911 0.17928 0.39074
 H1296 H 0.20393 0.16885 0.36763
 C1297 C 0.31086 0.40717 0.67127
 C1298 C 0.30898 0.40785 0.69034
 C1299 C 0.31566 0.39336 0.70105
 C1300 C 0.32413 0.37823 0.69276
 C1301 C 0.32604 0.37736 0.67360
 C1302 C 0.31934 0.39202 0.66293
 C1303 C 0.29997 0.42323 0.69899
 C1304 C 0.29233 0.43590 0.70650
 C1305 C 0.28326 0.45048 0.71560
 C1306 C 0.27539 0.46271 0.72360
 H1307 H 0.30576 0.41832 0.66284
 H1308 H 0.31419 0.39370 0.71582
 H1309 H 0.32890 0.36705 0.70133
 H1310 H 0.32079 0.39184 0.64817
 C1311 C 0.31010 0.90574 0.17002
 C1312 C 0.30828 0.90677 0.18908
 C1313 C 0.31512 0.89256 0.20005
 C1314 C 0.32371 0.87734 0.19203
 C1315 C 0.32558 0.87613 0.17289
 C1316 C 0.31869 0.89051 0.16195
 C1317 C 0.29922 0.92227 0.19748
 C1318 C 0.29159 0.93503 0.20485
 C1319 C 0.28258 0.94970 0.21385
 C1320 C 0.27482 0.96200 0.22186
 H1321 H 0.30487 0.91668 0.16140
 H1322 H 0.31371 0.89318 0.21482
 H1323 H 0.32861 0.86638 0.20080
 H1324 H 0.32010 0.89005 0.14719
 C1325 C 0.82987 0.40463 0.18696
 C1326 C 0.81031 0.40582 0.18823
 C1327 C 0.79913 0.39187 0.18094
 C1328 C 0.80744 0.37673 0.17249
 C1329 C 0.82709 0.37534 0.17121
 C1330 C 0.83823 0.38948 0.17851
 C1331 C 0.80165 0.42114 0.19731
 C1332 C 0.79417 0.43377 0.20504
 C1333 C 0.78514 0.44829 0.21427
 C1334 C 0.77723 0.46048 0.22230
 H1335 H 0.83866 0.41536 0.19255
 H1336 H 0.78398 0.39261 0.18193
 H1337 H 0.79850 0.36595 0.16725
 H1338 H 0.85338 0.38889 0.17757
 C1339 C 0.79775 0.89231 0.68118
 C1340 C 0.80903 0.90624 0.68838
 C1341 C 0.82857 0.90499 0.68697
 C1342 C 0.83682 0.88981 0.67847
 C1343 C 0.82559 0.87569 0.67127
 C1344 C 0.80595 0.87714 0.67268
 C1345 C 0.80048 0.92162 0.69747
 C1346 C 0.79308 0.93429 0.70521
 C1347 C 0.78415 0.94890 0.71440
 C1348 C 0.77630 0.96115 0.72239
 H1349 H 0.78261 0.89310 0.68227
 H1350 H 0.83744 0.91570 0.69249
 H1351 H 0.85196 0.88918 0.67742
 H1352 H 0.79693 0.86638 0.66752
 C1353 C 0.66995 0.59475 0.68803
 C1354 C 0.68950 0.59359 0.68937
 C1355 C 0.70071 0.60752 0.68205
 C1356 C 0.69244 0.62261 0.67350
 C1357 C 0.67279 0.62398 0.67215
 C1358 C 0.66163 0.60985 0.67947
 C1359 C 0.69812 0.57831 0.69855
 C1360 C 0.70558 0.56571 0.70635
 C1361 C 0.71458 0.55120 0.71562
 C1362 C 0.72248 0.53903 0.72367
 H1363 H 0.66114 0.58403 0.69364
 H1364 H 0.71586 0.60680 0.68310
 H1365 H 0.70140 0.63338 0.66824
 H1366 H 0.64648 0.61042 0.67847
 C1367 C 0.67160 0.09407 0.18651
 C1368 C 0.69114 0.09289 0.18795
 C1369 C 0.70240 0.10685 0.18075
 C1370 C 0.69417 0.12200 0.17225
 C1371 C 0.67454 0.12339 0.17083
 C1372 C 0.66333 0.10922 0.17801
 C1373 C 0.69969 0.07758 0.19713
 C1374 C 0.70706 0.06496 0.20497
 C1375 C 0.71591 0.05042 0.21433
 C1376 C 0.72365 0.03822 0.22247
 H1377 H 0.66275 0.08333 0.19202
 H1378 H 0.71754 0.10612 0.18187
 H1379 H 0.70317 0.13279 0.16711
 H1380 H 0.64819 0.10981 0.17695
 C1381 C 0.17041 0.59391 0.18808
 C1382 C 0.18995 0.59272 0.18949
 C1383 C 0.20120 0.60667 0.18223
 C1384 C 0.19296 0.62178 0.17369
 C1385 C 0.17332 0.62317 0.17229
 C1386 C 0.16212 0.60903 0.17954
 C1387 C 0.19853 0.57741 0.19864
 C1388 C 0.20596 0.56478 0.20641
 C1389 C 0.21493 0.55023 0.21565
 C1390 C 0.22281 0.53802 0.22366
 H1391 H 0.16157 0.58318 0.19364
 H1392 H 0.21634 0.60593 0.18332
 H1393 H 0.20195 0.63256 0.16849
 H1394 H 0.14698 0.60962 0.17850
 C1395 C 0.17151 0.09466 0.68773
 C1396 C 0.19105 0.09339 0.68917
 C1397 C 0.20238 0.10730 0.68198
 C1398 C 0.19423 0.12248 0.67347
 C1399 C 0.17460 0.12397 0.67205
 C1400 C 0.16332 0.10985 0.67923
 C1401 C 0.19953 0.07802 0.69833
 C1402 C 0.20686 0.06535 0.70614
 C1403 C 0.21570 0.05076 0.71542
 C1404 C 0.22347 0.03851 0.72347
 H1405 H 0.16261 0.08396 0.69324
 H1406 H 0.21751 0.10649 0.68309
 H1407 H 0.20328 0.13324 0.66833
 H1408 H 0.14818 0.11052 0.67817
 C1409 C 0.32780 0.59345 0.31359
 C1410 C 0.30825 0.59250 0.31207
 C1411 C 0.29714 0.60668 0.31903
 C1412 C 0.30552 0.62184 0.32736
 C1413 C 0.32517 0.62303 0.32882
 C1414 C 0.33622 0.60862 0.32191
 C1415 C 0.29956 0.57721 0.30298
 C1416 C 0.29210 0.56461 0.29518
 C1417 C 0.28319 0.55011 0.28585
 C1418 C 0.27542 0.53793 0.27769
 H1419 H 0.33653 0.58254 0.30825
 H1420 H 0.28200 0.60612 0.31785
 H1421 H 0.29665 0.63282 0.33231
 H1422 H 0.35137 0.60904 0.32302
 C1423 C 0.31624 0.10768 0.79990
 C1424 C 0.30958 0.09321 0.81065
 C1425 C 0.31147 0.09391 0.82972
 C1426 C 0.31993 0.10908 0.83802
 C1427 C 0.32661 0.12373 0.82731
 C1428 C 0.32469 0.12284 0.80815
 C1429 C 0.30057 0.07781 0.80205
 C1430 C 0.29293 0.06514 0.79456
 C1431 C 0.28386 0.05056 0.78547
 C1432 C 0.27600 0.03835 0.77747
 H1433 H 0.31477 0.10732 0.78514
 H1434 H 0.30638 0.08277 0.83817
 H1435 H 0.32139 0.10929 0.85277
 H1436 H 0.32944 0.13401 0.79956
 C1437 C 0.82770 0.59496 0.81310
 C1438 C 0.80814 0.59396 0.81171
 C1439 C 0.79705 0.60809 0.81882
 C1440 C 0.80546 0.62322 0.82717
 C1441 C 0.82512 0.62443 0.82853
 C1442 C 0.83615 0.61009 0.82145
 C1443 C 0.79942 0.57866 0.80266
 C1444 C 0.79194 0.56604 0.79491
 C1445 C 0.78300 0.55149 0.78565
 C1446 C 0.77521 0.53927 0.77758
 H1447 H 0.83642 0.58409 0.80765
 H1448 H 0.78190 0.60750 0.81773
 H1449 H 0.79660 0.63416 0.83223
 H1450 H 0.85130 0.61054 0.82246
 C1451 C 0.82888 0.09346 0.31238
 C1452 C 0.80932 0.09246 0.31100
 C1453 C 0.79823 0.10653 0.31824
 C1454 C 0.80663 0.12158 0.32672
 C1455 C 0.82629 0.12279 0.32807
 C1456 C 0.83733 0.10853 0.32085
 C1457 C 0.80058 0.07724 0.30185
 C1458 C 0.79305 0.06469 0.29405
 C1459 C 0.78402 0.05023 0.28475
 C1460 C 0.77612 0.03808 0.27667
 H1461 H 0.83760 0.08264 0.30683
 H1462 H 0.78307 0.10593 0.31717
 H1463 H 0.79777 0.13246 0.33190
 H1464 H 0.85248 0.10897 0.32187
 C1465 C 0.67235 0.40420 0.31207
 C1466 C 0.69190 0.40541 0.31065
 C1467 C 0.70315 0.39149 0.31790
 C1468 C 0.69492 0.37637 0.32647
 C1469 C 0.67528 0.37496 0.32789
 C1470 C 0.66408 0.38907 0.32063
 C1471 C 0.70046 0.42073 0.30148
 C1472 C 0.70785 0.43337 0.29367
 C1473 C 0.71674 0.44793 0.28437
 C1474 C 0.72452 0.46017 0.27629
 H1475 H 0.66350 0.41491 0.30651
 H1476 H 0.71829 0.39224 0.31680
 H1477 H 0.70392 0.36561 0.33167
 H1478 H 0.64893 0.38847 0.32169
 C1479 C 0.67107 0.90588 0.81242
 C1480 C 0.69063 0.90692 0.81095
 C1481 C 0.70177 0.89287 0.81813
 C1482 C 0.69341 0.87776 0.82662
 C1483 C 0.67376 0.87650 0.82802
 C1484 C 0.66268 0.89078 0.82090
 C1485 C 0.69929 0.92216 0.80173
 C1486 C 0.70673 0.93473 0.79385
 C1487 C 0.71566 0.94921 0.78445
 C1488 C 0.72347 0.96137 0.77628
 H1489 H 0.66232 0.91669 0.80692
 H1490 H 0.71691 0.89349 0.81700
 H1491 H 0.70230 0.86689 0.83174
 H1492 H 0.64753 0.89030 0.82197
 C1493 C 0.17129 0.40654 0.81394
 C1494 C 0.19083 0.40772 0.81237
 C1495 C 0.20211 0.39366 0.81933
 C1496 C 0.19390 0.37841 0.82769
 C1497 C 0.17426 0.37701 0.82919
 C1498 C 0.16305 0.39129 0.82229
 C1499 C 0.19934 0.42310 0.80325
 C1500 C 0.20665 0.43578 0.79542
 C1501 C 0.21543 0.45038 0.78607
 C1502 C 0.22312 0.46263 0.77793
 H1503 H 0.16243 0.41736 0.80860
 H1504 H 0.21724 0.39439 0.81811
 H1505 H 0.20290 0.36753 0.83262
 H1506 H 0.14791 0.39069 0.82342
 C1507 C 0.16999 0.90585 0.31121
 C1508 C 0.18954 0.90714 0.30987
 C1509 C 0.20082 0.89325 0.31714
 C1510 C 0.19262 0.87809 0.32565
 C1511 C 0.17298 0.87659 0.32700
 C1512 C 0.16175 0.89067 0.31972
 C1513 C 0.19809 0.92253 0.30078
 C1514 C 0.20551 0.93521 0.29306
 C1515 C 0.21448 0.94981 0.28389
 C1516 C 0.22237 0.96205 0.27592
 H1517 H 0.16112 0.91653 0.30564
 H1518 H 0.21596 0.89407 0.31610
 H1519 H 0.20164 0.86736 0.33087
 H1520 H 0.14660 0.89000 0.32072
 C1521 C 0.40529 0.31262 0.67145
 C1522 C 0.40594 0.31091 0.69053
 C1523 C 0.39128 0.31788 0.70121
 C1524 C 0.37600 0.32648 0.69288
 C1525 C 0.37517 0.32824 0.67370
 C1526 C 0.39000 0.32122 0.66307
 C1527 C 0.42148 0.30180 0.69921
 C1528 C 0.43430 0.29408 0.70670
 C1529 C 0.44909 0.28492 0.71571
 C1530 C 0.46154 0.27699 0.72357
 H1531 H 0.41657 0.30728 0.66305
 H1532 H 0.39160 0.31655 0.71599
 H1533 H 0.36468 0.33149 0.70142
 H1534 H 0.38984 0.32254 0.64830
 C1535 C 0.40523 0.81177 0.17196
 C1536 C 0.40577 0.81018 0.19105
 C1537 C 0.39106 0.81725 0.20161
 C1538 C 0.37582 0.82578 0.19313
 C1539 C 0.37508 0.82735 0.17393
 C1540 C 0.38999 0.82030 0.16343
 C1541 C 0.42120 0.80101 0.19985
 C1542 C 0.43393 0.79321 0.20740
 C1543 C 0.44862 0.78393 0.21644
 C1544 C 0.46099 0.77588 0.22430
 H1545 H 0.41656 0.80636 0.16366
 H1546 H 0.39129 0.81602 0.21640
 H1547 H 0.36444 0.83084 0.20157
 H1548 H 0.38992 0.82149 0.14865
 C1549 C 0.89194 0.29835 0.18199
 C1550 C 0.90655 0.30892 0.18919
 C1551 C 0.90600 0.32802 0.18758
 C1552 C 0.89085 0.33652 0.17887
 C1553 C 0.87605 0.32600 0.17166
 C1554 C 0.87680 0.30681 0.17328
 C1555 C 0.92191 0.30014 0.19849
 C1556 C 0.93461 0.29263 0.20640
 C1557 C 0.94927 0.28365 0.21577
 C1558 C 0.96163 0.27585 0.22389
 H1559 H 0.89218 0.28356 0.18323
 H1560 H 0.91725 0.33633 0.19309
 H1561 H 0.89076 0.35130 0.17767
 H1562 H 0.86549 0.29836 0.16812
 C1563 C 0.89045 0.79858 0.68138
 C1564 C 0.90515 0.80912 0.68845
 C1565 C 0.90460 0.82822 0.68689
 C1566 C 0.88936 0.83676 0.67837
 C1567 C 0.87447 0.82627 0.67129
 C1568 C 0.87522 0.80707 0.67286
 C1569 C 0.92062 0.80030 0.69755
 C1570 C 0.93339 0.79274 0.70529
 C1571 C 0.94814 0.78370 0.71448
 C1572 C 0.96056 0.77585 0.72247
 H1573 H 0.89069 0.78378 0.68259
 H1574 H 0.91592 0.83651 0.69231
 H1575 H 0.88927 0.85154 0.67721
 H1576 H 0.86385 0.79864 0.66780
 C1577 C 0.61030 0.29792 0.31802
 C1578 C 0.59562 0.30846 0.31090
 C1579 C 0.59620 0.32756 0.31239
 C1580 C 0.61145 0.33610 0.32089
 C1581 C 0.62631 0.32562 0.32803
 C1582 C 0.62554 0.30642 0.32653
 C1583 C 0.58014 0.29963 0.30184
 C1584 C 0.56736 0.29204 0.29414
 C1585 C 0.55260 0.28295 0.28502
 C1586 C 0.54018 0.27502 0.27712
 H1587 H 0.61003 0.28312 0.31687
 H1588 H 0.58490 0.33585 0.30694
 H1589 H 0.61156 0.35089 0.32201
 H1590 H 0.63689 0.29798 0.33163
 C1591 C 0.59430 0.81191 0.82925
 C1592 C 0.59374 0.81024 0.81016
 C1593 C 0.60846 0.81722 0.79956
 C1594 C 0.62372 0.82579 0.80799
 C1595 C 0.62446 0.82748 0.82717
 C1596 C 0.60956 0.82047 0.83772
 C1597 C 0.57824 0.80113 0.80141
 C1598 C 0.56544 0.79342 0.79388
 C1599 C 0.55066 0.78427 0.78485
 C1600 C 0.53821 0.77636 0.77697
 H1601 H 0.58297 0.80656 0.83759
 H1602 H 0.60822 0.81593 0.78478
 H1603 H 0.63509 0.83079 0.79951
 H1604 H 0.60964 0.82174 0.85250
 C1605 C 0.10948 0.30009 0.81707
 C1606 C 0.09482 0.31076 0.81012
 C1607 C 0.09538 0.32983 0.81197
 C1608 C 0.11058 0.33822 0.82070
 C1609 C 0.12542 0.32760 0.82769
 C1610 C 0.12468 0.30843 0.82580
 C1611 C 0.07936 0.30206 0.80091
 C1612 C 0.06660 0.29451 0.79314
 C1613 C 0.05190 0.28539 0.78397
 C1614 C 0.03954 0.27738 0.77607
 H1615 H 0.10923 0.28532 0.81564
 H1616 H 0.08408 0.33821 0.80665
 H1617 H 0.11067 0.35298 0.82212
 H1618 H 0.13601 0.29991 0.83078
 C1619 C 0.09410 0.82886 0.31136
 C1620 C 0.09359 0.80975 0.30989
 C1621 C 0.10831 0.79928 0.31702
 C1622 C 0.12351 0.80784 0.32553
 C1623 C 0.12421 0.82705 0.32702
 C1624 C 0.10931 0.83747 0.31986
 C1625 C 0.07816 0.80086 0.30083
 C1626 C 0.06540 0.79323 0.29313
 C1627 C 0.05067 0.78410 0.28399
 C1628 C 0.03827 0.77616 0.27607
 H1629 H 0.08278 0.83711 0.30589
 H1630 H 0.10811 0.78448 0.31588
 H1631 H 0.13489 0.79946 0.33065
 H1632 H 0.10936 0.85226 0.32097
 C1633 C 0.60776 0.70090 0.68241
 C1634 C 0.59314 0.69032 0.68962
 C1635 C 0.59373 0.67122 0.68809
 C1636 C 0.60893 0.66271 0.67946
 C1637 C 0.62375 0.67323 0.67224
 C1638 C 0.62296 0.69243 0.67377
 C1639 C 0.57772 0.69911 0.69886
 C1640 C 0.56499 0.70666 0.70669
 C1641 C 0.55030 0.71572 0.71598
 C1642 C 0.53793 0.72363 0.72400
 H1643 H 0.60748 0.71569 0.68360
 H1644 H 0.58247 0.66291 0.69361
 H1645 H 0.60905 0.64793 0.67832
 H1646 H 0.63427 0.70088 0.66861
 C1647 C 0.60962 0.20023 0.18181
 C1648 C 0.59501 0.18958 0.18894
 C1649 C 0.59557 0.17050 0.18715
 C1650 C 0.61074 0.16209 0.17839
 C1651 C 0.62556 0.17267 0.17128
 C1652 C 0.62480 0.19185 0.17303
 C1653 C 0.57965 0.19826 0.19835
 C1654 C 0.56696 0.20569 0.20635
 C1655 C 0.55230 0.21460 0.21583
 C1656 C 0.53996 0.22240 0.22400
 H1657 H 0.60937 0.21500 0.18319
 H1658 H 0.58432 0.16213 0.19261
 H1659 H 0.61085 0.14731 0.17707
 H1660 H 0.63611 0.20036 0.16796
 C1661 C 0.09420 0.67055 0.18800
 C1662 C 0.09364 0.68965 0.18953
 C1663 C 0.10835 0.70019 0.18244
 C1664 C 0.12360 0.69169 0.17391
 C1665 C 0.12434 0.67250 0.17236
 C1666 C 0.10945 0.66201 0.17948
 C1667 C 0.07816 0.69849 0.19860
 C1668 C 0.06538 0.70609 0.20630
 C1669 C 0.05064 0.71521 0.21544
 C1670 C 0.03823 0.72316 0.22336
 H1671 H 0.08288 0.66226 0.19343
 H1672 H 0.10810 0.71498 0.18363
 H1673 H 0.13497 0.70013 0.16884
 H1674 H 0.10955 0.64722 0.17832
 C1675 C 0.09570 0.17147 0.68809
 C1676 C 0.09520 0.19056 0.68976
 C1677 C 0.10991 0.20112 0.68272
 C1678 C 0.12513 0.19265 0.67410
 C1679 C 0.12582 0.17346 0.67241
 C1680 C 0.11092 0.16296 0.67947
 C1681 C 0.07975 0.19936 0.69893
 C1682 C 0.06698 0.20692 0.70670
 C1683 C 0.05224 0.21599 0.71589
 C1684 C 0.03982 0.22392 0.72382
 H1685 H 0.08437 0.16317 0.69347
 H1686 H 0.10971 0.21591 0.68402
 H1687 H 0.13651 0.20109 0.66907
 H1688 H 0.11097 0.14818 0.67821
 C1689 C 0.40475 0.68751 0.32947
 C1690 C 0.40538 0.68897 0.31036
 C1691 C 0.39071 0.68185 0.29982
 C1692 C 0.37543 0.67338 0.30831
 C1693 C 0.37460 0.67191 0.32752
 C1694 C 0.38946 0.67904 0.33801
 C1695 C 0.42088 0.69802 0.30154
 C1696 C 0.43368 0.70572 0.29395
 C1697 C 0.44845 0.71486 0.28486
 C1698 C 0.46087 0.72278 0.27694
 H1699 H 0.41603 0.69296 0.33777
 H1700 H 0.39101 0.68299 0.28502
 H1701 H 0.36408 0.66828 0.29987
 H1702 H 0.38931 0.67795 0.35280
 C1703 C 0.39160 0.18334 0.79938
 C1704 C 0.40625 0.19039 0.81000
 C1705 C 0.40562 0.18874 0.82909
 C1706 C 0.39038 0.18011 0.83754
 C1707 C 0.37556 0.17301 0.82697
 C1708 C 0.37637 0.17471 0.80779
 C1709 C 0.42175 0.19951 0.80123
 C1710 C 0.43453 0.20723 0.79365
 C1711 C 0.44928 0.21637 0.78452
 C1712 C 0.46167 0.22428 0.77655
 H1713 H 0.39190 0.18461 0.78460
 H1714 H 0.41690 0.19415 0.83744
 H1715 H 0.39024 0.17885 0.85232
 H1716 H 0.36506 0.16963 0.79929
 C1717 C 0.90443 0.67099 0.81133
 C1718 C 0.90520 0.69007 0.80968
 C1719 C 0.89070 0.70082 0.81685
 C1720 C 0.87545 0.69255 0.82559
 C1721 C 0.87449 0.67337 0.82728
 C1722 C 0.88917 0.66267 0.82007
 C1723 C 0.92071 0.69870 0.80043
 C1724 C 0.93350 0.70616 0.79261
 C1725 C 0.94826 0.71518 0.78337
 C1726 C 0.96066 0.72309 0.77541
 H1727 H 0.91559 0.66254 0.80584
 H1728 H 0.89112 0.71560 0.81557
 H1729 H 0.86424 0.70114 0.83074
 H1730 H 0.88892 0.64789 0.82132
 C1731 C 0.90570 0.18748 0.32965
 C1732 C 0.90626 0.18931 0.31058
 C1733 C 0.89157 0.18235 0.29995
 C1734 C 0.87634 0.17367 0.30834
 C1735 C 0.87560 0.17182 0.32751
 C1736 C 0.89047 0.17880 0.33808
 C1737 C 0.92172 0.19854 0.30186
 C1738 C 0.93449 0.20635 0.29435
 C1739 C 0.94923 0.21559 0.28531
 C1740 C 0.96163 0.22355 0.27738
 H1741 H 0.91701 0.19280 0.33801
 H1742 H 0.89181 0.18377 0.28518
 H1743 H 0.86498 0.16870 0.29984
 H1744 H 0.89039 0.17742 0.35285
 C1745 C 0.32914 0.31403 0.59491
 C1746 C 0.30960 0.31250 0.59376
 C1747 C 0.29833 0.31946 0.60784
 C1748 C 0.30654 0.32782 0.62307
 C1749 C 0.32618 0.32932 0.62444
 C1750 C 0.33739 0.32239 0.61015
 C1751 C 0.30107 0.30344 0.57836
 C1752 C 0.29374 0.29569 0.56566
 C1753 C 0.28493 0.28644 0.55103
 C1754 C 0.27722 0.27838 0.53876
 H1755 H 0.33799 0.30870 0.58409
 H1756 H 0.28320 0.31826 0.60713
 H1757 H 0.29755 0.33276 0.63396
 H1758 H 0.35253 0.32351 0.61072
 C1759 C 0.31591 0.79982 0.10849
 C1760 C 0.30916 0.81057 0.09407
 C1761 C 0.31094 0.82965 0.09483
 C1762 C 0.31938 0.83795 0.11000
 C1763 C 0.32615 0.82725 0.12460
 C1764 C 0.32435 0.80807 0.12365
 C1765 C 0.30017 0.80197 0.07866
 C1766 C 0.29254 0.79452 0.06596
 C1767 C 0.28348 0.78551 0.05133
 C1768 C 0.27563 0.77759 0.03904
 H1769 H 0.31452 0.78504 0.10808
 H1770 H 0.30578 0.83811 0.08373
 H1771 H 0.32073 0.85272 0.11026
 H1772 H 0.32915 0.79948 0.13479
 C1773 C 0.82996 0.31182 0.09281
 C1774 C 0.81041 0.31043 0.09167
 C1775 C 0.79920 0.31748 0.10575
 C1776 C 0.80748 0.32578 0.12097
 C1777 C 0.82713 0.32714 0.12232
 C1778 C 0.83828 0.32012 0.10804
 C1779 C 0.80179 0.30143 0.07629
 C1780 C 0.79436 0.29374 0.06362
 C1781 C 0.78541 0.28454 0.04905
 C1782 C 0.77758 0.27652 0.03683
 H1783 H 0.83876 0.30642 0.08198
 H1784 H 0.78405 0.31640 0.10504
 H1785 H 0.79853 0.33081 0.13185
 H1786 H 0.85343 0.32115 0.10860
 C1787 C 0.79713 0.81780 0.60595
 C1788 C 0.80825 0.81073 0.59182
 C1789 C 0.82781 0.81215 0.59282
 C1790 C 0.83623 0.82049 0.60798
 C1791 C 0.82517 0.82751 0.62233
 C1792 C 0.80551 0.82614 0.62110
 C1793 C 0.79955 0.80166 0.57652
 C1794 C 0.79208 0.79389 0.56392
 C1795 C 0.78313 0.78459 0.54941
 C1796 C 0.77532 0.77648 0.53724
 H1797 H 0.78198 0.81670 0.60535
 H1798 H 0.83654 0.80674 0.58195
 H1799 H 0.85138 0.82152 0.60843
 H1800 H 0.79663 0.83118 0.63204
 C1801 C 0.29755 0.68230 0.39314
 C1802 C 0.30877 0.68957 0.40707
 C1803 C 0.32831 0.68811 0.40593
 C1804 C 0.33663 0.67949 0.39086
 C1805 C 0.32546 0.67222 0.37673
 C1806 C 0.30582 0.67369 0.37807
 C1807 C 0.30016 0.69878 0.42234
 C1808 C 0.29271 0.70661 0.43493
 C1809 C 0.28372 0.71592 0.44944
 C1810 C 0.27585 0.72399 0.46161
 H1811 H 0.28241 0.68344 0.39384
 H1812 H 0.33713 0.69367 0.41665
 H1813 H 0.35177 0.67840 0.39030
 H1814 H 0.29686 0.66848 0.36730
 C1815 C 0.32940 0.18731 0.90578
 C1816 C 0.30985 0.18877 0.90693
 C1817 C 0.29864 0.18173 0.89288
 C1818 C 0.30691 0.17336 0.87767
 C1819 C 0.32655 0.17192 0.87631
 C1820 C 0.33771 0.17894 0.89057
 C1821 C 0.30125 0.19782 0.92231
 C1822 C 0.29384 0.20555 0.93499
 C1823 C 0.28492 0.21476 0.94959
 C1824 C 0.27709 0.22277 0.96185
 H1825 H 0.33821 0.19270 0.91659
 H1826 H 0.28350 0.18287 0.89358
 H1827 H 0.29795 0.16835 0.86680
 H1828 H 0.35285 0.17787 0.89000
 C1829 C 0.81060 0.67093 0.90664
 C1830 C 0.80880 0.69000 0.90740
 C1831 C 0.81552 0.70076 0.89295
 C1832 C 0.82393 0.69250 0.87776
 C1833 C 0.82573 0.67333 0.87680
 C1834 C 0.81901 0.66263 0.89144
 C1835 C 0.79978 0.69860 0.92281
 C1836 C 0.79211 0.70606 0.93549
 C1837 C 0.78298 0.71509 0.95009
 C1838 C 0.77506 0.72304 0.96232
 H1839 H 0.80545 0.66247 0.91776
 H1840 H 0.81412 0.71553 0.89336
 H1841 H 0.82871 0.70110 0.86660
 H1842 H 0.82038 0.64786 0.89119
 C1843 C 0.79877 0.18073 0.39359
 C1844 C 0.81001 0.18778 0.40762
 C1845 C 0.82956 0.18640 0.40639
 C1846 C 0.83784 0.17808 0.39113
 C1847 C 0.82665 0.17104 0.37691
 C1848 C 0.80701 0.17242 0.37834
 C1849 C 0.80142 0.19676 0.42304
 C1850 C 0.79400 0.20443 0.43574
 C1851 C 0.78507 0.21363 0.45034
 C1852 C 0.77726 0.22168 0.46258
 H1853 H 0.78362 0.18182 0.39435
 H1854 H 0.83839 0.19180 0.41718
 H1855 H 0.85299 0.17705 0.39051
 H1856 H 0.79803 0.16739 0.36750
 C1857 C 0.67290 0.31172 0.40659
 C1858 C 0.69246 0.31028 0.40761
 C1859 C 0.70360 0.31727 0.39345
 C1860 C 0.69524 0.32556 0.37825
 C1861 C 0.67559 0.32695 0.37701
 C1862 C 0.66451 0.32001 0.39139
 C1863 C 0.70113 0.30125 0.42294
 C1864 C 0.70856 0.29351 0.43559
 C1865 C 0.71744 0.28423 0.45015
 C1866 C 0.72518 0.27612 0.46238
 H1867 H 0.66415 0.30637 0.41748
 H1868 H 0.71874 0.31614 0.39406
 H1869 H 0.70413 0.33054 0.36730
 H1870 H 0.64936 0.32107 0.39092
 C1871 C 0.67023 0.81228 0.90594
 C1872 C 0.68977 0.81085 0.90721
 C1873 C 0.70109 0.81800 0.89326
 C1874 C 0.69293 0.82646 0.87806
 C1875 C 0.67330 0.82787 0.87658
 C1876 C 0.66203 0.82073 0.89073
 C1877 C 0.69826 0.80175 0.92261
 C1878 C 0.70560 0.79400 0.93530
 C1879 C 0.71445 0.78478 0.94992
 C1880 C 0.72224 0.77676 0.96219
 H1881 H 0.66134 0.80681 0.91666
 H1882 H 0.71623 0.81689 0.89406
 H1883 H 0.70198 0.83157 0.86728
 H1884 H 0.64689 0.82180 0.89008
 C1885 C 0.18470 0.29996 0.89274
 C1886 C 0.19129 0.31057 0.90733
 C1887 C 0.18940 0.32964 0.90680
 C1888 C 0.18098 0.33808 0.89169
 C1889 C 0.17435 0.32752 0.87693
 C1890 C 0.17629 0.30835 0.87765
 C1891 C 0.20022 0.30181 0.92269
 C1892 C 0.20779 0.29419 0.93533
 C1893 C 0.21678 0.28497 0.94987
 C1894 C 0.22458 0.27686 0.96206
 H1895 H 0.18618 0.28519 0.89298
 H1896 H 0.19444 0.33798 0.91803
 H1897 H 0.17950 0.35285 0.89162
 H1898 H 0.17159 0.29987 0.86639
 C1899 C 0.17068 0.81330 0.40567
 C1900 C 0.19024 0.81194 0.40673
 C1901 C 0.20138 0.81899 0.39261
 C1902 C 0.19302 0.82726 0.37740
 C1903 C 0.17337 0.82857 0.37611
 C1904 C 0.16228 0.82156 0.39046
 C1905 C 0.19891 0.80293 0.42208
 C1906 C 0.20637 0.79522 0.43473
 C1907 C 0.21531 0.78599 0.44930
 C1908 C 0.22311 0.77794 0.46152
 H1909 H 0.16192 0.80790 0.41654
 H1910 H 0.21653 0.81793 0.39325
 H1911 H 0.20192 0.83228 0.36647
 H1912 H 0.14713 0.82256 0.38996
 C1913 C 0.67019 0.68722 0.59347
 C1914 C 0.68975 0.68866 0.59237
 C1915 C 0.70091 0.68167 0.60650
 C1916 C 0.69257 0.67340 0.62173
 C1917 C 0.67292 0.67200 0.62304
 C1918 C 0.66182 0.67895 0.60871
 C1919 C 0.69841 0.69763 0.57698
 C1920 C 0.70587 0.70530 0.56429
 C1921 C 0.71484 0.71447 0.54969
 C1922 C 0.72269 0.72247 0.53744
 H1923 H 0.66142 0.69257 0.58260
 H1924 H 0.71605 0.68279 0.60582
 H1925 H 0.70149 0.66842 0.63265
 H1926 H 0.64667 0.67789 0.60923
 C1927 C 0.70290 0.18155 0.10573
 C1928 C 0.69178 0.18864 0.09163
 C1929 C 0.67222 0.18726 0.09268
 C1930 C 0.66380 0.17892 0.10785
 C1931 C 0.67486 0.17185 0.12216
 C1932 C 0.69451 0.17321 0.12090
 C1933 C 0.70050 0.19766 0.07629
 C1934 C 0.70801 0.20536 0.06365
 C1935 C 0.71702 0.21456 0.04909
 C1936 C 0.72488 0.22259 0.03687
 H1937 H 0.71805 0.18263 0.10509
 H1938 H 0.66349 0.19270 0.08183
 H1939 H 0.64865 0.17789 0.10834
 H1940 H 0.70339 0.16814 0.13180
 C1941 C 0.20164 0.68128 0.10697
 C1942 C 0.19050 0.68837 0.09288
 C1943 C 0.17096 0.68683 0.09388
 C1944 C 0.16256 0.67838 0.10900
 C1945 C 0.17363 0.67136 0.12332
 C1946 C 0.19328 0.67282 0.12209
 C1947 C 0.19917 0.69762 0.07766
 C1948 C 0.20660 0.70555 0.06512
 C1949 C 0.21551 0.71502 0.05068
 C1950 C 0.22329 0.72327 0.03856
 H1951 H 0.21678 0.68247 0.10638
 H1952 H 0.16221 0.69227 0.08304
 H1953 H 0.14741 0.67727 0.10946
 H1954 H 0.20217 0.66778 0.13300
 C1955 C 0.17248 0.18799 0.59395
 C1956 C 0.19204 0.18941 0.59291
 C1957 C 0.20315 0.18223 0.60697
 C1958 C 0.19477 0.17379 0.62208
 C1959 C 0.17511 0.17243 0.62335
 C1960 C 0.16406 0.17956 0.60906
 C1961 C 0.20073 0.19860 0.57766
 C1962 C 0.20819 0.20647 0.56509
 C1963 C 0.21713 0.21586 0.55062
 C1964 C 0.22495 0.22403 0.53846
 H1965 H 0.16374 0.19350 0.58313
 H1966 H 0.21830 0.18333 0.60635
 H1967 H 0.20365 0.16867 0.63297
 H1968 H 0.14891 0.17853 0.60954
   
