data_POSCAR
  _audit_creation_date              2014-09-24
  _audit_creation_method            'ToBaCCo'
  _symmetry_space_group_name_H-M    'P1'
  _symmetry_Int_Tables_number       1
  _symmetry_cell_setting            triclinic
  loop_
  _symmetry_equiv_pos_as_xyz
 x,y,z
_cell_length_a 61.6599
_cell_length_b 61.4391
_cell_length_c 53.5308
_cell_angle_alpha 90.337900
_cell_angle_beta 89.779000
_cell_angle_gamma 89.676200
loop_
  _atom_site_label
  _atom_site_type_symbol
  _atom_site_fract_x
  _atom_site_fract_y
  _atom_site_fract_z
C1 C 0.33709 -0.03001 0.25249
 C2 C 0.34927 -0.01243 0.24361
 C3 C 0.36383 -0.01548 0.22382
 C4 C 0.36659 -0.03603 0.21278
 C5 C 0.35448 -0.05358 0.22181
 C6 C 0.33961 -0.05100 0.24185
 C7 C 0.34906 0.00867 0.25675
 C8 C 0.36304 0.01170 0.27702
 C9 C 0.36585 0.03242 0.28807
 C10 C 0.35390 0.04998 0.27811
 C11 C 0.33977 0.04710 0.25782
 C12 C 0.33734 0.02633 0.24724
 H13 H 0.32669 -0.02737 0.26857
 H14 H 0.37361 -0.00192 0.21764
 H15 H 0.37277 -0.00209 0.28278
 H16 H 0.32698 0.02406 0.23113
 H17 H 0.35604 -0.06904 0.21216
 H18 H 0.35473 0.06597 0.28660
 C19 C 0.16489 -0.02500 0.74494
 C20 C 0.15328 -0.00733 0.75511
 C21 C 0.13984 -0.01041 0.77592
 C22 C 0.13752 -0.03112 0.78652
 C23 C 0.14917 -0.04870 0.77619
 C24 C 0.16288 -0.04580 0.75543
 C25 C 0.15247 0.01367 0.74205
 C26 C 0.13853 0.01586 0.72163
 C27 C 0.13494 0.03625 0.71027
 C28 C 0.14611 0.05437 0.72004
 C29 C 0.16031 0.05231 0.74043
 C30 C 0.16341 0.03186 0.75140
 H31 H 0.17480 -0.02272 0.72842
 H32 H 0.13032 0.00318 0.78303
 H33 H 0.12943 0.00167 0.71595
 H34 H 0.17384 0.03019 0.76754
 H35 H 0.14773 -0.06468 0.78447
 H36 H 0.14469 0.07012 0.71125
 C37 C 0.66659 0.47165 0.24589
 C38 C 0.65535 0.48961 0.25592
 C39 C 0.64228 0.48703 0.27715
 C40 C 0.63997 0.46654 0.28828
 C41 C 0.65125 0.44867 0.27808
 C42 C 0.66462 0.45108 0.25694
 C43 C 0.65495 0.51054 0.24272
 C44 C 0.64175 0.51273 0.22165
 C45 C 0.63887 0.53307 0.21031
 C46 C 0.64969 0.55121 0.22016
 C47 C 0.66322 0.54919 0.24114
 C48 C 0.66576 0.52874 0.25241
 H49 H 0.67632 0.47357 0.22915
 H50 H 0.63311 0.50086 0.28425
 H51 H 0.63297 0.49869 0.21479
 H52 H 0.67564 0.52709 0.26899
 H53 H 0.64986 0.43287 0.28681
 H54 H 0.64786 0.56690 0.21124
 C55 C 0.83525 0.47382 0.75000
 C56 C 0.85136 0.48891 0.74381
 C57 C 0.86735 0.48337 0.72622
 C58 C 0.86735 0.46293 0.71441
 C59 C 0.85104 0.44802 0.72050
 C60 C 0.83503 0.45325 0.73836
 C61 C 0.85233 0.51035 0.75614
 C62 C 0.86859 0.51432 0.77378
 C63 C 0.87143 0.53520 0.78441
 C64 C 0.85757 0.55208 0.77625
 C65 C 0.84142 0.54832 0.75828
 C66 C 0.83859 0.52728 0.74863
 H67 H 0.82306 0.47802 0.76387
 H68 H 0.87964 0.49522 0.72149
 H69 H 0.87844 0.50064 0.77957
 H70 H 0.82646 0.52431 0.73442
 H71 H 0.85123 0.43200 0.71191
 H72 H 0.85973 0.56856 0.78297
 C73 C 0.24880 0.38759 1.03504
 C74 C 0.25776 0.40041 1.01610
 C75 C 0.27632 0.41266 1.02072
 C76 C 0.28603 0.41247 1.04433
 C77 C 0.27714 0.39938 1.06317
 C78 C 0.25858 0.38644 1.05883
 C79 C 0.24773 0.40098 0.99126
 C80 C 0.22823 0.41228 0.98792
 C81 C 0.21843 0.41319 0.96432
 C82 C 0.22848 0.40252 0.94402
 C83 C 0.24800 0.39088 0.94722
 C84 C 0.25764 0.39038 0.97095
 H85 H 0.23493 0.37767 1.03040
 H86 H 0.28325 0.42225 1.00578
 H87 H 0.22088 0.42062 1.00375
 H88 H 0.27277 0.38168 0.97371
 H89 H 0.28436 0.40018 1.08153
 H90 H 0.22061 0.40251 0.92596
 C91 C 0.75454 0.10803 1.03118
 C92 C 0.74590 0.09517 1.01198
 C93 C 0.72805 0.08188 1.01661
 C94 C 0.71872 0.08113 1.04050
 C95 C 0.72748 0.09403 1.05968
 C96 C 0.74527 0.10801 1.05536
 C97 C 0.75539 0.09592 0.98678
 C98 C 0.77356 0.08308 0.98106
 C99 C 0.78328 0.08404 0.95733
 C100 C 0.77455 0.09822 0.93942
 C101 C 0.75636 0.11134 0.94503
 C102 C 0.74671 0.10990 0.96876
 H103 H 0.76777 0.11879 1.02655
 H104 H 0.72125 0.07243 1.00141
 H105 H 0.78039 0.07272 0.99538
 H106 H 0.73289 0.12010 0.97353
 H107 H 0.72074 0.09238 1.07824
 H108 H 0.78183 0.09894 0.92100
 C109 C 0.25782 0.60622 0.52958
 C110 C 0.24862 0.59453 0.50982
 C111 C 0.22985 0.58239 0.51378
 C112 C 0.21995 0.58189 0.53744
 C113 C 0.22926 0.59372 0.55721
 C114 C 0.24812 0.60613 0.55338
 C115 C 0.25829 0.59542 0.48472
 C116 C 0.27686 0.58313 0.47916
 C117 C 0.28641 0.58403 0.45533
 C118 C 0.27722 0.59774 0.43724
 C119 C 0.25865 0.61035 0.44272
 C120 C 0.24910 0.60885 0.46649
 H121 H 0.27239 0.61557 0.52628
 H122 H 0.22300 0.57329 0.49832
 H123 H 0.28401 0.57313 0.49360
 H124 H 0.23495 0.61862 0.47113
 H125 H 0.22125 0.59411 0.57524
 H126 H 0.28440 0.59844 0.41876
 C127 C 0.74761 0.88961 0.53172
 C128 C 0.75583 0.90319 0.51315
 C129 C 0.77406 0.91597 0.51787
 C130 C 0.78455 0.91545 0.54128
 C131 C 0.77611 0.90138 0.55969
 C132 C 0.75781 0.88838 0.55502
 C133 C 0.74567 0.90365 0.48837
 C134 C 0.72639 0.91528 0.48488
 C135 C 0.71640 0.91582 0.46135
 C136 C 0.72611 0.90451 0.44127
 C137 C 0.74546 0.89259 0.44464
 C138 C 0.75522 0.89243 0.46830
 H139 H 0.73369 0.87950 0.52769
 H140 H 0.78042 0.92553 0.50261
 H141 H 0.71931 0.92407 0.50054
 H142 H 0.77021 0.88351 0.47120
 H143 H 0.78308 0.90100 0.57819
 H144 H 0.71812 0.90422 0.42328
 C145 C -0.02467 0.23908 0.36154
 C146 C -0.00842 0.23854 0.37960
 C147 C -0.00715 0.22123 0.39631
 C148 C -0.02205 0.20393 0.39525
 C149 C -0.03864 0.20497 0.37704
 C150 C -0.04032 0.22249 0.36004
 C151 C 0.00754 0.25617 0.38092
 C152 C 0.00533 0.27250 0.39910
 C153 C 0.02053 0.28937 0.40071
 C154 C 0.03818 0.28945 0.38398
 C155 C 0.04075 0.27291 0.36586
 C156 C 0.02514 0.25640 0.36434
 H157 H -0.02452 0.25236 0.34836
 H158 H 0.00631 0.22103 0.40921
 H159 H -0.00821 0.27193 0.41205
 H160 H 0.02696 0.24333 0.35080
 H161 H -0.05138 0.19301 0.37755
 H162 H 0.04973 0.30264 0.38473
 C163 C -0.02879 0.75974 0.13585
 C164 C -0.01107 0.75904 0.11943
 C165 C -0.00862 0.77510 0.10132
 C166 C -0.02356 0.79228 0.09966
 C167 C -0.04140 0.79285 0.11614
 C168 C -0.04455 0.77650 0.13436
 C169 C 0.00503 0.74137 0.12104
 C170 C 0.00463 0.72416 0.10381
 C171 C 0.02024 0.70724 0.10460
 C172 C 0.03653 0.70856 0.12314
 C173 C 0.03711 0.72592 0.14043
 C174 C 0.02104 0.74211 0.13937
 H175 H -0.03055 0.74641 0.14879
 H176 H 0.00506 0.77419 0.08857
 H177 H -0.00859 0.72382 0.09060
 H178 H 0.02108 0.75552 0.15262
 H179 H -0.05211 0.80683 0.11542
 H180 H 0.04969 0.69686 0.12339
 C181 C 0.47236 0.26068 0.63677
 C182 C 0.49036 0.26109 0.62083
 C183 C 0.49298 0.27825 0.60408
 C184 C 0.47775 0.29531 0.60322
 C185 C 0.45954 0.29466 0.61917
 C186 C 0.45666 0.27733 0.63598
 C187 C 0.50676 0.24370 0.62195
 C188 C 0.50608 0.22630 0.60500
 C189 C 0.52182 0.20970 0.60579
 C190 C 0.53843 0.21098 0.62372
 C191 C 0.53928 0.22847 0.64081
 C192 C 0.52320 0.24470 0.63984
 H193 H 0.47071 0.24742 0.64989
 H194 H 0.50694 0.27824 0.59172
 H195 H 0.49301 0.22556 0.59155
 H196 H 0.52340 0.25819 0.65298
 H197 H 0.44763 0.30766 0.61854
 H198 H 0.55105 0.19865 0.62392
 C199 C 0.47407 0.73634 0.86411
 C200 C 0.49136 0.73542 0.88081
 C201 C 0.49301 0.71823 0.89771
 C202 C 0.47740 0.70147 0.89818
 C203 C 0.45982 0.70293 0.88128
 C204 C 0.45801 0.72030 0.86437
 C205 C 0.50774 0.75269 0.88071
 C206 C 0.50645 0.76959 0.89827
 C207 C 0.52165 0.78653 0.89808
 C208 C 0.53853 0.78598 0.88028
 C209 C 0.54010 0.76889 0.86267
 C210 C 0.52441 0.75240 0.86292
 H211 H 0.47315 0.74968 0.85100
 H212 H 0.50718 0.71771 0.90953
 H213 H 0.49353 0.76950 0.91204
 H214 H 0.52506 0.73933 0.84926
 H215 H 0.44673 0.69132 0.88203
 H216 H 0.55044 0.79886 0.88012
 C217 C -0.27787 0.58070 1.00403
 C218 C -0.26239 0.59659 1.00974
 C219 C -0.26676 0.61222 1.02818
 C220 C -0.28645 0.61211 1.04128
 C221 C -0.30169 0.59589 1.03591
 C222 C -0.29782 0.58001 1.01711
 C223 C -0.24185 0.59788 0.99576
 C224 C -0.23981 0.61330 0.97674
 C225 C -0.21970 0.61693 0.96475
 C226 C -0.20166 0.60464 0.97286
 C227 C -0.20351 0.58928 0.99210
 C228 C -0.22377 0.58575 1.00328
 H229 H -0.27395 0.56870 0.98980
 H230 H -0.25469 0.62446 1.03232
 H231 H -0.25387 0.62319 0.97251
 H232 H -0.22528 0.57431 1.01852
 H233 H -0.31722 0.59679 1.04536
 H234 H -0.18610 0.60616 0.96366
 C235 C -0.27561 0.41830 0.49723
 C236 C -0.25925 0.40327 0.49090
 C237 C -0.26262 0.38810 0.47178
 C238 C -0.28221 0.38777 0.45866
 C239 C -0.29833 0.40317 0.46464
 C240 C -0.29544 0.41863 0.48404
 C241 C -0.23886 0.40238 0.50502
 C242 C -0.23707 0.38801 0.52512
 C243 C -0.21716 0.38504 0.53732
 C244 C -0.19900 0.39665 0.52900
 C245 C -0.20056 0.41110 0.50880
 C246 C -0.22065 0.41405 0.49698
 H247 H -0.27244 0.42998 0.51197
 H248 H -0.24989 0.37649 0.46720
 H249 H -0.25109 0.37864 0.53073
 H250 H -0.22196 0.42475 0.48102
 H251 H -0.31374 0.40191 0.45516
 H252 H -0.18364 0.39471 0.53851
 C253 C 0.22293 -0.08534 0.00195
 C254 C 0.24103 -0.09649 -0.00761
 C255 C 0.23898 -0.10964 -0.02892
 C256 C 0.21878 -0.11230 -0.04089
 C257 C 0.20078 -0.10083 -0.03093
 C258 C 0.20272 -0.08743 -0.00967
 C259 C 0.26154 -0.09701 0.00636
 C260 C 0.26321 -0.11060 0.02717
 C261 C 0.28327 -0.11408 0.03921
 C262 C 0.30156 -0.10302 0.02980
 C263 C 0.30001 -0.08917 0.00903
 C264 C 0.27990 -0.08627 -0.00266
 H265 H 0.22446 -0.07562 0.01881
 H266 H 0.25304 -0.11902 -0.03475
 H267 H 0.24893 -0.11962 0.03256
 H268 H 0.27864 -0.07619 -0.01915
 H269 H 0.18520 -0.10148 -0.04012
 H270 H 0.31704 -0.10432 0.03912
 C271 C 0.22239 1.08343 0.50500
 C272 C 0.23778 1.09933 0.51100
 C273 C 0.23273 1.11553 0.52862
 C274 C 0.21242 1.11601 0.54054
 C275 C 0.19723 1.09984 0.53471
 C276 C 0.20200 1.08357 0.51686
 C277 C 0.25873 1.10027 0.49779
 C278 C 0.26135 1.11532 0.47847
 C279 C 0.28171 1.11852 0.46692
 C280 C 0.29946 1.10623 0.47584
 C281 C 0.29704 1.09120 0.49537
 C282 C 0.27651 1.08807 0.50606
 H283 H 0.22622 1.07116 0.49102
 H284 H 0.24474 1.12776 0.53304
 H285 H 0.24747 1.12526 0.47361
 H286 H 0.27454 1.07687 0.52147
 H287 H 0.18132 1.10041 0.54336
 H288 H 0.31523 1.10745 0.46704
 C289 C 0.13520 0.49728 0.21929
 C290 C 0.14844 0.50623 0.23787
 C291 C 0.16066 0.52482 0.23286
 C292 C 0.15988 0.53462 0.20923
 C293 C 0.14632 0.52570 0.19083
 C294 C 0.13377 0.50714 0.19577
 C295 C 0.14931 0.49629 0.26275
 C296 C 0.16085 0.47691 0.26616
 C297 C 0.16173 0.46705 0.28975
 C298 C 0.15079 0.47696 0.30996
 C299 C 0.13891 0.49639 0.30667
 C300 C 0.13847 0.50605 0.28295
 H301 H 0.12551 0.48309 0.22348
 H302 H 0.17057 0.53177 0.24753
 H303 H 0.16933 0.46965 0.25039
 H304 H 0.12957 0.52109 0.28010
 H305 H 0.14569 0.53306 0.17251
 H306 H 0.15075 0.46905 0.32799
 C307 C -0.13862 1.00188 0.21800
 C308 C -0.15204 0.99407 0.23701
 C309 C -0.16622 0.97691 0.23233
 C310 C -0.16732 0.96709 0.20850
 C311 C -0.15371 0.97531 0.18949
 C312 C -0.13902 0.99253 0.19390
 C313 C -0.15129 1.00394 0.26207
 C314 C -0.16448 1.02193 0.26754
 C315 C -0.16373 1.03231 0.29113
 C316 C -0.14925 1.02381 0.30908
 C317 C -0.13597 1.00564 0.30373
 C318 C -0.13718 0.99572 0.28013
 H319 H -0.12730 1.01466 0.22267
 H320 H -0.17561 0.97080 0.24788
 H321 H -0.17444 1.02830 0.25265
 H322 H -0.12685 0.98191 0.27559
 H323 H -0.15573 0.96931 0.17065
 H324 H -0.14879 1.03063 0.32774
 C325 C 0.36322 0.50663 -0.28374
 C326 C 0.35072 0.49821 -0.26419
 C327 C 0.33739 0.48026 -0.26833
 C328 C 0.33622 0.47065 -0.29209
 C329 C 0.34886 0.47914 -0.31161
 C330 C 0.36282 0.49707 -0.30779
 C331 C 0.35144 0.50847 -0.23933
 C332 C 0.33961 0.52758 -0.23489
 C333 C 0.34051 0.53842 -0.21159
 C334 C 0.35402 0.52944 -0.19296
 C335 C 0.36601 0.51018 -0.19730
 C336 C 0.36445 0.49969 -0.22055
 H337 H 0.37396 0.52001 -0.27948
 H338 H 0.32808 0.47374 -0.25291
 H339 H 0.33053 0.53432 -0.25031
 H340 H 0.37383 0.48507 -0.22436
 H341 H 0.34693 0.47215 -0.33005
 H342 H 0.35462 0.53673 -0.17454
 C343 C 0.63828 -0.00354 -0.28429
 C344 C 0.64864 0.00675 -0.26423
 C345 C 0.65913 0.02652 -0.26785
 C346 C 0.65964 0.03616 -0.29147
 C347 C 0.64927 0.02580 -0.31158
 C348 C 0.63803 0.00594 -0.30828
 C349 C 0.64887 -0.00333 -0.23938
 C350 C 0.65969 -0.02312 -0.23588
 C351 C 0.66055 -0.03272 -0.21217
 C352 C 0.65020 -0.02227 -0.19194
 C353 C 0.63897 -0.00249 -0.19531
 C354 C 0.63863 0.00700 -0.21910
 H355 H 0.63086 -0.01918 -0.28096
 H356 H 0.66730 0.03419 -0.25224
 H357 H 0.66784 -0.03079 -0.25164
 H358 H 0.63030 0.02237 -0.22195
 H359 H 0.64884 0.03422 -0.32926
 H360 H 0.65015 -0.02999 -0.17380
 C361 C -0.01080 0.22403 0.88636
 C362 C -0.01194 0.24075 0.86879
 C363 C -0.02923 0.24163 0.85199
 C364 C -0.04563 0.22586 0.85263
 C365 C -0.04419 0.20893 0.87019
 C366 C -0.02678 0.20784 0.88710
 C367 C 0.00498 0.25746 0.86809
 C368 C 0.02149 0.25622 0.85013
 C369 C 0.03796 0.27191 0.84949
 C370 C 0.03734 0.28920 0.86687
 C371 C 0.02065 0.29073 0.88485
 C372 C 0.00464 0.27457 0.88543
 H373 H 0.00257 0.22369 0.89943
 H374 H -0.03014 0.25498 0.83888
 H375 H 0.02144 0.24296 0.83668
 H376 H -0.00814 0.27522 0.89938
 H377 H -0.05637 0.19630 0.87027
 H378 H 0.04986 0.30148 0.86641
 C379 C 0.50994 0.22139 0.11552
 C380 C 0.50991 0.23945 0.13159
 C381 C 0.52688 0.24236 0.14855
 C382 C 0.54413 0.22737 0.14950
 C383 C 0.54401 0.20928 0.13324
 C384 C 0.52690 0.20604 0.11630
 C385 C 0.49169 0.25495 0.13134
 C386 C 0.47481 0.25285 0.14869
 C387 C 0.45750 0.26779 0.14910
 C388 C 0.45746 0.28502 0.13189
 C389 C 0.47451 0.28748 0.11455
 C390 C 0.49153 0.27217 0.11433
 H391 H 0.49639 0.21903 0.10297
 H392 H 0.52643 0.25618 0.16122
 H393 H 0.47537 0.23968 0.16206
 H394 H 0.50502 0.27394 0.10149
 H395 H 0.55748 0.19789 0.13347
 H396 H 0.44395 0.29635 0.13172
 C397 C 0.00820 0.72358 0.61666
 C398 C 0.00830 0.74173 0.63260
 C399 C 0.02543 0.74477 0.64931
 C400 C 0.04270 0.72982 0.65016
 C401 C 0.04248 0.71166 0.63402
 C402 C 0.02522 0.70829 0.61733
 C403 C -0.00994 0.75723 0.63248
 C404 C -0.02687 0.75494 0.64972
 C405 C -0.04422 0.77004 0.65072
 C406 C -0.04380 0.78762 0.63373
 C407 C -0.02669 0.79016 0.61649
 C408 C -0.00986 0.77472 0.61594
 H409 H -0.00545 0.72112 0.60430
 H410 H 0.02508 0.75867 0.66187
 H411 H -0.02572 0.74176 0.66296
 H412 H 0.00369 0.77661 0.60320
 H413 H 0.05598 0.70031 0.63415
 H414 H -0.05721 0.79900 0.63290
 C415 C 0.48712 0.72636 0.38533
 C416 C 0.48703 0.74387 0.36873
 C417 C 0.47016 0.74618 0.35152
 C418 C 0.45311 0.73114 0.35086
 C419 C 0.45332 0.71361 0.36767
 C420 C 0.47037 0.71096 0.38484
 C421 C 0.50510 0.75932 0.36860
 C422 C 0.52202 0.75662 0.35135
 C423 C 0.53922 0.77148 0.35059
 C424 C 0.53911 0.78922 0.36732
 C425 C 0.52203 0.79227 0.38455
 C426 C 0.50512 0.77704 0.38516
 H427 H 0.50064 0.72442 0.39800
 H428 H 0.47056 0.75956 0.33842
 H429 H 0.52159 0.74305 0.33834
 H430 H 0.49161 0.77925 0.39794
 H431 H 0.44002 0.70218 0.36763
 H432 H 0.55255 0.80049 0.36722
 B433 B -0.02192 0.00890 1.00784
 B434 B -0.03026 0.00438 0.97841
 B435 B -0.01061 0.02255 0.98391
 B436 B 0.00515 0.01333 1.00742
 B437 B -0.00505 -0.01120 1.01626
 B438 B -0.02720 -0.01672 0.99819
 B439 B 0.00819 -0.01456 0.96750
 B440 B 0.01655 -0.01001 0.99686
 B441 B -0.00320 -0.02820 0.99142
 B442 B -0.01885 -0.01895 0.96787
 B443 B -0.00864 0.00553 0.95902
 B444 B 0.01342 0.01115 0.97710
 B445 B 0.48119 0.51318 0.50814
 B446 B 0.47336 0.50750 0.47877
 B447 B 0.49288 0.52593 0.48377
 B448 B 0.50826 0.51770 0.50805
 B449 B 0.49800 0.49349 0.51795
 B450 B 0.47614 0.48721 0.49971
 B451 B 0.51200 0.48825 0.46969
 B452 B 0.51990 0.49401 0.49894
 B453 B 0.50026 0.47554 0.49404
 B454 B 0.48496 0.48383 0.46971
 B455 B 0.49527 0.50793 0.45981
 B456 B 0.51701 0.51434 0.47801
 B457 B 0.52083 0.99168 0.50841
 B458 B 0.52900 0.99649 0.47897
 B459 B 0.50885 0.97880 0.48423
 B460 B 0.49362 0.98801 0.50842
 B461 B 0.50457 1.01207 0.51797
 B462 B 0.52671 1.01731 0.49963
 B463 B 0.49104 1.01675 0.46963
 B464 B 0.48277 1.01185 0.49896
 B465 B 0.50298 1.02958 0.49383
 B466 B 0.51821 1.02034 0.46960
 B467 B 0.50721 0.99636 0.46004
 B468 B 0.48514 0.99103 0.47834
 B469 B 0.02092 0.49014 1.00816
 B470 B 0.03065 0.49479 0.97932
 B471 B 0.01024 0.47717 0.98326
 B472 B -0.00622 0.48654 1.00626
 B473 B 0.00426 0.51062 1.01643
 B474 B 0.02734 0.51572 0.99966
 B475 B -0.00668 0.51507 0.96719
 B476 B -0.01649 0.51032 0.99593
 B477 B 0.00397 0.52800 0.99211
 B478 B 0.02043 0.51861 0.96906
 B479 B 0.00991 0.49458 0.95887
 B480 B -0.01310 0.48940 0.97563
 B481 B 0.02399 0.50733 0.49556
 B482 B 0.03291 0.50248 0.52463
 B483 B 0.01280 0.52057 0.52019
 B484 B -0.00316 0.51156 0.49676
 B485 B 0.00730 0.48724 0.48687
 B486 B 0.02987 0.48161 0.50423
 B487 B -0.00494 0.48307 0.53582
 B488 B -0.01396 0.48800 0.50685
 B489 B 0.00620 0.46989 0.51118
 B490 B 0.02217 0.47891 0.53464
 B491 B 0.01165 0.50317 0.54456
 B492 B -0.01086 0.50886 0.52722
 B493 B 0.52461 0.00593 -0.00733
 B494 B 0.53320 0.00075 0.02180
 B495 B 0.51319 0.01895 0.01728
 B496 B 0.49747 0.01020 -0.00653
 B497 B 0.50803 -0.01405 -0.01656
 B498 B 0.53036 -0.01988 0.00110
 B499 B 0.49514 -0.01864 0.03214
 B500 B 0.48653 -0.01346 0.00306
 B501 B 0.50661 -0.03164 0.00754
 B502 B 0.52225 -0.02286 0.03137
 B503 B 0.51168 0.00133 0.04139
 B504 B 0.48941 0.00724 0.02375
 B505 B 0.48054 0.48541 -0.01032
 B506 B 0.47192 0.49038 0.01902
 B507 B 0.49128 0.47158 0.01386
 B508 B 0.50752 0.48014 -0.00959
 B509 B 0.49795 0.50493 -0.01876
 B510 B 0.47565 0.51123 -0.00093
 B511 B 0.51054 0.50827 0.03008
 B512 B 0.51924 0.50321 0.00088
 B513 B 0.49975 0.52204 0.00593
 B514 B 0.48360 0.51343 0.02943
 B515 B 0.49325 0.48875 0.03861
 B516 B 0.51541 0.48232 0.02080
 B517 B -0.02054 0.98746 0.49014
 B518 B -0.02962 0.99298 0.51918
 B519 B -0.00986 0.97442 0.51490
 B520 B 0.00651 0.98272 0.49145
 B521 B -0.00339 1.00710 0.48135
 B522 B -0.02602 1.01341 0.49862
 B523 B 0.00854 1.01183 0.53027
 B524 B 0.01769 1.00625 0.50137
 B525 B -0.00219 1.02483 0.50552
 B526 B -0.01847 1.01648 0.52903
 B527 B -0.00851 0.99221 0.53914
 B528 B 0.01398 0.98577 0.52189
 B529 B 0.76214 0.22668 0.23993
 B530 B 0.75744 0.21840 0.26934
 B531 B 0.77547 0.23822 0.26400
 B532 B 0.76638 0.25389 0.24036
 B533 B 0.74208 0.24348 0.23120
 B534 B 0.73656 0.22127 0.24924
 B535 B 0.73825 0.25688 0.27990
 B536 B 0.74297 0.26523 0.25061
 B537 B 0.72493 0.24531 0.25581
 B538 B 0.73405 0.22973 0.27951
 B539 B 0.75830 0.24016 0.28867
 B540 B 0.76391 0.26228 0.27065
 B541 B 0.73894 0.77064 0.74045
 B542 B 0.74283 0.77978 0.76975
 B543 B 0.72509 0.75967 0.76449
 B544 B 0.73487 0.74342 0.74143
 B545 B 0.75932 0.75374 0.73262
 B546 B 0.76424 0.77650 0.75024
 B547 B 0.76205 0.74178 0.78170
 B548 B 0.75808 0.73255 0.75251
 B549 B 0.77587 0.75274 0.75765
 B550 B 0.76606 0.76896 0.78075
 B551 B 0.74167 0.75858 0.78958
 B552 B 0.73667 0.73591 0.77197
 B553 B 0.25610 0.27734 0.75675
 B554 B 0.25134 0.28645 0.72774
 B555 B 0.26948 0.26638 0.73212
 B556 B 0.26050 0.25014 0.75532
 B557 B 0.23614 0.26044 0.76509
 B558 B 0.23048 0.28314 0.74790
 B559 B 0.23233 0.24836 0.71598
 B560 B 0.23714 0.23921 0.74492
 B561 B 0.21898 0.25936 0.74060
 B562 B 0.22799 0.27554 0.71736
 B563 B 0.25229 0.26521 0.70759
 B564 B 0.25803 0.24257 0.72478
 B565 B 0.23567 0.72945 0.26020
 B566 B 0.24001 0.72083 0.23072
 B567 B 0.22208 0.74095 0.23634
 B568 B 0.23148 0.75674 0.25986
 B569 B 0.25586 0.74607 0.26862
 B570 B 0.26112 0.72361 0.25049
 B571 B 0.25919 0.75893 0.21988
 B572 B 0.25481 0.76764 0.24924
 B573 B 0.27274 0.74741 0.24378
 B574 B 0.26333 0.73172 0.22020
 B575 B 0.23899 0.74241 0.21141
 B576 B 0.23364 0.76479 0.22953
 B577 B 0.26269 0.73092 0.73584
 B578 B 0.25831 0.72313 0.76580
 B579 B 0.27608 0.74314 0.75938
 B580 B 0.26634 0.75824 0.73562
 B581 B 0.24209 0.74724 0.72717
 B582 B 0.23731 0.72523 0.74567
 B583 B 0.23859 0.76140 0.77554
 B584 B 0.24276 0.76930 0.74598
 B585 B 0.22523 0.74912 0.75197
 B586 B 0.23495 0.73419 0.77588
 B587 B 0.25918 0.74530 0.78436
 B588 B 0.26391 0.76717 0.76562
 B589 B 0.23947 0.27043 0.24289
 B590 B 0.24407 0.27941 0.27211
 B591 B 0.22650 0.25904 0.26730
 B592 B 0.23584 0.24314 0.24373
 B593 B 0.25986 0.25392 0.23408
 B594 B 0.26495 0.27661 0.25175
 B595 B 0.26422 0.24158 0.28288
 B596 B 0.25953 0.23254 0.25376
 B597 B 0.27715 0.25295 0.25845
 B598 B 0.26779 0.26885 0.28208
 B599 B 0.24383 0.25803 0.29173
 B600 B 0.23866 0.23541 0.27408
 B601 B 0.75667 0.77467 0.25732
 B602 B 0.75163 0.78315 0.22811
 B603 B 0.77015 0.76348 0.23288
 B604 B 0.76154 0.74751 0.25652
 B605 B 0.73705 0.75756 0.26618
 B606 B 0.73093 0.77985 0.24848
 B607 B 0.73325 0.74456 0.21738
 B608 B 0.73833 0.73600 0.24650
 B609 B 0.71982 0.75575 0.24182
 B610 B 0.72845 0.77166 0.21816
 B611 B 0.75287 0.76157 0.20848
 B612 B 0.75907 0.73935 0.22616
 B613 B 0.73727 0.23098 0.76183
 B614 B 0.74159 0.22219 0.73241
 B615 B 0.72367 0.24233 0.73786
 B616 B 0.73305 0.25823 0.76125
 B617 B 0.75745 0.24768 0.77011
 B618 B 0.76271 0.22510 0.75215
 B619 B 0.76077 0.26023 0.72127
 B620 B 0.75634 0.26913 0.75056
 B621 B 0.77432 0.24890 0.74524
 B622 B 0.76490 0.23302 0.72180
 B623 B 0.74059 0.24364 0.71292
 B624 B 0.73521 0.26610 0.73085
 C625 C 0.41033 1.04120 0.34785
 C626 C 0.40070 1.02099 0.34372
 C627 C 0.38604 1.01812 0.32422
 C628 C 0.38058 1.03551 0.30819
 C629 C 0.39043 1.05594 0.31281
 C630 C 0.40515 1.05870 0.33242
 C631 C 0.42510 1.04353 0.36842
 C632 C 0.43680 1.04338 0.38640
 C633 C 0.44950 1.04030 0.40858
 C634 C 0.44116 1.02669 0.42697
 C635 C 0.45405 1.02021 0.44683
 C636 C 0.47558 1.02755 0.44913
 C637 C 0.48359 1.04210 0.43110
 C638 C 0.47063 1.04835 0.41082
 H639 H 0.40436 1.00738 0.35582
 H640 H 0.37845 1.00236 0.32256
 H641 H 0.38762 1.06974 0.30079
 H642 H 0.41258 1.07443 0.33542
 H643 H 0.42492 1.02016 0.42531
 H644 H 0.44721 1.00871 0.45986
 H645 H 0.50013 1.04784 0.43197
 H646 H 0.47734 1.05873 0.39649
 C647 C -0.08128 0.54491 0.84098
 C648 C -0.07818 0.52882 0.82277
 C649 C -0.09342 0.52593 0.80383
 C650 C -0.11230 0.53908 0.80268
 C651 C -0.11468 0.55587 0.82076
 C652 C -0.09939 0.55861 0.83975
 C653 C -0.06736 0.54538 0.86248
 C654 C -0.05649 0.54393 0.88107
 C655 C -0.04481 0.53970 0.90375
 C656 C -0.05400 0.52542 0.92089
 C657 C -0.04220 0.51848 0.94145
 C658 C -0.02093 0.52594 0.94564
 C659 C -0.01204 0.54101 0.92876
 C660 C -0.02391 0.54780 0.90785
 H661 H -0.06420 0.51808 0.82356
 H662 H -0.09000 0.51353 0.78993
 H663 H -0.12899 0.56610 0.82149
 H664 H -0.10217 0.57088 0.85405
 H665 H -0.07009 0.51892 0.91784
 H666 H -0.04967 0.50669 0.95365
 H667 H 0.00434 0.54688 0.93109
 H668 H -0.01655 0.55873 0.89452
 C669 C 0.09229 -0.03949 0.84696
 C670 C 0.10626 -0.02161 0.84668
 C671 C 0.12115 -0.01908 0.82724
 C672 C 0.12233 -0.03444 0.80772
 C673 C 0.10844 -0.05257 0.80829
 C674 C 0.09347 -0.05505 0.82780
 C675 C 0.07664 -0.04114 0.86687
 C676 C 0.06427 -0.04050 0.88435
 C677 C 0.05088 -0.03696 0.90608
 C678 C 0.05846 -0.02262 0.92428
 C679 C 0.04516 -0.01632 0.94406
 C680 C 0.02395 -0.02454 0.94646
 C681 C 0.01661 -0.03960 0.92846
 C682 C 0.03001 -0.04572 0.90829
 H683 H 0.10552 -0.00949 0.86145
 H684 H 0.13179 -0.00511 0.82747
 H685 H 0.10881 -0.06453 0.79336
 H686 H 0.08269 -0.06892 0.82780
 H687 H 0.07449 -0.01558 0.92268
 H688 H 0.05150 -0.00448 0.95711
 H689 H 0.00033 -0.04600 0.92941
 H690 H 0.02389 -0.05669 0.89410
 C691 C 0.59616 0.45970 0.35035
 C692 C 0.61030 0.47741 0.34922
 C693 C 0.62474 0.47945 0.32925
 C694 C 0.62526 0.46376 0.31005
 C695 C 0.61123 0.44579 0.31149
 C696 C 0.59671 0.44380 0.33153
 C697 C 0.58084 0.45863 0.37066
 C698 C 0.56863 0.45971 0.38827
 C699 C 0.55526 0.46375 0.40990
 C700 C 0.56278 0.47852 0.42768
 C701 C 0.54933 0.48544 0.44707
 C702 C 0.52804 0.47742 0.44949
 C703 C 0.52081 0.46188 0.43199
 C704 C 0.53434 0.45514 0.41221
 H705 H 0.61003 0.48979 0.36373
 H706 H 0.63552 0.49330 0.32881
 H707 H 0.61111 0.43358 0.29682
 H708 H 0.58578 0.43007 0.33217
 H709 H 0.57883 0.48547 0.42597
 H710 H 0.55557 0.49770 0.45967
 H711 H 0.50446 0.45563 0.43290
 H712 H 0.52826 0.44386 0.39832
 C713 C 0.59460 0.53814 0.14879
 C714 C 0.60946 0.52088 0.14990
 C715 C 0.62409 0.51947 0.16965
 C716 C 0.62409 0.53535 0.18865
 C717 C 0.60938 0.55292 0.18718
 C718 C 0.59466 0.55427 0.16736
 C719 C 0.57903 0.53845 0.12884
 C720 C 0.56666 0.53671 0.11156
 C721 C 0.55319 0.53196 0.09036
 C722 C 0.56036 0.51602 0.07358
 C723 C 0.54702 0.50909 0.05428
 C724 C 0.52620 0.51821 0.05098
 C725 C 0.51924 0.53469 0.06763
 C726 C 0.53267 0.54149 0.08729
 H727 H 0.60958 0.50832 0.13559
 H728 H 0.63539 0.50592 0.17011
 H729 H 0.60887 0.56527 0.20169
 H730 H 0.58318 0.56766 0.16673
 H731 H 0.57612 0.50840 0.07586
 H732 H 0.55308 0.49624 0.04220
 H733 H 0.50324 0.54184 0.06599
 H734 H 0.52686 0.55372 0.10038
 C735 C 0.09000 1.04197 0.65051
 C736 C 0.10076 1.02231 0.65481
 C737 C 0.11565 1.02049 0.67422
 C738 C 0.12020 1.03840 0.69001
 C739 C 0.10936 1.05834 0.68511
 C740 C 0.09438 1.06004 0.66558
 C741 C 0.07477 1.04305 0.63026
 C742 C 0.06275 1.04166 0.61263
 C743 C 0.04982 1.03696 0.59098
 C744 C 0.05768 1.02131 0.57425
 C745 C 0.04479 1.01400 0.55475
 C746 C 0.02374 1.02248 0.55115
 C747 C 0.01611 1.03875 0.56769
 C748 C 0.02909 1.04590 0.58760
 H749 H 0.09773 1.00828 0.64298
 H750 H 0.12407 1.00510 0.67605
 H751 H 0.11154 1.07249 0.69690
 H752 H 0.08609 1.07536 0.66243
 H753 H 0.07360 1.01410 0.57680
 H754 H 0.05133 1.00127 0.54284
 H755 H -0.00008 1.04540 0.56583
 H756 H 0.02273 1.05787 0.60069
 C757 C -0.08458 0.45059 0.65775
 C758 C -0.10593 0.44361 0.65426
 C759 C -0.12144 0.44690 0.67306
 C760 C -0.11579 0.45739 0.69552
 C761 C -0.09409 0.46356 0.69923
 C762 C -0.07862 0.46022 0.68044
 C763 C -0.06975 0.45084 0.63696
 C764 C -0.05807 0.45293 0.61905
 C765 C -0.04539 0.45791 0.59725
 C766 C -0.02443 0.44952 0.59369
 C767 C -0.01172 0.45670 0.57358
 C768 C -0.01986 0.47240 0.55693
 C769 C -0.04113 0.48034 0.56068
 C770 C -0.05376 0.47303 0.58046
 H771 H -0.11081 0.43646 0.63662
 H772 H -0.13805 0.44216 0.66957
 H773 H -0.08920 0.47137 0.71648
 H774 H -0.06220 0.46591 0.68324
 H775 H -0.01770 0.43797 0.60679
 H776 H 0.00466 0.45053 0.57167
 H777 H -0.04805 0.49262 0.54863
 H778 H -0.06988 0.47979 0.58314
 C779 C 0.41269 -0.04427 0.15297
 C780 C 0.39892 -0.02608 0.15369
 C781 C 0.38386 -0.02352 0.17300
 C782 C 0.38231 -0.03916 0.19196
 C783 C 0.39606 -0.05754 0.19102
 C784 C 0.41121 -0.06006 0.17162
 C785 C 0.42824 -0.04611 0.13296
 C786 C 0.44043 -0.04556 0.11532
 C787 C 0.45347 -0.04201 0.09340
 C788 C 0.44530 -0.02791 0.07539
 C789 C 0.45827 -0.02138 0.05558
 C790 C 0.47973 -0.02915 0.05292
 C791 C 0.48764 -0.04403 0.07069
 C792 C 0.47458 -0.05036 0.09092
 H793 H 0.39988 -0.01379 0.13929
 H794 H 0.37331 -0.00937 0.17302
 H795 H 0.39537 -0.06974 0.20551
 H796 H 0.42180 -0.07419 0.17126
 H797 H 0.42909 -0.02116 0.07723
 H798 H 0.45151 -0.00960 0.04280
 H799 H 0.50414 -0.05004 0.06960
 H800 H 0.48116 -0.06111 0.10498
 C801 C 0.34500 0.44839 0.05356
 C802 C 0.32735 0.45789 0.04132
 C803 C 0.30786 0.44655 0.03911
 C804 C 0.30584 0.42548 0.04900
 C805 C 0.32338 0.41644 0.06215
 C806 C 0.34286 0.42781 0.06434
 C807 C 0.36607 0.45820 0.05193
 C808 C 0.38410 0.46513 0.04880
 C809 C 0.40590 0.47150 0.04285
 C810 C 0.41485 0.49093 0.05180
 C811 C 0.43588 0.49691 0.04456
 C812 C 0.44812 0.48355 0.02821
 C813 C 0.43877 0.46402 0.01962
 C814 C 0.41798 0.45809 0.02689
 H815 H 0.32891 0.47371 0.03267
 H816 H 0.29452 0.45405 0.02920
 H817 H 0.32241 0.40017 0.06973
 H818 H 0.35653 0.42015 0.07350
 H819 H 0.40555 0.50150 0.06412
 H820 H 0.44238 0.51207 0.05159
 H821 H 0.44723 0.45333 0.00674
 H822 H 0.41117 0.44310 0.01969
 C823 C -0.15727 0.95130 0.55085
 C824 C -0.17330 0.95882 0.53466
 C825 C -0.19275 0.94750 0.53215
 C826 C -0.19660 0.92817 0.54570
 C827 C -0.18060 0.92149 0.56298
 C828 C -0.16112 0.93287 0.56534
 C829 C -0.13596 0.96069 0.54997
 C830 C -0.11777 0.96742 0.54744
 C831 C -0.09580 0.97372 0.54216
 C832 C -0.08732 0.99356 0.55051
 C833 C -0.06622 0.99962 0.54363
 C834 C -0.05343 0.98593 0.52821
 C835 C -0.06229 0.96596 0.52027
 C836 C -0.08315 0.95996 0.52720
 H837 H -0.17051 0.97311 0.52334
 H838 H -0.20475 0.95418 0.51963
 H839 H -0.18217 0.90661 0.57350
 H840 H -0.14865 0.92669 0.57767
 H841 H -0.09706 1.00443 0.56200
 H842 H -0.06011 1.01512 0.55012
 H843 H -0.05344 0.95504 0.50803
 H844 H -0.08960 0.94466 0.52042
 C845 C -0.15735 0.04832 0.94625
 C846 C -0.15968 0.06924 0.93637
 C847 C -0.17929 0.08054 0.93908
 C848 C -0.19682 0.07109 0.95186
 C849 C -0.19461 0.04970 0.96081
 C850 C -0.17497 0.03842 0.95808
 C851 C -0.13617 0.03842 0.94734
 C852 C -0.11805 0.03137 0.94997
 C853 C -0.09616 0.02473 0.95532
 C854 C -0.08378 0.03803 0.97083
 C855 C -0.06298 0.03172 0.97773
 C856 C -0.05390 0.01190 0.96921
 C857 C -0.06641 -0.00131 0.95323
 C858 C -0.08745 0.00506 0.94637
 H859 H -0.14605 0.07719 0.92751
 H860 H -0.18037 0.09707 0.93226
 H861 H -0.20791 0.04188 0.97043
 H862 H -0.17329 0.02232 0.96603
 H863 H -0.09039 0.05320 0.97805
 H864 H -0.05436 0.04227 0.99043
 H865 H -0.06015 -0.01669 0.94629
 H866 H -0.09697 -0.00544 0.93441
 C867 C 0.34621 0.54910 0.44410
 C868 C 0.34351 0.56990 0.43400
 C869 C 0.32376 0.58095 0.43678
 C870 C 0.30648 0.57137 0.44986
 C871 C 0.30906 0.55008 0.45902
 C872 C 0.32882 0.53907 0.45623
 C873 C 0.36754 0.53956 0.44521
 C874 C 0.38576 0.53283 0.44794
 C875 C 0.40774 0.52665 0.45351
 C876 C 0.42004 0.54078 0.46810
 C877 C 0.44079 0.53486 0.47562
 C878 C 0.44991 0.51462 0.46861
 C879 C 0.43751 0.50060 0.45343
 C880 C 0.41651 0.50657 0.44599
 H881 H 0.35697 0.57797 0.42493
 H882 H 0.32238 0.59739 0.42976
 H883 H 0.29594 0.54217 0.46888
 H884 H 0.33080 0.52307 0.46436
 H885 H 0.41335 0.55626 0.47428
 H886 H 0.44921 0.54599 0.48781
 H887 H 0.44380 0.48487 0.44768
 H888 H 0.40703 0.49542 0.43479
 C889 C 0.15993 0.54759 0.54682
 C890 C 0.17568 0.54657 0.56556
 C891 C 0.19530 0.55773 0.56265
 C892 C 0.19929 0.56998 0.54095
 C893 C 0.18326 0.57090 0.52239
 C894 C 0.16380 0.55978 0.52530
 C895 C 0.13929 0.53703 0.54930
 C896 C 0.12123 0.52966 0.54895
 C897 C 0.09910 0.52308 0.54548
 C898 C 0.08570 0.53672 0.53159
 C899 C 0.06480 0.53034 0.52552
 C900 C 0.05657 0.51014 0.53338
 C901 C 0.07006 0.49662 0.54790
 C902 C 0.09127 0.50303 0.55383
 H903 H 0.17278 0.53726 0.58236
 H904 H 0.20741 0.55663 0.57719
 H905 H 0.18561 0.58053 0.50572
 H906 H 0.15163 0.56087 0.51080
 H907 H 0.09167 0.55214 0.52471
 H908 H 0.05553 0.54108 0.51373
 H909 H 0.06447 0.48091 0.55421
 H910 H 0.10162 0.49222 0.56443
 C911 C 0.66062 0.04383 0.05063
 C912 C 0.67793 0.03512 0.03676
 C913 C 0.69714 0.04689 0.03410
 C914 C 0.69922 0.06762 0.04517
 C915 C 0.68198 0.07588 0.05977
 C916 C 0.66283 0.06407 0.06243
 C917 C 0.63969 0.03364 0.04996
 C918 C 0.62159 0.02658 0.04791
 C919 C 0.59954 0.02022 0.04341
 C920 C 0.59133 0.00023 0.05145
 C921 C 0.57009 -0.00579 0.04527
 C922 C 0.55687 0.00809 0.03087
 C923 C 0.56544 0.02825 0.02334
 C924 C 0.58644 0.03422 0.02959
 H925 H 0.67630 0.01958 0.02730
 H926 H 0.71023 0.03998 0.02302
 H927 H 0.68292 0.09189 0.06824
 H928 H 0.64941 0.07114 0.07285
 H929 H 0.60141 -0.01079 0.06210
 H930 H 0.56424 -0.02148 0.05135
 H931 H 0.55634 0.03928 0.01173
 H932 H 0.59266 0.04965 0.02307
 C933 C 0.65564 0.94971 0.45321
 C934 C 0.65975 0.93717 0.47441
 C935 C 0.67942 0.92613 0.47690
 C936 C 0.69543 0.92748 0.45821
 C937 C 0.69118 0.94003 0.43681
 C938 C 0.67136 0.95112 0.43433
 C939 C 0.63489 0.96039 0.45124
 C940 C 0.61681 0.96793 0.45196
 C941 C 0.59470 0.97478 0.45583
 C942 C 0.58693 0.99511 0.44808
 C943 C 0.56583 1.00184 0.45461
 C944 C 0.55237 0.98835 0.46916
 C945 C 0.56051 0.96784 0.47634
 C946 C 0.58129 0.96115 0.46966
 H947 H 0.64763 0.93580 0.48902
 H948 H 0.68199 0.91629 0.49335
 H949 H 0.70326 0.94148 0.42219
 H950 H 0.66830 0.96071 0.41779
 H951 H 0.59728 1.00592 0.43755
 H952 H 0.56033 1.01778 0.44883
 H953 H 0.55136 0.95714 0.48825
 H954 H 0.58721 0.94552 0.47611
 C955 C 0.15754 0.44679 0.95655
 C956 C 0.16146 0.43359 0.97726
 C957 C 0.18117 0.42261 0.97962
 C958 C 0.19738 0.42468 0.96127
 C959 C 0.19330 0.43784 0.94033
 C960 C 0.17345 0.44888 0.93800
 C961 C 0.13685 0.45758 0.95476
 C962 C 0.11885 0.46529 0.95548
 C963 C 0.09683 0.47248 0.95912
 C964 C 0.08934 0.49266 0.95057
 C965 C 0.06819 0.49965 0.95640
 C966 C 0.05439 0.48657 0.97100
 C967 C 0.06228 0.46623 0.97909
 C968 C 0.08315 0.45929 0.97315
 H969 H 0.14918 0.43171 0.99162
 H970 H 0.18364 0.41230 0.99571
 H971 H 0.20555 0.43984 0.92599
 H972 H 0.17055 0.45900 0.92184
 H973 H 0.09991 0.50311 0.93983
 H974 H 0.06286 0.51543 0.94987
 H975 H 0.05272 0.45578 0.99089
 H976 H 0.08885 0.44377 0.98015
 C977 C 0.01282 0.34227 0.45303
 C978 C -0.00528 0.33356 0.44096
 C979 C -0.00284 0.31607 0.42435
 C980 C 0.01780 0.30708 0.41952
 C981 C 0.03584 0.31559 0.43222
 C982 C 0.03336 0.33310 0.44883
 C983 C 0.01057 0.36195 0.46755
 C984 C 0.00850 0.37922 0.47812
 C985 C 0.00587 0.40079 0.48836
 C986 C -0.00459 0.41647 0.47394
 C987 C -0.00527 0.43809 0.48182
 C988 C 0.00426 0.44452 0.50459
 C989 C 0.01421 0.42846 0.51940
 C990 C 0.01503 0.40671 0.51131
 H991 H -0.02121 0.34072 0.44379
 H992 H -0.01700 0.31009 0.41465
 H993 H 0.05189 0.30882 0.42916
 H994 H 0.04752 0.33983 0.45791
 H995 H -0.01160 0.41213 0.45607
 H996 H -0.01283 0.44985 0.46960
 H997 H 0.02215 0.43275 0.53671
 H998 H 0.02338 0.39470 0.52252
 C999 C 0.51509 -0.15906 -0.05139
 C1000 C 0.53564 -0.16790 -0.05643
 C1001 C 0.53783 -0.18580 -0.07258
 C1002 C 0.51947 -0.19502 -0.08396
 C1003 C 0.49888 -0.18618 -0.07844
 C1004 C 0.49674 -0.16834 -0.06231
 C1005 C 0.51287 -0.13929 -0.03701
 C1006 C 0.51060 -0.12202 -0.02646
 C1007 C 0.50755 -0.10052 -0.01614
 C1008 C 0.51563 -0.09479 0.00741
 C1009 C 0.51428 -0.07313 0.01578
 C1010 C 0.50492 -0.05697 0.00061
 C1011 C 0.49633 -0.06323 -0.02272
 C1012 C 0.49754 -0.08476 -0.03088
 H1013 H 0.54999 -0.16073 -0.04826
 H1014 H 0.55387 -0.19239 -0.07620
 H1015 H 0.48446 -0.19265 -0.08718
 H1016 H 0.48079 -0.16144 -0.05885
 H1017 H 0.52352 -0.10687 0.01895
 H1018 H 0.52134 -0.06897 0.03364
 H1019 H 0.48912 -0.05141 -0.03513
 H1020 H 0.49128 -0.08897 -0.04916
 C1021 C -0.01364 -0.15513 1.04815
 C1022 C -0.03448 -0.16349 1.05184
 C1023 C -0.03772 -0.18084 1.06824
 C1024 C -0.02013 -0.19000 1.08127
 C1025 C 0.00080 -0.18172 1.07705
 C1026 C 0.00399 -0.16442 1.06064
 C1027 C -0.01052 -0.13570 1.03368
 C1028 C -0.00765 -0.11864 1.02317
 C1029 C -0.00405 -0.09730 1.01305
 C1030 C -0.01239 -0.09118 0.98980
 C1031 C -0.01091 -0.06948 0.98194
 C1032 C -0.00117 -0.05366 0.99735
 C1033 C 0.00776 -0.06035 1.02029
 C1034 C 0.00644 -0.08192 1.02793
 H1035 H -0.04829 -0.15629 1.04246
 H1036 H -0.05398 -0.18701 1.07086
 H1037 H 0.01463 -0.18816 1.08704
 H1038 H 0.02014 -0.15788 1.05824
 H1039 H -0.02069 -0.10295 0.97819
 H1040 H -0.01826 -0.06499 0.96438
 H1041 H 0.01518 -0.04879 1.03292
 H1042 H 0.01287 -0.08642 1.04600
 C1043 C 0.48811 0.34978 0.55446
 C1044 C 0.50552 0.34042 0.56726
 C1045 C 0.50214 0.32264 0.58293
 C1046 C 0.48124 0.31394 0.58608
 C1047 C 0.46384 0.32333 0.57294
 C1048 C 0.46727 0.34116 0.55726
 C1049 C 0.49150 0.36925 0.54013
 C1050 C 0.49463 0.38619 0.52947
 C1051 C 0.49848 0.40728 0.51876
 C1052 C 0.50857 0.42312 0.53338
 C1053 C 0.51024 0.44441 0.52481
 C1054 C 0.50205 0.45032 0.50123
 C1055 C 0.49272 0.43401 0.48616
 C1056 C 0.49091 0.41262 0.49492
 H1057 H 0.52166 0.34713 0.56553
 H1058 H 0.51582 0.31604 0.59307
 H1059 H 0.44762 0.31686 0.57474
 H1060 H 0.45363 0.34839 0.54760
 H1061 H 0.51444 0.41922 0.55188
 H1062 H 0.51739 0.45639 0.53715
 H1063 H 0.48593 0.43789 0.46812
 H1064 H 0.48296 0.40048 0.48347
 C1065 C 0.51624 1.15476 0.55601
 C1066 C 0.51212 1.17577 0.54721
 C1067 C 0.51433 1.19373 0.56321
 C1068 C 0.52062 1.19086 0.58827
 C1069 C 0.52505 1.16969 0.59676
 C1070 C 0.52287 1.15181 0.58075
 C1071 C 0.51265 1.13593 0.54045
 C1072 C 0.50942 1.11924 0.52912
 C1073 C 0.50537 1.09819 0.51817
 C1074 C 0.49474 1.08271 0.53264
 C1075 C 0.49299 1.06134 0.52420
 C1076 C 0.50161 1.05494 0.50082
 C1077 C 0.51151 1.07088 0.48584
 C1078 C 0.51344 1.09239 0.49453
 H1079 H 0.50694 1.17825 0.52811
 H1080 H 0.51107 1.20985 0.55601
 H1081 H 0.52960 1.16686 0.61599
 H1082 H 0.52594 1.13560 0.58783
 H1083 H 0.48852 1.08696 0.55101
 H1084 H 0.48544 1.04968 0.53651
 H1085 H 0.51861 1.06660 0.46795
 H1086 H 0.52186 1.10424 0.48322
 C1087 C 0.01594 0.65325 1.05456
 C1088 C 0.02668 0.65111 1.07735
 C1089 C 0.02849 0.66890 1.09358
 C1090 C 0.01944 0.68940 1.08746
 C1091 C 0.00908 0.69131 1.06396
 C1092 C 0.00733 0.67342 1.04780
 C1093 C 0.01258 0.63427 1.03915
 C1094 C 0.00953 0.61757 1.02776
 C1095 C 0.00567 0.59661 1.01647
 C1096 C 0.01519 0.59062 0.99361
 C1097 C 0.01346 0.56915 0.98478
 C1098 C 0.00229 0.55341 0.99882
 C1099 C -0.00780 0.56000 1.02133
 C1100 C -0.00623 0.58136 1.02992
 H1101 H 0.03319 0.63546 1.08294
 H1102 H 0.03596 0.66597 1.11149
 H1103 H 0.00269 0.70668 1.05748
 H1104 H -0.00096 0.67530 1.03012
 H1105 H 0.02460 0.60228 0.98311
 H1106 H 0.02175 0.56471 0.96763
 H1107 H -0.01630 0.54848 1.03297
 H1108 H -0.01356 0.58574 1.04770
 C1109 C 0.48574 0.64733 -0.05344
 C1110 C 0.49462 0.66746 -0.04712
 C1111 C 0.49153 0.68541 -0.06269
 C1112 C 0.47953 0.68360 -0.08514
 C1113 C 0.47022 0.66315 -0.09077
 C1114 C 0.47337 0.64530 -0.07513
 C1115 C 0.49027 0.62833 -0.03872
 C1116 C 0.49410 0.61163 -0.02783
 C1117 C 0.49852 0.59070 -0.01698
 C1118 C 0.50984 0.57524 -0.03118
 C1119 C 0.51147 0.55382 -0.02300
 C1120 C 0.50201 0.54741 -0.00020
 C1121 C 0.49154 0.56339 0.01460
 C1122 C 0.48977 0.58490 0.00620
 H1123 H 0.50413 0.66925 -0.03027
 H1124 H 0.49823 0.70075 -0.05657
 H1125 H 0.46149 0.66031 -0.10794
 H1126 H 0.46660 0.62968 -0.08035
 H1127 H 0.51656 0.57950 -0.04923
 H1128 H 0.51941 0.54210 -0.03518
 H1129 H 0.48368 0.55913 0.03198
 H1130 H 0.48078 0.59672 0.01727
 C1131 C -0.01494 1.14959 0.44362
 C1132 C -0.00724 1.16997 0.45094
 C1133 C -0.00990 1.18796 0.43531
 C1134 C -0.02029 1.18595 0.41184
 C1135 C -0.02837 1.16521 0.40513
 C1136 C -0.02566 1.14732 0.42082
 C1137 C -0.01093 1.13063 0.45863
 C1138 C -0.00749 1.11398 0.46979
 C1139 C -0.00345 1.09311 0.48097
 C1140 C 0.00784 1.07738 0.46712
 C1141 C 0.00936 1.05609 0.47575
 C1142 C -0.00018 1.05007 0.49867
 C1143 C -0.01067 1.06631 0.51306
 C1144 C -0.01234 1.08768 0.50422
 H1145 H 0.00098 1.17195 0.46865
 H1146 H -0.00421 1.20348 0.44218
 H1147 H -0.03577 1.16224 0.38716
 H1148 H -0.03148 1.13153 0.41483
 H1149 H 0.01468 1.08133 0.44904
 H1150 H 0.01737 1.04417 0.46389
 H1151 H -0.01856 1.06234 0.53052
 H1152 H -0.02128 1.09972 0.51502
 C1153 C 0.78614 0.66318 0.90625
 C1154 C 0.76617 0.65357 0.91142
 C1155 C 0.76421 0.63850 0.93067
 C1156 C 0.78230 0.63256 0.94535
 C1157 C 0.80240 0.64263 0.93989
 C1158 C 0.80425 0.65775 0.92053
 C1159 C 0.78773 0.67787 0.88550
 C1160 C 0.78718 0.68937 0.86736
 C1161 C 0.78391 0.70172 0.84495
 C1162 C 0.77007 0.69314 0.82690
 C1163 C 0.76400 0.70557 0.80647
 C1164 C 0.77193 0.72686 0.80330
 C1165 C 0.78654 0.73515 0.82112
 C1166 C 0.79243 0.72264 0.84192
 H1167 H 0.75207 0.65745 0.90022
 H1168 H 0.74859 0.63086 0.93302
 H1169 H 0.81671 0.63957 0.95096
 H1170 H 0.81980 0.66517 0.91672
 H1171 H 0.76323 0.67706 0.82914
 H1172 H 0.75252 0.69854 0.79353
 H1173 H 0.79273 0.75153 0.81957
 H1174 H 0.80302 0.72953 0.85596
 C1175 C 0.28892 0.16357 0.40734
 C1176 C 0.30676 0.15825 0.42214
 C1177 C 0.30448 0.14349 0.44181
 C1178 C 0.28421 0.13369 0.44710
 C1179 C 0.26643 0.13944 0.43183
 C1180 C 0.26881 0.15415 0.41229
 C1181 C 0.29087 0.17802 0.38641
 C1182 C 0.29051 0.18936 0.36811
 C1183 C 0.28736 0.20159 0.34557
 C1184 C 0.29523 0.22280 0.34280
 C1185 C 0.28909 0.23526 0.32206
 C1186 C 0.27486 0.22665 0.30403
 C1187 C 0.26766 0.20506 0.30689
 C1188 C 0.27401 0.19267 0.32725
 H1189 H 0.32242 0.16551 0.41851
 H1190 H 0.31858 0.14051 0.45326
 H1191 H 0.25072 0.13195 0.43400
 H1192 H 0.25493 0.15793 0.40070
 H1193 H 0.30540 0.22996 0.35707
 H1194 H 0.29467 0.25188 0.32081
 H1195 H 0.25639 0.19780 0.29387
 H1196 H 0.26762 0.17637 0.32930
 C1197 C 0.70838 0.33963 0.40116
 C1198 C 0.70119 0.36104 0.39759
 C1199 C 0.70388 0.37663 0.41645
 C1200 C 0.71394 0.37102 0.43908
 C1201 C 0.72062 0.34933 0.44272
 C1202 C 0.71790 0.33377 0.42385
 C1203 C 0.70843 0.32446 0.38060
 C1204 C 0.71013 0.31240 0.36285
 C1205 C 0.71451 0.29917 0.34114
 C1206 C 0.72915 0.30701 0.32349
 C1207 C 0.73593 0.29384 0.30373
 C1208 C 0.72792 0.27251 0.30086
 C1209 C 0.71262 0.26493 0.31833
 C1210 C 0.70599 0.27820 0.33842
 H1211 H 0.69412 0.36584 0.37995
 H1212 H 0.69874 0.39322 0.41302
 H1213 H 0.72811 0.34445 0.46009
 H1214 H 0.72374 0.31731 0.42673
 H1215 H 0.73599 0.32314 0.32549
 H1216 H 0.74791 0.30035 0.29103
 H1217 H 0.70637 0.24855 0.31706
 H1218 H 0.69477 0.27188 0.35217
 C1219 C 0.21281 0.84409 0.89749
 C1220 C 0.19475 0.84882 0.91242
 C1221 C 0.19656 0.86337 0.93253
 C1222 C 0.21659 0.87346 0.93820
 C1223 C 0.23453 0.86856 0.92257
 C1224 C 0.23260 0.85408 0.90255
 C1225 C 0.21147 0.82920 0.87671
 C1226 C 0.21221 0.81726 0.85877
 C1227 C 0.21565 0.80408 0.83680
 C1228 C 0.22936 0.81207 0.81826
 C1229 C 0.23576 0.79879 0.79843
 C1230 C 0.22827 0.77721 0.79636
 C1231 C 0.21380 0.76950 0.81467
 C1232 C 0.20758 0.78286 0.83485
 H1233 H 0.17933 0.84110 0.90870
 H1234 H 0.18236 0.86576 0.94416
 H1235 H 0.25003 0.87640 0.92505
 H1236 H 0.24664 0.85076 0.89086
 H1237 H 0.23590 0.82837 0.81969
 H1238 H 0.24718 0.80541 0.78513
 H1239 H 0.20801 0.75292 0.81405
 H1240 H 0.19714 0.77642 0.84931
 C1241 C 0.28775 0.84116 0.09937
 C1242 C 0.30604 0.84551 0.08481
 C1243 C 0.30475 0.86045 0.06520
 C1244 C 0.28500 0.87130 0.05966
 C1245 C 0.26683 0.86679 0.07494
 C1246 C 0.26824 0.85193 0.09446
 C1247 C 0.28851 0.82592 0.11968
 C1248 C 0.28714 0.81384 0.13727
 C1249 C 0.28284 0.80070 0.15886
 C1250 C 0.29141 0.77965 0.16143
 C1251 C 0.28475 0.76651 0.18139
 C1252 C 0.26935 0.77429 0.19885
 C1253 C 0.26125 0.79565 0.19608
 C1254 C 0.26806 0.80870 0.17648
 H1255 H 0.32125 0.83721 0.08844
 H1256 H 0.31909 0.86257 0.05382
 H1257 H 0.25153 0.87521 0.07260
 H1258 H 0.25403 0.84892 0.10589
 H1259 H 0.30270 0.77320 0.14768
 H1260 H 0.29107 0.75010 0.18260
 H1261 H 0.24922 0.80233 0.20879
 H1262 H 0.26116 0.82487 0.17459
 C1263 C 0.78768 0.34036 0.59858
 C1264 C 0.80428 0.34117 0.58072
 C1265 C 0.80281 0.35577 0.56079
 C1266 C 0.78468 0.36967 0.55852
 C1267 C 0.76816 0.36874 0.57664
 C1268 C 0.76967 0.35420 0.59649
 C1269 C 0.78860 0.32547 0.61919
 C1270 C 0.78755 0.31375 0.63713
 C1271 C 0.78373 0.30109 0.65921
 C1272 C 0.79243 0.28014 0.66213
 C1273 C 0.78613 0.26737 0.68256
 C1274 C 0.77094 0.27541 0.70010
 C1275 C 0.76282 0.29673 0.69705
 C1276 C 0.76929 0.30942 0.67699
 H1277 H 0.81826 0.33050 0.58214
 H1278 H 0.81567 0.35595 0.54697
 H1279 H 0.75417 0.37942 0.57560
 H1280 H 0.75676 0.35376 0.61026
 H1281 H 0.80350 0.27345 0.64829
 H1282 H 0.79250 0.25098 0.68402
 H1283 H 0.75092 0.30359 0.70979
 H1284 H 0.76231 0.32553 0.67484
 C1285 C 0.20050 0.16595 0.59551
 C1286 C 0.21029 0.17116 0.57272
 C1287 C 0.21355 0.15506 0.55451
 C1288 C 0.20716 0.13347 0.55893
 C1289 C 0.19656 0.12855 0.58151
 C1290 C 0.19334 0.14469 0.59972
 C1291 C 0.20071 0.18149 0.61574
 C1292 C 0.20279 0.19372 0.63324
 C1293 C 0.20781 0.20694 0.65471
 C1294 C 0.19913 0.22788 0.65811
 C1295 C 0.20617 0.24095 0.67809
 C1296 C 0.22203 0.23319 0.69474
 C1297 C 0.23032 0.21196 0.69108
 C1298 C 0.22315 0.19899 0.67146
 H1299 H 0.21612 0.18750 0.56935
 H1300 H 0.22144 0.15941 0.53715
 H1301 H 0.19161 0.11205 0.58552
 H1302 H 0.18607 0.14038 0.61746
 H1303 H 0.18737 0.23429 0.64505
 H1304 H 0.19970 0.25728 0.67997
 H1305 H 0.24269 0.20528 0.70314
 H1306 H 0.23013 0.18289 0.66893
 C1307 C 0.70247 0.66109 0.09759
 C1308 C 0.71139 0.66680 0.07448
 C1309 C 0.71449 0.65098 0.05593
 C1310 C 0.70881 0.62918 0.06031
 C1311 C 0.69919 0.62372 0.08329
 C1312 C 0.69612 0.63958 0.10184
 C1313 C 0.70260 0.67651 0.11790
 C1314 C 0.70452 0.68875 0.13542
 C1315 C 0.70927 0.70213 0.15681
 C1316 C 0.70033 0.72300 0.15990
 C1317 C 0.70717 0.73635 0.17970
 C1318 C 0.72308 0.72895 0.19650
 C1319 C 0.73161 0.70778 0.19319
 C1320 C 0.72464 0.69452 0.17373
 H1321 H 0.71658 0.68335 0.07108
 H1322 H 0.72161 0.65573 0.03828
 H1323 H 0.69482 0.60705 0.08727
 H1324 H 0.68953 0.63490 0.11980
 H1325 H 0.68856 0.72914 0.14669
 H1326 H 0.70053 0.75263 0.18128
 H1327 H 0.74405 0.70140 0.20538
 H1328 H 0.73181 0.67848 0.17143
 C1329 C 0.19526 0.59390 0.19871
 C1330 C 0.20504 0.57630 0.21082
 C1331 C 0.19383 0.55673 0.21351
 C1332 C 0.17262 0.55457 0.20422
 C1333 C 0.16325 0.57209 0.19125
 C1334 C 0.17449 0.59164 0.18859
 C1335 C 0.20516 0.61502 0.19964
 C1336 C 0.21227 0.63313 0.20215
 C1337 C 0.21903 0.65503 0.20739
 C1338 C 0.23874 0.66326 0.19855
 C1339 C 0.24529 0.68429 0.20545
 C1340 C 0.23223 0.69726 0.22137
 C1341 C 0.21235 0.68867 0.22976
 C1342 C 0.20586 0.66788 0.22280
 H1343 H 0.22101 0.57794 0.21895
 H1344 H 0.20158 0.54342 0.22327
 H1345 H 0.14687 0.57104 0.18415
 H1346 H 0.16663 0.60527 0.17952
 H1347 H 0.24914 0.65336 0.18668
 H1348 H 0.26071 0.69017 0.19862
 H1349 H 0.20195 0.69760 0.24248
 H1350 H 0.19067 0.66162 0.22996
 C1351 C 0.69241 0.09730 0.70155
 C1352 C 0.69538 0.08125 0.68314
 C1353 C 0.68437 0.06141 0.68500
 C1354 C 0.67043 0.05748 0.70536
 C1355 C 0.66730 0.07391 0.72340
 C1356 C 0.67821 0.09362 0.72150
 C1357 C 0.70369 0.11771 0.70081
 C1358 C 0.71176 0.13544 0.70279
 C1359 C 0.71924 0.15706 0.70829
 C1360 C 0.70671 0.16978 0.72451
 C1361 C 0.71377 0.19024 0.73190
 C1362 C 0.73359 0.19866 0.72315
 C1363 C 0.74607 0.18580 0.70650
 C1364 C 0.73895 0.16505 0.69917
 H1365 H 0.70630 0.08398 0.66759
 H1366 H 0.68712 0.04896 0.67091
 H1367 H 0.65640 0.07149 0.73905
 H1368 H 0.67568 0.10598 0.73575
 H1369 H 0.69154 0.16369 0.73192
 H1370 H 0.70372 0.19912 0.74504
 H1371 H 0.76141 0.19160 0.69934
 H1372 H 0.74889 0.15522 0.68672
 C1373 C 0.80030 0.09080 0.30200
 C1374 C 0.79259 0.07469 0.28590
 C1375 C 0.80392 0.05509 0.28304
 C1376 C 0.82345 0.05118 0.29614
 C1377 C 0.83028 0.06723 0.31344
 C1378 C 0.81889 0.08687 0.31614
 C1379 C 0.79094 0.11228 0.30125
 C1380 C 0.78419 0.13058 0.29872
 C1381 C 0.77775 0.15259 0.29336
 C1382 C 0.75799 0.16128 0.30181
 C1383 C 0.75165 0.18231 0.29467
 C1384 C 0.76497 0.19481 0.27887
 C1385 C 0.78490 0.18577 0.27088
 C1386 C 0.79119 0.16497 0.27808
 H1387 H 0.77816 0.07755 0.27486
 H1388 H 0.79713 0.04304 0.27056
 H1389 H 0.84530 0.06559 0.32364
 H1390 H 0.82521 0.09940 0.32840
 H1391 H 0.74736 0.15174 0.31354
 H1392 H 0.73618 0.18854 0.30121
 H1393 H 0.79552 0.19435 0.25829
 H1394 H 0.80642 0.15834 0.27120
 C1395 C 0.30633 0.59824 0.79780
 C1396 C 0.32473 0.59397 0.81215
 C1397 C 0.33567 0.57402 0.80974
 C1398 C 0.32854 0.55800 0.79255
 C1399 C 0.30940 0.56244 0.77894
 C1400 C 0.29852 0.58230 0.78153
 C1401 C 0.29638 0.61948 0.79799
 C1402 C 0.28825 0.63732 0.79652
 C1403 C 0.27898 0.65859 0.79281
 C1404 C 0.29035 0.67716 0.80016
 C1405 C 0.28311 0.69777 0.79293
 C1406 C 0.26483 0.70004 0.77743
 C1407 C 0.25237 0.68138 0.77224
 C1408 C 0.25961 0.66079 0.77955
 H1409 H 0.33106 0.60631 0.82464
 H1410 H 0.35045 0.57196 0.82028
 H1411 H 0.30239 0.55050 0.76649
 H1412 H 0.28418 0.58538 0.77042
 H1413 H 0.30519 0.67569 0.81080
 H1414 H 0.29223 0.71178 0.79901
 H1415 H 0.23773 0.68243 0.76122
 H1416 H 0.25055 0.64652 0.77393
 C1417 C 0.29737 0.41329 0.69878
 C1418 C 0.31750 0.41481 0.68677
 C1419 C 0.32984 0.43371 0.68912
 C1420 C 0.32224 0.45136 0.70364
 C1421 C 0.30164 0.44997 0.71493
 C1422 C 0.28933 0.43102 0.71257
 C1423 C 0.28655 0.39263 0.69973
 C1424 C 0.27893 0.37473 0.70206
 C1425 C 0.27191 0.35287 0.70693
 C1426 C 0.28512 0.33978 0.72172
 C1427 C 0.27871 0.31885 0.72790
 C1428 C 0.25887 0.31033 0.71937
 C1429 C 0.24571 0.32358 0.70415
 C1430 C 0.25220 0.34476 0.69800
 H1431 H 0.32405 0.40106 0.67640
 H1432 H 0.34573 0.43415 0.68046
 H1433 H 0.29522 0.46339 0.72593
 H1434 H 0.27388 0.42994 0.72219
 H1435 H 0.30035 0.34590 0.72888
 H1436 H 0.28926 0.30966 0.74001
 H1437 H 0.23032 0.31775 0.69725
 H1438 H 0.24179 0.35483 0.68656
 C1439 C 0.79355 0.91103 0.19830
 C1440 C 0.81143 0.91450 0.18276
 C1441 C 0.82385 0.93332 0.18542
 C1442 C 0.81878 0.94907 0.20399
 C1443 C 0.79997 0.94569 0.21868
 C1444 C 0.78760 0.92685 0.21589
 C1445 C 0.78348 0.88999 0.19885
 C1446 C 0.77653 0.87181 0.20103
 C1447 C 0.77034 0.84972 0.20590
 C1448 C 0.75071 0.84105 0.19747
 C1449 C 0.74487 0.81977 0.20396
 C1450 C 0.75859 0.80699 0.21905
 C1451 C 0.77837 0.81604 0.22703
 C1452 C 0.78415 0.83707 0.22048
 H1453 H 0.81644 0.90214 0.16938
 H1454 H 0.83831 0.93448 0.17402
 H1455 H 0.79452 0.95756 0.23234
 H1456 H 0.77379 0.92430 0.22809
 H1457 H 0.73982 0.85080 0.18624
 H1458 H 0.72949 0.81353 0.19751
 H1459 H 0.78928 0.80725 0.23910
 H1460 H 0.79930 0.84365 0.22729
 C1461 C 0.69398 0.90622 0.79568
 C1462 C 0.69641 0.92236 0.81401
 C1463 C 0.68532 0.94223 0.81174
 C1464 C 0.67179 0.94609 0.79106
 C1465 C 0.66932 0.92961 0.77301
 C1466 C 0.68033 0.90988 0.77531
 C1467 C 0.70507 0.88562 0.79716
 C1468 C 0.71301 0.86769 0.79596
 C1469 C 0.72037 0.84577 0.79149
 C1470 C 0.70784 0.83269 0.77593
 C1471 C 0.71487 0.81191 0.76939
 C1472 C 0.73466 0.80353 0.77839
 C1473 C 0.74711 0.81674 0.79444
 C1474 C 0.74003 0.83781 0.80089
 H1475 H 0.70690 0.91966 0.82989
 H1476 H 0.68761 0.95471 0.82584
 H1477 H 0.65874 0.93194 0.75713
 H1478 H 0.67821 0.89742 0.76112
 H1479 H 0.69272 0.83875 0.76830
 H1480 H 0.70489 0.80278 0.75661
 H1481 H 0.76245 0.81099 0.80172
 H1482 H 0.74996 0.84792 0.81283
 C1483 C 0.19578 0.40620 0.29744
 C1484 C 0.19754 0.42210 0.31616
 C1485 C 0.18635 0.44193 0.31387
 C1486 C 0.17336 0.44600 0.29280
 C1487 C 0.17160 0.42979 0.27429
 C1488 C 0.18274 0.41010 0.27660
 C1489 C 0.20671 0.38551 0.29914
 C1490 C 0.21451 0.36748 0.29822
 C1491 C 0.22171 0.34542 0.29419
 C1492 C 0.20855 0.33188 0.27988
 C1493 C 0.21549 0.31105 0.27340
 C1494 C 0.23581 0.30303 0.28123
 C1495 C 0.24885 0.31665 0.29616
 C1496 C 0.24186 0.33779 0.30252
 H1497 H 0.20753 0.41921 0.33242
 H1498 H 0.18810 0.45418 0.32834
 H1499 H 0.16142 0.43223 0.25810
 H1500 H 0.18109 0.39784 0.26211
 H1501 H 0.19305 0.33768 0.27301
 H1502 H 0.20509 0.30170 0.26129
 H1503 H 0.26462 0.31123 0.30248
 H1504 H 0.25230 0.34824 0.31346
 C1505 C 0.09166 0.26587 0.79828
 C1506 C 0.08229 0.28632 0.80292
 C1507 C 0.06456 0.28831 0.81921
 C1508 C 0.05605 0.26985 0.83115
 C1509 C 0.06535 0.24934 0.82596
 C1510 C 0.08302 0.24739 0.80967
 C1511 C 0.11137 0.26396 0.78389
 C1512 C 0.12862 0.26198 0.77339
 C1513 C 0.15011 0.25927 0.76318
 C1514 C 0.15606 0.26847 0.74029
 C1515 C 0.17772 0.26749 0.73221
 C1516 C 0.19367 0.25733 0.74699
 C1517 C 0.18719 0.24771 0.76966
 C1518 C 0.16566 0.24856 0.77753
 H1519 H 0.08896 0.30076 0.79438
 H1520 H 0.05760 0.30428 0.82257
 H1521 H 0.05942 0.23486 0.83511
 H1522 H 0.09034 0.23153 0.80651
 H1523 H 0.14415 0.27697 0.72911
 H1524 H 0.18205 0.27547 0.71496
 H1525 H 0.19886 0.23999 0.78184
 H1526 H 0.16129 0.24148 0.79534
 C1527 C 0.59276 0.76267 0.29973
 C1528 C 0.58402 0.78347 0.30383
 C1529 C 0.56638 0.78632 0.32005
 C1530 C 0.55731 0.76839 0.33247
 C1531 C 0.56595 0.74750 0.32783
 C1532 C 0.58358 0.74469 0.31161
 C1533 C 0.61240 0.76000 0.28540
 C1534 C 0.62960 0.75770 0.27490
 C1535 C 0.65104 0.75492 0.26462
 C1536 C 0.65678 0.76374 0.24147
 C1537 C 0.67843 0.76299 0.23335
 C1538 C 0.69458 0.75344 0.24836
 C1539 C 0.68832 0.74416 0.27131
 C1540 C 0.66679 0.74478 0.27922
 H1541 H 0.59112 0.79753 0.29490
 H1542 H 0.55990 0.80256 0.32296
 H1543 H 0.55952 0.73342 0.33733
 H1544 H 0.59040 0.72856 0.30886
 H1545 H 0.64472 0.77183 0.23012
 H1546 H 0.68258 0.77070 0.21588
 H1547 H 0.70015 0.73690 0.28366
 H1548 H 0.66258 0.73802 0.29724
 C1549 C 0.59781 0.23679 0.19947
 C1550 C 0.58848 0.25459 0.18727
 C1551 C 0.57082 0.25159 0.17134
 C1552 C 0.56228 0.23067 0.16730
 C1553 C 0.57151 0.21292 0.18004
 C1554 C 0.58918 0.21597 0.19597
 C1555 C 0.61745 0.23964 0.21357
 C1556 C 0.63463 0.24214 0.22385
 C1557 C 0.65606 0.24520 0.23384
 C1558 C 0.67156 0.25535 0.21893
 C1559 C 0.69308 0.25629 0.22658
 C1560 C 0.69961 0.24732 0.24957
 C1561 C 0.68370 0.23779 0.26492
 C1562 C 0.66205 0.23670 0.25706
 H1563 H 0.59521 0.27073 0.18956
 H1564 H 0.56428 0.26554 0.16159
 H1565 H 0.56512 0.19667 0.17760
 H1566 H 0.59639 0.20204 0.20515
 H1567 H 0.66717 0.26187 0.20086
 H1568 H 0.70472 0.26354 0.21398
 H1569 H 0.68806 0.23035 0.28247
 H1570 H 0.65018 0.22863 0.26868
 C1571 C 0.09696 0.73948 0.69919
 C1572 C 0.08826 0.71866 0.69602
 C1573 C 0.07037 0.71554 0.68043
 C1574 C 0.06101 0.73322 0.66771
 C1575 C 0.06960 0.75416 0.67146
 C1576 C 0.08747 0.75723 0.68705
 C1577 C 0.11688 0.74236 0.71274
 C1578 C 0.13429 0.74489 0.72248
 C1579 C 0.15595 0.74802 0.73169
 C1580 C 0.16241 0.74020 0.75506
 C1581 C 0.18422 0.74150 0.76229
 C1582 C 0.19980 0.75057 0.74614
 C1583 C 0.19283 0.75879 0.72295
 C1584 C 0.17117 0.75764 0.71593
 H1585 H 0.09559 0.70477 0.70516
 H1586 H 0.06394 0.69928 0.67822
 H1587 H 0.06295 0.76805 0.66171
 H1588 H 0.09426 0.77337 0.68908
 H1589 H 0.15076 0.73255 0.76734
 H1590 H 0.18894 0.73465 0.78004
 H1591 H 0.20420 0.76572 0.70980
 H1592 H 0.16640 0.76364 0.69775
 C1593 C 0.90303 0.76246 0.70150
 C1594 C 0.90842 0.78310 0.69271
 C1595 C 0.92592 0.78570 0.67632
 C1596 C 0.93846 0.76760 0.66818
 C1597 C 0.93297 0.74691 0.67782
 C1598 C 0.91544 0.74443 0.69417
 C1599 C 0.88350 0.75946 0.71590
 C1600 C 0.86639 0.75676 0.72640
 C1601 C 0.84502 0.75334 0.73650
 C1602 C 0.83852 0.76253 0.75937
 C1603 C 0.81680 0.76119 0.76712
 C1604 C 0.80133 0.75074 0.75197
 C1605 C 0.80840 0.74101 0.72941
 C1606 C 0.82999 0.74218 0.72191
 H1607 H 0.89888 0.79720 0.69823
 H1608 H 0.92975 0.80209 0.67064
 H1609 H 0.94127 0.73225 0.67178
 H1610 H 0.91115 0.72828 0.70048
 H1611 H 0.85003 0.77137 0.77076
 H1612 H 0.81201 0.76919 0.78435
 H1613 H 0.79711 0.73304 0.71696
 H1614 H 0.83477 0.73511 0.70411
 C1615 C 0.40416 0.26065 0.20045
 C1616 C 0.41261 0.28131 0.19565
 C1617 C 0.43017 0.28365 0.17925
 C1618 C 0.43945 0.26532 0.16735
 C1619 C 0.43108 0.24459 0.17269
 C1620 C 0.41355 0.24230 0.18908
 C1621 C 0.38459 0.25839 0.21495
 C1622 C 0.36743 0.25623 0.22551
 C1623 C 0.34599 0.25337 0.23569
 C1624 C 0.34000 0.26202 0.25901
 C1625 C 0.31835 0.26091 0.26710
 C1626 C 0.30247 0.25122 0.25186
 C1627 C 0.30900 0.24212 0.22876
 C1628 C 0.33050 0.24308 0.22090
 H1629 H 0.40536 0.29565 0.20416
 H1630 H 0.43643 0.29979 0.17581
 H1631 H 0.43765 0.23019 0.16360
 H1632 H 0.40695 0.22626 0.19236
 H1633 H 0.35186 0.27017 0.27057
 H1634 H 0.31396 0.26837 0.28478
 H1635 H 0.29740 0.23467 0.21628
 H1636 H 0.33490 0.23641 0.20277
 C1637 C 0.39994 0.73886 0.29978
 C1638 C 0.40895 0.75706 0.31156
 C1639 C 0.42642 0.75459 0.32787
 C1640 C 0.43511 0.73381 0.33273
 C1641 C 0.42621 0.71564 0.32042
 C1642 C 0.40871 0.71816 0.30410
 C1643 C 0.38039 0.74127 0.28543
 C1644 C 0.36322 0.74358 0.27505
 C1645 C 0.34174 0.74664 0.26518
 C1646 C 0.32635 0.75719 0.28015
 C1647 C 0.30479 0.75828 0.27269
 C1648 C 0.29811 0.74909 0.24978
 C1649 C 0.31390 0.73911 0.23436
 C1650 C 0.33560 0.73786 0.24206
 H1651 H 0.40209 0.77312 0.30865
 H1652 H 0.43270 0.76886 0.33728
 H1653 H 0.43273 0.69948 0.32349
 H1654 H 0.40174 0.70392 0.29528
 H1655 H 0.33086 0.76394 0.29814
 H1656 H 0.29326 0.76588 0.28535
 H1657 H 0.30941 0.73148 0.21689
 H1658 H 0.34740 0.72948 0.23039
 C1659 C 0.89931 0.23325 0.80421
 C1660 C 0.89653 0.22602 0.82876
 C1661 C 0.91446 0.22316 0.84430
 C1662 C 0.93551 0.22751 0.83551
 C1663 C 0.93820 0.23433 0.81060
 C1664 C 0.92020 0.23722 0.79507
 C1665 C 0.88047 0.23759 0.78918
 C1666 C 0.86384 0.24142 0.77821
 C1667 C 0.84294 0.24608 0.76752
 C1668 C 0.83674 0.23729 0.74444
 C1669 C 0.81526 0.23952 0.73624
 C1670 C 0.79972 0.25045 0.75115
 C1671 C 0.80654 0.25989 0.77386
 C1672 C 0.82791 0.25784 0.78182
 H1673 H 0.88042 0.22304 0.83609
 H1674 H 0.91177 0.21820 0.86343
 H1675 H 0.95422 0.23754 0.80317
 H1676 H 0.92255 0.24284 0.77612
 H1677 H 0.84823 0.22799 0.73328
 H1678 H 0.81066 0.23172 0.71890
 H1679 H 0.79516 0.26818 0.78613
 H1680 H 0.83246 0.26460 0.79979
 C1681 C 0.60065 0.97997 0.63208
 C1682 C 0.59512 0.97524 0.65676
 C1683 C 0.60780 0.98314 0.67642
 C1684 C 0.62620 0.99628 0.67178
 C1685 C 0.63188 1.00017 0.64660
 C1686 C 0.61924 0.99212 0.62707
 C1687 C 0.58636 0.97456 0.61181
 C1688 C 0.57492 0.97216 0.59380
 C1689 C 0.56243 0.97230 0.57116
 C1690 C 0.57120 0.98298 0.55061
 C1691 C 0.55832 0.98775 0.53010
 C1692 C 0.53638 0.98142 0.52925
 C1693 C 0.52796 0.96953 0.54951
 C1694 C 0.54090 0.96512 0.57045
 H1695 H 0.58057 0.96610 0.66087
 H1696 H 0.60213 0.98003 0.69519
 H1697 H 0.64628 1.00918 0.64167
 H1698 H 0.62372 0.99586 0.60798
 H1699 H 0.58770 0.98897 0.55109
 H1700 H 0.56543 0.99765 0.51562
 H1701 H 0.51107 0.96486 0.54996
 H1702 H 0.53382 0.95713 0.58648
 C1703 C 0.09110 0.48317 1.13877
 C1704 C 0.09205 0.50545 1.14419
 C1705 C 0.10572 0.51313 1.16293
 C1706 C 0.11869 0.49863 1.17659
 C1707 C 0.11727 0.47616 1.17153
 C1708 C 0.10362 0.46848 1.15258
 C1709 C 0.07869 0.47621 1.11750
 C1710 C 0.06885 0.47271 1.09849
 C1711 C 0.05820 0.47178 1.07465
 C1712 C 0.06844 0.48178 1.05453
 C1713 C 0.05701 0.48608 1.03276
 C1714 C 0.03512 0.47993 1.03026
 C1715 C 0.02532 0.46852 1.05007
 C1716 C 0.03677 0.46462 1.07224
 H1717 H 0.08254 0.51699 1.13353
 H1718 H 0.10622 0.53047 1.16668
 H1719 H 0.12717 0.46465 1.18172
 H1720 H 0.10319 0.45122 1.14835
 H1721 H 0.08487 0.48776 1.05630
 H1722 H 0.06510 0.49560 1.01864
 H1723 H 0.00842 0.46397 1.04922
 H1724 H 0.02855 0.45717 1.08790
 C1725 C -0.09759 0.01452 1.13561
 C1726 C -0.10511 -0.00686 1.13573
 C1727 C -0.11859 -0.01408 1.15489
 C1728 C -0.12502 -0.00000 1.17459
 C1729 C -0.11694 0.02156 1.17436
 C1730 C -0.10345 0.02873 1.15499
 C1731 C -0.08434 0.02139 1.11496
 C1732 C -0.07380 0.02486 1.09641
 C1733 C -0.06224 0.02585 1.07306
 C1734 C -0.04104 0.03383 1.07155
 C1735 C -0.02865 0.03029 1.04983
 C1736 C -0.03727 0.01846 1.02955
 C1737 C -0.05897 0.01145 1.03113
 C1738 C -0.07133 0.01535 1.05248
 H1739 H -0.10051 -0.01809 1.12091
 H1740 H -0.12322 -0.03103 1.15447
 H1741 H -0.12171 0.03336 1.18844
 H1742 H -0.09784 0.04541 1.15497
 H1743 H -0.03371 0.04171 1.08756
 H1744 H -0.01193 0.03553 1.04968
 H1745 H -0.06616 0.00166 1.01653
 H1746 H -0.08758 0.00877 1.05355
 C1747 C 0.40335 0.51995 0.63354
 C1748 C 0.39626 0.49841 0.63370
 C1749 C 0.38295 0.49094 0.65288
 C1750 C 0.37628 0.50490 0.67259
 C1751 C 0.38374 0.52669 0.67217
 C1752 C 0.39709 0.53411 0.65279
 C1753 C 0.41676 0.52697 0.61310
 C1754 C 0.42756 0.53051 0.59478
 C1755 C 0.43953 0.53147 0.57170
 C1756 C 0.46085 0.53919 0.57074
 C1757 C 0.47369 0.53531 0.54945
 C1758 C 0.46540 0.52338 0.52905
 C1759 C 0.44358 0.51666 0.53006
 C1760 C 0.43078 0.52093 0.55096
 H1761 H 0.40117 0.48724 0.61895
 H1762 H 0.37876 0.47388 0.65253
 H1763 H 0.37869 0.53844 0.68616
 H1764 H 0.40233 0.55091 0.65272
 H1765 H 0.46793 0.54705 0.58691
 H1766 H 0.49049 0.54028 0.54978
 H1767 H 0.43663 0.50669 0.51548
 H1768 H 0.41445 0.51450 0.55164
 C1769 C 0.40727 0.48503 -0.13948
 C1770 C 0.39455 0.47076 -0.15360
 C1771 C 0.38128 0.47884 -0.17266
 C1772 C 0.38047 0.50132 -0.17763
 C1773 C 0.39356 0.51543 -0.16355
 C1774 C 0.40683 0.50734 -0.14465
 C1775 C 0.41967 0.47751 -0.11844
 C1776 C 0.42966 0.47325 -0.09974
 C1777 C 0.44076 0.47114 -0.07625
 C1778 C 0.43157 0.48136 -0.05540
 C1779 C 0.44366 0.48422 -0.03377
 C1780 C 0.46519 0.47646 -0.03218
 C1781 C 0.47382 0.46478 -0.05273
 C1782 C 0.46171 0.46229 -0.07472
 H1783 H 0.39459 0.45349 -0.14960
 H1784 H 0.37126 0.46761 -0.18309
 H1785 H 0.39354 0.53276 -0.16719
 H1786 H 0.41651 0.51856 -0.13377
 H1787 H 0.41551 0.48856 -0.05643
 H1788 H 0.43646 0.49393 -0.01898
 H1789 H 0.49040 0.45892 -0.05252
 H1790 H 0.46912 0.45458 -0.09090
 C1791 C -0.09287 0.98217 0.36061
 C1792 C -0.10479 0.96734 0.34630
 C1793 C -0.11853 0.97487 0.32737
 C1794 C -0.12064 0.99734 0.32280
 C1795 C -0.10826 1.01201 0.33696
 C1796 C -0.09450 1.00447 0.35569
 C1797 C -0.08028 0.97524 0.38175
 C1798 C -0.07027 0.97163 0.40060
 C1799 C -0.05933 0.97043 0.42426
 C1800 C -0.03817 0.96219 0.42632
 C1801 C -0.02633 0.96563 0.44834
 C1802 C -0.03544 0.97763 0.46837
 C1803 C -0.05712 0.98480 0.46625
 C1804 C -0.06895 0.98100 0.44462
 H1805 H -0.10383 0.95006 0.35010
 H1806 H -0.12799 0.96322 0.31684
 H1807 H -0.10930 1.02935 0.33361
 H1808 H -0.08545 1.01612 0.36672
 H1809 H -0.03043 0.95424 0.41051
 H1810 H -0.00960 0.96022 0.44893
 H1811 H -0.06468 0.99476 0.48058
 H1812 H -0.08517 0.98776 0.44315
 C1813 C 0.10071 0.52090 0.36811
 C1814 C 0.09219 0.52092 0.34392
 C1815 C 0.10485 0.51358 0.32379
 C1816 C 0.12616 0.50595 0.32766
 C1817 C 0.13476 0.50659 0.35192
 C1818 C 0.12211 0.51400 0.37199
 C1819 C 0.08695 0.52530 0.38935
 C1820 C 0.07598 0.52706 0.40796
 C1821 C 0.06401 0.52639 0.43107
 C1822 C 0.07316 0.51501 0.45090
 C1823 C 0.06081 0.51027 0.47193
 C1824 C 0.03903 0.51725 0.47399
 C1825 C 0.03024 0.52971 0.45441
 C1826 C 0.04264 0.53416 0.43300
 H1827 H 0.07555 0.52590 0.34073
 H1828 H 0.09768 0.51303 0.30536
 H1829 H 0.15117 0.50105 0.35543
 H1830 H 0.12881 0.51371 0.39067
 H1831 H 0.08954 0.50863 0.44951
 H1832 H 0.06817 0.50002 0.48593
 H1833 H 0.01345 0.53492 0.45492
 H1834 H 0.03527 0.54274 0.41755
 C1835 C 0.60185 0.02286 -0.13357
 C1836 C 0.59315 0.02311 -0.15766
 C1837 C 0.60553 0.01562 -0.17794
 C1838 C 0.62672 0.00760 -0.17429
 C1839 C 0.63558 0.00815 -0.15014
 C1840 C 0.62321 0.01572 -0.12993
 C1841 C 0.58821 0.02691 -0.11217
 C1842 C 0.57725 0.02818 -0.09353
 C1843 C 0.56517 0.02679 -0.07058
 C1844 C 0.57409 0.01457 -0.05127
 C1845 C 0.56155 0.00913 -0.03063
 C1846 C 0.53982 0.01623 -0.02845
 C1847 C 0.53125 0.02946 -0.04749
 C1848 C 0.54385 0.03463 -0.06851
 H1849 H 0.57653 0.02826 -0.16064
 H1850 H 0.59819 0.01516 -0.19628
 H1851 H 0.65191 0.00231 -0.14683
 H1852 H 0.63003 0.01523 -0.11132
 H1853 H 0.59044 0.00811 -0.05282
 H1854 H 0.56873 -0.00163 -0.01701
 H1855 H 0.51450 0.03478 -0.04691
 H1856 H 0.53666 0.04382 -0.08359
 C1857 C 0.64992 0.53860 -0.00206
 C1858 C 0.65296 0.54517 0.02269
 C1859 C 0.67067 0.55797 0.02919
 C1860 C 0.68588 0.56462 0.01100
 C1861 C 0.68345 0.55649 -0.01363
 C1862 C 0.66543 0.54385 -0.02014
 C1863 C 0.62938 0.52923 -0.00874
 C1864 C 0.61099 0.52331 -0.01202
 C1865 C 0.58812 0.51881 -0.01282
 C1866 C 0.57413 0.53432 -0.00242
 C1867 C 0.55226 0.52974 0.00072
 C1868 C 0.54361 0.50957 -0.00682
 C1869 C 0.55771 0.49429 -0.01829
 C1870 C 0.57989 0.49885 -0.02114
 H1871 H 0.64111 0.54111 0.03690
 H1872 H 0.67230 0.56261 0.04862
 H1873 H 0.69437 0.56124 -0.02847
 H1874 H 0.66312 0.53905 -0.03944
 H1875 H 0.58034 0.54968 0.00449
 H1876 H 0.54259 0.54169 0.01061
 H1877 H 0.55185 0.47847 -0.02405
 H1878 H 0.59065 0.48659 -0.02899
 C1879 C 0.14866 1.04251 0.49723
 C1880 C 0.15452 1.04521 0.52229
 C1881 C 0.17257 1.05768 0.52861
 C1882 C 0.18506 1.06763 0.50992
 C1883 C 0.17983 1.06386 0.48470
 C1884 C 0.16161 1.05148 0.47840
 C1885 C 0.12774 1.03345 0.49157
 C1886 C 0.10928 1.02752 0.48876
 C1887 C 0.08646 1.02270 0.48806
 C1888 C 0.07215 1.03819 0.49790
 C1889 C 0.05030 1.03334 0.50088
 C1890 C 0.04203 1.01288 0.49379
 C1891 C 0.05646 0.99761 0.48289
 C1892 C 0.07858 1.00246 0.48016
 H1893 H 0.14452 1.03855 0.53705
 H1894 H 0.17635 1.06019 0.54816
 H1895 H 0.18908 1.07151 0.46996
 H1896 H 0.15707 1.04977 0.45896
 H1897 H 0.07807 1.05378 0.50445
 H1898 H 0.04035 1.04534 0.51031
 H1899 H 0.05090 0.98159 0.47748
 H1900 H 0.08959 0.99023 0.47272
 C1901 C 0.14489 -0.05423 1.01439
 C1902 C 0.16438 -0.04272 1.01253
 C1903 C 0.18357 -0.05366 1.00578
 C1904 C 0.18328 -0.07611 1.00045
 C1905 C 0.16381 -0.08760 1.00331
 C1906 C 0.14479 -0.07674 1.01025
 C1907 C 0.12439 -0.04316 1.01728
 C1908 C 0.10625 -0.03573 1.01756
 C1909 C 0.08384 -0.02946 1.01508
 C1910 C 0.07573 -0.00946 1.02384
 C1911 C 0.05411 -0.00351 1.01899
 C1912 C 0.04047 -0.01744 1.00520
 C1913 C 0.04899 -0.03760 0.99699
 C1914 C 0.07029 -0.04352 1.00198
 H1915 H 0.16460 -0.02525 1.01539
 H1916 H 0.19838 -0.04446 1.00358
 H1917 H 0.16323 -0.10494 0.99957
 H1918 H 0.12979 -0.08579 1.01142
 H1919 H 0.08616 0.00166 1.03388
 H1920 H 0.04833 0.01222 1.02544
 H1921 H 0.03961 -0.04865 0.98568
 H1922 H 0.07642 -0.05893 0.99485
 C1923 C 0.65047 0.45814 0.50403
 C1924 C 0.66596 0.45289 0.52207
 C1925 C 0.68449 0.44082 0.51536
 C1926 C 0.68751 0.43330 0.49052
 C1927 C 0.67222 0.43989 0.47244
 C1928 C 0.65398 0.45210 0.47916
 C1929 C 0.62965 0.46718 0.51078
 C1930 C 0.61115 0.47300 0.51408
 C1931 C 0.58825 0.47762 0.51490
 C1932 C 0.58000 0.49803 0.52200
 C1933 C 0.55790 0.50283 0.51862
 C1934 C 0.54391 0.48735 0.50778
 C1935 C 0.55251 0.46669 0.50162
 C1936 C 0.57430 0.46188 0.50532
 H1937 H 0.66329 0.45729 0.54147
 H1938 H 0.69542 0.43607 0.53014
 H1939 H 0.67424 0.43572 0.45290
 H1940 H 0.64216 0.45618 0.46498
 H1941 H 0.59072 0.51047 0.52916
 H1942 H 0.55210 0.51900 0.52332
 H1943 H 0.54295 0.45455 0.49217
 H1944 H 0.58055 0.44617 0.49930
 C1945 C -0.14223 0.44431 0.48819
 C1946 C -0.16173 0.45603 0.49030
 C1947 C -0.18105 0.44514 0.49597
 C1948 C -0.18090 0.42252 0.49995
 C1949 C -0.16140 0.41087 0.49686
 C1950 C -0.14225 0.42169 0.49101
 C1951 C -0.12169 0.45519 0.48615
 C1952 C -0.10358 0.46249 0.48635
 C1953 C -0.08126 0.46875 0.48907
 C1954 C -0.07338 0.48875 0.48060
 C1955 C -0.05181 0.49466 0.48539
 C1956 C -0.03794 0.48067 0.49883
 C1957 C -0.04621 0.46051 0.50677
 C1958 C -0.06750 0.45464 0.50187
 H1959 H -0.16187 0.47357 0.48843
 H1960 H -0.19588 0.45446 0.49836
 H1961 H -0.16091 0.39341 0.49952
 H1962 H -0.12725 0.41247 0.48960
 H1963 H -0.08396 0.49990 0.47077
 H1964 H -0.04621 0.51038 0.47911
 H1965 H -0.03658 0.44936 0.51768
 H1966 H -0.07344 0.43920 0.50874
 C1967 C 0.35826 -0.05683 -0.01379
 C1968 C 0.33879 -0.04504 -0.01203
 C1969 C 0.31952 -0.05568 -0.00557
 C1970 C 0.31968 -0.07813 -0.00046
 C1971 C 0.33915 -0.08989 -0.00315
 C1972 C 0.35826 -0.07932 -0.00977
 C1973 C 0.37878 -0.04606 -0.01672
 C1974 C 0.39691 -0.03881 -0.01718
 C1975 C 0.41932 -0.03267 -0.01507
 C1976 C 0.42701 -0.01239 -0.02288
 C1977 C 0.44862 -0.00652 -0.01818
 C1978 C 0.46268 -0.02083 -0.00544
 C1979 C 0.45459 -0.04128 0.00176
 C1980 C 0.43329 -0.04712 -0.00311
 H1981 H 0.33863 -0.02759 -0.01481
 H1982 H 0.30472 -0.04625 -0.00350
 H1983 H 0.33966 -0.10723 0.00038
 H1984 H 0.37325 -0.08859 -0.01090
 H1985 H 0.41624 -0.00097 -0.03200
 H1986 H 0.45406 0.00944 -0.02382
 H1987 H 0.46426 -0.05259 0.01236
 H1988 H 0.42748 -0.06274 0.00333
 C1989 C 0.35456 1.05687 0.51755
 C1990 C 0.35452 1.07958 0.51577
 C1991 C 0.33559 1.09072 0.50939
 C1992 C 0.31633 1.07931 0.50472
 C1993 C 0.31615 1.05657 0.50766
 C1994 C 0.33526 1.04537 0.51385
 C1995 C 0.37507 1.04579 0.52005
 C1996 C 0.39322 1.03836 0.52024
 C1997 C 0.41565 1.03199 0.51791
 C1998 C 0.42963 1.04626 0.50582
 C1999 C 0.45094 1.04018 0.50078
 C2000 C 0.45902 1.01964 0.50793
 C2001 C 0.44497 1.00553 0.52084
 C2002 C 0.42336 1.01165 0.52572
 H2003 H 0.36937 1.08865 0.51838
 H2004 H 0.33609 1.10826 0.50754
 H2005 H 0.30151 1.04743 0.50405
 H2006 H 0.33514 1.02777 0.51489
 H2007 H 0.42382 1.06194 0.49940
 H2008 H 0.46063 1.05136 0.49005
 H2009 H 0.45039 0.98951 0.52645
 H2010 H 0.41260 1.00036 0.53498
 C2011 C -0.14522 0.55543 1.01236
 C2012 C -0.14552 0.57814 1.01082
 C2013 C -0.16469 0.58912 1.00504
 C2014 C -0.18390 0.57753 1.00073
 C2015 C -0.18378 0.55476 1.00340
 C2016 C -0.16445 0.54373 1.00901
 C2017 C -0.12458 0.54454 1.01445
 C2018 C -0.10643 0.53716 1.01445
 C2019 C -0.08406 0.53064 1.01216
 C2020 C -0.06994 0.54458 0.99975
 C2021 C -0.04853 0.53840 0.99535
 C2022 C -0.04058 0.51809 1.00342
 C2023 C -0.05483 0.50428 1.01648
 C2024 C -0.07648 0.51051 1.02077
 H2025 H -0.13073 0.58736 1.01320
 H2026 H -0.16442 0.60668 1.00340
 H2027 H -0.19838 0.54548 1.00007
 H2028 H -0.16435 0.52612 1.00989
 H2029 H -0.07564 0.56012 0.99280
 H2030 H -0.03854 0.54941 0.98474
 H2031 H -0.04948 0.48846 1.02285
 H2032 H -0.08734 0.49951 1.03032
 C2033 C 0.02222 0.65024 0.57211
 C2034 C 0.02994 0.64935 0.59663
 C2035 C 0.03110 0.66823 0.61115
 C2036 C 0.02458 0.68841 0.60137
 C2037 C 0.01699 0.68923 0.57659
 C2038 C 0.01581 0.67023 0.56204
 C2039 C 0.02038 0.63026 0.55810
 C2040 C 0.01920 0.61250 0.54851
 C2041 C 0.01832 0.59021 0.54016
 C2042 C 0.02437 0.57407 0.55701
 C2043 C 0.02284 0.55222 0.55042
 C2044 C 0.01534 0.54591 0.52661
 C2045 C 0.00951 0.56228 0.50954
 C2046 C 0.01097 0.58435 0.51631
 H2047 H 0.03480 0.63393 0.60468
 H2048 H 0.03664 0.66694 0.63026
 H2049 H 0.01205 0.70456 0.56844
 H2050 H 0.00978 0.67111 0.54310
 H2051 H 0.03007 0.57837 0.57551
 H2052 H 0.02763 0.54031 0.56417
 H2053 H 0.00352 0.55809 0.49118
 H2054 H 0.00615 0.59676 0.50313
 C2055 C 0.52372 0.14814 0.07083
 C2056 C 0.51754 0.16822 0.06080
 C2057 C 0.51884 0.18717 0.07541
 C2058 C 0.52631 0.18622 0.10023
 C2059 C 0.53264 0.16596 0.10997
 C2060 C 0.53136 0.14712 0.09538
 C2061 C 0.52169 0.12822 0.05674
 C2062 C 0.52031 0.11053 0.04699
 C2063 C 0.51918 0.08834 0.03835
 C2064 C 0.51161 0.08281 0.01449
 C2065 C 0.50995 0.06083 0.00738
 C2066 C 0.51584 0.04421 0.02411
 C2067 C 0.52348 0.05019 0.04797
 C2068 C 0.52521 0.07195 0.05489
 H2069 H 0.51158 0.16920 0.04183
 H2070 H 0.51405 0.20255 0.06728
 H2071 H 0.53808 0.16457 0.12911
 H2072 H 0.53605 0.13165 0.10340
 H2073 H 0.50678 0.09541 0.00155
 H2074 H 0.50378 0.05690 -0.01097
 H2075 H 0.52828 0.03809 0.06150
 H2076 H 0.53106 0.07600 0.07341
 C2077 C -0.02148 0.15311 0.93652
 C2078 C -0.00295 0.16160 0.92509
 C2079 C -0.00462 0.17968 0.90948
 C2080 C -0.02491 0.18950 0.90498
 C2081 C -0.04337 0.18119 0.91709
 C2082 C -0.04166 0.16308 0.93270
 C2083 C -0.02011 0.13268 0.94948
 C2084 C -0.01897 0.11472 0.95836
 C2085 C -0.01781 0.09234 0.96604
 C2086 C -0.01059 0.08627 0.98983
 C2087 C -0.00860 0.06414 0.99593
 C2088 C -0.01375 0.04792 0.97824
 C2089 C -0.02113 0.05444 0.95452
 C2090 C -0.02320 0.07635 0.94859
 H2091 H 0.01269 0.15380 0.92756
 H2092 H 0.00986 0.18545 0.90019
 H2093 H -0.05916 0.18856 0.91427
 H2094 H -0.05616 0.15649 0.94122
 H2095 H -0.00624 0.09856 1.00347
 H2096 H -0.00273 0.05978 1.01426
 H2097 H -0.02541 0.04266 0.94029
 H2098 H -0.02877 0.08082 0.93013
 C2099 C 0.47528 0.65418 0.43120
 C2100 C 0.48095 0.67457 0.44089
 C2101 C 0.47891 0.69318 0.42606
 C2102 C 0.47126 0.69158 0.40133
 C2103 C 0.46531 0.67103 0.39201
 C2104 C 0.46730 0.65252 0.40683
 C2105 C 0.47856 0.63455 0.44527
 C2106 C 0.48116 0.61702 0.45485
 C2107 C 0.48393 0.59492 0.46308
 C2108 C 0.48974 0.58972 0.48763
 C2109 C 0.49263 0.56785 0.49448
 C2110 C 0.48971 0.55104 0.47681
 C2111 C 0.48390 0.55671 0.45223
 C2112 C 0.48100 0.57834 0.44554
 H2113 H 0.48719 0.67604 0.45971
 H2114 H 0.48341 0.70880 0.43388
 H2115 H 0.45974 0.66912 0.37297
 H2116 H 0.46303 0.63680 0.39907
 H2117 H 0.49212 0.60248 0.50137
 H2118 H 0.49720 0.56415 0.51348
 H2119 H 0.48129 0.54446 0.43797
 H2120 H 0.47650 0.58215 0.42649
 C2121 C 0.51883 0.84943 0.43128
 C2122 C 0.51269 0.82927 0.44097
 C2123 C 0.51398 0.81053 0.42595
 C2124 C 0.52141 0.81181 0.40107
 C2125 C 0.52770 0.83216 0.39169
 C2126 C 0.52643 0.85077 0.40668
 C2127 C 0.51674 0.86919 0.44571
 C2128 C 0.51531 0.88688 0.45548
 C2129 C 0.51412 0.90916 0.46382
 C2130 C 0.50796 0.91500 0.48820
 C2131 C 0.50643 0.93708 0.49504
 C2132 C 0.51103 0.95346 0.47751
 C2133 C 0.51726 0.94715 0.45314
 C2134 C 0.51884 0.92532 0.44647
 H2135 H 0.50674 0.82805 0.45998
 H2136 H 0.50922 0.79507 0.43379
 H2137 H 0.53310 0.83382 0.37252
 H2138 H 0.53108 0.86632 0.39893
 H2139 H 0.50420 0.90258 0.50179
 H2140 H 0.50147 0.94128 0.51387
 H2141 H 0.52113 0.95905 0.43900
 H2142 H 0.52363 0.92102 0.42756
 C2143 C 0.01755 0.34639 0.93388
 C2144 C -0.00143 0.33786 0.92358
 C2145 C -0.00045 0.31950 0.90808
 C2146 C 0.01958 0.30942 0.90257
 C2147 C 0.03852 0.31779 0.91352
 C2148 C 0.03750 0.33618 0.92903
 C2149 C 0.01680 0.36696 0.94686
 C2150 C 0.01618 0.38497 0.95590
 C2151 C 0.01564 0.40734 0.96399
 C2152 C 0.00804 0.41352 0.98772
 C2153 C 0.00663 0.43565 0.99425
 C2154 C 0.01273 0.45178 0.97705
 C2155 C 0.02051 0.44516 0.95337
 C2156 C 0.02201 0.42324 0.94702
 H2157 H -0.01691 0.34582 0.92686
 H2158 H -0.01529 0.31367 0.89968
 H2159 H 0.05414 0.31023 0.90992
 H2160 H 0.05233 0.34278 0.93669
 H2161 H 0.00296 0.40130 1.00098
 H2162 H 0.00046 0.44008 1.01254
 H2163 H 0.02553 0.45690 0.93954
 H2164 H 0.02788 0.41867 0.92859
 C2165 C 0.47768 0.34329 0.06643
 C2166 C 0.46985 0.34535 0.09090
 C2167 C 0.46853 0.32718 0.10633
 C2168 C 0.47501 0.30653 0.09752
 C2169 C 0.48261 0.30450 0.07273
 C2170 C 0.48396 0.32280 0.05729
 C2171 C 0.47999 0.36266 0.05164
 C2172 C 0.48161 0.38011 0.04162
 C2173 C 0.48306 0.40226 0.03316
 C2174 C 0.47740 0.41869 0.05008
 C2175 C 0.47972 0.44042 0.04364
 C2176 C 0.48760 0.44636 0.01989
 C2177 C 0.49291 0.42973 0.00266
 C2178 C 0.49070 0.40773 0.00931
 H2179 H 0.46510 0.36116 0.09825
 H2180 H 0.46300 0.32943 0.12539
 H2181 H 0.48752 0.28880 0.06531
 H2182 H 0.49010 0.32101 0.03839
 H2183 H 0.47149 0.41469 0.06858
 H2184 H 0.47528 0.45252 0.05753
 H2185 H 0.49909 0.43365 -0.01570
 H2186 H 0.49520 0.39510 -0.00395
 C2187 C -0.02308 0.84642 0.56911
 C2188 C -0.01713 0.82595 0.55965
 C2189 C -0.01861 0.80752 0.57486
 C2190 C -0.02602 0.80939 0.59974
 C2191 C -0.03215 0.83003 0.60889
 C2192 C -0.03070 0.84835 0.59369
 C2193 C -0.02073 0.86586 0.55447
 C2194 C -0.01904 0.88330 0.54442
 C2195 C -0.01753 0.90536 0.53569
 C2196 C -0.00998 0.91053 0.51171
 C2197 C -0.00784 0.93242 0.50465
 C2198 C -0.01317 0.94928 0.52158
 C2199 C -0.02091 0.94365 0.54550
 C2200 C -0.02313 0.92200 0.55236
 H2201 H -0.01118 0.82426 0.54067
 H2202 H -0.01397 0.79182 0.56719
 H2203 H -0.03755 0.83214 0.62803
 H2204 H -0.03520 0.86414 0.60128
 H2205 H -0.00552 0.89773 0.49865
 H2206 H -0.00175 0.93610 0.48618
 H2207 H -0.02538 0.95594 0.55916
 H2208 H -0.02899 0.91824 0.57095
 C2209 C 0.23443 0.34473 0.11558
 C2210 C 0.25627 0.35055 0.11504
 C2211 C 0.26417 0.36418 0.09643
 C2212 C 0.25035 0.37245 0.07769
 C2213 C 0.22827 0.36612 0.07832
 C2214 C 0.22041 0.35248 0.09717
 C2215 C 0.22688 0.33152 0.13591
 C2216 C 0.22298 0.32104 0.15433
 C2217 C 0.22166 0.30969 0.17771
 C2218 C 0.21456 0.28811 0.17914
 C2219 C 0.21823 0.27601 0.20091
 C2220 C 0.22938 0.28529 0.22128
 C2221 C 0.23545 0.30734 0.21976
 C2222 C 0.23136 0.31942 0.19841
 H2223 H 0.26732 0.34453 0.12914
 H2224 H 0.28138 0.36743 0.09645
 H2225 H 0.21667 0.37237 0.06504
 H2226 H 0.20338 0.34826 0.09758
 H2227 H 0.20736 0.28028 0.16303
 H2228 H 0.21374 0.25901 0.20102
 H2229 H 0.24482 0.31507 0.23431
 H2230 H 0.23731 0.33596 0.19739
 C2231 C 0.73497 0.84473 0.61170
 C2232 C 0.75717 0.84646 0.60659
 C2233 C 0.76452 0.86053 0.58806
 C2234 C 0.74975 0.87313 0.57432
 C2235 C 0.72739 0.87103 0.57920
 C2236 C 0.72005 0.85696 0.59790
 C2237 C 0.72816 0.83162 0.63249
 C2238 C 0.72455 0.82120 0.65105
 C2239 C 0.72321 0.80985 0.67444
 C2240 C 0.71546 0.78849 0.67598
 C2241 C 0.71857 0.77644 0.69791
 C2242 C 0.72975 0.78554 0.71835
 C2243 C 0.73653 0.80738 0.71668
 C2244 C 0.73306 0.81940 0.69514
 H2245 H 0.76887 0.83717 0.61725
 H2246 H 0.78178 0.86154 0.58446
 H2247 H 0.71567 0.88065 0.56900
 H2248 H 0.70285 0.85594 0.60188
 H2249 H 0.70808 0.78080 0.65989
 H2250 H 0.71350 0.75960 0.69817
 H2251 H 0.74585 0.81497 0.73138
 H2252 H 0.73943 0.83578 0.69408
 C2253 C 0.27085 0.64728 0.61290
 C2254 C 0.27079 0.65484 0.58831
 C2255 C 0.26391 0.64127 0.56887
 C2256 C 0.25691 0.61994 0.57381
 C2257 C 0.25750 0.61233 0.59852
 C2258 C 0.26441 0.62593 0.61793
 C2259 C 0.27555 0.66195 0.63320
 C2260 C 0.27819 0.67426 0.65054
 C2261 C 0.27951 0.68873 0.67170
 C2262 C 0.27744 0.71121 0.66851
 C2263 C 0.27429 0.72484 0.68925
 C2264 C 0.27273 0.71616 0.71358
 C2265 C 0.27671 0.69372 0.71647
 C2266 C 0.27996 0.68015 0.69577
 H2267 H 0.27547 0.67142 0.58423
 H2268 H 0.26334 0.64774 0.55011
 H2269 H 0.25243 0.59593 0.60287
 H2270 H 0.26425 0.61995 0.63693
 H2271 H 0.27708 0.71809 0.64992
 H2272 H 0.27161 0.74201 0.68594
 H2273 H 0.27688 0.68626 0.73448
 H2274 H 0.28177 0.66277 0.69853
 C2275 C 0.76825 0.14961 0.11322
 C2276 C 0.78229 0.14313 0.09398
 C2277 C 0.77482 0.12950 0.07479
 C2278 C 0.75314 0.12192 0.07462
 C2279 C 0.73929 0.12891 0.09424
 C2280 C 0.74680 0.14251 0.11320
 C2281 C 0.77533 0.16312 0.13363
 C2282 C 0.77884 0.17391 0.15204
 C2283 C 0.77976 0.18576 0.17526
 C2284 C 0.78730 0.20721 0.17650
 C2285 C 0.78353 0.21984 0.19804
 C2286 C 0.77192 0.21121 0.21842
 C2287 C 0.76532 0.18929 0.21710
 C2288 C 0.76945 0.17670 0.19593
 H2289 H 0.79902 0.14840 0.09393
 H2290 H 0.78645 0.12428 0.06079
 H2291 H 0.72229 0.12471 0.09471
 H2292 H 0.73572 0.14759 0.12792
 H2293 H 0.79497 0.21453 0.16039
 H2294 H 0.78841 0.23672 0.19797
 H2295 H 0.75563 0.18208 0.23171
 H2296 H 0.76317 0.16027 0.19505
 C2297 C 0.73288 0.15588 0.88958
 C2298 C 0.71811 0.14370 0.90359
 C2299 C 0.72565 0.12942 0.92201
 C2300 C 0.74805 0.12704 0.92635
 C2301 C 0.76266 0.13966 0.91247
 C2302 C 0.75512 0.15394 0.89426
 C2303 C 0.72593 0.16911 0.86896
 C2304 C 0.72231 0.17966 0.85050
 C2305 C 0.72103 0.19121 0.82723
 C2306 C 0.73097 0.18175 0.80637
 C2307 C 0.73460 0.19397 0.78500
 C2308 C 0.72788 0.21592 0.78366
 C2309 C 0.71661 0.22494 0.80426
 C2310 C 0.71334 0.21269 0.82601
 H2311 H 0.70087 0.14490 0.89996
 H2312 H 0.71405 0.11981 0.93236
 H2313 H 0.77995 0.13844 0.91568
 H2314 H 0.76671 0.16320 0.88345
 H2315 H 0.73733 0.16529 0.80720
 H2316 H 0.74400 0.18644 0.77017
 H2317 H 0.71161 0.24186 0.80429
 H2318 H 0.70591 0.22031 0.84223
 C2319 C 0.23348 0.65403 0.38734
 C2320 C 0.25582 0.65260 0.39163
 C2321 C 0.26391 0.63852 0.40974
 C2322 C 0.24977 0.62561 0.42390
 C2323 C 0.22727 0.62742 0.41987
 C2324 C 0.21918 0.64150 0.40157
 C2325 C 0.22594 0.66718 0.36693
 C2326 C 0.22182 0.67772 0.34861
 C2327 C 0.22001 0.68931 0.32541
 C2328 C 0.21232 0.71079 0.32446
 C2329 C 0.21530 0.72315 0.30275
 C2330 C 0.22631 0.71422 0.28190
 C2331 C 0.23298 0.69225 0.28296
 C2332 C 0.22960 0.67992 0.30430
 H2333 H 0.26705 0.66213 0.38063
 H2334 H 0.28127 0.63775 0.41269
 H2335 H 0.21602 0.61757 0.43043
 H2336 H 0.20188 0.64230 0.39823
 H2337 H 0.20516 0.71836 0.34088
 H2338 H 0.21036 0.74008 0.30299
 H2339 H 0.24225 0.68479 0.26799
 H2340 H 0.23598 0.66345 0.30491
 C2341 C 0.76973 0.85363 0.38360
 C2342 C 0.76281 0.87505 0.37948
 C2343 C 0.75544 0.88794 0.39940
 C2344 C 0.75489 0.87956 0.42377
 C2345 C 0.76254 0.85824 0.42788
 C2346 C 0.76983 0.84533 0.40788
 C2347 C 0.77410 0.83962 0.36251
 C2348 C 0.77583 0.82840 0.34405
 C2349 C 0.77512 0.81606 0.32114
 C2350 C 0.76321 0.82466 0.30141
 C2351 C 0.75859 0.81189 0.28060
 C2352 C 0.76622 0.79026 0.27868
 C2353 C 0.77916 0.78203 0.29815
 C2354 C 0.78350 0.79485 0.31935
 H2355 H 0.76245 0.88158 0.36072
 H2356 H 0.74989 0.90436 0.39572
 H2357 H 0.76206 0.85124 0.44638
 H2358 H 0.77483 0.82868 0.41125
 H2359 H 0.75637 0.84092 0.30271
 H2360 H 0.74802 0.81882 0.26664
 H2361 H 0.78490 0.76535 0.29774
 H2362 H 0.79251 0.78790 0.33472
 C2363 C 0.27212 0.35334 0.88505
 C2364 C 0.26537 0.37491 0.88162
 C2365 C 0.25821 0.38739 0.90196
 C2366 C 0.25767 0.37843 0.92606
 C2367 C 0.26528 0.35701 0.92951
 C2368 C 0.27237 0.34451 0.90909
 C2369 C 0.27595 0.33971 0.86350
 C2370 C 0.27715 0.32887 0.84470
 C2371 C 0.27582 0.31702 0.82151
 C2372 C 0.26371 0.32620 0.80227
 C2373 C 0.25861 0.31395 0.78121
 C2374 C 0.26592 0.29226 0.77854
 C2375 C 0.27899 0.28343 0.79755
 C2376 C 0.28383 0.29573 0.81898
 H2377 H 0.26491 0.38184 0.86306
 H2378 H 0.25267 0.40390 0.89880
 H2379 H 0.26483 0.34960 0.94780
 H2380 H 0.27724 0.32774 0.91192
 H2381 H 0.25715 0.34254 0.80414
 H2382 H 0.24801 0.32134 0.76757
 H2383 H 0.28448 0.26669 0.79658
 H2384 H 0.29297 0.28833 0.83398
 C2385 C 0.79384 0.40009 0.75781
 C2386 C 0.79591 0.40645 0.73285
 C2387 C 0.80835 0.42455 0.72665
 C2388 C 0.81887 0.43659 0.74536
 C2389 C 0.81565 0.43097 0.77053
 C2390 C 0.80331 0.41267 0.77672
 C2391 C 0.78494 0.37899 0.76309
 C2392 C 0.77905 0.36043 0.76541
 C2393 C 0.77407 0.33757 0.76538
 C2394 C 0.75421 0.32965 0.77414
 C2395 C 0.74900 0.30761 0.77081
 C2396 C 0.76352 0.29330 0.75845
 C2397 C 0.78365 0.30157 0.75048
 C2398 C 0.78886 0.32335 0.75403
 H2399 H 0.78884 0.39674 0.71804
 H2400 H 0.81048 0.42865 0.70715
 H2401 H 0.82376 0.43989 0.78526
 H2402 H 0.80207 0.40774 0.79606
 H2403 H 0.74252 0.34058 0.78277
 H2404 H 0.73326 0.30205 0.77699
 H2405 H 0.79508 0.29166 0.74009
 H2406 H 0.80415 0.32933 0.74683
 C2407 C 0.30335 0.89407 0.26516
 C2408 C 0.32430 0.89152 0.25558
 C2409 C 0.33635 0.90958 0.24854
 C2410 C 0.32776 0.93086 0.25087
 C2411 C 0.30692 0.93328 0.26183
 C2412 C 0.29473 0.91498 0.26862
 C2413 C 0.29071 0.87473 0.26899
 C2414 C 0.28230 0.85708 0.26970
 C2415 C 0.27539 0.83483 0.26728
 C2416 C 0.28901 0.82073 0.25401
 C2417 C 0.28268 0.79952 0.24904
 C2418 C 0.26255 0.79159 0.25746
 C2419 C 0.24901 0.80579 0.27138
 C2420 C 0.25538 0.82736 0.27620
 H2421 H 0.33122 0.87540 0.25299
 H2422 H 0.35264 0.90664 0.24168
 H2423 H 0.29932 0.94911 0.26375
 H2424 H 0.27842 0.91714 0.27583
 H2425 H 0.30441 0.82635 0.24674
 H2426 H 0.29344 0.78974 0.23761
 H2427 H 0.23332 0.80046 0.27799
 H2428 H 0.24459 0.83823 0.28637
 C2429 C 0.19673 0.89731 0.72922
 C2430 C 0.17423 0.89696 0.73266
 C2431 C 0.16316 0.91572 0.74027
 C2432 C 0.17443 0.93518 0.74451
 C2433 C 0.19689 0.93579 0.73982
 C2434 C 0.20804 0.91685 0.73240
 C2435 C 0.20796 0.87689 0.72586
 C2436 C 0.21555 0.85876 0.72522
 C2437 C 0.22206 0.83632 0.72736
 C2438 C 0.20823 0.82245 0.74028
 C2439 C 0.21449 0.80119 0.74527
 C2440 C 0.23476 0.79300 0.73722
 C2441 C 0.24842 0.80692 0.72349
 C2442 C 0.24213 0.82852 0.71868
 H2443 H 0.16533 0.88191 0.73048
 H2444 H 0.14583 0.91490 0.74349
 H2445 H 0.20592 0.95060 0.74307
 H2446 H 0.22549 0.91725 0.73011
 H2447 H 0.19277 0.82835 0.74739
 H2448 H 0.20367 0.79164 0.75663
 H2449 H 0.26423 0.80141 0.71717
 H2450 H 0.25308 0.83920 0.70879
 C2451 C 0.69822 0.39361 0.23215
 C2452 C 0.67574 0.39334 0.23583
 C2453 C 0.66473 0.41228 0.24294
 C2454 C 0.67604 0.43183 0.24641
 C2455 C 0.69846 0.43233 0.24146
 C2456 C 0.70955 0.41322 0.23455
 C2457 C 0.70943 0.37313 0.22936
 C2458 C 0.71696 0.35498 0.22922
 C2459 C 0.72334 0.33256 0.23191
 C2460 C 0.70938 0.31899 0.24506
 C2461 C 0.71538 0.29768 0.25024
 C2462 C 0.73551 0.28918 0.24217
 C2463 C 0.74936 0.30283 0.22834
 C2464 C 0.74332 0.32446 0.22331
 H2465 H 0.66683 0.37825 0.23425
 H2466 H 0.64743 0.41155 0.24639
 H2467 H 0.70751 0.44720 0.24414
 H2468 H 0.72699 0.41356 0.23206
 H2469 H 0.69398 0.32511 0.25207
 H2470 H 0.70438 0.28828 0.26153
 H2471 H 0.76506 0.29705 0.22198
 H2472 H 0.75436 0.33491 0.21323
 C2473 C 0.69590 0.60714 0.26474
 C2474 C 0.70752 0.58755 0.26265
 C2475 C 0.69674 0.56832 0.25609
 C2476 C 0.67433 0.56866 0.25119
 C2477 C 0.66273 0.58823 0.25432
 C2478 C 0.67344 0.60729 0.26107
 C2479 C 0.70679 0.62769 0.26737
 C2480 C 0.71405 0.64587 0.26746
 C2481 C 0.72006 0.66834 0.26479
 C2482 C 0.73993 0.67653 0.27318
 C2483 C 0.74555 0.69824 0.26826
 C2484 C 0.73139 0.71189 0.25475
 C2485 C 0.71140 0.70327 0.24688
 C2486 C 0.70581 0.68189 0.25194
 H2487 H 0.72494 0.58728 0.26514
 H2488 H 0.70603 0.55344 0.25366
 H2489 H 0.64543 0.58886 0.25092
 H2490 H 0.66430 0.62238 0.26243
 H2491 H 0.75119 0.66610 0.28303
 H2492 H 0.76116 0.70410 0.27446
 H2493 H 0.70016 0.71267 0.23584
 H2494 H 0.69050 0.67571 0.24509
 C2495 C 0.19337 0.11046 0.76271
 C2496 C 0.20505 0.09095 0.76001
 C2497 C 0.19419 0.07165 0.75391
 C2498 C 0.17162 0.07183 0.75010
 C2499 C 0.16000 0.09130 0.75385
 C2500 C 0.17079 0.11045 0.76012
 C2501 C 0.20423 0.13106 0.76494
 C2502 C 0.21156 0.14922 0.76485
 C2503 C 0.21788 0.17161 0.76221
 C2504 C 0.23778 0.17949 0.77088
 C2505 C 0.24372 0.20115 0.76620
 C2506 C 0.22985 0.21509 0.75269
 C2507 C 0.20980 0.20679 0.74452
 C2508 C 0.20391 0.18543 0.74931
 H2509 H 0.22255 0.09081 0.76167
 H2510 H 0.20350 0.05685 0.75098
 H2511 H 0.14258 0.09182 0.75127
 H2512 H 0.16160 0.12546 0.76197
 H2513 H 0.24881 0.16887 0.78079
 H2514 H 0.25934 0.20676 0.77266
 H2515 H 0.19875 0.21647 0.73355
 H2516 H 0.18856 0.17949 0.74229
 C2517 C 0.30551 0.10425 0.23437
 C2518 C 0.29415 0.08481 0.23793
 C2519 C 0.30539 0.06575 0.24436
 C2520 C 0.32800 0.06615 0.24767
 C2521 C 0.33930 0.08549 0.24300
 C2522 C 0.32813 0.10438 0.23638
 C2523 C 0.29434 0.12477 0.23210
 C2524 C 0.28677 0.14290 0.23223
 C2525 C 0.28015 0.16528 0.23502
 C2526 C 0.26003 0.17299 0.22667
 C2527 C 0.25370 0.19457 0.23172
 C2528 C 0.26739 0.20861 0.24532
 C2529 C 0.28768 0.20053 0.25311
 C2530 C 0.29397 0.17923 0.24793
 H2531 H 0.27662 0.08459 0.23673
 H2532 H 0.29635 0.05103 0.24798
 H2533 H 0.35674 0.08614 0.24520
 H2534 H 0.33708 0.11935 0.23389
 H2535 H 0.24911 0.16225 0.21677
 H2536 H 0.23789 0.20002 0.22555
 H2537 H 0.29857 0.21028 0.26420
 H2538 H 0.30949 0.17341 0.25473
 C2539 C 0.80426 0.60399 0.73587
 C2540 C 0.79357 0.58476 0.74242
 C2541 C 0.80562 0.56616 0.74869
 C2542 C 0.82842 0.56684 0.74887
 C2543 C 0.83893 0.58594 0.74130
 C2544 C 0.82693 0.60434 0.73484
 C2545 C 0.79268 0.62428 0.73359
 C2546 C 0.78493 0.64234 0.73352
 C2547 C 0.77830 0.66475 0.73594
 C2548 C 0.75855 0.67257 0.72664
 C2549 C 0.75235 0.69431 0.73102
 C2550 C 0.76582 0.70839 0.74484
 C2551 C 0.78575 0.70016 0.75362
 C2552 C 0.79190 0.67871 0.74914
 H2553 H 0.77604 0.58439 0.74360
 H2554 H 0.79721 0.55161 0.75451
 H2555 H 0.85647 0.58676 0.74101
 H2556 H 0.83538 0.61917 0.73004
 H2557 H 0.74782 0.66184 0.71646
 H2558 H 0.73682 0.69987 0.72411
 H2559 H 0.79646 0.70995 0.76490
 H2560 H 0.80714 0.67283 0.75662
 C2561 C 0.89903 0.77526 0.18056
 C2562 C 0.89884 0.78644 0.15793
 C2563 C 0.91743 0.78720 0.14299
 C2564 C 0.93685 0.77667 0.15029
 C2565 C 0.93681 0.76583 0.17361
 C2566 C 0.91809 0.76510 0.18849
 C2567 C 0.87910 0.77327 0.19448
 C2568 C 0.86145 0.77186 0.20411
 C2569 C 0.83931 0.77061 0.21261
 C2570 C 0.82300 0.77645 0.19593
 C2571 C 0.80131 0.77444 0.20263
 C2572 C 0.79531 0.76669 0.22641
 C2573 C 0.81185 0.76108 0.24333
 C2574 C 0.83376 0.76301 0.23643
 H2575 H 0.88406 0.79414 0.15143
 H2576 H 0.91589 0.79508 0.12508
 H2577 H 0.95129 0.75824 0.18094
 H2578 H 0.91846 0.75645 0.20606
 H2579 H 0.82706 0.78232 0.17744
 H2580 H 0.78927 0.77905 0.18897
 H2581 H 0.80790 0.75488 0.26165
 H2582 H 0.84630 0.75833 0.24949
 C2583 C 0.39959 0.27442 0.68237
 C2584 C 0.41019 0.29428 0.67891
 C2585 C 0.42891 0.29526 0.66409
 C2586 C 0.43723 0.27636 0.65246
 C2587 C 0.42662 0.25643 0.65639
 C2588 C 0.40794 0.25550 0.67120
 C2589 C 0.37902 0.27372 0.69518
 C2590 C 0.36110 0.27308 0.70424
 C2591 C 0.33888 0.27247 0.71253
 C2592 C 0.32281 0.27923 0.69599
 C2593 C 0.30103 0.27756 0.70249
 C2594 C 0.29473 0.26925 0.72592
 C2595 C 0.31103 0.26274 0.74269
 C2596 C 0.33301 0.26432 0.73600
 H2597 H 0.40374 0.30908 0.68726
 H2598 H 0.43685 0.31078 0.66170
 H2599 H 0.43240 0.24165 0.64742
 H2600 H 0.39970 0.24010 0.67341
 H2601 H 0.32712 0.28549 0.67775
 H2602 H 0.28916 0.28282 0.68894
 H2603 H 0.30686 0.25605 0.76071
 H2604 H 0.34536 0.25888 0.74892
 C2605 C 0.40225 0.72612 0.81674
 C2606 C 0.41091 0.74453 0.82840
 C2607 C 0.42909 0.74262 0.84370
 C2608 C 0.43894 0.72221 0.84759
 C2609 C 0.43024 0.70377 0.83562
 C2610 C 0.41197 0.70573 0.82030
 C2611 C 0.38258 0.72824 0.80254
 C2612 C 0.36561 0.73091 0.79186
 C2613 C 0.34472 0.73507 0.78091
 C2614 C 0.33272 0.75303 0.78927
 C2615 C 0.31145 0.75611 0.78128
 C2616 C 0.30164 0.74123 0.76468
 C2617 C 0.31432 0.72381 0.75538
 C2618 C 0.33566 0.72067 0.76357
 H2619 H 0.40336 0.76035 0.82603
 H2620 H 0.43513 0.75707 0.85297
 H2621 H 0.43758 0.68788 0.83806
 H2622 H 0.40531 0.69134 0.81149
 H2623 H 0.33955 0.76429 0.80273
 H2624 H 0.30250 0.76975 0.78909
 H2625 H 0.30761 0.71190 0.74288
 H2626 H 0.34480 0.70663 0.75704
 C2627 C 0.90582 0.22647 0.31074
 C2628 C 0.91671 0.24533 0.31798
 C2629 C 0.93479 0.24403 0.33359
 C2630 C 0.94233 0.22371 0.34257
 C2631 C 0.93153 0.20477 0.33420
 C2632 C 0.91346 0.20619 0.31856
 C2633 C 0.88533 0.22811 0.29807
 C2634 C 0.86735 0.22948 0.28942
 C2635 C 0.84501 0.23094 0.28194
 C2636 C 0.83892 0.23764 0.25797
 C2637 C 0.81687 0.23976 0.25192
 C2638 C 0.80074 0.23523 0.26983
 C2639 C 0.80727 0.22842 0.29378
 C2640 C 0.82910 0.22624 0.29967
 H2641 H 0.91068 0.26117 0.31242
 H2642 H 0.94173 0.25923 0.33979
 H2643 H 0.93703 0.18867 0.33934
 H2644 H 0.90512 0.19145 0.31309
 H2645 H 0.85115 0.24143 0.24411
 H2646 H 0.81251 0.24518 0.23341
 H2647 H 0.79554 0.22462 0.30817
 H2648 H 0.83360 0.22108 0.31828
 C2649 C 0.09756 0.26976 0.31907
 C2650 C 0.09912 0.27644 0.34402
 C2651 C 0.08063 0.27773 0.35905
 C2652 C 0.06017 0.27240 0.34933
 C2653 C 0.05867 0.26593 0.32409
 C2654 C 0.07728 0.26460 0.30904
 C2655 C 0.11717 0.26762 0.30460
 C2656 C 0.13479 0.26614 0.29487
 C2657 C 0.15702 0.26488 0.28673
 C2658 C 0.17299 0.27006 0.30410
 C2659 C 0.19479 0.26831 0.29774
 C2660 C 0.20122 0.26143 0.27364
 C2661 C 0.18503 0.25641 0.25605
 C2662 C 0.16299 0.25811 0.26260
 H2663 H 0.11476 0.28033 0.35203
 H2664 H 0.08244 0.28238 0.37847
 H2665 H 0.04311 0.26193 0.31600
 H2666 H 0.07589 0.25939 0.28975
 H2667 H 0.16859 0.27532 0.32282
 H2668 H 0.20654 0.27253 0.31189
 H2669 H 0.18934 0.25098 0.23742
 H2670 H 0.15069 0.25397 0.24900
 C2671 C 0.59455 0.76625 0.81220
 C2672 C 0.58401 0.78611 0.81692
 C2673 C 0.56598 0.78696 0.83287
 C2674 C 0.55834 0.76795 0.84442
 C2675 C 0.56872 0.74800 0.83902
 C2676 C 0.58670 0.74719 0.82307
 C2677 C 0.61492 0.76578 0.79896
 C2678 C 0.63284 0.76542 0.78988
 C2679 C 0.65520 0.76519 0.78204
 C2680 C 0.67076 0.77180 0.79928
 C2681 C 0.69269 0.77037 0.79339
 C2682 C 0.69967 0.76245 0.76990
 C2683 C 0.68387 0.75621 0.75235
 C2684 C 0.66171 0.75752 0.75844
 H2685 H 0.59009 0.80102 0.80885
 H2686 H 0.55817 0.80252 0.83637
 H2687 H 0.56345 0.73312 0.84786
 H2688 H 0.59495 0.73179 0.81991
 H2689 H 0.66594 0.77771 0.81760
 H2690 H 0.70414 0.77548 0.80749
 H2691 H 0.68860 0.74993 0.73419
 H2692 H 0.64976 0.75224 0.74497
 C2693 C 0.59337 0.23328 0.69101
 C2694 C 0.58500 0.25195 0.67963
 C2695 C 0.56710 0.25045 0.66379
 C2696 C 0.55734 0.23020 0.65902
 C2697 C 0.56549 0.21160 0.67111
 C2698 C 0.58343 0.21314 0.68695
 C2699 C 0.61372 0.23441 0.70402
 C2700 C 0.63165 0.23533 0.71287
 C2701 C 0.65400 0.23621 0.72039
 C2702 C 0.66024 0.24317 0.74428
 C2703 C 0.68234 0.24485 0.75024
 C2704 C 0.69835 0.23965 0.73229
 C2705 C 0.69165 0.23252 0.70846
 C2706 C 0.66978 0.23075 0.70268
 H2707 H 0.59279 0.26756 0.68228
 H2708 H 0.56145 0.26502 0.65452
 H2709 H 0.55817 0.19583 0.66807
 H2710 H 0.58993 0.19854 0.69541
 H2711 H 0.64810 0.24754 0.75813
 H2712 H 0.68685 0.25049 0.76867
 H2713 H 0.70327 0.22818 0.69404
 H2714 H 0.66517 0.22538 0.68414
 C2715 C 0.09150 0.73106 0.19022
 C2716 C 0.08289 0.74969 0.17897
 C2717 C 0.06487 0.74809 0.16334
 C2718 C 0.05518 0.72777 0.15865
 C2719 C 0.06355 0.70923 0.17065
 C2720 C 0.08163 0.71087 0.18627
 C2721 C 0.11198 0.73233 0.20299
 C2722 C 0.12997 0.73341 0.21165
 C2723 C 0.15237 0.73452 0.21903
 C2724 C 0.15865 0.74123 0.24301
 C2725 C 0.18075 0.74306 0.24888
 C2726 C 0.19674 0.73826 0.23077
 C2727 C 0.19002 0.73141 0.20684
 C2728 C 0.16814 0.72951 0.20114
 H2729 H 0.09061 0.76534 0.18153
 H2730 H 0.05907 0.76262 0.15412
 H2731 H 0.05631 0.69341 0.16765
 H2732 H 0.08830 0.69630 0.19464
 H2733 H 0.14652 0.74525 0.25701
 H2734 H 0.18528 0.74845 0.26740
 H2735 H 0.20163 0.72737 0.19230
 H2736 H 0.16351 0.72433 0.18253
   
