data_POSCAR
  _audit_creation_date              2014-09-24
  _audit_creation_method            'ToBaCCo'
  _symmetry_space_group_name_H-M    'P1'
  _symmetry_Int_Tables_number       1
  _symmetry_cell_setting            triclinic
  loop_
  _symmetry_equiv_pos_as_xyz
 x,y,z
_cell_length_a 52.1645
_cell_length_b 54.5809
_cell_length_c 54.5528
_cell_angle_alpha 89.797000
_cell_angle_beta 90.061300
_cell_angle_gamma 89.739400
loop_
  _atom_site_label
  _atom_site_type_symbol
  _atom_site_fract_x
  _atom_site_fract_y
  _atom_site_fract_z
C1 C 0.35849 0.35716 0.32656
 C2 C 0.38066 0.34702 0.31603
 C3 C 0.39294 0.32675 0.32696
 C4 C 0.38292 0.31669 0.34863
 C5 C 0.36049 0.32624 0.35905
 C6 C 0.34819 0.34656 0.34803
 C7 C 0.34581 0.37701 0.31541
 C8 C 0.32288 0.38621 0.32531
 C9 C 0.31291 0.37583 0.34687
 C10 C 0.32510 0.35574 0.35801
 C11 C 0.31393 0.34386 0.37818
 C12 C 0.32555 0.32294 0.38843
 C13 C 0.34940 0.31495 0.37954
 H14 H 0.38801 0.35441 0.29897
 H15 H 0.39216 0.30084 0.35687
 H16 H 0.35336 0.38494 0.29867
 H17 H 0.29516 0.38294 0.35443
 H18 H 0.29563 0.35016 0.38522
 H19 H 0.35853 0.29903 0.38776
 C20 C 0.34947 0.86044 -0.17866
 C21 C 0.37020 0.84977 -0.19109
 C22 C 0.38117 0.82760 -0.18283
 C23 C 0.37240 0.81730 -0.16068
 C24 C 0.35129 0.82745 -0.14841
 C25 C 0.33952 0.84892 -0.15760
 C26 C 0.33801 0.88201 -0.18748
 C27 C 0.31640 0.89226 -0.17578
 C28 C 0.30590 0.87989 -0.15538
 C29 C 0.31744 0.85849 -0.14610
 C30 C 0.30688 0.84613 -0.12589
 C31 C 0.31822 0.82442 -0.11706
 C32 C 0.34094 0.81573 -0.12782
 H33 H 0.37765 0.85855 -0.20745
 H34 H 0.38076 0.80033 -0.15395
 H35 H 0.34534 0.89032 -0.20413
 H36 H 0.28911 0.88728 -0.14627
 H37 H 0.28947 0.85295 -0.11743
 H38 H 0.34986 0.79916 -0.12075
 C39 C 0.85148 0.35931 -0.17418
 C40 C 0.87475 0.35038 -0.18341
 C41 C 0.88694 0.32978 -0.17280
 C42 C 0.87521 0.31827 -0.15254
 C43 C 0.85199 0.32711 -0.14301
 C44 C 0.84002 0.34766 -0.15392
 C45 C 0.83903 0.37914 -0.18556
 C46 C 0.81464 0.38695 -0.17761
 C47 C 0.80391 0.37590 -0.15664
 C48 C 0.81626 0.35620 -0.14495
 C49 C 0.80475 0.34429 -0.12503
 C50 C 0.81623 0.32341 -0.11456
 C51 C 0.84000 0.31512 -0.12335
 H52 H 0.88346 0.35961 -0.19891
 H53 H 0.88346 0.30164 -0.14491
 H54 H 0.84763 0.38747 -0.20163
 H55 H 0.78573 0.38249 -0.14956
 H56 H 0.78643 0.35069 -0.11811
 H57 H 0.84880 0.29899 -0.11522
 C58 C 0.85806 0.85845 0.32619
 C59 C 0.87866 0.84711 0.31419
 C60 C 0.88770 0.82409 0.32202
 C61 C 0.87752 0.81337 0.34330
 C62 C 0.85735 0.82478 0.35592
 C63 C 0.84731 0.84724 0.34712
 C64 C 0.84685 0.87983 0.31654
 C65 C 0.82416 0.88944 0.32676
 C66 C 0.81467 0.87913 0.34861
 C67 C 0.82588 0.85800 0.35867
 C68 C 0.81499 0.84659 0.37918
 C69 C 0.82461 0.82406 0.38769
 C70 C 0.84603 0.81343 0.37631
 H71 H 0.88675 0.85544 0.29788
 H72 H 0.88460 0.79565 0.34938
 H73 H 0.85450 0.88768 0.29980
 H74 H 0.79787 0.88707 0.35726
 H75 H 0.79829 0.85459 0.38793
 H76 H 0.85320 0.79589 0.38279
 C77 C 0.64810 0.64408 0.32566
 C78 C 0.62749 0.65600 0.31410
 C79 C 0.61844 0.67858 0.32287
 C80 C 0.62951 0.68890 0.34388
 C81 C 0.65009 0.67717 0.35571
 C82 C 0.65943 0.65465 0.34659
 C83 C 0.65811 0.62220 0.31616
 C84 C 0.67912 0.61057 0.32747
 C85 C 0.69016 0.62100 0.34845
 C86 C 0.68054 0.64301 0.35802
 C87 C 0.69224 0.65402 0.37831
 C88 C 0.68347 0.67675 0.38695
 C89 C 0.66211 0.68801 0.37594
 H90 H 0.61882 0.64807 0.29790
 H91 H 0.62252 0.70639 0.35054
 H92 H 0.64999 0.61446 0.29962
 H93 H 0.70658 0.61219 0.35698
 H94 H 0.70868 0.64535 0.38697
 H95 H 0.65542 0.70557 0.38270
 C96 C 0.64893 0.14011 -0.17823
 C97 C 0.62858 0.15263 -0.18960
 C98 C 0.61894 0.17443 -0.17954
 C99 C 0.62920 0.18332 -0.15752
 C100 C 0.64981 0.17124 -0.14617
 C101 C 0.65965 0.14945 -0.15646
 C102 C 0.65915 0.11878 -0.18865
 C103 C 0.67987 0.10627 -0.17753
 C104 C 0.69056 0.11595 -0.15589
 C105 C 0.68065 0.13738 -0.14535
 C106 C 0.69203 0.14749 -0.12441
 C107 C 0.68288 0.16966 -0.11473
 C108 C 0.66140 0.18112 -0.12526
 H109 H 0.62059 0.14579 -0.20659
 H110 H 0.62157 0.20008 -0.14969
 H111 H 0.65065 0.11167 -0.20531
 H112 H 0.70741 0.10742 -0.14783
 H113 H 0.70852 0.13863 -0.11604
 H114 H 0.65438 0.19822 -0.11769
 C115 C 0.15235 0.63983 -0.17245
 C116 C 0.13100 0.65126 -0.18328
 C117 C 0.11963 0.67178 -0.17226
 C118 C 0.12906 0.68038 -0.14979
 C119 C 0.15035 0.66913 -0.13872
 C120 C 0.16209 0.64878 -0.15008
 C121 C 0.16482 0.62035 -0.18422
 C122 C 0.18756 0.61018 -0.17448
 C123 C 0.19640 0.61850 -0.15155
 C124 C 0.18397 0.63782 -0.13942
 C125 C 0.19361 0.64693 -0.11724
 C126 C 0.18218 0.66738 -0.10594
 C127 C 0.16069 0.67849 -0.11697
 H128 H 0.12373 0.64480 -0.20072
 H129 H 0.12018 0.69624 -0.14135
 H130 H 0.15766 0.61413 -0.20179
 H131 H 0.21314 0.61003 -0.14323
 H132 H 0.21045 0.63854 -0.10904
 H133 H 0.15238 0.69481 -0.10888
 C134 C 0.14526 0.14608 0.31940
 C135 C 0.12529 0.15839 0.30719
 C136 C 0.11565 0.18082 0.31615
 C137 C 0.12479 0.18957 0.33879
 C138 C 0.14444 0.17727 0.35139
 C139 C 0.15497 0.15561 0.34152
 C140 C 0.15665 0.12519 0.30907
 C141 C 0.17852 0.11440 0.31989
 C142 C 0.18719 0.12330 0.34263
 C143 C 0.17567 0.14384 0.35342
 C144 C 0.18522 0.15342 0.37541
 C145 C 0.17468 0.17490 0.38542
 C146 C 0.15441 0.18682 0.37323
 H147 H 0.11849 0.15137 0.28980
 H148 H 0.11667 0.20615 0.34655
 H149 H 0.14966 0.11845 0.29163
 H150 H 0.20327 0.11443 0.35171
 H151 H 0.20125 0.14452 0.38452
 H152 H 0.14687 0.20386 0.38048
 C153 C 0.64912 0.35188 0.67725
 C154 C 0.62913 0.33895 0.68846
 C155 C 0.62030 0.31693 0.67835
 C156 C 0.63114 0.30813 0.65652
 C157 C 0.65144 0.32062 0.64534
 C158 C 0.66042 0.34268 0.65564
 C159 C 0.65835 0.37360 0.68756
 C160 C 0.67849 0.38643 0.67638
 C161 C 0.68984 0.37713 0.65499
 C162 C 0.68099 0.35529 0.64457
 C163 C 0.69274 0.34550 0.62365
 C164 C 0.68444 0.32309 0.61396
 C165 C 0.66344 0.31104 0.62447
 H166 H 0.62066 0.34575 0.70527
 H167 H 0.62409 0.29124 0.64862
 H168 H 0.65002 0.38053 0.70438
 H169 H 0.70566 0.38688 0.64662
 H170 H 0.70884 0.35483 0.61530
 H171 H 0.65706 0.29378 0.61686
 C172 C 0.64804 0.85354 1.18264
 C173 C 0.62595 0.84339 1.19305
 C174 C 0.61287 0.82406 1.18145
 C175 C 0.62297 0.81448 1.15948
 C176 C 0.64514 0.82440 1.14891
 C177 C 0.65769 0.84407 1.16046
 C178 C 0.66072 0.87296 1.19414
 C179 C 0.68301 0.88289 1.18383
 C180 C 0.69245 0.87362 1.16162
 C181 C 0.68004 0.85414 1.14995
 C182 C 0.68971 0.84441 1.12807
 C183 C 0.67729 0.82483 1.11655
 C184 C 0.65514 0.81478 1.12709
 H185 H 0.61851 0.85106 1.20994
 H186 H 0.61400 0.79878 1.15096
 H187 H 0.65347 0.88025 1.21127
 H188 H 0.70956 0.88151 1.15361
 H189 H 0.70691 0.85201 1.11995
 H190 H 0.64580 0.79944 1.11827
 C191 C 0.15173 0.35237 1.17560
 C192 C 0.12839 0.34322 1.18440
 C193 C 0.11725 0.32204 1.17415
 C194 C 0.13067 0.30976 1.15533
 C195 C 0.15364 0.31909 1.14591
 C196 C 0.16418 0.34053 1.15598
 C197 C 0.16303 0.37299 1.18635
 C198 C 0.18657 0.38186 1.17768
 C199 C 0.19820 0.37082 1.15730
 C200 C 0.18738 0.34996 1.14664
 C201 C 0.19968 0.33803 1.12719
 C202 C 0.18950 0.31638 1.11747
 C203 C 0.16642 0.30708 1.12678
 H204 H 0.11862 0.35308 1.19888
 H205 H 0.12361 0.29250 1.14834
 H206 H 0.15393 0.38177 1.20189
 H207 H 0.21612 0.37802 1.15034
 H208 H 0.21739 0.34530 1.11980
 H209 H 0.15853 0.29043 1.11911
 C210 C 0.14475 0.84760 0.68086
 C211 C 0.12598 0.83420 0.69337
 C212 C 0.11760 0.81135 0.68454
 C213 C 0.12780 0.80254 0.66229
 C214 C 0.14655 0.81580 0.64954
 C215 C 0.15496 0.83852 0.65877
 C216 C 0.15388 0.86969 0.69045
 C217 C 0.17238 0.88342 0.67777
 C218 C 0.18232 0.87441 0.65560
 C219 C 0.17392 0.85195 0.64614
 C220 C 0.18468 0.84234 0.62466
 C221 C 0.17697 0.81936 0.61590
 C222 C 0.15753 0.80644 0.62803
 H223 H 0.11855 0.84119 0.71055
 H224 H 0.12087 0.78546 0.65470
 H225 H 0.14676 0.87617 0.70794
 H226 H 0.19686 0.88476 0.64592
 H227 H 0.19968 0.85224 0.61516
 H228 H 0.15168 0.78869 0.62117
 C229 C 0.35334 0.64326 0.67543
 C230 C 0.37320 0.65604 0.68706
 C231 C 0.38113 0.67894 0.67808
 C232 C 0.36958 0.68882 0.65702
 C233 C 0.34971 0.67632 0.64522
 C234 C 0.34156 0.65342 0.65438
 C235 C 0.34452 0.62090 0.68489
 C236 C 0.32430 0.60842 0.67342
 C237 C 0.31282 0.61852 0.65235
 C238 C 0.32120 0.64098 0.64283
 C239 C 0.30901 0.65162 0.62245
 C240 C 0.31667 0.67469 0.61379
 C241 C 0.33730 0.68673 0.62489
 H242 H 0.38224 0.64847 0.70333
 H243 H 0.37569 0.70656 0.65023
 H244 H 0.35294 0.61343 0.70151
 H245 H 0.29699 0.60906 0.64370
 H246 H 0.29312 0.64236 0.61370
 H247 H 0.34313 0.70455 0.61810
 C248 C 0.35424 0.14372 1.17891
 C249 C 0.37393 0.15644 1.19089
 C250 C 0.38373 0.17844 1.18104
 C251 C 0.37496 0.18633 1.15785
 C252 C 0.35557 0.17363 1.14550
 C253 C 0.34492 0.15244 1.15621
 C254 C 0.34279 0.12319 1.18992
 C255 C 0.32119 0.11210 1.17916
 C256 C 0.31289 0.12024 1.15595
 C257 C 0.32451 0.14031 1.14448
 C258 C 0.31533 0.14903 1.12192
 C259 C 0.32600 0.16998 1.11107
 C260 C 0.34603 0.18228 1.12300
 H261 H 0.38043 0.15005 1.20869
 H262 H 0.38325 0.20246 1.14939
 H263 H 0.34948 0.11700 1.20773
 H264 H 0.29699 0.11114 1.14700
 H265 H 0.29950 0.13986 1.11295
 H266 H 0.35370 0.19892 1.11500
 C267 C 0.85288 0.64559 1.17239
 C268 C 0.87499 0.65639 1.18215
 C269 C 0.88558 0.67739 1.17123
 C270 C 0.87345 0.68797 1.15073
 C271 C 0.85105 0.67765 1.14104
 C272 C 0.84086 0.65621 1.15175
 C273 C 0.84244 0.62453 1.18317
 C274 C 0.82033 0.61342 1.17334
 C275 C 0.80827 0.62449 1.15295
 C276 C 0.81835 0.64572 1.14215
 C277 C 0.80587 0.65700 1.12228
 C278 C 0.81540 0.67883 1.11219
 C279 C 0.83829 0.68877 1.12125
 H280 H 0.88390 0.64864 1.19840
 H281 H 0.88132 0.70443 1.14256
 H282 H 0.85201 0.61636 1.19887
 H283 H 0.79044 0.61708 1.14599
 H284 H 0.78836 0.64922 1.11500
 H285 H 0.84568 0.70555 1.11330
 C286 C 0.85863 0.14887 0.67821
 C287 C 0.87872 0.16157 0.68952
 C288 C 0.88796 0.18346 0.67931
 C289 C 0.87791 0.19200 0.65696
 C290 C 0.85757 0.17973 0.64561
 C291 C 0.84781 0.15808 0.65628
 C292 C 0.84832 0.12781 0.68910
 C293 C 0.82681 0.11633 0.67882
 C294 C 0.81645 0.12520 0.65674
 C295 C 0.82671 0.14611 0.64546
 C296 C 0.81540 0.15599 0.62426
 C297 C 0.82451 0.17800 0.61416
 C298 C 0.84597 0.18943 0.62450
 H299 H 0.88656 0.15498 0.70675
 H300 H 0.88529 0.20878 0.64899
 H301 H 0.85632 0.12083 0.70612
 H302 H 0.79980 0.11634 0.64890
 H303 H 0.79885 0.14721 0.61614
 H304 H 0.85288 0.20645 0.61667
 C305 C 0.35261 0.34921 0.67517
 C306 C 0.34077 0.36916 0.68674
 C307 C 0.31802 0.37927 0.67726
 C308 C 0.30731 0.36961 0.65573
 C309 C 0.31877 0.34948 0.64406
 C310 C 0.34163 0.33934 0.65372
 C311 C 0.37488 0.33855 0.68503
 C312 C 0.38659 0.31843 0.67349
 C313 C 0.37568 0.30877 0.65210
 C314 C 0.35322 0.31897 0.64224
 C315 C 0.34168 0.30863 0.62156
 C316 C 0.31840 0.31798 0.61254
 C317 C 0.30734 0.33876 0.62342
 H318 H 0.34896 0.37663 0.70338
 H319 H 0.28978 0.37751 0.64842
 H320 H 0.38298 0.34564 0.70187
 H321 H 0.38452 0.29302 0.64339
 H322 H 0.35024 0.29270 0.61293
 H323 H 0.28940 0.34598 0.61632
 C324 C 0.35327 0.85595 0.17630
 C325 C 0.34007 0.87528 0.18757
 C326 C 0.31814 0.88548 0.17656
 C327 C 0.30957 0.87649 0.15389
 C328 C 0.32253 0.85710 0.14239
 C329 C 0.34461 0.84693 0.15353
 C330 C 0.37458 0.84507 0.18773
 C331 C 0.38745 0.82540 0.17660
 C332 C 0.37903 0.81670 0.15381
 C333 C 0.35769 0.82733 0.14221
 C334 C 0.34876 0.81816 0.11984
 C335 C 0.32647 0.82779 0.10887
 C336 C 0.31339 0.84722 0.12033
 H337 H 0.34653 0.88218 0.20513
 H338 H 0.29263 0.88445 0.14545
 H339 H 0.38093 0.85153 0.20549
 H340 H 0.38891 0.80138 0.14537
 H341 H 0.35875 0.80302 0.11121
 H342 H 0.29577 0.85423 0.11234
 C343 C 0.84895 0.35688 0.17261
 C344 C 0.83916 0.37891 0.18193
 C345 C 0.81793 0.39034 0.17083
 C346 C 0.80628 0.37949 0.15037
 C347 C 0.81572 0.35737 0.14093
 C348 C 0.83713 0.34597 0.15209
 C349 C 0.87019 0.34544 0.18359
 C350 C 0.87981 0.32333 0.17424
 C351 C 0.86776 0.31229 0.15412
 C352 C 0.84654 0.32351 0.14292
 C353 C 0.83438 0.31252 0.12288
 C354 C 0.81286 0.32362 0.11201
 C355 C 0.80383 0.34619 0.12082
 H356 H 0.84779 0.38707 0.19802
 H357 H 0.78970 0.38821 0.14202
 H358 H 0.87942 0.35378 0.19928
 H359 H 0.87503 0.29500 0.14721
 H360 H 0.84131 0.29512 0.11594
 H361 H 0.78729 0.35475 0.11224
 C362 C 0.85891 0.85114 0.67799
 C363 C 0.84932 0.87305 0.68785
 C364 C 0.82897 0.88555 0.67637
 C365 C 0.81783 0.87572 0.65513
 C366 C 0.82691 0.85364 0.64528
 C367 C 0.84764 0.84134 0.65665
 C368 C 0.87934 0.83870 0.68929
 C369 C 0.88903 0.81687 0.67925
 C370 C 0.87752 0.80699 0.65823
 C371 C 0.85680 0.81901 0.64692
 C372 C 0.84478 0.80886 0.62633
 C373 C 0.82367 0.82068 0.61547
 C374 C 0.81521 0.84332 0.62462
 H375 H 0.85750 0.88032 0.70458
 H376 H 0.80185 0.88517 0.64650
 H377 H 0.88783 0.84599 0.70586
 H378 H 0.88473 0.78993 0.65074
 H379 H 0.85135 0.79145 0.61910
 H380 H 0.79905 0.85249 0.61599
 C381 C 0.64349 0.64918 0.67522
 C382 C 0.65377 0.62860 0.68709
 C383 C 0.67442 0.61560 0.67680
 C384 C 0.68589 0.62443 0.65520
 C385 C 0.67657 0.64573 0.64374
 C386 C 0.65496 0.65791 0.65351
 C387 C 0.62198 0.66125 0.68478
 C388 C 0.61127 0.68151 0.67253
 C389 C 0.62316 0.69059 0.65127
 C390 C 0.64511 0.67907 0.64183
 C391 C 0.65775 0.68865 0.62128
 C392 C 0.68003 0.67731 0.61230
 C393 C 0.68881 0.65539 0.62301
 H394 H 0.64549 0.62242 0.70424
 H395 H 0.70216 0.61478 0.64745
 H396 H 0.61337 0.65479 0.70168
 H397 H 0.61533 0.70666 0.64217
 H398 H 0.65082 0.70538 0.61272
 H399 H 0.70575 0.64645 0.61570
 C400 C 0.64477 0.14020 0.17383
 C401 C 0.65572 0.11914 0.18437
 C402 C 0.67722 0.10791 0.17362
 C403 C 0.68812 0.11819 0.15246
 C404 C 0.67766 0.13946 0.14194
 C405 C 0.65578 0.15045 0.15253
 C406 C 0.62335 0.15151 0.18453
 C407 C 0.61248 0.17264 0.17393
 C408 C 0.62361 0.18285 0.15282
 C409 C 0.64528 0.17200 0.14215
 C410 C 0.65709 0.18273 0.12170
 C411 C 0.67933 0.17228 0.11168
 C412 C 0.68916 0.15034 0.12143
 H413 H 0.64771 0.11153 0.20106
 H414 H 0.70497 0.10974 0.14441
 H415 H 0.61518 0.14403 0.20121
 H416 H 0.61551 0.19942 0.14492
 H417 H 0.64952 0.19963 0.11402
 H418 H 0.70623 0.14225 0.11346
 C419 C 0.14859 0.64287 0.17468
 C420 C 0.15854 0.62088 0.18419
 C421 C 0.18011 0.60976 0.17345
 C422 C 0.19180 0.62084 0.15308
 C423 C 0.18233 0.64301 0.14361
 C424 C 0.16071 0.65416 0.15449
 C425 C 0.12699 0.65399 0.18527
 C426 C 0.11738 0.67622 0.17591
 C427 C 0.12992 0.68771 0.15624
 C428 C 0.15148 0.67680 0.14542
 C429 C 0.16425 0.68836 0.12598
 C430 C 0.18605 0.67753 0.11542
 C431 C 0.19454 0.65454 0.12385
 H432 H 0.14980 0.61255 0.20019
 H433 H 0.20858 0.61237 0.14494
 H434 H 0.11754 0.64537 0.20073
 H435 H 0.12285 0.70519 0.14948
 H436 H 0.15755 0.70600 0.11930
 H437 H 0.21111 0.64600 0.11538
 C438 C 0.14525 0.15015 0.67684
 C439 C 0.15573 0.12854 0.68656
 C440 C 0.17509 0.11584 0.67395
 C441 C 0.18463 0.12534 0.65183
 C442 C 0.17441 0.14704 0.64189
 C443 C 0.15444 0.15937 0.65431
 C444 C 0.12596 0.16289 0.68943
 C445 C 0.11582 0.18475 0.67981
 C446 C 0.12448 0.19352 0.65708
 C447 C 0.14392 0.18112 0.64440
 C448 C 0.15340 0.19040 0.62224
 C449 C 0.17349 0.17842 0.60996
 C450 C 0.18399 0.15681 0.61993
 H451 H 0.14885 0.12147 0.70395
 H452 H 0.19986 0.11570 0.64232
 H453 H 0.11908 0.15609 0.70692
 H454 H 0.11637 0.21028 0.64959
 H455 H 0.14549 0.20721 0.61467
 H456 H 0.19985 0.14784 0.61071
 C457 C 0.35016 0.64535 0.32371
 C458 C 0.33824 0.62540 0.31234
 C459 C 0.31620 0.61489 0.32262
 C460 C 0.30641 0.62398 0.34476
 C461 C 0.31796 0.64403 0.35625
 C462 C 0.33992 0.65481 0.34570
 C463 C 0.37186 0.65628 0.31326
 C464 C 0.38368 0.67632 0.32467
 C465 C 0.37322 0.68586 0.34637
 C466 C 0.35140 0.67527 0.35694
 C467 C 0.34066 0.68499 0.37839
 C468 C 0.31890 0.67424 0.38901
 C469 C 0.30765 0.65378 0.37786
 H470 H 0.34580 0.61824 0.29528
 H471 H 0.28951 0.61565 0.35273
 H472 H 0.37956 0.64933 0.29617
 H473 H 0.38213 0.70156 0.35497
 H474 H 0.34904 0.70108 0.38675
 H475 H 0.29071 0.64564 0.38595
 C476 C 0.35094 0.14320 0.81791
 C477 C 0.33996 0.12233 0.80732
 C478 C 0.31786 0.11179 0.81749
 C479 C 0.30641 0.12253 0.83815
 C480 C 0.31719 0.14333 0.84901
 C481 C 0.33959 0.15369 0.83890
 C482 C 0.37292 0.15389 0.80775
 C483 C 0.38404 0.17459 0.81863
 C484 C 0.37265 0.18497 0.83948
 C485 C 0.35046 0.17473 0.84962
 C486 C 0.33876 0.18541 0.87009
 C487 C 0.31626 0.17543 0.87991
 C488 C 0.30578 0.15417 0.86960
 H489 H 0.34860 0.11419 0.79120
 H490 H 0.28900 0.11471 0.84563
 H491 H 0.38142 0.14620 0.79134
 H492 H 0.38107 0.20111 0.84770
 H493 H 0.34686 0.20177 0.87819
 H494 H 0.28855 0.14635 0.87744
 C495 C 0.84962 0.64182 0.82896
 C496 C 0.83909 0.62063 0.81862
 C497 C 0.81639 0.61054 0.82804
 C498 C 0.80407 0.62194 0.84787
 C499 C 0.81444 0.64304 0.85853
 C500 C 0.83731 0.65306 0.84905
 C501 C 0.87198 0.65222 0.81928
 C502 C 0.88253 0.67343 0.82971
 C503 C 0.87019 0.68454 0.84970
 C504 C 0.84760 0.67458 0.85937
 C505 C 0.83481 0.68606 0.87883
 C506 C 0.81181 0.67640 0.88798
 C507 C 0.80201 0.65463 0.87813
 H508 H 0.84842 0.61201 0.80311
 H509 H 0.78619 0.61453 0.85472
 H510 H 0.88113 0.64399 0.80346
 H511 H 0.87812 0.70109 0.85755
 H512 H 0.84238 0.70281 0.88656
 H513 H 0.78440 0.64707 0.88544
 C514 C 0.85337 0.14800 0.32060
 C515 C 0.84129 0.12801 0.30946
 C516 C 0.81968 0.11729 0.32032
 C517 C 0.81052 0.12616 0.34279
 C518 C 0.82226 0.14623 0.35405
 C519 C 0.84377 0.15725 0.34293
 C520 C 0.87462 0.15915 0.30958
 C521 C 0.88661 0.17923 0.32074
 C522 C 0.87676 0.18861 0.34277
 C523 C 0.85540 0.17777 0.35393
 C524 C 0.84524 0.18730 0.37572
 C525 C 0.82392 0.17629 0.38690
 C526 C 0.81255 0.15576 0.37600
 H527 H 0.84835 0.12102 0.29214
 H528 H 0.79393 0.11767 0.35118
 H529 H 0.88184 0.15234 0.29225
 H530 H 0.88580 0.20435 0.35117
 H531 H 0.85369 0.20344 0.38390
 H532 H 0.79594 0.14744 0.38451
 C533 C 0.65425 0.35073 0.31851
 C534 C 0.66514 0.37148 0.30753
 C535 C 0.68580 0.38345 0.31870
 C536 C 0.69513 0.37509 0.34139
 C537 C 0.68450 0.35434 0.35260
 C538 C 0.66401 0.34203 0.34110
 C539 C 0.63421 0.33816 0.30700
 C540 C 0.62394 0.31691 0.31765
 C541 C 0.63341 0.30854 0.34031
 C542 C 0.65356 0.32081 0.35199
 C543 C 0.66380 0.31196 0.37411
 C544 C 0.68414 0.32419 0.38564
 C545 C 0.69440 0.34535 0.37479
 H546 H 0.65803 0.37802 0.28998
 H547 H 0.71106 0.38448 0.34996
 H548 H 0.62683 0.34461 0.28953
 H549 H 0.62524 0.29228 0.34862
 H550 H 0.65625 0.29534 0.38224
 H551 H 0.71028 0.35461 0.38357
 C552 C 0.64831 0.85889 0.81773
 C553 C 0.65998 0.88027 0.80905
 C554 C 0.68084 0.89047 0.82160
 C555 C 0.68982 0.87937 0.84326
 C556 C 0.67828 0.85797 0.85223
 C557 C 0.65771 0.84745 0.83919
 C558 C 0.62773 0.84847 0.80502
 C559 C 0.61720 0.82612 0.81279
 C560 C 0.62668 0.81473 0.83409
 C561 C 0.64676 0.82532 0.84741
 C562 C 0.65623 0.81402 0.86869
 C563 C 0.67598 0.82489 0.88237
 C564 C 0.68711 0.84675 0.87384
 H565 H 0.65329 0.88873 0.79219
 H566 H 0.70595 0.88731 0.85290
 H567 H 0.62015 0.85746 0.78879
 H568 H 0.61846 0.79754 0.84018
 H569 H 0.64825 0.79668 0.87462
 H570 H 0.70257 0.85505 0.88413
 C571 C 0.14953 0.35822 0.82946
 C572 C 0.16072 0.37909 0.81905
 C573 C 0.18210 0.39005 0.83009
 C574 C 0.19260 0.37976 0.85151
 C575 C 0.18175 0.35876 0.86205
 C576 C 0.16010 0.34794 0.85102
 C577 C 0.12812 0.34729 0.81855
 C578 C 0.11698 0.32638 0.82905
 C579 C 0.12776 0.31597 0.85026
 C580 C 0.14925 0.32662 0.86133
 C581 C 0.16022 0.31616 0.88238
 C582 C 0.18163 0.32696 0.89353
 C583 C 0.19236 0.34820 0.88326
 H584 H 0.15296 0.38680 0.80224
 H585 H 0.20930 0.38810 0.85984
 H586 H 0.12005 0.35498 0.80187
 H587 H 0.11931 0.29962 0.85813
 H588 H 0.15230 0.29947 0.89004
 H589 H 0.20906 0.35636 0.89175
 C590 C 0.14422 0.85537 0.32290
 C591 C 0.15464 0.87682 0.31288
 C592 C 0.17572 0.88819 0.32405
 C593 C 0.18671 0.87772 0.34515
 C594 C 0.17673 0.85610 0.35521
 C595 C 0.15531 0.84492 0.34413
 C596 C 0.12318 0.84398 0.31181
 C597 C 0.11274 0.82253 0.32192
 C598 C 0.12399 0.81204 0.34291
 C599 C 0.14528 0.82302 0.35402
 C600 C 0.15709 0.81219 0.37450
 C601 C 0.17885 0.82290 0.38509
 C602 C 0.18821 0.84513 0.37577
 H603 H 0.14655 0.88462 0.29627
 H604 H 0.20324 0.88631 0.35353
 H605 H 0.11489 0.85170 0.29524
 H606 H 0.11619 0.79525 0.35046
 H607 H 0.14984 0.79509 0.38185
 H608 H 0.20487 0.85345 0.38418
 O609 O 0.24778 1.02345 0.28052
 O610 O 0.27965 0.97480 0.24502
 O611 O 0.28095 1.02302 0.24576
 O612 O 0.24697 0.97563 0.28097
 O613 O 0.21461 0.97751 0.25486
 O614 O 0.24977 1.02314 0.21839
 O615 O 0.24724 0.97491 0.21892
 O616 O 0.21661 1.02505 0.25313
 Cu617 Cu 0.26709 0.99897 0.26569
 Cu618 Cu 0.22898 1.00008 0.23351
 C619 C 0.22731 1.03322 0.27233
 C620 C 0.26842 0.96607 0.22634
 C621 C 0.27058 1.03192 0.22662
 C622 C 0.22488 0.96876 0.27413
 O623 O 0.28567 0.47100 0.74549
 O624 O 0.25752 0.52201 0.78059
 O625 O 0.25489 0.47434 0.78264
 O626 O 0.28880 0.51873 0.74359
 O627 O 0.25584 0.51953 0.71816
 O628 O 0.22141 0.47615 0.75785
 O629 O 0.22484 0.52349 0.75490
 O630 O 0.25211 0.47158 0.72074
 Cu631 Cu 0.27508 0.49644 0.76559
 Cu632 Cu 0.23530 0.49775 0.73528
 C633 C 0.27330 0.46222 0.72752
 C634 C 0.23662 0.53177 0.77347
 C635 C 0.23232 0.46783 0.77698
 C636 C 0.27803 0.52679 0.72428
 O637 O 0.75227 -0.02207 0.28493
 O638 O 0.71758 0.02204 0.24599
 O639 O 0.71993 -0.02524 0.24929
 O640 O 0.75039 0.02608 0.28151
 O641 O 0.78280 0.02496 0.25548
 O642 O 0.75197 -0.02585 0.22280
 O643 O 0.74988 0.02197 0.21982
 O644 O 0.78410 -0.02309 0.25830
 Cu645 Cu 0.73195 0.00038 0.26824
 Cu646 Cu 0.77047 -0.00042 0.23648
 C647 C 0.77341 -0.03106 0.27763
 C648 C 0.72781 0.02948 0.22625
 C649 C 0.73107 -0.03457 0.23085
 C650 C 0.77147 0.03457 0.27365
 O651 O 0.74311 0.47526 0.78211
 O652 O 0.71035 0.52566 0.74994
 O653 O 0.71079 0.47775 0.74624
 O654 O 0.74508 0.52297 0.78427
 O655 O 0.77564 0.52473 0.75634
 O656 O 0.74276 0.47813 0.71970
 O657 O 0.74085 0.52591 0.72202
 O658 O 0.77489 0.47673 0.75543
 Cu659 Cu 0.72420 0.50042 0.76837
 Cu660 Cu 0.76170 0.50166 0.73569
 C661 C 0.76420 0.46700 0.77396
 C662 C 0.71970 0.53414 0.73025
 C663 C 0.72132 0.46982 0.72677
 C664 C 0.76620 0.53160 0.77661
 O665 O 0.25031 0.47504 0.28210
 O666 O 0.21731 0.52065 0.24343
 O667 O 0.22007 0.47328 0.24471
 O668 O 0.24859 0.52343 0.28034
 O669 O 0.28206 0.52366 0.25555
 O670 O 0.25349 0.47374 0.21982
 O671 O 0.25074 0.52161 0.21861
 O672 O 0.28366 0.47564 0.25717
 Cu673 Cu 0.23084 0.49814 0.26532
 Cu674 Cu 0.27087 0.49882 0.23533
 C675 C 0.27209 0.46683 0.27566
 C676 C 0.22837 0.52884 0.22441
 C677 C 0.23225 0.46466 0.22652
 C678 C 0.26987 0.53246 0.27362
 O679 O 0.75448 1.02187 0.78032
 O680 O 0.79116 0.97663 0.74445
 O681 O 0.78946 1.02487 0.74679
 O682 O 0.75682 0.97476 0.77921
 O683 O 0.72563 0.97606 0.75177
 O684 O 0.75993 1.02417 0.71772
 O685 O 0.76003 0.97589 0.71700
 O686 O 0.72492 1.02304 0.75128
 Cu687 Cu 0.77627 0.99944 0.76534
 Cu688 Cu 0.73978 0.99968 0.73138
 C689 C 0.73333 1.02999 0.77195
 C690 C 0.78153 0.96822 0.72482
 C691 C 0.77995 1.03340 0.72710
 C692 C 0.73515 0.96761 0.77153
 O693 O 0.78290 0.47938 0.24084
 O694 O 0.75002 0.52395 0.28051
 O695 O 0.75213 0.47592 0.27765
 O696 O 0.78191 0.52656 0.24371
 O697 O 0.74929 0.52690 0.21787
 O698 O 0.71885 0.47681 0.25256
 O699 O 0.71717 0.52461 0.25493
 O700 O 0.74952 0.47938 0.21583
 Cu701 Cu 0.76993 0.50154 0.26340
 Cu702 Cu 0.73030 0.50225 0.23282
 C703 C 0.77167 0.47165 0.22171
 C704 C 0.72793 0.53179 0.27448
 C705 C 0.73089 0.46723 0.27046
 C706 C 0.77108 0.53483 0.22454
 O707 O 0.21012 0.02448 0.74258
 O708 O 0.24342 -0.02211 0.78019
 O709 O 0.24442 0.02509 0.77749
 O710 O 0.20899 -0.02367 0.74572
 O711 O 0.23932 -0.02532 0.71772
 O712 O 0.27495 0.02331 0.74945
 O713 O 0.27406 -0.02402 0.75236
 O714 O 0.24104 0.02271 0.71501
 Cu715 Cu 0.22350 0.00117 0.76414
 Cu716 Cu 0.26030 -0.00120 0.73073
 C717 C 0.22009 0.03179 0.72261
 C718 C 0.26478 -0.03057 0.77287
 C719 C 0.26581 0.03226 0.76904
 C720 C 0.21808 -0.03286 0.72624
 O721 O 0.22408 0.24942 1.02613
 O722 O 0.25132 0.21604 0.97385
 O723 O 0.25549 0.21290 1.02182
 O724 O 0.22080 0.25328 0.97886
 O725 O 0.25400 0.27827 0.97810
 O726 O 0.28867 0.23789 1.02094
 O727 O 0.28457 0.24099 0.97341
 O728 O 0.25732 0.27440 1.02587
 Cu729 Cu 0.23467 0.23027 1.00018
 Cu730 Cu 0.27446 0.26043 0.99950
 C731 C 0.23623 0.26736 1.03510
 C732 C 0.27226 0.22313 0.96444
 C733 C 0.27787 0.21868 1.02892
 C734 C 0.23154 0.27267 0.97117
 O735 O 0.24827 0.78003 0.47586
 O736 O 0.27853 0.74363 0.52497
 O737 O 0.28023 0.74343 0.47766
 O738 O 0.24722 0.78026 0.52436
 O739 O 0.21445 0.75478 0.52372
 O740 O 0.24732 0.71810 0.47654
 O741 O 0.24572 0.71815 0.52438
 O742 O 0.21532 0.75474 0.47552
 Cu743 Cu 0.26670 0.76461 0.50066
 Cu744 Cu 0.22734 0.73396 0.49985
 C745 C 0.22699 0.77320 0.46691
 C746 C 0.26699 0.72496 0.53334
 C747 C 0.26949 0.72439 0.46930
 C748 C 0.22582 0.77316 0.53281
 O749 O 0.28598 0.75289 -0.02631
 O750 O 0.25720 0.71925 0.02541
 O751 O 0.25496 0.71587 -0.02202
 O752 O 0.28918 0.75531 0.02161
 O753 O 0.25682 0.78155 0.02146
 O754 O 0.22225 0.74168 -0.02184
 O755 O 0.22480 0.74541 0.02563
 O756 O 0.25344 0.77894 -0.02617
 Cu757 Cu 0.27516 0.73331 -0.00038
 Cu758 Cu 0.23608 0.76452 -0.00031
 C759 C 0.27445 0.77146 -0.03521
 C760 C 0.23624 0.72683 0.03456
 C761 C 0.23260 0.72185 -0.02910
 C762 C 0.27884 0.77502 0.02909
 O763 O 0.28187 0.25018 0.47442
 O764 O 0.24424 0.21636 0.52030
 O765 O 0.24643 0.21671 0.47308
 O766 O 0.27944 0.24945 0.52266
 O767 O 0.25057 0.27916 0.52090
 O768 O 0.21615 0.24514 0.47291
 O769 O 0.21539 0.24619 0.52043
 O770 O 0.25186 0.27882 0.47282
 Cu771 Cu 0.26617 0.23042 0.49763
 Cu772 Cu 0.23062 0.26537 0.49649
 C773 C 0.27294 0.26989 0.46531
 C774 C 0.22355 0.22567 0.52832
 C775 C 0.22523 0.22499 0.46508
 C776 C 0.27026 0.26946 0.53067
 O777 O 0.70970 0.75849 1.02394
 O778 O 0.74093 0.72042 0.97683
 O779 O 0.74129 0.72157 1.02513
 O780 O 0.70826 0.75592 0.97624
 O781 O 0.74001 0.78242 0.97550
 O782 O 0.77415 0.74690 1.02309
 O783 O 0.77304 0.74665 0.97519
 O784 O 0.74280 0.78364 1.02351
 Cu785 Cu 0.72188 0.73641 1.00075
 Cu786 Cu 0.76074 0.76750 0.99912
 C787 C 0.72118 0.77731 1.03201
 C788 C 0.76194 0.72752 0.96750
 C789 C 0.76305 0.72860 1.03273
 C790 C 0.71841 0.77514 0.96755
 O791 O 0.75419 0.21990 0.47592
 O792 O 0.72256 0.25658 0.52379
 O793 O 0.72182 0.25661 0.47613
 O794 O 0.75372 0.21995 0.52396
 O795 O 0.78649 0.24549 0.52377
 O796 O 0.75455 0.28213 0.47562
 O797 O 0.75531 0.28214 0.52367
 O798 O 0.78695 0.24540 0.47611
 Cu799 Cu 0.73482 0.23564 0.49976
 Cu800 Cu 0.77408 0.26642 0.49956
 C801 C 0.77610 0.22627 0.46810
 C802 C 0.73400 0.27516 0.53241
 C803 C 0.73259 0.27574 0.46791
 C804 C 0.77510 0.22692 0.53256
 O805 O 0.78054 0.25370 -0.02513
 O806 O 0.75031 0.21650 0.02314
 O807 O 0.75157 0.21535 -0.02498
 O808 O 0.77949 0.25453 0.02270
 O809 O 0.74503 0.27822 0.02157
 O810 O 0.71708 0.23899 -0.02609
 O811 O 0.71584 0.24016 0.02162
 O812 O 0.74603 0.27729 -0.02667
 Cu813 Cu 0.76891 0.23259 -0.00096
 Cu814 Cu 0.72758 0.26113 -0.00255
 C815 C 0.76812 0.27144 -0.03453
 C816 C 0.72824 0.22241 0.03103
 C817 C 0.72987 0.22086 -0.03405
 C818 C 0.76667 0.27260 0.03075
 O819 O 0.78650 0.75497 0.47679
 O820 O 0.75422 0.71842 0.52435
 O821 O 0.75471 0.71882 0.47620
 O822 O 0.78588 0.75472 0.52474
 O823 O 0.75310 0.78049 0.52462
 O824 O 0.72191 0.74459 0.47612
 O825 O 0.72143 0.74421 0.52382
 O826 O 0.75369 0.78072 0.47632
 Cu827 Cu 0.77360 0.73411 0.50055
 Cu828 Cu 0.73432 0.76519 0.50020
 C829 C 0.77518 0.77364 0.46794
 C830 C 0.73263 0.72542 0.53256
 C831 C 0.73333 0.72594 0.46750
 C832 C 0.77439 0.77330 0.53344
 O833 O 0.97336 0.25433 0.21381
 O834 O 1.02508 0.22175 0.24682
 O835 O 0.97512 0.22047 0.24815
 O836 O 1.02343 0.25371 0.21209
 O837 O 1.02298 0.28335 0.23937
 O838 O 0.97546 0.24965 0.27610
 O839 O 1.02540 0.25119 0.27446
 O840 O 0.97303 0.28308 0.24224
 Cu841 Cu 0.99898 0.23460 0.22742
 Cu842 Cu 0.99922 0.26973 0.26084
 C843 C 0.96446 0.27426 0.22240
 C844 C 1.03458 0.23140 0.26593
 C845 C 0.96732 0.22919 0.26836
 C846 C 1.03154 0.27425 0.21953
 O847 O 0.47615 0.24399 0.77827
 O848 O 0.52690 0.27640 0.74446
 O849 O 0.47716 0.27726 0.74365
 O850 O 0.52640 0.24452 0.77927
 O851 O 0.52686 0.21480 0.75184
 O852 O 0.47738 0.24764 0.71616
 O853 O 0.52756 0.24667 0.71704
 O854 O 0.47703 0.21433 0.75082
 Cu855 Cu 0.50137 0.26347 0.76424
 Cu856 Cu 0.50203 0.22790 0.73116
 C857 C 0.46820 0.22349 0.77043
 C858 C 0.53634 0.26663 0.72537
 C859 C 0.46917 0.26823 0.72368
 C860 C 0.53560 0.22454 0.77123
 O861 O 0.02684 0.25607 0.72353
 O862 O -0.02340 0.28886 0.75743
 O863 O 0.02585 0.28815 0.75843
 O864 O -0.02362 0.25604 0.72291
 O865 O -0.02416 0.22643 0.75062
 O866 O 0.02614 0.25795 0.78556
 O867 O -0.02354 0.25945 0.78534
 O868 O 0.02593 0.22595 0.75069
 Cu869 Cu 0.00141 0.27511 0.73760
 Cu870 Cu 0.00092 0.23936 0.77074
 C871 C 0.03532 0.23576 0.73160
 C872 C -0.03151 0.28010 0.77755
 C873 C 0.03430 0.27853 0.77809
 C874 C -0.03263 0.23600 0.73097
 O875 O 0.47959 0.28228 0.25363
 O876 O 0.52507 0.24563 0.21740
 O877 O 0.47507 0.24847 0.22022
 O878 O 0.52921 0.27863 0.25116
 O879 O 0.52941 0.24928 0.27916
 O880 O 0.47446 0.21994 0.24898
 O881 O 0.52405 0.21630 0.24542
 O882 O 0.47947 0.25351 0.28222
 Cu883 Cu 0.50219 0.26662 0.23270
 Cu884 Cu 0.50181 0.23190 0.26685
 C885 C 0.47192 0.27420 0.27418
 C886 C 0.53230 0.22478 0.22523
 C887 C 0.46524 0.22932 0.22954
 C888 C 0.53882 0.26876 0.27019
 O889 O 0.97572 0.74327 0.72497
 O890 O 1.02556 0.71043 0.76023
 O891 O 0.97558 0.71087 0.76067
 O892 O 1.02588 0.74230 0.72543
 O893 O 1.02638 0.77210 0.75271
 O894 O 0.97535 0.74114 0.78743
 O895 O 1.02579 0.74040 0.78738
 O896 O 0.97673 0.77351 0.75176
 Cu897 Cu 1.00037 0.72371 0.74009
 Cu898 Cu 1.00078 0.75972 0.77265
 C899 C 0.96823 0.76425 0.73207
 C900 C 1.03477 0.72031 0.77932
 C901 C 0.96706 0.72057 0.78016
 C902 C 1.03537 0.76208 0.73356
 O903 O 0.52574 0.71963 0.25390
 O904 O 0.47364 0.75233 0.22204
 O905 O 0.52304 0.75383 0.22113
 O906 O 0.47551 0.71803 0.25573
 O907 O 0.47432 0.74684 0.28404
 O908 O 0.52388 0.78123 0.25085
 O909 O 0.47454 0.78117 0.25035
 O910 O 0.52469 0.74693 0.28371
 Cu911 Cu 0.49935 0.73296 0.23542
 Cu912 Cu 0.49917 0.76672 0.27033
 C913 C 0.53445 0.72799 0.27392
 C914 C 0.46598 0.77282 0.23026
 C915 C 0.53150 0.77367 0.23010
 C916 C 0.46669 0.72646 0.27569
 O917 O 0.02564 0.74690 0.21526
 O918 O -0.02506 0.78080 0.24777
 O919 O 0.02467 0.78084 0.24916
 O920 O -0.02417 0.74761 0.21381
 O921 O -0.02440 0.71848 0.24204
 O922 O 0.02420 0.75189 0.27759
 O923 O -0.02571 0.75201 0.27634
 O924 O 0.02533 0.71833 0.24407
 Cu925 Cu 0.00044 0.76694 0.22864
 Cu926 Cu -0.00029 0.73230 0.26290
 C927 C 0.03395 0.72677 0.22402
 C928 C -0.03416 0.77205 0.26750
 C929 C 0.03254 0.77215 0.26945
 C930 C -0.03240 0.72725 0.22181
 O931 O 0.47132 0.78835 0.74509
 O932 O 0.52045 0.75367 0.71141
 O933 O 0.47069 0.75279 0.71379
 O934 O 0.52165 0.78861 0.74357
 O935 O 0.52351 0.76119 0.77337
 O936 O 0.47167 0.72625 0.74450
 O937 O 0.52125 0.72600 0.74108
 O938 O 0.47312 0.76152 0.77543
 Cu939 Cu 0.49592 0.77369 0.72554
 Cu940 Cu 0.49775 0.74113 0.76174
 C941 C 0.46315 0.78039 0.76552
 C942 C 0.52890 0.73372 0.72034
 C943 C 0.46218 0.73371 0.72437
 C944 C 0.53174 0.78056 0.76322
 C945 C 0.43099 0.27669 0.29638
 C946 C 0.41195 0.28937 0.30894
 C947 C 0.41466 0.31430 0.31446
 C948 C 0.43754 0.32651 0.30761
 C949 C 0.45682 0.31364 0.29442
 C950 C 0.45325 0.28858 0.28858
 C951 C 0.47942 0.32619 0.28824
 N952 N 0.48240 0.34993 0.29484
 N953 N 0.46443 0.36191 0.30737
 C954 C 0.44220 0.35101 0.31408
 H955 H 0.42799 0.25754 0.29212
 H956 H 0.39465 0.27968 0.31403
 H957 H 0.49492 0.31731 0.27857
 H958 H 0.42862 0.36151 0.32473
 C959 C 0.44272 0.79640 0.80303
 C960 C 0.42265 0.80746 0.81568
 C961 C 0.40045 0.81561 0.80343
 C962 C 0.39800 0.81079 0.77783
 C963 C 0.41851 0.79933 0.76498
 C964 C 0.44131 0.79272 0.77770
 C965 C 0.41481 0.79353 0.74004
 N966 N 0.39226 0.79883 0.72887
 N967 N 0.37292 0.80914 0.74094
 C968 C 0.37486 0.81498 0.76498
 H969 H 0.45972 0.79092 0.81312
 H970 H 0.42498 0.81050 0.83518
 H971 H 0.42916 0.78415 0.72936
 H972 H 0.35790 0.82201 0.77385
 C973 C -0.07084 0.30511 0.77849
 C974 C -0.09042 0.31754 0.79043
 C975 C -0.09091 0.31952 0.81614
 C976 C -0.06954 0.31020 0.82972
 C977 C -0.04958 0.29731 0.81740
 C978 C -0.05085 0.29408 0.79163
 C979 C -0.02831 0.28923 0.83120
 N980 N -0.02706 0.29390 0.85555
 N981 N -0.04539 0.30643 0.86699
 C982 C -0.06634 0.31496 0.85492
 H983 H -0.07181 0.30348 0.75874
 H984 H -0.10616 0.32435 0.77932
 H985 H -0.01223 0.27993 0.82290
 H986 H -0.07978 0.32610 0.86505
 C987 C -0.05132 0.79073 0.30527
 C988 C -0.07008 0.80333 0.31840
 C989 C -0.09310 0.81054 0.30719
 C990 C -0.09749 0.80436 0.28226
 C991 C -0.07807 0.79216 0.26871
 C992 C -0.05481 0.78533 0.28042
 C993 C -0.08303 0.78641 0.24404
 N994 N -0.10600 0.79214 0.23385
 N995 N -0.12444 0.80306 0.24670
 C996 C -0.12106 0.80921 0.27053
 H997 H -0.03371 0.78549 0.31450
 H998 H -0.06653 0.80764 0.33748
 H999 H -0.06904 0.77721 0.23279
 H1000 H -0.13703 0.81743 0.28008
 C1001 C 0.55425 0.70794 0.31000
 C1002 C 0.57451 0.69602 0.32178
 C1003 C 0.59776 0.69182 0.30962
 C1004 C 0.60089 0.70049 0.28527
 C1005 C 0.58021 0.71247 0.27321
 C1006 C 0.55660 0.71584 0.28566
 C1007 C 0.58422 0.72145 0.24929
 N1008 N 0.60730 0.71842 0.23829
 N1009 N 0.62671 0.70721 0.24962
 C1010 C 0.62436 0.69826 0.27272
 H1011 H 0.53642 0.71067 0.31981
 H1012 H 0.57195 0.68975 0.34048
 H1013 H 0.56945 0.73119 0.23931
 H1014 H 0.64099 0.68986 0.28113
 C1015 C 0.55491 0.18836 0.79144
 C1016 C 0.57504 0.17629 0.80323
 C1017 C 0.59834 0.18818 0.80760
 C1018 C 0.60158 0.21268 0.79939
 C1019 C 0.58088 0.22517 0.78790
 C1020 C 0.55733 0.21283 0.78407
 C1021 C 0.58486 0.24937 0.77974
 N1022 N 0.60804 0.26008 0.78273
 N1023 N 0.62756 0.24823 0.79318
 C1024 C 0.62519 0.22492 0.80148
 H1025 H 0.53719 0.17860 0.78829
 H1026 H 0.57237 0.15749 0.80912
 H1027 H 0.57002 0.25980 0.77063
 H1028 H 0.64195 0.21612 0.80922
 C1029 C 1.05482 0.68450 0.79972
 C1030 C 1.07531 0.67280 0.81136
 C1031 C 1.09855 0.68500 0.81510
 C1032 C 1.10143 0.70932 0.80632
 C1033 C 1.08050 0.72133 0.79471
 C1034 C 1.05691 0.70881 0.79172
 C1035 C 1.08428 0.74523 0.78563
 N1036 N 1.10738 0.75621 0.78814
 N1037 N 1.12703 0.74490 0.79897
 C1038 C 1.12490 0.72185 0.80804
 H1039 H 1.03709 0.67458 0.79717
 H1040 H 1.07298 0.65409 0.81766
 H1041 H 1.06931 0.75522 0.77624
 H1042 H 1.14171 0.71347 0.81614
 C1043 C 1.05611 0.19394 0.28111
 C1044 C 1.07596 0.18156 0.29295
 C1045 C 1.09708 0.19420 0.30263
 C1046 C 1.09887 0.21997 0.29833
 C1047 C 1.07850 0.23258 0.28627
 C1048 C 1.05663 0.21942 0.27824
 C1049 C 1.08141 0.25781 0.28144
 N1050 N 1.10320 0.26947 0.28803
 N1051 N 1.12253 0.25759 0.29873
 C1052 C 1.12128 0.23331 0.30378
 H1053 H 1.03984 0.18353 0.27462
 H1054 H 1.07407 0.16196 0.29559
 H1055 H 1.06704 0.26838 0.27185
 H1056 H 1.13825 0.22466 0.31121
 C1057 C 0.55581 0.30284 0.70580
 C1058 C 0.57607 0.31496 0.69454
 C1059 C 0.59961 0.30310 0.69073
 C1060 C 0.60292 0.27859 0.69895
 C1061 C 0.58207 0.26605 0.70991
 C1062 C 0.55830 0.27837 0.71318
 C1063 C 0.58610 0.24184 0.71812
 N1064 N 0.60946 0.23116 0.71566
 N1065 N 0.62910 0.24304 0.70569
 C1066 C 0.62669 0.26637 0.69738
 H1067 H 0.53791 0.31258 0.70852
 H1068 H 0.57333 0.33376 0.68861
 H1069 H 0.57115 0.23139 0.72686
 H1070 H 0.64352 0.27520 0.69004
 C1071 C 0.57231 0.79600 0.22963
 C1072 C 0.59193 0.80857 0.21794
 C1073 C 0.59103 0.81347 0.19260
 C1074 C 0.56845 0.80695 0.17935
 C1075 C 0.54846 0.79398 0.19140
 C1076 C 0.55090 0.78794 0.21659
 C1077 C 0.52606 0.78859 0.17807
 N1078 N 0.52376 0.79592 0.15442
 N1079 N 0.54213 0.80859 0.14329
 C1080 C 0.56416 0.81459 0.15496
 H1081 H 0.57429 0.79182 0.24898
 H1082 H 0.60866 0.81323 0.22872
 H1083 H 0.51001 0.77925 0.18630
 H1084 H 0.57765 0.82598 0.14522
 C1085 C 1.06951 0.30085 0.21993
 C1086 C 1.09012 0.31278 0.20919
 C1087 C 1.09402 0.31235 0.18368
 C1088 C 1.07500 0.30089 0.16880
 C1089 C 1.05472 0.28740 0.17990
 C1090 C 1.05204 0.28740 0.20590
 C1091 C 1.03735 0.27528 0.16432
 N1092 N 1.03903 0.27799 0.13968
 N1093 N 1.05678 0.29209 0.12943
 C1094 C 1.07453 0.30384 0.14310
 H1095 H 1.06789 0.30134 0.23971
 H1096 H 1.10392 0.32113 0.22137
 H1097 H 1.02216 0.26392 0.17110
 H1098 H 1.08766 0.31589 0.13371
 C1099 C 1.05679 0.79889 0.71740
 C1100 C 1.07693 0.81094 0.70594
 C1101 C 1.09859 0.79809 0.69744
 C1102 C 1.10035 0.77241 0.70230
 C1103 C 1.07962 0.76012 0.71397
 C1104 C 1.05741 0.77352 0.72097
 C1105 C 1.08253 0.73502 0.71955
 N1106 N 1.10463 0.72319 0.71401
 N1107 N 1.12423 0.73475 0.70365
 C1108 C 1.12300 0.75889 0.69791
 H1109 H 1.04032 0.80953 0.72321
 H1110 H 1.07493 0.83047 0.70278
 H1111 H 1.06788 0.72473 0.72891
 H1112 H 1.14012 0.76734 0.69080
 C1113 C 0.44363 0.71120 0.68952
 C1114 C 0.42417 0.69775 0.67849
 C1115 C 0.40122 0.69302 0.69093
 C1116 C 0.39756 0.70259 0.71481
 C1117 C 0.41743 0.71617 0.72610
 C1118 C 0.44073 0.72018 0.71336
 C1119 C 0.41291 0.72604 0.74952
 N1120 N 0.39009 0.72234 0.76078
 N1121 N 0.37144 0.70961 0.75017
 C1122 C 0.37433 0.69970 0.72758
 H1123 H 0.46127 0.71432 0.67952
 H1124 H 0.42708 0.69083 0.66010
 H1125 H 0.42707 0.73695 0.75888
 H1126 H 0.35832 0.68997 0.71974
 C1127 C 0.44304 0.19186 0.21612
 C1128 C 0.42312 0.17941 0.20472
 C1129 C 0.40235 0.19207 0.19408
 C1130 C 0.40105 0.21808 0.19690
 C1131 C 0.42152 0.23075 0.20854
 C1132 C 0.44300 0.21745 0.21760
 C1133 C 0.41906 0.25625 0.21194
 N1134 N 0.39760 0.26813 0.20439
 N1135 N 0.37820 0.25626 0.19407
 C1136 C 0.37901 0.23174 0.19040
 H1137 H 0.45901 0.18133 0.22337
 H1138 H 0.42473 0.15968 0.20319
 H1139 H 0.43349 0.26687 0.22120
 H1140 H 0.36198 0.22318 0.18323
 C1141 C -0.07445 0.72620 0.20116
 C1142 C -0.09420 0.71418 0.18906
 C1143 C -0.09181 0.68948 0.18246
 C1144 C -0.06840 0.67698 0.18738
 C1145 C -0.04845 0.68915 0.20018
 C1146 C -0.05185 0.71383 0.20754
 C1147 C -0.02537 0.67637 0.20444
 N1148 N -0.02258 0.65305 0.19637
 N1149 N -0.04118 0.64172 0.18419
 C1150 C -0.06390 0.65289 0.17932
 H1151 H -0.07721 0.74517 0.20617
 H1152 H -0.11179 0.72415 0.18532
 H1153 H -0.00936 0.68478 0.21371
 H1154 H -0.07799 0.64296 0.16880
 C1155 C -0.04969 0.19934 0.71035
 C1156 C -0.06882 0.18668 0.69790
 C1157 C -0.09242 0.19789 0.69258
 C1158 C -0.09696 0.22230 0.70047
 C1159 C -0.07727 0.23533 0.71270
 C1160 C -0.05344 0.22369 0.71753
 C1161 C -0.08251 0.25937 0.72056
 N1162 N -0.10592 0.26950 0.71653
 N1163 N -0.12450 0.25717 0.70537
 C1164 C -0.12091 0.23393 0.69735
 H1165 H -0.03168 0.19012 0.71418
 H1166 H -0.06515 0.16798 0.69227
 H1167 H -0.06841 0.27011 0.73014
 H1168 H -0.13698 0.22472 0.68903
 C1169 C 0.30893 0.44827 0.29755
 C1170 C 0.32123 0.42877 0.30930
 C1171 C 0.30884 0.40627 0.31259
 C1172 C 0.28359 0.40326 0.30339
 C1173 C 0.27084 0.42327 0.29189
 C1174 C 0.28371 0.44600 0.28908
 C1175 C 0.24596 0.41944 0.28263
 N1176 N 0.23486 0.39712 0.28465
 N1177 N 0.24694 0.37831 0.29516
 C1178 C 0.27091 0.38055 0.30446
 H1179 H 0.31914 0.46535 0.29516
 H1180 H 0.34062 0.43126 0.31595
 H1181 H 0.23531 0.43371 0.27337
 H1182 H 0.27991 0.36442 0.31219
 C1183 C 0.26509 -0.06781 0.79870
 C1184 C 0.27755 -0.08640 0.81164
 C1185 C 0.30439 -0.08649 0.81444
 C1186 C 0.31837 -0.06567 0.80604
 C1187 C 0.30556 -0.04673 0.79283
 C1188 C 0.27886 -0.04847 0.78828
 C1189 C 0.31978 -0.02606 0.78556
 N1190 N 0.34498 -0.02444 0.79133
 N1191 N 0.35688 -0.04188 0.80415
 C1192 C 0.34444 -0.06222 0.81191
 H1193 H 0.24458 -0.06913 0.79589
 H1194 H 0.26615 -0.10172 0.81794
 H1195 H 0.31105 -0.01078 0.77604
 H1196 H 0.35492 -0.07506 0.82327
 C1197 C 0.80241 0.44643 0.79121
 C1198 C 0.81476 0.42686 0.80268
 C1199 C 0.80132 0.40559 0.80946
 C1200 C 0.77495 0.40364 0.80270
 C1201 C 0.76239 0.42373 0.79104
 C1202 C 0.77622 0.44548 0.78588
 C1203 C 0.73667 0.42081 0.78366
 N1204 N 0.72453 0.39927 0.78751
 N1205 N 0.73642 0.38025 0.79783
 C1206 C 0.76118 0.38156 0.80521
 H1207 H 0.81333 0.46274 0.78693
 H1208 H 0.83486 0.42890 0.80727
 H1209 H 0.72619 0.43508 0.77422
 H1210 H 0.76995 0.36499 0.81215
 C1211 C 0.81168 -0.05132 0.29524
 C1212 C 0.82416 -0.07086 0.30666
 C1213 C 0.81060 -0.09161 0.31459
 C1214 C 0.78384 -0.09313 0.30923
 C1215 C 0.77115 -0.07313 0.29755
 C1216 C 0.78523 -0.05184 0.29102
 C1217 C 0.74503 -0.07580 0.29139
 N1218 N 0.73266 -0.09697 0.29643
 N1219 N 0.74463 -0.11589 0.30681
 C1220 C 0.76972 -0.11485 0.31306
 H1221 H 0.82281 -0.03551 0.28975
 H1222 H 0.84457 -0.06934 0.31005
 H1223 H 0.73432 -0.06171 0.28198
 H1224 H 0.77844 -0.13139 0.32010
 C1225 C 0.27624 0.56662 0.70314
 C1226 C 0.28740 0.58636 0.69109
 C1227 C 0.31342 0.58598 0.68474
 C1228 C 0.32823 0.56470 0.68988
 C1229 C 0.31688 0.54460 0.70239
 C1230 C 0.29075 0.54590 0.70947
 C1231 C 0.33195 0.52358 0.70670
 N1232 N 0.35669 0.52292 0.69913
 N1233 N 0.36731 0.54172 0.68737
 C1234 C 0.35393 0.56251 0.68238
 H1235 H 0.25623 0.56792 0.70835
 H1236 H 0.27572 0.60240 0.68727
 H1237 H 0.32425 0.50749 0.71557
 H1238 H 0.36341 0.57691 0.67227
 C1239 C 0.30925 1.05375 0.21224
 C1240 C 0.32167 1.07351 0.20132
 C1241 C 0.30776 1.09342 0.19165
 C1242 C 0.28064 1.09411 0.19506
 C1243 C 0.26803 1.07407 0.20654
 C1244 C 0.28250 1.05332 0.21440
 C1245 C 0.24149 1.07619 0.21108
 N1246 N 0.22858 1.09674 0.20439
 N1247 N 0.24039 1.11558 0.19391
 C1248 C 0.26589 1.11512 0.18931
 H1249 H 0.32067 1.03844 0.21878
 H1250 H 0.34234 1.07265 0.19943
 H1251 H 0.23080 1.06222 0.22053
 H1252 H 0.27438 1.13160 0.18202
 C1253 C 0.79497 0.57358 0.22285
 C1254 C 0.80747 0.59239 0.21055
 C1255 C 0.80954 0.59253 0.18482
 C1256 C 0.80012 0.57190 0.17159
 C1257 C 0.78724 0.55272 0.18428
 C1258 C 0.78414 0.55403 0.21008
 C1259 C 0.77912 0.53219 0.17081
 N1260 N 0.78379 0.53087 0.14643
 N1261 N 0.79639 0.54846 0.13464
 C1262 C 0.80497 0.56867 0.14636
 H1263 H 0.79321 0.57463 0.24262
 H1264 H 0.81439 0.60763 0.22132
 H1265 H 0.76974 0.51681 0.17939
 H1266 H 0.81623 0.58154 0.13592
 C1267 C 0.80155 1.05292 0.69177
 C1268 C 0.81282 1.07295 0.68015
 C1269 C 0.81430 1.09573 0.69187
 C1270 C 0.80354 1.09849 0.71560
 C1271 C 0.79247 1.07800 0.72757
 C1272 C 0.79172 1.05504 0.71554
 C1273 C 0.78168 1.08144 0.75097
 N1274 N 0.78192 1.10391 0.76147
 N1275 N 0.79203 1.12320 0.75012
 C1276 C 0.80270 1.12132 0.72756
 H1277 H 0.80079 1.03552 0.68229
 H1278 H 0.82066 1.07064 0.66192
 H1279 H 0.77280 1.06662 0.76092
 H1280 H 0.81002 1.13778 0.71910
 C1281 C 0.72871 0.57104 0.29659
 C1282 C 0.71691 0.59006 0.30929
 C1283 C 0.69103 0.58867 0.31604
 C1284 C 0.67712 0.56703 0.31081
 C1285 C 0.68908 0.54773 0.29762
 C1286 C 0.71493 0.55013 0.29000
 C1287 C 0.67487 0.52635 0.29312
 N1288 N 0.65038 0.52460 0.30122
 N1289 N 0.63920 0.54267 0.31365
 C1290 C 0.65173 0.56374 0.31882
 H1291 H 0.74853 0.57309 0.29105
 H1292 H 0.72791 0.60639 0.31322
 H1293 H 0.68307 0.51082 0.28368
 H1294 H 0.64186 0.57750 0.32948
 C1295 C 0.70893 1.06857 0.77335
 C1296 C 0.69546 1.08689 0.78546
 C1297 C 0.69109 1.08567 0.81089
 C1298 C 0.69905 1.06414 0.82382
 C1299 C 0.71291 1.04546 0.81134
 C1300 C 0.71843 1.04818 0.78603
 C1301 C 0.71965 1.02407 0.82440
 N1302 N 0.71274 1.02150 0.84819
 N1303 N 0.69925 1.03866 0.85974
 C1304 C 0.69192 1.05967 0.84836
 H1305 H 0.71266 1.07075 0.75393
 H1306 H 0.68977 1.10287 0.77492
 H1307 H 0.72969 1.00902 0.81585
 H1308 H 0.67990 1.07224 0.85844
 C1309 C 0.19888 0.55318 0.79025
 C1310 C 0.18687 0.57228 0.80256
 C1311 C 0.20098 0.59180 0.81242
 C1312 C 0.22801 0.59245 0.80822
 C1313 C 0.24024 0.57286 0.79550
 C1314 C 0.22548 0.55281 0.78694
 C1315 C 0.26668 0.57479 0.79052
 N1316 N 0.27986 0.59482 0.79774
 N1317 N 0.26840 0.61334 0.80918
 C1318 C 0.24301 0.61302 0.81434
 H1319 H 0.18720 0.53827 0.78352
 H1320 H 0.16632 0.57122 0.80522
 H1321 H 0.27702 0.56105 0.78032
 H1322 H 0.23481 0.62928 0.82238
 C1323 C 0.18937 1.05552 0.28769
 C1324 C 0.17741 1.07543 0.29878
 C1325 C 0.19168 1.09522 0.30784
 C1326 C 0.21874 1.09542 0.30390
 C1327 C 0.23088 1.07511 0.29235
 C1328 C 0.21601 1.05472 0.28482
 C1329 C 0.25737 1.07662 0.28739
 N1330 N 0.27066 1.09692 0.29362
 N1331 N 0.25929 1.11607 0.30404
 C1332 C 0.23387 1.11617 0.30908
 H1333 H 0.17766 1.04039 0.28152
 H1334 H 0.15679 1.07486 0.30116
 H1335 H 0.26767 1.06231 0.27798
 H1336 H 0.22576 1.13287 0.31628
 C1337 C 0.72455 0.42925 0.70737
 C1338 C 0.71432 0.40915 0.69521
 C1339 C 0.68858 0.40898 0.68786
 C1340 C 0.67307 0.42993 0.69217
 C1341 C 0.68347 0.45032 0.70476
 C1342 C 0.70934 0.44975 0.71273
 C1343 C 0.66778 0.47096 0.70823
 N1344 N 0.64332 0.47111 0.69981
 N1345 N 0.63356 0.45203 0.68794
 C1346 C 0.64761 0.43151 0.68372
 H1347 H 0.74440 0.42851 0.71323
 H1348 H 0.72647 0.39334 0.69199
 H1349 H 0.67493 0.48707 0.71712
 H1350 H 0.63884 0.41685 0.67348
 C1351 C 0.69453 -0.05468 0.21061
 C1352 C 0.68296 -0.07460 0.19929
 C1353 C 0.69628 -0.09673 0.19628
 C1354 C 0.72163 -0.09901 0.20545
 C1355 C 0.73350 -0.07865 0.21681
 C1356 C 0.71983 -0.05624 0.21903
 C1357 C 0.75839 -0.08176 0.22637
 N1358 N 0.77044 -0.10373 0.22451
 N1359 N 0.75928 -0.12284 0.21389
 C1360 C 0.73530 -0.12128 0.20439
 H1361 H 0.68373 -0.03781 0.21255
 H1362 H 0.66348 -0.07269 0.19262
 H1363 H 0.76828 -0.06713 0.23564
 H1364 H 0.72706 -0.13757 0.19647
 C1365 C 0.19712 0.44479 0.20388
 C1366 C 0.18607 0.42479 0.19222
 C1367 C 0.19931 0.40248 0.19034
 C1368 C 0.22412 0.40019 0.20087
 C1369 C 0.23563 0.42076 0.21218
 C1370 C 0.22191 0.44321 0.21360
 C1371 C 0.26018 0.41781 0.22260
 N1372 N 0.27207 0.39570 0.22195
 N1373 N 0.26108 0.37630 0.21171
 C1374 C 0.23752 0.37773 0.20129
 H1375 H 0.18629 0.46172 0.20517
 H1376 H 0.16701 0.42674 0.18453
 H1377 H 0.26991 0.43266 0.23164
 H1378 H 0.22941 0.36117 0.19386
 C1379 C 0.22002 -0.07167 0.70332
 C1380 C 0.20926 -0.09164 0.69144
 C1381 C 0.18266 -0.09367 0.68869
 C1382 C 0.16665 -0.07460 0.69766
 C1383 C 0.17750 -0.05477 0.71093
 C1384 C 0.20464 -0.05323 0.71360
 C1385 C 0.16063 -0.03697 0.72044
 N1386 N 0.13511 -0.03839 0.71603
 N1387 N 0.12517 -0.05637 0.70271
 C1388 C 0.14004 -0.07441 0.69328
 H1389 H 0.24070 -0.07101 0.70512
 H1390 H 0.22188 -0.10596 0.68478
 H1391 H 0.16715 -0.02190 0.73134
 H1392 H 0.13092 -0.08818 0.68213
 C1393 C 0.29242 0.30731 0.44790
 C1394 C 0.30502 0.32013 0.42937
 C1395 C 0.31199 0.30850 0.40749
 C1396 C 0.30558 0.28347 0.40405
 C1397 C 0.29347 0.27025 0.42322
 C1398 C 0.28688 0.28236 0.44532
 C1399 C 0.28743 0.24548 0.41918
 N1400 N 0.29281 0.23490 0.39733
 N1401 N 0.30364 0.24744 0.37916
 C1402 C 0.31004 0.27133 0.38169
 H1403 H 0.28722 0.31688 0.46455
 H1404 H 0.30946 0.33929 0.43215
 H1405 H 0.27826 0.23443 0.43299
 H1406 H 0.31810 0.28062 0.36600
 C1407 C 0.29113 0.80914 -0.05472
 C1408 C 0.30154 0.82193 -0.07450
 C1409 C 0.30594 0.81029 -0.09699
 C1410 C 0.29889 0.78535 -0.09975
 C1411 C 0.28904 0.77217 -0.07941
 C1412 C 0.28530 0.78420 -0.05671
 C1413 C 0.28241 0.74747 -0.08272
 N1414 N 0.28507 0.73686 -0.10500
 N1415 N 0.29377 0.74934 -0.12425
 C1416 C 0.30061 0.77320 -0.12245
 H1417 H 0.28806 0.81865 -0.03758
 H1418 H 0.30654 0.84103 -0.07213
 H1419 H 0.27489 0.73659 -0.06789
 H1420 H 0.30687 0.78247 -0.13889
 C1421 C 0.80356 0.29521 -0.05262
 C1422 C 0.81521 0.30763 -0.07196
 C1423 C 0.80300 0.30978 -0.09477
 C1424 C 0.77875 0.29866 -0.09830
 C1425 C 0.76670 0.28635 -0.07849
 C1426 C 0.77924 0.28486 -0.05544
 C1427 C 0.74287 0.27510 -0.08279
 N1428 N 0.73205 0.27613 -0.10537
 N1429 N 0.74345 0.28749 -0.12399
 C1430 C 0.76643 0.29867 -0.12128
 H1431 H 0.81351 0.29387 -0.03522
 H1432 H 0.83387 0.31578 -0.06908
 H1433 H 0.73288 0.26515 -0.06862
 H1434 H 0.77496 0.30707 -0.13725
 C1435 C 0.81210 0.79477 0.44915
 C1436 C 0.82409 0.80679 0.42974
 C1437 C 0.81116 0.81083 0.40757
 C1438 C 0.78581 0.80199 0.40466
 C1439 C 0.77349 0.78999 0.42449
 C1440 C 0.78675 0.78668 0.44700
 C1441 C 0.74859 0.78085 0.42070
 N1442 N 0.73697 0.78369 0.39863
 N1443 N 0.74857 0.79489 0.38002
 C1444 C 0.77257 0.80403 0.38223
 H1445 H 0.82259 0.79198 0.46609
 H1446 H 0.84357 0.81317 0.43208
 H1447 H 0.73832 0.77111 0.43483
 H1448 H 0.78116 0.81242 0.36628
 C1449 C 0.69727 0.29628 0.55163
 C1450 C 0.68533 0.30787 0.57129
 C1451 C 0.69841 0.31150 0.59341
 C1452 C 0.72401 0.30296 0.59588
 C1453 C 0.73628 0.29139 0.57578
 C1454 C 0.72271 0.28821 0.55344
 C1455 C 0.76141 0.28242 0.57916
 N1456 N 0.77328 0.28501 0.60111
 N1457 N 0.76173 0.29580 0.61997
 C1458 C 0.73752 0.30474 0.61816
 H1459 H 0.68656 0.29363 0.53483
 H1460 H 0.66564 0.31398 0.56928
 H1461 H 0.77166 0.27299 0.56483
 H1462 H 0.72902 0.31280 0.63430
 C1463 C 0.72327 0.79237 1.07445
 C1464 C 0.71258 0.80363 1.09492
 C1465 C 0.68808 0.81424 1.09382
 C1466 C 0.67450 0.81429 1.07130
 C1467 C 0.68545 0.80285 1.05046
 C1468 C 0.70975 0.79136 1.05230
 C1469 C 0.67198 0.80392 1.02820
 N1470 N 0.64888 0.81536 1.02702
 N1471 N 0.63849 0.82598 1.04660
 C1472 C 0.65053 0.82595 1.06865
 H1473 H 0.74195 0.78374 1.07610
 H1474 H 0.72327 0.80359 1.11196
 H1475 H 0.67995 0.79627 1.01169
 H1476 H 0.64141 0.83532 1.08375
 C1477 C 0.20056 0.28910 1.05514
 C1478 C 0.18929 0.30085 1.07501
 C1479 C 0.20265 0.30362 1.09711
 C1480 C 0.22782 0.29389 1.09933
 C1481 C 0.23942 0.28211 1.07897
 C1482 C 0.22563 0.27998 1.05667
 C1483 C 0.26410 0.27199 1.08199
 N1484 N 0.27626 0.27375 1.10389
 N1485 N 0.26536 0.28474 1.12300
 C1486 C 0.24156 0.29473 1.12153
 H1487 H 0.18967 0.28729 1.03834
 H1488 H 0.16997 0.30799 1.07309
 H1489 H 0.27373 0.26238 1.06736
 H1490 H 0.23353 0.30287 1.13785
 C1491 C 0.18892 0.79337 0.55297
 C1492 C 0.17710 0.80445 0.57302
 C1493 C 0.19052 0.80797 0.59497
 C1494 C 0.21626 0.79975 0.59692
 C1495 C 0.22835 0.78855 0.57651
 C1496 C 0.21454 0.78565 0.55425
 C1497 C 0.25358 0.77970 0.57952
 N1498 N 0.26576 0.78221 0.60132
 N1499 N 0.25443 0.79280 0.62041
 C1500 C 0.23012 0.80155 0.61901
 H1501 H 0.17800 0.79087 0.53626
 H1502 H 0.15730 0.81033 0.57143
 H1503 H 0.26369 0.77042 0.56502
 H1504 H 0.22180 0.80950 0.63530
 C1505 C 0.30379 0.70357 0.55228
 C1506 C 0.31574 0.69136 0.57163
 C1507 C 0.30260 0.68684 0.59354
 C1508 C 0.27694 0.69511 0.59612
 C1509 C 0.26470 0.70744 0.57635
 C1510 C 0.27829 0.71145 0.55418
 C1511 C 0.23957 0.71628 0.57991
 N1512 N 0.22762 0.71274 0.60168
 N1513 N 0.23911 0.70114 0.62020
 C1514 C 0.26334 0.69231 0.61823
 H1515 H 0.31455 0.70687 0.53563
 H1516 H 0.33548 0.68546 0.56955
 H1517 H 0.22939 0.72633 0.56585
 H1518 H 0.27180 0.68352 0.63408
 C1519 C 0.27667 0.19778 1.06888
 C1520 C 0.28834 0.18635 1.08882
 C1521 C 0.31448 0.18034 1.08839
 C1522 C 0.32887 0.18500 1.06683
 C1523 C 0.31699 0.19684 1.04652
 C1524 C 0.29080 0.20376 1.04791
 C1525 C 0.33167 0.20078 1.02526
 N1526 N 0.35653 0.19346 1.02456
 N1527 N 0.36765 0.18233 1.04358
 C1528 C 0.35467 0.17776 1.06462
 H1529 H 0.25664 0.20294 1.07027
 H1530 H 0.27700 0.18286 1.10509
 H1531 H 0.32354 0.20913 1.00901
 H1532 H 0.36455 0.16817 1.07922
 C1533 C 0.80033 0.70680 1.05052
 C1534 C 0.81295 0.69483 1.06968
 C1535 C 0.80105 0.69172 1.09249
 C1536 C 0.77607 0.70141 1.09621
 C1537 C 0.76312 0.71338 1.07663
 C1538 C 0.77536 0.71580 1.05353
 C1539 C 0.73866 0.72341 1.08118
 N1540 N 0.72801 0.72139 1.10375
 N1541 N 0.74019 0.71023 1.12213
 C1542 C 0.76385 0.70030 1.11919
 H1543 H 0.81004 0.70884 1.03308
 H1544 H 0.83214 0.68780 1.06666
 H1545 H 0.72801 0.73316 1.06722
 H1546 H 0.77297 0.69201 1.13498
 C1547 C 0.81172 0.20528 0.55175
 C1548 C 0.82360 0.19342 0.57140
 C1549 C 0.81067 0.19004 0.59365
 C1550 C 0.78532 0.19920 0.59626
 C1551 C 0.77309 0.21098 0.57615
 C1552 C 0.78646 0.21384 0.55367
 C1553 C 0.74819 0.22044 0.57963
 N1554 N 0.73651 0.21819 0.60170
 N1555 N 0.74806 0.20728 0.62059
 C1556 C 0.77204 0.19784 0.61869
 H1557 H 0.82230 0.20768 0.53484
 H1558 H 0.84311 0.18687 0.56928
 H1559 H 0.73798 0.22998 0.56525
 H1560 H 0.78056 0.18972 0.63486
 C1561 C 0.69637 0.70520 0.44852
 C1562 C 0.68430 0.69345 0.42907
 C1563 C 0.69728 0.68928 0.40701
 C1564 C 0.72286 0.69759 0.40433
 C1565 C 0.73525 0.70936 0.42421
 C1566 C 0.72186 0.71292 0.44656
 C1567 C 0.76036 0.71806 0.42061
 N1568 N 0.77210 0.71502 0.39868
 N1569 N 0.76045 0.70402 0.38003
 C1570 C 0.73625 0.69531 0.38205
 H1571 H 0.68578 0.70816 0.46534
 H1572 H 0.66465 0.68747 0.43126
 H1573 H 0.77068 0.72764 0.43477
 H1574 H 0.72764 0.68706 0.36608
 C1575 C 0.69462 0.19743 -0.05272
 C1576 C 0.68328 0.18507 -0.07217
 C1577 C 0.69646 0.18171 -0.09426
 C1578 C 0.72160 0.19117 -0.09686
 C1579 C 0.73327 0.20355 -0.07695
 C1580 C 0.71956 0.20659 -0.05470
 C1581 C 0.75789 0.21346 -0.08048
 N1582 N 0.76987 0.21097 -0.10237
 N1583 N 0.75888 0.19943 -0.12105
 C1584 C 0.73516 0.18957 -0.11911
 H1585 H 0.68379 0.19994 -0.03596
 H1586 H 0.66393 0.17824 -0.07007
 H1587 H 0.76765 0.22353 -0.06630
 H1588 H 0.72708 0.18092 -0.13511
 C1589 C 0.23276 0.69686 -0.06671
 C1590 C 0.22064 0.68393 -0.08528
 C1591 C 0.19437 0.67879 -0.08411
 C1592 C 0.18044 0.68578 -0.06286
 C1593 C 0.19268 0.69965 -0.04422
 C1594 C 0.21894 0.70589 -0.04667
 C1595 C 0.17837 0.70597 -0.02330
 N1596 N 0.15359 0.69888 -0.02129
 N1597 N 0.14220 0.68570 -0.03863
 C1598 C 0.15479 0.67879 -0.05923
 H1599 H 0.25302 0.70051 -0.06853
 H1600 H 0.23182 0.67857 -0.10113
 H1601 H 0.18670 0.71596 -0.00825
 H1602 H 0.14476 0.66745 -0.07226
 C1603 C 0.22503 0.20350 0.42543
 C1604 C 0.21288 0.19148 0.40628
 C1605 C 0.18663 0.18625 0.40730
 C1606 C 0.17259 0.19255 0.42867
 C1607 C 0.18495 0.20516 0.44809
 C1608 C 0.21130 0.21114 0.44609
 C1609 C 0.17062 0.21055 0.46927
 N1610 N 0.14567 0.20387 0.47070
 N1611 N 0.13412 0.19200 0.45252
 C1612 C 0.14672 0.18601 0.43165
 H1613 H 0.24526 0.20738 0.42378
 H1614 H 0.22401 0.18668 0.39022
 H1615 H 0.17906 0.21956 0.48490
 H1616 H 0.13650 0.17582 0.41782
 C1617 C 0.30837 0.44177 0.70501
 C1618 C 0.31908 0.42180 0.69285
 C1619 C 0.30539 0.39993 0.69016
 C1620 C 0.28049 0.39804 0.70042
 C1621 C 0.26948 0.41847 0.71262
 C1622 C 0.28355 0.44056 0.71466
 C1623 C 0.24506 0.41573 0.72325
 N1624 N 0.23261 0.39406 0.72156
 N1625 N 0.24296 0.37489 0.71018
 C1626 C 0.26647 0.37608 0.69968
 H1627 H 0.31946 0.45842 0.70671
 H1628 H 0.33823 0.42344 0.68537
 H1629 H 0.23587 0.43040 0.73321
 H1630 H 0.27406 0.35971 0.69124
 C1631 C 0.30532 0.94693 0.20540
 C1632 C 0.31722 0.92754 0.19331
 C1633 C 0.30417 0.90557 0.18906
 C1634 C 0.27865 0.90297 0.19761
 C1635 C 0.26646 0.92278 0.20980
 C1636 C 0.27993 0.94502 0.21344
 C1637 C 0.24146 0.91924 0.21885
 N1638 N 0.22957 0.89746 0.21561
 N1639 N 0.24101 0.87890 0.20417
 C1640 C 0.26513 0.88085 0.19518
 H1641 H 0.31595 0.96368 0.20833
 H1642 H 0.33683 0.92970 0.18716
 H1643 H 0.23136 0.93335 0.22881
 H1644 H 0.27357 0.86495 0.18658
 C1645 C 0.77002 0.43123 0.20214
 C1646 C 0.78120 0.41157 0.18995
 C1647 C 0.80664 0.41270 0.18182
 C1648 C 0.82073 0.43461 0.18517
 C1649 C 0.80937 0.45461 0.19776
 C1650 C 0.78399 0.45256 0.20673
 C1651 C 0.82363 0.47626 0.20035
 N1652 N 0.84768 0.47760 0.19105
 N1653 N 0.85833 0.45885 0.17922
 C1654 C 0.84568 0.43747 0.17588
 H1655 H 0.75056 0.42943 0.20883
 H1656 H 0.77011 0.39501 0.18747
 H1657 H 0.81578 0.49227 0.20928
 H1658 H 0.85511 0.42309 0.16566
 C1659 C 0.78047 0.92767 0.70535
 C1660 C 0.79186 0.90775 0.69378
 C1661 C 0.81793 0.90799 0.68760
 C1662 C 0.83260 0.92924 0.69260
 C1663 C 0.82102 0.94950 0.70467
 C1664 C 0.79479 0.94843 0.71138
 C1665 C 0.83595 0.97049 0.70884
 N1666 N 0.86077 0.97099 0.70152
 N1667 N 0.87160 0.95205 0.69013
 C1668 C 0.85837 0.93129 0.68531
 H1669 H 0.76037 0.92659 0.71023
 H1670 H 0.78030 0.89174 0.69004
 H1671 H 0.82808 0.98666 0.71743
 H1672 H 0.86803 0.91680 0.67547
 C1673 C 0.72190 0.57285 0.70703
 C1674 C 0.71124 0.59229 0.69395
 C1675 C 0.68483 0.59345 0.68936
 C1676 C 0.66895 0.57416 0.69791
 C1677 C 0.67954 0.55517 0.71275
 C1678 C 0.70649 0.55429 0.71688
 C1679 C 0.66266 0.53746 0.72226
 N1680 N 0.63749 0.53791 0.71608
 N1681 N 0.62793 0.55486 0.70102
 C1682 C 0.64279 0.57286 0.69162
 H1683 H 0.74245 0.57264 0.71002
 H1684 H 0.72376 0.60679 0.68765
 H1685 H 0.66889 0.52328 0.73462
 H1686 H 0.63403 0.58572 0.67902
 C1687 C 0.72752 0.06928 0.20494
 C1688 C 0.71526 0.08826 0.19244
 C1689 C 0.68948 0.08634 0.18548
 C1690 C 0.67607 0.06432 0.19047
 C1691 C 0.68848 0.04508 0.20351
 C1692 C 0.71430 0.04788 0.21111
 C1693 C 0.67477 0.02337 0.20790
 N1694 N 0.65033 0.02120 0.19973
 N1695 N 0.63875 0.03917 0.18735
 C1696 C 0.65079 0.06057 0.18234
 H1697 H 0.74727 0.07167 0.21060
 H1698 H 0.72585 0.10490 0.18870
 H1699 H 0.68332 0.00794 0.21735
 H1700 H 0.64059 0.07424 0.17172
 C1701 C 0.22911 0.56933 0.20442
 C1702 C 0.21742 0.58889 0.19234
 C1703 C 0.19180 0.58755 0.18468
 C1704 C 0.17802 0.56551 0.18851
 C1705 C 0.18987 0.54564 0.20110
 C1706 C 0.21550 0.54786 0.20948
 C1707 C 0.17581 0.52392 0.20427
 N1708 N 0.15157 0.52235 0.19544
 N1709 N 0.14051 0.54093 0.18352
 C1710 C 0.15292 0.56238 0.17965
 H1711 H 0.24872 0.57131 0.21068
 H1712 H 0.22829 0.60553 0.18951
 H1713 H 0.18395 0.50802 0.21326
 H1714 H 0.14315 0.57657 0.16936
 C1715 C 0.22287 0.07198 0.70194
 C1716 C 0.21209 0.09227 0.69022
 C1717 C 0.18591 0.09294 0.68448
 C1718 C 0.17054 0.07220 0.68968
 C1719 C 0.18150 0.05164 0.70182
 C1720 C 0.20778 0.05181 0.70847
 C1721 C 0.16588 0.03122 0.70625
 N1722 N 0.14097 0.03146 0.69913
 N1723 N 0.13069 0.05072 0.68768
 C1724 C 0.14462 0.07102 0.68260
 H1725 H 0.24304 0.07237 0.70670
 H1726 H 0.22414 0.10789 0.68622
 H1727 H 0.17339 0.01496 0.71484
 H1728 H 0.13538 0.08583 0.67274
 C1729 C 0.30559 0.55249 0.29527
 C1730 C 0.31681 0.57241 0.30695
 C1731 C 0.30324 0.59439 0.31001
 C1732 C 0.27793 0.59647 0.30067
 C1733 C 0.26643 0.57612 0.28890
 C1734 C 0.28040 0.55389 0.28649
 C1735 C 0.24164 0.57913 0.27904
 N1736 N 0.22928 0.60092 0.28113
 N1737 N 0.24007 0.61998 0.29219
 C1738 C 0.26396 0.61856 0.30190
 H1739 H 0.31662 0.53575 0.29321
 H1740 H 0.33625 0.57064 0.31377
 H1741 H 0.23205 0.56458 0.26937
 H1742 H 0.27189 0.63484 0.31012
 C1743 C 0.28566 0.07313 0.76949
 C1744 C 0.29822 0.09228 0.78118
 C1745 C 0.30594 0.09017 0.80573
 C1746 C 0.30165 0.06784 0.81846
 C1747 C 0.28854 0.04844 0.80662
 C1748 C 0.28018 0.05140 0.78207
 C1749 C 0.28493 0.02640 0.81960
 N1750 N 0.29390 0.02407 0.84283
 N1751 N 0.30635 0.04219 0.85388
 C1752 C 0.31063 0.06391 0.84249
 H1753 H 0.27958 0.07552 0.75062
 H1754 H 0.30149 0.10913 0.77112
 H1755 H 0.27541 0.01089 0.81143
 H1756 H 0.32136 0.07771 0.85222
 C1757 C 0.78662 0.57208 0.77856
 C1758 C 0.79872 0.59106 0.79089
 C1759 C 0.80454 0.58907 0.81590
 C1760 C 0.79857 0.56704 0.82856
 C1761 C 0.78593 0.54777 0.81601
 C1762 C 0.77966 0.55056 0.79086
 C1763 C 0.78082 0.52598 0.82894
 N1764 N 0.78782 0.52380 0.85279
 N1765 N 0.79977 0.54181 0.86451
 C1766 C 0.80551 0.56325 0.85321
 H1767 H 0.78212 0.57444 0.75929
 H1768 H 0.80319 0.60768 0.78088
 H1769 H 0.77173 0.51050 0.82028
 H1770 H 0.81580 0.57692 0.86353
 C1771 C 0.80825 0.05489 0.29335
 C1772 C 0.81989 0.07486 0.30454
 C1773 C 0.80642 0.09684 0.30795
 C1774 C 0.78086 0.09895 0.29930
 C1775 C 0.76894 0.07858 0.28801
 C1776 C 0.78275 0.05628 0.28541
 C1777 C 0.74387 0.08158 0.27884
 N1778 N 0.73163 0.10341 0.28117
 N1779 N 0.74280 0.12250 0.29182
 C1780 C 0.76698 0.12107 0.30084
 H1781 H 0.81913 0.03808 0.29115
 H1782 H 0.83953 0.07309 0.31082
 H1783 H 0.73396 0.06701 0.26950
 H1784 H 0.77520 0.13737 0.30877
 C1785 C 0.69501 0.44613 0.29105
 C1786 C 0.68415 0.42593 0.30270
 C1787 C 0.69827 0.40430 0.30614
 C1788 C 0.72369 0.40277 0.29708
 C1789 C 0.73478 0.42334 0.28524
 C1790 C 0.72035 0.44531 0.28262
 C1791 C 0.75969 0.42082 0.27557
 N1792 N 0.77255 0.39931 0.27801
 N1793 N 0.76218 0.38007 0.28922
 C1794 C 0.73820 0.38101 0.29873
 H1795 H 0.68363 0.46265 0.28884
 H1796 H 0.66459 0.42722 0.30927
 H1797 H 0.76897 0.43550 0.26575
 H1798 H 0.73063 0.36462 0.30714
 C1799 C 0.73316 0.92727 0.79189
 C1800 C 0.72011 0.90875 0.80420
 C1801 C 0.69438 0.91180 0.81097
 C1802 C 0.68193 0.93446 0.80622
 C1803 C 0.69518 0.95328 0.79355
 C1804 C 0.72080 0.94928 0.78581
 C1805 C 0.68247 0.97578 0.78968
 N1806 N 0.65813 0.97896 0.79780
 N1807 N 0.64569 0.96127 0.80965
 C1808 C 0.65676 0.93919 0.81420
 H1809 H 0.75285 0.92409 0.78638
 H1810 H 0.72994 0.89158 0.80781
 H1811 H 0.69171 0.99101 0.78067
 H1812 H 0.64592 0.92573 0.82437
 C1813 C 0.23213 0.42796 0.79820
 C1814 C 0.22002 0.40917 0.81094
 C1815 C 0.19442 0.41151 0.81835
 C1816 C 0.18111 0.43377 0.81370
 C1817 C 0.19341 0.45289 0.80056
 C1818 C 0.21898 0.44962 0.79234
 C1819 C 0.17987 0.47493 0.79673
 N1820 N 0.15563 0.47745 0.80535
 N1821 N 0.14411 0.45953 0.81768
 C1822 C 0.15602 0.43786 0.82225
 H1823 H 0.25171 0.42522 0.79213
 H1824 H 0.23051 0.39233 0.81444
 H1825 H 0.18840 0.49035 0.78739
 H1826 H 0.14590 0.42423 0.83285
 C1827 C 0.22507 0.92805 0.29361
 C1828 C 0.21322 0.90861 0.30554
 C1829 C 0.18747 0.91015 0.31267
 C1830 C 0.17364 0.93220 0.30836
 C1831 C 0.18568 0.95198 0.29599
 C1832 C 0.21150 0.94961 0.28824
 C1833 C 0.17161 0.97378 0.29250
 N1834 N 0.14716 0.97547 0.30073
 N1835 N 0.13589 0.95695 0.31238
 C1836 C 0.14830 0.93546 0.31658
 H1837 H 0.24484 0.92598 0.28786
 H1838 H 0.22411 0.89195 0.30875
 H1839 H 0.17989 0.98966 0.28372
 H1840 H 0.13834 0.92131 0.32664
 C1841 C 0.42735 0.26919 0.70265
 C1842 C 0.40740 0.28135 0.69070
 C1843 C 0.40926 0.30629 0.68474
 C1844 C 0.43225 0.31897 0.69014
 C1845 C 0.45244 0.30667 0.70266
 C1846 C 0.44965 0.28167 0.70931
 C1847 C 0.47512 0.31969 0.70745
 N1848 N 0.47728 0.34336 0.70016
 N1849 N 0.45842 0.35484 0.68826
 C1850 C 0.43607 0.34346 0.68290
 H1851 H 0.42499 0.25006 0.70748
 H1852 H 0.39005 0.27131 0.68660
 H1853 H 0.49130 0.31124 0.71653
 H1854 H 0.42172 0.35356 0.67268
 C1855 C 0.42433 0.77547 0.20899
 C1856 C 0.40547 0.78813 0.19598
 C1857 C 0.40875 0.81280 0.18956
 C1858 C 0.43191 0.82475 0.19580
 C1859 C 0.45113 0.81186 0.20912
 C1860 C 0.44697 0.78713 0.21612
 C1861 C 0.47428 0.82400 0.21420
 N1862 N 0.47765 0.84748 0.20671
 N1863 N 0.45957 0.85958 0.19432
 C1864 C 0.43689 0.84902 0.18853
 H1865 H 0.42102 0.75649 0.21392
 H1866 H 0.38794 0.77869 0.19120
 H1867 H 0.48992 0.81502 0.22368
 H1868 H 0.42318 0.85959 0.17799
 C1869 C 0.92081 0.29187 0.22183
 C1870 C 0.90040 0.30372 0.21023
 C1871 C 0.90239 0.31149 0.18579
 C1872 C 0.92574 0.30787 0.17302
 C1873 C 0.94648 0.29578 0.18485
 C1874 C 0.94374 0.28736 0.20930
 C1875 C 0.96968 0.29331 0.17205
 N1876 N 0.97180 0.30203 0.14884
 N1877 N 0.95231 0.31328 0.13767
 C1878 C 0.92942 0.31661 0.14897
 H1879 H 0.91854 0.28580 0.24064
 H1880 H 0.88274 0.30656 0.22029
 H1881 H 0.98623 0.28500 0.18051
 H1882 H 0.91452 0.32638 0.13917
 C1883 C 0.92594 0.76689 0.71183
 C1884 C 0.90685 0.77962 0.69917
 C1885 C 0.91068 0.80383 0.69133
 C1886 C 0.93475 0.81508 0.69559
 C1887 C 0.95404 0.80223 0.70884
 C1888 C 0.94933 0.77809 0.71732
 C1889 C 0.97779 0.81380 0.71249
 N1890 N 0.98182 0.83662 0.70343
 N1891 N 0.96381 0.84858 0.69082
 C1892 C 0.94051 0.83857 0.68648
 H1893 H 0.92216 0.74837 0.71803
 H1894 H 0.88867 0.77067 0.69591
 H1895 H 0.99334 0.80483 0.72209
 H1896 H 0.92693 0.84895 0.67560
 C1897 C 0.55961 0.30470 0.28882
 C1898 C 0.58009 0.31625 0.30032
 C1899 C 0.60301 0.30360 0.30505
 C1900 C 0.60553 0.27888 0.29739
 C1901 C 0.58455 0.26703 0.28588
 C1902 C 0.56133 0.28007 0.28192
 C1903 C 0.58793 0.24273 0.27789
 N1904 N 0.61071 0.23118 0.28137
 N1905 N 0.63040 0.24231 0.29208
 C1906 C 0.62866 0.26575 0.30007
 H1907 H 0.54212 0.31499 0.28562
 H1908 H 0.57794 0.33520 0.30581
 H1909 H 0.57290 0.23289 0.26857
 H1910 H 0.64550 0.27395 0.30807
 C1911 C 0.55259 0.79853 0.79948
 C1912 C 0.57325 0.80924 0.81147
 C1913 C 0.59592 0.81472 0.79886
 C1914 C 0.59777 0.80909 0.77353
 C1915 C 0.57637 0.79896 0.76111
 C1916 C 0.55367 0.79347 0.77436
 C1917 C 0.57890 0.79372 0.73598
 N1918 N 0.60140 0.79791 0.72433
 N1919 N 0.62165 0.80680 0.73612
 C1920 C 0.62068 0.81237 0.76029
 H1921 H 0.53552 0.79423 0.80991
 H1922 H 0.57152 0.81328 0.83083
 H1923 H 0.56338 0.78619 0.72542
 H1924 H 0.63799 0.81887 0.76891
 C1925 C 0.07730 0.27903 0.79666
 C1926 C 0.09727 0.29061 0.80889
 C1927 C 0.09457 0.31474 0.81724
 C1928 C 0.07087 0.32715 0.81388
 C1929 C 0.05059 0.31541 0.80125
 C1930 C 0.05413 0.29131 0.79227
 C1931 C 0.02712 0.32798 0.79867
 N1932 N 0.02435 0.35080 0.80807
 N1933 N 0.04336 0.36181 0.81998
 C1934 C 0.06644 0.35076 0.82330
 H1935 H 0.08018 0.26054 0.79000
 H1936 H 0.11519 0.28082 0.81145
 H1937 H 0.01084 0.31981 0.78963
 H1938 H 0.08093 0.36041 0.83358
 C1939 C 0.07490 0.77382 0.28936
 C1940 C 0.09420 0.78596 0.30203
 C1941 C 0.09085 0.81025 0.30973
 C1942 C 0.06710 0.82224 0.30520
 C1943 C 0.04757 0.80996 0.29197
 C1944 C 0.05179 0.78568 0.28374
 C1945 C 0.02410 0.82220 0.28809
 N1946 N 0.02056 0.84515 0.29693
 N1947 N 0.03879 0.85660 0.30950
 C1948 C 0.06184 0.84592 0.31405
 H1949 H 0.07827 0.75517 0.28337
 H1950 H 0.11214 0.77646 0.30544
 H1951 H 0.00839 0.81366 0.27847
 H1952 H 0.07561 0.85592 0.32488
 C1953 C 0.57065 0.73181 0.69937
 C1954 C 0.59051 0.71925 0.68791
 C1955 C 0.58853 0.69418 0.68291
 C1956 C 0.56539 0.68180 0.68870
 C1957 C 0.54534 0.69454 0.70087
 C1958 C 0.54835 0.71965 0.70667
 C1959 C 0.52256 0.68185 0.70611
 N1960 N 0.52014 0.65804 0.69953
 N1961 N 0.53883 0.64615 0.68791
 C1962 C 0.56127 0.65721 0.68215
 H1963 H 0.57309 0.75106 0.70322
 H1964 H 0.60790 0.72910 0.68347
 H1965 H 0.50647 0.69068 0.71496
 H1966 H 0.57542 0.64678 0.67212
 C1967 C 0.57436 0.22228 0.20507
 C1968 C 0.59371 0.20971 0.19283
 C1969 C 0.59054 0.18519 0.18591
 C1970 C 0.56692 0.17337 0.19091
 C1971 C 0.54732 0.18611 0.20373
 C1972 C 0.55132 0.21068 0.21106
 C1973 C 0.52400 0.17401 0.20810
 N1974 N 0.52066 0.15075 0.20011
 N1975 N 0.53895 0.13886 0.18792
 C1976 C 0.56187 0.14938 0.18293
 H1977 H 0.57767 0.24108 0.21052
 H1978 H 0.61156 0.21908 0.18912
 H1979 H 0.50825 0.18290 0.21741
 H1980 H 0.57570 0.13900 0.17245
 C1981 C 0.07637 0.70670 0.22381
 C1982 C 0.09645 0.69449 0.21224
 C1983 C 0.09479 0.68806 0.18745
 C1984 C 0.07193 0.69335 0.17428
 C1985 C 0.05153 0.70598 0.18604
 C1986 C 0.05408 0.71304 0.21090
 C1987 C 0.02887 0.71037 0.17265
 N1988 N 0.02699 0.70273 0.14910
 N1989 N 0.04610 0.69086 0.13809
 C1990 C 0.06843 0.68583 0.14987
 H1991 H 0.07847 0.71176 0.24290
 H1992 H 0.11369 0.69043 0.22262
 H1993 H 0.01248 0.71941 0.18073
 H1994 H 0.08300 0.67565 0.14014
 C1995 C 0.05327 0.19937 0.71100
 C1996 C 0.07269 0.18709 0.69850
 C1997 C 0.09614 0.19855 0.69367
 C1998 C 0.10036 0.22269 0.70227
 C1999 C 0.08051 0.23528 0.71483
 C2000 C 0.05667 0.22353 0.71884
 C2001 C 0.08556 0.25896 0.72373
 N2002 N 0.10886 0.26924 0.72009
 N2003 N 0.12751 0.25741 0.70835
 C2004 C 0.12412 0.23449 0.69944
 H2005 H 0.03526 0.19009 0.71423
 H2006 H 0.06930 0.16855 0.69227
 H2007 H 0.07144 0.26929 0.73388
 H2008 H 0.14019 0.22564 0.69059
 C2009 C 0.42423 0.72523 0.29535
 C2010 C 0.40422 0.71316 0.30707
 C2011 C 0.40622 0.68826 0.31319
 C2012 C 0.42935 0.67549 0.30801
 C2013 C 0.44966 0.68776 0.29581
 C2014 C 0.44679 0.71275 0.28914
 C2015 C 0.47255 0.67473 0.29146
 N2016 N 0.47476 0.65105 0.29876
 N2017 N 0.45576 0.63958 0.31029
 C2018 C 0.43324 0.65099 0.31527
 H2019 H 0.42182 0.74439 0.29054
 H2020 H 0.38678 0.72326 0.31100
 H2021 H 0.48887 0.68319 0.28275
 H2022 H 0.41880 0.64089 0.32521
 C2023 C 0.42529 0.22289 0.78921
 C2024 C 0.40496 0.21104 0.80062
 C2025 C 0.40687 0.18632 0.80751
 C2026 C 0.43023 0.17354 0.80348
 C2027 C 0.45083 0.18553 0.79147
 C2028 C 0.44807 0.21032 0.78401
 C2029 C 0.47384 0.17244 0.78802
 N2030 N 0.47598 0.14901 0.79613
 N2031 N 0.45676 0.13785 0.80759
 C2032 C 0.43405 0.14931 0.81166
 H2033 H 0.42296 0.24188 0.78374
 H2034 H 0.38733 0.22115 0.80370
 H2035 H 0.49030 0.18068 0.77935
 H2036 H 0.41942 0.13947 0.82160
 C2037 C 0.92414 0.72077 0.79904
 C2038 C 0.90376 0.70938 0.81091
 C2039 C 0.90562 0.68492 0.81872
 C2040 C 0.92903 0.67202 0.81525
 C2041 C 0.94963 0.68351 0.80275
 C2042 C 0.94689 0.70797 0.79428
 C2043 C 0.97263 0.67029 0.79981
 N2044 N 0.97477 0.64721 0.80887
 N2045 N 0.95556 0.63653 0.82082
 C2046 C 0.93286 0.64815 0.82443
 H2047 H 0.92182 0.73953 0.79282
 H2048 H 0.88612 0.71960 0.81349
 H2049 H 0.98908 0.67816 0.79076
 H2050 H 0.91824 0.63875 0.83480
 C2051 C 0.92586 0.22818 0.28992
 C2052 C 0.90640 0.21615 0.30251
 C2053 C 0.90871 0.19128 0.30866
 C2054 C 0.93165 0.17854 0.30273
 C2055 C 0.95137 0.19075 0.28963
 C2056 C 0.94813 0.21567 0.28286
 C2057 C 0.97406 0.17772 0.28446
 N2058 N 0.97666 0.15410 0.29187
 N2059 N 0.95823 0.14269 0.30425
 C2060 C 0.93591 0.15410 0.31004
 H2061 H 0.92320 0.24729 0.28504
 H2062 H 0.88910 0.22622 0.30702
 H2063 H 0.98994 0.18613 0.27499
 H2064 H 0.92195 0.14406 0.32064
 C2065 C 0.28999 0.30558 0.55025
 C2066 C 0.30144 0.31736 0.57006
 C2067 C 0.30503 0.30511 0.59242
 C2068 C 0.29609 0.28074 0.59513
 C2069 C 0.28471 0.26867 0.57491
 C2070 C 0.28207 0.28117 0.55219
 C2071 C 0.27554 0.24467 0.57842
 N2072 N 0.27776 0.23367 0.60064
 N2073 N 0.28835 0.24504 0.61964
 C2074 C 0.29746 0.26818 0.61770
 H2075 H 0.28770 0.31546 0.53311
 H2076 H 0.30791 0.33607 0.56784
 H2077 H 0.26630 0.23463 0.56391
 H2078 H 0.30530 0.27662 0.63394
 C2079 C 0.30101 0.77744 0.06879
 C2080 C 0.31212 0.79012 0.08806
 C2081 C 0.31549 0.81557 0.08690
 C2082 C 0.30795 0.82831 0.06528
 C2083 C 0.29590 0.81538 0.04584
 C2084 C 0.29214 0.78973 0.04788
 C2085 C 0.28888 0.82849 0.02461
 N2086 N 0.29374 0.85282 0.02299
 N2087 N 0.30532 0.86487 0.04103
 C2088 C 0.31272 0.85345 0.06201
 H2089 H 0.29867 0.75785 0.07060
 H2090 H 0.31775 0.77993 0.10429
 H2091 H 0.28002 0.81961 0.00912
 H2092 H 0.32267 0.86408 0.07567
 C2093 C 0.80191 0.29557 0.04999
 C2094 C 0.81309 0.30778 0.06962
 C2095 C 0.79961 0.31125 0.09153
 C2096 C 0.77437 0.30199 0.09380
 C2097 C 0.76289 0.28967 0.07375
 C2098 C 0.77685 0.28663 0.05162
 C2099 C 0.73819 0.27986 0.07700
 N2100 N 0.72593 0.28247 0.09873
 N2101 N 0.73671 0.29404 0.11751
 C2102 C 0.76050 0.30378 0.11585
 H2103 H 0.81294 0.29303 0.03336
 H2104 H 0.83250 0.31451 0.06776
 H2105 H 0.72859 0.26979 0.06273
 H2106 H 0.76841 0.31249 0.13190
 C2107 C 0.81122 0.79362 0.55315
 C2108 C 0.82314 0.80494 0.57295
 C2109 C 0.80991 0.80886 0.59493
 C2110 C 0.78419 0.80080 0.59712
 C2111 C 0.77195 0.78947 0.57688
 C2112 C 0.78564 0.78609 0.55465
 C2113 C 0.74670 0.78097 0.58003
 N2114 N 0.73468 0.78379 0.60185
 N2115 N 0.74619 0.79436 0.62083
 C2116 C 0.77051 0.80285 0.61926
 H2117 H 0.82204 0.79079 0.53644
 H2118 H 0.84289 0.81072 0.57112
 H2119 H 0.73647 0.77171 0.56560
 H2120 H 0.77897 0.81075 0.63548
 C2121 C 0.26930 0.70503 0.42858
 C2122 C 0.28125 0.69308 0.40919
 C2123 C 0.30685 0.68534 0.41098
 C2124 C 0.32034 0.68893 0.43327
 C2125 C 0.30824 0.70141 0.45294
 C2126 C 0.28263 0.70985 0.45030
 C2127 C 0.32204 0.70439 0.47490
 N2128 N 0.34625 0.69546 0.47690
 N2129 N 0.35752 0.68360 0.45851
 C2130 C 0.34539 0.67993 0.43685
 H2131 H 0.24970 0.71132 0.42631
 H2132 H 0.27061 0.69040 0.39235
 H2133 H 0.31373 0.71335 0.49063
 H2134 H 0.35532 0.66968 0.42284
 C2135 C 0.30709 0.20104 0.94331
 C2136 C 0.31763 0.18946 0.92295
 C2137 C 0.30372 0.18748 0.90105
 C2138 C 0.27874 0.19779 0.89956
 C2139 C 0.26792 0.20939 0.92039
 C2140 C 0.28225 0.21078 0.94244
 C2141 C 0.24342 0.22011 0.91807
 N2142 N 0.23072 0.21906 0.89641
 N2143 N 0.24091 0.20823 0.87686
 C2144 C 0.26448 0.19769 0.87764
 H2145 H 0.31836 0.20225 0.95996
 H2146 H 0.33684 0.18193 0.92427
 H2147 H 0.23435 0.22963 0.93308
 H2148 H 0.27192 0.18971 0.86100
 C2149 C 0.79840 0.70500 0.94946
 C2150 C 0.81044 0.69278 0.93024
 C2151 C 0.79787 0.68935 0.90779
 C2152 C 0.77270 0.69881 0.90457
 C2153 C 0.76031 0.71096 0.92428
 C2154 C 0.77333 0.71389 0.94691
 C2155 C 0.73559 0.72068 0.92027
 N2156 N 0.72420 0.71829 0.89807
 N2157 N 0.73589 0.70705 0.87955
 C2158 C 0.75974 0.69737 0.88197
 H2159 H 0.80869 0.70744 0.96653
 H2160 H 0.82976 0.68589 0.93290
 H2161 H 0.72530 0.73042 0.93439
 H2162 H 0.76842 0.68903 0.86607
 C2163 C 0.77497 0.20648 0.42762
 C2164 C 0.78656 0.19459 0.40799
 C2165 C 0.81233 0.18726 0.40915
 C2166 C 0.82636 0.19112 0.43108
 C2167 C 0.81463 0.20352 0.45099
 C2168 C 0.78885 0.21167 0.44892
 C2169 C 0.82895 0.20672 0.47262
 N2170 N 0.85332 0.19809 0.47405
 N2171 N 0.86427 0.18634 0.45542
 C2172 C 0.85162 0.18245 0.43407
 H2173 H 0.75522 0.21247 0.42582
 H2174 H 0.77548 0.19167 0.39145
 H2175 H 0.82092 0.21557 0.48855
 H2176 H 0.86132 0.17228 0.41984
 C2177 C 0.73371 0.29604 0.42748
 C2178 C 0.72198 0.30757 0.40758
 C2179 C 0.69590 0.31386 0.40822
 C2180 C 0.68169 0.30947 0.42994
 C2181 C 0.69360 0.29755 0.45017
 C2182 C 0.71969 0.29026 0.44857
 C2183 C 0.67909 0.29394 0.47161
 N2184 N 0.65436 0.30163 0.47253
 N2185 N 0.64321 0.31284 0.45357
 C2186 C 0.65603 0.31712 0.43239
 H2187 H 0.75370 0.29075 0.42601
 H2188 H 0.73319 0.31093 0.39121
 H2189 H 0.68723 0.28553 0.48781
 H2190 H 0.64614 0.32681 0.41786
 C2191 C 0.72198 0.79765 0.92853
 C2192 C 0.71202 0.80943 0.90798
 C2193 C 0.68558 0.81298 0.90526
 C2194 C 0.66885 0.80488 0.92407
 C2195 C 0.67890 0.79213 0.94484
 C2196 C 0.70590 0.78853 0.94699
 C2197 C 0.66167 0.78400 0.96291
 N2198 N 0.63636 0.78877 0.96074
 N2199 N 0.62692 0.80154 0.94099
 C2200 C 0.64247 0.81002 0.92212
 H2201 H 0.74255 0.79501 0.92966
 H2202 H 0.72512 0.81544 0.89381
 H2203 H 0.66781 0.77404 0.97891
 H2204 H 0.62430 0.80790 0.93075
 C2205 C 0.23159 0.29478 0.93179
 C2206 C 0.21957 0.30781 0.91303
 C2207 C 0.19386 0.31505 0.91507
 C2208 C 0.18033 0.30990 0.93704
 C2209 C 0.19251 0.29635 0.95606
 C2210 C 0.21822 0.28836 0.95309
 C2211 C 0.17867 0.29186 0.97773
 N2212 N 0.15434 0.30035 0.98004
 N2213 N 0.14297 0.31317 0.96226
 C2214 C 0.15514 0.31833 0.94092
 H2215 H 0.25127 0.28888 0.92926
 H2216 H 0.23024 0.31166 0.89644
 H2217 H 0.18705 0.28207 0.99302
 H2218 H 0.14513 0.32930 0.92741
 C2219 C 0.19071 0.79499 0.44737
 C2220 C 0.17908 0.80691 0.42762
 C2221 C 0.19229 0.81035 0.40554
 C2222 C 0.21766 0.80117 0.40319
 C2223 C 0.22958 0.78919 0.42336
 C2224 C 0.21596 0.78636 0.44569
 C2225 C 0.25442 0.77952 0.42009
 N2226 N 0.26643 0.78198 0.39820
 N2227 N 0.25525 0.79321 0.37930
 C2228 C 0.23129 0.80276 0.38098
 H2229 H 0.17995 0.79260 0.46419
 H2230 H 0.15959 0.81355 0.42958
 H2231 H 0.26433 0.76972 0.43450
 H2232 H 0.22305 0.81114 0.36480
 C2233 C 0.69552 0.70381 0.55024
 C2234 C 0.68280 0.69228 0.56950
 C2235 C 0.69475 0.68906 0.59229
 C2236 C 0.72001 0.69794 0.59584
 C2237 C 0.73311 0.70936 0.57612
 C2238 C 0.72067 0.71218 0.55313
 C2239 C 0.75790 0.71853 0.58047
 N2240 N 0.76864 0.71638 0.60301
 N2241 N 0.75627 0.70584 0.62155
 C2242 C 0.73234 0.69668 0.61880
 H2243 H 0.68567 0.70621 0.53290
 H2244 H 0.66340 0.68588 0.56663
 H2245 H 0.76874 0.72775 0.56638
 H2246 H 0.72312 0.68887 0.63471
 C2247 C 0.69234 0.19957 0.04947
 C2248 C 0.68049 0.18757 0.06894
 C2249 C 0.69295 0.18494 0.09155
 C2250 C 0.71774 0.19503 0.09475
 C2251 C 0.72992 0.20707 0.07486
 C2252 C 0.71708 0.20910 0.05198
 C2253 C 0.75416 0.21758 0.07894
 N2254 N 0.76532 0.21594 0.10133
 N2255 N 0.75388 0.20466 0.11998
 C2256 C 0.73048 0.19426 0.11751
 H2257 H 0.68216 0.20135 0.03222
 H2258 H 0.66141 0.18023 0.06636
 H2259 H 0.76423 0.22745 0.06477
 H2260 H 0.72196 0.18585 0.13348
 C2261 C 0.19854 0.70871 0.05488
 C2262 C 0.18642 0.69693 0.07431
 C2263 C 0.20003 0.69038 0.09551
 C2264 C 0.22644 0.69630 0.09727
 C2265 C 0.23899 0.70773 0.07718
 C2266 C 0.22480 0.71394 0.05578
 C2267 C 0.26516 0.71338 0.07969
 N2268 N 0.27768 0.70822 0.10088
 N2269 N 0.26579 0.69795 0.11985
 C2270 C 0.24063 0.69196 0.11885
 H2271 H 0.18735 0.71351 0.03882
 H2272 H 0.16620 0.69274 0.07273
 H2273 H 0.27584 0.72207 0.06522
 H2274 H 0.23196 0.68429 0.13510
 C2275 C 0.20575 0.22532 0.56995
 C2276 C 0.19388 0.21385 0.58967
 C2277 C 0.18484 0.18977 0.58775
 C2278 C 0.18725 0.17729 0.56508
 C2279 C 0.19978 0.18887 0.54509
 C2280 C 0.20931 0.21296 0.54780
 C2281 C 0.20170 0.17615 0.52279
 N2282 N 0.19157 0.15342 0.52072
 N2283 N 0.17958 0.14264 0.53937
 C2284 C 0.17696 0.15380 0.56140
 H2285 H 0.21291 0.24379 0.57224
 H2286 H 0.19217 0.22373 0.60679
 H2287 H 0.21079 0.18417 0.50688
 H2288 H 0.16653 0.14435 0.57566
   
