data_POSCAR
  _audit_creation_date              2014-09-24
  _audit_creation_method            'ToBaCCo'
  _symmetry_space_group_name_H-M    'P1'
  _symmetry_Int_Tables_number       1
  _symmetry_cell_setting            triclinic
  loop_
  _symmetry_equiv_pos_as_xyz
 x,y,z
_cell_length_a 63.7299
_cell_length_b 63.8894
_cell_length_c 63.1707
_cell_angle_alpha 89.845300
_cell_angle_beta 89.960100
_cell_angle_gamma 89.947000
loop_
  _atom_site_label
  _atom_site_type_symbol
  _atom_site_fract_x
  _atom_site_fract_y
  _atom_site_fract_z
N1 N 0.37223 0.31113 0.32467
 N2 N 0.37275 0.32720 0.31161
 C3 C 0.38943 0.32531 0.29864
 C4 C 0.39960 0.30706 0.30386
 C5 C 0.38848 0.29829 0.32039
 H6 H 0.39390 0.33631 0.28640
 H7 H 0.39214 0.28403 0.32890
 Cu8 Cu 0.35144 0.34883 0.31248
 Cu9 Cu 0.35113 0.30891 0.34688
 Cu10 Cu 0.31385 0.34868 0.34987
 N11 N 0.33023 0.37051 0.31362
 N12 N 0.31550 0.37066 0.32826
 C13 C 0.30269 0.38719 0.32484
 C14 C 0.31006 0.39762 0.30713
 C15 C 0.32737 0.38678 0.30039
 H16 H 0.28903 0.39106 0.33423
 H17 H 0.33694 0.39041 0.28672
 N18 N 0.31493 0.32490 0.37004
 N19 N 0.32871 0.30948 0.36833
 C20 C 0.32521 0.29534 0.38378
 C21 C 0.30866 0.30232 0.39574
 C22 C 0.30237 0.32106 0.38683
 H23 H 0.33419 0.28121 0.38638
 H24 H 0.28966 0.33100 0.39209
 H25 H 0.32766 0.32580 0.33178
 H26 H 0.34529 0.34081 0.34974
 N27 N 0.37261 0.81526 -0.17085
 N28 N 0.37511 0.83152 -0.18343
 C29 C 0.39032 0.82724 -0.19757
 C30 C 0.39776 0.80735 -0.19364
 C31 C 0.38602 0.79998 -0.17679
 H32 H 0.39378 0.83670 -0.21135
 H33 H 0.38565 0.78407 -0.17089
 Cu34 Cu 0.35526 0.85479 -0.18406
 Cu35 Cu 0.34930 0.81396 -0.15080
 Cu36 Cu 0.31339 0.85460 -0.15129
 N37 N 0.33318 0.87584 -0.18598
 N38 N 0.31666 0.87561 -0.17349
 C39 C 0.30252 0.88974 -0.18059
 C40 C 0.31095 0.89952 -0.19817
 C41 C 0.33019 0.89019 -0.20133
 H42 H 0.28665 0.89129 -0.17472
 H43 H 0.34010 0.89199 -0.21512
 N44 N 0.31271 0.83184 -0.13011
 N45 N 0.32662 0.81647 -0.12956
 C46 C 0.32193 0.80353 -0.11329
 C47 C 0.30412 0.81119 -0.10353
 C48 C 0.29863 0.82900 -0.11445
 H49 H 0.33054 0.78953 -0.10908
 H50 H 0.28538 0.83907 -0.11120
 H51 H 0.32864 0.83204 -0.16860
 H52 H 0.34469 0.84580 -0.14814
 N53 N 0.86955 0.31611 -0.17541
 N54 N 0.86864 0.33083 -0.19006
 C55 C 0.88404 0.32768 -0.20433
 C56 C 0.89508 0.31020 -0.19817
 C57 C 0.88567 0.30313 -0.17979
 H58 H 0.88725 0.33748 -0.21792
 H59 H 0.89020 0.28972 -0.17035
 Cu60 Cu 0.84801 0.35326 -0.18855
 Cu61 Cu 0.84974 0.31488 -0.15168
 Cu62 Cu 0.81352 0.35527 -0.14924
 N63 N 0.82731 0.37575 -0.18702
 N64 N 0.81484 0.37724 -0.17050
 C65 C 0.80049 0.39225 -0.17407
 C66 C 0.80411 0.40061 -0.19383
 C67 C 0.82108 0.38970 -0.20184
 H68 H 0.78666 0.39479 -0.16448
 H69 H 0.82682 0.39021 -0.21795
 N70 N 0.81508 0.33311 -0.12778
 N71 N 0.82814 0.31705 -0.12912
 C72 C 0.82403 0.30361 -0.11307
 C73 C 0.80780 0.31200 -0.10131
 C74 C 0.80257 0.33057 -0.11081
 H75 H 0.83214 0.28901 -0.11020
 H76 H 0.79018 0.34109 -0.10599
 H77 H 0.82640 0.33041 -0.16676
 H78 H 0.84502 0.34634 -0.15078
 N79 N 0.87141 0.81328 0.32983
 N80 N 0.87191 0.82685 0.31409
 C81 C 0.88822 0.82217 0.30129
 C82 C 0.89825 0.80489 0.30974
 C83 C 0.88739 0.79965 0.32776
 H84 H 0.89264 0.83078 0.28722
 H85 H 0.89083 0.78692 0.33852
 Cu86 Cu 0.85149 0.84962 0.31235
 Cu87 Cu 0.85008 0.81381 0.35185
 Cu88 Cu 0.81451 0.85449 0.34957
 N89 N 0.83173 0.87310 0.31221
 N90 N 0.81823 0.87561 0.32776
 C91 C 0.80482 0.89110 0.32276
 C92 C 0.81009 0.89866 0.30306
 C93 C 0.82708 0.88681 0.29660
 H94 H 0.79048 0.89449 0.33128
 H95 H 0.83386 0.88653 0.28090
 N96 N 0.81411 0.83337 0.37219
 N97 N 0.82720 0.81730 0.37258
 C98 C 0.82214 0.80470 0.38896
 C99 C 0.80524 0.81355 0.39922
 C100 C 0.80053 0.83163 0.38844
 H101 H 0.83010 0.79031 0.39311
 H102 H 0.78790 0.84239 0.39194
 H103 H 0.82787 0.82870 0.33421
 H104 H 0.84578 0.84552 0.35022
 N105 N 0.62947 0.68971 0.33004
 N106 N 0.62912 0.67700 0.31368
 C107 C 0.61255 0.68184 0.30134
 C108 C 0.60219 0.69837 0.31069
 C109 C 0.61312 0.70302 0.32882
 H110 H 0.60821 0.67384 0.28694
 H111 H 0.60949 0.71512 0.34019
 Cu112 Cu 0.64987 0.65493 0.31016
 Cu113 Cu 0.65115 0.68828 0.35158
 Cu114 Cu 0.68630 0.64724 0.34813
 N115 N 0.66940 0.63153 0.30919
 N116 N 0.68315 0.62833 0.32441
 C117 C 0.69453 0.61115 0.31998
 C118 C 0.68748 0.60336 0.30096
 C119 C 0.67161 0.61648 0.29441
 H120 H 0.70717 0.60505 0.32959
 H121 H 0.66243 0.61516 0.28008
 N122 N 0.68720 0.66805 0.37090
 N123 N 0.67420 0.68415 0.37184
 C124 C 0.67945 0.69622 0.38848
 C125 C 0.69641 0.68701 0.39833
 C126 C 0.70096 0.66925 0.38704
 H127 H 0.67155 0.71048 0.39311
 H128 H 0.71353 0.65828 0.39014
 H129 H 0.67380 0.67361 0.33358
 H130 H 0.65502 0.65640 0.34834
 N131 N 0.62994 0.18465 -0.17340
 N132 N 0.62997 0.16969 -0.18774
 C133 C 0.61434 0.17313 -0.20167
 C134 C 0.60394 0.19097 -0.19554
 C135 C 0.61405 0.19802 -0.17757
 H136 H 0.61058 0.16330 -0.21504
 H137 H 0.61022 0.21174 -0.16833
 Cu138 Cu 0.65021 0.14698 -0.18639
 Cu139 Cu 0.65074 0.18568 -0.15049
 Cu140 Cu 0.68642 0.14444 -0.14853
 N141 N 0.67121 0.12484 -0.18646
 N142 N 0.68473 0.12346 -0.17079
 C143 C 0.69899 0.10861 -0.17531
 C144 C 0.69413 0.10024 -0.19475
 C145 C 0.67665 0.11107 -0.20168
 H146 H 0.71330 0.10599 -0.16649
 H147 H 0.66980 0.11048 -0.21734
 N148 N 0.68595 0.16720 -0.12760
 N149 N 0.67307 0.18343 -0.12863
 C150 C 0.67775 0.19678 -0.11272
 C151 C 0.69420 0.18820 -0.10138
 C152 C 0.69897 0.16960 -0.11103
 H153 H 0.66976 0.21138 -0.10956
 H154 H 0.71125 0.15883 -0.10645
 H155 H 0.67374 0.16912 -0.16600
 H156 H 0.65532 0.15415 -0.14882
 N157 N 0.12716 0.68553 -0.17466
 N158 N 0.12875 0.67133 -0.18963
 C159 C 0.11333 0.67427 -0.20391
 C160 C 0.10152 0.69101 -0.19729
 C161 C 0.11051 0.69792 -0.17872
 H162 H 0.11081 0.66498 -0.21796
 H163 H 0.10557 0.71104 -0.16914
 Cu164 Cu 0.15086 0.65054 -0.18886
 Cu165 Cu 0.14745 0.68737 -0.15168
 Cu166 Cu 0.18858 0.65134 -0.15186
 N167 N 0.17320 0.63002 -0.18880
 N168 N 0.18837 0.63054 -0.17465
 C169 C 0.20180 0.61460 -0.17842
 C170 C 0.19432 0.60378 -0.19577
 C171 C 0.17628 0.61377 -0.20193
 H172 H 0.21550 0.61092 -0.16902
 H173 H 0.16614 0.60936 -0.21489
 N174 N 0.18560 0.67358 -0.13021
 N175 N 0.16958 0.68679 -0.12994
 C176 C 0.17147 0.69960 -0.11318
 C177 C 0.18951 0.69430 -0.10263
 C178 C 0.19826 0.67780 -0.11362
 H179 H 0.16069 0.71200 -0.10902
 H180 H 0.21254 0.66948 -0.10974
 H181 H 0.17242 0.67429 -0.16807
 H182 H 0.15668 0.65623 -0.15119
 N183 N 0.12958 0.18884 0.33050
 N184 N 0.12878 0.17540 0.31476
 C185 C 0.11234 0.18016 0.30222
 C186 C 0.10245 0.19738 0.31079
 C187 C 0.11356 0.20252 0.32870
 H188 H 0.10778 0.17169 0.28816
 H189 H 0.11036 0.21527 0.33945
 Cu190 Cu 0.14905 0.15272 0.31246
 Cu191 Cu 0.15171 0.18803 0.35173
 Cu192 Cu 0.18811 0.14780 0.34794
 N193 N 0.16901 0.12972 0.31111
 N194 N 0.18462 0.12821 0.32468
 C195 C 0.19640 0.11136 0.31986
 C196 C 0.18743 0.10189 0.30249
 C197 C 0.17011 0.11369 0.29731
 H198 H 0.21017 0.10627 0.32844
 H199 H 0.15930 0.11088 0.28445
 N200 N 0.18898 0.16915 0.37034
 N201 N 0.17526 0.18464 0.37165
 C202 C 0.18024 0.19682 0.38830
 C203 C 0.19778 0.18836 0.39778
 C204 C 0.20296 0.17090 0.38625
 H205 H 0.17173 0.21061 0.39325
 H206 H 0.21594 0.16038 0.38918
 H207 H 0.17393 0.17305 0.33332
 H208 H 0.15682 0.15605 0.35009
 N209 N 0.62971 0.31272 0.66932
 N210 N 0.62890 0.32621 0.68503
 C211 C 0.61234 0.32159 0.69748
 C212 C 0.60242 0.30442 0.68887
 C213 C 0.61363 0.29916 0.67106
 H214 H 0.60778 0.33004 0.71156
 H215 H 0.61050 0.28634 0.66038
 Cu216 Cu 0.64940 0.34865 0.68752
 Cu217 Cu 0.65198 0.31316 0.64827
 Cu218 Cu 0.68881 0.35282 0.65233
 N219 N 0.66955 0.37152 0.68880
 N220 N 0.68525 0.37270 0.67530
 C221 C 0.69703 0.38959 0.67982
 C222 C 0.68800 0.39946 0.69693
 C223 C 0.67061 0.38782 0.70229
 H224 H 0.71084 0.39447 0.67117
 H225 H 0.65969 0.39095 0.71500
 N226 N 0.68979 0.33132 0.63011
 N227 N 0.67574 0.31618 0.62857
 C228 C 0.68065 0.30395 0.61194
 C229 C 0.69854 0.31198 0.60275
 C230 C 0.70398 0.32925 0.61443
 H231 H 0.67191 0.29038 0.60684
 H232 H 0.71722 0.33946 0.61168
 H233 H 0.67404 0.32770 0.66690
 H234 H 0.65732 0.34496 0.64995
 N235 N 0.62777 0.81602 1.17562
 N236 N 0.62938 0.83030 1.19050
 C237 C 0.61386 0.82757 1.20473
 C238 C 0.60200 0.81086 1.19818
 C239 C 0.61103 0.80378 1.17968
 H240 H 0.61131 0.83697 1.21871
 H241 H 0.60606 0.79065 1.17017
 Cu242 Cu 0.65148 0.85114 1.18962
 Cu243 Cu 0.64813 0.81381 1.15281
 Cu244 Cu 0.68923 0.84965 1.15234
 N245 N 0.67372 0.87177 1.18876
 N246 N 0.68891 0.87098 1.17462
 C247 C 0.70211 0.88722 1.17784
 C248 C 0.69443 0.89853 1.19481
 C249 C 0.67653 0.88851 1.20129
 H250 H 0.71575 0.89078 1.16830
 H251 H 0.66629 0.89323 1.21407
 N252 N 0.68635 0.82693 1.13117
 N253 N 0.67026 0.81385 1.13112
 C254 C 0.67211 0.80069 1.11463
 C255 C 0.69020 0.80562 1.10400
 C256 C 0.69903 0.82228 1.11467
 H257 H 0.66124 0.78832 1.11069
 H258 H 0.71334 0.83044 1.11063
 H259 H 0.67311 0.82711 1.16910
 H260 H 0.65735 0.84504 1.15201
 N261 N 0.12717 0.31582 1.17537
 N262 N 0.13026 0.32948 1.19062
 C263 C 0.11498 0.32731 1.20529
 C264 C 0.10182 0.31155 1.19863
 C265 C 0.10986 0.30455 1.17966
 H266 H 0.11352 0.33644 1.21960
 H267 H 0.10378 0.29203 1.16995
 Cu268 Cu 0.15382 0.34893 1.18974
 Cu269 Cu 0.14628 0.31283 1.15159
 Cu270 Cu 0.18783 0.34743 1.14871
 N271 N 0.17638 0.36933 1.18672
 N272 N 0.18947 0.36873 1.17059
 C273 C 0.20309 0.38476 1.17206
 C274 C 0.19825 0.39582 1.19005
 C275 C 0.18127 0.38580 1.19911
 H276 H 0.21546 0.38820 1.16086
 H277 H 0.17300 0.39032 1.21334
 N278 N 0.18355 0.32481 1.12801
 N279 N 0.16728 0.31202 1.12876
 C280 C 0.16835 0.29863 1.11233
 C281 C 0.18622 0.30318 1.10103
 C282 C 0.19561 0.31977 1.11122
 H283 H 0.15720 0.28633 1.10900
 H284 H 0.20997 0.32759 1.10669
 H285 H 0.17263 0.32489 1.16643
 H286 H 0.15578 0.34386 1.15154
 N287 N 0.13005 0.81247 0.67181
 N288 N 0.12981 0.82642 0.68716
 C289 C 0.11347 0.82228 0.70017
 C290 C 0.10322 0.80491 0.69225
 C291 C 0.11394 0.79913 0.67436
 H292 H 0.10912 0.83138 0.71390
 H293 H 0.11018 0.78632 0.66388
 Cu294 Cu 0.15036 0.84917 0.68743
 Cu295 Cu 0.15085 0.81233 0.64927
 Cu296 Cu 0.18696 0.85260 0.64944
 N297 N 0.17144 0.87145 0.68773
 N298 N 0.18519 0.87271 0.67220
 C299 C 0.19746 0.88951 0.67499
 C300 C 0.19124 0.89920 0.69322
 C301 C 0.17468 0.88758 0.70119
 H302 H 0.21002 0.89436 0.66456
 H303 H 0.16556 0.89080 0.71526
 N304 N 0.18656 0.83083 0.62771
 N305 N 0.17320 0.81503 0.62786
 C306 C 0.17769 0.80220 0.61153
 C307 C 0.19455 0.81068 0.60083
 C308 C 0.19977 0.82871 0.61124
 H309 H 0.16941 0.78794 0.60772
 H310 H 0.21246 0.83923 0.60729
 H311 H 0.17366 0.82776 0.66594
 H312 H 0.15552 0.84408 0.64953
 N313 N 0.37139 0.68429 0.67707
 N314 N 0.36933 0.66893 0.69086
 C315 C 0.38480 0.67023 0.70536
 C316 C 0.39716 0.68709 0.70002
 C317 C 0.38839 0.69573 0.68206
 H318 H 0.38698 0.65974 0.71864
 H319 H 0.39378 0.70938 0.67349
 Cu320 Cu 0.34656 0.64888 0.68821
 Cu321 Cu 0.35159 0.68878 0.65402
 Cu322 Cu 0.31060 0.65325 0.64976
 N323 N 0.32379 0.62884 0.68561
 N324 N 0.30940 0.63098 0.67080
 C325 C 0.29514 0.61553 0.67274
 C326 C 0.30115 0.60315 0.68952
 C327 C 0.31932 0.61184 0.69742
 H328 H 0.28166 0.61334 0.66261
 H329 H 0.32842 0.60627 0.71073
 N330 N 0.31457 0.67682 0.63004
 N331 N 0.32993 0.69061 0.63182
 C332 C 0.32817 0.70492 0.61618
 C333 C 0.31107 0.69959 0.60410
 C334 C 0.30275 0.68179 0.61311
 H335 H 0.33864 0.71799 0.61359
 H336 H 0.28915 0.67321 0.60775
 H337 H 0.32618 0.67465 0.66850
 H338 H 0.34262 0.65791 0.65094
 N339 N 0.37310 0.18570 1.17315
 N340 N 0.37306 0.16973 1.18636
 C341 C 0.38923 0.17157 1.19989
 C342 C 0.39973 0.18966 1.19487
 C343 C 0.38930 0.19842 1.17787
 H344 H 0.39309 0.16071 1.21246
 H345 H 0.39329 0.21265 1.16948
 Cu346 Cu 0.35151 0.14854 1.18463
 Cu347 Cu 0.35219 0.18834 1.15072
 Cu348 Cu 0.31188 0.15131 1.15007
 N349 N 0.32920 0.12812 1.18516
 N350 N 0.31321 0.12939 1.17199
 C351 C 0.29982 0.11348 1.17609
 C352 C 0.30823 0.10195 1.19262
 C353 C 0.32670 0.11148 1.19796
 H354 H 0.28546 0.11039 1.16756
 H355 H 0.33744 0.10660 1.21027
 N356 N 0.31393 0.17473 1.12935
 N357 N 0.32961 0.18832 1.12942
 C358 C 0.32745 0.20152 1.11293
 C359 C 0.30957 0.19613 1.10222
 C360 C 0.30119 0.17914 1.11282
 H361 H 0.33813 0.21405 1.10888
 H362 H 0.28729 0.17043 1.10855
 H363 H 0.32830 0.17326 1.16703
 H364 H 0.34354 0.15708 1.14797
 N365 N 0.87295 0.68523 1.17642
 N366 N 0.87017 0.67119 1.19147
 C367 C 0.88542 0.67335 1.20612
 C368 C 0.89824 0.68948 1.19961
 C369 C 0.89005 0.69672 1.18080
 H370 H 0.88718 0.66389 1.22022
 H371 H 0.89593 0.70946 1.17118
 Cu372 Cu 0.84720 0.65124 1.18956
 Cu373 Cu 0.85392 0.68830 1.15254
 Cu374 Cu 0.81271 0.65303 1.14957
 N375 N 0.82444 0.63106 1.18763
 N376 N 0.81131 0.63169 1.17153
 C377 C 0.79774 0.61565 1.17305
 C378 C 0.80260 0.60462 1.19106
 C379 C 0.81958 0.61458 1.20009
 H380 H 0.78542 0.61218 1.16183
 H381 H 0.82794 0.60993 1.21423
 N382 N 0.81688 0.67579 1.12894
 N383 N 0.83290 0.68890 1.12974
 C384 C 0.83153 0.70247 1.11344
 C385 C 0.81375 0.69767 1.10219
 C386 C 0.80471 0.68077 1.11224
 H387 H 0.84238 0.71508 1.11019
 H388 H 0.79045 0.67280 1.10774
 H389 H 0.82789 0.67555 1.16714
 H390 H 0.84473 0.65732 1.15154
 N391 N 0.86934 0.18689 0.67437
 N392 N 0.86908 0.17226 0.68911
 C393 C 0.88469 0.17572 0.70297
 C394 C 0.89534 0.19319 0.69645
 C395 C 0.88543 0.20011 0.67824
 H396 H 0.88826 0.16616 0.71664
 H397 H 0.88947 0.21360 0.66870
 Cu398 Cu 0.84875 0.14979 0.68872
 Cu399 Cu 0.84832 0.18754 0.65165
 Cu400 Cu 0.81103 0.14759 0.65234
 N401 N 0.82810 0.12757 0.68921
 N402 N 0.81290 0.12699 0.67513
 C403 C 0.80051 0.11034 0.67913
 C404 C 0.80869 0.10011 0.69656
 C405 C 0.82610 0.11124 0.70257
 H406 H 0.78693 0.10587 0.66995
 H407 H 0.83642 0.10769 0.71567
 N408 N 0.81167 0.16974 0.63057
 N409 N 0.82558 0.18513 0.63030
 C410 C 0.82146 0.19777 0.61360
 C411 C 0.80430 0.18965 0.60311
 C412 C 0.79853 0.17201 0.61406
 H413 H 0.83029 0.21160 0.60934
 H414 H 0.78565 0.16168 0.61026
 H415 H 0.82532 0.17223 0.66834
 H416 H 0.84255 0.15597 0.65115
 N417 N 0.31222 0.37012 0.67004
 N418 N 0.32575 0.37098 0.68575
 C419 C 0.32105 0.38748 0.69815
 C420 C 0.30379 0.39733 0.68949
 C421 C 0.29856 0.38614 0.67170
 H422 H 0.32958 0.39211 0.71217
 H423 H 0.28575 0.38929 0.66093
 Cu424 Cu 0.34844 0.35072 0.68820
 Cu425 Cu 0.31292 0.34796 0.64901
 Cu426 Cu 0.35334 0.31174 0.65280
 N427 N 0.37149 0.33079 0.68963
 N428 N 0.37306 0.31525 0.67606
 C429 C 0.38999 0.30355 0.68092
 C430 C 0.39945 0.31249 0.69831
 C431 C 0.38756 0.32971 0.70346
 H432 H 0.39514 0.28984 0.67235
 H433 H 0.39034 0.34049 0.71632
 N434 N 0.33184 0.31084 0.63042
 N435 N 0.31620 0.32440 0.62927
 C436 C 0.30383 0.31940 0.61275
 C437 C 0.31234 0.30202 0.60315
 C438 C 0.33005 0.29696 0.61448
 H439 H 0.28992 0.32784 0.60791
 H440 H 0.34067 0.28412 0.61141
 H441 H 0.32806 0.32584 0.66745
 H442 H 0.34499 0.34295 0.65061
 N443 N 0.31187 0.87243 0.16673
 N444 N 0.32483 0.87315 0.18294
 C445 C 0.32018 0.89001 0.19488
 C446 C 0.30358 0.90022 0.18535
 C447 C 0.29868 0.88887 0.16759
 H448 H 0.32812 0.89445 0.20930
 H449 H 0.28615 0.89202 0.15648
 Cu450 Cu 0.34642 0.85193 0.18683
 Cu451 Cu 0.31193 0.84946 0.14657
 Cu452 Cu 0.34938 0.81079 0.15385
 N453 N 0.36846 0.83098 0.18958
 N454 N 0.36908 0.81462 0.17697
 C455 C 0.38557 0.80250 0.18220
 C456 C 0.39574 0.81195 0.19887
 C457 C 0.38471 0.82998 0.20322
 H458 H 0.39009 0.78825 0.17420
 H459 H 0.38831 0.84144 0.21524
 N460 N 0.32821 0.80976 0.13124
 N461 N 0.31438 0.82486 0.12799
 C462 C 0.30259 0.82000 0.11099
 C463 C 0.30941 0.80092 0.10350
 C464 C 0.32554 0.79477 0.11652
 H465 H 0.28997 0.82945 0.10467
 H466 H 0.33476 0.78062 0.11516
 H467 H 0.32474 0.82754 0.16683
 H468 H 0.34343 0.84236 0.14963
 N469 N 0.81246 0.37261 0.17457
 N470 N 0.82913 0.37329 0.18685
 C471 C 0.82769 0.38988 0.19984
 C472 C 0.80918 0.39997 0.19541
 C473 C 0.79971 0.38881 0.17934
 H474 H 0.83919 0.39437 0.21155
 H475 H 0.78503 0.39234 0.17154
 Cu476 Cu 0.85087 0.35227 0.18448
 Cu477 Cu 0.80925 0.35113 0.15277
 Cu478 Cu 0.84802 0.31248 0.15051
 N479 N 0.87132 0.32991 0.18533
 N480 N 0.87019 0.31406 0.17208
 C481 C 0.88596 0.30053 0.17634
 C482 C 0.89727 0.30863 0.19311
 C483 C 0.88774 0.32715 0.19841
 H484 H 0.88897 0.28613 0.16790
 H485 H 0.89237 0.33767 0.21094
 N486 N 0.82408 0.31391 0.13043
 N487 N 0.80905 0.32818 0.13183
 C488 C 0.79496 0.32498 0.11628
 C489 C 0.80157 0.30815 0.10456
 C490 C 0.82005 0.30139 0.11373
 H491 H 0.78120 0.33447 0.11334
 H492 H 0.82977 0.28848 0.10859
 H493 H 0.82613 0.32815 0.16845
 H494 H 0.84062 0.34388 0.14838
 N495 N 0.81107 0.87119 0.66923
 N496 N 0.82451 0.87208 0.68503
 C497 C 0.81963 0.88851 0.69747
 C498 C 0.80233 0.89823 0.68871
 C499 C 0.79730 0.88708 0.67087
 H500 H 0.82799 0.89309 0.71161
 H501 H 0.78446 0.89011 0.66011
 Cu502 Cu 0.84714 0.85174 0.68746
 Cu503 Cu 0.81170 0.84906 0.64818
 Cu504 Cu 0.85182 0.81267 0.65218
 N505 N 0.87008 0.83168 0.68896
 N506 N 0.87147 0.81613 0.67539
 C507 C 0.88833 0.80431 0.68013
 C508 C 0.89794 0.81318 0.69745
 C509 C 0.88622 0.83050 0.70269
 H510 H 0.89334 0.79057 0.67152
 H511 H 0.88919 0.84128 0.71552
 N512 N 0.83044 0.81182 0.62978
 N513 N 0.81492 0.82551 0.62842
 C514 C 0.80274 0.82057 0.61173
 C515 C 0.81128 0.80311 0.60229
 C516 C 0.82876 0.79794 0.61387
 H517 H 0.78896 0.82911 0.60668
 H518 H 0.83936 0.78505 0.61093
 H519 H 0.82659 0.82696 0.66679
 H520 H 0.84370 0.84390 0.64991
 N521 N 0.68746 0.63006 0.66940
 N522 N 0.67411 0.62901 0.68528
 C523 C 0.67911 0.61244 0.69760
 C524 C 0.69635 0.60281 0.68863
 C525 C 0.70124 0.61416 0.67081
 H526 H 0.67084 0.60768 0.71177
 H527 H 0.71397 0.61121 0.65989
 Cu528 Cu 0.65154 0.64947 0.68793
 Cu529 Cu 0.68662 0.65231 0.64838
 Cu530 Cu 0.64663 0.68886 0.65287
 N531 N 0.62879 0.66978 0.69006
 N532 N 0.62734 0.68549 0.67659
 C533 C 0.61089 0.69764 0.68192
 C534 C 0.60159 0.68887 0.69955
 C535 C 0.61309 0.67121 0.70432
 H536 H 0.60597 0.71158 0.67352
 H537 H 0.61032 0.66042 0.71723
 N538 N 0.66770 0.68959 0.63001
 N539 N 0.68324 0.67592 0.62864
 C540 C 0.69537 0.68084 0.61188
 C541 C 0.68682 0.69827 0.60234
 C542 C 0.66934 0.70346 0.61396
 H543 H 0.70917 0.67234 0.60686
 H544 H 0.65877 0.71638 0.61103
 H545 H 0.67193 0.67440 0.66712
 H546 H 0.65468 0.65765 0.65036
 N547 N 0.69186 0.12907 0.16986
 N548 N 0.67839 0.12781 0.18563
 C549 C 0.68363 0.11145 0.19811
 C550 C 0.70123 0.10221 0.18944
 C551 C 0.70607 0.11358 0.17161
 H552 H 0.67527 0.10653 0.21216
 H553 H 0.71889 0.11077 0.16076
 Cu554 Cu 0.65516 0.14747 0.18793
 Cu555 Cu 0.69018 0.15072 0.14823
 Cu556 Cu 0.64881 0.18574 0.15180
 N557 N 0.63252 0.16779 0.19025
 N558 N 0.62988 0.18238 0.17572
 C559 C 0.61307 0.19411 0.18075
 C560 C 0.60496 0.18642 0.19943
 C561 C 0.61750 0.16980 0.20517
 H562 H 0.60733 0.20729 0.17165
 H563 H 0.61574 0.15995 0.21900
 N564 N 0.66972 0.18668 0.12887
 N565 N 0.68583 0.17367 0.12784
 C566 C 0.69788 0.17887 0.11110
 C567 C 0.68869 0.19583 0.10125
 C568 C 0.67093 0.20042 0.11268
 H569 H 0.71215 0.17098 0.10640
 H570 H 0.65997 0.21299 0.10962
 H571 H 0.67459 0.17263 0.16651
 H572 H 0.65806 0.15483 0.15010
 N573 N 0.18651 0.62637 0.17408
 N574 N 0.17138 0.62729 0.18825
 C575 C 0.17378 0.61160 0.20232
 C576 C 0.19122 0.60036 0.19652
 C577 C 0.19908 0.60995 0.17856
 H578 H 0.16372 0.60859 0.21577
 H579 H 0.21284 0.60548 0.16962
 Cu580 Cu 0.15039 0.64918 0.18695
 Cu581 Cu 0.18880 0.64708 0.15134
 Cu582 Cu 0.15237 0.68796 0.15123
 N583 N 0.13002 0.67164 0.18734
 N584 N 0.13101 0.68723 0.17368
 C585 C 0.11516 0.70073 0.17767
 C586 C 0.10392 0.69283 0.19463
 C587 C 0.11357 0.67450 0.20035
 H588 H 0.11184 0.71479 0.16869
 H589 H 0.10884 0.66407 0.21297
 N590 N 0.17520 0.68541 0.12995
 N591 N 0.18857 0.66953 0.12981
 C592 C 0.20158 0.67158 0.11314
 C593 C 0.19628 0.68958 0.10253
 C594 C 0.17953 0.69814 0.11339
 H595 H 0.21401 0.66082 0.10898
 H596 H 0.17102 0.71225 0.10935
 H597 H 0.17481 0.67153 0.16776
 H598 H 0.15754 0.65628 0.14975
 N599 N 0.18602 0.12826 0.67321
 N600 N 0.16984 0.12731 0.68618
 C601 C 0.17203 0.11083 0.69924
 C602 C 0.19050 0.10102 0.69432
 C603 C 0.19924 0.11226 0.67773
 H604 H 0.16116 0.10630 0.71156
 H605 H 0.21377 0.10899 0.66950
 Cu606 Cu 0.14775 0.14805 0.68537
 Cu607 Cu 0.18787 0.15018 0.65123
 Cu608 Cu 0.14808 0.18794 0.65164
 N609 N 0.12649 0.16966 0.68702
 N610 N 0.12688 0.18569 0.67390
 C611 C 0.11086 0.19872 0.67854
 C612 C 0.10005 0.19010 0.69540
 C613 C 0.11018 0.17176 0.70040
 H614 H 0.10724 0.21308 0.67020
 H615 H 0.10600 0.16092 0.71288
 N616 N 0.17086 0.18754 0.63050
 N617 N 0.18634 0.17367 0.63046
 C618 C 0.19924 0.17793 0.61398
 C619 C 0.19118 0.19511 0.60340
 C620 C 0.17332 0.20074 0.61406
 H621 H 0.21302 0.16898 0.60972
 H622 H 0.16285 0.21345 0.60999
 H623 H 0.17160 0.17238 0.66807
 H624 H 0.15633 0.15653 0.64881
 N625 N 0.31071 0.62984 0.32931
 N626 N 0.32480 0.62818 0.31414
 C627 C 0.32011 0.61145 0.30204
 C628 C 0.30221 0.60240 0.31032
 C629 C 0.29664 0.61426 0.32752
 H630 H 0.32906 0.60616 0.28852
 H631 H 0.28347 0.61168 0.33800
 Cu632 Cu 0.34806 0.64788 0.31222
 Cu633 Cu 0.31162 0.65182 0.35047
 Cu634 Cu 0.35240 0.68744 0.34703
 N635 N 0.37058 0.66837 0.31017
 N636 N 0.37188 0.68399 0.32367
 C637 C 0.38849 0.69602 0.31870
 C638 C 0.39804 0.68728 0.30127
 C639 C 0.38652 0.66979 0.29619
 H640 H 0.39339 0.70982 0.32724
 H641 H 0.38952 0.65903 0.28335
 N642 N 0.33107 0.68834 0.36948
 N643 N 0.31518 0.67508 0.37045
 C644 C 0.30293 0.68008 0.38707
 C645 C 0.31178 0.69713 0.39690
 C646 C 0.32955 0.70201 0.38562
 H647 H 0.28887 0.67186 0.39182
 H648 H 0.34040 0.71460 0.38885
 H649 H 0.32748 0.67338 0.33194
 H650 H 0.34378 0.65639 0.34957
 N651 N 0.31470 0.12671 0.82534
 N652 N 0.33066 0.12670 0.81212
 C653 C 0.32918 0.11000 0.79924
 C654 C 0.31133 0.09921 0.80468
 C655 C 0.30234 0.11007 0.82124
 H656 H 0.34014 0.10599 0.78683
 H657 H 0.28820 0.10604 0.82981
 Cu658 Cu 0.35168 0.14868 0.81261
 Cu659 Cu 0.31191 0.14786 0.84733
 Cu660 Cu 0.34860 0.18810 0.84790
 N661 N 0.37196 0.17129 0.81289
 N662 N 0.37054 0.18708 0.82619
 C663 C 0.38649 0.20052 0.82244
 C664 C 0.39828 0.19240 0.80601
 C665 C 0.38882 0.17398 0.80036
 H666 H 0.38949 0.21472 0.83122
 H667 H 0.39391 0.16340 0.78806
 N668 N 0.32523 0.18610 0.86855
 N669 N 0.31157 0.17051 0.86840
 C670 C 0.29827 0.17269 0.88481
 C671 C 0.30370 0.19050 0.89557
 C672 C 0.32081 0.19880 0.88506
 H673 H 0.28569 0.16206 0.88881
 H674 H 0.32961 0.21260 0.88939
 H675 H 0.32687 0.17167 0.83061
 H676 H 0.34340 0.15634 0.84948
 N677 N 0.81119 0.62863 0.83164
 N678 N 0.82478 0.62764 0.81594
 C679 C 0.82053 0.61066 0.80404
 C680 C 0.80352 0.60061 0.81302
 C681 C 0.79796 0.61224 0.83045
 H682 H 0.82919 0.60585 0.79017
 H683 H 0.78519 0.60912 0.84128
 Cu684 Cu 0.84703 0.64840 0.81327
 Cu685 Cu 0.81135 0.65129 0.85231
 Cu686 Cu 0.85062 0.68858 0.84714
 N687 N 0.86929 0.66916 0.81060
 N688 N 0.87030 0.68506 0.82380
 C689 C 0.88675 0.69724 0.81863
 C690 C 0.89654 0.68833 0.80140
 C691 C 0.88530 0.67054 0.79667
 H692 H 0.89140 0.71128 0.82692
 H693 H 0.88853 0.65953 0.78411
 N694 N 0.82926 0.68950 0.86970
 N695 N 0.81417 0.67541 0.87159
 C696 C 0.80200 0.68044 0.88831
 C697 C 0.81001 0.69845 0.89717
 C698 C 0.82720 0.70382 0.88519
 H699 H 0.78850 0.67169 0.89369
 H700 H 0.83739 0.71711 0.88763
 H701 H 0.82573 0.67323 0.83324
 H702 H 0.84314 0.65723 0.85063
 N703 N 0.81605 0.12728 0.32478
 N704 N 0.83142 0.12904 0.31095
 C705 C 0.83020 0.11316 0.29696
 C706 C 0.81327 0.10095 0.30255
 C707 C 0.80455 0.11019 0.32021
 H708 H 0.84073 0.11066 0.28378
 H709 H 0.79088 0.10502 0.32890
 Cu710 Cu 0.85125 0.15216 0.31270
 Cu711 Cu 0.81177 0.14750 0.34745
 Cu712 Cu 0.84638 0.18942 0.34969
 N713 N 0.87102 0.17532 0.31432
 N714 N 0.86859 0.19023 0.32848
 C715 C 0.88383 0.20463 0.32599
 C716 C 0.89642 0.19821 0.30955
 C717 C 0.88805 0.17961 0.30240
 H718 H 0.88576 0.21850 0.33556
 H719 H 0.89385 0.17009 0.28953
 N720 N 0.82300 0.18570 0.36979
 N721 N 0.81000 0.16958 0.36913
 C722 C 0.79621 0.17112 0.38524
 C723 C 0.80085 0.18900 0.39633
 C724 C 0.81783 0.19797 0.38632
 H725 H 0.78386 0.16005 0.38877
 H726 H 0.82592 0.21212 0.39090
 H727 H 0.82517 0.17265 0.33185
 H728 H 0.84259 0.15737 0.34988
 N729 N 0.68661 0.37156 0.32473
 N730 N 0.67118 0.37113 0.31091
 C731 C 0.67313 0.38740 0.29750
 C732 C 0.69078 0.39828 0.30318
 C733 C 0.69913 0.38804 0.32048
 H734 H 0.66264 0.39104 0.28455
 H735 H 0.71291 0.39238 0.32941
 Cu736 Cu 0.65034 0.34914 0.31126
 Cu737 Cu 0.68862 0.35111 0.34748
 Cu738 Cu 0.65141 0.31134 0.34860
 N739 N 0.63017 0.32658 0.31151
 N740 N 0.63021 0.31190 0.32619
 C741 C 0.61425 0.29852 0.32241
 C742 C 0.60412 0.30539 0.30433
 C743 C 0.61448 0.32302 0.29779
 H744 H 0.61049 0.28491 0.33188
 H745 H 0.61073 0.33253 0.28413
 N746 N 0.67425 0.31376 0.36974
 N747 N 0.68817 0.32912 0.36929
 C748 C 0.70142 0.32694 0.38572
 C749 C 0.69569 0.30937 0.39680
 C750 C 0.67845 0.30121 0.38647
 H751 H 0.71433 0.33729 0.38937
 H752 H 0.66961 0.28743 0.39088
 H753 H 0.67405 0.32673 0.33140
 H754 H 0.65698 0.34305 0.34881
 N755 N 0.68727 0.86917 0.83126
 N756 N 0.67379 0.87039 0.81551
 C757 C 0.67830 0.88742 0.80367
 C758 C 0.69538 0.89722 0.81274
 C759 C 0.70070 0.88541 0.83016
 H760 H 0.66969 0.89248 0.78983
 H761 H 0.71335 0.88840 0.84115
 Cu762 Cu 0.65109 0.85011 0.81256
 Cu763 Cu 0.68657 0.84660 0.85194
 Cu764 Cu 0.64633 0.81051 0.84770
 N765 N 0.62774 0.83039 0.81140
 N766 N 0.62629 0.81470 0.82488
 C767 C 0.60898 0.80344 0.82052
 C768 C 0.59911 0.81276 0.80352
 C769 C 0.61122 0.82980 0.79806
 H770 H 0.60383 0.78976 0.82920
 H771 H 0.60823 0.84082 0.78540
 N772 N 0.66805 0.80889 0.86978
 N773 N 0.68340 0.82269 0.87138
 C774 C 0.69553 0.81763 0.88808
 C775 C 0.68725 0.79989 0.89728
 C776 C 0.66991 0.79468 0.88549
 H777 H 0.70915 0.82626 0.89331
 H778 H 0.65940 0.78168 0.88829
 H779 H 0.67151 0.82487 0.83311
 H780 H 0.65447 0.84173 0.85010
 N781 N 0.18378 0.37335 0.82462
 N782 N 0.16962 0.37163 0.80959
 C783 C 0.17241 0.38710 0.79529
 C784 C 0.18902 0.39906 0.80202
 C785 C 0.19598 0.39010 0.82062
 H786 H 0.16311 0.38955 0.78119
 H787 H 0.20905 0.39512 0.83026
 Cu788 Cu 0.14903 0.34932 0.81033
 Cu789 Cu 0.18592 0.35313 0.84761
 Cu790 Cu 0.15034 0.31178 0.84781
 N791 N 0.12849 0.32701 0.81100
 N792 N 0.12917 0.31192 0.82524
 C793 C 0.11298 0.29868 0.82186
 C794 C 0.10184 0.30622 0.80465
 C795 C 0.11191 0.32407 0.79820
 H796 H 0.10929 0.28515 0.83148
 H797 H 0.10725 0.33426 0.78534
 N798 N 0.17292 0.31492 0.86922
 N799 N 0.18581 0.33114 0.86944
 C800 C 0.19880 0.32948 0.88616
 C801 C 0.19399 0.31134 0.89672
 C802 C 0.17757 0.30230 0.88578
 H803 H 0.21100 0.34048 0.89026
 H804 H 0.16954 0.28790 0.88971
 H805 H 0.17297 0.32795 0.83135
 H806 H 0.15468 0.34359 0.84809
 N807 N 0.18844 0.87134 0.33108
 N808 N 0.17510 0.87215 0.31519
 C809 C 0.17973 0.88879 0.30288
 C810 C 0.19674 0.89877 0.31179
 C811 C 0.20190 0.88752 0.32962
 H812 H 0.17134 0.89340 0.28874
 H813 H 0.21453 0.89074 0.34055
 Cu814 Cu 0.15268 0.85170 0.31241
 Cu815 Cu 0.18780 0.84911 0.35213
 Cu816 Cu 0.14777 0.81270 0.34796
 N817 N 0.12978 0.83166 0.31093
 N818 N 0.12825 0.81613 0.32459
 C819 C 0.11141 0.80436 0.31975
 C820 C 0.10197 0.81325 0.30227
 C821 C 0.11378 0.83051 0.29705
 H822 H 0.10629 0.79065 0.32840
 H823 H 0.11097 0.84128 0.28413
 N824 N 0.16901 0.81182 0.37050
 N825 N 0.18453 0.82546 0.37187
 C826 C 0.19666 0.82047 0.38861
 C827 C 0.18808 0.80302 0.39809
 C828 C 0.17064 0.79790 0.38647
 H829 H 0.21044 0.82895 0.39367
 H830 H 0.16005 0.78500 0.38941
 H831 H 0.17313 0.82707 0.33355
 H832 H 0.15583 0.84407 0.35011
 C833 C 0.24092 1.00037 0.25576
 C834 C 0.25548 1.00053 0.24007
 C835 C 0.26227 1.02027 0.22978
 C836 C 0.26551 0.98096 0.23259
 C837 C 0.23162 0.98057 0.26361
 C838 C 0.23353 1.01999 0.26574
 C839 C 0.24771 1.03329 0.21945
 C840 C 0.25441 1.05156 0.20922
 C841 C 0.27565 1.05714 0.20934
 C842 C 0.29021 1.04403 0.21966
 C843 C 0.28357 1.02569 0.22964
 C844 C 0.26432 0.97544 0.21116
 C845 C 0.27420 0.95732 0.20387
 C846 C 0.28573 0.94463 0.21790
 C847 C 0.28712 0.95028 0.23925
 C848 C 0.27701 0.96828 0.24660
 C849 C 0.23308 0.97529 0.28511
 C850 C 0.22398 0.95684 0.29267
 C851 C 0.21295 0.94362 0.27883
 C852 C 0.21126 0.94905 0.25743
 C853 C 0.22062 0.96735 0.24980
 C854 C 0.24768 1.03324 0.27619
 C855 C 0.24051 1.05145 0.28606
 C856 C 0.21921 1.05677 0.28538
 C857 C 0.20502 1.04348 0.27497
 C858 C 0.21213 1.02511 0.26540
 H859 H 0.23124 1.02917 0.21915
 H860 H 0.24303 1.06146 0.20133
 H861 H 0.30674 1.04790 0.21992
 H862 H 0.29503 1.01577 0.23742
 H863 H 0.25565 0.98514 0.20012
 H864 H 0.27301 0.95335 0.18727
 H865 H 0.27836 0.97249 0.26314
 H866 H 0.24138 0.98540 0.29600
 H867 H 0.22532 0.95305 0.30933
 H868 H 0.20271 0.93905 0.24664
 H869 H 0.21908 0.97137 0.23320
 H870 H 0.26421 1.02934 0.27687
 H871 H 0.25157 1.06150 0.29414
 H872 H 0.18844 1.04716 0.27446
 H873 H 0.20099 1.01495 0.25757
 H874 H 0.29603 0.94070 0.25019
 C875 C 0.24788 0.50068 0.76195
 C876 C 0.26226 0.49956 0.74615
 C877 C 0.27149 0.51862 0.73664
 C878 C 0.27044 0.47928 0.73839
 C879 C 0.23850 0.48165 0.77142
 C880 C 0.24105 0.52095 0.77094
 C881 C 0.25907 0.53286 0.72520
 C882 C 0.26815 0.55075 0.71627
 C883 C 0.28972 0.55462 0.71889
 C884 C 0.30200 0.54040 0.73031
 C885 C 0.29302 0.52241 0.73895
 C886 C 0.26780 0.47376 0.71709
 C887 C 0.27630 0.45510 0.70938
 C888 C 0.28789 0.44189 0.72285
 C889 C 0.29056 0.44746 0.74410
 C890 C 0.28183 0.46599 0.75188
 C891 C 0.24117 0.47769 0.79309
 C892 C 0.23227 0.45995 0.80236
 C893 C 0.22025 0.44616 0.79023
 C894 C 0.21738 0.45017 0.76852
 C895 C 0.22653 0.46781 0.75916
 C896 C 0.25516 0.53379 0.78198
 C897 C 0.24818 0.55239 0.79132
 C898 C 0.22712 0.55845 0.78956
 C899 C 0.21305 0.54556 0.77844
 C900 C 0.21995 0.52690 0.76936
 H901 H 0.24243 0.53005 0.72317
 H902 H 0.25835 0.56161 0.70755
 H903 H 0.31861 0.54325 0.73242
 H904 H 0.30280 0.51154 0.74770
 H905 H 0.25920 0.48394 0.70645
 H906 H 0.27415 0.45121 0.69286
 H907 H 0.28427 0.47018 0.76830
 H908 H 0.25030 0.48827 0.80278
 H909 H 0.23456 0.45702 0.81909
 H910 H 0.20819 0.43966 0.75882
 H911 H 0.22414 0.47077 0.74244
 H912 H 0.27146 0.52924 0.78359
 H913 H 0.25917 0.56211 0.79989
 H914 H 0.19665 0.54978 0.77697
 H915 H 0.20884 0.51706 0.76107
 H916 H 0.29952 0.43746 0.75460
 C917 C 0.74690 -0.00038 0.24188
 C918 C 0.75977 -0.00219 0.25898
 C919 C 0.76585 -0.02304 0.26752
 C920 C 0.76827 0.01668 0.26946
 C921 C 0.73803 0.02004 0.23543
 C922 C 0.73997 -0.01887 0.22953
 C923 C 0.75040 -0.03818 0.27166
 C924 C 0.75606 -0.05885 0.27577
 C925 C 0.77719 -0.06454 0.27705
 C926 C 0.79277 -0.04914 0.27492
 C927 C 0.78710 -0.02847 0.27002
 C928 C 0.76052 0.02294 0.28923
 C929 C 0.76805 0.04119 0.29877
 C930 C 0.78362 0.05320 0.28886
 C931 C 0.79148 0.04683 0.26908
 C932 C 0.78374 0.02875 0.25941
 C933 C 0.74312 0.02853 0.21562
 C934 C 0.73346 0.04693 0.20866
 C935 C 0.71832 0.05690 0.22136
 C936 C 0.71332 0.04842 0.24118
 C937 C 0.72316 0.03012 0.24824
 C938 C 0.75457 -0.03200 0.21946
 C939 C 0.74785 -0.05012 0.20905
 C940 C 0.72653 -0.05546 0.20879
 C941 C 0.71189 -0.04199 0.21843
 C942 C 0.71856 -0.02377 0.22851
 H943 H 0.73391 -0.03419 0.27064
 H944 H 0.74395 -0.07059 0.27764
 H945 H 0.80920 -0.05335 0.27586
 H946 H 0.79928 -0.01699 0.26714
 H947 H 0.74841 0.01390 0.29706
 H948 H 0.76176 0.04600 0.31392
 H949 H 0.78982 0.02411 0.24411
 H950 H 0.75442 0.02077 0.20550
 H951 H 0.73755 0.05312 0.19324
 H952 H 0.70157 0.05584 0.25103
 H953 H 0.71876 0.02348 0.26340
 H954 H 0.77116 -0.02837 0.21998
 H955 H 0.75929 -0.06031 0.20170
 H956 H 0.69531 -0.04566 0.21834
 H957 H 0.70706 -0.01384 0.23618
 H958 H 0.80348 0.05587 0.26107
 C959 C 0.74322 0.50092 0.74174
 C960 C 0.75747 0.49948 0.75777
 C961 C 0.76247 0.47888 0.76759
 C962 C 0.76837 0.51835 0.76590
 C963 C 0.73435 0.52126 0.73484
 C964 C 0.73513 0.48198 0.73091
 C965 C 0.74613 0.46567 0.77427
 C966 C 0.75030 0.44508 0.78017
 C967 C 0.77090 0.43762 0.78064
 C968 C 0.78753 0.45120 0.77569
 C969 C 0.78330 0.47175 0.76905
 C970 C 0.76714 0.52358 0.78742
 C971 C 0.77671 0.54182 0.79492
 C972 C 0.78800 0.55487 0.78101
 C973 C 0.78973 0.54929 0.75967
 C974 C 0.77989 0.53124 0.75211
 C975 C 0.73509 0.52700 0.71341
 C976 C 0.72547 0.54543 0.70652
 C977 C 0.71461 0.55822 0.72093
 C978 C 0.71378 0.55244 0.74230
 C979 C 0.72366 0.53413 0.74927
 C980 C 0.74890 0.46839 0.72034
 C981 C 0.74131 0.45014 0.71091
 C982 C 0.71998 0.44507 0.71217
 C983 C 0.70612 0.45879 0.72252
 C984 C 0.71364 0.47725 0.73161
 H985 H 0.73002 0.47105 0.77401
 H986 H 0.73740 0.43478 0.78419
 H987 H 0.80357 0.44560 0.77595
 H988 H 0.79615 0.48174 0.76417
 H989 H 0.75842 0.51375 0.79831
 H990 H 0.77534 0.54569 0.81153
 H991 H 0.78123 0.52733 0.73549
 H992 H 0.74303 0.51711 0.70203
 H993 H 0.72617 0.54945 0.68988
 H994 H 0.70536 0.56209 0.75354
 H995 H 0.72255 0.52971 0.76580
 H996 H 0.76551 0.47190 0.71952
 H997 H 0.75211 0.43975 0.70288
 H998 H 0.68954 0.45528 0.72351
 H999 H 0.70280 0.48758 0.73968
 H1000 H 0.79847 0.55912 0.74882
 C1001 C 0.24353 0.49826 0.24324
 C1002 C 0.25677 0.49881 0.26000
 C1003 C 0.26354 0.47945 0.27085
 C1004 C 0.26681 0.51854 0.26680
 C1005 C 0.23671 0.51774 0.23262
 C1006 C 0.23378 0.47851 0.23602
 C1007 C 0.25480 0.47362 0.29039
 C1008 C 0.26192 0.45564 0.30088
 C1009 C 0.27797 0.44345 0.29207
 C1010 C 0.28650 0.44923 0.27233
 C1011 C 0.27930 0.46708 0.26182
 C1012 C 0.26116 0.52781 0.28606
 C1013 C 0.27097 0.54621 0.29269
 C1014 C 0.28668 0.55553 0.28015
 C1015 C 0.29233 0.54621 0.26094
 C1016 C 0.28248 0.52782 0.25428
 C1017 C 0.24643 0.52460 0.21393
 C1018 C 0.23941 0.54278 0.20376
 C1019 C 0.22257 0.55421 0.21209
 C1020 C 0.21304 0.54743 0.23101
 C1021 C 0.22010 0.52932 0.24119
 C1022 C 0.23837 0.47061 0.21585
 C1023 C 0.22876 0.45228 0.20873
 C1024 C 0.21427 0.44165 0.22168
 C1025 C 0.20964 0.44961 0.24179
 C1026 C 0.21931 0.46792 0.24894
 H1027 H 0.24250 0.48296 0.29749
 H1028 H 0.25514 0.45135 0.31600
 H1029 H 0.29882 0.44004 0.26508
 H1030 H 0.28617 0.47141 0.24674
 H1031 H 0.24913 0.52086 0.29591
 H1032 H 0.26637 0.55304 0.30765
 H1033 H 0.28716 0.52072 0.23946
 H1034 H 0.25941 0.51589 0.20724
 H1035 H 0.24694 0.54786 0.18927
 H1036 H 0.20008 0.55602 0.23786
 H1037 H 0.21253 0.52422 0.25566
 H1038 H 0.24945 0.47857 0.20564
 H1039 H 0.23256 0.44652 0.19309
 H1040 H 0.19848 0.44163 0.25190
 H1041 H 0.21538 0.47395 0.26445
 H1042 H 0.30442 0.55318 0.25116
 C1043 C 0.74047 0.99995 0.75894
 C1044 C 0.75467 0.99879 0.74286
 C1045 C 0.76229 1.01781 0.73179
 C1046 C 0.76382 0.97866 0.73585
 C1047 C 0.72980 0.98085 0.76693
 C1048 C 0.73495 1.02053 0.76847
 C1049 C 0.74835 1.03053 0.72033
 C1050 C 0.75560 1.04863 0.71022
 C1051 C 0.77673 1.05439 0.71172
 C1052 C 0.79073 1.04149 0.72300
 C1053 C 0.78358 1.02320 0.73275
 C1054 C 0.76278 0.97301 0.71446
 C1055 C 0.77273 0.95489 0.70735
 C1056 C 0.78419 0.94230 0.72151
 C1057 C 0.78536 0.94801 0.74286
 C1058 C 0.77514 0.96603 0.75005
 C1059 C 0.73120 0.97516 0.78835
 C1060 C 0.72195 0.95658 0.79557
 C1061 C 0.71083 0.94367 0.78148
 C1062 C 0.70901 0.94966 0.76024
 C1063 C 0.71850 0.96802 0.75297
 C1064 C 0.75097 1.03411 0.77506
 C1065 C 0.74644 1.05486 0.78002
 C1066 C 0.72577 1.06213 0.77960
 C1067 C 0.70941 1.04820 0.77487
 C1068 C 0.71401 1.02746 0.76920
 H1069 H 0.73190 1.02641 0.71926
 H1070 H 0.74468 1.05837 0.70150
 H1071 H 0.80717 1.04553 0.72427
 H1072 H 0.79453 1.01350 0.74148
 H1073 H 0.75437 0.98275 0.70325
 H1074 H 0.77178 0.95093 0.69073
 H1075 H 0.77649 0.97042 0.76654
 H1076 H 0.73982 0.98487 0.79935
 H1077 H 0.72343 0.95236 0.81211
 H1078 H 0.70045 0.93989 0.74924
 H1079 H 0.71711 0.97224 0.73641
 H1080 H 0.76715 1.02893 0.77528
 H1081 H 0.75914 1.06546 0.78379
 H1082 H 0.69333 1.05368 0.77437
 H1083 H 0.70140 1.01721 0.76429
 H1084 H 0.79428 0.93854 0.75390
 C1085 C 0.74392 0.50100 0.25967
 C1086 C 0.75778 0.50165 0.24338
 C1087 C 0.76742 0.52153 0.23637
 C1088 C 0.76454 0.48235 0.23238
 C1089 C 0.73686 0.48091 0.26884
 C1090 C 0.73530 0.52026 0.26932
 C1091 C 0.76514 0.52814 0.21533
 C1092 C 0.77448 0.54671 0.20849
 C1093 C 0.78655 0.55875 0.22257
 C1094 C 0.78904 0.55199 0.24350
 C1095 C 0.77948 0.53352 0.25042
 C1096 C 0.74998 0.46981 0.22159
 C1097 C 0.75657 0.45156 0.21135
 C1098 C 0.77769 0.44553 0.21198
 C1099 C 0.79228 0.45825 0.22260
 C1100 C 0.78575 0.47659 0.23258
 C1101 C 0.75117 0.46755 0.27901
 C1102 C 0.74420 0.44899 0.28841
 C1103 C 0.72296 0.44351 0.28751
 C1104 C 0.70866 0.45691 0.27726
 C1105 C 0.71557 0.47558 0.26816
 C1106 C 0.73781 0.52372 0.29109
 C1107 C 0.72917 0.54147 0.30051
 C1108 C 0.71757 0.55576 0.28845
 C1109 C 0.71494 0.55232 0.26664
 C1110 C 0.72383 0.53467 0.25713
 H1111 H 0.75599 0.51897 0.20427
 H1112 H 0.77244 0.55155 0.19218
 H1113 H 0.79836 0.56107 0.25446
 H1114 H 0.78163 0.52845 0.26665
 H1115 H 0.73356 0.47421 0.22108
 H1116 H 0.74520 0.44198 0.20313
 H1117 H 0.79718 0.48616 0.24075
 H1118 H 0.76763 0.47165 0.27988
 H1119 H 0.75533 0.43884 0.29634
 H1120 H 0.69214 0.45308 0.27653
 H1121 H 0.70435 0.48584 0.26051
 H1122 H 0.74652 0.51269 0.30074
 H1123 H 0.73129 0.54400 0.31731
 H1124 H 0.70610 0.56323 0.25701
 H1125 H 0.72153 0.53207 0.24036
 H1126 H 0.80873 0.45404 0.22317
 C1127 C 0.24023 -0.00054 0.74539
 C1128 C 0.25657 -0.00219 0.75921
 C1129 C 0.26703 -0.02278 0.76298
 C1130 C 0.26465 0.01664 0.77028
 C1131 C 0.23430 0.01976 0.73545
 C1132 C 0.22826 -0.01927 0.73862
 C1133 C 0.27114 -0.03019 0.78358
 C1134 C 0.27963 -0.05029 0.78670
 C1135 C 0.28393 -0.06316 0.76919
 C1136 C 0.28056 -0.05543 0.74877
 C1137 C 0.27264 -0.03534 0.74565
 C1138 C 0.25078 0.02988 0.78123
 C1139 C 0.25812 0.04809 0.79091
 C1140 C 0.27935 0.05347 0.78967
 C1141 C 0.29336 0.04006 0.77905
 C1142 C 0.28606 0.02168 0.76958
 C1143 C 0.24933 0.03197 0.72475
 C1144 C 0.24329 0.05009 0.71378
 C1145 C 0.22223 0.05634 0.71344
 C1146 C 0.20722 0.04411 0.72420
 C1147 C 0.21320 0.02595 0.73496
 C1148 C 0.22695 -0.02428 0.71709
 C1149 C 0.21642 -0.04229 0.71065
 C1150 C 0.20661 -0.05539 0.72562
 C1151 C 0.20728 -0.04999 0.74708
 C1152 C 0.21818 -0.03212 0.75359
 H1153 H 0.26721 -0.02069 0.79719
 H1154 H 0.28213 -0.05603 0.80264
 H1155 H 0.28406 -0.06511 0.73516
 H1156 H 0.27043 -0.02974 0.72962
 H1157 H 0.23423 0.02615 0.78214
 H1158 H 0.24717 0.05824 0.79907
 H1159 H 0.29702 0.01165 0.76129
 H1160 H 0.26564 0.02720 0.72448
 H1161 H 0.25502 0.05924 0.70550
 H1162 H 0.19079 0.04843 0.72407
 H1163 H 0.20133 0.01661 0.74281
 H1164 H 0.23459 -0.01453 0.70534
 H1165 H 0.21607 -0.04602 0.69395
 H1166 H 0.19976 -0.05988 0.75877
 H1167 H 0.21884 -0.02831 0.77027
 H1168 H 0.30989 0.04381 0.77804
 C1169 C 0.25689 0.24242 0.99889
 C1170 C 0.24153 0.25722 0.99882
 C1171 C 0.23377 0.26672 1.01878
 C1172 C 0.23171 0.26455 0.97883
 C1173 C 0.26727 0.23554 0.97901
 C1174 C 0.26394 0.23231 1.01885
 C1175 C 0.21238 0.26571 1.02396
 C1176 C 0.20494 0.27497 1.04255
 C1177 C 0.21877 0.28572 1.05602
 C1178 C 0.24006 0.28694 1.05069
 C1179 C 0.24757 0.27743 1.03226
 C1180 C 0.22155 0.25036 0.96533
 C1181 C 0.21155 0.25748 0.94696
 C1182 C 0.21173 0.27878 0.94170
 C1183 C 0.22195 0.29299 0.95520
 C1184 C 0.23169 0.28592 0.97371
 C1185 C 0.27776 0.24998 0.96595
 C1186 C 0.28792 0.24326 0.94751
 C1187 C 0.28751 0.22210 0.94174
 C1188 C 0.27716 0.20764 0.95493
 C1189 C 0.26729 0.21430 0.97350
 C1190 C 0.28516 0.23296 1.02463
 C1191 C 0.29196 0.22323 1.04324
 C1192 C 0.27766 0.21237 1.05621
 C1193 C 0.25653 0.21141 1.05024
 C1194 C 0.24966 0.22139 1.03175
 H1195 H 0.20150 0.25765 1.01366
 H1196 H 0.18838 0.27395 1.04625
 H1197 H 0.25086 0.29527 1.06086
 H1198 H 0.26407 0.27864 1.02835
 H1199 H 0.22113 0.23384 0.96920
 H1200 H 0.20370 0.24638 0.93676
 H1201 H 0.23932 0.29711 0.98401
 H1202 H 0.27822 0.26640 0.97015
 H1203 H 0.29594 0.25456 0.93761
 H1204 H 0.27682 0.19117 0.95098
 H1205 H 0.25948 0.20291 0.98349
 H1206 H 0.29642 0.24116 1.01480
 H1207 H 0.30842 0.22407 1.04739
 H1208 H 0.24535 0.20304 1.06001
 H1209 H 0.23326 0.22045 1.02737
 H1210 H 0.22222 0.30956 0.95157
 C1211 C 0.25600 0.73994 0.49956
 C1212 C 0.24156 0.75551 0.50003
 C1213 C 0.23199 0.76266 0.52005
 C1214 C 0.23430 0.76598 0.48044
 C1215 C 0.26372 0.73122 0.47937
 C1216 C 0.26448 0.73052 0.51917
 C1217 C 0.21985 0.74901 0.53247
 C1218 C 0.20985 0.75635 0.55071
 C1219 C 0.21198 0.77730 0.55677
 C1220 C 0.22429 0.79089 0.54437
 C1221 C 0.23407 0.78363 0.52607
 C1222 C 0.21303 0.76511 0.47490
 C1223 C 0.20592 0.77500 0.45654
 C1224 C 0.21998 0.78620 0.44365
 C1225 C 0.24114 0.78747 0.44944
 C1226 C 0.24833 0.77730 0.46768
 C1227 C 0.28511 0.73249 0.47436
 C1228 C 0.29264 0.72380 0.45560
 C1229 C 0.27888 0.71340 0.44180
 C1230 C 0.25756 0.71196 0.44693
 C1231 C 0.24996 0.72092 0.46556
 C1232 C 0.27608 0.74259 0.53354
 C1233 C 0.28465 0.73330 0.55164
 C1234 C 0.28151 0.71186 0.55560
 C1235 C 0.26982 0.69993 0.54132
 C1236 C 0.26155 0.70911 0.52309
 H1237 H 0.21785 0.73283 0.52782
 H1238 H 0.20037 0.74575 0.56009
 H1239 H 0.22612 0.80718 0.54865
 H1240 H 0.24327 0.79437 0.51655
 H1241 H 0.20198 0.75661 0.48473
 H1242 H 0.18944 0.77404 0.45253
 H1243 H 0.26474 0.77839 0.47195
 H1244 H 0.29592 0.74026 0.48498
 H1245 H 0.30923 0.72490 0.45204
 H1246 H 0.24686 0.70387 0.43647
 H1247 H 0.23345 0.71958 0.46939
 H1248 H 0.27865 0.75910 0.53059
 H1249 H 0.29357 0.74282 0.56254
 H1250 H 0.26733 0.68340 0.54424
 H1251 H 0.25273 0.69958 0.51209
 H1252 H 0.25208 0.79620 0.43972
 C1253 C 0.24321 0.74160 -0.00086
 C1254 C 0.25847 0.75643 -0.00112
 C1255 C 0.26872 0.76335 -0.02101
 C1256 C 0.26572 0.76669 0.01852
 C1257 C 0.23279 0.73496 0.01909
 C1258 C 0.23618 0.73113 -0.02050
 C1259 C 0.29028 0.75987 -0.02390
 C1260 C 0.30048 0.76746 -0.04194
 C1261 C 0.28944 0.77911 -0.05707
 C1262 C 0.26777 0.78246 -0.05431
 C1263 C 0.25747 0.77452 -0.03643
 C1264 C 0.27619 0.75525 0.03429
 C1265 C 0.28374 0.76536 0.05235
 C1266 C 0.28075 0.78704 0.05486
 C1267 C 0.27003 0.79833 0.03925
 C1268 C 0.26276 0.78829 0.02107
 C1269 C 0.22096 0.74909 0.03124
 C1270 C 0.21088 0.74233 0.04976
 C1271 C 0.21262 0.72146 0.05644
 C1272 C 0.22440 0.70733 0.04417
 C1273 C 0.23425 0.71402 0.02560
 C1274 C 0.21520 0.73307 -0.02685
 C1275 C 0.20815 0.72309 -0.04513
 C1276 C 0.22194 0.71072 -0.05721
 C1277 C 0.24282 0.70851 -0.05066
 C1278 C 0.24996 0.71870 -0.03245
 H1279 H 0.29921 0.75138 -0.01208
 H1280 H 0.31715 0.76477 -0.04386
 H1281 H 0.25888 0.79129 -0.06588
 H1282 H 0.24086 0.77748 -0.03436
 H1283 H 0.27873 0.73858 0.03246
 H1284 H 0.29191 0.75630 0.06428
 H1285 H 0.25477 0.79734 0.00899
 H1286 H 0.21940 0.76526 0.02629
 H1287 H 0.20180 0.75337 0.05898
 H1288 H 0.22589 0.69109 0.04885
 H1289 H 0.24318 0.70287 0.01635
 H1290 H 0.20433 0.74245 -0.01771
 H1291 H 0.19190 0.72496 -0.04973
 H1292 H 0.25358 0.69896 -0.05974
 H1293 H 0.26613 0.71677 -0.02755
 H1294 H 0.26764 0.81502 0.04101
 C1295 C 0.24240 0.24318 0.50033
 C1296 C 0.25583 0.25967 0.50061
 C1297 C 0.26333 0.26986 0.48087
 C1298 C 0.26371 0.26839 0.52074
 C1299 C 0.23590 0.23234 0.52008
 C1300 C 0.23290 0.23563 0.48038
 C1301 C 0.27451 0.25842 0.46564
 C1302 C 0.28220 0.26833 0.44748
 C1303 C 0.27874 0.28987 0.44424
 C1304 C 0.26740 0.30121 0.45933
 C1305 C 0.25992 0.29135 0.47763
 C1306 C 0.28516 0.26721 0.52550
 C1307 C 0.29282 0.27572 0.54430
 C1308 C 0.27913 0.28589 0.55839
 C1309 C 0.25774 0.28724 0.55350
 C1310 C 0.25001 0.27842 0.53485
 C1311 C 0.21469 0.23235 0.52596
 C1312 C 0.20823 0.22221 0.54446
 C1313 C 0.22287 0.21158 0.55724
 C1314 C 0.24401 0.21120 0.55113
 C1315 C 0.25054 0.22162 0.53272
 C1316 C 0.22025 0.24888 0.46803
 C1317 C 0.21084 0.24139 0.44957
 C1318 C 0.21403 0.22067 0.44316
 C1319 C 0.22671 0.20741 0.45552
 C1320 C 0.23593 0.21482 0.47410
 H1321 H 0.27751 0.24188 0.46799
 H1322 H 0.29089 0.25920 0.43603
 H1323 H 0.26466 0.31780 0.45707
 H1324 H 0.25140 0.30046 0.48925
 H1325 H 0.29591 0.25963 0.51467
 H1326 H 0.30944 0.27468 0.54765
 H1327 H 0.23344 0.27963 0.53125
 H1328 H 0.20317 0.24040 0.51632
 H1329 H 0.19177 0.22260 0.54869
 H1330 H 0.25545 0.20302 0.56075
 H1331 H 0.26694 0.22123 0.52825
 H1332 H 0.21750 0.26492 0.47283
 H1333 H 0.20101 0.25172 0.44024
 H1334 H 0.22929 0.19128 0.45098
 H1335 H 0.24552 0.20436 0.48354
 H1336 H 0.24707 0.29514 0.56418
 C1337 C 0.75674 0.74268 1.00094
 C1338 C 0.74266 0.75853 1.00121
 C1339 C 0.73579 0.76841 1.02120
 C1340 C 0.73450 0.76757 0.98136
 C1341 C 0.76396 0.73331 0.98086
 C1342 C 0.76481 0.73331 1.02068
 C1343 C 0.71524 0.76550 1.02851
 C1344 C 0.70848 0.77532 1.04704
 C1345 C 0.72217 0.78842 1.05841
 C1346 C 0.74271 0.79128 1.05107
 C1347 C 0.74954 0.78127 1.03262
 C1348 C 0.71557 0.76042 0.97273
 C1349 C 0.70777 0.76934 0.95409
 C1350 C 0.71891 0.78550 0.94392
 C1351 C 0.73788 0.79246 0.95255
 C1352 C 0.74565 0.78357 0.97117
 C1353 C 0.78208 0.74082 0.97082
 C1354 C 0.78942 0.73126 0.95235
 C1355 C 0.77866 0.71406 0.94371
 C1356 C 0.76040 0.70680 0.95365
 C1357 C 0.75309 0.71633 0.97214
 C1358 C 0.78593 0.73589 1.02627
 C1359 C 0.79373 0.72668 1.04472
 C1360 C 0.78050 0.71454 1.05766
 C1361 C 0.75944 0.71191 1.05200
 C1362 C 0.75158 0.72132 1.03366
 H1363 H 0.70445 0.75558 1.01991
 H1364 H 0.69252 0.77283 1.05233
 H1365 H 0.75341 0.80131 1.05965
 H1366 H 0.76544 0.78374 1.02709
 H1367 H 0.70685 0.74802 0.98046
 H1368 H 0.69304 0.76375 0.94776
 H1369 H 0.76032 0.78916 0.97769
 H1370 H 0.79062 0.75392 0.97740
 H1371 H 0.80358 0.73715 0.94499
 H1372 H 0.75196 0.69360 0.94715
 H1373 H 0.73908 0.71039 0.97977
 H1374 H 0.79633 0.74509 1.01639
 H1375 H 0.81010 0.72883 1.04873
 H1376 H 0.74914 0.70255 1.06182
 H1377 H 0.73527 0.71909 1.02943
 H1378 H 0.74659 0.80487 0.94484
 C1379 C 0.75821 0.24310 0.50015
 C1380 C 0.74185 0.25661 0.50002
 C1381 C 0.73259 0.26440 0.51988
 C1382 C 0.73189 0.26361 0.48007
 C1383 C 0.76746 0.23541 0.48023
 C1384 C 0.76813 0.23600 0.52009
 C1385 C 0.71690 0.25284 0.53012
 C1386 C 0.70755 0.26054 0.54853
 C1387 C 0.71382 0.27981 0.55692
 C1388 C 0.72971 0.29131 0.54672
 C1389 C 0.73898 0.28365 0.52826
 C1390 C 0.71856 0.25016 0.46882
 C1391 C 0.70856 0.25712 0.45038
 C1392 C 0.71180 0.27754 0.44293
 C1393 C 0.72520 0.29098 0.45424
 C1394 C 0.73509 0.28406 0.47271
 C1395 C 0.78316 0.24704 0.47008
 C1396 C 0.79232 0.23961 0.45145
 C1397 C 0.78586 0.22053 0.44276
 C1398 C 0.76997 0.20895 0.45288
 C1399 C 0.76085 0.21637 0.47153
 C1400 C 0.78094 0.24958 0.53180
 C1401 C 0.79091 0.24252 0.55023
 C1402 C 0.78814 0.22187 0.55723
 C1403 C 0.77526 0.20831 0.54547
 C1404 C 0.76542 0.21533 0.52701
 H1405 H 0.71180 0.23797 0.52373
 H1406 H 0.69531 0.25156 0.55624
 H1407 H 0.73478 0.30628 0.55286
 H1408 H 0.75109 0.29274 0.52048
 H1409 H 0.71579 0.23437 0.47445
 H1410 H 0.69828 0.24661 0.44186
 H1411 H 0.74525 0.29466 0.48125
 H1412 H 0.78837 0.26179 0.47667
 H1413 H 0.80453 0.24866 0.44381
 H1414 H 0.76471 0.19416 0.44648
 H1415 H 0.74866 0.20729 0.47919
 H1416 H 0.78335 0.26554 0.52654
 H1417 H 0.80078 0.25313 0.55910
 H1418 H 0.77294 0.19225 0.55042
 H1419 H 0.75567 0.20462 0.51813
 H1420 H 0.72790 0.30687 0.44893
 C1421 C 0.74437 0.24165 -0.00075
 C1422 C 0.76092 0.25504 -0.00097
 C1423 C 0.77031 0.26252 -0.02105
 C1424 C 0.77063 0.26284 0.01889
 C1425 C 0.73664 0.23223 0.01924
 C1426 C 0.73377 0.23493 -0.02052
 C1427 C 0.78002 0.24851 -0.03509
 C1428 C 0.78991 0.25599 -0.05341
 C1429 C 0.79002 0.27745 -0.05798
 C1430 C 0.78010 0.29141 -0.04396
 C1431 C 0.77049 0.28399 -0.02557
 C1432 C 0.79208 0.25949 0.02266
 C1433 C 0.80150 0.26711 0.04107
 C1434 C 0.78978 0.27857 0.05578
 C1435 C 0.76829 0.28206 0.05199
 C1436 C 0.75879 0.27419 0.03370
 C1437 C 0.71565 0.23500 0.02533
 C1438 C 0.70809 0.22569 0.04386
 C1439 C 0.72139 0.21318 0.05637
 C1440 C 0.74229 0.21032 0.05020
 C1441 C 0.74992 0.21980 0.03179
 C1442 C 0.72341 0.24940 -0.03366
 C1443 C 0.71283 0.24259 -0.05184
 C1444 C 0.71266 0.22131 -0.05721
 C1445 C 0.72307 0.20688 -0.04401
 C1446 C 0.73336 0.21363 -0.02577
 H1447 H 0.78024 0.23190 -0.03166
 H1448 H 0.79748 0.24507 -0.06404
 H1449 H 0.78001 0.30808 -0.04706
 H1450 H 0.76317 0.29499 -0.01483
 H1451 H 0.80149 0.25086 0.01137
 H1452 H 0.81806 0.26436 0.04375
 H1453 H 0.74228 0.27716 0.03095
 H1454 H 0.70517 0.24443 0.01574
 H1455 H 0.69184 0.22803 0.04824
 H1456 H 0.75266 0.20065 0.05966
 H1457 H 0.76608 0.21725 0.02715
 H1458 H 0.72330 0.26588 -0.02969
 H1459 H 0.70484 0.25388 -0.06179
 H1460 H 0.72311 0.19034 -0.04768
 H1461 H 0.74114 0.20223 -0.01576
 H1462 H 0.75887 0.29084 0.06314
 C1463 C 0.74281 0.74215 0.49978
 C1464 C 0.75776 0.75725 0.49980
 C1465 C 0.76749 0.76489 0.47995
 C1466 C 0.76502 0.76701 0.51971
 C1467 C 0.73494 0.73278 0.51972
 C1468 C 0.73335 0.73451 0.47987
 C1469 C 0.77848 0.75116 0.46661
 C1470 C 0.78835 0.75874 0.44836
 C1471 C 0.78721 0.78002 0.44315
 C1472 C 0.77612 0.79374 0.45647
 C1473 C 0.76649 0.78623 0.47481
 C1474 C 0.78624 0.76579 0.52537
 C1475 C 0.79333 0.77530 0.54390
 C1476 C 0.77930 0.78648 0.55682
 C1477 C 0.75816 0.78797 0.55097
 C1478 C 0.75100 0.77820 0.53258
 C1479 C 0.71361 0.73440 0.52492
 C1480 C 0.70601 0.72543 0.54359
 C1481 C 0.71962 0.71438 0.55711
 C1482 C 0.74085 0.71251 0.55173
 C1483 C 0.74854 0.72176 0.53322
 C1484 C 0.72253 0.74830 0.46642
 C1485 C 0.71295 0.74084 0.44805
 C1486 C 0.71422 0.71962 0.44280
 C1487 C 0.72513 0.70580 0.45623
 C1488 C 0.73447 0.71320 0.47474
 H1489 H 0.77964 0.73468 0.47050
 H1490 H 0.79691 0.74804 0.43827
 H1491 H 0.77513 0.81028 0.45285
 H1492 H 0.75818 0.79704 0.48501
 H1493 H 0.79727 0.75739 0.51548
 H1494 H 0.80978 0.77414 0.54798
 H1495 H 0.73462 0.77956 0.52822
 H1496 H 0.70291 0.74272 0.51458
 H1497 H 0.68949 0.72687 0.54731
 H1498 H 0.75145 0.70392 0.56195
 H1499 H 0.76500 0.72014 0.52926
 H1500 H 0.72127 0.76476 0.47033
 H1501 H 0.70450 0.75160 0.43788
 H1502 H 0.72617 0.68929 0.45258
 H1503 H 0.74264 0.70234 0.48505
 H1504 H 0.74724 0.79666 0.56073
 C1505 C 0.99894 0.25353 0.23809
 C1506 C 1.00001 0.23873 0.25353
 C1507 C 1.02038 0.23063 0.26137
 C1508 C 0.98090 0.22914 0.26271
 C1509 C 0.97864 0.26052 0.22903
 C1510 C 1.01808 0.26309 0.22888
 C1511 C 1.03384 0.21945 0.24793
 C1512 C 1.05243 0.21079 0.25581
 C1513 C 1.05790 0.21334 0.27711
 C1514 C 1.04453 0.22475 0.29053
 C1515 C 1.02581 0.23317 0.28272
 C1516 C 0.97760 0.20755 0.26052
 C1517 C 0.95966 0.19821 0.26898
 C1518 C 0.94498 0.21018 0.28012
 C1519 C 0.94834 0.23180 0.28259
 C1520 C 0.96619 0.24123 0.27385
 C1521 C 0.97294 0.28166 0.23042
 C1522 C 0.95444 0.28880 0.22105
 C1523 C 0.94144 0.27493 0.20980
 C1524 C 0.94717 0.25381 0.20835
 C1525 C 0.96563 0.24659 0.21796
 C1526 C 1.03193 0.27490 0.24135
 C1527 C 1.04966 0.28417 0.23219
 C1528 C 1.05374 0.28160 0.21047
 C1529 C 1.03993 0.26980 0.19814
 C1530 C 1.02213 0.26077 0.20720
 H1531 H 1.02974 0.21711 0.23147
 H1532 H 1.06255 0.20195 0.24534
 H1533 H 1.04834 0.22681 0.30709
 H1534 H 1.01551 0.24163 0.29333
 H1535 H 0.98883 0.19798 0.25204
 H1536 H 0.95724 0.18155 0.26701
 H1537 H 0.96860 0.25788 0.27585
 H1538 H 0.98289 0.29264 0.23875
 H1539 H 0.95048 0.30523 0.22233
 H1540 H 0.93737 0.24296 0.19970
 H1541 H 0.96997 0.23027 0.21646
 H1542 H 1.02889 0.27703 0.25808
 H1543 H 1.06019 0.29318 0.24204
 H1544 H 1.04293 0.26771 0.18140
 H1545 H 1.01157 0.25179 0.19733
 H1546 H 0.93716 0.24137 0.29111
 C1547 C 0.50138 0.26078 0.74675
 C1548 C 0.50102 0.24739 0.76350
 C1549 C 0.52060 0.23924 0.77321
 C1550 C 0.48096 0.24008 0.77283
 C1551 C 0.48185 0.26768 0.73612
 C1552 C 0.52124 0.26979 0.73866
 C1553 C 0.53502 0.22760 0.76122
 C1554 C 0.55304 0.21933 0.77075
 C1555 C 0.55694 0.22272 0.79239
 C1556 C 0.54267 0.23456 0.80424
 C1557 C 0.52451 0.24257 0.79480
 C1558 C 0.47607 0.21871 0.77263
 C1559 C 0.45732 0.21157 0.78154
 C1560 C 0.44331 0.22572 0.79113
 C1561 C 0.44835 0.24705 0.79157
 C1562 C 0.46701 0.25424 0.78238
 C1563 C 0.47633 0.28893 0.73628
 C1564 C 0.45798 0.29570 0.72632
 C1565 C 0.44506 0.28133 0.71571
 C1566 C 0.45081 0.26017 0.71516
 C1567 C 0.46903 0.25332 0.72543
 C1568 C 0.53391 0.28222 0.75173
 C1569 C 0.55212 0.29146 0.74367
 C1570 C 0.55798 0.28831 0.72256
 C1571 C 0.54534 0.27579 0.70947
 C1572 C 0.52700 0.26675 0.71745
 H1573 H 0.53217 0.22470 0.74459
 H1574 H 0.56388 0.21030 0.76123
 H1575 H 0.54546 0.23725 0.82091
 H1576 H 0.51351 0.25143 0.80430
 H1577 H 0.48671 0.20758 0.76541
 H1578 H 0.45388 0.19499 0.78108
 H1579 H 0.47067 0.27078 0.78284
 H1580 H 0.48617 0.30022 0.74430
 H1581 H 0.45400 0.31217 0.72676
 H1582 H 0.44106 0.24897 0.70692
 H1583 H 0.47323 0.23690 0.72491
 H1584 H 0.52950 0.28500 0.76804
 H1585 H 0.56167 0.30115 0.75387
 H1586 H 0.54946 0.27324 0.69305
 H1587 H 0.51730 0.25734 0.70711
 H1588 H 0.43774 0.25811 0.79892
 C1589 C -0.00137 0.24426 0.74163
 C1590 C -0.00151 0.25557 0.75981
 C1591 C -0.02128 0.26325 0.76949
 C1592 C 0.01825 0.26180 0.77038
 C1593 C 0.01849 0.23721 0.73180
 C1594 C -0.02100 0.23756 0.73107
 C1595 C -0.03483 0.27656 0.75823
 C1596 C -0.05297 0.28439 0.76785
 C1597 C -0.05782 0.27898 0.78890
 C1598 C -0.04440 0.26553 0.80002
 C1599 C -0.02616 0.25787 0.79048
 C1600 C 0.02370 0.28301 0.77105
 C1601 C 0.04232 0.28929 0.78071
 C1602 C 0.05570 0.27444 0.79019
 C1603 C 0.05000 0.25326 0.78995
 C1604 C 0.03144 0.24692 0.77997
 C1605 C 0.02342 0.21584 0.73172
 C1606 C 0.04189 0.20881 0.72222
 C1607 C 0.05557 0.22307 0.71232
 C1608 C 0.05050 0.24442 0.71218
 C1609 C 0.03212 0.25151 0.72200
 C1610 C -0.03543 0.22471 0.74167
 C1611 C -0.05349 0.21779 0.73133
 C1612 C -0.05741 0.22365 0.71019
 C1613 C -0.04308 0.23663 0.69970
 C1614 C -0.02488 0.24339 0.70999
 H1615 H -0.03119 0.28109 0.74211
 H1616 H -0.06312 0.29472 0.75889
 H1617 H -0.04793 0.26127 0.81624
 H1618 H -0.01583 0.24771 0.79945
 H1619 H 0.01362 0.29469 0.76384
 H1620 H 0.04623 0.30578 0.78082
 H1621 H 0.02731 0.23048 0.77975
 H1622 H 0.01298 0.20463 0.73913
 H1623 H 0.04535 0.19222 0.72241
 H1624 H 0.06085 0.25556 0.70456
 H1625 H 0.02840 0.26805 0.72179
 H1626 H -0.03253 0.21980 0.75783
 H1627 H -0.06429 0.20775 0.73982
 H1628 H -0.04583 0.24119 0.68341
 H1629 H -0.01382 0.25320 0.70153
 H1630 H 0.06010 0.24165 0.79721
 C1631 C 0.50174 0.24059 0.24226
 C1632 C 0.50168 0.25243 0.26005
 C1633 C 0.48186 0.25972 0.26971
 C1634 C 0.52132 0.25936 0.27033
 C1635 C 0.52139 0.23272 0.23265
 C1636 C 0.48201 0.23423 0.23186
 C1637 C 0.47698 0.28110 0.26936
 C1638 C 0.45837 0.28829 0.27843
 C1639 C 0.44452 0.27417 0.28829
 C1640 C 0.44957 0.25283 0.28890
 C1641 C 0.46809 0.24559 0.27953
 C1642 C 0.53571 0.27195 0.25937
 C1643 C 0.55373 0.27919 0.26954
 C1644 C 0.55762 0.27388 0.29083
 C1645 C 0.54338 0.26108 0.30164
 C1646 C 0.52522 0.25403 0.29154
 C1647 C 0.53485 0.21938 0.24398
 C1648 C 0.55285 0.21129 0.23431
 C1649 C 0.55757 0.21652 0.21320
 C1650 C 0.54421 0.22995 0.20203
 C1651 C 0.52614 0.23786 0.21159
 C1652 C 0.47645 0.21304 0.23170
 C1653 C 0.45799 0.20662 0.22186
 C1654 C 0.44495 0.22132 0.21173
 C1655 C 0.45070 0.24247 0.21157
 C1656 C 0.46909 0.24896 0.22171
 H1657 H 0.48752 0.29218 0.26189
 H1658 H 0.45489 0.30487 0.27789
 H1659 H 0.43906 0.24182 0.29650
 H1660 H 0.47177 0.22904 0.28003
 H1661 H 0.53280 0.27644 0.24309
 H1662 H 0.56452 0.28905 0.26081
 H1663 H 0.51416 0.24443 0.30024
 H1664 H 0.53125 0.21504 0.26016
 H1665 H 0.56298 0.20094 0.24327
 H1666 H 0.54769 0.23406 0.18576
 H1667 H 0.51584 0.24803 0.20259
 H1668 H 0.48636 0.20150 0.23935
 H1669 H 0.45401 0.19015 0.22203
 H1670 H 0.44084 0.25393 0.20374
 H1671 H 0.47335 0.26537 0.22152
 H1672 H 0.54613 0.25696 0.31804
 C1673 C 0.99971 0.76043 0.74445
 C1674 C 0.99886 0.74586 0.76012
 C1675 C 1.01812 0.73771 0.77025
 C1676 C 0.97862 0.73767 0.76823
 C1677 C 0.98051 0.76769 0.73353
 C1678 C 1.01977 0.77016 0.73773
 C1679 C 1.03300 0.72654 0.75842
 C1680 C 1.05086 0.71841 0.76829
 C1681 C 1.05409 0.72153 0.79008
 C1682 C 1.03935 0.73291 0.80176
 C1683 C 1.02134 0.74077 0.79198
 C1684 C 0.97408 0.71623 0.76668
 C1685 C 0.95530 0.70828 0.77488
 C1686 C 0.94101 0.72166 0.78508
 C1687 C 0.94564 0.74302 0.78672
 C1688 C 0.96426 0.75102 0.77826
 C1689 C 0.97476 0.78883 0.73467
 C1690 C 0.95645 0.79585 0.72486
 C1691 C 0.94380 0.78184 0.71347
 C1692 C 0.94985 0.76082 0.71183
 C1693 C 0.96806 0.75372 0.72190
 C1694 C 1.03178 0.78205 0.75192
 C1695 C 1.05030 0.79175 0.74512
 C1696 C 1.05712 0.78955 0.72416
 C1697 C 1.04502 0.77766 0.70996
 C1698 C 1.02642 0.76820 0.71667
 H1699 H 1.03065 0.72395 0.74165
 H1700 H 1.06211 0.70974 0.75891
 H1701 H 1.04168 0.73540 0.81854
 H1702 H 1.00997 0.74935 0.80129
 H1703 H 0.98507 0.70570 0.75911
 H1704 H 0.95214 0.69169 0.77360
 H1705 H 0.96765 0.76756 0.77982
 H1706 H 0.98431 0.79981 0.74344
 H1707 H 0.95224 0.81222 0.72610
 H1708 H 0.94032 0.74992 0.70294
 H1709 H 0.97246 0.73739 0.72064
 H1710 H 1.02668 0.78400 0.76815
 H1711 H 1.05939 0.80093 0.75620
 H1712 H 1.04983 0.77585 0.69363
 H1713 H 1.01724 0.75925 0.70547
 H1714 H 0.93482 0.75345 0.79466
 C1715 C 0.49889 0.75636 0.24013
 C1716 C 0.49959 0.74208 0.25605
 C1717 C 0.51961 0.73289 0.26346
 C1718 C 0.48024 0.73440 0.26640
 C1719 C 0.47873 0.76421 0.23161
 C1720 C 0.51821 0.76454 0.23015
 C1721 C 0.53216 0.72096 0.24977
 C1722 C 0.55066 0.71175 0.25717
 C1723 C 0.55690 0.71444 0.27823
 C1724 C 0.54434 0.72642 0.29193
 C1725 C 0.52574 0.73544 0.28461
 C1726 C 0.47492 0.71318 0.26489
 C1727 C 0.45649 0.70576 0.27417
 C1728 C 0.44332 0.71945 0.28540
 C1729 C 0.44890 0.74056 0.28732
 C1730 C 0.46721 0.74806 0.27777
 C1731 C 0.47378 0.78555 0.23313
 C1732 C 0.45492 0.79315 0.22485
 C1733 C 0.44095 0.77950 0.21463
 C1734 C 0.44603 0.75825 0.21293
 C1735 C 0.46475 0.75059 0.22145
 C1736 C 0.53291 0.77584 0.24203
 C1737 C 0.55088 0.78389 0.23231
 C1738 C 0.55439 0.78059 0.21058
 C1739 C 0.53983 0.76909 0.19883
 C1740 C 0.52173 0.76129 0.20849
 H1741 H 0.52747 0.71859 0.23348
 H1742 H 0.56016 0.70247 0.24650
 H1743 H 0.54876 0.72861 0.30832
 H1744 H 0.51614 0.74448 0.29539
 H1745 H 0.48491 0.70244 0.25627
 H1746 H 0.45262 0.68933 0.27270
 H1747 H 0.47125 0.76446 0.27926
 H1748 H 0.48450 0.79626 0.24081
 H1749 H 0.45141 0.80968 0.22615
 H1750 H 0.43544 0.74763 0.20497
 H1751 H 0.46847 0.73412 0.21994
 H1752 H 0.53034 0.77858 0.25875
 H1753 H 0.56200 0.79262 0.24173
 H1754 H 0.54238 0.76645 0.18211
 H1755 H 0.51051 0.75260 0.19911
 H1756 H 0.43894 0.75122 0.29606
 C1757 C 0.00131 0.74654 0.23863
 C1758 C 0.00051 0.76049 0.25478
 C1759 C -0.01960 0.76961 0.26216
 C1760 C 0.01982 0.76774 0.26547
 C1761 C 0.02151 0.73961 0.22933
 C1762 C -0.01797 0.73749 0.22937
 C1763 C -0.03221 0.78141 0.24834
 C1764 C -0.05061 0.79086 0.25571
 C1765 C -0.05676 0.78851 0.27686
 C1766 C -0.04419 0.77657 0.29067
 C1767 C -0.02566 0.76735 0.28338
 C1768 C 0.02511 0.78902 0.26498
 C1769 C 0.04343 0.79602 0.27476
 C1770 C 0.05652 0.78182 0.28551
 C1771 C 0.05096 0.76064 0.28644
 C1772 C 0.03278 0.75357 0.27636
 C1773 C 0.02670 0.71829 0.22942
 C1774 C 0.04532 0.71144 0.22008
 C1775 C 0.05892 0.72579 0.21018
 C1776 C 0.05358 0.74706 0.20984
 C1777 C 0.03504 0.75398 0.21945
 C1778 C -0.03194 0.72579 0.24189
 C1779 C -0.04971 0.71670 0.23278
 C1780 C -0.05371 0.71932 0.21105
 C1781 C -0.03980 0.73103 0.19865
 C1782 C -0.02193 0.73988 0.20767
 H1783 H -0.02760 0.78357 0.23198
 H1784 H -0.06009 0.80008 0.24494
 H1785 H -0.04852 0.77461 0.30712
 H1786 H -0.01605 0.75841 0.29428
 H1787 H 0.01517 0.80016 0.25678
 H1788 H 0.04729 0.81250 0.27405
 H1789 H 0.02875 0.73712 0.27711
 H1790 H 0.01634 0.70698 0.23678
 H1791 H 0.04896 0.69489 0.22041
 H1792 H 0.06385 0.75827 0.20220
 H1793 H 0.03108 0.77046 0.21895
 H1794 H -0.02894 0.72355 0.25861
 H1795 H -0.06031 0.70774 0.24266
 H1796 H -0.04276 0.73313 0.18190
 H1797 H -0.01123 0.74873 0.19777
 H1798 H 0.06085 0.74958 0.29480
 C1799 C 0.49893 0.74348 0.74349
 C1800 C 0.49685 0.75875 0.75840
 C1801 C 0.47595 0.76791 0.76373
 C1802 C 0.51551 0.76693 0.76969
 C1803 C 0.51973 0.73629 0.73576
 C1804 C 0.48048 0.73371 0.73326
 C1805 C 0.46251 0.77494 0.74759
 C1806 C 0.44197 0.78093 0.75222
 C1807 C 0.43477 0.78115 0.77313
 C1808 C 0.44854 0.77568 0.78958
 C1809 C 0.46902 0.76896 0.78488
 C1810 C 0.52102 0.78811 0.76782
 C1811 C 0.53946 0.79555 0.77717
 C1812 C 0.55240 0.78192 0.78885
 C1813 C 0.54649 0.76095 0.79128
 C1814 C 0.52825 0.75345 0.78168
 C1815 C 0.52499 0.71499 0.73693
 C1816 C 0.54368 0.70769 0.72801
 C1817 C 0.55724 0.72157 0.71745
 C1818 C 0.55198 0.74284 0.71627
 C1819 C 0.53340 0.75021 0.72545
 C1820 C 0.46594 0.72207 0.74512
 C1821 C 0.44847 0.71319 0.73521
 C1822 C 0.44529 0.71608 0.71337
 C1823 C 0.45985 0.72763 0.70161
 C1824 C 0.47748 0.73616 0.71139
 H1825 H 0.46770 0.77515 0.73128
 H1826 H 0.43153 0.78528 0.73943
 H1827 H 0.44316 0.77562 0.80584
 H1828 H 0.47917 0.76383 0.79763
 H1829 H 0.51134 0.79872 0.75866
 H1830 H 0.54361 0.81187 0.77526
 H1831 H 0.52415 0.73708 0.78340
 H1832 H 0.51447 0.70398 0.74452
 H1833 H 0.54727 0.69114 0.72889
 H1834 H 0.56219 0.75367 0.70801
 H1835 H 0.52938 0.76662 0.72397
 H1836 H 0.46814 0.71994 0.76198
 H1837 H 0.43734 0.70437 0.74461
 H1838 H 0.45750 0.73000 0.68479
 H1839 H 0.48856 0.74510 0.70203
 H1840 H 0.55627 0.75033 0.80031
 N1841 N 0.41837 0.29954 0.29424
 N1842 N 0.42540 0.28124 0.29781
 N1843 N 0.40624 0.79564 0.79171
 N1844 N 0.41298 0.78523 0.77677
 N1845 N -0.08690 0.30189 0.79134
 N1846 N -0.07598 0.28722 0.79941
 N1847 N -0.08334 0.79459 0.30216
 N1848 N -0.07552 0.79863 0.28408
 N1849 N 0.58358 0.70856 0.30352
 N1850 N 0.57581 0.70463 0.28542
 N1851 N 0.58596 0.19970 0.79421
 N1852 N 0.57500 0.21404 0.80273
 N1853 N 1.08364 0.69933 0.79209
 N1854 N 1.07202 0.71307 0.80071
 N1855 N 1.08407 0.20770 0.30312
 N1856 N 1.07668 0.20367 0.28487
 N1857 N 0.58417 0.29398 0.69661
 N1858 N 0.57653 0.29829 0.71469
 N1859 N 0.58399 0.80270 0.20873
 N1860 N 0.57244 0.78895 0.20009
 N1861 N 1.08376 0.30371 0.20946
 N1862 N 1.07186 0.29046 0.20048
 N1863 N 1.08449 0.79515 0.69975
 N1864 N 1.07618 0.79954 0.71750
 N1865 N 0.41527 0.69426 0.71110
 N1866 N 0.42724 0.70791 0.70278
 N1867 N 0.41829 0.19688 0.20503
 N1868 N 0.42594 0.21494 0.20157
 N1869 N -0.08364 0.69723 0.21027
 N1870 N -0.07185 0.71056 0.20117
 N1871 N -0.08670 0.20156 0.70687
 N1872 N -0.07544 0.21606 0.69902
 N1873 N 0.30159 0.41556 0.29670
 N1874 N 0.28567 0.42554 0.30342
 N1875 N 0.30016 -0.09159 0.78668
 N1876 N 0.29068 -0.08446 0.77127
 N1877 N 0.78925 0.40903 0.79477
 N1878 N 0.77416 0.41587 0.78475
 N1879 N 0.79632 -0.09297 0.29030
 N1880 N 0.78228 -0.08625 0.27875
 N1881 N 0.29069 0.58484 0.69702
 N1882 N 0.29955 0.57296 0.71049
 N1883 N 0.30051 1.08331 0.20233
 N1884 N 0.28220 1.07612 0.19914
 N1885 N 0.79244 0.58598 0.19804
 N1886 N 0.79654 0.57770 0.21588
 N1887 N 0.80134 1.08139 0.70640
 N1888 N 0.78366 1.07338 0.70186
 N1889 N 0.69540 0.58555 0.28995
 N1890 N 0.70878 0.57362 0.29878
 N1891 N 0.70803 1.09136 0.79301
 N1892 N 0.72221 1.08408 0.78200
 N1893 N 0.20228 0.58513 0.79482
 N1894 N 0.22021 0.57754 0.79922
 N1895 N 0.19432 1.08342 0.29193
 N1896 N 0.21231 1.07556 0.29555
 N1897 N 0.69490 0.41824 0.70696
 N1898 N 0.71279 0.42604 0.70273
 N1899 N 0.70208 -0.08243 0.20366
 N1900 N 0.72001 -0.07479 0.19936
 N1901 N 0.20866 0.41428 0.19720
 N1902 N 0.20396 0.42297 0.21467
 N1903 N 0.20032 -0.08197 0.70102
 N1904 N 0.19664 -0.07449 0.71927
 N1905 N 0.30032 0.29193 0.41392
 N1906 N 0.28691 0.30054 0.42602
 N1907 N 0.29303 0.80256 -0.08588
 N1908 N 0.30062 0.78775 -0.07476
 N1909 N 0.79775 0.30364 -0.08298
 N1910 N 0.80032 0.28488 -0.07674
 N1911 N 0.79446 0.80583 0.41741
 N1912 N 0.79768 0.78747 0.42454
 N1913 N 0.70925 0.30437 0.58450
 N1914 N 0.70356 0.28752 0.57549
 N1915 N 0.69760 0.79525 1.08544
 N1916 N 0.71543 0.79902 1.07724
 N1917 N 0.19331 0.29262 1.08244
 N1918 N 0.21155 0.29582 1.07491
 N1919 N 0.20502 0.80276 0.58262
 N1920 N 0.20139 0.78460 0.57533
 N1921 N 0.30368 0.71023 0.58568
 N1922 N 0.28980 0.70182 0.57403
 N1923 N 0.30225 0.20603 1.08332
 N1924 N 0.28430 0.20229 1.07539
 N1925 N 0.80626 0.70832 1.08384
 N1926 N 0.78818 0.70442 1.07634
 N1927 N 0.79421 0.19727 0.58443
 N1928 N 0.79851 0.21493 0.57616
 N1929 N 0.70723 0.69419 0.41667
 N1930 N 0.70394 0.71238 0.42408
 N1931 N 0.70454 0.19608 -0.08300
 N1932 N 0.70194 0.21456 -0.07600
 N1933 N 0.19706 0.70430 -0.08397
 N1934 N 0.21500 0.70040 -0.07609
 N1935 N 0.20839 0.19571 0.41619
 N1936 N 0.20392 0.21334 0.42436
 N1937 N 0.29346 0.41568 0.69704
 N1938 N 0.29758 0.42315 0.71521
 N1939 N 0.29292 0.91852 0.19250
 N1940 N 0.29623 0.92611 0.21079
 N1941 N 0.80216 0.41876 0.20528
 N1942 N 0.78405 0.42646 0.20195
 N1943 N 0.79151 0.91629 0.69619
 N1944 N 0.79493 0.92390 0.71444
 N1945 N 0.70715 0.58457 0.69581
 N1946 N 0.70401 0.57684 0.71411
 N1947 N 0.71222 0.08416 0.19682
 N1948 N 0.70751 0.07526 0.21421
 N1949 N 0.19909 0.58239 0.20736
 N1950 N 0.21514 0.57236 0.20098
 N1951 N 0.19795 0.08260 0.70472
 N1952 N 0.21625 0.07505 0.70230
 N1953 N 0.29167 0.58397 0.30336
 N1954 N 0.29721 0.57421 0.28675
 N1955 N 0.30424 0.08030 0.79508
 N1956 N 0.28630 0.07259 0.79918
 N1957 N 0.79349 0.58188 0.80600
 N1958 N 0.79779 0.57378 0.78814
 N1959 N 0.80626 0.08251 0.29193
 N1960 N 0.79108 0.07172 0.29918
 N1961 N 0.69812 0.41692 0.29326
 N1962 N 0.71613 0.42446 0.29723
 N1963 N 0.70540 0.91612 0.80607
 N1964 N 0.70117 0.92455 0.78831
 N1965 N 0.19742 0.41697 0.79147
 N1966 N 0.21124 0.42826 0.80037
 N1967 N 0.20700 0.91724 0.30443
 N1968 N 0.20310 0.92483 0.28622
 N1969 N 0.41802 0.30574 0.70894
 N1970 N 0.42618 0.28792 0.70534
 N1971 N 0.41451 0.80503 0.20901
 N1972 N 0.42185 0.78687 0.20534
 N1973 N 0.91562 0.30045 0.20309
 N1974 N 0.92264 0.28214 0.19960
 N1975 N 0.91659 0.80627 0.70777
 N1976 N 0.92485 0.78866 0.70346
 N1977 N 0.58633 0.29668 0.29394
 N1978 N 0.57550 0.28192 0.30187
 N1979 N 0.58006 0.80631 0.79358
 N1980 N 0.57158 0.78888 0.79831
 N1981 N 0.08280 0.29863 0.79566
 N1982 N 0.07514 0.28069 0.79972
 N1983 N 0.08344 0.80640 0.29174
 N1984 N 0.07538 0.78860 0.29567
 N1985 N 0.58338 0.69612 0.71051
 N1986 N 0.57593 0.71432 0.70716
 N1987 N 0.58704 0.19399 0.21061
 N1988 N 0.57565 0.20833 0.20265
 N1989 N 0.08522 0.70074 0.20411
 N1990 N 0.07806 0.71897 0.20043
 N1991 N 0.08156 0.19775 0.70551
 N1992 N 0.07449 0.21610 0.70227
 N1993 N 0.41656 0.69443 0.29086
 N1994 N 0.42443 0.71220 0.29519
 N1995 N 0.41716 0.20033 0.79686
 N1996 N 0.42402 0.21867 0.80045
 N1997 N 0.91501 0.69565 0.79091
 N1998 N 0.92213 0.71389 0.79458
 N1999 N 0.91457 0.20881 0.30174
 N2000 N 0.92679 0.19999 0.28856
 N2001 N 0.30486 0.29164 0.58468
 N2002 N 0.28667 0.29549 0.57735
 N2003 N 0.30175 0.78970 0.08560
 N2004 N 0.28866 0.79799 0.07291
 N2005 N 0.79134 0.30012 0.08616
 N2006 N 0.80005 0.28665 0.07423
 N2007 N 0.80410 0.79262 0.58378
 N2008 N 0.78626 0.79662 0.57572
 N2009 N 0.30446 0.70748 0.41543
 N2010 N 0.28629 0.70373 0.42283
 N2011 N 0.29384 0.19773 0.91452
 N2012 N 0.29757 0.21560 0.92250
 N2013 N 0.80255 0.70936 0.91538
 N2014 N 0.78614 0.70346 0.92521
 N2015 N 0.79044 0.19619 0.41495
 N2016 N 0.79586 0.21316 0.42389
 N2017 N 0.70584 0.30187 0.41548
 N2018 N 0.70136 0.28439 0.42402
 N2019 N 0.69457 0.78936 0.91581
 N2020 N 0.71121 0.79535 0.92509
 N2021 N 0.20423 0.30400 0.91542
 N2022 N 0.20143 0.28565 0.92273
 N2023 N 0.19525 0.79246 0.41663
 N2024 N 0.21303 0.79648 0.42476
 N2025 N 0.69419 0.70872 0.58379
 N2026 N 0.71215 0.70458 0.57606
 N2027 N 0.69596 0.20667 0.08289
 N2028 N 0.71395 0.20286 0.07506
 N2029 N 0.20621 0.69697 0.08366
 N2030 N 0.20240 0.71485 0.07559
 N2031 N 0.19857 0.20497 0.58451
 N2032 N 0.21650 0.20131 0.57645
   
