data_POSCAR
  _audit_creation_date              2014-09-24
  _audit_creation_method            'ToBaCCo'
  _symmetry_space_group_name_H-M    'P1'
  _symmetry_Int_Tables_number       1
  _symmetry_cell_setting            triclinic
  loop_
  _symmetry_equiv_pos_as_xyz
 x,y,z
_cell_length_a 40.7010
_cell_length_b 40.7807
_cell_length_c 40.6312
_cell_angle_alpha 89.066000
_cell_angle_beta 89.049600
_cell_angle_gamma 89.049500
loop_
  _atom_site_label
  _atom_site_type_symbol
  _atom_site_fract_x
  _atom_site_fract_y
  _atom_site_fract_z
C1 C 0.10728 0.00344 0.21616
 C2 C 0.13298 0.02986 0.21546
 C3 C 0.15197 0.03050 0.24257
 C4 C 0.14364 0.00356 0.26843
 C5 C 0.12650 -0.02840 0.22167
 C6 C 0.14532 -0.02876 0.24912
 C7 C 0.08753 0.00865 0.24814
 C8 C 0.10657 0.00868 0.27564
 H9 H 0.13334 0.04922 0.19674
 H10 H 0.15939 0.00361 0.29048
 H11 H 0.12519 -0.04906 0.20521
 H12 H 0.06086 0.00921 0.24918
 C13 C 0.39960 -0.00293 0.72588
 C14 C 0.37431 -0.02982 0.72591
 C15 C 0.35316 -0.02991 0.75209
 C16 C 0.35944 -0.00167 0.77646
 C17 C 0.37976 0.02885 0.72835
 C18 C 0.35853 0.02997 0.75455
 C19 C 0.41622 -0.00641 0.75706
 C20 C 0.39419 -0.00565 0.78528
 H21 H 0.37535 -0.04952 0.70818
 H22 H 0.34187 -0.00109 0.79763
 H23 H 0.38381 0.04972 0.71188
 H24 H 0.44277 -0.00551 0.75897
 C25 C 0.89437 0.49895 0.22131
 C26 C 0.87105 0.47053 0.22379
 C27 C 0.85063 0.47065 0.25045
 C28 C 0.85554 0.50053 0.27307
 C29 C 0.87268 0.52957 0.22291
 C30 C 0.85229 0.53092 0.24980
 C31 C 0.91292 0.49825 0.25377
 C32 C 0.89264 0.49954 0.28109
 H33 H 0.87223 0.45032 0.20666
 H34 H 0.83879 0.50106 0.29490
 H35 H 0.87612 0.55031 0.20613
 H36 H 0.93952 0.49859 0.25485
 C37 C 0.60857 0.50241 0.71756
 C38 C 0.63427 0.52885 0.71674
 C39 C 0.65351 0.52945 0.74366
 C40 C 0.64554 0.50229 0.76943
 C41 C 0.62791 0.47055 0.72266
 C42 C 0.64708 0.47005 0.74990
 C43 C 0.58919 0.50741 0.74979
 C44 C 0.60853 0.50731 0.77708
 H45 H 0.63436 0.54833 0.69815
 H46 H 0.66152 0.50225 0.79131
 H47 H 0.62641 0.44999 0.70611
 H48 H 0.56253 0.50813 0.75111
 C49 C 0.21742 0.10559 1.00123
 C50 C 0.21770 0.12891 1.02978
 C51 C 0.24442 0.14828 1.03052
 C52 C 0.26921 0.14245 1.00192
 C53 C 0.22124 0.12735 0.97068
 C54 C 0.24847 0.14641 0.97061
 C55 C 0.24970 0.08598 1.00349
 C56 C 0.27694 0.10527 1.00362
 H57 H 0.19942 0.12819 1.04959
 H58 H 0.29107 0.15835 1.00234
 H59 H 0.20446 0.12676 0.95019
 H60 H 0.25081 0.05938 1.00386
 C61 C 0.72124 0.39434 0.99698
 C62 C 0.72379 0.37232 0.96954
 C63 C 0.75202 0.35121 0.96969
 C64 C 0.77322 0.35619 0.99840
 C65 C 0.72290 0.37354 1.02623
 C66 C 0.75128 0.35232 1.02749
 C67 C 0.75186 0.41244 0.99631
 C68 C 0.78093 0.39149 0.99764
 H69 H 0.70691 0.37331 0.94903
 H70 H 0.79509 0.33953 0.99874
 H71 H 0.70646 0.37684 1.04735
 H72 H 0.75260 0.43904 0.99590
 C73 C 0.22238 0.89928 0.49950
 C74 C 0.22522 0.87615 0.47080
 C75 C 0.25210 0.85612 0.47081
 C76 C 0.27467 0.86124 0.50072
 C77 C 0.22448 0.87749 0.53014
 C78 C 0.25161 0.85751 0.53128
 C79 C 0.25460 0.91829 0.49883
 C80 C 0.28221 0.89840 0.49988
 H81 H 0.20787 0.87682 0.45073
 H82 H 0.29670 0.84482 0.50110
 H83 H 0.20767 0.88042 0.55099
 H84 H 0.25534 0.94485 0.49945
 C85 C 0.71802 0.60647 0.50088
 C86 C 0.71829 0.62979 0.52942
 C87 C 0.74502 0.64909 0.53027
 C88 C 0.76987 0.64324 0.50178
 C89 C 0.72197 0.62825 0.47035
 C90 C 0.74925 0.64727 0.47041
 C91 C 0.75027 0.58680 0.50322
 C92 C 0.77754 0.60605 0.50346
 H93 H 0.69995 0.62912 0.54918
 H94 H 0.79176 0.65910 0.50229
 H95 H 0.70511 0.62788 0.44991
 H96 H 0.75135 0.56020 0.50344
 C97 C 0.00353 0.21609 0.10534
 C98 C 0.03020 0.21516 0.13087
 C99 C 0.03087 0.24186 0.15030
 C100 C 0.00360 0.26759 0.14258
 C101 C -0.02827 0.22105 0.12494
 C102 C -0.02869 0.24813 0.14423
 C103 C 0.00837 0.24823 0.08603
 C104 C 0.00840 0.27533 0.10550
 H105 H 0.04971 0.19662 0.13078
 H106 H 0.00366 0.28932 0.15868
 H107 H -0.04884 0.20454 0.12350
 H108 H 0.00868 0.24967 0.05932
 C109 C -0.00666 0.72124 0.39496
 C110 C -0.03154 0.72177 0.37033
 C111 C -0.03143 0.74977 0.34899
 C112 C -0.00493 0.77262 0.35601
 C113 C 0.02574 0.72460 0.37614
 C114 C 0.02711 0.75129 0.35560
 C115 C -0.01080 0.75370 0.41333
 C116 C -0.00960 0.78090 0.39292
 H117 H -0.05154 0.70438 0.37067
 H118 H -0.00410 0.79428 0.33913
 H119 H 0.04680 0.70848 0.38057
 H120 H -0.01078 0.75509 0.43999
 C121 C 0.49601 0.22045 0.89747
 C122 C 0.46909 0.22217 0.87224
 C123 C 0.46973 0.24885 0.85192
 C124 C 0.49865 0.27204 0.85871
 C125 C 0.52794 0.22283 0.87776
 C126 C 0.52974 0.24955 0.85736
 C127 C 0.49322 0.25282 0.91598
 C128 C 0.49486 0.28005 0.89572
 H129 H 0.44894 0.20498 0.87259
 H130 H 0.49973 0.29379 0.84195
 H131 H 0.54860 0.20608 0.88167
 H132 H 0.49316 0.25402 0.94264
 C133 C 0.50281 0.71838 0.60627
 C134 C 0.52859 0.71651 0.63272
 C135 C 0.52962 0.74314 0.65220
 C136 C 0.50340 0.76968 0.64378
 C137 C 0.47059 0.72434 0.62486
 C138 C 0.47047 0.75130 0.64432
 C139 C 0.50935 0.75046 0.58727
 C140 C 0.50957 0.77747 0.60692
 H141 H 0.54769 0.69755 0.63292
 H142 H 0.50364 0.79133 0.65998
 H143 H 0.44970 0.70826 0.62304
 H144 H 0.51063 0.75198 0.56058
 C145 C 0.89249 1.00204 0.78101
 C146 C 0.87085 1.03028 0.77810
 C147 C 0.85023 1.03006 0.74984
 C148 C 0.85464 1.00063 0.72988
 C149 C 0.87015 0.97271 0.78086
 C150 C 0.85022 0.97147 0.75451
 C151 C 0.91168 1.00047 0.74826
 C152 C 0.89186 0.99989 0.72126
 H153 H 0.87189 1.05105 0.79447
 H154 H 0.83834 0.99969 0.70830
 H155 H 0.87180 0.95293 0.79906
 H156 H 0.93831 1.00047 0.74672
 C157 C 0.39421 0.50010 0.28222
 C158 C 0.37428 0.53150 0.27674
 C159 C 0.35484 0.53116 0.24971
 C160 C 0.35671 0.49854 0.23081
 C161 C 0.36901 0.47320 0.28383
 C162 C 0.34946 0.47175 0.25723
 C163 C 0.41335 0.49482 0.24993
 C164 C 0.39374 0.49400 0.22287
 H165 H 0.37554 0.55236 0.29293
 H166 H 0.34051 0.49787 0.20913
 H167 H 0.36941 0.45410 0.30282
 H168 H 0.44000 0.49459 0.24833
 C169 C 0.60339 1.00548 0.27958
 C170 C 0.62415 0.97419 0.27695
 C171 C 0.64461 0.97323 0.25000
 C172 C 0.64213 1.00461 0.22780
 C173 C 0.62624 1.03182 0.27807
 C174 C 0.64760 1.03203 0.25013
 C175 C 0.58471 1.00750 0.24713
 C176 C 0.60493 1.00644 0.21968
 H177 H 0.62035 0.95313 0.29322
 H178 H 0.65886 1.00433 0.20594
 H179 H 0.62543 1.05181 0.29549
 H180 H 0.55811 1.00694 0.24614
 C181 C 0.10316 0.50235 0.77761
 C182 C 0.12363 0.47091 0.77538
 C183 C 0.14407 0.46941 0.74853
 C184 C 0.14203 0.50033 0.72590
 C185 C 0.12764 0.52983 0.77580
 C186 C 0.14809 0.52944 0.74915
 C187 C 0.08473 0.50451 0.74512
 C188 C 0.10499 0.50294 0.71783
 H189 H 0.11964 0.45009 0.79192
 H190 H 0.15878 0.49961 0.70408
 H191 H 0.12707 0.54980 0.79321
 H192 H 0.05811 0.50489 0.74399
 C193 C 0.78206 0.89516 -0.00075
 C194 C 0.77684 0.87448 0.03032
 C195 C 0.74974 0.85524 0.02967
 C196 C 0.73063 0.85797 -0.00280
 C197 C 0.78337 0.87077 -0.02839
 C198 C 0.75683 0.85131 -0.02997
 C199 C 0.74991 0.91448 -0.00531
 C200 C 0.72282 0.89504 -0.00608
 H201 H 0.79276 0.87568 0.05145
 H202 H 0.70891 0.84192 -0.00378
 H203 H 0.80240 0.87125 -0.04749
 H204 H 0.74866 0.94108 -0.00585
 C205 C 0.28265 0.39505 0.49986
 C206 C 0.27738 0.37401 0.53071
 C207 C 0.25031 0.35474 0.52981
 C208 C 0.23125 0.35782 0.49732
 C209 C 0.28400 0.37096 0.47192
 C210 C 0.25749 0.35146 0.47015
 C211 C 0.25044 0.41437 0.49544
 C212 C 0.22338 0.39491 0.49438
 H213 H 0.29339 0.37483 0.55179
 H214 H 0.20955 0.34176 0.49614
 H215 H 0.30307 0.37159 0.45287
 H216 H 0.24916 0.44097 0.49490
 C217 C 0.27728 0.59875 0.00439
 C218 C 0.27554 0.61964 -0.02690
 C219 C 0.24911 0.64045 -0.02836
 C220 C 0.22618 0.63837 0.00247
 C221 C 0.27548 0.62282 0.03235
 C222 C 0.24924 0.64370 0.03200
 C223 C 0.24445 0.58080 0.00598
 C224 C 0.21744 0.60150 0.00480
 H225 H 0.29239 0.61604 -0.04761
 H226 H 0.20470 0.65548 0.00174
 H227 H 0.29268 0.62177 0.05255
 H228 H 0.24280 0.55429 0.00521
 C229 C 0.77921 0.10543 0.50116
 C230 C 0.77714 0.12565 0.47155
 C231 C 0.74869 0.14683 0.47033
 C232 C 0.72717 0.14349 0.49986
 C233 C 0.77708 0.12802 0.52813
 C234 C 0.74880 0.14902 0.52817
 C235 C 0.74857 0.08731 0.50260
 C236 C 0.71954 0.10824 0.50141
 H237 H 0.79335 0.12202 0.45032
 H238 H 0.70522 0.16007 0.49951
 H239 H 0.79408 0.12715 0.54855
 H240 H 0.74780 0.06072 0.50273
 C241 C 0.99959 0.78036 0.89615
 C242 C 1.03121 0.77494 0.87642
 C243 C 1.03091 0.74827 0.85659
 C244 C 0.99813 0.72965 0.85785
 C245 C 0.97289 0.78239 0.87067
 C246 C 0.97158 0.75625 0.85061
 C247 C 0.99395 0.74796 0.91486
 C248 C 0.99321 0.72124 0.89481
 H249 H 1.05220 0.79091 0.87810
 H250 H 0.99751 0.70828 0.84130
 H251 H 0.95390 0.80146 0.87103
 H252 H 0.99363 0.74601 0.94154
 C253 C 0.50057 0.28243 0.39605
 C254 C 0.53185 0.27697 0.37570
 C255 C 0.53132 0.24997 0.35629
 C256 C 0.49865 0.23117 0.35851
 C257 C 0.47331 0.28397 0.37113
 C258 C 0.47178 0.25754 0.35146
 C259 C 0.49555 0.25026 0.41527
 C260 C 0.49455 0.22328 0.39567
 H261 H 0.55281 0.29302 0.37684
 H262 H 0.49780 0.20956 0.34231
 H263 H 0.45430 0.30302 0.37150
 H264 H 0.49585 0.24867 0.44197
 C265 C 1.00093 0.27712 0.60025
 C266 C 0.97026 0.27534 0.62206
 C267 C 0.96918 0.24858 0.64255
 C268 C 0.99980 0.22569 0.63933
 C269 C 1.02949 0.27492 0.62354
 C270 C 1.02951 0.24851 0.64416
 C271 C 1.00183 0.24472 0.58177
 C272 C 1.00075 0.21758 0.60219
 H273 H 0.94933 0.29186 0.61860
 H274 H 0.99949 0.20397 0.65616
 H275 H 1.04955 0.29220 0.62238
 H276 H 1.00114 0.24358 0.55514
 C277 C 0.50041 0.77624 0.10283
 C278 C 0.46895 0.77329 0.12320
 C279 C 0.46822 0.74677 0.14396
 C280 C 0.49990 0.72514 0.14240
 C281 C 0.52784 0.77558 0.12750
 C282 C 0.52825 0.74932 0.14833
 C283 C 0.50367 0.74365 0.08475
 C284 C 0.50319 0.71665 0.10542
 H285 H 0.44776 0.78939 0.11937
 H286 H 0.49972 0.70363 0.15950
 H287 H 0.54741 0.79342 0.12665
 H288 H 0.50299 0.74204 0.05813
 O289 O -0.01507 0.98182 0.90574
 O290 O 0.04136 0.99187 0.90522
 O291 O -0.01643 0.90641 0.98670
 O292 O -0.01118 0.90423 1.03948
 O293 O -0.09322 0.98644 0.98187
 O294 O -0.09261 1.04239 0.99306
 O295 O 0.06240 0.99409 1.07065
 O296 O 0.06685 0.94076 1.04738
 O297 O 0.07284 1.06024 0.99265
 O298 O 0.04640 1.06804 0.93859
 O299 O -0.00380 1.07198 1.05988
 O300 O -0.05762 1.04670 1.06894
 O301 O 0.01619 1.01933 1.09079
 O302 O -0.04211 1.00619 1.09156
 O303 O 0.02013 1.09164 1.01273
 O304 O 0.00675 1.09159 0.95485
 O305 O 0.09286 1.01377 1.01739
 O306 O 0.09421 0.95833 1.00410
 O307 O -0.06147 1.00668 0.92594
 O308 O -0.06796 1.05886 0.95162
 O309 O -0.07335 0.93947 1.00574
 O310 O -0.04671 0.93550 1.06019
 O311 O 0.00527 0.92588 0.93838
 O312 O 0.05766 0.95093 0.92999
 Zr313 Zr 0.01462 0.97537 0.94717
 O314 O 0.04591 1.00448 0.97441
 Zr315 Zr -0.02385 0.94856 1.01473
 O316 O 0.00618 0.97596 1.04501
 Zr317 Zr -0.05148 1.01523 0.97540
 O318 O -0.02321 1.04578 1.00421
 Zr319 Zr 0.05175 0.98381 1.02166
 O320 O 0.02338 0.95252 0.99311
 Zr321 Zr 0.02368 1.05049 0.98258
 O322 O -0.00592 1.02282 0.95163
 Zr323 Zr -0.01467 1.02313 1.05014
 O324 O -0.04669 0.99439 1.02276
 O325 O -0.03187 0.96839 0.96793
 O326 O 0.03199 1.03069 1.02953
 C327 C -0.04365 0.99501 0.90249
 C328 C -0.00505 0.90272 0.95742
 C329 C -0.09662 0.95773 0.99449
 C330 C 0.04511 1.00701 1.09386
 C331 C 0.09601 1.04265 1.00510
 C332 C 0.00845 1.09497 1.04194
 H333 H 0.06704 1.00640 0.96228
 H334 H -0.03487 1.06712 1.00625
 H335 H -0.04581 0.95456 0.95421
 H336 H 0.00872 0.96418 1.06631
 H337 H 0.05870 0.92193 1.03496
 H338 H 0.00845 0.90859 1.05263
 H339 H -0.01498 1.09826 0.96401
 H340 H -0.05064 1.06505 0.93540
 H341 H 0.09784 0.96478 0.98079
 H342 H 0.06414 0.93500 0.94746
 H343 H -0.06342 1.06500 1.05373
 H344 H -0.09543 1.03625 1.01660
 H345 H 0.03569 1.01542 0.90229
 H346 H 0.06522 1.05329 0.93329
 H347 H -0.06496 0.95141 1.06402
 H348 H -0.03242 0.98489 1.09872
 O349 O 0.48565 0.48279 0.40754
 O350 O 0.54190 0.49378 0.40710
 O351 O 0.48446 0.40760 0.48795
 O352 O 0.49007 0.40531 0.54091
 O353 O 0.40721 0.48695 0.48345
 O354 O 0.40738 0.54293 0.49468
 O355 O 0.56273 0.49556 0.57245
 O356 O 0.56762 0.44254 0.54921
 O357 O 0.57287 0.56193 0.49426
 O358 O 0.54593 0.56963 0.44029
 O359 O 0.49573 0.57340 0.56166
 O360 O 0.44230 0.54741 0.57077
 O361 O 0.51636 0.52041 0.59270
 O362 O 0.45818 0.50718 0.59340
 O363 O 0.51981 0.59314 0.51463
 O364 O 0.50660 0.59329 0.45708
 O365 O 0.59310 0.51559 0.51905
 O366 O 0.59469 0.46011 0.50583
 O367 O 0.43900 0.50737 0.42754
 O368 O 0.43203 0.55962 0.45328
 O369 O 0.42736 0.44011 0.50734
 O370 O 0.45393 0.43615 0.56167
 O371 O 0.50632 0.42743 0.43984
 O372 O 0.55859 0.45282 0.43192
 Zr373 Zr 0.51527 0.47687 0.44896
 O374 O 0.54625 0.50617 0.47626
 Zr375 Zr 0.47683 0.44957 0.51633
 O376 O 0.50659 0.47722 0.54670
 Zr377 Zr 0.44876 0.51610 0.47708
 O378 O 0.47677 0.54684 0.50601
 Zr379 Zr 0.55216 0.48543 0.52345
 O380 O 0.52407 0.45394 0.49483
 Zr381 Zr 0.52366 0.55200 0.48448
 O382 O 0.49430 0.52414 0.45343
 Zr383 Zr 0.48548 0.52429 0.55197
 O384 O 0.45371 0.49528 0.52445
 O385 O 0.46879 0.46946 0.46960
 O386 O 0.53212 0.53222 0.53143
 C387 C 0.45695 0.49562 0.40420
 C388 C 0.49598 0.40414 0.45866
 C389 C 0.40397 0.45819 0.49602
 C390 C 0.54533 0.50815 0.59575
 C391 C 0.59616 0.54439 0.50657
 C392 C 0.50790 0.59649 0.54375
 H393 H 0.56735 0.50824 0.46410
 H394 H 0.46495 0.56809 0.50806
 H395 H 0.45497 0.45553 0.45586
 H396 H 0.50918 0.46542 0.56797
 H397 H 0.55949 0.42362 0.53690
 H398 H 0.50934 0.40997 0.55447
 H399 H 0.48452 0.59932 0.46578
 H400 H 0.44930 0.56588 0.43702
 H401 H 0.59845 0.46680 0.48260
 H402 H 0.56500 0.43674 0.44928
 H403 H 0.43623 0.56555 0.55547
 H404 H 0.40456 0.53674 0.51820
 H405 H 0.53568 0.51718 0.40396
 H406 H 0.56496 0.55515 0.43501
 H407 H 0.43574 0.45209 0.56564
 H408 H 0.46778 0.48576 0.60030
 O409 O 0.43405 -0.06563 0.50039
 O410 O 0.46213 -0.07186 0.44860
 O411 O 0.51702 -0.07102 0.56694
 O412 O 0.56419 -0.04441 0.57137
 O413 O 0.44285 0.00346 0.57924
 O414 O 0.42973 0.05378 0.55226
 O415 O 0.59343 0.02514 0.47944
 O416 O 0.59792 -0.03176 0.49640
 O417 O 0.51336 0.02084 0.40896
 O418 O 0.45802 0.00444 0.41186
 O419 O 0.51565 0.09472 0.48223
 O420 O 0.50056 0.09452 0.54204
 O421 O 0.57027 0.06961 0.50429
 O422 O 0.54289 0.07561 0.55759
 O423 O 0.49056 0.07291 0.43825
 O424 O 0.43774 0.04166 0.43667
 O425 O 0.56269 0.00172 0.42738
 O426 O 0.57723 -0.04722 0.44993
 O427 O 0.41121 -0.02107 0.52543
 O428 O 0.40665 0.03565 0.51218
 O429 O 0.49152 -0.01775 0.59739
 O430 O 0.54631 0.00165 0.59306
 O431 O 0.49008 -0.09223 0.52373
 O432 O 0.50512 -0.09254 0.46645
 Zr433 Zr 0.48321 -0.05223 0.49108
 O434 O 0.50934 -0.02176 0.45803
 Zr435 Zr 0.52075 -0.02078 0.55464
 O436 O 0.54851 0.01119 0.52432
 Zr437 Zr 0.45024 0.01223 0.52864
 O438 O 0.47497 0.04555 0.49719
 Zr439 Zr 0.55492 -0.00903 0.47753
 O440 O 0.53046 -0.04316 0.50905
 Zr441 Zr 0.48422 0.02332 0.45172
 O442 O 0.45608 -0.00869 0.48193
 Zr443 Zr 0.52184 0.05502 0.51551
 O444 O 0.49554 0.02451 0.54908
 O445 O 0.47452 -0.03226 0.53716
 O446 O 0.53061 0.03566 0.46891
 C447 C 0.40946 -0.04968 0.51277
 C448 C 0.50437 -0.09493 0.55160
 C449 C 0.46212 -0.00700 0.60194
 C450 C 0.59483 0.05417 0.49128
 C451 C 0.54322 0.01152 0.40460
 C452 C 0.50281 0.09694 0.45361
 H453 H 0.51208 -0.03351 0.43704
 H454 H 0.46152 0.06581 0.49481
 H455 H 0.46181 -0.04693 0.55208
 H456 H 0.56977 0.01500 0.53489
 H457 H 0.59115 -0.05241 0.50758
 H458 H 0.58295 -0.03402 0.55975
 H459 H 0.43254 0.06175 0.44918
 H460 H 0.40334 0.02825 0.48941
 H461 H 0.55963 -0.06231 0.44401
 H462 H 0.52727 -0.09592 0.47578
 H463 H 0.47957 0.10078 0.53154
 H464 H 0.44760 0.06338 0.56503
 H465 H 0.44467 -0.05619 0.44157
 H466 H 0.46740 -0.01752 0.40702
 H467 H 0.53515 0.02297 0.59724
 H468 H 0.56195 0.06164 0.56388
 O469 O 0.00959 0.42570 1.06367
 O470 O 0.05966 0.45519 1.06682
 O471 O -0.06329 0.50161 1.07378
 O472 O -0.08123 0.54561 1.04838
 O473 O -0.07027 0.42939 0.99489
 O474 O -0.04197 0.42375 0.94377
 O475 O 0.01210 0.59099 0.97881
 O476 O -0.00642 0.59231 1.03363
 O477 O 0.08884 0.52082 0.97690
 O478 O 0.09256 0.46151 0.99185
 O479 O 0.01052 0.51778 0.90517
 O480 O -0.04436 0.50197 0.90606
 O481 O -0.01307 0.56972 0.93458
 O482 O -0.06602 0.53797 0.93194
 O483 O 0.05916 0.49781 0.92450
 O484 O 0.07317 0.44659 0.95044
 O485 O 0.06590 0.56516 1.00218
 O486 O 0.03772 0.57025 1.05499
 O487 O -0.01415 0.40365 1.01898
 O488 O 0.00203 0.40428 0.96151
 O489 O -0.09364 0.47351 1.02020
 O490 O -0.09663 0.53195 1.00142
 O491 O -0.01535 0.47966 1.09297
 O492 O 0.03964 0.49568 1.09065
 Zr493 Zr 0.01445 0.47559 1.05078
 O494 O 0.04300 0.50715 1.02111
 Zr495 Zr -0.05547 0.50808 1.02298
 O496 O -0.02962 0.54184 0.99282
 Zr497 Zr -0.02132 0.44370 0.98630
 O498 O 0.00518 0.47449 0.95377
 Zr499 Zr 0.01696 0.55114 1.01188
 O500 O -0.01064 0.52092 1.04458
 Zr501 Zr 0.05030 0.48682 0.97445
 O502 O 0.02522 0.45296 1.00562
 Zr503 Zr -0.01960 0.51983 0.94732
 O504 O -0.04831 0.48718 0.97647
 O505 O -0.03123 0.46374 1.03218
 O506 O 0.02651 0.53173 0.96542
 C507 C -0.00142 0.40145 1.04767
 C508 C -0.04451 0.49124 1.09692
 C509 C -0.09502 0.44486 1.00748
 C510 C -0.00062 0.59355 0.95017
 C511 C 0.09047 0.54950 0.98943
 C512 C 0.04041 0.50825 0.90140
 H513 H 0.06395 0.51065 1.03236
 H514 H 0.00821 0.46296 0.93270
 H515 H -0.04414 0.44926 1.04713
 H516 H -0.04265 0.56241 0.99052
 H517 H -0.02002 0.58387 1.05223
 H518 H -0.07002 0.56637 1.04292
 H519 H 0.05661 0.43663 0.93633
 H520 H 0.02441 0.40202 0.97056
 H521 H 0.05693 0.55638 1.06101
 H522 H 0.03027 0.51797 1.09397
 H523 H -0.03626 0.47930 0.90240
 H524 H -0.05879 0.43977 0.93602
 H525 H 0.06728 0.43966 1.04971
 H526 H 0.09917 0.47206 1.01242
 H527 H -0.10217 0.51948 0.98162
 H528 H -0.07120 0.55823 0.94418
 O529 O 0.09375 0.47868 0.50947
 O530 O 0.09402 0.53571 0.49486
 O531 O 0.02284 0.47890 0.59015
 O532 O -0.02972 0.48664 0.59837
 O533 O 0.01690 0.40528 0.50919
 O534 O 0.00146 0.40871 0.45457
 O535 O -0.07073 0.56553 0.51134
 O536 O -0.04296 0.56544 0.56249
 O537 O -0.00024 0.57460 0.43818
 O538 O 0.04909 0.54920 0.42200
 O539 O -0.06943 0.49875 0.43246
 O540 O -0.07594 0.44597 0.46059
 O541 O -0.09337 0.52152 0.48717
 O542 O -0.09384 0.46228 0.50311
 O543 O -0.02495 0.52297 0.40852
 O544 O 0.03516 0.50646 0.40406
 O545 O -0.01972 0.59360 0.48726
 O546 O -0.00002 0.59137 0.54145
 O547 O 0.07130 0.43441 0.48556
 O548 O 0.04114 0.43381 0.43429
 O549 O -0.00151 0.42403 0.55875
 O550 O -0.05435 0.45282 0.56954
 O551 O 0.06822 0.50155 0.56621
 O552 O 0.07416 0.55331 0.53862
 Zr553 Zr 0.05392 0.51129 0.51744
 O554 O 0.02355 0.54439 0.49134
 Zr555 Zr -0.01055 0.47444 0.55137
 O556 O -0.04376 0.50654 0.52731
 Zr557 Zr 0.02144 0.44803 0.48051
 O558 O -0.01093 0.47825 0.45333
 Zr559 Zr -0.02120 0.55145 0.51709
 O560 O 0.01063 0.52096 0.54512
 Zr561 Zr 0.01006 0.52451 0.44623
 O562 O 0.04427 0.49306 0.47046
 Zr563 Zr -0.05423 0.48781 0.48074
 O564 O -0.02355 0.45393 0.50629
 O565 O 0.03365 0.46552 0.52657
 O566 O -0.03428 0.53383 0.47109
 C567 C 0.09570 0.45008 0.49678
 C568 C 0.05206 0.49034 0.59120
 C569 C 0.00731 0.40110 0.53906
 C570 C -0.09508 0.55029 0.49947
 C571 C -0.01047 0.59752 0.45726
 C572 C -0.05410 0.51141 0.40765
 H573 H 0.03554 0.56509 0.48804
 H574 H -0.01531 0.46735 0.43234
 H575 H 0.04828 0.45060 0.53933
 H576 H -0.06373 0.50968 0.54115
 H577 H -0.02872 0.55637 0.58008
 H578 H -0.04404 0.50625 0.59537
 H579 H 0.02306 0.48725 0.39639
 H580 H 0.05818 0.44991 0.42805
 H581 H 0.02158 0.59580 0.53095
 H582 H 0.05861 0.56042 0.55620
 H583 H -0.06259 0.43946 0.44113
 H584 H -0.02148 0.40644 0.46266
 H585 H 0.09587 0.52759 0.47205
 H586 H 0.06180 0.56010 0.43908
 H587 H -0.06089 0.43646 0.55325
 H588 H -0.09967 0.47319 0.52402
 O589 O 0.51639 0.90475 0.01254
 O590 O 0.50068 0.90786 -0.04245
 O591 O 0.59329 0.97878 0.01079
 O592 O 0.59615 1.03202 -0.00122
 O593 O 0.52276 0.97777 0.09241
 O594 O 0.46626 0.99130 0.09770
 O595 O 0.49924 1.07348 -0.06032
 O596 O 0.55116 1.04767 -0.07162
 O597 O 0.43071 0.99672 -0.06617
 O598 O 0.42418 0.94421 -0.03690
 O599 O 0.42845 1.06448 0.01240
 O600 O 0.45970 1.06701 0.06487
 O601 O 0.47999 1.09264 -0.01124
 O602 O 0.49822 1.08994 0.04463
 O603 O 0.40599 1.02032 -0.01160
 O604 O 0.40520 0.96153 0.00451
 O605 O 0.47471 1.02212 -0.08977
 O606 O 0.52941 1.00717 -0.09744
 O607 O 0.49697 0.92366 0.06170
 O608 O 0.44707 0.95154 0.07527
 O609 O 0.56761 1.00129 0.06835
 O610 O 0.57102 1.05416 0.04066
 O611 O 0.57068 0.93369 -0.01143
 O612 O 0.54119 0.93194 -0.06228
 Zr613 Zr 0.52088 0.94716 -0.01665
 O614 O 0.48882 0.97712 -0.04429
 Zr615 Zr 0.55328 1.01086 0.01952
 O616 O 0.52287 1.04381 -0.00696
 Zr617 Zr 0.48879 0.97416 0.05385
 O618 O 0.45547 1.00559 0.02908
 Zr619 Zr 0.50948 1.02348 -0.05191
 O620 O 0.54360 0.99213 -0.02738
 Zr621 Zr 0.44528 0.98669 -0.01741
 O622 O 0.47576 0.95329 0.00891
 Zr623 Zr 0.47802 1.05059 0.01879
 O624 O 0.50999 1.02044 0.04705
 O625 O 0.53308 0.96516 0.02923
 O626 O 0.46507 1.03282 -0.02717
 C627 C 0.50622 0.90066 0.04223
 C628 C 0.59518 0.94984 -0.00116
 C629 C 0.55172 0.98986 0.09343
 C630 C 0.48921 1.09648 -0.04125
 C631 C 0.44595 1.00966 -0.09092
 C632 C 0.40419 1.04917 0.00050
 H633 H 0.48453 0.96598 -0.06517
 H634 H 0.43533 1.00838 0.04271
 H635 H 0.54773 0.95026 0.04199
 H636 H 0.53473 1.06457 -0.01045
 H637 H 0.57061 1.03389 -0.06600
 H638 H 0.58902 1.04921 -0.01712
 H639 H 0.39974 0.97198 0.02575
 H640 H 0.43704 0.93872 0.05767
 H641 H 0.52398 0.98378 -0.09953
 H642 H 0.55769 0.94842 -0.06906
 H643 H 0.43998 1.05421 0.07081
 H644 H 0.47330 1.01424 0.10012
 H645 H 0.47807 0.90504 -0.03364
 H646 H 0.43741 0.93777 -0.05647
 H647 H 0.55609 1.05964 0.05933
 H648 H 0.51925 1.09568 0.03360
 O649 O 0.57712 0.43836 0.00259
 O650 O 0.54989 0.42522 0.05258
 O651 O 0.49638 0.43011 -0.06633
 O652 O 0.45116 0.45671 -0.07864
 O653 O 0.56655 0.51176 -0.07166
 O654 O 0.56858 0.56176 -0.04189
 O655 O 0.40683 0.50872 0.01961
 O656 O 0.40964 0.45636 0.00086
 O657 O 0.47995 0.51200 0.09357
 O658 O 0.53896 0.49698 0.09444
 O659 O 0.47687 0.58874 0.02356
 O660 O 0.48967 0.59565 -0.03233
 O661 O 0.42529 0.55774 -0.00012
 O662 O 0.45491 0.57056 -0.05407
 O663 O 0.50283 0.56628 0.06784
 O664 O 0.55587 0.53802 0.07438
 O665 O 0.43595 0.48700 0.07178
 O666 O 0.43511 0.43410 0.04236
 O667 O 0.59600 0.48707 -0.01756
 O668 O 0.59211 0.54229 -0.00065
 O669 O 0.52294 0.48620 -0.09355
 O670 O 0.46415 0.50498 -0.09174
 O671 O 0.52382 0.40766 -0.02289
 O672 O 0.50939 0.40280 0.03407
 Zr673 Zr 0.52660 0.44621 0.01098
 O674 O 0.49522 0.47092 0.04437
 Zr675 Zr 0.48961 0.47960 -0.05380
 O676 O 0.45597 0.50495 -0.02314
 Zr677 Zr 0.55329 0.51632 -0.02159
 O678 O 0.52248 0.54397 0.00988
 Zr679 Zr 0.44975 0.48004 0.02216
 O680 O 0.48004 0.45236 -0.01017
 Zr681 Zr 0.51343 0.51766 0.05391
 O682 O 0.54720 0.49123 0.02378
 Zr683 Zr 0.47572 0.55037 -0.01067
 O684 O 0.50813 0.52634 -0.04436
 O685 O 0.53550 0.47047 -0.03359
 O686 O 0.46692 0.52638 0.03426
 C687 C 0.60015 0.45748 -0.00722
 C688 C 0.50978 0.40579 -0.05091
 C689 C 0.55115 0.49977 -0.09589
 C690 C 0.40246 0.53849 0.01009
 C691 C 0.45129 0.49939 0.09583
 C692 C 0.48943 0.59051 0.05229
 H693 H 0.49295 0.45763 0.06479
 H694 H 0.53318 0.56513 0.01368
 H695 H 0.55038 0.45755 -0.04815
 H696 H 0.43493 0.50737 -0.03482
 H697 H 0.41901 0.44012 -0.01469
 H698 H 0.43103 0.45966 -0.06500
 H699 H 0.56205 0.55728 0.06065
 H700 H 0.59575 0.53244 0.02145
 H701 H 0.44814 0.42914 0.06221
 H702 H 0.48686 0.39957 0.02603
 H703 H 0.51301 0.59887 -0.02701
 H704 H 0.55147 0.56904 -0.05758
 H705 H 0.56203 0.44310 0.06288
 H706 H 0.52918 0.47551 0.09997
 H707 H 0.47610 0.52552 -0.09647
 H708 H 0.43618 0.55680 -0.06000
 O709 O 0.06342 0.01141 0.42645
 O710 O 0.06586 0.06158 0.45640
 O711 O 0.07319 -0.06125 0.50270
 O712 O 0.04740 -0.07767 0.54779
 O713 O -0.00568 -0.06893 0.43036
 O714 O -0.05588 -0.04023 0.42282
 O715 O -0.02386 0.01292 0.59123
 O716 O 0.03155 -0.00560 0.59273
 O717 O -0.02466 0.08990 0.52098
 O718 O -0.00867 0.09381 0.46147
 O719 O -0.09637 0.01194 0.51597
 O720 O -0.09331 -0.04448 0.49930
 O721 O -0.06831 -0.01068 0.56874
 O722 O -0.07087 -0.06345 0.53863
 O723 O -0.07664 0.06057 0.49663
 O724 O -0.04996 0.07470 0.44600
 O725 O -0.00115 0.06659 0.56625
 O726 O 0.05147 0.04021 0.57236
 O727 O 0.01950 -0.01317 0.40398
 O728 O -0.03755 0.00321 0.40340
 O729 O 0.01973 -0.09186 0.47478
 O730 O 0.00123 -0.09534 0.53205
 O731 O 0.09225 -0.01321 0.48103
 O732 O 0.08937 0.04152 0.49717
 Zr733 Zr 0.04996 0.01624 0.47646
 O734 O 0.01965 0.04444 0.50782
 Zr735 Zr 0.02225 -0.05352 0.50898
 O736 O -0.00908 -0.02810 0.54210
 Zr737 Zr -0.01376 -0.01980 0.44370
 O738 O -0.04695 0.00668 0.47383
 Zr739 Zr 0.00973 0.01830 0.55177
 O740 O 0.04329 -0.00866 0.52195
 Zr741 Zr -0.02655 0.05169 0.48658
 O742 O 0.00518 0.02675 0.45310
 Zr743 Zr -0.05416 -0.01807 0.51918
 O744 O -0.02396 -0.04659 0.48731
 O745 O 0.03182 -0.02949 0.46445
 O746 O -0.03629 0.02788 0.53145
 C747 C 0.04796 -0.00007 0.40200
 C748 C 0.09633 -0.04235 0.49255
 C749 C 0.00664 -0.09349 0.44627
 C750 C -0.05293 0.00122 0.59305
 C751 C -0.01332 0.09117 0.55028
 C752 C -0.09996 0.04185 0.50650
 H753 H 0.03068 0.06540 0.51165
 H754 H -0.06770 0.00968 0.46177
 H755 H 0.04691 -0.04243 0.45014
 H756 H -0.01178 -0.04109 0.56270
 H757 H 0.05116 -0.01770 0.58428
 H758 H 0.03929 -0.06793 0.56858
 H759 H -0.06317 0.05796 0.43520
 H760 H -0.02860 0.02559 0.40129
 H761 H 0.05822 0.05871 0.55789
 H762 H 0.09201 0.03256 0.51978
 H763 H -0.09894 -0.03399 0.47796
 H764 H -0.06436 -0.05656 0.43898
 H765 H 0.04917 0.06890 0.44029
 H766 H 0.01142 0.10066 0.47270
 H767 H -0.01982 -0.09924 0.52102
 H768 H -0.05761 -0.06926 0.55812
 O769 O 0.80798 0.32386 0.26437
 O770 O 0.81313 0.29210 0.31381
 O771 O 0.82846 0.24857 0.19163
 O772 O 0.80815 0.19953 0.18022
 O773 O 0.74835 0.31504 0.17680
 O774 O 0.69443 0.32039 0.20064
 O775 O 0.73582 0.15487 0.26250
 O776 O 0.79391 0.15810 0.25169
 O777 O 0.72221 0.22773 0.33985
 O778 O 0.73514 0.28521 0.34270
 O779 O 0.65706 0.22560 0.25906
 O780 O 0.65949 0.24338 0.20305
 O781 O 0.69168 0.17544 0.23490
 O782 O 0.68801 0.20867 0.18294
 O783 O 0.67316 0.24762 0.30711
 O784 O 0.69707 0.30278 0.31699
 O785 O 0.75053 0.18330 0.32064
 O786 O 0.80238 0.17581 0.30091
 O787 O 0.76379 0.34419 0.23659
 O788 O 0.70641 0.34182 0.24381
 O789 O 0.77803 0.27129 0.15793
 O790 O 0.76230 0.21450 0.15599
 O791 O 0.84389 0.27278 0.23888
 O792 O 0.84046 0.25350 0.29439
 Zr793 Zr 0.80017 0.27298 0.26782
 O794 O 0.77022 0.24102 0.29587
 Zr795 Zr 0.77855 0.23857 0.19842
 O796 O 0.74782 0.20504 0.22352
 Zr797 Zr 0.73594 0.30248 0.22633
 O798 O 0.70329 0.27173 0.25273
 Zr799 Zr 0.76446 0.19638 0.27165
 O800 O 0.79790 0.22698 0.24515
 Zr801 Zr 0.72226 0.26052 0.29944
 O802 O 0.75310 0.29437 0.27451
 Zr803 Zr 0.70059 0.22601 0.22984
 O804 O 0.73044 0.25827 0.20126
 O805 O 0.78344 0.28382 0.22068
 O806 O 0.71667 0.21494 0.27743
 C807 C 0.79059 0.34761 0.25239
 C808 C 0.84988 0.26143 0.21003
 C809 C 0.76397 0.29937 0.15390
 C810 C 0.70862 0.15162 0.24732
 C811 C 0.73515 0.19910 0.34361
 C812 C 0.65155 0.23532 0.28860
 H813 H 0.78004 0.23765 0.31778
 H814 H 0.68151 0.28270 0.25429
 H815 H 0.79789 0.29922 0.20840
 H816 H 0.74759 0.18467 0.21069
 H817 H 0.81427 0.16813 0.24276
 H818 H 0.79941 0.17892 0.18975
 H819 H 0.67821 0.30745 0.30250
 H820 H 0.71032 0.34302 0.26773
 H821 H 0.81447 0.19423 0.31015
 H822 H 0.84658 0.23233 0.28419
 H823 H 0.65396 0.26569 0.21080
 H824 H 0.68882 0.30333 0.18471
 H825 H 0.79447 0.30621 0.32112
 H826 H 0.75609 0.27552 0.35055
 H827 H 0.74140 0.22532 0.14944
 H828 H 0.70336 0.19043 0.17742
 O829 O 0.75917 0.68917 0.67690
 O830 O 0.80985 0.68118 0.70323
 O831 O 0.69128 0.67680 0.76026
 O832 O 0.67930 0.70139 0.80634
 O833 O 0.67765 0.75781 0.68890
 O834 O 0.70402 0.80857 0.68042
 O835 O 0.76954 0.76577 0.84257
 O836 O 0.75566 0.71033 0.84296
 O837 O 0.84399 0.76923 0.76409
 O838 O 0.84564 0.75897 0.70827
 O839 O 0.76552 0.84342 0.76732
 O840 O 0.70719 0.84247 0.75568
 O841 O 0.74493 0.81225 0.82250
 O842 O 0.69249 0.82064 0.79630
 O843 O 0.81209 0.82390 0.74236
 O844 O 0.81907 0.79443 0.68849
 O845 O 0.82446 0.74526 0.81125
 O846 O 0.80109 0.69420 0.82026
 O847 O 0.73443 0.73559 0.65687
 O848 O 0.74467 0.79193 0.65634
 O849 O 0.65850 0.73255 0.73552
 O850 O 0.65987 0.74786 0.79254
 O851 O 0.73699 0.65761 0.73343
 O852 O 0.79349 0.65801 0.74503
 Zr853 Zr 0.76650 0.69895 0.72671
 O854 O 0.79726 0.72725 0.75522
 Zr855 Zr 0.69977 0.72707 0.76547
 O856 O 0.72783 0.75625 0.79602
 Zr857 Zr 0.72757 0.76531 0.69813
 O858 O 0.75653 0.79646 0.72575
 Zr859 Zr 0.77511 0.73576 0.80141
 O860 O 0.74572 0.70418 0.77411
 Zr861 Zr 0.80261 0.77420 0.73406
 O862 O 0.77491 0.74443 0.70314
 Zr863 Zr 0.73570 0.80209 0.77301
 O864 O 0.70448 0.77400 0.74389
 O865 O 0.71974 0.71887 0.71872
 O866 O 0.78288 0.78268 0.78118
 C867 C 0.74796 0.70725 0.65343
 C868 C 0.70919 0.65368 0.74809
 C869 C 0.65452 0.74621 0.70722
 C870 C 0.75661 0.79440 0.84593
 C871 C 0.84768 0.75669 0.79295
 C872 C 0.79404 0.84713 0.75408
 H873 H 0.81859 0.71548 0.75691
 H874 H 0.75826 0.81750 0.71349
 H875 H 0.70595 0.70479 0.70509
 H876 H 0.71607 0.75808 0.81741
 H877 H 0.74362 0.69130 0.83469
 H878 H 0.69180 0.70752 0.82591
 H879 H 0.80577 0.81446 0.68387
 H880 H 0.76792 0.78523 0.65275
 H881 H 0.81576 0.68568 0.80264
 H882 H 0.78585 0.65428 0.76803
 H883 H 0.71614 0.84906 0.73381
 H884 H 0.68868 0.81595 0.69806
 H885 H 0.81730 0.69873 0.68787
 H886 H 0.84935 0.73545 0.71357
 H887 H 0.65480 0.76951 0.78230
 H888 H 0.68594 0.80485 0.81385
 O889 O 0.24998 0.19261 0.82766
 O890 O 0.19729 0.18201 0.80415
 O891 O 0.31522 0.17821 0.74669
 O892 O 0.32490 0.19960 0.69710
 O893 O 0.32339 0.26581 0.80750
 O894 O 0.29136 0.31504 0.81168
 O895 O 0.22541 0.25812 0.65562
 O896 O 0.24728 0.20442 0.65906
 O897 O 0.15465 0.26182 0.73431
 O898 O 0.15892 0.25269 0.79555
 O899 O 0.22640 0.33904 0.72059
 O900 O 0.28414 0.34282 0.73321
 O901 O 0.24659 0.30647 0.67163
 O902 O 0.30156 0.31734 0.69491
 O903 O 0.18237 0.31956 0.74949
 O904 O 0.17443 0.29771 0.80270
 O905 O 0.17548 0.23473 0.68991
 O906 O 0.20528 0.18418 0.68645
 O907 O 0.27226 0.24067 0.84319
 O908 O 0.25221 0.29574 0.83890
 O909 O 0.34398 0.23744 0.76378
 O910 O 0.34003 0.24856 0.70495
 O911 O 0.27219 0.15927 0.77757
 O912 O 0.21614 0.15539 0.76394
 Zr913 Zr 0.23905 0.19911 0.77781
 O914 O 0.20524 0.22323 0.74685
 Zr915 Zr 0.30268 0.22756 0.73505
 O916 O 0.27144 0.25280 0.70194
 Zr917 Zr 0.27253 0.26895 0.79914
 O918 O 0.24022 0.29612 0.76885
 Zr919 Zr 0.22593 0.22952 0.69945
 O920 O 0.25864 0.20179 0.72952
 Zr921 Zr 0.19597 0.27107 0.76341
 O922 O 0.22693 0.24549 0.79706
 Zr923 Zr 0.25980 0.29936 0.72076
 O924 O 0.29400 0.27548 0.75205
 O925 O 0.28400 0.22206 0.78263
 O926 O 0.21443 0.27688 0.71548
 C927 C 0.26193 0.21154 0.84916
 C928 C 0.30010 0.15551 0.76304
 C929 C 0.34724 0.25341 0.79050
 C930 C 0.23470 0.28767 0.65002
 C931 C 0.15156 0.24697 0.70689
 C932 C 0.19785 0.34244 0.73387
 H933 H 0.18502 0.21017 0.74680
 H934 H 0.23657 0.31797 0.77856
 H935 H 0.29954 0.20997 0.79711
 H936 H 0.28218 0.25404 0.67996
 H937 H 0.26169 0.18688 0.66829
 H938 H 0.31221 0.20407 0.67693
 H939 H 0.19152 0.31213 0.81124
 H940 H 0.23056 0.28606 0.84413
 H941 H 0.19039 0.17702 0.70455
 H942 H 0.22488 0.14999 0.74175
 H943 H 0.27442 0.35069 0.75417
 H944 H 0.30557 0.32217 0.79299
 H945 H 0.19023 0.19971 0.81922
 H946 H 0.15210 0.23129 0.78706
 H947 H 0.34326 0.27110 0.71283
 H948 H 0.30689 0.30217 0.67677
 O949 O 0.17735 0.74943 0.31766
 O950 O 0.20091 0.69642 0.32477
 O951 O 0.26639 0.80852 0.32503
 O952 O 0.31141 0.81701 0.29601
 O953 O 0.19132 0.82839 0.25110
 O954 O 0.18142 0.80474 0.19852
 O955 O 0.33888 0.72140 0.22959
 O956 O 0.34317 0.73686 0.28374
 O957 O 0.25777 0.65695 0.22837
 O958 O 0.20226 0.65962 0.24631
 O959 O 0.26200 0.73449 0.15684
 O960 O 0.25387 0.79337 0.15827
 O961 O 0.31927 0.74929 0.18492
 O962 O 0.29586 0.80487 0.17816
 O963 O 0.23407 0.69093 0.17800
 O964 O 0.18159 0.68868 0.21212
 O965 O 0.30632 0.67297 0.24927
 O966 O 0.31570 0.69552 0.30464
 O967 O 0.15803 0.77820 0.27338
 O968 O 0.15479 0.76460 0.21709
 O969 O 0.23926 0.84403 0.27367
 O970 O 0.29525 0.83807 0.25030
 O971 O 0.23693 0.76592 0.34625
 O972 O 0.24502 0.70800 0.34442
 Zr973 Zr 0.22666 0.73702 0.30504
 O974 O 0.25209 0.70367 0.27430
 Zr975 Zr 0.26810 0.80039 0.27405
 O976 O 0.29570 0.76957 0.24248
 Zr977 Zr 0.19823 0.77867 0.24058
 O978 O 0.22266 0.74746 0.20715
 Zr979 Zr 0.29883 0.72191 0.26255
 O980 O 0.27480 0.75364 0.29618
 Zr981 Zr 0.22893 0.70058 0.22864
 O982 O 0.20106 0.73091 0.26099
 Zr983 Zr 0.27072 0.76385 0.19805
 O984 O 0.24463 0.79769 0.22840
 O985 O 0.22104 0.78417 0.28564
 O986 O 0.27641 0.71634 0.21707
 C987 C 0.15436 0.76454 0.30175
 C988 C 0.25360 0.79222 0.34918
 C989 C 0.21013 0.84990 0.26313
 C990 C 0.34220 0.73396 0.20068
 C991 C 0.28748 0.65142 0.23740
 C992 C 0.24685 0.70732 0.15392
 H993 H 0.25333 0.68199 0.28545
 H994 H 0.20959 0.74699 0.18688
 H995 H 0.20900 0.79872 0.30114
 H996 H 0.31777 0.77888 0.23899
 H997 H 0.33702 0.75066 0.30278
 H998 H 0.32985 0.80326 0.28764
 H999 H 0.17669 0.70286 0.19277
 H1000 H 0.14917 0.74265 0.22604
 H1001 H 0.30081 0.67705 0.30928
 H1002 H 0.26872 0.71278 0.34575
 H1003 H 0.23074 0.78761 0.15446
 H1004 H 0.19934 0.81949 0.19133
 H1005 H 0.18559 0.68964 0.30756
 H1006 H 0.20943 0.65478 0.26903
 H1007 H 0.28306 0.84478 0.23033
 H1008 H 0.31414 0.80968 0.19299
 O1009 O 0.23781 0.65435 0.76215
 O1010 O 0.29535 0.65714 0.75442
 O1011 O 0.22522 0.72681 0.84221
 O1012 O 0.23377 0.77921 0.84798
 O1013 O 0.15740 0.72563 0.76036
 O1014 O 0.16112 0.74558 0.70528
 O1015 O 0.30976 0.82320 0.76603
 O1016 O 0.31169 0.79262 0.81662
 O1017 O 0.32808 0.75212 0.69279
 O1018 O 0.30417 0.69736 0.68172
 O1019 O 0.24980 0.81645 0.68101
 O1020 O 0.19711 0.82418 0.70338
 O1021 O 0.26543 0.84378 0.73873
 O1022 O 0.20428 0.83894 0.74902
 O1023 O 0.27888 0.77290 0.66089
 O1024 O 0.26594 0.71542 0.65658
 O1025 O 0.34425 0.77389 0.74096
 O1026 O 0.34314 0.75441 0.79509
 O1027 O 0.19331 0.67492 0.73501
 O1028 O 0.18874 0.70697 0.68549
 O1029 O 0.17331 0.74727 0.80870
 O1030 O 0.19691 0.80200 0.81690
 O1031 O 0.25331 0.68263 0.82194
 O1032 O 0.30720 0.67759 0.79810
 Zr1033 Zr 0.26569 0.69600 0.77273
 O1034 O 0.29812 0.72724 0.74675
 Zr1035 Zr 0.22285 0.75921 0.80177
 O1036 O 0.25376 0.79313 0.77755
 Zr1037 Zr 0.20126 0.72572 0.73177
 O1038 O 0.23092 0.75843 0.70437
 Zr1039 Zr 0.30096 0.77258 0.77038
 O1040 O 0.27120 0.73991 0.79852
 Zr1041 Zr 0.27895 0.73914 0.70035
 O1042 O 0.24841 0.70467 0.72470
 Zr1043 Zr 0.23646 0.80247 0.72975
 O1044 O 0.20319 0.77116 0.75541
 O1045 O 0.21810 0.71434 0.77874
 O1046 O 0.28431 0.78433 0.72317
 C1047 C 0.21075 0.65109 0.74672
 C1048 C 0.23857 0.69830 0.84536
 C1049 C 0.15167 0.73551 0.78979
 C1050 C 0.29273 0.84702 0.75368
 C1051 C 0.34969 0.76443 0.71134
 C1052 C 0.26548 0.80137 0.65783
 H1053 H 0.31989 0.71630 0.74479
 H1054 H 0.22096 0.76223 0.68260
 H1055 H 0.20389 0.69865 0.79092
 H1056 H 0.25431 0.81318 0.79087
 H1057 H 0.30324 0.77720 0.83372
 H1058 H 0.25138 0.79532 0.84425
 H1059 H 0.24493 0.72524 0.64903
 H1060 H 0.20740 0.69277 0.67831
 H1061 H 0.34672 0.73133 0.78874
 H1062 H 0.31249 0.69407 0.81476
 H1063 H 0.18807 0.80702 0.68937
 H1064 H 0.15597 0.76727 0.71486
 H1065 H 0.29104 0.65609 0.73056
 H1066 H 0.32289 0.69220 0.69624
 H1067 H 0.17966 0.80659 0.80048
 H1068 H 0.21342 0.84617 0.77006
 O1069 O 0.25963 0.18920 0.17689
 O1070 O 0.31030 0.18124 0.20333
 O1071 O 0.19136 0.17699 0.25968
 O1072 O 0.17906 0.20131 0.30573
 O1073 O 0.17838 0.25806 0.18848
 O1074 O 0.20483 0.30873 0.18025
 O1075 O 0.26968 0.26543 0.34285
 O1076 O 0.25562 0.21016 0.34318
 O1077 O 0.34425 0.26918 0.26483
 O1078 O 0.34609 0.25893 0.20882
 O1079 O 0.26577 0.34319 0.26815
 O1080 O 0.20834 0.34318 0.25654
 O1081 O 0.24500 0.31191 0.32283
 O1082 O 0.19192 0.31968 0.29568
 O1083 O 0.31246 0.32383 0.24328
 O1084 O 0.31982 0.29482 0.18929
 O1085 O 0.32453 0.24497 0.31179
 O1086 O 0.30074 0.19350 0.32018
 O1087 O 0.23505 0.23569 0.15681
 O1088 O 0.24596 0.29216 0.15660
 O1089 O 0.15892 0.23276 0.23494
 O1090 O 0.16011 0.24802 0.29224
 O1091 O 0.23726 0.15769 0.23325
 O1092 O 0.29377 0.15800 0.24514
 Zr1093 Zr 0.26690 0.19897 0.22674
 O1094 O 0.29758 0.22715 0.25550
 Zr1095 Zr 0.19998 0.22715 0.26520
 O1096 O 0.22796 0.25604 0.29611
 Zr1097 Zr 0.22825 0.26545 0.19808
 O1098 O 0.25700 0.29647 0.22608
 Zr1099 Zr 0.27520 0.23548 0.30163
 O1100 O 0.24584 0.20411 0.27405
 Zr1101 Zr 0.30303 0.27418 0.23456
 O1102 O 0.27552 0.24451 0.20334
 Zr1103 Zr 0.23592 0.30191 0.27327
 O1104 O 0.20487 0.27410 0.24372
 O1105 O 0.22024 0.21902 0.21856
 O1106 O 0.28305 0.28245 0.28160
 C1107 C 0.24841 0.20725 0.15339
 C1108 C 0.20927 0.15385 0.24759
 C1109 C 0.15513 0.24640 0.20660
 C1110 C 0.25677 0.29407 0.34624
 C1111 C 0.34782 0.25660 0.29370
 C1112 C 0.29437 0.34696 0.25516
 H1113 H 0.31891 0.21539 0.25725
 H1114 H 0.25880 0.31759 0.21397
 H1115 H 0.20648 0.20500 0.20483
 H1116 H 0.21614 0.25779 0.31747
 H1117 H 0.24328 0.19134 0.33488
 H1118 H 0.19156 0.20712 0.32541
 H1119 H 0.30636 0.31473 0.18461
 H1120 H 0.26908 0.28501 0.15297
 H1121 H 0.31618 0.18562 0.30291
 H1122 H 0.28604 0.15426 0.26810
 H1123 H 0.21638 0.34886 0.23409
 H1124 H 0.18952 0.31620 0.19788
 H1125 H 0.31781 0.19884 0.18806
 H1126 H 0.34984 0.23544 0.21420
 H1127 H 0.15480 0.26950 0.28175
 H1128 H 0.18622 0.30470 0.31423
 O1129 O 0.81500 0.68111 0.24825
 O1130 O 0.82106 0.70466 0.19473
 O1131 O 0.82408 0.76992 0.30718
 O1132 O 0.79552 0.81515 0.31609
 O1133 O 0.75011 0.69548 0.32860
 O1134 O 0.69713 0.68578 0.30596
 O1135 O 0.72720 0.84277 0.22181
 O1136 O 0.78160 0.84674 0.23632
 O1137 O 0.72495 0.76143 0.15709
 O1138 O 0.74191 0.70649 0.15925
 O1139 O 0.65451 0.76579 0.23645
 O1140 O 0.65878 0.75738 0.29705
 O1141 O 0.68304 0.82346 0.25068
 O1142 O 0.67583 0.80149 0.30484
 O1143 O 0.67481 0.73793 0.19233
 O1144 O 0.70899 0.68552 0.18958
 O1145 O 0.74606 0.80993 0.17274
 O1146 O 0.80138 0.81955 0.19433
 O1147 O 0.77126 0.66209 0.27801
 O1148 O 0.71474 0.65911 0.26550
 O1149 O 0.77316 0.74318 0.34397
 O1150 O 0.75035 0.79905 0.33858
 O1151 O 0.84408 0.74024 0.26405
 O1152 O 0.84130 0.74845 0.20614
 Zr1153 Zr 0.80237 0.73035 0.23595
 O1154 O 0.77118 0.75589 0.20317
 Zr1155 Zr 0.77298 0.77194 0.30013
 O1156 O 0.74088 0.79955 0.26989
 Zr1157 Zr 0.73871 0.70239 0.27901
 O1158 O 0.70483 0.72685 0.24835
 Zr1159 Zr 0.75993 0.80262 0.22166
 O1160 O 0.79411 0.77847 0.25274
 Zr1161 Zr 0.72549 0.73291 0.20095
 O1162 O 0.75821 0.70495 0.23072
 Zr1163 Zr 0.69627 0.77488 0.26494
 O1164 O 0.72720 0.74881 0.29831
 O1165 O 0.78393 0.72491 0.28365
 O1166 O 0.71433 0.78039 0.21687
 C1167 C 0.79931 0.65827 0.26378
 C1168 C 0.84771 0.75686 0.29033
 C1169 C 0.76252 0.71417 0.34999
 C1170 C 0.69864 0.84631 0.23506
 C1171 C 0.73414 0.79096 0.15130
 C1172 C 0.65108 0.75044 0.20937
 H1173 H 0.78194 0.75703 0.18123
 H1174 H 0.68460 0.71379 0.24836
 H1175 H 0.79961 0.71281 0.29796
 H1176 H 0.73762 0.82158 0.27930
 H1177 H 0.80086 0.84051 0.24977
 H1178 H 0.78651 0.83363 0.30282
 H1179 H 0.68974 0.68076 0.20396
 H1180 H 0.72337 0.65326 0.24340
 H1181 H 0.80631 0.80407 0.17637
 H1182 H 0.84286 0.77209 0.21091
 H1183 H 0.65266 0.73541 0.28948
 H1184 H 0.69036 0.70364 0.32096
 H1185 H 0.80396 0.68896 0.18869
 H1186 H 0.76497 0.71260 0.15470
 H1187 H 0.73027 0.78719 0.34547
 H1188 H 0.69257 0.81708 0.31192
 O1189 O 0.69294 0.32702 0.75139
 O1190 O 0.68168 0.30384 0.69890
 O1191 O 0.67936 0.24546 0.81648
 O1192 O 0.70169 0.19733 0.82755
 O1193 O 0.76742 0.30716 0.82398
 O1194 O 0.81630 0.31094 0.79120
 O1195 O 0.75802 0.15548 0.72525
 O1196 O 0.70497 0.15843 0.74712
 O1197 O 0.76096 0.23425 0.65450
 O1198 O 0.75204 0.29544 0.65955
 O1199 O 0.83927 0.22001 0.72563
 O1200 O 0.84424 0.23191 0.78279
 O1201 O 0.80670 0.17109 0.74617
 O1202 O 0.81794 0.19465 0.80144
 O1203 O 0.81933 0.24907 0.68188
 O1204 O 0.79766 0.30188 0.67413
 O1205 O 0.73373 0.19008 0.67533
 O1206 O 0.68305 0.18724 0.70722
 O1207 O 0.74142 0.34250 0.77298
 O1208 O 0.79656 0.33801 0.75211
 O1209 O 0.73924 0.26366 0.84497
 O1210 O 0.75096 0.20412 0.83996
 O1211 O 0.65992 0.27669 0.77393
 O1212 O 0.65535 0.26364 0.71781
 Zr1213 Zr 0.69945 0.27735 0.74030
 O1214 O 0.72303 0.24661 0.70586
 Zr1215 Zr 0.72890 0.23472 0.80364
 O1216 O 0.75331 0.20164 0.77166
 Zr1217 Zr 0.76984 0.29856 0.77295
 O1218 O 0.79648 0.26822 0.74015
 Zr1219 Zr 0.72950 0.19928 0.72625
 O1220 O 0.70249 0.22918 0.75980
 Zr1221 Zr 0.77089 0.26298 0.69604
 O1222 O 0.74577 0.29649 0.72755
 Zr1223 Zr 0.79990 0.22018 0.75949
 O1224 O 0.77678 0.25156 0.79422
 O1225 O 0.72300 0.28213 0.78508
 O1226 O 0.77686 0.21512 0.71424
 C1227 C 0.71206 0.34848 0.76305
 C1228 C 0.65640 0.26168 0.80163
 C1229 C 0.75527 0.29035 0.84813
 C1230 C 0.78766 0.14964 0.73438
 C1231 C 0.74579 0.20708 0.65125
 C1232 C 0.84240 0.23340 0.69709
 H1233 H 0.70966 0.24672 0.68579
 H1234 H 0.81837 0.27781 0.73624
 H1235 H 0.71101 0.29648 0.80080
 H1236 H 0.75456 0.17970 0.78232
 H1237 H 0.68849 0.16718 0.76303
 H1238 H 0.70378 0.17771 0.81364
 H1239 H 0.81189 0.31069 0.69127
 H1240 H 0.78635 0.34344 0.73071
 H1241 H 0.67666 0.20434 0.69091
 H1242 H 0.65012 0.24145 0.72641
 H1243 H 0.85134 0.25346 0.77398
 H1244 H 0.82360 0.29228 0.80531
 H1245 H 0.69941 0.31869 0.69147
 H1246 H 0.73061 0.28693 0.65270
 H1247 H 0.77295 0.21305 0.84409
 H1248 H 0.80322 0.17608 0.80640
 C1249 C 0.04171 1.01339 1.15992
 C1250 C 0.05906 0.98269 1.17517
 C1251 C 0.08792 1.00422 1.18455
 C1252 C 0.07083 1.03491 1.16981
 C1253 C 0.10544 0.99747 1.15139
 C1254 C 0.07644 0.97594 1.14173
 C1255 C 0.05952 1.00663 1.12699
 C1256 C 0.08829 1.02811 1.13642
 H1257 H 0.01528 1.02004 1.16287
 H1258 H 0.04734 0.96407 1.19154
 H1259 H 0.06862 1.05909 1.18188
 H1260 H 0.13185 0.99083 1.14818
 H1261 H 0.07864 0.95175 1.12968
 H1262 H 0.10009 1.04674 1.12010
 C1263 C 0.54234 0.51353 0.66214
 C1264 C 0.55965 0.48247 0.67671
 C1265 C 0.58878 0.50361 0.68618
 C1266 C 0.57172 0.53466 0.67211
 C1267 C 0.60590 0.49733 0.65272
 C1268 C 0.57664 0.47620 0.64298
 C1269 C 0.55977 0.50726 0.62891
 C1270 C 0.58881 0.52833 0.63844
 H1271 H 0.51598 0.52033 0.66546
 H1272 H 0.54796 0.46364 0.69286
 H1273 H 0.56980 0.55864 0.68460
 H1274 H 0.63223 0.49054 0.64912
 H1275 H 0.57854 0.45220 0.63052
 H1276 H 0.60058 0.54718 0.62237
 C1277 C 0.42103 -0.02891 0.64762
 C1278 C 0.43868 -0.03452 0.68073
 C1279 C 0.42055 -0.00418 0.69456
 C1280 C 0.40290 0.00137 0.66154
 C1281 C 0.44859 0.01822 0.68303
 C1282 C 0.46703 -0.01215 0.66865
 C1283 C 0.44894 -0.00657 0.63603
 C1284 C 0.43100 0.02374 0.64987
 H1285 H 0.40982 -0.04821 0.63268
 H1286 H 0.44175 -0.05840 0.69392
 H1287 H 0.37630 0.00701 0.65869
 H1288 H 0.45970 0.03751 0.69804
 H1289 H 0.49368 -0.01780 0.67094
 H1290 H 0.42789 0.04764 0.63671
 C1291 C -0.08452 0.47005 1.14404
 C1292 C -0.06620 0.46701 1.17706
 C1293 C -0.08552 0.49722 1.18955
 C1294 C -0.10385 0.50022 1.15667
 C1295 C -0.05870 0.52028 1.17645
 C1296 C -0.03910 0.49002 1.16342
 C1297 C -0.05782 0.49302 1.13089
 C1298 C -0.07693 0.52324 1.14337
 H1299 H -0.09499 0.44946 1.13032
 H1300 H -0.06188 0.44400 1.19142
 H1301 H -0.13071 0.50448 1.15406
 H1302 H -0.04833 0.54085 1.19025
 H1303 H -0.01221 0.48572 1.16556
 H1304 H -0.08129 0.54628 1.12905
 C1305 C -0.05602 0.48710 0.34824
 C1306 C -0.09121 0.47587 0.34077
 C1307 C -0.09428 0.50388 0.31521
 C1308 C -0.05921 0.51517 0.32247
 C1309 C -0.10856 0.52703 0.34162
 C1310 C -0.10524 0.49892 0.36765
 C1311 C -0.07013 0.51015 0.37476
 C1312 C -0.07327 0.53826 0.34929
 H1313 H -0.03422 0.47065 0.35116
 H1314 H -0.09863 0.45015 0.33698
 H1315 H -0.03993 0.52202 0.30411
 H1316 H -0.13035 0.54346 0.33850
 H1317 H -0.12416 0.49239 0.38652
 H1318 H -0.06587 0.56399 0.35306
 C1319 C 0.42172 0.97394 -0.13854
 C1320 C 0.38912 0.98874 -0.15154
 C1321 C 0.40624 0.99886 -0.18213
 C1322 C 0.43781 0.98443 -0.17158
 C1323 C 0.41391 1.03136 -0.16939
 C1324 C 0.39722 1.02207 -0.13600
 C1325 C 0.43031 1.00750 -0.12400
 C1326 C 0.44717 1.01759 -0.15689
 H1327 H 0.42463 0.94947 -0.12645
 H1328 H 0.36497 0.97646 -0.15068
 H1329 H 0.45391 0.96849 -0.18706
 H1330 H 0.41010 1.05459 -0.18352
 H1331 H 0.37974 1.03792 -0.12197
 H1332 H 0.47123 1.02973 -0.16031
 C1333 C 0.60092 0.48679 -0.13892
 C1334 C 0.58579 0.47349 -0.17070
 C1335 C 0.59410 0.50585 -0.18869
 C1336 C 0.60949 0.51920 -0.15739
 C1337 C 0.56039 0.52069 -0.17890
 C1338 C 0.55190 0.48829 -0.16063
 C1339 C 0.56718 0.50163 -0.12926
 C1340 C 0.57557 0.53399 -0.14721
 H1341 H 0.61743 0.47278 -0.12214
 H1342 H 0.59024 0.44863 -0.18075
 H1343 H 0.63330 0.53202 -0.15643
 H1344 H 0.54374 0.53484 -0.19542
 H1345 H 0.52811 0.47548 -0.16187
 H1346 H 0.57122 0.55889 -0.13721
 C1347 C 0.09779 -0.01323 0.35915
 C1348 C 0.08272 -0.02565 0.32697
 C1349 C 0.09175 0.00686 0.30967
 C1350 C 0.10709 0.01934 0.34137
 C1351 C 0.05822 0.02211 0.31940
 C1352 C 0.04899 -0.01045 0.33699
 C1353 C 0.06422 0.00201 0.36876
 C1354 C 0.07333 0.03453 0.35149
 H1355 H 0.11389 -0.02784 0.37584
 H1356 H 0.08683 -0.05039 0.31649
 H1357 H 0.13110 0.03171 0.34282
 H1358 H 0.04199 0.03683 0.30294
 H1359 H 0.02499 -0.02280 0.33530
 H1360 H 0.06931 0.05930 0.36192
 C1361 C 0.13915 1.08404 1.02766
 C1362 C 0.17286 1.06649 1.03187
 C1363 C 0.18617 1.08588 1.00184
 C1364 C 0.15269 1.10348 0.99767
 C1365 C 0.17616 1.05867 0.97854
 C1366 C 0.16232 1.03901 1.00859
 C1367 C 0.12908 1.05692 1.00443
 C1368 C 0.14241 1.07613 0.97438
 H1369 H 0.12354 1.09424 1.04782
 H1370 H 0.18591 1.06267 1.05543
 H1371 H 0.14902 1.13019 0.99310
 H1372 H 0.19184 1.04856 0.95840
 H1373 H 0.16568 1.01227 1.01319
 H1374 H 0.12939 1.07996 0.95079
 C1375 C 0.64236 0.57743 0.47492
 C1376 C 0.65325 0.60479 0.49790
 C1377 C 0.68666 0.58692 0.50165
 C1378 C 0.67605 0.55970 0.47865
 C1379 C 0.67358 0.56777 0.53197
 C1380 C 0.63998 0.58562 0.52819
 C1381 C 0.62930 0.55849 0.50527
 C1382 C 0.66246 0.54031 0.50899
 H1383 H 0.62902 0.58128 0.45153
 H1384 H 0.64975 0.63151 0.49323
 H1385 H 0.69134 0.54936 0.45834
 H1386 H 0.68695 0.56391 0.55535
 H1387 H 0.62477 0.59605 0.54852
 H1388 H 0.66565 0.51356 0.51369
 C1389 C 0.64635 0.41767 -0.03108
 C1390 C 0.68031 0.43417 -0.03259
 C1391 C 0.69076 0.41384 -0.00420
 C1392 C 0.65906 0.39677 -0.00199
 C1393 C 0.68020 0.43871 0.01976
 C1394 C 0.66756 0.46099 -0.00880
 C1395 C 0.63407 0.44370 -0.00659
 C1396 C 0.64624 0.42240 0.02261
 H1397 H 0.63293 0.40832 -0.05247
 H1398 H 0.69582 0.43824 -0.05499
 H1399 H 0.65666 0.36976 0.00086
 H1400 H 0.69560 0.44639 0.04049
 H1401 H 0.67177 0.48771 -0.01171
 H1402 H 0.63266 0.41689 0.04592
 C1403 C 0.14368 -0.07429 0.52444
 C1404 C 0.15769 -0.10058 0.50102
 C1405 C 0.19003 -0.08137 0.49806
 C1406 C 0.17621 -0.05518 0.52151
 C1407 C 0.17685 -0.06219 0.46797
 C1408 C 0.14439 -0.08138 0.47097
 C1409 C 0.13055 -0.05530 0.49435
 C1410 C 0.16253 -0.03573 0.49138
 H1411 H 0.12961 -0.07928 0.54757
 H1412 H 0.15582 -0.12749 0.50504
 H1413 H 0.18971 -0.04456 0.54220
 H1414 H 0.19092 -0.05722 0.44484
 H1415 H 0.13098 -0.09209 0.45026
 H1416 H 0.16398 -0.00881 0.48733
 C1417 C 0.34999 -0.05062 0.48730
 C1418 C 0.34217 -0.08579 0.47632
 C1419 C 0.31630 -0.08829 0.50421
 C1420 C 0.32385 -0.05324 0.51522
 C1421 C 0.34231 -0.10256 0.52783
 C1422 C 0.36862 -0.09985 0.49987
 C1423 C 0.37607 -0.06478 0.51084
 C1424 C 0.35026 -0.06733 0.53882
 H1425 H 0.35331 -0.02908 0.47059
 H1426 H 0.33861 -0.09342 0.45054
 H1427 H 0.30561 -0.03377 0.52167
 H1428 H 0.33883 -0.12408 0.54454
 H1429 H 0.38725 -0.11906 0.49368
 H1430 H 0.35380 -0.05973 0.56461
 C1431 C -0.15231 0.42303 1.03530
 C1432 C -0.18063 0.43725 1.01426
 C1433 C -0.18659 0.40437 1.00125
 C1434 C -0.16060 0.38903 1.02139
 C1435 C -0.16434 0.40942 0.97284
 C1436 C -0.15631 0.44390 0.98548
 C1437 C -0.12812 0.42890 1.00618
 C1438 C -0.13551 0.39450 0.99277
 H1439 H -0.14829 0.42833 1.06163
 H1440 H -0.19989 0.45456 1.02343
 H1441 H -0.16377 0.36608 1.03611
 H1442 H -0.17072 0.40325 0.94722
 H1443 H -0.15560 0.46673 0.97023
 H1444 H -0.11746 0.37592 0.98367
 C1445 C -0.13668 0.60202 0.51060
 C1446 C -0.15979 0.60536 0.48072
 C1447 C -0.18817 0.59197 0.50224
 C1448 C -0.16556 0.58889 0.53209
 C1449 C -0.17943 0.55664 0.49206
 C1450 C -0.15070 0.56986 0.47058
 C1451 C -0.12814 0.56666 0.50045
 C1452 C -0.15653 0.55337 0.52192
 H1453 H -0.11875 0.62057 0.51816
 H1454 H -0.16152 0.62688 0.46370
 H1455 H -0.17210 0.59685 0.55739
 H1456 H -0.19682 0.53772 0.48421
 H1457 H -0.14424 0.56195 0.44523
 H1458 H -0.15487 0.53183 0.53890
 C1459 C 0.36267 1.10095 0.01142
 C1460 C 0.33982 1.10453 -0.01866
 C1461 C 0.31122 1.09116 0.00256
 C1462 C 0.33356 1.08784 0.03259
 C1463 C 0.31991 1.05584 -0.00772
 C1464 C 0.34887 1.06904 -0.02889
 C1465 C 0.37116 1.06560 0.00117
 C1466 C 0.34253 1.05234 0.02234
 H1467 H 0.38060 1.11938 0.01922
 H1468 H 0.33831 1.12613 -0.03559
 H1469 H 0.32684 1.09572 0.05788
 H1470 H 0.30252 1.03704 -0.01581
 H1471 H 0.35552 1.06121 -0.05422
 H1472 H 0.34396 1.03071 0.03923
 C1473 C -0.02306 1.14207 1.07337
 C1474 C -0.00159 1.15164 1.10249
 C1475 C 0.00459 1.18498 1.08537
 C1476 C -0.01689 1.17569 1.05637
 C1477 C 0.03552 1.17099 1.06794
 C1478 C 0.02929 1.13743 1.08504
 C1479 C 0.00787 1.12806 1.05614
 C1480 C 0.01405 1.16116 1.03869
 H1481 H -0.04711 1.12969 1.07547
 H1482 H -0.00814 1.14799 1.12892
 H1483 H -0.03585 1.19186 1.04492
 H1484 H 0.05954 1.18342 1.06585
 H1485 H 0.04826 1.12134 1.09659
 H1486 H 0.02061 1.16449 1.01223
 C1487 C 0.52773 0.63919 0.58718
 C1488 C 0.53487 0.67248 0.56994
 C1489 C 0.50367 0.68711 0.58636
 C1490 C 0.49657 0.65398 0.60361
 C1491 C 0.48289 0.67776 0.55685
 C1492 C 0.51412 0.66262 0.54019
 C1493 C 0.50703 0.62975 0.55778
 C1494 C 0.47581 0.64436 0.57398
 H1495 H 0.54616 0.62300 0.59947
 H1496 H 0.55911 0.68454 0.56836
 H1497 H 0.48922 0.65067 0.62987
 H1498 H 0.46449 0.69403 0.54466
 H1499 H 0.52146 0.66562 0.51389
 H1500 H 0.45157 0.63230 0.57553
 C1501 C -0.03252 0.64270 0.41534
 C1502 C -0.03858 0.67565 0.43305
 C1503 C -0.00804 0.68963 0.41530
 C1504 C -0.00203 0.65684 0.39758
 C1505 C 0.01408 0.67824 0.44367
 C1506 C -0.01646 0.66373 0.46170
 C1507 C -0.01044 0.63129 0.44357
 C1508 C 0.02007 0.64528 0.42603
 H1509 H -0.05160 0.62770 0.40385
 H1510 H -0.06262 0.68865 0.43585
 H1511 H 0.00402 0.65417 0.37100
 H1512 H 0.03316 0.69330 0.45507
 H1513 H -0.02250 0.66594 0.48832
 H1514 H 0.04412 0.63230 0.42321
 C1515 C 0.46779 1.14271 -0.08262
 C1516 C 0.46307 1.17563 -0.06451
 C1517 C 0.49384 1.18878 -0.08250
 C1518 C 0.49850 1.15605 -0.10064
 C1519 C 0.51598 1.17638 -0.05456
 C1520 C 0.48520 1.16269 -0.03628
 C1521 C 0.48988 1.13029 -0.05481
 C1522 C 0.52062 1.14348 -0.07261
 H1523 H 0.44805 1.12849 -0.09400
 H1524 H 0.43951 1.18939 -0.06127
 H1525 H 0.50410 1.15350 -0.12733
 H1526 H 0.53572 1.19066 -0.04327
 H1527 H 0.47958 1.16481 -0.00956
 H1528 H 0.54422 1.12977 -0.07590
 C1529 C 0.52061 0.34040 -0.05076
 C1530 C 0.48703 0.32440 -0.05644
 C1531 C 0.49907 0.31390 -0.09087
 C1532 C 0.53263 0.32962 -0.08539
 C1533 C 0.48572 0.34609 -0.10618
 C1534 C 0.47374 0.35690 -0.07159
 C1535 C 0.50728 0.37263 -0.06599
 C1536 C 0.51932 0.36231 -0.10046
 H1537 H 0.53510 0.33816 -0.02790
 H1538 H 0.47346 0.30892 -0.03826
 H1539 H 0.55687 0.31811 -0.09124
 H1540 H 0.47122 0.34813 -0.12904
 H1541 H 0.44947 0.36841 -0.06579
 H1542 H 0.53274 0.37817 -0.11842
 C1543 C -0.02980 -0.14114 0.42359
 C1544 C -0.01616 -0.15274 0.38986
 C1545 C -0.00503 -0.18525 0.40623
 C1546 C -0.01873 -0.17396 0.43979
 C1547 C 0.02870 -0.17078 0.41369
 C1548 C 0.01761 -0.13776 0.39755
 C1549 C 0.00390 -0.12664 0.43115
 C1550 C 0.01501 -0.15920 0.44744
 H1551 H -0.05393 -0.12866 0.42778
 H1552 H -0.02916 -0.15037 0.36612
 H1553 H -0.03393 -0.18883 0.45716
 H1554 H 0.05279 -0.18325 0.40948
 H1555 H 0.03271 -0.12264 0.38031
 H1556 H 0.02798 -0.16177 0.47119
 C1557 C 0.49122 -0.15891 0.55176
 C1558 C 0.52332 -0.17832 0.55893
 C1559 C 0.50913 -0.18822 0.59292
 C1560 C 0.47707 -0.16907 0.58593
 C1561 C 0.52401 -0.15783 0.60851
 C1562 C 0.53817 -0.14750 0.57429
 C1563 C 0.50608 -0.12841 0.56721
 C1564 C 0.49190 -0.13820 0.60124
 H1565 H 0.47761 -0.15929 0.52832
 H1566 H 0.53642 -0.19487 0.54152
 H1567 H 0.45194 -0.17834 0.59092
 H1568 H 0.53760 -0.15780 0.63198
 H1569 H 0.56332 -0.13829 0.56938
 H1570 H 0.47894 -0.12138 0.61850
 C1571 C -0.01056 0.33643 1.04785
 C1572 C 0.02214 0.31951 1.05787
 C1573 C 0.00620 0.30934 1.09101
 C1574 C -0.02647 0.32596 1.08118
 C1575 C 0.01760 0.34108 1.10690
 C1576 C 0.03350 0.35164 1.07355
 C1577 C 0.00084 0.36823 1.06364
 C1578 C -0.01510 0.35819 1.09681
 H1579 H -0.02222 0.33466 1.02345
 H1580 H 0.03766 0.30348 1.04194
 H1581 H -0.05110 0.31499 1.08459
 H1582 H 0.02930 0.34266 1.13130
 H1583 H 0.05816 0.36255 1.07023
 H1584 H -0.03051 0.37443 1.11263
 C1585 C 0.79262 0.32981 0.09960
 C1586 C 0.78327 0.30980 0.06886
 C1587 C 0.75917 0.33743 0.05862
 C1588 C 0.76848 0.35768 0.08869
 C1589 C 0.73126 0.32110 0.07883
 C1590 C 0.75529 0.29349 0.08945
 C1591 C 0.76437 0.31384 0.11955
 C1592 C 0.74046 0.34140 0.10893
 H1593 H 0.81791 0.33343 0.10853
 H1594 H 0.80087 0.29688 0.05220
 H1595 H 0.77410 0.38423 0.08809
 H1596 H 0.70586 0.31709 0.07034
 H1597 H 0.74969 0.26694 0.08996
 H1598 H 0.72271 0.35452 0.12528
 C1599 C 0.24231 0.84492 0.61435
 C1600 C 0.27038 0.86071 0.59381
 C1601 C 0.25987 0.84119 0.56369
 C1602 C 0.23192 0.82537 0.58419
 C1603 C 0.28345 0.81283 0.57304
 C1604 C 0.29400 0.83209 0.60380
 C1605 C 0.26572 0.81660 0.62401
 C1606 C 0.25543 0.79699 0.59387
 H1607 H 0.22530 0.85824 0.63130
 H1608 H 0.27667 0.88710 0.59340
 H1609 H 0.20626 0.82222 0.57609
 H1610 H 0.30030 0.79973 0.55577
 H1611 H 0.31957 0.83485 0.61231
 H1612 H 0.24914 0.77060 0.59413
 C1613 C 0.77963 0.67534 0.60438
 C1614 C 0.75594 0.64842 0.59366
 C1615 C 0.75033 0.66741 0.56115
 C1616 C 0.77407 0.69418 0.57130
 C1617 C 0.72106 0.68634 0.57680
 C1618 C 0.72661 0.66722 0.60933
 C1619 C 0.75009 0.69389 0.61976
 C1620 C 0.74471 0.71320 0.58742
 H1621 H 0.80367 0.67097 0.61634
 H1622 H 0.76075 0.62159 0.59586
 H1623 H 0.79355 0.70498 0.55528
 H1624 H 0.69690 0.69103 0.56518
 H1625 H 0.70704 0.65626 0.62517
 H1626 H 0.73994 0.74003 0.58533
 C1627 C 0.27967 0.17522 0.10410
 C1628 C 0.25604 0.14803 0.09388
 C1629 C 0.24985 0.16676 0.06133
 C1630 C 0.27352 0.19379 0.07098
 C1631 C 0.22065 0.18557 0.07724
 C1632 C 0.22678 0.16673 0.10983
 C1633 C 0.25020 0.19367 0.11976
 C1634 C 0.24423 0.21270 0.08736
 H1635 H 0.30390 0.17112 0.11574
 H1636 H 0.26107 0.12125 0.09620
 H1637 H 0.29271 0.20464 0.05463
 H1638 H 0.19629 0.18999 0.06593
 H1639 H 0.20750 0.15572 0.12599
 H1640 H 0.23923 0.23948 0.08513
 C1641 C 0.28424 0.16836 0.89417
 C1642 C 0.28821 0.18399 0.92849
 C1643 C 0.25683 0.16665 0.94060
 C1644 C 0.25306 0.15090 0.90669
 C1645 C 0.23553 0.19627 0.92980
 C1646 C 0.26680 0.21397 0.91702
 C1647 C 0.26272 0.19783 0.88338
 C1648 C 0.23160 0.18044 0.89597
 H1649 H 0.30432 0.15701 0.87919
 H1650 H 0.31146 0.18522 0.94228
 H1651 H 0.24750 0.12479 0.90227
 H1652 H 0.21540 0.20760 0.94472
 H1653 H 0.27253 0.24013 0.92086
 H1654 H 0.20811 0.17890 0.88261
 C1655 C 0.78451 0.67010 0.39410
 C1656 C 0.78917 0.68495 0.42866
 C1657 C 0.75755 0.66802 0.44075
 C1658 C 0.75311 0.65305 0.40659
 C1659 C 0.73674 0.69826 0.43077
 C1660 C 0.76824 0.71558 0.41800
 C1661 C 0.76349 0.70020 0.38409
 C1662 C 0.73213 0.68320 0.39669
 H1663 H 0.80421 0.65865 0.37870
 H1664 H 0.81259 0.68544 0.44224
 H1665 H 0.74697 0.62717 0.40167
 H1666 H 0.71699 0.70966 0.44613
 H1667 H 0.77455 0.74152 0.42228
 H1668 H 0.70845 0.68240 0.38357
 C1669 C 0.25322 0.78840 0.41648
 C1670 C 0.28233 0.80829 0.42997
 C1671 C 0.25798 0.83556 0.44060
 C1672 C 0.22901 0.81576 0.42755
 C1673 C 0.26191 0.85291 0.40678
 C1674 C 0.28619 0.82557 0.39567
 C1675 C 0.25694 0.80615 0.38291
 C1676 C 0.23287 0.83331 0.39386
 H1677 H 0.24949 0.76169 0.42020
 H1678 H 0.30274 0.79815 0.44501
 H1679 H 0.20532 0.81156 0.44077
 H1680 H 0.26564 0.87960 0.40281
 H1681 H 0.30976 0.82953 0.38217
 H1682 H 0.21238 0.84364 0.37902
 C1683 C 0.75420 0.28577 0.91544
 C1684 C 0.78299 0.30552 0.92984
 C1685 C 0.75835 0.33254 0.94052
 C1686 C 0.72970 0.31283 0.92658
 C1687 C 0.76277 0.35048 0.90704
 C1688 C 0.78733 0.32336 0.89582
 C1689 C 0.75837 0.30406 0.88216
 C1690 C 0.73404 0.33097 0.89324
 H1691 H 0.75050 0.25900 0.91870
 H1692 H 0.80320 0.29517 0.94501
 H1693 H 0.70578 0.30823 0.93924
 H1694 H 0.76648 0.37723 0.90353
 H1695 H 0.81110 0.32765 0.88280
 H1696 H 0.71374 0.34150 0.87828
 C1697 C 0.82165 0.39542 0.28535
 C1698 C 0.84933 0.40701 0.26160
 C1699 C 0.83094 0.44005 0.25662
 C1700 C 0.80333 0.42894 0.28044
 C1701 C 0.81239 0.42585 0.22729
 C1702 C 0.83102 0.39297 0.23219
 C1703 C 0.80356 0.38156 0.25571
 C1704 C 0.78475 0.41434 0.25098
 H1705 H 0.82539 0.38245 0.30926
 H1706 H 0.87605 0.40404 0.26615
 H1707 H 0.79210 0.44394 0.30034
 H1708 H 0.80835 0.43847 0.20323
 H1709 H 0.84243 0.37819 0.21220
 H1710 H 0.75802 0.41706 0.24644
 C1711 C 0.32306 0.89521 0.78661
 C1712 C 0.35165 0.90636 0.76374
 C1713 C 0.33351 0.93933 0.75754
 C1714 C 0.30501 0.92867 0.78046
 C1715 C 0.31612 0.92468 0.72772
 C1716 C 0.33446 0.89182 0.73385
 C1717 C 0.30610 0.88088 0.75651
 C1718 C 0.28758 0.91362 0.75053
 H1719 H 0.32585 0.88264 0.81086
 H1720 H 0.37815 0.90347 0.76936
 H1721 H 0.29307 0.94402 0.79968
 H1722 H 0.31301 0.93691 0.70332
 H1723 H 0.34658 0.87665 0.71456
 H1724 H 0.26107 0.91633 0.74492
 C1725 C 0.16616 0.89454 0.28459
 C1726 C 0.18166 0.92867 0.28947
 C1727 C 0.16525 0.94111 0.25765
 C1728 C 0.14962 0.90739 0.25297
 C1729 C 0.19555 0.93056 0.23708
 C1730 C 0.21233 0.91746 0.26880
 C1731 C 0.19631 0.88400 0.26379
 C1732 C 0.17984 0.89691 0.23224
 H1733 H 0.15419 0.87940 0.30417
 H1734 H 0.18215 0.94215 0.31296
 H1735 H 0.12365 0.90303 0.24658
 H1736 H 0.20750 0.94565 0.21745
 H1737 H 0.23834 0.92121 0.27537
 H1738 H 0.17903 0.88384 0.20851
 C1739 C 0.71434 0.41614 0.76882
 C1740 C 0.69728 0.42932 0.73727
 C1741 C 0.66714 0.43984 0.75811
 C1742 C 0.68383 0.42731 0.78976
 C1743 C 0.65148 0.40611 0.75348
 C1744 C 0.68156 0.39566 0.73250
 C1745 C 0.69830 0.38267 0.76389
 C1746 C 0.66829 0.39318 0.78494
 H1747 H 0.74040 0.41991 0.77520
 H1748 H 0.70908 0.44444 0.71757
 H1749 H 0.68451 0.44071 0.81329
 H1750 H 0.62547 0.40174 0.74729
 H1751 H 0.68055 0.38266 0.70875
 H1752 H 0.65647 0.37802 0.80459
 C1753 C 0.71648 0.58801 0.74506
 C1754 C 0.69712 0.57137 0.77393
 C1755 C 0.67117 0.56069 0.74942
 C1756 C 0.69044 0.57689 0.72065
 C1757 C 0.65127 0.59267 0.75477
 C1758 C 0.67736 0.60390 0.77922
 C1759 C 0.69628 0.61982 0.75016
 C1760 C 0.67043 0.60886 0.72592
 H1761 H 0.74349 0.58652 0.74094
 H1762 H 0.70787 0.55559 0.79363
 H1763 H 0.69602 0.56555 0.69648
 H1764 H 0.62426 0.59425 0.75891
 H1765 H 0.67208 0.61557 0.80326
 H1766 H 0.65952 0.62445 0.70614
 C1767 C 0.21578 0.08808 0.24408
 C1768 C 0.19616 0.07160 0.27286
 C1769 C 0.17005 0.06146 0.24829
 C1770 C 0.18956 0.07749 0.21960
 C1771 C 0.15062 0.09368 0.25380
 C1772 C 0.17688 0.10437 0.27831
 C1773 C 0.19606 0.12014 0.24934
 C1774 C 0.17003 0.10972 0.22503
 H1775 H 0.24278 0.08622 0.23997
 H1776 H 0.20666 0.05555 0.29249
 H1777 H 0.19495 0.06619 0.19538
 H1778 H 0.12362 0.09564 0.25793
 H1779 H 0.17179 0.11599 0.30242
 H1780 H 0.15937 0.12558 0.20533
 C1781 C 0.34321 0.11136 0.74058
 C1782 C 0.36024 0.09314 0.76941
 C1783 C 0.34113 0.06200 0.76150
 C1784 C 0.32405 0.08021 0.73277
 C1785 C 0.31314 0.07219 0.78527
 C1786 C 0.33204 0.10391 0.79320
 C1787 C 0.31530 0.12184 0.76417
 C1788 C 0.29601 0.09078 0.75645
 H1789 H 0.35567 0.12741 0.72210
 H1790 H 0.38686 0.09398 0.77474
 H1791 H 0.32052 0.07030 0.70780
 H1792 H 0.30091 0.05581 0.80361
 H1793 H 0.33531 0.11414 0.81806
 H1794 H 0.26940 0.09012 0.75095
 C1795 C 0.84177 0.61385 0.24036
 C1796 C 0.85696 0.59299 0.26853
 C1797 C 0.83663 0.56353 0.25796
 C1798 C 0.82140 0.58434 0.22990
 C1799 C 0.80840 0.57360 0.28150
 C1800 C 0.82849 0.60369 0.29210
 C1801 C 0.81360 0.62421 0.26371
 C1802 C 0.79315 0.59475 0.25337
 H1803 H 0.85559 0.63038 0.22336
 H1804 H 0.88337 0.59186 0.27493
 H1805 H 0.81810 0.57632 0.20420
 H1806 H 0.79479 0.55675 0.29834
 H1807 H 0.83143 0.61211 0.31771
 H1808 H 0.76673 0.59576 0.24699
 C1809 C 0.89730 0.23062 0.17995
 C1810 C 0.90724 0.25087 0.14921
 C1811 C 0.94111 0.25632 0.16443
 C1812 C 0.93111 0.23622 0.19524
 C1813 C 0.92830 0.28814 0.18042
 C1814 C 0.89405 0.28249 0.16532
 C1815 C 0.88404 0.26218 0.19600
 C1816 C 0.91764 0.26795 0.21160
 H1817 H 0.88456 0.20675 0.17969
 H1818 H 0.90265 0.24398 0.12338
 H1819 H 0.94661 0.21710 0.20741
 H1820 H 0.94144 0.31178 0.18036
 H1821 H 0.87851 0.30156 0.15312
 H1822 H 0.92155 0.27504 0.23748
 C1823 C 0.39353 0.78617 0.66628
 C1824 C 0.42799 0.79142 0.68113
 C1825 C 0.44043 0.75966 0.66472
 C1826 C 0.40638 0.75462 0.64975
 C1827 C 0.43056 0.73936 0.69543
 C1828 C 0.41747 0.77100 0.71222
 C1829 C 0.38366 0.76565 0.69686
 C1830 C 0.39660 0.73416 0.68038
 H1831 H 0.37802 0.80548 0.65441
 H1832 H 0.44132 0.81495 0.68118
 H1833 H 0.40151 0.74799 0.62390
 H1834 H 0.44602 0.72000 0.70728
 H1835 H 0.42168 0.77783 0.73812
 H1836 H 0.38375 0.71037 0.67997
 C1837 C 0.39524 0.28511 0.82270
 C1838 C 0.40614 0.26086 0.85020
 C1839 C 0.43933 0.25554 0.83205
 C1840 C 0.42894 0.27986 0.80463
 C1841 C 0.42484 0.22686 0.81291
 C1842 C 0.39178 0.23208 0.83127
 C1843 C 0.38107 0.25612 0.80397
 C1844 C 0.41402 0.25105 0.78543
 H1845 H 0.38262 0.30910 0.82663
 H1846 H 0.40299 0.26503 0.87701
 H1847 H 0.44446 0.29955 0.79386
 H1848 H 0.43711 0.20274 0.80867
 H1849 H 0.37647 0.21231 0.84224
 H1850 H 0.41694 0.24688 0.75860
 C1851 C 0.89652 0.78693 0.32402
 C1852 C 0.90784 0.76103 0.34972
 C1853 C 0.93894 0.75629 0.33122
 C1854 C 0.93036 0.78143 0.30635
 C1855 C 0.92558 0.72958 0.31164
 C1856 C 0.89233 0.73366 0.32978
 C1857 C 0.88166 0.75922 0.30363
 C1858 C 0.91482 0.75460 0.28498
 H1859 H 0.88502 0.81109 0.32972
 H1860 H 0.90628 0.76373 0.37688
 H1861 H 0.94742 0.80080 0.29763
 H1862 H 0.93871 0.70597 0.30690
 H1863 H 0.87745 0.71331 0.34026
 H1864 H 0.91863 0.75170 0.25806
 C1865 C 0.10958 0.74008 0.34310
 C1866 C 0.08984 0.76777 0.36033
 C1867 C 0.05966 0.75951 0.33980
 C1868 C 0.07937 0.73192 0.32256
 C1869 C 0.07009 0.78427 0.31283
 C1870 C 0.10088 0.79259 0.33315
 C1871 C 0.12031 0.76469 0.31621
 C1872 C 0.09016 0.75660 0.29555
 H1873 H 0.12581 0.72183 0.35564
 H1874 H 0.08952 0.77231 0.38719
 H1875 H 0.07037 0.70688 0.31795
 H1876 H 0.05355 0.80237 0.30049
 H1877 H 0.11019 0.81754 0.33752
 H1878 H 0.09058 0.75186 0.26872
 C1879 C 0.60338 0.29001 0.83321
 C1880 C 0.57234 0.28127 0.81351
 C1881 C 0.56226 0.25709 0.84114
 C1882 C 0.59270 0.26579 0.86107
 C1883 C 0.58172 0.22912 0.82426
 C1884 C 0.59216 0.25322 0.79658
 C1885 C 0.62258 0.26175 0.81662
 C1886 C 0.61223 0.23773 0.84419
 H1887 H 0.61276 0.31507 0.83689
 H1888 H 0.55565 0.29910 0.80100
 H1889 H 0.59267 0.27095 0.88781
 H1890 H 0.57266 0.20397 0.82032
 H1891 H 0.59225 0.24791 0.76987
 H1892 H 0.62863 0.21975 0.85690
 C1893 C 0.60927 0.72446 0.66824
 C1894 C 0.57734 0.71910 0.68846
 C1895 C 0.56112 0.74817 0.66976
 C1896 C 0.59303 0.75361 0.64965
 C1897 C 0.57217 0.77209 0.69605
 C1898 C 0.58883 0.74293 0.71484
 C1899 C 0.62056 0.74812 0.69443
 C1900 C 0.60462 0.77747 0.67609
 H1901 H 0.62470 0.70485 0.65688
 H1902 H 0.56587 0.69503 0.69378
 H1903 H 0.59440 0.75818 0.62265
 H1904 H 0.55655 0.79163 0.70725
 H1905 H 0.58754 0.73840 0.74184
 H1906 H 0.61642 0.80142 0.67109
 C1907 C 0.11058 0.22427 0.16708
 C1908 C 0.07851 0.21851 0.18694
 C1909 C 0.06215 0.24740 0.16809
 C1910 C 0.09420 0.25324 0.14833
 C1911 C 0.07260 0.27143 0.19454
 C1912 C 0.08941 0.24245 0.21349
 C1913 C 0.12129 0.24804 0.19344
 C1914 C 0.10520 0.27722 0.17495
 H1915 H 0.12637 0.20485 0.15588
 H1916 H 0.06729 0.19429 0.19210
 H1917 H 0.09583 0.25785 0.12135
 H1918 H 0.05664 0.29078 0.20560
 H1919 H 0.08786 0.23787 0.24047
 H1920 H 0.11676 0.30132 0.17011
 C1921 C -0.03987 0.99485 0.83559
 C1922 C -0.06681 0.97142 0.82413
 C1923 C -0.08720 1.00134 0.81214
 C1924 C -0.06050 1.02481 0.82308
 C1925 C -0.10466 1.00356 0.84600
 C1926 C -0.08429 0.97368 0.85813
 C1927 C -0.05770 0.99704 0.86916
 C1928 C -0.07786 1.02701 0.85719
 H1929 H -0.01299 0.99113 0.83188
 H1930 H -0.06237 0.94863 0.81005
 H1931 H -0.05102 1.04580 0.80824
 H1932 H -0.13150 1.00725 0.85008
 H1933 H -0.09388 0.95265 0.87286
 H1934 H -0.08228 1.04983 0.87125
 C1935 C 0.41443 0.47527 0.36124
 C1936 C 0.39683 0.50591 0.34685
 C1937 C 0.41419 0.49980 0.31347
 C1938 C 0.43179 0.46914 0.32771
 C1939 C 0.44286 0.52155 0.32297
 C1940 C 0.42563 0.52763 0.35666
 C1941 C 0.44299 0.49693 0.37085
 C1942 C 0.46070 0.49085 0.33773
 H1943 H 0.40293 0.45626 0.37732
 H1944 H 0.37037 0.51219 0.35035
 H1945 H 0.43422 0.44514 0.31532
 H1946 H 0.45425 0.54053 0.30679
 H1947 H 0.42323 0.55162 0.36907
 H1948 H 0.48718 0.48455 0.33455
 C1949 C 0.57455 -0.01977 0.35728
 C1950 C 0.55614 -0.01585 0.32439
 C1951 C 0.58335 0.00685 0.31150
 C1952 C 0.60185 0.00289 0.34422
 C1953 C 0.56472 0.03721 0.32471
 C1954 C 0.53725 0.01452 0.33814
 C1955 C 0.55618 0.01060 0.37047
 C1956 C 0.58325 0.03322 0.35754
 H1957 H 0.57855 -0.04313 0.37117
 H1958 H 0.54524 -0.03596 0.31032
 H1959 H 0.62863 -0.00202 0.34659
 H1960 H 0.56071 0.06055 0.31080
 H1961 H 0.51043 0.01944 0.33627
 H1962 H 0.59425 0.05334 0.37153
 C1963 C 0.07271 0.47734 0.85457
 C1964 C 0.05511 0.48174 0.82130
 C1965 C 0.08287 0.50420 0.80925
 C1966 C 0.10056 0.49980 0.84234
 C1967 C 0.06429 0.53467 0.82222
 C1968 C 0.03624 0.51221 0.83481
 C1969 C 0.05431 0.50779 0.86758
 C1970 C 0.08195 0.53020 0.85551
 H1971 H 0.07612 0.45382 0.86833
 H1972 H 0.04433 0.46188 0.80679
 H1973 H 0.12723 0.49457 0.84525
 H1974 H 0.06093 0.55815 0.80839
 H1975 H 0.00954 0.51745 0.83231
 H1976 H 0.09281 0.55008 0.86994
 C1977 C 0.05394 0.51594 0.65038
 C1978 C 0.05648 0.48814 0.67653
 C1979 C 0.09178 0.49876 0.68376
 C1980 C 0.08937 0.52652 0.65784
 C1981 C 0.10563 0.47500 0.65770
 C1982 C 0.07014 0.46442 0.65009
 C1983 C 0.06765 0.49226 0.62425
 C1984 C 0.10299 0.50282 0.63131
 H1985 H 0.03249 0.53279 0.64716
 H1986 H 0.03700 0.48190 0.69491
 H1987 H 0.09734 0.55211 0.66132
 H1988 H 0.12706 0.45815 0.66108
 H1989 H 0.06219 0.43882 0.64663
 H1990 H 0.12209 0.50873 0.61243
 C1991 C 0.55319 1.01647 0.15219
 C1992 C 0.55661 0.98934 0.17895
 C1993 C 0.59165 1.00109 0.18572
 C1994 C 0.58835 1.02817 0.15919
 C1995 C 0.60595 0.97707 0.16011
 C1996 C 0.57072 0.96537 0.15294
 C1997 C 0.56735 0.99254 0.12650
 C1998 C 0.60243 1.00423 0.13312
 H1999 H 0.53129 1.03268 0.14877
 H2000 H 0.53737 0.98301 0.19754
 H2001 H 0.59566 1.05407 0.16199
 H2002 H 0.62785 0.96088 0.16368
 H2003 H 0.56344 0.93946 0.15016
 H2004 H 0.62130 1.01020 0.11402
 C2005 C 0.42567 0.46633 0.14717
 C2006 C 0.44122 0.47928 0.17881
 C2007 C 0.40793 0.49509 0.18852
 C2008 C 0.39216 0.48210 0.15726
 C2009 C 0.41717 0.52714 0.17043
 C2010 C 0.45064 0.51135 0.16045
 C2011 C 0.43500 0.49838 0.12911
 C2012 C 0.40167 0.51418 0.13866
 H2013 H 0.42932 0.44130 0.13727
 H2014 H 0.45745 0.46473 0.19541
 H2015 H 0.36800 0.46996 0.15629
 H2016 H 0.41344 0.55214 0.18039
 H2017 H 0.47480 0.52348 0.16167
 H2018 H 0.38558 0.52860 0.12181
 C2019 C -0.07275 0.03130 0.64816
 C2020 C -0.10823 0.02122 0.65774
 C2021 C -0.09455 0.00053 0.68660
 C2022 C -0.05925 0.01067 0.67736
 C2023 C -0.09138 -0.02973 0.66462
 C2024 C -0.10479 -0.00910 0.63525
 C2025 C -0.06944 0.00101 0.62623
 C2026 C -0.05591 -0.01961 0.65513
 H2027 H -0.06501 0.05646 0.64109
 H2028 H -0.12988 0.03808 0.65920
 H2029 H -0.04021 0.01905 0.69441
 H2030 H -0.09917 -0.05485 0.67178
 H2031 H -0.12343 -0.01719 0.61761
 H2032 H -0.03424 -0.03646 0.65381
 C2033 C -0.14350 0.92603 1.02668
 C2034 C -0.17724 0.94327 1.02139
 C2035 C -0.18689 0.91507 0.99910
 C2036 C -0.15348 0.89772 1.00443
 C2037 C -0.17319 0.93330 0.96850
 C2038 C -0.16299 0.96172 0.99074
 C2039 C -0.12984 0.94400 0.99603
 C2040 C -0.13962 0.91592 0.97385
 H2041 H -0.13075 0.92323 1.05053
 H2042 H -0.19321 0.95415 1.04088
 H2043 H -0.14986 0.87120 1.01016
 H2044 H -0.18591 0.93615 0.94464
 H2045 H -0.16627 0.98827 0.98500
 H2046 H -0.12377 0.90491 0.95431
 C2047 C 0.35706 0.42585 0.52781
 C2048 C 0.32327 0.44303 0.52258
 C2049 C 0.31375 0.41503 0.49999
 C2050 C 0.34721 0.39773 0.50525
 C2051 C 0.32751 0.43359 0.46960
 C2052 C 0.33756 0.46182 0.49215
 C2053 C 0.37077 0.44418 0.49737
 C2054 C 0.36113 0.41628 0.47489
 H2055 H 0.36973 0.42284 0.55168
 H2056 H 0.30723 0.45370 0.54214
 H2057 H 0.35090 0.37117 0.51072
 H2058 H 0.31487 0.43665 0.44572
 H2059 H 0.33418 0.48841 0.48668
 H2060 H 0.37705 0.40549 0.45528
 C2061 C 0.35526 0.57839 0.03246
 C2062 C 0.34178 0.59714 0.00222
 C2063 C 0.30913 0.57857 0.00613
 C2064 C 0.32248 0.55985 0.03643
 C2065 C 0.32210 0.55162 -0.01689
 C2066 C 0.35488 0.57011 -0.02079
 C2067 C 0.36824 0.55157 0.00949
 C2068 C 0.33597 0.53260 0.01342
 H2069 H 0.36922 0.58932 0.05268
 H2070 H 0.34413 0.62390 -0.00249
 H2071 H 0.30870 0.55565 0.05988
 H2072 H 0.30808 0.54078 -0.03711
 H2073 H 0.36861 0.57436 -0.04426
 H2074 H 0.33413 0.50581 0.01816
 C2075 C -0.14590 0.08274 0.52954
 C2076 C -0.15857 0.10292 0.49992
 C2077 C -0.19031 0.08596 0.50256
 C2078 C -0.17989 0.06632 0.53145
 C2079 C -0.17982 0.06047 0.47926
 C2080 C -0.14580 0.07662 0.47600
 C2081 C -0.13369 0.05606 0.50577
 C2082 C -0.16724 0.03889 0.50836
 H2083 H -0.13247 0.09261 0.55067
 H2084 H -0.15612 0.12985 0.49633
 H2085 H -0.19542 0.06281 0.55393
 H2086 H -0.19523 0.05230 0.45873
 H2087 H -0.13216 0.08151 0.45259
 H2088 H -0.17151 0.01226 0.51200
 C2089 C 0.65511 0.05638 0.51463
 C2090 C 0.68031 0.06032 0.48601
 C2091 C 0.68722 0.09536 0.49757
 C2092 C 0.66228 0.09153 0.52615
 C2093 C 0.66016 0.10938 0.47500
 C2094 C 0.65281 0.07414 0.46351
 C2095 C 0.62793 0.07023 0.49217
 C2096 C 0.63476 0.10530 0.50366
 H2097 H 0.65294 0.03440 0.53095
 H2098 H 0.69872 0.04140 0.47847
 H2099 H 0.66634 0.09874 0.55198
 H2100 H 0.66245 0.13133 0.45864
 H2101 H 0.64875 0.06694 0.43768
 H2102 H 0.61581 0.12385 0.51083
 C2103 C 0.13515 0.59825 0.97837
 C2104 C 0.15083 0.60519 1.01208
 C2105 C 0.18314 0.58880 1.00014
 C2106 C 0.16797 0.58210 0.96647
 C2107 C 0.17165 0.55525 1.01345
 C2108 C 0.13908 0.57147 1.02534
 C2109 C 0.12386 0.56465 0.99170
 C2110 C 0.15622 0.54836 0.97978
 H2111 H 0.11994 0.61585 0.96381
 H2112 H 0.14880 0.62861 1.02555
 H2113 H 0.18011 0.58658 0.94220
 H2114 H 0.18657 0.53749 1.02814
 H2115 H 0.12698 0.56702 1.04965
 H2116 H 0.15844 0.52492 0.96634
 C2117 C 0.15105 0.43086 0.52584
 C2118 C 0.16039 0.39539 0.51588
 C2119 C 0.18901 0.40884 0.49475
 C2120 C 0.17999 0.44416 0.50476
 C2121 C 0.16682 0.41181 0.46456
 C2122 C 0.13769 0.39862 0.48567
 C2123 C 0.12888 0.43397 0.49566
 C2124 C 0.15750 0.44734 0.47456
 H2125 H 0.14424 0.43878 0.55110
 H2126 H 0.16193 0.37391 0.53296
 H2127 H 0.19714 0.46319 0.51286
 H2128 H 0.17374 0.40383 0.43936
 H2129 H 0.11994 0.38000 0.47787
 H2130 H 0.15599 0.46886 0.45754
 C2131 C 0.65157 0.93184 0.02667
 C2132 C 0.66067 0.89610 0.01749
 C2133 C 0.68852 0.90901 -0.00501
 C2134 C 0.67974 0.94461 0.00421
 C2135 C 0.66532 0.91099 -0.03445
 C2136 C 0.63696 0.89833 -0.01197
 C2137 C 0.62839 0.93396 -0.00278
 C2138 C 0.65623 0.94679 -0.02525
 H2139 H 0.64556 0.94051 0.05186
 H2140 H 0.66288 0.87514 0.03514
 H2141 H 0.69706 0.96397 0.01110
 H2142 H 0.67142 0.90226 -0.05959
 H2143 H 0.61900 0.87943 -0.01855
 H2144 H 0.65406 0.96779 -0.04284
 C2145 C -0.00960 0.83641 0.96245
 C2146 C -0.03142 0.82591 0.93372
 C2147 C -0.00071 0.81150 0.91623
 C2148 C 0.02115 0.82147 0.94472
 C2149 C 0.00530 0.84456 0.89836
 C2150 C -0.02538 0.85907 0.91582
 C2151 C -0.00362 0.86916 0.94419
 C2152 C 0.02712 0.85480 0.92695
 H2153 H -0.01583 0.83364 0.98904
 H2154 H -0.05543 0.81355 0.93642
 H2155 H 0.04022 0.80556 0.95633
 H2156 H 0.01153 0.84772 0.87180
 H2157 H -0.04449 0.87486 0.90409
 H2158 H 0.05112 0.86719 0.92428
 C2159 C 0.47544 0.36095 0.41670
 C2160 C 0.50600 0.34686 0.39863
 C2161 C 0.50040 0.31356 0.41610
 C2162 C 0.46982 0.32751 0.43418
 C2163 C 0.52252 0.32324 0.44451
 C2164 C 0.52808 0.35685 0.42715
 C2165 C 0.49746 0.37075 0.44499
 C2166 C 0.49189 0.33772 0.46282
 H2167 H 0.45607 0.37678 0.40544
 H2168 H 0.51189 0.35039 0.37205
 H2169 H 0.44590 0.31498 0.43696
 H2170 H 0.54185 0.30728 0.45564
 H2171 H 0.55199 0.36941 0.42440
 H2172 H 0.48600 0.33451 0.48944
 C2173 C 0.00904 0.33476 0.53343
 C2174 C 0.03240 0.32130 0.56040
 C2175 C 0.00236 0.30871 0.58001
 C2176 C -0.02103 0.32161 0.55333
 C2177 C -0.00067 0.34147 0.59837
 C2178 C 0.02932 0.35421 0.57875
 C2179 C 0.00601 0.36716 0.55219
 C2180 C -0.02404 0.35456 0.57160
 H2181 H 0.01315 0.33262 0.50647
 H2182 H 0.05551 0.30712 0.55589
 H2183 H -0.04166 0.30773 0.54313
 H2184 H -0.00474 0.34407 0.62530
 H2185 H 0.04997 0.36799 0.58906
 H2186 H -0.04716 0.36871 0.57615
 C2187 C 0.50945 0.83443 0.03645
 C2188 C 0.53198 0.82136 0.06428
 C2189 C 0.50152 0.80789 0.08257
 C2190 C 0.47894 0.82043 0.05502
 C2191 C 0.49691 0.84050 0.10099
 C2192 C 0.52734 0.85406 0.08271
 C2193 C 0.50486 0.86666 0.05530
 C2194 C 0.47438 0.85324 0.07335
 H2195 H 0.51471 0.83255 0.00965
 H2196 H 0.55558 0.80777 0.06059
 H2197 H 0.45914 0.80614 0.04385
 H2198 H 0.49166 0.84287 0.12776
 H2199 H 0.54717 0.86826 0.09399
 H2200 H 0.45079 0.86684 0.07705
 C2201 C 0.47924 0.65599 0.05141
 C2202 C 0.46552 0.66734 0.08524
 C2203 C 0.49897 0.68256 0.09245
 C2204 C 0.51268 0.67149 0.05882
 C2205 C 0.51089 0.65030 0.10878
 C2206 C 0.47741 0.63455 0.10133
 C2207 C 0.49114 0.62367 0.06764
 C2208 C 0.52455 0.63895 0.07497
 H2209 H 0.46607 0.65827 0.02775
 H2210 H 0.44119 0.67932 0.08960
 H2211 H 0.52746 0.68661 0.04130
 H2212 H 0.52409 0.64819 0.13242
 H2213 H 0.46276 0.61913 0.11868
 H2214 H 0.54892 0.62701 0.07063
 C2215 C -0.00065 0.13143 0.60098
 C2216 C 0.02329 0.15745 0.58690
 C2217 C -0.00420 0.18362 0.58927
 C2218 C -0.02822 0.15807 0.60358
 C2219 C -0.01522 0.17621 0.55408
 C2220 C 0.01231 0.14982 0.55160
 C2221 C -0.01162 0.12418 0.56576
 C2222 C -0.03920 0.15025 0.56819
 H2223 H 0.00517 0.11274 0.62026
 H2224 H 0.04905 0.16068 0.59463
 H2225 H -0.04487 0.16185 0.62516
 H2226 H -0.02138 0.19439 0.53442
 H2227 H 0.02899 0.14622 0.53002
 H2228 H -0.06496 0.14703 0.56047
 C2229 C 0.46866 0.14736 0.42802
 C2230 C 0.48096 0.17925 0.44343
 C2231 C 0.49647 0.18912 0.41000
 C2232 C 0.48413 0.15761 0.39437
 C2233 C 0.52900 0.17185 0.41924
 C2234 C 0.51351 0.16170 0.45286
 C2235 C 0.50118 0.13011 0.43735
 C2236 C 0.51670 0.13984 0.40387
 H2237 H 0.44383 0.13696 0.43180
 H2238 H 0.46605 0.19555 0.45965
 H2239 H 0.47193 0.15624 0.37021
 H2240 H 0.55380 0.18232 0.41536
 H2241 H 0.52569 0.16328 0.47702
 H2242 H 0.53149 0.12330 0.38778
 C2243 C -0.03409 0.64519 0.92580
 C2244 C -0.02092 0.67641 0.94183
 C2245 C -0.00554 0.68676 0.90848
 C2246 C -0.01875 0.65592 0.89223
 C2247 C 0.02671 0.66855 0.91693
 C2248 C 0.01135 0.65793 0.95046
 C2249 C -0.00185 0.62700 0.93435
 C2250 C 0.01353 0.63720 0.90095
 H2251 H -0.05913 0.63527 0.92957
 H2252 H -0.03528 0.69260 0.95862
 H2253 H -0.03125 0.65543 0.86818
 H2254 H 0.05171 0.67854 0.91307
 H2255 H 0.02385 0.65869 0.97451
 H2256 H 0.02777 0.62077 0.88429
 C2257 C 0.24719 0.70224 0.91002
 C2258 C 0.21860 0.68585 0.92958
 C2259 C 0.24202 0.65747 0.93929
 C2260 C 0.27055 0.67382 0.92008
 C2261 C 0.23280 0.63842 0.90841
 C2262 C 0.20933 0.66702 0.89813
 C2263 C 0.23813 0.68306 0.87919
 C2264 C 0.26140 0.65475 0.88917
 H2265 H 0.25327 0.72867 0.91041
 H2266 H 0.20104 0.69853 0.94646
 H2267 H 0.29585 0.67689 0.92924
 H2268 H 0.22685 0.61198 0.90798
 H2269 H 0.18412 0.66423 0.88865
 H2270 H 0.27910 0.64187 0.87257
 C2271 C 0.74412 0.20510 0.40789
 C2272 C 0.71629 0.18902 0.42887
 C2273 C 0.74043 0.16141 0.43909
 C2274 C 0.76818 0.17751 0.41846
 C2275 C 0.73077 0.14097 0.40927
 C2276 C 0.70658 0.16883 0.39837
 C2277 C 0.73468 0.18458 0.37800
 C2278 C 0.75863 0.15704 0.38862
 H2279 H 0.74980 0.23163 0.40717
 H2280 H 0.69890 0.20214 0.44558
 H2281 H 0.79368 0.18155 0.42664
 H2282 H 0.72508 0.11443 0.41011
 H2283 H 0.68118 0.16519 0.38974
 H2284 H 0.77618 0.14373 0.37221
 C2285 C 0.27757 0.33450 0.39086
 C2286 C 0.24770 0.35262 0.40642
 C2287 C 0.25327 0.33343 0.43884
 C2288 C 0.28308 0.31521 0.42334
 C2289 C 0.23019 0.30632 0.42814
 C2290 C 0.22467 0.32534 0.39519
 C2291 C 0.25473 0.30749 0.37993
 C2292 C 0.26007 0.28800 0.41219
 H2293 H 0.29709 0.34595 0.37535
 H2294 H 0.24239 0.37937 0.40443
 H2295 H 0.30717 0.31083 0.43521
 H2296 H 0.21074 0.29500 0.44382
 H2297 H 0.20071 0.32940 0.38299
 H2298 H 0.26536 0.26125 0.41412
 C2299 C 0.77730 0.83441 0.89095
 C2300 C 0.74745 0.85272 0.90631
 C2301 C 0.75253 0.83333 0.93870
 C2302 C 0.78232 0.81491 0.92338
 C2303 C 0.72931 0.80650 0.92764
 C2304 C 0.72428 0.82572 0.89472
 C2305 C 0.75433 0.80769 0.87966
 C2306 C 0.75917 0.78799 0.91187
 H2307 H 0.79707 0.84576 0.87569
 H2308 H 0.74239 0.87952 0.90439
 H2309 H 0.80625 0.81023 0.93546
 H2310 H 0.70960 0.79529 0.94307
 H2311 H 0.70047 0.83007 0.88230
 H2312 H 0.76420 0.76119 0.91372
 C2313 C 0.73025 0.78814 0.08343
 C2314 C 0.70889 0.81784 0.07114
 C2315 C 0.74042 0.83532 0.05964
 C2316 C 0.76165 0.80598 0.07126
 C2317 C 0.74317 0.85144 0.09348
 C2318 C 0.71185 0.83385 0.10544
 C2319 C 0.73331 0.80464 0.11704
 C2320 C 0.76458 0.82218 0.10499
 H2321 H 0.72482 0.76190 0.07968
 H2322 H 0.68604 0.81624 0.05677
 H2323 H 0.78224 0.79465 0.05698
 H2324 H 0.74842 0.87764 0.09782
 H2325 H 0.69131 0.84518 0.11980
 H2326 H 0.78777 0.82414 0.11877
 C2327 C 0.21302 0.33178 0.60534
 C2328 C 0.24460 0.34903 0.59360
 C2329 C 0.24116 0.33401 0.55931
 C2330 C 0.20937 0.31687 0.57063
 C2331 C 0.26188 0.30391 0.56986
 C2332 C 0.26550 0.31902 0.60404
 C2333 C 0.23397 0.30181 0.61591
 C2334 C 0.23022 0.28639 0.58185
 H2335 H 0.19286 0.34312 0.62021
 H2336 H 0.25044 0.37494 0.59870
 H2337 H 0.18632 0.31619 0.55646
 H2338 H 0.28210 0.29260 0.55504
 H2339 H 0.28888 0.32005 0.61766
 H2340 H 0.22419 0.26041 0.57738
 C2341 C 0.76701 0.16730 0.60509
 C2342 C 0.73825 0.14805 0.59094
 C2343 C 0.74235 0.16688 0.55788
 C2344 C 0.77101 0.18633 0.57219
 C2345 C 0.71768 0.19349 0.56946
 C2346 C 0.71366 0.17476 0.60304
 C2347 C 0.74266 0.19377 0.61703
 C2348 C 0.74647 0.21295 0.58420
 H2349 H 0.78747 0.15646 0.61963
 H2350 H 0.73466 0.12121 0.59377
 H2351 H 0.79482 0.19143 0.55952
 H2352 H 0.69731 0.20416 0.55472
 H2353 H 0.69001 0.17002 0.61612
 H2354 H 0.75005 0.23980 0.58162
 C2355 C 0.21438 0.67573 0.10620
 C2356 C 0.22056 0.69283 0.07216
 C2357 C 0.24356 0.66416 0.06231
 C2358 C 0.23734 0.64697 0.09587
 C2359 C 0.27322 0.68206 0.07659
 C2360 C 0.25032 0.71078 0.08686
 C2361 C 0.24431 0.69320 0.12020
 C2362 C 0.26705 0.66466 0.11005
 H2363 H 0.19014 0.67321 0.11882
 H2364 H 0.20138 0.70426 0.05640
 H2365 H 0.23182 0.62058 0.09952
 H2366 H 0.29760 0.68490 0.06430
 H2367 H 0.25585 0.73719 0.08341
 H2368 H 0.28631 0.65307 0.12563
 C2369 C 0.17918 0.60358 0.71400
 C2370 C 0.19665 0.56971 0.71948
 C2371 C 0.16852 0.55955 0.74312
 C2372 C 0.15098 0.59293 0.73757
 C2373 C 0.18711 0.57358 0.77250
 C2374 C 0.21528 0.58417 0.74899
 C2375 C 0.19733 0.61731 0.74367
 C2376 C 0.16934 0.60683 0.76702
 H2377 H 0.17603 0.61637 0.68991
 H2378 H 0.20770 0.55421 0.69987
 H2379 H 0.12438 0.59648 0.73272
 H2380 H 0.19057 0.56114 0.79674
 H2381 H 0.24190 0.58086 0.75384
 H2382 H 0.15809 0.62210 0.78673
 C2383 C 0.67528 0.10426 0.21552
 C2384 C 0.69209 0.07001 0.22052
 C2385 C 0.66632 0.06123 0.24469
 C2386 C 0.64862 0.09277 0.24035
 C2387 C 0.68531 0.07339 0.27253
 C2388 C 0.71288 0.08433 0.24858
 C2389 C 0.69499 0.11788 0.24447
 C2390 C 0.66792 0.10703 0.26894
 H2391 H 0.67053 0.11657 0.19147
 H2392 H 0.70106 0.05341 0.20081
 H2393 H 0.62166 0.09499 0.23680
 H2394 H 0.68914 0.05953 0.29596
 H2395 H 0.73955 0.07990 0.25227
 H2396 H 0.65713 0.12144 0.28952
 C2397 C 0.82900 0.10203 0.71073
 C2398 C 0.84853 0.09074 0.74114
 C2399 C 0.83172 0.05905 0.74140
 C2400 C 0.81293 0.06766 0.71175
 C2401 C 0.80541 0.07069 0.76373
 C2402 C 0.82149 0.10449 0.76410
 C2403 C 0.80139 0.11533 0.73369
 C2404 C 0.78454 0.08158 0.73389
 H2405 H 0.83946 0.11430 0.68843
 H2406 H 0.87542 0.09348 0.74416
 H2407 H 0.81025 0.05116 0.69053
 H2408 H 0.79653 0.05658 0.78564
 H2409 H 0.82591 0.11871 0.78663
 H2410 H 0.75800 0.07682 0.73087
 C2411 C 0.33156 0.60740 0.21436
 C2412 C 0.34920 0.59490 0.24550
 C2413 C 0.33407 0.56085 0.24137
 C2414 C 0.31654 0.57294 0.21001
 C2415 C 0.30415 0.57094 0.26274
 C2416 C 0.31939 0.60487 0.26704
 C2417 C 0.30179 0.61747 0.23597
 C2418 C 0.28625 0.58368 0.23151
 H2419 H 0.34272 0.62269 0.19442
 H2420 H 0.37525 0.59980 0.25114
 H2421 H 0.31561 0.55941 0.18658
 H2422 H 0.29301 0.55572 0.28274
 H2423 H 0.32070 0.61791 0.29075
 H2424 H 0.26014 0.57942 0.22568
 C2425 C 0.33382 0.39221 0.27659
 C2426 C 0.35200 0.40828 0.24699
 C2427 C 0.33200 0.44018 0.25252
 C2428 C 0.31372 0.42413 0.28205
 C2429 C 0.30541 0.42902 0.22898
 C2430 C 0.32525 0.39660 0.22349
 C2431 C 0.30733 0.38082 0.25329
 C2432 C 0.28704 0.41254 0.25858
 H2433 H 0.34540 0.37692 0.29620
 H2434 H 0.37889 0.40687 0.24201
 H2435 H 0.30873 0.43571 0.30621
 H2436 H 0.29396 0.44447 0.20943
 H2437 H 0.32991 0.38468 0.19946
 H2438 H 0.26015 0.41389 0.26353
 C2439 C 0.78714 0.91294 0.75699
 C2440 C 0.81440 0.92449 0.77980
 C2441 C 0.83231 0.94014 0.74979
 C2442 C 0.80511 0.92902 0.72690
 C2443 C 0.85186 0.90799 0.74419
 C2444 C 0.83409 0.89235 0.77426
 C2445 C 0.80702 0.88099 0.75163
 C2446 C 0.82453 0.89636 0.72135
 H2447 H 0.76036 0.91458 0.76247
 H2448 H 0.80999 0.93630 0.80394
 H2449 H 0.79343 0.94439 0.70743
 H2450 H 0.87864 0.90625 0.73868
 H2451 H 0.84591 0.87715 0.79381
 H2452 H 0.82861 0.88420 0.69735
 C2453 C 0.70410 0.90981 0.24580
 C2454 C 0.68893 0.93120 0.21782
 C2455 C 0.66044 0.94080 0.24125
 C2456 C 0.67561 0.91972 0.26916
 C2457 C 0.64043 0.91132 0.23013
 C2458 C 0.66917 0.90108 0.20665
 C2459 C 0.68399 0.88030 0.23490
 C2460 C 0.65556 0.89021 0.25816
 H2461 H 0.73046 0.90894 0.25240
 H2462 H 0.70256 0.94834 0.20130
 H2463 H 0.67865 0.92740 0.29501
 H2464 H 0.61406 0.91233 0.22354
 H2465 H 0.66649 0.89299 0.18089
 H2466 H 0.64169 0.87342 0.27485
 C2467 C 0.20317 0.40573 0.74506
 C2468 C 0.18841 0.42727 0.71698
 C2469 C 0.15968 0.43683 0.74012
 C2470 C 0.17443 0.41560 0.76813
 C2471 C 0.13970 0.40750 0.72861
 C2472 C 0.16869 0.39728 0.70542
 C2473 C 0.18312 0.37634 0.73376
 C2474 C 0.15443 0.38621 0.75673
 H2475 H 0.22945 0.40475 0.75197
 H2476 H 0.20229 0.44444 0.70072
 H2477 H 0.17717 0.42317 0.79405
 H2478 H 0.11342 0.40864 0.72171
 H2479 H 0.16632 0.38930 0.67959
 H2480 H 0.14033 0.36936 0.77316
 C2481 C 0.08381 0.73020 0.78815
 C2482 C 0.07283 0.70879 0.81839
 C2483 C 0.06076 0.74005 0.83593
 C2484 C 0.07109 0.76134 0.80606
 C2485 C 0.09480 0.74401 0.85130
 C2486 C 0.10727 0.71296 0.83364
 C2487 C 0.11760 0.73448 0.80392
 C2488 C 0.10503 0.76547 0.82152
 H2489 H 0.07968 0.72444 0.76195
 H2490 H 0.05917 0.68550 0.81737
 H2491 H 0.05595 0.78134 0.79486
 H2492 H 0.09959 0.74956 0.87743
 H2493 H 0.12246 0.69301 0.84487
 H2494 H 0.11824 0.78901 0.82291
 C2495 C 0.58355 0.22955 0.28790
 C2496 C 0.57292 0.20925 0.31905
 C2497 C 0.56100 0.24115 0.33555
 C2498 C 0.57097 0.26134 0.30479
 C2499 C 0.59523 0.24571 0.35031
 C2500 C 0.60755 0.21402 0.33368
 C2501 C 0.61753 0.23443 0.30306
 C2502 C 0.60510 0.26606 0.31964
 H2503 H 0.57908 0.22280 0.26202
 H2504 H 0.55929 0.18591 0.31906
 H2505 H 0.55571 0.28092 0.29304
 H2506 H 0.60037 0.25224 0.37612
 H2507 H 0.62286 0.19450 0.34547
 H2508 H 0.61823 0.28970 0.32001
 C2509 C 0.60390 0.71682 0.17875
 C2510 C 0.57012 0.72161 0.19673
 C2511 C 0.55887 0.74445 0.16841
 C2512 C 0.59218 0.73959 0.15037
 C2513 C 0.57243 0.77440 0.18635
 C2514 C 0.58412 0.75168 0.21471
 C2515 C 0.61716 0.74706 0.19623
 C2516 C 0.60562 0.76961 0.16807
 H2517 H 0.61731 0.69311 0.17570
 H2518 H 0.55534 0.70180 0.20834
 H2519 H 0.59544 0.73441 0.12376
 H2520 H 0.55936 0.79826 0.18972
 H2521 H 0.58111 0.75686 0.24133
 H2522 H 0.62021 0.78949 0.15629
 C2523 C 0.10413 0.21429 0.67539
 C2524 C 0.07022 0.21979 0.69291
 C2525 C 0.05985 0.24292 0.66449
 C2526 C 0.09329 0.23738 0.64689
 C2527 C 0.07381 0.27252 0.68270
 C2528 C 0.08460 0.24949 0.71116
 C2529 C 0.11780 0.24416 0.69315
 C2530 C 0.10714 0.26704 0.66488
 H2531 H 0.11707 0.19031 0.67248
 H2532 H 0.05484 0.20029 0.70426
 H2533 H 0.09679 0.23221 0.62031
 H2534 H 0.06122 0.29664 0.68593
 H2535 H 0.08133 0.25466 0.73776
 H2536 H 0.12233 0.28661 0.65335
 C2537 C 0.89718 0.20535 0.66727
 C2538 C 0.90721 0.22875 0.63841
 C2539 C 0.93669 0.24006 0.65838
 C2540 C 0.92732 0.21672 0.68698
 C2541 C 0.91547 0.26780 0.67354
 C2542 C 0.88593 0.25660 0.65355
 C2543 C 0.87624 0.23342 0.68210
 C2544 C 0.90578 0.24453 0.70214
 H2545 H 0.88920 0.17964 0.66467
 H2546 H 0.90824 0.22212 0.61201
 H2547 H 0.94463 0.20042 0.70062
 H2548 H 0.92305 0.29360 0.67650
 H2549 H 0.86894 0.27307 0.63967
 H2550 H 0.90493 0.25115 0.72854
 C2551 C 0.39529 0.70518 0.16884
 C2552 C 0.40557 0.72956 0.14095
 C2553 C 0.43611 0.73851 0.16063
 C2554 C 0.42645 0.71417 0.18829
 C2555 C 0.41654 0.76626 0.17775
 C2556 C 0.38600 0.75742 0.15804
 C2557 C 0.37600 0.73326 0.18564
 C2558 C 0.40652 0.74202 0.20544
 H2559 H 0.38609 0.68005 0.16520
 H2560 H 0.40541 0.72447 0.11421
 H2561 H 0.44340 0.69646 0.20063
 H2562 H 0.42539 0.79148 0.18167
 H2563 H 0.36940 0.77532 0.14546
 H2564 H 0.40663 0.74727 0.23217
 C2565 C 0.39251 0.27754 0.33425
 C2566 C 0.40808 0.24775 0.35242
 C2567 C 0.44049 0.25333 0.33320
 C2568 C 0.42496 0.28308 0.31492
 C2569 C 0.42980 0.23031 0.30595
 C2570 C 0.39689 0.22477 0.32502
 C2571 C 0.38160 0.25476 0.30710
 C2572 C 0.41383 0.26013 0.28757
 H2573 H 0.37703 0.29701 0.34577
 H2574 H 0.40603 0.24243 0.37926
 H2575 H 0.43676 0.30714 0.31053
 H2576 H 0.44544 0.21090 0.29456
 H2577 H 0.38477 0.20083 0.32908
 H2578 H 0.41579 0.26542 0.26073
 C2579 C 0.91375 0.75982 0.78658
 C2580 C 0.92509 0.78242 0.81414
 C2581 C 0.94040 0.75237 0.83213
 C2582 C 0.92952 0.72972 0.80466
 C2583 C 0.90795 0.74686 0.85131
 C2584 C 0.89262 0.77696 0.83345
 C2585 C 0.88151 0.75454 0.80610
 C2586 C 0.89658 0.72426 0.82370
 H2587 H 0.91571 0.76537 0.75978
 H2588 H 0.93709 0.80642 0.80997
 H2589 H 0.94500 0.71029 0.79309
 H2590 H 0.90588 0.74130 0.87810
 H2591 H 0.87731 0.79644 0.84517
 H2592 H 0.88426 0.70039 0.82754
   
