data_POSCAR
  _audit_creation_date              2014-09-24
  _audit_creation_method            'ToBaCCo'
  _symmetry_space_group_name_H-M    'P1'
  _symmetry_Int_Tables_number       1
  _symmetry_cell_setting            triclinic
  loop_
  _symmetry_equiv_pos_as_xyz
 x,y,z
_cell_length_a 63.7176
_cell_length_b 63.7228
_cell_length_c 63.6672
_cell_angle_alpha 89.998300
_cell_angle_beta 90.001700
_cell_angle_gamma 89.946900
loop_
  _atom_site_label
  _atom_site_type_symbol
  _atom_site_fract_x
  _atom_site_fract_y
  _atom_site_fract_z
C1 C 0.36782 1.35328 0.33692
 C2 C 0.36784 1.33772 0.35250
 C3 C 0.35246 1.33772 0.36788
 C4 C 0.33687 1.35326 0.36788
 C5 C 0.33684 1.36864 0.35248
 C6 C 0.35241 1.36865 0.33690
 C7 C 0.38032 1.35665 0.31960
 N8 N 0.37281 1.37364 0.30926
 C9 C 0.35578 1.38114 0.31957
 C10 C 0.31950 1.38112 0.35585
 N11 N 0.30920 1.37361 0.37288
 C12 C 0.31955 1.35662 0.38038
 C13 C 0.35585 1.32040 0.38038
 N14 N 0.37287 1.31009 0.37289
 C15 C 0.38035 1.32041 0.35589
 H16 H 0.39362 1.34725 0.31468
 H17 H 0.34637 1.39441 0.31462
 H18 H 0.31454 1.39439 0.34645
 H19 H 0.31464 1.34721 0.39367
 H20 H 0.34647 1.31545 0.39366
 H21 H 0.39363 1.31547 0.34650
 C22 C 0.36753 0.85305 0.83758
 C23 C 0.36753 0.83750 0.85315
 C24 C 0.35214 0.83749 0.86853
 C25 C 0.33656 0.85305 0.86851
 C26 C 0.33656 0.86843 0.85311
 C27 C 0.35214 0.86843 0.83755
 C28 C 0.38004 0.85642 0.82026
 N29 N 0.37254 0.87341 0.80991
 C30 C 0.35553 0.88091 0.82022
 C31 C 0.31923 0.88093 0.85647
 N32 N 0.30891 0.87343 0.87348
 C33 C 0.31923 0.85643 0.88100
 C34 C 0.35553 0.82017 0.88102
 N35 N 0.37255 0.80986 0.87354
 C36 C 0.38004 0.82019 0.85654
 H37 H 0.39333 0.84704 0.81533
 H38 H 0.34614 0.89418 0.81525
 H39 H 0.31429 0.89420 0.84705
 H40 H 0.31429 0.84703 0.89428
 H41 H 0.34614 0.81522 0.89430
 H42 H 0.39333 0.81524 0.84716
 C43 C 0.86701 1.35270 0.83617
 C44 C 0.86703 1.33716 0.85177
 C45 C 0.85163 1.33715 0.86714
 C46 C 0.83603 1.35268 0.86711
 C47 C 0.83600 1.36805 0.85169
 C48 C 0.85158 1.36806 0.83613
 C49 C 0.87956 1.35610 0.81890
 N50 N 0.87206 1.37310 0.80855
 C51 C 0.85499 1.38057 0.81882
 C52 C 0.81867 1.38055 0.85509
 N53 N 0.80840 1.37307 0.87214
 C54 C 0.81874 1.35607 0.87964
 C55 C 0.85508 1.31988 0.87969
 N56 N 0.87212 1.30959 0.87224
 C57 C 0.87959 1.31990 0.85521
 H58 H 0.89290 1.34674 0.81402
 H59 H 0.84560 1.39386 0.81386
 H60 H 0.81373 1.39384 0.84570
 H61 H 0.81385 1.34670 0.89296
 H62 H 0.84571 1.31495 0.89299
 H63 H 0.89291 1.31498 0.84586
 C64 C 0.86834 0.85284 0.33655
 C65 C 0.86833 0.83725 0.35211
 C66 C 0.85293 0.83724 0.36748
 C67 C 0.83737 0.85281 0.36749
 C68 C 0.83737 0.86821 0.35212
 C69 C 0.85294 0.86823 0.33656
 C70 C 0.88085 0.85624 0.31924
 N71 N 0.87335 0.87327 0.30894
 C72 C 0.85633 0.88075 0.31926
 C73 C 0.82004 0.88069 0.35551
 N74 N 0.80971 0.87319 0.37251
 C75 C 0.82004 0.85617 0.37998
 C76 C 0.85631 0.81992 0.37997
 N77 N 0.87333 0.80960 0.37248
 C78 C 0.88082 0.81993 0.35549
 H79 H 0.89414 0.84685 0.31430
 H80 H 0.84693 0.89404 0.31434
 H81 H 0.81509 0.89399 0.34614
 H82 H 0.81509 0.84678 0.39326
 H83 H 0.84692 0.81496 0.39325
 H84 H 0.89412 0.81499 0.34611
 C85 C 0.63137 0.64653 0.33708
 C86 C 0.63138 0.66211 0.35264
 C87 C 0.64677 0.66213 0.36801
 C88 C 0.66234 0.64656 0.36802
 C89 C 0.66234 0.63116 0.35265
 C90 C 0.64676 0.63114 0.33709
 C91 C 0.61887 0.64315 0.31976
 N92 N 0.62638 0.62614 0.30945
 C93 C 0.64339 0.61864 0.31976
 C94 C 0.67968 0.61869 0.35602
 N95 N 0.69002 0.62621 0.37300
 C96 C 0.67968 0.64321 0.38049
 C97 C 0.64341 0.67947 0.38048
 N98 N 0.62641 0.68980 0.37298
 C99 C 0.61890 0.67945 0.35600
 H100 H 0.60559 0.65256 0.31481
 H101 H 0.65281 0.60537 0.31483
 H102 H 0.68464 0.60541 0.34663
 H103 H 0.68464 0.65262 0.39375
 H104 H 0.65282 0.68444 0.39374
 H105 H 0.60562 0.68440 0.34661
 C106 C 0.63299 0.14752 0.83587
 C107 C 0.63296 0.16305 0.85147
 C108 C 0.64834 0.16304 0.86686
 C109 C 0.66394 0.14751 0.86683
 C110 C 0.66399 0.13216 0.85140
 C111 C 0.64842 0.13216 0.83583
 C112 C 0.62045 0.14411 0.81858
 N113 N 0.62796 0.12712 0.80824
 C114 C 0.64502 0.11965 0.81851
 C115 C 0.68131 0.11965 0.85481
 N116 N 0.69157 0.12712 0.87187
 C117 C 0.68122 0.14412 0.87937
 C118 C 0.64488 0.18029 0.87942
 N119 N 0.62784 0.19059 0.87198
 C120 C 0.62039 0.18030 0.85493
 H121 H 0.60711 0.15347 0.81370
 H122 H 0.65441 0.10636 0.81357
 H123 H 0.68626 0.10637 0.84542
 H124 H 0.68610 0.15348 0.89271
 H125 H 0.65423 0.18521 0.89275
 H126 H 0.60707 0.18522 0.84558
 C127 C 1.13232 0.64685 0.83781
 C128 C 1.13231 0.66242 0.85337
 C129 C 1.14769 0.66244 0.86875
 C130 C 1.16328 0.64689 0.86876
 C131 C 1.16329 0.63149 0.85338
 C132 C 1.14771 0.63147 0.83781
 C133 C 1.11983 0.64346 0.82049
 N134 N 1.12733 0.62647 0.81016
 C135 C 1.14434 0.61898 0.82049
 C136 C 1.18062 0.61901 0.85675
 N137 N 1.19094 0.62653 0.87375
 C138 C 1.18061 0.64353 0.88125
 C139 C 1.14430 0.67978 0.88122
 N140 N 1.12729 0.69009 0.87372
 C141 C 1.11980 0.67973 0.85673
 H142 H 1.10654 0.65284 0.81553
 H143 H 1.15374 0.60571 0.81553
 H144 H 1.18557 0.60572 0.84735
 H145 H 1.18554 0.65295 0.89453
 H146 H 1.15369 0.68475 0.89449
 H147 H 1.10652 0.68467 0.84733
 C148 C 1.13238 0.14684 0.33662
 C149 C 1.13238 0.16237 0.35222
 C150 C 1.14777 0.16235 0.36760
 C151 C 1.16335 0.14679 0.36756
 C152 C 1.16336 0.13144 0.35214
 C153 C 1.14779 0.13147 0.33657
 C154 C 1.11986 0.14350 0.31931
 N155 N 1.12736 0.12651 0.30895
 C156 C 1.14440 0.11900 0.31923
 C157 C 1.18069 0.11894 0.35550
 N158 N 1.19099 0.12641 0.37254
 C159 C 1.18066 0.14340 0.38007
 C160 C 1.14437 0.17963 0.38014
 N161 N 1.12735 0.18996 0.37268
 C162 C 1.11986 0.17967 0.35565
 H163 H 1.10656 0.15289 0.31441
 H164 H 1.15379 0.10572 0.31425
 H165 H 1.18564 0.10568 0.34607
 H166 H 1.18557 0.15278 0.39338
 H167 H 1.15376 0.18455 0.39343
 H168 H 1.10657 0.18463 0.34629
 C169 C 0.63201 1.35259 0.66372
 C170 C 0.63200 1.33706 0.64812
 C171 C 0.64738 1.33706 0.63273
 C172 C 0.66295 1.35259 0.63275
 C173 C 0.66297 1.36795 0.64817
 C174 C 0.64741 1.36795 0.66374
 C175 C 0.61950 1.35598 0.68103
 N176 N 0.62699 1.37297 0.69137
 C177 C 0.64402 1.38044 0.68107
 C178 C 0.68028 1.38043 0.64478
 N179 N 0.69059 1.37295 0.62775
 C180 C 0.68025 1.35598 0.62024
 C181 C 0.64398 1.31979 0.62019
 N182 N 0.62696 1.30948 0.62765
 C183 C 0.61949 1.31978 0.64469
 H184 H 0.60620 1.34661 0.68594
 H185 H 0.65341 1.39371 0.68602
 H186 H 0.68523 1.39369 0.65418
 H187 H 0.68518 1.34662 0.60693
 H188 H 0.65335 1.31486 0.60688
 H189 H 0.60620 1.31485 0.65405
 C190 C 0.63142 0.85312 1.16296
 C191 C 0.63146 0.83754 1.14741
 C192 C 0.64687 0.83752 1.13205
 C193 C 0.66241 0.85309 1.13204
 C194 C 0.66236 0.86849 1.14741
 C195 C 0.64678 0.86851 1.16296
 C196 C 0.61890 0.85651 1.18027
 N197 N 0.62636 0.87353 1.19058
 C198 C 0.64337 0.88103 1.18027
 C199 C 0.67967 0.88097 1.14403
 N200 N 0.69003 0.87346 1.12705
 C201 C 0.67974 0.85645 1.11957
 C202 C 0.64353 0.82018 1.11958
 N203 N 0.62654 0.80986 1.12706
 C204 C 0.61901 0.82021 1.14405
 H205 H 0.60563 0.84711 1.18521
 H206 H 0.65275 0.89431 1.18521
 H207 H 0.68459 0.89426 1.15341
 H208 H 0.68472 0.84704 1.10631
 H209 H 0.65294 0.81521 1.10631
 H210 H 0.60573 0.81527 1.15343
 C211 C 1.13181 1.35377 1.16158
 C212 C 1.13183 1.33821 1.14601
 C213 C 1.14725 1.33817 1.13065
 C214 C 1.16283 1.35370 1.13069
 C215 C 1.16281 1.36908 1.14608
 C216 C 1.14721 1.36911 1.16162
 C217 C 1.11932 1.35713 1.17890
 N218 N 1.12682 1.37408 1.18928
 C219 C 1.14383 1.38156 1.17898
 C220 C 1.18017 1.38151 1.14278
 N221 N 1.19053 1.37398 1.12580
 C222 C 1.18021 1.35701 1.11825
 C223 C 1.14390 1.32082 1.11819
 N224 N 1.12688 1.31053 1.12568
 C225 C 1.11936 1.32090 1.14264
 H226 H 1.10605 1.34774 1.18384
 H227 H 1.15325 1.39479 1.18398
 H228 H 1.18511 1.39476 1.15222
 H229 H 1.18519 1.34758 1.10500
 H230 H 1.15332 1.31582 1.10495
 H231 H 1.10608 1.31597 1.15203
 C232 C 1.13064 0.85387 0.66145
 C233 C 1.13066 0.83829 0.64590
 C234 C 1.14604 0.83829 0.63050
 C235 C 1.16157 0.85387 0.63048
 C236 C 1.16154 0.86926 0.64585
 C237 C 1.14599 0.86927 0.66143
 C238 C 1.11820 0.85721 0.67882
 N239 N 1.12569 0.87420 0.68916
 C240 C 1.14264 0.88172 0.67879
 C241 C 1.17888 0.88171 0.64250
 N242 N 1.18924 0.87419 0.62553
 C243 C 1.17893 0.85720 0.61803
 C244 C 1.14274 0.82091 0.61808
 N245 N 1.12579 0.81056 0.62562
 C246 C 1.11826 0.82092 0.64259
 H247 H 1.10498 0.84779 0.68383
 H248 H 1.15204 0.89497 0.68375
 H249 H 1.18383 0.89497 0.65192
 H250 H 1.18392 0.84777 0.60479
 H251 H 1.15216 0.81593 0.60483
 H252 H 1.10503 0.81594 0.65202
 C253 C 0.36767 0.64693 0.66238
 C254 C 0.36764 0.66249 0.64680
 C255 C 0.35225 0.66250 0.63143
 C256 C 0.33670 0.64694 0.63144
 C257 C 0.33672 0.63156 0.64683
 C258 C 0.35230 0.63156 0.66239
 C259 C 0.38017 0.64356 0.67969
 N260 N 0.37271 0.62656 0.69004
 C261 C 0.35571 0.61908 0.67972
 C262 C 0.31942 0.61907 0.64347
 N263 N 0.30908 0.62656 0.62646
 C264 C 0.31937 0.64357 0.61894
 C265 C 0.35562 0.67982 0.61893
 N266 N 0.37262 0.69013 0.62642
 C267 C 0.38012 0.67980 0.64342
 H268 H 0.39345 0.65294 0.68463
 H269 H 0.34634 0.60580 0.68469
 H270 H 0.31450 0.60579 0.65288
 H271 H 0.31442 0.65297 0.60566
 H272 H 0.34622 0.68478 0.60565
 H273 H 0.39340 0.68473 0.65280
 C274 C 0.36822 0.14614 1.16138
 C275 C 0.36820 0.16172 1.14584
 C276 C 0.35278 0.16179 1.13049
 C277 C 0.33720 0.14627 1.13050
 C278 C 0.33722 0.13085 1.14587
 C279 C 0.35282 0.13079 1.16140
 C280 C 0.38071 0.14276 1.17870
 N281 N 0.37321 0.12579 1.18906
 C282 C 0.35620 0.11832 1.17874
 C283 C 0.31986 0.11843 1.14255
 N284 N 0.30949 0.12600 1.12559
 C285 C 0.31981 0.14298 1.11807
 C286 C 0.35612 0.17917 1.11806
 N287 N 0.37314 0.18945 1.12556
 C288 C 0.38067 0.17904 1.14251
 H289 H 0.39398 0.15214 1.18366
 H290 H 0.34679 0.10509 1.18374
 H291 H 0.31492 0.10517 1.15197
 H292 H 0.31483 0.15243 1.10483
 H293 H 0.34669 0.18420 1.10483
 H294 H 0.39395 0.18395 1.15190
 C295 C 0.86930 0.64618 1.16148
 C296 C 0.86924 0.66178 1.14596
 C297 C 0.85382 0.66183 1.13060
 C298 C 0.83827 0.64626 1.13060
 C299 C 0.83834 0.63083 1.14594
 C300 C 0.85394 0.63079 1.16147
 C301 C 0.88178 0.64280 1.17882
 N302 N 0.87431 0.62580 1.18914
 C303 C 0.85733 0.61831 1.17880
 C304 C 0.82100 0.61839 1.14262
 N305 N 0.81059 0.62595 1.12569
 C306 C 0.82088 0.64295 1.11819
 C307 C 0.85710 0.67922 1.11820
 N308 N 0.87408 0.68955 1.12571
 C309 C 0.88165 0.67915 1.14265
 H310 H 0.89501 0.65221 1.18380
 H311 H 0.84793 0.60505 1.18377
 H312 H 0.81607 0.60512 1.15202
 H313 H 0.81585 0.65240 1.10497
 H314 H 0.84765 0.68424 1.10498
 H315 H 0.89491 0.68409 1.15205
 C316 C 0.86814 0.14699 0.66327
 C317 C 0.86816 0.16254 0.64769
 C318 C 0.85278 0.16257 0.63229
 C319 C 0.83721 0.14704 0.63229
 C320 C 0.83719 0.13166 0.64769
 C321 C 0.85275 0.13164 0.66327
 C322 C 0.88064 0.14360 0.68059
 N323 N 0.87313 0.12661 0.69092
 C324 C 0.85611 0.11914 0.68060
 C325 C 0.81986 0.11920 0.64430
 N326 N 0.80956 0.12670 0.62728
 C327 C 0.81990 0.14368 0.61979
 C328 C 0.85619 0.17987 0.61979
 N329 N 0.87320 0.19016 0.62728
 C330 C 0.88067 0.17983 0.64430
 H331 H 0.89393 0.15297 0.68552
 H332 H 0.84670 0.10588 0.68555
 H333 H 0.81490 0.10593 0.65368
 H334 H 0.81497 0.15306 0.60649
 H335 H 0.84682 0.18483 0.60649
 H336 H 0.89395 0.18475 0.65368
 C337 C 1.35393 0.36809 0.66202
 C338 C 1.33839 0.36813 0.64643
 C339 C 1.33837 0.35274 0.63105
 C340 C 1.35390 0.33714 0.63108
 C341 C 1.36927 0.33710 0.64649
 C342 C 1.36929 0.35267 0.66206
 C343 C 1.35728 0.38056 0.67936
 N344 N 1.37423 0.37303 0.68974
 C345 C 1.38173 0.35601 0.67943
 C346 C 1.38171 0.31972 0.64316
 N347 N 1.37419 0.30941 0.62615
 C348 C 1.35723 0.31979 0.61861
 C349 C 1.32104 0.35613 0.61858
 N350 N 1.31073 0.37314 0.62607
 C351 C 1.32107 0.38063 0.64307
 H352 H 1.34789 0.39385 0.68430
 H353 H 1.39496 0.34659 0.68443
 H354 H 1.39495 0.31474 0.65260
 H355 H 1.34781 0.31486 0.60533
 H356 H 1.31606 0.34673 0.60532
 H357 H 1.31612 0.39390 0.65247
 C358 C 1.35285 0.86734 1.16337
 C359 C 1.33730 0.86733 1.14779
 C360 C 1.33728 0.85191 1.13244
 C361 C 1.35281 0.83631 1.13249
 C362 C 1.36819 0.83631 1.14789
 C363 C 1.36821 0.85191 1.16343
 C364 C 1.35625 0.87989 1.18064
 N365 N 1.37324 0.87240 1.19099
 C366 C 1.38071 0.85533 1.18074
 C367 C 1.38067 0.81897 1.14454
 N368 N 1.37317 0.80864 1.12753
 C369 C 1.35617 0.81898 1.12001
 C370 C 1.31998 0.85533 1.11991
 N371 N 1.30970 0.87239 1.12735
 C372 C 1.32003 0.87988 1.14435
 H373 H 1.34687 0.89322 1.18552
 H374 H 1.39398 0.84592 1.18571
 H375 H 1.39396 0.81403 1.15395
 H376 H 1.34679 0.81405 1.10671
 H377 H 1.31503 0.84594 1.10664
 H378 H 1.31511 0.89320 1.15369
 C379 C 0.85286 0.36730 1.16369
 C380 C 0.83728 0.36732 1.14813
 C381 C 0.83727 0.35195 1.13274
 C382 C 0.85283 0.33638 1.13271
 C383 C 0.86823 0.33635 1.14809
 C384 C 0.86825 0.35190 1.16368
 C385 C 0.85627 0.37981 1.18100
 N386 N 0.87330 0.37231 1.19130
 C387 C 0.88078 0.35529 1.18098
 C388 C 0.88074 0.31904 1.14467
 N389 N 0.87323 0.30876 1.12763
 C390 C 0.85621 0.31909 1.12017
 C391 C 0.81996 0.35537 1.12024
 N392 N 0.80965 0.37239 1.12774
 C393 C 0.81998 0.37984 1.14475
 H394 H 0.84689 0.39311 1.18594
 H395 H 0.89408 0.34589 1.18589
 H396 H 0.89405 0.31410 1.15404
 H397 H 0.84681 0.31419 1.10687
 H398 H 0.81501 0.34602 1.10693
 H399 H 0.81505 0.39313 1.15414
 C400 C 0.85354 0.86894 0.66185
 C401 C 0.83798 0.86892 0.64628
 C402 C 0.83799 0.85352 0.63091
 C403 C 0.85357 0.83797 0.63092
 C404 C 0.86895 0.83798 0.64631
 C405 C 0.86894 0.85356 0.66187
 C406 C 0.85688 0.88140 0.67920
 N407 N 0.87386 0.87391 0.68956
 C408 C 0.88139 0.85692 0.67922
 C409 C 0.88142 0.82063 0.64298
 N410 N 0.87392 0.81027 0.62600
 C411 C 0.85693 0.82061 0.61848
 C412 C 0.82064 0.85685 0.61845
 N413 N 0.81028 0.87383 0.62594
 C414 C 0.82062 0.88136 0.64292
 H415 H 0.84745 0.89466 0.68416
 H416 H 0.89465 0.84752 0.68421
 H417 H 0.89468 0.81567 0.65240
 H418 H 0.84752 0.81562 0.60523
 H419 H 0.81568 0.84743 0.60519
 H420 H 0.81564 0.89462 0.65233
 C421 C 0.64640 0.63091 0.66196
 C422 C 0.66197 0.63091 0.64639
 C423 C 0.66197 0.64629 0.63100
 C424 C 0.64639 0.66185 0.63100
 C425 C 0.63101 0.66185 0.64638
 C426 C 0.63101 0.64630 0.66195
 C427 C 0.64306 0.61846 0.67932
 N428 N 0.62607 0.62597 0.68966
 C429 C 0.61856 0.64295 0.67931
 C430 C 0.61854 0.67920 0.64303
 N431 N 0.62605 0.68954 0.62604
 C432 C 0.64304 0.67920 0.61853
 C433 C 0.67932 0.64294 0.61855
 N434 N 0.68967 0.62597 0.62607
 C435 C 0.67933 0.61846 0.64306
 H436 H 0.65248 0.60521 0.68430
 H437 H 0.60530 0.65236 0.68428
 H438 H 0.60529 0.68418 0.65244
 H439 H 0.65245 0.68416 0.60527
 H440 H 0.68429 0.65235 0.60529
 H441 H 0.68431 0.60521 0.65247
 C442 C 0.64700 1.13250 1.16341
 C443 C 0.66256 1.13251 1.14785
 C444 C 0.66257 1.14790 1.13248
 C445 C 0.64700 1.16347 1.13248
 C446 C 0.63161 1.16347 1.14787
 C447 C 0.63161 1.14789 1.16343
 C448 C 0.64361 1.11996 1.18071
 N449 N 0.62659 1.12745 1.19103
 C450 C 0.61909 1.14448 1.18074
 C451 C 0.61910 1.18078 1.14449
 N452 N 0.62660 1.19110 1.12747
 C453 C 0.64362 1.18079 1.11998
 C454 C 0.67988 1.14451 1.11997
 N455 N 0.69020 1.12750 1.12744
 C456 C 0.67987 1.12000 1.14445
 H457 H 0.65300 1.10666 1.18562
 H458 H 0.60579 1.15387 1.18567
 H459 H 0.60580 1.18571 1.15388
 H460 H 0.65302 1.18572 1.10669
 H461 H 0.68482 1.15390 1.10669
 H462 H 0.68481 1.10670 1.15382
 C463 C 0.14739 0.63311 1.16388
 C464 C 0.16294 0.63310 1.14830
 C465 C 0.16296 0.64851 1.13295
 C466 C 0.14743 0.66412 1.13299
 C467 C 0.13206 0.66414 1.14840
 C468 C 0.13204 0.64854 1.16394
 C469 C 0.14398 0.62054 1.18115
 N470 N 0.12699 0.62803 1.19149
 C471 C 0.11952 0.64511 1.18125
 C472 C 0.11956 0.68147 1.14502
 N473 N 0.12705 0.69177 1.12799
 C474 C 0.14405 0.68143 1.12048
 C475 C 0.18024 0.64508 1.12040
 N476 N 0.19051 0.62801 1.12783
 C477 C 0.18020 0.62054 1.14485
 H478 H 0.15334 0.60720 1.18601
 H479 H 0.10624 0.65450 1.18621
 H480 H 0.10627 0.68640 1.15441
 H481 H 0.15343 0.68633 1.10717
 H482 H 0.18518 0.65446 1.10711
 H483 H 0.18510 0.60721 1.15419
 C484 C 0.14718 1.13267 0.66373
 C485 C 0.16271 1.13263 0.64813
 C486 C 0.16271 1.14801 0.63274
 C487 C 0.14717 1.16361 0.63277
 C488 C 0.13181 1.16365 0.64818
 C489 C 0.13181 1.14809 0.66376
 C490 C 0.14379 1.12015 0.68104
 N491 N 0.12679 1.12767 0.69138
 C492 C 0.11932 1.14471 0.68109
 C493 C 0.11932 1.18098 0.64479
 N494 N 0.12680 1.19125 0.62774
 C495 C 0.14379 1.18090 0.62023
 C496 C 0.17998 1.14457 0.62020
 N497 N 0.19028 1.12754 0.62766
 C498 C 0.17999 1.12009 0.64470
 H499 H 0.15316 1.10683 0.68594
 H500 H 0.10604 1.15412 0.68603
 H501 H 0.10604 1.18594 0.65419
 H502 H 0.15317 1.18579 0.60691
 H503 H 0.18490 1.15393 0.60689
 H504 H 0.18492 1.10679 0.65407
 C505 C 1.35285 0.63275 0.33661
 C506 C 1.33729 0.63276 0.35218
 C507 C 1.33723 0.64818 0.36753
 C508 C 1.35274 0.66378 0.36749
 C509 C 1.36813 0.66377 0.35209
 C510 C 1.36818 0.64817 0.33656
 C511 C 1.35628 0.62018 0.31935
 N512 N 1.37327 0.62767 0.30901
 C513 C 1.38071 0.64474 0.31926
 C514 C 1.38059 0.68110 0.35546
 N515 N 1.37307 0.69143 0.37247
 C516 C 1.35608 0.68111 0.37998
 C517 C 1.31994 0.64476 0.38005
 N518 N 1.30969 0.62770 0.37261
 C519 C 1.32004 0.62021 0.35562
 H520 H 1.34693 0.60685 0.31447
 H521 H 1.39397 0.65414 0.31430
 H522 H 1.39388 0.68602 0.34606
 H523 H 1.34669 0.68603 0.39328
 H524 H 1.31497 0.65415 0.39333
 H525 H 1.31516 0.60688 0.34627
 C526 C 1.35316 1.13245 0.83773
 C527 C 1.33760 1.13245 0.85331
 C528 C 1.33757 1.14785 0.86868
 C529 C 1.35310 1.16343 0.86866
 C530 C 1.36849 1.16342 0.85326
 C531 C 1.36851 1.14784 0.83771
 C532 C 1.35654 1.11995 0.82042
 N533 N 1.37352 1.12743 0.81006
 C534 C 1.38099 1.14445 0.82037
 C535 C 1.38095 1.18075 0.85662
 N536 N 1.37344 1.19107 0.87363
 C537 C 1.35645 1.18076 0.88115
 C538 C 1.32025 1.14447 0.88117
 N539 N 1.30996 1.12745 0.87368
 C540 C 1.32031 1.11996 0.85669
 H541 H 1.34717 1.10666 0.81549
 H542 H 1.39424 1.15383 0.81539
 H543 H 1.39423 1.18568 0.84721
 H544 H 1.34704 1.18570 0.89443
 H545 H 1.31527 1.15386 0.89444
 H546 H 1.31539 1.10667 0.84730
 C547 C 0.85348 0.63116 0.83822
 C548 C 0.83790 0.63117 0.85377
 C549 C 0.83786 0.64657 0.86914
 C550 C 0.85340 0.66214 0.86914
 C551 C 0.86880 0.66212 0.85377
 C552 C 0.86884 0.64654 0.83822
 C553 C 0.85686 0.61868 0.82088
 N554 N 0.87384 0.62618 0.81054
 C555 C 0.88132 0.64317 0.82088
 C556 C 0.88124 0.67946 0.85711
 N557 N 0.87370 0.68983 0.87408
 C558 C 0.85672 0.67950 0.88159
 C559 C 0.82050 0.64323 0.88159
 N560 N 0.81019 0.62624 0.87409
 C561 C 0.82057 0.61872 0.85712
 H562 H 0.84747 0.60542 0.81591
 H563 H 0.89456 0.65258 0.81591
 H564 H 0.89450 0.68441 0.84771
 H565 H 0.84730 0.68448 0.89483
 H566 H 0.81551 0.65265 0.89484
 H567 H 0.81563 0.60545 0.84772
 C568 C 0.85413 1.13037 0.33900
 C569 C 0.83853 1.13041 0.35452
 C570 C 0.83850 1.14579 0.36991
 C571 C 0.85408 1.16132 0.36995
 C572 C 0.86950 1.16128 0.35460
 C573 C 0.86953 1.14572 0.33904
 C574 C 0.85748 1.11795 0.32162
 N575 N 0.87447 1.12544 0.31129
 C576 C 0.88199 1.14238 0.32168
 C577 C 0.88194 1.17862 0.35794
 N578 N 0.87438 1.18901 0.37488
 C579 C 0.85739 1.17870 0.38238
 C580 C 0.82109 1.14251 0.38229
 N581 N 0.81074 1.12556 0.37474
 C582 C 0.82114 1.11802 0.35779
 H583 H 0.84804 1.10474 0.31659
 H584 H 0.89523 1.15179 0.31672
 H585 H 0.89520 1.18357 0.34853
 H586 H 0.84793 1.18372 0.39559
 H587 H 0.81607 1.15194 0.39552
 H588 H 0.81617 1.10479 0.34835
 C589 C 0.64685 0.36863 0.33724
 C590 C 0.66243 0.36859 0.35280
 C591 C 0.66242 0.35320 0.36818
 C592 C 0.64684 0.33768 0.36820
 C593 C 0.63144 0.33772 0.35282
 C594 C 0.63144 0.35329 0.33725
 C595 C 0.64349 0.38113 0.31990
 N596 N 0.62646 0.37366 0.30960
 C597 C 0.61895 0.35668 0.31993
 C598 C 0.61895 0.32042 0.35620
 N599 N 0.62645 0.31007 0.37319
 C600 C 0.64346 0.32036 0.38068
 C601 C 0.67976 0.35652 0.38065
 N602 N 0.69011 0.37349 0.37315
 C603 C 0.67978 0.38102 0.35616
 H604 H 0.65291 0.39437 0.31495
 H605 H 0.60566 0.34730 0.31500
 H606 H 0.60567 0.31550 0.34681
 H607 H 0.65287 0.31537 0.39394
 H608 H 0.68471 0.34712 0.39393
 H609 H 0.68474 0.39428 0.34676
 C610 C 0.64633 0.86888 0.83818
 C611 C 0.66190 0.86889 0.85373
 C612 C 0.66194 0.85350 0.86912
 C613 C 0.64640 0.83794 0.86914
 C614 C 0.63101 0.83794 0.85376
 C615 C 0.63097 0.85350 0.83819
 C616 C 0.64295 0.88134 0.82082
 N617 N 0.62598 0.87382 0.81048
 C618 C 0.61850 0.85684 0.82084
 C619 C 0.61858 0.82059 0.85711
 N620 N 0.62611 0.81025 0.87410
 C621 C 0.64308 0.82059 0.88160
 C622 C 0.67929 0.85686 0.88157
 N623 N 0.68961 0.87384 0.87405
 C624 C 0.67923 0.88135 0.85707
 H625 H 0.65234 0.89459 0.81584
 H626 H 0.60526 0.84743 0.81587
 H627 H 0.60532 0.81562 0.84771
 H628 H 0.65251 0.81562 0.89485
 H629 H 0.68429 0.84745 0.89483
 H630 H 0.68417 0.89460 0.84765
 C631 C 0.14662 0.36888 0.83729
 C632 C 0.16215 0.36887 0.85289
 C633 C 0.16213 0.35349 0.86829
 C634 C 0.14657 0.33794 0.86826
 C635 C 0.13121 0.33795 0.85285
 C636 C 0.13123 0.35351 0.83727
 C637 C 0.14329 0.38135 0.81994
 N638 N 0.12631 0.37385 0.80958
 C639 C 0.11878 0.35687 0.81990
 C640 C 0.11875 0.32063 0.85620
 N641 N 0.12622 0.31029 0.87322
 C642 C 0.14320 0.32062 0.88074
 C643 C 0.17944 0.35684 0.88079
 N644 N 0.18979 0.37381 0.87330
 C645 C 0.17948 0.38132 0.85628
 H646 H 0.15271 0.39461 0.81500
 H647 H 0.10553 0.34746 0.81494
 H648 H 0.10550 0.31567 0.84678
 H649 H 0.15258 0.31566 0.89403
 H650 H 0.18438 0.34744 0.89407
 H651 H 0.18446 0.39457 0.84688
 C652 C 0.14649 0.86861 0.33706
 C653 C 0.16205 0.86861 0.35264
 C654 C 0.16208 0.85320 0.36800
 C655 C 0.14656 0.83763 0.36798
 C656 C 0.13118 0.83763 0.35259
 C657 C 0.13114 0.85321 0.33704
 C658 C 0.14311 0.88112 0.31974
 N659 N 0.12613 0.87361 0.30940
 C660 C 0.11866 0.85659 0.31969
 C661 C 0.11874 0.82028 0.35594
 N662 N 0.12627 0.80994 0.37293
 C663 C 0.14323 0.82028 0.38044
 C664 C 0.17941 0.85657 0.38049
 N665 N 0.18971 0.87358 0.37301
 C666 C 0.17936 0.88109 0.35602
 H667 H 0.15250 0.89440 0.31482
 H668 H 0.10541 0.84717 0.31473
 H669 H 0.10548 0.81532 0.34654
 H670 H 0.15264 0.81532 0.39371
 H671 H 0.18439 0.84716 0.39375
 H672 H 0.18429 0.89437 0.34664
 O673 O 0.97955 0.92441 0.89559
 O674 O 0.97951 0.90002 0.87101
 C675 C 0.97238 0.91710 0.87847
 C676 C 0.95528 0.92836 0.86744
 C677 C 0.94832 0.92164 0.84761
 H678 H 0.95583 0.90845 0.83991
 O679 O 1.02038 1.07600 0.89539
 O680 O 1.02039 1.10041 0.87083
 C681 C 1.02755 1.08334 0.87829
 C682 C 1.04470 1.07212 0.86728
 C683 C 1.05177 1.07896 0.84753
 H684 H 1.04431 1.09220 0.83986
 O685 O 0.89537 0.97986 0.92429
 O686 O 0.87083 0.97980 0.89987
 C687 C 0.87828 0.97269 0.91697
 C688 C 0.86727 0.95560 0.92824
 C689 C 0.84746 0.94864 0.92152
 H690 H 0.83975 0.95614 0.90833
 O691 O 1.10457 1.02063 0.92417
 O692 O 1.12911 1.02062 0.89974
 C693 C 1.12167 1.02777 0.91683
 C694 C 1.13269 1.04486 0.92808
 C695 C 1.15248 1.05186 0.92132
 H696 H 1.16017 1.04438 0.90810
 O697 O 0.92419 0.89573 0.97967
 O698 O 0.89982 0.87118 0.97964
 C699 C 0.91688 0.87862 0.97251
 C700 C 0.92815 0.86759 0.95541
 C701 C 0.92144 0.84777 0.94845
 H702 H 0.90825 0.84009 0.95595
 O703 O 1.07575 1.10468 0.97952
 O704 O 1.10013 1.12923 0.97948
 C705 C 1.08306 1.12178 0.97235
 C706 C 1.07179 1.13281 0.95525
 C707 C 1.07851 1.15260 0.94825
 H708 H 1.09172 1.16028 0.95573
 O709 O 0.92408 1.02074 0.89548
 O710 O 0.89970 1.02073 0.87089
 C711 C 0.91676 1.02787 0.87835
 C712 C 0.92799 1.04496 0.86730
 C713 C 0.92121 1.05197 0.84750
 H714 H 0.90798 1.04451 0.83983
 O715 O 1.07578 0.97976 0.89545
 O716 O 1.10015 0.97969 0.87085
 C717 C 1.08308 0.97259 0.87833
 C718 C 1.07181 0.95551 0.86731
 C719 C 1.07847 0.94858 0.84745
 H720 H 1.09163 0.95608 0.83971
 O721 O 1.02051 0.89564 0.92429
 O722 O 1.02054 0.87110 0.89987
 C723 C 1.02768 0.87854 0.91695
 C724 C 1.04479 0.86751 0.92820
 C725 C 1.05180 0.84771 0.92144
 H726 H 1.04432 0.84003 0.90822
 O727 O 0.97941 1.10474 0.92414
 O728 O 0.97936 1.12929 0.89972
 C729 C 0.97223 1.12184 0.91681
 C730 C 0.95511 1.13286 0.92805
 C731 C 0.94803 1.15261 0.92122
 H732 H 0.95547 1.16026 0.90796
 O733 O 0.89529 1.07614 0.97958
 O734 O 0.87074 1.10056 0.97956
 C735 C 0.87819 1.08349 0.97241
 C736 C 0.86719 1.07228 0.95526
 C737 C 0.84747 1.07913 0.94814
 H738 H 0.83980 1.09239 0.95557
 O739 O 1.10459 0.92433 0.97962
 O740 O 1.12916 0.89993 0.97957
 C741 C 1.12169 0.91700 0.97243
 C742 C 1.13267 0.92823 0.95529
 C743 C 1.15245 0.92144 0.94825
 H744 H 1.16014 0.90823 0.95573
 O745 O 0.97944 1.07600 0.89539
 O746 O 0.97940 1.10039 0.87081
 C747 C 0.97227 1.08333 0.87827
 C748 C 0.95516 1.07210 0.86725
 C749 C 0.94813 1.07886 0.84746
 H750 H 0.95560 1.09207 0.83976
 O751 O 1.02047 0.92439 0.89555
 O752 O 1.02049 0.90001 0.87096
 C753 C 1.02761 0.91708 0.87842
 C754 C 1.04467 0.92834 0.86736
 C755 C 1.05158 0.92165 0.84750
 H756 H 1.04407 0.90848 0.83980
 O757 O 1.10453 0.97970 0.92419
 O758 O 1.12907 0.97963 0.89975
 C759 C 1.12162 0.97251 0.91684
 C760 C 1.13264 0.95539 0.92809
 C761 C 1.15242 0.94835 0.92130
 H762 H 1.16008 0.95581 0.90806
 O763 O 0.89535 1.02079 0.92423
 O764 O 0.87081 1.02079 0.89981
 C765 C 0.87825 1.02795 0.91688
 C766 C 0.86723 1.04510 0.92809
 C767 C 0.84750 1.05219 0.92122
 H768 H 0.83986 1.04475 0.90795
 O769 O 0.92407 1.10480 0.97957
 O770 O 0.89968 1.12938 0.97956
 C771 C 0.91674 1.12191 0.97241
 C772 C 0.92796 1.13290 0.95526
 C773 C 0.92113 1.15264 0.94818
 H774 H 0.90789 1.16032 0.95564
 O775 O 1.07588 0.89560 0.97967
 O776 O 1.10029 0.87104 0.97962
 C777 C 1.08321 0.87850 0.97250
 C778 C 1.07196 0.86749 0.95539
 C779 C 1.07872 0.84770 0.94839
 H780 H 1.09193 0.84001 0.95587
 O781 O 1.07582 1.02068 0.89542
 O782 O 1.10021 1.02068 0.87084
 C783 C 1.08314 1.02784 0.87831
 C784 C 1.07191 1.04497 0.86729
 C785 C 1.07873 1.05205 0.84754
 H786 H 1.09199 1.04462 0.83988
 O787 O 0.92413 0.97981 0.89556
 O788 O 0.89974 0.97976 0.87098
 C789 C 0.91682 0.97264 0.87845
 C790 C 0.92809 0.95553 0.86743
 C791 C 0.92139 0.94857 0.84760
 H792 H 0.90819 0.95607 0.83989
 O793 O 1.02034 1.10472 0.92416
 O794 O 1.02035 1.12928 0.89975
 C795 C 1.02749 1.12182 0.91684
 C796 C 1.04459 1.13283 0.92809
 C797 C 1.05156 1.15262 0.92134
 H798 H 1.04405 1.16032 0.90814
 O799 O 0.97958 0.89566 0.92432
 O800 O 0.97955 0.87111 0.89990
 C801 C 0.97243 0.87856 0.91699
 C802 C 0.95533 0.86755 0.92825
 C803 C 0.94838 0.84774 0.92153
 H804 H 0.95589 0.84003 0.90834
 O805 O 1.10453 1.07596 0.97953
 O806 O 1.12906 1.10035 0.97949
 C807 C 1.12162 1.08328 0.97236
 C808 C 1.13266 1.07203 0.95526
 C809 C 1.15244 1.07878 0.94826
 H810 H 1.16011 1.09199 0.95575
 O811 O 0.89546 0.92449 0.97968
 O812 O 0.87093 0.90010 0.97965
 C813 C 0.87836 0.91717 0.97252
 C814 C 0.86732 0.92843 0.95542
 C815 C 0.84751 0.92171 0.94846
 H816 H 0.83983 0.90852 0.95597
 Cu817 Cu 1.00003 0.91247 0.91239
 Cu818 Cu 1.00003 0.88310 0.88297
 Cu819 Cu 0.99989 1.08792 0.91221
 Cu820 Cu 0.99987 1.11730 0.88281
 Cu821 Cu 0.91218 1.00030 0.91234
 Cu822 Cu 0.88281 1.00027 0.88292
 Cu823 Cu 1.08773 1.00020 0.91225
 Cu824 Cu 1.11709 1.00015 0.88283
 C825 C 0.94518 0.94545 0.87713
 H826 H 0.95027 0.95055 0.89254
 C827 C 0.93150 0.93175 0.83772
 C828 C 1.05475 1.05499 0.87693
 H829 H 1.04957 1.04980 0.89228
 C830 C 1.06867 1.06893 0.83769
 C831 C 0.87697 0.94552 0.94533
 H832 H 0.89237 0.95062 0.95043
 C833 C 0.83761 0.93182 0.93163
 C834 C 1.12301 1.05493 0.94519
 H835 H 1.10763 1.04980 0.95032
 C836 C 1.16232 1.06870 0.93141
 C837 C 0.94524 0.87725 0.94533
 H838 H 0.95033 0.89264 0.95043
 C839 C 0.93155 0.83788 0.93163
 C840 C 1.05468 1.12315 0.94518
 H841 H 1.04958 1.10776 0.95030
 C842 C 1.06840 1.16248 0.93142
 C843 C 0.94512 1.05500 0.87694
 H844 H 0.95026 1.04987 0.89232
 C845 C 0.93127 1.06880 0.83761
 C846 C 1.05476 0.94542 0.87704
 H847 H 1.04970 0.95049 0.89247
 C848 C 1.06836 0.93177 0.83757
 C849 C 1.05485 0.87716 0.94532
 H850 H 1.04972 0.89254 0.95045
 C851 C 1.06864 0.83784 0.93153
 C852 C 0.94509 1.12324 0.94521
 H853 H 0.95027 1.10789 0.95040
 C854 C 0.93116 1.16246 0.93128
 C855 C 0.87684 1.05512 0.94525
 H856 H 0.89217 1.04992 0.95046
 C857 C 0.83765 1.06909 0.93123
 C858 C 1.12300 0.94535 0.94523
 H859 H 1.10763 0.95050 0.95039
 C860 C 1.16229 0.93150 0.93137
 O861 O 1.02056 0.92441 1.10471
 O862 O 1.02058 0.90004 1.12931
 C863 C 1.02771 0.91710 1.12184
 C864 C 1.04480 0.92834 1.13287
 C865 C 1.05180 0.92159 1.15268
 H866 H 1.04432 0.90839 1.16037
 O867 O 0.97960 1.07600 1.10464
 O868 O 0.97957 1.10038 1.12923
 C869 C 0.97246 1.08330 1.12177
 C870 C 0.95541 1.07202 1.13282
 C871 C 0.94853 1.07865 1.15271
 H872 H 0.95606 1.09180 1.16044
 O873 O 0.89544 1.02073 1.07595
 O874 O 0.87092 1.02080 1.10041
 C875 C 0.87835 1.02792 1.08331
 C876 C 0.86732 1.04504 1.07207
 C877 C 0.84756 1.05208 1.07888
 H878 H 0.83990 1.04462 1.09212
 O879 O 1.10465 0.97968 1.07596
 O880 O 1.12920 0.97965 1.10037
 C881 C 1.12175 0.97251 1.08329
 C882 C 1.13277 0.95539 1.07206
 C883 C 1.15253 0.94832 1.07886
 H884 H 1.16020 0.95577 1.09211
 O885 O 1.07595 0.89558 1.02064
 O886 O 1.10037 0.87103 1.02064
 C887 C 1.08331 0.87848 1.02781
 C888 C 1.07210 0.86749 1.04497
 C889 C 1.07896 0.84776 1.05208
 H890 H 1.09221 0.84010 1.04464
 O891 O 0.92407 1.10481 1.02054
 O892 O 0.89968 1.12938 1.02060
 C893 C 0.91675 1.12191 1.02773
 C894 C 0.92799 1.13290 1.04487
 C895 C 0.92118 1.15265 1.05195
 H896 H 0.90793 1.16033 1.04451
 O897 O 0.92419 0.97975 1.10467
 O898 O 0.89982 0.97975 1.12927
 C899 C 0.91688 0.97259 1.12179
 C900 C 0.92812 0.95547 1.13281
 C901 C 0.92133 0.94843 1.15259
 H902 H 0.90809 0.95589 1.16026
 O903 O 1.07589 1.02065 1.10467
 O904 O 1.10030 1.02069 1.12923
 C905 C 1.08322 1.02783 1.12177
 C906 C 1.07199 1.04497 1.13278
 C907 C 1.07880 1.05201 1.15255
 H908 H 1.09202 1.04454 1.16022
 O909 O 0.97968 0.89567 1.07594
 O910 O 0.97965 0.87112 1.10036
 C911 C 0.97253 0.87857 1.08327
 C912 C 0.95544 0.86756 1.07201
 C913 C 0.94851 0.84772 1.07869
 H914 H 0.95604 0.84000 1.09187
 O915 O 1.02044 1.10479 1.07587
 O916 O 1.02045 1.12934 1.10028
 C917 C 1.02758 1.12189 1.08319
 C918 C 1.04466 1.13291 1.07191
 C919 C 1.05162 1.15272 1.07862
 H920 H 1.04413 1.16043 1.09182
 O921 O 0.89543 0.92445 1.02063
 O922 O 0.87091 0.90005 1.02067
 C923 C 0.87834 0.91712 1.02780
 C924 C 0.86731 0.92837 1.04492
 C925 C 0.84754 0.92162 1.05194
 H926 H 0.83986 0.90840 1.04447
 O927 O 1.10451 1.07596 1.02049
 O928 O 1.12905 1.10035 1.02050
 C929 C 1.12161 1.08328 1.02765
 C930 C 1.13266 1.07202 1.04475
 C931 C 1.15247 1.07874 1.05170
 H932 H 1.16015 1.09193 1.04420
 O933 O 1.02053 1.07607 1.10464
 O934 O 1.02055 1.10046 1.12921
 C935 C 1.02770 1.08340 1.12175
 C936 C 1.04483 1.07216 1.13277
 C937 C 1.05188 1.07896 1.15254
 H938 H 1.04443 1.09220 1.16021
 O939 O 0.97962 0.92439 1.10471
 O940 O 0.97959 0.90000 1.12928
 C941 C 0.97245 0.91707 1.12181
 C942 C 0.95532 0.92831 1.13282
 C943 C 0.94828 0.92151 1.15260
 H944 H 0.95575 0.90829 1.16028
 O945 O 1.10461 1.02060 1.07590
 O946 O 1.12917 1.02064 1.10030
 C947 C 1.12171 1.02776 1.08321
 C948 C 1.13271 1.04485 1.07194
 C949 C 1.15252 1.05182 1.07865
 H950 H 1.16024 1.04432 1.09184
 O951 O 0.89542 0.97980 1.07595
 O952 O 0.87089 0.97981 1.10040
 C953 C 0.87832 0.97266 1.08331
 C954 C 0.86730 0.95556 1.07208
 C955 C 0.84752 0.94856 1.07886
 H956 H 0.83984 0.95605 1.09208
 O957 O 1.07577 1.10471 1.02048
 O958 O 1.10015 1.12926 1.02049
 C959 C 1.08308 1.12181 1.02763
 C960 C 1.07182 1.13286 1.04472
 C961 C 1.07853 1.15267 1.05166
 H962 H 1.09172 1.16035 1.04415
 O963 O 0.92424 0.89575 1.02062
 O964 O 0.89987 0.87120 1.02065
 C965 C 0.91694 0.87864 1.02778
 C966 C 0.92823 0.86760 1.04485
 C967 C 0.92156 0.84777 1.05179
 H968 H 0.90837 0.84008 1.04428
 O969 O 1.07589 0.97972 1.10470
 O970 O 1.10029 0.97970 1.12927
 C971 C 1.08322 0.97257 1.12182
 C972 C 1.07197 0.95549 1.13286
 C973 C 1.07872 0.94849 1.15267
 H974 H 1.09193 0.95596 1.16036
 O975 O 0.92424 1.02067 1.10465
 O976 O 0.89988 1.02073 1.12927
 C977 C 0.91695 1.02782 1.12179
 C978 C 0.92825 1.04487 1.13283
 C979 C 0.92162 1.05175 1.15271
 H980 H 0.90847 1.04423 1.16045
 O981 O 0.97951 1.10476 1.07591
 O982 O 0.97946 1.12930 1.10034
 C983 C 0.97232 1.12185 1.08326
 C984 C 0.95518 1.13287 1.07204
 C985 C 0.94812 1.15262 1.07887
 H986 H 0.95558 1.16027 1.09212
 O987 O 1.02061 0.89563 1.07601
 O988 O 1.02064 0.87110 1.10044
 C989 C 1.02779 0.87854 1.08336
 C990 C 1.04493 0.86752 1.07215
 C991 C 1.05203 0.84779 1.07901
 H992 H 1.04459 0.84015 1.09228
 O993 O 1.10465 0.92433 1.02059
 O994 O 1.12922 0.89993 1.02059
 C995 C 1.12176 0.91700 1.02774
 C996 C 1.13278 0.92823 1.04487
 C997 C 1.15254 0.92141 1.05192
 H998 H 1.16020 0.90818 1.04445
 O999 O 0.89536 1.07608 1.02055
 O1000 O 0.87081 1.10050 1.02060
 C1001 C 0.87827 1.08342 1.02773
 C1002 C 0.86728 1.07219 1.04487
 C1003 C 0.84751 1.07899 1.05193
 H1004 H 0.83982 1.09221 1.04446
 Cu1005 Cu 1.00012 0.91247 1.08789
 Cu1006 Cu 1.00012 0.88311 1.11731
 Cu1007 Cu 1.00002 1.08796 1.08782
 Cu1008 Cu 1.00000 1.11733 1.11723
 Cu1009 Cu 0.91227 0.91255 1.00015
 Cu1010 Cu 0.88292 0.88317 1.00016
 Cu1011 Cu 1.08782 0.91240 1.00014
 Cu1012 Cu 1.11722 0.88302 1.00010
 Cu1013 Cu 0.91214 1.08801 1.00006
 Cu1014 Cu 0.88277 1.11742 1.00008
 Cu1015 Cu 1.08770 1.08788 1.00001
 Cu1016 Cu 1.11705 1.11726 0.99999
 Cu1017 Cu 0.91226 1.00023 1.08785
 Cu1018 Cu 0.88292 1.00028 1.11730
 Cu1019 Cu 1.08781 1.00016 1.08786
 Cu1020 Cu 1.11720 1.00017 1.11726
 C1021 C 1.05487 0.94543 1.12319
 H1022 H 1.04975 0.95055 1.10779
 C1023 C 1.06864 0.93166 1.16255
 C1024 C 0.94529 1.05498 1.12311
 H1025 H 0.95032 1.04994 1.10765
 C1026 C 0.93176 1.06852 1.16263
 C1027 C 0.87695 1.05507 1.05492
 H1028 H 0.89231 1.04992 1.04976
 C1029 C 0.83768 1.06894 1.06881
 C1030 C 1.12312 0.94536 1.05491
 H1031 H 1.10777 0.95053 1.04975
 C1032 C 1.16238 0.93145 1.06880
 C1033 C 1.05495 0.87714 1.05499
 H1034 H 1.04975 0.89247 1.04978
 C1035 C 1.06892 0.83794 1.06899
 C1036 C 0.94513 1.12324 1.05489
 H1037 H 0.95030 1.10789 1.04971
 C1038 C 0.93124 1.16248 1.06884
 C1039 C 0.94526 0.94543 1.12316
 H1040 H 0.95041 0.95058 1.10779
 C1041 C 0.93140 0.93157 1.16245
 C1042 C 1.05487 1.05502 1.12311
 H1043 H 1.04971 1.04986 1.10775
 C1044 C 1.06875 1.06889 1.16240
 C1045 C 0.94531 0.87727 1.05494
 H1046 H 0.95038 0.89268 1.04987
 C1047 C 0.93169 0.83786 1.06858
 C1048 C 1.05474 1.12321 1.05482
 H1049 H 1.04964 1.10781 1.04973
 C1050 C 1.06844 1.16257 1.06849
 C1051 C 0.87696 0.94549 1.05496
 H1052 H 0.89233 0.95061 1.04982
 C1053 C 0.83767 0.93171 1.06879
 C1054 C 1.12300 1.05494 1.05485
 H1055 H 1.10761 1.04984 1.04975
 C1056 C 1.16237 1.06864 1.06853
 O1057 O 0.97981 0.42390 0.39534
 O1058 O 0.97981 0.39947 0.37081
 C1059 C 0.97265 0.41654 0.37824
 C1060 C 0.95551 0.42774 0.36721
 C1061 C 0.94844 0.42089 0.34746
 H1062 H 0.95591 0.40765 0.33981
 O1063 O 1.02075 0.57557 0.39528
 O1064 O 1.02073 0.59996 0.37070
 C1065 C 1.02791 0.58291 0.37817
 C1066 C 1.04506 0.57171 0.36715
 C1067 C 1.05215 0.57857 0.34742
 H1068 H 1.04469 0.59182 0.33977
 O1069 O 0.89573 0.47925 0.42411
 O1070 O 0.87117 0.47924 0.39970
 C1071 C 0.87863 0.47211 0.41679
 C1072 C 0.86761 0.45503 0.42807
 C1073 C 0.84782 0.44805 0.42132
 H1074 H 0.84013 0.45552 0.40809
 O1075 O 1.10489 0.52026 0.42407
 O1076 O 1.12944 0.52022 0.39965
 C1077 C 1.12199 0.52739 0.41673
 C1078 C 1.13300 0.54451 0.42795
 C1079 C 1.15274 0.55157 0.42113
 H1080 H 1.16041 0.54412 0.40788
 O1081 O 0.92451 0.39533 0.47965
 O1082 O 0.90016 0.37076 0.47962
 C1083 C 0.91722 0.37822 0.47250
 C1084 C 0.92851 0.36718 0.45542
 C1085 C 0.92186 0.34733 0.44852
 H1086 H 0.90870 0.33962 0.45606
 O1087 O 1.07607 0.60430 0.47941
 O1088 O 1.10043 0.62887 0.47938
 C1089 C 1.08337 0.62140 0.47224
 C1090 C 1.07209 0.63242 0.45513
 C1091 C 1.07881 0.65221 0.44812
 H1092 H 1.09201 0.65991 0.45560
 O1093 O 0.92448 0.52012 0.39533
 O1094 O 0.90009 0.52016 0.37075
 C1095 C 0.91717 0.52727 0.37821
 C1096 C 0.92844 0.54434 0.36717
 C1097 C 0.92175 0.55127 0.34731
 H1098 H 0.90857 0.54376 0.33960
 O1099 O 1.07608 0.47936 0.39537
 O1100 O 1.10047 0.47928 0.37079
 C1101 C 1.08339 0.47218 0.37826
 C1102 C 1.07212 0.45510 0.36724
 C1103 C 1.07881 0.44816 0.34739
 H1104 H 1.09198 0.45566 0.33968
 O1105 O 1.02079 0.39523 0.42413
 O1106 O 1.02085 0.37066 0.39974
 C1107 C 1.02797 0.37812 0.41682
 C1108 C 1.04507 0.36710 0.42808
 C1109 C 1.05210 0.34732 0.42131
 H1110 H 1.04465 0.33965 0.40807
 O1111 O 0.97975 0.60427 0.42402
 O1112 O 0.97968 0.62880 0.39958
 C1113 C 0.97256 0.62136 0.41667
 C1114 C 0.95544 0.63237 0.42791
 C1115 C 0.94840 0.65215 0.42112
 H1116 H 0.95587 0.65982 0.40789
 O1117 O 0.89568 0.57555 0.47941
 O1118 O 0.87110 0.59995 0.47938
 C1119 C 0.87857 0.58288 0.47225
 C1120 C 0.86755 0.57163 0.45513
 C1121 C 0.84775 0.57838 0.44813
 H1122 H 0.84006 0.59159 0.45561
 O1123 O 1.10482 0.42393 0.47951
 O1124 O 1.12939 0.39952 0.47950
 C1125 C 1.12192 0.41659 0.47235
 C1126 C 1.13293 0.42782 0.45521
 C1127 C 1.15271 0.42102 0.44818
 H1128 H 1.16039 0.40780 0.45565
 O1129 O 0.97982 0.57547 0.39532
 O1130 O 0.97975 0.59985 0.37072
 C1131 C 0.97265 0.58277 0.37819
 C1132 C 0.95559 0.57150 0.36716
 C1133 C 0.94865 0.57818 0.34730
 H1134 H 0.95615 0.59135 0.33959
 O1135 O 1.02074 0.42400 0.39541
 O1136 O 1.02080 0.39959 0.37086
 C1137 C 1.02790 0.41668 0.37830
 C1138 C 1.04498 0.42794 0.36726
 C1139 C 1.05192 0.42123 0.34741
 H1140 H 1.04442 0.40805 0.33971
 O1141 O 1.10484 0.47932 0.42411
 O1142 O 1.12938 0.47923 0.39969
 C1143 C 1.12193 0.47212 0.41678
 C1144 C 1.13293 0.45499 0.42803
 C1145 C 1.15271 0.44795 0.42125
 H1146 H 1.16038 0.45542 0.40802
 O1147 O 0.89570 0.52017 0.42404
 O1148 O 0.87115 0.52022 0.39962
 C1149 C 0.87860 0.52735 0.41671
 C1150 C 0.86757 0.54446 0.42795
 C1151 C 0.84777 0.55145 0.42120
 H1152 H 0.84009 0.54397 0.40798
 O1153 O 0.92438 0.60428 0.47939
 O1154 O 0.89997 0.62884 0.47936
 C1155 C 0.91704 0.62138 0.47222
 C1156 C 0.92827 0.63239 0.45509
 C1157 C 0.92148 0.65216 0.44806
 H1158 H 0.90825 0.65985 0.45552
 O1159 O 1.07611 0.39520 0.47957
 O1160 O 1.10052 0.37064 0.47956
 C1161 C 1.08344 0.37809 0.47242
 C1162 C 1.07221 0.36708 0.45530
 C1163 C 1.07900 0.34730 0.44828
 H1164 H 1.09222 0.33962 0.45576
 O1165 O 1.07617 0.52029 0.39529
 O1166 O 1.10056 0.52026 0.37072
 C1167 C 1.08350 0.52743 0.37818
 C1168 C 1.07228 0.54457 0.36715
 C1169 C 1.07912 0.55168 0.34742
 H1170 H 1.09239 0.54426 0.33976
 O1171 O 0.92441 0.47919 0.39530
 O1172 O 0.90001 0.47918 0.37073
 C1173 C 0.91708 0.47203 0.37819
 C1174 C 0.92831 0.45489 0.36718
 C1175 C 0.92149 0.44780 0.34743
 H1176 H 0.90823 0.45523 0.33976
 O1177 O 1.02068 0.60427 0.42406
 O1178 O 1.02066 0.62882 0.39964
 C1179 C 1.02781 0.62137 0.41672
 C1180 C 1.04490 0.63240 0.42797
 C1181 C 1.05186 0.65220 0.42121
 H1182 H 1.04435 0.65988 0.40800
 O1183 O 0.97987 0.39529 0.42421
 O1184 O 0.97987 0.37069 0.39984
 C1185 C 0.97273 0.37817 0.41692
 C1186 C 0.95567 0.36715 0.42822
 C1187 C 0.94877 0.34730 0.42157
 H1188 H 0.95629 0.33957 0.40839
 O1189 O 1.10485 0.57558 0.47942
 O1190 O 1.12936 0.59999 0.47940
 C1191 C 1.12194 0.58291 0.47226
 C1192 C 1.13297 0.57168 0.45513
 C1193 C 1.15271 0.57850 0.44806
 H1194 H 1.16035 0.59174 0.45551
 O1195 O 0.89571 0.42402 0.47961
 O1196 O 0.87119 0.39961 0.47958
 C1197 C 0.87862 0.41668 0.47244
 C1198 C 0.86760 0.42791 0.45530
 C1199 C 0.84781 0.42117 0.44830
 H1200 H 0.84012 0.40798 0.45581
 Cu1201 Cu 1.00030 0.41205 0.41222
 Cu1202 Cu 1.00033 0.38264 0.38285
 Cu1203 Cu 1.00025 0.58745 0.41212
 Cu1204 Cu 1.00020 0.61682 0.38270
 Cu1205 Cu 0.91253 0.49968 0.41214
 Cu1206 Cu 0.88314 0.49970 0.38274
 Cu1207 Cu 1.08805 0.49982 0.41216
 Cu1208 Cu 1.11742 0.49974 0.38275
 C1209 C 0.94546 0.44488 0.37684
 H1210 H 0.95063 0.45008 0.39219
 C1211 C 0.93155 0.43092 0.33760
 C1212 C 1.05510 0.55457 0.37679
 H1213 H 1.04991 0.54936 0.39213
 C1214 C 1.06906 0.56856 0.33758
 C1215 C 0.87727 0.44498 0.44520
 H1216 H 0.89265 0.45010 0.45032
 C1217 C 0.83795 0.43123 0.43143
 C1218 C 1.12334 0.55454 0.44510
 H1219 H 1.10800 0.54938 0.45028
 C1220 C 1.16256 0.56845 0.43118
 C1221 C 0.94556 0.37687 0.44529
 H1222 H 0.95061 0.39229 0.45034
 C1223 C 0.93199 0.33742 0.43172
 C1224 C 1.05500 0.62274 0.44507
 H1225 H 1.04990 0.60736 0.45020
 C1226 C 1.06869 0.66207 0.43128
 C1227 C 0.94550 0.55443 0.37686
 H1228 H 0.95058 0.54936 0.39229
 C1229 C 0.93185 0.56806 0.33741
 C1230 C 1.05506 0.44502 0.37694
 H1231 H 1.04998 0.45010 0.39236
 C1232 C 1.06871 0.43135 0.33751
 C1233 C 1.05510 0.37675 0.44522
 H1234 H 1.04995 0.39212 0.45036
 C1235 C 1.06895 0.33745 0.43140
 C1236 C 0.94539 0.62272 0.44504
 H1237 H 0.95054 0.60736 0.45019
 C1238 C 0.93154 0.66201 0.43119
 C1239 C 0.87724 0.55453 0.44506
 H1240 H 0.89262 0.54940 0.45019
 C1241 C 0.83790 0.56829 0.43128
 C1242 C 1.12327 0.44494 0.44515
 H1243 H 1.10791 0.45010 0.45030
 C1244 C 1.16256 0.43109 0.43131
 O1245 O 1.02074 0.42410 0.60472
 O1246 O 1.02081 0.39972 0.62931
 C1247 C 1.02792 0.41679 0.62183
 C1248 C 1.04503 0.42804 0.63284
 C1249 C 1.05202 0.42132 0.65266
 H1250 H 1.04453 0.40814 0.66038
 O1251 O 0.97979 0.57558 0.60458
 O1252 O 0.97974 0.60000 0.62912
 C1253 C 0.97263 0.58292 0.62169
 C1254 C 0.95555 0.57168 0.63273
 C1255 C 0.94859 0.57842 0.65256
 H1256 H 0.95608 0.59161 0.66025
 O1257 O 0.89573 0.52026 0.57587
 O1258 O 0.87116 0.52035 0.60028
 C1259 C 0.87862 0.52744 0.58318
 C1260 C 0.86759 0.54452 0.57188
 C1261 C 0.84776 0.55148 0.57857
 H1262 H 0.84006 0.54400 0.59178
 O1263 O 1.10487 0.47937 0.57583
 O1264 O 1.12943 0.47933 0.60024
 C1265 C 1.12198 0.47220 0.58315
 C1266 C 1.13300 0.45510 0.57189
 C1267 C 1.15283 0.44813 0.57860
 H1268 H 1.16053 0.45563 0.59179
 O1269 O 1.07612 0.39525 0.52054
 O1270 O 1.10054 0.37070 0.52059
 C1271 C 1.08347 0.37816 0.52773
 C1272 C 1.07225 0.36718 0.54489
 C1273 C 1.07906 0.34743 0.55197
 H1274 H 1.09230 0.33974 0.54452
 O1275 O 0.92441 0.60428 0.52035
 O1276 O 0.90000 0.62884 0.52038
 C1277 C 0.91708 0.62138 0.52751
 C1278 C 0.92833 0.63241 0.54461
 C1279 C 0.92161 0.65224 0.55156
 H1280 H 0.90842 0.65994 0.54404
 O1281 O 0.92442 0.47933 0.60471
 O1282 O 0.90001 0.47937 0.62927
 C1283 C 0.91708 0.47220 0.62182
 C1284 C 0.92830 0.45507 0.63286
 C1285 C 0.92143 0.44799 0.65260
 H1286 H 0.90816 0.45543 0.66023
 O1287 O 1.07613 0.52030 0.60459
 O1288 O 1.10053 0.52033 0.62916
 C1289 C 1.08345 0.52746 0.62170
 C1290 C 1.07220 0.54457 0.63272
 C1291 C 1.07896 0.55159 0.65252
 H1292 H 1.09218 0.54411 0.66020
 O1293 O 0.97984 0.39534 0.57599
 O1294 O 0.97986 0.37079 0.60041
 C1295 C 0.97270 0.37824 0.58333
 C1296 C 0.95559 0.36722 0.57209
 C1297 C 0.94858 0.34745 0.57888
 H1298 H 0.95606 0.33978 0.59212
 O1299 O 1.02068 0.60429 0.57578
 O1300 O 1.02068 0.62887 0.60016
 C1301 C 1.02781 0.62141 0.58308
 C1302 C 1.04488 0.63243 0.57179
 C1303 C 1.05177 0.65228 0.57846
 H1304 H 1.04425 0.66000 0.59164
 O1305 O 0.89568 0.42404 0.52058
 O1306 O 0.87116 0.39963 0.52061
 C1307 C 0.87859 0.41670 0.52774
 C1308 C 0.86756 0.42794 0.54487
 C1309 C 0.84781 0.42115 0.55193
 H1310 H 0.84014 0.40792 0.54447
 O1311 O 1.10483 0.57559 0.52039
 O1312 O 1.12935 0.60000 0.52042
 C1313 C 1.12192 0.58293 0.52756
 C1314 C 1.13294 0.57170 0.54470
 C1315 C 1.15270 0.57849 0.55173
 H1316 H 1.16037 0.59171 0.54425
 O1317 O 1.02072 0.57561 0.60459
 O1318 O 1.02073 0.60003 0.62913
 C1319 C 1.02788 0.58296 0.62169
 C1320 C 1.04501 0.57173 0.63272
 C1321 C 1.05201 0.57850 0.65252
 H1322 H 1.04453 0.59172 0.66020
 O1323 O 0.97980 0.42403 0.60480
 O1324 O 0.97981 0.39963 0.62937
 C1325 C 0.97264 0.41669 0.62191
 C1326 C 0.95549 0.42790 0.63291
 C1327 C 0.94837 0.42106 0.65265
 H1328 H 0.95580 0.40781 0.66032
 O1329 O 1.10486 0.52029 0.57584
 O1330 O 1.12942 0.52031 0.60025
 C1331 C 1.12196 0.52745 0.58316
 C1332 C 1.13296 0.54456 0.57191
 C1333 C 1.15273 0.55159 0.57869
 H1334 H 1.16041 0.54413 0.59193
 O1335 O 0.89569 0.47934 0.57595
 O1336 O 0.87113 0.47938 0.60036
 C1337 C 0.87858 0.47221 0.58328
 C1338 C 0.86756 0.45510 0.57205
 C1339 C 0.84781 0.44808 0.57886
 H1340 H 0.84014 0.45554 0.59210
 O1341 O 1.07604 0.60429 0.52036
 O1342 O 1.10039 0.62886 0.52039
 C1343 C 1.08333 0.62140 0.52752
 C1344 C 1.07204 0.63243 0.54460
 C1345 C 1.07869 0.65228 0.55152
 H1346 H 1.09185 0.65999 0.54399
 O1347 O 0.92447 0.39533 0.52061
 O1348 O 0.90011 0.37077 0.52064
 C1349 C 0.91716 0.37823 0.52778
 C1350 C 0.92842 0.36722 0.54491
 C1351 C 0.92165 0.34745 0.55195
 H1352 H 0.90843 0.33978 0.54449
 O1353 O 1.07614 0.47938 0.60461
 O1354 O 1.10055 0.47935 0.62917
 C1355 C 1.08347 0.47223 0.62173
 C1356 C 1.07222 0.45516 0.63278
 C1357 C 1.07896 0.44819 0.65261
 H1358 H 1.09217 0.45567 0.66028
 O1359 O 0.92445 0.52026 0.60464
 O1360 O 0.90005 0.52035 0.62921
 C1361 C 0.91713 0.52744 0.62175
 C1362 C 0.92839 0.54453 0.63276
 C1363 C 0.92168 0.55152 0.65259
 H1364 H 0.90849 0.54403 0.66030
 O1365 O 0.97976 0.60428 0.57579
 O1366 O 0.97970 0.62886 0.60017
 C1367 C 0.97258 0.62139 0.58309
 C1368 C 0.95548 0.63241 0.57181
 C1369 C 0.94852 0.65224 0.57851
 H1370 H 0.95601 0.65994 0.59171
 O1371 O 1.02077 0.39533 0.57600
 O1372 O 1.02085 0.37079 0.60043
 C1373 C 1.02796 0.37824 0.58334
 C1374 C 1.04509 0.36722 0.57209
 C1375 C 1.05215 0.34747 0.57892
 H1376 H 1.04470 0.33982 0.59217
 O1377 O 1.10484 0.42398 0.52048
 O1378 O 1.12941 0.39958 0.52051
 C1379 C 1.12196 0.41666 0.52763
 C1380 C 1.13299 0.42793 0.54472
 C1381 C 1.15281 0.42120 0.55167
 H1382 H 1.16051 0.40801 0.54417
 O1383 O 0.89569 0.57556 0.52037
 O1384 O 0.87112 0.59996 0.52040
 C1385 C 0.87859 0.58288 0.52754
 C1386 C 0.86757 0.57164 0.54465
 C1387 C 0.84774 0.57836 0.55159
 H1388 H 0.84003 0.59153 0.54406
 Cu1389 Cu 1.00028 0.41214 0.58793
 Cu1390 Cu 1.00034 0.38277 0.61734
 Cu1391 Cu 1.00024 0.58749 0.58774
 Cu1392 Cu 1.00021 0.61691 0.61711
 Cu1393 Cu 0.91253 0.41213 0.50011
 Cu1394 Cu 0.88320 0.38273 0.50011
 Cu1395 Cu 1.08803 0.41203 0.50002
 Cu1396 Cu 1.11742 0.38265 0.50004
 Cu1397 Cu 0.91249 0.58747 0.49988
 Cu1398 Cu 0.88308 0.61686 0.49988
 Cu1399 Cu 1.08801 0.58749 0.49989
 Cu1400 Cu 1.11734 0.61689 0.49990
 Cu1401 Cu 0.91252 0.49979 0.58785
 Cu1402 Cu 0.88313 0.49987 0.61724
 Cu1403 Cu 1.08806 0.49984 0.58777
 Cu1404 Cu 1.11745 0.49982 0.61717
 C1405 C 1.05511 0.44510 0.62312
 H1406 H 1.04999 0.45019 0.60772
 C1407 C 1.06886 0.43139 0.66252
 C1408 C 0.94547 0.55459 0.62306
 H1409 H 0.95056 0.54948 0.60766
 C1410 C 0.93177 0.56834 0.66246
 C1411 C 0.87727 0.55458 0.55478
 H1412 H 0.89268 0.54949 0.54970
 C1413 C 0.83786 0.56827 0.56843
 C1414 C 1.12331 0.44502 0.55480
 H1415 H 1.10791 0.45012 0.54971
 C1416 C 1.16270 0.43131 0.56849
 C1417 C 1.05512 0.37685 0.55494
 H1418 H 1.04995 0.39220 0.54976
 C1419 C 1.06902 0.33760 0.56887
 C1420 C 0.94541 0.62272 0.55472
 H1421 H 0.95051 0.60732 0.54964
 C1422 C 0.93170 0.66212 0.56839
 C1423 C 0.94547 0.44505 0.62325
 H1424 H 0.95068 0.45024 0.60791
 C1425 C 0.93146 0.43110 0.66246
 C1426 C 1.05508 0.55462 0.62305
 H1427 H 1.04995 0.54948 0.60767
 C1428 C 1.06887 0.56843 0.66238
 C1429 C 0.94553 0.37688 0.55496
 H1430 H 0.95066 0.39224 0.54981
 C1431 C 0.93173 0.33760 0.56882
 C1432 C 1.05499 0.62273 0.55472
 H1433 H 1.04994 0.60731 0.54966
 C1434 C 1.06856 0.66217 0.56833
 C1435 C 0.87721 0.44505 0.55491
 H1436 H 0.89256 0.45020 0.54975
 C1437 C 0.83796 0.43122 0.56881
 C1438 C 1.12330 0.55460 0.55477
 H1439 H 1.10794 0.54945 0.54962
 C1440 C 1.16257 0.56844 0.56861
 O1441 O 0.47930 0.92419 0.39506
 O1442 O 0.47931 0.89980 0.37048
 C1443 C 0.47215 0.91687 0.37794
 C1444 C 0.45502 0.92810 0.36693
 C1445 C 0.44796 0.92129 0.34717
 H1446 H 0.45541 0.90804 0.33950
 O1447 O 0.52027 1.07590 0.39513
 O1448 O 0.52028 1.10032 0.37058
 C1449 C 0.52743 1.08325 0.37802
 C1450 C 0.54455 1.07202 0.36699
 C1451 C 0.55162 1.07886 0.34724
 H1452 H 0.54417 1.09211 0.33958
 O1453 O 0.39528 0.97961 0.42387
 O1454 O 0.37071 0.97963 0.39946
 C1455 C 0.37817 0.97248 0.41654
 C1456 C 0.36715 0.95539 0.42779
 C1457 C 0.34735 0.94842 0.42104
 H1458 H 0.33966 0.95592 0.40783
 O1459 O 0.60423 1.02044 0.42390
 O1460 O 0.62881 1.02046 0.39952
 C1461 C 0.62135 1.02758 0.41661
 C1462 C 0.63238 1.04463 0.42792
 C1463 C 0.65224 1.05152 0.42127
 H1464 H 0.65996 1.04399 0.40809
 O1465 O 0.42402 0.89544 0.47918
 O1466 O 0.39961 0.87093 0.47917
 C1467 C 0.41668 0.87835 0.47201
 C1468 C 0.42789 0.86733 0.45487
 C1469 C 0.42108 0.84759 0.44779
 H1470 H 0.40784 0.83994 0.45525
 O1471 O 0.57555 1.10456 0.47939
 O1472 O 0.59995 1.12908 0.47934
 C1473 C 0.58287 1.12164 0.47222
 C1474 C 0.57162 1.13267 0.45510
 C1475 C 0.57837 1.15246 0.44811
 H1476 H 0.59157 1.16014 0.45560
 O1477 O 0.42404 1.02049 0.39513
 O1478 O 0.39965 1.02056 0.37056
 C1479 C 0.41673 1.02766 0.37802
 C1480 C 0.42799 1.04474 0.36699
 C1481 C 0.42129 1.05168 0.34715
 H1482 H 0.40812 1.04418 0.33943
 O1483 O 0.57552 0.97957 0.39508
 O1484 O 0.59993 0.97954 0.37053
 C1485 C 0.58286 0.97241 0.37797
 C1486 C 0.57163 0.95531 0.36694
 C1487 C 0.57841 0.94830 0.34714
 H1488 H 0.59162 0.95578 0.33946
 O1489 O 0.52025 0.89545 0.42382
 O1490 O 0.52031 0.87090 0.39940
 C1491 C 0.52742 0.87835 0.41649
 C1492 C 0.54453 0.86733 0.42776
 C1493 C 0.55154 0.84753 0.42101
 H1494 H 0.54406 0.83984 0.40780
 O1495 O 0.47931 1.10460 0.42391
 O1496 O 0.47925 1.12916 0.39951
 C1497 C 0.47213 1.12170 0.41659
 C1498 C 0.45502 1.13272 0.42785
 C1499 C 0.44801 1.15251 0.42110
 H1500 H 0.45548 1.16020 0.40788
 O1501 O 0.39524 1.07588 0.47931
 O1502 O 0.37068 1.10030 0.47928
 C1503 C 0.37814 1.08322 0.47213
 C1504 C 0.36714 1.07200 0.45499
 C1505 C 0.34737 1.07880 0.44794
 H1506 H 0.33968 1.09202 0.45541
 O1507 O 0.60430 0.92418 0.47923
 O1508 O 0.62887 0.89978 0.47921
 C1509 C 0.62141 0.91685 0.47207
 C1510 C 0.63242 0.92808 0.45494
 C1511 C 0.65220 0.92131 0.44792
 H1512 H 0.65989 0.90809 0.45540
 O1513 O 0.47935 1.07586 0.39516
 O1514 O 0.47929 1.10026 0.37060
 C1515 C 0.47219 1.08318 0.37805
 C1516 C 0.45512 1.07192 0.36700
 C1517 C 0.44817 1.07861 0.34716
 H1518 H 0.45566 1.09180 0.33945
 O1519 O 0.52023 0.92419 0.39507
 O1520 O 0.52030 0.89981 0.37049
 C1521 C 0.52741 0.91688 0.37795
 C1522 C 0.54450 0.92813 0.36693
 C1523 C 0.55153 0.92137 0.34714
 H1524 H 0.54408 0.90815 0.33945
 O1525 O 0.60427 0.97952 0.42382
 O1526 O 0.62884 0.97949 0.39943
 C1527 C 0.62138 0.97236 0.41650
 C1528 C 0.63240 0.95524 0.42775
 C1529 C 0.65219 0.94822 0.42098
 H1530 H 0.65986 0.95569 0.40775
 O1531 O 0.39528 1.02054 0.42387
 O1532 O 0.37073 1.02061 0.39945
 C1533 C 0.37819 1.02773 0.41654
 C1534 C 0.36717 1.04485 0.42779
 C1535 C 0.34740 1.05189 0.42099
 H1536 H 0.33974 1.04443 0.40775
 O1537 O 0.42395 1.10461 0.47933
 O1538 O 0.39955 1.12918 0.47930
 C1539 C 0.41662 1.12172 0.47216
 C1540 C 0.42786 1.13273 0.45505
 C1541 C 0.42110 1.15253 0.44805
 H1542 H 0.40789 1.16022 0.45553
 O1543 O 0.57558 0.89546 0.47923
 O1544 O 0.60000 0.87090 0.47922
 C1545 C 0.58292 0.87835 0.47207
 C1546 C 0.57169 0.86733 0.45495
 C1547 C 0.57845 0.84753 0.44797
 H1548 H 0.59166 0.83984 0.45546
 O1549 O 0.57558 1.02051 0.39506
 O1550 O 0.60000 1.02054 0.37052
 C1551 C 0.58293 1.02768 0.37796
 C1552 C 0.57171 1.04483 0.36696
 C1553 C 0.57853 1.05191 0.34720
 H1554 H 0.59177 1.04446 0.33953
 O1555 O 0.42397 0.97956 0.39507
 O1556 O 0.39956 0.97958 0.37051
 C1557 C 0.41663 0.97241 0.37796
 C1558 C 0.42785 0.95528 0.36693
 C1559 C 0.42102 0.94822 0.34717
 H1560 H 0.40778 0.95567 0.33950
 O1561 O 0.52024 1.10458 0.42395
 O1562 O 0.52024 1.12915 0.39955
 C1563 C 0.52738 1.12168 0.41663
 C1564 C 0.54447 1.13269 0.42790
 C1565 C 0.55145 1.15248 0.42115
 H1566 H 0.54397 1.16018 0.40794
 O1567 O 0.47932 0.89543 0.42378
 O1568 O 0.47932 0.87089 0.39936
 C1569 C 0.47217 0.87833 0.41644
 C1570 C 0.45505 0.86732 0.42767
 C1571 C 0.44799 0.84758 0.42084
 H1572 H 0.45544 0.83992 0.40759
 O1573 O 0.60424 1.07576 0.47940
 O1574 O 0.62881 1.10012 0.47935
 C1575 C 0.62135 1.08305 0.47223
 C1576 C 0.63238 1.07177 0.45513
 C1577 C 0.65224 1.07840 0.44824
 H1578 H 0.65996 1.09155 0.45579
 O1579 O 0.39531 0.92422 0.47920
 O1580 O 0.37074 0.89987 0.47919
 C1581 C 0.37819 0.91693 0.47205
 C1582 C 0.36717 0.92820 0.45495
 C1583 C 0.34737 0.92148 0.44796
 H1584 H 0.33968 0.90827 0.45544
 Cu1585 Cu 0.49977 0.91226 0.41188
 Cu1586 Cu 0.49982 0.88289 0.38247
 Cu1587 Cu 0.49979 1.08779 0.41198
 Cu1588 Cu 0.49976 1.11719 0.38260
 Cu1589 Cu 0.41209 1.00004 0.41193
 Cu1590 Cu 0.38270 1.00010 0.38253
 Cu1591 Cu 0.58745 1.00001 0.41191
 Cu1592 Cu 0.61686 1.00001 0.38253
 C1593 C 0.44499 0.94524 0.37658
 H1594 H 0.45016 0.95041 0.39193
 C1595 C 0.43108 0.93133 0.33732
 C1596 C 0.55458 1.05487 0.37662
 H1597 H 0.54941 1.04968 0.39197
 C1598 C 0.56849 1.06881 0.33737
 C1599 C 0.37683 0.94530 0.44489
 H1600 H 0.39221 0.95040 0.45001
 C1601 C 0.33749 0.93158 0.43112
 C1602 C 0.62267 1.05474 0.44499
 H1603 H 0.60724 1.04971 0.45004
 C1604 C 0.66214 1.06828 0.43144
 C1605 C 0.44502 0.87697 0.44482
 H1606 H 0.45019 0.89231 0.45000
 C1607 C 0.43112 0.83775 0.43090
 C1608 C 0.55453 1.12301 0.44502
 H1609 H 0.54942 1.10764 0.45014
 C1610 C 0.56828 1.16234 0.43125
 C1611 C 0.44505 1.05483 0.37669
 H1612 H 0.45013 1.04975 0.39211
 C1613 C 0.43138 1.06850 0.33726
 C1614 C 0.55454 0.94524 0.37661
 H1615 H 0.54939 0.95037 0.39199
 C1616 C 0.56836 0.93145 0.33727
 C1617 C 0.55459 0.87700 0.44487
 H1618 H 0.54945 0.89238 0.44999
 C1619 C 0.56838 0.83766 0.43112
 C1620 C 0.44497 1.12306 0.44497
 H1621 H 0.45010 1.10768 0.45010
 C1622 C 0.43117 1.16238 0.43119
 C1623 C 0.37681 1.05488 0.44493
 H1624 H 0.39217 1.04973 0.45009
 C1625 C 0.33753 1.06874 0.43106
 C1626 C 0.62275 0.94519 0.44488
 H1627 H 0.60737 0.95034 0.45001
 C1628 C 0.66205 0.93137 0.43106
 O1629 O 0.52020 0.92419 0.60437
 O1630 O 0.52026 0.89979 0.62894
 C1631 C 0.52737 0.91687 0.62149
 C1632 C 0.54444 0.92813 0.63253
 C1633 C 0.55139 0.92141 0.65237
 H1634 H 0.54390 0.90822 0.66007
 O1635 O 0.47937 1.07581 0.60449
 O1636 O 0.47930 1.10022 0.62906
 C1637 C 0.47219 1.08314 0.62160
 C1638 C 0.45509 1.07190 0.63261
 C1639 C 0.44808 1.07866 0.65241
 H1640 H 0.45556 1.09186 0.66011
 O1641 O 0.39525 1.02059 0.57568
 O1642 O 0.37068 1.02060 0.60008
 C1643 C 0.37814 1.02775 0.58301
 C1644 C 0.36711 1.04487 0.57177
 C1645 C 0.34736 1.05193 0.57859
 H1646 H 0.33971 1.04449 0.59184
 O1647 O 0.60425 0.97955 0.57567
 O1648 O 0.62882 0.97945 0.60007
 C1649 C 0.62136 0.97236 0.58298
 C1650 C 0.63238 0.95528 0.57169
 C1651 C 0.65221 0.94831 0.57838
 H1652 H 0.65991 0.95580 0.59158
 O1653 O 0.57557 0.89547 0.52019
 O1654 O 0.59999 0.87091 0.52023
 C1655 C 0.58290 0.87836 0.52736
 C1656 C 0.57166 0.86734 0.54446
 C1657 C 0.57838 0.84752 0.55142
 H1658 H 0.59157 0.83982 0.54391
 O1659 O 0.42397 1.10457 0.52029
 O1660 O 0.39958 1.12915 0.52032
 C1661 C 0.41665 1.12168 0.52746
 C1662 C 0.42790 1.13269 0.54458
 C1663 C 0.42117 1.15250 0.55156
 H1664 H 0.40797 1.16021 0.54406
 O1665 O 0.42398 0.97961 0.60442
 O1666 O 0.39956 0.97957 0.62897
 C1667 C 0.41664 0.97244 0.62152
 C1668 C 0.42787 0.95531 0.63254
 C1669 C 0.42110 0.94830 0.65233
 H1670 H 0.40789 0.95579 0.66002
 O1671 O 0.57560 1.02050 0.60452
 O1672 O 0.60002 1.02046 0.62907
 C1673 C 0.58295 1.02764 0.62163
 C1674 C 0.57176 1.04479 0.63266
 C1675 C 0.57865 1.05189 0.65238
 H1676 H 0.59191 1.04444 0.66002
 O1677 O 0.47930 0.89545 0.57562
 O1678 O 0.47930 0.87089 0.60003
 C1679 C 0.47216 0.87835 0.58295
 C1680 C 0.45507 0.86733 0.57169
 C1681 C 0.44805 0.84756 0.57846
 H1682 H 0.45551 0.83988 0.59170
 O1683 O 0.52028 1.10457 0.57577
 O1684 O 0.52026 1.12913 0.60017
 C1685 C 0.52742 1.12167 0.58310
 C1686 C 0.54452 1.13269 0.57186
 C1687 C 0.55157 1.15243 0.57867
 H1688 H 0.54412 1.16010 0.59192
 O1689 O 0.39536 0.92425 0.52016
 O1690 O 0.37078 0.89991 0.52020
 C1691 C 0.37825 0.91697 0.52732
 C1692 C 0.36723 0.92826 0.54442
 C1693 C 0.34738 0.92159 0.55134
 H1694 H 0.33968 0.90842 0.54382
 O1695 O 0.60430 1.07582 0.52036
 O1696 O 0.62886 1.10018 0.52037
 C1697 C 0.62141 1.08312 0.52752
 C1698 C 0.63243 1.07188 0.54464
 C1699 C 0.65220 1.07864 0.55168
 H1700 H 0.65987 1.09185 0.54422
 O1701 O 0.52031 1.07587 0.60456
 O1702 O 0.52030 1.10028 0.62912
 C1703 C 0.52746 1.08321 0.62167
 C1704 C 0.54461 1.07199 0.63268
 C1705 C 0.55174 1.07885 0.65241
 H1706 H 0.54433 1.09212 0.66006
 O1707 O 0.47928 0.92418 0.60438
 O1708 O 0.47927 0.89978 0.62895
 C1709 C 0.47213 0.91686 0.62150
 C1710 C 0.45502 0.92811 0.63253
 C1711 C 0.44800 0.92134 0.65232
 H1712 H 0.45546 0.90811 0.66000
 O1713 O 0.60429 1.02048 0.57573
 O1714 O 0.62886 1.02043 0.60012
 C1715 C 0.62140 1.02760 0.58305
 C1716 C 0.63242 1.04470 0.57182
 C1717 C 0.65219 1.05170 0.57861
 H1718 H 0.65986 1.04423 0.59184
 O1719 O 0.39532 0.97966 0.57559
 O1720 O 0.37074 0.97962 0.59998
 C1721 C 0.37821 0.97250 0.58289
 C1722 C 0.36720 0.95543 0.57160
 C1723 C 0.34736 0.94851 0.57828
 H1724 H 0.33964 0.95603 0.59146
 O1725 O 0.57557 1.10457 0.52036
 O1726 O 0.59997 1.12909 0.52037
 C1727 C 0.58290 1.12166 0.52752
 C1728 C 0.57168 1.13268 0.54466
 C1729 C 0.57848 1.15243 0.55172
 H1730 H 0.59171 1.16009 0.54426
 O1731 O 0.42405 0.89544 0.52015
 O1732 O 0.39963 0.87094 0.52020
 C1733 C 0.41671 0.87836 0.52733
 C1734 C 0.42793 0.86734 0.54446
 C1735 C 0.42117 0.84757 0.55148
 H1736 H 0.40796 0.83989 0.54398
 O1737 O 0.57552 0.97957 0.60444
 O1738 O 0.59993 0.97947 0.62900
 C1739 C 0.58284 0.97238 0.62154
 C1740 C 0.57159 0.95529 0.63256
 C1741 C 0.57829 0.94833 0.65240
 H1742 H 0.59146 0.95582 0.66012
 O1743 O 0.42400 1.02054 0.60442
 O1744 O 0.39959 1.02056 0.62898
 C1745 C 0.41667 1.02769 0.62154
 C1746 C 0.42791 1.04477 0.63259
 C1747 C 0.42114 1.05178 0.65239
 H1748 H 0.40793 1.04432 0.66007
 O1749 O 0.47935 1.10454 0.57573
 O1750 O 0.47928 1.12910 0.60013
 C1751 C 0.47217 1.12165 0.58305
 C1752 C 0.45506 1.13267 0.57177
 C1753 C 0.44809 1.15248 0.57850
 H1754 H 0.45558 1.16017 0.59171
 O1755 O 0.52023 0.89547 0.57561
 O1756 O 0.52028 0.87091 0.60001
 C1757 C 0.52740 0.87836 0.58293
 C1758 C 0.54450 0.86734 0.57165
 C1759 C 0.55147 0.84752 0.57836
 H1760 H 0.54398 0.83982 0.59156
 O1761 O 0.60427 0.92421 0.52019
 O1762 O 0.62884 0.89982 0.52023
 C1763 C 0.62137 0.91689 0.52736
 C1764 C 0.63239 0.92814 0.54447
 C1765 C 0.65222 0.92142 0.55141
 H1766 H 0.65993 0.90825 0.54389
 O1767 O 0.39519 1.07590 0.52028
 O1768 O 0.37065 1.10032 0.52031
 C1769 C 0.37810 1.08325 0.52745
 C1770 C 0.36709 1.07203 0.54458
 C1771 C 0.34734 1.07885 0.55165
 H1772 H 0.33966 1.09209 0.54419
 Cu1773 Cu 0.49975 0.91227 0.58755
 Cu1774 Cu 0.49978 0.88288 0.61695
 Cu1775 Cu 0.49984 1.08775 0.58769
 Cu1776 Cu 0.49977 1.11714 0.61708
 Cu1777 Cu 0.41214 0.91227 0.49967
 Cu1778 Cu 0.38273 0.88295 0.49969
 Cu1779 Cu 0.58748 0.91227 0.49971
 Cu1780 Cu 0.61689 0.88289 0.49973
 Cu1781 Cu 0.41203 1.08779 0.49980
 Cu1782 Cu 0.38265 1.11720 0.49980
 Cu1783 Cu 0.58747 1.08774 0.49988
 Cu1784 Cu 0.61686 1.11707 0.49985
 Cu1785 Cu 0.41208 1.00010 0.58758
 Cu1786 Cu 0.38268 1.00009 0.61696
 Cu1787 Cu 0.58747 1.00003 0.58765
 Cu1788 Cu 0.61687 0.99994 0.61703
 C1789 C 0.55452 0.94521 0.62285
 H1790 H 0.54943 0.95031 0.60744
 C1791 C 0.56819 0.93151 0.66227
 C1792 C 0.44502 1.05482 0.62293
 H1793 H 0.45016 1.04969 0.60754
 C1794 C 0.43123 1.06860 0.66227
 C1795 C 0.37675 1.05490 0.55462
 H1796 H 0.39210 1.04972 0.54945
 C1797 C 0.33750 1.06880 0.56854
 C1798 C 0.62269 0.94521 0.55459
 H1799 H 0.60729 0.95031 0.54950
 C1800 C 0.66210 0.93151 0.56825
 C1801 C 0.55457 0.87703 0.55456
 H1802 H 0.54947 0.89243 0.54946
 C1803 C 0.56829 0.83764 0.56825
 C1804 C 0.44499 1.12300 0.55467
 H1805 H 0.45010 1.10760 0.54956
 C1806 C 0.43126 1.16236 0.56840
 C1807 C 0.44498 0.94524 0.62287
 H1808 H 0.45011 0.95037 0.60749
 C1809 C 0.43116 0.93143 0.66219
 C1810 C 0.55460 1.05482 0.62305
 H1811 H 0.54938 1.04962 0.60772
 C1812 C 0.56865 1.06881 0.66223
 C1813 C 0.44503 0.87699 0.55454
 H1814 H 0.45016 0.89236 0.54941
 C1815 C 0.43122 0.83771 0.56835
 C1816 C 0.55456 1.12304 0.55471
 H1817 H 0.54940 1.10769 0.54954
 C1818 C 0.56843 1.16227 0.56861
 C1819 C 0.37691 0.94532 0.55453
 H1820 H 0.39233 0.95038 0.54946
 C1821 C 0.33749 0.93172 0.56815
 C1822 C 0.62277 1.05476 0.55469
 H1823 H 0.60741 1.04963 0.54954
 C1824 C 0.66205 1.06855 0.56855
 O1825 O 0.57573 0.52023 1.10487
 O1826 O 0.60013 0.52026 1.12944
 C1827 C 0.58305 0.52740 1.12198
 C1828 C 0.57181 0.54451 1.13301
 C1829 C 0.57858 0.55151 1.15281
 H1830 H 0.59180 0.54403 1.16049
 O1831 O 0.42411 0.47949 1.10492
 O1832 O 0.39971 0.47945 1.12948
 C1833 C 0.41678 0.47231 1.12202
 C1834 C 0.42801 0.45517 1.13303
 C1835 C 0.42122 0.44814 1.15280
 H1836 H 0.40800 0.45562 1.16048
 O1837 O 0.52032 0.60441 1.07617
 O1838 O 0.52037 0.62895 1.10060
 C1839 C 0.52749 0.62150 1.08351
 C1840 C 0.54459 0.63250 1.07225
 C1841 C 0.55159 0.65228 1.07900
 H1842 H 0.54411 0.65998 1.09222
 O1843 O 0.47951 0.39533 1.07612
 O1844 O 0.47948 0.37076 1.10052
 C1845 C 0.47236 0.37823 1.08343
 C1846 C 0.45527 0.36722 1.07215
 C1847 C 0.44832 0.34740 1.07883
 H1848 H 0.45581 0.33968 1.09202
 O1849 O 0.60439 0.57557 1.02075
 O1850 O 0.62895 0.59994 1.02077
 C1851 C 0.62150 0.58287 1.02790
 C1852 C 0.63254 0.57159 1.04498
 C1853 C 0.65238 0.57826 1.05190
 H1854 H 0.66008 0.59144 1.04438
 O1855 O 0.39543 0.42419 1.02072
 O1856 O 0.37087 0.39982 1.02075
 C1857 C 0.37833 0.41688 1.02789
 C1858 C 0.36730 0.42814 1.04500
 C1859 C 0.34749 0.42142 1.05196
 H1860 H 0.33980 0.40824 1.04445
 O1861 O 0.47940 0.57571 1.10495
 O1862 O 0.47940 0.60010 1.12953
 C1863 C 0.47225 0.58304 1.12207
 C1864 C 0.45514 0.57183 1.13310
 C1865 C 0.44808 0.57865 1.15286
 H1866 H 0.45553 0.59189 1.16052
 O1867 O 0.52040 0.42403 1.10493
 O1868 O 0.52042 0.39963 1.12950
 C1869 C 0.52755 0.41670 1.12205
 C1870 C 0.54465 0.42793 1.13308
 C1871 C 0.55166 0.42117 1.15289
 H1872 H 0.54418 0.40797 1.16058
 O1873 O 0.60448 0.47926 1.07614
 O1874 O 0.62903 0.47923 1.10057
 C1875 C 0.62158 0.47209 1.08348
 C1876 C 0.63261 0.45497 1.07225
 C1877 C 0.65237 0.44792 1.07906
 H1878 H 0.66003 0.45538 1.09231
 O1879 O 0.39536 0.52046 1.07620
 O1880 O 0.37080 0.52049 1.10061
 C1881 C 0.37825 0.52763 1.08353
 C1882 C 0.36724 0.54476 1.07230
 C1883 C 0.34749 0.55184 1.07912
 H1884 H 0.33983 0.54441 1.09237
 O1885 O 0.42405 0.60453 1.02081
 O1886 O 0.39965 0.62909 1.02083
 C1887 C 0.41672 0.62163 1.02798
 C1888 C 0.42794 0.63263 1.04513
 C1889 C 0.42112 0.65238 1.05220
 H1890 H 0.40789 0.66006 1.04474
 O1891 O 0.57583 0.39521 1.02074
 O1892 O 0.60023 0.37064 1.02079
 C1893 C 0.58316 0.37812 1.02793
 C1894 C 0.57192 0.36713 1.04507
 C1895 C 0.57871 0.34737 1.05214
 H1896 H 0.59194 0.33968 1.04468
 O1897 O 0.42408 0.52042 1.10498
 O1898 O 0.39967 0.52044 1.12954
 C1899 C 0.41674 0.52758 1.12209
 C1900 C 0.42797 0.54469 1.13312
 C1901 C 0.42115 0.55177 1.15288
 H1902 H 0.40791 0.54434 1.16055
 O1903 O 0.57574 0.47930 1.10490
 O1904 O 0.60013 0.47928 1.12948
 C1905 C 0.58306 0.47215 1.12202
 C1906 C 0.57182 0.45507 1.13306
 C1907 C 0.57858 0.44807 1.15287
 H1908 H 0.59179 0.45554 1.16055
 O1909 O 0.52045 0.39531 1.07615
 O1910 O 0.52047 0.37076 1.10056
 C1911 C 0.52761 0.37821 1.08348
 C1912 C 0.54474 0.36718 1.07225
 C1913 C 0.55178 0.34742 1.07907
 H1914 H 0.54432 0.33977 1.09231
 O1915 O 0.47938 0.60445 1.07620
 O1916 O 0.47938 0.62899 1.10063
 C1917 C 0.47223 0.62155 1.08355
 C1918 C 0.45510 0.63259 1.07232
 C1919 C 0.44805 0.65234 1.07914
 H1920 H 0.45550 0.65999 1.09239
 O1921 O 0.39534 0.57580 1.02080
 O1922 O 0.37078 0.60021 1.02081
 C1923 C 0.37824 0.58313 1.02796
 C1924 C 0.36723 0.57192 1.04510
 C1925 C 0.34749 0.57875 1.05217
 H1926 H 0.33982 0.59200 1.04471
 O1927 O 0.60457 0.42392 1.02073
 O1928 O 0.62913 0.39950 1.02078
 C1929 C 0.62167 0.41658 1.02791
 C1930 C 0.63266 0.42781 1.04505
 C1931 C 0.65242 0.42101 1.05211
 H1932 H 0.66011 0.40778 1.04465
 O1933 O 0.47947 0.42405 1.10490
 O1934 O 0.47943 0.39964 1.12945
 C1935 C 0.47229 0.41672 1.12200
 C1936 C 0.45517 0.42797 1.13302
 C1937 C 0.44812 0.42118 1.15280
 H1938 H 0.45558 0.40794 1.16047
 O1939 O 0.52034 0.57565 1.10491
 O1940 O 0.52039 0.60003 1.12949
 C1941 C 0.52751 0.58296 1.12202
 C1942 C 0.54463 0.57170 1.13303
 C1943 C 0.55165 0.57845 1.15283
 H1944 H 0.54418 0.59166 1.16052
 O1945 O 0.39538 0.47954 1.07616
 O1946 O 0.37081 0.47950 1.10056
 C1947 C 0.37828 0.47238 1.08347
 C1948 C 0.36727 0.45529 1.07219
 C1949 C 0.34746 0.44833 1.07891
 H1950 H 0.33975 0.45582 1.09211
 O1951 O 0.60447 0.52018 1.07612
 O1952 O 0.62903 0.52021 1.10053
 C1953 C 0.62157 0.52733 1.08344
 C1954 C 0.63259 0.54441 1.07216
 C1955 C 0.65242 0.55133 1.07884
 H1956 H 0.66015 0.54381 1.09202
 O1957 O 0.42417 0.39544 1.02070
 O1958 O 0.39978 0.37091 1.02073
 C1959 C 0.41686 0.37834 1.02786
 C1960 C 0.42812 0.36729 1.04495
 C1961 C 0.42141 0.34747 1.05187
 H1962 H 0.40822 0.33979 1.04435
 O1963 O 0.57566 0.60435 1.02077
 O1964 O 0.60007 0.62887 1.02081
 C1965 C 0.58300 0.62143 1.02794
 C1966 C 0.57175 0.63247 1.04506
 C1967 C 0.57851 0.65225 1.05206
 H1968 H 0.59172 0.65992 1.04457
 Cu1969 Cu 0.58766 0.49974 1.08806
 Cu1970 Cu 0.61704 0.49974 1.11747
 Cu1971 Cu 0.41218 0.49998 1.08812
 Cu1972 Cu 0.38279 0.49997 1.11751
 Cu1973 Cu 0.49986 0.58761 1.08811
 Cu1974 Cu 0.49989 0.61698 1.11753
 Cu1975 Cu 0.49996 0.41213 1.08808
 Cu1976 Cu 0.49994 0.38274 1.11747
 C1977 C 0.55469 0.55459 1.12335
 H1978 H 0.54955 0.54946 1.10796
 C1979 C 0.56850 0.56836 1.16268
 C1980 C 0.44513 0.44511 1.12336
 H1981 H 0.45029 0.45026 1.10800
 C1982 C 0.43127 0.43126 1.16266
 C1983 C 0.55465 0.62282 1.05513
 H1984 H 0.54953 0.60744 1.05001
 C1985 C 0.56843 0.66213 1.06891
 C1986 C 0.44519 0.37694 1.05506
 H1987 H 0.45028 0.39234 1.04999
 C1988 C 0.43150 0.33755 1.06869
 C1989 C 0.62287 0.55452 1.05509
 H1990 H 0.60746 0.54945 1.05002
 C1991 C 0.66229 0.56814 1.06871
 C1992 C 0.37696 0.44522 1.05509
 H1993 H 0.39236 0.45031 1.05000
 C1994 C 0.33760 0.43151 1.06879
 C1995 C 0.44510 0.55470 1.12346
 H1996 H 0.45027 0.54952 1.10810
 C1997 C 0.43121 0.56863 1.16272
 C1998 C 0.55471 0.44502 1.12340
 H1999 H 0.54959 0.45014 1.10801
 C2000 C 0.56850 0.43124 1.16275
 C2001 C 0.62298 0.44493 1.05510
 H2002 H 0.60763 0.45009 1.04993
 C2003 C 0.66225 0.43106 1.06900
 C2004 C 0.37688 0.55478 1.05514
 H2005 H 0.39223 0.54959 1.04997
 C2006 C 0.33765 0.56872 1.06906
 C2007 C 0.44507 0.62296 1.05517
 H2008 H 0.45024 0.60761 1.04999
 C2009 C 0.43118 0.66221 1.06909
 C2010 C 0.55479 0.37681 1.05511
 H2011 H 0.54964 0.39217 1.04993
 C2012 C 0.56865 0.33755 1.06902
 O2013 O 0.57579 0.47927 0.89564
 O2014 O 0.60018 0.47926 0.87107
 C2015 C 0.58312 0.47212 0.87852
 C2016 C 0.57190 0.45501 0.86750
 C2017 C 0.57871 0.44796 0.84772
 H2018 H 0.59193 0.45541 0.84005
 O2019 O 0.42413 0.52042 0.89561
 O2020 O 0.39973 0.52045 0.87103
 C2021 C 0.41680 0.52757 0.87849
 C2022 C 0.42803 0.54467 0.86746
 C2023 C 0.42127 0.55168 0.84766
 H2024 H 0.40806 0.54420 0.83997
 O2025 O 0.47939 0.60444 0.92442
 O2026 O 0.47938 0.62899 0.90000
 C2027 C 0.47224 0.62155 0.91708
 C2028 C 0.45513 0.63258 0.92833
 C2029 C 0.44811 0.65237 0.92155
 H2030 H 0.45557 0.66003 0.90832
 O2031 O 0.52049 0.39523 0.92442
 O2032 O 0.52050 0.37070 0.89999
 C2033 C 0.52765 0.37813 0.91707
 C2034 C 0.54478 0.36710 0.92829
 C2035 C 0.55187 0.34738 0.92143
 H2036 H 0.54443 0.33974 0.90817
 O2037 O 0.60460 0.42388 0.97976
 O2038 O 0.62915 0.39947 0.97975
 C2039 C 0.62170 0.41654 0.97259
 C2040 C 0.63269 0.42775 0.95544
 C2041 C 0.65243 0.42092 0.94833
 H2042 H 0.66010 0.40766 0.95575
 O2043 O 0.39536 0.57579 0.97983
 O2044 O 0.37080 0.60020 0.97979
 C2045 C 0.37826 0.58312 0.97265
 C2046 C 0.36727 0.57189 0.95552
 C2047 C 0.34748 0.57867 0.94849
 H2048 H 0.33979 0.59188 0.95597
 O2049 O 0.52034 0.57565 0.89571
 O2050 O 0.52039 0.60003 0.87113
 C2051 C 0.52751 0.58295 0.87860
 C2052 C 0.54460 0.57167 0.86757
 C2053 C 0.55156 0.57838 0.84774
 H2054 H 0.54406 0.59157 0.84003
 O2055 O 0.47956 0.42406 0.89571
 O2056 O 0.47951 0.39968 0.87112
 C2057 C 0.47239 0.41676 0.87859
 C2058 C 0.45530 0.42803 0.86756
 C2059 C 0.44834 0.42131 0.84773
 H2060 H 0.45584 0.40811 0.84004
 O2061 O 0.60448 0.52017 0.92444
 O2062 O 0.62902 0.52023 0.90002
 C2063 C 0.62157 0.52734 0.91711
 C2064 C 0.63257 0.54444 0.92837
 C2065 C 0.65237 0.55141 0.92165
 H2066 H 0.66009 0.54391 0.90845
 O2067 O 0.39539 0.47953 0.92438
 O2068 O 0.37085 0.47951 0.89996
 C2069 C 0.37829 0.47238 0.91705
 C2070 C 0.36727 0.45530 0.92831
 C2071 C 0.34747 0.44834 0.92156
 H2072 H 0.33978 0.45583 0.90835
 O2073 O 0.57565 0.60436 0.97981
 O2074 O 0.60005 0.62889 0.97979
 C2075 C 0.58298 0.62146 0.97266
 C2076 C 0.57172 0.63250 0.95556
 C2077 C 0.57844 0.65231 0.94860
 H2078 H 0.59163 0.66000 0.95611
 O2079 O 0.42413 0.39541 0.97974
 O2080 O 0.39973 0.37089 0.97972
 C2081 C 0.41680 0.37832 0.97258
 C2082 C 0.42804 0.36728 0.95546
 C2083 C 0.42125 0.34751 0.94844
 H2084 H 0.40802 0.33987 0.95590
 O2085 O 0.42417 0.47949 0.89567
 O2086 O 0.39978 0.47946 0.87109
 C2087 C 0.41686 0.47233 0.87855
 C2088 C 0.42812 0.45521 0.86754
 C2089 C 0.42141 0.44824 0.84771
 H2090 H 0.40821 0.45574 0.84000
 O2091 O 0.57572 0.52020 0.89570
 O2092 O 0.60011 0.52024 0.87112
 C2093 C 0.58303 0.52737 0.87859
 C2094 C 0.57176 0.54447 0.86757
 C2095 C 0.57847 0.55142 0.84773
 H2096 H 0.59165 0.54391 0.84002
 O2097 O 0.47955 0.39527 0.92441
 O2098 O 0.47950 0.37074 0.89998
 C2099 C 0.47237 0.37819 0.91707
 C2100 C 0.45524 0.36721 0.92831
 C2101 C 0.44821 0.34745 0.92152
 H2102 H 0.45568 0.33975 0.90831
 O2103 O 0.52032 0.60443 0.92442
 O2104 O 0.52036 0.62898 0.90000
 C2105 C 0.52748 0.62153 0.91709
 C2106 C 0.54457 0.63253 0.92836
 C2107 C 0.55153 0.65235 0.92165
 H2108 H 0.54403 0.66005 0.90845
 O2109 O 0.39540 0.42418 0.97975
 O2110 O 0.37085 0.39981 0.97974
 C2111 C 0.37829 0.41688 0.97260
 C2112 C 0.36727 0.42814 0.95549
 C2113 C 0.34747 0.42141 0.94850
 H2114 H 0.33978 0.40822 0.95599
 O2115 O 0.60438 0.57559 0.97979
 O2116 O 0.62894 0.59996 0.97977
 C2117 C 0.62149 0.58289 0.97263
 C2118 C 0.63252 0.57163 0.95553
 C2119 C 0.65233 0.57835 0.94857
 H2120 H 0.66000 0.59155 0.95606
 O2121 O 0.52049 0.42395 0.89565
 O2122 O 0.52049 0.39957 0.87106
 C2123 C 0.52764 0.41663 0.87852
 C2124 C 0.54475 0.42785 0.86750
 C2125 C 0.55180 0.42104 0.84773
 H2126 H 0.54436 0.40781 0.84005
 O2127 O 0.47941 0.57574 0.89563
 O2128 O 0.47940 0.60013 0.87105
 C2129 C 0.47227 0.58307 0.87851
 C2130 C 0.45517 0.57183 0.86747
 C2131 C 0.44816 0.57860 0.84767
 H2132 H 0.45563 0.59181 0.83998
 O2133 O 0.39542 0.52045 0.92440
 O2134 O 0.37087 0.52049 0.89998
 C2135 C 0.37832 0.52763 0.91706
 C2136 C 0.36729 0.54474 0.92831
 C2137 C 0.34751 0.55177 0.92153
 H2138 H 0.33984 0.54430 0.90830
 O2139 O 0.60452 0.47924 0.92441
 O2140 O 0.62906 0.47924 0.89998
 C2141 C 0.62162 0.47208 0.91706
 C2142 C 0.63265 0.45494 0.92827
 C2143 C 0.65238 0.44786 0.92141
 H2144 H 0.66002 0.45531 0.90815
 O2145 O 0.57586 0.39518 0.97977
 O2146 O 0.60026 0.37061 0.97976
 C2147 C 0.58319 0.37807 0.97261
 C2148 C 0.57196 0.36707 0.95547
 C2149 C 0.57881 0.34734 0.94836
 H2150 H 0.59207 0.33968 0.95579
 O2151 O 0.42409 0.60451 0.97985
 O2152 O 0.39968 0.62907 0.97980
 C2153 C 0.41675 0.62161 0.97267
 C2154 C 0.42799 0.63261 0.95554
 C2155 C 0.42121 0.65240 0.94852
 H2156 H 0.40800 0.66009 0.95601
 Cu2157 Cu 0.58768 0.49972 0.91250
 Cu2158 Cu 0.61705 0.49975 0.88308
 Cu2159 Cu 0.41222 0.49997 0.91246
 Cu2160 Cu 0.38285 0.49998 0.88305
 Cu2161 Cu 0.58757 0.58753 1.00028
 Cu2162 Cu 0.61696 0.61687 1.00029
 Cu2163 Cu 0.58777 0.41199 1.00024
 Cu2164 Cu 0.61715 0.38259 1.00027
 Cu2165 Cu 0.41216 0.58771 1.00033
 Cu2166 Cu 0.38276 0.61710 1.00031
 Cu2167 Cu 0.41223 0.41225 1.00022
 Cu2168 Cu 0.38285 0.38290 1.00024
 Cu2169 Cu 0.49986 0.58762 0.91249
 Cu2170 Cu 0.49989 0.61699 0.88308
 Cu2171 Cu 0.50003 0.41207 0.91250
 Cu2172 Cu 0.50000 0.38271 0.88308
 C2173 C 0.55478 0.44497 0.87715
 H2174 H 0.54962 0.45013 0.89252
 C2175 C 0.56866 0.43109 0.83787
 C2176 C 0.44513 0.55472 0.87714
 H2177 H 0.45026 0.54959 0.89252
 C2178 C 0.43133 0.56852 0.83780
 C2179 C 0.44509 0.62294 0.94547
 H2180 H 0.45023 0.60757 0.95061
 C2181 C 0.43127 0.66224 0.93165
 C2182 C 0.55481 0.37672 0.94545
 H2183 H 0.54962 0.39206 0.95066
 C2184 C 0.56877 0.33753 0.93146
 C2185 C 0.62304 0.44491 0.94543
 H2186 H 0.60770 0.45010 0.95063
 C2187 C 0.66224 0.43097 0.93142
 C2188 C 0.37694 0.55479 0.94545
 H2189 H 0.39231 0.54964 0.95059
 C2190 C 0.33764 0.56861 0.93162
 C2191 C 0.55468 0.55458 0.87726
 H2192 H 0.54959 0.54949 0.89267
 C2193 C 0.56837 0.56825 0.83785
 C2194 C 0.44521 0.44513 0.87724
 H2195 H 0.45031 0.45023 0.89264
 C2196 C 0.43152 0.43141 0.83784
 C2197 C 0.62287 0.55453 0.94546
 H2198 H 0.60748 0.54943 0.95056
 C2199 C 0.66222 0.56824 0.93174
 C2200 C 0.37694 0.44522 0.94542
 H2201 H 0.39232 0.45032 0.95054
 C2202 C 0.33760 0.43152 0.93166
 C2203 C 0.55464 0.62284 0.94546
 H2204 H 0.54955 0.60745 0.95055
 C2205 C 0.56834 0.66220 0.93177
 C2206 C 0.44518 0.37690 0.94542
 H2207 H 0.45033 0.39225 0.95056
 C2208 C 0.43133 0.33763 0.93159
 C2209 C 1.10488 1.10439 1.25466
 C2210 C 1.08860 1.08680 1.25708
 C2211 C 1.08110 1.07947 1.23842
 C2212 C 1.09061 1.09045 1.21918
 C2213 C 1.11444 1.08787 1.22168
 C2214 C 1.12194 1.09519 1.24033
 C2215 C 1.09394 1.12124 1.24135
 C2216 C 1.08644 1.11391 1.22270
 C2217 C 1.11301 1.11234 1.27469
 C2218 C 1.11981 1.11904 1.29104
 C2219 C 1.08261 1.08262 1.19905
 C2220 C 1.07620 1.07630 1.18240
 H2221 H 1.08343 1.08065 1.27211
 H2222 H 1.06950 1.06704 1.23746
 H2223 H 1.12453 1.08089 1.20984
 H2224 H 1.13845 1.09449 1.24446
 H2225 H 1.09223 1.13750 1.24615
 H2226 H 1.07830 1.12390 1.21153
 C2227 C 1.10463 0.60390 0.75479
 C2228 C 1.11423 0.61486 0.73559
 C2229 C 1.10682 0.60753 0.71692
 C2230 C 1.09053 0.58996 0.71925
 C2231 C 1.07340 0.59916 0.73349
 C2232 C 1.08082 0.60649 0.75218
 C2233 C 1.10881 0.58042 0.75131
 C2234 C 1.10139 0.57309 0.73262
 C2235 C 1.11268 0.61186 0.77485
 C2236 C 1.11941 0.61855 0.79122
 C2237 C 1.08262 0.58213 0.69909
 C2238 C 1.07627 0.57582 0.68241
 H2239 H 1.12584 0.62729 0.73658
 H2240 H 1.11208 0.61368 0.70191
 H2241 H 1.05690 0.59985 0.72928
 H2242 H 1.07067 0.61346 0.76398
 H2243 H 1.11687 0.57044 0.76253
 H2244 H 1.10310 0.55683 0.72783
 C2245 C 0.60526 1.10474 0.75414
 C2246 C 0.61477 1.11552 0.73480
 C2247 C 0.60718 1.10810 0.71623
 C2248 C 0.59082 1.09063 0.71880
 C2249 C 0.57384 1.10001 0.73312
 C2250 C 0.58144 1.10743 0.75170
 C2251 C 0.60930 1.08122 0.75079
 C2252 C 0.60170 1.07380 0.73220
 C2253 C 0.61349 1.11279 0.77410
 C2254 C 0.62035 1.11956 0.79040
 C2255 C 0.58271 1.08270 0.69875
 C2256 C 0.57621 1.07631 0.68216
 H2257 H 0.62644 1.12789 0.73562
 H2258 H 0.61235 1.11413 0.70114
 H2259 H 0.55732 1.10075 0.72902
 H2260 H 0.57142 1.11453 0.76353
 H2261 H 0.61740 1.07127 0.76201
 H2262 H 0.60330 1.05749 0.72751
 C2263 C 0.60417 0.60394 1.25509
 C2264 C 0.61386 0.61481 1.23589
 C2265 C 0.60648 0.60744 1.21721
 C2266 C 0.59012 0.58993 1.21955
 C2267 C 0.57298 0.59924 1.23371
 C2268 C 0.58037 0.60661 1.25240
 C2269 C 0.60827 0.58044 1.25169
 C2270 C 0.60089 0.57308 1.23301
 C2271 C 0.61218 0.61194 1.27514
 C2272 C 0.61889 0.61866 1.29152
 C2273 C 0.58225 0.58207 1.19939
 C2274 C 0.57591 0.57575 1.18271
 H2275 H 0.62550 0.62720 1.23687
 H2276 H 0.61180 0.61353 1.20220
 H2277 H 0.55650 0.59997 1.22945
 H2278 H 0.57021 0.61365 1.26414
 H2279 H 0.61627 0.57047 1.26298
 H2280 H 0.60256 0.55679 1.22828
 C2281 C 0.89564 0.89565 1.25469
 C2282 C 0.90854 0.87951 1.24228
 C2283 C 0.91594 0.88695 1.22363
 C2284 C 0.90972 0.90981 1.21922
 C2285 C 0.91752 0.92221 1.23837
 C2286 C 0.91012 0.91476 1.25702
 C2287 C 0.87829 0.90277 1.23955
 C2288 C 0.88569 0.91021 1.22091
 C2289 C 0.88761 0.88757 1.27471
 C2290 C 0.88087 0.88080 1.29105
 C2291 C 0.91762 0.91776 1.19910
 C2292 C 0.92397 0.92413 1.18245
 H2293 H 0.91160 0.86363 1.24766
 H2294 H 0.92534 0.87745 1.21305
 H2295 H 0.92794 0.93564 1.23736
 H2296 H 0.91419 0.92181 1.27200
 H2297 H 0.86165 0.90204 1.24316
 H2298 H 0.87539 0.91585 1.20855
 C2299 C 0.89479 0.39538 0.75443
 C2300 C 0.89488 0.37894 0.73681
 C2301 C 0.90249 0.38630 0.71823
 C2302 C 0.90928 0.40940 0.71907
 C2303 C 0.92515 0.41058 0.73717
 C2304 C 0.91753 0.40321 0.75577
 C2305 C 0.88227 0.41397 0.74556
 C2306 C 0.88989 0.42134 0.72697
 C2307 C 0.88654 0.38738 0.77440
 C2308 C 0.87967 0.38064 0.79070
 C2309 C 0.91740 0.41727 0.69901
 C2310 C 0.92391 0.42363 0.68241
 H2311 H 0.88945 0.36291 0.73877
 H2312 H 0.90358 0.37659 0.70426
 H2313 H 0.94098 0.41667 0.73553
 H2314 H 0.92683 0.40299 0.77006
 H2315 H 0.86864 0.42076 0.75322
 H2316 H 0.88278 0.43444 0.71870
 C2317 C 0.39531 0.89597 0.75457
 C2318 C 0.39943 0.87865 0.73832
 C2319 C 0.40686 0.88598 0.71965
 C2320 C 0.40945 0.90992 0.71904
 C2321 C 0.42364 0.91514 0.73782
 C2322 C 0.41620 0.90780 0.75650
 C2323 C 0.38037 0.91139 0.74361
 C2324 C 0.38781 0.91872 0.72493
 C2325 C 0.38725 0.88801 0.77462
 C2326 C 0.38049 0.88132 0.79098
 C2327 C 0.41738 0.91774 0.69889
 C2328 C 0.42375 0.92405 0.68222
 H2329 H 0.39675 0.86208 0.74123
 H2330 H 0.41055 0.87569 0.70657
 H2331 H 0.43824 0.92383 0.73655
 H2332 H 0.42443 0.91021 0.77124
 H2333 H 0.36529 0.91614 0.74996
 H2334 H 0.37909 0.92975 0.71529
 C2335 C 0.39521 0.39578 1.25495
 C2336 C 0.41778 0.38880 1.25020
 C2337 C 0.42526 0.39612 1.23154
 C2338 C 0.40943 0.40972 1.21946
 C2339 C 0.40313 0.42715 1.23486
 C2340 C 0.39565 0.41983 1.25353
 C2341 C 0.38232 0.38864 1.23589
 C2342 C 0.38980 0.39596 1.21723
 C2343 C 0.38710 0.38782 1.27499
 C2344 C 0.38033 0.38113 1.29135
 C2345 C 0.41742 0.41754 1.19932
 C2346 C 0.42382 0.42385 1.18267
 H2347 H 0.42707 0.37897 1.26058
 H2348 H 0.44096 0.39257 1.22593
 H2349 H 0.40443 0.44379 1.23141
 H2350 H 0.39054 0.43018 1.26607
 H2351 H 0.36853 0.37870 1.23694
 H2352 H 0.38241 0.39230 1.20231
 C2353 C 0.89543 1.10439 0.74526
 C2354 C 0.89082 1.11895 0.76391
 C2355 C 0.89824 1.11158 0.78257
 C2356 C 0.90955 1.09038 0.78077
 C2357 C 0.92674 1.09384 0.76424
 C2358 C 0.91931 1.10121 0.74556
 C2359 C 0.88621 1.08305 0.75157
 C2360 C 0.89363 1.07569 0.77024
 C2361 C 0.88737 1.11239 0.72521
 C2362 C 0.88063 1.11911 0.70884
 C2363 C 0.91748 1.08252 0.80092
 C2364 C 0.92385 1.07620 0.81759
 H2365 H 0.88246 1.13374 0.76257
 H2366 H 0.89624 1.12007 0.79722
 H2367 H 0.94328 1.09076 0.76696
 H2368 H 0.92949 1.10444 0.73227
 H2369 H 0.87485 1.07448 0.74219
 H2370 H 0.88864 1.06081 0.77687
 C2371 C 0.89672 0.60333 0.24468
 C2372 C 0.88734 0.61467 0.26377
 C2373 C 0.89461 0.60736 0.28251
 C2374 C 0.91055 0.58942 0.28034
 C2375 C 0.92785 0.59812 0.26601
 C2376 C 0.92058 0.60544 0.24725
 C2377 C 0.89209 0.57998 0.24838
 C2378 C 0.89936 0.57267 0.26714
 C2379 C 0.88882 0.61126 0.22455
 C2380 C 0.88217 0.61793 0.20813
 C2381 C 0.91831 0.58163 0.30058
 C2382 C 0.92455 0.57536 0.31731
 H2383 H 0.87598 0.62733 0.26266
 H2384 H 0.88947 0.61376 0.29746
 H2385 H 0.94436 0.59850 0.27022
 H2386 H 0.93085 0.61208 0.23539
 H2387 H 0.88383 0.57007 0.23725
 H2388 H 0.89734 0.55649 0.27208
 C2389 C 0.39583 1.10346 0.24457
 C2390 C 0.41834 1.09494 0.24342
 C2391 C 0.42573 1.08771 0.26217
 C2392 C 0.40987 1.08972 0.28022
 C2393 C 0.39017 1.07820 0.27252
 C2394 C 0.38279 1.08542 0.25377
 C2395 C 0.39635 1.12023 0.26186
 C2396 C 0.40373 1.11301 0.28060
 C2397 C 0.38782 1.11131 0.22445
 C2398 C 0.38111 1.11793 0.20803
 C2399 C 0.41774 1.08201 0.30044
 C2400 C 0.42405 1.07579 0.31717
 H2401 H 0.42766 1.09460 0.22915
 H2402 H 0.44138 1.08119 0.26397
 H2403 H 0.38269 1.06548 0.28103
 H2404 H 0.36898 1.07889 0.24623
 H2405 H 0.39137 1.13637 0.25958
 H2406 H 0.40507 1.12296 0.29437
 C2407 C 0.39549 0.60399 0.74539
 C2408 C 0.38184 0.61011 0.76430
 C2409 C 0.38927 0.60278 0.78297
 C2410 C 0.40963 0.59004 0.78093
 C2411 C 0.42500 0.60463 0.76948
 C2412 C 0.41757 0.61197 0.75080
 C2413 C 0.39712 0.57998 0.74636
 C2414 C 0.40455 0.57264 0.76505
 C2415 C 0.38742 0.61196 0.72534
 C2416 C 0.38066 0.61866 0.70897
 C2417 C 0.41756 0.58221 0.80109
 C2418 C 0.42392 0.57591 0.81776
 H2419 H 0.36758 0.61939 0.76312
 H2420 H 0.38138 0.60578 0.79779
 H2421 H 0.44037 0.60882 0.77551
 H2422 H 0.42657 0.62244 0.74082
 H2423 H 0.39282 0.56964 0.73351
 H2424 H 0.40662 0.55602 0.76821
 C2425 C 1.10337 0.89659 0.74476
 C2426 C 1.09520 0.91925 0.74380
 C2427 C 1.08795 0.92654 0.76258
 C2428 C 1.08958 0.91045 0.78046
 C2429 C 1.11277 0.90394 0.78095
 C2430 C 1.12002 0.89666 0.76218
 C2431 C 1.08506 0.88373 0.75369
 C2432 C 1.07781 0.89102 0.77246
 C2433 C 1.11124 0.88868 0.72461
 C2434 C 1.11786 0.88204 0.70817
 C2435 C 1.08184 0.91822 0.80071
 C2436 C 1.07562 0.92447 0.81746
 H2437 H 1.09513 0.92873 0.72963
 H2438 H 1.08166 0.94226 0.76450
 H2439 H 1.12264 0.90497 0.79481
 H2440 H 1.13610 0.89145 0.75997
 H2441 H 1.07837 0.87011 0.74594
 H2442 H 1.06491 0.88364 0.78079
 C2443 C 1.10422 0.39638 0.24480
 C2444 C 1.10587 0.38030 0.26268
 C2445 C 1.09850 0.38752 0.28142
 C2446 C 1.09019 0.41012 0.28046
 C2447 C 1.07360 0.40996 0.26298
 C2448 C 1.08098 0.40274 0.24422
 C2449 C 1.11583 0.41588 0.25287
 C2450 C 1.10845 0.42310 0.27162
 C2451 C 1.11222 0.38853 0.22468
 C2452 C 1.11893 0.38192 0.20826
 C2453 C 1.08233 0.41783 0.30069
 C2454 C 1.07604 0.42405 0.31742
 H2455 H 1.11226 0.36461 0.26079
 H2456 H 1.09857 0.37802 0.29558
 H2457 H 1.05749 0.41508 0.26513
 H2458 H 1.07119 0.40166 0.23031
 H2459 H 1.12869 0.42336 0.24459
 H2460 H 1.11500 0.43677 0.27940
 C2461 C 0.60408 0.89578 0.24491
 C2462 C 0.60564 0.87984 0.26291
 C2463 C 0.59825 0.88722 0.28158
 C2464 C 0.59001 0.90984 0.28042
 C2465 C 0.57347 0.90960 0.26290
 C2466 C 0.58087 0.90220 0.24422
 C2467 C 0.61573 0.91531 0.25285
 C2468 C 0.60833 0.92270 0.27153
 C2469 C 0.61211 0.88776 0.22486
 C2470 C 0.61885 0.88103 0.20849
 C2471 C 0.58212 0.91772 0.30057
 C2472 C 0.57577 0.92406 0.31725
 H2473 H 0.61199 0.86412 0.26115
 H2474 H 0.59826 0.87783 0.29580
 H2475 H 0.55736 0.91478 0.26498
 H2476 H 0.57110 0.90105 0.23029
 H2477 H 0.62864 0.92269 0.24454
 H2478 H 0.61490 0.93641 0.27921
 C2479 C 0.60461 0.39527 0.74564
 C2480 C 0.60594 0.37928 0.76362
 C2481 C 0.59850 0.38669 0.78226
 C2482 C 0.59045 0.40937 0.78110
 C2483 C 0.57400 0.40929 0.76348
 C2484 C 0.58145 0.40187 0.74483
 C2485 C 0.61636 0.41469 0.75369
 C2486 C 0.60891 0.42210 0.77234
 C2487 C 0.61269 0.38723 0.72562
 C2488 C 0.61946 0.38048 0.70927
 C2489 C 0.58250 0.41728 0.80123
 C2490 C 0.57611 0.42365 0.81787
 H2491 H 0.61218 0.36351 0.76187
 H2492 H 0.59836 0.37727 0.79647
 H2493 H 0.55792 0.41459 0.76548
 H2494 H 0.57175 0.40082 0.73085
 H2495 H 0.62938 0.42199 0.74546
 H2496 H 0.61555 0.43575 0.78008
 C2497 C 1.25498 1.10400 1.10366
 C2498 C 1.23742 1.10440 1.12016
 C2499 C 1.21870 1.09708 1.11290
 C2500 C 1.21936 1.09007 1.08984
 C2501 C 1.23715 1.07384 1.08875
 C2502 C 1.25588 1.08116 1.09601
 C2503 C 1.24630 1.11651 1.08497
 C2504 C 1.22757 1.10919 1.07771
 C2505 C 1.27509 1.11194 1.11155
 C2506 C 1.29151 1.11860 1.11819
 C2507 C 1.19915 1.08225 1.08209
 C2508 C 1.18244 1.07597 1.07584
 H2509 H 1.23951 1.10994 1.13615
 H2510 H 1.20475 1.09635 1.12267
 H2511 H 1.23520 1.05800 1.08279
 H2512 H 1.26999 1.07160 1.09628
 H2513 H 1.25418 1.12994 1.07805
 H2514 H 1.21940 1.11634 1.06456
 C2515 C 1.25481 0.60426 0.60425
 C2516 C 1.25491 0.59970 0.58057
 C2517 C 1.23626 0.59228 0.57320
 C2518 C 1.21933 0.59015 0.59023
 C2519 C 1.21773 0.61200 0.60025
 C2520 C 1.23637 0.61942 0.60762
 C2521 C 1.24791 0.58362 0.61458
 C2522 C 1.22925 0.57620 0.60721
 C2523 C 1.27483 0.61232 0.61225
 C2524 C 1.29118 0.61906 0.61897
 C2525 C 1.19921 0.58223 0.58236
 C2526 C 1.18256 0.57586 0.57602
 H2527 H 1.26844 0.60209 0.57049
 H2528 H 1.23380 0.58831 0.55680
 H2529 H 1.20322 0.62087 0.60145
 H2530 H 1.23783 0.63464 0.61513
 H2531 H 1.25688 0.57554 0.62661
 H2532 H 1.22225 0.56176 0.61293
 C2533 C 0.75429 1.10410 0.60447
 C2534 C 0.73958 1.09594 0.62172
 C2535 C 0.72094 1.08859 0.61427
 C2536 C 0.71882 1.09011 0.59031
 C2537 C 0.73799 1.07839 0.58157
 C2538 C 0.75664 1.08575 0.58902
 C2539 C 0.74142 1.12066 0.59258
 C2540 C 0.72277 1.11331 0.58514
 C2541 C 0.77431 1.11209 0.61254
 C2542 C 0.79065 1.11879 0.61931
 C2543 C 0.69870 1.08226 0.58236
 C2544 C 0.68205 1.07594 0.57598
 H2545 H 0.74347 1.09593 0.63832
 H2546 H 0.70886 1.08227 0.62450
 H2547 H 0.73699 1.06546 0.57051
 H2548 H 0.77163 1.07912 0.58434
 H2549 H 0.74650 1.13674 0.59021
 H2550 H 0.71189 1.12309 0.57639
 C2551 C 0.75503 0.60348 1.10350
 C2552 C 0.75703 0.58388 1.08962
 C2553 C 0.73827 0.57653 1.08243
 C2554 C 0.71936 0.58952 1.08983
 C2555 C 0.72416 0.61208 1.08290
 C2556 C 0.74291 0.61942 1.09008
 C2557 C 0.73977 0.59720 1.12106
 C2558 C 0.72102 0.58987 1.11388
 C2559 C 0.77516 0.61144 1.11131
 C2560 C 0.79159 0.61811 1.11789
 C2561 C 0.69912 0.58170 1.08216
 C2562 C 0.68239 0.57543 1.07597
 H2563 H 0.77187 0.57642 1.08578
 H2564 H 0.73703 0.56279 1.07243
 H2565 H 0.71375 0.62147 1.07319
 H2566 H 0.74857 0.63509 1.08652
 H2567 H 0.74338 0.59841 1.13768
 H2568 H 0.70857 0.58479 1.12435
 C2569 C 1.25459 0.89572 0.89569
 C2570 C 1.25277 0.91973 0.89498
 C2571 C 1.23410 0.92714 0.90237
 C2572 C 1.21909 0.90981 0.90973
 C2573 C 1.23159 0.89720 0.92604
 C2574 C 1.25026 0.88979 0.91866
 C2575 C 1.23549 0.88766 0.88342
 C2576 C 1.21683 0.89507 0.89080
 C2577 C 1.27463 0.88767 0.88768
 C2578 C 1.29099 0.88093 0.88096
 C2579 C 1.19895 0.91772 0.91761
 C2580 C 1.18229 0.92408 0.92395
 H2581 H 1.26507 0.93001 0.88920
 H2582 H 1.23040 0.94377 0.90291
 H2583 H 1.22625 0.89435 0.94198
 H2584 H 1.26091 0.88059 0.92827
 H2585 H 1.23652 0.87706 0.87011
 H2586 H 1.20189 0.89082 0.88380
 C2587 C 1.25488 0.39569 0.39528
 C2588 C 1.25290 0.41969 0.39452
 C2589 C 1.23422 0.42699 0.40200
 C2590 C 1.21937 0.40958 0.40951
 C2591 C 1.23206 0.39710 0.42577
 C2592 C 1.25073 0.38980 0.41829
 C2593 C 1.23575 0.38747 0.38316
 C2594 C 1.21709 0.39477 0.39064
 C2595 C 1.27492 0.38776 0.38717
 C2596 C 1.29129 0.38108 0.38040
 C2597 C 1.19923 0.41738 0.41749
 C2598 C 1.18257 0.42369 0.42388
 H2599 H 1.26508 0.43003 0.38863
 H2600 H 1.23041 0.44360 0.40252
 H2601 H 1.22685 0.39427 0.44175
 H2602 H 1.26151 0.38070 0.42787
 H2603 H 1.23678 0.37684 0.36987
 H2604 H 1.20214 0.39040 0.38375
 C2605 C 0.75439 0.89580 0.39525
 C2606 C 0.75245 0.91980 0.39444
 C2607 C 0.73378 0.92716 0.40186
 C2608 C 0.71888 0.90979 0.40937
 C2609 C 0.73150 0.89732 0.42569
 C2610 C 0.75017 0.88996 0.41826
 C2611 C 0.73527 0.88760 0.38310
 C2612 C 0.71661 0.89495 0.39052
 C2613 C 0.77443 0.88781 0.38720
 C2614 C 0.79079 0.88110 0.38045
 C2615 C 0.69873 0.91765 0.41729
 C2616 C 0.68207 0.92397 0.42365
 H2617 H 0.76467 0.93011 0.38856
 H2618 H 0.73000 0.94377 0.40234
 H2619 H 0.72624 0.89452 0.44166
 H2620 H 0.76091 0.88086 0.42788
 H2621 H 0.73631 0.87694 0.36983
 H2622 H 0.70166 0.89060 0.38360
 C2623 C 0.75425 0.39532 0.89482
 C2624 C 0.73935 0.37794 0.90231
 C2625 C 0.72075 0.38530 0.90991
 C2626 C 0.71887 0.40930 0.90928
 C2627 C 0.72295 0.41529 0.88629
 C2628 C 0.74154 0.40793 0.87869
 C2629 C 0.75669 0.41003 0.91376
 C2630 C 0.73808 0.41738 0.92137
 C2631 C 0.77422 0.38733 0.88659
 C2632 C 0.79053 0.38059 0.87973
 C2633 C 0.69880 0.41716 0.91739
 C2634 C 0.68219 0.42351 0.92389
 H2635 H 0.74307 0.36133 0.90171
 H2636 H 0.70856 0.37498 0.91582
 H2637 H 0.71218 0.42450 0.87681
 H2638 H 0.74670 0.41085 0.86270
 H2639 H 0.77171 0.41429 0.92059
 H2640 H 0.73716 0.42795 0.93471
 C2641 C 0.74535 0.89611 1.10442
 C2642 C 0.76116 0.90140 1.12182
 C2643 C 0.77982 0.90878 1.11445
 C2644 C 0.78085 0.91014 1.09040
 C2645 C 0.76195 0.92370 1.08408
 C2646 C 0.74328 0.91632 1.09146
 C2647 C 0.75686 0.88059 1.09001
 C2648 C 0.77553 0.88797 1.08264
 C2649 C 0.72531 0.88810 1.11242
 C2650 C 0.70895 0.88138 1.11914
 C2651 C 0.80100 0.91801 1.08253
 C2652 C 0.81766 0.92433 1.07619
 H2653 H 0.75798 0.89954 1.13847
 H2654 H 0.79262 0.91323 1.12478
 H2655 H 0.76313 0.93784 1.07465
 H2656 H 0.72845 0.92414 1.08834
 H2657 H 0.75088 0.86517 1.08594
 H2658 H 0.78553 0.87887 1.07226
 C2659 C 0.74580 0.39561 0.60488
 C2660 C 0.76250 0.39870 0.62197
 C2661 C 0.78113 0.40606 0.61450
 C2662 C 0.78124 0.40961 0.59065
 C2663 C 0.76265 0.42436 0.58644
 C2664 C 0.74401 0.41700 0.59392
 C2665 C 0.75611 0.38110 0.58861
 C2666 C 0.77474 0.38846 0.58113
 C2667 C 0.72580 0.38761 0.61299
 C2668 C 0.70947 0.38089 0.61977
 C2669 C 0.80135 0.41748 0.58267
 C2670 C 0.81798 0.42381 0.57627
 H2671 H 0.75992 0.39540 0.63850
 H2672 H 0.79450 0.40907 0.62462
 H2673 H 0.76400 0.43927 0.57829
 H2674 H 0.72939 0.42559 0.59219
 H2675 H 0.74936 0.36635 0.58342
 H2676 H 0.78395 0.38002 0.56953
 C2677 C 0.24477 0.89657 0.60319
 C2678 C 0.25914 0.90514 0.62054
 C2679 C 0.27788 0.91243 0.61328
 C2680 C 0.28043 0.91043 0.58939
 C2681 C 0.26138 0.92189 0.58008
 C2682 C 0.24262 0.91460 0.58734
 C2683 C 0.25792 0.87984 0.59188
 C2684 C 0.27667 0.88712 0.58462
 C2685 C 0.22465 0.88866 0.61107
 C2686 C 0.20823 0.88202 0.61770
 C2687 C 0.30066 0.91820 0.58166
 C2688 C 0.31739 0.92444 0.57543
 H2689 H 0.25495 0.90547 0.63706
 H2690 H 0.28975 0.91900 0.62360
 H2691 H 0.26252 0.93461 0.56879
 H2692 H 0.22769 0.92107 0.58226
 H2693 H 0.25294 0.86369 0.58974
 H2694 H 0.28775 0.87722 0.57627
 C2695 C 0.24502 0.39605 1.10390
 C2696 C 0.24582 0.39843 1.07991
 C2697 C 0.26455 0.40579 1.07266
 C2698 C 0.28063 0.41003 1.09010
 C2699 C 0.28245 0.38925 1.10215
 C2700 C 0.26373 0.38190 1.10940
 C2701 C 0.25084 0.41777 1.11255
 C2702 C 0.26956 0.42512 1.10530
 C2703 C 0.22492 0.38808 1.11177
 C2704 C 0.20850 0.38140 1.11840
 C2705 C 0.30083 0.41787 1.08235
 C2706 C 0.31754 0.42417 1.07611
 H2707 H 0.23282 0.39468 1.06955
 H2708 H 0.26760 0.40834 1.05608
 H2709 H 0.29715 0.38102 1.10476
 H2710 H 0.26240 0.36738 1.11822
 H2711 H 0.24110 0.42659 1.12341
 H2712 H 0.27587 0.44024 1.10994
 C2713 C 0.74569 1.10484 0.89459
 C2714 C 0.74485 1.09875 0.91791
 C2715 C 0.76345 1.09138 0.92552
 C2716 C 0.78105 1.09081 0.90907
 C2717 C 0.78234 1.11330 0.90053
 C2718 C 0.76375 1.12067 0.89292
 C2719 C 0.75362 1.08510 0.88325
 C2720 C 0.77221 1.07773 0.89086
 C2721 C 0.72573 1.11284 0.88635
 C2722 C 0.70943 1.11959 0.87948
 C2723 C 0.80111 1.08294 0.91719
 C2724 C 0.81771 1.07657 0.92369
 H2725 H 0.73089 1.10011 0.92759
 H2726 H 0.76541 1.08642 0.94172
 H2727 H 0.79659 1.12262 0.90047
 H2728 H 0.76209 1.13630 0.88634
 H2729 H 0.74536 1.07758 0.87038
 H2730 H 0.77987 1.06389 0.88451
 C2731 C 0.74543 0.60370 0.39564
 C2732 C 0.74769 0.60541 0.41959
 C2733 C 0.76640 0.59808 0.42697
 C2734 C 0.78100 0.58977 0.40969
 C2735 C 0.78323 0.60799 0.39409
 C2736 C 0.76454 0.61531 0.38670
 C2737 C 0.74936 0.58046 0.39063
 C2738 C 0.76806 0.57313 0.39802
 C2739 C 0.72536 0.61164 0.38763
 C2740 C 0.70897 0.61832 0.38091
 C2741 C 0.80117 0.58196 0.41757
 C2742 C 0.81786 0.57566 0.42390
 H2743 H 0.73566 0.61180 0.42984
 H2744 H 0.77039 0.59820 0.44355
 H2745 H 0.79819 0.61458 0.38926
 H2746 H 0.76349 0.62816 0.37555
 H2747 H 0.73842 0.57062 0.38205
 H2748 H 0.77314 0.55702 0.39576
 C2749 C 0.24527 1.10424 0.39496
 C2750 C 0.25825 1.09230 0.37852
 C2751 C 0.27690 1.08497 0.38602
 C2752 C 0.28075 1.09029 0.40921
 C2753 C 0.26158 1.08158 0.42091
 C2754 C 0.24292 1.08892 0.41342
 C2755 C 0.25989 1.12157 0.40308
 C2756 C 0.27853 1.11424 0.41057
 C2757 C 0.22525 1.11220 0.38684
 C2758 C 0.20890 1.11891 0.38006
 C2759 C 0.30088 1.08247 0.41721
 C2760 C 0.31753 1.07615 0.42361
 H2761 H 0.25323 1.08981 0.36242
 H2762 H 0.28785 1.07620 0.37633
 H2763 H 0.26257 1.07062 0.43393
 H2764 H 0.22792 1.08424 0.42002
 H2765 H 0.25593 1.13815 0.40297
 H2766 H 0.29055 1.12454 0.41688
 C2767 C 0.24529 0.60431 0.89597
 C2768 C 0.24679 0.60419 0.92004
 C2769 C 0.26547 0.59680 0.92742
 C2770 C 0.28081 0.59026 0.91000
 C2771 C 0.28298 0.60970 0.89595
 C2772 C 0.26431 0.61709 0.88857
 C2773 C 0.25002 0.58165 0.88929
 C2774 C 0.26870 0.57426 0.89667
 C2775 C 0.22524 0.61233 0.88796
 C2776 C 0.20886 0.61905 0.88124
 C2777 C 0.30096 0.58237 0.91787
 C2778 C 0.31762 0.57602 0.92421
 H2779 H 0.23429 0.60944 0.93037
 H2780 H 0.26898 0.59572 0.94407
 H2781 H 0.29787 0.61703 0.89212
 H2782 H 0.26321 0.63075 0.87843
 H2783 H 0.23962 0.57223 0.87962
 H2784 H 0.27430 0.55851 0.89332
 C2785 C 1.10420 1.25510 1.10338
 C2786 C 1.09107 1.24307 1.11961
 C2787 C 1.08364 1.22436 1.11241
 C2788 C 1.09006 1.21952 1.08968
 C2789 C 1.11411 1.22104 1.08952
 C2790 C 1.12154 1.23974 1.09672
 C2791 C 1.08993 1.25719 1.08406
 C2792 C 1.08250 1.23847 1.07686
 C2793 C 1.11226 1.27519 1.11121
 C2794 C 1.11899 1.29158 1.11783
 C2795 C 1.08214 1.19933 1.08200
 C2796 C 1.07580 1.18263 1.07579
 H2797 H 1.08788 1.24875 1.13537
 H2798 H 1.07409 1.21401 1.12200
 H2799 H 1.12439 1.20852 1.08421
 H2800 H 1.13819 1.24325 1.09757
 H2801 H 1.08601 1.27205 1.07669
 H2802 H 1.07221 1.23729 1.06331
 C2803 C 1.10352 0.75496 0.60333
 C2804 C 1.09026 0.74290 0.61942
 C2805 C 1.08302 0.72414 0.61218
 C2806 C 1.08975 0.71927 0.58955
 C2807 C 1.11378 0.72091 0.58968
 C2808 C 1.12102 0.73967 0.59692
 C2809 C 1.08948 0.75692 0.58382
 C2810 C 1.08224 0.73815 0.57657
 C2811 C 1.11139 0.77511 0.61119
 C2812 C 1.11799 0.79155 0.61781
 C2813 C 1.08202 0.69902 0.58181
 C2814 C 1.07581 0.68228 0.57560
 H2815 H 1.08684 0.74860 0.63512
 H2816 H 1.07340 0.71376 0.62167
 H2817 H 1.12419 0.70844 0.58452
 H2818 H 1.13764 0.74327 0.59797
 H2819 H 1.08558 0.77174 0.57637
 H2820 H 1.07213 0.73688 0.56291
 C2821 C 0.60421 1.25434 0.60471
 C2822 C 0.59094 1.24213 0.62069
 C2823 C 0.58354 1.22352 0.61320
 C2824 C 0.59013 1.21894 0.59047
 C2825 C 0.61418 1.22042 0.59052
 C2826 C 0.62158 1.23903 0.59800
 C2827 C 0.59010 1.25668 0.58531
 C2828 C 0.58269 1.23806 0.57782
 C2829 C 0.61225 1.27432 0.61284
 C2830 C 0.61900 1.29062 0.61964
 C2831 C 0.58223 1.19886 0.58248
 C2832 C 0.57587 1.18224 0.57607
 H2833 H 0.58764 1.24762 0.63649
 H2834 H 0.57390 1.21307 0.62259
 H2835 H 0.62448 1.20796 0.58513
 H2836 H 0.63822 1.24250 0.59903
 H2837 H 0.58626 1.27163 0.57809
 H2838 H 0.57251 1.23706 0.56418
 C2839 C 0.60397 0.75450 1.10445
 C2840 C 0.59094 0.74225 1.12060
 C2841 C 0.58359 0.72358 1.11324
 C2842 C 0.58997 0.71898 1.09045
 C2843 C 0.61401 0.72062 1.09025
 C2844 C 0.62136 0.73929 1.09761
 C2845 C 0.58964 0.75670 1.08519
 C2846 C 0.58228 0.73801 1.07783
 C2847 C 0.61195 0.77456 1.11245
 C2848 C 0.61865 0.79093 1.11915
 C2849 C 0.58212 0.69882 1.08260
 C2850 C 0.57581 0.68215 1.07629
 H2851 H 0.58776 0.74777 1.13642
 H2852 H 0.57411 0.71309 1.12276
 H2853 H 0.62434 0.70821 1.08479
 H2854 H 0.63799 0.74288 1.09845
 H2855 H 0.58563 0.77161 1.07797
 H2856 H 0.57196 0.73691 1.06430
 C2857 C 0.89506 1.25448 0.89518
 C2858 C 0.89968 1.25474 0.91885
 C2859 C 0.90716 1.23613 0.92633
 C2860 C 0.90928 1.21910 0.90940
 C2861 C 0.92317 1.22891 0.89233
 C2862 C 0.91569 1.24751 0.88485
 C2863 C 0.87994 1.23602 0.89197
 C2864 C 0.88741 1.21743 0.89944
 C2865 C 0.88695 1.27445 0.88706
 C2866 C 0.88014 1.29074 0.88026
 C2867 C 0.91726 1.19903 0.91738
 C2868 C 0.92368 1.18242 0.92379
 H2869 H 0.89729 1.26833 0.92884
 H2870 H 0.91118 1.23379 0.94273
 H2871 H 0.93761 1.22188 0.88662
 H2872 H 0.92373 1.25641 0.87274
 H2873 H 0.86469 1.23743 0.88448
 H2874 H 0.87857 1.20292 0.89836
 C2875 C 0.89596 0.75430 0.39527
 C2876 C 0.90710 0.74096 0.37856
 C2877 C 0.91445 0.72230 0.38601
 C2878 C 0.90996 0.71881 0.40943
 C2879 C 0.88610 0.72137 0.41167
 C2880 C 0.87875 0.74003 0.40422
 C2881 C 0.91200 0.75666 0.41311
 C2882 C 0.91936 0.73799 0.42056
 C2883 C 0.88797 0.77433 0.38719
 C2884 C 0.88126 0.79068 0.38043
 C2885 C 0.91781 0.69867 0.41738
 C2886 C 0.92414 0.68202 0.42376
 H2887 H 0.90904 0.74575 0.36231
 H2888 H 0.92270 0.71111 0.37614
 H2889 H 0.87589 0.70958 0.41851
 H2890 H 0.86224 0.74422 0.40469
 H2891 H 0.91713 0.77167 0.41933
 H2892 H 0.93079 0.73701 0.43317
 C2893 C 0.39554 1.25475 0.39555
 C2894 C 0.41951 1.25265 0.39428
 C2895 C 0.42689 1.23397 0.40166
 C2896 C 0.40957 1.21923 0.40959
 C2897 C 0.39434 1.21696 0.39105
 C2898 C 0.38697 1.23563 0.38367
 C2899 C 0.39013 1.25071 0.41870
 C2900 C 0.39751 1.23203 0.42608
 C2901 C 0.38753 1.27480 0.38754
 C2902 C 0.38080 1.29116 0.38082
 C2903 C 0.41744 1.19908 0.41747
 C2904 C 0.42377 1.18241 0.42380
 H2905 H 0.42978 1.26477 0.38813
 H2906 H 0.44348 1.23008 0.40184
 H2907 H 0.38975 1.20201 0.38431
 H2908 H 0.37606 1.23666 0.37061
 H2909 H 0.38129 1.26156 0.42843
 H2910 H 0.39499 1.22687 0.44214
 C2911 C 0.39535 0.75455 0.89615
 C2912 C 0.40653 0.74136 0.87936
 C2913 C 0.41398 0.72270 0.88670
 C2914 C 0.40952 0.71906 0.91011
 C2915 C 0.38566 0.72150 0.91237
 C2916 C 0.37821 0.74016 0.90504
 C2917 C 0.41140 0.75690 0.91398
 C2918 C 0.41885 0.73823 0.92133
 C2919 C 0.38727 0.77459 0.88818
 C2920 C 0.38050 0.79094 0.88147
 C2921 C 0.41747 0.69892 0.91794
 C2922 C 0.42385 0.68226 0.92425
 H2923 H 0.40845 0.74624 0.86314
 H2924 H 0.42228 0.71160 0.87676
 H2925 H 0.37551 0.70962 0.91916
 H2926 H 0.36168 0.74426 0.90554
 H2927 H 0.41645 0.77189 0.92029
 H2928 H 0.43029 0.73722 0.93392
 C2929 C 1.10451 0.74545 0.89620
 C2930 C 1.09825 0.74492 0.91948
 C2931 C 1.09080 0.76360 0.92678
 C2932 C 1.09035 0.78098 0.91008
 C2933 C 1.07741 0.77189 0.89190
 C2934 C 1.08485 0.75320 0.88460
 C2935 C 1.12034 0.76349 0.89440
 C2936 C 1.11290 0.78217 0.90169
 C2937 C 1.11258 0.72539 0.88827
 C2938 C 1.11934 0.70902 0.88160
 C2939 C 1.08241 0.80114 0.91787
 C2940 C 1.07604 0.81781 0.92416
 H2941 H 1.09955 0.73109 0.92935
 H2942 H 1.08572 0.76579 0.94291
 H2943 H 1.06361 0.77945 0.88534
 H2944 H 1.07743 0.74476 0.87179
 H2945 H 1.13603 0.76176 0.88796
 H2946 H 1.12221 0.79643 0.90151
 C2947 C 1.10466 0.24521 0.39552
 C2948 C 1.10052 0.24517 0.41928
 C2949 C 1.09313 0.26382 0.42672
 C2950 C 1.09061 0.28068 0.40967
 C2951 C 1.07641 0.27066 0.39298
 C2952 C 1.08380 0.25201 0.38554
 C2953 C 1.11965 0.26368 0.39182
 C2954 C 1.11227 0.28232 0.39926
 C2955 C 1.11268 0.22519 0.38744
 C2956 C 1.11941 0.20885 0.38067
 C2957 C 1.08272 0.30080 0.41761
 C2958 C 1.07637 0.31745 0.42398
 H2959 H 1.10315 0.23168 0.42936
 H2960 H 1.08943 0.26632 0.44318
 H2961 H 1.06184 0.27759 0.38750
 H2962 H 1.07555 0.24297 0.37368
 H2963 H 1.13475 0.26225 0.38405
 H2964 H 1.12104 0.29685 0.39786
 C2965 C 0.60385 0.74520 0.39557
 C2966 C 0.59969 0.74526 0.41932
 C2967 C 0.59234 0.76396 0.42669
 C2968 C 0.58989 0.78077 0.40958
 C2969 C 0.57569 0.77073 0.39290
 C2970 C 0.58303 0.75203 0.38554
 C2971 C 0.61891 0.76362 0.39182
 C2972 C 0.61157 0.78231 0.39919
 C2973 C 0.61182 0.72513 0.38758
 C2974 C 0.61851 0.70875 0.38088
 C2975 C 0.58206 0.80094 0.41744
 C2976 C 0.57575 0.81762 0.42375
 H2977 H 0.60227 0.73180 0.42946
 H2978 H 0.58864 0.76653 0.44313
 H2979 H 0.56114 0.77769 0.38738
 H2980 H 0.57477 0.74297 0.37370
 H2981 H 0.63401 0.76211 0.38407
 H2982 H 0.62039 0.79680 0.39774
 C2983 C 0.60487 0.24563 0.89506
 C2984 C 0.60481 0.26335 0.87873
 C2985 C 0.59734 0.28191 0.88627
 C2986 C 0.59066 0.28096 0.90941
 C2987 C 0.61005 0.27285 0.92120
 C2988 C 0.61752 0.25428 0.91366
 C2989 C 0.58216 0.24439 0.90301
 C2990 C 0.57468 0.26297 0.91055
 C2991 C 0.61298 0.22569 0.88688
 C2992 C 0.61980 0.20941 0.88003
 C2993 C 0.58268 0.30100 0.91746
 C2994 C 0.57626 0.31759 0.92393
 H2995 H 0.61016 0.26148 0.86264
 H2996 H 0.59629 0.29594 0.87665
 H2997 H 0.61727 0.28098 0.93433
 H2998 H 0.63115 0.24649 0.92033
 H2999 H 0.57278 0.23018 0.90273
 H3000 H 0.55890 0.26468 0.91675
 C3001 C 0.89647 0.74513 1.10348
 C3002 C 0.88430 0.75357 1.08446
 C3003 C 0.89160 0.77233 1.07725
 C3004 C 0.91036 0.78080 1.08977
 C3005 C 0.92679 0.76317 1.08915
 C3006 C 0.91948 0.74441 1.09637
 C3007 C 0.89552 0.76278 1.11986
 C3008 C 0.90282 0.78153 1.11265
 C3009 C 0.88854 0.72499 1.11132
 C3010 C 0.88190 0.70856 1.11791
 C3011 C 0.91815 0.80104 1.08207
 C3012 C 0.92441 0.81777 1.07586
 H3013 H 0.87111 0.74552 1.07728
 H3014 H 0.88468 0.78035 1.06389
 H3015 H 0.94274 0.76524 1.08355
 H3016 H 0.92917 0.73040 1.09694
 H3017 H 0.88963 0.76073 1.13573
 H3018 H 0.90319 0.79554 1.12235
 C3019 C 0.89596 0.24539 0.60456
 C3020 C 0.87991 0.25764 0.59140
 C3021 C 0.88732 0.27628 0.58400
 C3022 C 0.91007 0.28085 0.59049
 C3023 C 0.92270 0.26176 0.58293
 C3024 C 0.91528 0.24311 0.59033
 C3025 C 0.90274 0.26064 0.62195
 C3026 C 0.91015 0.27928 0.61455
 C3027 C 0.88791 0.22538 0.61259
 C3028 C 0.88116 0.20905 0.61933
 C3029 C 0.91798 0.30096 0.58260
 C3030 C 0.92433 0.31761 0.57624
 H3031 H 0.86411 0.25216 0.58816
 H3032 H 0.87788 0.28676 0.57443
 H3033 H 0.93627 0.26280 0.57267
 H3034 H 0.92249 0.22818 0.58641
 H3035 H 0.90181 0.25711 0.63860
 H3036 H 0.91557 0.29170 0.62487
 C3037 C 0.39536 0.74542 0.60382
 C3038 C 0.40571 0.75901 0.62082
 C3039 C 0.41315 0.77766 0.61349
 C3040 C 0.40951 0.78091 0.58988
 C3041 C 0.38579 0.77811 0.58676
 C3042 C 0.37835 0.75945 0.59409
 C3043 C 0.41209 0.74305 0.58663
 C3044 C 0.41953 0.76171 0.57929
 C3045 C 0.38729 0.72539 0.61179
 C3046 C 0.38055 0.70904 0.61849
 C3047 C 0.41744 0.80104 0.58205
 C3048 C 0.42381 0.81770 0.57574
 H3049 H 0.40709 0.75438 0.63717
 H3050 H 0.42090 0.78901 0.62356
 H3051 H 0.37572 0.78975 0.57943
 H3052 H 0.36191 0.75512 0.59304
 H3053 H 0.41760 0.72803 0.58074
 H3054 H 0.43142 0.76269 0.56712
 C3055 C 0.39579 0.24494 1.10339
 C3056 C 0.38101 0.26347 1.10774
 C3057 C 0.38843 0.28220 1.10058
 C3058 C 0.40991 0.28056 1.08978
 C3059 C 0.40697 0.26411 1.07242
 C3060 C 0.39954 0.24537 1.07958
 C3061 C 0.41686 0.25131 1.11318
 C3062 C 0.42429 0.27004 1.10602
 C3063 C 0.38774 0.22483 1.11118
 C3064 C 0.38102 0.20842 1.11775
 C3065 C 0.41782 0.30077 1.08214
 C3066 C 0.42416 0.31748 1.07596
 H3067 H 0.36603 0.26202 1.11573
 H3068 H 0.37981 0.29678 1.10245
 H3069 H 0.41041 0.26692 1.05596
 H3070 H 0.39663 0.23213 1.06925
 H3071 H 0.42523 0.24193 1.12470
 H3072 H 0.43901 0.27671 1.11141
 C3073 C 1.10449 1.10517 0.74558
 C3074 C 1.10774 1.08146 0.74839
 C3075 C 1.10034 1.07394 0.76701
 C3076 C 1.09041 1.09088 0.78100
 C3077 C 1.07344 1.10115 0.76730
 C3078 C 1.08085 1.10867 0.74867
 C3079 C 1.11485 1.11521 0.76488
 C3080 C 1.10746 1.10770 0.78349
 C3081 C 1.11252 1.11331 0.72559
 C3082 C 1.11927 1.12011 0.70926
 C3083 C 1.08251 1.08286 0.80109
 C3084 C 1.07613 1.07642 0.81772
 H3085 H 1.11519 1.07145 0.73677
 H3086 H 1.10145 1.05750 0.77135
 H3087 H 1.05706 1.10241 0.77182
 H3088 H 1.07080 1.11636 0.73724
 H3089 H 1.12695 1.12717 0.76400
 H3090 H 1.11322 1.11323 0.79856
 C3091 C 1.10473 0.60527 0.24561
 C3092 C 1.10970 0.61937 0.26450
 C3093 C 1.10235 0.61175 0.28309
 C3094 C 1.09074 0.59076 0.28097
 C3095 C 1.10636 0.57604 0.27000
 C3096 C 1.11371 0.58367 0.25141
 C3097 C 1.08081 0.60243 0.24607
 C3098 C 1.07345 0.59480 0.26466
 C3099 C 1.11272 0.61353 0.22564
 C3100 C 1.11945 0.62041 0.20934
 C3101 C 1.08288 0.58262 0.30103
 C3102 C 1.07653 0.57611 0.31763
 H3103 H 1.11824 0.63406 0.26338
 H3104 H 1.10460 0.61991 0.29788
 H3105 H 1.11121 0.56095 0.27628
 H3106 H 1.12487 0.57512 0.24175
 H3107 H 1.07055 0.60609 0.23295
 H3108 H 1.05690 0.59193 0.26748
 C3109 C 0.60429 1.10497 0.24524
 C3110 C 0.60453 1.08092 0.24673
 C3111 C 0.59713 1.07343 0.26536
 C3112 C 0.59021 1.09071 0.28067
 C3113 C 0.57409 1.10381 0.26844
 C3114 C 0.58149 1.11130 0.24981
 C3115 C 0.61682 1.11253 0.26438
 C3116 C 0.60942 1.10504 0.28300
 C3117 C 0.61232 1.11309 0.22524
 C3118 C 0.61906 1.11989 0.20891
 C3119 C 0.58231 1.08272 0.30077
 C3120 C 0.57594 1.07629 0.31740
 H3121 H 0.61003 1.07069 0.23426
 H3122 H 0.59629 1.05677 0.26885
 H3123 H 0.55825 1.10691 0.27392
 H3124 H 0.57199 1.12083 0.23933
 H3125 H 0.63032 1.12286 0.26340
 H3126 H 0.61659 1.10895 0.29797
 C3127 C 0.60363 0.60352 0.74518
 C3128 C 0.59002 0.61944 0.75711
 C3129 C 0.58272 0.61214 0.77585
 C3130 C 0.58974 0.58963 0.78082
 C3131 C 0.61378 0.59009 0.77937
 C3132 C 0.62108 0.59740 0.76063
 C3133 C 0.58990 0.58384 0.74314
 C3134 C 0.58260 0.57653 0.76189
 C3135 C 0.61156 0.61146 0.72506
 C3136 C 0.61822 0.61812 0.70865
 C3137 C 0.58195 0.58183 0.80104
 C3138 C 0.57569 0.57557 0.81776
 H3139 H 0.58643 0.63507 0.75135
 H3140 H 0.57287 0.62151 0.78614
 H3141 H 0.62416 0.58511 0.79194
 H3142 H 0.63772 0.59867 0.75716
 H3143 H 0.58624 0.57631 0.72829
 H3144 H 0.57268 0.56274 0.76310
 C3145 C 0.89627 0.89641 0.74507
 C3146 C 0.90624 0.91829 0.74363
 C3147 C 0.91354 0.92561 0.76237
 C3148 C 0.91014 0.91033 0.78070
 C3149 C 0.92053 0.88975 0.77369
 C3150 C 0.91324 0.88243 0.75495
 C3151 C 0.87921 0.89842 0.76197
 C3152 C 0.88650 0.90574 0.78070
 C3153 C 0.88836 0.88846 0.72495
 C3154 C 0.88171 0.88179 0.70854
 C3155 C 0.91792 0.91814 0.80092
 C3156 C 0.92418 0.92442 0.81764
 H3157 H 0.90746 0.92724 0.72917
 H3158 H 0.92101 0.94083 0.76397
 H3159 H 0.93257 0.88165 0.78264
 H3160 H 0.91903 0.86806 0.74786
 H3161 H 0.86283 0.89446 0.75944
 H3162 H 0.87637 0.90804 0.79422
 C3163 C 0.89568 0.39475 0.24549
 C3164 C 0.88673 0.41632 0.25147
 C3165 C 0.89416 0.42381 0.27009
 C3166 C 0.90979 0.40900 0.28091
 C3167 C 0.92703 0.40504 0.26453
 C3168 C 0.91960 0.39755 0.24590
 C3169 C 0.89074 0.38052 0.26431
 C3170 C 0.89816 0.38801 0.28292
 C3171 C 0.88762 0.38663 0.22550
 C3172 C 0.88085 0.37985 0.20917
 C3173 C 0.91772 0.41699 0.30101
 C3174 C 0.92409 0.42342 0.31763
 H3175 H 0.87556 0.42495 0.24191
 H3176 H 0.88934 0.43886 0.27649
 H3177 H 0.94359 0.40788 0.26731
 H3178 H 0.92981 0.39397 0.23272
 H3179 H 0.88218 0.36585 0.26311
 H3180 H 0.89595 0.37975 0.29767
 C3181 C 0.39545 0.89500 0.24519
 C3182 C 0.41666 0.88558 0.25172
 C3183 C 0.42401 0.89313 0.27035
 C3184 C 0.40943 0.90936 0.28062
 C3185 C 0.38810 0.89833 0.28244
 C3186 C 0.38075 0.89079 0.26382
 C3187 C 0.39890 0.91884 0.24523
 C3188 C 0.40625 0.92639 0.26386
 C3189 C 0.38747 0.88681 0.22520
 C3190 C 0.38075 0.87998 0.20887
 C3191 C 0.41729 0.91741 0.30071
 C3192 C 0.42363 0.92385 0.31734
 H3193 H 0.42515 0.87401 0.24252
 H3194 H 0.43880 0.88803 0.27711
 H3195 H 0.37951 0.89661 0.29706
 H3196 H 0.36587 0.88260 0.26250
 H3197 H 0.39584 0.92890 0.23181
 H3198 H 0.40949 0.94292 0.26640
 C3199 C 0.39654 0.39569 0.74523
 C3200 C 0.41989 0.40161 0.74488
 C3201 C 0.42711 0.40904 0.76362
 C3202 C 0.41027 0.40980 0.78085
 C3203 C 0.40159 0.38737 0.78208
 C3204 C 0.39437 0.37995 0.76336
 C3205 C 0.38514 0.41553 0.75279
 C3206 C 0.39236 0.42295 0.77152
 C3207 C 0.38870 0.38764 0.72513
 C3208 C 0.38208 0.38092 0.70872
 C3209 C 0.41798 0.41771 0.80106
 C3210 C 0.42421 0.42405 0.81777
 H3211 H 0.42986 0.40012 0.73114
 H3212 H 0.44327 0.41390 0.76592
 H3213 H 0.40115 0.37812 0.79639
 H3214 H 0.38775 0.36435 0.76164
 H3215 H 0.37252 0.42310 0.74419
 H3216 H 0.38593 0.43687 0.77896
 C3217 C 1.10403 0.89589 1.25501
 C3218 C 1.11865 0.91196 1.24461
 C3219 C 1.11133 0.91938 1.22592
 C3220 C 1.09011 0.91000 1.21945
 C3221 C 1.07540 0.91445 1.23803
 C3222 C 1.08272 0.90702 1.25673
 C3223 C 1.10081 0.87874 1.23840
 C3224 C 1.09350 0.88615 1.21971
 C3225 C 1.11198 0.88784 1.27508
 C3226 C 1.11867 0.88110 1.29146
 C3227 C 1.08230 0.91792 1.19928
 C3228 C 1.07601 0.92427 1.18259
 H3229 H 1.13344 0.91707 1.25134
 H3230 H 1.11986 0.93085 1.21664
 H3231 H 1.06055 0.92269 1.23662
 H3232 H 1.07414 0.90891 1.27134
 H3233 H 1.10399 0.86221 1.24108
 H3234 H 1.09041 0.87598 1.20639
 C3235 C 1.10426 0.39597 0.75511
 C3236 C 1.12021 0.40946 0.74312
 C3237 C 1.11289 0.41680 0.72440
 C3238 C 1.09033 0.40994 0.71950
 C3239 C 1.07732 0.41719 0.73846
 C3240 C 1.08465 0.40984 0.75719
 C3241 C 1.09799 0.37856 0.73969
 C3242 C 1.09067 0.38589 0.72097
 C3243 C 1.11220 0.38801 0.77521
 C3244 C 1.11887 0.38131 0.79162
 C3245 C 1.08251 0.41777 0.69929
 C3246 C 1.07622 0.42406 0.68258
 H3247 H 1.13588 0.41295 0.74884
 H3248 H 1.12228 0.42658 0.71408
 H3249 H 1.06358 0.42720 0.73728
 H3250 H 1.07718 0.41357 0.77206
 H3251 H 1.09919 0.36192 0.74317
 H3252 H 1.08560 0.37554 0.70842
 C3253 C 0.60349 0.89625 0.75496
 C3254 C 0.58235 0.88670 0.74846
 C3255 C 0.57504 0.89400 0.72972
 C3256 C 0.58958 0.91013 0.71931
 C3257 C 0.61097 0.89915 0.71771
 C3258 C 0.61828 0.89186 0.73644
 C3259 C 0.59993 0.92008 0.75461
 C3260 C 0.59262 0.92738 0.73586
 C3261 C 0.61143 0.88833 0.77508
 C3262 C 0.61810 0.88168 0.79150
 C3263 C 0.58178 0.91792 0.69909
 C3264 C 0.57551 0.92419 0.68236
 H3265 H 0.57387 0.87522 0.75777
 H3266 H 0.56029 0.88877 0.72297
 H3267 H 0.61962 0.89727 0.70313
 H3268 H 0.63319 0.88373 0.73792
 H3269 H 0.60289 0.93032 0.76792
 H3270 H 0.58931 0.94387 0.73310
 C3271 C 0.60422 0.39580 1.25521
 C3272 C 0.58309 0.38620 1.24876
 C3273 C 0.57569 0.39353 1.23006
 C3274 C 0.59014 0.40974 1.21965
 C3275 C 0.61156 0.39883 1.21794
 C3276 C 0.61896 0.39150 1.23662
 C3277 C 0.60059 0.41962 1.25495
 C3278 C 0.59318 0.42695 1.23625
 C3279 C 0.61225 0.38783 1.27528
 C3280 C 0.61898 0.38114 1.29166
 C3281 C 0.58224 0.41757 1.19948
 C3282 C 0.57589 0.42387 1.18279
 H3283 H 0.57468 0.37467 1.25806
 H3284 H 0.56093 0.38828 1.22335
 H3285 H 0.62016 0.39703 1.20333
 H3286 H 0.63390 0.38342 1.23802
 H3287 H 0.60357 0.42982 1.26827
 H3288 H 0.58982 0.44344 1.23355
 C3289 C 0.89679 1.10327 1.25561
 C3290 C 0.88199 1.10787 1.23715
 C3291 C 0.88924 1.10068 1.21835
 C3292 C 0.91058 1.08959 1.21984
 C3293 C 0.90749 1.07223 1.23627
 C3294 C 0.90023 1.07943 1.25508
 C3295 C 0.91796 1.11278 1.24916
 C3296 C 0.92521 1.10558 1.23035
 C3297 C 0.88891 1.11108 1.27579
 C3298 C 0.88229 1.11766 1.29226
 C3299 C 0.91832 1.08192 1.19955
 C3300 C 0.92453 1.07575 1.18277
 H3301 H 0.86712 1.11605 1.23870
 H3302 H 0.88058 1.10271 1.20380
 H3303 H 0.91071 1.05575 1.23338
 H3304 H 0.89724 1.06911 1.26831
 H3305 H 0.92650 1.12414 1.25854
 H3306 H 0.93997 1.11079 1.22362
 C3307 C 0.89638 0.60369 0.75506
 C3308 C 0.89622 0.57966 0.75337
 C3309 C 0.90355 0.57234 0.73463
 C3310 C 0.91033 0.58978 0.71944
 C3311 C 0.92647 0.60280 0.73171
 C3312 C 0.91913 0.61011 0.75044
 C3313 C 0.88372 0.61140 0.73605
 C3314 C 0.89105 0.60409 0.71733
 C3315 C 0.88842 0.61163 0.77517
 C3316 C 0.88173 0.61831 0.79157
 C3317 C 0.91815 0.58197 0.69924
 C3318 C 0.92444 0.57569 0.68253
 H3319 H 0.89082 0.56931 0.76578
 H3320 H 0.90444 0.55572 0.73100
 H3321 H 0.94226 0.60598 0.72617
 H3322 H 0.92864 0.61956 0.76095
 H3323 H 0.87019 0.62170 0.73719
 H3324 H 0.88380 0.60812 0.70244
 C3325 C 0.39598 1.10459 0.75469
 C3326 C 0.38749 1.08277 0.74907
 C3327 C 0.39476 1.07529 0.73038
 C3328 C 0.40982 1.09037 0.71915
 C3329 C 0.42724 1.09488 0.73518
 C3330 C 0.41996 1.10236 0.75388
 C3331 C 0.39034 1.11853 0.73585
 C3332 C 0.39761 1.11106 0.71717
 C3333 C 0.38808 1.11270 0.77475
 C3334 C 0.38141 1.11948 0.79113
 C3335 C 0.41758 1.08240 0.69899
 C3336 C 0.42386 1.07601 0.68231
 H3337 H 0.37672 1.07396 0.75890
 H3338 H 0.39023 1.06007 0.72420
 H3339 H 0.44382 1.09241 0.73213
 H3340 H 0.43031 1.10630 0.76683
 H3341 H 0.38142 1.13301 0.73708
 H3342 H 0.39492 1.11913 0.70240
 C3343 C 0.39555 0.60504 1.25483
 C3344 C 0.39624 0.62155 1.23729
 C3345 C 0.40361 0.61399 1.21868
 C3346 C 0.40956 0.59066 1.21942
 C3347 C 0.38975 0.57942 1.22724
 C3348 C 0.38238 0.58698 1.24586
 C3349 C 0.41799 0.59635 1.25616
 C3350 C 0.42536 0.58879 1.23753
 C3351 C 0.38755 0.61324 1.27482
 C3352 C 0.38080 0.62008 1.29114
 C3353 C 0.41742 0.58259 1.19933
 C3354 C 0.42377 0.57613 1.18270
 H3355 H 0.39139 0.63777 1.23932
 H3356 H 0.40506 0.62373 1.20476
 H3357 H 0.38218 0.56664 1.21890
 H3358 H 0.36850 0.58068 1.25347
 H3359 H 0.42727 0.59616 1.27045
 H3360 H 0.44095 0.58211 1.23587
 C3361 C 1.10372 1.25491 0.89582
 C3362 C 1.11144 1.23589 0.88320
 C3363 C 1.10413 1.21720 0.89057
 C3364 C 1.08982 1.21936 0.90985
 C3365 C 1.07238 1.23453 0.90301
 C3366 C 1.07969 1.25323 0.89563
 C3367 C 1.11014 1.25034 0.91861
 C3368 C 1.10283 1.23164 0.92598
 C3369 C 1.11166 1.27498 0.88782
 C3370 C 1.11834 1.29136 0.88111
 C3371 C 1.08202 1.19920 0.91772
 C3372 C 1.07574 1.18251 0.92404
 H3373 H 1.12174 1.23699 0.86966
 H3374 H 1.10817 1.20230 0.88335
 H3375 H 1.05575 1.23091 0.90389
 H3376 H 1.06933 1.26563 0.89019
 H3377 H 1.11959 1.26086 0.92811
 H3378 H 1.10602 1.22615 0.94181
 C3379 C 1.10387 0.75453 0.39557
 C3380 C 1.11350 0.74810 0.41672
 C3381 C 1.10622 0.72940 0.42412
 C3382 C 1.09003 0.71897 0.40965
 C3383 C 1.10093 0.71729 0.38822
 C3384 C 1.10821 0.73597 0.38082
 C3385 C 1.08005 0.75422 0.39920
 C3386 C 1.07277 0.73552 0.40660
 C3387 C 1.11177 0.77460 0.38755
 C3388 C 1.11841 0.79098 0.38083
 C3389 C 1.08227 0.69880 0.41755
 C3390 C 1.07601 0.68211 0.42389
 H3391 H 1.12501 0.75741 0.42515
 H3392 H 1.11150 0.72269 0.43889
 H3393 H 1.10278 0.70270 0.37960
 H3394 H 1.11628 0.73739 0.36587
 H3395 H 1.06980 0.76751 0.39622
 H3396 H 1.05629 0.73279 0.40996
 C3397 C 0.60383 1.25472 0.39576
 C3398 C 0.60958 1.23593 0.38181
 C3399 C 0.60222 1.21726 0.38915
 C3400 C 0.58982 1.21919 0.40973
 C3401 C 0.57247 1.23526 0.40509
 C3402 C 0.57983 1.25395 0.39774
 C3403 C 0.61211 1.24902 0.41767
 C3404 C 0.60474 1.23033 0.42502
 C3405 C 0.61183 1.27478 0.38778
 C3406 C 0.61854 1.29114 0.38109
 C3407 C 0.58197 1.19904 0.41758
 C3408 C 0.57565 1.18236 0.42388
 H3409 H 0.61864 1.23718 0.36742
 H3410 H 0.60497 1.20252 0.38106
 H3411 H 0.55586 1.23223 0.40738
 H3412 H 0.56954 1.26693 0.39373
 H3413 H 0.62281 1.25879 0.42664
 H3414 H 0.60913 1.22410 0.44028
 C3415 C 0.60367 0.75478 0.89654
 C3416 C 0.60617 0.73667 0.88083
 C3417 C 0.59885 0.71796 0.88812
 C3418 C 0.58976 0.71917 0.91041
 C3419 C 0.57290 0.73637 0.90936
 C3420 C 0.58022 0.75510 0.90207
 C3421 C 0.61472 0.74723 0.91659
 C3422 C 0.60741 0.72851 0.92388
 C3423 C 0.61161 0.77487 0.88862
 C3424 C 0.61827 0.79128 0.88196
 C3425 C 0.58195 0.69897 0.91819
 C3426 C 0.57567 0.68226 0.92445
 H3427 H 0.61307 0.73840 0.86533
 H3428 H 0.59949 0.70366 0.87886
 H3429 H 0.55666 0.73404 0.91394
 H3430 H 0.57025 0.76882 0.90040
 H3431 H 0.62719 0.75584 0.92439
 H3432 H 0.61360 0.72107 0.93792
 C3433 C 0.89550 1.25458 1.10508
 C3434 C 0.90178 1.25537 1.08181
 C3435 C 0.90917 1.23674 1.07429
 C3436 C 0.90955 1.21916 1.09078
 C3437 C 0.88698 1.21795 1.09913
 C3438 C 0.87960 1.23657 1.10665
 C3439 C 0.91512 1.24661 1.11660
 C3440 C 0.92250 1.22799 1.10908
 C3441 C 0.88749 1.27457 1.11324
 C3442 C 0.88075 1.29089 1.12006
 C3443 C 0.91743 1.19907 1.08276
 C3444 C 0.92379 1.18245 1.07632
 H3445 H 0.90054 1.26932 1.07211
 H3446 H 0.91426 1.23474 1.05814
 H3447 H 0.87762 1.20373 1.09913
 H3448 H 0.86392 1.23828 1.11309
 H3449 H 0.92256 1.25487 1.12952
 H3450 H 0.93627 1.22030 1.11556
 C3451 C 0.89640 0.75477 0.60360
 C3452 C 0.90022 0.73849 0.62096
 C3453 C 0.90753 0.71976 0.61367
 C3454 C 0.91031 0.71913 0.58973
 C3455 C 0.92471 0.73774 0.58461
 C3456 C 0.91740 0.75648 0.59191
 C3457 C 0.88148 0.74398 0.58806
 C3458 C 0.88879 0.72525 0.58077
 C3459 C 0.88846 0.77488 0.61151
 C3460 C 0.88179 0.79129 0.61816
 C3461 C 0.91810 0.69892 0.58195
 C3462 C 0.92438 0.68220 0.57569
 H3463 H 0.89744 0.74142 0.63753
 H3464 H 0.91101 0.70665 0.62399
 H3465 H 0.93936 0.73632 0.57602
 H3466 H 0.92578 0.77112 0.58956
 H3467 H 0.86649 0.75049 0.58320
 H3468 H 0.88006 0.71571 0.56966
 C3469 C 0.39612 1.25494 0.60399
 C3470 C 0.39552 1.23724 0.62034
 C3471 C 0.40278 1.21853 0.61296
 C3472 C 0.40993 1.21933 0.58995
 C3473 C 0.42626 1.23700 0.58910
 C3474 C 0.41900 1.25573 0.59648
 C3475 C 0.38366 1.24651 0.58516
 C3476 C 0.39092 1.22779 0.57778
 C3477 C 0.38824 1.27504 0.61200
 C3478 C 0.38160 1.29145 0.61870
 C3479 C 0.41768 1.19913 0.58207
 C3480 C 0.42393 1.18242 0.57575
 H3481 H 0.38990 1.23924 0.63631
 H3482 H 0.40337 1.20449 0.62261
 H3483 H 0.44213 1.23498 0.58321
 H3484 H 0.42865 1.26976 0.59692
 H3485 H 0.37032 1.25455 0.57822
 H3486 H 0.38380 1.21978 0.56452
 C3487 C 0.39544 0.75438 1.10515
 C3488 C 0.38763 0.74910 1.08296
 C3489 C 0.39502 0.73046 1.07549
 C3490 C 0.40949 0.71893 1.09095
 C3491 C 0.39659 0.71680 1.11120
 C3492 C 0.38921 0.73544 1.11866
 C3493 C 0.41947 0.75339 1.10372
 C3494 C 0.42686 0.73475 1.09625
 C3495 C 0.38742 0.77440 1.11325
 C3496 C 0.38068 0.79074 1.12001
 C3497 C 0.41738 0.69882 1.08297
 C3498 C 0.42373 0.68219 1.07656
 H3499 H 0.37723 0.75913 1.07391
 H3500 H 0.39095 0.72452 1.06004
 H3501 H 0.39353 0.70197 1.11899
 H3502 H 0.37982 0.73655 1.13285
 H3503 H 0.42977 0.76620 1.10818
 H3504 H 0.44349 0.73159 1.09431
 C3505 C 0.89618 0.74530 0.89647
 C3506 C 0.92022 0.74657 0.89727
 C3507 C 0.92756 0.76530 0.90454
 C3508 C 0.91012 0.78092 0.91030
 C3509 C 0.89622 0.76923 0.92612
 C3510 C 0.88888 0.75050 0.91885
 C3511 C 0.88935 0.76417 0.88312
 C3512 C 0.89668 0.78289 0.89039
 C3513 C 0.88822 0.72520 0.88857
 C3514 C 0.88155 0.70880 0.88193
 C3515 C 0.91794 0.80111 0.91806
 C3516 C 0.92423 0.81782 0.92431
 H3517 H 0.93058 0.73388 0.89255
 H3518 H 0.94419 0.76865 0.90605
 H3519 H 0.89247 0.77513 0.94168
 H3520 H 0.87885 0.74036 0.92817
 H3521 H 0.87961 0.76294 0.86918
 H3522 H 0.89322 0.79769 0.88267
 C3523 C 0.89677 0.24460 0.39705
 C3524 C 0.87933 0.26019 0.40283
 C3525 C 0.88664 0.27896 0.40999
 C3526 C 0.91068 0.28031 0.41067
 C3527 C 0.91788 0.27505 0.38828
 C3528 C 0.91057 0.25628 0.38111
 C3529 C 0.91032 0.24273 0.41690
 C3530 C 0.91764 0.26151 0.42407
 C3531 C 0.88884 0.22446 0.38926
 C3532 C 0.88220 0.20802 0.38268
 C3533 C 0.91847 0.30056 0.41832
 C3534 C 0.92472 0.31731 0.42449
 H3535 H 0.86269 0.25679 0.40143
 H3536 H 0.87626 0.29163 0.41473
 H3537 H 0.92785 0.28517 0.37887
 H3538 H 0.91428 0.25032 0.36557
 H3539 H 0.91386 0.22796 0.42464
 H3540 H 0.92744 0.26283 0.43795
 C3541 C 0.39534 0.74564 0.39487
 C3542 C 0.37797 0.76129 0.40073
 C3543 C 0.38537 0.77991 0.40819
 C3544 C 0.40941 0.78106 0.40906
 C3545 C 0.41673 0.77604 0.38665
 C3546 C 0.40933 0.75742 0.37919
 C3547 C 0.40873 0.74341 0.41479
 C3548 C 0.41613 0.76204 0.42226
 C3549 C 0.38731 0.72564 0.38677
 C3550 C 0.38057 0.70931 0.38000
 C3551 C 0.41731 0.80116 0.41703
 C3552 C 0.42368 0.81778 0.42343
 H3553 H 0.36132 0.75803 0.39917
 H3554 H 0.37505 0.79259 0.41302
 H3555 H 0.42685 0.78620 0.37745
 H3556 H 0.41311 0.75163 0.36360
 H3557 H 0.41210 0.72852 0.42237
 H3558 H 0.42584 0.76311 0.43623
 C3559 C 0.39564 0.24537 0.89587
 C3560 C 0.38112 0.26403 0.89121
 C3561 C 0.38850 0.28268 0.89860
 C3562 C 0.40968 0.28086 0.90994
 C3563 C 0.42438 0.27027 0.89403
 C3564 C 0.41700 0.25161 0.88664
 C3565 C 0.39880 0.24572 0.91977
 C3566 C 0.40618 0.26438 0.92717
 C3567 C 0.38763 0.22534 0.88785
 C3568 C 0.38091 0.20898 0.88112
 C3569 C 0.41757 0.30098 0.91783
 C3570 C 0.42391 0.31763 0.92417
 H3571 H 0.36633 0.26271 0.88284
 H3572 H 0.38003 0.29733 0.89657
 H3573 H 0.43928 0.27684 0.88903
 H3574 H 0.42557 0.24220 0.87530
 H3575 H 0.39553 0.23247 0.92999
 H3576 H 0.40924 0.26712 0.94372
 C3577 C 1.10475 0.74593 1.10541
 C3578 C 1.11770 0.76500 1.11239
 C3579 C 1.11031 0.78359 1.10483
 C3580 C 1.09068 0.78132 1.09104
 C3581 C 1.07479 0.76947 1.10474
 C3582 C 1.08218 0.75087 1.11229
 C3583 C 1.10434 0.74710 1.08133
 C3584 C 1.09695 0.76571 1.07377
 C3585 C 1.11277 0.72596 1.11360
 C3586 C 1.11952 0.70964 1.12042
 C3587 C 1.08278 0.80139 1.08298
 C3588 C 1.07640 0.81800 1.07651
 H3589 H 1.13147 0.76398 1.12238
 H3590 H 1.11775 0.79850 1.10836
 H3591 H 1.05911 0.77519 1.10819
 H3592 H 1.07284 0.74065 1.12222
 H3593 H 1.10942 0.73444 1.07111
 H3594 H 1.09568 0.76898 1.05709
 C3595 C 1.10460 0.24547 0.60518
 C3596 C 1.09017 0.24312 0.58601
 C3597 C 1.08282 0.26175 0.57847
 C3598 C 1.09063 0.28090 0.59084
 C3599 C 1.11465 0.27915 0.59054
 C3600 C 1.12200 0.26052 0.59807
 C3601 C 1.09168 0.25796 0.62125
 C3602 C 1.08434 0.27658 0.61371
 C3603 C 1.11258 0.22547 0.61335
 C3604 C 1.11930 0.20914 0.62017
 C3605 C 1.08278 0.30100 0.58280
 C3606 C 1.07645 0.31763 0.57635
 H3607 H 1.08609 0.22814 0.57899
 H3608 H 1.07244 0.26274 0.56498
 H3609 H 1.12499 0.29145 0.58488
 H3610 H 1.13863 0.25688 0.59888
 H3611 H 1.08857 0.25264 0.63715
 H3612 H 1.07493 0.28722 0.62315
 C3613 C 0.60359 0.74503 0.60356
 C3614 C 0.59353 0.74360 0.58169
 C3615 C 0.58622 0.76233 0.57438
 C3616 C 0.58970 0.78065 0.58964
 C3617 C 0.61336 0.78061 0.59416
 C3618 C 0.62066 0.76188 0.60148
 C3619 C 0.58669 0.75494 0.61760
 C3620 C 0.57939 0.77367 0.61028
 C3621 C 0.61153 0.72492 0.61150
 C3622 C 0.61819 0.70852 0.61817
 C3623 C 0.58190 0.80086 0.58184
 C3624 C 0.57562 0.81757 0.57557
 H3625 H 0.59226 0.72915 0.57275
 H3626 H 0.57868 0.76394 0.55917
 H3627 H 0.62349 0.79409 0.59181
 H3628 H 0.63705 0.75933 0.60539
 H3629 H 0.58096 0.74787 0.63201
 H3630 H 0.56740 0.78265 0.61843
 C3631 C 0.60433 0.24535 1.10507
 C3632 C 0.61519 0.26457 1.11470
 C3633 C 0.60782 0.28320 1.10723
 C3634 C 0.59030 0.28080 1.09086
 C3635 C 0.57345 0.26741 1.10169
 C3636 C 0.58083 0.24877 1.10916
 C3637 C 0.60698 0.24793 1.08124
 C3638 C 0.59960 0.26658 1.07377
 C3639 C 0.61235 0.22533 1.11317
 C3640 C 0.61908 0.20899 1.11994
 C3641 C 0.58242 0.30092 1.08289
 C3642 C 0.57607 0.31756 1.07648
 H3643 H 0.62759 0.26363 1.12636
 H3644 H 0.61390 0.29822 1.11250
 H3645 H 0.55716 0.27215 1.10333
 H3646 H 0.57087 0.23753 1.11720
 H3647 H 0.61403 0.23615 1.07113
 H3648 H 0.60032 0.27077 1.05726
 C3649 C 1.25465 1.10464 0.89616
 C3650 C 1.23919 1.12195 0.90266
 C3651 C 1.22053 1.11448 0.90993
 C3652 C 1.21915 1.09044 0.91000
 C3653 C 1.23815 1.08310 0.92290
 C3654 C 1.25682 1.09057 0.91562
 C3655 C 1.24269 1.09129 0.88006
 C3656 C 1.22402 1.08382 0.88734
 C3657 C 1.27469 1.11274 0.88825
 C3658 C 1.29105 1.11950 0.88158
 C3659 C 1.19900 1.08248 0.91778
 C3660 C 1.18234 1.07610 0.92405
 H3661 H 1.24261 1.13861 0.90164
 H3662 H 1.20796 1.12475 0.91515
 H3663 H 1.23703 1.07294 0.93654
 H3664 H 1.27171 1.08681 0.92302
 H3665 H 1.24838 1.08798 0.86434
 H3666 H 1.21373 1.07412 0.87785
 C3667 C 1.25457 0.60470 0.39538
 C3668 C 1.24698 0.61571 0.41544
 C3669 C 1.22838 0.60819 0.42284
 C3670 C 1.21919 0.59039 0.40945
 C3671 C 1.23660 0.57375 0.40837
 C3672 C 1.25520 0.58127 0.40097
 C3673 C 1.23637 0.60694 0.37975
 C3674 C 1.21777 0.59941 0.38714
 C3675 C 1.27454 0.61286 0.38735
 C3676 C 1.29084 0.61969 0.38060
 C3677 C 1.19912 0.58236 0.41735
 C3678 C 1.18252 0.57593 0.42372
 H3679 H 1.25547 0.62830 0.42316
 H3680 H 1.22094 0.61433 0.43689
 H3681 H 1.23449 0.55749 0.41301
 H3682 H 1.26904 0.57146 0.39927
 H3683 H 1.23794 0.61381 0.36423
 H3684 H 1.20343 0.59985 0.37795
 C3685 C 0.75506 1.10329 0.39681
 C3686 C 0.74363 1.11874 0.41136
 C3687 C 0.72484 1.11148 0.41851
 C3688 C 0.71931 1.08947 0.41041
 C3689 C 0.73802 1.07561 0.41667
 C3690 C 0.75682 1.08288 0.40951
 C3691 C 0.73930 1.09841 0.37924
 C3692 C 0.72051 1.09115 0.38639
 C3693 C 0.77523 1.11117 0.38903
 C3694 C 0.79170 1.11778 0.38249
 C3695 C 0.69903 1.08173 0.41805
 C3696 C 0.68227 1.07551 0.42421
 H3697 H 0.74976 1.13403 0.41567
 H3698 H 0.71487 1.12055 0.42895
 H3699 H 0.73662 1.06136 0.42590
 H3700 H 0.77153 1.07485 0.41261
 H3701 H 0.74261 1.10046 0.36264
 H3702 H 0.70772 1.08698 0.37592
 C3703 C 0.75475 0.60370 0.89651
 C3704 C 0.74934 0.58161 0.88857
 C3705 C 0.73062 0.57426 0.89586
 C3706 C 0.71916 0.58973 0.91037
 C3707 C 0.71721 0.61004 0.89756
 C3708 C 0.73592 0.61739 0.89028
 C3709 C 0.75368 0.60216 0.92055
 C3710 C 0.73497 0.59481 0.92784
 C3711 C 0.77484 0.61168 0.88860
 C3712 C 0.79123 0.61836 0.88195
 C3713 C 0.69897 0.58189 0.91815
 C3714 C 0.68228 0.57559 0.92441
 H3715 H 0.75933 0.57254 0.87815
 H3716 H 0.72458 0.55890 0.89168
 H3717 H 0.70244 0.61796 0.89448
 H3718 H 0.73716 0.63160 0.88096
 H3719 H 0.76650 0.60646 0.93093
 H3720 H 0.73174 0.59281 0.94446
 C3721 C 1.25451 0.89531 1.10458
 C3722 C 1.24889 0.88719 1.08259
 C3723 C 1.23026 0.89468 1.07519
 C3724 C 1.21909 0.90957 1.09050
 C3725 C 1.23518 0.92682 1.09532
 C3726 C 1.25381 0.91933 1.10272
 C3727 C 1.23563 0.88958 1.11840
 C3728 C 1.21702 0.89707 1.11100
 C3729 C 1.27450 0.88719 1.11261
 C3730 C 1.29082 0.88038 1.11937
 C3731 C 1.19899 0.91757 1.08260
 C3732 C 1.18236 0.92398 1.07624
 H3733 H 1.25868 0.87649 1.07362
 H3734 H 1.22410 0.89041 1.05988
 H3735 H 1.23221 0.94346 1.09311
 H3736 H 1.26680 0.92954 1.10685
 H3737 H 1.23678 0.88044 1.13275
 H3738 H 1.20222 0.89435 1.11901
 C3739 C 1.25528 0.39576 0.60366
 C3740 C 1.25185 0.39184 0.58011
 C3741 C 1.23313 0.39921 0.57284
 C3742 C 1.21967 0.40978 0.58983
 C3743 C 1.23376 0.42689 0.59924
 C3744 C 1.25249 0.41952 0.60651
 C3745 C 1.23616 0.38589 0.61450
 C3746 C 1.21745 0.39326 0.60723
 C3747 C 1.27537 0.38776 0.61156
 C3748 C 1.29177 0.38105 0.61821
 C3749 C 1.19947 0.41764 0.58206
 C3750 C 1.18277 0.42396 0.57581
 H3751 H 1.26314 0.38397 0.57005
 H3752 H 1.22837 0.39767 0.55654
 H3753 H 1.22942 0.44335 0.60011
 H3754 H 1.26419 0.42966 0.61361
 H3755 H 1.23723 0.37415 0.62681
 H3756 H 1.20249 0.38783 0.61331
 C3757 C 0.75476 0.89625 0.60349
 C3758 C 0.74780 0.91692 0.61373
 C3759 C 0.72906 0.92422 0.60643
 C3760 C 0.71912 0.91013 0.58960
 C3761 C 0.71771 0.88833 0.59977
 C3762 C 0.73644 0.88104 0.60706
 C3763 C 0.75469 0.90066 0.57978
 C3764 C 0.73595 0.90796 0.57248
 C3765 C 0.77488 0.88833 0.61142
 C3766 C 0.79130 0.88168 0.61808
 C3767 C 0.69890 0.91792 0.58181
 C3768 C 0.68218 0.92418 0.57556
 H3769 H 0.75680 0.92511 0.62566
 H3770 H 0.72200 0.93866 0.61210
 H3771 H 0.70326 0.87941 0.60111
 H3772 H 0.73804 0.86586 0.61466
 H3773 H 0.76817 0.89827 0.56963
 H3774 H 0.73337 0.91182 0.55607
 C3775 C 0.75442 0.39520 1.10495
 C3776 C 0.74582 0.38267 1.08624
 C3777 C 0.72718 0.39010 1.07880
 C3778 C 0.71898 0.40933 1.09079
 C3779 C 0.73686 0.42542 1.08977
 C3780 C 0.75550 0.41799 1.09721
 C3781 C 0.73673 0.39499 1.12131
 C3782 C 0.71810 0.40242 1.11387
 C3783 C 0.77443 0.38714 1.11302
 C3784 C 0.79076 0.38037 1.11978
 C3785 C 0.69887 0.41725 1.08285
 C3786 C 0.68223 0.42362 1.07646
 H3787 H 0.75367 0.36916 1.07944
 H3788 H 0.71908 0.38295 1.06562
 H3789 H 0.73504 0.44126 1.08373
 H3790 H 0.76966 0.42746 1.09755
 H3791 H 0.73867 0.38950 1.13734
 H3792 H 0.70409 0.40329 1.12353
 C3793 C 0.74546 1.10474 1.10467
 C3794 C 0.75613 1.08895 1.11943
 C3795 C 0.77478 1.08154 1.11200
 C3796 C 0.78092 1.09064 1.09055
 C3797 C 0.78054 1.11454 1.09357
 C3798 C 0.76190 1.12195 1.10099
 C3799 C 0.74357 1.09329 1.08354
 C3800 C 0.76223 1.08587 1.07611
 C3801 C 0.72544 1.11279 1.11273
 C3802 C 0.70910 1.11954 1.11948
 C3803 C 0.80104 1.08273 1.08262
 C3804 C 0.81769 1.07636 1.07625
 H3805 H 0.74961 1.08402 1.13439
 H3806 H 0.78423 1.07026 1.12060
 H3807 H 0.79374 1.12474 1.09016
 H3808 H 0.75914 1.13850 1.10394
 H3809 H 0.72889 1.09119 1.07515
 H3810 H 0.76352 1.07742 1.06136
 C3811 C 0.74519 0.60353 0.60364
 C3812 C 0.75811 0.59180 0.62027
 C3813 C 0.77685 0.58450 0.61298
 C3814 C 0.78084 0.58965 0.58977
 C3815 C 0.77851 0.61357 0.58818
 C3816 C 0.75977 0.62087 0.59547
 C3817 C 0.74304 0.58803 0.58530
 C3818 C 0.76179 0.58073 0.57800
 C3819 C 0.72507 0.61145 0.61156
 C3820 C 0.70866 0.61811 0.61822
 C3821 C 0.80106 0.58186 0.58199
 C3822 C 0.81778 0.57559 0.57573
 H3823 H 0.75299 0.58943 0.63636
 H3824 H 0.78778 0.57588 0.62282
 H3825 H 0.79051 0.62387 0.58187
 H3826 H 0.75573 0.63742 0.59541
 H3827 H 0.72812 0.58322 0.57864
 H3828 H 0.76293 0.56966 0.56509
 C3829 C 0.24543 1.10470 0.60470
 C3830 C 0.25804 1.09211 0.62093
 C3831 C 0.27665 1.08468 0.61343
 C3832 C 0.28083 1.09057 0.59043
 C3833 C 0.27901 1.11458 0.58970
 C3834 C 0.26040 1.12201 0.59720
 C3835 C 0.24302 1.08992 0.58580
 C3836 C 0.26164 1.08249 0.57830
 C3837 C 0.22545 1.11276 0.61283
 C3838 C 0.20914 1.11954 0.61964
 C3839 C 0.30091 1.08264 0.58243
 C3840 C 0.31753 1.07626 0.57601
 H3841 H 0.25281 1.08927 0.63691
 H3842 H 0.28736 1.07548 0.62299
 H3843 H 0.29125 1.12485 0.58380
 H3844 H 0.25671 1.13864 0.59772
 H3845 H 0.22803 1.08567 0.57893
 H3846 H 0.26260 1.07188 0.56500
 C3847 C 0.24563 0.60500 1.10498
 C3848 C 0.25689 0.59022 1.12034
 C3849 C 0.27549 0.58270 1.11291
 C3850 C 0.28100 0.59069 1.09084
 C3851 C 0.28028 0.61470 1.09253
 C3852 C 0.26168 0.62223 1.09996
 C3853 C 0.24347 0.59235 1.08456
 C3854 C 0.26207 0.58483 1.07713
 C3855 C 0.22566 0.61316 1.11305
 C3856 C 0.20936 0.61998 1.11983
 C3857 C 0.30108 0.58266 1.08291
 C3858 C 0.31769 0.57622 1.07653
 H3859 H 0.25079 0.58603 1.13569
 H3860 H 0.28532 0.57206 1.12190
 H3861 H 0.29323 0.62491 1.08826
 H3862 H 0.25871 0.63887 1.10205
 H3863 H 0.22864 0.58956 1.07665
 H3864 H 0.26319 0.57558 1.06285
 C3865 C 0.74506 0.89638 0.89644
 C3866 C 0.76392 0.88975 0.88298
 C3867 C 0.78263 0.89709 0.89025
 C3868 C 0.78066 0.91035 0.91028
 C3869 C 0.76908 0.89626 0.92603
 C3870 C 0.75036 0.88891 0.91875
 C3871 C 0.74623 0.92042 0.89745
 C3872 C 0.76495 0.92777 0.90473
 C3873 C 0.72497 0.88841 0.88854
 C3874 C 0.70857 0.88172 0.88190
 C3875 C 0.80085 0.91818 0.91805
 C3876 C 0.81755 0.92448 0.92431
 H3877 H 0.76268 0.88013 0.86896
 H3878 H 0.79742 0.89376 0.88246
 H3879 H 0.77505 0.89240 0.94153
 H3880 H 0.74029 0.87876 0.92801
 H3881 H 0.73348 0.93076 0.89286
 H3882 H 0.76824 0.94440 0.90637
 C3883 C 0.74551 0.39593 0.39580
 C3884 C 0.74344 0.40923 0.41580
 C3885 C 0.76215 0.41653 0.42319
 C3886 C 0.78106 0.40981 0.40985
 C3887 C 0.77593 0.41726 0.38750
 C3888 C 0.75724 0.40996 0.38011
 C3889 C 0.76113 0.37848 0.40148
 C3890 C 0.77982 0.38578 0.40887
 C3891 C 0.72544 0.38800 0.38778
 C3892 C 0.70906 0.38135 0.38106
 C3893 C 0.80123 0.41760 0.41773
 C3894 C 0.81791 0.42388 0.42406
 H3895 H 0.72861 0.41261 0.42348
 H3896 H 0.76333 0.42617 0.43720
 H3897 H 0.78608 0.42738 0.37829
 H3898 H 0.75138 0.41383 0.36458
 H3899 H 0.75781 0.36185 0.39986
 H3900 H 0.79250 0.37540 0.41358
 C3901 C 0.24507 0.89614 0.39560
 C3902 C 0.26398 0.88952 0.38220
 C3903 C 0.28266 0.89686 0.38955
 C3904 C 0.28062 0.91010 0.40959
 C3905 C 0.26898 0.89600 0.42527
 C3906 C 0.25029 0.88866 0.41792
 C3907 C 0.24623 0.92018 0.39663
 C3908 C 0.26493 0.92752 0.40399
 C3909 C 0.22501 0.88816 0.38762
 C3910 C 0.20864 0.88147 0.38091
 C3911 C 0.30078 0.91794 0.41744
 C3912 C 0.31746 0.92424 0.42375
 H3913 H 0.26280 0.87991 0.36817
 H3914 H 0.29748 0.89354 0.38182
 H3915 H 0.27489 0.89213 0.44079
 H3916 H 0.24019 0.87849 0.42714
 H3917 H 0.23350 0.93052 0.39200
 H3918 H 0.26820 0.94416 0.40565
 C3919 C 0.24516 0.39625 0.89599
 C3920 C 0.24310 0.40943 0.91608
 C3921 C 0.26180 0.41673 0.92348
 C3922 C 0.28071 0.41013 0.91006
 C3923 C 0.27552 0.41769 0.88777
 C3924 C 0.25683 0.41040 0.88037
 C3925 C 0.26083 0.37880 0.90155
 C3926 C 0.27951 0.38609 0.90895
 C3927 C 0.22510 0.38833 0.88797
 C3928 C 0.20872 0.38167 0.88123
 C3929 C 0.30087 0.41791 0.91795
 C3930 C 0.31756 0.42418 0.92428
 H3931 H 0.22827 0.41274 0.92380
 H3932 H 0.26299 0.42629 0.93754
 H3933 H 0.28563 0.42789 0.87860
 H3934 H 0.25094 0.41435 0.86487
 H3935 H 0.25753 0.36218 0.89984
 H3936 H 0.29222 0.37572 0.91357
   
