data_POSCAR
  _audit_creation_date              2014-09-24
  _audit_creation_method            'ToBaCCo'
  _symmetry_space_group_name_H-M    'P1'
  _symmetry_Int_Tables_number       1
  _symmetry_cell_setting            triclinic
  loop_
  _symmetry_equiv_pos_as_xyz
 x,y,z
_cell_length_a 79.2268
_cell_length_b 79.3732
_cell_length_c 78.9270
_cell_angle_alpha 89.948000
_cell_angle_beta 90.086100
_cell_angle_gamma 90.102700
loop_
  _atom_site_label
  _atom_site_type_symbol
  _atom_site_fract_x
  _atom_site_fract_y
  _atom_site_fract_z
C1 C 0.19507 0.21102 0.21991
 C2 C 0.20607 0.19741 0.22253
 C3 C 0.21978 0.19461 0.21162
 C4 C 0.22241 0.20565 0.19794
 C5 C 0.21154 0.21934 0.19511
 C6 C 0.19791 0.22192 0.20617
 H7 H 0.20371 0.18869 0.23283
 H8 H 0.23294 0.20358 0.18947
 H9 H 0.18975 0.23270 0.20433
 C10 C 0.69525 0.71130 0.72025
 C11 C 0.70623 0.69765 0.72283
 C12 C 0.71991 0.69484 0.71189
 C13 C 0.72254 0.70590 0.69824
 C14 C 0.71171 0.71961 0.69544
 C15 C 0.69810 0.72221 0.70652
 H16 H 0.70411 0.68918 0.73339
 H17 H 0.73306 0.70381 0.68975
 H18 H 0.68969 0.73276 0.70444
 C19 C 0.30424 0.78880 0.72008
 C20 C 0.29324 0.80241 0.72272
 C21 C 0.27941 0.80543 0.71180
 C22 C 0.27694 0.79426 0.69807
 C23 C 0.28782 0.78059 0.69528
 C24 C 0.30142 0.77797 0.70635
 H25 H 0.29592 0.81085 0.73312
 H26 H 0.26602 0.79549 0.68993
 H27 H 0.31011 0.76771 0.70401
 C28 C 0.80517 0.28862 0.22004
 C29 C 0.79387 0.30215 0.22260
 C30 C 0.78010 0.30488 0.21171
 C31 C 0.77751 0.29396 0.19800
 C32 C 0.78847 0.28043 0.19509
 C33 C 0.80218 0.27785 0.20610
 H34 H 0.79615 0.31127 0.23252
 H35 H 0.76692 0.29600 0.18955
 H36 H 0.80990 0.26681 0.20415
 C37 C 0.80463 0.71163 0.27983
 C38 C 0.80183 0.72246 0.29360
 C39 C 0.78828 0.71974 0.30474
 C40 C 0.77746 0.70598 0.30197
 C41 C 0.78005 0.69500 0.28827
 C42 C 0.79367 0.69793 0.27727
 H43 H 0.80996 0.73330 0.29540
 H44 H 0.76699 0.70379 0.31050
 H45 H 0.79601 0.68926 0.26695
 C46 C 0.30503 0.21146 -0.22037
 C47 C 0.30195 0.22236 -0.20656
 C48 C 0.28837 0.21967 -0.19546
 C49 C 0.27763 0.20587 -0.19813
 C50 C 0.28030 0.19482 -0.21170
 C51 C 0.29395 0.19767 -0.22268
 H52 H 0.31060 0.23253 -0.20371
 H53 H 0.26688 0.20397 -0.18987
 H54 H 0.29551 0.18923 -0.23331
 C55 C 0.69474 0.28838 -0.22088
 C56 C 0.69768 0.27759 -0.20692
 C57 C 0.71131 0.28022 -0.19583
 C58 C 0.72221 0.29387 -0.19862
 C59 C 0.71966 0.30482 -0.21232
 C60 C 0.70600 0.30200 -0.22334
 H61 H 0.68970 0.26674 -0.20476
 H62 H 0.73273 0.29598 -0.19010
 H63 H 0.70403 0.31086 -0.23355
 C64 C 0.19515 0.78864 0.27949
 C65 C 0.20618 0.80228 0.27693
 C66 C 0.22007 0.80519 0.28781
 C67 C 0.22255 0.79388 0.30144
 C68 C 0.21164 0.78018 0.30415
 C69 C 0.19798 0.77767 0.29312
 H70 H 0.20429 0.81001 0.26581
 H71 H 0.23242 0.79611 0.31064
 H72 H 0.18952 0.76713 0.29515
 C73 C 0.46157 0.44641 0.47088
 C74 C 0.44796 0.45744 0.47341
 C75 C 0.44512 0.47102 0.46234
 C76 C 0.45611 0.47350 0.44860
 C77 C 0.46979 0.46260 0.44586
 C78 C 0.47241 0.44910 0.45707
 H79 H 0.43928 0.45519 0.48376
 H80 H 0.45400 0.48393 0.44001
 H81 H 0.48319 0.44092 0.45529
 C82 C -0.03864 -0.05344 0.97064
 C83 C -0.02787 -0.05077 0.95683
 C84 C -0.03058 -0.03735 0.94561
 C85 C -0.04429 -0.02648 0.94832
 C86 C -0.05540 -0.02879 0.96214
 C87 C -0.05228 -0.04246 0.97321
 H88 H -0.01708 -0.05893 0.95503
 H89 H -0.04587 -0.01596 0.93977
 H90 H -0.06095 -0.04530 0.98339
 C91 C 1.03882 0.55413 0.97032
 C92 C 1.02790 0.55140 0.95655
 C93 C 1.03049 0.53787 0.94539
 C94 C 1.04420 0.52701 0.94815
 C95 C 1.05526 0.52953 0.96185
 C96 C 1.05246 0.54313 0.97287
 H97 H 1.01736 0.55983 0.95451
 H98 H 1.04602 0.51630 0.93986
 H99 H 1.06119 0.54543 0.98319
 C100 C 0.53885 0.05388 0.47031
 C101 C 0.55252 0.04291 0.47285
 C102 C 0.55544 0.02910 0.46194
 C103 C 0.54410 0.02663 0.44831
 C104 C 0.53038 0.03751 0.44560
 C105 C 0.52786 0.05107 0.45667
 H106 H 0.56028 0.04478 0.48397
 H107 H 0.54605 0.01653 0.43936
 H108 H 0.51756 0.05973 0.45438
 C109 C -0.03876 0.05494 0.53012
 C110 C -0.05239 0.04389 0.52746
 C111 C -0.05527 0.02995 0.53823
 C112 C -0.04394 0.02742 0.55185
 C113 C -0.03026 0.03834 0.55468
 C114 C -0.02778 0.05205 0.54375
 H115 H -0.06013 0.04583 0.51633
 H116 H -0.04615 0.01749 0.56098
 H117 H -0.01726 0.06052 0.54587
 C118 C 0.46155 0.55497 0.03014
 C119 C 0.47248 0.55215 0.04389
 C120 C 0.46995 0.53847 0.05490
 C121 C 0.45629 0.52753 0.05203
 C122 C 0.44522 0.53013 0.03835
 C123 C 0.44796 0.54389 0.02748
 H124 H 0.48324 0.56038 0.04576
 H125 H 0.45425 0.51695 0.06047
 H126 H 0.43923 0.54624 0.01718
 C127 C 0.53849 -0.05524 0.03001
 C128 C 0.55222 -0.04410 0.02762
 C129 C 0.55499 -0.03037 0.03850
 C130 C 0.54388 -0.02766 0.05203
 C131 C 0.53013 -0.03846 0.05476
 C132 C 0.52754 -0.05213 0.04377
 H133 H 0.56040 -0.04539 0.01674
 H134 H 0.54594 -0.01710 0.06046
 H135 H 0.51742 -0.06081 0.04669
 C136 C 1.03862 0.44532 0.53018
 C137 C 1.05228 0.45632 0.52756
 C138 C 1.05531 0.47013 0.53846
 C139 C 1.04411 0.47255 0.55216
 C140 C 1.03040 0.46165 0.55496
 C141 C 1.02777 0.44808 0.54391
 H142 H 1.06101 0.45340 0.51747
 H143 H 1.04534 0.48345 0.56029
 H144 H 1.01722 0.43964 0.54600
 C145 C 0.40045 0.00793 0.22711
 H146 H 0.40109 0.01937 0.23452
 C147 C 0.41146 0.00561 0.21352
 H148 H 0.42041 0.01546 0.21040
 C149 C 0.38789 -0.01873 0.22218
 H150 H 0.37891 -0.02834 0.22579
 C151 C 0.39865 -0.02158 0.20849
 H152 H 0.39781 -0.03339 0.20169
 N153 N 0.38884 -0.00407 0.23105
 C154 C 0.34888 0.02256 0.25788
 H155 H 0.34820 0.01511 0.26935
 C156 C 0.33786 0.03607 0.25554
 H157 H 0.32864 0.03889 0.26524
 C158 C 0.36140 0.02752 0.23109
 H159 H 0.37043 0.02403 0.22149
 C160 C 0.35061 0.04112 0.22821
 H161 H 0.35172 0.04817 0.21651
 Zn162 Zn 0.37468 -0.00006 0.24992
 N163 N 0.36048 0.01867 0.24583
 C164 C 0.38793 0.01868 0.27768
 N165 N 0.38889 0.00403 0.26880
 C166 C 0.40052 -0.00792 0.27274
 C167 C 0.41154 -0.00557 0.28636
 C168 C 0.39872 0.02156 0.29138
 C169 C 0.34891 -0.02283 0.24197
 C170 C 0.33794 -0.03641 0.24432
 C171 C 0.35076 -0.04136 0.27165
 C172 C 0.36151 -0.02770 0.26877
 N173 N 0.36053 -0.01887 0.25402
 H174 H 0.37887 0.02820 0.27414
 H175 H 0.40122 -0.01931 0.26526
 H176 H 0.42079 -0.01519 0.28922
 H177 H 0.39758 0.03318 0.29847
 H178 H 0.34819 -0.01539 0.23050
 H179 H 0.32870 -0.03928 0.23461
 H180 H 0.35193 -0.04840 0.28335
 H181 H 0.37056 -0.02415 0.27837
 C182 C 0.33867 0.04559 0.24054
 C183 C 0.41062 -0.00930 0.20397
 C184 C 0.33880 -0.04591 0.25931
 C185 C 0.41070 0.00933 0.29592
 C186 C 0.09935 -0.00806 0.72749
 H187 H 0.09861 -0.01946 0.73497
 C188 C 0.08833 -0.00568 0.71387
 H189 H 0.07905 -0.01530 0.71102
 C190 C 0.11202 0.01855 0.72255
 H191 H 0.12112 0.02807 0.72609
 C192 C 0.10124 0.02146 0.70885
 H193 H 0.10242 0.03309 0.70177
 N194 N 0.11102 0.00389 0.73143
 C195 C 0.15089 -0.02304 0.75828
 H196 H 0.15163 -0.01564 0.76976
 C197 C 0.16183 -0.03659 0.75590
 H198 H 0.17106 -0.03950 0.76560
 C199 C 0.13830 -0.02781 0.73146
 H200 H 0.12927 -0.02422 0.72186
 C201 C 0.14901 -0.04145 0.72854
 H202 H 0.14784 -0.04844 0.71683
 Zn203 Zn 0.12520 -0.00023 0.75031
 N204 N 0.13929 -0.01903 0.74622
 C205 C 0.11190 -0.01892 0.77808
 N206 N 0.11101 -0.00427 0.76917
 C207 C 0.09944 0.00774 0.77307
 C208 C 0.08842 0.00544 0.78667
 C209 C 0.10110 -0.02175 0.79176
 C210 C 0.15108 0.02243 0.74238
 C211 C 0.16211 0.03597 0.74474
 C212 C 0.14934 0.04094 0.77206
 C213 C 0.13854 0.02731 0.76916
 N214 N 0.13946 0.01850 0.75442
 H215 H 0.12091 -0.02849 0.77458
 H216 H 0.09879 0.01914 0.76557
 H217 H 0.07922 0.01511 0.78948
 H218 H 0.10218 -0.03338 0.79887
 H219 H 0.15175 0.01500 0.73092
 H220 H 0.17134 0.03882 0.73504
 H221 H 0.14822 0.04797 0.78375
 H222 H 0.12949 0.02379 0.77875
 C223 C 0.16095 -0.04603 0.74088
 C224 C 0.08922 0.00923 0.70432
 C225 C 0.16129 0.04546 0.75973
 C226 C 0.08919 -0.00946 0.79625
 C227 C 0.59960 0.49172 0.22758
 H228 H 0.59883 0.48032 0.23506
 C229 C 0.58860 0.49412 0.21396
 H230 H 0.57930 0.48452 0.21109
 C231 C 0.61233 0.51831 0.22266
 H232 H 0.62143 0.52781 0.22620
 C233 C 0.60155 0.52125 0.20895
 H234 H 0.60275 0.53288 0.20188
 N235 N 0.61129 0.50365 0.23153
 C236 C 0.65112 0.47670 0.25842
 H237 H 0.65186 0.48411 0.26989
 C238 C 0.66206 0.46314 0.25606
 H239 H 0.67129 0.46025 0.26576
 C240 C 0.63852 0.47190 0.23161
 H241 H 0.62949 0.47547 0.22200
 C242 C 0.64923 0.45825 0.22871
 H243 H 0.64806 0.45124 0.21700
 Zn244 Zn 0.62546 0.49952 0.25042
 N245 N 0.63952 0.48069 0.24636
 C246 C 0.61211 0.48087 0.27820
 N247 N 0.61125 0.49552 0.26928
 C248 C 0.59970 0.50755 0.27318
 C249 C 0.58868 0.50528 0.28677
 C250 C 0.60131 0.47806 0.29188
 C251 C 0.65137 0.52212 0.24247
 C252 C 0.66242 0.53564 0.24480
 C253 C 0.64966 0.54068 0.27210
 C254 C 0.63884 0.52707 0.26924
 N255 N 0.63974 0.51823 0.25451
 H256 H 0.62111 0.47129 0.27470
 H257 H 0.59907 0.51894 0.26567
 H258 H 0.57949 0.51496 0.28958
 H259 H 0.60237 0.46643 0.29899
 H260 H 0.65204 0.51466 0.23102
 H261 H 0.67166 0.53846 0.23510
 H262 H 0.64855 0.54774 0.28378
 H263 H 0.62978 0.52358 0.27883
 C264 C 0.66118 0.45368 0.24105
 C265 C 0.58951 0.50904 0.20441
 C266 C 0.66162 0.54516 0.25977
 C267 C 0.58942 0.49038 0.29636
 C268 C 0.90043 0.50799 0.72709
 H269 H 0.90107 0.51942 0.73453
 C270 C 0.91145 0.50568 0.71351
 H271 H 0.92041 0.51553 0.71042
 C272 C 0.88785 0.48134 0.72211
 H273 H 0.87886 0.47174 0.72569
 C274 C 0.89862 0.47852 0.70842
 H275 H 0.89778 0.46672 0.70160
 N276 N 0.88881 0.49599 0.73101
 C277 C 0.84887 0.52262 0.75788
 H278 H 0.84819 0.51515 0.76934
 C279 C 0.83788 0.53615 0.75556
 H280 H 0.82866 0.53896 0.76526
 C281 C 0.86139 0.52760 0.73109
 H282 H 0.87042 0.52411 0.72149
 C283 C 0.85062 0.54122 0.72823
 H284 H 0.85174 0.54829 0.71655
 Zn285 Zn 0.87465 0.49998 0.74988
 N286 N 0.86047 0.51874 0.74582
 C287 C 0.88794 0.51867 0.77765
 N288 N 0.88886 0.50404 0.76876
 C289 C 0.90049 0.49206 0.77268
 C290 C 0.91153 0.49439 0.78628
 C291 C 0.89875 0.52153 0.79135
 C292 C 0.84887 0.47723 0.74189
 C293 C 0.83788 0.46366 0.74423
 C294 C 0.85070 0.45868 0.77157
 C295 C 0.86145 0.47234 0.76870
 N296 N 0.86049 0.48118 0.75395
 H297 H 0.87889 0.52821 0.77413
 H298 H 0.90117 0.48068 0.76518
 H299 H 0.92077 0.48476 0.78912
 H300 H 0.89764 0.53315 0.79844
 H301 H 0.84815 0.48468 0.73043
 H302 H 0.82864 0.46079 0.73453
 H303 H 0.85185 0.45163 0.78327
 H304 H 0.87050 0.47588 0.77830
 C305 C 0.83869 0.54569 0.74058
 C306 C 0.91061 0.49080 0.70394
 C307 C 0.83874 0.45415 0.75923
 C308 C 0.91072 0.50928 0.79585
 C309 C 0.22761 0.40059 0.00778
 H310 H 0.23509 0.40129 0.01924
 C311 C 0.21406 0.41156 0.00543
 H312 H 0.21125 0.42078 0.01512
 C313 C 0.22261 0.38803 -0.01899
 H314 H 0.22610 0.37900 -0.02858
 C315 C 0.20897 0.39878 -0.02188
 H316 H 0.20189 0.39764 -0.03356
 N317 N 0.23149 0.38899 -0.00426
 C318 C 0.25819 0.34909 0.02269
 H319 H 0.26961 0.34839 0.01522
 C320 C 0.25583 0.33809 0.03629
 H321 H 0.26548 0.32887 0.03916
 C322 C 0.23153 0.36163 0.02758
 H323 H 0.22198 0.37066 0.02403
 C324 C 0.22863 0.35085 0.04127
 H325 H 0.21698 0.35198 0.04833
 Zn326 Zn 0.25028 0.37484 -0.00017
 N327 N 0.24621 0.36069 0.01872
 C328 C 0.27797 0.38806 0.01865
 N329 N 0.26911 0.38899 0.00390
 C330 C 0.27305 0.40058 -0.00817
 C331 C 0.28662 0.41158 -0.00583
 C332 C 0.29163 0.39883 0.02153
 C333 C 0.24226 0.34907 -0.02294
 C334 C 0.24457 0.33806 -0.03652
 C335 C 0.27178 0.35087 -0.04161
 C336 C 0.26895 0.36163 -0.02792
 N337 N 0.25429 0.36068 -0.01903
 H338 H 0.27444 0.37903 0.02826
 H339 H 0.26558 0.40126 -0.01964
 H340 H 0.28946 0.42079 -0.01554
 H341 H 0.29868 0.39772 0.03323
 H342 H 0.23082 0.34843 -0.01550
 H343 H 0.23471 0.32912 -0.03961
 H344 H 0.28360 0.35172 -0.04843
 H345 H 0.27857 0.37061 -0.02434
 C346 C 0.24089 0.33891 0.04582
 C347 C 0.20450 0.41072 -0.00955
 C348 C 0.25948 0.33891 -0.04610
 C349 C 0.29614 0.41077 0.00918
 C350 C 0.72698 0.09931 -0.00815
 H351 H 0.73437 0.09870 -0.01965
 C352 C 0.71344 0.08828 -0.00580
 H353 H 0.71033 0.07935 -0.01569
 C354 C 0.72208 0.11183 0.01863
 H355 H 0.72567 0.12079 0.02827
 C356 C 0.70843 0.10105 0.02151
 H357 H 0.70166 0.10186 0.03338
 N358 N 0.73091 0.11091 0.00390
 C359 C 0.75765 0.15089 -0.02296
 H360 H 0.76911 0.15154 -0.01550
 C361 C 0.75531 0.16190 -0.03656
 H362 H 0.76516 0.17087 -0.03964
 C363 C 0.73098 0.13829 -0.02797
 H364 H 0.72138 0.12929 -0.02440
 C365 C 0.72812 0.14905 -0.04168
 H366 H 0.71629 0.14820 -0.04852
 Zn367 Zn 0.74972 0.12510 -0.00017
 N368 N 0.74565 0.13926 -0.01905
 C369 C 0.77737 0.11195 -0.01895
 N370 N 0.76852 0.11098 -0.00422
 C371 C 0.77246 0.09939 0.00785
 C372 C 0.78603 0.08844 0.00553
 C373 C 0.79102 0.10123 -0.02180
 C374 C 0.74178 0.15081 0.02264
 C375 C 0.74413 0.16181 0.03624
 C376 C 0.77138 0.14911 0.04127
 C377 C 0.76849 0.13834 0.02759
 N378 N 0.75379 0.13925 0.01871
 H379 H 0.77383 0.12097 -0.02856
 H380 H 0.76501 0.09867 0.01930
 H381 H 0.78888 0.07923 0.01524
 H382 H 0.79807 0.10238 -0.03349
 H383 H 0.73035 0.15148 0.01516
 H384 H 0.73447 0.17100 0.03908
 H385 H 0.78304 0.14802 0.04835
 H386 H 0.77805 0.12934 0.02406
 C387 C 0.74039 0.16104 -0.04615
 C388 C 0.70393 0.08909 0.00918
 C389 C 0.75909 0.16102 0.04578
 C390 C 0.79554 0.08930 -0.00945
 C391 C 0.22704 0.59932 0.49202
 H392 H 0.23448 0.59864 0.48056
 C393 C 0.21350 0.58829 0.49439
 H394 H 0.21066 0.57905 0.48470
 C395 C 0.22213 0.61186 0.51880
 H396 H 0.22566 0.62091 0.52838
 C397 C 0.20851 0.60105 0.52169
 H398 H 0.20147 0.60217 0.53339
 N399 N 0.23096 0.61094 0.50406
 C400 C 0.25762 0.65093 0.47713
 H401 H 0.26904 0.65167 0.48464
 C402 C 0.25526 0.66190 0.46350
 H403 H 0.26491 0.67116 0.46066
 C404 C 0.23096 0.63828 0.47216
 H405 H 0.22142 0.62921 0.47569
 C406 C 0.22807 0.64902 0.45844
 H407 H 0.21643 0.64784 0.45134
 Zn408 Zn 0.24974 0.62516 0.49997
 N409 N 0.24564 0.63929 0.48107
 C410 C 0.27740 0.61205 0.48119
 N411 N 0.26857 0.61107 0.49592
 C412 C 0.27253 0.59950 0.50799
 C413 C 0.28612 0.58857 0.50567
 C414 C 0.29107 0.60134 0.47833
 C415 C 0.24176 0.65090 0.52273
 C416 C 0.24408 0.66190 0.53632
 C417 C 0.27133 0.64923 0.54142
 C418 C 0.26847 0.63845 0.52773
 N419 N 0.25379 0.63934 0.51883
 H420 H 0.27385 0.62106 0.47158
 H421 H 0.26509 0.59878 0.51945
 H422 H 0.28899 0.57936 0.51538
 H423 H 0.29811 0.60250 0.46664
 H424 H 0.23034 0.65155 0.51523
 H425 H 0.23440 0.67109 0.53915
 H426 H 0.28298 0.64815 0.54852
 H427 H 0.27805 0.62945 0.52423
 C428 C 0.24034 0.66101 0.45392
 C429 C 0.20400 0.58909 0.50938
 C430 C 0.25902 0.66113 0.54590
 C431 C 0.29562 0.58943 0.49068
 C432 C 0.72749 0.90068 0.50791
 H433 H 0.73496 0.90139 0.51937
 C434 C 0.71393 0.91165 0.50554
 H435 H 0.71111 0.92087 0.51523
 C436 C 0.72253 0.88812 0.48113
 H437 H 0.72603 0.87908 0.47155
 C438 C 0.70888 0.89886 0.47823
 H439 H 0.70181 0.89771 0.46654
 N440 N 0.73139 0.88908 0.49587
 C441 C 0.75812 0.84921 0.52284
 H442 H 0.76954 0.84853 0.51536
 C443 C 0.75577 0.83822 0.53645
 H444 H 0.76543 0.82900 0.53931
 C445 C 0.73145 0.86173 0.52774
 H446 H 0.72189 0.87076 0.52419
 C447 C 0.72856 0.85096 0.54144
 H448 H 0.71692 0.85208 0.54850
 Zn449 Zn 0.75019 0.87495 0.49998
 N450 N 0.74613 0.86080 0.51887
 C451 C 0.77787 0.88819 0.51880
 N452 N 0.76901 0.88912 0.50405
 C453 C 0.77294 0.90071 0.49199
 C454 C 0.78651 0.91172 0.49433
 C455 C 0.79153 0.89896 0.52168
 C456 C 0.74220 0.84918 0.47721
 C457 C 0.74452 0.83818 0.46362
 C458 C 0.77175 0.85097 0.45858
 C459 C 0.76890 0.86174 0.47226
 N460 N 0.75422 0.86079 0.48113
 H461 H 0.77435 0.87916 0.52841
 H462 H 0.76547 0.90140 0.48052
 H463 H 0.78935 0.92093 0.48462
 H464 H 0.79859 0.89785 0.53338
 H465 H 0.73079 0.84848 0.48469
 H466 H 0.73485 0.82894 0.46078
 H467 H 0.78339 0.85210 0.45151
 H468 H 0.77847 0.87078 0.47578
 C469 C 0.74084 0.83903 0.54598
 C470 C 0.70439 0.91079 0.49055
 C471 C 0.75945 0.83901 0.45408
 C472 C 0.79604 0.91090 0.50933
 C473 C 0.00790 0.22744 0.40103
 H474 H 0.01937 0.23482 0.40177
 C475 C 0.00546 0.21388 0.41205
 H476 H 0.01510 0.21097 0.42133
 C477 C -0.01881 0.22269 0.38835
 H478 H -0.02834 0.22628 0.37925
 C479 C -0.02179 0.20905 0.39914
 H480 H -0.03348 0.20207 0.39795
 N481 N -0.00407 0.23144 0.38934
 C482 C 0.02300 0.25799 0.34928
 H483 H 0.01569 0.26947 0.34861
 C484 C 0.03656 0.25556 0.33828
 H485 H 0.03976 0.26537 0.32930
 C486 C 0.02768 0.23132 0.36194
 H487 H 0.02400 0.22176 0.37095
 C488 C 0.04134 0.22838 0.35119
 H489 H 0.04803 0.21652 0.35207
 Zn490 Zn 0.00016 0.25020 0.37512
 N491 N 0.01895 0.24603 0.36094
 C492 C 0.01907 0.27771 0.38841
 N493 N 0.00434 0.26894 0.38935
 C494 C -0.00765 0.27292 0.40098
 C495 C -0.00524 0.28645 0.41201
 C496 C 0.02200 0.29135 0.39920
 C497 C -0.02261 0.24240 0.34917
 C498 C -0.03617 0.24480 0.33811
 C499 C -0.04099 0.27199 0.35092
 C500 C -0.02735 0.26906 0.36175
 N501 N -0.01860 0.25436 0.36083
 H502 H 0.02866 0.27409 0.37943
 H503 H -0.01916 0.26558 0.40160
 H504 H -0.01509 0.28960 0.42096
 H505 H 0.03387 0.29808 0.39837
 H506 H -0.01523 0.23096 0.34849
 H507 H -0.03909 0.23516 0.32885
 H508 H -0.04797 0.28365 0.35205
 H509 H -0.02376 0.27859 0.37083
 C510 C 0.04596 0.24061 0.33918
 C511 C -0.00953 0.20445 0.41115
 C512 C -0.04559 0.25974 0.33893
 C513 C 0.00973 0.29591 0.41117
 C514 C -0.00797 0.72678 0.09826
 H515 H -0.01922 0.73438 0.09691
 C516 C -0.00544 0.71300 0.08759
 H517 H -0.01480 0.71012 0.07801
 C518 C 0.01817 0.72179 0.11198
 H519 H 0.02742 0.72532 0.12140
 C520 C 0.02122 0.70791 0.10157
 H521 H 0.03270 0.70074 0.10330
 N522 N 0.00370 0.73084 0.11026
 C523 C -0.02169 0.75685 0.15159
 H524 H -0.01283 0.76699 0.15381
 C525 C -0.03528 0.75461 0.16261
 H526 H -0.03702 0.76338 0.17295
 C527 C -0.02989 0.73290 0.13571
 H528 H -0.02763 0.72422 0.12547
 C529 C -0.04367 0.73020 0.14640
 H530 H -0.05181 0.71945 0.14420
 Zn531 Zn -0.00028 0.74995 0.12418
 N532 N -0.01936 0.74621 0.13830
 C533 C -0.01073 0.78334 0.11669
 N534 N -0.00380 0.76910 0.11013
 C535 C 0.00102 0.76840 0.09360
 C536 C -0.00136 0.78223 0.08293
 C537 C -0.01335 0.79746 0.10646
 C538 C 0.02146 0.74280 0.15128
 C539 C 0.03508 0.74527 0.16224
 C540 C 0.04241 0.77038 0.14653
 C541 C 0.02863 0.76743 0.13587
 N542 N 0.01853 0.75379 0.13839
 H543 H -0.01422 0.78383 0.12988
 H544 H 0.00685 0.75714 0.08866
 H545 H 0.00233 0.78129 0.06976
 H546 H -0.01877 0.80870 0.11197
 H547 H 0.01318 0.73207 0.15300
 H548 H 0.03733 0.73625 0.17229
 H549 H 0.05020 0.78141 0.14444
 H550 H 0.02601 0.77604 0.12558
 C551 C -0.04653 0.74116 0.16004
 C552 C 0.00931 0.70334 0.08918
 C553 C 0.04577 0.75922 0.15994
 C554 C -0.00869 0.79700 0.08931
 C555 C 0.49192 0.22663 0.59822
 H556 H 0.48063 0.23419 0.59699
 C557 C 0.49443 0.21294 0.58744
 H558 H 0.48485 0.20987 0.57813
 C559 C 0.51807 0.22151 0.61187
 H560 H 0.52737 0.22502 0.62124
 C561 C 0.52108 0.20770 0.60136
 H562 H 0.53275 0.20075 0.60274
 N563 N 0.50361 0.23059 0.61022
 C564 C 0.47829 0.25645 0.65171
 H565 H 0.48716 0.26656 0.65396
 C566 C 0.46472 0.25414 0.66275
 H567 H 0.46320 0.26264 0.67335
 C568 C 0.47016 0.23246 0.63584
 H569 H 0.47239 0.22385 0.62553
 C570 C 0.45644 0.22968 0.64657
 H571 H 0.44809 0.21914 0.64412
 Zn572 Zn 0.49967 0.24963 0.62425
 N573 N 0.48064 0.24582 0.63841
 C574 C 0.48906 0.28301 0.61686
 N575 N 0.49611 0.26884 0.61028
 C576 C 0.50104 0.26822 0.59378
 C577 C 0.49866 0.28209 0.58315
 C578 C 0.48644 0.29716 0.60666
 C579 C 0.52151 0.24237 0.65123
 C580 C 0.53515 0.24482 0.66218
 C581 C 0.54236 0.27004 0.64659
 C582 C 0.52857 0.26711 0.63595
 N583 N 0.51852 0.25343 0.63842
 H584 H 0.48548 0.28342 0.63002
 H585 H 0.50695 0.25701 0.58883
 H586 H 0.50244 0.28121 0.57000
 H587 H 0.48093 0.30835 0.61219
 H588 H 0.51327 0.23161 0.65291
 H589 H 0.53746 0.23575 0.67217
 H590 H 0.55011 0.28111 0.64455
 H591 H 0.52590 0.27578 0.62572
 C592 C 0.45354 0.24063 0.66021
 C593 C 0.50917 0.20325 0.58894
 C594 C 0.54580 0.25882 0.65993
 C595 C 0.49121 0.29680 0.58954
 C596 C 0.50776 0.72754 0.90098
 H597 H 0.51921 0.73495 0.90172
 C598 C 0.50535 0.71399 0.91200
 H599 H 0.51499 0.71111 0.92129
 C600 C 0.48107 0.72271 0.88829
 H601 H 0.47153 0.72627 0.87918
 C602 C 0.47813 0.70908 0.89908
 H603 H 0.46645 0.70206 0.89790
 N604 N 0.49579 0.73151 0.88928
 C605 C 0.52284 0.75808 0.84922
 H606 H 0.51547 0.76952 0.84848
 C607 C 0.53641 0.75567 0.83824
 H608 H 0.53936 0.76530 0.82898
 C609 C 0.52751 0.73140 0.86187
 H610 H 0.52389 0.72187 0.87093
 C611 C 0.54117 0.72846 0.85111
 H612 H 0.54813 0.71679 0.85229
 Zn613 Zn 0.49998 0.75026 0.87504
 N614 N 0.51878 0.74611 0.86087
 C615 C 0.51886 0.77781 0.88833
 N616 N 0.50414 0.76901 0.88927
 C617 C 0.49215 0.77297 0.90091
 C618 C 0.49455 0.78649 0.91195
 C619 C 0.52179 0.79144 0.89913
 C620 C 0.47722 0.74243 0.84910
 C621 C 0.46366 0.74481 0.83804
 C622 C 0.45881 0.77200 0.85085
 C623 C 0.47245 0.76909 0.86168
 N624 N 0.48121 0.75440 0.86076
 H625 H 0.52845 0.77420 0.87934
 H626 H 0.48066 0.76561 0.90153
 H627 H 0.48471 0.78962 0.92091
 H628 H 0.53365 0.79818 0.89829
 H629 H 0.48461 0.73100 0.84842
 H630 H 0.46075 0.73517 0.82879
 H631 H 0.45181 0.78365 0.85198
 H632 H 0.47603 0.77862 0.87076
 C633 C 0.54581 0.74071 0.83913
 C634 C 0.49039 0.70452 0.91111
 C635 C 0.45421 0.75974 0.83887
 C636 C 0.50952 0.79597 0.91111
 C637 C 0.15115 0.22135 0.23600
 C638 C 0.15320 0.21926 0.25349
 C639 C 0.16890 0.21448 0.26002
 C640 C 0.18253 0.21178 0.24912
 C641 C 0.18060 0.21386 0.23151
 C642 C 0.16476 0.21867 0.22507
 C643 C 0.13918 0.22204 0.26472
 C644 C 0.12744 0.22438 0.27412
 C645 C 0.11369 0.22711 0.28512
 C646 C 0.10194 0.22946 0.29450
 C647 C 0.08790 0.23226 0.30571
 C648 C 0.08893 0.22734 0.32270
 C649 C 0.07530 0.23004 0.33359
 C650 C 0.06045 0.23773 0.32761
 C651 C 0.05955 0.24264 0.31050
 C652 C 0.07319 0.23991 0.29963
 H653 H 0.13903 0.22501 0.23080
 H654 H 0.17064 0.21287 0.27355
 H655 H 0.19462 0.20829 0.25447
 H656 H 0.16282 0.22016 0.21157
 H657 H 0.10028 0.22144 0.32755
 H658 H 0.07647 0.22632 0.34674
 H659 H 0.04822 0.24838 0.30546
 H660 H 0.07224 0.24373 0.28648
 C661 C 0.66312 0.73319 0.74822
 C662 C 0.65337 0.71956 0.75380
 C663 C 0.65730 0.70323 0.74845
 C664 C 0.67093 0.70053 0.73756
 C665 C 0.68081 0.71415 0.73186
 C666 C 0.67675 0.73052 0.73733
 C667 C 0.63931 0.72233 0.76497
 C668 C 0.62753 0.72466 0.77433
 C669 C 0.61373 0.72738 0.78527
 C670 C 0.60194 0.72970 0.79461
 C671 C 0.58785 0.73247 0.80575
 C672 C 0.57677 0.71924 0.80952
 C673 C 0.56310 0.72190 0.82036
 C674 C 0.56032 0.73786 0.82758
 C675 C 0.57152 0.75108 0.82369
 C676 C 0.58520 0.74839 0.81286
 H677 H 0.66021 0.74588 0.75232
 H678 H 0.64981 0.69259 0.75265
 H679 H 0.67361 0.68781 0.73340
 H680 H 0.68424 0.74123 0.73334
 H681 H 0.57868 0.70687 0.80405
 H682 H 0.55457 0.71153 0.82292
 H683 H 0.56985 0.76345 0.82922
 H684 H 0.59372 0.75871 0.81006
 C685 C 0.34255 0.79691 0.74788
 C686 C 0.34646 0.78060 0.75335
 C687 C 0.33659 0.76697 0.74796
 C688 C 0.32287 0.76963 0.73714
 C689 C 0.31882 0.78598 0.73158
 C690 C 0.32883 0.79960 0.73706
 C691 C 0.36058 0.77785 0.76450
 C692 C 0.37241 0.77555 0.77384
 C693 C 0.38625 0.77286 0.78478
 C694 C 0.39807 0.77058 0.79414
 C695 C 0.41217 0.76785 0.80532
 C696 C 0.41488 0.75194 0.81246
 C697 C 0.42855 0.74928 0.82335
 C698 C 0.43971 0.76254 0.82726
 C699 C 0.43688 0.77850 0.82000
 C700 C 0.42321 0.78112 0.80911
 H701 H 0.35014 0.80754 0.75193
 H702 H 0.33948 0.75430 0.75215
 H703 H 0.31529 0.75893 0.73327
 H704 H 0.32618 0.81230 0.73280
 H705 H 0.40638 0.74159 0.80965
 H706 H 0.43026 0.73692 0.82890
 H707 H 0.44537 0.78889 0.82258
 H708 H 0.42126 0.79348 0.80361
 C709 C -0.15252 0.27489 0.23648
 C710 C -0.15317 0.28060 0.25320
 C711 C -0.16754 0.28896 0.25899
 C712 C -0.18123 0.29163 0.24813
 C713 C -0.18089 0.28594 0.23113
 C714 C -0.16618 0.27749 0.22557
 C715 C -0.13909 0.27787 0.26441
 C716 C -0.12729 0.27558 0.27379
 C717 C -0.11348 0.27291 0.28477
 C718 C -0.10168 0.27063 0.29415
 C719 C -0.08760 0.26789 0.30536
 C720 C -0.07656 0.28115 0.30915
 C721 C -0.06290 0.27852 0.32006
 C722 C -0.06009 0.26256 0.32732
 C723 C -0.07126 0.24931 0.32341
 C724 C -0.08493 0.25198 0.31251
 H725 H -0.14138 0.26852 0.23182
 H726 H -0.16823 0.29331 0.27198
 H727 H -0.19229 0.29756 0.25346
 H728 H -0.16474 0.27341 0.21259
 H729 H -0.07849 0.29351 0.30365
 H730 H -0.05440 0.28890 0.32264
 H731 H -0.06957 0.23695 0.32896
 H732 H -0.09343 0.24164 0.30969
 C733 C -0.15158 0.72228 0.26350
 C734 C -0.15371 0.72020 0.24602
 C735 C -0.16944 0.71533 0.23958
 C736 C -0.18299 0.71254 0.25055
 C737 C -0.18098 0.71460 0.26815
 C738 C -0.16512 0.71951 0.27450
 C739 C -0.13975 0.72303 0.23472
 C740 C -0.12804 0.72539 0.22527
 C741 C -0.11431 0.72814 0.21423
 C742 C -0.10258 0.73046 0.20481
 C743 C -0.08854 0.73321 0.19357
 C744 C -0.09051 0.73085 0.17611
 C745 C -0.07686 0.73345 0.16520
 C746 C -0.06105 0.73846 0.17162
 C747 C -0.05922 0.74083 0.18920
 C748 C -0.07288 0.73821 0.20009
 H749 H -0.13944 0.72600 0.26863
 H750 H -0.17123 0.71372 0.22606
 H751 H -0.19510 0.70898 0.24526
 H752 H -0.16312 0.72099 0.28800
 H753 H -0.10259 0.72702 0.17093
 H754 H -0.07873 0.73173 0.15172
 H755 H -0.04717 0.74446 0.19456
 H756 H -0.07121 0.74003 0.21359
 C757 C 0.33993 0.20364 0.74848
 C758 C 0.34640 0.21987 0.74630
 C759 C 0.33925 0.23333 0.75510
 C760 C 0.32567 0.23060 0.76606
 C761 C 0.31887 0.21426 0.76848
 C762 C 0.32635 0.20083 0.75940
 C763 C 0.36040 0.22270 0.73504
 C764 C 0.37213 0.22504 0.72561
 C765 C 0.38587 0.22775 0.71457
 C766 C 0.39760 0.23002 0.70514
 C767 C 0.41163 0.23269 0.69387
 C768 C 0.41602 0.24903 0.68885
 C769 C 0.42965 0.25163 0.67791
 C770 C 0.43906 0.23789 0.67183
 C771 C 0.43454 0.22151 0.67697
 C772 C 0.42091 0.21894 0.68791
 H773 H 0.34549 0.19308 0.74182
 H774 H 0.34408 0.24599 0.75339
 H775 H 0.32019 0.24155 0.77203
 H776 H 0.32230 0.18793 0.76113
 H777 H 0.40889 0.25976 0.69335
 H778 H 0.43268 0.26437 0.67403
 H779 H 0.44167 0.21069 0.67270
 H780 H 0.41765 0.20624 0.69176
 C781 C 0.66777 0.28850 0.73994
 C782 C 0.65333 0.28017 0.74566
 C783 C 0.65254 0.27452 0.76240
 C784 C 0.66611 0.27718 0.77341
 C785 C 0.68089 0.28562 0.76792
 C786 C 0.68139 0.29123 0.75089
 C787 C 0.63932 0.27740 0.73436
 C788 C 0.62757 0.27508 0.72492
 C789 C 0.61380 0.27236 0.71390
 C790 C 0.60202 0.27002 0.70450
 C791 C 0.58793 0.26722 0.69332
 C792 C 0.57253 0.26146 0.69981
 C793 C 0.55883 0.25872 0.68897
 C794 C 0.56035 0.26172 0.67146
 C795 C 0.57589 0.26751 0.66506
 C796 C 0.58958 0.27023 0.67592
 H797 H 0.66858 0.29280 0.72693
 H798 H 0.64133 0.26817 0.76702
 H799 H 0.66454 0.27317 0.78641
 H800 H 0.69250 0.29714 0.74561
 H801 H 0.57110 0.25913 0.71326
 H802 H 0.54699 0.25448 0.69431
 H803 H 0.57752 0.26973 0.65162
 H804 H 0.60145 0.27464 0.67076
 C805 C 0.15731 0.79675 0.25108
 C806 C 0.15335 0.78043 0.24565
 C807 C 0.16304 0.76679 0.25125
 C808 C 0.17664 0.76943 0.26224
 C809 C 0.18072 0.78579 0.26778
 C810 C 0.17091 0.79943 0.26206
 C811 C 0.13932 0.77769 0.23437
 C812 C 0.12756 0.77539 0.22494
 C813 C 0.11378 0.77268 0.21391
 C814 C 0.10199 0.77037 0.20452
 C815 C 0.08790 0.76759 0.19334
 C816 C 0.07247 0.76195 0.19984
 C817 C 0.05877 0.75922 0.18899
 C818 C 0.06032 0.76212 0.17147
 C819 C 0.07589 0.76781 0.16506
 C820 C 0.08958 0.77052 0.17593
 H821 H 0.14986 0.80739 0.24686
 H822 H 0.16011 0.75411 0.24709
 H823 H 0.18409 0.75872 0.26625
 H824 H 0.17362 0.81213 0.26626
 H825 H 0.07101 0.75969 0.21330
 H826 H 0.04689 0.75506 0.19435
 H827 H 0.07755 0.76995 0.15162
 H828 H 0.10148 0.77484 0.17076
 C829 C 0.24743 0.16224 0.23359
 C830 C 0.25309 0.15267 0.21985
 C831 C 0.24787 0.15679 0.20342
 C832 C 0.23704 0.17042 0.20072
 C833 C 0.23128 0.18012 0.21446
 C834 C 0.23659 0.17587 0.23093
 C835 C 0.26426 0.13865 0.22260
 C836 C 0.27362 0.12691 0.22489
 C837 C 0.28459 0.11316 0.22755
 C838 C 0.29396 0.10142 0.22982
 C839 C 0.30515 0.08741 0.23251
 C840 C 0.30895 0.07650 0.21914
 C841 C 0.31984 0.06290 0.22173
 C842 C 0.32709 0.06002 0.23777
 C843 C 0.32318 0.07107 0.25113
 C844 C 0.31229 0.08467 0.24850
 H845 H 0.25143 0.15919 0.24637
 H846 H 0.25214 0.14944 0.19269
 H847 H 0.23299 0.17324 0.18792
 H848 H 0.23253 0.18322 0.24173
 H849 H 0.30345 0.07848 0.20672
 H850 H 0.32242 0.05450 0.21125
 H851 H 0.32872 0.06933 0.26356
 H852 H 0.30948 0.09307 0.25893
 C853 C 0.74791 0.65697 0.70365
 C854 C 0.75324 0.65291 0.72006
 C855 C 0.74768 0.66253 0.73381
 C856 C 0.73684 0.67616 0.73117
 C857 C 0.73142 0.68036 0.71472
 C858 C 0.73708 0.67061 0.70098
 C859 C 0.76440 0.63887 0.72279
 C860 C 0.77375 0.62712 0.72506
 C861 C 0.78470 0.61336 0.72770
 C862 C 0.79406 0.60161 0.72994
 C863 C 0.80524 0.58757 0.73262
 C864 C 0.81237 0.58480 0.74860
 C865 C 0.82324 0.57118 0.75121
 C866 C 0.82713 0.56015 0.73783
 C867 C 0.81989 0.56305 0.72180
 C868 C 0.80901 0.57667 0.71923
 H869 H 0.75210 0.64958 0.69292
 H870 H 0.75177 0.65952 0.74656
 H871 H 0.73287 0.68356 0.74197
 H872 H 0.73295 0.67339 0.68819
 H873 H 0.80957 0.59319 0.75905
 H874 H 0.82878 0.56941 0.76363
 H875 H 0.82245 0.55466 0.71130
 H876 H 0.80352 0.57868 0.70681
 C877 C 0.75967 0.33094 0.78402
 C878 C 0.75316 0.34676 0.77974
 C879 C 0.73570 0.34890 0.77806
 C880 C 0.72480 0.33527 0.78064
 C881 C 0.73122 0.31931 0.78493
 C882 C 0.74879 0.31730 0.78662
 C883 C 0.76437 0.36080 0.77706
 C884 C 0.77376 0.37256 0.77481
 C885 C 0.78474 0.38633 0.77217
 C886 C 0.79411 0.39810 0.76992
 C887 C 0.80530 0.41215 0.76724
 C888 C 0.80911 0.42309 0.78061
 C889 C 0.81998 0.43674 0.77803
 C890 C 0.82718 0.43965 0.76200
 C891 C 0.82326 0.42858 0.74863
 C892 C 0.81239 0.41493 0.75125
 H893 H 0.77316 0.32914 0.78532
 H894 H 0.73052 0.36111 0.77480
 H895 H 0.71133 0.33727 0.77948
 H896 H 0.75411 0.30513 0.78973
 H897 H 0.80365 0.42108 0.79303
 H898 H 0.82257 0.44515 0.78851
 H899 H 0.82876 0.43035 0.73621
 H900 H 0.80956 0.40652 0.74082
 C901 C 0.23664 -0.15261 0.27405
 C902 C 0.25327 -0.15332 0.27987
 C903 C 0.25897 -0.16770 0.28830
 C904 C 0.24810 -0.18134 0.29094
 C905 C 0.23118 -0.18093 0.28515
 C906 C 0.22571 -0.16621 0.27662
 C907 C 0.26449 -0.13929 0.27718
 C908 C 0.27387 -0.12753 0.27493
 C909 C 0.28485 -0.11376 0.27230
 C910 C 0.29422 -0.10199 0.27004
 C911 C 0.30540 -0.08792 0.26735
 C912 C 0.30921 -0.07699 0.28072
 C913 C 0.32007 -0.06332 0.27813
 C914 C 0.32726 -0.06042 0.26210
 C915 C 0.32334 -0.07149 0.24873
 C916 C 0.31249 -0.08515 0.25136
 H917 H 0.23204 -0.14145 0.26762
 H918 H 0.27190 -0.16844 0.29274
 H919 H 0.25336 -0.19241 0.29694
 H920 H 0.21279 -0.16472 0.27246
 H921 H 0.30375 -0.07899 0.29314
 H922 H 0.32265 -0.05491 0.28861
 H923 H 0.32884 -0.06972 0.23631
 H924 H 0.30966 -0.09357 0.24093
 C925 C 0.24829 -0.15983 0.70369
 C926 C 0.24625 -0.15321 0.71994
 C927 C 0.25511 -0.16023 0.73351
 C928 C 0.26600 -0.17381 0.73090
 C929 C 0.26829 -0.18075 0.71454
 C930 C 0.25915 -0.17343 0.70098
 C931 C 0.23507 -0.13920 0.72268
 C932 C 0.22572 -0.12747 0.72498
 C933 C 0.21477 -0.11372 0.72767
 C934 C 0.20543 -0.10197 0.72997
 C935 C 0.19429 -0.08794 0.73271
 C936 C 0.18720 -0.08526 0.74871
 C937 C 0.17637 -0.07163 0.75138
 C938 C 0.17248 -0.06050 0.73806
 C939 C 0.17967 -0.06331 0.72202
 C940 C 0.19050 -0.07694 0.71938
 H941 H 0.24159 -0.15439 0.69304
 H942 H 0.25350 -0.15529 0.74620
 H943 H 0.27201 -0.17917 0.74195
 H944 H 0.26077 -0.17761 0.68805
 H945 H 0.19001 -0.09373 0.75911
 H946 H 0.17087 -0.06994 0.76381
 H947 H 0.17710 -0.05484 0.71156
 H948 H 0.19596 -0.07887 0.70695
 C949 C 0.75228 0.33697 0.23376
 C950 C 0.74662 0.34663 0.22005
 C951 C 0.75188 0.34267 0.20362
 C952 C 0.76276 0.32909 0.20088
 C953 C 0.76853 0.31930 0.21458
 C954 C 0.76317 0.32339 0.23106
 C955 C 0.73543 0.36062 0.22285
 C956 C 0.72606 0.37234 0.22518
 C957 C 0.71510 0.38607 0.22789
 C958 C 0.70574 0.39780 0.23019
 C959 C 0.69457 0.41181 0.23292
 C960 C 0.69077 0.42279 0.21957
 C961 C 0.67991 0.43641 0.22220
 C962 C 0.67271 0.43922 0.23824
 C963 C 0.67663 0.42811 0.25157
 C964 C 0.68748 0.41449 0.24891
 H965 H 0.74825 0.33990 0.24653
 H966 H 0.74761 0.35010 0.19292
 H967 H 0.76684 0.32640 0.18808
 H968 H 0.76724 0.31597 0.24183
 H969 H 0.69623 0.42086 0.20715
 H970 H 0.67733 0.44486 0.21174
 H971 H 0.67113 0.42981 0.26400
 H972 H 0.69030 0.40604 0.25932
 C973 C 0.75242 0.66245 0.26643
 C974 C 0.74691 0.65279 0.28021
 C975 C 0.75221 0.65690 0.29661
 C976 C 0.76299 0.67063 0.29925
 C977 C 0.76860 0.68042 0.28549
 C978 C 0.76320 0.67617 0.26904
 C979 C 0.73580 0.63867 0.27751
 C980 C 0.72649 0.62685 0.27526
 C981 C 0.71559 0.61302 0.27263
 C982 C 0.70626 0.60122 0.27039
 C983 C 0.69510 0.58713 0.26772
 C984 C 0.69131 0.57621 0.28111
 C985 C 0.68043 0.56256 0.27855
 C986 C 0.67321 0.55964 0.26251
 C987 C 0.67713 0.57068 0.24912
 C988 C 0.68800 0.58434 0.25172
 H989 H 0.74835 0.65940 0.25369
 H990 H 0.74806 0.64948 0.30736
 H991 H 0.76710 0.67344 0.31203
 H992 H 0.76715 0.68359 0.25822
 H993 H 0.69678 0.57823 0.29354
 H994 H 0.67785 0.55416 0.28905
 H995 H 0.67160 0.56891 0.23669
 H996 H 0.69081 0.59274 0.24127
 C997 C 0.25219 0.16263 0.76654
 C998 C 0.24681 0.15288 0.78030
 C999 C 0.25234 0.15684 0.79667
 C1000 C 0.26321 0.17049 0.79928
 C1001 C 0.26872 0.18035 0.78552
 C1002 C 0.26307 0.17627 0.76912
 C1003 C 0.23563 0.13882 0.77762
 C1004 C 0.22627 0.12704 0.77537
 C1005 C 0.21533 0.11324 0.77272
 C1006 C 0.20597 0.10146 0.77047
 C1007 C 0.19478 0.08740 0.76777
 C1008 C 0.19099 0.07645 0.78114
 C1009 C 0.18011 0.06281 0.77855
 C1010 C 0.17288 0.05993 0.76251
 C1011 C 0.17679 0.07101 0.74914
 C1012 C 0.18767 0.08465 0.75177
 H1013 H 0.24795 0.15970 0.75382
 H1014 H 0.24828 0.14936 0.80741
 H1015 H 0.26749 0.17322 0.81203
 H1016 H 0.26690 0.18377 0.75831
 H1017 H 0.19647 0.07844 0.79357
 H1018 H 0.17753 0.05438 0.78903
 H1019 H 0.17126 0.06926 0.73671
 H1020 H 0.19048 0.09308 0.74134
 C1021 C 0.23358 0.24726 0.16289
 C1022 C 0.21992 0.25300 0.15323
 C1023 C 0.20353 0.24776 0.15724
 C1024 C 0.20080 0.23682 0.17087
 C1025 C 0.21445 0.23097 0.18065
 C1026 C 0.23088 0.23632 0.17651
 C1027 C 0.22272 0.26425 0.13920
 C1028 C 0.22505 0.27367 0.12744
 C1029 C 0.22775 0.28469 0.11367
 C1030 C 0.23005 0.29411 0.10190
 C1031 C 0.23277 0.30534 0.08784
 C1032 C 0.21947 0.30919 0.07682
 C1033 C 0.22209 0.32011 0.06316
 C1034 C 0.23809 0.32732 0.06033
 C1035 C 0.25138 0.32335 0.07148
 C1036 C 0.24872 0.31244 0.08514
 H1037 H 0.24632 0.25128 0.15992
 H1038 H 0.19288 0.25209 0.14982
 H1039 H 0.18803 0.23277 0.17361
 H1040 H 0.24161 0.23221 0.18394
 H1041 H 0.20708 0.30373 0.07876
 H1042 H 0.21167 0.32272 0.05468
 H1043 H 0.26378 0.32886 0.06977
 H1044 H 0.25910 0.30958 0.09362
 C1045 C 0.73369 0.74751 0.66317
 C1046 C 0.72003 0.75318 0.65347
 C1047 C 0.70366 0.74789 0.65747
 C1048 C 0.70093 0.73698 0.67112
 C1049 C 0.71459 0.73121 0.68095
 C1050 C 0.73101 0.73659 0.67682
 C1051 C 0.72281 0.76441 0.63942
 C1052 C 0.72512 0.77382 0.62765
 C1053 C 0.72780 0.78484 0.61387
 C1054 C 0.73007 0.79424 0.60209
 C1055 C 0.73278 0.80547 0.58802
 C1056 C 0.71946 0.80931 0.57701
 C1057 C 0.72207 0.82022 0.56334
 C1058 C 0.73805 0.82744 0.56050
 C1059 C 0.75136 0.82349 0.57164
 C1060 C 0.74872 0.81259 0.58531
 H1061 H 0.74642 0.75157 0.66021
 H1062 H 0.69299 0.75216 0.65002
 H1063 H 0.68818 0.73288 0.67385
 H1064 H 0.74174 0.73254 0.68427
 H1065 H 0.70708 0.80383 0.57896
 H1066 H 0.71163 0.82282 0.55487
 H1067 H 0.76375 0.82901 0.56992
 H1068 H 0.75910 0.80974 0.59378
 C1069 C 0.79642 0.74814 0.34257
 C1070 C 0.78003 0.75324 0.34670
 C1071 C 0.76634 0.74741 0.33713
 C1072 C 0.76900 0.73652 0.32349
 C1073 C 0.78542 0.73131 0.31923
 C1074 C 0.79911 0.73725 0.32893
 C1075 C 0.77729 0.76445 0.36074
 C1076 C 0.77500 0.77385 0.37250
 C1077 C 0.77234 0.78485 0.38628
 C1078 C 0.77009 0.79424 0.39804
 C1079 C 0.76742 0.80546 0.41210
 C1080 C 0.75149 0.81255 0.41480
 C1081 C 0.74888 0.82345 0.42845
 C1082 C 0.76220 0.82742 0.43958
 C1083 C 0.77817 0.82023 0.43674
 C1084 C 0.78074 0.80932 0.42309
 H1085 H 0.80711 0.75254 0.34992
 H1086 H 0.75360 0.75132 0.34018
 H1087 H 0.75823 0.73234 0.31613
 H1088 H 0.81187 0.73331 0.32609
 H1089 H 0.74109 0.80969 0.40634
 H1090 H 0.73651 0.82895 0.43017
 H1091 H 0.78862 0.82285 0.44521
 H1092 H 0.79311 0.80386 0.42114
 C1093 C 0.27825 0.23577 -0.15134
 C1094 C 0.28008 0.25318 -0.15351
 C1095 C 0.28459 0.25965 -0.16937
 C1096 C 0.28729 0.24877 -0.18302
 C1097 C 0.28548 0.23124 -0.18097
 C1098 C 0.28093 0.22486 -0.16497
 C1099 C 0.27735 0.26439 -0.13946
 C1100 C 0.27507 0.27378 -0.12770
 C1101 C 0.27241 0.28478 -0.11392
 C1102 C 0.27015 0.29418 -0.10216
 C1103 C 0.26746 0.30539 -0.08810
 C1104 C 0.27240 0.32229 -0.08926
 C1105 C 0.26982 0.33319 -0.07561
 C1106 C 0.26223 0.32733 -0.06060
 C1107 C 0.25730 0.31032 -0.05958
 C1108 C 0.25991 0.29943 -0.07324
 H1109 H 0.27480 0.23062 -0.13911
 H1110 H 0.28600 0.27311 -0.17120
 H1111 H 0.29058 0.25406 -0.19522
 H1112 H 0.27965 0.21142 -0.16295
 H1113 H 0.27822 0.32705 -0.10072
 H1114 H 0.27355 0.34626 -0.07688
 H1115 H 0.25164 0.30537 -0.04813
 H1116 H 0.25608 0.28636 -0.07219
 C1117 C 0.71542 0.24024 -0.16971
 C1118 C 0.71966 0.24675 -0.15379
 C1119 C 0.72121 0.26418 -0.15160
 C1120 C 0.71852 0.27507 -0.16526
 C1121 C 0.71421 0.26865 -0.18132
 C1122 C 0.71271 0.25111 -0.18340
 C1123 C 0.72240 0.23555 -0.13970
 C1124 C 0.72468 0.22617 -0.12791
 C1125 C 0.72735 0.21518 -0.11409
 C1126 C 0.72962 0.20579 -0.10230
 C1127 C 0.73232 0.19457 -0.08822
 C1128 C 0.73988 0.20053 -0.07335
 C1129 C 0.74252 0.18964 -0.05967
 C1130 C 0.73761 0.17262 -0.06068
 C1131 C 0.73001 0.16676 -0.07569
 C1132 C 0.72740 0.17767 -0.08937
 H1133 H 0.71424 0.22677 -0.17156
 H1134 H 0.72445 0.26935 -0.13932
 H1135 H 0.71958 0.28852 -0.16324
 H1136 H 0.70965 0.24578 -0.19565
 H1137 H 0.74370 0.21360 -0.07231
 H1138 H 0.74818 0.19460 -0.04821
 H1139 H 0.72629 0.15369 -0.07695
 H1140 H 0.72158 0.17291 -0.10084
 C1141 C 0.23343 0.75225 0.33653
 C1142 C 0.21973 0.74664 0.34620
 C1143 C 0.20339 0.75197 0.34214
 C1144 C 0.20073 0.76287 0.32848
 C1145 C 0.21442 0.76859 0.31868
 C1146 C 0.23080 0.76316 0.32286
 C1147 C 0.22244 0.73542 0.36028
 C1148 C 0.22470 0.72603 0.37207
 C1149 C 0.22734 0.71503 0.38588
 C1150 C 0.22959 0.70565 0.39768
 C1151 C 0.23228 0.69445 0.41178
 C1152 C 0.21896 0.69057 0.42274
 C1153 C 0.22156 0.67970 0.43644
 C1154 C 0.23755 0.67255 0.43937
 C1155 C 0.25086 0.67654 0.42827
 C1156 C 0.24823 0.68741 0.41457
 H1157 H 0.24613 0.74817 0.33953
 H1158 H 0.19270 0.74774 0.34957
 H1159 H 0.18800 0.76700 0.32571
 H1160 H 0.24156 0.76720 0.31544
 H1161 H 0.20658 0.69599 0.42073
 H1162 H 0.21112 0.67706 0.44488
 H1163 H 0.26325 0.67108 0.43004
 H1164 H 0.25862 0.69029 0.40613
 C1165 C 0.28416 0.74057 0.66919
 C1166 C 0.27950 0.74700 0.65335
 C1167 C 0.27753 0.76439 0.65120
 C1168 C 0.28021 0.77531 0.66483
 C1169 C 0.28492 0.76898 0.68081
 C1170 C 0.28686 0.75147 0.68284
 C1171 C 0.27678 0.73576 0.63930
 C1172 C 0.27451 0.72635 0.62754
 C1173 C 0.27188 0.71534 0.61375
 C1174 C 0.26964 0.70593 0.60198
 C1175 C 0.26697 0.69469 0.58792
 C1176 C 0.28030 0.69090 0.57696
 C1177 C 0.27773 0.67999 0.56330
 C1178 C 0.26177 0.67272 0.56041
 C1179 C 0.24845 0.67662 0.57151
 C1180 C 0.25105 0.68753 0.58517
 H1181 H 0.28568 0.72712 0.67101
 H1182 H 0.27397 0.76950 0.63898
 H1183 H 0.27882 0.78874 0.66282
 H1184 H 0.29027 0.74620 0.69503
 H1185 H 0.29267 0.69642 0.57894
 H1186 H 0.28818 0.67742 0.55486
 H1187 H 0.23608 0.67107 0.56976
 H1188 H 0.24066 0.69034 0.59361
 C1189 C 0.79640 0.25228 0.15707
 C1190 C 0.78003 0.24687 0.15316
 C1191 C 0.76641 0.25241 0.16294
 C1192 C 0.76913 0.26332 0.17657
 C1193 C 0.78554 0.26883 0.18061
 C1194 C 0.79915 0.26319 0.17070
 C1195 C 0.77723 0.23564 0.13913
 C1196 C 0.77490 0.22623 0.12737
 C1197 C 0.77219 0.21522 0.11360
 C1198 C 0.76990 0.20581 0.10183
 C1199 C 0.76718 0.19458 0.08778
 C1200 C 0.75125 0.18744 0.08507
 C1201 C 0.74860 0.17653 0.07142
 C1202 C 0.76189 0.17261 0.06029
 C1203 C 0.77787 0.17986 0.06313
 C1204 C 0.78048 0.19077 0.07678
 H1205 H 0.80703 0.24811 0.14955
 H1206 H 0.75369 0.24825 0.16005
 H1207 H 0.75843 0.26727 0.18409
 H1208 H 0.81190 0.26737 0.17337
 H1209 H 0.74088 0.19026 0.09353
 H1210 H 0.73622 0.17099 0.06970
 H1211 H 0.78829 0.17728 0.05467
 H1212 H 0.79286 0.19628 0.07874
 C1213 C 0.46517 0.42060 0.51125
 C1214 C 0.46989 0.40486 0.50487
 C1215 C 0.47189 0.40268 0.48739
 C1216 C 0.46918 0.41618 0.47633
 C1217 C 0.46443 0.43206 0.48262
 C1218 C 0.46245 0.43412 0.50022
 C1219 C 0.47269 0.39094 0.51622
 C1220 C 0.47505 0.37925 0.52568
 C1221 C 0.47782 0.36550 0.53668
 C1222 C 0.48020 0.35371 0.54601
 C1223 C 0.48304 0.33956 0.55707
 C1224 C 0.49798 0.33028 0.55583
 C1225 C 0.50068 0.31641 0.56642
 C1226 C 0.48845 0.31165 0.57842
 C1227 C 0.47350 0.32112 0.57963
 C1228 C 0.47082 0.33497 0.56901
 H1229 H 0.46363 0.42244 0.52476
 H1230 H 0.47549 0.39054 0.48231
 H1231 H 0.47060 0.41414 0.46285
 H1232 H 0.45901 0.44624 0.50545
 H1233 H 0.50755 0.33375 0.54666
 H1234 H 0.51242 0.30953 0.56534
 H1235 H 0.46375 0.31765 0.58858
 H1236 H 0.45918 0.34205 0.57005
 C1237 C -0.02830 0.90281 -0.01292
 C1238 C -0.03017 0.90499 0.00457
 C1239 C -0.03480 0.92075 0.01099
 C1240 C -0.03757 0.93427 -0.00003
 C1241 C -0.03572 0.93220 -0.01763
 C1242 C -0.03105 0.91631 -0.02396
 C1243 C -0.02732 0.89107 0.01591
 C1244 C -0.02494 0.87937 0.02535
 C1245 C -0.02214 0.86562 0.03634
 C1246 C -0.01975 0.85383 0.04568
 C1247 C -0.01690 0.83969 0.05675
 C1248 C -0.02906 0.83519 0.06877
 C1249 C -0.02638 0.82135 0.07941
 C1250 C -0.01147 0.81182 0.07815
 C1251 C 0.00071 0.81650 0.06605
 C1252 C -0.00200 0.83034 0.05543
 H1253 H -0.02476 0.89065 -0.01802
 H1254 H -0.03624 0.92259 0.02451
 H1255 H -0.04096 0.94640 0.00523
 H1256 H -0.02974 0.91427 -0.03745
 H1257 H -0.04066 0.84231 0.06986
 H1258 H -0.03608 0.81795 0.08844
 H1259 H 0.01241 0.80956 0.06492
 H1260 H 0.00752 0.83375 0.04620
 C1261 C 0.03542 0.58006 0.01057
 C1262 C 0.03078 0.59581 0.00412
 C1263 C 0.02877 0.59796 -0.01337
 C1264 C 0.03137 0.58443 -0.02437
 C1265 C 0.03604 0.56853 -0.01801
 C1266 C 0.03805 0.56650 -0.00040
 C1267 C 0.02806 0.60976 0.01542
 C1268 C 0.02577 0.62147 0.02485
 C1269 C 0.02306 0.63520 0.03586
 C1270 C 0.02072 0.64695 0.04522
 C1271 C 0.01790 0.66102 0.05635
 C1272 C 0.00177 0.66400 0.06289
 C1273 C -0.00102 0.67774 0.07359
 C1274 C 0.01230 0.68868 0.07791
 C1275 C 0.02848 0.68554 0.07130
 C1276 C 0.03124 0.67180 0.06058
 H1277 H 0.03697 0.57824 0.02409
 H1278 H 0.02522 0.61012 -0.01851
 H1279 H 0.02996 0.58644 -0.03787
 H1280 H 0.04143 0.55437 0.00489
 H1281 H -0.00864 0.65571 0.05972
 H1282 H -0.01357 0.67969 0.07865
 H1283 H 0.03894 0.69385 0.07420
 H1284 H 0.04376 0.66964 0.05555
 C1285 C 0.54703 0.09159 0.49874
 C1286 C 0.53067 0.09557 0.50406
 C1287 C 0.51699 0.08592 0.49839
 C1288 C 0.51963 0.07236 0.48742
 C1289 C 0.53602 0.06826 0.48199
 C1290 C 0.54970 0.07803 0.48778
 C1291 C 0.52793 0.10958 0.51529
 C1292 C 0.52562 0.12133 0.52466
 C1293 C 0.52291 0.13511 0.53559
 C1294 C 0.52056 0.14691 0.54489
 C1295 C 0.51773 0.16104 0.55595
 C1296 C 0.51063 0.17587 0.54955
 C1297 C 0.50785 0.18960 0.56026
 C1298 C 0.51214 0.18867 0.57755
 C1299 C 0.51930 0.17370 0.58385
 C1300 C 0.52206 0.15998 0.57311
 H1301 H 0.55771 0.09900 0.50301
 H1302 H 0.50428 0.08887 0.50246
 H1303 H 0.50887 0.06495 0.48335
 H1304 H 0.56244 0.07531 0.48366
 H1305 H 0.50728 0.17684 0.53627
 H1306 H 0.50254 0.20101 0.55497
 H1307 H 0.52255 0.17252 0.59713
 H1308 H 0.52753 0.14854 0.57821
 C1309 C -0.04696 0.09287 0.50198
 C1310 C -0.03061 0.09692 0.49662
 C1311 C -0.01692 0.08725 0.50218
 C1312 C -0.01955 0.07359 0.51306
 C1313 C -0.03594 0.06942 0.51853
 C1314 C -0.04962 0.07921 0.51285
 C1315 C -0.02788 0.11099 0.48544
 C1316 C -0.02559 0.12278 0.47608
 C1317 C -0.02289 0.13659 0.46513
 C1318 C -0.02058 0.14838 0.45578
 C1319 C -0.01781 0.16245 0.44460
 C1320 C -0.00185 0.16516 0.43751
 C1321 C 0.00085 0.17882 0.42665
 C1322 C -0.01239 0.18996 0.42272
 C1323 C -0.02839 0.18712 0.42992
 C1324 C -0.03106 0.17346 0.44079
 H1325 H -0.05764 0.10030 0.49779
 H1326 H -0.00422 0.09024 0.49807
 H1327 H -0.00880 0.06616 0.51703
 H1328 H -0.06234 0.07644 0.51700
 H1329 H 0.00848 0.15669 0.44034
 H1330 H 0.01325 0.18054 0.42114
 H1331 H -0.03878 0.19559 0.42733
 H1332 H -0.04345 0.17150 0.44625
 C1333 C 0.46488 0.58132 0.99011
 C1334 C 0.46959 0.59701 0.99669
 C1335 C 0.47168 0.59898 1.01418
 C1336 C 0.46907 0.58532 1.02507
 C1337 C 0.46433 0.56949 1.01858
 C1338 C 0.46225 0.56765 1.00097
 C1339 C 0.47228 0.61108 0.98549
 C1340 C 0.47454 0.62287 0.97612
 C1341 C 0.47720 0.63667 0.96515
 C1342 C 0.47948 0.64845 0.95578
 C1343 C 0.48222 0.66252 0.94459
 C1344 C 0.49817 0.66527 0.93751
 C1345 C 0.50084 0.67893 0.92663
 C1346 C 0.48756 0.69002 0.92268
 C1347 C 0.47157 0.68714 0.92988
 C1348 C 0.46893 0.67348 0.94076
 H1349 H 0.46327 0.57965 0.97658
 H1350 H 0.47528 0.61108 1.01941
 H1351 H 0.47056 0.58719 1.03858
 H1352 H 0.45882 0.55557 0.99558
 H1353 H 0.50853 0.65683 0.94035
 H1354 H 0.51323 0.68068 0.92113
 H1355 H 0.46115 0.69558 0.92727
 H1356 H 0.45654 0.67150 0.94622
 C1357 C 0.54658 0.90987 0.99897
 C1358 C 0.53038 0.90323 0.99686
 C1359 C 0.51685 0.91027 1.00567
 C1360 C 0.51947 0.92389 1.01657
 C1361 C 0.53578 0.93087 1.01892
 C1362 C 0.54929 0.92351 1.00983
 C1363 C 0.52764 0.88918 0.98566
 C1364 C 0.52535 0.87742 0.97628
 C1365 C 0.52269 0.86365 0.96529
 C1366 C 0.52041 0.85189 0.95590
 C1367 C 0.51770 0.83786 0.94467
 C1368 C 0.51008 0.82311 0.95070
 C1369 C 0.50742 0.80948 0.93981
 C1370 C 0.51236 0.81043 0.92271
 C1371 C 0.52003 0.82531 0.91678
 C1372 C 0.52266 0.83893 0.92770
 H1373 H 0.55719 0.90440 0.99231
 H1374 H 0.50421 0.90530 1.00402
 H1375 H 0.50846 0.92928 1.02255
 H1376 H 0.56217 0.92772 1.01150
 H1377 H 0.50624 0.82213 0.96384
 H1378 H 0.50170 0.79813 0.94482
 H1379 H 0.52377 0.82651 0.90365
 H1380 H 0.52853 0.85030 0.92289
 C1381 C 0.02863 0.40127 0.51427
 C1382 C 0.03052 0.40331 0.49676
 C1383 C 0.03505 0.41905 0.49016
 C1384 C 0.03770 0.43271 0.50102
 C1385 C 0.03582 0.43080 0.51865
 C1386 C 0.03126 0.41492 0.52515
 C1387 C 0.02780 0.38925 0.48556
 C1388 C 0.02552 0.37748 0.47620
 C1389 C 0.02287 0.36369 0.46523
 C1390 C 0.02061 0.35191 0.45586
 C1391 C 0.01791 0.33786 0.44466
 C1392 C 0.02288 0.33889 0.42769
 C1393 C 0.02025 0.32525 0.41680
 C1394 C 0.01257 0.31038 0.42275
 C1395 C 0.00762 0.30947 0.43984
 C1396 C 0.01028 0.32312 0.45072
 H1397 H 0.02517 0.38913 0.51951
 H1398 H 0.03651 0.42077 0.47662
 H1399 H 0.04101 0.44482 0.49563
 H1400 H 0.02994 0.41300 0.53867
 H1401 H 0.02876 0.35026 0.42286
 H1402 H 0.02400 0.32643 0.40366
 H1403 H 0.00189 0.29813 0.44487
 H1404 H 0.00642 0.32217 0.46385
 C1405 C 0.41280 0.49883 0.48408
 C1406 C 0.40314 0.50434 0.47030
 C1407 C 0.40718 0.49898 0.45391
 C1408 C 0.42083 0.48815 0.45130
 C1409 C 0.43063 0.48254 0.46508
 C1410 C 0.42645 0.48799 0.48150
 C1411 C 0.38907 0.51547 0.47296
 C1412 C 0.37729 0.52480 0.47519
 C1413 C 0.36349 0.53571 0.47780
 C1414 C 0.35170 0.54502 0.48003
 C1415 C 0.33763 0.55614 0.48271
 C1416 C 0.32666 0.55991 0.46933
 C1417 C 0.31300 0.57073 0.47190
 C1418 C 0.31012 0.57793 0.48793
 C1419 C 0.32123 0.57404 0.50130
 C1420 C 0.33489 0.56323 0.49869
 H1421 H 0.40980 0.50293 0.49681
 H1422 H 0.39975 0.50313 0.44316
 H1423 H 0.42359 0.48400 0.43854
 H1424 H 0.43387 0.48405 0.49233
 H1425 H 0.32864 0.55445 0.45691
 H1426 H 0.30456 0.57328 0.46141
 H1427 H 0.31949 0.57955 0.51372
 H1428 H 0.34334 0.56044 0.50913
 C1429 C 0.90955 0.00196 -0.04614
 C1430 C 0.90302 0.00416 -0.02987
 C1431 C 0.91018 -0.00450 -0.01624
 C1432 C 0.92382 -0.01533 -0.01883
 C1433 C 0.93069 -0.01776 -0.03520
 C1434 C 0.92321 -0.00883 -0.04881
 C1435 C 0.88895 0.01528 -0.02717
 C1436 C 0.87717 0.02460 -0.02492
 C1437 C 0.86337 0.03551 -0.02230
 C1438 C 0.85159 0.04483 -0.02007
 C1439 C 0.83753 0.05597 -0.01740
 C1440 C 0.83478 0.06306 -0.00141
 C1441 C 0.82112 0.07388 0.00119
 C1442 C 0.81004 0.07778 -0.01220
 C1443 C 0.81292 0.07059 -0.02823
 C1444 C 0.82658 0.05976 -0.03079
 H1445 H 0.90399 0.00851 -0.05683
 H1446 H 0.90530 -0.00278 -0.00354
 H1447 H 0.92930 -0.02119 -0.00774
 H1448 H 0.92731 -0.01058 -0.06175
 H1449 H 0.84321 0.06025 0.00903
 H1450 H 0.81937 0.07938 0.01361
 H1451 H 0.80449 0.07316 -0.03872
 H1452 H 0.82856 0.05430 -0.04321
 C1453 C 0.59898 -0.01422 0.02844
 C1454 C 0.59683 0.00319 0.03016
 C1455 C 0.58102 0.00966 0.03459
 C1456 C 0.56740 -0.00124 0.03731
 C1457 C 0.56943 -0.01877 0.03561
 C1458 C 0.58538 -0.02514 0.03114
 C1459 C 0.61084 0.01442 0.02738
 C1460 C 0.62258 0.02383 0.02506
 C1461 C 0.63632 0.03485 0.02236
 C1462 C 0.64805 0.04426 0.02006
 C1463 C 0.66206 0.05550 0.01732
 C1464 C 0.66094 0.07239 0.02226
 C1465 C 0.67454 0.08332 0.01963
 C1466 C 0.68947 0.07749 0.01198
 C1467 C 0.69046 0.06048 0.00705
 C1468 C 0.67684 0.04957 0.00972
 H1469 H 0.61118 -0.01936 0.02505
 H1470 H 0.57921 0.02312 0.03591
 H1471 H 0.55523 0.00406 0.04052
 H1472 H 0.58737 -0.03858 0.02994
 H1473 H 0.64953 0.07712 0.02812
 H1474 H 0.67330 0.09638 0.02336
 H1475 H 0.70185 0.05556 0.00135
 H1476 H 0.67786 0.03651 0.00589
 C1477 C 0.09012 0.50131 0.54651
 C1478 C 0.09680 0.50330 0.53027
 C1479 C 0.08981 0.49438 0.51672
 C1480 C 0.07619 0.48347 0.51937
 C1481 C 0.06919 0.48123 0.53571
 C1482 C 0.07649 0.49044 0.54924
 C1483 C 0.11083 0.51451 0.52750
 C1484 C 0.12258 0.52390 0.52519
 C1485 C 0.13634 0.53489 0.52250
 C1486 C 0.14809 0.54428 0.52021
 C1487 C 0.16212 0.55550 0.51749
 C1488 C 0.16483 0.56259 0.50148
 C1489 C 0.17845 0.57350 0.49882
 C1490 C 0.18955 0.57748 0.51218
 C1491 C 0.18671 0.57028 0.52823
 C1492 C 0.17310 0.55936 0.53085
 H1493 H 0.09554 0.50806 0.55713
 H1494 H 0.09480 0.49594 0.50404
 H1495 H 0.07085 0.47739 0.50834
 H1496 H 0.07226 0.48886 0.56216
 H1497 H 0.15638 0.55973 0.49106
 H1498 H 0.18016 0.57901 0.48639
 H1499 H 0.19516 0.57291 0.53870
 H1500 H 0.17115 0.55391 0.54328
 C1501 C 0.08767 0.50178 -0.01632
 C1502 C 0.09718 0.49612 -0.03010
 C1503 C 0.09302 0.50137 -0.04651
 C1504 C 0.07939 0.51223 -0.04915
 C1505 C 0.06974 0.51799 -0.03537
 C1506 C 0.07403 0.51264 -0.01892
 C1507 C 0.11122 0.48495 -0.02741
 C1508 C 0.12298 0.47559 -0.02516
 C1509 C 0.13676 0.46464 -0.02254
 C1510 C 0.14852 0.45529 -0.02028
 C1511 C 0.16257 0.44413 -0.01759
 C1512 C 0.17349 0.44033 -0.03097
 C1513 C 0.18712 0.42947 -0.02837
 C1514 C 0.19003 0.42226 -0.01233
 C1515 C 0.17898 0.42618 0.00104
 C1516 C 0.16534 0.43703 -0.00159
 H1517 H 0.09075 0.49776 -0.00356
 H1518 H 0.10033 0.49711 -0.05727
 H1519 H 0.07653 0.51629 -0.06193
 H1520 H 0.06672 0.51669 -0.00809
 H1521 H 0.17148 0.44579 -0.04339
 H1522 H 0.19552 0.42688 -0.03886
 H1523 H 0.18074 0.42067 0.01347
 H1524 H 0.15694 0.43986 0.00884
 C1525 C 0.58256 0.99034 0.46156
 C1526 C 0.59700 0.99609 0.46993
 C1527 C 0.59774 1.01270 0.47569
 C1528 C 0.58410 1.02356 0.47311
 C1529 C 0.56933 1.01804 0.46463
 C1530 C 0.56889 1.00114 0.45891
 C1531 C 0.61107 0.98494 0.47261
 C1532 C 0.62284 0.97561 0.47485
 C1533 C 0.63663 0.96468 0.47750
 C1534 C 0.64840 0.95533 0.47976
 C1535 C 0.66244 0.94417 0.48247
 C1536 C 0.66521 0.93709 0.49847
 C1537 C 0.67885 0.92624 0.50111
 C1538 C 0.68991 0.92233 0.48775
 C1539 C 0.68701 0.92952 0.47171
 C1540 C 0.67337 0.94037 0.46910
 H1541 H 0.58180 0.97743 0.45717
 H1542 H 0.60894 1.01734 0.48207
 H1543 H 0.58561 1.03647 0.47721
 H1544 H 0.55779 0.99584 0.45297
 H1545 H 0.65679 0.93991 0.50890
 H1546 H 0.68061 0.92074 0.51355
 H1547 H 0.69543 0.92694 0.46123
 H1548 H 0.67138 0.94583 0.45667
 C1549 C 0.90253 1.01334 0.52429
 C1550 C 0.90330 0.99670 0.53000
 C1551 C 0.91772 0.99101 0.53840
 C1552 C 0.93135 1.00189 0.54113
 C1553 C 0.93088 1.01882 0.53546
 C1554 C 0.91612 1.02428 0.52695
 C1555 C 0.88927 0.98548 0.52726
 C1556 C 0.87752 0.97607 0.52497
 C1557 C 0.86377 0.96507 0.52231
 C1558 C 0.85201 0.95567 0.52005
 C1559 C 0.83798 0.94444 0.51736
 C1560 C 0.82704 0.94061 0.53072
 C1561 C 0.81340 0.92971 0.52813
 C1562 C 0.81052 0.92249 0.51210
 C1563 C 0.82159 0.92643 0.49874
 C1564 C 0.83523 0.93733 0.50137
 H1565 H 0.89133 1.01793 0.51788
 H1566 H 0.91851 0.97809 0.54276
 H1567 H 0.94245 0.99665 0.54710
 H1568 H 0.91458 1.03720 0.52287
 H1569 H 0.82902 0.94609 0.54314
 H1570 H 0.80498 0.92710 0.53861
 H1571 H 0.81985 0.92091 0.48632
 H1572 H 0.84365 0.94018 0.49094
 C1573 C 0.40744 0.50178 0.04645
 C1574 C 0.40334 0.49661 0.03000
 C1575 C 0.41290 0.50239 0.01628
 C1576 C 0.42652 0.51330 0.01898
 C1577 C 0.43075 0.51856 0.03547
 C1578 C 0.42105 0.51267 0.04918
 C1579 C 0.38932 0.48538 0.02721
 C1580 C 0.37758 0.47598 0.02490
 C1581 C 0.36383 0.46497 0.02221
 C1582 C 0.35209 0.45556 0.01993
 C1583 C 0.33806 0.44433 0.01723
 C1584 C 0.33533 0.43721 0.00124
 C1585 C 0.32170 0.42631 -0.00139
 C1586 C 0.31062 0.42236 0.01196
 C1587 C 0.31348 0.42958 0.02799
 C1588 C 0.32711 0.44050 0.03059
 H1589 H 0.40008 0.49741 0.05716
 H1590 H 0.40986 0.49844 0.00349
 H1591 H 0.43387 0.51745 0.00820
 H1592 H 0.42385 0.51667 0.06200
 H1593 H 0.34375 0.44006 -0.00918
 H1594 H 0.31996 0.42078 -0.01381
 H1595 H 0.30505 0.42698 0.03846
 H1596 H 0.32908 0.44598 0.04301
 C1597 C 0.49808 0.45417 0.40804
 C1598 C 0.50335 0.47048 0.40381
 C1599 C 0.49766 0.48422 0.41330
 C1600 C 0.48674 0.48168 0.42697
 C1601 C 0.48137 0.46534 0.43133
 C1602 C 0.48716 0.45160 0.42170
 C1603 C 0.51460 0.47310 0.38975
 C1604 C 0.52403 0.47528 0.37797
 C1605 C 0.53507 0.47781 0.36419
 C1606 C 0.54451 0.47998 0.35242
 C1607 C 0.55578 0.48258 0.33836
 C1608 C 0.56299 0.49845 0.33560
 C1609 C 0.57393 0.50100 0.32195
 C1610 C 0.57781 0.48768 0.31087
 C1611 C 0.57049 0.47177 0.31377
 C1612 C 0.55954 0.46925 0.32742
 H1613 H 0.50237 0.44345 0.40075
 H1614 H 0.50170 0.49689 0.41017
 H1615 H 0.48267 0.49248 0.43427
 H1616 H 0.48309 0.43890 0.42462
 H1617 H 0.56020 0.50885 0.34402
 H1618 H 0.57953 0.51333 0.32019
 H1619 H 0.57304 0.46132 0.30534
 H1620 H 0.55399 0.45693 0.32941
 C1621 C -0.00241 -0.01575 0.91330
 C1622 C 0.00308 -0.02947 0.90365
 C1623 C -0.00242 -0.04574 0.90770
 C1624 C -0.01336 -0.04831 0.92134
 C1625 C -0.01897 -0.03460 0.93111
 C1626 C -0.01336 -0.01829 0.92694
 C1627 C 0.01436 -0.02685 0.88961
 C1628 C 0.02381 -0.02467 0.87785
 C1629 C 0.03486 -0.02212 0.86408
 C1630 C 0.04430 -0.01993 0.85231
 C1631 C 0.05557 -0.01731 0.83826
 C1632 C 0.05935 -0.03063 0.82731
 C1633 C 0.07029 -0.02810 0.81365
 C1634 C 0.07759 -0.01218 0.81076
 C1635 C 0.07369 0.00113 0.82185
 C1636 C 0.06276 -0.00143 0.83551
 H1637 H 0.00181 -0.00311 0.91031
 H1638 H 0.00173 -0.05645 0.90029
 H1639 H -0.01760 -0.06099 0.92413
 H1640 H -0.01727 -0.00752 0.93437
 H1641 H 0.05381 -0.04297 0.82930
 H1642 H 0.07285 -0.03854 0.80522
 H1643 H 0.07927 0.01347 0.82010
 H1644 H 0.05996 0.00896 0.84393
 C1645 C -0.00223 0.01647 0.58693
 C1646 C 0.00333 0.03010 0.59671
 C1647 C -0.00207 0.04642 0.59278
 C1648 C -0.01299 0.04912 0.57912
 C1649 C -0.01866 0.03551 0.56920
 C1650 C -0.01316 0.01914 0.57327
 C1651 C 0.01457 0.02734 0.61078
 C1652 C 0.02399 0.02503 0.62256
 C1653 C 0.03501 0.02235 0.63637
 C1654 C 0.04442 0.02007 0.64816
 C1655 C 0.05565 0.01735 0.66224
 C1656 C 0.05956 0.03063 0.67323
 C1657 C 0.07047 0.02801 0.68691
 C1658 C 0.07763 0.01204 0.68979
 C1659 C 0.07361 -0.00123 0.67866
 C1660 C 0.06270 0.00143 0.66498
 H1661 H 0.00191 0.00379 0.58984
 H1662 H 0.00212 0.05705 0.60030
 H1663 H -0.01717 0.06183 0.57644
 H1664 H -0.01715 0.00844 0.56575
 H1665 H 0.05413 0.04300 0.67125
 H1666 H 0.07313 0.03841 0.69537
 H1667 H 0.07908 -0.01360 0.68041
 H1668 H 0.05980 -0.00893 0.65652
 C1669 C 0.49799 0.51652 0.08710
 C1670 C 0.50366 0.53015 0.09682
 C1671 C 0.49835 0.54649 0.09284
 C1672 C 0.48740 0.54920 0.07920
 C1673 C 0.48161 0.53559 0.06937
 C1674 C 0.48703 0.51921 0.07347
 C1675 C 0.51491 0.52736 0.11087
 C1676 C 0.52433 0.52504 0.12265
 C1677 C 0.53535 0.52232 0.13645
 C1678 C 0.54475 0.52001 0.14824
 C1679 C 0.55598 0.51726 0.16232
 C1680 C 0.55990 0.53052 0.17333
 C1681 C 0.57081 0.52787 0.18701
 C1682 C 0.57793 0.51188 0.18988
 C1683 C 0.57389 0.49863 0.17874
 C1684 C 0.56299 0.50132 0.16506
 H1685 H 0.50206 0.50383 0.09005
 H1686 H 0.50263 0.55712 0.10030
 H1687 H 0.48329 0.56193 0.07649
 H1688 H 0.48297 0.50850 0.06600
 H1689 H 0.55450 0.54290 0.17135
 H1690 H 0.57348 0.53826 0.19548
 H1691 H 0.57933 0.48624 0.18048
 H1692 H 0.56007 0.49097 0.15659
 C1693 C 0.51394 -0.02827 0.09884
 C1694 C 0.49651 -0.03014 0.09665
 C1695 C 0.49005 -0.03472 0.08079
 C1696 C 0.50097 -0.03743 0.06717
 C1697 C 0.51852 -0.03557 0.06924
 C1698 C 0.52489 -0.03096 0.08523
 C1699 C 0.48526 -0.02738 0.11067
 C1700 C 0.47584 -0.02507 0.12242
 C1701 C 0.46481 -0.02238 0.13618
 C1702 C 0.45540 -0.02009 0.14793
 C1703 C 0.44417 -0.01736 0.16198
 C1704 C 0.42724 -0.02231 0.16083
 C1705 C 0.41632 -0.01969 0.17448
 C1706 C 0.42220 -0.01207 0.18946
 C1707 C 0.43925 -0.00713 0.19048
 C1708 C 0.45014 -0.00977 0.17682
 H1709 H 0.51908 -0.02477 0.11107
 H1710 H 0.47657 -0.03617 0.07895
 H1711 H 0.49569 -0.04078 0.05497
 H1712 H 0.53835 -0.02965 0.08728
 H1713 H 0.42247 -0.02816 0.14939
 H1714 H 0.40323 -0.02343 0.17323
 H1715 H 0.44421 -0.00144 0.20191
 H1716 H 0.46323 -0.00593 0.17786
 C1717 C 1.01410 0.47189 0.59896
 C1718 C 0.99667 0.47002 0.59674
 C1719 C 0.99024 0.46544 0.58087
 C1720 C 1.00119 0.46272 0.56727
 C1721 C 1.01874 0.46456 0.56938
 C1722 C 1.02508 0.46919 0.58538
 C1723 C 0.98539 0.47278 0.61074
 C1724 C 0.97595 0.47508 0.62247
 C1725 C 0.96490 0.47777 0.63621
 C1726 C 0.95547 0.48005 0.64795
 C1727 C 0.94421 0.48277 0.66198
 C1728 C 0.92729 0.47784 0.66080
 C1729 C 0.91635 0.48044 0.67444
 C1730 C 0.92221 0.48804 0.68944
 C1731 C 0.93926 0.49296 0.69049
 C1732 C 0.95017 0.49033 0.67685
 H1733 H 1.01922 0.47539 0.61121
 H1734 H 0.97677 0.46400 0.57900
 H1735 H 0.99592 0.45939 0.55506
 H1736 H 1.03853 0.47051 0.58744
 H1737 H 0.92253 0.47201 0.64934
 H1738 H 0.90326 0.47671 0.67316
 H1739 H 0.94421 0.49863 0.70194
 H1740 H 0.96327 0.49415 0.67791
 C1741 C 1.01424 0.52783 0.90126
 C1742 C 0.99682 0.52973 0.90340
 C1743 C 0.99038 0.53428 0.91924
 C1744 C 1.00131 0.53692 0.93291
 C1745 C 1.01885 0.53505 0.93090
 C1746 C 1.02520 0.53046 0.91491
 C1747 C 0.98555 0.52703 0.88933
 C1748 C 0.97612 0.52477 0.87755
 C1749 C 0.96508 0.52214 0.86376
 C1750 C 0.95564 0.51991 0.85197
 C1751 C 0.94438 0.51725 0.83790
 C1752 C 0.93724 0.50134 0.83515
 C1753 C 0.92631 0.49873 0.82148
 C1754 C 0.92234 0.51204 0.81037
 C1755 C 0.92958 0.52799 0.81326
 C1756 C 0.94052 0.53056 0.82693
 H1757 H 1.01936 0.52435 0.88904
 H1758 H 0.97690 0.53574 0.92105
 H1759 H 0.99602 0.54023 0.94511
 H1760 H 1.03865 0.52912 0.91292
 H1761 H 0.94011 0.49096 0.84360
 H1762 H 0.92077 0.48637 0.81973
 H1763 H 0.92696 0.53842 0.80481
 H1764 H 0.94601 0.54291 0.82891
 C1765 C 0.51413 0.02805 0.40134
 C1766 C 0.49669 0.02971 0.40357
 C1767 C 0.49025 0.03392 0.41951
 C1768 C 0.50121 0.03647 0.43318
 C1769 C 0.51876 0.03481 0.43107
 C1770 C 0.52510 0.03058 0.41499
 C1771 C 0.48541 0.02707 0.38950
 C1772 C 0.47597 0.02486 0.37772
 C1773 C 0.46493 0.02226 0.36391
 C1774 C 0.45551 0.02003 0.35212
 C1775 C 0.44426 0.01735 0.33803
 C1776 C 0.43716 0.00143 0.33527
 C1777 C 0.42625 -0.00119 0.32158
 C1778 C 0.42229 0.01210 0.31046
 C1779 C 0.42950 0.02807 0.31336
 C1780 C 0.44041 0.03065 0.32705
 H1781 H 0.51925 0.02484 0.38904
 H1782 H 0.47677 0.03521 0.42138
 H1783 H 0.49595 0.03954 0.44545
 H1784 H 0.53856 0.02945 0.41292
 H1785 H 0.44002 -0.00894 0.34373
 H1786 H 0.42074 -0.01356 0.31983
 H1787 H 0.42688 0.03849 0.30490
 H1788 H 0.44588 0.04302 0.32904
   
