data_POSCAR
  _audit_creation_date              2014-09-24
  _audit_creation_method            'ToBaCCo'
  _symmetry_space_group_name_H-M    'P1'
  _symmetry_Int_Tables_number       1
  _symmetry_cell_setting            triclinic
  loop_
  _symmetry_equiv_pos_as_xyz
 x,y,z
_cell_length_a 55.5009
_cell_length_b 39.8443
_cell_length_c 40.9592
_cell_angle_alpha 89.511300
_cell_angle_beta 89.326500
_cell_angle_gamma 84.750100
loop_
  _atom_site_label
  _atom_site_type_symbol
  _atom_site_fract_x
  _atom_site_fract_y
  _atom_site_fract_z
C1 C 1.23161 0.22668 0.20216
 C2 C 1.24714 0.25107 0.18428
 C3 C 1.25863 0.27155 0.20439
 C4 C 1.25362 0.26511 0.24113
 C5 C 1.24923 0.20736 0.22557
 C6 C 1.26063 0.22704 0.24645
 C7 C 1.21468 0.24937 0.22399
 C8 C 1.22594 0.26886 0.24490
 H9 H 1.25036 0.25061 0.15829
 H10 H 1.26239 0.28168 0.25799
 H11 H 1.25269 0.18021 0.22472
 H12 H 1.19518 0.24915 0.22342
 C13 C 0.73588 -0.28102 0.19784
 C14 C 0.75072 -0.25652 0.17886
 C15 C 0.76346 -0.23683 0.19819
 C16 C 0.75980 -0.24316 0.23515
 C17 C 0.75427 -0.30072 0.22001
 C18 C 0.76670 -0.28116 0.23962
 C19 C 0.72001 -0.25820 0.22082
 C20 C 0.73228 -0.23910 0.24095
 H21 H 0.75094 -0.25417 0.15260
 H22 H 0.77002 -0.22735 0.25117
 H23 H 0.75662 -0.32801 0.22074
 H24 H 0.70048 -0.25814 0.22176
 C25 C 0.73126 0.22106 -0.30396
 C26 C 0.74559 0.24432 -0.32152
 C27 C 0.75895 0.26478 -0.30073
 C28 C 0.75459 0.25815 -0.26569
 C29 C 0.74825 0.20183 -0.28264
 C30 C 0.76125 0.22184 -0.26124
 C31 C 0.71577 0.24287 -0.28270
 C32 C 0.72823 0.26260 -0.26052
 H33 H 0.74338 0.25011 -0.34716
 H34 H 0.76480 0.27345 -0.24958
 H35 H 0.74954 0.17455 -0.28158
 H36 H 0.69634 0.24635 -0.28587
 C37 C 1.23676 -0.27683 -0.29933
 C38 C 1.25115 -0.25076 -0.31650
 C39 C 1.26148 -0.22956 -0.29590
 C40 C 1.25662 -0.23714 -0.25937
 C41 C 1.25522 -0.29517 -0.27629
 C42 C 1.26527 -0.27481 -0.25469
 C43 C 1.21881 -0.25638 -0.27708
 C44 C 1.22896 -0.23592 -0.25589
 H45 H 1.25477 -0.25131 -0.34249
 H46 H 1.26458 -0.22016 -0.24211
 H47 H 1.26054 -0.32190 -0.27799
 H48 H 1.19950 -0.25843 -0.27804
 C49 C 0.23801 0.22493 0.79918
 C50 C 0.25162 0.24862 0.81601
 C51 C 0.26448 0.27028 0.79516
 C52 C 0.26086 0.26370 0.76034
 C53 C 0.22157 0.24633 0.77576
 C54 C 0.23327 0.26656 0.75533
 C55 C 0.25643 0.20556 0.77623
 C56 C 0.26833 0.22576 0.75572
 H57 H 0.25390 0.24677 0.84215
 H58 H 0.26978 0.27980 0.74269
 H59 H 0.20224 0.24449 0.77464
 H60 H 0.25903 0.17845 0.77464
 C61 C 0.73256 0.73140 0.80513
 C62 C 0.74684 0.75437 0.82205
 C63 C 0.75960 0.77599 0.80104
 C64 C 0.75504 0.77018 0.76618
 C65 C 0.71663 0.75242 0.78391
 C66 C 0.72854 0.77448 0.76259
 C67 C 0.74928 0.71302 0.78248
 C68 C 0.76217 0.73402 0.76093
 H69 H 0.74973 0.75213 0.84809
 H70 H 0.76417 0.78730 0.75011
 H71 H 0.69793 0.74754 0.78065
 H72 H 0.74838 0.68656 0.77755
 C73 C 0.73754 0.22558 0.29902
 C74 C 0.75357 0.24635 0.31961
 C75 C 0.76471 0.27024 0.30237
 C76 C 0.75897 0.27044 0.26543
 C77 C 0.72024 0.25160 0.28149
 C78 C 0.73121 0.27503 0.26385
 C79 C 0.75477 0.21070 0.27230
 C80 C 0.76559 0.23394 0.25420
 H81 H 0.75706 0.24091 0.34510
 H82 H 0.76767 0.28956 0.25079
 H83 H 0.70085 0.25011 0.28154
 H84 H 0.75882 0.18388 0.26873
 C85 C 0.23369 0.72342 0.29530
 C86 C 0.24959 0.74625 0.31382
 C87 C 0.26117 0.76799 0.29438
 C88 C 0.25598 0.76408 0.25753
 C89 C 0.21690 0.74792 0.27522
 C90 C 0.22826 0.76848 0.25476
 C91 C 0.25096 0.70545 0.27033
 C92 C 0.26255 0.72639 0.25037
 H93 H 0.25282 0.74394 0.33965
 H94 H 0.26502 0.78119 0.24090
 H95 H 0.19739 0.74780 0.27621
 H96 H 0.25395 0.67824 0.26902
 O97 O 1.03037 0.05808 0.05607
 O98 O 1.05728 0.02423 0.02519
 C99 C 1.05220 0.04707 0.04716
 O100 O 0.96333 -0.05384 0.05809
 O101 O 0.93643 -0.01900 0.02838
 C102 C 0.94147 -0.04263 0.04998
 O103 O 1.03122 -0.05806 0.06055
 O104 O 1.05773 -0.03135 0.02811
 C105 C 1.05297 -0.05163 0.05177
 O106 O 0.96295 0.07065 0.05161
 O107 O 0.93615 0.04032 0.02485
 C108 C 0.94118 0.06456 0.04395
 Zr109 Zr 0.99663 0.04532 0.03859
 O110 O 0.99499 0.04156 0.09006
 O111 O 0.99873 0.09797 0.04070
 Zr112 Zr 0.99707 -0.03879 0.04190
 O113 O 0.99579 -0.03270 0.09311
 O114 O 0.99919 -0.09195 0.04581
 O115 O 1.01853 0.00098 0.04634
 O116 O 0.97537 0.00607 0.04613
 O117 O 0.96340 0.06530 -0.06005
 O118 O 0.93636 0.03757 -0.02969
 C119 C 0.94153 0.05959 -0.05164
 O120 O 1.03170 -0.06216 -0.05854
 O121 O 1.05795 -0.03360 -0.02886
 C122 C 1.05337 -0.05543 -0.05070
 O123 O 0.96394 -0.05797 -0.05479
 O124 O 0.93669 -0.02135 -0.02731
 C125 C 0.94199 -0.04626 -0.04718
 O126 O 1.03103 0.05555 -0.06204
 O127 O 1.05758 0.02237 -0.03047
 C128 C 1.05277 0.04483 -0.05309
 Zr129 Zr 0.99710 0.04278 -0.04399
 O130 O 0.99508 0.03971 -0.09548
 O131 O 0.99911 0.09551 -0.04728
 Zr132 Zr 0.99750 -0.04200 -0.04032
 O133 O 0.99545 -0.04531 -0.09173
 O134 O 0.99907 -0.09493 -0.03468
 Zr135 Zr 1.03304 -0.00218 -0.00139
 Zr136 Zr 0.96073 0.00623 -0.00102
 O137 O 0.97624 0.00264 -0.04813
 O138 O 1.01891 -0.00230 -0.04886
 O139 O 0.97533 0.05328 -0.00294
 O140 O 1.01847 -0.04901 0.00089
 O141 O 1.01766 0.04802 -0.00300
 O142 O 0.97563 -0.04433 0.00112
 H143 H 0.96415 0.00831 0.06515
 H144 H 1.02961 -0.06990 0.00168
 H145 H 0.96548 0.00313 -0.06729
 H146 H 1.02819 0.06680 -0.00358
 H147 H 0.98995 -0.09997 0.02737
 H148 H 0.99940 -0.10425 -0.05705
 H149 H 1.00705 -0.03035 -0.10109
 H150 H 1.01010 0.02689 -0.10338
 H151 H 0.98590 0.10644 -0.03358
 H152 H 0.99084 0.10774 0.02085
 H153 H 0.99453 0.06495 0.09821
 H154 H 0.99589 -0.05570 0.10253
 O155 O 1.03062 0.55778 0.56467
 O156 O 1.05749 0.52359 0.53415
 C157 C 1.05248 0.54684 0.55572
 O158 O 0.96470 0.44394 0.56783
 O159 O 0.93728 0.47844 0.53867
 C160 C 0.94271 0.45468 0.55999
 O161 O 1.03249 0.44115 0.56996
 O162 O 1.05849 0.46830 0.53718
 C163 C 1.05408 0.44790 0.56086
 O164 O 0.96285 0.56784 0.56243
 O165 O 0.93640 0.53746 0.53507
 C166 C 0.94113 0.56129 0.55485
 Zr167 Zr 0.99682 0.54448 0.54754
 O168 O 0.99483 0.54732 0.59908
 O169 O 0.99718 0.59727 0.54247
 Zr170 Zr 0.99815 0.45982 0.55154
 O171 O 0.99688 0.46550 0.60279
 O172 O 1.00092 0.40663 0.55542
 O173 O 1.01906 0.50029 0.55558
 O174 O 0.97625 0.50445 0.55576
 O175 O 0.96305 0.56369 0.45028
 O176 O 0.93640 0.53495 0.48038
 C177 C 0.94130 0.55747 0.45875
 O178 O 1.03254 0.43687 0.45082
 O179 O 1.05859 0.46617 0.48013
 C180 C 1.05414 0.44429 0.45828
 O181 O 0.96475 0.43938 0.45566
 O182 O 0.93729 0.47573 0.48310
 C183 C 0.94277 0.45067 0.46348
 O184 O 1.03060 0.55316 0.44562
 O185 O 1.05748 0.52156 0.47808
 C186 C 1.05243 0.54294 0.45462
 Zr187 Zr 0.99691 0.54106 0.46529
 O188 O 0.99407 0.53836 0.41388
 O189 O 0.99842 0.59387 0.46228
 Zr190 Zr 0.99818 0.45621 0.46938
 O191 O 0.99569 0.45274 0.41802
 O192 O 1.00046 0.40324 0.47505
 Zr193 Zr 1.03343 0.49693 0.50783
 Zr194 Zr 0.96119 0.50398 0.50887
 O195 O 0.97642 0.50047 0.46159
 O196 O 1.01906 0.49629 0.46050
 O197 O 0.97515 0.55139 0.50644
 O198 O 1.01941 0.44976 0.51038
 O199 O 1.01779 0.54696 0.50583
 O200 O 0.97659 0.45367 0.51106
 H201 H 0.96530 0.50637 0.57508
 H202 H 1.03078 0.42910 0.51109
 H203 H 0.96548 0.50077 0.44263
 H204 H 1.02836 0.56569 0.50473
 H205 H 0.99163 0.39837 0.53715
 H206 H 1.00079 0.39391 0.45268
 H207 H 1.00756 0.46713 0.40840
 H208 H 1.00843 0.52428 0.40566
 H209 H 0.98833 0.60389 0.48042
 H210 H 0.99726 0.60631 0.56494
 H211 H 1.00595 0.52860 0.60774
 H212 H 0.99738 0.44240 0.61206
 O213 O 0.53232 0.05040 0.55133
 O214 O 0.55929 0.01630 0.52082
 C215 C 0.55417 0.03944 0.54246
 O216 O 0.46581 -0.06302 0.55348
 O217 O 0.43874 -0.02820 0.52397
 C218 C 0.44393 -0.05184 0.54545
 O219 O 0.53352 -0.06568 0.55676
 O220 O 0.56003 -0.03976 0.52378
 C221 C 0.55530 -0.05964 0.54782
 O222 O 0.46483 0.06177 0.54776
 O223 O 0.43816 0.03110 0.52113
 C224 C 0.44307 0.05524 0.54042
 Zr225 Zr 0.49864 0.03707 0.53421
 O226 O 0.49729 0.03362 0.58571
 O227 O 0.50040 0.08982 0.53573
 Zr228 Zr 0.49944 -0.04717 0.53776
 O229 O 0.49788 -0.04104 0.58897
 O230 O 0.50204 -0.10033 0.54188
 O231 O 0.52071 -0.00713 0.54209
 O232 O 0.47762 -0.00245 0.54203
 O233 O 0.46523 0.05602 0.43504
 O234 O 0.43849 0.02888 0.46653
 C235 C 0.44347 0.05050 0.44414
 O236 O 0.53426 -0.07039 0.43725
 O237 O 0.56024 -0.04126 0.46685
 C238 C 0.55585 -0.06305 0.44493
 O239 O 0.46624 -0.06696 0.44146
 O240 O 0.43894 -0.03024 0.46881
 C241 C 0.44428 -0.05524 0.44905
 O242 O 0.53283 0.04655 0.43290
 O243 O 0.55949 0.01411 0.46491
 C244 C 0.55461 0.03609 0.44190
 Zr245 Zr 0.49899 0.03405 0.45156
 O246 O 0.49683 0.03108 0.40008
 O247 O 0.50086 0.08683 0.44855
 Zr248 Zr 0.49983 -0.05071 0.45562
 O249 O 0.49761 -0.05424 0.40423
 O250 O 0.50172 -0.10364 0.46134
 Zr251 Zr 0.53520 -0.01041 0.49438
 Zr252 Zr 0.46292 -0.00248 0.49497
 O253 O 0.47832 -0.00627 0.44778
 O254 O 0.52100 -0.01085 0.44692
 O255 O 0.47726 0.04470 0.49271
 O256 O 0.52087 -0.05740 0.49678
 O257 O 0.51960 0.03968 0.49247
 O258 O 0.47802 -0.05298 0.49710
 H259 H 0.46641 -0.00044 0.56107
 H260 H 0.53213 -0.07817 0.49759
 H261 H 0.46753 -0.00594 0.42865
 H262 H 0.53010 0.05850 0.49164
 H263 H 0.49306 -0.10862 0.52332
 H264 H 0.50210 -0.11298 0.43898
 H265 H 0.50933 -0.03954 0.39473
 H266 H 0.51155 0.01757 0.39216
 H267 H 0.48725 0.09766 0.46163
 H268 H 0.49173 0.09940 0.51637
 H269 H 0.49680 0.05706 0.59372
 H270 H 0.49806 -0.06404 0.59840
 O271 O 0.53239 0.54953 0.05752
 O272 O 0.55965 0.51592 0.02693
 C273 C 0.55432 0.53870 0.04885
 O274 O 0.46577 0.43597 0.05551
 O275 O 0.43904 0.47204 0.02674
 C276 C 0.44398 0.44764 0.04753
 O277 O 0.53345 0.43374 0.06080
 O278 O 0.56034 0.45990 0.02855
 C279 C 0.55529 0.44004 0.05244
 O280 O 0.46496 0.56126 0.05233
 O281 O 0.43860 0.53101 0.02463
 C282 C 0.44328 0.55487 0.04439
 Zr283 Zr 0.49888 0.53629 0.03959
 O284 O 0.49711 0.53042 0.09087
 O285 O 0.49960 0.58898 0.04428
 Zr286 Zr 0.49959 0.45209 0.04093
 O287 O 0.49725 0.45648 0.09228
 O288 O 0.50236 0.39882 0.04335
 O289 O 0.52083 0.49194 0.04679
 O290 O 0.47773 0.49672 0.04582
 O291 O 0.46663 0.55797 -0.05979
 O292 O 0.43951 0.52999 -0.02980
 C293 C 0.44478 0.55223 -0.05142
 O294 O 0.53542 0.43151 -0.05947
 O295 O 0.56119 0.45935 -0.02830
 C296 C 0.55698 0.43814 -0.05089
 O297 O 0.46755 0.43493 -0.05689
 O298 O 0.43996 0.47072 -0.02900
 C299 C 0.44551 0.44637 -0.04941
 O300 O 0.53420 0.54928 -0.06010
 O301 O 0.56053 0.51524 -0.02895
 C302 C 0.55588 0.53844 -0.05093
 Zr303 Zr 0.50027 0.53553 -0.04317
 O304 O 0.50309 0.53268 -0.09478
 O305 O 0.50112 0.58853 -0.04520
 Zr306 Zr 0.50090 0.45075 -0.04130
 O307 O 0.49973 0.44889 -0.09286
 O308 O 0.50265 0.39770 -0.03698
 Zr309 Zr 0.53589 0.48990 -0.00068
 Zr310 Zr 0.46358 0.49789 -0.00162
 O311 O 0.47947 0.49542 -0.04852
 O312 O 0.52223 0.49072 -0.04840
 O313 O 0.47809 0.54504 -0.00226
 O314 O 0.52149 0.44291 0.00021
 O315 O 0.52035 0.54002 -0.00158
 O316 O 0.47862 0.44736 -0.00041
 H317 H 0.46630 0.49839 0.06464
 H318 H 0.53274 0.42213 0.00086
 H319 H 0.46871 0.49610 -0.06767
 H320 H 0.53081 0.55887 -0.00164
 H321 H 0.49308 0.39112 0.02480
 H322 H 0.50332 0.38897 -0.05959
 H323 H 0.50952 0.46668 -0.10127
 H324 H 0.48745 0.52708 -0.10361
 H325 H 0.48817 0.59854 -0.03050
 H326 H 0.50080 0.59820 0.02193
 H327 H 0.49615 0.55350 0.09989
 H328 H 0.49744 0.43318 0.10097
 C329 C 1.18552 0.16401 0.14947
 C330 C 1.18672 0.16296 0.18354
 C331 C 1.20258 0.18199 0.19978
 C332 C 1.21725 0.20324 0.18243
 C333 C 1.21661 0.20318 0.14800
 C334 C 1.20096 0.18349 0.13170
 C335 C 1.16674 0.14684 0.13300
 C336 C 1.17287 0.12010 0.11161
 C337 C 1.15471 0.10286 0.09769
 C338 C 1.13011 0.11256 0.10453
 C339 C 1.12421 0.14010 0.12533
 C340 C 1.14234 0.15677 0.13968
 C341 C 1.11060 0.09421 0.09024
 C342 C 1.08904 0.09076 0.10793
 C343 C 1.07012 0.07529 0.09399
 C344 C 1.07253 0.06216 0.06237
 C345 C 1.09429 0.06448 0.04498
 C346 C 1.11305 0.08062 0.05865
 H347 H 1.17496 0.14792 0.19761
 H348 H 1.20271 0.18122 0.22622
 H349 H 1.22746 0.21874 0.13333
 H350 H 1.20015 0.18455 0.10530
 H351 H 1.19168 0.11206 0.10638
 H352 H 1.15998 0.08156 0.08215
 H353 H 1.10555 0.14899 0.13045
 H354 H 1.13733 0.17762 0.15595
 H355 H 1.08671 0.10000 0.13264
 H356 H 1.05363 0.07342 0.10803
 H357 H 1.09650 0.05476 0.02040
 H358 H 1.12918 0.08318 0.04408
 C359 C 1.19084 0.66331 0.64492
 C360 C 1.20078 0.65110 0.67450
 C361 C 1.21662 0.66958 0.69150
 C362 C 1.22348 0.70039 0.67898
 C363 C 1.21379 0.71222 0.64894
 C364 C 1.19780 0.69376 0.63201
 C365 C 1.17162 0.64580 0.62940
 C366 C 1.17347 0.61046 0.62766
 C367 C 1.15435 0.59390 0.61568
 C368 C 1.13297 0.61236 0.60537
 C369 C 1.13133 0.64771 0.60649
 C370 C 1.15047 0.66427 0.61834
 C371 C 1.11238 0.59483 0.59366
 C372 C 1.08858 0.60567 0.60334
 C373 C 1.06910 0.58962 0.59166
 C374 C 1.07305 0.56249 0.56998
 C375 C 1.09693 0.55138 0.56074
 C376 C 1.11637 0.56734 0.57250
 H377 H 1.19522 0.62818 0.68548
 H378 H 1.22246 0.66044 0.71533
 H379 H 1.21755 0.73652 0.63917
 H380 H 1.19030 0.70380 0.60927
 H381 H 1.18962 0.59565 0.63590
 H382 H 1.15604 0.56661 0.61523
 H383 H 1.11518 0.66255 0.59828
 H384 H 1.14843 0.69151 0.61980
 H385 H 1.08504 0.62652 0.62002
 H386 H 1.05095 0.59879 0.59927
 H387 H 1.10066 0.53066 0.54394
 H388 H 1.13451 0.55867 0.56442
 C389 C 0.68643 0.15937 0.64286
 C390 C 0.68454 0.16205 0.67678
 C391 C 0.70004 0.18092 0.69375
 C392 C 0.71737 0.19894 0.67717
 C393 C 0.72033 0.19389 0.64311
 C394 C 0.70490 0.17437 0.62618
 C395 C 0.66807 0.14245 0.62526
 C396 C 0.67445 0.11361 0.60662
 C397 C 0.65642 0.09608 0.59274
 C398 C 0.63180 0.10749 0.59698
 C399 C 0.62572 0.13724 0.61462
 C400 C 0.64365 0.15431 0.62887
 C401 C 0.61239 0.08846 0.58357
 C402 C 0.59041 0.08704 0.60082
 C403 C 0.57158 0.07083 0.58761
 C404 C 0.57447 0.05506 0.55718
 C405 C 0.59665 0.05542 0.54034
 C406 C 0.61537 0.07216 0.55329
 H407 H 0.67071 0.14994 0.69013
 H408 H 0.69787 0.18254 0.72004
 H409 H 0.73430 0.20485 0.62917
 H410 H 0.70687 0.17186 0.59995
 H411 H 0.69326 0.10405 0.60381
 H412 H 0.66174 0.07313 0.57955
 H413 H 0.60705 0.14736 0.61757
 H414 H 0.63847 0.17677 0.64296
 H415 H 0.58771 0.09849 0.62461
 H416 H 0.55477 0.07057 0.60127
 H417 H 0.59928 0.04365 0.51666
 H418 H 0.63191 0.07307 0.53917
 C419 C 0.68830 0.65637 0.14797
 C420 C 0.68922 0.65707 0.18204
 C421 C 0.70550 0.67606 0.19744
 C422 C 0.72078 0.69568 0.17920
 C423 C 0.72062 0.69352 0.14485
 C424 C 0.70453 0.67386 0.12940
 C425 C 0.66929 0.63907 0.13224
 C426 C 0.67516 0.61205 0.11108
 C427 C 0.65682 0.59472 0.09781
 C428 C 0.63232 0.60461 0.10504
 C429 C 0.62666 0.63234 0.12565
 C430 C 0.64497 0.64913 0.13937
 C431 C 0.61266 0.58637 0.09112
 C432 C 0.59122 0.58295 0.10910
 C433 C 0.57224 0.56735 0.09545
 C434 C 0.57453 0.55411 0.06387
 C435 C 0.59612 0.55661 0.04617
 C436 C 0.61490 0.57284 0.05952
 H437 H 0.67700 0.64335 0.19673
 H438 H 0.70553 0.67649 0.22389
 H439 H 0.73243 0.70712 0.12961
 H440 H 0.70410 0.67330 0.10298
 H441 H 0.69390 0.60387 0.10555
 H442 H 0.66189 0.57322 0.08243
 H443 H 0.60806 0.64132 0.13107
 H444 H 0.64017 0.67019 0.15546
 H445 H 0.58906 0.59227 0.13380
 H446 H 0.55583 0.56542 0.10967
 H447 H 0.59820 0.54692 0.02156
 H448 H 0.63090 0.57549 0.04471
 C449 C 0.81176 -0.16826 0.15710
 C450 C 0.79973 -0.16090 0.18697
 C451 C 0.78406 -0.18312 0.20045
 C452 C 0.78019 -0.21316 0.18439
 C453 C 0.79258 -0.22064 0.15480
 C454 C 0.80806 -0.19846 0.14131
 C455 C 0.82859 -0.14516 0.14253
 C456 C 0.82881 -0.13907 0.10866
 C457 C 0.84596 -0.11972 0.09444
 C458 C 0.86336 -0.10610 0.11374
 C459 C 0.86264 -0.11124 0.14775
 C460 C 0.84539 -0.13048 0.16201
 C461 C 0.88303 -0.08837 0.09823
 C462 C 0.90697 -0.09503 0.10885
 C463 C 0.92580 -0.07998 0.09331
 C464 C 0.92119 -0.05775 0.06679
 C465 C 0.89718 -0.05063 0.05644
 C466 C 0.87831 -0.06589 0.07192
 H467 H 0.80216 -0.13772 0.19963
 H468 H 0.77469 -0.17645 0.22311
 H469 H 0.79065 -0.24399 0.14219
 H470 H 0.81753 -0.20528 0.11872
 H471 H 0.81588 -0.14969 0.09307
 H472 H 0.84614 -0.11643 0.06817
 H473 H 0.87564 -0.10073 0.16331
 H474 H 0.84575 -0.13486 0.18813
 H475 H 0.91126 -0.11260 0.12870
 H476 H 0.94404 -0.08603 0.10203
 H477 H 0.89298 -0.03361 0.03611
 H478 H 0.86001 -0.06008 0.06334
 C479 C 0.81014 0.32869 0.66074
 C480 C 0.80062 0.33399 0.69237
 C481 C 0.78358 0.31336 0.70521
 C482 C 0.77538 0.28708 0.68651
 C483 C 0.78466 0.28281 0.65437
 C484 C 0.80175 0.30315 0.64184
 C485 C 0.82941 0.34867 0.64754
 C486 C 0.84958 0.33226 0.63141
 C487 C 0.86760 0.35063 0.61814
 C488 C 0.86588 0.38591 0.62051
 C489 C 0.84570 0.40246 0.63660
 C490 C 0.82771 0.38397 0.65023
 C491 C 0.88532 0.40497 0.60633
 C492 C 0.87985 0.43409 0.58722
 C493 C 0.89841 0.45054 0.57226
 C494 C 0.92280 0.43835 0.57644
 C495 C 0.92815 0.40968 0.59625
 C496 C 0.90967 0.39319 0.61090
 H497 H 0.80674 0.35366 0.70745
 H498 H 0.77662 0.31890 0.72949
 H499 H 0.77979 0.26268 0.63894
 H500 H 0.80863 0.29864 0.61725
 H501 H 0.85148 0.30507 0.62921
 H502 H 0.88281 0.33721 0.60564
 H503 H 0.84401 0.42963 0.63893
 H504 H 0.81227 0.39724 0.66239
 H505 H 0.86121 0.44359 0.58314
 H506 H 0.89365 0.47261 0.55726
 H507 H 0.94668 0.39955 0.60014
 H508 H 0.91444 0.37106 0.62582
 C509 C 0.31075 -0.16093 0.66524
 C510 C 0.29123 -0.16997 0.64671
 C511 C 0.27466 -0.19080 0.65990
 C512 C 0.27740 -0.20393 0.69179
 C513 C 0.29624 -0.19367 0.71087
 C514 C 0.31262 -0.17231 0.69783
 C515 C 0.32977 -0.14160 0.64991
 C516 C 0.35417 -0.14838 0.65865
 C517 C 0.37230 -0.13245 0.64242
 C518 C 0.36665 -0.10975 0.61654
 C519 C 0.34219 -0.10226 0.60836
 C520 C 0.32400 -0.11773 0.62501
 C521 C 0.38625 -0.09483 0.59766
 C522 C 0.38276 -0.06199 0.58448
 C523 C 0.40128 -0.04827 0.56679
 C524 C 0.42381 -0.06682 0.56240
 C525 C 0.42731 -0.09960 0.57534
 C526 C 0.40870 -0.11356 0.59244
 H527 H 0.28915 -0.16205 0.62148
 H528 H 0.25995 -0.19710 0.64468
 H529 H 0.29899 -0.20294 0.73549
 H530 H 0.32703 -0.16523 0.71320
 H531 H 0.35947 -0.16683 0.67736
 H532 H 0.39083 -0.13827 0.65005
 H533 H 0.33707 -0.08512 0.58848
 H534 H 0.30540 -0.11126 0.61800
 H535 H 0.36589 -0.04659 0.58833
 H536 H 0.39818 -0.02281 0.55729
 H537 H 0.44442 -0.11462 0.57200
 H538 H 0.41192 -0.13922 0.60131
 C539 C 0.30969 0.33724 0.16435
 C540 C 0.28985 0.32891 0.14604
 C541 C 0.27282 0.30892 0.15951
 C542 C 0.27537 0.29592 0.19149
 C543 C 0.29466 0.30533 0.21025
 C544 C 0.31152 0.32583 0.19693
 C545 C 0.32893 0.35619 0.14893
 C546 C 0.35331 0.34899 0.15758
 C547 C 0.37156 0.36497 0.14164
 C548 C 0.36606 0.38818 0.11612
 C549 C 0.34164 0.39596 0.10791
 C550 C 0.32332 0.38039 0.12426
 C551 C 0.38579 0.40348 0.09775
 C552 C 0.38241 0.43661 0.08522
 C553 C 0.40108 0.45074 0.06817
 C554 C 0.42367 0.43230 0.06376
 C555 C 0.42703 0.39922 0.07601
 C556 C 0.40828 0.38488 0.09248
 H557 H 0.28779 0.33686 0.12082
 H558 H 0.25783 0.30333 0.14447
 H559 H 0.29733 0.29615 0.23491
 H560 H 0.32617 0.33237 0.21215
 H561 H 0.35850 0.33026 0.17610
 H562 H 0.39006 0.35887 0.14928
 H563 H 0.33662 0.41347 0.08828
 H564 H 0.30476 0.38719 0.11729
 H565 H 0.36552 0.45193 0.08912
 H566 H 0.39806 0.47642 0.05921
 H567 H 0.44416 0.38425 0.07265
 H568 H 0.41144 0.35903 0.10084
 C569 C 0.81205 0.17708 -0.19303
 C570 C 0.80067 0.20945 -0.18745
 C571 C 0.78409 0.22454 -0.20991
 C572 C 0.77819 0.20731 -0.23833
 C573 C 0.78958 0.17456 -0.24331
 C574 C 0.80627 0.15982 -0.22111
 C575 C 0.83046 0.16138 -0.17033
 C576 C 0.85227 0.14569 -0.18282
 C577 C 0.86962 0.13023 -0.16192
 C578 C 0.86554 0.12993 -0.12802
 C579 C 0.84368 0.14542 -0.11540
 C580 C 0.82633 0.16129 -0.13640
 C581 C 0.88443 0.11376 -0.10628
 C582 C 0.87874 0.09118 -0.08140
 C583 C 0.89716 0.07389 -0.06302
 C584 C 0.92155 0.07915 -0.06910
 C585 C 0.92698 0.10276 -0.09320
 C586 C 0.90868 0.11975 -0.11156
 H587 H 0.80484 0.22329 -0.16590
 H588 H 0.77537 0.24913 -0.20398
 H589 H 0.78650 0.16041 -0.26503
 H590 H 0.81473 0.13474 -0.22596
 H591 H 0.85598 0.14561 -0.20884
 H592 H 0.88621 0.11819 -0.17232
 H593 H 0.84018 0.14565 -0.08933
 H594 H 0.80957 0.17303 -0.12622
 H595 H 0.86015 0.08607 -0.07695
 H596 H 0.89236 0.05597 -0.04458
 H597 H 0.94548 0.10778 -0.09843
 H598 H 0.91352 0.13743 -0.13022
 C599 C 0.81660 0.67438 0.31062
 C600 C 0.81587 0.66088 0.27912
 C601 C 0.79987 0.67560 0.25601
 C602 C 0.78433 0.70427 0.26381
 C603 C 0.78515 0.71806 0.29517
 C604 C 0.80105 0.70309 0.31849
 C605 C 0.83388 0.65868 0.33480
 C606 C 0.82660 0.65269 0.36717
 C607 C 0.84302 0.63700 0.38950
 C608 C 0.86705 0.62756 0.37989
 C609 C 0.87425 0.63369 0.34755
 C610 C 0.85786 0.64901 0.32527
 C611 C 0.88493 0.61162 0.40318
 C612 C 0.90829 0.62232 0.40374
 C613 C 0.92619 0.60538 0.42276
 C614 C 0.92122 0.57722 0.44177
 C615 C 0.89750 0.56745 0.44258
 C616 C 0.87946 0.58458 0.42342
 H617 H 0.82752 0.63863 0.27248
 H618 H 0.79973 0.66461 0.23193
 H619 H 0.77314 0.73993 0.30189
 H620 H 0.80140 0.71412 0.34253
 H621 H 0.80813 0.65968 0.37502
 H622 H 0.83707 0.63265 0.41432
 H623 H 0.89259 0.62631 0.33938
 H624 H 0.86401 0.65355 0.30057
 H625 H 0.91285 0.64353 0.38892
 H626 H 0.94413 0.61401 0.42195
 H627 H 0.89311 0.54592 0.45704
 H628 H 0.86155 0.57584 0.42337
 C629 C 0.31076 0.18318 0.31854
 C630 C 0.29226 0.16500 0.30658
 C631 C 0.27571 0.17956 0.28404
 C632 C 0.27743 0.21254 0.27214
 C633 C 0.29549 0.23108 0.28483
 C634 C 0.31186 0.21667 0.30783
 C635 C 0.32948 0.16658 0.34066
 C636 C 0.35367 0.17414 0.33804
 C637 C 0.37165 0.15655 0.35667
 C638 C 0.36605 0.13044 0.37800
 C639 C 0.34174 0.12362 0.38149
 C640 C 0.32367 0.14163 0.36323
 C641 C 0.38566 0.10958 0.39532
 C642 C 0.38201 0.09656 0.42690
 C643 C 0.40060 0.07678 0.44270
 C644 C 0.42329 0.07007 0.42741
 C645 C 0.42689 0.08288 0.39588
 C646 C 0.40828 0.10210 0.37994
 H647 H 0.29087 0.13908 0.31387
 H648 H 0.26162 0.16465 0.27593
 H649 H 0.29750 0.25648 0.27663
 H650 H 0.32552 0.23177 0.31700
 H651 H 0.35898 0.19288 0.32078
 H652 H 0.39006 0.16315 0.35392
 H653 H 0.33670 0.10364 0.39753
 H654 H 0.30517 0.13559 0.36651
 H655 H 0.36494 0.10208 0.43966
 H656 H 0.39742 0.06739 0.46712
 H657 H 0.44409 0.07773 0.38330
 H658 H 0.41160 0.11073 0.35531
 C659 C 0.31406 0.68412 -0.17995
 C660 C 0.29667 0.66480 -0.19316
 C661 C 0.28064 0.67840 -0.21674
 C662 C 0.28181 0.71155 -0.22842
 C663 C 0.29879 0.73120 -0.21465
 C664 C 0.31465 0.71771 -0.19061
 C665 C 0.33225 0.66850 -0.15662
 C666 C 0.35627 0.67699 -0.15788
 C667 C 0.37396 0.65984 -0.13851
 C668 C 0.36823 0.63329 -0.11780
 C669 C 0.34403 0.62575 -0.11546
 C670 C 0.32622 0.64333 -0.13444
 C671 C 0.38768 0.61245 -0.10026
 C672 C 0.38361 0.59873 -0.06908
 C673 C 0.40199 0.57860 -0.05326
 C674 C 0.42486 0.57227 -0.06813
 C675 C 0.42890 0.58586 -0.09921
 C676 C 0.41050 0.60542 -0.11519
 H677 H 0.29577 0.63873 -0.18598
 H678 H 0.26734 0.66267 -0.22578
 H679 H 0.30030 0.75677 -0.22273
 H680 H 0.32749 0.73358 -0.18056
 H681 H 0.36170 0.69601 -0.17476
 H682 H 0.39229 0.66697 -0.14032
 H683 H 0.33892 0.60544 -0.09989
 H684 H 0.30781 0.63664 -0.13220
 H685 H 0.36635 0.60388 -0.05671
 H686 H 0.39850 0.56861 -0.02916
 H687 H 0.44626 0.58101 -0.11145
 H688 H 0.41414 0.61462 -0.13953
 C689 C 1.18564 -0.18056 -0.18285
 C690 C 1.20632 -0.16735 -0.19616
 C691 C 1.22065 -0.18540 -0.21965
 C692 C 1.21455 -0.21693 -0.23025
 C693 C 1.19424 -0.23038 -0.21632
 C694 C 1.17990 -0.21237 -0.19318
 C695 C 1.16933 -0.16105 -0.15938
 C696 C 1.15739 -0.17776 -0.13441
 C697 C 1.13966 -0.16031 -0.11506
 C698 C 1.13381 -0.12566 -0.11979
 C699 C 1.14660 -0.10845 -0.14339
 C700 C 1.16411 -0.12601 -0.16317
 C701 C 1.11349 -0.10797 -0.10137
 C702 C 1.11637 -0.07771 -0.08524
 C703 C 1.09692 -0.06094 -0.06827
 C704 C 1.07413 -0.07374 -0.06776
 C705 C 1.07130 -0.10401 -0.08401
 C706 C 1.09086 -0.12110 -0.10042
 H707 H 1.21138 -0.14305 -0.18850
 H708 H 1.23614 -0.17431 -0.23000
 H709 H 1.18931 -0.25497 -0.22329
 H710 H 1.16393 -0.22316 -0.18396
 H711 H 1.16142 -0.20454 -0.13021
 H712 H 1.13027 -0.17396 -0.09662
 H713 H 1.14227 -0.08170 -0.14751
 H714 H 1.17274 -0.11240 -0.18234
 H715 H 1.13370 -0.06723 -0.08559
 H716 H 1.09965 -0.03772 -0.05592
 H717 H 1.05401 -0.11458 -0.08393
 H718 H 1.08822 -0.14430 -0.11293
 C719 C 1.18523 0.32408 0.32049
 C720 C 1.17908 0.29239 0.31044
 C721 C 1.19258 0.27451 0.28641
 C722 C 1.21250 0.28792 0.27136
 C723 C 1.21910 0.31929 0.28171
 C724 C 1.20550 0.33732 0.30599
 C725 C 1.16967 0.34337 0.34497
 C726 C 1.16365 0.37824 0.34115
 C727 C 1.14639 0.39530 0.36171
 C728 C 1.13471 0.37774 0.38622
 C729 C 1.14156 0.34332 0.39106
 C730 C 1.15898 0.32639 0.37085
 C731 C 1.11439 0.39463 0.40540
 C732 C 1.09253 0.37962 0.40852
 C733 C 1.07295 0.39575 0.42569
 C734 C 1.07497 0.42698 0.44054
 C735 C 1.09695 0.44184 0.43775
 C736 C 1.11642 0.42594 0.42007
 H737 H 1.16340 0.28161 0.32060
 H738 H 1.18733 0.25003 0.27961
 H739 H 1.23438 0.33021 0.27054
 H740 H 1.21081 0.36158 0.31338
 H741 H 1.17138 0.39201 0.32133
 H742 H 1.14133 0.42186 0.35747
 H743 H 1.13311 0.32939 0.41019
 H744 H 1.16366 0.29973 0.37502
 H745 H 1.09045 0.35564 0.39712
 H746 H 1.05625 0.38370 0.42746
 H747 H 1.09896 0.46604 0.44875
 H748 H 1.13311 0.43796 0.41801
 C749 C 0.69230 -0.18406 0.31694
 C750 C 0.68750 -0.21700 0.30902
 C751 C 0.70119 -0.23504 0.28531
 C752 C 0.71990 -0.22059 0.26846
 C753 C 0.72560 -0.18830 0.27721
 C754 C 0.71181 -0.17007 0.30119
 C755 C 0.67572 -0.16414 0.33982
 C756 C 0.66848 -0.12998 0.33342
 C757 C 0.65012 -0.11276 0.35210
 C758 C 0.63848 -0.12949 0.37722
 C759 C 0.64643 -0.16306 0.38464
 C760 C 0.66502 -0.18010 0.36638
 C761 C 0.61739 -0.11253 0.39473
 C762 C 0.59575 -0.12815 0.39752
 C763 C 0.57558 -0.11198 0.41351
 C764 C 0.57689 -0.08020 0.42755
 C765 C 0.59863 -0.06470 0.42490
 C766 C 0.61861 -0.08058 0.40835
 H767 H 0.67248 -0.22851 0.32018
 H768 H 0.69675 -0.26025 0.27967
 H769 H 0.74004 -0.17673 0.26470
 H770 H 0.71616 -0.14489 0.30704
 H771 H 0.67612 -0.11702 0.31298
 H772 H 0.64422 -0.08683 0.34596
 H773 H 0.63799 -0.17624 0.40432
 H774 H 0.67057 -0.20611 0.37254
 H775 H 0.59437 -0.15270 0.38691
 H776 H 0.55909 -0.12449 0.41525
 H777 H 0.60009 -0.04009 0.43530
 H778 H 0.63512 -0.06811 0.40650
 C779 C 0.68958 0.31649 -0.18397
 C780 C 0.67968 0.29046 -0.20040
 C781 C 0.69249 0.27304 -0.22522
 C782 C 0.71582 0.28102 -0.23491
 C783 C 0.72596 0.30700 -0.21798
 C784 C 0.71283 0.32478 -0.19302
 C785 C 0.67478 0.33511 -0.15841
 C786 C 0.67217 0.37052 -0.15810
 C787 C 0.65460 0.38773 -0.13803
 C788 C 0.63933 0.36974 -0.11820
 C789 C 0.64308 0.33447 -0.11695
 C790 C 0.66071 0.31737 -0.13665
 C791 C 0.61845 0.38727 -0.10061
 C792 C 0.59539 0.37568 -0.10328
 C793 C 0.57542 0.39225 -0.08728
 C794 C 0.57813 0.42053 -0.06790
 C795 C 0.60129 0.43194 -0.06501
 C796 C 0.62121 0.41566 -0.08148
 H797 H 0.66170 0.28367 -0.19432
 H798 H 0.68399 0.25243 -0.23583
 H799 H 0.74357 0.31467 -0.22449
 H800 H 0.72086 0.34492 -0.18074
 H801 H 0.68268 0.38482 -0.17471
 H802 H 0.65203 0.41498 -0.13937
 H803 H 0.63186 0.32009 -0.10135
 H804 H 0.66268 0.29008 -0.13586
 H805 H 0.59276 0.35403 -0.11820
 H806 H 0.55787 0.38278 -0.08997
 H807 H 0.60401 0.45360 -0.05020
 H808 H 0.63882 0.42497 -0.07897
 C809 C 1.19039 0.16684 -0.14325
 C810 C 1.18618 0.20192 -0.14563
 C811 C 1.20268 0.22052 -0.16204
 C812 C 1.22326 0.20431 -0.17768
 C813 C 1.22841 0.16931 -0.17267
 C814 C 1.21204 0.15076 -0.15561
 C815 C 1.17110 0.14702 -0.13085
 C816 C 1.17431 0.12688 -0.10277
 C817 C 1.15538 0.10913 -0.09089
 C818 C 1.13313 0.11072 -0.10736
 C819 C 1.13044 0.13021 -0.13611
 C820 C 1.14913 0.14844 -0.14749
 C821 C 1.11255 0.09298 -0.09432
 C822 C 1.08860 0.10735 -0.09795
 C823 C 1.06922 0.09113 -0.08548
 C824 C 1.07327 0.06044 -0.06848
 C825 C 1.09715 0.04601 -0.06472
 C826 C 1.11656 0.06192 -0.07777
 H827 H 1.16969 0.21478 -0.13571
 H828 H 1.19862 0.24756 -0.16422
 H829 H 1.24462 0.15578 -0.18231
 H830 H 1.21570 0.12366 -0.15347
 H831 H 1.19121 0.12558 -0.08968
 H832 H 1.15803 0.09482 -0.06845
 H833 H 1.11391 0.13136 -0.14998
 H834 H 1.14652 0.16354 -0.16951
 H835 H 1.08476 0.13161 -0.10977
 H836 H 1.05107 0.10323 -0.08833
 H837 H 1.10088 0.02249 -0.05155
 H838 H 1.13468 0.04980 -0.07492
 C839 C 1.18668 0.65856 0.34624
 C840 C 1.18794 0.65970 0.31213
 C841 C 1.20411 0.67931 0.29639
 C842 C 1.21908 0.69900 0.31430
 C843 C 1.21842 0.69670 0.34868
 C844 C 1.20246 0.67641 0.36445
 C845 C 1.16768 0.64067 0.36246
 C846 C 1.17354 0.61488 0.38525
 C847 C 1.15529 0.59751 0.39961
 C848 C 1.13079 0.60615 0.39193
 C849 C 1.12512 0.63254 0.36947
 C850 C 1.14337 0.64933 0.35467
 C851 C 1.11115 0.58824 0.40748
 C852 C 1.08982 0.58372 0.39036
 C853 C 1.07076 0.56883 0.40557
 C854 C 1.07283 0.55736 0.43795
 C855 C 1.09435 0.56077 0.45480
 C856 C 1.11320 0.57633 0.43986
 H857 H 1.17602 0.64589 0.29765
 H858 H 1.20423 0.68028 0.26994
 H859 H 1.22949 0.71099 0.36375
 H860 H 1.20168 0.67579 0.39089
 H861 H 1.19225 0.60776 0.39139
 H862 H 1.16043 0.57703 0.41637
 H863 H 1.10653 0.64065 0.36357
 H864 H 1.13851 0.66949 0.33739
 H865 H 1.08777 0.59169 0.36515
 H866 H 1.05445 0.56613 0.39196
 H867 H 1.09631 0.55240 0.47994
 H868 H 1.12908 0.57983 0.45407
 C869 C 0.69059 0.15783 0.34586
 C870 C 0.69958 0.15165 0.31413
 C871 C 0.71542 0.17268 0.29971
 C872 C 0.72347 0.19991 0.31697
 C873 C 0.71472 0.20574 0.34903
 C874 C 0.69863 0.18476 0.36339
 C875 C 0.67155 0.13774 0.35947
 C876 C 0.65286 0.12873 0.33936
 C877 C 0.63448 0.11066 0.35200
 C878 C 0.63421 0.10135 0.38512
 C879 C 0.65300 0.11006 0.40524
 C880 C 0.67148 0.12811 0.39254
 C881 C 0.61399 0.08349 0.39872
 C882 C 0.61828 0.05762 0.42201
 C883 C 0.59906 0.04165 0.43547
 C884 C 0.57513 0.05119 0.42590
 C885 C 0.57092 0.07664 0.40216
 C886 C 0.59012 0.09264 0.38878
 H887 H 0.69384 0.13101 0.30002
 H888 H 0.72054 0.16822 0.27445
 H889 H 0.71937 0.22737 0.36258
 H890 H 0.69157 0.19063 0.38764
 H891 H 0.65215 0.13624 0.31390
 H892 H 0.62043 0.10400 0.33578
 H893 H 0.65315 0.10355 0.43096
 H894 H 0.68573 0.13450 0.40857
 H895 H 0.63650 0.04970 0.42982
 H896 H 0.60297 0.02215 0.45372
 H897 H 0.55273 0.08474 0.39434
 H898 H 0.58618 0.11280 0.37122
 C899 C 0.69015 0.67048 -0.13403
 C900 C 0.71294 0.65727 -0.14571
 C901 C 0.72750 0.67725 -0.16427
 C902 C 0.71943 0.71099 -0.17229
 C903 C 0.69783 0.72497 -0.15714
 C904 C 0.68320 0.70491 -0.13902
 C905 C 0.67299 0.64828 -0.11858
 C906 C 0.65638 0.66082 -0.09442
 C907 C 0.63813 0.64156 -0.08325
 C908 C 0.63642 0.60909 -0.09542
 C909 C 0.65370 0.59568 -0.11813
 C910 C 0.67170 0.61518 -0.12982
 C911 C 0.61590 0.59002 -0.08555
 C912 C 0.61986 0.55723 -0.07276
 C913 C 0.60031 0.54003 -0.06213
 C914 C 0.57646 0.55506 -0.06485
 C915 C 0.57258 0.58746 -0.07870
 C916 C 0.59213 0.60488 -0.08866
 H917 H 0.71942 0.63125 -0.14094
 H918 H 0.74491 0.66584 -0.17251
 H919 H 0.69156 0.75130 -0.16065
 H920 H 0.66590 0.71626 -0.13024
 H921 H 0.65716 0.68578 -0.08451
 H922 H 0.62516 0.65213 -0.06531
 H923 H 0.65261 0.57068 -0.12788
 H924 H 0.68390 0.60479 -0.14872
 H925 H 0.63809 0.54536 -0.07016
 H926 H 0.60387 0.51519 -0.05140
 H927 H 0.55447 0.59986 -0.08087
 H928 H 0.58871 0.63006 -0.09875
 C929 C 0.80999 -0.16036 -0.15966
 C930 C 0.79162 -0.17229 -0.14014
 C931 C 0.77481 -0.19225 -0.15332
 C932 C 0.77587 -0.20164 -0.18656
 C933 C 0.79403 -0.18879 -0.20629
 C934 C 0.81073 -0.16847 -0.19303
 C935 C 0.82876 -0.14081 -0.14480
 C936 C 0.85298 -0.14525 -0.15562
 C937 C 0.87089 -0.12878 -0.14023
 C938 C 0.86519 -0.10771 -0.11328
 C939 C 0.84089 -0.10262 -0.10294
 C940 C 0.82292 -0.11878 -0.11859
 C941 C 0.88463 -0.09190 -0.09563
 C942 C 0.88036 -0.05961 -0.08179
 C943 C 0.89878 -0.04500 -0.06540
 C944 C 0.92196 -0.06215 -0.06282
 C945 C 0.92617 -0.09447 -0.07636
 C946 C 0.90774 -0.10922 -0.09231
 H947 H 0.79046 -0.16691 -0.11428
 H948 H 0.76082 -0.19979 -0.13700
 H949 H 0.79644 -0.19535 -0.23170
 H950 H 0.82443 -0.15937 -0.20900
 H951 H 0.85830 -0.16222 -0.17545
 H952 H 0.88928 -0.13279 -0.14942
 H953 H 0.83576 -0.08681 -0.08218
 H954 H 0.80443 -0.11417 -0.10991
 H955 H 0.86293 -0.04528 -0.08415
 H956 H 0.89502 -0.01994 -0.05544
 H957 H 0.94375 -0.10852 -0.07450
 H958 H 0.91161 -0.13443 -0.10180
 C959 C 0.81385 0.33334 0.34847
 C960 C 0.81539 0.32713 0.31472
 C961 C 0.79936 0.30711 0.29972
 C962 C 0.78117 0.29289 0.31796
 C963 C 0.77910 0.30019 0.35153
 C964 C 0.79529 0.31988 0.36659
 C965 C 0.83202 0.35261 0.36492
 C966 C 0.82546 0.37355 0.39171
 C967 C 0.84289 0.39006 0.40816
 C968 C 0.86729 0.38625 0.39810
 C969 C 0.87369 0.36605 0.37078
 C970 C 0.85636 0.34931 0.35459
 C971 C 0.88618 0.40259 0.41621
 C972 C 0.90945 0.38591 0.41978
 C973 C 0.92759 0.40143 0.43548
 C974 C 0.92292 0.43391 0.44848
 C975 C 0.89950 0.45033 0.44592
 C976 C 0.88134 0.43490 0.42979
 H977 H 0.82910 0.33763 0.29978
 H978 H 0.80172 0.30237 0.27394
 H979 H 0.76498 0.29067 0.36644
 H980 H 0.79358 0.32382 0.39266
 H981 H 0.80684 0.37717 0.40007
 H982 H 0.83729 0.40522 0.42919
 H983 H 0.89219 0.36305 0.36186
 H984 H 0.86223 0.33312 0.33438
 H985 H 0.91370 0.36067 0.41050
 H986 H 0.94536 0.38789 0.43744
 H987 H 0.89539 0.47545 0.45557
 H988 H 0.86371 0.44865 0.42728
 C989 C 0.31183 -0.16774 0.33570
 C990 C 0.29269 -0.17864 0.35458
 C991 C 0.27587 -0.19827 0.34088
 C992 C 0.27788 -0.20832 0.30797
 C993 C 0.29647 -0.19627 0.28876
 C994 C 0.31317 -0.17624 0.30240
 C995 C 0.33075 -0.14884 0.35107
 C996 C 0.35509 -0.15415 0.34089
 C997 C 0.37308 -0.13808 0.35653
 C998 C 0.36736 -0.11655 0.38313
 C999 C 0.34297 -0.11072 0.39293
 C1000 C 0.32491 -0.12647 0.37701
 C1001 C 0.38682 -0.10088 0.40085
 C1002 C 0.38273 -0.06833 0.41416
 C1003 C 0.40118 -0.05375 0.43049
 C1004 C 0.42423 -0.07118 0.43351
 C1005 C 0.42828 -0.10374 0.42050
 C1006 C 0.40980 -0.11848 0.40464
 H1007 H 0.29101 -0.17288 0.38033
 H1008 H 0.26139 -0.20572 0.35644
 H1009 H 0.29866 -0.20280 0.26334
 H1010 H 0.32727 -0.16763 0.28680
 H1011 H 0.36043 -0.17144 0.32133
 H1012 H 0.39154 -0.14268 0.34774
 H1013 H 0.33781 -0.09456 0.41343
 H1014 H 0.30636 -0.12120 0.38522
 H1015 H 0.36543 -0.05377 0.41140
 H1016 H 0.39756 -0.02849 0.44001
 H1017 H 0.44577 -0.11798 0.42273
 H1018 H 0.41353 -0.14388 0.39555
 C1019 C 0.31371 0.33535 -0.16507
 C1020 C 0.29595 0.32210 -0.14545
 C1021 C 0.27939 0.30187 -0.15877
 C1022 C 0.28016 0.29341 -0.19227
 C1023 C 0.29747 0.30805 -0.21212
 C1024 C 0.31395 0.32859 -0.19870
 C1025 C 0.33243 0.35482 -0.15006
 C1026 C 0.35652 0.35115 -0.16145
 C1027 C 0.37448 0.36724 -0.14575
 C1028 C 0.36893 0.38716 -0.11797
 C1029 C 0.34472 0.39157 -0.10711
 C1030 C 0.32671 0.37579 -0.12305
 C1031 C 0.38840 0.40241 -0.09995
 C1032 C 0.38405 0.43410 -0.08495
 C1033 C 0.40241 0.44813 -0.06796
 C1034 C 0.42563 0.43099 -0.06590
 C1035 C 0.42996 0.39931 -0.08072
 C1036 C 0.41157 0.38512 -0.09731
 H1037 H 0.29514 0.32657 -0.11941
 H1038 H 0.26593 0.29330 -0.14223
 H1039 H 0.29931 0.30304 -0.23788
 H1040 H 0.32708 0.33893 -0.21474
 H1041 H 0.36172 0.33500 -0.18195
 H1042 H 0.39279 0.36381 -0.15531
 H1043 H 0.33971 0.40649 -0.08572
 H1044 H 0.30830 0.37978 -0.11391
 H1045 H 0.36657 0.44841 -0.08680
 H1046 H 0.39856 0.47274 -0.05706
 H1047 H 0.44759 0.38530 -0.07934
 H1048 H 0.41550 0.36034 -0.10777
 C1049 C 1.18670 -0.17347 0.18216
 C1050 C 1.20679 -0.16036 0.19648
 C1051 C 1.22082 -0.17936 0.21962
 C1052 C 1.21480 -0.21155 0.22901
 C1053 C 1.19519 -0.22486 0.21393
 C1054 C 1.18127 -0.20606 0.19109
 C1055 C 1.17050 -0.15326 0.15917
 C1056 C 1.15963 -0.16917 0.13334
 C1057 C 1.14153 -0.15175 0.11484
 C1058 C 1.13422 -0.11782 0.12124
 C1059 C 1.14606 -0.10116 0.14558
 C1060 C 1.16396 -0.11877 0.16453
 C1061 C 1.11345 -0.10056 0.10361
 C1062 C 1.11526 -0.06918 0.08843
 C1063 C 1.09563 -0.05339 0.07135
 C1064 C 1.07368 -0.06839 0.06978
 C1065 C 1.07179 -0.09950 0.08548
 C1066 C 1.09156 -0.11558 0.10196
 H1067 H 1.21158 -0.13544 0.18990
 H1068 H 1.23591 -0.16857 0.23076
 H1069 H 1.19042 -0.24995 0.21994
 H1070 H 1.16577 -0.21686 0.18110
 H1071 H 1.16469 -0.19544 0.12792
 H1072 H 1.13296 -0.16493 0.09577
 H1073 H 1.14067 -0.07495 0.15093
 H1074 H 1.17181 -0.10580 0.18434
 H1075 H 1.13197 -0.05717 0.08938
 H1076 H 1.09752 -0.02927 0.05966
 H1077 H 1.05512 -0.11164 0.08461
 H1078 H 1.08971 -0.13966 0.11376
 C1079 C 1.19165 0.32425 0.68279
 C1080 C 1.18732 0.29081 0.69011
 C1081 C 1.20156 0.27188 0.71254
 C1082 C 1.22036 0.28591 0.72876
 C1083 C 1.22555 0.31878 0.72061
 C1084 C 1.21125 0.33788 0.69786
 C1085 C 1.17464 0.34495 0.66119
 C1086 C 1.16752 0.37893 0.66838
 C1087 C 1.14897 0.39683 0.65083
 C1088 C 1.13699 0.38096 0.62611
 C1089 C 1.14476 0.34761 0.61791
 C1090 C 1.16355 0.32992 0.63499
 C1091 C 1.11571 0.39849 0.60983
 C1092 C 1.09393 0.38318 0.60851
 C1093 C 1.07371 0.39951 0.59317
 C1094 C 1.07509 0.43114 0.57827
 C1095 C 1.09692 0.44644 0.57959
 C1096 C 1.11698 0.43041 0.59556
 H1097 H 1.17227 0.27950 0.67948
 H1098 H 1.19747 0.24629 0.71771
 H1099 H 1.24001 0.33012 0.73270
 H1100 H 1.21529 0.36342 0.69246
 H1101 H 1.17544 0.39122 0.68857
 H1102 H 1.14321 0.42259 0.65754
 H1103 H 1.13605 0.33510 0.59851
 H1104 H 1.16899 0.30414 0.62814
 H1105 H 1.09253 0.35865 0.61962
 H1106 H 1.05715 0.38712 0.59241
 H1107 H 1.09842 0.47091 0.56844
 H1108 H 1.13361 0.44263 0.59629
 C1109 C 0.68632 -0.16961 0.69120
 C1110 C 0.67597 -0.17968 0.72054
 C1111 C 0.69015 -0.19643 0.74441
 C1112 C 0.71528 -0.20440 0.73961
 C1113 C 0.72591 -0.19187 0.71098
 C1114 C 0.71152 -0.17472 0.68698
 C1115 C 0.67021 -0.15531 0.66505
 C1116 C 0.67311 -0.12367 0.65095
 C1117 C 0.65556 -0.10864 0.62968
 C1118 C 0.63498 -0.12519 0.62207
 C1119 C 0.63304 -0.15772 0.63475
 C1120 C 0.65035 -0.17248 0.65609
 C1121 C 0.61482 -0.10819 0.60265
 C1122 C 0.59071 -0.11210 0.61169
 C1123 C 0.57153 -0.09654 0.59378
 C1124 C 0.57589 -0.07643 0.56638
 C1125 C 0.60000 -0.07222 0.55740
 C1126 C 0.61927 -0.08793 0.57537
 H1127 H 0.65666 -0.17490 0.72486
 H1128 H 0.68106 -0.20293 0.76677
 H1129 H 0.74499 -0.19671 0.70578
 H1130 H 0.71991 -0.16680 0.66455
 H1131 H 0.68827 -0.10996 0.65761
 H1132 H 0.65755 -0.08352 0.62039
 H1133 H 0.61781 -0.17156 0.62868
 H1134 H 0.64795 -0.19715 0.66629
 H1135 H 0.58660 -0.12688 0.63301
 H1136 H 0.55324 -0.10012 0.60165
 H1137 H 0.60402 -0.05686 0.53644
 H1138 H 0.63763 -0.08456 0.56767
 C1139 C 0.68764 0.34048 0.19946
 C1140 C 0.71127 0.32816 0.19014
 C1141 C 0.72595 0.30808 0.21159
 C1142 C 0.71727 0.29997 0.24274
 C1143 C 0.69414 0.31365 0.25260
 C1144 C 0.67948 0.33351 0.23121
 C1145 C 0.67080 0.35847 0.17578
 C1146 C 0.65351 0.38421 0.18638
 C1147 C 0.63559 0.39798 0.16528
 C1148 C 0.63477 0.38671 0.13299
 C1149 C 0.65274 0.36233 0.12176
 C1150 C 0.67051 0.34819 0.14300
 C1151 C 0.61452 0.39930 0.11167
 C1152 C 0.61884 0.41055 0.07975
 C1153 C 0.59957 0.42333 0.06020
 C1154 C 0.57562 0.42451 0.07207
 C1155 C 0.57134 0.41238 0.10372
 C1156 C 0.59060 0.40013 0.12338
 H1157 H 0.71824 0.33346 0.16603
 H1158 H 0.74363 0.29769 0.20320
 H1159 H 0.68708 0.30824 0.27664
 H1160 H 0.66132 0.34215 0.23918
 H1161 H 0.65353 0.39331 0.21120
 H1162 H 0.62217 0.41722 0.17431
 H1163 H 0.65240 0.35317 0.09696
 H1164 H 0.68333 0.32815 0.13410
 H1165 H 0.63716 0.41016 0.07023
 H1166 H 0.60343 0.43248 0.03589
 H1167 H 0.55313 0.41311 0.11364
 H1168 H 0.58681 0.39119 0.14779
 C1169 C 0.81368 0.19973 0.17591
 C1170 C 0.81855 0.22775 0.19463
 C1171 C 0.80248 0.23988 0.21931
 C1172 C 0.78138 0.22405 0.22586
 C1173 C 0.77595 0.19717 0.20604
 C1174 C 0.79190 0.18513 0.18139
 C1175 C 0.83197 0.18392 0.15269
 C1176 C 0.82500 0.17050 0.12294
 C1177 C 0.84210 0.15272 0.10270
 C1178 C 0.86651 0.14809 0.11179
 C1179 C 0.87350 0.16210 0.14122
 C1180 C 0.85646 0.17982 0.16138
 C1181 C 0.88472 0.12803 0.09137
 C1182 C 0.90811 0.13834 0.08769
 C1183 C 0.92612 0.11803 0.07152
 C1184 C 0.92119 0.08694 0.05836
 C1185 C 0.89751 0.07725 0.06056
 C1186 C 0.87943 0.09761 0.07703
 H1187 H 0.83506 0.23981 0.19065
 H1188 H 0.80711 0.26062 0.23409
 H1189 H 0.75952 0.18491 0.21005
 H1190 H 0.78766 0.16340 0.16761
 H1191 H 0.80628 0.17355 0.11544
 H1192 H 0.83624 0.14258 0.07999
 H1193 H 0.89209 0.15844 0.14923
 H1194 H 0.86234 0.18918 0.18444
 H1195 H 0.91260 0.16199 0.09778
 H1196 H 0.94407 0.12656 0.06973
 H1197 H 0.89319 0.05344 0.05063
 H1198 H 0.86158 0.08891 0.07963
 C1199 C 0.81095 0.69024 0.68837
 C1200 C 0.80415 0.67154 0.71552
 C1201 C 0.78851 0.68617 0.73932
 C1202 C 0.77889 0.72019 0.73691
 C1203 C 0.78645 0.73921 0.71000
 C1204 C 0.80215 0.72436 0.68604
 C1205 C 0.82768 0.67400 0.66328
 C1206 C 0.84656 0.69106 0.64986
 C1207 C 0.86373 0.67442 0.62891
 C1208 C 0.86244 0.64033 0.62095
 C1209 C 0.84289 0.62380 0.63317
 C1210 C 0.82571 0.64045 0.65401
 C1211 C 0.88229 0.62138 0.60211
 C1212 C 0.87751 0.59634 0.57964
 C1213 C 0.89651 0.57702 0.56388
 C1214 C 0.92070 0.58232 0.57028
 C1215 C 0.92539 0.60782 0.59226
 C1216 C 0.90647 0.62700 0.60797
 H1217 H 0.81133 0.64554 0.71878
 H1218 H 0.78472 0.67055 0.76012
 H1219 H 0.77985 0.76522 0.70631
 H1220 H 0.80705 0.73948 0.66532
 H1221 H 0.84865 0.71685 0.65656
 H1222 H 0.87832 0.68809 0.61946
 H1223 H 0.84139 0.59753 0.62776
 H1224 H 0.81111 0.62678 0.66345
 H1225 H 0.85907 0.59161 0.57430
 H1226 H 0.89223 0.55775 0.54695
 H1227 H 0.94376 0.61271 0.59785
 H1228 H 0.91088 0.64560 0.62552
 C1229 C 0.31709 0.18383 0.68104
 C1230 C 0.29563 0.16912 0.68848
 C1231 C 0.27969 0.18303 0.71239
 C1232 C 0.28481 0.21199 0.72941
 C1233 C 0.30588 0.22733 0.72135
 C1234 C 0.32193 0.21331 0.69749
 C1235 C 0.33483 0.16750 0.65735
 C1236 C 0.35963 0.16468 0.66434
 C1237 C 0.37633 0.14779 0.64308
 C1238 C 0.36869 0.13340 0.61416
 C1239 C 0.34388 0.13645 0.60698
 C1240 C 0.32712 0.15331 0.62836
 C1241 C 0.38668 0.11484 0.59216
 C1242 C 0.38174 0.08451 0.57729
 C1243 C 0.39971 0.06561 0.55919
 C1244 C 0.42296 0.07660 0.55588
 C1245 C 0.42747 0.10766 0.56948
 C1246 C 0.40955 0.12658 0.58723
 H1247 H 0.29147 0.14629 0.67645
 H1248 H 0.26332 0.17102 0.71758
 H1249 H 0.31028 0.24960 0.73409
 H1250 H 0.33821 0.22541 0.69202
 H1251 H 0.36609 0.17472 0.68677
 H1252 H 0.39524 0.14528 0.64974
 H1253 H 0.33745 0.12600 0.58473
 H1254 H 0.30813 0.15537 0.62217
 H1255 H 0.36433 0.07469 0.58073
 H1256 H 0.39570 0.04182 0.54894
 H1257 H 0.44506 0.11717 0.56689
 H1258 H 0.41375 0.15025 0.59758
 C1259 C 0.31270 0.68512 0.17696
 C1260 C 0.29096 0.67064 0.18312
 C1261 C 0.27443 0.68459 0.20636
 C1262 C 0.27923 0.71339 0.22390
 C1263 C 0.30048 0.72866 0.21681
 C1264 C 0.31712 0.71460 0.19368
 C1265 C 0.33129 0.66837 0.15466
 C1266 C 0.35573 0.66520 0.16363
 C1267 C 0.37321 0.64793 0.14373
 C1268 C 0.36675 0.63354 0.11422
 C1269 C 0.34230 0.63692 0.10507
 C1270 C 0.32475 0.65411 0.12512
 C1271 C 0.38556 0.61465 0.09361
 C1272 C 0.38095 0.58461 0.07794
 C1273 C 0.39945 0.56560 0.06089
 C1274 C 0.42291 0.57615 0.05942
 C1275 C 0.42720 0.60682 0.07400
 C1276 C 0.40876 0.62587 0.09071
 H1277 H 0.28709 0.64783 0.17081
 H1278 H 0.25797 0.67257 0.21085
 H1279 H 0.30473 0.75072 0.22993
 H1280 H 0.33361 0.72655 0.18915
 H1281 H 0.36128 0.67526 0.18656
 H1282 H 0.39177 0.64516 0.15193
 H1283 H 0.33676 0.62648 0.08233
 H1284 H 0.30606 0.65640 0.11746
 H1285 H 0.36332 0.57514 0.07986
 H1286 H 0.39558 0.54210 0.04987
 H1287 H 0.44497 0.61599 0.07286
 H1288 H 0.41277 0.64931 0.10171
   
