data_POSCAR
  _audit_creation_date              2014-09-24
  _audit_creation_method            'ToBaCCo'
  _symmetry_space_group_name_H-M    'P1'
  _symmetry_Int_Tables_number       1
  _symmetry_cell_setting            triclinic
  loop_
  _symmetry_equiv_pos_as_xyz
 x,y,z
_cell_length_a 59.1510
_cell_length_b 59.2132
_cell_length_c 60.0961
_cell_angle_alpha 90.705900
_cell_angle_beta 89.872600
_cell_angle_gamma 90.332900
loop_
  _atom_site_label
  _atom_site_type_symbol
  _atom_site_fract_x
  _atom_site_fract_y
  _atom_site_fract_z
C1 C 0.73091 0.65550 0.97381
 H2 H 0.74802 0.65501 0.96742
 C3 C 0.71410 0.66678 0.96202
 H4 H 0.71845 0.67497 0.94656
 C5 C 0.70411 0.64376 1.00070
 H6 H 0.70001 0.63420 1.01534
 C7 C 0.68689 0.65488 0.98956
 H8 H 0.66986 0.65416 0.99618
 N9 N 0.72557 0.64393 0.99254
 C10 C 0.78647 0.62748 1.02950
 H11 H 0.78303 0.60964 1.03134
 C12 C 0.80602 0.63689 1.03861
 H13 H 0.81744 0.62619 1.04773
 C14 C 0.77554 0.66298 1.01535
 H15 H 0.76363 0.67296 1.00612
 C16 C 0.79499 0.67316 1.02431
 H17 H 0.79803 0.69100 1.02177
 Zn18 Zn 0.74736 0.62449 1.00499
 N19 N 0.77195 0.64042 1.01777
 C20 C 0.78058 0.60613 0.97634
 N21 N 0.75820 0.60570 0.98157
 C22 C 0.74319 0.59353 0.96909
 C23 C 0.75058 0.58115 0.95050
 C24 C 0.78866 0.59405 0.95797
 C25 C 0.72820 0.61896 1.04674
 C26 C 0.71773 0.60801 1.06441
 C27 C 0.71995 0.57305 1.04349
 C28 C 0.73038 0.58480 1.02619
 N29 N 0.73392 0.60741 1.02796
 H30 H 0.79223 0.61626 0.98606
 H31 H 0.72540 0.59388 0.97329
 H32 H 0.73835 0.57196 0.94047
 H33 H 0.80655 0.59462 0.95416
 H34 H 0.73177 0.63688 1.04793
 H35 H 0.71452 0.61814 1.07913
 H36 H 0.71651 0.55536 1.04046
 H37 H 0.73531 0.57584 1.01120
 C38 C 0.81071 0.65992 1.03576
 C39 C 0.69162 0.66601 0.96958
 C40 C 0.71295 0.58453 1.06320
 C41 C 0.77358 0.58155 0.94461
 C42 C 0.73243 0.34936 0.51897
 H43 H 0.74954 0.34820 0.52515
 C44 C 0.71485 0.33802 0.52983
 H45 H 0.71857 0.32815 0.54441
 C46 C 0.70657 0.36499 0.49343
 H47 H 0.70319 0.37600 0.47967
 C48 C 0.68858 0.35394 0.50370
 H49 H 0.67165 0.35619 0.49729
 N50 N 0.72797 0.36274 0.50129
 C51 C 0.79073 0.37603 0.46551
 H52 H 0.78954 0.39425 0.46503
 C53 C 0.80900 0.36518 0.45551
 H54 H 0.82175 0.37518 0.44713
 C55 C 0.77522 0.34098 0.47679
 H56 H 0.76196 0.33169 0.48511
 C57 C 0.79324 0.32937 0.46686
 H58 H 0.79387 0.31113 0.46782
 Zn59 Zn 0.75133 0.38116 0.48963
 N60 N 0.77454 0.36393 0.47621
 C61 C 0.78562 0.39694 0.51887
 N62 N 0.76332 0.39845 0.51364
 C63 C 0.74897 0.41117 0.52623
 C64 C 0.75700 0.42330 0.54470
 C65 C 0.79435 0.40880 0.53714
 C66 C 0.73265 0.38954 0.44820
 C67 C 0.72287 0.40192 0.43118
 C68 C 0.72790 0.43580 0.45348
 C69 C 0.73765 0.42274 0.47010
 N70 N 0.73943 0.39998 0.46734
 H71 H 0.79666 0.38621 0.50917
 H72 H 0.73122 0.41175 0.52196
 H73 H 0.74536 0.43350 0.55440
 H74 H 0.81207 0.40704 0.54121
 H75 H 0.73444 0.37144 0.44638
 H76 H 0.71695 0.39314 0.41637
 H77 H 0.72648 0.45387 0.45598
 H78 H 0.74360 0.43080 0.48522
 C79 C 0.81058 0.34157 0.45632
 C80 C 0.69250 0.34068 0.52248
 C81 C 0.72017 0.42534 0.43378
 C82 C 0.77999 0.42220 0.55036
 C83 C 0.24053 -0.15584 0.02046
 H84 H 0.25783 -0.15562 0.02627
 C85 C 0.22428 -0.16891 0.03139
 H86 H 0.22926 -0.17903 0.04543
 C87 C 0.21282 -0.14217 -0.00431
 H88 H 0.20815 -0.13114 -0.01768
 C89 C 0.19611 -0.15503 0.00602
 H90 H 0.17881 -0.15371 0.00036
 N91 N 0.23452 -0.14266 0.00308
 C92 C 0.29539 -0.12403 -0.03361
 H93 H 0.29280 -0.10596 -0.03384
 C94 C 0.31417 -0.13336 -0.04420
 H95 H 0.32588 -0.12234 -0.05276
 C96 C 0.28284 -0.16026 -0.02246
 H97 H 0.27051 -0.17063 -0.01400
 C98 C 0.30144 -0.17036 -0.03294
 H99 H 0.30344 -0.18850 -0.03222
 Zn100 Zn 0.25609 -0.12227 -0.00873
 N101 N 0.28039 -0.13743 -0.02274
 C102 C 0.28948 -0.10411 0.02025
 N103 N 0.26705 -0.10437 0.01532
 C104 C 0.25186 -0.09307 0.02826
 C105 C 0.25911 -0.08063 0.04685
 C106 C 0.29746 -0.09187 0.03863
 C107 C 0.23576 -0.11485 -0.04960
 C108 C 0.22501 -0.10301 -0.06641
 C109 C 0.22875 -0.06900 -0.04415
 C110 C 0.23942 -0.08162 -0.02775
 N111 N 0.24234 -0.10418 -0.03058
 H112 H 0.30124 -0.11373 0.01023
 H113 H 0.23406 -0.09390 0.02420
 H114 H 0.24680 -0.07160 0.05684
 H115 H 0.31533 -0.09222 0.04247
 H116 H 0.23886 -0.13275 -0.05166
 H117 H 0.22109 -0.11244 -0.08141
 H118 H 0.22585 -0.05141 -0.04026
 H119 H 0.24505 -0.07335 -0.01262
 C120 C 0.31753 -0.15680 -0.04377
 C121 C 0.20166 -0.16837 0.02435
 C122 C 0.22087 -0.07952 -0.06406
 C123 C 0.28221 -0.07995 0.05224
 C124 C 0.22862 0.15854 0.47419
 H125 H 0.24606 0.15822 0.46872
 C126 C 0.21259 0.17053 0.46208
 H127 H 0.21787 0.17975 0.44750
 C128 C 0.20035 0.14606 0.49925
 H129 H 0.19540 0.13586 0.51322
 C130 C 0.18384 0.15787 0.48775
 H131 H 0.16640 0.15660 0.49313
 N132 N 0.22223 0.14644 0.49226
 C133 C 0.28137 0.13084 0.53220
 H134 H 0.27842 0.11288 0.53370
 C135 C 0.29970 0.14091 0.54301
 H136 H 0.31095 0.13049 0.55262
 C137 C 0.27047 0.16601 0.51728
 H138 H 0.25893 0.17568 0.50732
 C139 C 0.28877 0.17680 0.52775
 H140 H 0.29117 0.19481 0.52580
 Zn141 Zn 0.24354 0.12712 0.50563
 N142 N 0.26734 0.14336 0.51949
 C143 C 0.27801 0.10810 0.47870
 N144 N 0.25539 0.10830 0.48280
 C145 C 0.24073 0.09634 0.46976
 C146 C 0.24870 0.08343 0.45181
 C147 C 0.28670 0.09540 0.46098
 C148 C 0.22217 0.12129 0.54645
 C149 C 0.21159 0.10987 0.56378
 C150 C 0.21641 0.07493 0.54318
 C151 C 0.22689 0.08705 0.52618
 N152 N 0.22931 0.10986 0.52800
 H153 H 0.28936 0.11816 0.48884
 H154 H 0.22278 0.09709 0.47317
 H155 H 0.23679 0.07396 0.44165
 H156 H 0.30471 0.09588 0.45774
 H157 H 0.22469 0.13938 0.54761
 H158 H 0.20617 0.11930 0.57837
 H159 H 0.21427 0.05683 0.54130
 H160 H 0.23305 0.07822 0.51157
 C161 C 0.30368 0.16416 0.54079
 C162 C 0.18978 0.17001 0.46867
 C163 C 0.20849 0.08638 0.56224
 C164 C 0.27199 0.08293 0.44719
 C165 C 0.14881 0.46277 0.22467
 H166 H 0.13719 0.45252 0.23411
 C167 C 0.16072 0.45290 0.20708
 H168 H 0.15810 0.43514 0.20335
 C169 C 0.16473 0.49860 0.21678
 H170 H 0.16571 0.51653 0.22037
 C171 C 0.17691 0.48941 0.19890
 H172 H 0.18756 0.50033 0.18899
 N173 N 0.15081 0.48528 0.22908
 C174 C 0.13384 0.52096 0.29075
 H175 H 0.11566 0.51908 0.28971
 C176 C 0.14348 0.53191 0.30906
 H177 H 0.13258 0.53822 0.32221
 C178 C 0.17001 0.51447 0.27493
 H179 H 0.18020 0.50757 0.26157
 C180 C 0.18042 0.52527 0.29310
 H181 H 0.19867 0.52682 0.29352
 Zn182 Zn 0.13121 0.49891 0.25022
 N183 N 0.14707 0.51282 0.27401
 C184 C 0.12281 0.46130 0.27597
 N185 N 0.11234 0.47657 0.26286
 C186 C 0.08964 0.47564 0.25936
 C187 C 0.07669 0.45826 0.26859
 C188 C 0.11057 0.44370 0.28548
 C189 C 0.11569 0.54298 0.24146
 C190 C 0.10445 0.55958 0.22960
 C191 C 0.09037 0.53063 0.20450
 C192 C 0.10195 0.51453 0.21686
 N193 N 0.11419 0.52092 0.23503
 H194 H 0.14083 0.46268 0.27876
 H195 H 0.08156 0.48818 0.24923
 H196 H 0.05874 0.45740 0.26518
 H197 H 0.11928 0.43170 0.29581
 H198 H 0.12593 0.54789 0.25557
 H199 H 0.10575 0.57701 0.23513
 H200 H 0.08099 0.52529 0.18989
 H201 H 0.10146 0.49694 0.21178
 C202 C 0.16704 0.53437 0.31033
 C203 C 0.17469 0.46631 0.19365
 C204 C 0.09169 0.55353 0.21076
 C205 C 0.08723 0.44183 0.28162
 C206 C -0.15419 0.01711 0.23257
 H207 H -0.15480 0.02359 0.24946
 C208 C -0.16675 0.02759 0.21598
 H209 H -0.17763 0.04139 0.22089
 C210 C -0.13904 -0.00871 0.20628
 H211 H -0.12763 -0.02233 0.20229
 C212 C -0.15141 0.00107 0.18923
 H213 H -0.14862 -0.00536 0.17254
 N214 N -0.14033 -0.00044 0.22742
 C215 C -0.12362 -0.03909 0.28635
 H216 H -0.10616 -0.04248 0.28222
 C217 C -0.13325 -0.04902 0.30502
 H218 H -0.12303 -0.05996 0.31516
 C219 C -0.15828 -0.02150 0.27755
 H220 H -0.16799 -0.01083 0.26678
 C221 C -0.16866 -0.03119 0.29613
 H222 H -0.18625 -0.02759 0.29963
 Zn223 Zn -0.12022 -0.01188 0.24920
 N224 N -0.13598 -0.02524 0.27329
 C225 C -0.08881 0.00885 0.27862
 N226 N -0.10168 0.01214 0.26021
 C227 C -0.10187 0.03249 0.24994
 C228 C -0.08956 0.05073 0.25866
 C229 C -0.07626 0.02663 0.28791
 C230 C -0.11202 -0.05452 0.23071
 C231 C -0.09967 -0.07163 0.22027
 C232 C -0.06672 -0.04732 0.22119
 C233 C -0.07973 -0.03062 0.23162
 N234 N -0.10199 -0.03445 0.23596
 H235 H -0.08846 -0.00749 0.28634
 H236 H -0.11171 0.03474 0.23502
 H237 H -0.09050 0.06694 0.25058
 H238 H -0.06627 0.02367 0.30265
 H239 H -0.12973 -0.05712 0.23449
 H240 H -0.10796 -0.08752 0.21630
 H241 H -0.04915 -0.04382 0.21740
 H242 H -0.07216 -0.01449 0.23591
 C243 C -0.15597 -0.04487 0.31033
 C244 C -0.16523 0.01999 0.19363
 C245 C -0.07674 -0.06809 0.21521
 C246 C -0.07679 0.04801 0.27809
 C247 C 0.34327 0.52545 0.73434
 H248 H 0.34285 0.53193 0.75125
 C249 C 0.33071 0.53607 0.71783
 H250 H 0.32028 0.55042 0.72225
 C251 C 0.35832 0.49973 0.70778
 H252 H 0.36965 0.48607 0.70366
 C253 C 0.34597 0.50971 0.69084
 H254 H 0.34803 0.50353 0.67393
 N255 N 0.35706 0.50786 0.72901
 C256 C 0.37418 0.46914 0.78777
 H257 H 0.39161 0.46577 0.78352
 C258 C 0.36464 0.45899 0.80637
 H259 H 0.37494 0.44797 0.81635
 C260 C 0.33941 0.48662 0.77920
 H261 H 0.32959 0.49729 0.76851
 C262 C 0.32911 0.47669 0.79770
 H263 H 0.31149 0.48008 0.80124
 Zn264 Zn 0.37728 0.49620 0.75056
 N265 N 0.36170 0.48302 0.77485
 C266 C 0.40976 0.51640 0.77920
 N267 N 0.39635 0.51995 0.76123
 C268 C 0.39611 0.54035 0.75104
 C269 C 0.40901 0.55836 0.75939
 C270 C 0.42291 0.53395 0.78811
 C271 C 0.38444 0.45346 0.73204
 C272 C 0.39630 0.43607 0.72152
 C273 C 0.42978 0.45968 0.72206
 C274 C 0.41723 0.47668 0.73257
 N275 N 0.39495 0.47332 0.73714
 H276 H 0.41016 0.50003 0.78684
 H277 H 0.38583 0.54280 0.73645
 H278 H 0.40806 0.57460 0.75138
 H279 H 0.43338 0.53077 0.80248
 H280 H 0.36672 0.45125 0.73600
 H281 H 0.38764 0.42035 0.71767
 H282 H 0.44738 0.46277 0.71810
 H283 H 0.42519 0.49266 0.73675
 C284 C 0.34190 0.46291 0.81172
 C285 C 0.33228 0.52841 0.69567
 C286 C 0.41925 0.43911 0.71624
 C287 C 0.42241 0.55536 0.77836
 C288 C 0.66809 0.97611 0.73208
 H289 H 0.66782 0.97033 0.74909
 C290 C 0.68043 0.96421 0.71592
 H291 H 0.68995 0.94947 0.72068
 C292 C 0.65507 1.00163 0.70496
 H293 H 0.64454 1.01566 0.70047
 C294 C 0.66725 0.99039 0.68838
 H295 H 0.66590 0.99604 0.67137
 N296 N 0.65552 0.99429 0.72631
 C297 C 0.63810 1.03552 0.78425
 H298 H 0.62020 1.03696 0.78088
 C299 C 0.64742 1.04672 0.80257
 H300 H 0.63600 1.05608 0.81324
 C301 C 0.67359 1.01990 0.77472
 H302 H 0.68369 1.00951 0.76369
 C303 C 0.68367 1.03067 0.79308
 H304 H 0.70168 1.02867 0.79533
 Zn305 Zn 0.63557 1.00727 0.74754
 N306 N 0.65110 1.02225 0.77091
 C307 C 0.61769 0.98010 0.78175
 N308 N 0.61785 0.98356 0.75942
 C309 C 0.60661 0.96941 0.74522
 C310 C 0.59447 0.95096 0.75340
 C311 C 0.60581 0.96189 0.79062
 C312 C 0.62754 1.04825 0.72687
 C313 C 0.61529 1.06493 0.71612
 C314 C 0.58160 1.04206 0.72017
 C315 C 0.59454 1.02576 0.73083
 N316 N 0.61715 1.02898 0.73365
 H317 H 0.62701 0.99125 0.79276
 H318 H 0.60738 0.97230 0.72749
 H319 H 0.58595 0.93965 0.74183
 H320 H 0.60577 0.95955 0.80846
 H321 H 0.64548 1.05053 0.72966
 H322 H 0.62390 1.08016 0.71088
 H323 H 0.56372 1.03901 0.71762
 H324 H 0.58651 1.01052 0.73669
 C325 C 0.67059 1.04433 0.80761
 C326 C 0.67983 0.97117 0.69367
 C327 C 0.59203 1.06187 0.71247
 C328 C 0.59411 0.94693 0.77639
 C329 C 0.02160 0.23679 -0.15167
 H330 H 0.02729 0.25415 -0.15266
 C331 C 0.03287 0.21988 -0.16370
 H332 H 0.04704 0.22437 -0.17421
 C333 C -0.00327 0.20971 -0.13612
 H334 H -0.01683 0.20560 -0.12480
 C335 C 0.00738 0.19235 -0.14790
 H336 H 0.00177 0.17511 -0.14547
 N337 N 0.00397 0.23143 -0.13811
 C338 C -0.03462 0.29240 -0.12363
 H339 H -0.03509 0.29102 -0.10570
 C340 C -0.04547 0.31026 -0.13390
 H341 H -0.05448 0.32248 -0.12374
 C342 C -0.02252 0.27778 -0.15854
 H343 H -0.01356 0.26503 -0.16801
 C344 C -0.03327 0.29543 -0.16957
 H345 H -0.03227 0.29628 -0.18753
 Zn346 Zn -0.00860 0.25415 -0.11945
 N347 N -0.02312 0.27685 -0.13593
 C348 C 0.01993 0.28962 -0.10422
 N349 N 0.01537 0.26715 -0.10268
 C350 C 0.02859 0.25344 -0.09028
 C351 C 0.04706 0.26231 -0.07855
 C352 C 0.03819 0.29917 -0.09280
 C353 C -0.04993 0.23367 -0.11073
 C354 C -0.06709 0.22351 -0.09840
 C355 C -0.04485 0.22973 -0.06524
 C356 C -0.02815 0.23984 -0.07833
 N357 N -0.03080 0.24127 -0.10068
 H358 H 0.00963 0.30021 -0.11454
 H359 H 0.02490 0.23554 -0.08973
 H360 H 0.05757 0.25109 -0.06902
 H361 H 0.04136 0.31714 -0.09409
 H362 H -0.05162 0.23509 -0.12859
 H363 H -0.08113 0.21665 -0.10777
 H364 H -0.04205 0.22990 -0.04749
 H365 H -0.01311 0.24664 -0.07052
 C366 C -0.04466 0.31212 -0.15715
 C367 C 0.02589 0.19727 -0.16170
 C368 C -0.06496 0.22102 -0.07504
 C369 C 0.05211 0.28548 -0.07982
 C370 C 0.46479 0.23101 0.15848
 H371 H 0.45915 0.24835 0.15804
 C372 C 0.45258 0.21506 0.17067
 H373 H 0.43771 0.22030 0.17987
 C374 C 0.49052 0.20291 0.14632
 H375 H 0.50482 0.19799 0.13624
 C376 C 0.47894 0.18650 0.15833
 H377 H 0.48458 0.16916 0.15732
 N378 N 0.48329 0.22468 0.14651
 C379 C 0.52380 0.28414 0.13103
 H380 H 0.52593 0.28075 0.11342
 C381 C 0.53367 0.30328 0.14063
 H382 H 0.54365 0.31443 0.13032
 C383 C 0.50818 0.27350 0.16575
 H384 H 0.49814 0.26185 0.17538
 C385 C 0.51786 0.29253 0.17610
 H386 H 0.51501 0.29553 0.19369
 Zn387 Zn 0.49732 0.24587 0.12749
 N388 N 0.51096 0.26998 0.14349
 C389 C 0.47069 0.28010 0.10859
 N390 N 0.47470 0.25751 0.10855
 C391 C 0.46197 0.24298 0.09604
 C392 C 0.44465 0.25114 0.08257
 C393 C 0.45365 0.28895 0.09537
 C394 C 0.53901 0.22495 0.12242
 C395 C 0.55705 0.21455 0.11148
 C396 C 0.53708 0.21860 0.07673
 C397 C 0.51939 0.22897 0.08836
 N398 N 0.52057 0.23169 0.11084
 H399 H 0.48042 0.29136 0.11914
 H400 H 0.46524 0.22504 0.09660
 H401 H 0.43482 0.23938 0.07255
 H402 H 0.45055 0.30696 0.09593
 H403 H 0.53959 0.22756 0.14026
 H404 H 0.57136 0.20892 0.12109
 H405 H 0.53596 0.21670 0.05882
 H406 H 0.50484 0.23491 0.07939
 C407 C 0.53045 0.30792 0.16336
 C408 C 0.45952 0.19240 0.17049
 C409 C 0.55622 0.21121 0.08832
 C410 C 0.44037 0.27444 0.08210
 C411 C 0.96860 0.72865 0.66148
 H412 H 0.96150 0.74537 0.66095
 C413 C 0.95730 0.71180 0.67327
 H414 H 0.94166 0.71584 0.68178
 C415 C 0.99741 0.70302 0.65107
 H416 H 1.01303 0.69956 0.64239
 C417 C 0.98668 0.68567 0.66264
 H418 H 0.99401 0.66896 0.66225
 N419 N 0.98791 0.72386 0.65006
 C420 C 1.01836 0.78886 0.63448
 H421 H 1.01612 0.78832 0.61662
 C422 C 1.02703 0.80825 0.64472
 H423 H 1.03168 0.82253 0.63457
 C424 C 1.01528 0.77058 0.66925
 H425 H 1.01056 0.75581 0.67863
 C426 C 1.02408 0.78968 0.68022
 H427 H 1.02597 0.78958 0.69814
 Zn428 Zn 1.00061 0.74575 0.63062
 N429 N 1.01268 0.77056 0.64676
 C430 C 0.96291 0.77216 0.62190
 N431 N 0.97754 0.75743 0.61210
 C432 C 0.97615 0.75246 0.58996
 C433 C 0.95917 0.76198 0.57698
 C434 C 0.94578 0.78210 0.60957
 C435 C 1.04547 0.74033 0.61504
 C436 C 1.06310 0.73009 0.60330
 C437 C 1.03635 0.70314 0.58805
 C438 C 1.01920 0.71391 0.60010
 N439 N 1.02398 0.73218 0.61327
 H440 H 0.96480 0.77660 0.63928
 H441 H 0.98826 0.74132 0.58220
 H442 H 0.95842 0.75796 0.55937
 H443 H 0.93419 0.79355 0.61783
 H444 H 1.04909 0.75462 0.62580
 H445 H 1.08003 0.73697 0.60485
 H446 H 1.03227 0.68837 0.57802
 H447 H 1.00210 0.70738 0.59933
 C448 C 1.02993 0.80888 0.66789
 C449 C 0.96602 0.68979 0.67344
 C450 C 1.05869 0.71115 0.58967
 C451 C 0.94371 0.77704 0.58679
 C452 C 0.53021 0.73245 0.36205
 H453 H 0.54094 0.74229 0.37301
 C454 C 0.53951 0.71452 0.34995
 H455 H 0.55732 0.71089 0.35179
 C456 C 0.49378 0.72405 0.34776
 H457 H 0.47587 0.72762 0.34743
 C458 C 0.50238 0.70585 0.33541
 H459 H 0.49102 0.69569 0.32529
 N460 N 0.50770 0.73682 0.36087
 C461 C 0.47449 0.80052 0.37668
 H462 H 0.47675 0.80029 0.39454
 C463 C 0.46427 0.81898 0.36679
 H464 H 0.45821 0.83228 0.37770
 C465 C 0.47876 0.78227 0.34171
 H466 H 0.48476 0.76804 0.33200
 C467 C 0.46843 0.80039 0.33104
 H468 H 0.46724 0.79970 0.31310
 Zn469 Zn 0.49489 0.75891 0.38008
 N470 N 0.48133 0.78259 0.36416
 C471 C 0.53335 0.78515 0.38740
 N472 N 0.51778 0.77217 0.39802
 C473 C 0.51856 0.76930 0.42043
 C474 C 0.53597 0.77918 0.43295
 C475 C 0.55099 0.79535 0.39924
 C476 C 0.45093 0.75113 0.39722
 C477 C 0.43432 0.73954 0.40908
 C478 C 0.46288 0.71368 0.42166
 C479 C 0.47898 0.72578 0.40951
 N480 N 0.47280 0.74417 0.39769
 H481 H 0.53219 0.78731 0.36959
 H482 H 0.50574 0.75933 0.42864
 H483 H 0.53635 0.77674 0.45077
 H484 H 0.56352 0.80513 0.39034
 H485 H 0.44621 0.76548 0.38738
 H486 H 0.41705 0.74548 0.40860
 H487 H 0.46805 0.69887 0.43068
 H488 H 0.49640 0.72032 0.40924
 C489 C 0.46092 0.81933 0.34353
 C490 C 0.52551 0.70073 0.33665
 C491 C 0.44016 0.72046 0.42141
 C492 C 0.55256 0.79231 0.42232
 C493 C 0.34906 -0.00326 0.22172
 C494 C 0.35769 0.00816 0.24051
 C495 C 0.36658 0.03008 0.23827
 C496 C 0.36705 0.04036 0.21741
 C497 C 0.35818 0.02897 0.19880
 C498 C 0.34910 0.00722 0.20095
 C499 C 0.35755 -0.00280 0.26244
 C500 C 0.36812 -0.02377 0.26526
 C501 C 0.36852 -0.03377 0.28626
 C502 C 0.35791 -0.02311 0.30437
 C503 C 0.34717 -0.00235 0.30162
 C504 C 0.34716 0.00790 0.28075
 H505 H 0.34209 -0.02014 0.22334
 H506 H 0.37356 0.03888 0.25264
 H507 H 0.37649 -0.03195 0.25129
 H508 H 0.33896 0.02406 0.27869
 H509 H 0.35852 0.03694 0.18265
 H510 H 0.35824 -0.03085 0.32063
 C511 C 0.13012 1.01033 0.72443
 C512 C 0.12140 0.99935 0.74319
 C513 C 0.11192 0.97763 0.74079
 C514 C 0.11099 0.96714 0.71978
 C515 C 0.11994 0.97812 0.70120
 C516 C 0.12960 0.99965 0.70352
 C517 C 0.12236 1.01054 0.76527
 C518 C 0.11337 1.03226 0.76840
 C519 C 0.11429 1.04284 0.78936
 C520 C 0.12461 1.03191 0.80718
 C521 C 0.13380 1.01036 0.80411
 C522 C 0.13247 0.99961 0.78327
 H523 H 0.13765 1.02699 0.72618
 H524 H 0.10495 0.96912 0.75515
 H525 H 0.10534 1.04073 0.75464
 H526 H 0.13963 0.98293 0.78093
 H527 H 0.11934 0.96995 0.68495
 H528 H 0.12543 1.04013 0.82339
 C529 C 0.62707 0.51105 0.22170
 C530 C 0.61739 0.50006 0.24000
 C531 C 0.60820 0.47828 0.23720
 C532 C 0.60849 0.46771 0.21622
 C533 C 0.61839 0.47867 0.19809
 C534 C 0.62780 0.50027 0.20084
 C535 C 0.61728 0.51117 0.26210
 C536 C 0.60689 0.53225 0.26517
 C537 C 0.60691 0.54276 0.28619
 C538 C 0.61778 0.53247 0.30407
 C539 C 0.62839 0.51158 0.30102
 C540 C 0.62791 0.50085 0.28014
 H541 H 0.63441 0.52776 0.22382
 H542 H 0.60058 0.46976 0.25123
 H543 H 0.59856 0.54027 0.25132
 H544 H 0.63619 0.48469 0.27780
 H545 H 0.61878 0.47042 0.18189
 H546 H 0.61801 0.54070 0.32029
 C547 C 0.85117 0.49414 0.71970
 C548 C 0.86017 0.50477 0.73874
 C549 C 0.87067 0.52602 0.73689
 C550 C 0.87236 0.53640 0.71613
 C551 C 0.86310 0.52581 0.69725
 C552 C 0.85240 0.50476 0.69904
 C553 C 0.85866 0.49367 0.76054
 C554 C 0.86817 0.47222 0.76354
 C555 C 0.86721 0.46197 0.78441
 C556 C 0.85628 0.47288 0.80218
 C557 C 0.84657 0.49413 0.79924
 C558 C 0.84795 0.50461 0.77852
 H559 H 0.84293 0.47780 0.72105
 H560 H 0.87786 0.53421 0.75150
 H561 H 0.87677 0.46384 0.74983
 H562 H 0.84058 0.52115 0.77630
 H563 H 0.86429 0.53390 0.68119
 H564 H 0.85558 0.46497 0.81836
 C565 C 0.22010 0.36060 -0.00557
 C566 C 0.23937 0.36959 0.00493
 C567 C 0.23732 0.37994 0.02598
 C568 C 0.21614 0.38152 0.03632
 C569 C 0.19700 0.37228 0.02586
 C570 C 0.19899 0.36170 0.00498
 C571 C 0.26163 0.36809 -0.00605
 C572 C 0.26511 0.37788 -0.02696
 C573 C 0.28640 0.37678 -0.03717
 C574 C 0.30410 0.36543 -0.02675
 C575 C 0.30065 0.35542 -0.00602
 C576 C 0.27951 0.35695 0.00441
 H577 H 0.22162 0.35244 -0.02176
 H578 H 0.25213 0.38707 0.03410
 H579 H 0.25144 0.38674 -0.03500
 H580 H 0.27689 0.34930 0.02052
 H581 H 0.18061 0.37334 0.03393
 H582 H 0.32058 0.36455 -0.03466
 C583 C 0.72050 0.12905 1.01421
 C584 C 0.73964 0.12077 1.00299
 C585 C 0.73755 0.11282 0.98095
 C586 C 0.71649 0.11301 0.97033
 C587 C 0.69754 0.12152 0.98156
 C588 C 0.69955 0.12965 1.00344
 C589 C 0.76190 0.12103 1.01408
 C590 C 0.76465 0.11099 1.03496
 C591 C 0.78582 0.11131 1.04539
 C592 C 0.80421 0.12208 1.03520
 C593 C 0.80150 0.13232 1.01451
 C594 C 0.78046 0.13159 1.00389
 H595 H 0.72204 0.13554 1.03109
 H596 H 0.75222 0.10632 0.97218
 H597 H 0.75045 0.10262 1.04286
 H598 H 0.77842 0.13959 0.98789
 H599 H 0.68129 0.12195 0.97324
 H600 H 0.82057 0.12243 1.04330
 C601 C 0.22196 0.63117 0.51137
 C602 C 0.24089 0.62254 0.50002
 C603 C 0.23828 0.61368 0.47836
 C604 C 0.21694 0.61328 0.46829
 C605 C 0.19821 0.62209 0.47965
 C606 C 0.20071 0.63112 0.50114
 C607 C 0.26334 0.62287 0.51078
 C608 C 0.26605 0.61405 0.53221
 C609 C 0.28733 0.61432 0.54239
 C610 C 0.30594 0.62376 0.53136
 C611 C 0.30333 0.63275 0.51008
 C612 C 0.28212 0.63211 0.49974
 H613 H 0.22385 0.63825 0.52799
 H614 H 0.25273 0.60679 0.46954
 H615 H 0.25171 0.60666 0.54077
 H616 H 0.28014 0.63916 0.48330
 H617 H 0.18172 0.62191 0.47179
 H618 H 0.32239 0.62409 0.53929
 C619 C 0.72258 0.86126 0.49727
 C620 C 0.74230 0.86896 0.50799
 C621 C 0.74081 0.87805 0.52966
 C622 C 0.71983 0.87958 0.54040
 C623 C 0.70029 0.87166 0.52969
 C624 C 0.70165 0.86241 0.50818
 C625 C 0.76444 0.86745 0.49664
 C626 C 0.76742 0.87643 0.47527
 C627 C 0.78860 0.87541 0.46483
 C628 C 0.80674 0.86503 0.47550
 C629 C 0.80383 0.85587 0.49667
 C630 C 0.78279 0.85724 0.50728
 H631 H 0.72359 0.85405 0.48063
 H632 H 0.75590 0.88429 0.53797
 H633 H 0.75345 0.88464 0.46705
 H634 H 0.78062 0.85018 0.52372
 H635 H 0.68405 0.87276 0.53804
 H636 H 0.82315 0.86426 0.46742
 C637 C -0.00384 0.21677 0.35471
 C638 C 0.00687 0.23593 0.36392
 C639 C 0.02839 0.23384 0.37350
 C640 C 0.03899 0.21276 0.37407
 C641 C 0.02832 0.19378 0.36464
 C642 C 0.00697 0.19578 0.35487
 C643 C -0.00439 0.25811 0.36357
 C644 C -0.02612 0.26075 0.37271
 C645 C -0.03645 0.28199 0.37288
 C646 C -0.02532 0.30051 0.36349
 C647 C -0.00379 0.29794 0.35417
 C648 C 0.00675 0.27684 0.35438
 H649 H -0.02038 0.21828 0.34716
 H650 H 0.03664 0.24849 0.38089
 H651 H -0.03469 0.24647 0.38015
 H652 H 0.02349 0.27492 0.34724
 H653 H 0.03655 0.17747 0.36501
 H654 H -0.03331 0.31696 0.36364
 C655 C 1.01652 0.71361 0.12712
 C656 C 1.00533 0.73269 0.11905
 C657 C 0.98343 0.73030 0.11026
 C658 C 0.97295 0.70904 0.10940
 C659 C 0.98414 0.69015 0.11768
 C660 C 1.00587 0.69244 0.12664
 C661 C 1.01642 0.75510 0.12002
 C662 C 1.03819 0.75815 0.11109
 C663 C 1.04858 0.77947 0.11188
 C664 C 1.03744 0.79772 0.12199
 C665 C 1.01585 0.79475 0.13110
 C666 C 1.00529 0.77354 0.12994
 H667 H 1.03331 0.71535 0.13417
 H668 H 0.97473 0.74490 0.10383
 H669 H 1.04681 0.74408 0.10316
 H670 H 0.98857 0.77129 0.13704
 H671 H 0.97595 0.67371 0.11719
 H672 H 1.04550 0.81422 0.12265
 C673 C 0.51028 0.21917 0.62966
 C674 C 0.49876 0.23781 0.62111
 C675 C 0.47673 0.23490 0.61279
 C676 C 0.46643 0.21354 0.61289
 C677 C 0.47795 0.19509 0.62167
 C678 C 0.49982 0.19792 0.63016
 C679 C 0.50955 0.26036 0.62133
 C680 C 0.53105 0.26353 0.61181
 C681 C 0.54116 0.28499 0.61206
 C682 C 0.53004 0.30323 0.62219
 C683 C 0.50874 0.30013 0.63188
 C684 C 0.49843 0.27880 0.63127
 H685 H 0.52716 0.22134 0.63638
 H686 H 0.46774 0.24918 0.60606
 H687 H 0.53966 0.24945 0.60390
 H688 H 0.48193 0.27644 0.63884
 H689 H 0.46989 0.17859 0.62197
 H690 H 0.53790 0.31983 0.62243
 C691 C 0.50221 0.72223 0.85220
 C692 C 0.51354 0.74102 0.86142
 C693 C 0.53486 0.73818 0.87122
 C694 C 0.54462 0.71671 0.87202
 C695 C 0.53332 0.69809 0.86257
 C696 C 0.51218 0.70086 0.85257
 C697 C 0.50302 0.76354 0.86095
 C698 C 0.48154 0.76696 0.87041
 C699 C 0.47177 0.78846 0.87031
 C700 C 0.48320 0.80646 0.86030
 C701 C 0.50449 0.80309 0.85064
 C702 C 0.51448 0.78173 0.85117
 H703 H 0.48579 0.72432 0.84453
 H704 H 0.54356 0.75256 0.87866
 H705 H 0.47272 0.75306 0.87825
 H706 H 0.53101 0.77917 0.84376
 H707 H 0.54086 0.68146 0.86319
 H708 H 0.47562 0.82310 0.86019
 C709 C 0.42696 -0.14634 0.30352
 C710 C 0.42692 -0.12530 0.31431
 C711 C 0.43880 -0.12235 0.33417
 C712 C 0.45030 -0.14039 0.34354
 C713 C 0.45016 -0.16204 0.33328
 C714 C 0.43854 -0.16451 0.31280
 C715 C 0.41415 -0.10673 0.30566
 C716 C 0.40349 -0.09067 0.29956
 C717 C 0.39110 -0.07134 0.29369
 C718 C 0.38068 -0.05442 0.28974
 H719 H 0.41769 -0.14885 0.28815
 H720 H 0.43910 -0.10603 0.34255
 H721 H 0.45977 -0.13692 0.35857
 H722 H 0.43723 -0.18068 0.30433
 C723 C 0.92055 0.34705 0.80294
 C724 C 0.92219 0.36851 0.81291
 C725 C 0.93530 0.37161 0.83205
 C726 C 0.94639 0.35334 0.84147
 C727 C 0.94451 0.33161 0.83191
 C728 C 0.93172 0.32869 0.81235
 C729 C 0.90992 0.38738 0.80424
 C730 C 0.89978 0.40377 0.79811
 C731 C 0.88812 0.42353 0.79218
 C732 C 0.87842 0.44084 0.78812
 H733 H 0.91039 0.34446 0.78815
 H734 H 0.93674 0.38814 0.83987
 H735 H 0.95641 0.35620 0.85631
 H736 H 0.92986 0.31213 0.80471
 C737 C 0.07424 1.15977 0.81945
 C738 C 0.06252 1.14090 0.81109
 C739 C 0.03889 1.14116 0.81015
 C740 C 0.02698 1.15988 0.81818
 C741 C 0.03856 1.17862 0.82734
 C742 C 0.06235 1.17855 0.82747
 C743 C 0.07452 1.12066 0.80500
 C744 C 0.08420 1.10330 0.80059
 C745 C 0.09509 1.08257 0.79614
 C746 C 0.10403 1.06459 0.79283
 H747 H 0.09253 1.15970 0.82037
 H748 H 0.02963 1.12665 0.80373
 H749 H 0.00868 1.15955 0.81762
 H750 H 0.07174 1.19259 0.83466
 C751 C 0.53271 0.63988 0.31761
 C752 C 0.55460 0.64039 0.30873
 C753 C 0.56636 0.66092 0.30756
 C754 C 0.55657 0.68074 0.31586
 C755 C 0.53487 0.68028 0.32551
 C756 C 0.52287 0.65969 0.32591
 C757 C 0.56556 0.61967 0.30227
 C758 C 0.57494 0.60221 0.29763
 C759 C 0.58606 0.58165 0.29298
 C760 C 0.59559 0.56399 0.28960
 H761 H 0.52350 0.62407 0.31872
 H762 H 0.58332 0.66151 0.30072
 H763 H 0.56611 0.69637 0.31507
 H764 H 0.50628 0.65870 0.33350
 C765 C 0.56018 0.34895 0.20286
 C766 C 0.55919 0.36897 0.19073
 C767 C 0.54818 0.36914 0.17017
 C768 C 0.53854 0.34936 0.16154
 C769 C 0.53979 0.32903 0.17333
 C770 C 0.55044 0.32906 0.19424
 C771 C 0.57000 0.38934 0.19871
 C772 C 0.57900 0.40684 0.20422
 C773 C 0.58942 0.42773 0.20945
 C774 C 0.59820 0.44584 0.21298
 H775 H 0.56871 0.34863 0.21878
 H776 H 0.54726 0.38454 0.16068
 H777 H 0.53010 0.34995 0.14559
 H778 H 0.55177 0.31363 0.20362
 C779 C 0.06610 0.84775 0.70402
 C780 C 0.05935 0.86898 0.69654
 C781 C 0.04214 0.87052 0.68072
 C782 C 0.03213 0.85097 0.67194
 C783 C 0.03922 0.82953 0.67882
 C784 C 0.05602 0.82810 0.69527
 C785 C 0.07080 0.88923 0.70392
 C786 C 0.08028 0.90662 0.70900
 C787 C 0.09119 0.92737 0.71379
 C788 C 0.10033 0.94537 0.71698
 H789 H 0.07948 0.84636 0.71620
 H790 H 0.03676 0.88685 0.67482
 H791 H 0.01900 0.85260 0.65954
 H792 H 0.06193 0.81182 0.70075
 C793 C 0.91725 0.65067 0.68774
 C794 C 0.92845 0.63302 0.69826
 C795 C 0.95178 0.63454 0.70191
 C796 C 0.96396 0.65336 0.69455
 C797 C 0.95293 0.67090 0.68337
 C798 C 0.92937 0.66949 0.68037
 C799 C 0.91625 0.61276 0.70389
 C800 C 0.90603 0.59557 0.70778
 C801 C 0.89413 0.57521 0.71147
 C802 C 0.88410 0.55763 0.71394
 H803 H 0.89923 0.64960 0.68467
 H804 H 0.96064 0.62096 0.71000
 H805 H 0.98203 0.65406 0.69733
 H806 H 0.92041 0.68249 0.67152
 C807 C 0.40963 0.15603 0.18770
 C808 C 0.42055 0.13797 0.19785
 C809 C 0.44404 0.13856 0.20058
 C810 C 0.45665 0.15675 0.19252
 C811 C 0.44593 0.17459 0.18155
 C812 C 0.42222 0.17428 0.17965
 C813 C 0.40802 0.11800 0.20378
 C814 C 0.39797 0.10079 0.20795
 C815 C 0.38670 0.08016 0.21199
 C816 C 0.37751 0.06219 0.21478
 H817 H 0.39147 0.15568 0.18536
 H818 H 0.45268 0.12465 0.20837
 H819 H 0.47484 0.15665 0.19445
 H820 H 0.41350 0.18762 0.17105
 C821 C 0.30146 0.43207 -0.14975
 C822 C 0.31434 0.43112 -0.13025
 C823 C 0.33573 0.44127 -0.12952
 C824 C 0.34444 0.45195 -0.14827
 C825 C 0.33188 0.45264 -0.16810
 C826 C 0.31015 0.44284 -0.16858
 C827 C 0.30616 0.41925 -0.11105
 C828 C 0.30034 0.40930 -0.09460
 C829 C 0.29458 0.39775 -0.07496
 C830 C 0.29047 0.38806 -0.05789
 H831 H 0.28488 0.42422 -0.15050
 H832 H 0.34581 0.44071 -0.11451
 H833 H 0.36106 0.45966 -0.14728
 H834 H 0.30018 0.44296 -0.18366
 C835 C 0.80320 0.92606 0.34986
 C836 C 0.81612 0.92545 0.36934
 C837 C 0.83775 0.93510 0.36966
 C838 C 0.84662 0.94501 0.35057
 C839 C 0.83397 0.94541 0.33078
 C840 C 0.81204 0.93606 0.33067
 C841 C 0.80774 0.91450 0.38899
 C842 C 0.80182 0.90535 0.40586
 C843 C 0.79611 0.89474 0.42603
 C844 C 0.79219 0.88582 0.44356
 H845 H 0.78644 0.91860 0.34941
 H846 H 0.84788 0.93480 0.38466
 H847 H 0.86339 0.95241 0.35129
 H848 H 0.80199 0.93597 0.31564
 C849 C 0.81082 0.03254 1.13741
 C850 C 0.80693 0.05572 1.13931
 C851 C 0.81058 0.06677 1.15966
 C852 C 0.81886 0.05488 1.17787
 C853 C 0.82397 0.03159 1.17600
 C854 C 0.81915 0.02059 1.15550
 C855 C 0.80070 0.06829 1.11993
 C856 C 0.79632 0.07857 1.10331
 C857 C 0.79201 0.09029 1.08346
 C858 C 0.78892 0.10003 1.06624
 H859 H 0.80781 0.02374 1.12177
 H860 H 0.80774 0.08478 1.16128
 H861 H 0.82259 0.06454 1.19280
 H862 H 0.82148 0.00261 1.15324
 C863 C 0.31455 0.57609 0.65810
 C864 C 0.30588 0.56408 0.63978
 C865 C 0.30412 0.54053 0.64051
 C866 C 0.31176 0.52894 0.65915
 C867 C 0.32132 0.54079 0.67729
 C868 C 0.32217 0.56453 0.67677
 C869 C 0.30044 0.57569 0.61959
 C870 C 0.29666 0.58506 0.60231
 C871 C 0.29295 0.59564 0.58173
 C872 C 0.29022 0.60434 0.56391
 H873 H 0.31611 0.59432 0.65765
 H874 H 0.29746 0.53106 0.62642
 H875 H 0.31067 0.51068 0.65917
 H876 H 0.32972 0.57411 0.69034
 C877 C 0.20476 0.54801 0.35984
 C878 C 0.19420 0.56731 0.36856
 C879 C 0.17564 0.57647 0.35755
 C880 C 0.16726 0.56609 0.33827
 C881 C 0.17730 0.54633 0.32970
 C882 C 0.19641 0.53761 0.34045
 C883 C 0.20133 0.57709 0.38945
 C884 C 0.20624 0.58539 0.40723
 C885 C 0.21088 0.59516 0.42828
 C886 C 0.21403 0.60346 0.44643
 H887 H 0.21908 0.54072 0.36829
 H888 H 0.16734 0.59140 0.36413
 H889 H 0.15274 0.57339 0.33016
 H890 H 0.20437 0.52232 0.33432
 C891 C 0.70702 0.05483 0.85783
 C892 C 0.69622 0.07344 0.86755
 C893 C 0.67794 0.08325 0.85676
 C894 C 0.66995 0.07413 0.83674
 C895 C 0.68001 0.05475 0.82697
 C896 C 0.69914 0.04565 0.83769
 C897 C 0.70285 0.08182 0.88917
 C898 C 0.70733 0.08892 0.90753
 C899 C 0.71145 0.09729 0.92925
 C900 C 0.71414 0.10446 0.94792
 H901 H 0.72115 0.04701 0.86613
 H902 H 0.66959 0.09784 0.86401
 H903 H 0.65607 0.08272 0.82887
 H904 H 0.70735 0.03058 0.83147
 C905 C 0.70854 0.95588 0.63915
 C906 C 0.70534 0.93245 0.63838
 C907 C 0.69563 0.92146 0.65658
 C908 C 0.68835 0.93396 0.67513
 C909 C 0.69057 0.95764 0.67562
 C910 C 0.70124 0.96840 0.65764
 C911 C 0.71019 0.92007 0.61817
 C912 C 0.71339 0.91015 0.60082
 C913 C 0.71628 0.89903 0.58010
 C914 C 0.71816 0.88995 0.56213
 H915 H 0.71600 0.96456 0.62514
 H916 H 0.69294 0.90335 0.65610
 H917 H 0.67995 0.92523 0.68858
 H918 H 0.70340 0.98657 0.65765
 C919 C 0.20122 0.42404 0.15365
 C920 C 0.19983 0.43557 0.13351
 C921 C 0.19193 0.45780 0.13335
 C922 C 0.18470 0.46820 0.15311
 C923 C 0.18520 0.45644 0.17331
 C924 C 0.19399 0.43440 0.17342
 C925 C 0.20490 0.42406 0.11287
 C926 C 0.20835 0.41427 0.09549
 C927 C 0.21161 0.40276 0.07504
 C928 C 0.21389 0.39299 0.05746
 H929 H 0.20732 0.40682 0.15397
 H930 H 0.19066 0.46684 0.11784
 H931 H 0.17774 0.48505 0.15240
 H932 H 0.19483 0.42501 0.18875
 C933 C -0.15337 0.30042 0.42288
 C934 C -0.13188 0.31016 0.42543
 C935 C -0.12915 0.32948 0.43880
 C936 C -0.14781 0.33934 0.44919
 C937 C -0.16956 0.33004 0.44635
 C938 C -0.17213 0.31026 0.43336
 C939 C -0.11259 0.30123 0.41371
 C940 C -0.09584 0.29502 0.40402
 C941 C -0.07565 0.28915 0.39288
 C942 C -0.05798 0.28529 0.38361
 H943 H -0.15568 0.28550 0.41250
 H944 H -0.11260 0.33714 0.44093
 H945 H -0.14525 0.35434 0.45939
 H946 H -0.18871 0.30283 0.43078
 C947 C 0.37798 0.83555 0.93668
 C948 C 0.37627 0.81588 0.92366
 C949 C 0.35547 0.80460 0.92184
 C950 C 0.33636 0.81319 0.93276
 C951 C 0.33786 0.83323 0.94552
 C952 C 0.35895 0.84416 0.94754
 C953 C 0.39587 0.80789 0.91178
 C954 C 0.41272 0.80215 0.90195
 C955 C 0.43288 0.79646 0.89065
 C956 C 0.45044 0.79241 0.88122
 H957 H 0.39400 0.84438 0.93826
 H958 H 0.35395 0.78938 0.91175
 H959 H 0.32031 0.80451 0.93077
 H960 H 0.36074 0.85941 0.95754
 C961 C 1.16469 0.81183 0.07199
 C962 C 1.14640 0.80221 0.06048
 C963 C 1.14700 0.80064 0.03724
 C964 C 1.16544 0.80934 0.02549
 C965 C 1.18353 0.81980 0.03685
 C966 C 1.18318 0.82052 0.06026
 C967 C 1.12627 0.79564 0.07231
 C968 C 1.10897 0.79095 0.08188
 C969 C 1.08829 0.78628 0.09271
 C970 C 1.07034 0.78289 0.10163
 H971 H 1.16433 0.81328 0.08998
 H972 H 1.13292 0.79327 0.02816
 H973 H 1.16535 0.80831 0.00748
 H974 H 1.19670 0.82872 0.06947
 C975 C 0.63516 0.33502 0.55010
 C976 C 0.63620 0.31330 0.55886
 C977 C 0.65575 0.30036 0.55584
 C978 C 0.67418 0.30917 0.54402
 C979 C 0.67316 0.33098 0.53502
 C980 C 0.65346 0.34381 0.53831
 C981 C 0.61702 0.30466 0.57089
 C982 C 0.60032 0.29857 0.58071
 C983 C 0.58018 0.29270 0.59192
 C984 C 0.56257 0.28868 0.60124
 H985 H 0.62018 0.34523 0.55244
 H986 H 0.65673 0.28350 0.56257
 H987 H 0.68907 0.29886 0.54166
 H988 H 0.65231 0.36083 0.53203
 C989 C 0.35746 0.19838 0.54945
 C990 C 0.36396 0.19142 0.57068
 C991 C 0.35003 0.17673 0.58264
 C992 C 0.33002 0.16849 0.57320
 C993 C 0.32368 0.17478 0.55161
 C994 C 0.33738 0.19017 0.53998
 C995 C 0.38557 0.19805 0.57969
 C996 C 0.40387 0.20269 0.58730
 C997 C 0.42550 0.20721 0.59624
 C998 C 0.44410 0.21040 0.60386
 H999 H 0.36818 0.20965 0.54000
 H1000 H 0.35489 0.17124 0.59907
 H1001 H 0.31966 0.15691 0.58266
 H1002 H 0.33304 0.19515 0.52326
 C1003 C 0.85303 0.69886 0.06466
 C1004 C 0.87291 0.68625 0.06253
 C1005 C 0.87256 0.66566 0.05090
 C1006 C 0.85241 0.65741 0.04184
 C1007 C 0.83222 0.66964 0.04430
 C1008 C 0.83277 0.69064 0.05551
 C1009 C 0.89364 0.69370 0.07284
 C1010 C 0.91140 0.69871 0.08142
 C1011 C 0.93256 0.70332 0.09133
 C1012 C 0.95087 0.70635 0.09966
 H1013 H 0.85311 0.71482 0.07367
 H1014 H 0.88785 0.65579 0.04909
 H1015 H 0.85260 0.64139 0.03297
 H1016 H 0.81746 0.70034 0.05774
 C1017 C 0.65740 0.70369 0.93155
 C1018 C 0.63720 0.69133 0.92979
 C1019 C 0.63485 0.67093 0.94105
 C1020 C 0.65251 0.66286 0.95400
 C1021 C 0.67288 0.67511 0.95599
 C1022 C 0.67518 0.69561 0.94456
 C1023 C 0.61870 0.69916 0.91647
 C1024 C 0.60251 0.70462 0.90568
 C1025 C 0.58290 0.70983 0.89348
 C1026 C 0.56567 0.71340 0.88347
 H1027 H 0.65939 0.71953 0.92290
 H1028 H 0.61935 0.66116 0.93971
 H1029 H 0.65034 0.64679 0.96216
 H1030 H 0.69062 0.70546 0.94585
 C1031 C 0.15404 0.18552 0.41890
 C1032 C 0.13533 0.19549 0.42930
 C1033 C 0.13523 0.19872 0.45240
 C1034 C 0.15340 0.19131 0.46516
 C1035 C 0.17192 0.18050 0.45497
 C1036 C 0.17226 0.17812 0.43164
 C1037 C 0.11551 0.20078 0.41657
 C1038 C 0.09848 0.20443 0.40626
 C1039 C 0.07812 0.20794 0.39462
 C1040 C 0.06043 0.21039 0.38505
 H1041 H 0.15423 0.18280 0.40104
 H1042 H 0.12083 0.20639 0.46063
 H1043 H 0.15278 0.19360 0.48306
 H1044 H 0.18611 0.16960 0.42332
 C1045 C 0.54489 0.10196 0.69698
 C1046 C 0.55441 0.11296 0.67869
 C1047 C 0.57601 0.10702 0.67123
 C1048 C 0.58816 0.09029 0.68211
 C1049 C 0.57885 0.07926 0.70065
 C1050 C 0.55701 0.08518 0.70789
 C1051 C 0.54227 0.13069 0.66785
 C1052 C 0.53236 0.14577 0.65888
 C1053 C 0.52095 0.16368 0.64857
 C1054 C 0.51130 0.17918 0.64000
 H1055 H 0.52820 0.10650 0.70294
 H1056 H 0.58352 0.11540 0.65707
 H1057 H 0.60478 0.08587 0.67594
 H1058 H 0.54949 0.07718 0.72224
 C1059 C 1.08008 0.60892 0.18201
 C1060 C 1.05812 0.60537 0.17408
 C1061 C 1.04727 0.58463 0.17761
 C1062 C 1.05826 0.56759 0.18927
 C1063 C 1.08022 0.57117 0.19762
 C1064 C 1.09107 0.59195 0.19368
 C1065 C 1.04659 0.62333 0.16294
 C1066 C 1.03716 0.63876 0.15403
 C1067 C 1.02626 0.65719 0.14405
 C1068 C 1.01699 0.67316 0.13591
 H1069 H 1.08865 0.62488 0.17933
 H1070 H 1.03023 0.58174 0.17160
 H1071 H 1.04941 0.55185 0.19221
 H1072 H 1.10810 0.59508 0.19956
 C1073 C 0.97114 0.89255 0.19881
 C1074 C 0.96110 0.87985 0.18165
 C1075 C 0.93886 0.88433 0.17530
 C1076 C 0.92661 0.90133 0.18613
 C1077 C 0.93647 0.91410 0.20352
 C1078 C 0.95892 0.90960 0.20967
 C1079 C 0.97342 0.86198 0.17073
 C1080 C 0.98345 0.84683 0.16156
 C1081 C 0.99491 0.82889 0.15085
 C1082 C 1.00452 0.81341 0.14178
 H1083 H 0.98834 0.88917 0.20390
 H1084 H 0.93094 0.87465 0.16200
 H1085 H 0.90949 0.90462 0.18077
 H1086 H 0.96688 0.91897 0.22314
 C1087 C 0.43342 0.39107 0.67639
 C1088 C 0.45558 0.38606 0.68262
 C1089 C 0.46604 0.39857 0.69967
 C1090 C 0.45432 0.41595 0.71054
 C1091 C 0.43195 0.42098 0.70451
 C1092 C 0.42167 0.40840 0.68723
 C1093 C 0.46740 0.36789 0.67168
 C1094 C 0.47705 0.35252 0.66248
 C1095 C 0.48814 0.33439 0.65173
 C1096 C 0.49753 0.31881 0.64262
 H1097 H 0.42519 0.38153 0.66317
 H1098 H 0.48318 0.39479 0.70467
 H1099 H 0.46259 0.42518 0.72392
 H1100 H 0.40461 0.41209 0.68197
 C1101 C 0.44797 0.59600 0.82078
 C1102 C 0.45878 0.61162 0.80703
 C1103 C 0.45805 0.60869 0.78390
 C1104 C 0.44641 0.59029 0.77453
 C1105 C 0.43535 0.57456 0.78821
 C1106 C 0.43634 0.57759 0.81146
 C1107 C 0.47038 0.63078 0.81668
 C1108 C 0.47998 0.64685 0.82485
 C1109 C 0.49116 0.66566 0.83449
 C1110 C 0.50071 0.68172 0.84275
 H1111 H 0.44837 0.59815 0.83871
 H1112 H 0.46642 0.62065 0.77310
 H1113 H 0.44619 0.58828 0.75660
 H1114 H 0.42773 0.56599 0.82243
 C1115 C -0.05371 0.08923 0.32137
 C1116 C -0.04275 0.10509 0.30800
 C1117 C -0.04254 0.10212 0.28486
 C1118 C -0.05339 0.08345 0.27510
 C1119 C -0.06461 0.06748 0.28839
 C1120 C -0.06456 0.07055 0.31166
 C1121 C -0.03198 0.12454 0.31803
 C1122 C -0.02307 0.14085 0.32650
 C1123 C -0.01269 0.15997 0.33643
 C1124 C -0.00378 0.17630 0.34488
 H1125 H -0.05404 0.09140 0.33929
 H1126 H -0.03405 0.11427 0.27435
 H1127 H -0.05290 0.08143 0.25717
 H1128 H -0.07332 0.05876 0.32233
 C1129 C 0.07150 0.38277 0.30008
 C1130 C 0.05001 0.38621 0.30920
 C1131 C 0.04046 0.40779 0.30907
 C1132 C 0.05245 0.42591 0.29996
 C1133 C 0.07417 0.42264 0.29093
 C1134 C 0.08350 0.40083 0.29099
 C1135 C 0.03795 0.36755 0.31886
 C1136 C 0.02819 0.35173 0.32696
 C1137 C 0.01701 0.33305 0.33644
 C1138 C 0.00755 0.31704 0.34453
 H1139 H 0.07901 0.36612 0.30002
 H1140 H 0.02384 0.41063 0.31614
 H1141 H 0.04492 0.44254 0.30034
 H1142 H 0.10002 0.39769 0.28384
 C1143 C 0.54921 0.90201 0.78623
 C1144 C 0.55887 0.88986 0.80361
 C1145 C 0.58011 0.89616 0.81185
 C1146 C 0.59160 0.91462 0.80290
 C1147 C 0.58199 0.92707 0.78555
 C1148 C 0.56071 0.92049 0.77721
 C1149 C 0.54695 0.87110 0.81323
 C1150 C 0.53715 0.85544 0.82158
 C1151 C 0.52579 0.83717 0.83160
 C1152 C 0.51610 0.82161 0.84026
 H1153 H 0.53274 0.89729 0.77975
 H1154 H 0.58777 0.88683 0.82525
 H1155 H 0.60812 0.91903 0.80943
 H1156 H 0.55278 0.92987 0.76402
 C1157 C 0.67835 0.57452 0.11390
 C1158 C 0.67953 0.55111 0.11558
 C1159 C 0.69175 0.53874 0.09980
 C1160 C 0.70283 0.54970 0.08236
 C1161 C 0.70207 0.57357 0.08024
 C1162 C 0.68937 0.58562 0.09657
 C1163 C 0.66826 0.53990 0.13363
 C1164 C 0.65882 0.53074 0.14889
 C1165 C 0.64784 0.52018 0.16688
 C1166 C 0.63860 0.51117 0.18233
 H1167 H 0.66868 0.58428 0.12592
 H1168 H 0.69295 0.52054 0.10108
 H1169 H 0.71281 0.53913 0.07142
 H1170 H 0.68668 0.60361 0.09576
 C1171 C 0.16795 1.07199 0.60906
 C1172 C 0.17633 1.05118 0.61597
 C1173 C 0.19497 1.04164 0.60508
 C1174 C 0.20532 1.05294 0.58744
 C1175 C 0.19716 1.07399 0.58052
 C1176 C 0.17827 1.08333 0.59146
 C1177 C 0.16602 1.03987 0.63450
 C1178 C 0.15747 1.03058 0.65016
 C1179 C 0.14757 1.01982 0.66863
 C1180 C 0.13927 1.01065 0.68450
 H1181 H 0.15349 1.07951 0.61734
 H1182 H 0.20164 1.02556 0.61035
 H1183 H 0.21998 1.04545 0.57953
 H1184 H 0.17140 1.09934 0.58631
 C1185 C 0.19973 0.96816 0.90214
 C1186 C 0.18670 0.95666 0.88630
 C1187 C 0.18498 0.93320 0.88701
 C1188 C 0.19625 0.92118 0.90342
 C1189 C 0.20975 0.93233 0.91979
 C1190 C 0.21106 0.95628 0.91866
 C1191 C 0.17519 0.96882 0.86914
 C1192 C 0.16555 0.97868 0.85456
 C1193 C 0.15432 0.98991 0.83725
 C1194 C 0.14487 0.99931 0.82226
 H1195 H 0.20137 0.98638 0.90159
 H1196 H 0.17470 0.92412 0.87493
 H1197 H 0.19314 0.90320 0.90355
 H1198 H 0.22167 0.96621 0.92967
 C1199 C 0.68160 0.46707 0.40539
 C1200 C 0.68559 0.46196 0.38293
 C1201 C 0.70143 0.44545 0.37707
 C1202 C 0.71300 0.43384 0.39360
 C1203 C 0.70886 0.43858 0.41624
 C1204 C 0.69318 0.45548 0.42196
 C1205 C 0.67308 0.47321 0.36584
 C1206 C 0.66261 0.48231 0.35133
 C1207 C 0.65045 0.49267 0.33410
 C1208 C 0.64025 0.50135 0.31915
 H1209 H 0.66933 0.47978 0.41010
 H1210 H 0.70469 0.44141 0.35973
 H1211 H 0.72518 0.42114 0.38866
 H1212 H 0.68942 0.45932 0.43923
 C1213 C 0.81925 0.45569 0.58838
 C1214 C 0.80691 0.45606 0.60827
 C1215 C 0.78551 0.44590 0.60911
 C1216 C 0.77657 0.43518 0.59019
 C1217 C 0.78897 0.43444 0.57019
 C1218 C 0.81036 0.44497 0.56946
 C1219 C 0.81643 0.46654 0.62788
 C1220 C 0.82458 0.47524 0.64426
 C1221 C 0.83426 0.48540 0.66337
 C1222 C 0.84256 0.49415 0.67965
 H1223 H 0.83580 0.46357 0.58752
 H1224 H 0.77584 0.44606 0.62444
 H1225 H 0.76019 0.42700 0.59137
 H1226 H 0.82018 0.44496 0.55424
 C1227 C 0.31895 -0.04393 0.09049
 C1228 C 0.30684 -0.04490 0.11048
 C1229 C 0.28639 -0.05687 0.11134
 C1230 C 0.27819 -0.06802 0.09233
 C1231 C 0.29039 -0.06737 0.07221
 C1232 C 0.31081 -0.05508 0.07148
 C1233 C 0.31558 -0.03384 0.13014
 C1234 C 0.32311 -0.02460 0.14652
 C1235 C 0.33209 -0.01372 0.16560
 C1236 C 0.33983 -0.00429 0.18178
 H1237 H 0.33476 -0.03465 0.08962
 H1238 H 0.27689 -0.05777 0.12674
 H1239 H 0.26257 -0.07757 0.09350
 H1240 H 0.32043 -0.05401 0.05618
 C1241 C 0.27859 0.05919 0.38858
 C1242 C 0.29909 0.04764 0.39026
 C1243 C 0.31036 0.04704 0.41068
 C1244 C 0.30136 0.05818 0.42929
 C1245 C 0.28093 0.07011 0.42772
 C1246 C 0.26954 0.07033 0.40718
 C1247 C 0.30886 0.03684 0.37096
 C1248 C 0.31732 0.02791 0.35488
 C1249 C 0.32751 0.01749 0.33619
 C1250 C 0.33640 0.00852 0.32035
 H1251 H 0.26976 0.05982 0.37282
 H1252 H 0.32621 0.03810 0.41218
 H1253 H 0.31038 0.05746 0.44493
 H1254 H 0.25395 0.07961 0.40536
 C1255 C 0.80646 0.56860 0.89179
 C1256 C 0.79868 0.54687 0.88642
 C1257 C 0.78229 0.53655 0.89981
 C1258 C 0.77387 0.54788 0.91864
 C1259 C 0.78186 0.56962 0.92432
 C1260 C 0.79811 0.57991 0.91057
 C1261 C 0.80800 0.53512 0.86744
 C1262 C 0.81631 0.52557 0.85162
 C1263 C 0.82653 0.51461 0.83323
 C1264 C 0.83555 0.50531 0.81766
 H1265 H 0.81909 0.57677 0.88152
 H1266 H 0.77620 0.51970 0.89583
 H1267 H 0.76150 0.53947 0.92899
 H1268 H 0.80430 0.59678 0.91428
 C1269 C 0.09209 0.68087 0.54433
 C1270 C 0.11304 0.67817 0.55473
 C1271 C 0.11617 0.68606 0.57655
 C1272 C 0.09848 0.69671 0.58792
 C1273 C 0.07738 0.69963 0.57760
 C1274 C 0.07435 0.69151 0.55569
 C1275 C 0.13146 0.66756 0.54300
 C1276 C 0.14710 0.65888 0.53333
 C1277 C 0.16561 0.64896 0.52211
 C1278 C 0.18155 0.64070 0.51257
 H1279 H 0.08951 0.67488 0.52742
 H1280 H 0.13229 0.68401 0.58478
 H1281 H 0.10125 0.70244 0.60487
 H1282 H 0.05839 0.69371 0.54722
 C1283 C 0.61569 0.19423 1.07157
 C1284 C 0.61141 0.17847 1.05454
 C1285 C 0.58910 0.17360 1.04831
 C1286 C 0.57112 0.18436 1.05916
 C1287 C 0.57526 0.20012 1.07642
 C1288 C 0.59776 0.20498 1.08245
 C1289 C 0.62996 0.16738 1.04350
 C1290 C 0.64568 0.15828 1.03436
 C1291 C 0.66427 0.14793 1.02370
 C1292 C 0.68029 0.13940 1.01454
 H1293 H 0.63289 0.19820 1.07646
 H1294 H 0.58561 0.16142 1.03515
 H1295 H 0.55400 0.18007 1.05432
 H1296 H 0.60150 0.21726 1.09544
 C1297 C 0.87967 0.19626 0.94141
 C1298 C 0.88475 0.18758 0.96224
 C1299 C 0.90642 0.19048 0.97097
 C1300 C 0.92309 0.20180 0.95880
 C1301 C 0.91856 0.21051 0.93733
 C1302 C 0.89620 0.20756 0.92913
 C1303 C 0.86766 0.17552 0.97446
 C1304 C 0.85302 0.16543 0.98422
 C1305 C 0.83548 0.15370 0.99516
 C1306 C 0.82018 0.14383 1.00415
 H1307 H 0.86280 0.19438 0.93461
 H1308 H 0.91058 0.18366 0.98709
 H1309 H 0.93974 0.20236 0.96611
 H1310 H 0.89068 0.21470 0.91364
 C1311 C 0.40993 0.68721 0.46638
 C1312 C 0.38866 0.68376 0.45669
 C1313 C 0.38436 0.69200 0.43541
 C1314 C 0.40114 0.70379 0.42391
 C1315 C 0.42252 0.70754 0.43356
 C1316 C 0.42678 0.69900 0.45488
 C1317 C 0.37105 0.67213 0.46861
 C1318 C 0.35596 0.66267 0.47836
 C1319 C 0.33793 0.65192 0.48954
 C1320 C 0.32228 0.64302 0.49895
 H1321 H 0.41342 0.68096 0.48288
 H1322 H 0.36799 0.68938 0.42772
 H1323 H 0.39745 0.70982 0.40738
 H1324 H 0.44298 0.70179 0.46283
 C1325 C 0.60110 0.79943 0.46308
 C1326 C 0.60904 0.82104 0.45783
 C1327 C 0.59815 0.83351 0.44144
 C1328 C 0.57956 0.82432 0.43013
 C1329 C 0.57162 0.80249 0.43506
 C1330 C 0.58249 0.79021 0.45180
 C1331 C 0.62869 0.83020 0.46887
 C1332 C 0.64528 0.83778 0.47794
 C1333 C 0.66483 0.84652 0.48844
 C1334 C 0.68160 0.85385 0.49740
 H1335 H 0.60946 0.78960 0.47569
 H1336 H 0.60412 0.85027 0.43728
 H1337 H 0.57137 0.83432 0.41755
 H1338 H 0.57697 0.77327 0.45579
 C1339 C 0.09606 0.29811 -0.03528
 C1340 C 0.10932 0.31456 -0.04570
 C1341 C 0.10404 0.32131 -0.06729
 C1342 C 0.08552 0.31177 -0.07840
 C1343 C 0.07198 0.29532 -0.06805
 C1344 C 0.07750 0.28852 -0.04638
 C1345 C 0.12836 0.32458 -0.03434
 C1346 C 0.14437 0.33312 -0.02508
 C1347 C 0.16323 0.34319 -0.01448
 C1348 C 0.17946 0.35172 -0.00556
 H1349 H 0.09999 0.29278 -0.01856
 H1350 H 0.11425 0.33394 -0.07556
 H1351 H 0.08194 0.31710 -0.09519
 H1352 H 0.06728 0.27607 -0.03789
 C1353 C 0.40717 0.31367 0.04515
 C1354 C 0.38605 0.30293 0.04449
 C1355 C 0.38290 0.28238 0.05537
 C1356 C 0.40071 0.27278 0.06720
 C1357 C 0.42187 0.28372 0.06835
 C1358 C 0.42497 0.30414 0.05697
 C1359 C 0.36749 0.31348 0.03327
 C1360 C 0.35207 0.32275 0.02410
 C1361 C 0.33411 0.33395 0.01354
 C1362 C 0.31884 0.34369 0.00461
 H1363 H 0.40982 0.32955 0.03674
 H1364 H 0.36659 0.27396 0.05502
 H1365 H 0.39774 0.25718 0.07598
 H1366 H 0.44114 0.31279 0.05729
 C1367 C 0.90249 0.82026 0.56492
 C1368 C 0.89039 0.80745 0.54923
 C1369 C 0.89604 0.78480 0.54540
 C1370 C 0.91358 0.77494 0.55739
 C1371 C 0.92564 0.78762 0.57343
 C1372 C 0.91999 0.81045 0.57693
 C1373 C 0.87194 0.81750 0.53741
 C1374 C 0.85641 0.82612 0.52782
 C1375 C 0.83815 0.83639 0.51684
 C1376 C 0.82252 0.84524 0.50761
 H1377 H 0.89831 0.83782 0.56797
 H1378 H 0.88674 0.77471 0.53332
 H1379 H 0.91738 0.75728 0.55448
 H1380 H 0.92918 0.82075 0.58891
   
