data_POSCAR
  _audit_creation_date              2014-09-24
  _audit_creation_method            'ToBaCCo'
  _symmetry_space_group_name_H-M    'P1'
  _symmetry_Int_Tables_number       1
  _symmetry_cell_setting            triclinic
  loop_
  _symmetry_equiv_pos_as_xyz
 x,y,z
_cell_length_a 79.2167
_cell_length_b 79.2758
_cell_length_c 79.3031
_cell_angle_alpha 89.945600
_cell_angle_beta 89.975600
_cell_angle_gamma 89.938600
loop_
  _atom_site_label
  _atom_site_type_symbol
  _atom_site_fract_x
  _atom_site_fract_y
  _atom_site_fract_z
N1 N 0.35901 0.31190 0.32405
 N2 N 0.35810 0.32275 0.31156
 C3 C 0.37107 0.32002 0.30092
 C4 C 0.38065 0.30678 0.30713
 C5 C 0.37262 0.30198 0.32186
 H6 H 0.37345 0.32718 0.28956
 H7 H 0.37615 0.29174 0.33016
 Cu8 Cu 0.34002 0.33933 0.31044
 Cu9 Cu 0.34202 0.31076 0.34171
 Cu10 Cu 0.30925 0.33971 0.33974
 N11 N 0.32222 0.35622 0.31018
 N12 N 0.31001 0.35607 0.32141
 C13 C 0.29944 0.36901 0.31833
 C14 C 0.30540 0.37785 0.30449
 C15 C 0.31990 0.36936 0.29967
 H16 H 0.28850 0.37205 0.32590
 H17 H 0.32811 0.37252 0.28925
 N18 N 0.31086 0.32221 0.35736
 N19 N 0.32359 0.31151 0.35833
 C20 C 0.32138 0.30150 0.37187
 C21 C 0.30650 0.30605 0.37980
 C22 C 0.30016 0.31922 0.37023
 H23 H 0.32983 0.29144 0.37554
 H24 H 0.28872 0.32627 0.37262
 H25 H 0.32247 0.32079 0.32762
 H26 H 0.33501 0.33593 0.34057
 N27 N 0.35995 0.81366 -0.17512
 N28 N 0.35850 0.82362 -0.18827
 C29 C 0.37069 0.81985 -0.19947
 C30 C 0.38051 0.80681 -0.19296
 C31 C 0.37321 0.80330 -0.17738
 H32 H 0.37240 0.82643 -0.21127
 H33 H 0.37711 0.79396 -0.16824
 Cu34 Cu 0.34133 0.84114 -0.18897
 Cu35 Cu 0.34483 0.81540 -0.15580
 Cu36 Cu 0.30728 0.83647 -0.16444
 N37 N 0.32355 0.85807 -0.18854
 N38 N 0.30994 0.85597 -0.17931
 C39 C 0.29910 0.86869 -0.18243
 C40 C 0.30634 0.87953 -0.19422
 C41 C 0.32199 0.87230 -0.19763
 H42 H 0.28688 0.86981 -0.17648
 H43 H 0.33140 0.87667 -0.20648
 N44 N 0.31023 0.82120 -0.14493
 N45 N 0.32467 0.81370 -0.14139
 C46 C 0.32289 0.80464 -0.12715
 C47 C 0.30649 0.80650 -0.12131
 C48 C 0.29886 0.81717 -0.13293
 H49 H 0.33278 0.79701 -0.12167
 H50 H 0.28609 0.82194 -0.13257
 H51 H 0.32624 0.81975 -0.17262
 H52 H 0.33231 0.83844 -0.15970
 N53 N 0.85724 0.31159 -0.17735
 N54 N 0.85698 0.32310 -0.18929
 C55 C 0.86984 0.32019 -0.20003
 C56 C 0.87870 0.30620 -0.19441
 C57 C 0.87032 0.30109 -0.17998
 H58 H 0.87280 0.32786 -0.21091
 H59 H 0.87344 0.29045 -0.17204
 Cu60 Cu 0.84017 0.34106 -0.18918
 Cu61 Cu 0.84059 0.31089 -0.15932
 Cu62 Cu 0.81002 0.34218 -0.15936
 N63 N 0.82276 0.35844 -0.18915
 N64 N 0.81093 0.35864 -0.17755
 C65 C 0.80043 0.37165 -0.18047
 C66 C 0.80596 0.38030 -0.19469
 C67 C 0.82026 0.37146 -0.19980
 H68 H 0.78973 0.37464 -0.17257
 H69 H 0.82819 0.37410 -0.21056
 N70 N 0.81118 0.32441 -0.14203
 N71 N 0.82265 0.31234 -0.14217
 C72 C 0.81983 0.30190 -0.12905
 C73 C 0.80597 0.30775 -0.12017
 C74 C 0.80085 0.32206 -0.12875
 H75 H 0.82739 0.29095 -0.12606
 H76 H 0.79017 0.32999 -0.12569
 H77 H 0.82167 0.32295 -0.17260
 H78 H 0.83549 0.33643 -0.15913
 N79 N 0.85781 0.81106 0.32266
 N80 N 0.85874 0.82390 0.31220
 C81 C 0.87213 0.82175 0.30196
 C82 C 0.88002 0.80674 0.30621
 C83 C 0.87055 0.80030 0.31941
 H84 H 0.87572 0.83031 0.29197
 H85 H 0.87286 0.78875 0.32631
 Cu86 Cu 0.84186 0.84167 0.31282
 Cu87 Cu 0.84027 0.80937 0.33995
 Cu88 Cu 0.80988 0.84107 0.34022
 N89 N 0.82462 0.85913 0.31237
 N90 N 0.81184 0.85845 0.32290
 C91 C 0.80117 0.87123 0.31958
 C92 C 0.80761 0.88061 0.30624
 C93 C 0.82260 0.87249 0.30206
 H94 H 0.78970 0.87352 0.32658
 H95 H 0.83119 0.87571 0.29197
 N96 N 0.81018 0.82238 0.35665
 N97 N 0.82153 0.81016 0.35639
 C98 C 0.81840 0.79950 0.36926
 C99 C 0.80451 0.80535 0.37810
 C100 C 0.79965 0.81987 0.36973
 H101 H 0.82595 0.78855 0.37230
 H102 H 0.78920 0.82802 0.37297
 H103 H 0.82222 0.82256 0.32665
 H104 H 0.83517 0.83478 0.34197
 N105 N 0.64198 0.68947 0.32314
 N106 N 0.64207 0.67789 0.31130
 C107 C 0.62913 0.68079 0.30066
 C108 C 0.62039 0.69485 0.30624
 C109 C 0.62890 0.70001 0.32057
 H110 H 0.62608 0.67309 0.28984
 H111 H 0.62592 0.71075 0.32842
 Cu112 Cu 0.65885 0.65994 0.31113
 Cu113 Cu 0.65897 0.69025 0.34084
 Cu114 Cu 0.68972 0.65915 0.34027
 N115 N 0.67641 0.64275 0.31086
 N116 N 0.68854 0.64267 0.32215
 C117 C 0.69907 0.62972 0.31897
 C118 C 0.69319 0.62114 0.30497
 C119 C 0.67875 0.62976 0.30017
 H120 H 0.71003 0.62663 0.32647
 H121 H 0.67068 0.62688 0.28957
 N122 N 0.68878 0.67692 0.35758
 N123 N 0.67722 0.68891 0.35765
 C124 C 0.68014 0.69928 0.37076
 C125 C 0.69414 0.69348 0.37944
 C126 C 0.69926 0.67926 0.37074
 H127 H 0.67250 0.71013 0.37394
 H128 H 0.70999 0.67135 0.37366
 H129 H 0.67765 0.67823 0.32714
 H130 H 0.66424 0.66473 0.34105
 N131 N 0.64368 0.18897 -0.17764
 N132 N 0.64171 0.17526 -0.18673
 C133 C 0.62835 0.17733 -0.19702
 C134 C 0.62156 0.19323 -0.19426
 C135 C 0.63168 0.20023 -0.18186
 H136 H 0.62397 0.16794 -0.20587
 H137 H 0.63019 0.21245 -0.17600
 Cu138 Cu 0.65659 0.15586 -0.18429
 Cu139 Cu 0.66101 0.19083 -0.16035
 Cu140 Cu 0.69110 0.15940 -0.15972
 N141 N 0.67560 0.14039 -0.18629
 N142 N 0.68915 0.14208 -0.17693
 C143 C 0.70033 0.12999 -0.18099
 C144 C 0.69346 0.11995 -0.19360
 C145 C 0.67765 0.12705 -0.19660
 H146 H 0.71244 0.12856 -0.17490
 H147 H 0.66830 0.12300 -0.20564
 N148 N 0.69083 0.17801 -0.14336
 N149 N 0.67952 0.19022 -0.14376
 C150 C 0.68249 0.20088 -0.13088
 C151 C 0.69627 0.19502 -0.12187
 C152 C 0.70122 0.18049 -0.13017
 H153 H 0.67485 0.21180 -0.12794
 H154 H 0.71159 0.17229 -0.12681
 H155 H 0.67724 0.17611 -0.17445
 H156 H 0.66575 0.16551 -0.15664
 N157 N 0.14072 0.68775 -0.17566
 N158 N 0.14133 0.67669 -0.18798
 C159 C 0.12827 0.67946 -0.19850
 C160 C 0.11893 0.69292 -0.19239
 C161 C 0.12722 0.69782 -0.17784
 H162 H 0.12569 0.67220 -0.20974
 H163 H 0.12394 0.70825 -0.16969
 Cu164 Cu 0.15926 0.65991 -0.18901
 Cu165 Cu 0.15797 0.68899 -0.15827
 Cu166 Cu 0.19081 0.66012 -0.16062
 N167 N 0.17733 0.64328 -0.18974
 N168 N 0.18982 0.64367 -0.17884
 C169 C 0.20050 0.63086 -0.18210
 C170 C 0.19434 0.62186 -0.19573
 C171 C 0.17960 0.63013 -0.20025
 H172 H 0.21166 0.62802 -0.17478
 H173 H 0.17118 0.62681 -0.21043
 N174 N 0.18942 0.67769 -0.14307
 N175 N 0.17664 0.68833 -0.14193
 C176 C 0.17899 0.69834 -0.12844
 C177 C 0.19399 0.69386 -0.12073
 C178 C 0.20028 0.68073 -0.13037
 H179 H 0.17052 0.70833 -0.12463
 H180 H 0.21176 0.67372 -0.12809
 H181 H 0.17719 0.67879 -0.17269
 H182 H 0.16509 0.66384 -0.15908
 N183 N 0.14200 0.18886 0.32345
 N184 N 0.14118 0.17598 0.31307
 C185 C 0.12794 0.17814 0.30264
 C186 C 0.12005 0.19321 0.30667
 C187 C 0.12936 0.19967 0.31996
 H188 H 0.12445 0.16947 0.29272
 H189 H 0.12700 0.21124 0.32676
 Cu190 Cu 0.15737 0.15756 0.31404
 Cu191 Cu 0.15921 0.19048 0.34083
 Cu192 Cu 0.19093 0.16048 0.34011
 N193 N 0.17637 0.14210 0.31257
 N194 N 0.18952 0.14336 0.32258
 C195 C 0.20055 0.13096 0.31890
 C196 C 0.19394 0.12135 0.30589
 C197 C 0.17857 0.12885 0.30220
 H198 H 0.21231 0.12886 0.32549
 H199 H 0.16966 0.12500 0.29264
 N200 N 0.19001 0.17878 0.35691
 N201 N 0.17771 0.19000 0.35736
 C202 C 0.18013 0.20033 0.37060
 C203 C 0.19471 0.19544 0.37888
 C204 C 0.20067 0.18176 0.36981
 H205 H 0.17191 0.21068 0.37397
 H206 H 0.21169 0.17425 0.37269
 H207 H 0.17691 0.17768 0.32641
 H208 H 0.16541 0.16510 0.34277
 N209 N 0.64330 0.31047 0.67752
 N210 N 0.64241 0.32320 0.68810
 C211 C 0.62903 0.32097 0.69834
 C212 C 0.62115 0.30601 0.69400
 C213 C 0.63058 0.29968 0.68073
 H214 H 0.62541 0.32947 0.70837
 H215 H 0.62820 0.28824 0.67372
 Cu216 Cu 0.65922 0.34105 0.68758
 Cu217 Cu 0.66052 0.30908 0.65996
 Cu218 Cu 0.69022 0.34127 0.65891
 N219 N 0.67612 0.35883 0.68736
 N220 N 0.68838 0.35863 0.67619
 C221 C 0.69878 0.37170 0.67907
 C222 C 0.69276 0.38064 0.69280
 C223 C 0.67830 0.37211 0.69772
 H224 H 0.70991 0.37450 0.67168
 H225 H 0.67025 0.37512 0.70831
 N226 N 0.68995 0.32256 0.64257
 N227 N 0.67889 0.31013 0.64315
 C228 C 0.68203 0.29940 0.63036
 C229 C 0.69565 0.30543 0.62122
 C230 C 0.70033 0.32012 0.62935
 H231 H 0.67468 0.28827 0.62759
 H232 H 0.71059 0.32841 0.62589
 H233 H 0.67874 0.32245 0.67282
 H234 H 0.66497 0.33463 0.65811
 N235 N 0.64298 0.80986 1.17833
 N236 N 0.64261 0.82188 1.18973
 C237 C 0.62918 0.81950 1.19987
 C238 C 0.62063 0.80528 1.19446
 C239 C 0.62974 0.79950 1.18073
 H240 H 0.62570 0.82762 1.21025
 H241 H 0.62711 0.78844 1.17322
 Cu242 Cu 0.65957 0.83961 1.18975
 Cu243 Cu 0.66103 0.80807 1.16174
 Cu244 Cu 0.68900 0.84164 1.15935
 N245 N 0.67671 0.85714 1.18980
 N246 N 0.68809 0.85790 1.17776
 C247 C 0.69838 0.87107 1.18063
 C248 C 0.69315 0.87908 1.19523
 C249 C 0.67932 0.86990 1.20070
 H250 H 0.70880 0.87463 1.17258
 H251 H 0.67186 0.87223 1.21187
 N252 N 0.68793 0.82366 1.14223
 N253 N 0.67759 0.81067 1.14337
 C254 C 0.68038 0.80026 1.13026
 C255 C 0.69312 0.80698 1.12038
 C256 C 0.69756 0.82185 1.12835
 H257 H 0.67356 0.78867 1.12802
 H258 H 0.70740 0.83050 1.12457
 H259 H 0.67952 0.82251 1.17367
 H260 H 0.66397 0.83379 1.16002
 N261 N 0.14180 0.31151 1.17613
 N262 N 0.14155 0.32380 1.18724
 C263 C 0.12822 0.32168 1.19757
 C264 C 0.11971 0.30723 1.19273
 C265 C 0.12870 0.30111 1.17906
 H266 H 0.12515 0.32978 1.20808
 H267 H 0.12589 0.28997 1.17173
 Cu268 Cu 0.15921 0.34080 1.18745
 Cu269 Cu 0.15916 0.30981 1.15877
 Cu270 Cu 0.19102 0.33989 1.15953
 N271 N 0.17689 0.35777 1.18777
 N272 N 0.18950 0.35714 1.17701
 C273 C 0.20012 0.37001 1.18012
 C274 C 0.19380 0.37927 1.19352
 C275 C 0.17903 0.37111 1.19804
 H276 H 0.21145 0.37259 1.17296
 H277 H 0.17061 0.37450 1.20822
 N278 N 0.19016 0.32146 1.14282
 N279 N 0.17784 0.31027 1.14234
 C280 C 0.18038 0.29988 1.12916
 C281 C 0.19505 0.30467 1.12099
 C282 C 0.20093 0.31837 1.13004
 H283 H 0.17220 0.28952 1.12576
 H284 H 0.21201 0.32582 1.12721
 H285 H 0.17794 0.32151 1.17251
 H286 H 0.16546 0.33512 1.15791
 N287 N 0.14230 0.81058 0.67703
 N288 N 0.14244 0.82203 0.68900
 C289 C 0.12937 0.81924 0.69950
 C290 C 0.12049 0.80536 0.69373
 C291 C 0.12907 0.80022 0.67942
 H292 H 0.12634 0.82691 0.71036
 H293 H 0.12599 0.78966 0.67137
 Cu294 Cu 0.15968 0.83948 0.68955
 Cu295 Cu 0.15911 0.81002 0.65910
 Cu296 Cu 0.18640 0.84411 0.65695
 N297 N 0.17660 0.85725 0.68926
 N298 N 0.18721 0.85877 0.67661
 C299 C 0.19751 0.87193 0.67949
 C300 C 0.19308 0.87914 0.69476
 C301 C 0.17972 0.86951 0.70059
 H302 H 0.20724 0.87617 0.67092
 H303 H 0.17287 0.87126 0.71225
 N304 N 0.18697 0.82528 0.64076
 N305 N 0.17690 0.81208 0.64187
 C306 C 0.18074 0.80118 0.62944
 C307 C 0.19387 0.80782 0.62001
 C308 C 0.19747 0.82314 0.62758
 H309 H 0.17427 0.78939 0.62725
 H310 H 0.20723 0.83194 0.62396
 H311 H 0.17817 0.82381 0.67085
 H312 H 0.16147 0.83565 0.65907
 N313 N 0.35766 0.68886 0.67688
 N314 N 0.35752 0.67732 0.68879
 C315 C 0.37050 0.68014 0.69939
 C316 C 0.37931 0.69413 0.69374
 C317 C 0.37079 0.69931 0.67940
 H318 H 0.37348 0.67247 0.71026
 H319 H 0.37378 0.71003 0.67152
 Cu320 Cu 0.34043 0.65969 0.68914
 Cu321 Cu 0.34066 0.68972 0.65917
 Cu322 Cu 0.30993 0.65862 0.65970
 N323 N 0.32320 0.64221 0.68920
 N324 N 0.31115 0.64208 0.67781
 C325 C 0.30074 0.62904 0.68086
 C326 C 0.30660 0.62043 0.69487
 C327 C 0.32092 0.62913 0.69981
 H328 H 0.28984 0.62590 0.67328
 H329 H 0.32892 0.62626 0.71048
 N330 N 0.31085 0.67646 0.64241
 N331 N 0.32241 0.68844 0.64236
 C332 C 0.31949 0.69885 0.62925
 C333 C 0.30550 0.69309 0.62056
 C334 C 0.30038 0.67885 0.62925
 H335 H 0.32713 0.70969 0.62608
 H336 H 0.28966 0.67096 0.62631
 H337 H 0.32179 0.67784 0.67269
 H338 H 0.33541 0.66419 0.65914
 N339 N 0.35997 0.18687 1.17440
 N340 N 0.35824 0.17740 1.18789
 C341 C 0.36998 0.18180 1.19932
 C342 C 0.37972 0.19467 1.19257
 C343 C 0.37299 0.19750 1.17668
 H344 H 0.37164 0.17571 1.21141
 H345 H 0.37719 0.20659 1.16741
 Cu346 Cu 0.34167 0.15934 1.18850
 Cu347 Cu 0.34541 0.18421 1.15478
 Cu348 Cu 0.30750 0.16428 1.16421
 N349 N 0.32319 0.14331 1.18923
 N350 N 0.30972 0.14530 1.17976
 C351 C 0.29880 0.13268 1.18294
 C352 C 0.30590 0.12208 1.19495
 C353 C 0.32139 0.12931 1.19864
 H354 H 0.28674 0.13127 1.17674
 H355 H 0.33063 0.12485 1.20761
 N356 N 0.31059 0.17903 1.14439
 N357 N 0.32518 0.18604 1.14051
 C358 C 0.32346 0.19484 1.12612
 C359 C 0.30695 0.19332 1.12053
 C360 C 0.29918 0.18316 1.13249
 H361 H 0.33350 0.20206 1.12036
 H362 H 0.28625 0.17882 1.13247
 H363 H 0.32690 0.18055 1.17182
 H364 H 0.33236 0.16148 1.15918
 N365 N 0.85728 0.68981 1.17819
 N366 N 0.85834 0.67696 1.18861
 C367 C 0.87161 0.67926 1.19894
 C368 C 0.87933 0.69437 1.19480
 C369 C 0.86983 0.70075 1.18158
 H370 H 0.87532 0.67062 1.20881
 H371 H 0.87212 0.71227 1.17464
 Cu372 Cu 0.84243 0.65830 1.18793
 Cu373 Cu 0.84026 0.69093 1.16054
 Cu374 Cu 0.81068 0.65887 1.15960
 N375 N 0.82466 0.64138 1.18800
 N376 N 0.81225 0.64173 1.17703
 C377 C 0.80167 0.62884 1.18018
 C378 C 0.80776 0.61987 1.19389
 C379 C 0.82241 0.62821 1.19850
 H380 H 0.79044 0.62614 1.17294
 H381 H 0.83064 0.62511 1.20892
 N382 N 0.81110 0.67731 1.14302
 N383 N 0.82212 0.68976 1.14356
 C384 C 0.81903 0.70041 1.13068
 C385 C 0.80547 0.69431 1.12152
 C386 C 0.80079 0.67964 1.12973
 H387 H 0.82634 0.71158 1.12791
 H388 H 0.79053 0.67134 1.12633
 H389 H 0.82259 0.67720 1.17395
 H390 H 0.83605 0.66531 1.15862
 N391 N 0.85705 0.18904 0.67729
 N392 N 0.85622 0.17813 0.68974
 C393 C 0.86907 0.18102 0.70048
 C394 C 0.87849 0.19441 0.69438
 C395 C 0.87047 0.19916 0.67962
 H396 H 0.87161 0.17370 0.71171
 H397 H 0.87404 0.20932 0.67124
 Cu398 Cu 0.83880 0.16080 0.69050
 Cu399 Cu 0.84069 0.18944 0.65903
 Cu400 Cu 0.81066 0.15782 0.65872
 N401 N 0.82219 0.14272 0.68955
 N402 N 0.81140 0.14155 0.67704
 C403 C 0.80143 0.12806 0.67951
 C404 C 0.80618 0.12025 0.69442
 C405 C 0.81946 0.12993 0.70041
 H406 H 0.79150 0.12421 0.67101
 H407 H 0.82652 0.12793 0.71190
 N408 N 0.81184 0.17548 0.64132
 N409 N 0.82307 0.18774 0.64162
 C410 C 0.82018 0.19820 0.62854
 C411 C 0.80650 0.19219 0.61952
 C412 C 0.80157 0.17774 0.62798
 H413 H 0.82753 0.20933 0.62573
 H414 H 0.79101 0.16971 0.62486
 H415 H 0.82114 0.17779 0.67181
 H416 H 0.83607 0.16379 0.66003
 N417 N 0.31006 0.35627 0.67917
 N418 N 0.32252 0.35673 0.69009
 C419 C 0.32010 0.36981 0.70066
 C420 C 0.30530 0.37797 0.69615
 C421 C 0.29925 0.36896 0.68247
 H422 H 0.32848 0.37317 0.71086
 H423 H 0.28809 0.37175 0.67514
 Cu424 Cu 0.34082 0.34036 0.68930
 Cu425 Cu 0.30928 0.33990 0.66085
 Cu426 Cu 0.34213 0.31104 0.65874
 N427 N 0.35852 0.32331 0.68860
 N428 N 0.35919 0.31220 0.67633
 C429 C 0.37262 0.30208 0.67867
 C430 C 0.38079 0.30699 0.69327
 C431 C 0.37146 0.32051 0.69927
 H432 H 0.37597 0.29164 0.67056
 H433 H 0.37401 0.32782 0.71048
 N434 N 0.32364 0.31177 0.64219
 N435 N 0.31088 0.32243 0.64322
 C436 C 0.30015 0.31943 0.63038
 C437 C 0.30651 0.30630 0.62077
 C438 C 0.32142 0.30178 0.62866
 H439 H 0.28869 0.32646 0.62802
 H440 H 0.32990 0.29177 0.62495
 H441 H 0.32290 0.32135 0.67313
 H442 H 0.33499 0.33618 0.65939
 N443 N 0.31151 0.85893 0.17620
 N444 N 0.32382 0.85910 0.18730
 C445 C 0.32181 0.87249 0.19755
 C446 C 0.30740 0.88111 0.19269
 C447 C 0.30121 0.87213 0.17907
 H448 H 0.32994 0.87549 0.20808
 H449 H 0.29004 0.87498 0.17176
 Cu450 Cu 0.34066 0.84123 0.18783
 Cu451 Cu 0.30957 0.84148 0.15904
 Cu452 Cu 0.33910 0.80916 0.16016
 N453 N 0.35734 0.82322 0.18812
 N454 N 0.35638 0.81048 0.17757
 C455 C 0.36910 0.79966 0.18073
 C456 C 0.37861 0.80598 0.19393
 C457 C 0.37077 0.82097 0.19828
 H458 H 0.37144 0.78820 0.17372
 H459 H 0.37445 0.82949 0.20826
 N460 N 0.32071 0.81018 0.14344
 N461 N 0.30971 0.82268 0.14279
 C462 C 0.29938 0.82026 0.12953
 C463 C 0.30403 0.80549 0.12148
 C464 C 0.31757 0.79942 0.13069
 H465 H 0.28922 0.82864 0.12596
 H466 H 0.32493 0.78826 0.12796
 H467 H 0.32099 0.82274 0.17312
 H468 H 0.33482 0.83481 0.15835
 N469 N 0.81167 0.35867 0.17670
 N470 N 0.82445 0.35934 0.18722
 C471 C 0.82228 0.37252 0.19770
 C472 C 0.80730 0.38053 0.19356
 C473 C 0.80091 0.37136 0.18015
 H474 H 0.83086 0.37586 0.20775
 H475 H 0.78939 0.37383 0.17326
 Cu476 Cu 0.84273 0.34297 0.18648
 Cu477 Cu 0.81003 0.34153 0.15929
 Cu478 Cu 0.83990 0.30970 0.16003
 N479 N 0.85828 0.32402 0.18768
 N480 N 0.85703 0.31097 0.17756
 C481 C 0.86948 0.29995 0.18112
 C482 C 0.87911 0.30646 0.19417
 C483 C 0.87157 0.32176 0.19800
 H484 H 0.87161 0.28827 0.17442
 H485 H 0.87541 0.33058 0.20764
 N486 N 0.82163 0.31073 0.14321
 N487 N 0.81046 0.32307 0.14274
 C488 C 0.80012 0.32069 0.12950
 C489 C 0.80495 0.30610 0.12124
 C490 C 0.81861 0.30010 0.13032
 H491 H 0.78978 0.32894 0.12613
 H492 H 0.82607 0.28903 0.12748
 H493 H 0.82261 0.32367 0.17370
 H494 H 0.83542 0.33527 0.15759
 N495 N 0.81115 0.85853 0.67681
 N496 N 0.82194 0.85730 0.68935
 C497 C 0.81912 0.87000 0.70029
 C498 C 0.80589 0.87973 0.69422
 C499 C 0.80118 0.87203 0.67929
 H500 H 0.82632 0.87221 0.71165
 H501 H 0.79107 0.87583 0.67095
 Cu502 Cu 0.83891 0.83948 0.68949
 Cu503 Cu 0.81037 0.84232 0.65837
 Cu504 Cu 0.84021 0.81026 0.65897
 N505 N 0.85588 0.82168 0.68964
 N506 N 0.85642 0.81049 0.67742
 C507 C 0.86962 0.80010 0.67991
 C508 C 0.87784 0.80497 0.69450
 C509 C 0.86873 0.81870 0.70038
 H510 H 0.87296 0.78974 0.67170
 H511 H 0.87156 0.82623 0.71138
 N512 N 0.82274 0.81223 0.64139
 N513 N 0.81161 0.82463 0.64096
 C514 C 0.80146 0.82247 0.62751
 C515 C 0.80636 0.80797 0.61914
 C516 C 0.81989 0.80182 0.62830
 H517 H 0.79099 0.83060 0.62428
 H518 H 0.82717 0.79061 0.62557
 H519 H 0.82082 0.82239 0.67149
 H520 H 0.83562 0.83588 0.65914
 N521 N 0.68750 0.64164 0.67614
 N522 N 0.67639 0.64233 0.68842
 C523 C 0.67917 0.62940 0.69912
 C524 C 0.69266 0.62004 0.69310
 C525 C 0.69760 0.62819 0.67848
 H526 H 0.67186 0.62687 0.71035
 H527 H 0.70801 0.62482 0.67033
 Cu528 Cu 0.65934 0.66001 0.68912
 Cu529 Cu 0.68865 0.65862 0.65848
 Cu530 Cu 0.65996 0.69157 0.66062
 N531 N 0.64315 0.67847 0.68995
 N532 N 0.64369 0.69095 0.67904
 C533 C 0.63104 0.70181 0.68238
 C534 C 0.62200 0.69576 0.69604
 C535 C 0.63008 0.68092 0.70053
 H536 H 0.62827 0.71297 0.67503
 H537 H 0.62663 0.67252 0.71070
 N538 N 0.67733 0.68983 0.64288
 N539 N 0.68794 0.67704 0.64185
 C540 C 0.69791 0.67919 0.62828
 C541 C 0.69345 0.69410 0.62037
 C542 C 0.68035 0.70052 0.63000
 H543 H 0.70791 0.67068 0.62458
 H544 H 0.67337 0.71201 0.62765
 H545 H 0.67846 0.67787 0.67295
 H546 H 0.66354 0.66588 0.65922
 N547 N 0.68839 0.14103 0.17642
 N548 N 0.67602 0.14084 0.18746
 C549 C 0.67805 0.12752 0.19782
 C550 C 0.69253 0.11896 0.19306
 C551 C 0.69875 0.12791 0.17941
 H552 H 0.66989 0.12452 0.20833
 H553 H 0.70996 0.12510 0.17216
 Cu554 Cu 0.65917 0.15868 0.18754
 Cu555 Cu 0.69041 0.15845 0.15915
 Cu556 Cu 0.66077 0.19079 0.16010
 N557 N 0.64248 0.17665 0.18811
 N558 N 0.64346 0.18943 0.17758
 C559 C 0.63075 0.20026 0.18077
 C560 C 0.62123 0.19389 0.19396
 C561 C 0.62906 0.17887 0.19829
 H562 H 0.62842 0.21174 0.17378
 H563 H 0.62535 0.17032 0.20825
 N564 N 0.67923 0.18970 0.14338
 N565 N 0.69027 0.17722 0.14284
 C566 C 0.70068 0.17964 0.12963
 C567 C 0.69604 0.19436 0.12149
 C568 C 0.68241 0.20042 0.13059
 H569 H 0.71091 0.17130 0.12619
 H570 H 0.67507 0.21157 0.12779
 H571 H 0.67888 0.17725 0.17303
 H572 H 0.66521 0.16523 0.15816
 N573 N 0.18857 0.64125 0.17603
 N574 N 0.17631 0.64106 0.18720
 C575 C 0.17838 0.62766 0.19745
 C576 C 0.19278 0.61906 0.19251
 C577 C 0.19890 0.62806 0.17886
 H578 H 0.17029 0.62462 0.20800
 H579 H 0.21005 0.62524 0.17151
 Cu580 Cu 0.15942 0.65887 0.18764
 Cu581 Cu 0.19039 0.65871 0.15880
 Cu582 Cu 0.16054 0.69080 0.15983
 N583 N 0.14251 0.67664 0.18797
 N584 N 0.14325 0.68931 0.17730
 C585 C 0.13039 0.69998 0.18042
 C586 C 0.12102 0.69363 0.19373
 C587 C 0.12909 0.67878 0.19818
 H588 H 0.12791 0.71139 0.17336
 H589 H 0.12557 0.67029 0.20826
 N590 N 0.17898 0.68992 0.14311
 N591 N 0.19009 0.67750 0.14250
 C592 C 0.20048 0.68004 0.12929
 C593 C 0.19577 0.69480 0.12123
 C594 C 0.18212 0.70074 0.13037
 H595 H 0.21075 0.67177 0.12579
 H596 H 0.17472 0.71187 0.12763
 H597 H 0.17884 0.67746 0.17274
 H598 H 0.16507 0.66520 0.15811
 N599 N 0.18886 0.14219 0.67760
 N600 N 0.17614 0.14146 0.68822
 C601 C 0.17827 0.12811 0.69852
 C602 C 0.19316 0.12004 0.69416
 C603 C 0.19954 0.12936 0.68082
 H604 H 0.16978 0.12466 0.70862
 H605 H 0.21098 0.12689 0.67380
 Cu606 Cu 0.15846 0.15849 0.68770
 Cu607 Cu 0.19048 0.15951 0.66012
 Cu608 Cu 0.15875 0.18983 0.65947
 N609 N 0.14095 0.17569 0.68776
 N610 N 0.14140 0.18814 0.67681
 C611 C 0.12847 0.19873 0.67986
 C612 C 0.11937 0.19259 0.69342
 C613 C 0.12763 0.17790 0.69810
 H614 H 0.12585 0.21002 0.67266
 H615 H 0.12440 0.16970 0.70851
 N616 N 0.17741 0.18934 0.64303
 N617 N 0.18966 0.17804 0.64343
 C618 C 0.20037 0.18110 0.63058
 C619 C 0.19450 0.19490 0.62160
 C620 C 0.17993 0.19977 0.62988
 H621 H 0.21137 0.17358 0.62766
 H622 H 0.17178 0.21020 0.62656
 H623 H 0.17741 0.17782 0.67318
 H624 H 0.16500 0.16451 0.65831
 N625 N 0.31166 0.64088 0.32363
 N626 N 0.32408 0.64065 0.31264
 C627 C 0.32206 0.62734 0.30229
 C628 C 0.30754 0.61883 0.30700
 C629 C 0.30129 0.62780 0.32062
 H630 H 0.33026 0.62431 0.29182
 H631 H 0.29004 0.62503 0.32782
 Cu632 Cu 0.34093 0.65847 0.31258
 Cu633 Cu 0.30962 0.65828 0.34089
 Cu634 Cu 0.33928 0.69054 0.34000
 N635 N 0.35764 0.67641 0.31203
 N636 N 0.35663 0.68918 0.32255
 C637 C 0.36930 0.70002 0.31934
 C638 C 0.37883 0.69368 0.30614
 C639 C 0.37104 0.67866 0.30183
 H640 H 0.37158 0.71151 0.32631
 H641 H 0.37475 0.67014 0.29186
 N642 N 0.32080 0.68947 0.35669
 N643 N 0.30974 0.67703 0.35721
 C644 C 0.29930 0.67945 0.37039
 C645 C 0.30394 0.69415 0.37855
 C646 C 0.31760 0.70018 0.36948
 H647 H 0.28905 0.67114 0.37381
 H648 H 0.32495 0.71130 0.37229
 H649 H 0.32120 0.67707 0.32704
 H650 H 0.33483 0.66499 0.34195
 N651 N 0.31142 0.14184 0.82194
 N652 N 0.32358 0.14182 0.81065
 C653 C 0.32128 0.12873 0.80007
 C654 C 0.30685 0.12015 0.80493
 C655 C 0.30093 0.12886 0.81886
 H656 H 0.32936 0.12578 0.78949
 H657 H 0.28995 0.12584 0.82637
 Cu658 Cu 0.34108 0.15906 0.81078
 Cu659 Cu 0.31018 0.15849 0.83993
 Cu660 Cu 0.34086 0.18960 0.84022
 N661 N 0.35788 0.17699 0.81081
 N662 N 0.35790 0.18865 0.82258
 C663 C 0.37101 0.19912 0.82001
 C664 C 0.37962 0.19386 0.80578
 C665 C 0.37090 0.17979 0.80023
 H666 H 0.37395 0.20990 0.82782
 H667 H 0.37403 0.17201 0.78948
 N668 N 0.32257 0.18845 0.85701
 N669 N 0.31106 0.17644 0.85708
 C670 C 0.30061 0.17887 0.87027
 C671 C 0.30571 0.19319 0.87883
 C672 C 0.31965 0.19894 0.87005
 H673 H 0.28995 0.17095 0.87333
 H674 H 0.32728 0.20981 0.87313
 H675 H 0.32220 0.17745 0.82665
 H676 H 0.33563 0.16407 0.84066
 N677 N 0.81133 0.64173 0.82330
 N678 N 0.82210 0.64298 0.81074
 C679 C 0.81933 0.63027 0.79981
 C680 C 0.80616 0.62051 0.80591
 C681 C 0.80143 0.62819 0.82085
 H682 H 0.82653 0.62807 0.78844
 H683 H 0.79137 0.62436 0.82922
 Cu684 Cu 0.83897 0.66083 0.81059
 Cu685 Cu 0.81053 0.65792 0.84177
 Cu686 Cu 0.84033 0.68996 0.84116
 N687 N 0.85598 0.67856 0.81044
 N688 N 0.85654 0.68972 0.82268
 C689 C 0.86975 0.70006 0.82019
 C690 C 0.87797 0.69518 0.80558
 C691 C 0.86883 0.68150 0.79969
 H692 H 0.87313 0.71037 0.82844
 H693 H 0.87165 0.67398 0.78867
 N694 N 0.82287 0.68799 0.85876
 N695 N 0.81175 0.67560 0.85919
 C696 C 0.80160 0.67776 0.87265
 C697 C 0.80647 0.69226 0.88103
 C698 C 0.82000 0.69840 0.87186
 H699 H 0.79115 0.66963 0.87589
 H700 H 0.82726 0.70960 0.87459
 H701 H 0.82091 0.67788 0.82868
 H702 H 0.83576 0.66434 0.84095
 N703 N 0.81214 0.14093 0.32319
 N704 N 0.82451 0.14070 0.31215
 C705 C 0.82242 0.12742 0.30177
 C706 C 0.80791 0.11893 0.30653
 C707 C 0.80173 0.12788 0.32019
 H708 H 0.83058 0.12440 0.29127
 H709 H 0.79051 0.12510 0.32744
 Cu710 Cu 0.84145 0.15841 0.31209
 Cu711 Cu 0.81024 0.15827 0.34051
 Cu712 Cu 0.84012 0.19034 0.33970
 N713 N 0.85825 0.17624 0.31157
 N714 N 0.85741 0.18893 0.32220
 C715 C 0.87015 0.19969 0.31900
 C716 C 0.87954 0.19338 0.30568
 C717 C 0.87160 0.17847 0.30129
 H718 H 0.87255 0.21111 0.32604
 H719 H 0.87515 0.17000 0.29122
 N720 N 0.82166 0.18932 0.35642
 N721 N 0.81052 0.17695 0.35690
 C722 C 0.80009 0.17940 0.37008
 C723 C 0.80482 0.19404 0.37828
 C724 C 0.81851 0.20002 0.36924
 H725 H 0.78978 0.17115 0.37346
 H726 H 0.82592 0.21110 0.37208
 H727 H 0.82191 0.17707 0.32673
 H728 H 0.83550 0.16481 0.34152
 N729 N 0.68812 0.35844 0.32311
 N730 N 0.67582 0.35863 0.31200
 C731 C 0.67784 0.37202 0.30172
 C732 C 0.69226 0.38060 0.30660
 C733 C 0.69842 0.37160 0.32024
 H734 H 0.66972 0.37507 0.29120
 H735 H 0.70957 0.37443 0.32757
 Cu736 Cu 0.65895 0.34080 0.31158
 Cu737 Cu 0.69005 0.34106 0.34034
 Cu738 Cu 0.66046 0.30886 0.33949
 N739 N 0.64225 0.32283 0.31142
 N740 N 0.64319 0.31014 0.32205
 C741 C 0.63048 0.29932 0.31895
 C742 C 0.62098 0.30560 0.30570
 C743 C 0.62883 0.32056 0.30125
 H744 H 0.62814 0.28790 0.32603
 H745 H 0.62516 0.32902 0.29120
 N746 N 0.67886 0.30993 0.35620
 N747 N 0.68990 0.32237 0.35670
 C748 C 0.70031 0.31997 0.36991
 C749 C 0.69566 0.30529 0.37810
 C750 C 0.68203 0.29923 0.36903
 H751 H 0.71056 0.32829 0.37331
 H752 H 0.67468 0.28811 0.37186
 H753 H 0.67855 0.32227 0.32641
 H754 H 0.66475 0.33450 0.34109
 N755 N 0.68740 0.85860 0.82420
 N756 N 0.67624 0.85797 0.81197
 C757 C 0.67898 0.87094 0.80131
 C758 C 0.69250 0.88024 0.80729
 C759 C 0.69749 0.87203 0.82186
 H760 H 0.67161 0.87353 0.79013
 H761 H 0.70795 0.87534 0.82996
 Cu762 Cu 0.65920 0.84030 0.81132
 Cu763 Cu 0.68864 0.84155 0.84179
 Cu764 Cu 0.65991 0.80869 0.83973
 N765 N 0.64291 0.82196 0.81057
 N766 N 0.64352 0.80944 0.82144
 C767 C 0.63086 0.79861 0.81818
 C768 C 0.62173 0.80471 0.80460
 C769 C 0.62976 0.81956 0.80009
 H770 H 0.62816 0.78743 0.82551
 H771 H 0.62625 0.82799 0.78996
 N772 N 0.67740 0.81031 0.85735
 N773 N 0.68802 0.82308 0.85835
 C774 C 0.69802 0.82089 0.87189
 C775 C 0.69355 0.80599 0.87981
 C776 C 0.68043 0.79961 0.87021
 H777 H 0.70800 0.82938 0.87559
 H778 H 0.67343 0.78816 0.87260
 H779 H 0.67835 0.82237 0.82740
 H780 H 0.66349 0.83438 0.84121
 N781 N 0.18757 0.35845 0.82376
 N782 N 0.17516 0.35876 0.81278
 C783 C 0.17719 0.37213 0.80248
 C784 C 0.19172 0.38060 0.80722
 C785 C 0.19796 0.37154 0.82079
 H786 H 0.16900 0.37523 0.79202
 H787 H 0.20921 0.37425 0.82799
 Cu788 Cu 0.15828 0.34095 0.81264
 Cu789 Cu 0.18961 0.34092 0.84093
 Cu790 Cu 0.15994 0.30867 0.83989
 N791 N 0.14155 0.32303 0.81203
 N792 N 0.14256 0.31019 0.82249
 C793 C 0.12988 0.29937 0.81925
 C794 C 0.12034 0.30580 0.80609
 C795 C 0.12814 0.32085 0.80184
 H796 H 0.12760 0.28784 0.82616
 H797 H 0.12443 0.32944 0.79191
 N798 N 0.17845 0.30959 0.85654
 N799 N 0.18948 0.32205 0.85715
 C800 C 0.19992 0.31952 0.87031
 C801 C 0.19532 0.30473 0.87835
 C802 C 0.18168 0.29875 0.86924
 H803 H 0.21016 0.32782 0.87379
 H804 H 0.17436 0.28759 0.87198
 H805 H 0.17803 0.32226 0.82699
 H806 H 0.16441 0.33423 0.84198
 N807 N 0.18857 0.85874 0.32326
 N808 N 0.17569 0.85957 0.31287
 C809 C 0.17784 0.87281 0.30243
 C810 C 0.19292 0.88068 0.30647
 C811 C 0.19937 0.87136 0.31978
 H812 H 0.16918 0.87631 0.29249
 H813 H 0.21094 0.87370 0.32659
 Cu814 Cu 0.15731 0.84334 0.31381
 Cu815 Cu 0.19027 0.84154 0.34065
 Cu816 Cu 0.16044 0.80975 0.33986
 N817 N 0.14194 0.82428 0.31234
 N818 N 0.14332 0.81112 0.32233
 C819 C 0.13097 0.80005 0.31867
 C820 C 0.12127 0.80664 0.30569
 C821 C 0.12866 0.82204 0.30200
 H822 H 0.12896 0.78829 0.32527
 H823 H 0.12472 0.83096 0.29246
 N824 N 0.17871 0.81070 0.35669
 N825 N 0.18988 0.82303 0.35717
 C826 C 0.20021 0.82060 0.37042
 C827 C 0.19539 0.80599 0.37866
 C828 C 0.18173 0.80003 0.36957
 H829 H 0.21053 0.82883 0.37381
 H830 H 0.17426 0.78898 0.37241
 H831 H 0.17756 0.82387 0.32617
 H832 H 0.16490 0.83527 0.34254
 C833 C 0.25733 1.01600 0.24448
 C834 C 0.24335 1.01606 0.25558
 C835 C 0.23645 1.00066 0.26092
 C836 C 0.24334 0.98522 0.25569
 C837 C 0.25740 0.98518 0.24469
 C838 C 0.26428 1.00057 0.23933
 H839 H 0.27479 1.00054 0.23056
 H840 H 0.22592 1.00070 0.26967
 C841 C 0.25678 0.51518 0.74455
 C842 C 0.24270 0.51538 0.75552
 C843 C 0.23557 0.50007 0.76078
 C844 C 0.24235 0.48456 0.75559
 C845 C 0.25645 0.48436 0.74464
 C846 C 0.26356 0.49968 0.73937
 H847 H 0.27415 0.49954 0.73069
 H848 H 0.22500 0.50022 0.76947
 C849 C 0.75760 -0.01582 0.25519
 C850 C 0.74314 -0.01591 0.24480
 C851 C 0.73596 -0.00057 0.23972
 C852 C 0.74306 0.01488 0.24461
 C853 C 0.75750 0.01495 0.25510
 C854 C 0.76469 -0.00043 0.26013
 H855 H 0.77554 -0.00043 0.26847
 H856 H 0.72510 -0.00067 0.23140
 C857 C 0.75657 0.48477 0.75553
 C858 C 0.74377 0.48477 0.74319
 C859 C 0.73762 0.50016 0.73702
 C860 C 0.74387 0.51556 0.74305
 C861 C 0.75645 0.51555 0.75570
 C862 C 0.76270 0.50012 0.76174
 H863 H 0.77245 0.50004 0.77133
 H864 H 0.72784 0.50014 0.72746
 C865 C 0.25704 0.48412 0.25532
 C866 C 0.24299 0.48419 0.24434
 C867 C 0.23607 0.49962 0.23915
 C868 C 0.24304 0.51500 0.24440
 C869 C 0.25716 0.51494 0.25531
 C870 C 0.26405 0.49949 0.26054
 H871 H 0.27462 0.49942 0.26923
 H872 H 0.22550 0.49966 0.23046
 C873 C 0.75622 1.01545 0.74475
 C874 C 0.74351 1.01553 0.75717
 C875 C 0.73735 1.00019 0.76343
 C876 C 0.74352 0.98474 0.75735
 C877 C 0.75602 0.98468 0.74461
 C878 C 0.76226 1.00007 0.73850
 H879 H 0.77196 1.00010 0.72884
 H880 H 0.72762 1.00029 0.77305
 C881 C 0.75721 0.51561 0.24486
 C882 C 0.74290 0.51573 0.25551
 C883 C 0.73578 0.50038 0.26067
 C884 C 0.74277 0.48492 0.25565
 C885 C 0.75708 0.48481 0.24497
 C886 C 0.76420 0.50016 0.23984
 H887 H 0.77495 0.50010 0.23136
 H888 H 0.72504 0.50048 0.26915
 C889 C 0.25706 -0.01598 0.75543
 C890 C 0.24279 -0.01595 0.74478
 C891 C 0.23577 -0.00056 0.73960
 C892 C 0.24285 0.01486 0.74463
 C893 C 0.25711 0.01483 0.75537
 C894 C 0.26414 -0.00060 0.76051
 H895 H 0.27487 -0.00064 0.76900
 H896 H 0.22505 -0.00060 0.73110
 C897 C 0.24407 0.25551 1.01516
 C898 C 0.25667 0.24285 1.01519
 C899 C 0.26262 0.23652 0.99977
 C900 C 0.25645 0.24265 0.98437
 C901 C 0.24406 0.25548 0.98435
 C902 C 0.23798 0.26170 0.99975
 H903 H 0.22838 0.27147 0.99973
 H904 H 0.27220 0.22674 0.99975
 C905 C 0.24451 0.75714 0.51559
 C906 C 0.25544 0.74302 0.51552
 C907 C 0.26057 0.73605 0.50010
 C908 C 0.25524 0.74299 0.48472
 C909 C 0.24422 0.75704 0.48478
 C910 C 0.23913 0.76403 0.50020
 H911 H 0.23044 0.77461 0.50023
 H912 H 0.26926 0.72548 0.50005
 C913 C 0.25642 0.75654 -0.01599
 C914 C 0.24377 0.74398 -0.01583
 C915 C 0.23775 0.73786 -0.00036
 C916 C 0.24395 0.74407 0.01498
 C917 C 0.25638 0.75684 0.01485
 C918 C 0.26249 0.76289 -0.00062
 H919 H 0.27211 0.77262 -0.00069
 H920 H 0.22813 0.72813 -0.00025
 C921 C 0.25709 0.25573 0.48496
 C922 C 0.24326 0.24446 0.48498
 C923 C 0.23642 0.23912 0.50040
 C924 C 0.24325 0.24452 0.51580
 C925 C 0.25707 0.25579 0.51577
 C926 C 0.26389 0.26114 0.50035
 H927 H 0.27427 0.27005 0.50033
 H928 H 0.22603 0.23023 0.50043
 C929 C 0.74422 0.75714 1.01581
 C930 C 0.75535 0.74318 1.01595
 C931 C 0.76064 0.73615 1.00061
 C932 C 0.75531 0.74287 0.98514
 C933 C 0.74420 0.75685 0.98500
 C934 C 0.73890 0.76387 1.00034
 H935 H 0.73008 0.77435 1.00024
 H936 H 0.76944 0.72566 1.00071
 C937 C 0.74453 0.25655 0.51515
 C938 C 0.75563 0.24257 0.51509
 C939 C 0.76095 0.23576 0.49966
 C940 C 0.75564 0.24273 0.48429
 C941 C 0.74449 0.25666 0.48435
 C942 C 0.73920 0.26351 0.49978
 H943 H 0.73041 0.27400 0.49982
 H944 H 0.76975 0.22527 0.49961
 C945 C 0.75566 0.25754 -0.01543
 C946 C 0.74462 0.24354 -0.01548
 C947 C 0.73938 0.23654 -0.00009
 C948 C 0.74468 0.24337 0.01533
 C949 C 0.75576 0.25735 0.01536
 C950 C 0.76098 0.26435 -0.00002
 H951 H 0.76973 0.27486 0.00001
 H952 H 0.73063 0.22602 -0.00012
 C953 C 0.75530 0.75701 0.48430
 C954 C 0.74423 0.74304 0.48446
 C955 C 0.73895 0.73629 0.49994
 C956 C 0.74423 0.74335 0.51527
 C957 C 0.75528 0.75735 0.51510
 C958 C 0.76058 0.76407 0.49961
 H959 H 0.76934 0.77457 0.49948
 H960 H 0.73019 0.72579 0.50004
 C961 C 1.01547 0.24323 0.25540
 C962 C 1.01542 0.25722 0.24434
 C963 C 0.99997 0.26406 0.23902
 C964 C 0.98457 0.25711 0.24429
 C965 C 0.98462 0.24314 0.25540
 C966 C 1.00007 0.23630 0.26069
 H967 H 1.00010 0.22580 0.26948
 H968 H 0.99994 0.27455 0.23024
 C969 C 0.51601 0.24349 0.75660
 C970 C 0.51603 0.25621 0.74409
 C971 C 0.50062 0.26229 0.73783
 C972 C 0.48519 0.25609 0.74385
 C973 C 0.48514 0.24363 0.75659
 C974 C 0.50055 0.23744 0.76276
 H975 H 0.50051 0.22777 0.77245
 H976 H 0.50065 0.27194 0.72813
 C977 C -0.01585 0.25628 0.75632
 C978 C -0.01587 0.24368 0.74373
 C979 C -0.00047 0.23734 0.73776
 C980 C 0.01496 0.24339 0.74395
 C981 C 0.01500 0.25623 0.75630
 C982 C -0.00043 0.26245 0.76239
 H983 H -0.00043 0.27219 0.77199
 H984 H -0.00048 0.22759 0.72817
 C985 C 0.48490 0.25590 0.25639
 C986 C 0.48476 0.24356 0.24354
 C987 C 0.50013 0.23729 0.23737
 C988 C 0.51561 0.24320 0.24357
 C989 C 0.51572 0.25580 0.25615
 C990 C 0.50037 0.26191 0.26248
 H991 H 0.50047 0.27149 0.27223
 H992 H 0.50005 0.22773 0.22760
 C993 C 1.01487 0.74461 0.75707
 C994 C 1.01490 0.75573 0.74311
 C995 C 0.99948 0.76105 0.73621
 C996 C 0.98404 0.75572 0.74306
 C997 C 0.98403 0.74452 0.75695
 C998 C 0.99944 0.73924 0.76387
 H999 H 0.99942 0.73041 0.77432
 H1000 H 0.99949 0.76986 0.72575
 C1001 C 0.51484 0.74380 0.25627
 C1002 C 0.51476 0.75618 0.24345
 C1003 C 0.49932 0.76225 0.23731
 C1004 C 0.48394 0.75617 0.24361
 C1005 C 0.48401 0.74353 0.25619
 C1006 C 0.49947 0.73756 0.26242
 H1007 H 0.49954 0.72796 0.27217
 H1008 H 0.49927 0.77185 0.22756
 C1009 C -0.01487 0.75709 0.25571
 C1010 C -0.01491 0.74324 0.24448
 C1011 C 0.00051 0.73634 0.23914
 C1012 C 0.01595 0.74311 0.24451
 C1013 C 0.01599 0.75698 0.25572
 C1014 C 0.00057 0.76386 0.26107
 H1015 H 0.00059 0.77426 0.26994
 H1016 H 0.00048 0.72594 0.23027
 C1017 C 0.48426 0.75605 0.75701
 C1018 C 0.48422 0.74378 0.74413
 C1019 C 0.49962 0.73765 0.73791
 C1020 C 0.51505 0.74366 0.74417
 C1021 C 0.51505 0.75616 0.75687
 C1022 C 0.49965 0.76215 0.76319
 H1023 H 0.49962 0.77166 0.77301
 H1024 H 0.49961 0.72815 0.72808
 C1025 C 0.42476 0.28450 0.28523
 C1026 C 0.42190 0.28289 0.30263
 C1027 C 0.40741 0.29016 0.30970
 C1028 C 0.39591 0.29914 0.29954
 C1029 C 0.39902 0.30068 0.28211
 C1030 C 0.41340 0.29331 0.27487
 C1031 C 0.44001 0.27692 0.27773
 C1032 C 0.44287 0.27851 0.26031
 C1033 C 0.45751 0.27145 0.25329
 C1034 C 0.46918 0.26294 0.26361
 C1035 C 0.46614 0.26144 0.28102
 C1036 C 0.45152 0.26836 0.28815
 C1037 C 0.41664 0.29456 0.25749
 C1038 C 0.43112 0.28726 0.25032
 C1039 C 0.43364 0.27411 0.31262
 C1040 C 0.44822 0.26699 0.30550
 H1041 H 0.40793 0.30127 0.24936
 H1042 H 0.43317 0.28855 0.23688
 H1043 H 0.43157 0.27278 0.32606
 H1044 H 0.45699 0.26039 0.31365
 H1045 H 0.40525 0.28904 0.32315
 H1046 H 0.39016 0.30739 0.27414
 H1047 H 0.45998 0.27273 0.23990
 H1048 H 0.47515 0.25484 0.28893
 C1049 C 0.42383 0.78441 0.78528
 C1050 C 0.41867 0.77948 0.80147
 C1051 C 0.40418 0.78677 0.80854
 C1052 C 0.39487 0.79917 0.79967
 C1053 C 0.40034 0.80386 0.78334
 C1054 C 0.41474 0.79651 0.77611
 C1055 C 0.43915 0.77687 0.77785
 C1056 C 0.44430 0.78178 0.76161
 C1057 C 0.45895 0.77466 0.75467
 C1058 C 0.46847 0.76298 0.76402
 C1059 C 0.46325 0.75823 0.78027
 C1060 C 0.44848 0.76505 0.78722
 C1061 C 0.42029 0.80112 0.75990
 C1062 C 0.43479 0.79384 0.75276
 C1063 C 0.42822 0.76745 0.81036
 C1064 C 0.44291 0.76040 0.80338
 H1065 H 0.41340 0.81048 0.75270
 H1066 H 0.43867 0.79780 0.74026
 H1067 H 0.42438 0.76354 0.82288
 H1068 H 0.44998 0.75129 0.81072
 H1069 H 0.40042 0.78284 0.82105
 H1070 H 0.39350 0.81318 0.77608
 H1071 H 0.46313 0.77834 0.74218
 H1072 H 0.47068 0.74921 0.78740
 C1073 C -0.07672 0.28430 0.78422
 C1074 C -0.07996 0.28240 0.80153
 C1075 C -0.09465 0.28946 0.80839
 C1076 C -0.10596 0.29858 0.79813
 C1077 C -0.10248 0.30043 0.78080
 C1078 C -0.08791 0.29320 0.77375
 C1079 C -0.06124 0.27692 0.77696
 C1080 C -0.05802 0.27873 0.75963
 C1081 C -0.04320 0.27181 0.75284
 C1082 C -0.03167 0.26329 0.76331
 C1083 C -0.03506 0.26162 0.78064
 C1084 C -0.04989 0.26834 0.78753
 C1085 C -0.08428 0.29471 0.75646
 C1086 C -0.06962 0.28755 0.74951
 C1087 C -0.06837 0.27358 0.81165
 C1088 C -0.05357 0.26671 0.80478
 H1089 H -0.09284 0.30149 0.74823
 H1090 H -0.06729 0.28902 0.73613
 H1091 H -0.07073 0.27206 0.82503
 H1092 H -0.04491 0.26008 0.81304
 H1093 H -0.09710 0.28814 0.82176
 H1094 H -0.11118 0.30728 0.77278
 H1095 H -0.04049 0.27320 0.73950
 H1096 H -0.02616 0.25500 0.78866
 C1097 C -0.07559 0.78532 0.28385
 C1098 C -0.07879 0.80265 0.28203
 C1099 C -0.09339 0.80955 0.28926
 C1100 C -0.10469 0.79929 0.29839
 C1101 C -0.10127 0.78192 0.30007
 C1102 C -0.08676 0.77486 0.29278
 C1103 C -0.06017 0.77802 0.27639
 C1104 C -0.05695 0.76070 0.27825
 C1105 C -0.04216 0.75387 0.27133
 C1106 C -0.03069 0.76427 0.26264
 C1107 C -0.03409 0.78160 0.26089
 C1108 C -0.04886 0.78855 0.26771
 C1109 C -0.08315 0.75756 0.29428
 C1110 C -0.06851 0.75059 0.28712
 C1111 C -0.06725 0.81275 0.27313
 C1112 C -0.05253 0.80582 0.26611
 H1113 H -0.09169 0.74935 0.30109
 H1114 H -0.06617 0.73721 0.28861
 H1115 H -0.06958 0.82613 0.27164
 H1116 H -0.04392 0.81406 0.25941
 H1117 H -0.09577 0.82295 0.28802
 H1118 H -0.10994 0.77386 0.30690
 H1119 H -0.03943 0.74056 0.27287
 H1120 H -0.02524 0.78959 0.25418
 C1121 C 0.57591 0.71664 0.28460
 C1122 C 0.58718 0.70773 0.27423
 C1123 C 0.60173 0.70060 0.28138
 C1124 C 0.60512 0.70253 0.29871
 C1125 C 0.59378 0.71170 0.30886
 C1126 C 0.57908 0.71867 0.30190
 C1127 C 0.56040 0.72384 0.27723
 C1128 C 0.54894 0.73241 0.28769
 C1129 C 0.53405 0.73892 0.28070
 C1130 C 0.53073 0.73705 0.26339
 C1131 C 0.54237 0.72856 0.25303
 C1132 C 0.55725 0.72186 0.25991
 C1133 C 0.56740 0.72749 0.31191
 C1134 C 0.55256 0.73421 0.30494
 C1135 C 0.58363 0.70609 0.25695
 C1136 C 0.56894 0.71308 0.24990
 H1137 H 0.56969 0.72912 0.32528
 H1138 H 0.54383 0.74082 0.31312
 H1139 H 0.59227 0.69930 0.24880
 H1140 H 0.56667 0.71149 0.23652
 H1141 H 0.61047 0.69372 0.27343
 H1142 H 0.59618 0.71310 0.32224
 H1143 H 0.52506 0.74551 0.28864
 H1144 H 0.53971 0.72702 0.23971
 C1145 C 0.57709 0.21500 0.78373
 C1146 C 0.58874 0.22547 0.79195
 C1147 C 0.60336 0.21832 0.79896
 C1148 C 0.60637 0.20082 0.79779
 C1149 C 0.59460 0.19056 0.78930
 C1150 C 0.57992 0.19757 0.78231
 C1151 C 0.56154 0.22239 0.77663
 C1152 C 0.54976 0.21185 0.76865
 C1153 C 0.53488 0.21888 0.76215
 C1154 C 0.53184 0.23631 0.76349
 C1155 C 0.54375 0.24673 0.77150
 C1156 C 0.55866 0.23982 0.77812
 C1157 C 0.56791 0.18747 0.77409
 C1158 C 0.55308 0.19448 0.76740
 C1159 C 0.58547 0.24287 0.79311
 C1160 C 0.57069 0.24992 0.78629
 H1161 H 0.56995 0.17401 0.77291
 H1162 H 0.54410 0.18623 0.76123
 H1163 H 0.59437 0.25110 0.79940
 H1164 H 0.56863 0.26338 0.78752
 H1165 H 0.61235 0.22642 0.80528
 H1166 H 0.59663 0.17709 0.78840
 H1167 H 0.52570 0.21088 0.75595
 H1168 H 0.54131 0.26014 0.77268
 C1169 C 1.07499 0.71573 0.78582
 C1170 C 1.08600 0.70642 0.77552
 C1171 C 1.10031 0.69888 0.78273
 C1172 C 1.10371 0.70073 0.80007
 C1173 C 1.09255 0.71019 0.81018
 C1174 C 1.07812 0.71765 0.80313
 C1175 C 1.05981 0.72351 0.77835
 C1176 C 1.04863 0.73255 0.78872
 C1177 C 1.03403 0.73959 0.78162
 C1178 C 1.03068 0.73773 0.76431
 C1179 C 1.04207 0.72875 0.75405
 C1180 C 1.05667 0.72158 0.76103
 C1181 C 1.06673 0.72693 0.81306
 C1182 C 1.05221 0.73422 0.80598
 C1183 C 1.08248 0.70485 0.75823
 C1184 C 1.06807 0.71232 0.75110
 H1185 H 1.06900 0.72849 0.82644
 H1186 H 1.04369 0.74118 0.81410
 H1187 H 1.09091 0.69775 0.75014
 H1188 H 1.06579 0.71076 0.73772
 H1189 H 1.10889 0.69179 0.77479
 H1190 H 1.09492 0.71156 0.82356
 H1191 H 1.02524 0.74651 0.78950
 H1192 H 1.03937 0.72713 0.74075
 C1193 C 1.07595 0.21481 0.28387
 C1194 C 1.08695 0.22518 0.29308
 C1195 C 1.10137 0.21805 0.30050
 C1196 C 1.10487 0.20071 0.29868
 C1197 C 1.09373 0.19054 0.28928
 C1198 C 1.07922 0.19751 0.28192
 C1199 C 1.06065 0.22218 0.27626
 C1200 C 1.04949 0.21175 0.26730
 C1201 C 1.03479 0.21875 0.26037
 C1202 C 1.03132 0.23605 0.26227
 C1203 C 1.04266 0.24637 0.27120
 C1204 C 1.05736 0.23948 0.27825
 C1205 C 1.06783 0.18751 0.27274
 C1206 C 1.05321 0.19450 0.26558
 C1207 C 1.08327 0.24244 0.29474
 C1208 C 1.06874 0.24948 0.28743
 H1209 H 1.07020 0.17414 0.27116
 H1210 H 1.04471 0.18633 0.25868
 H1211 H 1.09167 0.25058 0.30180
 H1212 H 1.06634 0.26284 0.28906
 H1213 H 1.10989 0.22605 0.30754
 H1214 H 1.09615 0.17716 0.28793
 H1215 H 1.02604 0.21082 0.25349
 H1216 H 1.03986 0.25966 0.27286
 C1217 C 0.57673 0.28449 0.71610
 C1218 C 0.58819 0.27399 0.70758
 C1219 C 0.60270 0.28110 0.70035
 C1220 C 0.60586 0.29853 0.70173
 C1221 C 0.59428 0.30883 0.71045
 C1222 C 0.57965 0.30189 0.71758
 C1223 C 0.56132 0.27715 0.72350
 C1224 C 0.54972 0.28771 0.73174
 C1225 C 0.53495 0.28072 0.73849
 C1226 C 0.53185 0.26331 0.73716
 C1227 C 0.54361 0.25285 0.72893
 C1228 C 0.55839 0.25973 0.72204
 C1229 C 0.56781 0.31203 0.72604
 C1230 C 0.55308 0.30506 0.73298
 C1231 C 0.58486 0.25662 0.70645
 C1232 C 0.57024 0.24960 0.71358
 H1233 H 0.56991 0.32548 0.72725
 H1234 H 0.54423 0.31333 0.73933
 H1235 H 0.59363 0.24837 0.69995
 H1236 H 0.56813 0.23615 0.71238
 H1237 H 0.61160 0.27302 0.69382
 H1238 H 0.59647 0.32228 0.71144
 H1239 H 0.52587 0.28875 0.74485
 H1240 H 0.54111 0.23946 0.72776
 C1241 C 0.57572 0.78392 0.21554
 C1242 C 0.57922 0.78164 0.19833
 C1243 C 0.59403 0.78852 0.19153
 C1244 C 0.60514 0.79786 0.20176
 C1245 C 0.60138 0.80011 0.21897
 C1246 C 0.58673 0.79305 0.22596
 C1247 C 0.56017 0.77669 0.22277
 C1248 C 0.55674 0.77883 0.24002
 C1249 C 0.54190 0.77198 0.24680
 C1250 C 0.53055 0.76319 0.23640
 C1251 C 0.53410 0.76122 0.21914
 C1252 C 0.54898 0.76786 0.21226
 C1253 C 0.58287 0.79492 0.24316
 C1254 C 0.56816 0.78789 0.25008
 C1255 C 0.56778 0.77262 0.18825
 C1256 C 0.55288 0.76589 0.19509
 H1257 H 0.59130 0.80189 0.25134
 H1258 H 0.56565 0.78962 0.26340
 H1259 H 0.57032 0.77081 0.17495
 H1260 H 0.54435 0.75909 0.18687
 H1261 H 0.59675 0.78688 0.17824
 H1262 H 0.60995 0.80713 0.22696
 H1263 H 0.53905 0.77360 0.26007
 H1264 H 0.52533 0.75441 0.21117
 C1265 C 1.07568 0.28569 0.21557
 C1266 C 1.07894 0.30298 0.21755
 C1267 C 1.09343 0.30995 0.21014
 C1268 C 1.10450 0.29978 0.20064
 C1269 C 1.10099 0.28247 0.19874
 C1270 C 1.08663 0.27534 0.20625
 C1271 C 1.06044 0.27832 0.22327
 C1272 C 1.05718 0.26102 0.22128
 C1273 C 1.04254 0.25412 0.22842
 C1274 C 1.03122 0.26443 0.23742
 C1275 C 1.03465 0.28173 0.23931
 C1276 C 1.04930 0.28874 0.23231
 C1277 C 1.08299 0.25807 0.20461
 C1278 C 1.06853 0.25103 0.21203
 C1279 C 1.06759 0.31298 0.22682
 C1280 C 1.05300 0.30598 0.23405
 H1281 H 1.09138 0.24994 0.19750
 H1282 H 1.06616 0.23767 0.21042
 H1283 H 1.06996 0.32634 0.22844
 H1284 H 1.04453 0.31415 0.24101
 H1285 H 1.09590 0.32331 0.21154
 H1286 H 1.10950 0.27449 0.19162
 H1287 H 1.03976 0.24084 0.22676
 H1288 H 1.02591 0.28965 0.24624
 C1289 C 1.07579 0.78358 0.71500
 C1290 C 1.07928 0.78129 0.69779
 C1291 C 1.09400 0.78833 0.69093
 C1292 C 1.10508 0.79778 0.70111
 C1293 C 1.10133 0.79999 0.71834
 C1294 C 1.08675 0.79284 0.72537
 C1295 C 1.06031 0.77623 0.72227
 C1296 C 1.05685 0.77846 0.73949
 C1297 C 1.04204 0.77158 0.74630
 C1298 C 1.03075 0.76260 0.73597
 C1299 C 1.03437 0.76050 0.71873
 C1300 C 1.04920 0.76723 0.71181
 C1301 C 1.08287 0.79476 0.74256
 C1302 C 1.06820 0.78767 0.74951
 C1303 C 1.06793 0.77209 0.68777
 C1304 C 1.05312 0.76522 0.69466
 H1305 H 1.09125 0.80184 0.75071
 H1306 H 1.06567 0.78948 0.76281
 H1307 H 1.07047 0.77026 0.67447
 H1308 H 1.04466 0.75829 0.68647
 H1309 H 1.09665 0.78669 0.67763
 H1310 H 1.10985 0.80709 0.72632
 H1311 H 1.03915 0.77336 0.75954
 H1312 H 1.02566 0.75357 0.71080
 C1313 C 0.42354 0.71621 0.71557
 C1314 C 0.42018 0.71865 0.69835
 C1315 C 0.40560 0.71152 0.69131
 C1316 C 0.39454 0.70184 0.70132
 C1317 C 0.39814 0.69951 0.71856
 C1318 C 0.41259 0.70674 0.72577
 C1319 C 0.43890 0.72360 0.72301
 C1320 C 0.44226 0.72118 0.74024
 C1321 C 0.45701 0.72804 0.74720
 C1322 C 0.46834 0.73711 0.73699
 C1323 C 0.46481 0.73943 0.71976
 C1324 C 0.45004 0.73276 0.71271
 C1325 C 0.41633 0.70466 0.74297
 C1326 C 0.43090 0.71180 0.75009
 C1327 C 0.43153 0.72804 0.68849
 C1328 C 0.44624 0.73494 0.69554
 H1329 H 0.40796 0.69743 0.75099
 H1330 H 0.43334 0.70985 0.76340
 H1331 H 0.42909 0.72999 0.67519
 H1332 H 0.45472 0.74201 0.68748
 H1333 H 0.40305 0.71326 0.67800
 H1334 H 0.38964 0.69224 0.72641
 H1335 H 0.45986 0.72609 0.76042
 H1336 H 0.47358 0.74643 0.71194
 C1337 C 0.42363 0.21715 0.21472
 C1338 C 0.41186 0.20895 0.22511
 C1339 C 0.39739 0.20183 0.21784
 C1340 C 0.39465 0.20287 0.20030
 C1341 C 0.40647 0.21142 0.19013
 C1342 C 0.42102 0.21850 0.19726
 C1343 C 0.43912 0.22420 0.22221
 C1344 C 0.45106 0.23207 0.21174
 C1345 C 0.46593 0.23841 0.21886
 C1346 C 0.46885 0.23698 0.23630
 C1347 C 0.45675 0.22913 0.24666
 C1348 C 0.44183 0.22270 0.23966
 C1349 C 0.43314 0.22668 0.18724
 C1350 C 0.44792 0.23334 0.19435
 C1351 C 0.41491 0.20788 0.24254
 C1352 C 0.42963 0.21465 0.24970
 H1353 H 0.43126 0.22783 0.17375
 H1354 H 0.45701 0.23944 0.18616
 H1355 H 0.40589 0.20164 0.25071
 H1356 H 0.43154 0.21346 0.26317
 H1357 H 0.38831 0.19550 0.22585
 H1358 H 0.40461 0.21223 0.17663
 H1359 H 0.47525 0.24451 0.21091
 H1360 H 0.45908 0.22789 0.26007
 C1361 C -0.07597 0.71550 0.21672
 C1362 C -0.08713 0.72603 0.20784
 C1363 C -0.10176 0.71908 0.20071
 C1364 C -0.10531 0.70175 0.20250
 C1365 C -0.09400 0.69143 0.21157
 C1366 C -0.07929 0.69821 0.21864
 C1367 C -0.06044 0.72267 0.22402
 C1368 C -0.04915 0.71206 0.23266
 C1369 C -0.03428 0.71889 0.23937
 C1370 C -0.03077 0.73619 0.23756
 C1371 C -0.04221 0.74666 0.22889
 C1372 C -0.05709 0.73996 0.22208
 C1373 C -0.06776 0.68803 0.22748
 C1374 C -0.05293 0.69484 0.23436
 C1375 C -0.08338 0.74328 0.20624
 C1376 C -0.06863 0.75013 0.21326
 H1377 H -0.07018 0.67467 0.22904
 H1378 H -0.04435 0.68654 0.24102
 H1379 H -0.09190 0.75156 0.19946
 H1380 H -0.06620 0.76349 0.21169
 H1381 H -0.11042 0.72719 0.19391
 H1382 H -0.09644 0.67805 0.21289
 H1383 H -0.02547 0.71084 0.24606
 H1384 H -0.03940 0.75995 0.22731
 C1385 C -0.07674 0.21593 0.71570
 C1386 C -0.07987 0.21770 0.69836
 C1387 C -0.09459 0.21072 0.69150
 C1388 C -0.10606 0.20186 0.70179
 C1389 C -0.10268 0.20015 0.71916
 C1390 C -0.08807 0.20724 0.72620
 C1391 C -0.06126 0.22323 0.72298
 C1392 C -0.05816 0.22153 0.74034
 C1393 C -0.04334 0.22840 0.74716
 C1394 C -0.03171 0.23677 0.73669
 C1395 C -0.03497 0.23833 0.71933
 C1396 C -0.04979 0.23164 0.71241
 C1397 C -0.08454 0.20583 0.74351
 C1398 C -0.06986 0.21289 0.75047
 C1399 C -0.06816 0.22632 0.68822
 C1400 C -0.05335 0.23314 0.69512
 H1401 H -0.09320 0.19920 0.75175
 H1402 H -0.06761 0.21150 0.76388
 H1403 H -0.07042 0.22775 0.67482
 H1404 H -0.04461 0.23963 0.68685
 H1405 H -0.09694 0.21196 0.67810
 H1406 H -0.11149 0.19350 0.72722
 H1407 H -0.04072 0.22708 0.76052
 H1408 H -0.02599 0.24481 0.71131
 C1409 C 0.28459 0.42282 0.28284
 C1410 C 0.30178 0.41917 0.28053
 C1411 C 0.30849 0.40434 0.28749
 C1412 C 0.29817 0.39331 0.29687
 C1413 C 0.28095 0.39720 0.29906
 C1414 C 0.27408 0.41191 0.29201
 C1415 C 0.27750 0.43844 0.27562
 C1416 C 0.26030 0.44208 0.27791
 C1417 C 0.25365 0.45701 0.27116
 C1418 C 0.26410 0.46824 0.26221
 C1419 C 0.28132 0.46446 0.26007
 C1420 C 0.28809 0.44951 0.26670
 C1421 C 0.25691 0.41595 0.29398
 C1422 C 0.25013 0.43077 0.28702
 C1423 C 0.31195 0.43049 0.27142
 C1424 C 0.30522 0.44542 0.26464
 H1425 H 0.24866 0.40761 0.30099
 H1426 H 0.23684 0.43344 0.28885
 H1427 H 0.32524 0.42782 0.26957
 H1428 H 0.31351 0.45384 0.25777
 H1429 H 0.32178 0.40159 0.28587
 H1430 H 0.27286 0.38873 0.30611
 H1431 H 0.24042 0.46004 0.27297
 H1432 H 0.28935 0.47312 0.25316
 C1433 C 0.28514 -0.07671 0.78363
 C1434 C 0.30186 -0.08117 0.77989
 C1435 C 0.30880 -0.09572 0.78722
 C1436 C 0.29925 -0.10582 0.79844
 C1437 C 0.28243 -0.10098 0.80202
 C1438 C 0.27533 -0.08654 0.79459
 C1439 C 0.27782 -0.06137 0.77601
 C1440 C 0.26105 -0.05695 0.77971
 C1441 C 0.25423 -0.04222 0.77266
 C1442 C 0.26416 -0.03187 0.76220
 C1443 C 0.28091 -0.03646 0.75855
 C1444 C 0.28779 -0.05130 0.76535
 C1445 C 0.25857 -0.08173 0.79793
 C1446 C 0.25153 -0.06722 0.79057
 C1447 C 0.31135 -0.07093 0.76894
 C1448 C 0.30446 -0.05623 0.76184
 H1449 H 0.25081 -0.08926 0.80630
 H1450 H 0.23857 -0.06396 0.79351
 H1451 H 0.32426 -0.07427 0.76589
 H1452 H 0.31225 -0.04865 0.75355
 H1453 H 0.32174 -0.09889 0.78425
 H1454 H 0.27467 -0.10839 0.81046
 H1455 H 0.24135 -0.03857 0.77554
 H1456 H 0.28851 -0.02848 0.75044
 C1457 C 0.78447 0.42400 0.78344
 C1458 C 0.79985 0.41780 0.77722
 C1459 C 0.80684 0.40318 0.78437
 C1460 C 0.79872 0.39481 0.79788
 C1461 C 0.78321 0.40136 0.80388
 C1462 C 0.77603 0.41584 0.79667
 C1463 C 0.77713 0.43943 0.77605
 C1464 C 0.76166 0.44557 0.78221
 C1465 C 0.75482 0.46033 0.77523
 C1466 C 0.76350 0.46895 0.76242
 C1467 C 0.77898 0.46273 0.75640
 C1468 C 0.78580 0.44784 0.76308
 C1469 C 0.76058 0.42234 0.80248
 C1470 C 0.75348 0.43693 0.79534
 C1471 C 0.80803 0.42644 0.76407
 C1472 C 0.80116 0.44124 0.75716
 H1473 H 0.75392 0.41613 0.81268
 H1474 H 0.74157 0.44154 0.80022
 H1475 H 0.81992 0.42179 0.75915
 H1476 H 0.80793 0.44758 0.74712
 H1477 H 0.81876 0.39863 0.77949
 H1478 H 0.77650 0.39524 0.81406
 H1479 H 0.74291 0.46526 0.77985
 H1480 H 0.78559 0.46948 0.74650
 C1481 C 0.78610 -0.07612 0.28363
 C1482 C 0.80257 -0.08095 0.27926
 C1483 C 0.80959 -0.09544 0.28662
 C1484 C 0.80041 -0.10498 0.29859
 C1485 C 0.78386 -0.09977 0.30279
 C1486 C 0.77663 -0.08549 0.29527
 C1487 C 0.77867 -0.06086 0.27598
 C1488 C 0.76212 -0.05614 0.28026
 C1489 C 0.75518 -0.04153 0.27312
 C1490 C 0.76480 -0.03159 0.26202
 C1491 C 0.78136 -0.03642 0.25785
 C1492 C 0.78833 -0.05118 0.26471
 C1493 C 0.76010 -0.08038 0.29921
 C1494 C 0.75293 -0.06599 0.29177
 C1495 C 0.81175 -0.07108 0.26773
 C1496 C 0.80478 -0.05640 0.26064
 H1497 H 0.75263 -0.08756 0.30814
 H1498 H 0.74016 -0.06247 0.29518
 H1499 H 0.82449 -0.07465 0.26427
 H1500 H 0.81235 -0.04908 0.25192
 H1501 H 0.82235 -0.09894 0.28322
 H1502 H 0.77635 -0.10687 0.31171
 H1503 H 0.74246 -0.03767 0.27638
 H1504 H 0.78870 -0.02871 0.24926
 C1505 C 0.28519 0.57599 0.71695
 C1506 C 0.30240 0.57947 0.71936
 C1507 C 0.30931 0.59416 0.71231
 C1508 C 0.29918 0.60519 0.70272
 C1509 C 0.28193 0.60150 0.70047
 C1510 C 0.27485 0.58696 0.70762
 C1511 C 0.27788 0.56050 0.72420
 C1512 C 0.26066 0.55705 0.72179
 C1513 C 0.25381 0.54222 0.72854
 C1514 C 0.26407 0.53092 0.73762
 C1515 C 0.28131 0.53450 0.73988
 C1516 C 0.28828 0.54935 0.73325
 C1517 C 0.25766 0.58312 0.70556
 C1518 C 0.25068 0.56843 0.71256
 C1519 C 0.31237 0.56809 0.72863
 C1520 C 0.30544 0.55327 0.73543
 H1521 H 0.24955 0.59152 0.69844
 H1522 H 0.23737 0.56592 0.71064
 H1523 H 0.32566 0.57062 0.73057
 H1524 H 0.31358 0.54479 0.74242
 H1525 H 0.32262 0.59679 0.71399
 H1526 H 0.27398 0.61000 0.69330
 H1527 H 0.24057 0.53935 0.72664
 H1528 H 0.28919 0.52577 0.74689
 C1529 C 0.28503 1.07687 0.21624
 C1530 C 0.30225 1.08038 0.21839
 C1531 C 0.30898 1.09516 0.21138
 C1532 C 0.29864 1.10642 0.20225
 C1533 C 0.28138 1.10262 0.20017
 C1534 C 0.27451 1.08787 0.20717
 C1535 C 0.27789 1.06134 0.22359
 C1536 C 0.26065 1.05782 0.22145
 C1537 C 0.25396 1.04300 0.22841
 C1538 C 0.26439 1.03179 0.23742
 C1539 C 0.28165 1.03544 0.23938
 C1540 C 0.28847 1.05026 0.23253
 C1541 C 0.25732 1.08391 0.20529
 C1542 C 0.25051 1.06914 0.21233
 C1543 C 0.31242 1.06902 0.22746
 C1544 C 0.30564 1.05421 0.23441
 H1545 H 0.24906 1.09228 0.19831
 H1546 H 0.23720 1.06655 0.21057
 H1547 H 0.32574 1.07159 0.22920
 H1548 H 0.31393 1.04578 0.24129
 H1549 H 0.32230 1.09773 0.21294
 H1550 H 0.27323 1.11116 0.19329
 H1551 H 0.24070 1.04006 0.22671
 H1552 H 0.28967 1.02679 0.24631
 C1553 C 0.78594 0.57593 0.21664
 C1554 C 0.80304 0.57960 0.21947
 C1555 C 0.81009 0.59408 0.21212
 C1556 C 0.80020 0.60476 0.20189
 C1557 C 0.78305 0.60087 0.19925
 C1558 C 0.77585 0.58650 0.20662
 C1559 C 0.77850 0.56065 0.22418
 C1560 C 0.76139 0.55698 0.22132
 C1561 C 0.75444 0.54231 0.22832
 C1562 C 0.76451 0.53136 0.23801
 C1563 C 0.78162 0.53517 0.24076
 C1564 C 0.78868 0.54989 0.23393
 C1565 C 0.75876 0.58245 0.20412
 C1566 C 0.75165 0.56795 0.21137
 C1567 C 0.81277 0.56864 0.22946
 C1568 C 0.80572 0.55401 0.23654
 H1569 H 0.75084 0.59052 0.19643
 H1570 H 0.73845 0.56524 0.20907
 H1571 H 0.82598 0.57133 0.23174
 H1572 H 0.81369 0.54584 0.24408
 H1573 H 0.82333 0.59682 0.21414
 H1574 H 0.77523 0.60906 0.19159
 H1575 H 0.74130 0.53924 0.22605
 H1576 H 0.78934 0.52671 0.24825
 C1577 C 0.78430 1.07601 0.71672
 C1578 C 0.77581 1.08425 0.70355
 C1579 C 0.78300 1.09872 0.69635
 C1580 C 0.79858 1.10499 0.70222
 C1581 C 0.80686 1.09657 0.71554
 C1582 C 0.79978 1.08206 0.72281
 C1583 C 0.77689 1.06066 0.72418
 C1584 C 0.78553 1.05225 0.73718
 C1585 C 0.77861 1.03745 0.74396
 C1586 C 0.76317 1.03125 0.73788
 C1587 C 0.75453 1.03987 0.72503
 C1588 C 0.76141 1.05459 0.71804
 C1589 C 0.80794 1.07341 0.73597
 C1590 C 0.80095 1.05874 0.74302
 C1591 C 0.76032 1.07783 0.69778
 C1592 C 0.75323 1.06326 0.70492
 H1593 H 0.81988 1.07796 0.74081
 H1594 H 0.80769 1.05240 0.75308
 H1595 H 0.75365 1.08409 0.68762
 H1596 H 0.74130 1.05869 0.70006
 H1597 H 0.77635 1.10509 0.68627
 H1598 H 0.81888 1.10110 0.72015
 H1599 H 0.78517 1.03072 0.75390
 H1600 H 0.74264 1.03496 0.72040
 C1601 C 0.71465 0.57679 0.28273
 C1602 C 0.72493 0.58759 0.29227
 C1603 C 0.71785 0.60211 0.29945
 C1604 C 0.70064 0.60594 0.29705
 C1605 C 0.69057 0.59507 0.28726
 C1606 C 0.69749 0.58041 0.28016
 C1607 C 0.72196 0.56130 0.27546
 C1608 C 0.71159 0.55031 0.26622
 C1609 C 0.71853 0.53542 0.25964
 C1610 C 0.73570 0.53164 0.26215
 C1611 C 0.74594 0.54282 0.27136
 C1612 C 0.73912 0.55768 0.27808
 C1613 C 0.68757 0.56920 0.27068
 C1614 C 0.69449 0.55439 0.26386
 C1615 C 0.74207 0.58358 0.29451
 C1616 C 0.74905 0.56889 0.28751
 H1617 H 0.67431 0.57184 0.26861
 H1618 H 0.68638 0.54603 0.25673
 H1619 H 0.75015 0.59184 0.30181
 H1620 H 0.76231 0.56624 0.28960
 H1621 H 0.72577 0.61047 0.30678
 H1622 H 0.67729 0.59779 0.28546
 H1623 H 0.71067 0.52680 0.25253
 H1624 H 0.75912 0.53978 0.27347
 C1625 C 0.71523 1.07655 0.78422
 C1626 C 0.69869 1.08118 0.77992
 C1627 C 0.69159 1.09575 0.78707
 C1628 C 0.70082 1.10563 0.79871
 C1629 C 0.71754 1.10072 0.80268
 C1630 C 0.72477 1.08628 0.79547
 C1631 C 0.72265 1.06110 0.77696
 C1632 C 0.73922 1.05646 0.78130
 C1633 C 0.74611 1.04162 0.77457
 C1634 C 0.73644 1.03144 0.76377
 C1635 C 0.71990 1.03622 0.75949
 C1636 C 0.71295 1.05113 0.76600
 C1637 C 0.74134 1.08129 0.79943
 C1638 C 0.74846 1.06666 0.79244
 C1639 C 0.68947 1.07102 0.76871
 C1640 C 0.69646 1.05623 0.76190
 H1641 H 0.74886 1.08872 0.80809
 H1642 H 0.76124 1.06323 0.79589
 H1643 H 0.67668 1.07445 0.76527
 H1644 H 0.68887 1.04869 0.75342
 H1645 H 0.67878 1.09907 0.78373
 H1646 H 0.72511 1.10803 0.81134
 H1647 H 0.75883 1.03781 0.77790
 H1648 H 0.71253 1.02832 0.75113
 C1649 C 0.21519 0.57687 0.78267
 C1650 C 0.19797 0.58045 0.78048
 C1651 C 0.19126 0.59529 0.78740
 C1652 C 0.20160 0.60642 0.79662
 C1653 C 0.21886 0.60261 0.79867
 C1654 C 0.22573 0.58787 0.79167
 C1655 C 0.22228 0.56122 0.77553
 C1656 C 0.23951 0.55763 0.77774
 C1657 C 0.24614 0.54264 0.77109
 C1658 C 0.23567 0.53133 0.76230
 C1659 C 0.21843 0.53508 0.76023
 C1660 C 0.21167 0.55006 0.76678
 C1661 C 0.24292 0.58388 0.79355
 C1662 C 0.24970 0.56903 0.78668
 C1663 C 0.18778 0.56905 0.77153
 C1664 C 0.19451 0.55410 0.76482
 H1665 H 0.25120 0.59229 0.80043
 H1666 H 0.26301 0.56640 0.78845
 H1667 H 0.17447 0.57167 0.76978
 H1668 H 0.18620 0.54561 0.75808
 H1669 H 0.17794 0.59797 0.78588
 H1670 H 0.22698 0.61113 0.80559
 H1671 H 0.25938 0.53965 0.77288
 H1672 H 0.21038 0.52637 0.75345
 C1673 C 0.21529 1.07691 0.28354
 C1674 C 0.22577 1.08801 0.29250
 C1675 C 0.21875 1.10255 0.29974
 C1676 C 0.20138 1.10607 0.29802
 C1677 C 0.19110 1.09481 0.28888
 C1678 C 0.19798 1.08019 0.28167
 C1679 C 0.22254 1.06146 0.27612
 C1680 C 0.21199 1.05023 0.26740
 C1681 C 0.21890 1.03542 0.26062
 C1682 C 0.23622 1.03192 0.26243
 C1683 C 0.24664 1.04333 0.27116
 C1684 C 0.23986 1.05814 0.27804
 C1685 C 0.18785 1.06872 0.27275
 C1686 C 0.19474 1.05398 0.26574
 C1687 C 0.24305 1.08429 0.29408
 C1688 C 0.24998 1.06962 0.28696
 H1689 H 0.17447 1.07111 0.27122
 H1690 H 0.18648 1.04543 0.25903
 H1691 H 0.25128 1.09277 0.30093
 H1692 H 0.26335 1.06720 0.28852
 H1693 H 0.22684 1.11115 0.30659
 H1694 H 0.17771 1.09722 0.28760
 H1695 H 0.21089 1.02663 0.25389
 H1696 H 0.25994 1.04052 0.27275
 C1697 C 0.71484 0.42447 0.71538
 C1698 C 0.69763 0.42108 0.71796
 C1699 C 0.69048 0.40664 0.71067
 C1700 C 0.70038 0.39574 0.70071
 C1701 C 0.71763 0.39935 0.69828
 C1702 C 0.72493 0.41367 0.70562
 C1703 C 0.72239 0.43970 0.72288
 C1704 C 0.73959 0.44311 0.72024
 C1705 C 0.74663 0.45778 0.72714
 C1706 C 0.73655 0.46894 0.73655
 C1707 C 0.71936 0.46535 0.73913
 C1708 C 0.71220 0.45069 0.73235
 C1709 C 0.74212 0.41744 0.70335
 C1710 C 0.74933 0.43191 0.71056
 C1711 C 0.68790 0.43228 0.72767
 C1712 C 0.69506 0.44685 0.73472
 H1713 H 0.75005 0.40918 0.69589
 H1714 H 0.76261 0.43439 0.70844
 H1715 H 0.67461 0.42981 0.72976
 H1716 H 0.68709 0.45522 0.74203
 H1717 H 0.67718 0.40408 0.71251
 H1718 H 0.72544 0.39097 0.69083
 H1719 H 0.75981 0.46072 0.72496
 H1720 H 0.71163 0.47402 0.74636
 C1721 C 0.71484 -0.07679 0.21758
 C1722 C 0.69805 -0.08105 0.22129
 C1723 C 0.69106 -0.09563 0.21413
 C1724 C 0.70069 -0.10579 0.20316
 C1725 C 0.71754 -0.10132 0.19964
 C1726 C 0.72470 -0.08687 0.20686
 C1727 C 0.72220 -0.06137 0.22491
 C1728 C 0.73900 -0.05714 0.22119
 C1729 C 0.74586 -0.04235 0.22798
 C1730 C 0.73596 -0.03181 0.23826
 C1731 C 0.71915 -0.03618 0.24189
 C1732 C 0.71221 -0.05105 0.23531
 C1733 C 0.74148 -0.08225 0.20349
 C1734 C 0.74853 -0.06765 0.21057
 C1735 C 0.68853 -0.07054 0.23194
 C1736 C 0.69548 -0.05577 0.23880
 H1737 H 0.74922 -0.08995 0.19526
 H1738 H 0.76150 -0.06450 0.20760
 H1739 H 0.67556 -0.07369 0.23491
 H1740 H 0.68767 -0.04795 0.24685
 H1741 H 0.67805 -0.09884 0.21682
 H1742 H 0.72515 -0.10913 0.19140
 H1743 H 0.75876 -0.03884 0.22508
 H1744 H 0.71158 -0.02801 0.24983
 C1745 C 0.21499 0.42364 0.21592
 C1746 C 0.22542 0.41278 0.20660
 C1747 C 0.21843 0.39829 0.19927
 C1748 C 0.20115 0.39458 0.20130
 C1749 C 0.19091 0.40560 0.21079
 C1750 C 0.19775 0.42018 0.21807
 C1751 C 0.22223 0.43901 0.22346
 C1752 C 0.21172 0.45004 0.23254
 C1753 C 0.21861 0.46478 0.23943
 C1754 C 0.23586 0.46841 0.23738
 C1755 C 0.24624 0.45721 0.22831
 C1756 C 0.23947 0.44248 0.22130
 C1757 C 0.18767 0.43144 0.22736
 C1758 C 0.19453 0.44613 0.23445
 C1759 C 0.24264 0.41663 0.20478
 C1760 C 0.24955 0.43122 0.21203
 H1761 H 0.17434 0.42890 0.22911
 H1762 H 0.18631 0.45451 0.24146
 H1763 H 0.25084 0.40833 0.19765
 H1764 H 0.26288 0.43376 0.21028
 H1765 H 0.22648 0.38984 0.19215
 H1766 H 0.17757 0.40302 0.21231
 H1767 H 0.21064 0.47342 0.24643
 H1768 H 0.25949 0.46013 0.22655
 C1769 C 0.21471 -0.07683 0.71729
 C1770 C 0.22454 -0.08675 0.70638
 C1771 C 0.21740 -0.10119 0.69909
 C1772 C 0.20064 -0.10582 0.70279
 C1773 C 0.19106 -0.09586 0.71398
 C1774 C 0.19800 -0.08126 0.72115
 C1775 C 0.22200 -0.06139 0.72464
 C1776 C 0.21202 -0.05121 0.73518
 C1777 C 0.21889 -0.03631 0.74179
 C1778 C 0.23565 -0.03180 0.73808
 C1779 C 0.24555 -0.04222 0.72768
 C1780 C 0.23875 -0.05700 0.72082
 C1781 C 0.18849 -0.07090 0.73196
 C1782 C 0.19537 -0.05609 0.73880
 C1783 C 0.24126 -0.08198 0.70292
 C1784 C 0.24827 -0.06739 0.71006
 H1785 H 0.17558 -0.07419 0.73504
 H1786 H 0.18757 -0.04839 0.74697
 H1787 H 0.24899 -0.08956 0.69457
 H1788 H 0.26120 -0.06413 0.70703
 H1789 H 0.22494 -0.10887 0.69065
 H1790 H 0.17811 -0.09922 0.71678
 H1791 H 0.21132 -0.02825 0.74984
 H1792 H 0.25843 -0.03862 0.72474
 C1793 C 0.28520 0.28400 0.42433
 C1794 C 0.30254 0.28221 0.42114
 C1795 C 0.30941 0.28941 0.40652
 C1796 C 0.29910 0.29845 0.39519
 C1797 C 0.28173 0.30015 0.39863
 C1798 C 0.27470 0.29290 0.41316
 C1799 C 0.27793 0.27651 0.43972
 C1800 C 0.26058 0.27831 0.44293
 C1801 C 0.25378 0.27134 0.45769
 C1802 C 0.26421 0.26265 0.46914
 C1803 C 0.28156 0.26097 0.46576
 C1804 C 0.28849 0.26783 0.45101
 C1805 C 0.25739 0.29436 0.41677
 C1806 C 0.25044 0.28717 0.43139
 C1807 C 0.31268 0.27334 0.43267
 C1808 C 0.30578 0.26629 0.44737
 H1809 H 0.24914 0.30115 0.40823
 H1810 H 0.23704 0.28862 0.43373
 H1811 H 0.32608 0.27189 0.43035
 H1812 H 0.31404 0.25961 0.45598
 H1813 H 0.32282 0.28817 0.40414
 H1814 H 0.27364 0.30693 0.38994
 H1815 H 0.24045 0.27284 0.46042
 H1816 H 0.28958 0.25427 0.47460
 C1817 C 0.28476 0.78422 -0.07688
 C1818 C 0.30227 0.78338 -0.07943
 C1819 C 0.30925 0.79062 -0.09399
 C1820 C 0.29889 0.79871 -0.10600
 C1821 C 0.28129 0.79932 -0.10324
 C1822 C 0.27418 0.79210 -0.08870
 C1823 C 0.27739 0.77679 -0.06148
 C1824 C 0.25987 0.77773 -0.05885
 C1825 C 0.25299 0.77097 -0.04400
 C1826 C 0.26353 0.76333 -0.03190
 C1827 C 0.28102 0.76239 -0.03479
 C1828 C 0.28803 0.76909 -0.04958
 C1829 C 0.25669 0.79264 -0.08571
 C1830 C 0.24966 0.78558 -0.07104
 C1831 C 0.31248 0.77539 -0.06732
 C1832 C 0.30548 0.76837 -0.05265
 H1833 H 0.24837 0.79861 -0.09475
 H1834 H 0.23613 0.78634 -0.06920
 H1835 H 0.32601 0.77459 -0.06918
 H1836 H 0.31380 0.76238 -0.04360
 H1837 H 0.32278 0.79012 -0.09576
 H1838 H 0.27308 0.80533 -0.11236
 H1839 H 0.23952 0.77183 -0.04171
 H1840 H 0.28912 0.75645 -0.02550
 C1841 C 0.78373 0.28612 -0.07593
 C1842 C 0.79308 0.27582 -0.08690
 C1843 C 0.80038 0.28298 -0.10134
 C1844 C 0.79824 0.30026 -0.10491
 C1845 C 0.78870 0.31036 -0.09383
 C1846 C 0.78149 0.30338 -0.07926
 C1847 C 0.77626 0.27873 -0.06059
 C1848 C 0.76718 0.28910 -0.04944
 C1849 C 0.76038 0.28207 -0.03471
 C1850 C 0.76251 0.26480 -0.03122
 C1851 C 0.77155 0.25455 -0.04254
 C1852 C 0.77849 0.26146 -0.05726
 C1853 C 0.77220 0.31332 -0.06790
 C1854 C 0.76519 0.30630 -0.05322
 C1855 C 0.79496 0.25858 -0.08319
 C1856 C 0.78776 0.25152 -0.06863
 H1857 H 0.77039 0.32665 -0.07033
 H1858 H 0.75819 0.31442 -0.04474
 H1859 H 0.80210 0.25050 -0.09158
 H1860 H 0.78954 0.23818 -0.06621
 H1861 H 0.80754 0.27505 -0.10987
 H1862 H 0.78712 0.32370 -0.09636
 H1863 H 0.75340 0.28994 -0.02597
 H1864 H 0.77336 0.24128 -0.03973
 C1865 C 0.78283 0.78449 0.42301
 C1866 C 0.79192 0.77396 0.41204
 C1867 C 0.79900 0.78084 0.39735
 C1868 C 0.79690 0.79808 0.39354
 C1869 C 0.78761 0.80841 0.40464
 C1870 C 0.78063 0.80170 0.41944
 C1871 C 0.77558 0.77739 0.43861
 C1872 C 0.76675 0.78800 0.44973
 C1873 C 0.76010 0.78124 0.46466
 C1874 C 0.76215 0.76401 0.46838
 C1875 C 0.77101 0.75353 0.45711
 C1876 C 0.77777 0.76017 0.44218
 C1877 C 0.77160 0.81188 0.43081
 C1878 C 0.76480 0.80515 0.44571
 C1879 C 0.79378 0.75678 0.41602
 C1880 C 0.78680 0.75000 0.43082
 H1881 H 0.76984 0.82519 0.42820
 H1882 H 0.75799 0.81345 0.45417
 H1883 H 0.80072 0.74851 0.40763
 H1884 H 0.78855 0.73669 0.43343
 H1885 H 0.80598 0.77275 0.38883
 H1886 H 0.78608 0.82172 0.40196
 H1887 H 0.75327 0.78929 0.47335
 H1888 H 0.77277 0.74030 0.46009
 C1889 C 0.71720 0.28435 0.57636
 C1890 C 0.70821 0.27387 0.58745
 C1891 C 0.70119 0.28082 0.60213
 C1892 C 0.70323 0.29808 0.60580
 C1893 C 0.71243 0.30836 0.59458
 C1894 C 0.71937 0.30158 0.57980
 C1895 C 0.72438 0.27718 0.56077
 C1896 C 0.73314 0.28773 0.54954
 C1897 C 0.73973 0.28090 0.53462
 C1898 C 0.73770 0.26365 0.53103
 C1899 C 0.72891 0.25323 0.54241
 C1900 C 0.72221 0.25995 0.55732
 C1901 C 0.72832 0.31171 0.56832
 C1902 C 0.73507 0.30490 0.55343
 C1903 C 0.70637 0.25667 0.58360
 C1904 C 0.71328 0.24982 0.56881
 H1905 H 0.73007 0.32502 0.57083
 H1906 H 0.74182 0.31316 0.54488
 H1907 H 0.69950 0.24844 0.59208
 H1908 H 0.71154 0.23650 0.56629
 H1909 H 0.69429 0.27275 0.61075
 H1910 H 0.71393 0.32169 0.59714
 H1911 H 0.74651 0.28890 0.52584
 H1912 H 0.72716 0.23998 0.53952
 C1913 C 0.71540 0.78562 1.07599
 C1914 C 0.70643 0.77518 1.08714
 C1915 C 0.69908 0.78226 1.10158
 C1916 C 0.70073 0.79962 1.10497
 C1917 C 0.70981 0.80989 1.09364
 C1918 C 0.71713 0.80296 1.07910
 C1919 C 0.72305 0.77827 1.06072
 C1920 C 0.73183 0.78876 1.04945
 C1921 C 0.73886 0.78174 1.03482
 C1922 C 0.73721 0.76438 1.03154
 C1923 C 0.72841 0.75403 1.04297
 C1924 C 0.72130 0.76092 1.05761
 C1925 C 0.72611 0.81303 1.06759
 C1926 C 0.73332 0.80605 1.05300
 C1927 C 0.70502 0.75787 1.08363
 C1928 C 0.71234 0.75085 1.06911
 H1929 H 0.72754 0.82643 1.06985
 H1930 H 0.74009 0.81426 1.04442
 H1931 H 0.69816 0.74967 1.09215
 H1932 H 0.71092 0.73745 1.06685
 H1933 H 0.69229 0.77417 1.11026
 H1934 H 0.71103 0.82329 1.09599
 H1935 H 0.74563 0.78969 1.02599
 H1936 H 0.72693 0.74071 1.04030
 C1937 C 0.21627 0.28318 1.07618
 C1938 C 0.19894 0.28138 1.07940
 C1939 C 0.19212 0.28829 1.09418
 C1940 C 0.20245 0.29714 1.10558
 C1941 C 0.21982 0.29887 1.10212
 C1942 C 0.22681 0.29182 1.08747
 C1943 C 0.22349 0.27599 1.06061
 C1944 C 0.24084 0.27771 1.05741
 C1945 C 0.24761 0.27092 1.04253
 C1946 C 0.23708 0.26258 1.03095
 C1947 C 0.21972 0.26103 1.03430
 C1948 C 0.21286 0.26763 1.04918
 C1949 C 0.24413 0.29326 1.08384
 C1950 C 0.25103 0.28628 1.06909
 C1951 C 0.18874 0.27280 1.06773
 C1952 C 0.19558 0.26608 1.05285
 H1953 H 0.25241 0.29985 1.09248
 H1954 H 0.26444 0.28769 1.06677
 H1955 H 0.17535 0.27134 1.07007
 H1956 H 0.18727 0.25962 1.04414
 H1957 H 0.17872 0.28705 1.09660
 H1958 H 0.22791 0.30552 1.11089
 H1959 H 0.26096 0.27221 1.03984
 H1960 H 0.21165 0.25455 1.02537
 C1961 C 0.21688 0.78593 0.57622
 C1962 C 0.20789 0.77560 0.58744
 C1963 C 0.20052 0.78281 0.60181
 C1964 C 0.20209 0.80022 0.60502
 C1965 C 0.21136 0.81035 0.59370
 C1966 C 0.21871 0.80328 0.57924
 C1967 C 0.22432 0.77847 0.56088
 C1968 C 0.23304 0.78887 0.54948
 C1969 C 0.23976 0.78178 0.53474
 C1970 C 0.23785 0.76445 0.53145
 C1971 C 0.22914 0.75419 0.54303
 C1972 C 0.22235 0.76114 0.55780
 C1973 C 0.22771 0.81323 0.56764
 C1974 C 0.23474 0.80615 0.55300
 C1975 C 0.20633 0.75828 0.58401
 C1976 C 0.21345 0.75117 0.56943
 H1977 H 0.22923 0.82663 0.56983
 H1978 H 0.24148 0.81428 0.54433
 H1979 H 0.19947 0.75016 0.59260
 H1980 H 0.21188 0.73778 0.56720
 H1981 H 0.19363 0.77481 0.61049
 H1982 H 0.21257 0.82377 0.59592
 H1983 H 0.24648 0.78967 0.52581
 H1984 H 0.22745 0.74088 0.54039
 C1985 C 0.28341 0.71457 0.57616
 C1986 C 0.29278 0.72487 0.58707
 C1987 C 0.30000 0.71777 0.60158
 C1988 C 0.29776 0.70053 0.60527
 C1989 C 0.28817 0.69042 0.59426
 C1990 C 0.28105 0.69736 0.57962
 C1991 C 0.27602 0.72191 0.56074
 C1992 C 0.26691 0.71154 0.54966
 C1993 C 0.26015 0.71854 0.53489
 C1994 C 0.26236 0.73577 0.53130
 C1995 C 0.27149 0.74602 0.54254
 C1996 C 0.27837 0.73914 0.55730
 C1997 C 0.27173 0.68741 0.56830
 C1998 C 0.26480 0.69438 0.55356
 C1999 C 0.29479 0.74206 0.58323
 C2000 C 0.28767 0.74908 0.56861
 H2001 H 0.26984 0.67411 0.57082
 H2002 H 0.25777 0.68626 0.54513
 H2003 H 0.30195 0.75015 0.59158
 H2004 H 0.28955 0.76239 0.56610
 H2005 H 0.30718 0.72570 0.61006
 H2006 H 0.28651 0.67711 0.59689
 H2007 H 0.25311 0.71067 0.52621
 H2008 H 0.27336 0.75925 0.53965
 C2009 C 0.28520 0.21510 1.07592
 C2010 C 0.27460 0.20764 1.08799
 C2011 C 0.28174 0.20056 1.10258
 C2012 C 0.29937 0.20089 1.10513
 C2013 C 0.30976 0.20849 1.09284
 C2014 C 0.30275 0.21561 1.07825
 C2015 C 0.27780 0.22241 1.06049
 C2016 C 0.28845 0.22974 1.04837
 C2017 C 0.28139 0.23648 1.03364
 C2018 C 0.26384 0.23593 1.03101
 C2019 C 0.25331 0.22853 1.04326
 C2020 C 0.26025 0.22178 1.05808
 C2021 C 0.31298 0.22315 1.06588
 C2022 C 0.30595 0.23011 1.05120
 C2023 C 0.25708 0.20736 1.08519
 C2024 C 0.25003 0.21430 1.07049
 H2025 H 0.32655 0.22364 1.06754
 H2026 H 0.31428 0.23576 1.04195
 H2027 H 0.24875 0.20167 1.09441
 H2028 H 0.23647 0.21377 1.06879
 H2029 H 0.27353 0.19490 1.11190
 H2030 H 0.32332 0.20877 1.09445
 H2031 H 0.28948 0.24219 1.02421
 H2032 H 0.23981 0.22790 1.04113
 C2033 C 0.78343 0.71539 1.07686
 C2034 C 0.79246 0.72589 1.08788
 C2035 C 0.79970 0.71893 1.10246
 C2036 C 0.79782 0.70164 1.10612
 C2037 C 0.78861 0.69133 1.09495
 C2038 C 0.78147 0.69813 1.08026
 C2039 C 0.77599 0.72258 1.06139
 C2040 C 0.76721 0.71201 1.05023
 C2041 C 0.76040 0.71886 1.03541
 C2042 C 0.76224 0.73614 1.03183
 C2043 C 0.77103 0.74659 1.04316
 C2044 C 0.77796 0.73986 1.05798
 C2045 C 0.77248 0.68798 1.06886
 C2046 C 0.76550 0.69480 1.05408
 C2047 C 0.79410 0.74313 1.08407
 C2048 C 0.78695 0.75000 1.06938
 H2049 H 0.77089 0.67463 1.07134
 H2050 H 0.75874 0.68652 1.04558
 H2051 H 0.80100 0.75138 1.09249
 H2052 H 0.78854 0.76335 1.06689
 H2053 H 0.80661 0.72702 1.11103
 H2054 H 0.78724 0.67798 1.09750
 H2055 H 0.75363 0.71082 1.02668
 H2056 H 0.77264 0.75986 1.04029
 C2057 C 0.78393 0.21392 0.57546
 C2058 C 0.79325 0.22421 0.58644
 C2059 C 0.80064 0.21703 0.60082
 C2060 C 0.79865 0.19972 0.60432
 C2061 C 0.78913 0.18962 0.59324
 C2062 C 0.78181 0.19664 0.57874
 C2063 C 0.77638 0.22134 0.56017
 C2064 C 0.76734 0.21097 0.54902
 C2065 C 0.76049 0.21802 0.53432
 C2066 C 0.76253 0.23531 0.53086
 C2067 C 0.77153 0.24556 0.54219
 C2068 C 0.77851 0.23862 0.55688
 C2069 C 0.77253 0.18671 0.56738
 C2070 C 0.76544 0.19375 0.55275
 C2071 C 0.79501 0.24147 0.58278
 C2072 C 0.78774 0.24856 0.56827
 H2073 H 0.77080 0.17337 0.56976
 H2074 H 0.75846 0.18564 0.54427
 H2075 H 0.80211 0.24956 0.59119
 H2076 H 0.78944 0.26191 0.56589
 H2077 H 0.80777 0.22496 0.60935
 H2078 H 0.78764 0.17626 0.59571
 H2079 H 0.75353 0.21015 0.52557
 H2080 H 0.77327 0.25883 0.53941
 C2081 C 0.71624 0.71479 0.42385
 C2082 C 0.71858 0.69758 0.42039
 C2083 C 0.71146 0.69070 0.40574
 C2084 C 0.70188 0.70086 0.39472
 C2085 C 0.69967 0.71810 0.39842
 C2086 C 0.70689 0.72515 0.41293
 C2087 C 0.72362 0.72207 0.43927
 C2088 C 0.72131 0.73930 0.44271
 C2089 C 0.72820 0.74612 0.45747
 C2090 C 0.73728 0.73582 0.46873
 C2091 C 0.73945 0.71858 0.46516
 C2092 C 0.73270 0.71164 0.45037
 C2093 C 0.70492 0.74234 0.41676
 C2094 C 0.71205 0.74931 0.43139
 C2095 C 0.72787 0.68757 0.43171
 C2096 C 0.73479 0.69448 0.44646
 H2097 H 0.69779 0.75048 0.40840
 H2098 H 0.71020 0.76262 0.43390
 H2099 H 0.72975 0.67427 0.42918
 H2100 H 0.74179 0.68631 0.45490
 H2101 H 0.71310 0.67739 0.40311
 H2102 H 0.69250 0.72608 0.38994
 H2103 H 0.72637 0.75936 0.46035
 H2104 H 0.74646 0.71067 0.47385
 C2105 C 0.71743 0.21590 -0.07677
 C2106 C 0.71981 0.19873 -0.08036
 C2107 C 0.71299 0.19201 -0.09521
 C2108 C 0.70369 0.20229 -0.10636
 C2109 C 0.70140 0.21949 -0.10253
 C2110 C 0.70831 0.22639 -0.08778
 C2111 C 0.72452 0.22302 -0.06113
 C2112 C 0.72217 0.24021 -0.05757
 C2113 C 0.72884 0.24688 -0.04263
 C2114 C 0.73776 0.23647 -0.03134
 C2115 C 0.73995 0.21926 -0.03504
 C2116 C 0.73341 0.21247 -0.04999
 C2117 C 0.70627 0.24354 -0.08380
 C2118 C 0.71312 0.25034 -0.06896
 C2119 C 0.72887 0.18860 -0.06896
 C2120 C 0.73553 0.19535 -0.05402
 H2121 H 0.69931 0.25177 -0.09221
 H2122 H 0.71124 0.26363 -0.06635
 H2123 H 0.73078 0.17532 -0.07158
 H2124 H 0.74239 0.18709 -0.04554
 H2125 H 0.71467 0.17872 -0.09790
 H2126 H 0.69441 0.22756 -0.11108
 H2127 H 0.72698 0.26010 -0.03966
 H2128 H 0.74684 0.21126 -0.02634
 C2129 C 0.21550 0.71569 -0.07627
 C2130 C 0.19807 0.71713 -0.07916
 C2131 C 0.19115 0.71002 -0.09377
 C2132 C 0.20148 0.70140 -0.10539
 C2133 C 0.21894 0.70004 -0.10226
 C2134 C 0.22603 0.70724 -0.08774
 C2135 C 0.22283 0.72310 -0.06089
 C2136 C 0.24027 0.72170 -0.05799
 C2137 C 0.24715 0.72864 -0.04325
 C2138 C 0.23666 0.73686 -0.03153
 C2139 C 0.21922 0.73813 -0.03459
 C2140 C 0.21223 0.73132 -0.04930
 C2141 C 0.24343 0.70616 -0.08445
 C2142 C 0.25044 0.71329 -0.06984
 C2143 C 0.18790 0.72556 -0.06734
 C2144 C 0.19486 0.73251 -0.05264
 H2145 H 0.25170 0.69972 -0.09322
 H2146 H 0.26391 0.71215 -0.06776
 H2147 H 0.17444 0.72673 -0.06943
 H2148 H 0.18657 0.73886 -0.04382
 H2149 H 0.17768 0.71098 -0.09592
 H2150 H 0.22703 0.69359 -0.11119
 H2151 H 0.26056 0.72753 -0.04078
 H2152 H 0.21118 0.74450 -0.02554
 C2153 C 0.21562 0.21686 0.42386
 C2154 C 0.19838 0.21900 0.42037
 C2155 C 0.19165 0.21209 0.40556
 C2156 C 0.20199 0.20292 0.39437
 C2157 C 0.21926 0.20086 0.39810
 C2158 C 0.22616 0.20788 0.41280
 C2159 C 0.22275 0.22406 0.43944
 C2160 C 0.24001 0.22196 0.44291
 C2161 C 0.24668 0.22873 0.45781
 C2162 C 0.23620 0.23750 0.46916
 C2163 C 0.21893 0.23943 0.46554
 C2164 C 0.21214 0.23280 0.45064
 C2165 C 0.24338 0.20609 0.41668
 C2166 C 0.25019 0.21304 0.43147
 C2167 C 0.18819 0.22793 0.43181
 C2168 C 0.19495 0.23468 0.44671
 H2169 H 0.25166 0.19924 0.40823
 H2170 H 0.26353 0.21135 0.43400
 H2171 H 0.17487 0.22965 0.42927
 H2172 H 0.18664 0.24142 0.45523
 H2173 H 0.17832 0.21359 0.40295
 H2174 H 0.22737 0.19398 0.38951
 H2175 H 0.25996 0.22707 0.46070
 H2176 H 0.21088 0.24620 0.47429
 C2177 C 0.28421 0.42289 0.71768
 C2178 C 0.27374 0.41186 0.70862
 C2179 C 0.28069 0.39714 0.70166
 C2180 C 0.29794 0.39337 0.70381
 C2181 C 0.30820 0.40452 0.71308
 C2182 C 0.30142 0.41935 0.71997
 C2183 C 0.27704 0.43854 0.72477
 C2184 C 0.28759 0.44972 0.73356
 C2185 C 0.28076 0.46470 0.74006
 C2186 C 0.26353 0.46840 0.73792
 C2187 C 0.25312 0.45706 0.72909
 C2188 C 0.25982 0.44209 0.72247
 C2189 C 0.31154 0.43078 0.72895
 C2190 C 0.30475 0.44573 0.73561
 C2191 C 0.25655 0.41582 0.70666
 C2192 C 0.24971 0.43066 0.71349
 H2193 H 0.32485 0.42820 0.73079
 H2194 H 0.31301 0.45424 0.74238
 H2195 H 0.24833 0.40739 0.69973
 H2196 H 0.23640 0.43326 0.71164
 H2197 H 0.27263 0.38860 0.69470
 H2198 H 0.32153 0.40188 0.71467
 H2199 H 0.28877 0.47344 0.74686
 H2200 H 0.23988 0.46002 0.72725
 C2201 C 0.28586 0.92500 0.21577
 C2202 C 0.30315 0.92165 0.21781
 C2203 C 0.31012 0.90723 0.21029
 C2204 C 0.29997 0.89630 0.20065
 C2205 C 0.28265 0.89991 0.19870
 C2206 C 0.27552 0.91420 0.20630
 C2207 C 0.27847 0.94019 0.22357
 C2208 C 0.26118 0.94354 0.22151
 C2209 C 0.25428 0.95815 0.22871
 C2210 C 0.26458 0.96935 0.23782
 C2211 C 0.28187 0.96581 0.23980
 C2212 C 0.28889 0.95118 0.23275
 C2213 C 0.25825 0.91792 0.20462
 C2214 C 0.25119 0.93233 0.21212
 C2215 C 0.31312 0.93285 0.22723
 C2216 C 0.30612 0.94739 0.23454
 H2217 H 0.25012 0.90965 0.19740
 H2218 H 0.23784 0.93478 0.21046
 H2219 H 0.32648 0.93041 0.22889
 H2220 H 0.31428 0.95575 0.24162
 H2221 H 0.32348 0.90468 0.21174
 H2222 H 0.27467 0.89151 0.19148
 H2223 H 0.24100 0.96101 0.22699
 H2224 H 0.28979 0.97446 0.24682
 C2225 C 0.78560 0.42440 0.21659
 C2226 C 0.80289 0.42108 0.21868
 C2227 C 0.80989 0.40663 0.21124
 C2228 C 0.79977 0.39563 0.20164
 C2229 C 0.78244 0.39918 0.19971
 C2230 C 0.77529 0.41353 0.20719
 C2231 C 0.77820 0.43966 0.22424
 C2232 C 0.76092 0.44302 0.22207
 C2233 C 0.75402 0.45770 0.22911
 C2234 C 0.76428 0.46894 0.23821
 C2235 C 0.78156 0.46539 0.24031
 C2236 C 0.78859 0.45071 0.23338
 C2237 C 0.75803 0.41725 0.20539
 C2238 C 0.75097 0.43174 0.21273
 C2239 C 0.81284 0.43234 0.22806
 C2240 C 0.80581 0.44692 0.23527
 H2241 H 0.74993 0.40894 0.19820
 H2242 H 0.73762 0.43420 0.21098
 H2243 H 0.82619 0.42992 0.22977
 H2244 H 0.81395 0.45533 0.24231
 H2245 H 0.82326 0.40416 0.21270
 H2246 H 0.77447 0.39074 0.19252
 H2247 H 0.74076 0.46056 0.22729
 H2248 H 0.78945 0.47406 0.24732
 C2249 C 0.78404 0.92411 0.71605
 C2250 C 0.78258 0.92132 0.69863
 C2251 C 0.78972 0.90675 0.69161
 C2252 C 0.79842 0.89508 0.70183
 C2253 C 0.79983 0.89812 0.71928
 C2254 C 0.79257 0.91259 0.72647
 C2255 C 0.77659 0.93946 0.72349
 C2256 C 0.77800 0.94226 0.74092
 C2257 C 0.77106 0.95699 0.74788
 C2258 C 0.76287 0.96883 0.73747
 C2259 C 0.76155 0.96583 0.72005
 C2260 C 0.76834 0.95112 0.71298
 C2261 C 0.79365 0.91579 0.74387
 C2262 C 0.78646 0.93035 0.75098
 C2263 C 0.77410 0.93321 0.68857
 C2264 C 0.76712 0.94787 0.69562
 H2265 H 0.80014 0.90697 0.75207
 H2266 H 0.78761 0.93235 0.76444
 H2267 H 0.77290 0.93119 0.67511
 H2268 H 0.76075 0.95675 0.68740
 H2269 H 0.78871 0.90467 0.67815
 H2270 H 0.80635 0.88915 0.72728
 H2271 H 0.77222 0.95940 0.76128
 H2272 H 0.75521 0.97496 0.71206
 C2273 C 0.71500 0.57581 0.71472
 C2274 C 0.70621 0.58709 0.72517
 C2275 C 0.69878 0.60151 0.71803
 C2276 C 0.70029 0.60473 0.70061
 C2277 C 0.70923 0.59330 0.69036
 C2278 C 0.71652 0.57877 0.69733
 C2279 C 0.72267 0.56054 0.72210
 C2280 C 0.73118 0.54911 0.71157
 C2281 C 0.73818 0.53448 0.71859
 C2282 C 0.73684 0.53135 0.73599
 C2283 C 0.72839 0.54295 0.74643
 C2284 C 0.72121 0.55759 0.73951
 C2285 C 0.72525 0.56710 0.68723
 C2286 C 0.73242 0.55250 0.69423
 C2287 C 0.70504 0.58373 0.74254
 C2288 C 0.71245 0.56925 0.74959
 H2289 H 0.72648 0.56924 0.67379
 H2290 H 0.73897 0.54377 0.68599
 H2291 H 0.69833 0.59236 0.75075
 H2292 H 0.71124 0.56711 0.76304
 H2293 H 0.69207 0.61031 0.72605
 H2294 H 0.71031 0.59555 0.67693
 H2295 H 0.74471 0.52550 0.71059
 H2296 H 0.72722 0.54042 0.75981
 C2297 C 0.71426 0.07508 0.21601
 C2298 C 0.72452 0.08590 0.20646
 C2299 C 0.71732 0.10023 0.19898
 C2300 C 0.70003 0.10382 0.20107
 C2301 C 0.68996 0.09289 0.21082
 C2302 C 0.69699 0.07844 0.21825
 C2303 C 0.72171 0.05984 0.22368
 C2304 C 0.71138 0.04883 0.23298
 C2305 C 0.71847 0.03419 0.23995
 C2306 C 0.73574 0.03065 0.23774
 C2307 C 0.74593 0.04185 0.22848
 C2308 C 0.73897 0.05648 0.22140
 C2309 C 0.68711 0.06721 0.22777
 C2310 C 0.69417 0.05264 0.23499
 C2311 C 0.74175 0.08217 0.20455
 C2312 C 0.74886 0.06771 0.21192
 H2313 H 0.67377 0.06966 0.22959
 H2314 H 0.68609 0.04426 0.24215
 H2315 H 0.74981 0.09046 0.19725
 H2316 H 0.76220 0.06525 0.21008
 H2317 H 0.72525 0.10864 0.19169
 H2318 H 0.67661 0.09544 0.21240
 H2319 H 0.71063 0.02554 0.24708
 H2320 H 0.75918 0.03899 0.22658
 C2321 C 0.21444 0.57515 0.21550
 C2322 C 0.22475 0.58599 0.20601
 C2323 C 0.21758 0.60029 0.19844
 C2324 C 0.20026 0.60387 0.20044
 C2325 C 0.19014 0.59291 0.21011
 C2326 C 0.19715 0.57848 0.21759
 C2327 C 0.22187 0.55997 0.22329
 C2328 C 0.21148 0.54895 0.23252
 C2329 C 0.21854 0.53434 0.23958
 C2330 C 0.23583 0.53083 0.23755
 C2331 C 0.24610 0.54206 0.22840
 C2332 C 0.23916 0.55665 0.22120
 C2333 C 0.18721 0.56724 0.22704
 C2334 C 0.19425 0.55271 0.23435
 C2335 C 0.24201 0.58229 0.20427
 C2336 C 0.24911 0.56789 0.21176
 H2337 H 0.17385 0.56966 0.22874
 H2338 H 0.18612 0.54433 0.24146
 H2339 H 0.25011 0.59058 0.19702
 H2340 H 0.26247 0.56547 0.21007
 H2341 H 0.22553 0.60873 0.19120
 H2342 H 0.17679 0.59544 0.21159
 H2343 H 0.21065 0.52567 0.24663
 H2344 H 0.25938 0.53923 0.22665
 C2345 C 0.21456 0.07563 0.71655
 C2346 C 0.19727 0.07896 0.71857
 C2347 C 0.19036 0.09358 0.71134
 C2348 C 0.20059 0.10475 0.70201
 C2349 C 0.21793 0.10119 0.70014
 C2350 C 0.22499 0.08667 0.70743
 C2351 C 0.22186 0.06021 0.72401
 C2352 C 0.23915 0.05686 0.72194
 C2353 C 0.24598 0.04207 0.72884
 C2354 C 0.23563 0.03070 0.73775
 C2355 C 0.21833 0.03423 0.73971
 C2356 C 0.21137 0.04902 0.73289
 C2357 C 0.24225 0.08294 0.70573
 C2358 C 0.24922 0.06830 0.71288
 C2359 C 0.18721 0.06754 0.72766
 C2360 C 0.19414 0.05281 0.73469
 H2361 H 0.25044 0.09138 0.69877
 H2362 H 0.26258 0.06586 0.71122
 H2363 H 0.17384 0.06996 0.72930
 H2364 H 0.18592 0.04429 0.74153
 H2365 H 0.17699 0.09606 0.71274
 H2366 H 0.22597 0.10975 0.69317
 H2367 H 0.25926 0.03924 0.72711
 H2368 H 0.21037 0.02548 0.74657
 C2369 C 0.28585 0.57506 0.28396
 C2370 C 0.27553 0.58598 0.29334
 C2371 C 0.28271 0.60027 0.30087
 C2372 C 0.30005 0.60373 0.29898
 C2373 C 0.31018 0.59270 0.28940
 C2374 C 0.30316 0.57828 0.28194
 C2375 C 0.27841 0.55986 0.27625
 C2376 C 0.28880 0.54875 0.26716
 C2377 C 0.28173 0.53413 0.26018
 C2378 C 0.26442 0.53071 0.26216
 C2379 C 0.25415 0.54203 0.27121
 C2380 C 0.26110 0.55664 0.27831
 C2381 C 0.31311 0.56695 0.27261
 C2382 C 0.30606 0.55241 0.26537
 C2383 C 0.25824 0.58238 0.29503
 C2384 C 0.25114 0.56797 0.28762
 H2385 H 0.32648 0.56928 0.27096
 H2386 H 0.31419 0.54395 0.25836
 H2387 H 0.25014 0.59075 0.30219
 H2388 H 0.23777 0.56562 0.28928
 H2389 H 0.27474 0.60875 0.30804
 H2390 H 0.32356 0.59514 0.28798
 H2391 H 0.28962 0.52539 0.25321
 H2392 H 0.24086 0.53928 0.27293
 C2393 C 0.28542 0.07575 0.78281
 C2394 C 0.30262 0.07925 0.78037
 C2395 C 0.30953 0.09391 0.78745
 C2396 C 0.29941 0.10491 0.79709
 C2397 C 0.28217 0.10118 0.79937
 C2398 C 0.27509 0.08666 0.79221
 C2399 C 0.27811 0.06027 0.77555
 C2400 C 0.26091 0.05677 0.77801
 C2401 C 0.25408 0.04194 0.77126
 C2402 C 0.26435 0.03067 0.76216
 C2403 C 0.28157 0.03432 0.75982
 C2404 C 0.28852 0.04917 0.76644
 C2405 C 0.25791 0.08278 0.79430
 C2406 C 0.25093 0.06811 0.78729
 C2407 C 0.31258 0.06794 0.77103
 C2408 C 0.30566 0.05314 0.76421
 H2409 H 0.24980 0.09113 0.80147
 H2410 H 0.23764 0.06556 0.78924
 H2411 H 0.32587 0.07049 0.76905
 H2412 H 0.31380 0.04471 0.75717
 H2413 H 0.32284 0.09655 0.78574
 H2414 H 0.27422 0.10963 0.80660
 H2415 H 0.24086 0.03902 0.77323
 H2416 H 0.28946 0.02562 0.75280
 C2417 C 0.78453 0.57603 0.78417
 C2418 C 0.78304 0.57885 0.80158
 C2419 C 0.79012 0.59345 0.80858
 C2420 C 0.79878 0.60511 0.79834
 C2421 C 0.80025 0.60202 0.78090
 C2422 C 0.79306 0.58752 0.77373
 C2423 C 0.77711 0.56068 0.77676
 C2424 C 0.77853 0.55786 0.75933
 C2425 C 0.77157 0.54315 0.75239
 C2426 C 0.76336 0.53135 0.76281
 C2427 C 0.76205 0.53436 0.78023
 C2428 C 0.76884 0.54906 0.78728
 C2429 C 0.79420 0.58428 0.75634
 C2430 C 0.78702 0.56972 0.74926
 C2431 C 0.77457 0.56699 0.81167
 C2432 C 0.76761 0.55232 0.80464
 H2433 H 0.80070 0.59307 0.74813
 H2434 H 0.78820 0.56770 0.73580
 H2435 H 0.77335 0.56903 0.82512
 H2436 H 0.76124 0.54346 0.81287
 H2437 H 0.78907 0.59556 0.82203
 H2438 H 0.80676 0.61098 0.77288
 H2439 H 0.77272 0.54072 0.73899
 H2440 H 0.75569 0.52526 0.78823
 C2441 C 0.78617 0.07516 0.28353
 C2442 C 0.80344 0.07848 0.28133
 C2443 C 0.81048 0.09289 0.28877
 C2444 C 0.80040 0.10383 0.29852
 C2445 C 0.78310 0.10028 0.30059
 C2446 C 0.77591 0.08599 0.29308
 C2447 C 0.77873 0.05996 0.27585
 C2448 C 0.76147 0.05663 0.27811
 C2449 C 0.75453 0.04200 0.27105
 C2450 C 0.76475 0.03078 0.26184
 C2451 C 0.78201 0.03431 0.25963
 C2452 C 0.78908 0.04895 0.26658
 C2453 C 0.75866 0.08229 0.29496
 C2454 C 0.75156 0.06786 0.28758
 C2455 C 0.81334 0.06726 0.27182
 C2456 C 0.80629 0.05272 0.26460
 H2457 H 0.75060 0.09058 0.30226
 H2458 H 0.73823 0.06542 0.28940
 H2459 H 0.82668 0.06967 0.27003
 H2460 H 0.81439 0.04433 0.25746
 H2461 H 0.82383 0.09540 0.28722
 H2462 H 0.77517 0.10869 0.30788
 H2463 H 0.74128 0.03915 0.27295
 H2464 H 0.78987 0.02565 0.25253
 C2465 C 0.71396 0.42464 0.28399
 C2466 C 0.72423 0.41371 0.29343
 C2467 C 0.71704 0.39934 0.30081
 C2468 C 0.69974 0.39579 0.29870
 C2469 C 0.68966 0.40683 0.28906
 C2470 C 0.69670 0.42133 0.28174
 C2471 C 0.72141 0.43992 0.27642
 C2472 C 0.71108 0.45102 0.26724
 C2473 C 0.71817 0.46570 0.26035
 C2474 C 0.73544 0.46916 0.26252
 C2475 C 0.74564 0.45787 0.27169
 C2476 C 0.73868 0.44322 0.27869
 C2477 C 0.68680 0.43267 0.27234
 C2478 C 0.69386 0.44728 0.26524
 C2479 C 0.74147 0.41739 0.29534
 C2480 C 0.74858 0.43189 0.28807
 H2481 H 0.67346 0.43027 0.27053
 H2482 H 0.68577 0.45573 0.25816
 H2483 H 0.74952 0.40902 0.30256
 H2484 H 0.76191 0.43429 0.28989
 H2485 H 0.72497 0.39085 0.30801
 H2486 H 0.67632 0.40431 0.28748
 H2487 H 0.71033 0.47441 0.25329
 H2488 H 0.75890 0.46067 0.27355
 C2489 C 0.71486 0.92443 0.78567
 C2490 C 0.70602 0.91319 0.77523
 C2491 C 0.69860 0.89879 0.78237
 C2492 C 0.70016 0.89552 0.79977
 C2493 C 0.70917 0.90689 0.81001
 C2494 C 0.71646 0.92141 0.80304
 C2495 C 0.72247 0.93971 0.77830
 C2496 C 0.73101 0.95111 0.78882
 C2497 C 0.73794 0.96578 0.78181
 C2498 C 0.73649 0.96898 0.76444
 C2499 C 0.72802 0.95740 0.75401
 C2500 C 0.72093 0.94273 0.76090
 C2501 C 0.72524 0.93303 0.81313
 C2502 C 0.73236 0.94765 0.80614
 C2503 C 0.70481 0.91659 0.75787
 C2504 C 0.71217 0.93109 0.75082
 H2505 H 0.72655 0.93083 0.82655
 H2506 H 0.73895 0.95633 0.81437
 H2507 H 0.69809 0.90799 0.74967
 H2508 H 0.71091 0.93326 0.73739
 H2509 H 0.69184 0.89003 0.77436
 H2510 H 0.71029 0.90461 0.82343
 H2511 H 0.74450 0.97472 0.78981
 H2512 H 0.72679 0.95997 0.74063
 C2513 C 0.21348 0.42447 0.78431
 C2514 C 0.19616 0.42130 0.78230
 C2515 C 0.18912 0.40685 0.78972
 C2516 C 0.19923 0.39574 0.79924
 C2517 C 0.21658 0.39916 0.80112
 C2518 C 0.22379 0.41347 0.79363
 C2519 C 0.22094 0.43969 0.77665
 C2520 C 0.23826 0.44287 0.77868
 C2521 C 0.24524 0.45748 0.77160
 C2522 C 0.23501 0.46885 0.76256
 C2523 C 0.21768 0.46550 0.76062
 C2524 C 0.21057 0.45088 0.76760
 C2525 C 0.24108 0.41702 0.79529
 C2526 C 0.24820 0.43146 0.78792
 C2527 C 0.18623 0.43270 0.77302
 C2528 C 0.19331 0.44726 0.76582
 H2529 H 0.24918 0.40859 0.80240
 H2530 H 0.26158 0.43376 0.78955
 H2531 H 0.17285 0.43040 0.77139
 H2532 H 0.18519 0.45577 0.75885
 H2533 H 0.17573 0.40444 0.78831
 H2534 H 0.22454 0.39061 0.80823
 H2535 H 0.25854 0.46019 0.77329
 H2536 H 0.20981 0.47427 0.75366
 C2537 C 0.21466 0.92475 0.28384
 C2538 C 0.22499 0.91367 0.29304
 C2539 C 0.21781 0.89925 0.30037
 C2540 C 0.20045 0.89583 0.29849
 C2541 C 0.19032 0.90704 0.28910
 C2542 C 0.19735 0.92156 0.28181
 C2543 C 0.22208 0.94008 0.27635
 C2544 C 0.21169 0.95132 0.26741
 C2545 C 0.21875 0.96603 0.26058
 C2546 C 0.23607 0.96942 0.26255
 C2547 C 0.24634 0.95800 0.27148
 C2548 C 0.23939 0.94329 0.27843
 C2549 C 0.18739 0.93303 0.27265
 C2550 C 0.19443 0.94768 0.26560
 C2551 C 0.24227 0.91727 0.29478
 C2552 C 0.24935 0.93182 0.28758
 H2553 H 0.17401 0.93072 0.27101
 H2554 H 0.18628 0.95624 0.25871
 H2555 H 0.25037 0.90880 0.30182
 H2556 H 0.26272 0.93416 0.28928
 H2557 H 0.22579 0.89067 0.30740
 H2558 H 0.17694 0.90467 0.28769
 H2559 H 0.21086 0.97485 0.25370
 H2560 H 0.25963 0.96073 0.27321
 C2561 C 0.42488 0.28457 0.71515
 C2562 C 0.42201 0.28301 0.69775
 C2563 C 0.40751 0.29030 0.69069
 C2564 C 0.39603 0.29928 0.70087
 C2565 C 0.39915 0.30079 0.71829
 C2566 C 0.41352 0.29337 0.72552
 C2567 C 0.44014 0.27697 0.72262
 C2568 C 0.44301 0.27849 0.74004
 C2569 C 0.45767 0.27143 0.74703
 C2570 C 0.46939 0.26303 0.73667
 C2571 C 0.46633 0.26159 0.71927
 C2572 C 0.45167 0.26848 0.71217
 C2573 C 0.41677 0.29455 0.74290
 C2574 C 0.43125 0.28721 0.75004
 C2575 C 0.43375 0.27427 0.68774
 C2576 C 0.44835 0.26716 0.69482
 H2577 H 0.40807 0.30124 0.75105
 H2578 H 0.43330 0.28845 0.76349
 H2579 H 0.43168 0.27299 0.67429
 H2580 H 0.45714 0.26062 0.68664
 H2581 H 0.40533 0.28921 0.67725
 H2582 H 0.39031 0.30752 0.72626
 H2583 H 0.46014 0.27267 0.76041
 H2584 H 0.47538 0.25508 0.71133
 C2585 C 0.42310 0.78441 0.21586
 C2586 C 0.41168 0.77393 0.20731
 C2587 C 0.39714 0.78105 0.20013
 C2588 C 0.39393 0.79848 0.20158
 C2589 C 0.40548 0.80875 0.21032
 C2590 C 0.42013 0.80181 0.21740
 C2591 C 0.43855 0.77706 0.22320
 C2592 C 0.45011 0.78762 0.23147
 C2593 C 0.46491 0.78064 0.23816
 C2594 C 0.46808 0.76324 0.23673
 C2595 C 0.45635 0.75278 0.22852
 C2596 C 0.44153 0.75966 0.22168
 C2597 C 0.43192 0.81193 0.22590
 C2598 C 0.44668 0.80496 0.23279
 C2599 C 0.41506 0.75656 0.20611
 C2600 C 0.42972 0.74954 0.21320
 H2601 H 0.42976 0.82536 0.22717
 H2602 H 0.45549 0.81322 0.23917
 H2603 H 0.40632 0.74833 0.19960
 H2604 H 0.43187 0.73610 0.21195
 H2605 H 0.38827 0.77299 0.19358
 H2606 H 0.40326 0.82220 0.21136
 H2607 H 0.47397 0.78866 0.24453
 H2608 H 0.45890 0.73940 0.22730
 C2609 C 0.92367 0.28513 0.21632
 C2610 C 0.92036 0.30242 0.21824
 C2611 C 0.90570 0.30928 0.21108
 C2612 C 0.89443 0.29902 0.20195
 C2613 C 0.89797 0.28168 0.20016
 C2614 C 0.91256 0.27467 0.20736
 C2615 C 0.93914 0.27788 0.22371
 C2616 C 0.94249 0.26059 0.22174
 C2617 C 0.95732 0.25382 0.22862
 C2618 C 0.96871 0.26422 0.23738
 C2619 C 0.96519 0.28151 0.23923
 C2620 C 0.95038 0.28842 0.23245
 C2621 C 0.91630 0.25741 0.20573
 C2622 C 0.93100 0.25049 0.21281
 C2623 C 0.93184 0.31253 0.22718
 C2624 C 0.94660 0.30565 0.23415
 H2625 H 0.90781 0.24919 0.19887
 H2626 H 0.93344 0.23713 0.21122
 H2627 H 0.92942 0.32589 0.22874
 H2628 H 0.95516 0.31389 0.24089
 H2629 H 0.90328 0.32266 0.21241
 H2630 H 0.88935 0.27361 0.19331
 H2631 H 0.96015 0.24053 0.22700
 H2632 H 0.97398 0.28951 0.24600
 C2633 C 0.92281 0.78337 0.71544
 C2634 C 0.91933 0.78128 0.69821
 C2635 C 0.90453 0.78827 0.69148
 C2636 C 0.89333 0.79745 0.70180
 C2637 C 0.89704 0.79944 0.71906
 C2638 C 0.91173 0.79235 0.72596
 C2639 C 0.93841 0.77613 0.72256
 C2640 C 0.94188 0.77820 0.73980
 C2641 C 0.95681 0.77143 0.74646
 C2642 C 0.96818 0.76267 0.73600
 C2643 C 0.96457 0.76075 0.71874
 C2644 C 0.94963 0.76740 0.71196
 C2645 C 0.91560 0.79407 0.74317
 C2646 C 0.93040 0.78709 0.74998
 C2647 C 0.93079 0.77236 0.68804
 C2648 C 0.94570 0.76556 0.69479
 H2649 H 0.90713 0.80091 0.75144
 H2650 H 0.93292 0.78872 0.76330
 H2651 H 0.92825 0.77068 0.67472
 H2652 H 0.95423 0.75882 0.68649
 H2653 H 0.90193 0.78681 0.67816
 H2654 H 0.88843 0.80633 0.72714
 H2655 H 0.95970 0.77307 0.75972
 H2656 H 0.97333 0.75399 0.71071
 C2657 C 0.57653 0.28403 0.28381
 C2658 C 0.58797 0.27355 0.29238
 C2659 C 0.60250 0.28067 0.29955
 C2660 C 0.60567 0.29810 0.29807
 C2661 C 0.59410 0.30837 0.28931
 C2662 C 0.57946 0.30142 0.28224
 C2663 C 0.56110 0.27668 0.27648
 C2664 C 0.54951 0.28724 0.26821
 C2665 C 0.53472 0.28025 0.26153
 C2666 C 0.53159 0.26286 0.26298
 C2667 C 0.54335 0.25239 0.27120
 C2668 C 0.55815 0.25927 0.27804
 C2669 C 0.56764 0.31154 0.27373
 C2670 C 0.55289 0.30457 0.26686
 C2671 C 0.58463 0.25618 0.29362
 C2672 C 0.56999 0.24916 0.28654
 H2673 H 0.56976 0.32499 0.27244
 H2674 H 0.54405 0.31283 0.26047
 H2675 H 0.59338 0.24796 0.30015
 H2676 H 0.56787 0.23572 0.28781
 H2677 H 0.61139 0.27261 0.30612
 H2678 H 0.59629 0.32182 0.28824
 H2679 H 0.52564 0.28827 0.25516
 H2680 H 0.54083 0.23901 0.27244
 C2681 C 0.57657 0.78374 0.78361
 C2682 C 0.58798 0.77314 0.79206
 C2683 C 0.60278 0.78005 0.79886
 C2684 C 0.60626 0.79740 0.79711
 C2685 C 0.59474 0.80779 0.78841
 C2686 C 0.57982 0.80104 0.78173
 C2687 C 0.56084 0.77660 0.77670
 C2688 C 0.54928 0.78728 0.76852
 C2689 C 0.53426 0.78048 0.76216
 C2690 C 0.53090 0.76315 0.76379
 C2691 C 0.54259 0.75258 0.77198
 C2692 C 0.55761 0.75927 0.77851
 C2693 C 0.56801 0.81129 0.77336
 C2694 C 0.55298 0.80453 0.76690
 C2695 C 0.58433 0.75586 0.79359
 C2696 C 0.56942 0.74903 0.78689
 H2697 H 0.57036 0.82467 0.77186
 H2698 H 0.54417 0.81288 0.76059
 H2699 H 0.59305 0.74754 0.80006
 H2700 H 0.56707 0.73565 0.78836
 H2701 H 0.61163 0.77191 0.80538
 H2702 H 0.59717 0.82117 0.78715
 H2703 H 0.52524 0.78857 0.75580
 H2704 H 0.53990 0.73924 0.77332
 C2705 C 0.07585 0.28436 0.78409
 C2706 C 0.08730 0.27384 0.79258
 C2707 C 0.10185 0.28091 0.79977
 C2708 C 0.10503 0.29835 0.79838
 C2709 C 0.09345 0.30867 0.78968
 C2710 C 0.07880 0.30176 0.78259
 C2711 C 0.06039 0.27706 0.77675
 C2712 C 0.04880 0.28766 0.76852
 C2713 C 0.03400 0.28070 0.76182
 C2714 C 0.03085 0.26330 0.76320
 C2715 C 0.04261 0.25281 0.77141
 C2716 C 0.05743 0.25965 0.77824
 C2717 C 0.06697 0.31193 0.77413
 C2718 C 0.05221 0.30499 0.76724
 C2719 C 0.08394 0.25647 0.79375
 C2720 C 0.06928 0.24949 0.78667
 H2721 H 0.06910 0.32537 0.77290
 H2722 H 0.04337 0.31329 0.76090
 H2723 H 0.09270 0.24820 0.80022
 H2724 H 0.06715 0.23604 0.78789
 H2725 H 0.11074 0.27281 0.80628
 H2726 H 0.09565 0.32212 0.78867
 H2727 H 0.02493 0.28875 0.75547
 H2728 H 0.04008 0.23943 0.77262
 C2729 C 0.07680 0.78516 0.28358
 C2730 C 0.08804 0.77471 0.29244
 C2731 C 0.10260 0.78177 0.29961
 C2732 C 0.10599 0.79915 0.29791
 C2733 C 0.09459 0.80940 0.28887
 C2734 C 0.07996 0.80249 0.28174
 C2735 C 0.06136 0.77787 0.27622
 C2736 C 0.04999 0.78840 0.26758
 C2737 C 0.03521 0.78145 0.26083
 C2738 C 0.03184 0.76412 0.26258
 C2739 C 0.04335 0.75372 0.27125
 C2740 C 0.05816 0.76054 0.27811
 C2741 C 0.06835 0.81259 0.27291
 C2742 C 0.05361 0.80566 0.26597
 C2743 C 0.08444 0.75742 0.29401
 C2744 C 0.06976 0.75045 0.28694
 H2745 H 0.07064 0.82598 0.27142
 H2746 H 0.04496 0.81391 0.25932
 H2747 H 0.09301 0.74920 0.30080
 H2748 H 0.06744 0.73707 0.28848
 H2749 H 0.11130 0.77370 0.30639
 H2750 H 0.09689 0.82280 0.28762
 H2751 H 0.02633 0.78944 0.25415
 H2752 H 0.04064 0.74041 0.27281
 C2753 C 0.57670 0.71647 0.71713
 C2754 C 0.58801 0.72715 0.70864
 C2755 C 0.60286 0.72033 0.70180
 C2756 C 0.60649 0.70301 0.70356
 C2757 C 0.59507 0.69254 0.71228
 C2758 C 0.58010 0.69919 0.71899
 C2759 C 0.56092 0.72349 0.72407
 C2760 C 0.54947 0.71274 0.73228
 C2761 C 0.53441 0.71944 0.73871
 C2762 C 0.53091 0.73675 0.73713
 C2763 C 0.54248 0.74739 0.72889
 C2764 C 0.55753 0.74080 0.72229
 C2765 C 0.56840 0.68886 0.72740
 C2766 C 0.55332 0.69551 0.73390
 C2767 C 0.58420 0.74440 0.70713
 C2768 C 0.56924 0.75112 0.71388
 H2769 H 0.57089 0.67550 0.72890
 H2770 H 0.54461 0.68710 0.74024
 H2771 H 0.59284 0.75279 0.70066
 H2772 H 0.56678 0.76450 0.71243
 H2773 H 0.61164 0.72851 0.69526
 H2774 H 0.59761 0.67918 0.71355
 H2775 H 0.52548 0.71128 0.74512
 H2776 H 0.53968 0.76072 0.72757
 C2777 C 0.57650 0.21519 0.21570
 C2778 C 0.58792 0.22574 0.20721
 C2779 C 0.60255 0.21872 0.20010
 C2780 C 0.60584 0.20130 0.20157
 C2781 C 0.59429 0.19096 0.21027
 C2782 C 0.57956 0.19782 0.21728
 C2783 C 0.56098 0.22245 0.22297
 C2784 C 0.54944 0.21183 0.23122
 C2785 C 0.53459 0.21874 0.23790
 C2786 C 0.53138 0.23613 0.23651
 C2787 C 0.54307 0.24664 0.22827
 C2788 C 0.55792 0.23984 0.22143
 C2789 C 0.56778 0.18762 0.22573
 C2790 C 0.55295 0.19451 0.23256
 C2791 C 0.58445 0.24309 0.20597
 C2792 C 0.56972 0.25003 0.21300
 H2793 H 0.57000 0.17420 0.22703
 H2794 H 0.54416 0.18620 0.23893
 H2795 H 0.59318 0.25138 0.19950
 H2796 H 0.56752 0.26346 0.21174
 H2797 H 0.61141 0.22683 0.19359
 H2798 H 0.59658 0.17752 0.21133
 H2799 H 0.52557 0.21068 0.24429
 H2800 H 0.54049 0.26002 0.22707
 C2801 C 0.07657 0.71495 0.21607
 C2802 C 0.07984 0.69764 0.21794
 C2803 C 0.09445 0.69076 0.21069
 C2804 C 0.10569 0.70103 0.20149
 C2805 C 0.10218 0.71838 0.19973
 C2806 C 0.08766 0.72541 0.20705
 C2807 C 0.06118 0.72223 0.22361
 C2808 C 0.05792 0.73954 0.22174
 C2809 C 0.04316 0.74636 0.22875
 C2810 C 0.03177 0.73596 0.23755
 C2811 C 0.03521 0.71863 0.23930
 C2812 C 0.04996 0.71170 0.23240
 C2813 C 0.08400 0.74270 0.20552
 C2814 C 0.06938 0.74965 0.21276
 C2815 C 0.06838 0.68753 0.22693
 C2816 C 0.05367 0.69444 0.23401
 H2817 H 0.09248 0.75092 0.19864
 H2818 H 0.06701 0.76303 0.21126
 H2819 H 0.07075 0.67416 0.22845
 H2820 H 0.04513 0.68620 0.24079
 H2821 H 0.09690 0.67738 0.21198
 H2822 H 0.11079 0.72645 0.19285
 H2823 H 0.04039 0.75966 0.22721
 H2824 H 0.02642 0.71064 0.24608
 C2825 C 0.07538 0.21455 0.71592
 C2826 C 0.07833 0.19717 0.71768
 C2827 C 0.09284 0.19007 0.71044
 C2828 C 0.10423 0.20020 0.70131
 C2829 C 0.10106 0.21762 0.69967
 C2830 C 0.08669 0.22488 0.70702
 C2831 C 0.06007 0.22205 0.72340
 C2832 C 0.05713 0.23945 0.72165
 C2833 C 0.04242 0.24647 0.72858
 C2834 C 0.03075 0.23616 0.73709
 C2835 C 0.03388 0.21877 0.73875
 C2836 C 0.04859 0.21165 0.73198
 C2837 C 0.08336 0.24224 0.70562
 C2838 C 0.06884 0.24941 0.71284
 C2839 C 0.06663 0.18720 0.72652
 C2840 C 0.05198 0.19432 0.73352
 H2841 H 0.09202 0.25035 0.69883
 H2842 H 0.06672 0.26284 0.71142
 H2843 H 0.06875 0.17378 0.72796
 H2844 H 0.04323 0.18618 0.74015
 H2845 H 0.09507 0.17664 0.71164
 H2846 H 0.10984 0.22556 0.69285
 H2847 H 0.03990 0.25984 0.72719
 H2848 H 0.02486 0.21087 0.74534
 C2849 C 0.42331 0.71523 0.28417
 C2850 C 0.41183 0.72572 0.29266
 C2851 C 0.39730 0.71862 0.29985
 C2852 C 0.39414 0.70118 0.29846
 C2853 C 0.40575 0.69089 0.28977
 C2854 C 0.42039 0.69783 0.28268
 C2855 C 0.43875 0.72257 0.27681
 C2856 C 0.45036 0.71200 0.26859
 C2857 C 0.46514 0.71900 0.26186
 C2858 C 0.46823 0.73641 0.26319
 C2859 C 0.45646 0.74687 0.27140
 C2860 C 0.44167 0.73999 0.27828
 C2861 C 0.43224 0.68769 0.27423
 C2862 C 0.44700 0.69466 0.26734
 C2863 C 0.41516 0.74310 0.29381
 C2864 C 0.42980 0.75011 0.28671
 H2865 H 0.43014 0.67425 0.27301
 H2866 H 0.45585 0.68639 0.26100
 H2867 H 0.40638 0.75134 0.30028
 H2868 H 0.43190 0.76356 0.28791
 H2869 H 0.38839 0.72669 0.30636
 H2870 H 0.40357 0.67744 0.28877
 H2871 H 0.47423 0.71097 0.25551
 H2872 H 0.45895 0.76026 0.27257
 C2873 C 0.42420 0.21577 0.78448
 C2874 C 0.42091 0.21770 0.80176
 C2875 C 0.40620 0.21064 0.80861
 C2876 C 0.39497 0.20147 0.79836
 C2877 C 0.39851 0.19959 0.78105
 C2878 C 0.41307 0.20683 0.77401
 C2879 C 0.43968 0.22312 0.77722
 C2880 C 0.44295 0.22127 0.75991
 C2881 C 0.45779 0.22816 0.75313
 C2882 C 0.46929 0.23669 0.76359
 C2883 C 0.46585 0.23842 0.78090
 C2884 C 0.45100 0.23173 0.78779
 C2885 C 0.41674 0.20529 0.75674
 C2886 C 0.43140 0.21244 0.74980
 C2887 C 0.43244 0.22655 0.81188
 C2888 C 0.44726 0.23341 0.80502
 H2889 H 0.40822 0.19849 0.74852
 H2890 H 0.43377 0.21094 0.73642
 H2891 H 0.43004 0.22812 0.82524
 H2892 H 0.45588 0.24005 0.81328
 H2893 H 0.40369 0.21201 0.82197
 H2894 H 0.38986 0.19271 0.77303
 H2895 H 0.46054 0.22673 0.73981
 H2896 H 0.47472 0.24504 0.78892
 C2897 C 0.92293 0.71670 0.78462
 C2898 C 0.91945 0.71880 0.80185
 C2899 C 0.90466 0.71182 0.80859
 C2900 C 0.89347 0.70265 0.79828
 C2901 C 0.89720 0.70062 0.78103
 C2902 C 0.91189 0.70770 0.77411
 C2903 C 0.93850 0.72398 0.77748
 C2904 C 0.94198 0.72192 0.76024
 C2905 C 0.95686 0.72875 0.75355
 C2906 C 0.96818 0.73756 0.76400
 C2907 C 0.96456 0.73946 0.78126
 C2908 C 0.94968 0.73275 0.78807
 C2909 C 0.91578 0.70595 0.75691
 C2910 C 0.93055 0.71297 0.75008
 C2911 C 0.93088 0.72774 0.81201
 C2912 C 0.94575 0.73457 0.80524
 H2913 H 0.90734 0.69909 0.74865
 H2914 H 0.93308 0.71132 0.73676
 H2915 H 0.92833 0.72942 0.82533
 H2916 H 0.95426 0.74133 0.81352
 H2917 H 0.90205 0.71330 0.82191
 H2918 H 0.88862 0.69373 0.77295
 H2919 H 0.95976 0.72711 0.74029
 H2920 H 0.97329 0.74625 0.78929
 C2921 C 0.92394 0.21485 0.28345
 C2922 C 0.92071 0.19755 0.28150
 C2923 C 0.90610 0.19063 0.28869
 C2924 C 0.89483 0.20085 0.29791
 C2925 C 0.89829 0.21818 0.29973
 C2926 C 0.91280 0.22526 0.29248
 C2927 C 0.93935 0.22216 0.27602
 C2928 C 0.94259 0.23946 0.27800
 C2929 C 0.95737 0.24630 0.27110
 C2930 C 0.96881 0.23595 0.26230
 C2931 C 0.96540 0.21865 0.26044
 C2932 C 0.95063 0.21168 0.26723
 C2933 C 0.91644 0.24253 0.29411
 C2934 C 0.93107 0.24952 0.28697
 C2935 C 0.93222 0.18750 0.27250
 C2936 C 0.94694 0.19444 0.26551
 H2937 H 0.90792 0.25071 0.30101
 H2938 H 0.93343 0.26288 0.28856
 H2939 H 0.92987 0.17413 0.27092
 H2940 H 0.95553 0.18623 0.25874
 H2941 H 0.90370 0.17725 0.28734
 H2942 H 0.88964 0.22621 0.30663
 H2943 H 0.96013 0.25960 0.27272
 H2944 H 0.97423 0.21069 0.25365
 C2945 C 0.28520 0.28423 0.57629
 C2946 C 0.27469 0.29312 0.58745
 C2947 C 0.28173 0.30040 0.60196
 C2948 C 0.29910 0.29871 0.60539
 C2949 C 0.30941 0.28969 0.59405
 C2950 C 0.30254 0.28248 0.57945
 C2951 C 0.27792 0.27670 0.56092
 C2952 C 0.28849 0.26803 0.54964
 C2953 C 0.28155 0.26112 0.53493
 C2954 C 0.26420 0.26276 0.53157
 C2955 C 0.25376 0.27145 0.54301
 C2956 C 0.26057 0.27846 0.55774
 C2957 C 0.31268 0.27361 0.56793
 C2958 C 0.30578 0.26653 0.55326
 C2959 C 0.25738 0.29455 0.58386
 C2960 C 0.25043 0.28732 0.56927
 H2961 H 0.32609 0.27218 0.57023
 H2962 H 0.31405 0.25985 0.54466
 H2963 H 0.24912 0.30134 0.59239
 H2964 H 0.23702 0.28875 0.56695
 H2965 H 0.27363 0.30716 0.61065
 H2966 H 0.32282 0.28847 0.59641
 H2967 H 0.28958 0.25443 0.52610
 H2968 H 0.24042 0.27292 0.54030
 C2969 C 0.28317 0.78452 0.07627
 C2970 C 0.28126 0.80182 0.07953
 C2971 C 0.28792 0.80856 0.09446
 C2972 C 0.29662 0.79817 0.10598
 C2973 C 0.29840 0.78083 0.10249
 C2974 C 0.29163 0.77392 0.08768
 C2975 C 0.27630 0.77739 0.06054
 C2976 C 0.27815 0.76007 0.05729
 C2977 C 0.27165 0.75337 0.04229
 C2978 C 0.26338 0.76391 0.03063
 C2979 C 0.26172 0.78124 0.03399
 C2980 C 0.26809 0.78805 0.04899
 C2981 C 0.29319 0.75664 0.08402
 C2982 C 0.28653 0.74983 0.06910
 C2983 C 0.27285 0.81206 0.06774
 C2984 C 0.26641 0.80530 0.05271
 H2985 H 0.29963 0.74832 0.09274
 H2986 H 0.28801 0.73645 0.06675
 H2987 H 0.27131 0.82543 0.07011
 H2988 H 0.26006 0.81364 0.04393
 H2989 H 0.28662 0.82194 0.09690
 H2990 H 0.30491 0.77269 0.11134
 H2991 H 0.27304 0.74004 0.03959
 H2992 H 0.25531 0.78932 0.02499
 C2993 C 0.78340 0.28510 0.07639
 C2994 C 0.79249 0.27462 0.08741
 C2995 C 0.79954 0.28155 0.10207
 C2996 C 0.79742 0.29880 0.10580
 C2997 C 0.78815 0.30909 0.09463
 C2998 C 0.78118 0.30232 0.07987
 C2999 C 0.77615 0.27794 0.06084
 C3000 C 0.76729 0.28850 0.04969
 C3001 C 0.76062 0.28167 0.03482
 C3002 C 0.76266 0.26442 0.03119
 C3003 C 0.77157 0.25400 0.04250
 C3004 C 0.77835 0.26071 0.05737
 C3005 C 0.77214 0.31246 0.06846
 C3006 C 0.76533 0.30566 0.05361
 C3007 C 0.79438 0.25743 0.08352
 C3008 C 0.78740 0.25058 0.06877
 H3009 H 0.77037 0.32577 0.07100
 H3010 H 0.75851 0.31393 0.04511
 H3011 H 0.80133 0.24919 0.09194
 H3012 H 0.78917 0.23727 0.06622
 H3013 H 0.80650 0.27348 0.11064
 H3014 H 0.78659 0.32241 0.09724
 H3015 H 0.75376 0.28968 0.02609
 H3016 H 0.77332 0.24076 0.03959
 C3017 C 0.78387 0.78621 0.57514
 C3018 C 0.78182 0.80352 0.57828
 C3019 C 0.78913 0.81056 0.59276
 C3020 C 0.79857 0.80045 0.60393
 C3021 C 0.80052 0.78312 0.60053
 C3022 C 0.79314 0.77592 0.58618
 C3023 C 0.77625 0.77874 0.55992
 C3024 C 0.77830 0.76142 0.55678
 C3025 C 0.77122 0.75444 0.54218
 C3026 C 0.76221 0.76466 0.53080
 C3027 C 0.76028 0.78199 0.53410
 C3028 C 0.76723 0.78910 0.54871
 C3029 C 0.79484 0.75863 0.58265
 C3030 C 0.78752 0.75150 0.56821
 C3031 C 0.77259 0.81344 0.56685
 C3032 C 0.76544 0.80636 0.55229
 H3033 H 0.80193 0.75055 0.59111
 H3034 H 0.78918 0.73813 0.56592
 H3035 H 0.77093 0.82682 0.56913
 H3036 H 0.75849 0.81447 0.54375
 H3037 H 0.78769 0.82394 0.59515
 H3038 H 0.80759 0.77517 0.60913
 H3039 H 0.77290 0.74113 0.53950
 H3040 H 0.75334 0.78985 0.52531
 C3041 C 0.28245 0.71518 0.42347
 C3042 C 0.29144 0.72566 0.41237
 C3043 C 0.29842 0.71873 0.39767
 C3044 C 0.29635 0.70147 0.39398
 C3045 C 0.28715 0.69119 0.40520
 C3046 C 0.28025 0.69796 0.42000
 C3047 C 0.27532 0.72234 0.43908
 C3048 C 0.26656 0.71179 0.45032
 C3049 C 0.26000 0.71862 0.46525
 C3050 C 0.26206 0.73587 0.46886
 C3051 C 0.27087 0.74627 0.45747
 C3052 C 0.27753 0.73957 0.44254
 C3053 C 0.27131 0.68783 0.43149
 C3054 C 0.26460 0.69463 0.44640
 C3055 C 0.29332 0.74285 0.41624
 C3056 C 0.28645 0.74970 0.43106
 H3057 H 0.26954 0.67452 0.42897
 H3058 H 0.25785 0.68637 0.45495
 H3059 H 0.30019 0.75108 0.40776
 H3060 H 0.28822 0.76301 0.43359
 H3061 H 0.30532 0.72680 0.38906
 H3062 H 0.28563 0.67786 0.40261
 H3063 H 0.25321 0.71063 0.47403
 H3064 H 0.27263 0.75952 0.46037
 C3065 C 0.28401 0.21454 0.92346
 C3066 C 0.28198 0.19726 0.92020
 C3067 C 0.28894 0.19037 0.90546
 C3068 C 0.29808 0.20060 0.89417
 C3069 C 0.30003 0.21792 0.89767
 C3070 C 0.29293 0.22498 0.91226
 C3071 C 0.27678 0.22183 0.93897
 C3072 C 0.27874 0.23914 0.94220
 C3073 C 0.27194 0.24597 0.95703
 C3074 C 0.26337 0.23555 0.96857
 C3075 C 0.26156 0.21824 0.96519
 C3076 C 0.26816 0.21131 0.95033
 C3077 C 0.29458 0.24224 0.91590
 C3078 C 0.28757 0.24922 0.93059
 C3079 C 0.27314 0.18718 0.93180
 C3080 C 0.26639 0.19408 0.94664
 H3081 H 0.30139 0.25044 0.90733
 H3082 H 0.28915 0.26258 0.93293
 H3083 H 0.27151 0.17382 0.92944
 H3084 H 0.25974 0.18585 0.95530
 H3085 H 0.28753 0.17701 0.90298
 H3086 H 0.30689 0.22593 0.88898
 H3087 H 0.27345 0.25928 0.95974
 H3088 H 0.25491 0.21026 0.97410
 C3089 C 0.78389 0.71404 0.92503
 C3090 C 0.78188 0.69673 0.92188
 C3091 C 0.78922 0.68968 0.90741
 C3092 C 0.79866 0.69978 0.89623
 C3093 C 0.80056 0.71712 0.89963
 C3094 C 0.79314 0.72433 0.91397
 C3095 C 0.77627 0.72150 0.94026
 C3096 C 0.77828 0.73882 0.94340
 C3097 C 0.77120 0.74580 0.95802
 C3098 C 0.76223 0.73557 0.96941
 C3099 C 0.76032 0.71825 0.96610
 C3100 C 0.76727 0.71114 0.95147
 C3101 C 0.79481 0.74162 0.91750
 C3102 C 0.78748 0.74874 0.93196
 C3103 C 0.77266 0.68680 0.93332
 C3104 C 0.76550 0.69388 0.94789
 H3105 H 0.80188 0.74970 0.90904
 H3106 H 0.78910 0.76212 0.93424
 H3107 H 0.77103 0.67343 0.93104
 H3108 H 0.75857 0.68577 0.95643
 H3109 H 0.78780 0.67630 0.90502
 H3110 H 0.80762 0.72506 0.89103
 H3111 H 0.77286 0.75911 0.96070
 H3112 H 0.75340 0.71038 0.97490
 C3113 C 0.78319 0.21503 0.42315
 C3114 C 0.78104 0.19781 0.41967
 C3115 C 0.78801 0.19106 0.40489
 C3116 C 0.79723 0.20135 0.39371
 C3117 C 0.79928 0.21861 0.39742
 C3118 C 0.79222 0.22553 0.41209
 C3119 C 0.77597 0.22218 0.43872
 C3120 C 0.77812 0.23941 0.44219
 C3121 C 0.77136 0.24610 0.45710
 C3122 C 0.76254 0.23566 0.46844
 C3123 C 0.76054 0.21842 0.46482
 C3124 C 0.76718 0.21161 0.44991
 C3125 C 0.79405 0.24273 0.41597
 C3126 C 0.78709 0.24956 0.43076
 C3127 C 0.77206 0.18766 0.43111
 C3128 C 0.76528 0.19444 0.44599
 H3129 H 0.80095 0.25097 0.40753
 H3130 H 0.78881 0.26287 0.43330
 H3131 H 0.77034 0.17435 0.42858
 H3132 H 0.75851 0.18616 0.45452
 H3133 H 0.78651 0.17773 0.40230
 H3134 H 0.80620 0.22669 0.38883
 H3135 H 0.77307 0.25935 0.46000
 H3136 H 0.75374 0.21040 0.47356
 C3137 C 0.71709 0.28437 0.42311
 C3138 C 0.71924 0.30159 0.41960
 C3139 C 0.71236 0.30833 0.40477
 C3140 C 0.70322 0.29800 0.39356
 C3141 C 0.70119 0.28074 0.39730
 C3142 C 0.70815 0.27385 0.41204
 C3143 C 0.72421 0.27725 0.43875
 C3144 C 0.72207 0.26002 0.44225
 C3145 C 0.72876 0.25334 0.45719
 C3146 C 0.73753 0.26378 0.46853
 C3147 C 0.73951 0.28104 0.46490
 C3148 C 0.73292 0.28784 0.44996
 C3149 C 0.70633 0.25665 0.41594
 C3150 C 0.71320 0.24985 0.43079
 C3151 C 0.72813 0.31176 0.43106
 C3152 C 0.73484 0.30501 0.44600
 H3153 H 0.69951 0.24839 0.40748
 H3154 H 0.71149 0.23653 0.43334
 H3155 H 0.72987 0.32508 0.42850
 H3156 H 0.74155 0.31329 0.45453
 H3157 H 0.71385 0.32165 0.40214
 H3158 H 0.69434 0.27264 0.38870
 H3159 H 0.72706 0.24009 0.46010
 H3160 H 0.74628 0.28906 0.47365
 C3161 C 0.71573 0.78479 0.92435
 C3162 C 0.70676 0.77429 0.91328
 C3163 C 0.69944 0.78129 0.89875
 C3164 C 0.70116 0.79863 0.89522
 C3165 C 0.71025 0.80894 0.90648
 C3166 C 0.71751 0.80210 0.92108
 C3167 C 0.72331 0.77755 0.93972
 C3168 C 0.73206 0.78812 0.95091
 C3169 C 0.73901 0.78122 0.96564
 C3170 C 0.73730 0.76391 0.96912
 C3171 C 0.72854 0.75346 0.95776
 C3172 C 0.72150 0.76023 0.94301
 C3173 C 0.72646 0.81224 0.93251
 C3174 C 0.73360 0.80537 0.94719
 C3175 C 0.70529 0.75701 0.91697
 C3176 C 0.71256 0.75010 0.93158
 H3177 H 0.72791 0.82563 0.93013
 H3178 H 0.74034 0.81364 0.95571
 H3179 H 0.69843 0.74876 0.90852
 H3180 H 0.71109 0.73672 0.93398
 H3181 H 0.69262 0.77319 0.89014
 H3182 H 0.71150 0.82232 0.90404
 H3183 H 0.74575 0.78925 0.97440
 H3184 H 0.72702 0.74017 0.96057
 C3185 C 0.21680 0.28344 0.92316
 C3186 C 0.21861 0.30076 0.91998
 C3187 C 0.21173 0.30761 0.90519
 C3188 C 0.20290 0.29730 0.89373
 C3189 C 0.20120 0.27994 0.89714
 C3190 C 0.20820 0.27292 0.91182
 C3191 C 0.22392 0.27619 0.93876
 C3192 C 0.22215 0.25885 0.94194
 C3193 C 0.22884 0.25207 0.95686
 C3194 C 0.23715 0.26255 0.96850
 C3195 C 0.23877 0.27989 0.96516
 C3196 C 0.23224 0.28679 0.95025
 C3197 C 0.20675 0.25562 0.91541
 C3198 C 0.21364 0.24869 0.93019
 C3199 C 0.22714 0.31092 0.93171
 C3200 C 0.23381 0.30406 0.94661
 H3201 H 0.20019 0.24736 0.90673
 H3202 H 0.21221 0.23530 0.93249
 H3203 H 0.22860 0.32432 0.92940
 H3204 H 0.24023 0.31235 0.95536
 H3205 H 0.21295 0.32101 0.90281
 H3206 H 0.19459 0.27187 0.88834
 H3207 H 0.22747 0.23872 0.95953
 H3208 H 0.24521 0.28793 0.97414
 C3209 C 0.21676 0.78492 0.42364
 C3210 C 0.20774 0.77446 0.41258
 C3211 C 0.20077 0.78141 0.39787
 C3212 C 0.20289 0.79866 0.39414
 C3213 C 0.21210 0.80892 0.40533
 C3214 C 0.21899 0.80214 0.42014
 C3215 C 0.22391 0.77775 0.43924
 C3216 C 0.23270 0.78828 0.45044
 C3217 C 0.23931 0.78143 0.46535
 C3218 C 0.23726 0.76418 0.46897
 C3219 C 0.22840 0.75379 0.45765
 C3220 C 0.22169 0.76052 0.44273
 C3221 C 0.22796 0.81225 0.43159
 C3222 C 0.23469 0.80544 0.44649
 C3223 C 0.20585 0.75726 0.41647
 C3224 C 0.21273 0.75041 0.43128
 H3225 H 0.22976 0.82556 0.42904
 H3226 H 0.24147 0.81368 0.45501
 H3227 H 0.19897 0.74904 0.40801
 H3228 H 0.21097 0.73709 0.43383
 H3229 H 0.19386 0.77335 0.38927
 H3230 H 0.21366 0.82224 0.40271
 H3231 H 0.24615 0.78941 0.47408
 H3232 H 0.22664 0.74055 0.46056
 C3233 C 0.71580 0.71537 0.57594
 C3234 C 0.70679 0.72586 0.58701
 C3235 C 0.69941 0.71884 0.60150
 C3236 C 0.70112 0.70149 0.60500
 C3237 C 0.71028 0.69119 0.59375
 C3238 C 0.71759 0.69806 0.57919
 C3239 C 0.72341 0.72263 0.56059
 C3240 C 0.73219 0.71208 0.54939
 C3241 C 0.73912 0.71898 0.53466
 C3242 C 0.73737 0.73629 0.53117
 C3243 C 0.72860 0.74673 0.54256
 C3244 C 0.72158 0.73995 0.55731
 C3245 C 0.72660 0.68793 0.56775
 C3246 C 0.73376 0.69482 0.55310
 C3247 C 0.70532 0.74315 0.58335
 C3248 C 0.71261 0.75008 0.56876
 H3249 H 0.72806 0.67454 0.57012
 H3250 H 0.74053 0.68655 0.54457
 H3251 H 0.69845 0.75140 0.59182
 H3252 H 0.71114 0.76347 0.56639
 H3253 H 0.69255 0.72693 0.61011
 H3254 H 0.71152 0.67780 0.59616
 H3255 H 0.74588 0.71095 0.52588
 H3256 H 0.72705 0.76003 0.53976
 C3257 C 0.71747 0.21544 0.07655
 C3258 C 0.70848 0.22592 0.08765
 C3259 C 0.70152 0.21896 0.10236
 C3260 C 0.70361 0.20170 0.10605
 C3261 C 0.71282 0.19143 0.09483
 C3262 C 0.71970 0.19822 0.08001
 C3263 C 0.72458 0.22262 0.06093
 C3264 C 0.73334 0.21209 0.04969
 C3265 C 0.73988 0.21894 0.03475
 C3266 C 0.73781 0.23620 0.03116
 C3267 C 0.72900 0.24659 0.04254
 C3268 C 0.72235 0.23986 0.05747
 C3269 C 0.72865 0.18810 0.06852
 C3270 C 0.73533 0.19491 0.05360
 C3271 C 0.70658 0.24312 0.08379
 C3272 C 0.71342 0.24998 0.06896
 H3273 H 0.73044 0.17478 0.07105
 H3274 H 0.74208 0.18666 0.04505
 H3275 H 0.69971 0.25134 0.09228
 H3276 H 0.71164 0.26330 0.06643
 H3277 H 0.69463 0.22703 0.11098
 H3278 H 0.71436 0.17810 0.09741
 H3279 H 0.74668 0.21096 0.02597
 H3280 H 0.72722 0.25984 0.03965
 C3281 C 0.21704 0.71613 0.07632
 C3282 C 0.21893 0.69880 0.07951
 C3283 C 0.21212 0.69195 0.09433
 C3284 C 0.20329 0.70224 0.10582
 C3285 C 0.20152 0.71960 0.10241
 C3286 C 0.20845 0.72663 0.08771
 C3287 C 0.22408 0.72337 0.06069
 C3288 C 0.22224 0.74072 0.05751
 C3289 C 0.22884 0.74750 0.04255
 C3290 C 0.23712 0.73702 0.03087
 C3291 C 0.23882 0.71968 0.03421
 C3292 C 0.23238 0.71279 0.04916
 C3293 C 0.20693 0.74394 0.08412
 C3294 C 0.21374 0.75087 0.06930
 C3295 C 0.22745 0.68865 0.06773
 C3296 C 0.23403 0.69552 0.05280
 H3297 H 0.20038 0.75219 0.09282
 H3298 H 0.21225 0.76426 0.06699
 H3299 H 0.22896 0.67526 0.07004
 H3300 H 0.24043 0.68724 0.04401
 H3301 H 0.21341 0.67855 0.09671
 H3302 H 0.19491 0.72767 0.11124
 H3303 H 0.22743 0.76085 0.03989
 H3304 H 0.24525 0.71164 0.02520
 C3305 C 0.21553 0.21667 0.57681
 C3306 C 0.19828 0.21877 0.58027
 C3307 C 0.19151 0.21173 0.59502
 C3308 C 0.20183 0.20248 0.60618
 C3309 C 0.21911 0.20047 0.60248
 C3310 C 0.22605 0.20762 0.58784
 C3311 C 0.22269 0.22399 0.56128
 C3312 C 0.23996 0.22193 0.55783
 C3313 C 0.24666 0.22878 0.54297
 C3314 C 0.23619 0.23758 0.53164
 C3315 C 0.21891 0.23950 0.53524
 C3316 C 0.21210 0.23279 0.55011
 C3317 C 0.24328 0.20587 0.58398
 C3318 C 0.25013 0.21294 0.56925
 C3319 C 0.18811 0.22776 0.56886
 C3320 C 0.19490 0.23463 0.55401
 H3321 H 0.25154 0.19896 0.59241
 H3322 H 0.26347 0.21128 0.56673
 H3323 H 0.17477 0.22945 0.57139
 H3324 H 0.18661 0.24141 0.54551
 H3325 H 0.17817 0.21319 0.59761
 H3326 H 0.22719 0.19353 0.61105
 H3327 H 0.25994 0.22714 0.54008
 H3328 H 0.21087 0.24630 0.52650
   
