data_POSCAR
  _audit_creation_date              2014-09-24
  _audit_creation_method            'ToBaCCo'
  _symmetry_space_group_name_H-M    'P1'
  _symmetry_Int_Tables_number       1
  _symmetry_cell_setting            triclinic
  loop_
  _symmetry_equiv_pos_as_xyz
 x,y,z
_cell_length_a 56.7464
_cell_length_b 56.6998
_cell_length_c 56.8091
_cell_angle_alpha 89.987100
_cell_angle_beta 89.982500
_cell_angle_gamma 89.997600
loop_
  _atom_site_label
  _atom_site_type_symbol
  _atom_site_fract_x
  _atom_site_fract_y
  _atom_site_fract_z
C1 C 0.33859 1.36999 0.33846
 C2 C 0.34868 1.37976 0.31812
 C3 C 0.36877 1.36951 0.30803
 C4 C 0.37901 1.34951 0.31830
 C5 C 0.36915 1.33951 0.33863
 C6 C 0.34884 1.34976 0.34878
 C7 C 0.31824 1.37985 0.34847
 C8 C 0.30807 1.36969 0.36856
 C9 C 0.31828 1.34968 0.37887
 C10 C 0.33862 1.33960 0.36908
 C11 C 0.34871 1.31933 0.37900
 C12 C 0.36877 1.30915 0.36884
 C13 C 0.37901 1.31923 0.34879
 H14 H 0.34076 1.39519 0.31002
 H15 H 0.39450 1.34159 0.31034
 H16 H 0.31019 1.39528 0.34051
 H17 H 0.31026 1.34183 0.39434
 H18 H 0.34086 1.31130 0.39446
 H19 H 0.39448 1.31114 0.34100
 C20 C 0.33807 0.86972 0.83904
 C21 C 0.34817 0.87961 0.81875
 C22 C 0.36825 0.86941 0.80863
 C23 C 0.37849 0.84936 0.81878
 C24 C 0.36863 0.83924 0.83905
 C25 C 0.34832 0.84943 0.84925
 C26 C 0.31773 0.87953 0.84909
 C27 C 0.30755 0.86927 0.86913
 C28 C 0.31775 0.84920 0.87933
 C29 C 0.33809 0.83916 0.86949
 C30 C 0.34819 0.81884 0.87931
 C31 C 0.36827 0.80872 0.86910
 C32 C 0.37850 0.81892 0.84910
 H33 H 0.34032 0.89506 0.81069
 H34 H 0.39396 0.84153 0.81074
 H35 H 0.30969 0.89500 0.84121
 H36 H 0.30973 0.84126 0.89476
 H37 H 0.34034 0.81073 0.89473
 H38 H 0.39397 0.81088 0.84127
 C39 C 0.83906 1.36992 0.83806
 C40 C 0.84902 1.37972 0.81767
 C41 C 0.86910 1.36952 0.80750
 C42 C 0.87945 1.34955 0.81774
 C43 C 0.86971 1.33953 0.83812
 C44 C 0.84942 1.34973 0.84834
 C45 C 0.81872 1.37971 0.84816
 C46 C 0.80870 1.36952 0.86829
 C47 C 0.81900 1.34957 0.87856
 C48 C 0.83932 1.33955 0.86870
 C49 C 0.84952 1.31932 0.87859
 C50 C 0.86956 1.30919 0.86836
 C51 C 0.87968 1.31929 0.84825
 H52 H 0.84103 1.39512 0.80960
 H53 H 0.89492 1.34167 0.80972
 H54 H 0.81053 1.39509 0.84028
 H55 H 0.81103 1.34175 0.89407
 H56 H 0.84175 1.31128 0.89409
 H57 H 0.89513 1.31123 0.84040
 C58 C 0.83957 0.86998 0.33836
 C59 C 0.84963 0.87976 0.31802
 C60 C 0.86974 0.86954 0.30793
 C61 C 0.88003 0.84956 0.31821
 C62 C 0.87018 0.83955 0.33855
 C63 C 0.84986 0.84978 0.34869
 C64 C 0.81921 0.87981 0.34835
 C65 C 0.80906 0.86964 0.36842
 C66 C 0.81928 0.84968 0.37875
 C67 C 0.83964 0.83962 0.36899
 C68 C 0.84976 0.81937 0.37894
 C69 C 0.86984 0.80922 0.36880
 C70 C 0.88007 0.81930 0.34874
 H71 H 0.84169 0.89516 0.30991
 H72 H 0.89552 0.84166 0.31025
 H73 H 0.81109 0.89520 0.34042
 H74 H 0.81122 0.84187 0.39422
 H75 H 0.84191 0.81135 0.39440
 H76 H 0.89555 0.81122 0.34096
 C77 C 0.66103 0.63039 0.33792
 C78 C 0.65095 0.62063 0.31759
 C79 C 0.63085 0.63088 0.30751
 C80 C 0.62061 0.65088 0.31779
 C81 C 0.63047 0.66087 0.33811
 C82 C 0.65078 0.65062 0.34824
 C83 C 0.68138 0.62053 0.34792
 C84 C 0.69152 0.63068 0.36799
 C85 C 0.68133 0.65067 0.37830
 C86 C 0.66100 0.66076 0.36854
 C87 C 0.65090 0.68102 0.37848
 C88 C 0.63084 0.69121 0.36835
 C89 C 0.62060 0.68114 0.34829
 H90 H 0.65887 0.60521 0.30948
 H91 H 0.60512 0.65880 0.30984
 H92 H 0.68947 0.60511 0.34001
 H93 H 0.68939 0.65846 0.39377
 H94 H 0.65876 0.68903 0.39394
 H95 H 0.60513 0.68923 0.34052
 C96 C 0.66205 0.13034 0.83856
 C97 C 0.65194 0.12053 0.81825
 C98 C 0.63183 0.13074 0.80821
 C99 C 0.62157 0.15073 0.81846
 C100 C 0.63144 0.16077 0.83875
 C101 C 0.65178 0.15056 0.84887
 C102 C 0.68242 0.12050 0.84854
 C103 C 0.69259 0.13069 0.86860
 C104 C 0.68237 0.15070 0.87890
 C105 C 0.66201 0.16075 0.86913
 C106 C 0.65188 0.18102 0.87907
 C107 C 0.63177 0.19115 0.86894
 C108 C 0.62154 0.18103 0.84891
 H109 H 0.65980 0.10512 0.81011
 H110 H 0.60607 0.15857 0.81048
 H111 H 0.69047 0.10507 0.84059
 H112 H 0.69039 0.15857 0.89436
 H113 H 0.65973 0.18906 0.89451
 H114 H 0.60604 0.18907 0.84114
 C115 C 1.16158 0.63014 0.83914
 C116 C 1.15142 0.62031 0.81888
 C117 C 1.13134 0.63056 0.80883
 C118 C 1.12114 0.65060 0.81903
 C119 C 1.13106 0.66066 0.83929
 C120 C 1.15139 0.65042 0.84941
 C121 C 1.18193 0.62027 0.84911
 C122 C 1.19218 0.63048 0.86912
 C123 C 1.18204 0.65055 0.87938
 C124 C 1.16169 0.66064 0.86963
 C125 C 1.15163 0.68097 0.87951
 C126 C 1.13154 0.69113 0.86938
 C127 C 1.12125 0.68098 0.84940
 H128 H 1.15924 0.60486 0.81077
 H129 H 1.10566 0.65846 0.81104
 H130 H 1.18992 0.60480 0.84118
 H131 H 1.19012 0.65844 0.89480
 H132 H 1.15954 0.68904 0.89491
 H133 H 1.10576 0.68905 0.84163
 C134 C 1.16173 0.13023 0.33818
 C135 C 1.15170 0.12040 0.31784
 C136 C 1.13164 0.13063 0.30767
 C137 C 1.12139 0.15068 0.31786
 C138 C 1.13119 0.16072 0.33818
 C139 C 1.15146 0.15049 0.34841
 C140 C 1.18204 0.12038 0.34827
 C141 C 1.19214 0.13059 0.36836
 C142 C 1.18192 0.15063 0.37858
 C143 C 1.16162 0.16069 0.36870
 C144 C 1.15149 0.18099 0.37855
 C145 C 1.13146 0.19115 0.36832
 C146 C 1.12129 0.18102 0.34826
 H147 H 1.15963 0.10495 0.30981
 H148 H 1.10592 0.15858 0.30984
 H149 H 1.19011 0.10493 0.34038
 H150 H 1.18988 0.15851 0.39406
 H151 H 1.15929 0.18904 0.39402
 H152 H 1.10585 0.18910 0.34041
 C153 C 0.66165 1.36981 0.66117
 C154 C 0.65157 1.37962 0.68150
 C155 C 0.63149 1.36940 0.69159
 C156 C 0.62123 1.34940 0.68139
 C157 C 0.63106 1.33936 0.66107
 C158 C 0.65138 1.34957 0.65090
 C159 C 0.68199 1.37965 0.65114
 C160 C 0.69214 1.36945 0.63107
 C161 C 0.68192 1.34943 0.62080
 C162 C 0.66158 1.33937 0.63062
 C163 C 0.65145 1.31910 0.62072
 C164 C 0.63137 1.30896 0.63090
 C165 C 0.62116 1.31909 0.65095
 H166 H 0.65945 1.39504 0.68961
 H167 H 0.60575 1.34156 0.68941
 H168 H 0.69005 1.39508 0.65907
 H169 H 0.68992 1.34155 0.60533
 H170 H 0.65928 1.31105 0.60527
 H171 H 0.60568 1.31103 0.65876
 C172 C 0.66058 0.87021 1.16161
 C173 C 0.65045 0.87997 1.18192
 C174 C 0.63041 0.86964 1.19203
 C175 C 0.62026 0.84957 1.18179
 C176 C 0.63016 0.83959 1.16147
 C177 C 0.65042 0.84992 1.15132
 C178 C 0.68089 0.88014 1.15160
 C179 C 0.69110 0.86999 1.13156
 C180 C 0.68101 0.84995 1.12127
 C181 C 0.66071 0.83978 1.13104
 C182 C 0.65071 0.81945 1.12112
 C183 C 0.63068 0.80920 1.13128
 C184 C 0.62040 0.81926 1.15132
 H185 H 0.65830 0.89544 1.19000
 H186 H 0.60481 0.84159 1.18976
 H187 H 0.68891 0.89559 1.15950
 H188 H 0.68912 0.84216 1.10583
 H189 H 0.65861 0.81146 1.10568
 H190 H 0.60496 0.81111 1.15912
 C191 C 1.16102 1.37067 1.16039
 C192 C 1.15092 1.38052 1.18068
 C193 C 1.13084 1.37031 1.19077
 C194 C 1.12058 1.35029 1.18059
 C195 C 1.13044 1.34021 1.16032
 C196 C 1.15077 1.35040 1.15015
 C197 C 1.18139 1.38047 1.15040
 C198 C 1.19161 1.37020 1.13040
 C199 C 1.18141 1.35016 1.12015
 C200 C 1.16103 1.34014 1.12993
 C201 C 1.15094 1.31982 1.12008
 C202 C 1.13085 1.30970 1.13026
 C203 C 1.12059 1.31989 1.15024
 H204 H 1.15879 1.39595 1.18878
 H205 H 1.10511 1.34245 1.18863
 H206 H 1.18944 1.39591 1.15832
 H207 H 1.18947 1.34223 1.10474
 H208 H 1.15883 1.31172 1.10468
 H209 H 1.10511 1.31184 1.15806
 C210 C 1.16166 0.86990 0.66098
 C211 C 1.15153 0.87982 0.68122
 C212 C 1.13144 0.86964 0.69133
 C213 C 1.12121 0.84958 0.68120
 C214 C 1.13110 0.83943 0.66098
 C215 C 1.15143 0.84960 0.65080
 C216 C 1.18203 0.87969 0.65096
 C217 C 1.19225 0.86938 0.63099
 C218 C 1.18208 0.84929 0.62081
 C219 C 1.16171 0.83928 0.63061
 C220 C 1.15162 0.81893 0.62082
 C221 C 1.13152 0.80884 0.63101
 C222 C 1.12125 0.81909 0.65096
 H223 H 1.15938 0.89528 0.68927
 H224 H 1.10572 0.84177 0.68924
 H225 H 1.19005 0.89518 0.65883
 H226 H 1.19014 0.84132 0.60542
 H227 H 1.15951 0.81078 0.60545
 H228 H 1.10575 0.81107 0.65878
 C229 C 0.34022 0.62887 0.66001
 C230 C 0.35023 0.61897 0.68030
 C231 C 0.37024 0.62917 0.69051
 C232 C 0.38053 0.64923 0.68043
 C233 C 0.37076 0.65937 0.66014
 C234 C 0.35049 0.64918 0.64986
 C235 C 0.31990 0.61909 0.64991
 C236 C 0.30977 0.62942 0.62994
 C237 C 0.31997 0.64949 0.61977
 C238 C 0.34030 0.65950 0.62963
 C239 C 0.35039 0.67987 0.61990
 C240 C 0.37041 0.69000 0.63018
 C241 C 0.38062 0.67975 0.65017
 H242 H 0.34233 0.60351 0.68833
 H243 H 0.39594 0.65708 0.68857
 H244 H 0.31178 0.60364 0.65772
 H245 H 0.31190 0.65743 0.60438
 H246 H 0.34255 0.68803 0.60450
 H247 H 0.39604 0.68780 0.65807
 C248 C 0.33947 0.12944 1.16145
 C249 C 0.34940 0.11956 1.18180
 C250 C 0.36941 0.12977 1.19208
 C251 C 0.37973 0.14983 1.18197
 C252 C 0.37002 0.15993 1.16163
 C253 C 0.34979 0.14972 1.15130
 C254 C 0.31918 0.11964 1.15128
 C255 C 0.30916 0.12992 1.13122
 C256 C 0.31941 0.14996 1.12107
 C257 C 0.33969 0.15999 1.13100
 C258 C 0.34983 0.18032 1.12124
 C259 C 0.36982 0.19046 1.13157
 C260 C 0.37993 0.18027 1.15163
 H261 H 0.34143 0.10410 1.18978
 H262 H 0.39514 0.15772 1.19008
 H263 H 0.31103 0.10419 1.15907
 H264 H 0.31143 0.15786 1.10561
 H265 H 0.34206 0.18843 1.10579
 H266 H 0.39534 0.18833 1.15956
 C267 C 0.83984 0.62946 1.16026
 C268 C 0.84992 0.61959 1.18054
 C269 C 0.86997 0.62982 1.19067
 C270 C 0.88021 0.64987 1.18053
 C271 C 0.87036 0.65997 1.16026
 C272 C 0.85007 0.64976 1.15005
 C273 C 0.81950 0.61965 1.15023
 C274 C 0.80932 0.62994 1.13025
 C275 C 0.81948 0.65000 1.12004
 C276 C 0.83983 0.66004 1.12984
 C277 C 0.84988 0.68040 1.12004
 C278 C 0.86993 0.69055 1.13026
 C279 C 0.88019 0.68033 1.15023
 H280 H 0.84206 0.60414 1.18861
 H281 H 0.89565 0.65773 1.18859
 H282 H 0.81141 0.60419 1.15807
 H283 H 0.81138 0.65791 1.10465
 H284 H 0.84200 0.68853 1.10465
 H285 H 0.89564 0.68840 1.15808
 C286 C 0.83747 0.13065 0.66238
 C287 C 0.84750 0.12079 0.68271
 C288 C 0.86760 0.13098 0.69285
 C289 C 0.87788 0.15102 0.68265
 C290 C 0.86807 0.16109 0.66234
 C291 C 0.84777 0.15090 0.65214
 C292 C 0.81714 0.12082 0.65229
 C293 C 0.80706 0.13103 0.63218
 C294 C 0.81732 0.15107 0.62197
 C295 C 0.83762 0.16111 0.63184
 C296 C 0.84780 0.18138 0.62195
 C297 C 0.86787 0.19149 0.63215
 C298 C 0.87801 0.18136 0.65222
 H299 H 0.83958 0.10534 0.69074
 H300 H 0.89337 0.15888 0.69064
 H301 H 0.80907 0.10537 0.66017
 H302 H 0.80938 0.15895 0.60647
 H303 H 0.84001 0.18942 0.60647
 H304 H 0.89349 0.18939 0.66004
 C305 C 1.36941 0.33774 0.66246
 C306 C 1.37915 0.34772 0.68287
 C307 C 1.36890 0.36778 0.69305
 C308 C 1.34891 0.37808 0.68282
 C309 C 1.33895 0.36832 0.66242
 C310 C 1.34921 0.34806 0.65218
 C311 C 1.37930 0.31744 0.65234
 C312 C 1.36919 0.30740 0.63217
 C313 C 1.34921 0.31768 0.62191
 C314 C 1.33911 0.33796 0.63180
 C315 C 1.31889 0.34813 0.62188
 C316 C 1.30869 0.36815 0.63212
 C317 C 1.31872 0.37826 0.65227
 H318 H 1.39456 0.33976 0.69093
 H319 H 1.34100 0.39354 0.69084
 H320 H 1.39471 0.30934 0.66026
 H321 H 1.34141 0.30977 0.60636
 H322 H 1.31092 0.34037 0.60635
 H323 H 1.31062 0.39370 0.66012
 C324 C 1.36989 0.83817 1.16069
 C325 C 1.37974 0.84819 1.18101
 C326 C 1.36955 0.86826 1.19117
 C327 C 1.34955 0.87856 1.18103
 C328 C 1.33947 0.86878 1.16071
 C329 C 1.34965 0.84847 1.15047
 C330 C 1.37970 0.81782 1.15061
 C331 C 1.36946 0.80771 1.13055
 C332 C 1.34943 0.81797 1.12034
 C333 C 1.33941 0.83831 1.13020
 C334 C 1.31913 0.84847 1.12037
 C335 C 1.30902 0.86854 1.13062
 C336 C 1.31919 0.87870 1.15066
 H337 H 1.39516 0.84029 1.18908
 H338 H 1.34172 0.89403 1.18910
 H339 H 1.39513 0.80974 1.15849
 H340 H 1.34152 0.80998 1.10488
 H341 H 1.31104 0.84066 1.10493
 H342 H 1.31116 0.89417 1.15853
 C343 C 0.86990 0.33862 1.16097
 C344 C 0.87969 0.34871 1.18128
 C345 C 0.86943 0.36877 1.19139
 C346 C 0.84941 0.37900 1.18121
 C347 C 0.83938 0.36914 1.16091
 C348 C 0.84963 0.34884 1.15072
 C349 C 0.87977 0.31828 1.15093
 C350 C 0.86959 0.30810 1.13088
 C351 C 0.84954 0.31828 1.12063
 C352 C 0.83945 0.33861 1.13045
 C353 C 0.81914 0.34869 1.12058
 C354 C 0.80897 0.36874 1.13078
 C355 C 0.81908 0.37898 1.15081
 H356 H 0.89512 0.34087 1.18937
 H357 H 0.84154 0.39446 1.18925
 H358 H 0.89522 0.31026 1.15884
 H359 H 0.84168 0.31025 1.10517
 H360 H 0.81110 0.34083 1.10514
 H361 H 0.81100 0.39444 1.15864
 C362 C 0.86999 0.83973 0.66055
 C363 C 0.87975 0.84975 0.68091
 C364 C 0.86951 0.86981 0.69105
 C365 C 0.84954 0.88011 0.68083
 C366 C 0.83955 0.87032 0.66047
 C367 C 0.84979 0.85003 0.65026
 C368 C 0.87983 0.81939 0.65051
 C369 C 0.86967 0.80928 0.63043
 C370 C 0.84971 0.81951 0.62013
 C371 C 0.83964 0.83985 0.62994
 C372 C 0.81938 0.84998 0.62005
 C373 C 0.80921 0.87002 0.63026
 C374 C 0.81929 0.88021 0.65034
 H375 H 0.89514 0.84184 0.68903
 H376 H 0.84168 0.89556 0.68889
 H377 H 0.89521 0.81125 0.65842
 H378 H 0.84190 0.81147 0.60467
 H379 H 0.81136 0.84215 0.60458
 H380 H 0.81119 0.89566 0.65818
 C381 C 0.62967 0.66038 0.66054
 C382 C 0.61976 0.65037 0.68084
 C383 C 0.62994 0.63034 0.69106
 C384 C 0.64999 0.62004 0.68100
 C385 C 0.66013 0.62981 0.66070
 C386 C 0.64997 0.65009 0.65040
 C387 C 0.61990 0.68072 0.65040
 C388 C 0.63022 0.69082 0.63040
 C389 C 0.65028 0.68060 0.62026
 C390 C 0.66028 0.66026 0.63016
 C391 C 0.68062 0.65014 0.62042
 C392 C 0.69072 0.63009 0.63073
 C393 C 0.68048 0.61991 0.65073
 H394 H 0.60431 0.65828 0.68884
 H395 H 0.65780 0.60460 0.68914
 H396 H 0.60445 0.68885 0.65818
 H397 H 0.65820 0.68863 0.60484
 H398 H 0.68876 0.65796 0.60501
 H399 H 0.68851 0.60447 0.65865
 C400 C 0.62979 1.16113 1.16054
 C401 C 0.61986 1.15096 1.18075
 C402 C 0.63004 1.13085 1.19085
 C403 C 0.65010 1.12064 1.18074
 C404 C 0.66027 1.13057 1.16052
 C405 C 0.65010 1.15093 1.15036
 C406 C 0.62001 1.18153 1.15055
 C407 C 0.63033 1.19181 1.13062
 C408 C 0.65043 1.18166 1.12043
 C409 C 0.66043 1.16126 1.13021
 C410 C 0.68080 1.15121 1.12043
 C411 C 0.69089 1.13109 1.13059
 C412 C 0.68062 1.12075 1.15051
 H413 H 0.60440 1.15880 1.18880
 H414 H 0.65791 1.10514 1.18877
 H415 H 0.60452 1.18953 1.15843
 H416 H 0.65841 1.18977 1.10507
 H417 H 0.68895 1.15914 1.10508
 H418 H 0.68865 1.10525 1.15832
 C419 C 0.13062 0.66220 1.16236
 C420 C 0.12078 0.65215 1.18268
 C421 C 0.13095 0.63201 1.19280
 C422 C 0.15093 0.62170 1.18257
 C423 C 0.16099 0.63153 1.16226
 C424 C 0.15083 0.65189 1.15209
 C425 C 0.12082 0.68258 1.15231
 C426 C 0.13102 0.69271 1.13223
 C427 C 0.15102 0.68244 1.12197
 C428 C 0.16104 0.66207 1.13180
 C429 C 0.18128 0.65189 1.12190
 C430 C 0.19137 0.63177 1.13207
 C431 C 0.18123 0.62159 1.15212
 H432 H 0.10538 0.66010 1.19075
 H433 H 0.15878 0.60618 1.19055
 H434 H 0.10540 0.69066 1.16023
 H435 H 0.15890 0.69042 1.10649
 H436 H 0.18934 0.65971 1.10643
 H437 H 0.18924 0.60608 1.15993
 C438 C 0.12947 1.16003 0.66119
 C439 C 0.11966 1.15006 0.68156
 C440 C 0.12986 1.12999 0.69177
 C441 C 0.14985 1.11966 0.68158
 C442 C 0.15989 1.12941 0.66122
 C443 C 0.14969 1.14969 0.65096
 C444 C 0.11967 1.18037 0.65108
 C445 C 0.12989 1.19043 0.63099
 C446 C 0.14987 1.18015 0.62076
 C447 C 0.15990 1.15983 0.63064
 C448 C 0.18017 1.14967 0.62081
 C449 C 0.19030 1.12963 0.63108
 C450 C 0.18016 1.11948 0.65115
 H451 H 0.10425 1.15805 0.68961
 H452 H 0.15774 1.10420 0.68964
 H453 H 0.10428 1.18854 0.65893
 H454 H 0.15772 1.18815 0.60529
 H455 H 0.18823 1.15746 0.60534
 H456 H 0.18823 1.10403 0.65903
 C457 C 1.36965 0.66170 0.33807
 C458 C 1.37945 0.65162 0.31774
 C459 C 1.36921 0.63154 0.30760
 C460 C 1.34918 0.62130 0.31782
 C461 C 1.33916 0.63115 0.33814
 C462 C 1.34941 0.65144 0.34833
 C463 C 1.37953 0.68203 0.34813
 C464 C 1.36935 0.69217 0.36822
 C465 C 1.34931 0.68196 0.37846
 C466 C 1.33923 0.66165 0.36862
 C467 C 1.31895 0.65154 0.37851
 C468 C 1.30878 0.63148 0.36832
 C469 C 1.31888 0.62127 0.34826
 H470 H 1.39490 0.65953 0.30968
 H471 H 1.34127 0.60582 0.30983
 H472 H 1.39497 0.69007 0.34022
 H473 H 1.34145 0.68995 0.39395
 H474 H 1.31092 0.65937 0.39397
 H475 H 1.31080 0.60581 0.34044
 C476 C 1.37002 1.16130 0.83924
 C477 C 1.37979 1.15128 0.81888
 C478 C 1.36951 1.13126 0.80870
 C479 C 1.34949 1.12101 0.81887
 C480 C 1.33949 1.13080 0.83923
 C481 C 1.34977 1.15105 0.84949
 C482 C 1.37992 1.18159 0.84934
 C483 C 1.36975 1.19170 0.86945
 C484 C 1.34972 1.18149 0.87969
 C485 C 1.33961 1.16121 0.86981
 C486 C 1.31930 1.15111 0.87966
 C487 C 1.30910 1.13111 0.86940
 C488 C 1.31919 1.12094 0.84932
 H489 H 1.39522 1.15915 0.81079
 H490 H 1.34160 1.10559 0.81079
 H491 H 1.39536 1.18965 0.84144
 H492 H 1.34186 1.18947 0.89518
 H493 H 1.31128 1.15892 0.89514
 H494 H 1.31108 1.10552 0.84144
 C495 C 0.87007 0.66043 0.83966
 C496 C 0.87991 0.65036 0.81935
 C497 C 0.86962 0.63037 0.80914
 C498 C 0.84951 0.62019 0.81923
 C499 C 0.83944 0.63003 0.83954
 C500 C 0.84973 0.65025 0.84982
 C501 C 0.87997 0.68070 0.84977
 C502 C 0.86973 0.69086 0.86979
 C503 C 0.84963 0.68075 0.87996
 C504 C 0.83951 0.66047 0.87007
 C505 C 0.81912 0.65046 0.87985
 C506 C 0.80890 0.63048 0.86957
 C507 C 0.81906 0.62024 0.84954
 H508 H 0.89540 0.65818 0.81133
 H509 H 0.84161 0.60479 0.81112
 H510 H 0.89545 0.68875 0.84197
 H511 H 0.84177 0.68883 0.89538
 H512 H 0.81105 0.65832 0.89528
 H513 H 0.81093 0.60484 0.84165
 C514 C 0.87010 1.16040 0.33865
 C515 C 0.87992 1.15035 0.31833
 C516 C 0.86962 1.13035 0.30811
 C517 C 0.84952 1.12016 0.31823
 C518 C 0.83948 1.12999 0.33856
 C519 C 0.84978 1.15021 0.34883
 C520 C 0.88001 1.18068 0.34877
 C521 C 0.86980 1.19082 0.36880
 C522 C 0.84971 1.18071 0.37898
 C523 C 0.83958 1.16044 0.36911
 C524 C 0.81921 1.15042 0.37890
 C525 C 0.80898 1.13044 0.36863
 C526 C 0.81911 1.12021 0.34859
 H527 H 0.89541 1.15823 0.31034
 H528 H 0.84156 1.10475 0.31017
 H529 H 0.89548 1.18872 0.34095
 H530 H 0.84187 1.18878 0.39442
 H531 H 0.81116 1.15827 0.39435
 H532 H 0.81097 1.10481 0.34070
 C533 C 0.63011 0.33978 0.33867
 C534 C 0.62037 0.34984 0.31832
 C535 C 0.63067 0.36989 0.30816
 C536 C 0.65069 0.38011 0.31839
 C537 C 0.66066 0.37026 0.33875
 C538 C 0.65036 0.35000 0.34895
 C539 C 0.62021 0.31946 0.34872
 C540 C 0.63034 0.30931 0.36880
 C541 C 0.65035 0.31946 0.37908
 C542 C 0.66048 0.33977 0.36926
 C543 C 0.68077 0.34982 0.37916
 C544 C 0.69101 0.36984 0.36895
 C545 C 0.68095 0.38008 0.34888
 H546 H 0.60494 0.34194 0.31025
 H547 H 0.65865 0.39556 0.31039
 H548 H 0.60479 0.31139 0.34083
 H549 H 0.65813 0.31139 0.39455
 H550 H 0.68877 0.34196 0.39462
 H551 H 0.68909 0.39551 0.34104
 C552 C 0.63011 0.83992 0.83932
 C553 C 0.62036 0.84997 0.81897
 C554 C 0.63062 0.87003 0.80884
 C555 C 0.65061 0.88029 0.81906
 C556 C 0.66060 0.87046 0.83940
 C557 C 0.65034 0.85017 0.84960
 C558 C 0.62025 0.81958 0.84936
 C559 C 0.63041 0.80943 0.86943
 C560 C 0.65040 0.81962 0.87972
 C561 C 0.66049 0.83996 0.86990
 C562 C 0.68077 0.85005 0.87979
 C563 C 0.69096 0.87010 0.86958
 C564 C 0.68087 0.88032 0.84952
 H565 H 0.60496 0.84209 0.81085
 H566 H 0.65849 0.89574 0.81100
 H567 H 0.60485 0.81148 0.84146
 H568 H 0.65819 0.81155 0.89518
 H569 H 0.68879 0.84220 0.89524
 H570 H 0.68898 0.89577 0.84169
 C571 C 0.13009 0.33851 0.83903
 C572 C 0.12032 0.34859 0.81870
 C573 C 0.13058 0.36866 0.80860
 C574 C 0.15056 0.37891 0.81881
 C575 C 0.16056 0.36907 0.83914
 C576 C 0.15031 0.34876 0.84932
 C577 C 0.12022 0.31815 0.84905
 C578 C 0.13038 0.30798 0.86912
 C579 C 0.15039 0.31818 0.87940
 C580 C 0.16047 0.33853 0.86960
 C581 C 0.18074 0.34863 0.87950
 C582 C 0.19092 0.36869 0.86933
 C583 C 0.18083 0.37893 0.84927
 H584 H 0.10492 0.34072 0.81057
 H585 H 0.15843 0.39438 0.81078
 H586 H 0.10480 0.31011 0.84110
 H587 H 0.15824 0.31015 0.89487
 H588 H 0.18876 0.34077 0.89496
 H589 H 0.18892 0.39440 0.84146
 C590 C 0.13010 0.83865 0.33837
 C591 C 0.12032 0.84873 0.31803
 C592 C 0.13057 0.86882 0.30790
 C593 C 0.15058 0.87906 0.31813
 C594 C 0.16058 0.86921 0.33845
 C595 C 0.15033 0.84890 0.34864
 C596 C 0.12022 0.81831 0.34842
 C597 C 0.13039 0.80816 0.36851
 C598 C 0.15040 0.81837 0.37877
 C599 C 0.16049 0.83869 0.36893
 C600 C 0.18076 0.84880 0.37883
 C601 C 0.19093 0.86886 0.36864
 C602 C 0.18085 0.87908 0.34859
 H603 H 0.10489 0.84082 0.30997
 H604 H 0.15849 0.89455 0.31014
 H605 H 0.10479 0.81026 0.34050
 H606 H 0.15826 0.81037 0.39425
 H607 H 0.18877 0.84095 0.39430
 H608 H 0.18894 0.89455 0.34077
 O609 O 1.08502 1.02325 1.11785
 O610 O 1.11248 1.02334 1.14531
 C611 C 1.09331 1.03138 1.13696
 C612 C 1.08082 1.05077 1.14921
 C613 C 1.08876 1.05903 1.17113
 H614 H 1.10388 1.05082 1.17940
 O615 O 0.91520 0.97746 1.11764
 O616 O 0.88778 0.97747 1.14516
 C617 C 0.90693 0.96939 1.13679
 C618 C 0.91940 0.95001 1.14909
 C619 C 0.91143 0.94185 1.17103
 H620 H 0.89669 0.95051 1.17952
 O621 O 1.02318 1.11778 1.08506
 O622 O 1.02322 1.14549 1.11230
 C623 C 1.03124 1.13703 1.09319
 C624 C 1.05051 1.14931 1.08055
 C625 C 1.05873 1.17135 1.08832
 H626 H 1.05060 1.17967 1.10344
 O627 O 0.97724 0.88281 1.08538
 O628 O 0.97712 0.85518 1.11271
 C629 C 0.96915 0.86360 1.09357
 C630 C 0.94987 0.85131 1.08097
 C631 C 0.94171 0.82924 1.08872
 H632 H 0.94990 0.82089 1.10379
 O633 O 1.11727 1.08498 1.02294
 O634 O 1.14486 1.11236 1.02290
 C635 C 1.13646 1.09322 1.03098
 C636 C 1.14876 1.08073 1.05031
 C637 C 1.17081 1.08859 1.05832
 H638 H 1.17936 1.10327 1.04960
 O639 O 0.88283 0.91552 1.02334
 O640 O 0.85525 0.88811 1.02339
 C641 C 0.86363 0.90728 1.03140
 C642 C 0.85130 0.91981 1.05068
 C643 C 0.82930 0.91190 1.05880
 H644 H 0.82079 0.89715 1.05017
 O645 O 0.97725 1.08560 1.11745
 O646 O 0.97723 1.11314 1.14486
 C647 C 0.96921 1.09392 1.13659
 C648 C 0.94994 1.08140 1.14899
 C649 C 0.94186 1.08933 1.17098
 H650 H 0.95049 1.10411 1.17943
 O651 O 1.02313 0.91506 1.11774
 O652 O 1.02307 0.88758 1.14522
 C653 C 1.03113 0.90677 1.13691
 C654 C 1.05042 0.91927 1.14928
 C655 C 1.05861 0.91121 1.17117
 H656 H 1.05002 0.89637 1.17958
 O657 O 1.11722 0.97718 1.08561
 O658 O 1.14483 0.97723 1.11292
 C659 C 1.13645 0.96918 1.09380
 C660 C 1.14884 0.94993 1.08123
 C661 C 1.17085 0.94181 1.08913
 H662 H 1.17930 0.95039 1.10392
 O663 O 0.88291 1.02349 1.08544
 O664 O 0.85535 1.02357 1.11282
 C665 C 0.86371 1.03156 1.09365
 C666 C 0.85134 1.05078 1.08101
 C667 C 0.82934 1.05900 1.08886
 H668 H 0.82111 1.05092 1.10406
 O669 O 0.91510 1.11754 1.02297
 O670 O 0.88768 1.14511 1.02297
 C671 C 0.90684 1.13675 1.03100
 C672 C 0.91934 1.14912 1.05028
 C673 C 0.91134 1.17111 1.05840
 H674 H 0.89655 1.17956 1.04980
 O675 O 1.08535 0.88287 1.02342
 O676 O 1.11281 0.85536 1.02346
 C677 C 1.09365 0.86370 1.03150
 C678 C 1.08117 0.85136 1.05084
 C679 C 1.08922 0.82944 1.05909
 H680 H 1.10405 0.82099 1.05055
 O681 O 0.91516 1.02350 1.11770
 O682 O 0.88776 1.02356 1.14524
 C683 C 0.90692 1.03158 1.13687
 C684 C 0.91950 1.05088 1.14916
 C685 C 0.91165 1.05908 1.17114
 H686 H 0.89653 1.05089 1.17942
 O687 O 1.08507 0.97720 1.11798
 O688 O 1.11252 0.97722 1.14545
 C689 C 1.09336 0.96915 1.13713
 C690 C 1.08086 0.94979 1.14944
 C691 C 1.08883 0.94144 1.17133
 H692 H 1.10402 0.94957 1.17956
 O693 O 1.02324 0.88278 1.08550
 O694 O 1.02318 0.85516 1.11284
 C695 C 1.03128 0.86356 1.09374
 C696 C 1.05065 0.85126 1.08125
 C697 C 1.05898 0.82934 1.08926
 H698 H 1.05085 0.82113 1.10444
 O699 O 0.97720 1.11779 1.08511
 O700 O 0.97718 1.14548 1.11236
 C701 C 0.96913 1.13702 1.09327
 C702 C 0.94981 1.14929 1.08070
 C703 C 0.94153 1.17127 1.08859
 H704 H 0.94966 1.17955 1.10373
 O705 O 0.88283 1.08524 1.02297
 O706 O 0.85529 1.11268 1.02297
 C707 C 0.86365 1.09352 1.03102
 C708 C 0.85134 1.08105 1.05036
 C709 C 0.82933 1.08899 1.05843
 H710 H 0.82081 1.10369 1.04972
 O711 O 1.11755 0.91525 1.02331
 O712 O 1.14515 0.88787 1.02333
 C713 C 1.13675 0.90703 1.03136
 C714 C 1.14904 0.91959 1.05065
 C715 C 1.17104 0.91171 1.05883
 H716 H 1.17933 0.89659 1.05061
 O717 O 0.97717 0.91506 1.11765
 O718 O 0.97704 0.88760 1.14514
 C719 C 0.96905 0.90680 1.13680
 C720 C 0.94977 0.91940 1.14911
 C721 C 0.94151 0.91147 1.17105
 H722 H 0.94961 0.89626 1.17927
 O723 O 1.02320 1.08564 1.11746
 O724 O 1.02325 1.11319 1.14486
 C725 C 1.03126 1.09397 1.13660
 C726 C 1.05052 1.08143 1.14899
 C727 C 1.05870 1.08942 1.17092
 H728 H 1.05016 1.10429 1.17933
 O729 O 0.88286 0.97752 1.08551
 O730 O 0.85529 0.97753 1.11288
 C731 C 0.86365 0.96949 1.09374
 C732 C 0.85128 0.95024 1.08117
 C733 C 0.82929 0.94205 1.08906
 H734 H 0.82106 0.95020 1.10422
 O735 O 1.11717 1.02316 1.08550
 O736 O 1.14479 1.02327 1.11280
 C737 C 1.13639 1.03123 1.09364
 C738 C 1.14874 1.05043 1.08095
 C739 C 1.17079 1.05857 1.08872
 H740 H 1.17903 1.05045 1.10389
 O741 O 0.91511 0.88321 1.02335
 O742 O 0.88765 0.85568 1.02339
 C743 C 0.90684 0.86401 1.03138
 C744 C 0.91938 0.85157 1.05058
 C745 C 0.91149 0.82950 1.05856
 H746 H 0.89674 0.82104 1.04990
 O747 O 1.08515 1.11744 1.02284
 O748 O 1.11262 1.14495 1.02280
 C749 C 1.09343 1.13664 1.03083
 C750 C 1.08093 1.14908 1.05007
 C751 C 1.08887 1.17112 1.05807
 H752 H 1.10363 1.17958 1.04939
 Cu753 Cu 1.09836 1.00019 1.09902
 Cu754 Cu 1.13142 1.00027 1.13188
 Cu755 Cu 0.90178 1.00050 1.09884
 Cu756 Cu 0.86879 1.00054 1.13179
 Cu757 Cu 1.00021 1.09895 1.09854
 Cu758 Cu 1.00022 1.13210 1.13134
 Cu759 Cu 1.00020 0.90167 1.09882
 Cu760 Cu 1.00009 0.86861 1.13173
 C761 C 1.06156 1.06195 1.13841
 H762 H 1.05556 1.05589 1.12135
 C763 C 1.07781 1.07835 1.18213
 C764 C 0.93872 0.93881 1.13839
 H765 H 0.94476 0.94481 1.12132
 C766 C 0.92234 0.92258 1.18214
 C767 C 1.06160 1.13844 1.06128
 H768 H 1.05558 1.12129 1.05540
 C769 C 1.07791 1.18239 1.07719
 C770 C 0.93872 0.86222 1.06175
 H771 H 0.94469 0.87939 1.05589
 C772 C 0.92252 0.81820 1.07763
 C773 C 1.13798 1.06149 1.06160
 H774 H 1.12083 1.05554 1.05571
 C775 C 1.18196 1.07764 1.07752
 C776 C 0.86203 0.93913 1.06184
 H777 H 0.87915 0.94512 1.05588
 C778 C 0.81816 0.92288 1.07799
 C779 C 0.93879 1.06203 1.13835
 H780 H 0.94472 1.05603 1.12124
 C781 C 0.92273 1.07829 1.18219
 C782 C 1.06151 0.93871 1.13868
 H783 H 1.05548 0.94481 1.12165
 C784 C 1.07783 0.92214 1.18232
 C785 C 1.13820 0.93884 1.06184
 H786 H 1.12108 0.94480 1.05586
 C787 C 1.18208 0.92270 1.07806
 C788 C 0.86208 1.06180 1.06162
 H789 H 0.87920 1.05579 1.05568
 C790 C 0.81821 1.07811 1.07768
 C791 C 0.93872 1.13848 1.06140
 H792 H 0.94478 1.12138 1.05543
 C793 C 0.92230 1.18231 1.07756
 C794 C 1.06174 0.86201 1.06190
 H795 H 1.05564 0.87906 1.05583
 C796 C 1.07826 0.81830 1.07831
 O797 O 1.08496 0.97703 0.88263
 O798 O 1.11236 0.97697 0.85509
 C799 C 1.09321 0.96895 0.86347
 C800 C 1.08065 0.94964 0.85119
 C801 C 1.08849 0.94146 0.82920
 H802 H 1.10359 0.94968 0.82090
 O803 O 0.91502 1.02328 0.88241
 O804 O 0.88758 1.02319 0.85493
 C805 C 0.90672 1.03130 0.86325
 C806 C 0.91919 1.05066 0.85091
 C807 C 0.91114 1.05897 0.82904
 H808 H 0.89595 1.05081 0.82087
 O809 O 0.97704 1.11756 0.91485
 O810 O 0.97707 1.14521 0.88753
 C811 C 0.96904 1.13681 0.90666
 C812 C 0.94980 1.14918 0.91925
 C813 C 0.94162 1.17119 0.91138
 H814 H 0.94977 1.17943 0.89622
 O815 O 1.02317 0.88262 0.91536
 O816 O 1.02317 0.85495 0.88810
 C817 C 1.03123 0.86339 0.90718
 C818 C 1.05056 0.85111 0.91974
 C819 C 1.05886 0.82913 0.91184
 H820 H 1.05075 0.82086 0.89669
 O821 O 1.11755 0.91512 0.97734
 O822 O 1.14514 0.88774 0.97732
 C823 C 1.13672 0.90687 0.96925
 C824 C 1.14896 0.91935 0.94985
 C825 C 1.17088 0.91137 0.94153
 H826 H 1.17917 0.89623 0.94970
 O827 O 0.88281 1.08527 0.97700
 O828 O 0.85528 1.11272 0.97698
 C829 C 0.86364 1.09356 0.96894
 C830 C 0.85133 1.08108 0.94960
 C831 C 0.82938 1.08908 0.94141
 H832 H 0.82089 1.10386 0.95001
 O833 O 1.02290 1.08518 0.88259
 O834 O 1.02299 1.11266 0.85511
 C835 C 1.03097 1.09344 0.86344
 C836 C 1.05023 1.08088 0.85110
 C837 C 1.05833 1.08878 0.82911
 H838 H 1.04969 1.10354 0.82062
 O839 O 0.97713 0.91485 0.88313
 O840 O 0.97707 0.88732 0.85571
 C841 C 0.96906 0.90654 0.86399
 C842 C 0.94981 0.91909 0.85160
 C843 C 0.94175 0.91117 0.82960
 H844 H 0.95037 0.89636 0.82117
 O845 O 1.11721 1.02302 0.91484
 O846 O 1.14477 1.02301 0.88746
 C847 C 1.13642 1.03104 0.90661
 C848 C 1.14880 1.05029 0.91914
 C849 C 1.17081 1.05839 0.91123
 H850 H 1.17927 1.04978 0.89645
 O851 O 0.88287 0.97737 0.91491
 O852 O 0.85527 0.97721 0.88758
 C853 C 0.86366 0.96928 0.90675
 C854 C 0.85131 0.95008 0.91945
 C855 C 0.82928 0.94191 0.91167
 H856 H 0.82102 0.95002 0.89651
 O857 O 1.08510 1.11727 0.97691
 O858 O 1.11257 1.14478 0.97685
 C859 C 1.09339 1.13645 0.96884
 C860 C 1.08090 1.14882 0.94955
 C861 C 1.08887 1.17081 0.94143
 H862 H 1.10365 1.17928 0.95004
 O863 O 0.91506 0.88310 0.97745
 O864 O 0.88759 0.85559 0.97748
 C865 C 0.90678 0.86389 0.96947
 C866 C 0.91932 0.85142 0.95028
 C867 C 0.91140 0.82937 0.94230
 H868 H 0.89661 0.82093 0.95094
 O869 O 0.91515 0.97724 0.88268
 O870 O 0.88772 0.97708 0.85519
 C871 C 0.90689 0.96908 0.86357
 C872 C 0.91944 0.94970 0.85134
 C873 C 0.91163 0.94150 0.82936
 H874 H 0.89655 0.94972 0.82103
 O875 O 1.08500 1.02305 0.88255
 O876 O 1.11241 1.02303 0.85502
 C877 C 1.09325 1.03109 0.86337
 C878 C 1.08069 1.05038 0.85103
 C879 C 1.08857 1.05856 0.82904
 H880 H 1.10371 1.05038 0.82078
 O881 O 0.97719 0.88263 0.91544
 O882 O 0.97712 0.85494 0.88818
 C883 C 0.96912 0.86340 0.90729
 C884 C 0.94983 0.85114 0.91991
 C885 C 0.94165 0.82909 0.91215
 H886 H 0.94983 0.82074 0.89707
 O887 O 1.02300 1.11750 0.91477
 O888 O 1.02310 1.14513 0.88744
 C889 C 1.03111 1.13670 0.90656
 C890 C 1.05043 1.14898 0.91912
 C891 C 1.05868 1.17097 0.91124
 H892 H 1.05054 1.17925 0.89610
 O893 O 0.88289 0.91552 0.97739
 O894 O 0.85530 0.88813 0.97743
 C895 C 0.86369 0.90728 0.96937
 C896 C 0.85136 0.91977 0.95006
 C897 C 0.82932 0.91188 0.94206
 H898 H 0.82079 0.89718 0.95078
 O899 O 1.11745 1.08504 0.97698
 O900 O 1.14505 1.11242 0.97693
 C901 C 1.13665 1.09326 0.96892
 C902 C 1.14897 1.08069 0.94965
 C903 C 1.17097 1.08857 0.94146
 H904 H 1.17925 1.10370 0.94964
 O905 O 1.02307 0.91481 0.88300
 O906 O 1.02307 0.88728 0.85558
 C907 C 1.03108 0.90650 0.86384
 C908 C 1.05030 0.91905 0.85141
 C909 C 1.05836 0.91114 0.82941
 H910 H 1.04976 0.89633 0.82098
 O911 O 0.97693 1.08542 0.88247
 O912 O 0.97696 1.11291 0.85500
 C913 C 0.96889 1.09373 0.86332
 C914 C 0.94956 1.08124 0.85098
 C915 C 0.94128 1.08929 0.82911
 H916 H 0.94979 1.10416 0.82068
 O917 O 0.88287 1.02335 0.91476
 O918 O 0.85527 1.02327 0.88744
 C919 C 0.86366 1.03136 0.90654
 C920 C 0.85132 1.05067 0.91908
 C921 C 0.82938 1.05894 0.91113
 H922 H 0.82118 1.05083 0.89594
 O923 O 1.11716 0.97703 0.91492
 O924 O 1.14470 0.97696 0.88752
 C925 C 1.13635 0.96896 0.90668
 C926 C 1.14872 0.94968 0.91923
 C927 C 1.17064 0.94147 0.91121
 H928 H 1.17904 0.95001 0.89635
 O929 O 1.08524 0.88287 0.97748
 O930 O 1.11269 0.85534 0.97747
 C931 C 1.09351 0.86367 0.96945
 C932 C 1.08101 0.85128 0.95019
 C933 C 1.08903 0.82931 0.94206
 H934 H 1.10382 0.82087 0.95067
 O935 O 0.91511 1.11755 0.97704
 O936 O 0.88770 1.14512 0.97702
 C937 C 0.90686 1.13676 0.96900
 C938 C 0.91939 1.14912 0.94973
 C939 C 0.91147 1.17114 0.94163
 H940 H 0.89672 1.17965 0.95026
 Cu941 Cu 1.09833 1.00004 0.90147
 Cu942 Cu 1.13132 0.99999 0.86851
 Cu943 Cu 0.90173 1.00032 0.90142
 Cu944 Cu 0.86870 1.00017 0.86852
 Cu945 Cu 1.09849 1.09843 0.99991
 Cu946 Cu 1.13154 1.13138 0.99987
 Cu947 Cu 1.09868 0.90178 1.00039
 Cu948 Cu 1.13171 0.86882 1.00040
 Cu949 Cu 0.90170 1.09864 0.99999
 Cu950 Cu 0.86872 1.13167 0.99999
 Cu951 Cu 0.90172 0.90210 1.00038
 Cu952 Cu 0.86867 0.86913 1.00043
 Cu953 Cu 0.99995 1.09866 0.90141
 Cu954 Cu 1.00004 1.13175 0.86852
 Cu955 Cu 1.00015 0.90148 0.90197
 Cu956 Cu 1.00010 0.86834 0.86915
 C957 C 1.06141 0.93846 0.86203
 H958 H 1.05549 0.94445 0.87915
 C959 C 1.07745 0.92222 0.81818
 C960 C 0.93854 1.06178 0.86161
 H961 H 0.94462 1.05568 0.87863
 C962 C 0.92206 1.07828 0.81800
 C963 C 0.93870 1.13840 0.93858
 H964 H 0.94469 1.12127 0.94452
 C965 C 0.92246 1.18230 0.92246
 C966 C 1.06163 0.86191 0.93906
 H967 H 1.05556 0.87901 0.94503
 C968 C 1.07810 0.81811 0.92288
 C969 C 1.13814 0.93865 0.93870
 H970 H 1.12108 0.94469 0.94478
 C971 C 1.18185 0.92230 0.92220
 C972 C 0.86203 1.06173 0.93846
 H973 H 0.87910 1.05567 0.94447
 C974 C 0.81827 1.07815 0.92217
 C975 C 1.06138 1.06153 0.86179
 H976 H 1.05543 1.05555 0.87890
 C977 C 1.07750 1.07777 0.81795
 C978 C 0.93868 0.93851 0.86220
 H979 H 0.94459 0.94452 0.87931
 C980 C 0.92267 0.92224 0.81835
 C981 C 1.13815 1.06141 0.93851
 H982 H 1.12103 1.05546 0.94450
 C983 C 1.18202 1.07753 0.92224
 C984 C 0.86210 0.93902 0.93879
 H985 H 0.87925 0.94500 0.94467
 C986 C 0.81815 0.92281 0.92287
 C987 C 1.06153 1.13816 0.93842
 H988 H 1.05548 1.12105 0.94438
 C989 C 1.07790 1.18202 0.92228
 C990 C 0.93869 0.86204 0.93912
 H991 H 0.94468 0.87921 0.94498
 C992 C 0.92243 0.81807 0.92323
 O993 O 0.97733 0.41487 0.38291
 O994 O 0.97733 0.38744 0.35539
 C995 C 0.96929 0.40661 0.36374
 C996 C 0.95000 0.41914 0.35139
 C997 C 0.94187 0.41115 0.32945
 H998 H 0.95046 0.39633 0.32103
 O999 O 1.02336 0.58558 0.38295
 O1000 O 1.02330 0.61309 0.35550
 C1001 C 1.03137 0.59391 0.36380
 C1002 C 1.05067 0.58144 0.35140
 C1003 C 1.05884 0.58954 0.32952
 H1004 H 1.05026 0.60440 0.32114
 O1005 O 0.88305 0.47721 0.41489
 O1006 O 0.85556 0.47725 0.38745
 C1007 C 0.86386 0.46920 0.40661
 C1008 C 0.85144 0.44993 0.41911
 C1009 C 0.82944 0.44189 0.41116
 H1010 H 0.82100 0.45058 0.39642
 O1011 O 1.11756 0.52329 0.41478
 O1012 O 1.14509 0.52338 0.38737
 C1013 C 1.13673 0.53137 0.40654
 C1014 C 1.14904 0.55066 0.41911
 C1015 C 1.17099 0.55896 0.41120
 H1016 H 1.17923 0.55087 0.39602
 O1017 O 0.91495 0.38271 0.47693
 O1018 O 0.88752 0.35516 0.47676
 C1019 C 0.90672 0.36352 0.46884
 C1020 C 0.91935 0.35116 0.44964
 C1021 C 0.91147 0.32914 0.44152
 H1022 H 0.89665 0.32067 0.45007
 O1023 O 1.08521 0.61765 0.47710
 O1024 O 1.11266 0.64518 0.47723
 C1025 C 1.09350 0.63689 0.46915
 C1026 C 1.08102 0.64933 0.44990
 C1027 C 1.08901 0.67132 0.44176
 H1028 H 1.10382 0.67976 0.45034
 O1029 O 0.91543 0.52316 0.38267
 O1030 O 0.88809 0.52322 0.35508
 C1031 C 0.90724 0.53122 0.36348
 C1032 C 0.91985 0.55050 0.35119
 C1033 C 0.91211 0.55858 0.32912
 H1034 H 0.89706 0.55031 0.32080
 O1035 O 1.08524 0.47735 0.38257
 O1036 O 1.11258 0.47736 0.35498
 C1037 C 1.09344 0.46930 0.36339
 C1038 C 1.08086 0.45000 0.35111
 C1039 C 1.08865 0.44188 0.32907
 H1040 H 1.10372 0.45012 0.32075
 O1041 O 1.02338 0.38256 0.41504
 O1042 O 1.02342 0.35501 0.38764
 C1043 C 1.03147 0.36338 0.40677
 C1044 C 1.05083 0.35108 0.41923
 C1045 C 1.05907 0.32911 0.41129
 H1046 H 1.05087 0.32084 0.39618
 O1047 O 0.97731 0.61768 0.41526
 O1048 O 0.97719 0.64532 0.38795
 C1049 C 0.96920 0.63688 0.40708
 C1050 C 0.94991 0.64916 0.41968
 C1051 C 0.94172 0.67119 0.41187
 H1052 H 0.94989 0.67950 0.39675
 O1053 O 0.88285 0.58503 0.47714
 O1054 O 0.85530 0.61247 0.47718
 C1055 C 0.86369 0.59333 0.46908
 C1056 C 0.85142 0.58090 0.44969
 C1057 C 0.82946 0.58887 0.44150
 H1058 H 0.82093 0.60361 0.45013
 O1059 O 1.11800 0.41511 0.47679
 O1060 O 1.14556 0.38769 0.47670
 C1061 C 1.13717 0.40687 0.46869
 C1062 C 1.14942 0.41943 0.44934
 C1063 C 1.17135 0.41150 0.44099
 H1064 H 1.17963 0.39632 0.44909
 O1065 O 0.97741 0.58547 0.38294
 O1066 O 0.97731 0.61297 0.35547
 C1067 C 0.96936 0.59373 0.36377
 C1068 C 0.95019 0.58111 0.35137
 C1069 C 0.94222 0.58891 0.32930
 H1070 H 0.95086 0.60368 0.32082
 O1071 O 1.02328 0.41498 0.38291
 O1072 O 1.02332 0.38757 0.35537
 C1073 C 1.03131 0.40677 0.36371
 C1074 C 1.05051 0.41939 0.35132
 C1075 C 1.05852 0.41156 0.32928
 H1076 H 1.04990 0.39677 0.32081
 O1077 O 1.11760 0.47729 0.41470
 O1078 O 1.14510 0.47731 0.38727
 C1079 C 1.13678 0.46924 0.40642
 C1080 C 1.14917 0.44992 0.41888
 C1081 C 1.17110 0.44175 0.41082
 H1082 H 1.17950 0.45037 0.39601
 O1083 O 0.88304 0.52320 0.41481
 O1084 O 0.85556 0.52329 0.38737
 C1085 C 0.86388 0.53129 0.40654
 C1086 C 0.85150 0.55056 0.41911
 C1087 C 0.82955 0.55880 0.41116
 H1088 H 0.82139 0.55069 0.39595
 O1089 O 0.91513 0.61731 0.47730
 O1090 O 0.88772 0.64488 0.47736
 C1091 C 0.90689 0.63654 0.46932
 C1092 C 0.91944 0.64897 0.45010
 C1093 C 0.91151 0.67101 0.44206
 H1094 H 0.89674 0.67948 0.45069
 O1095 O 1.08576 0.38279 0.47680
 O1096 O 1.11318 0.35521 0.47673
 C1097 C 1.09400 0.36358 0.46874
 C1098 C 1.08143 0.35122 0.44951
 C1099 C 1.08939 0.32925 0.44134
 H1100 H 1.10423 0.32079 0.44987
 O1101 O 1.08536 0.52338 0.38251
 O1102 O 1.11273 0.52345 0.35494
 C1103 C 1.09360 0.53150 0.36335
 C1104 C 1.08108 0.55089 0.35112
 C1105 C 1.08903 0.55928 0.32924
 H1106 H 1.10420 0.55116 0.32095
 O1107 O 0.91529 0.47713 0.38262
 O1108 O 0.88795 0.47714 0.35505
 C1109 C 0.90706 0.46906 0.36345
 C1110 C 0.91960 0.44969 0.35119
 C1111 C 0.91168 0.44141 0.32926
 H1112 H 0.89654 0.44958 0.32099
 O1113 O 1.02328 0.61789 0.41516
 O1114 O 1.02321 0.64554 0.38785
 C1115 C 1.03128 0.63713 0.40695
 C1116 C 1.05055 0.64947 0.41950
 C1117 C 1.05880 0.67145 0.41158
 H1118 H 1.05066 0.67970 0.39643
 O1119 O 0.97737 0.38255 0.41513
 O1120 O 0.97738 0.35499 0.38775
 C1121 C 0.96932 0.36336 0.40688
 C1122 C 0.95000 0.35102 0.41938
 C1123 C 0.94183 0.32901 0.41149
 H1124 H 0.95008 0.32072 0.39640
 O1125 O 1.11736 0.58522 0.47695
 O1126 O 1.14493 0.61263 0.47708
 C1127 C 1.13657 0.59350 0.46896
 C1128 C 1.14892 0.58106 0.44963
 C1129 C 1.17088 0.58908 0.44149
 H1130 H 1.17933 0.60386 0.45013
 O1131 O 0.88263 0.41498 0.47691
 O1132 O 0.85505 0.38758 0.47673
 C1133 C 0.86346 0.40677 0.46878
 C1134 C 0.85120 0.41941 0.44951
 C1135 C 0.82920 0.41159 0.44128
 H1136 H 0.82087 0.39645 0.44941
 Cu1137 Cu 1.00034 0.40148 0.40176
 Cu1138 Cu 1.00037 0.36849 0.36878
 Cu1139 Cu 1.00035 0.59891 0.40182
 Cu1140 Cu 1.00023 0.63200 0.36894
 Cu1141 Cu 0.90195 0.50017 0.40149
 Cu1142 Cu 0.86904 0.50023 0.36847
 Cu1143 Cu 1.09869 0.50032 0.40138
 Cu1144 Cu 1.13163 0.50037 0.36838
 C1145 C 0.93890 0.43857 0.36199
 H1146 H 0.94488 0.44462 0.37906
 C1147 C 0.92270 0.42213 0.31827
 C1148 C 1.06176 0.56197 0.36194
 H1149 H 1.05574 0.55584 0.37897
 C1150 C 1.07804 0.57861 0.31831
 C1151 C 0.86206 0.43872 0.43844
 H1152 H 0.87919 0.44462 0.44446
 C1153 C 0.81819 0.42272 0.42210
 C1154 C 1.13827 0.56170 0.43847
 H1155 H 1.12119 0.55562 0.44445
 C1156 C 1.18204 0.57817 0.42228
 C1157 C 0.93877 0.36184 0.43860
 H1158 H 0.94474 0.37897 0.44456
 C1159 C 0.92257 0.31794 0.42244
 C1160 C 1.06164 0.63869 0.43880
 H1161 H 1.05559 0.62158 0.44478
 C1162 C 1.07802 0.68251 0.42260
 C1163 C 0.93904 0.56175 0.36205
 H1164 H 0.94488 0.55584 0.37922
 C1165 C 0.92319 0.57777 0.31804
 C1166 C 1.06165 0.43877 0.36197
 H1167 H 1.05576 0.44471 0.37912
 C1168 C 1.07759 0.42266 0.31803
 C1169 C 1.06200 0.36187 0.43849
 H1170 H 1.05597 0.37897 0.44450
 C1171 C 1.07835 0.31806 0.42222
 C1172 C 0.93879 0.63831 0.43894
 H1173 H 0.94479 0.62116 0.44484
 C1174 C 0.92253 0.68226 0.42294
 C1175 C 0.86217 0.56159 0.43851
 H1176 H 0.87925 0.55556 0.44453
 C1177 C 0.81839 0.57794 0.42224
 C1178 C 1.13860 0.43879 0.43829
 H1179 H 1.12154 0.44479 0.44439
 C1180 C 1.18231 0.42254 0.42172
 O1181 O 1.02298 0.41444 0.61680
 O1182 O 1.02307 0.38690 0.64422
 C1183 C 1.03106 0.40612 0.63593
 C1184 C 1.05033 0.41865 0.64830
 C1185 C 1.05840 0.41068 0.67027
 H1186 H 1.04976 0.39589 0.67872
 O1187 O 0.97718 0.58473 0.61753
 O1188 O 0.97711 0.61211 0.64510
 C1189 C 0.96910 0.59294 0.63670
 C1190 C 0.94980 0.58033 0.64899
 C1191 C 0.94161 0.58817 0.67098
 H1192 H 0.94978 0.60331 0.67926
 O1193 O 0.88268 0.52264 0.58512
 O1194 O 0.85513 0.52265 0.61251
 C1195 C 0.86350 0.53070 0.59337
 C1196 C 0.85117 0.55001 0.58083
 C1197 C 0.82915 0.55818 0.58868
 H1198 H 0.82089 0.54999 0.60381
 O1199 O 1.11758 0.47672 0.58500
 O1200 O 1.14507 0.47669 0.61243
 C1201 C 1.13677 0.46870 0.59326
 C1202 C 1.14921 0.44946 0.58074
 C1203 C 1.17110 0.44123 0.58883
 H1204 H 1.17945 0.44977 0.60371
 O1205 O 1.08566 0.38280 0.52269
 O1206 O 1.11306 0.35521 0.52268
 C1207 C 1.09387 0.36356 0.53069
 C1208 C 1.08123 0.35112 0.54986
 C1209 C 1.08908 0.32905 0.55790
 H1210 H 1.10391 0.32060 0.54935
 O1211 O 0.91506 0.61716 0.52322
 O1212 O 0.88767 0.64474 0.52331
 C1213 C 0.90682 0.63635 0.53131
 C1214 C 0.91940 0.64866 0.55058
 C1215 C 0.91157 0.67070 0.55874
 H1216 H 0.89644 0.67899 0.55057
 O1217 O 0.91492 0.47652 0.61721
 O1218 O 0.88755 0.47646 0.64477
 C1219 C 0.90669 0.46842 0.63637
 C1220 C 0.91925 0.44907 0.64861
 C1221 C 0.91139 0.44082 0.67058
 H1222 H 0.89626 0.44900 0.67886
 O1223 O 1.08518 0.52260 0.61733
 O1224 O 1.11259 0.52259 0.64484
 C1225 C 1.09343 0.53062 0.63652
 C1226 C 1.08090 0.54989 0.64890
 C1227 C 1.08887 0.55799 0.67086
 H1228 H 1.10365 0.54935 0.67929
 O1229 O 0.97700 0.38211 0.58459
 O1230 O 0.97704 0.35446 0.61189
 C1231 C 0.96895 0.36289 0.59281
 C1232 C 0.94955 0.35063 0.58034
 C1233 C 0.94117 0.32874 0.58836
 H1234 H 0.94930 0.32048 0.60352
 O1235 O 1.02319 0.61711 0.58540
 O1236 O 1.02318 0.64465 0.61280
 C1237 C 1.03123 0.63631 0.59365
 C1238 C 1.05051 0.64868 0.58110
 C1239 C 1.05880 0.67063 0.58907
 H1240 H 1.05071 0.67883 0.60428
 O1241 O 0.88251 0.41485 0.52285
 O1242 O 0.85494 0.38744 0.52272
 C1243 C 0.86330 0.40657 0.53083
 C1244 C 0.85096 0.41902 0.55017
 C1245 C 0.82900 0.41104 0.55832
 H1246 H 0.82050 0.39629 0.54967
 O1247 O 1.11730 0.58497 0.52288
 O1248 O 1.14489 0.61237 0.52303
 C1249 C 1.13650 0.59316 0.53097
 C1250 C 1.14883 0.58054 0.55019
 C1251 C 1.17090 0.58834 0.55819
 H1252 H 1.17944 0.60305 0.54952
 O1253 O 1.02315 0.58476 0.61759
 O1254 O 1.02315 0.61214 0.64515
 C1255 C 1.03118 0.59298 0.63677
 C1256 C 1.05046 0.58039 0.64907
 C1257 C 1.05871 0.58827 0.67102
 H1258 H 1.05058 0.60345 0.67928
 O1259 O 0.97700 0.41437 0.61686
 O1260 O 0.97706 0.38685 0.64429
 C1261 C 0.96899 0.40605 0.63602
 C1262 C 0.94969 0.41854 0.64842
 C1263 C 0.94159 0.41057 0.67039
 H1264 H 0.95021 0.39576 0.67883
 O1265 O 1.11736 0.52271 0.58498
 O1266 O 1.14491 0.52273 0.61235
 C1267 C 1.13654 0.53077 0.59321
 C1268 C 1.14888 0.55005 0.58063
 C1269 C 1.17095 0.55814 0.58841
 H1270 H 1.17924 0.54992 0.60350
 O1271 O 0.88255 0.47664 0.58508
 O1272 O 0.85503 0.47659 0.61249
 C1273 C 0.86336 0.46860 0.59332
 C1274 C 0.85097 0.44936 0.58073
 C1275 C 0.82901 0.44111 0.58866
 H1276 H 0.82081 0.44921 0.60387
 O1277 O 1.08505 0.61728 0.52304
 O1278 O 1.11251 0.64480 0.52320
 C1279 C 1.09334 0.63642 0.53118
 C1280 C 1.08087 0.64869 0.55055
 C1281 C 1.08887 0.67063 0.55874
 H1282 H 1.10361 0.67914 0.55010
 O1283 O 0.91475 0.38253 0.52282
 O1284 O 0.88732 0.35499 0.52271
 C1285 C 0.90647 0.36331 0.53079
 C1286 C 0.91896 0.35089 0.55005
 C1287 C 0.91084 0.32899 0.55830
 H1288 H 0.89595 0.32062 0.54981
 O1289 O 1.08515 0.47659 0.61709
 O1290 O 1.11251 0.47653 0.64466
 C1291 C 1.09337 0.46849 0.63625
 C1292 C 1.08080 0.44914 0.64850
 C1293 C 1.08864 0.44089 0.67047
 H1294 H 1.10377 0.44905 0.67876
 O1295 O 0.91499 0.52254 0.61730
 O1296 O 0.88760 0.52254 0.64485
 C1297 C 0.90677 0.53057 0.63649
 C1298 C 0.91932 0.54984 0.64885
 C1299 C 0.91142 0.55791 0.67084
 H1300 H 0.89666 0.54926 0.67932
 O1301 O 0.97722 0.61699 0.58527
 O1302 O 0.97715 0.64453 0.61268
 C1303 C 0.96915 0.63618 0.59352
 C1304 C 0.94988 0.64854 0.58100
 C1305 C 0.94182 0.67058 0.58887
 H1306 H 0.95047 0.67908 0.60359
 O1307 O 1.02303 0.38229 0.58443
 O1308 O 1.02311 0.35461 0.61170
 C1309 C 1.03114 0.36308 0.59260
 C1310 C 1.05051 0.35084 0.58006
 C1311 C 1.05864 0.32878 0.58785
 H1312 H 1.05036 0.32043 0.60288
 O1313 O 1.11810 0.41493 0.52275
 O1314 O 1.14565 0.38750 0.52274
 C1315 C 1.13727 0.40664 0.53081
 C1316 C 1.14952 0.41912 0.55018
 C1317 C 1.17140 0.41110 0.55856
 H1318 H 1.17968 0.39594 0.55043
 O1319 O 0.88280 0.58483 0.52309
 O1320 O 0.85527 0.61228 0.52317
 C1321 C 0.86361 0.59307 0.53115
 C1322 C 0.85125 0.58050 0.55039
 C1323 C 0.82923 0.58839 0.55847
 H1324 H 0.82074 0.60316 0.54985
 Cu1325 Cu 0.99999 0.40105 0.59792
 Cu1326 Cu 1.00008 0.36793 0.63077
 Cu1327 Cu 1.00020 0.59815 0.59871
 Cu1328 Cu 1.00014 0.63112 0.63169
 Cu1329 Cu 0.90145 0.40153 0.49989
 Cu1330 Cu 0.86844 0.36853 0.49970
 Cu1331 Cu 1.09916 0.40167 0.49976
 Cu1332 Cu 1.13213 0.36865 0.49971
 Cu1333 Cu 0.90170 0.59833 0.50018
 Cu1334 Cu 0.86872 0.63135 0.50027
 Cu1335 Cu 1.09847 0.59854 0.49996
 Cu1336 Cu 1.13151 0.63150 0.50016
 Cu1337 Cu 0.90153 0.49958 0.59843
 Cu1338 Cu 0.86858 0.49956 0.63143
 Cu1339 Cu 1.09857 0.49966 0.59836
 Cu1340 Cu 1.13153 0.49964 0.63134
 C1341 C 1.06150 0.43803 0.63768
 H1342 H 1.05557 0.44406 0.62058
 C1343 C 1.07755 0.42166 0.68149
 C1344 C 0.93867 0.56102 0.63818
 H1345 H 0.94466 0.55510 0.62107
 C1346 C 0.92241 0.57707 0.68204
 C1347 C 0.86195 0.56115 0.56154
 H1348 H 0.87908 0.55518 0.55560
 C1349 C 0.81805 0.57737 0.57762
 C1350 C 1.13869 0.43843 0.56127
 H1351 H 1.12165 0.44448 0.55514
 C1352 C 1.18231 0.42204 0.57790
 C1353 C 1.06179 0.36176 0.56091
 H1354 H 1.05583 0.37892 0.55502
 C1355 C 1.07791 0.31774 0.57689
 C1356 C 0.93870 0.63784 0.56170
 H1357 H 0.94462 0.62069 0.55573
 C1358 C 0.92267 0.68179 0.57788
 C1359 C 0.93855 0.43794 0.63780
 H1360 H 0.94449 0.44398 0.62071
 C1361 C 0.92245 0.42159 0.68161
 C1362 C 1.06154 0.56105 0.63828
 H1363 H 1.05552 0.55510 0.62119
 C1364 C 1.07792 0.57719 0.68204
 C1365 C 0.93846 0.36144 0.56105
 H1366 H 0.94460 0.37848 0.55499
 C1367 C 0.92181 0.31779 0.57747
 C1368 C 1.06154 0.63797 0.56170
 H1369 H 1.05549 0.62089 0.55567
 C1370 C 1.07799 0.68173 0.57800
 C1371 C 0.86168 0.43833 0.56134
 H1372 H 0.87877 0.44437 0.55536
 C1373 C 0.81788 0.42195 0.57757
 C1374 C 1.13808 0.56124 0.56138
 H1375 H 1.12091 0.55533 0.55550
 C1376 C 1.18209 0.57728 0.57729
 O1377 O 0.58494 1.02352 0.61695
 O1378 O 0.61232 1.02355 0.64449
 C1379 C 0.59316 1.03158 0.63612
 C1380 C 0.58059 1.05088 0.64843
 C1381 C 0.58847 1.05908 0.67039
 H1382 H 0.60361 1.05089 0.67864
 O1383 O 0.41497 0.97702 0.61743
 O1384 O 0.38764 0.97698 0.64504
 C1385 C 0.40679 0.96896 0.63663
 C1386 C 0.41939 0.94966 0.64892
 C1387 C 0.41154 0.94143 0.67088
 H1388 H 0.39640 0.94960 0.67916
 O1389 O 0.52279 1.11778 0.58441
 O1390 O 0.52281 1.14542 0.61171
 C1391 C 0.53086 1.13700 0.59260
 C1392 C 0.55021 1.14928 0.58006
 C1393 C 0.55852 1.17123 0.58798
 H1394 H 0.55038 1.17951 0.60313
 O1395 O 0.47712 0.88263 0.58486
 O1396 O 0.47726 0.85502 0.61221
 C1397 C 0.46916 0.86338 0.59310
 C1398 C 0.44991 0.85097 0.58057
 C1399 C 0.44184 0.82889 0.58842
 H1400 H 0.45007 0.82063 0.60352
 O1401 O 0.61747 1.08532 0.52248
 O1402 O 0.64499 1.11278 0.52236
 C1403 C 0.63665 1.09364 0.53049
 C1404 C 0.64895 1.08124 0.54989
 C1405 C 0.67085 1.08930 0.55815
 H1406 H 0.67934 1.10408 0.54954
 O1407 O 0.38265 0.91477 0.52306
 O1408 O 0.35514 0.88731 0.52320
 C1409 C 0.36351 0.90649 0.53119
 C1410 C 0.35123 0.91898 0.55054
 C1411 C 0.32928 0.91100 0.55873
 H1412 H 0.32079 0.89623 0.55013
 O1413 O 0.47687 1.08543 0.61673
 O1414 O 0.47684 1.11293 0.64417
 C1415 C 0.46883 1.09372 0.63589
 C1416 C 0.44959 1.08116 0.64830
 C1417 C 0.44151 1.08915 0.67027
 H1418 H 0.45012 1.10397 0.67866
 O1419 O 0.52303 0.91514 0.61695
 O1420 O 0.52321 0.88767 0.64444
 C1421 C 0.53114 0.90690 0.63609
 C1422 C 0.55039 0.91951 0.64841
 C1423 C 0.55849 0.91163 0.67040
 H1424 H 0.54989 0.89684 0.67889
 O1425 O 0.61721 0.97758 0.58465
 O1426 O 0.64474 0.97756 0.61204
 C1427 C 0.63640 0.96954 0.59288
 C1428 C 0.64881 0.95031 0.58032
 C1429 C 0.67082 0.94225 0.58822
 H1430 H 0.67927 0.95089 0.60299
 O1431 O 0.38247 1.02284 0.58518
 O1432 O 0.35498 1.02285 0.61263
 C1433 C 0.36326 1.03085 0.59343
 C1434 C 0.35080 1.05002 0.58082
 C1435 C 0.32876 1.05810 0.58869
 H1436 H 0.32057 1.04993 0.60386
 O1437 O 0.41420 1.11728 0.52290
 O1438 O 0.38670 1.14476 0.52297
 C1439 C 0.40591 1.13647 0.53095
 C1440 C 0.41848 1.14889 0.55015
 C1441 C 0.41047 1.17084 0.55837
 H1442 H 0.39555 1.17923 0.54992
 O1443 O 0.58530 0.88315 0.52260
 O1444 O 0.61276 0.85563 0.52265
 C1445 C 0.59358 0.86396 0.53066
 C1446 C 0.58104 0.85157 0.54991
 C1447 C 0.58893 0.82952 0.55793
 H1448 H 0.60369 0.82103 0.54929
 O1449 O 0.41488 1.02305 0.61726
 O1450 O 0.38756 1.02309 0.64487
 C1451 C 0.40667 1.03117 0.63642
 C1452 C 0.41921 1.05057 0.64862
 C1453 C 0.41136 1.05885 0.67058
 H1454 H 0.39626 1.05066 0.67891
 O1455 O 0.58506 0.97749 0.61702
 O1456 O 0.61244 0.97748 0.64456
 C1457 C 0.59330 0.96942 0.63619
 C1458 C 0.58076 0.95009 0.64850
 C1459 C 0.58864 0.94192 0.67049
 H1460 H 0.60375 0.95015 0.67876
 O1461 O 0.52310 0.88284 0.58473
 O1462 O 0.52328 0.85523 0.61207
 C1463 C 0.53125 0.86366 0.59292
 C1464 C 0.55055 0.85138 0.58033
 C1465 C 0.55871 0.82933 0.58811
 H1466 H 0.55052 0.82100 0.60320
 O1467 O 0.47676 1.11774 0.58451
 O1468 O 0.47674 1.14538 0.61181
 C1469 C 0.46866 1.13694 0.59274
 C1470 C 0.44923 1.14916 0.58030
 C1471 C 0.44095 1.17110 0.58827
 H1472 H 0.44918 1.17939 0.60334
 O1473 O 0.38212 1.08477 0.52291
 O1474 O 0.35448 1.11211 0.52296
 C1475 C 0.36292 1.09296 0.53097
 C1476 C 0.35066 1.08039 0.55027
 C1477 C 0.32862 1.08820 0.55836
 H1478 H 0.32003 1.10289 0.54970
 O1479 O 0.61753 0.91548 0.52250
 O1480 O 0.64515 0.88811 0.52256
 C1481 C 0.63674 0.90728 0.53056
 C1482 C 0.64903 0.91988 0.54983
 C1483 C 0.67104 0.91205 0.55802
 H1484 H 0.67936 0.89693 0.54985
 O1485 O 0.47707 0.91492 0.61712
 O1486 O 0.47720 0.88745 0.64461
 C1487 C 0.46909 0.90662 0.63630
 C1488 C 0.44982 0.91913 0.64871
 C1489 C 0.44172 0.91116 0.67069
 H1490 H 0.45033 0.89635 0.67912
 O1491 O 0.52283 1.08561 0.61679
 O1492 O 0.52284 1.11311 0.64423
 C1493 C 0.53088 1.09391 0.63594
 C1494 C 0.55016 1.08140 0.64830
 C1495 C 0.55827 1.08934 0.67028
 H1496 H 0.54967 1.10413 0.67874
 O1497 O 0.38267 0.97686 0.58525
 O1498 O 0.35518 0.97679 0.61270
 C1499 C 0.36352 0.96875 0.59355
 C1500 C 0.35120 0.94941 0.58104
 C1501 C 0.32926 0.94114 0.58900
 H1502 H 0.32104 0.94927 0.60418
 O1503 O 0.61732 1.02357 0.58482
 O1504 O 0.64485 1.02360 0.61221
 C1505 C 0.63650 1.03163 0.59306
 C1506 C 0.64887 1.05091 0.58049
 C1507 C 0.67077 1.05923 0.58851
 H1508 H 0.67890 1.05116 0.60376
 O1509 O 0.41497 0.88253 0.52291
 O1510 O 0.38759 0.85493 0.52306
 C1511 C 0.40678 0.86332 0.53099
 C1512 C 0.41940 0.85097 0.55021
 C1513 C 0.41160 0.82891 0.55828
 H1514 H 0.39687 0.82036 0.54967
 O1515 O 0.58504 1.11744 0.52246
 O1516 O 0.61241 1.14505 0.52233
 C1517 C 0.59327 1.13668 0.53042
 C1518 C 0.58075 1.14907 0.54969
 C1519 C 0.58878 1.17102 0.55784
 H1520 H 0.60361 1.17945 0.54927
 Cu1521 Cu 0.59838 1.00054 0.59812
 Cu1522 Cu 0.63134 1.00054 0.63108
 Cu1523 Cu 0.40149 0.99995 0.59854
 Cu1524 Cu 0.36859 0.99993 0.63159
 Cu1525 Cu 0.49982 1.09890 0.59786
 Cu1526 Cu 0.49980 1.13199 0.63072
 Cu1527 Cu 0.50005 0.90163 0.59817
 Cu1528 Cu 0.50025 0.86858 0.63109
 C1529 C 0.56129 1.06202 0.63765
 H1530 H 0.55534 1.05601 0.62056
 C1531 C 0.57742 1.07829 0.68146
 C1532 C 0.43868 0.93853 0.63810
 H1533 H 0.44461 0.94456 0.62100
 C1534 C 0.42259 0.92219 0.68191
 C1535 C 0.56132 1.13846 0.56077
 H1536 H 0.55524 1.12138 0.55478
 C1537 C 0.57781 1.18223 0.57700
 C1538 C 0.43871 0.86174 0.56132
 H1539 H 0.44461 0.87891 0.55539
 C1540 C 0.42268 0.81773 0.57739
 C1541 C 0.63823 1.06189 0.56105
 H1542 H 0.62120 1.05579 0.55499
 C1543 C 0.68190 1.07841 0.57745
 C1544 C 0.36193 0.93834 0.56167
 H1545 H 0.37900 0.94439 0.55564
 C1546 C 0.31817 0.92193 0.57796
 C1547 C 0.43847 1.06173 0.63774
 H1548 H 0.44440 1.05567 0.62065
 C1549 C 0.42239 1.07814 0.68153
 C1550 C 0.56150 0.93889 0.63772
 H1551 H 0.55554 0.94486 0.62061
 C1552 C 0.57762 0.92269 0.68157
 C1553 C 0.63817 0.93916 0.56097
 H1554 H 0.62104 0.94508 0.55499
 C1555 C 0.68206 0.92312 0.57722
 C1556 C 0.36149 1.06115 0.56147
 H1557 H 0.37864 1.05524 0.55552
 C1558 C 0.31754 1.07719 0.57757
 C1559 C 0.43801 1.13832 0.56109
 H1560 H 0.44409 1.12125 0.55507
 C1561 C 0.42158 1.18208 0.57743
 C1562 C 0.56170 0.86225 0.56108
 H1563 H 0.55572 0.87941 0.55520
 C1564 C 0.57790 0.81826 0.57702
 O1565 O 0.58453 0.97696 0.38215
 O1566 O 0.61182 0.97702 0.35450
 C1567 C 0.59273 0.96891 0.36295
 C1568 C 0.58021 0.94953 0.35072
 C1569 C 0.58808 0.94129 0.32875
 H1570 H 0.60319 0.94950 0.32045
 O1571 O 0.41445 1.02273 0.38268
 O1572 O 0.38707 1.02269 0.35514
 C1573 C 0.40620 1.03078 0.36351
 C1574 C 0.41872 1.05012 0.35121
 C1575 C 0.41085 1.05829 0.32922
 H1576 H 0.39576 1.05005 0.32094
 O1577 O 0.47639 1.11748 0.41504
 O1578 O 0.47628 1.14507 0.38767
 C1579 C 0.46830 1.13669 0.40682
 C1580 C 0.44901 1.14900 0.41939
 C1581 C 0.44081 1.17102 0.41154
 H1582 H 0.44899 1.17932 0.39643
 O1583 O 0.52280 0.88246 0.41496
 O1584 O 0.52285 0.85481 0.38767
 C1585 C 0.53091 0.86327 0.40676
 C1586 C 0.55030 0.85105 0.41927
 C1587 C 0.55855 0.82906 0.41142
 H1588 H 0.55035 0.82072 0.39636
 O1589 O 0.61753 0.91531 0.47655
 O1590 O 0.64515 0.88795 0.47655
 C1591 C 0.63672 0.90707 0.46847
 C1592 C 0.64894 0.91958 0.44909
 C1593 C 0.67091 0.91172 0.44082
 H1594 H 0.67926 0.89663 0.44901
 O1595 O 0.38196 1.08495 0.47696
 O1596 O 0.35433 1.11231 0.47695
 C1597 C 0.36276 1.09317 0.46890
 C1598 C 0.35049 1.08062 0.44957
 C1599 C 0.32860 1.08860 0.44119
 H1600 H 0.32034 1.10382 0.44926
 O1601 O 0.52228 1.08518 0.38269
 O1602 O 0.52219 1.11263 0.35518
 C1603 C 0.53025 1.09345 0.36348
 C1604 C 0.54945 1.08090 0.35104
 C1605 C 0.55745 1.08884 0.32902
 H1606 H 0.54880 1.10364 0.32061
 O1607 O 0.47670 0.91455 0.38275
 O1608 O 0.47668 0.88708 0.35527
 C1609 C 0.46864 0.90626 0.36360
 C1610 C 0.44935 0.91881 0.35128
 C1611 C 0.44119 0.91091 0.32931
 H1612 H 0.44937 0.89575 0.32108
 O1613 O 0.61675 1.02307 0.41429
 O1614 O 0.64418 1.02316 0.38679
 C1615 C 0.63590 1.03115 0.40598
 C1616 C 0.64832 1.05041 0.41849
 C1617 C 0.67032 1.05848 0.41053
 H1618 H 0.67874 1.04985 0.39574
 O1619 O 0.38225 0.97673 0.41497
 O1620 O 0.35469 0.97663 0.38761
 C1621 C 0.36307 0.96864 0.40676
 C1622 C 0.35076 0.94936 0.41936
 C1623 C 0.32878 0.94111 0.41151
 H1624 H 0.32053 0.94923 0.39634
 O1625 O 0.58501 1.11745 0.47657
 O1626 O 0.61238 1.14506 0.47637
 C1627 C 0.59319 1.13666 0.46846
 C1628 C 0.58050 1.14900 0.44927
 C1629 C 0.58833 1.17101 0.44102
 H1630 H 0.60355 1.17926 0.44905
 O1631 O 0.41474 0.88242 0.47700
 O1632 O 0.38734 0.85483 0.47711
 C1633 C 0.40647 0.86319 0.46901
 C1634 C 0.41895 0.85081 0.44971
 C1635 C 0.41094 0.82886 0.44153
 H1636 H 0.39612 0.82041 0.45010
 O1637 O 0.41458 0.97671 0.38278
 O1638 O 0.38716 0.97663 0.35527
 C1639 C 0.40633 0.96862 0.36362
 C1640 C 0.41888 0.94930 0.35131
 C1641 C 0.41099 0.94117 0.32934
 H1642 H 0.39624 0.94980 0.32083
 O1643 O 0.58438 1.02299 0.38217
 O1644 O 0.61166 1.02310 0.35452
 C1645 C 0.59252 1.03109 0.36297
 C1646 C 0.57988 1.05038 0.35074
 C1647 C 0.58765 1.05860 0.32873
 H1648 H 0.60275 1.05043 0.32039
 O1649 O 0.47680 0.88224 0.41496
 O1650 O 0.47679 0.85461 0.38764
 C1651 C 0.46875 0.86301 0.40676
 C1652 C 0.44945 0.85069 0.41931
 C1653 C 0.44117 0.82874 0.41136
 H1654 H 0.44931 0.82050 0.39620
 O1655 O 0.52239 1.11740 0.41499
 O1656 O 0.52230 1.14498 0.38761
 C1657 C 0.53042 1.13660 0.40671
 C1658 C 0.54979 1.14894 0.41910
 C1659 C 0.55785 1.17095 0.41113
 H1660 H 0.54911 1.17946 0.39646
 O1661 O 0.38248 0.91475 0.47710
 O1662 O 0.35496 0.88729 0.47722
 C1663 C 0.36328 0.90646 0.46914
 C1664 C 0.35088 0.91895 0.44987
 C1665 C 0.32890 0.91096 0.44178
 H1666 H 0.32044 0.89619 0.45043
 O1667 O 0.61725 1.08511 0.47652
 O1668 O 0.64478 1.11256 0.47632
 C1669 C 0.63639 1.09337 0.46836
 C1670 C 0.64862 1.08080 0.44902
 C1671 C 0.67062 1.08864 0.44078
 H1672 H 0.67896 1.10374 0.44896
 O1673 O 0.52265 0.91461 0.38258
 O1674 O 0.52269 0.88711 0.35514
 C1675 C 0.53067 0.90633 0.36341
 C1676 C 0.54989 0.91891 0.35098
 C1677 C 0.55799 0.91094 0.32902
 H1678 H 0.54941 0.89610 0.32062
 O1679 O 0.47634 1.08510 0.38288
 O1680 O 0.47623 1.11255 0.35538
 C1681 C 0.46826 1.09334 0.36373
 C1682 C 0.44903 1.08075 0.35138
 C1683 C 0.44094 1.08864 0.32939
 H1684 H 0.44953 1.10345 0.32093
 O1685 O 0.38226 1.02274 0.41498
 O1686 O 0.35473 1.02269 0.38758
 C1687 C 0.36307 1.03077 0.40671
 C1688 C 0.35070 1.05010 0.41916
 C1689 C 0.32880 1.05831 0.41108
 H1690 H 0.32040 1.04971 0.39627
 O1691 O 0.61690 0.97710 0.41428
 O1692 O 0.64433 0.97714 0.38677
 C1693 C 0.63608 0.96911 0.40597
 C1694 C 0.64857 0.94990 0.41849
 C1695 C 0.67054 0.94181 0.41049
 H1696 H 0.67892 0.95040 0.39565
 O1697 O 0.58523 0.88305 0.47670
 O1698 O 0.61271 0.85554 0.47670
 C1699 C 0.59350 0.86384 0.46871
 C1700 C 0.58093 0.85138 0.44953
 C1701 C 0.58891 0.82937 0.44145
 H1702 H 0.60376 0.82097 0.45000
 O1703 O 0.41427 1.11720 0.47701
 O1704 O 0.38679 1.14471 0.47702
 C1705 C 0.40598 1.13640 0.46900
 C1706 C 0.41851 1.14882 0.44977
 C1707 C 0.41057 1.17084 0.44171
 H1708 H 0.39579 1.17930 0.45032
 Cu1709 Cu 0.59789 1.00002 0.40097
 Cu1710 Cu 0.63074 1.00012 0.36787
 Cu1711 Cu 0.40113 0.99973 0.40159
 Cu1712 Cu 0.36815 0.99965 0.36864
 Cu1713 Cu 0.59847 1.09857 0.49952
 Cu1714 Cu 0.63141 1.13162 0.49932
 Cu1715 Cu 0.59866 0.90201 0.49959
 Cu1716 Cu 0.63171 0.86905 0.49962
 Cu1717 Cu 0.40088 1.09830 0.49994
 Cu1718 Cu 0.36780 1.13122 0.49998
 Cu1719 Cu 0.40145 0.90137 0.50000
 Cu1720 Cu 0.36849 0.86833 0.50017
 Cu1721 Cu 0.49936 1.09855 0.40166
 Cu1722 Cu 0.49924 1.13158 0.36871
 Cu1723 Cu 0.49973 0.90121 0.40156
 Cu1724 Cu 0.49976 0.86812 0.36868
 C1725 C 0.56096 0.93835 0.36157
 H1726 H 0.55501 0.94438 0.37865
 C1727 C 0.57709 0.92200 0.31777
 C1728 C 0.43795 1.06134 0.36203
 H1729 H 0.44390 1.05536 0.37913
 C1730 C 0.42185 1.07755 0.31818
 C1731 C 0.43788 1.13816 0.43865
 H1732 H 0.44389 1.12103 0.44458
 C1733 C 0.42159 1.18207 0.42259
 C1734 C 0.56148 0.86195 0.43847
 H1735 H 0.55543 0.87907 0.44440
 C1736 C 0.57785 0.81808 0.42240
 C1737 C 0.63803 0.93882 0.43794
 H1738 H 0.62093 0.94476 0.44400
 C1739 C 0.68185 0.92272 0.42151
 C1740 C 0.36128 1.06123 0.43856
 H1741 H 0.37832 1.05519 0.44468
 C1742 C 0.31763 1.07758 0.42193
 C1743 C 0.56064 1.06152 0.36163
 H1744 H 0.55477 1.05551 0.37876
 C1745 C 0.57655 1.07783 0.31774
 C1746 C 0.43821 0.93815 0.36202
 H1747 H 0.44418 0.94413 0.37912
 C1748 C 0.42201 0.92198 0.31820
 C1749 C 0.63774 1.06154 0.43789
 H1750 H 0.62062 1.05562 0.44392
 C1751 C 0.68160 1.07758 0.42153
 C1752 C 0.36154 0.93830 0.43869
 H1753 H 0.37864 0.94434 0.44463
 C1754 C 0.31772 0.92191 0.42260
 C1755 C 0.56109 1.13822 0.43832
 H1756 H 0.55516 1.12110 0.44436
 C1757 C 0.57712 1.18211 0.42194
 C1758 C 0.43836 0.86146 0.43863
 H1759 H 0.44442 0.87854 0.44463
 C1760 C 0.42192 0.81768 0.42235
 O1761 O 0.47676 0.41421 0.88312
 O1762 O 0.47683 0.38668 0.85571
 C1763 C 0.46872 0.40585 0.86399
 C1764 C 0.44935 0.41827 0.85164
 C1765 C 0.44114 0.41014 0.82977
 H1766 H 0.44975 0.39531 0.82139
 O1767 O 0.52260 0.58501 0.88292
 O1768 O 0.52256 0.61238 0.85533
 C1769 C 0.53062 0.59323 0.86372
 C1770 C 0.54986 0.58062 0.85138
 C1771 C 0.55802 0.58846 0.82938
 H1772 H 0.54987 0.60363 0.82112
 O1773 O 0.38244 0.47642 0.91515
 O1774 O 0.35487 0.47633 0.88780
 C1775 C 0.36324 0.46835 0.90697
 C1776 C 0.35092 0.44911 0.91962
 C1777 C 0.32893 0.44086 0.91181
 H1778 H 0.32067 0.44896 0.89664
 O1779 O 0.61681 0.52284 0.91518
 O1780 O 0.64434 0.52287 0.88777
 C1781 C 0.63597 0.53092 0.90691
 C1782 C 0.64831 0.55027 0.91937
 C1783 C 0.67031 0.55835 0.91143
 H1784 H 0.67880 0.54966 0.89672
 O1785 O 0.41491 0.38230 0.97756
 O1786 O 0.38751 0.35472 0.97767
 C1787 C 0.40666 0.36306 0.96960
 C1788 C 0.41916 0.35064 0.95035
 C1789 C 0.41120 0.32863 0.94226
 H1790 H 0.39641 0.32018 0.95087
 O1791 O 0.58466 0.61757 0.97708
 O1792 O 0.61207 0.64514 0.97698
 C1793 C 0.59290 0.63677 0.96900
 C1794 C 0.58030 0.64909 0.94974
 C1795 C 0.58815 0.67111 0.94151
 H1796 H 0.60330 0.67940 0.94964
 O1797 O 0.41474 0.52229 0.88281
 O1798 O 0.38737 0.52229 0.85526
 C1799 C 0.40653 0.53033 0.86363
 C1800 C 0.41912 0.54961 0.85131
 C1801 C 0.41139 0.55768 0.82924
 H1802 H 0.39635 0.54940 0.82090
 O1803 O 0.58467 0.47670 0.88299
 O1804 O 0.61206 0.47672 0.85544
 C1805 C 0.59292 0.46865 0.86382
 C1806 C 0.58042 0.44931 0.85151
 C1807 C 0.58833 0.44113 0.82955
 H1808 H 0.60346 0.44935 0.82130
 O1809 O 0.52290 0.38215 0.91541
 O1810 O 0.52300 0.35449 0.88814
 C1811 C 0.53102 0.36295 0.90723
 C1812 C 0.55038 0.35071 0.91979
 C1813 C 0.55873 0.32877 0.91187
 H1814 H 0.55062 0.32048 0.89672
 O1815 O 0.47657 0.61724 0.91509
 O1816 O 0.47645 0.64476 0.88766
 C1817 C 0.46845 0.63640 0.90682
 C1818 C 0.44913 0.64869 0.91936
 C1819 C 0.44085 0.67066 0.91146
 H1820 H 0.44897 0.67894 0.89630
 O1821 O 0.38234 0.58447 0.97710
 O1822 O 0.35478 0.61189 0.97708
 C1823 C 0.36316 0.59273 0.96904
 C1824 C 0.35087 0.58025 0.94970
 C1825 C 0.32895 0.58829 0.94147
 H1826 H 0.32048 0.60308 0.95007
 O1827 O 0.61738 0.41482 0.97736
 O1828 O 0.64497 0.38743 0.97736
 C1829 C 0.63657 0.40657 0.96930
 C1830 C 0.64882 0.41910 0.94994
 C1831 C 0.67075 0.41116 0.94160
 H1832 H 0.67905 0.39599 0.94970
 O1833 O 0.47667 0.58473 0.88308
 O1834 O 0.47658 0.61211 0.85549
 C1835 C 0.46863 0.59291 0.86387
 C1836 C 0.44946 0.58023 0.85150
 C1837 C 0.44151 0.58800 0.82942
 H1838 H 0.45016 0.60276 0.82092
 O1839 O 0.52274 0.41440 0.88312
 O1840 O 0.52286 0.38688 0.85569
 C1841 C 0.53082 0.40612 0.86398
 C1842 C 0.55006 0.41871 0.85162
 C1843 C 0.55822 0.41079 0.82965
 H1844 H 0.54965 0.39598 0.82119
 O1845 O 0.61693 0.47682 0.91524
 O1846 O 0.64443 0.47684 0.88781
 C1847 C 0.63612 0.46881 0.90698
 C1848 C 0.64855 0.44954 0.91947
 C1849 C 0.67047 0.44140 0.91141
 H1850 H 0.67886 0.45001 0.89659
 O1851 O 0.38235 0.52242 0.91492
 O1852 O 0.35481 0.52242 0.88754
 C1853 C 0.36317 0.53049 0.90667
 C1854 C 0.35084 0.54983 0.91919
 C1855 C 0.32893 0.55815 0.91120
 H1856 H 0.32073 0.55005 0.89600
 O1857 O 0.41449 0.61691 0.97711
 O1858 O 0.38703 0.64445 0.97710
 C1859 C 0.40620 0.63611 0.96908
 C1860 C 0.41869 0.64851 0.94981
 C1861 C 0.41068 0.67048 0.94168
 H1862 H 0.39588 0.67893 0.95030
 O1863 O 0.58507 0.38256 0.97747
 O1864 O 0.61252 0.35503 0.97749
 C1865 C 0.59335 0.36336 0.96946
 C1866 C 0.58085 0.35095 0.95020
 C1867 C 0.58892 0.32900 0.94206
 H1868 H 0.60374 0.32059 0.95065
 O1869 O 0.58454 0.52272 0.88296
 O1870 O 0.61194 0.52276 0.85543
 C1871 C 0.59277 0.53077 0.86378
 C1872 C 0.58024 0.55006 0.85144
 C1873 C 0.58813 0.55812 0.82943
 H1874 H 0.60285 0.54944 0.82093
 O1875 O 0.41457 0.47627 0.88279
 O1876 O 0.38717 0.47618 0.85527
 C1877 C 0.40632 0.46813 0.86365
 C1878 C 0.41885 0.44873 0.85143
 C1879 C 0.41087 0.44032 0.82956
 H1880 H 0.39567 0.44841 0.82132
 O1881 O 0.52255 0.61729 0.91517
 O1882 O 0.52248 0.64480 0.88773
 C1883 C 0.53054 0.63649 0.90688
 C1884 C 0.54981 0.64892 0.91935
 C1885 C 0.55788 0.67094 0.91139
 H1886 H 0.54922 0.67939 0.89665
 O1887 O 0.47692 0.38204 0.91548
 O1888 O 0.47696 0.35437 0.88822
 C1889 C 0.46891 0.36279 0.90733
 C1890 C 0.44964 0.35047 0.91992
 C1891 C 0.44141 0.32847 0.91206
 H1892 H 0.44955 0.32020 0.89692
 O1893 O 0.61692 0.58526 0.97705
 O1894 O 0.64449 0.61267 0.97694
 C1895 C 0.63610 0.59348 0.96896
 C1896 C 0.64841 0.58086 0.94970
 C1897 C 0.67041 0.58871 0.94149
 H1898 H 0.67869 0.60388 0.94960
 O1899 O 0.38263 0.41461 0.97749
 O1900 O 0.35510 0.38715 0.97761
 C1901 C 0.36344 0.40631 0.96951
 C1902 C 0.35105 0.41876 0.95020
 C1903 C 0.32906 0.41078 0.94215
 H1904 H 0.32058 0.39604 0.95085
 Cu1905 Cu 0.49982 0.40096 0.90202
 Cu1906 Cu 0.49992 0.36783 0.86919
 Cu1907 Cu 0.49961 0.59833 0.90183
 Cu1908 Cu 0.49950 0.63128 0.86879
 Cu1909 Cu 0.40127 0.49935 0.90165
 Cu1910 Cu 0.36830 0.49930 0.86871
 Cu1911 Cu 0.59798 0.49976 0.90184
 Cu1912 Cu 0.63095 0.49980 0.86885
 C1913 C 0.43823 0.43771 0.86219
 H1914 H 0.44427 0.44387 0.87920
 C1915 C 0.42190 0.42102 0.81860
 C1916 C 0.56096 0.56128 0.86215
 H1917 H 0.55499 0.55535 0.87928
 C1918 C 0.57716 0.57733 0.81827
 C1919 C 0.36172 0.43807 0.93896
 H1920 H 0.37884 0.44410 0.94487
 C1921 C 0.31786 0.42170 0.92296
 C1922 C 0.63762 0.56150 0.93865
 H1923 H 0.62050 0.55556 0.94466
 C1924 C 0.68150 0.57757 0.92235
 C1925 C 0.43853 0.36129 0.93921
 H1926 H 0.44456 0.37841 0.94514
 C1927 C 0.42219 0.31742 0.92311
 C1928 C 0.56099 0.63827 0.93867
 H1929 H 0.55506 0.62114 0.94469
 C1930 C 0.57705 0.68216 0.92234
 C1931 C 0.43831 0.56088 0.86219
 H1932 H 0.44415 0.55500 0.87936
 C1933 C 0.42248 0.57687 0.81817
 C1934 C 0.56114 0.43811 0.86228
 H1935 H 0.55515 0.44410 0.87937
 C1936 C 0.57735 0.42188 0.81848
 C1937 C 0.56144 0.36154 0.93910
 H1938 H 0.55533 0.37862 0.94508
 C1939 C 0.57800 0.31778 0.92289
 C1940 C 0.43807 0.63788 0.93868
 H1941 H 0.44413 0.62078 0.94465
 C1942 C 0.42161 0.68169 0.92251
 C1943 C 0.36155 0.56087 0.93858
 H1944 H 0.37860 0.55478 0.94462
 C1945 C 0.31785 0.57739 0.92222
 C1946 C 0.63799 0.43843 0.93888
 H1947 H 0.62092 0.44443 0.94498
 C1948 C 0.68170 0.42219 0.92231
 O1949 O 0.52292 0.41496 1.11783
 O1950 O 0.52300 0.38753 1.14536
 C1951 C 0.53101 0.40672 1.13699
 C1952 C 0.55032 0.41927 1.14927
 C1953 C 0.55851 0.41134 1.17121
 H1954 H 0.54992 0.39656 1.17972
 O1955 O 0.47682 0.58509 1.11751
 O1956 O 0.47675 0.61263 1.14491
 C1957 C 0.46874 0.59341 1.13664
 C1958 C 0.44944 0.58093 1.14902
 C1959 C 0.44125 0.58902 1.17090
 H1960 H 0.44986 0.60384 1.17930
 O1961 O 0.38240 0.52293 1.08557
 O1962 O 0.35483 0.52295 1.11294
 C1963 C 0.36318 0.53097 1.09379
 C1964 C 0.35080 0.55020 1.08118
 C1965 C 0.32890 0.55855 1.08917
 H1966 H 0.32073 0.55053 1.10444
 O1967 O 0.61717 0.47708 1.08531
 O1968 O 0.64477 0.47717 1.11264
 C1969 C 0.63639 0.46909 1.09353
 C1970 C 0.64878 0.44980 1.08102
 C1971 C 0.67078 0.44170 1.08893
 H1972 H 0.67924 0.45033 1.10369
 O1973 O 0.58507 0.38271 1.02340
 O1974 O 0.61251 0.35517 1.02347
 C1975 C 0.59334 0.36354 1.03149
 C1976 C 0.58084 0.35121 1.05082
 C1977 C 0.58879 0.32922 1.05894
 H1978 H 0.60355 0.32073 1.05030
 O1979 O 0.41459 0.61683 1.02304
 O1980 O 0.38714 0.64437 1.02303
 C1981 C 0.40632 0.63603 1.03105
 C1982 C 0.41883 0.64845 1.05030
 C1983 C 0.41086 0.67047 1.05835
 H1984 H 0.39607 0.67891 1.04973
 O1985 O 0.41482 0.47701 1.11779
 O1986 O 0.38738 0.47695 1.14529
 C1987 C 0.40656 0.46893 1.13694
 C1988 C 0.41907 0.44960 1.14927
 C1989 C 0.41105 0.44140 1.17117
 H1990 H 0.39625 0.45001 1.17961
 O1991 O 0.58486 0.52310 1.11751
 O1992 O 0.61234 0.52324 1.14495
 C1993 C 0.59315 0.53123 1.13662
 C1994 C 0.58065 0.55057 1.14892
 C1995 C 0.58867 0.55881 1.17081
 H1996 H 0.60347 0.55021 1.17926
 O1997 O 0.47702 0.38256 1.08564
 O1998 O 0.47704 0.35498 1.11301
 C1999 C 0.46900 0.36334 1.09387
 C2000 C 0.44976 0.35096 1.08131
 C2001 C 0.44161 0.32893 1.08919
 H2002 H 0.44979 0.32068 1.10433
 O2003 O 0.52275 0.61739 1.08514
 O2004 O 0.52269 0.64504 1.11243
 C2005 C 0.53075 0.63663 1.09332
 C2006 C 0.55003 0.64900 1.08080
 C2007 C 0.55819 0.67097 1.08877
 H2008 H 0.54959 0.67943 1.10355
 O2009 O 0.38270 0.41477 1.02344
 O2010 O 0.35518 0.38732 1.02357
 C2011 C 0.36353 0.40652 1.03153
 C2012 C 0.35117 0.41909 1.05077
 C2013 C 0.32914 0.41121 1.05882
 H2014 H 0.32064 0.39646 1.05017
 O2015 O 0.61690 0.58521 1.02297
 O2016 O 0.64448 0.61262 1.02292
 C2017 C 0.63611 0.59345 1.03097
 C2018 C 0.64848 0.58089 1.05022
 C2019 C 0.67055 0.58874 1.05819
 H2020 H 0.67906 0.60345 1.04950
 O2021 O 0.52280 0.58523 1.11753
 O2022 O 0.52278 0.61275 1.14496
 C2023 C 0.53085 0.59356 1.13667
 C2024 C 0.55018 0.58106 1.14899
 C2025 C 0.55849 0.58908 1.17088
 H2026 H 0.55037 0.60429 1.17908
 O2027 O 0.47693 0.41481 1.11792
 O2028 O 0.47694 0.38738 1.14545
 C2029 C 0.46887 0.40654 1.13708
 C2030 C 0.44953 0.41909 1.14938
 C2031 C 0.44122 0.41111 1.17129
 H2032 H 0.44933 0.39591 1.17952
 O2033 O 0.61708 0.52309 1.08522
 O2034 O 0.64471 0.52321 1.11251
 C2035 C 0.63629 0.53119 1.09337
 C2036 C 0.64859 0.55045 1.08072
 C2037 C 0.67066 0.55858 1.08845
 H2038 H 0.67896 0.55039 1.10355
 O2039 O 0.38254 0.47695 1.08558
 O2040 O 0.35495 0.47689 1.11292
 C2041 C 0.36335 0.46887 1.09379
 C2042 C 0.35105 0.44957 1.08121
 C2043 C 0.32902 0.44140 1.08903
 H2044 H 0.32073 0.44959 1.10414
 O2045 O 0.58475 0.61762 1.02300
 O2046 O 0.61217 0.64518 1.02298
 C2047 C 0.59302 0.63682 1.03104
 C2048 C 0.58049 0.64914 1.05034
 C2049 C 0.58843 0.67111 1.05860
 H2050 H 0.60360 0.67936 1.05047
 O2051 O 0.41499 0.38247 1.02349
 O2052 O 0.38759 0.35489 1.02362
 C2053 C 0.40676 0.36329 1.03159
 C2054 C 0.41931 0.35097 1.05087
 C2055 C 0.41144 0.32894 1.05899
 H2056 H 0.39670 0.32040 1.05037
 O2057 O 0.58501 0.47708 1.11768
 O2058 O 0.61246 0.47716 1.14515
 C2059 C 0.59330 0.46907 1.13685
 C2060 C 0.58078 0.44976 1.14924
 C2061 C 0.58875 0.44155 1.17118
 H2062 H 0.60394 0.44972 1.17936
 O2063 O 0.41466 0.52303 1.11781
 O2064 O 0.38726 0.52305 1.14534
 C2065 C 0.40640 0.53111 1.13696
 C2066 C 0.41894 0.55047 1.14922
 C2067 C 0.41098 0.55884 1.17111
 H2068 H 0.39578 0.55075 1.17936
 O2069 O 0.47676 0.61725 1.08514
 O2070 O 0.47666 0.64493 1.11240
 C2071 C 0.46865 0.63646 1.09330
 C2072 C 0.44932 0.64870 1.08071
 C2073 C 0.44107 0.67071 1.08852
 H2074 H 0.44922 0.67903 1.10363
 O2075 O 0.52300 0.38263 1.08565
 O2076 O 0.52308 0.35504 1.11302
 C2077 C 0.53110 0.36343 1.09388
 C2078 C 0.55041 0.35112 1.08131
 C2079 C 0.55865 0.32912 1.08920
 H2080 H 0.55052 0.32086 1.10435
 O2081 O 0.61739 0.41495 1.02329
 O2082 O 0.64498 0.38755 1.02335
 C2083 C 0.63659 0.40673 1.03134
 C2084 C 0.64891 0.41933 1.05058
 C2085 C 0.67091 0.41146 1.05877
 H2086 H 0.67918 0.39630 1.05062
 O2087 O 0.38224 0.58460 1.02308
 O2088 O 0.35468 0.61202 1.02306
 C2089 C 0.36306 0.59288 1.03113
 C2090 C 0.35077 0.58046 1.05052
 C2091 C 0.32886 0.58852 1.05873
 H2092 H 0.32038 0.60328 1.05007
 Cu2093 Cu 0.49996 0.40149 1.09902
 Cu2094 Cu 0.50002 0.36847 1.13197
 Cu2095 Cu 0.49979 0.59848 1.09860
 Cu2096 Cu 0.49971 0.63161 1.13142
 Cu2097 Cu 0.40156 0.40129 1.00048
 Cu2098 Cu 0.36858 0.36826 1.00064
 Cu2099 Cu 0.59849 0.40151 1.00037
 Cu2100 Cu 0.63150 0.36853 1.00043
 Cu2101 Cu 0.40116 0.59794 1.00008
 Cu2102 Cu 0.36814 0.63093 1.00007
 Cu2103 Cu 0.59806 0.59868 1.00002
 Cu2104 Cu 0.63107 0.63166 0.99995
 Cu2105 Cu 0.40136 0.49999 1.09895
 Cu2106 Cu 0.36835 0.49995 1.13189
 Cu2107 Cu 0.59827 0.50007 1.09870
 Cu2108 Cu 0.63133 0.50021 1.13157
 C2109 C 0.56143 0.43863 1.13855
 H2110 H 0.55540 0.44464 1.12148
 C2111 C 0.57773 0.42234 1.18229
 C2112 C 0.43831 0.56151 1.13844
 H2113 H 0.44433 0.55540 1.12141
 C2114 C 0.42201 0.57813 1.18207
 C2115 C 0.36147 0.56114 1.06171
 H2116 H 0.37852 0.55504 1.05567
 C2117 C 0.31780 0.57773 1.07807
 C2118 C 0.63811 0.43865 1.06169
 H2119 H 0.62099 0.44460 1.05569
 C2120 C 0.68197 0.42252 1.07795
 C2121 C 0.56150 0.36190 1.06198
 H2122 H 0.55547 0.37902 1.05601
 C2123 C 0.57785 0.31804 1.07813
 C2124 C 0.43821 0.63783 1.06145
 H2125 H 0.44425 0.62070 1.05553
 C2126 C 0.42184 0.68172 1.07746
 C2127 C 0.43846 0.43847 1.13863
 H2128 H 0.44453 0.44450 1.12158
 C2129 C 0.42196 0.42215 1.18231
 C2130 C 0.56126 0.56166 1.13828
 H2131 H 0.55518 0.55560 1.12125
 C2132 C 0.57775 0.57807 1.18191
 C2133 C 0.43862 0.36172 1.06200
 H2134 H 0.44458 0.37886 1.05604
 C2135 C 0.42245 0.31778 1.07814
 C2136 C 0.56115 0.63835 1.06143
 H2137 H 0.55515 0.62126 1.05540
 C2138 C 0.57740 0.68215 1.07783
 C2139 C 0.36187 0.43842 1.06194
 H2140 H 0.37901 0.44439 1.05603
 C2141 C 0.31793 0.42223 1.07794
 C2142 C 0.63776 0.56160 1.06145
 H2143 H 0.62059 0.55565 1.05560
 C2144 C 0.68177 0.57771 1.07730
 C2145 C 1.10480 1.10472 1.24778
 C2146 C 1.09782 1.12041 1.23009
 C2147 C 1.08890 1.11185 1.20882
 C2148 C 1.12242 1.12147 1.28750
 C2149 C 1.09382 1.07178 1.22287
 C2150 C 1.10273 1.08040 1.24415
 C2151 C 1.11434 1.11367 1.26948
 C2152 C 1.08684 1.08743 1.20494
 H2153 H 1.09944 1.13928 1.23267
 H2154 H 1.08402 1.12433 1.19524
 H2155 H 1.09221 1.05290 1.22050
 H2156 H 1.10805 1.06809 1.25775
 C2157 C 1.10459 0.60364 0.74777
 C2158 C 1.12017 0.59668 0.73000
 C2159 C 1.11151 0.58799 0.70868
 C2160 C 1.12157 0.62087 0.78755
 C2161 C 1.07153 0.59315 0.72284
 C2162 C 1.08025 0.60183 0.74417
 C2163 C 1.11366 0.61294 0.76952
 C2164 C 1.08708 0.58615 0.70484
 H2165 H 1.13904 0.59812 0.73256
 H2166 H 1.12391 0.58310 0.69504
 H2167 H 1.05265 0.59171 0.72048
 H2168 H 1.06803 0.60717 0.75782
 C2169 C 0.60433 1.10448 0.74720
 C2170 C 0.59730 1.12022 0.72958
 C2171 C 0.58839 1.11172 0.70828
 C2172 C 0.62202 1.12111 0.78693
 C2173 C 0.59341 1.07161 0.72218
 C2174 C 0.60231 1.08016 0.74349
 C2175 C 0.61390 1.11336 0.76891
 C2176 C 0.58639 1.08730 0.70431
 H2177 H 0.59887 1.13908 0.73223
 H2178 H 0.58347 1.12424 0.69475
 H2179 H 0.59185 1.05273 0.71973
 H2180 H 0.60768 1.06782 0.75703
 C2181 C 0.60457 0.60463 1.24753
 C2182 C 0.62012 0.59765 1.22973
 C2183 C 0.61139 0.58896 1.20843
 C2184 C 0.62164 0.62177 1.28732
 C2185 C 0.57145 0.59418 1.22266
 C2186 C 0.58023 0.60287 1.24397
 C2187 C 0.61370 0.61388 1.26928
 C2188 C 0.58695 0.58713 1.20465
 H2189 H 0.63899 0.59906 1.23225
 H2190 H 0.62377 0.58403 1.19478
 H2191 H 0.55256 0.59276 1.22035
 H2192 H 0.56804 0.60822 1.25765
 C2193 C 0.89580 0.89598 1.24790
 C2194 C 0.92013 0.89774 1.24422
 C2195 C 0.92880 0.90648 1.22288
 C2196 C 0.87892 0.87868 1.28772
 C2197 C 0.88880 0.91180 1.20888
 C2198 C 0.88018 0.90305 1.23021
 C2199 C 0.88678 0.88664 1.26967
 C2200 C 0.91322 0.91359 1.20496
 H2201 H 0.93238 0.89233 1.25781
 H2202 H 0.94768 0.90788 1.22046
 H2203 H 0.87636 0.91678 1.19531
 H2204 H 0.86131 0.90166 1.23284
 C2205 C 0.89573 0.39532 0.74744
 C2206 C 0.89769 0.41964 0.74372
 C2207 C 0.90652 0.42822 0.72237
 C2208 C 0.87825 0.37864 0.78727
 C2209 C 0.91156 0.38813 0.70845
 C2210 C 0.90273 0.37960 0.72979
 C2211 C 0.88627 0.38641 0.76920
 C2212 C 0.91351 0.41255 0.70448
 H2213 H 0.89235 0.43197 0.75728
 H2214 H 0.90804 0.44710 0.71993
 H2215 H 0.91646 0.37562 0.69491
 H2216 H 0.90119 0.36074 0.73245
 C2217 C 0.39571 0.89585 0.74764
 C2218 C 0.39771 0.92018 0.74397
 C2219 C 0.40660 0.92878 0.72266
 C2220 C 0.37804 0.87912 0.78736
 C2221 C 0.41164 0.88870 0.70869
 C2222 C 0.40274 0.88015 0.72999
 C2223 C 0.38615 0.88692 0.76935
 C2224 C 0.41362 0.91313 0.70476
 H2225 H 0.39235 0.93249 0.75753
 H2226 H 0.40815 0.94766 0.72025
 H2227 H 0.41655 0.87621 0.69514
 H2228 H 0.40117 0.86129 0.73261
 C2229 C 0.39508 0.39571 1.24800
 C2230 C 0.41943 0.39744 1.24443
 C2231 C 0.42823 0.40609 1.22310
 C2232 C 0.37799 0.37862 1.28783
 C2233 C 0.38830 0.41132 1.20887
 C2234 C 0.37956 0.40268 1.23019
 C2235 C 0.38593 0.38650 1.26977
 C2236 C 0.41274 0.41313 1.20507
 H2237 H 0.43161 0.39210 1.25812
 H2238 H 0.44711 0.40749 1.22078
 H2239 H 0.37593 0.41625 1.19521
 H2240 H 0.36068 0.40130 1.23272
 C2241 C 0.89467 1.10488 0.75258
 C2242 C 0.89670 1.08053 0.75615
 C2243 C 0.90574 1.07185 0.77736
 C2244 C 0.87687 1.12176 0.71298
 C2245 C 0.91087 1.11187 0.79144
 C2246 C 0.90182 1.12051 0.77025
 C2247 C 0.88503 1.11389 0.73094
 C2248 C 0.91290 1.08743 0.79527
 H2249 H 0.89125 1.06827 0.74258
 H2250 H 0.90732 1.05296 0.77969
 H2251 H 0.91589 1.12431 0.80501
 H2252 H 0.90025 1.13938 0.76770
 C2253 C 0.89694 0.60366 0.25195
 C2254 C 0.89895 0.57936 0.25576
 C2255 C 0.90762 0.57090 0.27721
 C2256 C 0.87964 0.62019 0.21202
 C2257 C 0.91238 0.61107 0.29102
 C2258 C 0.90371 0.61948 0.26959
 C2259 C 0.88760 0.61247 0.23011
 C2260 C 0.91439 0.58667 0.29509
 H2261 H 0.89377 0.56697 0.24221
 H2262 H 0.90920 0.55203 0.27974
 H2263 H 0.91711 0.62364 0.30456
 H2264 H 0.90212 0.63833 0.26685
 C2265 C 0.39553 1.10383 0.25225
 C2266 C 0.40232 1.11954 0.26998
 C2267 C 0.41096 1.11100 0.29137
 C2268 C 0.37844 1.12060 0.21232
 C2269 C 0.40612 1.07091 0.27736
 C2270 C 0.39748 1.07951 0.25595
 C2271 C 0.38631 1.11278 0.23042
 C2272 C 0.41294 1.08658 0.29532
 H2273 H 0.40078 1.13841 0.26734
 H2274 H 0.41572 1.12350 0.30497
 H2275 H 0.40767 1.05203 0.27980
 H2276 H 0.39229 1.06719 0.24233
 C2277 C 0.39666 0.60288 0.75195
 C2278 C 0.39856 0.57856 0.75577
 C2279 C 0.40704 0.57005 0.77727
 C2280 C 0.37977 0.61952 0.71190
 C2281 C 0.41177 0.61020 0.79116
 C2282 C 0.40330 0.61866 0.76968
 C2283 C 0.38756 0.61174 0.73005
 C2284 C 0.41372 0.58579 0.79521
 H2285 H 0.39347 0.56620 0.74215
 H2286 H 0.40857 0.55118 0.77980
 H2287 H 0.41643 0.62275 0.80475
 H2288 H 0.40178 0.63751 0.76695
 C2289 C 1.10412 0.89603 0.75235
 C2290 C 1.09723 0.88029 0.77003
 C2291 C 1.08841 0.88880 0.79137
 C2292 C 1.12167 0.87935 0.71259
 C2293 C 1.09326 0.92891 0.77739
 C2294 C 1.10207 0.92035 0.75604
 C2295 C 1.11360 0.88713 0.73061
 C2296 C 1.08637 0.91321 0.79531
 H2297 H 1.09884 0.86143 0.76739
 H2298 H 1.08359 0.87629 0.80494
 H2299 H 1.09166 0.94778 0.77982
 H2300 H 1.10734 0.93268 0.74245
 C2301 C 1.10387 0.39658 0.25201
 C2302 C 1.10189 0.42089 0.25576
 C2303 C 1.09323 0.42942 0.27718
 C2304 C 1.12114 0.37995 0.21211
 C2305 C 1.08842 0.38929 0.29111
 C2306 C 1.09708 0.38081 0.26971
 C2307 C 1.11319 0.38771 0.23019
 C2308 C 1.08643 0.41370 0.29511
 H2309 H 1.10709 0.43324 0.24216
 H2310 H 1.09167 0.44829 0.27967
 H2311 H 1.08367 0.37676 0.30469
 H2312 H 1.09865 0.36196 0.26702
 C2313 C 0.60369 0.89553 0.25199
 C2314 C 0.60172 0.91987 0.25562
 C2315 C 0.59296 0.92852 0.27696
 C2316 C 0.62115 0.87874 0.21221
 C2317 C 0.58803 0.88847 0.29106
 C2318 C 0.59680 0.87987 0.26974
 C2319 C 0.61311 0.88655 0.23025
 C2320 C 0.58604 0.91290 0.29494
 H2321 H 0.60699 0.93215 0.24199
 H2322 H 0.59140 0.94740 0.27933
 H2323 H 0.58320 0.87601 0.30468
 H2324 H 0.59836 0.86100 0.26716
 C2325 C 0.60420 0.39569 0.75270
 C2326 C 0.59724 0.37995 0.77036
 C2327 C 0.58838 0.38846 0.79168
 C2328 C 0.62175 0.37905 0.71291
 C2329 C 0.59331 0.42857 0.77774
 C2330 C 0.60217 0.42001 0.75641
 C2331 C 0.61369 0.38681 0.73095
 C2332 C 0.58635 0.41287 0.79563
 H2333 H 0.59883 0.36110 0.76771
 H2334 H 0.58351 0.37594 0.80523
 H2335 H 0.59173 0.44744 0.78018
 H2336 H 0.60748 0.43235 0.74284
 C2337 C 1.24797 1.10373 1.10395
 C2338 C 1.24414 1.07942 1.10215
 C2339 C 1.22273 1.07089 1.09342
 C2340 C 1.28783 1.12032 1.12143
 C2341 C 1.20898 1.11102 1.08815
 C2342 C 1.23037 1.11950 1.09689
 C2343 C 1.26977 1.11259 1.11338
 C2344 C 1.20489 1.08661 1.08637
 H2345 H 1.25766 1.06706 1.10756
 H2346 H 1.22019 1.05201 1.09202
 H2347 H 1.19546 1.12356 1.08320
 H2348 H 1.23312 1.13836 1.09831
 C2349 C 1.24831 0.60329 0.60326
 C2350 C 1.24446 0.57898 0.60144
 C2351 C 1.22297 0.57047 0.59291
 C2352 C 1.28836 0.61987 0.62030
 C2353 C 1.20914 0.61062 0.58794
 C2354 C 1.23062 0.61907 0.59647
 C2355 C 1.27021 0.61214 0.61244
 C2356 C 1.20505 0.58621 0.58608
 H2357 H 1.25805 0.56661 0.60665
 H2358 H 1.22042 0.55160 0.59146
 H2359 H 1.19558 0.62317 0.58317
 H2360 H 1.23338 0.63793 0.59792
 C2361 C 0.74736 1.10499 0.60490
 C2362 C 0.74372 1.08065 0.60301
 C2363 C 0.72251 1.07197 0.59393
 C2364 C 0.78694 1.12184 0.62284
 C2365 C 0.70856 1.11200 0.58845
 C2366 C 0.72976 1.12063 0.59754
 C2367 C 0.76898 1.11399 0.61462
 C2368 C 0.70466 1.08756 0.58660
 H2369 H 0.75724 1.06838 0.60862
 H2370 H 0.72013 1.05308 0.59249
 H2371 H 0.69504 1.12445 0.58330
 H2372 H 0.73235 1.13951 0.59901
 C2373 C 0.74793 0.60376 1.10343
 C2374 C 0.74410 0.57944 1.10159
 C2375 C 0.72263 0.57093 1.09298
 C2376 C 0.78792 0.62034 1.12061
 C2377 C 0.70882 0.61107 1.08793
 C2378 C 0.73027 0.61953 1.09654
 C2379 C 0.76980 0.61261 1.11270
 C2380 C 0.70474 0.58666 1.08609
 H2381 H 0.75766 0.56708 1.10686
 H2382 H 0.72009 0.55205 1.09154
 H2383 H 0.69527 0.62362 1.08310
 H2384 H 0.73302 0.63839 1.09800
 C2385 C 1.24754 0.89568 0.89537
 C2386 C 1.24403 0.89759 0.91968
 C2387 C 1.22270 0.90631 0.92846
 C2388 C 1.28735 0.87843 0.87832
 C2389 C 1.20836 0.91129 0.88858
 C2390 C 1.22968 0.90256 0.87985
 C2391 C 1.26930 0.88637 0.88625
 C2392 C 1.20462 0.91325 0.91299
 H2393 H 1.25775 0.89231 0.93185
 H2394 H 1.22043 0.90783 0.94732
 H2395 H 1.19467 0.91613 0.87622
 H2396 H 1.23216 0.90105 0.86100
 C2397 C 1.24805 0.39610 0.39479
 C2398 C 1.24452 0.39787 0.41911
 C2399 C 1.22318 0.40653 0.42792
 C2400 C 1.28787 0.37889 0.37772
 C2401 C 1.20887 0.41173 0.38805
 C2402 C 1.23019 0.40306 0.37930
 C2403 C 1.26981 0.38683 0.38564
 C2404 C 1.20510 0.41355 0.41247
 H2405 H 1.25823 0.39254 0.43126
 H2406 H 1.22088 0.40795 0.44679
 H2407 H 1.19518 0.41663 0.37572
 H2408 H 1.23269 0.40165 0.36044
 C2409 C 0.74777 0.89646 0.39492
 C2410 C 0.72992 0.90323 0.37934
 C2411 C 0.70854 0.91185 0.38798
 C2412 C 0.78769 0.87932 0.37805
 C2413 C 0.72278 0.90700 0.42792
 C2414 C 0.74418 0.89839 0.41922
 C2415 C 0.76959 0.88722 0.38589
 C2416 C 0.70471 0.91382 0.41238
 H2417 H 0.73247 0.90170 0.36050
 H2418 H 0.69485 0.91661 0.37558
 H2419 H 0.72043 0.90854 0.44677
 H2420 H 0.75789 0.89320 0.43144
 C2421 C 0.74747 0.39603 0.89524
 C2422 C 0.72953 0.40288 0.87980
 C2423 C 0.70818 0.41141 0.88860
 C2424 C 0.78735 0.37913 0.87805
 C2425 C 0.72261 0.40630 0.92844
 C2426 C 0.74398 0.39777 0.91958
 C2427 C 0.76927 0.38693 0.88603
 C2428 C 0.70447 0.41323 0.91303
 H2429 H 0.73200 0.40148 0.86093
 H2430 H 0.69444 0.41624 0.87629
 H2431 H 0.72035 0.40771 0.94731
 H2432 H 0.75776 0.39251 0.93169
 C2433 C 0.75229 0.89654 1.10459
 C2434 C 0.76997 0.88085 1.09758
 C2435 C 0.79133 0.88941 1.08882
 C2436 C 0.71243 0.87974 1.12191
 C2437 C 0.77739 0.92949 1.09398
 C2438 C 0.75601 0.92088 1.10274
 C2439 C 0.73050 0.88758 1.11395
 C2440 C 0.79530 0.91384 1.08695
 H2441 H 0.76731 0.86198 1.09904
 H2442 H 0.80490 0.87692 1.08390
 H2443 H 0.77984 0.94837 1.09252
 H2444 H 0.74242 0.93318 1.10810
 C2445 C 0.75213 0.39546 0.60437
 C2446 C 0.76979 0.37980 0.59721
 C2447 C 0.79110 0.38841 0.58837
 C2448 C 0.71234 0.37862 0.62186
 C2449 C 0.77715 0.42846 0.59374
 C2450 C 0.75583 0.41980 0.60258
 C2451 C 0.73038 0.38646 0.61383
 C2452 C 0.79505 0.41285 0.58657
 H2453 H 0.76715 0.36093 0.59862
 H2454 H 0.80466 0.37595 0.58334
 H2455 H 0.77958 0.44735 0.59234
 H2456 H 0.74226 0.43208 0.60805
 C2457 C 0.25235 0.89538 0.60455
 C2458 C 0.25603 0.91973 0.60276
 C2459 C 0.27739 0.92841 0.59403
 C2460 C 0.21249 0.87851 0.62183
 C2461 C 0.29142 0.88837 0.58879
 C2462 C 0.27008 0.87974 0.59752
 C2463 C 0.23056 0.88636 0.61388
 C2464 C 0.29534 0.91281 0.58696
 H2465 H 0.24241 0.93199 0.60814
 H2466 H 0.27979 0.94730 0.59261
 H2467 H 0.30502 0.87592 0.58384
 H2468 H 0.26746 0.86086 0.59894
 C2469 C 0.25186 0.39600 1.10416
 C2470 C 0.26957 0.38027 1.09729
 C2471 C 0.29100 0.38880 1.08867
 C2472 C 0.21188 0.37930 1.12131
 C2473 C 0.27707 0.42890 1.09370
 C2474 C 0.25563 0.42032 1.10232
 C2475 C 0.23000 0.38708 1.11341
 C2476 C 0.29501 0.41322 1.08680
 H2477 H 0.26687 0.36141 1.09876
 H2478 H 0.30458 0.37629 1.08385
 H2479 H 0.27955 0.44778 1.09224
 H2480 H 0.24202 0.43265 1.10758
 C2481 C 0.75257 1.10466 0.89528
 C2482 C 0.77024 1.12031 0.90241
 C2483 C 0.79154 1.11170 0.91128
 C2484 C 0.71279 1.12151 0.87778
 C2485 C 0.77755 1.07166 0.90599
 C2486 C 0.75624 1.08032 0.89713
 C2487 C 0.73083 1.11366 0.88581
 C2488 C 0.79546 1.08726 0.91314
 H2489 H 0.76762 1.13919 0.90096
 H2490 H 0.80510 1.12416 0.91629
 H2491 H 0.77996 1.05277 0.90744
 H2492 H 0.74267 1.06805 0.89168
 C2493 C 0.75264 0.60425 0.39528
 C2494 C 0.77024 0.61996 0.40246
 C2495 C 0.79155 0.61142 0.41137
 C2496 C 0.71285 0.62097 0.37770
 C2497 C 0.77771 0.57133 0.40603
 C2498 C 0.75639 0.57992 0.39713
 C2499 C 0.73089 0.61318 0.38576
 C2500 C 0.79555 0.58699 0.41321
 H2501 H 0.76756 0.63883 0.40102
 H2502 H 0.80506 0.62392 0.41642
 H2503 H 0.78018 0.55244 0.40746
 H2504 H 0.74287 0.56760 0.39164
 C2505 C 0.25205 1.10416 0.39482
 C2506 C 0.26993 1.09714 0.37938
 C2507 C 0.29121 1.08844 0.38820
 C2508 C 0.21231 1.12139 0.37761
 C2509 C 0.27680 1.09372 0.42802
 C2510 C 0.25551 1.10242 0.41915
 C2511 C 0.23032 1.11345 0.38560
 C2512 C 0.29490 1.08663 0.41263
 H2513 H 0.26748 1.09853 0.36051
 H2514 H 0.30492 1.08348 0.37590
 H2515 H 0.27904 1.09232 0.44690
 H2516 H 0.24177 1.10780 0.43126
 C2517 C 0.25219 0.60421 0.89552
 C2518 C 0.26995 0.61977 0.90261
 C2519 C 0.29124 0.61106 0.91137
 C2520 C 0.21239 0.62125 0.87825
 C2521 C 0.27710 0.57108 0.90602
 C2522 C 0.25579 0.57984 0.89727
 C2523 C 0.23043 0.61332 0.88619
 C2524 C 0.29508 0.58660 0.91316
 H2525 H 0.26739 0.63866 0.90123
 H2526 H 0.30487 0.62345 0.91637
 H2527 H 0.27944 0.55217 0.90742
 H2528 H 0.24214 0.56764 0.89184
 C2529 C 1.10436 1.24841 1.10338
 C2530 C 1.08004 1.24472 1.10157
 C2531 C 1.07139 1.22330 1.09296
 C2532 C 1.12118 1.28834 1.12058
 C2533 C 1.11141 1.20924 1.08785
 C2534 C 1.12001 1.23065 1.09647
 C2535 C 1.11335 1.27025 1.11265
 C2536 C 1.08700 1.20530 1.08602
 H2537 H 1.06777 1.25837 1.10687
 H2538 H 1.05252 1.22087 1.09152
 H2539 H 1.12387 1.19561 1.08300
 H2540 H 1.13887 1.23328 1.09791
 C2541 C 1.10477 0.74756 0.60435
 C2542 C 1.08042 0.74394 0.60269
 C2543 C 1.07166 0.72256 0.59408
 C2544 C 1.12179 0.78747 0.62139
 C2545 C 1.11161 0.70839 0.58874
 C2546 C 1.12032 0.72976 0.59735
 C2547 C 1.11388 0.76938 0.61354
 C2548 C 1.08717 0.70454 0.58700
 H2549 H 1.06823 0.75762 0.60806
 H2550 H 1.05277 0.72019 0.59273
 H2551 H 1.12400 0.69474 0.58378
 H2552 H 1.13919 0.73233 0.59868
 C2553 C 0.60459 1.24793 0.60370
 C2554 C 0.62015 1.23010 0.59673
 C2555 C 0.61144 1.20880 0.58795
 C2556 C 0.62160 1.28768 0.62113
 C2557 C 0.57150 1.22308 0.59302
 C2558 C 0.58025 1.24440 0.60180
 C2559 C 0.61369 1.26966 0.61311
 C2560 C 0.58701 1.20503 0.58602
 H2561 H 0.63902 1.23261 0.59824
 H2562 H 0.62382 1.19512 0.58305
 H2563 H 0.55261 1.22078 0.59152
 H2564 H 0.56806 1.25809 0.60714
 C2565 C 0.60390 0.74797 1.10451
 C2566 C 0.59694 0.73015 1.12007
 C2567 C 0.58825 0.70880 1.11139
 C2568 C 0.62106 0.78785 1.12151
 C2569 C 0.59342 0.72301 1.07147
 C2570 C 0.60211 0.74438 1.08020
 C2571 C 0.61316 0.76978 1.11359
 C2572 C 0.58640 0.70497 1.08698
 H2573 H 0.59836 0.73271 1.13891
 H2574 H 0.58334 0.69514 1.12377
 H2575 H 0.59198 0.72067 1.05261
 H2576 H 0.60744 0.75807 1.06800
 C2577 C 0.89612 1.24814 0.89569
 C2578 C 0.92043 1.24446 0.89761
 C2579 C 0.92904 1.22310 0.90644
 C2580 C 0.87932 1.28792 0.87814
 C2581 C 0.88900 1.20911 0.91157
 C2582 C 0.88044 1.23045 0.90273
 C2583 C 0.88716 1.26989 0.88620
 C2584 C 0.91341 1.20517 0.91348
 H2585 H 0.93272 1.25805 0.89222
 H2586 H 0.94791 1.22067 0.90794
 H2587 H 0.87653 1.19553 0.91650
 H2588 H 0.86159 1.23308 0.90122
 C2589 C 0.89625 0.74815 0.39626
 C2590 C 0.92056 0.74447 0.39824
 C2591 C 0.92914 0.72310 0.40707
 C2592 C 0.87953 0.78793 0.37863
 C2593 C 0.88909 0.70910 0.41207
 C2594 C 0.88055 0.73045 0.40324
 C2595 C 0.88733 0.76990 0.38674
 C2596 C 0.91349 0.70516 0.41403
 H2597 H 0.93286 0.75807 0.39290
 H2598 H 0.94801 0.72067 0.40860
 H2599 H 0.87661 0.69550 0.41694
 H2600 H 0.86170 0.73309 0.40168
 C2601 C 0.39522 1.24800 0.39606
 C2602 C 0.41953 1.24433 0.39800
 C2603 C 0.42816 1.22294 0.40674
 C2604 C 0.37845 1.28784 0.37863
 C2605 C 0.38812 1.20888 0.41173
 C2606 C 0.37955 1.23025 0.40298
 C2607 C 0.38626 1.26978 0.38666
 C2608 C 0.41253 1.20496 0.41367
 H2609 H 0.43182 1.25796 0.39270
 H2610 H 0.44703 1.22053 0.40826
 H2611 H 0.37566 1.19525 0.41657
 H2612 H 0.36070 1.23287 0.40145
 C2613 C 0.39494 0.74753 0.89604
 C2614 C 0.41927 0.74392 0.89787
 C2615 C 0.42799 0.72256 0.90656
 C2616 C 0.37799 0.78738 0.87879
 C2617 C 0.38802 0.70837 0.91169
 C2618 C 0.37935 0.72972 0.90300
 C2619 C 0.38588 0.76932 0.88673
 C2620 C 0.41245 0.70453 0.91355
 H2621 H 0.43149 0.75760 0.89254
 H2622 H 0.44688 0.72020 0.90801
 H2623 H 0.37562 0.69471 0.91659
 H2624 H 0.36049 0.73229 0.90155
 C2625 C 1.10487 0.75230 0.89641
 C2626 C 1.08053 0.75588 0.89822
 C2627 C 1.07177 0.77724 0.90691
 C2628 C 1.12185 0.71246 0.87913
 C2629 C 1.11173 0.79145 0.91208
 C2630 C 1.12043 0.77011 0.90338
 C2631 C 1.11396 0.73052 0.88709
 C2632 C 1.08729 0.79528 0.91392
 H2633 H 1.06832 0.74220 0.89288
 H2634 H 1.05289 0.77958 0.90834
 H2635 H 1.12412 0.80512 0.91698
 H2636 H 1.13930 0.76756 0.90195
 C2637 C 1.10485 0.25227 0.39547
 C2638 C 1.12049 0.27005 0.40237
 C2639 C 1.11187 0.29139 0.41117
 C2640 C 1.12172 0.21246 0.37805
 C2641 C 1.07187 0.27722 0.40626
 C2642 C 1.08053 0.25588 0.39746
 C2643 C 1.11386 0.23051 0.38606
 C2644 C 1.08746 0.29523 0.41319
 H2645 H 1.13934 0.26749 0.40080
 H2646 H 1.12431 0.30503 0.41602
 H2647 H 1.05300 0.27958 0.40783
 H2648 H 1.06828 0.24221 0.39218
 C2649 C 0.60433 0.75226 0.39573
 C2650 C 0.61997 0.77005 0.40258
 C2651 C 0.61137 0.79139 0.41139
 C2652 C 0.62114 0.71249 0.37817
 C2653 C 0.57136 0.77719 0.40660
 C2654 C 0.58001 0.75584 0.39780
 C2655 C 0.61331 0.73051 0.38626
 C2656 C 0.58695 0.79522 0.41346
 H2657 H 0.63882 0.76750 0.40095
 H2658 H 0.62381 0.80505 0.41617
 H2659 H 0.55249 0.77954 0.40822
 H2660 H 0.56775 0.74217 0.39256
 C2661 C 0.60492 0.25212 0.89621
 C2662 C 0.58057 0.25562 0.89808
 C2663 C 0.57177 0.27693 0.90685
 C2664 C 0.62200 0.21241 0.87875
 C2665 C 0.61169 0.29125 0.91199
 C2666 C 0.62044 0.26996 0.90321
 C2667 C 0.61406 0.23041 0.88679
 C2668 C 0.58725 0.29500 0.91388
 H2669 H 0.56840 0.24192 0.89272
 H2670 H 0.55288 0.27921 0.90833
 H2671 H 0.62405 0.30494 0.91690
 H2672 H 0.63931 0.26748 0.90173
 C2673 C 0.89627 0.75201 1.10361
 C2674 C 0.92058 0.75576 1.10176
 C2675 C 0.92916 0.77724 1.09322
 C2676 C 0.87956 0.71196 1.12065
 C2677 C 0.88910 0.79125 1.08830
 C2678 C 0.88057 0.76978 1.09684
 C2679 C 0.88734 0.73011 1.11279
 C2680 C 0.91350 0.79524 1.08641
 H2681 H 0.93288 0.74211 1.10695
 H2682 H 0.94803 0.77972 1.09174
 H2683 H 0.87661 0.80488 1.08355
 H2684 H 0.86172 0.76710 1.09832
 C2685 C 0.89482 0.25234 0.60464
 C2686 C 0.91917 0.25576 0.60263
 C2687 C 0.92799 0.27699 0.59368
 C2688 C 0.87770 0.21272 0.62231
 C2689 C 0.88809 0.29140 0.58864
 C2690 C 0.87932 0.27018 0.59759
 C2691 C 0.88566 0.23068 0.61419
 C2692 C 0.91253 0.29506 0.58661
 H2693 H 0.93133 0.24205 0.60801
 H2694 H 0.94688 0.27920 0.59211
 H2695 H 0.87575 0.30509 0.58370
 H2696 H 0.86044 0.26776 0.59917
 C2697 C 0.39667 0.75153 0.60360
 C2698 C 0.38091 0.76922 0.59678
 C2699 C 0.38936 0.79070 0.58817
 C2700 C 0.38005 0.71144 0.62063
 C2701 C 0.42948 0.77686 0.59314
 C2702 C 0.42097 0.75536 0.60174
 C2703 C 0.38781 0.72960 0.61280
 C2704 C 0.41375 0.79478 0.58627
 H2705 H 0.36207 0.76648 0.59826
 H2706 H 0.37682 0.80427 0.58338
 H2707 H 0.44833 0.77939 0.59166
 H2708 H 0.43332 0.74177 0.60697
 C2709 C 0.39625 0.25178 1.10468
 C2710 C 0.42056 0.25554 1.10281
 C2711 C 0.42913 0.27696 1.09408
 C2712 C 0.37953 0.21183 1.12195
 C2713 C 0.38905 0.29087 1.08899
 C2714 C 0.38054 0.26947 1.09773
 C2715 C 0.38734 0.22994 1.11401
 C2716 C 0.41345 0.29488 1.08709
 H2717 H 0.43288 0.24195 1.10813
 H2718 H 0.44799 0.27944 1.09259
 H2719 H 0.37655 0.30444 1.08411
 H2720 H 0.36169 0.26678 1.09920
 C2721 C 1.10368 1.10414 0.75198
 C2722 C 1.10190 1.07980 0.75572
 C2723 C 1.09332 1.07117 0.77714
 C2724 C 1.12075 1.12092 0.71203
 C2725 C 1.08824 1.11125 0.79111
 C2726 C 1.09682 1.11982 0.76971
 C2727 C 1.11288 1.11311 0.73014
 C2728 C 1.08640 1.08682 0.79508
 H2729 H 1.10716 1.06751 0.74210
 H2730 H 1.09188 1.05229 0.77960
 H2731 H 1.08340 1.12373 0.80471
 H2732 H 1.09824 1.13869 0.76704
 C2733 C 1.10454 0.60565 0.25271
 C2734 C 1.10272 0.58128 0.25619
 C2735 C 1.09404 0.57243 0.27749
 C2736 C 1.12177 0.62280 0.21297
 C2737 C 1.08892 0.61236 0.29185
 C2738 C 1.09760 0.62115 0.27057
 C2739 C 1.11382 0.61484 0.23099
 C2740 C 1.08704 0.58789 0.29557
 H2741 H 1.10803 0.56912 0.24247
 H2742 H 1.09258 0.55352 0.27974
 H2743 H 1.08403 0.62471 0.30555
 H2744 H 1.09905 0.64005 0.26810
 C2745 C 0.60290 1.10428 0.25189
 C2746 C 0.59603 1.11995 0.26963
 C2747 C 0.58734 1.11135 0.29098
 C2748 C 0.62027 1.12112 0.21211
 C2749 C 0.59227 1.07129 0.27690
 C2750 C 0.60096 1.07994 0.25553
 C2751 C 0.61227 1.11327 0.23013
 C2752 C 0.58540 1.08692 0.29488
 H2753 H 0.59757 1.13882 0.26703
 H2754 H 0.58253 1.12381 0.30460
 H2755 H 0.59076 1.05241 0.27930
 H2756 H 0.60622 1.06766 0.24190
 C2757 C 0.60345 0.60360 0.75232
 C2758 C 0.61914 0.59668 0.77001
 C2759 C 0.61059 0.58804 0.79140
 C2760 C 0.62022 0.62073 0.71241
 C2761 C 0.57053 0.59318 0.77748
 C2762 C 0.57914 0.60181 0.75607
 C2763 C 0.61240 0.61285 0.73050
 C2764 C 0.58618 0.58621 0.79540
 H2765 H 0.63799 0.59810 0.76733
 H2766 H 0.62307 0.58317 0.80497
 H2767 H 0.55167 0.59175 0.77996
 H2768 H 0.56684 0.60712 0.74248
 C2769 C 0.89636 0.89605 0.75237
 C2770 C 0.90318 0.88031 0.77007
 C2771 C 0.91186 0.88882 0.79146
 C2772 C 0.87914 0.87941 0.71243
 C2773 C 0.90698 0.92893 0.77751
 C2774 C 0.89831 0.92037 0.75610
 C2775 C 0.88706 0.88716 0.73054
 C2776 C 0.91382 0.91324 0.79545
 H2777 H 0.90164 0.86146 0.76740
 H2778 H 0.91663 0.87630 0.80504
 H2779 H 0.90852 0.94781 0.77997
 H2780 H 0.89310 0.93271 0.74250
 C2781 C 0.89627 0.39545 0.25253
 C2782 C 0.90316 0.37985 0.27032
 C2783 C 0.91184 0.38853 0.29164
 C2784 C 0.87909 0.37850 0.21271
 C2785 C 0.90678 0.42853 0.27746
 C2786 C 0.89811 0.41981 0.25612
 C2787 C 0.88700 0.38639 0.23076
 C2788 C 0.91373 0.41297 0.29547
 H2789 H 0.90170 0.36097 0.26777
 H2790 H 0.91669 0.37611 0.30529
 H2791 H 0.90826 0.44743 0.27980
 H2792 H 0.89283 0.43204 0.24245
 C2793 C 0.39586 0.89533 0.25235
 C2794 C 0.42016 0.89724 0.25610
 C2795 C 0.42871 0.90602 0.27746
 C2796 C 0.37921 0.87794 0.21251
 C2797 C 0.38863 0.91110 0.29134
 C2798 C 0.38013 0.90231 0.26999
 C2799 C 0.38698 0.88593 0.23057
 C2800 C 0.41303 0.91302 0.29534
 H2801 H 0.43249 0.89190 0.24255
 H2802 H 0.44757 0.90752 0.27994
 H2803 H 0.37612 0.91600 0.30488
 H2804 H 0.36129 0.90081 0.26731
 C2805 C 0.39529 0.39402 0.75303
 C2806 C 0.40235 0.37850 0.77083
 C2807 C 0.41108 0.38728 0.79210
 C2808 C 0.37805 0.37694 0.71326
 C2809 C 0.40577 0.42722 0.77784
 C2810 C 0.39704 0.41839 0.75656
 C2811 C 0.38598 0.38486 0.73130
 C2812 C 0.41287 0.41174 0.79586
 H2813 H 0.40096 0.35961 0.76833
 H2814 H 0.41605 0.37492 0.80575
 H2815 H 0.40716 0.44613 0.78012
 H2816 H 0.39164 0.43057 0.74288
 C2817 C 1.10431 0.89517 1.24794
 C2818 C 1.09736 0.87965 1.23011
 C2819 C 1.08869 0.88842 1.20881
 C2820 C 1.12144 0.87804 1.28772
 C2821 C 1.09387 0.92837 1.22310
 C2822 C 1.10253 0.91954 1.24441
 C2823 C 1.11355 0.88600 1.26968
 C2824 C 1.08685 0.91289 1.20506
 H2825 H 1.09877 0.86076 1.23260
 H2826 H 1.08379 0.87606 1.19514
 H2827 H 1.09244 0.94727 1.22082
 H2828 H 1.10786 0.93172 1.25811
 C2829 C 1.10382 0.39518 0.74736
 C2830 C 1.09695 0.37952 0.72962
 C2831 C 1.08831 0.38813 0.70825
 C2832 C 1.12096 0.37834 0.78725
 C2833 C 1.09334 0.42818 0.72231
 C2834 C 1.10197 0.41952 0.74369
 C2835 C 1.11307 0.38618 0.76917
 C2836 C 1.08644 0.41257 0.70434
 H2837 H 1.09841 0.36065 0.73224
 H2838 H 1.08348 0.37567 0.69464
 H2839 H 1.09187 0.44707 0.71990
 H2840 H 1.10724 0.43180 0.75732
 C2841 C 0.60392 0.89642 0.74752
 C2842 C 0.59710 0.88071 0.72981
 C2843 C 0.58846 0.88925 0.70841
 C2844 C 0.62102 0.87968 0.78747
 C2845 C 0.59341 0.92934 0.72238
 C2846 C 0.60204 0.92075 0.74379
 C2847 C 0.61315 0.88748 0.76936
 C2848 C 0.58653 0.91367 0.70444
 H2849 H 0.59859 0.86184 0.73247
 H2850 H 0.58366 0.87675 0.69483
 H2851 H 0.59190 0.94822 0.71992
 H2852 H 0.60727 0.93306 0.75740
 C2853 C 0.60435 0.39590 1.24808
 C2854 C 0.59735 0.38023 1.23039
 C2855 C 0.58861 0.38883 1.20905
 C2856 C 0.62157 0.37906 1.28794
 C2857 C 0.59381 0.42889 1.22302
 C2858 C 0.60254 0.42024 1.24437
 C2859 C 0.61365 0.38691 1.26987
 C2860 C 0.58676 0.41326 1.20511
 H2861 H 0.59878 0.36136 1.23303
 H2862 H 0.58368 0.37635 1.19549
 H2863 H 0.59236 0.44777 1.22058
 H2864 H 0.60789 0.43252 1.25796
 C2865 C 0.89619 1.10453 1.24806
 C2866 C 0.90313 1.12026 1.23039
 C2867 C 0.91188 1.11173 1.20904
 C2868 C 0.87879 1.12123 1.28790
 C2869 C 0.90687 1.07163 1.22297
 C2870 C 0.89812 1.08021 1.24434
 C2871 C 0.88679 1.11344 1.26984
 C2872 C 0.91382 1.08731 1.20506
 H2873 H 0.90161 1.13912 1.23305
 H2874 H 0.91674 1.12424 1.19547
 H2875 H 0.90838 1.05275 1.22052
 H2876 H 0.89281 1.06788 1.25792
 C2877 C 0.89606 0.60344 0.74794
 C2878 C 0.88039 0.59653 0.73023
 C2879 C 0.88895 0.58786 0.70886
 C2880 C 0.87928 0.62069 0.78781
 C2881 C 0.92899 0.59291 0.72284
 C2882 C 0.92037 0.60159 0.74423
 C2883 C 0.88710 0.61275 0.76974
 C2884 C 0.91336 0.58597 0.70491
 H2885 H 0.86153 0.59800 0.73288
 H2886 H 0.87648 0.58300 0.69528
 H2887 H 0.94786 0.59144 0.72040
 H2888 H 0.93266 0.60688 0.75783
 C2889 C 0.39620 1.10473 0.74742
 C2890 C 0.39806 1.08039 0.74379
 C2891 C 0.40665 1.07169 0.72240
 C2892 C 0.37913 1.12161 0.78732
 C2893 C 0.41160 1.11171 0.70823
 C2894 C 0.40301 1.12036 0.72961
 C2895 C 0.38700 1.11377 0.76923
 C2896 C 0.41351 1.08727 0.70437
 H2897 H 0.39285 1.06813 0.75747
 H2898 H 0.40814 1.05280 0.72004
 H2899 H 0.41639 1.12415 0.69458
 H2900 H 0.40153 1.13924 0.73218
 C2901 C 0.39554 0.60516 1.24767
 C2902 C 0.39728 0.58079 1.24417
 C2903 C 0.40595 0.57194 1.22287
 C2904 C 0.37836 0.62232 1.28743
 C2905 C 0.41120 0.61188 1.20855
 C2906 C 0.40253 0.62067 1.22983
 C2907 C 0.38628 0.61435 1.26940
 C2908 C 0.41300 0.58741 1.20481
 H2909 H 0.39192 0.56863 1.25788
 H2910 H 0.40735 0.55304 1.22060
 H2911 H 0.41613 0.62423 1.19487
 H2912 H 0.40114 0.63956 1.23231
 C2913 C 1.10437 1.24790 0.89566
 C2914 C 1.08005 1.24424 0.89755
 C2915 C 1.07140 1.22287 0.90632
 C2916 C 1.12121 1.28776 0.87828
 C2917 C 1.11141 1.20880 0.91141
 C2918 C 1.12001 1.23015 0.90264
 C2919 C 1.11336 1.26969 0.88628
 C2920 C 1.08700 1.20489 0.91332
 H2921 H 1.06779 1.25787 0.89222
 H2922 H 1.05252 1.22047 0.90781
 H2923 H 1.12386 1.19518 0.91631
 H2924 H 1.13887 1.23276 0.90115
 C2925 C 1.10442 0.74824 0.39551
 C2926 C 1.08011 0.74459 0.39750
 C2927 C 1.07149 0.72329 0.40647
 C2928 C 1.12120 0.78798 0.37777
 C2929 C 1.11152 0.70928 0.41159
 C2930 C 1.12009 0.73057 0.40262
 C2931 C 1.11338 0.76996 0.38590
 C2932 C 1.08711 0.70536 0.41357
 H2933 H 1.06783 0.75817 0.39208
 H2934 H 1.05262 0.72089 0.40801
 H2935 H 1.12398 0.69570 0.41657
 H2936 H 1.13894 0.73317 0.40107
 C2937 C 0.60338 1.24807 0.39535
 C2938 C 0.60173 1.24437 0.41966
 C2939 C 0.59310 1.22296 0.42836
 C2940 C 0.62061 1.28796 0.37846
 C2941 C 0.58768 1.20894 0.38841
 C2942 C 0.59631 1.23033 0.37977
 C2943 C 0.61266 1.26988 0.38631
 C2944 C 0.58600 1.20500 0.41281
 H2945 H 0.60715 1.25800 0.43188
 H2946 H 0.59179 1.22053 0.44722
 H2947 H 0.58270 1.19533 0.37601
 H2948 H 0.59763 1.23297 0.36092
 C2949 C 0.60341 0.74815 0.89589
 C2950 C 0.60160 0.74445 0.92018
 C2951 C 0.59293 0.72304 0.92883
 C2952 C 0.62069 0.78807 0.87908
 C2953 C 0.58778 0.70900 0.88886
 C2954 C 0.59645 0.73040 0.88026
 C2955 C 0.61273 0.76997 0.88690
 C2956 C 0.58594 0.70506 0.91325
 H2957 H 0.60693 0.75809 0.93243
 H2958 H 0.59149 0.72062 0.94768
 H2959 H 0.58289 0.69538 0.87643
 H2960 H 0.59789 0.73303 0.86143
 C2961 C 0.89570 1.24810 1.10426
 C2962 C 0.88009 1.23034 1.09725
 C2963 C 0.88874 1.20901 1.08845
 C2964 C 0.87879 1.28790 1.12169
 C2965 C 0.92872 1.22315 1.09357
 C2966 C 0.92003 1.24449 1.10236
 C2967 C 0.88667 1.26986 1.11367
 C2968 C 0.91316 1.20515 1.08654
 H2969 H 0.86123 1.23291 1.09874
 H2970 H 0.87631 1.19538 1.08354
 H2971 H 0.94760 1.22078 1.09208
 H2972 H 0.93227 1.25813 1.10772
 C2973 C 0.89646 0.74789 0.60411
 C2974 C 0.90332 0.73015 0.61979
 C2975 C 0.91193 0.70871 0.61127
 C2976 C 0.87932 0.78789 0.62081
 C2977 C 0.90690 0.72269 0.57125
 C2978 C 0.89829 0.74414 0.57983
 C2979 C 0.88722 0.76976 0.61303
 C2980 C 0.91380 0.70472 0.58689
 H2981 H 0.90186 0.73283 0.63862
 H2982 H 0.91675 0.69509 0.62374
 H2983 H 0.90837 0.72021 0.55240
 H2984 H 0.89304 0.75778 0.56754
 C2985 C 0.39517 1.24765 0.60485
 C2986 C 0.37951 1.22992 0.59787
 C2987 C 0.38808 1.20869 0.58877
 C2988 C 0.37840 1.28728 0.62282
 C2989 C 0.42809 1.22287 0.59350
 C2990 C 0.41947 1.24411 0.60259
 C2991 C 0.38622 1.26930 0.61459
 C2992 C 0.41248 1.20489 0.58654
 H2993 H 0.36066 1.23244 0.59963
 H2994 H 0.37562 1.19507 0.58391
 H2995 H 0.44696 1.22056 0.59176
 H2996 H 0.43175 1.25774 0.60791
 C2997 C 0.39538 0.74764 1.10393
 C2998 C 0.41969 0.74399 1.10201
 C2999 C 0.42835 0.72261 1.09328
 C3000 C 0.37858 0.78749 1.12133
 C3001 C 0.38833 0.70851 1.08829
 C3002 C 0.37973 0.72988 1.09702
 C3003 C 0.38639 0.76942 1.11332
 C3004 C 0.41274 0.70461 1.08636
 H3005 H 0.43196 0.75764 1.10730
 H3006 H 0.44722 0.72022 1.09177
 H3007 H 0.37588 0.69487 1.08344
 H3008 H 0.36087 0.73248 1.09854
 C3009 C 0.89614 0.75206 0.89689
 C3010 C 0.88045 0.76981 0.90374
 C3011 C 0.88899 0.79120 0.91244
 C3012 C 0.87941 0.71218 0.87952
 C3013 C 0.92905 0.77715 0.90755
 C3014 C 0.92045 0.75574 0.89885
 C3015 C 0.88721 0.73025 0.88752
 C3016 C 0.91340 0.79514 0.91440
 H3017 H 0.86160 0.76717 0.90219
 H3018 H 0.87651 0.80483 0.91723
 H3019 H 0.94791 0.77958 0.90909
 H3020 H 0.93275 0.74210 0.89361
 C3021 C 0.89628 0.25202 0.39587
 C3022 C 0.88059 0.26978 0.40270
 C3023 C 0.88914 0.29116 0.41144
 C3024 C 0.87951 0.21214 0.37852
 C3025 C 0.92919 0.27707 0.40661
 C3026 C 0.92058 0.25568 0.39787
 C3027 C 0.88733 0.23021 0.38650
 C3028 C 0.91354 0.29506 0.41347
 H3029 H 0.86174 0.26717 0.40112
 H3030 H 0.87666 0.30479 0.41623
 H3031 H 0.94805 0.27948 0.40819
 H3032 H 0.93288 0.24203 0.39264
 C3033 C 0.39540 0.75203 0.39522
 C3034 C 0.41972 0.75564 0.39720
 C3035 C 0.42838 0.77692 0.40617
 C3036 C 0.37855 0.71233 0.37749
 C3037 C 0.38838 0.79100 0.41132
 C3038 C 0.37977 0.76973 0.40235
 C3039 C 0.38640 0.73034 0.38562
 C3040 C 0.41280 0.79486 0.41329
 H3041 H 0.43198 0.74204 0.39176
 H3042 H 0.44725 0.77928 0.40770
 H3043 H 0.37594 0.80459 0.41631
 H3044 H 0.36091 0.76716 0.40081
 C3045 C 0.39576 0.25163 0.89631
 C3046 C 0.38010 0.26934 0.90335
 C3047 C 0.38869 0.29066 0.91221
 C3048 C 0.37894 0.21187 0.87871
 C3049 C 0.42871 0.27660 0.90711
 C3050 C 0.42007 0.25527 0.89826
 C3051 C 0.38678 0.22989 0.88680
 C3052 C 0.41310 0.29456 0.91415
 H3053 H 0.36125 0.26674 0.90182
 H3054 H 0.37623 0.30426 0.91713
 H3055 H 0.44758 0.27899 0.90863
 H3056 H 0.43235 0.24166 0.89288
 C3057 C 1.10494 0.75266 1.10538
 C3058 C 1.12053 0.77040 1.09825
 C3059 C 1.11186 0.79167 1.08933
 C3060 C 1.12185 0.71291 1.12298
 C3061 C 1.07189 0.77753 1.09456
 C3062 C 1.08061 0.75624 1.10347
 C3063 C 1.11399 0.73094 1.11490
 C3064 C 1.08744 0.79551 1.08741
 H3065 H 1.13939 0.76785 1.09975
 H3066 H 1.12427 0.80529 1.08433
 H3067 H 1.05301 0.77986 1.09306
 H3068 H 1.06838 0.74262 1.10891
 C3069 C 1.10383 0.25169 0.60359
 C3070 C 1.07955 0.25544 0.60143
 C3071 C 1.07109 0.27685 0.59258
 C3072 C 1.12031 0.21179 0.62121
 C3073 C 1.11121 0.29077 0.58792
 C3074 C 1.11963 0.26937 0.59677
 C3075 C 1.11262 0.22988 0.61311
 C3076 C 1.08683 0.29478 0.58578
 H3077 H 1.06717 0.24186 0.60663
 H3078 H 1.05224 0.27933 0.59091
 H3079 H 1.12376 0.30434 0.58317
 H3080 H 1.13845 0.26668 0.59846
 C3081 C 0.60404 0.75215 0.60332
 C3082 C 0.61977 0.76986 0.59645
 C3083 C 0.61128 0.79129 0.58778
 C3084 C 0.62065 0.71220 0.62065
 C3085 C 0.57119 0.77736 0.59273
 C3086 C 0.57974 0.75591 0.60140
 C3087 C 0.61291 0.73030 0.61266
 C3088 C 0.58688 0.79531 0.58586
 H3089 H 0.63861 0.76717 0.59797
 H3090 H 0.62379 0.80489 0.58297
 H3091 H 0.55233 0.77984 0.59122
 H3092 H 0.56741 0.74230 0.60665
 C3093 C 0.60436 0.25206 1.10442
 C3094 C 0.58004 0.25575 1.10266
 C3095 C 0.57136 0.27717 1.09404
 C3096 C 0.62122 0.21209 1.12152
 C3097 C 0.61137 0.29124 1.08885
 C3098 C 0.61999 0.26983 1.09748
 C3099 C 0.61338 0.23021 1.11364
 C3100 C 0.58695 0.29517 1.08705
 H3101 H 0.56778 0.24210 1.10798
 H3102 H 0.55249 0.27959 1.09264
 H3103 H 0.62381 0.30486 1.08396
 H3104 H 0.63885 0.26720 1.09888
 C3105 C 1.24791 1.10405 0.89587
 C3106 C 1.24424 1.10212 0.92016
 C3107 C 1.22286 1.09340 0.92879
 C3108 C 1.28777 1.12139 0.87909
 C3109 C 1.20880 1.08844 0.88880
 C3110 C 1.23017 1.09716 0.88023
 C3111 C 1.26971 1.11341 0.88691
 C3112 C 1.20488 1.08648 0.91319
 H3113 H 1.25788 1.10740 0.93242
 H3114 H 1.22045 1.09187 0.94764
 H3115 H 1.19518 1.08361 0.87636
 H3116 H 1.23278 1.09870 0.86140
 C3117 C 1.24775 0.60483 0.39558
 C3118 C 1.23002 0.62044 0.40265
 C3119 C 1.20871 0.61178 0.41144
 C3120 C 1.28750 0.62176 0.37810
 C3121 C 1.22282 0.57177 0.40621
 C3122 C 1.24414 0.58048 0.39741
 C3123 C 1.26948 0.61388 0.38614
 C3124 C 1.20485 0.58733 0.41329
 H3125 H 1.23259 0.63932 0.40120
 H3126 H 1.19510 0.62420 0.41641
 H3127 H 1.22045 0.55287 0.40765
 H3128 H 1.25776 0.56824 0.39200
 C3129 C 0.74761 1.10374 0.39507
 C3130 C 0.74395 1.10186 0.41937
 C3131 C 0.72252 1.09327 0.42802
 C3132 C 0.78758 1.12082 0.37827
 C3133 C 0.70839 1.08837 0.38806
 C3134 C 0.72980 1.09696 0.37946
 C3135 C 0.76946 1.11295 0.38609
 C3136 C 0.70449 1.08645 0.41245
 H3137 H 0.75763 1.10705 0.43161
 H3138 H 0.72013 1.09177 0.44687
 H3139 H 0.69473 1.08361 0.37563
 H3140 H 0.73241 1.09846 0.36062
 C3141 C 0.74752 0.60377 0.89595
 C3142 C 0.72978 0.59683 0.88032
 C3143 C 0.70837 0.58823 0.88890
 C3144 C 0.78750 0.62085 0.87918
 C3145 C 0.72235 0.59342 0.92888
 C3146 C 0.74378 0.60202 0.92025
 C3147 C 0.76937 0.61298 0.88698
 C3148 C 0.70439 0.58644 0.91329
 H3149 H 0.73245 0.59822 0.86148
 H3150 H 0.69477 0.58334 0.87645
 H3151 H 0.71989 0.59203 0.94773
 H3152 H 0.75740 0.60734 0.93251
 C3153 C 1.24792 0.89592 1.10429
 C3154 C 1.23021 0.90284 1.11997
 C3155 C 1.20887 0.91168 1.11145
 C3156 C 1.28772 0.87835 1.12097
 C3157 C 1.22290 0.90680 1.07144
 C3158 C 1.24425 0.89796 1.08001
 C3159 C 1.26968 0.88643 1.11320
 C3160 C 1.20495 0.91372 1.08708
 H3161 H 1.23282 0.90123 1.13880
 H3162 H 1.19527 0.91652 1.12392
 H3163 H 1.22049 0.90839 1.05260
 H3164 H 1.25786 0.89268 1.06772
 C3165 C 1.24781 0.39531 0.60505
 C3166 C 1.24443 0.39720 0.58072
 C3167 C 1.22316 0.40596 0.57183
 C3168 C 1.28747 0.37795 0.62229
 C3169 C 1.20864 0.41100 0.61165
 C3170 C 1.22988 0.40224 0.62048
 C3171 C 1.26949 0.38595 0.61428
 C3172 C 1.20502 0.41295 0.58722
 H3173 H 1.25820 0.39188 0.56862
 H3174 H 1.22098 0.40747 0.55296
 H3175 H 1.19488 0.41588 0.62393
 H3176 H 1.23227 0.40073 0.63934
 C3177 C 0.74801 0.89688 0.60369
 C3178 C 0.74437 0.89875 0.57939
 C3179 C 0.72296 0.90736 0.57073
 C3180 C 0.78789 0.87971 0.62055
 C3181 C 0.70881 0.91231 0.61069
 C3182 C 0.73020 0.90370 0.61930
 C3183 C 0.76982 0.88763 0.61269
 C3184 C 0.70493 0.91422 0.58630
 H3185 H 0.75805 0.89351 0.56715
 H3186 H 0.72057 0.90885 0.55188
 H3187 H 0.69515 0.91710 0.62312
 H3188 H 0.73279 0.90221 0.63814
 C3189 C 0.74782 0.39589 1.10430
 C3190 C 0.74415 0.39779 1.08002
 C3191 C 0.72279 0.40656 1.07140
 C3192 C 0.78765 0.37847 1.12108
 C3193 C 0.70876 0.41165 1.11139
 C3194 C 0.73011 0.40287 1.11995
 C3195 C 0.76960 0.38648 1.11326
 C3196 C 0.70483 0.41356 1.08700
 H3197 H 0.75776 0.39245 1.06775
 H3198 H 0.72037 0.40806 1.05255
 H3199 H 0.69516 0.41654 1.12384
 H3200 H 0.73273 0.40137 1.13879
 C3201 C 0.75222 1.10459 1.10389
 C3202 C 0.75598 1.08024 1.10225
 C3203 C 0.77740 1.07158 1.09365
 C3204 C 0.71227 1.12142 1.12097
 C3205 C 0.79133 1.11164 1.08825
 C3206 C 0.76992 1.12024 1.09685
 C3207 C 0.73038 1.11359 1.11310
 C3208 C 0.79532 1.08720 1.08657
 H3209 H 0.74238 1.06797 1.10764
 H3210 H 0.77987 1.05269 1.09234
 H3211 H 0.80491 1.12410 1.08328
 H3212 H 0.76724 1.13912 1.09816
 C3213 C 0.75205 0.60364 0.60398
 C3214 C 0.75580 0.57931 0.60214
 C3215 C 0.77722 0.57072 0.59347
 C3216 C 0.71210 0.62039 0.62114
 C3217 C 0.79116 0.61081 0.58840
 C3218 C 0.76976 0.61935 0.59707
 C3219 C 0.73021 0.61258 0.61325
 C3220 C 0.79516 0.58639 0.58652
 H3221 H 0.74220 0.56699 0.60743
 H3222 H 0.77969 0.55184 0.59200
 H3223 H 0.80474 0.62332 0.58354
 H3224 H 0.76708 0.63822 0.59853
 C3225 C 0.25154 1.10326 0.60409
 C3226 C 0.25537 1.07894 0.60228
 C3227 C 0.27679 1.07041 0.59355
 C3228 C 0.21163 1.11993 0.62140
 C3229 C 0.29055 1.11055 0.58834
 C3230 C 0.26915 1.11903 0.59707
 C3231 C 0.22971 1.11213 0.61344
 C3232 C 0.29463 1.08614 0.58651
 H3233 H 0.24183 1.06658 0.60766
 H3234 H 0.27933 1.05154 0.59213
 H3235 H 0.30407 1.12310 0.58340
 H3236 H 0.26641 1.13788 0.59850
 C3237 C 0.25227 0.60476 1.10486
 C3238 C 0.25582 0.58038 1.10321
 C3239 C 0.27709 0.57154 1.09442
 C3240 C 0.21260 0.62194 1.12229
 C3241 C 0.29128 0.61147 1.08884
 C3242 C 0.27003 0.62026 1.09764
 C3243 C 0.23058 0.61395 1.11427
 C3244 C 0.29507 0.58700 1.08714
 H3245 H 0.24217 0.56822 1.10875
 H3246 H 0.27940 0.55263 1.09310
 H3247 H 0.30491 0.62383 1.08373
 H3248 H 0.26751 0.63916 1.09895
 C3249 C 0.75216 0.89651 0.89660
 C3250 C 0.75592 0.92084 0.89835
 C3251 C 0.77733 0.92944 0.90701
 C3252 C 0.71228 0.87976 0.87930
 C3253 C 0.79122 0.88935 0.91227
 C3254 C 0.76982 0.88080 0.90361
 C3255 C 0.73035 0.88756 0.88727
 C3256 C 0.79524 0.91377 0.91403
 H3257 H 0.74235 0.93315 0.89298
 H3258 H 0.77983 0.94832 0.90838
 H3259 H 0.80478 0.87685 0.91719
 H3260 H 0.76713 0.86193 0.90222
 C3261 C 0.75224 0.39657 0.39556
 C3262 C 0.75588 0.39837 0.41986
 C3263 C 0.77729 0.40695 0.42855
 C3264 C 0.71234 0.37948 0.37867
 C3265 C 0.79144 0.41203 0.38860
 C3266 C 0.77005 0.40344 0.37997
 C3267 C 0.73042 0.38736 0.38654
 C3268 C 0.79532 0.41387 0.41299
 H3269 H 0.74220 0.39310 0.43209
 H3270 H 0.77968 0.40839 0.44740
 H3271 H 0.80510 0.41686 0.37619
 H3272 H 0.76746 0.40201 0.36113
 C3273 C 0.25196 0.89540 0.39595
 C3274 C 0.25561 0.91974 0.39782
 C3275 C 0.27693 0.92841 0.40661
 C3276 C 0.21221 0.87857 0.37843
 C3277 C 0.29098 0.88836 0.41178
 C3278 C 0.26967 0.87975 0.40299
 C3279 C 0.23023 0.88641 0.38649
 C3280 C 0.29488 0.91280 0.41366
 H3281 H 0.24200 0.93201 0.39243
 H3282 H 0.27933 0.94730 0.40808
 H3283 H 0.30458 0.87591 0.41672
 H3284 H 0.26706 0.86088 0.40151
 C3285 C 0.25201 0.39521 0.89651
 C3286 C 0.25569 0.41955 0.89831
 C3287 C 0.27706 0.42821 0.90703
 C3288 C 0.21221 0.37838 0.87909
 C3289 C 0.29106 0.38816 0.91228
 C3290 C 0.26971 0.37955 0.90355
 C3291 C 0.23025 0.38622 0.88711
 C3292 C 0.29500 0.41260 0.91408
 H3293 H 0.24209 0.43183 0.89292
 H3294 H 0.27948 0.44710 0.90844
 H3295 H 0.30465 0.37570 0.91722
 H3296 H 0.26708 0.36068 0.90213
   
