data_POSCAR
  _audit_creation_date              2014-09-24
  _audit_creation_method            'ToBaCCo'
  _symmetry_space_group_name_H-M    'P1'
  _symmetry_Int_Tables_number       1
  _symmetry_cell_setting            triclinic
  loop_
  _symmetry_equiv_pos_as_xyz
 x,y,z
_cell_length_a 60.2030
_cell_length_b 60.5793
_cell_length_c 60.5022
_cell_angle_alpha 87.331200
_cell_angle_beta 87.166900
_cell_angle_gamma 87.835300
loop_
  _atom_site_label
  _atom_site_type_symbol
  _atom_site_fract_x
  _atom_site_fract_y
  _atom_site_fract_z
C1 C 0.79497 0.63561 0.99830
 C2 C 0.79829 0.61727 0.98171
 C3 C 0.78004 0.60509 0.97967
 C4 C 0.75989 0.61241 0.99461
 C5 C 0.77464 0.64915 0.98999
 C6 C 0.75594 0.63723 0.98827
 C7 C 0.78667 0.62401 1.01992
 C8 C 0.76831 0.61198 1.01821
 H9 H 0.81275 0.61595 0.97042
 H10 H 0.74546 0.60188 0.99350
 H11 H 0.77576 0.66628 0.98445
 H12 H 0.79466 0.62556 1.03540
 C13 C 0.78812 0.36011 0.47953
 C14 C 0.79246 0.37629 0.49742
 C15 C 0.77476 0.38993 0.50295
 C16 C 0.75385 0.38577 0.49024
 C17 C 0.76776 0.34764 0.48910
 C18 C 0.74963 0.36092 0.49437
 C19 C 0.77939 0.37460 0.46023
 C20 C 0.76145 0.38795 0.46563
 H21 H 0.80800 0.37621 0.50570
 H22 H 0.73935 0.39682 0.49453
 H23 H 0.76792 0.32999 0.49260
 H24 H 0.78685 0.37410 0.44359
 C25 C 0.29199 -0.13586 -0.01979
 C26 C 0.29661 -0.12047 -0.00300
 C27 C 0.27789 -0.10680 0.00407
 C28 C 0.25783 -0.11115 -0.00764
 C29 C 0.27312 -0.14837 -0.01051
 C30 C 0.25407 -0.13485 -0.00368
 C31 C 0.28269 -0.12231 -0.03786
 C32 C 0.26387 -0.10836 -0.03144
 H33 H 0.31221 -0.12131 0.00525
 H34 H 0.24357 -0.10059 -0.00240
 H35 H 0.27140 -0.16572 -0.01310
 H36 H 0.28985 -0.12253 -0.05460
 C37 C 0.28604 0.13677 0.50534
 C38 C 0.29018 0.11952 0.48760
 C39 C 0.27210 0.10755 0.48397
 C40 C 0.25140 0.11387 0.49854
 C41 C 0.26600 0.15076 0.49704
 C42 C 0.24784 0.13887 0.49336
 C43 C 0.27699 0.12379 0.52585
 C44 C 0.25897 0.11172 0.52253
 H45 H 0.30494 0.11902 0.47666
 H46 H 0.23696 0.10376 0.49562
 H47 H 0.26668 0.16836 0.49324
 H48 H 0.28398 0.12484 0.54191
 C49 C 0.13688 0.50313 0.29128
 C50 C 0.11856 0.48613 0.29467
 C51 C 0.10684 0.48340 0.27636
 C52 C 0.11442 0.49812 0.25622
 C53 C 0.15109 0.49475 0.27131
 C54 C 0.13939 0.49226 0.25290
 C55 C 0.12503 0.52428 0.28255
 C56 C 0.11340 0.52188 0.26417
 H57 H 0.11731 0.47476 0.30897
 H58 H 0.10475 0.49595 0.24140
 H59 H 0.16871 0.49063 0.27193
 H60 H 0.12601 0.53993 0.29035
 C61 C -0.13674 -0.02179 0.28540
 C62 C -0.12178 -0.00270 0.28969
 C63 C -0.10828 0.00363 0.27202
 C64 C -0.11142 -0.00958 0.25124
 C65 C -0.14968 -0.01311 0.26523
 C66 C -0.13651 -0.00699 0.24709
 C67 C -0.12178 -0.03918 0.27719
 C68 C -0.10786 -0.03284 0.25824
 H69 H -0.12244 0.00562 0.30519
 H70 H -0.10029 -0.00390 0.23724
 H71 H -0.16754 -0.01057 0.26563
 H72 H -0.12312 -0.05614 0.28344
 C73 C 0.36274 0.48046 0.78583
 C74 C 0.37558 0.50107 0.79012
 C75 C 0.38874 0.50852 0.77262
 C76 C 0.38784 0.49461 0.75210
 C77 C 0.34986 0.48726 0.76503
 C78 C 0.36298 0.49461 0.74738
 C79 C 0.38051 0.46353 0.77780
 C80 C 0.39358 0.47072 0.76013
 H81 H 0.37416 0.50915 0.80576
 H82 H 0.39864 0.50060 0.73786
 H83 H 0.33195 0.48809 0.76453
 H84 H 0.38131 0.44663 0.78447
 C85 C 0.64178 1.00471 0.78542
 C86 C 0.62322 0.98810 0.78978
 C87 C 0.61104 0.98498 0.77188
 C88 C 0.61854 0.99898 0.75115
 C89 C 0.65552 0.99529 0.76562
 C90 C 0.64338 0.99238 0.74758
 C91 C 0.63082 1.02470 0.77671
 C92 C 0.61800 1.02197 0.75776
 H93 H 0.62190 0.97751 0.80468
 H94 H 0.60890 0.99578 0.73663
 H95 H 0.67295 0.99039 0.76614
 H96 H 0.63118 1.04004 0.78514
 C97 C -0.02294 0.28685 -0.13893
 C98 C -0.00236 0.29190 -0.12636
 C99 C 0.00493 0.27502 -0.11262
 C100 C -0.00906 0.25433 -0.11273
 C101 C -0.01594 0.26559 -0.15092
 C102 C -0.00874 0.24858 -0.13722
 C103 C -0.04022 0.27939 -0.12095
 C104 C -0.03315 0.26233 -0.10732
 H105 H 0.00580 0.30754 -0.12839
 H106 H -0.00317 0.24059 -0.10150
 H107 H -0.01484 0.26435 -0.16868
 H108 H -0.05723 0.28590 -0.12040
 C109 C 0.50332 0.28941 0.14193
 C110 C 0.48644 0.29374 0.12393
 C111 C 0.48259 0.27583 0.11209
 C112 C 0.49623 0.25500 0.11924
 C113 C 0.49384 0.26971 0.15602
 C114 C 0.49025 0.25169 0.14412
 C115 C 0.52413 0.27978 0.12983
 C116 C 0.52062 0.26176 0.11804
 H117 H 0.47663 0.30906 0.12240
 H118 H 0.49314 0.24048 0.10947
 H119 H 0.48962 0.26993 0.17354
 H120 H 0.54038 0.28666 0.13082
 C121 C 1.00260 0.79033 0.64369
 C122 C 0.98594 0.79566 0.62741
 C123 C 0.98075 0.77754 0.61432
 C124 C 0.99464 0.75759 0.61945
 C125 C 0.99468 0.77090 0.65637
 C126 C 0.99030 0.75257 0.64321
 C127 C 1.02186 0.78260 0.63030
 C128 C 1.01797 0.76415 0.61713
 H129 H 0.98072 0.81246 0.62288
 H130 H 0.99092 0.74376 0.60945
 H131 H 0.99351 0.77009 0.67431
 H132 H 1.03700 0.79174 0.62853
 C133 C 0.47770 0.78703 0.36137
 C134 C 0.49796 0.79150 0.37470
 C135 C 0.50480 0.77414 0.38810
 C136 C 0.49074 0.75362 0.38689
 C137 C 0.48494 0.76617 0.34881
 C138 C 0.49170 0.74868 0.36216
 C139 C 0.45997 0.77914 0.37866
 C140 C 0.46659 0.76164 0.39195
 H141 H 0.50621 0.80711 0.37343
 H142 H 0.49622 0.73947 0.39782
 H143 H 0.48660 0.76559 0.33100
 H144 H 0.44303 0.78587 0.37909
 C145 C 0.37878 -0.00507 0.26347
 H146 H 0.37737 0.01036 0.27181
 C147 C 0.39082 -0.02306 0.27272
 H148 H 0.39860 -0.02134 0.28827
 C149 C 0.36921 -0.02635 0.23368
 H150 H 0.36042 -0.02774 0.21871
 C151 C 0.38107 -0.04474 0.24234
 H152 H 0.38163 -0.05998 0.23362
 N153 N 0.36825 -0.00702 0.24431
 C154 C 0.35695 0.05949 0.21538
 H155 H 0.33928 0.05912 0.21301
 C156 C 0.36865 0.07827 0.20865
 H157 H 0.35987 0.09226 0.20088
 C158 C 0.38987 0.04137 0.22794
 H159 H 0.39809 0.02691 0.23536
 C160 C 0.40224 0.05982 0.22141
 H161 H 0.41988 0.05947 0.22421
 Zn162 Zn 0.35013 0.01717 0.23409
 N163 N 0.36758 0.04167 0.22513
 C164 C 0.32983 0.04534 0.26578
 N165 N 0.33019 0.02462 0.25800
 C166 C 0.31846 0.00825 0.26874
 C167 C 0.30621 0.01230 0.28847
 C168 C 0.31769 0.05014 0.28530
 C169 C 0.34780 0.00672 0.19026
 C170 C 0.33842 0.00019 0.17112
 C171 C 0.30267 -0.00082 0.19107
 C172 C 0.31275 0.00589 0.20988
 N173 N 0.33501 0.00917 0.20919
 H174 H 0.33969 0.05799 0.25744
 H175 H 0.31937 -0.00820 0.26244
 H176 H 0.29740 -0.00103 0.29710
 H177 H 0.31840 0.06651 0.29165
 H178 H 0.36545 0.00950 0.19020
 H179 H 0.34907 -0.00227 0.15642
 H180 H 0.28497 -0.00358 0.19187
 H181 H 0.30285 0.00820 0.22504
 C182 C 0.39159 0.07867 0.21178
 C183 C 0.39189 -0.04332 0.26224
 C184 C 0.31560 -0.00385 0.17139
 C185 C 0.30603 0.03341 0.29716
 C186 C 0.08381 1.03306 0.78568
 H187 H 0.08282 1.01700 0.79419
 C188 C 0.07222 1.05132 0.79446
 H189 H 0.06233 1.04918 0.80979
 C190 C 0.09905 1.05556 0.75605
 H191 H 0.10993 1.05730 0.74140
 C192 C 0.08777 1.07422 0.76423
 H193 H 0.08971 1.09005 0.75542
 N194 N 0.09695 1.03549 0.76685
 C195 C 0.10821 0.96977 0.74131
 H196 H 0.12619 0.96970 0.73955
 C197 C 0.09685 0.95159 0.73518
 H198 H 0.10621 0.93762 0.72847
 C199 C 0.07426 0.98848 0.75168
 H200 H 0.06558 1.00298 0.75799
 C201 C 0.06217 0.97062 0.74562
 H202 H 0.04419 0.97140 0.74757
 Zn203 Zn 0.11458 1.01086 0.75746
 N204 N 0.09689 0.98759 0.74965
 C205 C 0.12943 0.98068 0.79104
 N206 N 0.13213 1.00122 0.78144
 C207 C 0.14599 1.01561 0.78981
 C208 C 0.15810 1.00938 0.80837
 C209 C 0.14111 0.97382 0.80961
 C210 C 0.12128 1.02435 0.71328
 C211 C 0.13287 1.03068 0.69362
 C212 C 0.16728 1.02505 0.71237
 C213 C 0.15499 1.01881 0.73173
 N214 N 0.13238 1.01892 0.73190
 H215 H 0.11790 0.96966 0.78461
 H216 H 0.14741 1.03205 0.78220
 H217 H 0.16890 1.02110 0.81495
 H218 H 0.13886 0.95732 0.81685
 H219 H 0.10331 1.02390 0.71379
 H220 H 0.12367 1.03491 0.67899
 H221 H 0.18523 1.02536 0.71265
 H222 H 0.16353 1.01400 0.74657
 C223 C 0.07353 0.95178 0.73743
 C224 C 0.07438 1.07231 0.78385
 C225 C 0.15618 1.03129 0.69302
 C226 C 0.15561 0.98826 0.81858
 C227 C 0.58674 0.53570 0.28030
 H228 H 0.58536 0.51932 0.28806
 C229 C 0.57499 0.55364 0.28954
 H230 H 0.56458 0.55094 0.30446
 C231 C 0.60304 0.55927 0.25217
 H232 H 0.61438 0.56154 0.23792
 C233 C 0.59163 0.57763 0.26083
 H234 H 0.59394 0.59376 0.25276
 N235 N 0.60048 0.53880 0.26198
 C236 C 0.61218 0.47505 0.23231
 H237 H 0.63017 0.47502 0.23109
 C238 C 0.60105 0.45781 0.22385
 H239 H 0.61063 0.44439 0.21637
 C240 C 0.57797 0.49266 0.24375
 H241 H 0.56910 0.50647 0.25123
 C242 C 0.56611 0.47563 0.23554
 H243 H 0.54810 0.47647 0.23675
 Zn244 Zn 0.61816 0.51450 0.25177
 N245 N 0.60061 0.49196 0.24209
 C246 C 0.63241 0.48233 0.28384
 N247 N 0.63515 0.50339 0.27564
 C248 C 0.64876 0.51718 0.28524
 C249 C 0.66049 0.50982 0.30372
 C250 C 0.64374 0.47434 0.30228
 C251 C 0.62588 0.52991 0.20833
 C252 C 0.63792 0.53647 0.18902
 C253 C 0.67190 0.52940 0.20821
 C254 C 0.65916 0.52296 0.22722
 N255 N 0.63656 0.52358 0.22699
 H256 H 0.62115 0.47176 0.27636
 H257 H 0.65026 0.53401 0.27868
 H258 H 0.67105 0.52109 0.31132
 H259 H 0.64145 0.45746 0.30841
 H260 H 0.60791 0.52983 0.20850
 H261 H 0.62905 0.54130 0.17433
 H262 H 0.68985 0.52918 0.20877
 H263 H 0.66735 0.51744 0.24208
 C264 C 0.57770 0.45798 0.22531
 C265 C 0.57759 0.57501 0.27993
 C266 C 0.66125 0.53639 0.18880
 C267 C 0.65792 0.48816 0.31255
 C268 C 0.88199 0.49389 0.75850
 H269 H 0.88066 0.50932 0.76686
 C270 C 0.89378 0.47579 0.76783
 H271 H 0.90145 0.47743 0.78346
 C272 C 0.87232 0.47271 0.72867
 H273 H 0.86354 0.47141 0.71368
 C274 C 0.88394 0.45420 0.73742
 H275 H 0.88434 0.43894 0.72875
 N276 N 0.87150 0.49204 0.73931
 C277 C 0.86022 0.55906 0.71163
 H278 H 0.84252 0.55887 0.70936
 C279 C 0.87198 0.57795 0.70538
 H280 H 0.86321 0.59220 0.69809
 C281 C 0.89316 0.54043 0.72348
 H282 H 0.90137 0.52573 0.73043
 C283 C 0.90558 0.55896 0.71742
 H284 H 0.92324 0.55843 0.72013
 Zn285 Zn 0.85338 0.51634 0.72943
 N286 N 0.87083 0.54093 0.72082
 C287 C 0.83332 0.54382 0.76193
 N288 N 0.83365 0.52332 0.75365
 C289 C 0.82224 0.50663 0.76421
 C290 C 0.81046 0.51008 0.78432
 C291 C 0.82162 0.54803 0.78185
 C292 C 0.85059 0.50605 0.68552
 C293 C 0.84090 0.49969 0.66647
 C294 C 0.80528 0.49936 0.68671
 C295 C 0.81567 0.50586 0.70542
 N296 N 0.83801 0.50871 0.70455
 H297 H 0.84295 0.55672 0.75370
 H298 H 0.82314 0.49036 0.75750
 H299 H 0.80196 0.49647 0.79283
 H300 H 0.82239 0.56421 0.78860
 H301 H 0.86831 0.50851 0.68531
 H302 H 0.85137 0.49703 0.65170
 H303 H 0.78752 0.49696 0.68767
 H304 H 0.80595 0.50834 0.72065
 C305 C 0.89495 0.57813 0.70843
 C306 C 0.89463 0.45552 0.75741
 C307 C 0.81798 0.49606 0.66694
 C308 C 0.81040 0.53092 0.79357
 C309 C 0.26251 0.38434 -0.00326
 H310 H 0.27042 0.38313 0.01245
 C311 C 0.27257 0.39593 -0.02135
 H312 H 0.28828 0.40359 -0.01943
 C313 C 0.23309 0.37464 -0.02513
 H314 H 0.21795 0.36598 -0.02673
 C315 C 0.24254 0.38604 -0.04360
 H316 H 0.23425 0.38638 -0.05910
 N317 N 0.24317 0.37392 -0.00547
 C318 C 0.21043 0.36321 0.05984
 H319 H 0.20739 0.34575 0.05934
 C320 C 0.20316 0.37485 0.07835
 H321 H 0.19431 0.36627 0.09198
 C322 C 0.22538 0.39558 0.04241
 H323 H 0.23402 0.40359 0.02835
 C324 C 0.21837 0.40790 0.06061
 H325 H 0.22199 0.42527 0.06048
 Zn326 Zn 0.23178 0.35605 0.01868
 N327 N 0.22166 0.37357 0.04253
 C328 C 0.26153 0.33621 0.04897
 N329 N 0.25539 0.33661 0.02762
 C330 C 0.26789 0.32584 0.01185
 C331 C 0.28801 0.31500 0.01712
 C332 C 0.28135 0.32548 0.05496
 C333 C 0.18831 0.35338 0.00691
 C334 C 0.16979 0.34442 -0.00168
 C335 C 0.19018 0.30939 -0.00390
 C336 C 0.20840 0.31907 0.00484
 N337 N 0.20725 0.34083 0.00956
 H338 H 0.25166 0.34509 0.06124
 H339 H 0.26287 0.32677 -0.00511
 H340 H 0.29834 0.30758 0.00411
 H341 H 0.28614 0.32583 0.07196
 H342 H 0.18785 0.37061 0.01092
 H343 H 0.15498 0.35483 -0.00392
 H344 H 0.19159 0.29229 -0.00840
 H345 H 0.22364 0.30940 0.00717
 C346 C 0.20734 0.39746 0.07901
 C347 C 0.26270 0.39663 -0.04195
 C348 C 0.17072 0.32230 -0.00771
 C349 C 0.29528 0.31536 0.03881
 C350 C 0.77948 0.08452 1.03337
 H351 H 0.78786 0.08407 1.01715
 C352 C 0.78861 0.07279 1.05139
 H353 H 0.80409 0.06334 1.04889
 C354 C 0.74985 0.09855 1.05651
 H355 H 0.73506 0.10903 1.05860
 C356 C 0.75837 0.08710 1.07494
 H357 H 0.74968 0.08851 1.09093
 N358 N 0.76049 0.09716 1.03624
 C359 C 0.73372 0.10969 0.97106
 H360 H 0.73184 0.12751 0.97136
 C361 C 0.72724 0.09881 0.95278
 H362 H 0.72015 0.10839 0.93913
 C363 C 0.74473 0.07564 0.98890
 H364 H 0.75143 0.06672 1.00310
 C365 C 0.73834 0.06403 0.97092
 H366 H 0.74044 0.04619 0.97131
 Zn367 Zn 0.75068 0.11516 1.01197
 N368 N 0.74253 0.09809 0.98849
 C369 C 0.78385 0.13135 0.98138
 N370 N 0.77459 0.13321 1.00221
 C371 C 0.78326 0.14660 1.01678
 C372 C 0.80184 0.15901 1.01047
 C373 C 0.80242 0.14337 0.97444
 C374 C 0.70638 0.12095 1.02621
 C375 C 0.68671 0.13213 1.03293
 C376 C 0.70558 0.16660 1.02756
 C377 C 0.72495 0.15473 1.02092
 N378 N 0.72507 0.13229 1.02070
 H379 H 0.77717 0.12022 0.97020
 H380 H 0.77591 0.14738 1.03342
 H381 H 0.80871 0.16936 1.02235
 H382 H 0.80942 0.14174 0.95774
 H383 H 0.70686 0.10313 1.02549
 H384 H 0.67202 0.12276 1.03721
 H385 H 0.70592 0.18442 1.02815
 H386 H 0.73983 0.16348 1.01604
 C387 C 0.72963 0.07569 0.95247
 C388 C 0.77819 0.07426 1.07259
 C389 C 0.68616 0.15526 1.03386
 C390 C 0.81175 0.15732 0.98908
 C391 C 0.27725 0.58755 0.53474
 H392 H 0.28493 0.58682 0.51823
 C393 C 0.28682 0.57563 0.55238
 H394 H 0.30169 0.56542 0.54923
 C395 C 0.24875 0.60215 0.55887
 H396 H 0.23430 0.61299 0.56146
 C397 C 0.25775 0.59049 0.57697
 H398 H 0.25002 0.59249 0.59333
 N399 N 0.25858 0.60049 0.53825
 C400 C 0.23029 0.61184 0.47368
 H401 H 0.22877 0.62970 0.47346
 C402 C 0.22328 0.60054 0.45589
 H403 H 0.21614 0.60984 0.44209
 C404 C 0.24097 0.57811 0.49233
 H405 H 0.24773 0.56948 0.50665
 C406 C 0.23405 0.56609 0.47487
 H407 H 0.23583 0.54823 0.47577
 Zn408 Zn 0.24821 0.61814 0.51400
 N409 N 0.23922 0.60059 0.49126
 C410 C 0.28099 0.63320 0.48231
 N411 N 0.27213 0.63570 0.50320
 C412 C 0.28124 0.64938 0.51720
 C413 C 0.29991 0.66139 0.51024
 C414 C 0.29963 0.64481 0.47472
 C415 C 0.20435 0.62491 0.52964
 C416 C 0.18478 0.63666 0.53570
 C417 C 0.20375 0.67068 0.52725
 C418 C 0.22300 0.65826 0.52134
 N419 N 0.22300 0.63579 0.52284
 H420 H 0.27395 0.62184 0.47159
 H421 H 0.27418 0.65069 0.53390
 H422 H 0.30715 0.67195 0.52170
 H423 H 0.30632 0.64266 0.45798
 H424 H 0.20474 0.60703 0.53037
 H425 H 0.17027 0.62764 0.54148
 H426 H 0.20400 0.68855 0.52576
 H427 H 0.23780 0.66660 0.51533
 C428 C 0.22525 0.57737 0.45626
 C429 C 0.27716 0.57716 0.57389
 C430 C 0.18430 0.65988 0.53457
 C431 C 0.30944 0.65902 0.48878
 C432 C 0.76302 0.87857 0.49370
 H433 H 0.77128 0.87730 0.50921
 C434 C 0.77238 0.89075 0.47564
 H435 H 0.78794 0.89875 0.47739
 C436 C 0.73335 0.86857 0.47231
 H437 H 0.71838 0.85957 0.47091
 C438 C 0.74212 0.88055 0.45386
 H439 H 0.73349 0.88098 0.43855
 N440 N 0.74387 0.86778 0.49174
 C441 C 0.71421 0.85635 0.55835
 H442 H 0.71200 0.83871 0.55835
 C443 C 0.70707 0.86811 0.57685
 H444 H 0.69919 0.85939 0.59099
 C445 C 0.72667 0.88914 0.53961
 H446 H 0.73418 0.89731 0.52501
 C447 C 0.71974 0.90156 0.55774
 H448 H 0.72236 0.91917 0.55702
 Zn449 Zn 0.73349 0.84960 0.51608
 N450 N 0.72409 0.86690 0.54035
 C451 C 0.76500 0.82962 0.54470
 N452 N 0.75758 0.83021 0.52381
 C453 C 0.76879 0.81909 0.50744
 C454 C 0.78865 0.80728 0.51166
 C455 C 0.78462 0.81787 0.54969
 C456 C 0.68962 0.84628 0.50521
 C457 C 0.67072 0.83653 0.49825
 C458 C 0.69127 0.80150 0.49763
 C459 C 0.70982 0.81194 0.50473
 N460 N 0.70874 0.83403 0.50798
 H461 H 0.75627 0.83899 0.55737
 H462 H 0.76276 0.82017 0.49086
 H463 H 0.79767 0.79898 0.49832
 H464 H 0.79067 0.81836 0.56621
 H465 H 0.68925 0.86381 0.50796
 H466 H 0.65591 0.84677 0.49546
 H467 H 0.69242 0.78396 0.49484
 H468 H 0.72512 0.80248 0.50729
 C469 C 0.70993 0.89102 0.57676
 C470 C 0.76201 0.89166 0.45531
 C471 C 0.67144 0.81389 0.49413
 C472 C 0.79696 0.80686 0.53296
 C473 C -0.00448 0.26095 0.37923
 H474 H 0.01113 0.26930 0.37775
 C475 C -0.02243 0.26994 0.39175
 H476 H -0.02050 0.28530 0.39979
 C477 C -0.02624 0.23144 0.36944
 H478 H -0.02782 0.21668 0.36039
 C479 C -0.04460 0.23984 0.38177
 H480 H -0.06002 0.23114 0.38241
 N481 N -0.00668 0.24205 0.36839
 C482 C 0.06026 0.21390 0.35593
 H483 H 0.06020 0.21226 0.33820
 C484 C 0.07889 0.20670 0.36746
 H485 H 0.09326 0.19976 0.35841
 C486 C 0.04157 0.22519 0.38913
 H487 H 0.02687 0.23209 0.39757
 C488 C 0.05986 0.21821 0.40132
 H489 H 0.05900 0.21980 0.41909
 Zn490 Zn 0.01759 0.23224 0.34985
 N491 N 0.04219 0.22315 0.36681
 C492 C 0.04580 0.26461 0.32991
 N493 N 0.02504 0.25644 0.33032
 C494 C 0.00851 0.26696 0.31892
 C495 C 0.01242 0.28685 0.30695
 C496 C 0.05046 0.28433 0.31807
 C497 C 0.00661 0.18855 0.34689
 C498 C 0.00001 0.16957 0.33724
 C499 C -0.00022 0.18988 0.30190
 C500 C 0.00653 0.20852 0.31226
 N501 N 0.00946 0.20758 0.33444
 H502 H 0.05856 0.25641 0.33954
 H503 H -0.00796 0.26033 0.31986
 H504 H -0.00105 0.29527 0.29838
 H505 H 0.06684 0.29099 0.31874
 H506 H 0.00915 0.18828 0.36449
 H507 H -0.00276 0.15479 0.34761
 H508 H -0.00267 0.19089 0.28427
 H509 H 0.00919 0.22374 0.30262
 C510 C 0.07888 0.20887 0.39047
 C511 C -0.04290 0.25946 0.39296
 C512 C -0.00367 0.17011 0.31449
 C513 C 0.03355 0.29596 0.30674
 C514 C 1.03772 0.78062 0.08422
 H515 H 1.02139 0.78837 0.08240
 C516 C 1.05631 0.78988 0.07313
 H517 H 1.05412 0.80480 0.06279
 C518 C 1.06052 0.75252 0.10102
 H519 H 1.06223 0.73830 0.11231
 C520 C 1.07950 0.76120 0.09027
 H521 H 1.09556 0.75316 0.09303
 N522 N 1.04015 0.76232 0.09790
 C523 C 0.97531 0.73298 0.10795
 H524 H 0.97456 0.73193 0.12587
 C525 C 0.95840 0.72439 0.09642
 H526 H 0.94449 0.71698 0.10563
 C527 C 0.99448 0.74405 0.07432
 H528 H 1.00877 0.75142 0.06583
 C529 C 0.97781 0.73569 0.06207
 H530 H 0.97941 0.73668 0.04415
 Zn531 Zn 1.01496 0.75228 0.11488
 N532 N 0.99285 0.74261 0.09685
 C533 C 0.98244 0.78439 0.12867
 N534 N 1.00350 0.77621 0.13154
 C535 C 1.01720 0.78582 0.14520
 C536 C 1.00972 0.80426 0.15688
 C537 C 0.97432 0.80279 0.13997
 C538 C 1.02977 0.70888 0.12324
 C539 C 1.03559 0.68971 0.13560
 C540 C 1.02713 0.70930 0.16904
 C541 C 1.02144 0.72815 0.15600
 N542 N 1.02309 0.72765 0.13353
 H543 H 0.97195 0.77688 0.11738
 H544 H 1.03404 0.77927 0.14682
 H545 H 1.02094 0.81185 0.16748
 H546 H 0.95742 0.80888 0.13761
 H547 H 1.03065 0.70889 0.10534
 H548 H 1.04131 0.67511 0.12703
 H549 H 1.02560 0.70993 0.18691
 H550 H 1.01556 0.74305 0.16387
 C551 C 0.95956 0.72555 0.07318
 C552 C 1.07759 0.78031 0.07634
 C553 C 1.03436 0.68975 0.15883
 C554 C 0.98803 0.81303 0.15424
 C555 C 0.53116 0.28116 0.58562
 H556 H 0.51479 0.28910 0.58498
 C557 C 0.54907 0.29014 0.57316
 H558 H 0.54627 0.30484 0.56264
 C559 C 0.55473 0.25263 0.60055
 H560 H 0.55706 0.23841 0.61174
 C561 C 0.57306 0.26101 0.58836
 H562 H 0.58929 0.25304 0.59032
 N563 N 0.53428 0.26275 0.59900
 C564 C 0.46896 0.23516 0.61265
 H565 H 0.46908 0.23396 0.63054
 C566 C 0.45087 0.22775 0.60195
 H567 H 0.43717 0.22065 0.61176
 C568 C 0.48717 0.24526 0.57823
 H569 H 0.50147 0.25190 0.56909
 C570 C 0.46939 0.23793 0.56681
 H571 H 0.47002 0.23930 0.54889
 Zn572 Zn 0.51001 0.25293 0.61748
 N573 N 0.48651 0.24393 0.60076
 C574 C 0.47917 0.28583 0.63280
 N575 N 0.50009 0.27695 0.63487
 C576 C 0.51473 0.28613 0.64788
 C577 C 0.50842 0.30490 0.65961
 C578 C 0.47221 0.30457 0.64416
 C579 C 0.52464 0.20931 0.62428
 C580 C 0.53129 0.18994 0.63587
 C581 C 0.52565 0.20901 0.66999
 C582 C 0.51906 0.22807 0.65772
 N583 N 0.51896 0.22793 0.63525
 H584 H 0.46792 0.27872 0.62197
 H585 H 0.53144 0.27905 0.64884
 H586 H 0.52039 0.31218 0.66961
 H587 H 0.45543 0.31128 0.64235
 H588 H 0.52416 0.20961 0.60642
 H589 H 0.53625 0.17547 0.62672
 H590 H 0.52557 0.20937 0.68787
 H591 H 0.51398 0.24289 0.66616
 C592 C 0.45088 0.22914 0.57873
 C593 C 0.57041 0.28013 0.57458
 C594 C 0.53195 0.18961 0.65904
 C595 C 0.48694 0.31447 0.65765
 C596 C 0.49969 0.76360 0.88364
 H597 H 0.51547 0.77164 0.88186
 C598 C 0.48201 0.77316 0.89608
 H599 H 0.48428 0.78866 0.90375
 C600 C 0.47729 0.73425 0.87472
 H601 H 0.47535 0.71931 0.86607
 C602 C 0.45919 0.74321 0.88700
 H603 H 0.44361 0.73477 0.88798
 N604 N 0.49705 0.74451 0.87326
 C605 C 0.56280 0.71343 0.86149
 H606 H 0.56244 0.71085 0.84394
 C607 C 0.58144 0.70642 0.87311
 H608 H 0.59531 0.69821 0.86439
 C609 C 0.54488 0.72693 0.89417
 H610 H 0.53058 0.73485 0.90235
 C611 C 0.56317 0.72014 0.90645
 H612 H 0.56285 0.72324 0.92394
 Zn613 Zn 0.52096 0.73367 0.85484
 N614 N 0.54518 0.72383 0.87203
 C615 C 0.55088 0.76417 0.83457
 N616 N 0.52954 0.75749 0.83525
 C617 C 0.51345 0.76948 0.82452
 C618 C 0.51838 0.78959 0.81337
 C619 C 0.55655 0.78401 0.82353
 C620 C 0.50868 0.69040 0.85218
 C621 C 0.50014 0.67201 0.84305
 C622 C 0.49866 0.69255 0.80792
 C623 C 0.50731 0.71064 0.81777
 N624 N 0.51164 0.70935 0.83965
 H625 H 0.56340 0.75471 0.84343
 H626 H 0.49651 0.76403 0.82569
 H627 H 0.50512 0.79948 0.80595
 H628 H 0.57355 0.78923 0.82362
 H629 H 0.51244 0.68980 0.86950
 H630 H 0.49768 0.65717 0.85343
 H631 H 0.49448 0.69408 0.79070
 H632 H 0.50994 0.72585 0.80809
 C633 C 0.58187 0.70994 0.89586
 C634 C 0.46134 0.76305 0.89770
 C635 C 0.49454 0.67307 0.82076
 C636 C 0.54006 0.79739 0.81337
 C637 C 0.45226 -0.15464 0.32490
 C638 C 0.45718 -0.15374 0.34715
 C639 C 0.46553 -0.17259 0.35857
 C640 C 0.46938 -0.19267 0.34789
 C641 C 0.46407 -0.19339 0.32547
 C642 C 0.45570 -0.17448 0.31410
 C643 C 0.44289 -0.13543 0.31340
 C644 C 0.43468 -0.11940 0.30397
 C645 C 0.42443 -0.10039 0.29291
 C646 C 0.43403 -0.07972 0.29304
 C647 C 0.42361 -0.06115 0.28288
 C648 C 0.40343 -0.06306 0.27245
 C649 C 0.39402 -0.08397 0.27228
 C650 C 0.40446 -0.10249 0.28245
 H651 H 0.45432 -0.13854 0.35578
 H652 H 0.46884 -0.17155 0.37592
 H653 H 0.46573 -0.20845 0.31662
 H654 H 0.45160 -0.17543 0.29694
 H655 H 0.44950 -0.07792 0.30110
 H656 H 0.43137 -0.04534 0.28309
 H657 H 0.37833 -0.08595 0.26472
 H658 H 0.39682 -0.11839 0.28236
 C659 C 0.95157 0.34423 0.82316
 C660 C 0.95494 0.32409 0.81290
 C661 C 0.96316 0.30543 0.82478
 C662 C 0.96839 0.30671 0.84716
 C663 C 0.96452 0.32707 0.85733
 C664 C 0.95631 0.34566 0.84541
 C665 C 0.94269 0.36328 0.81104
 C666 C 0.93500 0.37922 0.80105
 C667 C 0.92544 0.39821 0.78936
 C668 C 0.90565 0.39637 0.77852
 C669 C 0.89582 0.41493 0.76784
 C670 C 0.90568 0.43563 0.76787
 C671 C 0.92573 0.43726 0.77860
 C672 C 0.93554 0.41865 0.78928
 H673 H 0.95099 0.32273 0.79575
 H674 H 0.96487 0.29017 0.81629
 H675 H 0.96781 0.32855 0.87462
 H676 H 0.95352 0.36112 0.85360
 H677 H 0.89764 0.38065 0.77858
 H678 H 0.88021 0.41320 0.76005
 H679 H 0.93384 0.45290 0.77871
 H680 H 0.95088 0.42024 0.79761
 C681 C 0.01620 1.18649 0.83848
 C682 C 0.02571 1.19537 0.85660
 C683 C 0.01746 1.21549 0.86465
 C684 C -0.00037 1.22700 0.85461
 C685 C -0.00996 1.21783 0.83654
 C686 C -0.00171 1.19771 0.82854
 C687 C 0.02534 1.16630 0.82960
 C688 C 0.03337 1.14966 0.82190
 C689 C 0.04348 1.13014 0.81244
 C690 C 0.06507 1.13084 0.80286
 C691 C 0.07505 1.11206 0.79353
 C692 C 0.06355 1.09226 0.79363
 C693 C 0.04184 1.09168 0.80336
 C694 C 0.03186 1.11054 0.81268
 H695 H 0.03969 1.18689 0.86432
 H696 H 0.02543 1.22227 0.87835
 H697 H -0.02391 1.22617 0.82866
 H698 H -0.00918 1.19099 0.81450
 H699 H 0.07424 1.14591 0.80265
 H700 H 0.09192 1.11294 0.78653
 H701 H 0.03250 1.07674 0.80352
 H702 H 0.01511 1.10984 0.82001
 C703 C 0.51753 0.68746 0.33647
 C704 C 0.52638 0.69569 0.35526
 C705 C 0.51786 0.71553 0.36374
 C706 C 0.50038 0.72741 0.35346
 C707 C 0.49146 0.71891 0.33469
 C708 C 0.50000 0.69906 0.32625
 C709 C 0.52697 0.66754 0.32722
 C710 C 0.53527 0.65112 0.31928
 C711 C 0.54573 0.63188 0.30957
 C712 C 0.56766 0.63277 0.30088
 C713 C 0.57797 0.61429 0.29127
 C714 C 0.56647 0.59459 0.29017
 C715 C 0.54444 0.59380 0.29905
 C716 C 0.53414 0.61237 0.30866
 H717 H 0.54007 0.68693 0.36321
 H718 H 0.52534 0.72181 0.37798
 H719 H 0.47781 0.72754 0.32659
 H720 H 0.49303 0.69285 0.31168
 H721 H 0.57682 0.64776 0.30157
 H722 H 0.59506 0.61532 0.28495
 H723 H 0.53510 0.57895 0.29828
 H724 H 0.51713 0.61152 0.31530
 C725 C 0.52052 0.34912 0.17337
 C726 C 0.52032 0.34844 0.15034
 C727 C 0.51442 0.32922 0.14056
 C728 C 0.50840 0.31030 0.15362
 C729 C 0.50869 0.31121 0.17688
 C730 C 0.51464 0.33051 0.18662
 C731 C 0.52814 0.36848 0.18318
 C732 C 0.53533 0.38465 0.19079
 C733 C 0.54496 0.40379 0.19913
 C734 C 0.56288 0.41344 0.18724
 C735 C 0.57320 0.43133 0.19557
 C736 C 0.56575 0.43984 0.21598
 C737 C 0.54739 0.43037 0.22762
 C738 C 0.53709 0.41238 0.21926
 H739 H 0.52512 0.36265 0.13989
 H740 H 0.51485 0.32900 0.12266
 H741 H 0.50499 0.29709 0.18776
 H742 H 0.51509 0.33076 0.20449
 H743 H 0.56906 0.40697 0.17162
 H744 H 0.58706 0.43850 0.18606
 H745 H 0.54142 0.43647 0.24346
 H746 H 0.52325 0.40499 0.22862
 C747 C 0.01831 0.84276 0.68481
 C748 C -0.00229 0.84323 0.67513
 C749 C -0.00792 0.82591 0.66222
 C750 C 0.00737 0.80803 0.65808
 C751 C 0.02736 0.80712 0.66953
 C752 C 0.03288 0.82445 0.68242
 C753 C 0.02510 0.86147 0.69628
 C754 C 0.03167 0.87718 0.70523
 C755 C 0.04062 0.89582 0.71517
 C756 C 0.03191 0.91722 0.71066
 C757 C 0.04215 0.93548 0.71850
 C758 C 0.06134 0.93250 0.73082
 C759 C 0.06954 0.91088 0.73583
 C760 C 0.05926 0.89268 0.72803
 H761 H -0.01393 0.85713 0.67733
 H762 H -0.02428 0.82676 0.65557
 H763 H 0.03904 0.79316 0.66814
 H764 H 0.04873 0.82372 0.69022
 H765 H 0.01758 0.91983 0.70057
 H766 H 0.03560 0.95193 0.71423
 H767 H 0.08409 0.90806 0.74555
 H768 H 0.06617 0.87620 0.73158
 C769 C 0.96332 0.69247 0.66929
 C770 C 0.96129 0.71146 0.68157
 C771 C 0.97068 0.73112 0.67327
 C772 C 0.98211 0.73225 0.65227
 C773 C 0.98459 0.71261 0.64048
 C774 C 0.97522 0.69303 0.64889
 C775 C 0.95249 0.67263 0.67714
 C776 C 0.94305 0.65608 0.68329
 C777 C 0.93136 0.63647 0.69022
 C778 C 0.91016 0.63832 0.70067
 C779 C 0.89839 0.61935 0.70670
 C780 C 0.90766 0.59823 0.70233
 C781 C 0.92908 0.59653 0.69198
 C782 C 0.94082 0.61555 0.68594
 H783 H 0.95203 0.71123 0.69740
 H784 H 0.96785 0.74558 0.68298
 H785 H 0.99426 0.71185 0.62499
 H786 H 0.97716 0.67830 0.63936
 H787 H 0.90268 0.65443 0.70406
 H788 H 0.88208 0.62119 0.71493
 H789 H 0.93656 0.58054 0.68817
 H790 H 0.95717 0.61394 0.67774
 C791 C 0.46014 0.19237 0.17054
 C792 C 0.45346 0.21280 0.17904
 C793 C 0.46352 0.23212 0.17079
 C794 C 0.48038 0.23121 0.15387
 C795 C 0.48719 0.21057 0.14565
 C796 C 0.47712 0.19128 0.15395
 C797 C 0.44909 0.17264 0.17834
 C798 C 0.43956 0.15619 0.18463
 C799 C 0.42783 0.13670 0.19190
 C800 C 0.40657 0.13876 0.20218
 C801 C 0.39484 0.11990 0.20874
 C802 C 0.40424 0.09867 0.20509
 C803 C 0.42571 0.09677 0.19490
 C804 C 0.43740 0.11567 0.18832
 H805 H 0.44024 0.21384 0.19181
 H806 H 0.45767 0.24779 0.17721
 H807 H 0.50034 0.20932 0.13286
 H808 H 0.48245 0.17555 0.14727
 H809 H 0.39901 0.15496 0.20505
 H810 H 0.37850 0.12191 0.21684
 H811 H 0.43328 0.08068 0.19163
 H812 H 0.45381 0.11390 0.18028
 C813 C 0.32716 0.45461 -0.15483
 C814 C 0.31583 0.45820 -0.17437
 C815 C 0.32693 0.46657 -0.19365
 C816 C 0.34961 0.47169 -0.19361
 C817 C 0.36082 0.46766 -0.17381
 C818 C 0.34968 0.45931 -0.15460
 C819 C 0.31584 0.44549 -0.13519
 C820 C 0.30642 0.43753 -0.11884
 C821 C 0.29521 0.42759 -0.09954
 C822 C 0.29514 0.43758 -0.07913
 C823 C 0.28449 0.42762 -0.06036
 C824 C 0.27375 0.40753 -0.06182
 C825 C 0.27391 0.39768 -0.08245
 C826 C 0.28456 0.40765 -0.10115
 H827 H 0.29844 0.45431 -0.17479
 H828 H 0.31759 0.46849 -0.20840
 H829 H 0.37834 0.47093 -0.17327
 H830 H 0.35869 0.45637 -0.13962
 H831 H 0.30333 0.45304 -0.07772
 H832 H 0.28448 0.43570 -0.04478
 H833 H 0.26615 0.38204 -0.08405
 H834 H 0.28462 0.39972 -0.11684
 C835 C 0.82579 0.95289 0.34385
 C836 C 0.81563 0.95510 0.32354
 C837 C 0.82739 0.96349 0.30467
 C838 C 0.84948 0.97020 0.30589
 C839 C 0.85960 0.96739 0.32643
 C840 C 0.84781 0.95901 0.34524
 C841 C 0.81401 0.94341 0.36304
 C842 C 0.80436 0.93509 0.37907
 C843 C 0.79310 0.92469 0.39810
 C844 C 0.79298 0.93420 0.41875
 C845 C 0.78267 0.92362 0.43735
 C846 C 0.77234 0.90337 0.43551
 C847 C 0.77241 0.89407 0.41461
 C848 C 0.78273 0.90466 0.39606
 H849 H 0.79873 0.94994 0.32219
 H850 H 0.81921 0.96401 0.28916
 H851 H 0.87683 0.97140 0.32787
 H852 H 0.85599 0.95699 0.36080
 H853 H 0.80097 0.94971 0.42050
 H854 H 0.78269 0.93131 0.45315
 H855 H 0.76494 0.87833 0.41269
 H856 H 0.78284 0.89710 0.38018
 C857 C 0.83627 0.01641 1.18535
 C858 C 0.82435 0.00195 1.19973
 C859 C 0.83328 -0.00582 1.21964
 C860 C 0.85428 0.00088 1.22558
 C861 C 0.86630 0.01503 1.21069
 C862 C 0.85732 0.02280 1.19080
 C863 C 0.82659 0.02529 1.16540
 C864 C 0.81829 0.03319 1.14897
 C865 C 0.80818 0.04324 1.12973
 C866 C 0.80833 0.03207 1.10998
 C867 C 0.79852 0.04207 1.09135
 C868 C 0.78840 0.06335 1.09232
 C869 C 0.78837 0.07440 1.11227
 C870 C 0.79818 0.06440 1.13082
 H871 H 0.80807 -0.00320 1.19563
 H872 H 0.82374 -0.01721 1.23024
 H873 H 0.88245 0.02055 1.21441
 H874 H 0.86671 0.03400 1.17978
 H875 H 0.81600 0.01566 1.10897
 H876 H 0.79865 0.03308 1.07629
 H877 H 0.78108 0.09094 1.11346
 H878 H 0.79805 0.07323 1.14600
 C879 C 0.33585 0.51951 0.68638
 C880 C 0.32627 0.50157 0.69817
 C881 C 0.33521 0.49332 0.71791
 C882 C 0.35386 0.50295 0.72614
 C883 C 0.36352 0.52082 0.71405
 C884 C 0.35454 0.52906 0.69431
 C885 C 0.32613 0.52847 0.66648
 C886 C 0.31779 0.53617 0.64998
 C887 C 0.30767 0.54564 0.63049
 C888 C 0.28453 0.54591 0.62907
 C889 C 0.27460 0.55585 0.61053
 C890 C 0.28772 0.56569 0.59314
 C891 C 0.31100 0.56508 0.59461
 C892 C 0.32089 0.55514 0.61317
 H893 H 0.31182 0.49403 0.69217
 H894 H 0.32759 0.47934 0.72669
 H895 H 0.37766 0.52881 0.72011
 H896 H 0.36201 0.54304 0.68537
 H897 H 0.27415 0.53858 0.64238
 H898 H 0.25667 0.55583 0.60978
 H899 H 0.32153 0.57277 0.58166
 H900 H 0.33881 0.55511 0.61415
 C901 C 0.17248 0.51959 0.34861
 C902 C 0.18177 0.52358 0.32723
 C903 C 0.17051 0.51770 0.30885
 C904 C 0.14989 0.50738 0.31154
 C905 C 0.14062 0.50371 0.33322
 C906 C 0.15194 0.50960 0.35157
 C907 C 0.18318 0.52732 0.36739
 C908 C 0.19175 0.53453 0.38299
 C909 C 0.20155 0.54410 0.40135
 C910 C 0.21424 0.56290 0.39763
 C911 C 0.22238 0.57339 0.41547
 C912 C 0.21790 0.56523 0.43733
 C913 C 0.20563 0.54597 0.44090
 C914 C 0.19744 0.53552 0.42299
 H915 H 0.19746 0.53175 0.32473
 H916 H 0.17769 0.52177 0.29248
 H917 H 0.12430 0.49703 0.33618
 H918 H 0.14435 0.50692 0.36804
 H919 H 0.21751 0.56969 0.38095
 H920 H 0.23207 0.58799 0.41219
 H921 H 0.20175 0.53944 0.45755
 H922 H 0.18752 0.52104 0.42605
 C923 C 0.67739 0.02085 0.84296
 C924 C 0.65517 0.01492 0.84534
 C925 C 0.64390 0.00930 0.82689
 C926 C 0.65480 0.00906 0.80570
 C927 C 0.67711 0.01549 0.80351
 C928 C 0.68834 0.02113 0.82202
 C929 C 0.68836 0.02815 0.86177
 C930 C 0.69703 0.03493 0.87753
 C931 C 0.70679 0.04391 0.89624
 C932 C 0.70270 0.03459 0.91760
 C933 C 0.71067 0.04454 0.93593
 C934 C 0.72271 0.06401 0.93306
 C935 C 0.72722 0.07287 0.91147
 C936 C 0.71929 0.06290 0.89321
 H937 H 0.64637 0.01515 0.86139
 H938 H 0.62646 0.00568 0.82920
 H939 H 0.68577 0.01681 0.78744
 H940 H 0.70540 0.02623 0.81991
 H941 H 0.69292 0.01997 0.92014
 H942 H 0.70676 0.03746 0.95236
 H943 H 0.73672 0.08766 0.90872
 H944 H 0.72254 0.07026 0.87675
 C945 C 0.66837 0.96105 0.68869
 C946 C 0.67668 0.95437 0.70924
 C947 C 0.66889 0.96482 0.72838
 C948 C 0.65264 0.98208 0.72721
 C949 C 0.64458 0.98886 0.70646
 C950 C 0.65241 0.97840 0.68732
 C951 C 0.67581 0.94968 0.66916
 C952 C 0.68194 0.93986 0.65295
 C953 C 0.68917 0.92779 0.63379
 C954 C 0.69947 0.90681 0.63647
 C955 C 0.70624 0.89488 0.61794
 C956 C 0.70280 0.90378 0.59643
 C957 C 0.69250 0.92494 0.59390
 C958 C 0.68571 0.93684 0.61247
 H959 H 0.68896 0.94088 0.71051
 H960 H 0.67514 0.95895 0.74415
 H961 H 0.63228 1.00229 0.70499
 H962 H 0.64589 0.98373 0.67150
 H963 H 0.70226 0.89966 0.65289
 H964 H 0.71441 0.87878 0.62044
 H965 H 0.68937 0.93214 0.57758
 H966 H 0.67767 0.95304 0.61021
 C967 C 0.16602 0.46444 0.19281
 C968 C 0.14959 0.48139 0.19204
 C969 C 0.14128 0.49077 0.21158
 C970 C 0.14930 0.48329 0.23215
 C971 C 0.16610 0.46652 0.23273
 C972 C 0.17437 0.45715 0.21317
 C973 C 0.17371 0.45394 0.17286
 C974 C 0.17995 0.44471 0.15633
 C975 C 0.18721 0.43316 0.13686
 C976 C 0.18479 0.44316 0.11575
 C977 C 0.19141 0.43163 0.09688
 C978 C 0.20049 0.40991 0.09894
 C979 C 0.20297 0.40010 0.12026
 C980 C 0.19636 0.41165 0.13906
 H981 H 0.14302 0.48717 0.17636
 H982 H 0.12859 0.50388 0.21058
 H983 H 0.17237 0.46016 0.24832
 H984 H 0.18700 0.44395 0.21396
 H985 H 0.17763 0.45978 0.11386
 H986 H 0.18909 0.43954 0.08070
 H987 H 0.21021 0.38355 0.12240
 H988 H 0.19835 0.40378 0.15533
 C989 C -0.15357 0.32239 0.45539
 C990 C -0.15209 0.34462 0.46015
 C991 C -0.17085 0.35648 0.46827
 C992 C -0.19141 0.34623 0.47218
 C993 C -0.19273 0.32387 0.46694
 C994 C -0.17390 0.31205 0.45879
 C995 C -0.13451 0.31057 0.44591
 C996 C -0.11861 0.30094 0.43750
 C997 C -0.09975 0.28975 0.42692
 C998 C -0.07887 0.28958 0.43614
 C999 C -0.06040 0.27948 0.42528
 C1000 C -0.06260 0.26943 0.40503
 C1001 C -0.08372 0.26950 0.39604
 C1002 C -0.10214 0.27960 0.40692
 H1003 H -0.13652 0.35292 0.45719
 H1004 H -0.16937 0.37386 0.47116
 H1005 H -0.20828 0.31551 0.46836
 H1006 H -0.17534 0.29495 0.45470
 H1007 H -0.07684 0.29741 0.45162
 H1008 H -0.04442 0.27949 0.43274
 H1009 H -0.08591 0.26222 0.38032
 H1010 H -0.11820 0.27975 0.39956
 C1011 C 0.35131 0.82819 0.95878
 C1012 C 0.34854 0.85078 0.95357
 C1013 C 0.32932 0.86234 0.96098
 C1014 C 0.31204 0.85147 0.97337
 C1015 C 0.31580 0.82882 0.97953
 C1016 C 0.33510 0.81732 0.97204
 C1017 C 0.37052 0.81614 0.94994
 C1018 C 0.38642 0.80626 0.94185
 C1019 C 0.40513 0.79471 0.93140
 C1020 C 0.42609 0.79452 0.94045
 C1021 C 0.44438 0.78402 0.92966
 C1022 C 0.44189 0.77357 0.90967
 C1023 C 0.42069 0.77371 0.90085
 C1024 C 0.40246 0.78421 0.91165
 H1025 H 0.36117 0.85945 0.94359
 H1026 H 0.32782 0.87990 0.95676
 H1027 H 0.30422 0.81973 0.99030
 H1028 H 0.33733 0.79988 0.97654
 H1029 H 0.42834 0.80263 0.95573
 H1030 H 0.46043 0.78399 0.93698
 H1031 H 0.41827 0.76616 0.88532
 H1032 H 0.38634 0.78439 0.90443
 C1033 C 1.19328 0.83763 0.02082
 C1034 C 1.19335 0.85931 0.01189
 C1035 C 1.21327 0.86850 0.00376
 C1036 C 1.23365 0.85611 0.00441
 C1037 C 1.23314 0.83416 0.01342
 C1038 C 1.21319 0.82510 0.02154
 C1039 C 1.17287 0.82826 0.02955
 C1040 C 1.15601 0.82020 0.03722
 C1041 C 1.13621 0.81033 0.04687
 C1042 C 1.11715 0.80942 0.03464
 C1043 C 1.09803 0.79966 0.04416
 C1044 C 1.09780 0.79064 0.06603
 C1045 C 1.11705 0.79172 0.07817
 C1046 C 1.13609 0.80148 0.06864
 H1047 H 1.17796 0.86912 0.01110
 H1048 H 1.21215 0.88500 -0.00373
 H1049 H 1.24820 0.82402 0.01500
 H1050 H 1.21336 0.80832 0.02859
 H1051 H 1.11708 0.81618 0.01774
 H1052 H 1.08354 0.79891 0.03434
 H1053 H 1.11730 0.78530 0.09516
 H1054 H 1.15073 0.80216 0.07829
 C1055 C 0.68666 0.33482 0.51768
 C1056 C 0.70118 0.32251 0.50387
 C1057 C 0.72156 0.33102 0.49624
 C1058 C 0.72782 0.35198 0.50242
 C1059 C 0.71290 0.36431 0.51606
 C1060 C 0.69253 0.35576 0.52368
 C1061 C 0.66597 0.32577 0.52606
 C1062 C 0.64881 0.31805 0.53336
 C1063 C 0.62856 0.30867 0.54251
 C1064 C 0.62614 0.28577 0.54301
 C1065 C 0.60701 0.27650 0.55299
 C1066 C 0.59003 0.29005 0.56264
 C1067 C 0.59243 0.31310 0.56165
 C1068 C 0.61159 0.32233 0.55168
 H1069 H 0.69676 0.30631 0.49902
 H1070 H 0.73224 0.32123 0.48527
 H1071 H 0.71693 0.38042 0.52119
 H1072 H 0.68141 0.36544 0.53439
 H1073 H 0.63917 0.27504 0.53595
 H1074 H 0.60553 0.25873 0.55325
 H1075 H 0.57982 0.32395 0.56918
 H1076 H 0.61334 0.34007 0.55147
 C1077 C 0.34291 0.17283 0.52354
 C1078 C 0.34618 0.15235 0.51393
 C1079 C 0.32798 0.14086 0.50766
 C1080 C 0.30612 0.14989 0.51049
 C1081 C 0.30308 0.17035 0.52063
 C1082 C 0.32133 0.18180 0.52689
 C1083 C 0.36157 0.18396 0.53120
 C1084 C 0.37714 0.19296 0.53818
 C1085 C 0.39557 0.20330 0.54727
 C1086 C 0.41725 0.19963 0.53841
 C1087 C 0.43526 0.20849 0.54827
 C1088 C 0.43177 0.22104 0.56721
 C1089 C 0.40987 0.22505 0.57565
 C1090 C 0.39191 0.21622 0.56576
 H1091 H 0.36279 0.14501 0.51174
 H1092 H 0.33113 0.12464 0.50120
 H1093 H 0.28655 0.17733 0.52417
 H1094 H 0.31856 0.19743 0.53477
 H1095 H 0.42027 0.18955 0.52416
 H1096 H 0.45194 0.20494 0.54154
 H1097 H 0.40663 0.23491 0.59002
 H1098 H 0.37520 0.21917 0.57274
 C1099 C 0.85322 0.67109 0.01348
 C1100 C 0.83208 0.68141 0.01530
 C1101 C 0.81336 0.67028 0.00969
 C1102 C 0.81552 0.64873 0.00177
 C1103 C 0.83695 0.63850 0.00024
 C1104 C 0.85561 0.64967 0.00583
 C1105 C 0.87217 0.68152 0.02142
 C1106 C 0.88800 0.68957 0.02897
 C1107 C 0.90670 0.69833 0.03912
 C1108 C 0.91560 0.71843 0.03136
 C1109 C 0.93316 0.72716 0.04212
 C1110 C 0.94187 0.71590 0.06082
 C1111 C 0.93306 0.69552 0.06816
 C1112 C 0.91561 0.68683 0.05740
 H1113 H 0.82997 0.69779 0.02173
 H1114 H 0.79715 0.67831 0.01230
 H1115 H 0.83933 0.62156 -0.00451
 H1116 H 0.87184 0.64131 0.00489
 H1117 H 0.90878 0.72749 0.01724
 H1118 H 0.93950 0.74296 0.03620
 H1119 H 0.93966 0.68629 0.08229
 H1120 H 0.90890 0.67123 0.06349
 C1121 C 0.69483 0.66561 0.96260
 C1122 C 0.69792 0.64272 0.96523
 C1123 C 0.71739 0.63355 0.97399
 C1124 C 0.73444 0.64711 0.98011
 C1125 C 0.73063 0.67028 0.97810
 C1126 C 0.71108 0.67940 0.96930
 C1127 C 0.67526 0.67473 0.95233
 C1128 C 0.65894 0.68178 0.94322
 C1129 C 0.63958 0.68964 0.93178
 C1130 C 0.61827 0.68664 0.94151
 C1131 C 0.59947 0.69337 0.92993
 C1132 C 0.60177 0.70312 0.90840
 C1133 C 0.62328 0.70623 0.89886
 C1134 C 0.64204 0.69951 0.91048
 H1135 H 0.68536 0.63187 0.96023
 H1136 H 0.71878 0.61580 0.97547
 H1137 H 0.74258 0.68160 0.98328
 H1138 H 0.70875 0.69720 0.96754
 H1139 H 0.61618 0.67887 0.95794
 H1140 H 0.58314 0.69054 0.93762
 H1141 H 0.62561 0.71398 0.88246
 H1142 H 0.65846 0.70188 0.90278
 C1143 C 0.19020 0.16541 0.46058
 C1144 C 0.18822 0.14777 0.47620
 C1145 C 0.20688 0.13939 0.48710
 C1146 C 0.22782 0.14857 0.48259
 C1147 C 0.22958 0.16646 0.46693
 C1148 C 0.21089 0.17480 0.45603
 C1149 C 0.17111 0.17343 0.44881
 C1150 C 0.15509 0.17984 0.43883
 C1151 C 0.13596 0.18717 0.42675
 C1152 C 0.12897 0.17461 0.40973
 C1153 C 0.11040 0.18163 0.39795
 C1154 C 0.09855 0.20135 0.40306
 C1155 C 0.10569 0.21385 0.42025
 C1156 C 0.12429 0.20680 0.43200
 H1157 H 0.17228 0.14034 0.47984
 H1158 H 0.20479 0.12577 0.49903
 H1159 H 0.24548 0.17364 0.46258
 H1160 H 0.21265 0.18837 0.44383
 H1161 H 0.13784 0.15934 0.40559
 H1162 H 0.10515 0.17149 0.38504
 H1163 H 0.09709 0.22924 0.42440
 H1164 H 0.12959 0.21667 0.44513
 C1165 C 0.58445 0.07613 0.72484
 C1166 C 0.60144 0.07976 0.73896
 C1167 C 0.61238 0.06197 0.74975
 C1168 C 0.60661 0.03992 0.74671
 C1169 C 0.58935 0.03658 0.73229
 C1170 C 0.57841 0.05453 0.72151
 C1171 C 0.57361 0.09477 0.71368
 C1172 C 0.56520 0.11089 0.70457
 C1173 C 0.55589 0.13059 0.69383
 C1174 C 0.56166 0.15139 0.70039
 C1175 C 0.55355 0.17060 0.68936
 C1176 C 0.53957 0.16926 0.67155
 C1177 C 0.53357 0.14826 0.66532
 C1178 C 0.54170 0.12907 0.67638
 H1179 H 0.60643 0.09643 0.74149
 H1180 H 0.62594 0.06582 0.75980
 H1181 H 0.58350 0.02031 0.72970
 H1182 H 0.56516 0.05153 0.71066
 H1183 H 0.57272 0.15276 0.71382
 H1184 H 0.55871 0.18647 0.69438
 H1185 H 0.52259 0.14668 0.65188
 H1186 H 0.53709 0.11305 0.67118
 C1187 C 1.08165 0.57694 0.22940
 C1188 C 1.10137 0.57970 0.24006
 C1189 C 1.11164 0.56181 0.25136
 C1190 C 1.10229 0.54082 0.25222
 C1191 C 1.08251 0.53812 0.24137
 C1192 C 1.07222 0.55612 0.23004
 C1193 C 1.07146 0.59559 0.21769
 C1194 C 1.06367 0.61166 0.20795
 C1195 C 1.05519 0.63122 0.19633
 C1196 C 1.06041 0.65212 0.20308
 C1197 C 1.05330 0.67118 0.19114
 C1198 C 1.04090 0.66958 0.17221
 C1199 C 1.03540 0.64850 0.16579
 C1200 C 1.04253 0.62945 0.17776
 H1201 H 1.10890 0.59570 0.23954
 H1202 H 1.12710 0.56437 0.25910
 H1203 H 1.07482 0.52223 0.24190
 H1204 H 1.05695 0.55380 0.22183
 H1205 H 1.07032 0.65367 0.21737
 H1206 H 1.05803 0.68713 0.19636
 H1207 H 1.02560 0.64673 0.15148
 H1208 H 1.03838 0.61336 0.17239
 C1209 C 0.93182 0.91953 0.22336
 C1210 C 0.92588 0.91571 0.24576
 C1211 C 0.91325 0.93160 0.25734
 C1212 C 0.90618 0.95175 0.24671
 C1213 C 0.91290 0.95557 0.22417
 C1214 C 0.92551 0.93956 0.21265
 C1215 C 0.94333 0.90237 0.21118
 C1216 C 0.95236 0.88758 0.20107
 C1217 C 0.96241 0.86954 0.18905
 C1218 C 0.97584 0.85345 0.19980
 C1219 C 0.98449 0.83522 0.18841
 C1220 C 0.97971 0.83282 0.16613
 C1221 C 0.96649 0.84928 0.15540
 C1222 C 0.95789 0.86749 0.16679
 H1223 H 0.93079 0.90029 0.25427
 H1224 H 0.90943 0.92800 0.27475
 H1225 H 0.90753 0.97024 0.21478
 H1226 H 0.92986 0.94259 0.19520
 H1227 H 0.97933 0.85481 0.21707
 H1228 H 0.99443 0.82272 0.19718
 H1229 H 0.96280 0.84809 0.13817
 H1230 H 0.94750 0.87983 0.15832
 C1231 C 0.43574 0.42400 0.72519
 C1232 C 0.42461 0.44120 0.71350
 C1233 C 0.41161 0.45700 0.72491
 C1234 C 0.40950 0.45569 0.74818
 C1235 C 0.42140 0.43882 0.75980
 C1236 C 0.43440 0.42306 0.74836
 C1237 C 0.44698 0.40635 0.71346
 C1238 C 0.45554 0.39114 0.70362
 C1239 C 0.46478 0.37261 0.69176
 C1240 C 0.45952 0.37030 0.66974
 C1241 C 0.46705 0.35158 0.65857
 C1242 C 0.47992 0.33482 0.66929
 C1243 C 0.48554 0.33749 0.69128
 C1244 C 0.47795 0.35625 0.70246
 H1245 H 0.42539 0.44198 0.69555
 H1246 H 0.40240 0.46957 0.71547
 H1247 H 0.42030 0.43754 0.77773
 H1248 H 0.44291 0.40981 0.75759
 H1249 H 0.44932 0.38284 0.66130
 H1250 H 0.46275 0.35019 0.64153
 H1251 H 0.49527 0.32480 0.70002
 H1252 H 0.48199 0.35780 0.71956
 C1253 C 0.42729 0.56612 0.77738
 C1254 C 0.40566 0.56545 0.78688
 C1255 C 0.39298 0.54692 0.78487
 C1256 C 0.40176 0.52871 0.77332
 C1257 C 0.42323 0.52974 0.76314
 C1258 C 0.43600 0.54834 0.76528
 C1259 C 0.44070 0.58450 0.78162
 C1260 C 0.45101 0.60000 0.78676
 C1261 C 0.46217 0.61844 0.79475
 C1262 C 0.45654 0.62526 0.81612
 C1263 C 0.46704 0.64302 0.82444
 C1264 C 0.48345 0.65429 0.81151
 C1265 C 0.48892 0.64749 0.78991
 C1266 C 0.47835 0.62960 0.78159
 H1267 H 0.39875 0.57910 0.79628
 H1268 H 0.37633 0.54680 0.79250
 H1269 H 0.43042 0.51589 0.75426
 H1270 H 0.45278 0.54863 0.75796
 H1271 H 0.44394 0.61684 0.82640
 H1272 H 0.46210 0.64811 0.84094
 H1273 H 0.50157 0.65577 0.77962
 H1274 H 0.48283 0.62446 0.76500
 C1275 C -0.06482 0.05764 0.27695
 C1276 C -0.07527 0.05487 0.25716
 C1277 C -0.08892 0.03692 0.25525
 C1278 C -0.09241 0.02165 0.27318
 C1279 C -0.08133 0.02427 0.29277
 C1280 C -0.06767 0.04214 0.29464
 C1281 C -0.05228 0.07697 0.27985
 C1282 C -0.04226 0.09320 0.28337
 C1283 C -0.03085 0.11251 0.28891
 C1284 C -0.03866 0.13361 0.28187
 C1285 C -0.02921 0.15243 0.28947
 C1286 C -0.01194 0.15033 0.30435
 C1287 C -0.00369 0.12904 0.31068
 C1288 C -0.01311 0.11028 0.30303
 H1289 H -0.07329 0.06685 0.24340
 H1290 H -0.09736 0.03553 0.24009
 H1291 H -0.08339 0.01259 0.30676
 H1292 H -0.05967 0.04410 0.31004
 H1293 H -0.05251 0.13552 0.27108
 H1294 H -0.03607 0.16857 0.28449
 H1295 H 0.00979 0.12691 0.32188
 H1296 H -0.00698 0.09403 0.30864
 C1297 C 0.06940 0.42481 0.27480
 C1298 C 0.08200 0.43206 0.25597
 C1299 C 0.09325 0.45185 0.25599
 C1300 C 0.09215 0.46450 0.27496
 C1301 C 0.07863 0.45760 0.29342
 C1302 C 0.06735 0.43787 0.29333
 C1303 C 0.06066 0.40298 0.27621
 C1304 C 0.05427 0.38435 0.27847
 C1305 C 0.04770 0.36187 0.28252
 C1306 C 0.06305 0.34446 0.27834
 C1307 C 0.05804 0.32281 0.28526
 C1308 C 0.03760 0.31829 0.29652
 C1309 C 0.02186 0.33576 0.29973
 C1310 C 0.02693 0.35743 0.29284
 H1311 H 0.08388 0.42197 0.24162
 H1312 H 0.10378 0.45654 0.24166
 H1313 H 0.07737 0.46711 0.30817
 H1314 H 0.05774 0.43237 0.30804
 H1315 H 0.07923 0.34772 0.27046
 H1316 H 0.07039 0.30966 0.28235
 H1317 H 0.00610 0.33287 0.30861
 H1318 H 0.01501 0.37080 0.29636
 C1319 C 0.57310 0.92658 0.77446
 C1320 C 0.58567 0.93248 0.75514
 C1321 C 0.59691 0.95235 0.75364
 C1322 C 0.59586 0.96636 0.77159
 C1323 C 0.58222 0.96087 0.79041
 C1324 C 0.57092 0.94111 0.79183
 C1325 C 0.56509 0.90455 0.77798
 C1326 C 0.55958 0.88588 0.78246
 C1327 C 0.55440 0.86360 0.78963
 C1328 C 0.54072 0.85084 0.77763
 C1329 C 0.53605 0.82918 0.78516
 C1330 C 0.54515 0.82009 0.80472
 C1331 C 0.55880 0.83315 0.81660
 C1332 C 0.56340 0.85466 0.80909
 H1333 H 0.58770 0.92124 0.74172
 H1334 H 0.60755 0.95599 0.73908
 H1335 H 0.58104 0.97145 0.80440
 H1336 H 0.56138 0.93665 0.80693
 H1337 H 0.53368 0.85761 0.76252
 H1338 H 0.52554 0.81951 0.77564
 H1339 H 0.56564 0.82688 0.83197
 H1340 H 0.57392 0.86441 0.81857
 C1341 C 0.73360 0.58161 0.07481
 C1342 C 0.74421 0.60153 0.07666
 C1343 C 0.75559 0.61128 0.05829
 C1344 C 0.75657 0.60123 0.03774
 C1345 C 0.74590 0.58117 0.03600
 C1346 C 0.73448 0.57141 0.05446
 C1347 C 0.72140 0.57217 0.09378
 C1348 C 0.71107 0.56507 0.10999
 C1349 C 0.69853 0.55748 0.12957
 C1350 C 0.67871 0.56874 0.13599
 C1351 C 0.66666 0.56191 0.15526
 C1352 C 0.67426 0.54367 0.16842
 C1353 C 0.69424 0.53245 0.16186
 C1354 C 0.70629 0.53933 0.14254
 H1355 H 0.74349 0.60966 0.09227
 H1356 H 0.76323 0.62695 0.06011
 H1357 H 0.74656 0.57291 0.02049
 H1358 H 0.72630 0.55598 0.05285
 H1359 H 0.67265 0.58292 0.12618
 H1360 H 0.65154 0.57110 0.16002
 H1361 H 0.70039 0.51821 0.17150
 H1362 H 0.72164 0.53053 0.13775
 C1363 C 0.22547 1.07694 0.57729
 C1364 C 0.21337 1.08591 0.55966
 C1365 C 0.22433 1.09659 0.54150
 C1366 C 0.24753 1.09860 0.54078
 C1367 C 0.25962 1.08885 0.55829
 C1368 C 0.24865 1.07816 0.57642
 C1369 C 0.21400 1.06767 0.59680
 C1370 C 0.20418 1.06059 0.61333
 C1371 C 0.19215 1.05289 0.63318
 C1372 C 0.17202 1.06353 0.63966
 C1373 C 0.16037 1.05651 0.65910
 C1374 C 0.16870 1.03868 0.67238
 C1375 C 0.18899 1.02808 0.66575
 C1376 C 0.20063 1.03515 0.64625
 H1377 H 0.19540 1.08513 0.56019
 H1378 H 0.21447 1.10394 0.52850
 H1379 H 0.27757 1.08964 0.55809
 H1380 H 0.25821 1.07122 0.58995
 H1381 H 0.16537 1.07737 0.62975
 H1382 H 0.14500 1.06524 0.66392
 H1383 H 0.19571 1.01417 0.67548
 H1384 H 0.21622 1.02681 0.64139
 C1385 C 0.22809 0.93212 0.92219
 C1386 C 0.24210 0.91476 0.91506
 C1387 C 0.25396 0.90162 0.93028
 C1388 C 0.25207 0.90549 0.95319
 C1389 C 0.23795 0.92335 0.96007
 C1390 C 0.22608 0.93647 0.94469
 C1391 C 0.21533 0.94480 0.90626
 C1392 C 0.20470 0.95448 0.89223
 C1393 C 0.19199 0.96486 0.87485
 C1394 C 0.16936 0.96070 0.87401
 C1395 C 0.15740 0.96880 0.85598
 C1396 C 0.16795 0.98116 0.83848
 C1397 C 0.19054 0.98585 0.83977
 C1398 C 0.20250 0.97767 0.85783
 H1399 H 0.24361 0.91109 0.89767
 H1400 H 0.26377 0.88787 0.92381
 H1401 H 0.23637 0.92793 0.97712
 H1402 H 0.21533 0.95001 0.95038
 H1403 H 0.16107 0.95075 0.88705
 H1404 H 0.13994 0.96522 0.85561
 H1405 H 0.19914 0.99515 0.82646
 H1406 H 0.22007 0.98084 0.85823
 C1407 C 0.72697 0.42837 0.41713
 C1408 C 0.73672 0.40794 0.41157
 C1409 C 0.74798 0.39487 0.42732
 C1410 C 0.74969 0.40207 0.44893
 C1411 C 0.73983 0.42264 0.45443
 C1412 C 0.72853 0.43573 0.43859
 C1413 C 0.71501 0.44131 0.40075
 C1414 C 0.70494 0.45126 0.38646
 C1415 C 0.69280 0.46207 0.36887
 C1416 C 0.67035 0.45766 0.36696
 C1417 C 0.65891 0.46653 0.34888
 C1418 C 0.66979 0.47991 0.33240
 C1419 C 0.69221 0.48473 0.33475
 C1420 C 0.70366 0.47579 0.35285
 H1421 H 0.73547 0.40200 0.39508
 H1422 H 0.75498 0.37894 0.42266
 H1423 H 0.74107 0.42873 0.47085
 H1424 H 0.72102 0.45153 0.44307
 H1425 H 0.66180 0.44703 0.37923
 H1426 H 0.64156 0.46281 0.34773
 H1427 H 0.70107 0.49482 0.32224
 H1428 H 0.72108 0.47917 0.35409
 C1429 C 0.77989 0.43517 0.55493
 C1430 C 0.79783 0.43158 0.53980
 C1431 C 0.79589 0.41744 0.52247
 C1432 C 0.77594 0.40660 0.52004
 C1433 C 0.75771 0.41099 0.53479
 C1434 C 0.75970 0.42511 0.55221
 C1435 C 0.78291 0.44791 0.57398
 C1436 C 0.78654 0.45798 0.59007
 C1437 C 0.79217 0.46931 0.60931
 C1438 C 0.80671 0.48684 0.60700
 C1439 C 0.81444 0.49613 0.62576
 C1440 C 0.80779 0.48795 0.64712
 C1441 C 0.79251 0.47088 0.64929
 C1442 C 0.78481 0.46158 0.63049
 H1443 H 0.81353 0.43929 0.54170
 H1444 H 0.81012 0.41478 0.51113
 H1445 H 0.74223 0.40287 0.53350
 H1446 H 0.74572 0.42769 0.56389
 H1447 H 0.81258 0.49290 0.59070
 H1448 H 0.82596 0.50944 0.62356
 H1449 H 0.78728 0.46406 0.66549
 H1450 H 0.77371 0.44788 0.63247
 C1451 C 0.28159 -0.06512 0.05822
 C1452 C 0.30074 -0.07101 0.04559
 C1453 C 0.29941 -0.08435 0.02755
 C1454 C 0.27879 -0.09220 0.02167
 C1455 C 0.25947 -0.08559 0.03432
 C1456 C 0.26094 -0.07226 0.05246
 C1457 C 0.28360 -0.05259 0.07762
 C1458 C 0.28646 -0.04254 0.09392
 C1459 C 0.29132 -0.03108 0.11333
 C1460 C 0.30524 -0.01304 0.11129
 C1461 C 0.31241 -0.00359 0.13019
 C1462 C 0.30580 -0.01210 0.15144
 C1463 C 0.29108 -0.02966 0.15335
 C1464 C 0.28395 -0.03914 0.13438
 H1465 H 0.31683 -0.06544 0.04981
 H1466 H 0.31467 -0.08805 0.01805
 H1467 H 0.24326 -0.09154 0.03129
 H1468 H 0.24600 -0.06795 0.06228
 H1469 H 0.31111 -0.00672 0.09508
 H1470 H 0.32350 0.01010 0.12821
 H1471 H 0.28590 -0.03671 0.16947
 H1472 H 0.27333 -0.05322 0.13616
 C1473 C 0.27255 0.07083 0.42506
 C1474 C 0.25329 0.08275 0.43201
 C1475 C 0.25274 0.09389 0.45179
 C1476 C 0.27155 0.09335 0.46474
 C1477 C 0.29051 0.08063 0.45804
 C1478 C 0.29099 0.06947 0.43833
 C1479 C 0.27434 0.06189 0.40340
 C1480 C 0.27685 0.05527 0.38492
 C1481 C 0.28112 0.04838 0.36262
 C1482 C 0.27715 0.06332 0.34478
 C1483 C 0.28426 0.05801 0.32327
 C1484 C 0.29550 0.03769 0.31933
 C1485 C 0.29849 0.02235 0.33723
 C1486 C 0.29140 0.02772 0.35875
 H1487 H 0.23900 0.08410 0.42176
 H1488 H 0.23803 0.10381 0.45630
 H1489 H 0.30515 0.07979 0.46779
 H1490 H 0.30603 0.06038 0.43306
 H1491 H 0.26930 0.07940 0.34758
 H1492 H 0.28153 0.07005 0.30979
 H1493 H 0.30734 0.00670 0.33477
 H1494 H 0.29475 0.01612 0.37246
 C1495 C 0.77950 0.56557 0.92282
 C1496 C 0.79793 0.56435 0.93610
 C1497 C 0.79765 0.57623 0.95538
 C1498 C 0.77893 0.58956 0.96156
 C1499 C 0.76010 0.58978 0.94872
 C1500 C 0.76041 0.57791 0.92943
 C1501 C 0.78125 0.55653 0.90120
 C1502 C 0.78351 0.55015 0.88262
 C1503 C 0.78730 0.54386 0.86006
 C1504 C 0.79776 0.52346 0.85539
 C1505 C 0.80425 0.51875 0.83354
 C1506 C 0.80051 0.53448 0.81613
 C1507 C 0.78912 0.55452 0.82091
 C1508 C 0.78259 0.55917 0.84273
 H1509 H 0.81287 0.55497 0.93108
 H1510 H 0.81235 0.57566 0.96504
 H1511 H 0.74568 0.60019 0.95271
 H1512 H 0.74615 0.57921 0.91913
 H1513 H 0.80167 0.51158 0.86869
 H1514 H 0.81324 0.50330 0.83042
 H1515 H 0.78583 0.56685 0.80783
 H1516 H 0.77459 0.57505 0.84617
 C1517 C 0.07055 0.72971 0.58210
 C1518 C 0.07513 0.74459 0.59802
 C1519 C 0.05786 0.75606 0.60922
 C1520 C 0.03534 0.75298 0.60479
 C1521 C 0.03102 0.73802 0.58835
 C1522 C 0.04848 0.72652 0.57717
 C1523 C 0.08875 0.71745 0.57155
 C1524 C 0.10478 0.70755 0.56370
 C1525 C 0.12462 0.69609 0.55536
 C1526 C 0.14549 0.70341 0.56038
 C1527 C 0.16489 0.69182 0.55337
 C1528 C 0.16369 0.67268 0.54125
 C1529 C 0.14262 0.66561 0.53602
 C1530 C 0.12322 0.67724 0.54306
 H1531 H 0.09215 0.74706 0.60214
 H1532 H 0.06253 0.76655 0.62204
 H1533 H 0.01436 0.73533 0.58350
 H1534 H 0.04474 0.71508 0.56473
 H1535 H 0.14676 0.71791 0.57002
 H1536 H 0.18079 0.69753 0.55793
 H1537 H 0.14115 0.65112 0.52645
 H1538 H 0.10716 0.67142 0.53909
 C1539 C 0.57400 0.22517 1.08504
 C1540 C 0.55301 0.22695 1.07597
 C1541 C 0.53556 0.23884 1.08669
 C1542 C 0.53897 0.24913 1.10655
 C1543 C 0.56010 0.24711 1.11554
 C1544 C 0.57746 0.23524 1.10485
 C1545 C 0.59211 0.21289 1.07439
 C1546 C 0.60777 0.20267 1.06624
 C1547 C 0.62689 0.19045 1.05739
 C1548 C 0.63976 0.19926 1.03943
 C1549 C 0.65897 0.18780 1.03163
 C1550 C 0.66555 0.16735 1.04174
 C1551 C 0.65239 0.15859 1.05969
 C1552 C 0.63323 0.17007 1.06744
 H1553 H 0.55016 0.21919 1.06064
 H1554 H 0.51954 0.24027 1.07926
 H1555 H 0.56318 0.25440 1.13105
 H1556 H 0.59358 0.23384 1.11211
 H1557 H 0.63504 0.21507 1.03157
 H1558 H 0.66859 0.19485 1.01763
 H1559 H 0.65717 0.14307 1.06805
 H1560 H 0.62351 0.16319 1.08148
 C1561 C 0.91987 0.22812 0.93614
 C1562 C 0.93743 0.21638 0.92548
 C1563 C 0.95323 0.22760 0.91198
 C1564 C 0.95159 0.25074 0.90891
 C1565 C 0.93430 0.26248 0.92029
 C1566 C 0.91853 0.25122 0.93379
 C1567 C 0.90231 0.21635 0.94793
 C1568 C 0.88728 0.20620 0.95688
 C1569 C 0.86908 0.19368 0.96645
 C1570 C 0.86766 0.17145 0.96156
 C1571 C 0.84922 0.15955 0.96929
 C1572 C 0.83187 0.16973 0.98201
 C1573 C 0.83368 0.19194 0.98732
 C1574 C 0.85216 0.20386 0.97951
 H1575 H 0.93852 0.19848 0.92702
 H1576 H 0.96608 0.21805 0.90317
 H1577 H 0.93276 0.28033 0.91844
 H1578 H 0.90497 0.26047 0.94191
 H1579 H 0.88064 0.16341 0.95145
 H1580 H 0.84848 0.14237 0.96523
 H1581 H 0.82050 0.20025 0.99694
 H1582 H 0.85303 0.22111 0.98327
 C1583 C 0.41872 0.72741 0.43434
 C1584 C 0.43615 0.71558 0.42355
 C1585 C 0.45222 0.72678 0.41037
 C1586 C 0.45097 0.74997 0.40774
 C1587 C 0.43379 0.76175 0.41921
 C1588 C 0.41776 0.75053 0.43240
 C1589 C 0.40097 0.71580 0.44600
 C1590 C 0.38574 0.70594 0.45497
 C1591 C 0.36727 0.69393 0.46473
 C1592 C 0.36528 0.67168 0.46018
 C1593 C 0.34665 0.66027 0.46831
 C1594 C 0.32968 0.67097 0.48108
 C1595 C 0.33202 0.69322 0.48597
 C1596 C 0.35069 0.70465 0.47777
 H1597 H 0.43695 0.69767 0.42480
 H1598 H 0.46500 0.71721 0.40149
 H1599 H 0.43256 0.77963 0.41772
 H1600 H 0.40432 0.75985 0.44064
 H1601 H 0.37800 0.66323 0.45009
 H1602 H 0.34551 0.64305 0.46457
 H1603 H 0.31915 0.70194 0.49560
 H1604 H 0.35200 0.72191 0.48127
 C1605 C 0.56158 0.77744 0.42795
 C1606 C 0.54325 0.76531 0.43583
 C1607 C 0.52483 0.76395 0.42275
 C1608 C 0.52453 0.77484 0.40172
 C1609 C 0.54320 0.78666 0.39383
 C1610 C 0.56155 0.78794 0.40687
 C1611 C 0.58013 0.78007 0.44160
 C1612 C 0.59585 0.78336 0.45245
 C1613 C 0.61470 0.78861 0.46471
 C1614 C 0.61173 0.80228 0.48270
 C1615 C 0.63019 0.80979 0.49289
 C1616 C 0.65190 0.80376 0.48515
 C1617 C 0.65471 0.78927 0.46763
 C1618 C 0.63621 0.78182 0.45743
 H1619 H 0.54305 0.75721 0.45218
 H1620 H 0.51062 0.75490 0.42933
 H1621 H 0.54367 0.79485 0.37754
 H1622 H 0.57565 0.79735 0.40059
 H1623 H 0.59517 0.80771 0.48843
 H1624 H 0.62749 0.82069 0.50653
 H1625 H 0.67120 0.78454 0.46114
 H1626 H 0.63871 0.77139 0.44339
 C1627 C 0.06269 0.28068 -0.07469
 C1628 C 0.04463 0.26876 -0.06574
 C1629 C 0.02593 0.26649 -0.07824
 C1630 C 0.02507 0.27632 -0.09971
 C1631 C 0.04351 0.28782 -0.10869
 C1632 C 0.06215 0.28998 -0.09626
 C1633 C 0.08130 0.28477 -0.06160
 C1634 C 0.09700 0.28965 -0.05145
 C1635 C 0.11568 0.29725 -0.04035
 C1636 C 0.12654 0.28381 -0.02447
 C1637 C 0.14460 0.29179 -0.01385
 C1638 C 0.15186 0.31333 -0.01897
 C1639 C 0.14093 0.32654 -0.03511
 C1640 C 0.12300 0.31856 -0.04567
 H1641 H 0.04481 0.26161 -0.04899
 H1642 H 0.01190 0.25768 -0.07086
 H1643 H 0.04354 0.29519 -0.12534
 H1644 H 0.07602 0.29925 -0.10335
 H1645 H 0.12101 0.26727 -0.02024
 H1646 H 0.15264 0.28129 -0.00141
 H1647 H 0.14639 0.34301 -0.03977
 H1648 H 0.11482 0.32905 -0.05803
 C1649 C 0.42432 0.27856 0.07415
 C1650 C 0.43899 0.29601 0.07232
 C1651 C 0.45865 0.29463 0.08370
 C1652 C 0.46389 0.27576 0.09710
 C1653 C 0.44970 0.25778 0.09789
 C1654 C 0.42995 0.25924 0.08655
 C1655 C 0.40243 0.28187 0.06578
 C1656 C 0.38383 0.28608 0.05992
 C1657 C 0.36158 0.29289 0.05428
 C1658 C 0.35223 0.31234 0.06286
 C1659 C 0.33069 0.31945 0.05788
 C1660 C 0.31803 0.30717 0.04424
 C1661 C 0.32755 0.28763 0.03554
 C1662 C 0.34923 0.28049 0.04060
 H1663 H 0.43474 0.31110 0.06290
 H1664 H 0.46938 0.30863 0.08267
 H1665 H 0.45314 0.24317 0.10832
 H1666 H 0.41860 0.24574 0.08830
 H1667 H 0.36166 0.32212 0.07338
 H1668 H 0.32410 0.33482 0.06443
 H1669 H 0.31818 0.27781 0.02503
 H1670 H 0.35631 0.26538 0.03388
 C1671 C 0.92363 0.77934 0.57548
 C1672 C 0.92680 0.79596 0.59006
 C1673 C 0.94587 0.79567 0.60221
 C1674 C 0.96247 0.77859 0.60018
 C1675 C 0.95933 0.76230 0.58467
 C1676 C 0.94004 0.76266 0.57255
 C1677 C 0.90289 0.77931 0.56461
 C1678 C 0.88480 0.78058 0.55684
 C1679 C 0.86262 0.78365 0.54907
 C1680 C 0.84440 0.77864 0.56346
 C1681 C 0.82285 0.78514 0.55771
 C1682 C 0.81924 0.79679 0.53748
 C1683 C 0.83753 0.80071 0.52260
 C1684 C 0.85911 0.79426 0.52843
 H1685 H 0.91413 0.80892 0.59256
 H1686 H 0.94667 0.80838 0.61405
 H1687 H 0.97163 0.74929 0.58141
 H1688 H 0.93784 0.74978 0.56109
 H1689 H 0.84693 0.77058 0.57955
 H1690 H 0.80906 0.78171 0.56940
 H1691 H 0.83530 0.80989 0.50703
 H1692 H 0.87310 0.79846 0.51727
   
