data_POSCAR
  _audit_creation_date              2014-09-24
  _audit_creation_method            'ToBaCCo'
  _symmetry_space_group_name_H-M    'P1'
  _symmetry_Int_Tables_number       1
  _symmetry_cell_setting            triclinic
  loop_
  _symmetry_equiv_pos_as_xyz
 x,y,z
_cell_length_a 51.0140
_cell_length_b 51.1193
_cell_length_c 51.0990
_cell_angle_alpha 90.007100
_cell_angle_beta 90.051400
_cell_angle_gamma 89.959900
loop_
  _atom_site_label
  _atom_site_type_symbol
  _atom_site_fract_x
  _atom_site_fract_y
  _atom_site_fract_z
C1 C 0.24495 1.07268 -0.00143
 C2 C 0.24260 1.06031 0.02307
 C3 C 0.24452 1.03282 0.02389
 C4 C 0.25088 1.01800 0.00148
 C5 C 0.25420 1.03137 -0.02247
 C6 C 0.25002 1.05856 -0.02455
 C7 C 0.25380 0.98868 0.00310
 C8 C 0.25125 0.97272 -0.01940
 C9 C 0.25517 0.94556 -0.01809
 C10 C 0.25974 0.93386 0.00623
 C11 C 0.26139 0.94893 0.02901
 C12 C 0.25927 0.97624 0.02724
 H13 H 0.24522 1.09379 -0.00230
 H14 H 0.23997 1.02296 0.04198
 H15 H 0.25912 1.02048 -0.03978
 H16 H 0.24641 0.98106 -0.03818
 H17 H 0.26120 0.91275 0.00748
 H18 H 0.26228 0.98749 0.04489
 C19 C 0.74724 0.57150 0.50472
 C20 C 0.75156 0.55731 0.52779
 C21 C 0.75533 0.53010 0.52633
 C22 C 0.75304 0.51663 0.50225
 C23 C 0.74750 0.53147 0.47957
 C24 C 0.74556 0.55883 0.48049
 C25 C 0.75642 0.48741 0.50059
 C26 C 0.76312 0.47531 0.47660
 C27 C 0.76526 0.44803 0.47449
 C28 C 0.76239 0.43265 0.49693
 C29 C 0.75675 0.44402 0.52120
 C30 C 0.75296 0.47122 0.52277
 H31 H 0.74592 0.59263 0.50561
 H32 H 0.75985 0.51970 0.54417
 H33 H 0.74431 0.52202 0.46094
 H34 H 0.76705 0.48681 0.45932
 H35 H 0.76374 0.41155 0.49540
 H36 H 0.74745 0.47945 0.54144
 C37 C 0.74315 1.00061 1.07320
 C38 C 0.74579 0.97687 1.05949
 C39 C 0.74674 0.97792 1.03192
 C40 C 0.74232 1.00147 1.01810
 C41 C 0.73853 1.02460 1.03274
 C42 C 0.73982 1.02473 1.06030
 C43 C 0.74094 1.00179 0.98858
 C44 C 0.74469 1.02521 0.97424
 C45 C 0.74204 1.02568 0.94687
 C46 C 0.73774 1.00224 0.93341
 C47 C 0.73484 0.97861 0.94687
 C48 C 0.73551 0.97867 0.97432
 H49 H 0.74595 1.00047 1.09415
 H50 H 0.74986 0.96011 1.02118
 H51 H 0.73328 1.04247 1.02282
 H52 H 0.74935 1.04333 0.98406
 H53 H 0.73731 1.00235 0.91221
 H54 H 0.73129 0.96048 0.98417
 C55 C 0.25563 0.50275 0.57197
 C56 C 0.25650 0.47882 0.55870
 C57 C 0.25515 0.47868 0.53128
 C58 C 0.25107 0.50197 0.51692
 C59 C 0.24949 0.52574 0.53099
 C60 C 0.25270 0.52632 0.55830
 C61 C 0.24869 0.50132 0.48753
 C62 C 0.25340 0.52388 0.47222
 C63 C 0.25116 0.52319 0.44482
 C64 C 0.24532 0.49948 0.43243
 C65 C 0.24108 0.47670 0.44697
 C66 C 0.24197 0.47792 0.47437
 H67 H 0.25656 0.50305 0.59315
 H68 H 0.25775 0.46017 0.52144
 H69 H 0.24606 0.54403 0.52100
 H70 H 0.25942 0.54204 0.48117
 H71 H 0.24420 0.49873 0.41127
 H72 H 0.23706 0.46040 0.48511
 C73 C 1.07241 0.24436 -0.00725
 C74 C 1.06036 0.25101 0.01666
 C75 C 1.03289 0.25462 0.01670
 C76 C 1.01750 0.24983 -0.00581
 C77 C 1.03034 0.24237 -0.02905
 C78 C 1.05773 0.24033 -0.03009
 C79 C 0.98816 0.25264 -0.00497
 C80 C 0.97377 0.25884 -0.02780
 C81 C 0.94622 0.26170 -0.02733
 C82 C 0.93346 0.25965 -0.00299
 C83 C 0.94727 0.25396 0.01997
 C84 C 0.97432 0.24956 0.01874
 H85 H 1.09355 0.24377 -0.00872
 H86 H 1.02326 0.26038 0.03453
 H87 H 1.01923 0.23780 -0.04649
 H88 H 0.98413 0.26266 -0.04582
 H89 H 0.91233 0.26081 -0.00172
 H90 H 0.98438 0.24401 0.03650
 C91 C 0.57284 0.74821 0.50101
 C92 C 0.55896 0.74427 0.52432
 C93 C 0.53147 0.74522 0.52389
 C94 C 0.51764 0.75177 0.50086
 C95 C 0.53222 0.75621 0.47779
 C96 C 0.55967 0.75383 0.47758
 C97 C 0.48827 0.75425 0.50111
 C98 C 0.47344 0.75138 0.47792
 C99 C 0.44611 0.75470 0.47804
 C100 C 0.43324 0.75925 0.50179
 C101 C 0.44729 0.76146 0.52520
 C102 C 0.47473 0.75970 0.52463
 H103 H 0.59404 0.74701 0.50112
 H104 H 0.52110 0.74053 0.54170
 H105 H 0.52257 0.76213 0.45991
 H106 H 0.48288 0.74678 0.45957
 H107 H 0.41203 0.76033 0.50210
 H108 H 0.48526 0.76305 0.54268
 C109 C 0.00287 0.74645 -0.06939
 C110 C 0.02610 0.74286 -0.05520
 C111 C 0.02541 0.74403 -0.02783
 C112 C 0.00209 0.75027 -0.01445
 C113 C -0.02090 0.75459 -0.02929
 C114 C -0.02115 0.75174 -0.05682
 C115 C 0.00183 0.75218 0.01489
 C116 C -0.02123 0.74706 0.02932
 C117 C -0.02203 0.75002 0.05681
 C118 C 0.00153 0.75621 0.06980
 C119 C 0.02484 0.76060 0.05607
 C120 C 0.02470 0.75926 0.02870
 H121 H 0.00406 0.74660 -0.09052
 H122 H 0.04321 0.73976 -0.01714
 H123 H -0.03881 0.75939 -0.01924
 H124 H -0.03880 0.74155 0.01900
 H125 H 0.00237 0.75615 0.09096
 H126 H 0.04254 0.76407 0.01836
 C127 C 0.50060 0.25267 0.42473
 C128 C 0.52442 0.25611 0.43802
 C129 C 0.52481 0.25464 0.46547
 C130 C 0.50206 0.24817 0.47978
 C131 C 0.47855 0.24403 0.46574
 C132 C 0.47750 0.24697 0.43843
 C133 C 0.50286 0.24554 0.50910
 C134 C 0.47980 0.24829 0.52419
 C135 C 0.48014 0.24446 0.55138
 C136 C 0.50400 0.23956 0.56394
 C137 C 0.52734 0.23761 0.54973
 C138 C 0.52660 0.24000 0.52236
 H139 H 0.50007 0.25430 0.40361
 H140 H 0.54299 0.25892 0.47543
 H141 H 0.46092 0.23792 0.47570
 H142 H 0.46134 0.25317 0.51505
 H143 H 0.50447 0.23799 0.58509
 H144 H 0.54462 0.23701 0.51169
 C145 C 1.06612 -0.00017 0.25980
 C146 C 1.05297 0.02346 0.25450
 C147 C 1.02563 0.02240 0.25011
 C148 C 1.01130 -0.00111 0.25318
 C149 C 1.02530 -0.02409 0.25953
 C150 C 1.05264 -0.02387 0.26197
 C151 C 0.98192 -0.00166 0.24991
 C152 C 0.96872 -0.02519 0.24373
 C153 C 0.94116 -0.02625 0.24120
 C154 C 0.92708 -0.00260 0.24304
 C155 C 0.93969 0.02112 0.24834
 C156 C 0.96680 0.02129 0.25274
 H157 H 1.08731 -0.00063 0.26064
 H158 H 1.01540 0.04011 0.24511
 H159 H 1.01523 -0.04238 0.26288
 H160 H 0.97994 -0.04262 0.23970
 H161 H 0.90591 -0.00246 0.24196
 H162 H 0.97582 0.03961 0.25812
 C163 C 0.56799 0.49487 0.75132
 C164 C 0.55511 0.51814 0.75794
 C165 C 0.52763 0.51846 0.75914
 C166 C 0.51276 0.49605 0.75276
 C167 C 0.52632 0.47299 0.74569
 C168 C 0.55384 0.47214 0.74547
 C169 C 0.48334 0.49672 0.75367
 C170 C 0.46883 0.47364 0.75809
 C171 C 0.44132 0.47399 0.75863
 C172 C 0.42815 0.49791 0.75603
 C173 C 0.44201 0.52128 0.75237
 C174 C 0.46947 0.52044 0.75040
 H175 H 0.58921 0.49443 0.75079
 H176 H 0.51809 0.53620 0.76563
 H177 H 0.51572 0.45562 0.73990
 H178 H 0.47872 0.45527 0.76163
 H179 H 0.40692 0.49830 0.75618
 H180 H 0.47983 0.53847 0.74658
 C181 C 1.00323 1.06571 0.73710
 C182 C 0.97859 1.05453 0.74246
 C183 C 0.97736 1.02709 0.74583
 C184 C 0.99953 1.01094 0.74168
 C185 C 1.02348 1.02306 0.73510
 C186 C 1.02560 1.05031 0.73366
 C187 C 0.99767 0.98160 0.74379
 C188 C 1.02015 0.96627 0.74916
 C189 C 1.01925 0.93863 0.74916
 C190 C 0.99459 0.92663 0.74614
 C191 C 0.97184 0.94130 0.74174
 C192 C 0.97360 0.96858 0.73985
 H193 H 1.00558 1.08675 0.73704
 H194 H 0.95891 1.01817 0.75081
 H195 H 1.04073 1.01162 0.73067
 H196 H 1.03861 0.97592 0.75234
 H197 H 0.99261 0.90569 0.74850
 H198 H 0.95606 0.97931 0.73478
 C199 C 0.49835 0.56814 0.25805
 C200 C 0.47475 0.55505 0.25333
 C201 C 0.47481 0.52768 0.25091
 C202 C 0.49803 0.51309 0.25492
 C203 C 0.52139 0.52691 0.26050
 C204 C 0.52179 0.55433 0.26137
 C205 C 0.49791 0.48371 0.25363
 C206 C 0.52114 0.46970 0.24817
 C207 C 0.52163 0.44225 0.24864
 C208 C 0.49824 0.42855 0.25276
 C209 C 0.47466 0.44185 0.25740
 C210 C 0.47476 0.46931 0.25840
 H211 H 0.49854 0.58934 0.25847
 H212 H 0.45658 0.51802 0.24617
 H213 H 0.53942 0.51663 0.26470
 H214 H 0.53917 0.47991 0.24396
 H215 H 0.49834 0.40737 0.25188
 H216 H 0.45674 0.47916 0.26357
 O217 O 0.24263 0.18519 0.21358
 O218 O 0.27050 0.17544 0.24973
 O219 O 0.17454 0.21766 0.25060
 O220 O 0.16518 0.25114 0.27685
 O221 O 0.20975 0.25565 0.18309
 O222 O 0.24506 0.28392 0.17828
 O223 O 0.24317 0.28509 0.32164
 O224 O 0.21242 0.25057 0.32629
 O225 O 0.31081 0.24921 0.28951
 O226 O 0.32066 0.22308 0.25384
 O227 O 0.28135 0.31851 0.25719
 O228 O 0.24552 0.32920 0.22727
 O229 O 0.24459 0.31771 0.29137
 O230 O 0.21588 0.32745 0.25279
 O231 O 0.31210 0.28628 0.25581
 O232 O 0.31717 0.24775 0.22249
 O233 O 0.27895 0.24992 0.32067
 O234 O 0.24638 0.22023 0.32698
 O235 O 0.24427 0.21777 0.18321
 O236 O 0.27757 0.25306 0.18064
 O237 O 0.17729 0.25539 0.21377
 O238 O 0.17091 0.28456 0.25216
 O239 O 0.20520 0.18530 0.24922
 O240 O 0.24275 0.17530 0.27859
 Zr241 Zr 0.24146 0.20497 0.24970
 O242 O 0.26607 0.22591 0.27523
 Zr243 Zr 0.19683 0.25225 0.25020
 O244 O 0.21933 0.27489 0.27640
 Zr245 Zr 0.24418 0.25258 0.20538
 O246 O 0.26837 0.27590 0.22934
 Zr247 Zr 0.24369 0.25071 0.29910
 O248 O 0.21842 0.22750 0.27553
 Zr249 Zr 0.29035 0.25133 0.25391
 O250 O 0.26807 0.22778 0.22806
 Zr251 Zr 0.24541 0.29842 0.25499
 O252 O 0.22107 0.27759 0.22867
 O253 O 0.21852 0.22834 0.22563
 O254 O 0.26910 0.27551 0.27904
 C255 C 0.24373 0.19356 0.18993
 C256 C 0.18144 0.19353 0.25009
 C257 C 0.18560 0.25663 0.19002
 C258 C 0.24353 0.30927 0.31498
 C259 C 0.30303 0.24910 0.31335
 C260 C 0.30514 0.31037 0.25714
 H261 H 0.27631 0.21341 0.28592
 H262 H 0.27970 0.28691 0.21820
 H263 H 0.20714 0.21793 0.21389
 H264 H 0.20743 0.28530 0.28756
 H265 H 0.20023 0.23652 0.32080
 H266 H 0.17188 0.25766 0.29379
 H267 H 0.31790 0.26479 0.21336
 H268 H 0.27196 0.24873 0.16255
 H269 H 0.23497 0.20598 0.32067
 H270 H 0.22684 0.17710 0.28950
 H271 H 0.25905 0.32516 0.21402
 H272 H 0.23422 0.29812 0.18579
 H273 H 0.28470 0.18159 0.23806
 H274 H 0.31351 0.20711 0.26207
 H275 H 0.17634 0.29699 0.23834
 H276 H 0.20323 0.32415 0.26707
 O277 O 0.75085 0.81228 0.20747
 O278 O 0.72443 0.82344 0.24504
 O279 O 0.81933 0.78006 0.24441
 O280 O 0.82885 0.74723 0.27115
 O281 O 0.78372 0.74156 0.17758
 O282 O 0.74834 0.71330 0.17328
 O283 O 0.74887 0.71435 0.31679
 O284 O 0.78060 0.74745 0.32182
 O285 O 0.68236 0.74960 0.28390
 O286 O 0.67555 0.77778 0.25020
 O287 O 0.71232 0.67984 0.25276
 O288 O 0.74816 0.66865 0.22323
 O289 O 0.74785 0.68110 0.28718
 O290 O 0.77792 0.67090 0.24919
 O291 O 0.68153 0.71210 0.25256
 O292 O 0.67716 0.74483 0.21623
 O293 O 0.71465 0.75038 0.31479
 O294 O 0.75238 0.77998 0.32051
 O295 O 0.74911 0.77950 0.17732
 O296 O 0.71573 0.74393 0.17553
 O297 O 0.81608 0.74173 0.20844
 O298 O 0.82236 0.71288 0.24715
 O299 O 0.78878 0.81255 0.24303
 O300 O 0.75317 0.82239 0.27289
 Zr301 Zr 0.75248 0.79299 0.24378
 O302 O 0.72764 0.77257 0.26936
 Zr303 Zr 0.79688 0.74553 0.24482
 O304 O 0.77440 0.72357 0.27160
 Zr305 Zr 0.74935 0.74495 0.20001
 O306 O 0.72532 0.72205 0.22450
 Zr307 Zr 0.75014 0.74834 0.29373
 O308 O 0.77553 0.77068 0.26972
 Zr309 Zr 0.70321 0.74691 0.24857
 O310 O 0.72550 0.77018 0.22236
 Zr311 Zr 0.74823 0.69984 0.25048
 O312 O 0.77242 0.72013 0.22365
 O313 O 0.77523 0.76927 0.21995
 O314 O 0.72473 0.72335 0.27402
 C315 C 0.74955 0.80376 0.18389
 C316 C 0.81252 0.80424 0.24363
 C317 C 0.80785 0.74040 0.18468
 C318 C 0.74796 0.69004 0.31065
 C319 C 0.69048 0.75072 0.30767
 C320 C 0.68857 0.68801 0.25367
 H321 H 0.71703 0.78535 0.27929
 H322 H 0.71378 0.71092 0.21363
 H323 H 0.78652 0.77952 0.20802
 H324 H 0.78609 0.71324 0.28309
 H325 H 0.79469 0.75897 0.31515
 H326 H 0.82285 0.73955 0.28786
 H327 H 0.65928 0.74174 0.22314
 H328 H 0.72112 0.74827 0.15739
 H329 H 0.73849 0.79272 0.31604
 H330 H 0.76622 0.81682 0.28613
 H331 H 0.73478 0.67262 0.20978
 H332 H 0.75917 0.69917 0.18095
 H333 H 0.71046 0.81879 0.23245
 H334 H 0.67862 0.78885 0.23463
 H335 H 0.81683 0.70040 0.23341
 H336 H 0.78977 0.67380 0.26424
 O337 O 0.75231 0.18238 0.78768
 O338 O 0.72507 0.17145 0.75036
 O339 O 0.81991 0.21472 0.74961
 O340 O 0.82914 0.24772 0.72300
 O341 O 0.78549 0.25377 0.81675
 O342 O 0.74889 0.28038 0.82289
 O343 O 0.74906 0.28050 0.67820
 O344 O 0.78075 0.24708 0.67310
 O345 O 0.68283 0.24497 0.71155
 O346 O 0.67633 0.21681 0.74543
 O347 O 0.71287 0.31516 0.74239
 O348 O 0.74456 0.32442 0.77325
 O349 O 0.74699 0.31368 0.70786
 O350 O 0.78034 0.32163 0.74150
 O351 O 0.68223 0.28272 0.74320
 O352 O 0.67803 0.24987 0.77923
 O353 O 0.71476 0.24425 0.68033
 O354 O 0.75214 0.21480 0.67425
 O355 O 0.75109 0.21531 0.81764
 O356 O 0.71686 0.25095 0.81920
 O357 O 0.81748 0.25334 0.78562
 O358 O 0.82287 0.28202 0.74678
 O359 O 0.78959 0.18209 0.75149
 O360 O 0.75376 0.17217 0.72232
 Zr361 Zr 0.75332 0.20170 0.75130
 O362 O 0.72820 0.22207 0.72584
 Zr363 Zr 0.79752 0.24934 0.74969
 O364 O 0.77458 0.27114 0.72318
 Zr365 Zr 0.75066 0.24980 0.79498
 O366 O 0.72638 0.27252 0.77055
 Zr367 Zr 0.75033 0.24634 0.70119
 O368 O 0.77597 0.22407 0.72508
 Zr369 Zr 0.70391 0.24772 0.74681
 O370 O 0.72656 0.22453 0.77293
 Zr371 Zr 0.74864 0.29491 0.74441
 O372 O 0.77330 0.27489 0.77118
 O373 O 0.77636 0.22550 0.77484
 O374 O 0.72506 0.27121 0.72115
 C375 C 0.75136 0.19103 0.81123
 C376 C 0.81325 0.19050 0.75038
 C377 C 0.80953 0.25507 0.80940
 C378 C 0.74766 0.30480 0.68440
 C379 C 0.69069 0.24381 0.68769
 C380 C 0.68912 0.30686 0.74198
 H381 H 0.71752 0.20927 0.71602
 H382 H 0.71512 0.28386 0.78152
 H383 H 0.78792 0.21535 0.78664
 H384 H 0.78609 0.28170 0.71173
 H385 H 0.79463 0.23514 0.67954
 H386 H 0.82283 0.25520 0.70630
 H387 H 0.66008 0.25285 0.77237
 H388 H 0.72161 0.24486 0.83703
 H389 H 0.73864 0.20184 0.67916
 H390 H 0.76633 0.17789 0.70874
 H391 H 0.76051 0.32383 0.78426
 H392 H 0.76022 0.29463 0.81639
 H393 H 0.71156 0.17592 0.76349
 H394 H 0.67958 0.20576 0.76098
 H395 H 0.81769 0.29450 0.76066
 H396 H 0.77298 0.33923 0.73790
 O397 O 0.25224 0.81900 0.79144
 O398 O 0.27957 0.82963 0.75427
 O399 O 0.18445 0.78670 0.75334
 O400 O 0.17547 0.75363 0.72650
 O401 O 0.21872 0.74818 0.82098
 O402 O 0.25409 0.72020 0.82618
 O403 O 0.25451 0.71985 0.68268
 O404 O 0.22353 0.75435 0.67767
 O405 O 0.32183 0.75534 0.71644
 O406 O 0.32801 0.78398 0.74946
 O407 O 0.29144 0.68618 0.74773
 O408 O 0.25516 0.67517 0.77678
 O409 O 0.25550 0.68705 0.71278
 O410 O 0.22587 0.67709 0.75070
 O411 O 0.32237 0.71825 0.74866
 O412 O 0.32585 0.75173 0.78425
 O413 O 0.29009 0.75532 0.68498
 O414 O 0.25738 0.78468 0.67780
 O415 O 0.25333 0.78625 0.82162
 O416 O 0.28664 0.75077 0.82431
 O417 O 0.18689 0.74835 0.78958
 O418 O 0.18091 0.71994 0.75071
 O419 O 0.21481 0.81922 0.75569
 O420 O 0.25226 0.82920 0.72628
 Zr421 Zr 0.25117 0.79952 0.75516
 O422 O 0.27617 0.77859 0.73004
 Zr423 Zr 0.20681 0.75217 0.75356
 O424 O 0.22963 0.72972 0.72754
 Zr425 Zr 0.25348 0.75164 0.79919
 O426 O 0.27792 0.72853 0.77534
 Zr427 Zr 0.25429 0.75409 0.70549
 O428 O 0.22860 0.77714 0.72877
 Zr429 Zr 0.30041 0.75312 0.75139
 O430 O 0.27775 0.77666 0.77709
 Zr431 Zr 0.25542 0.70612 0.74926
 O432 O 0.23075 0.72676 0.77536
 O433 O 0.22800 0.77596 0.77873
 O434 O 0.27937 0.72920 0.72581
 C435 C 0.25311 0.81048 0.81504
 C436 C 0.19112 0.81086 0.75438
 C437 C 0.19472 0.74687 0.81347
 C438 C 0.25497 0.69561 0.68919
 C439 C 0.31412 0.75597 0.69253
 C440 C 0.31527 0.69418 0.74765
 H441 H 0.28668 0.79119 0.71975
 H442 H 0.28926 0.71752 0.78654
 H443 H 0.21647 0.78620 0.79046
 H444 H 0.21795 0.71937 0.71608
 H445 H 0.21124 0.76839 0.68297
 H446 H 0.18246 0.74747 0.70954
 H447 H 0.34390 0.74874 0.77773
 H448 H 0.28094 0.75523 0.84233
 H449 H 0.24602 0.79899 0.68408
 H450 H 0.23634 0.82735 0.71536
 H451 H 0.26844 0.67917 0.79031
 H452 H 0.24353 0.70596 0.81838
 H453 H 0.29301 0.82517 0.76750
 H454 H 0.32483 0.79529 0.76483
 H455 H 0.18623 0.70723 0.76433
 H456 H 0.21368 0.68025 0.73597
 O457 O 0.24991 0.31314 0.71132
 O458 O 0.21988 0.31821 0.74784
 O459 O 0.31790 0.28162 0.74946
 O460 O 0.32842 0.24638 0.77253
 O461 O 0.28847 0.24813 0.67654
 O462 O 0.25530 0.21830 0.66738
 O463 O 0.25045 0.20395 0.80972
 O464 O 0.27879 0.23969 0.81934
 O465 O 0.18197 0.23742 0.77731
 O466 O 0.17461 0.26906 0.74748
 O467 O 0.21803 0.17427 0.74013
 O468 O 0.25610 0.16874 0.71192
 O469 O 0.25245 0.17396 0.77686
 O470 O 0.28420 0.16989 0.73947
 O471 O 0.18518 0.20444 0.74096
 O472 O 0.18031 0.24164 0.70933
 O473 O 0.21270 0.23663 0.80973
 O474 O 0.24282 0.26755 0.82087
 O475 O 0.25174 0.28351 0.67810
 O476 O 0.22070 0.24665 0.67092
 O477 O 0.31926 0.24744 0.70895
 O478 O 0.32590 0.21529 0.74487
 O479 O 0.28535 0.31210 0.74917
 O480 O 0.24581 0.31708 0.77695
 Zr481 Zr 0.25045 0.29032 0.74565
 O482 O 0.22620 0.26547 0.76771
 Zr483 Zr 0.29801 0.24598 0.74441
 O484 O 0.27597 0.21963 0.76722
 Zr485 Zr 0.25295 0.24699 0.69721
 O486 O 0.22946 0.22009 0.71776
 Zr487 Zr 0.24901 0.24014 0.79048
 O488 O 0.27371 0.26696 0.77058
 Zr489 Zr 0.20455 0.24071 0.74310
 O490 O 0.22627 0.26808 0.72062
 Zr491 Zr 0.25261 0.19660 0.74237
 O492 O 0.27659 0.22135 0.71935
 O493 O 0.27602 0.27075 0.72092
 O494 O 0.22639 0.21576 0.76697
 C495 C 0.25048 0.30696 0.68698
 C496 C 0.30951 0.30524 0.75081
 C497 C 0.31224 0.24786 0.68477
 C498 C 0.25167 0.18043 0.80112
 C499 C 0.18891 0.23609 0.80144
 C500 C 0.19376 0.18087 0.73976
 H501 H 0.21449 0.27622 0.77879
 H502 H 0.21929 0.20960 0.70505
 H503 H 0.28727 0.28288 0.71086
 H504 H 0.28797 0.20900 0.77810
 H505 H 0.29023 0.25494 0.81587
 H506 H 0.32125 0.23843 0.78863
 H507 H 0.16238 0.23645 0.71468
 H508 H 0.22672 0.25304 0.65360
 H509 H 0.25348 0.28306 0.81656
 H510 H 0.26115 0.31512 0.78865
 H511 H 0.24318 0.17334 0.69823
 H512 H 0.26701 0.20432 0.67397
 H513 H 0.20773 0.31455 0.73320
 H514 H 0.17783 0.28266 0.73411
 H515 H 0.32194 0.20385 0.72974
 H516 H 0.29558 0.17238 0.75496
 O517 O 0.75058 0.67841 0.72367
 O518 O 0.77934 0.67395 0.76011
 O519 O 0.68034 0.70839 0.76014
 O520 O 0.66852 0.74326 0.78321
 O521 O 0.71103 0.74280 0.68851
 O522 O 0.74344 0.77388 0.68068
 O523 O 0.74426 0.78668 0.82329
 O524 O 0.71629 0.75026 0.83130
 O525 O 0.81388 0.75425 0.79280
 O526 O 0.82552 0.72584 0.75958
 O527 O 0.77853 0.81760 0.75467
 O528 O 0.74111 0.82285 0.72563
 O529 O 0.74293 0.81679 0.79051
 O530 O 0.71245 0.82096 0.75219
 O531 O 0.81170 0.78782 0.75523
 O532 O 0.81940 0.74666 0.72604
 O533 O 0.78252 0.75459 0.82447
 O534 O 0.75277 0.72310 0.83394
 O535 O 0.74917 0.70857 0.69089
 O536 O 0.77861 0.74628 0.68448
 O537 O 0.67926 0.74266 0.71989
 O538 O 0.67118 0.77460 0.75566
 O539 O 0.71337 0.67841 0.76026
 O540 O 0.75210 0.67385 0.78930
 Zr541 Zr 0.74794 0.70090 0.75819
 O542 O 0.77110 0.72585 0.78140
 Zr543 Zr 0.69963 0.74442 0.75592
 O544 O 0.72057 0.77095 0.77962
 Zr545 Zr 0.74595 0.74484 0.71015
 O546 O 0.76854 0.77187 0.73154
 Zr547 Zr 0.74714 0.75072 0.80362
 O548 O 0.72357 0.72363 0.78263
 Zr549 Zr 0.79287 0.75128 0.75755
 O550 O 0.77219 0.72399 0.73421
 Zr551 Zr 0.74430 0.79463 0.75578
 O552 O 0.72129 0.76977 0.73184
 O553 O 0.72275 0.72028 0.73285
 O554 O 0.77016 0.77576 0.78108
 C555 C 0.75097 0.68502 0.69942
 C556 C 0.68908 0.68489 0.76137
 C557 C 0.68701 0.74242 0.69594
 C558 C 0.74286 0.81023 0.81475
 C559 C 0.80645 0.75534 0.81675
 C560 C 0.80288 0.81130 0.75431
 H561 H 0.78250 0.71519 0.79288
 H562 H 0.77869 0.78272 0.71916
 H563 H 0.71217 0.70795 0.72229
 H564 H 0.70806 0.78128 0.79018
 H565 H 0.70537 0.73475 0.82732
 H566 H 0.67498 0.75158 0.79944
 H567 H 0.81821 0.76249 0.71497
 H568 H 0.77301 0.74020 0.66689
 H569 H 0.74272 0.70737 0.82898
 H570 H 0.73639 0.67544 0.80054
 H571 H 0.75419 0.81844 0.71206
 H572 H 0.73105 0.78735 0.68706
 H573 H 0.79294 0.68039 0.74790
 H574 H 0.81981 0.71005 0.76918
 H575 H 0.67543 0.78623 0.74077
 H576 H 0.70045 0.81786 0.76707
 O577 O 0.24971 0.68209 0.28361
 O578 O 0.22033 0.67721 0.24614
 O579 O 0.31772 0.71484 0.24750
 O580 O 0.32845 0.75025 0.22477
 O581 O 0.28677 0.74755 0.31957
 O582 O 0.25180 0.77597 0.32916
 O583 O 0.25077 0.79193 0.18584
 O584 O 0.27931 0.75698 0.17628
 O585 O 0.18212 0.75763 0.21661
 O586 O 0.17443 0.72551 0.24628
 O587 O 0.21647 0.82113 0.25469
 O588 O 0.24915 0.82530 0.28518
 O589 O 0.25055 0.82177 0.21894
 O590 O 0.28435 0.82402 0.25295
 O591 O 0.18416 0.79033 0.25333
 O592 O 0.17889 0.75295 0.28447
 O593 O 0.21341 0.75872 0.18478
 O594 O 0.24836 0.72726 0.17440
 O595 O 0.25058 0.71162 0.31695
 O596 O 0.21836 0.74822 0.32343
 O597 O 0.31821 0.74893 0.28791
 O598 O 0.32464 0.78168 0.25251
 O599 O 0.28563 0.68388 0.24625
 O600 O 0.24861 0.67916 0.21750
 Zr601 Zr 0.25057 0.70531 0.24950
 O602 O 0.22626 0.72982 0.22704
 Zr603 Zr 0.29744 0.75039 0.25221
 O604 O 0.27535 0.77628 0.22892
 Zr605 Zr 0.25148 0.74832 0.29828
 O606 O 0.22815 0.77491 0.27717
 Zr607 Zr 0.24936 0.75549 0.20483
 O608 O 0.27402 0.72926 0.22547
 Zr609 Zr 0.20392 0.75420 0.25135
 O610 O 0.22558 0.72700 0.27418
 Zr611 Zr 0.25118 0.79896 0.25323
 O612 O 0.27513 0.77467 0.27698
 O613 O 0.27536 0.72507 0.27493
 O614 O 0.22589 0.77936 0.22801
 C615 C 0.24978 0.68820 0.30799
 C616 C 0.30971 0.69111 0.24562
 C617 C 0.31072 0.74824 0.31190
 C618 C 0.25103 0.81544 0.19465
 C619 C 0.18950 0.75916 0.19263
 C620 C 0.19230 0.81406 0.25469
 H621 H 0.21462 0.71894 0.21604
 H622 H 0.21777 0.78543 0.28971
 H623 H 0.28660 0.71302 0.28515
 H624 H 0.28736 0.78735 0.21853
 H625 H 0.29244 0.74355 0.18117
 H626 H 0.32216 0.75968 0.20909
 H627 H 0.16102 0.75795 0.27869
 H628 H 0.22338 0.74040 0.34049
 H629 H 0.23376 0.71504 0.17785
 H630 H 0.26069 0.68605 0.20400
 H631 H 0.26495 0.82229 0.29602
 H632 H 0.26476 0.78956 0.32452
 H633 H 0.20804 0.68030 0.26078
 H634 H 0.17765 0.71187 0.25961
 H635 H 0.32047 0.79270 0.26788
 H636 H 0.27801 0.84229 0.25134
 O637 O 0.75853 0.32611 0.28063
 O638 O 0.78599 0.33186 0.24296
 O639 O 0.68833 0.29564 0.24322
 O640 O 0.67711 0.26083 0.21982
 O641 O 0.71825 0.26149 0.31519
 O642 O 0.75070 0.23080 0.32352
 O643 O 0.75379 0.21824 0.18064
 O644 O 0.72602 0.25468 0.17208
 O645 O 0.82343 0.25089 0.21293
 O646 O 0.83120 0.28208 0.24334
 O647 O 0.78740 0.18749 0.24922
 O648 O 0.75009 0.18147 0.27796
 O649 O 0.75198 0.18803 0.21331
 O650 O 0.72109 0.18373 0.25153
 O651 O 0.82057 0.21726 0.24834
 O652 O 0.82588 0.25334 0.28091
 O653 O 0.79229 0.25043 0.18089
 O654 O 0.76241 0.28179 0.17039
 O655 O 0.75662 0.29597 0.31338
 O656 O 0.78599 0.25794 0.32003
 O657 O 0.68711 0.26120 0.28313
 O658 O 0.67978 0.22945 0.24697
 O659 O 0.72084 0.32609 0.24419
 O660 O 0.75939 0.33058 0.21466
 Zr661 Zr 0.75570 0.30381 0.24605
 O662 O 0.77948 0.27897 0.22338
 Zr663 Zr 0.70794 0.25985 0.24747
 O664 O 0.72939 0.23362 0.22395
 Zr665 Zr 0.75356 0.25976 0.29402
 O666 O 0.77656 0.23295 0.27277
 Zr667 Zr 0.75619 0.25413 0.20053
 O668 O 0.73196 0.28093 0.22117
 Zr669 Zr 0.80127 0.25367 0.24739
 O670 O 0.78004 0.28092 0.27044
 Zr671 Zr 0.75291 0.21007 0.24814
 O672 O 0.72944 0.23466 0.27187
 O673 O 0.73042 0.28418 0.27102
 O674 O 0.77893 0.22926 0.22342
 C675 C 0.75882 0.31947 0.30485
 C676 C 0.69666 0.31927 0.24263
 C677 C 0.69435 0.26150 0.30724
 C678 C 0.75226 0.19466 0.18908
 C679 C 0.81618 0.24981 0.18890
 C680 C 0.81175 0.19377 0.24913
 H681 H 0.79113 0.28976 0.21230
 H682 H 0.78683 0.22212 0.28513
 H683 H 0.71970 0.29639 0.28157
 H684 H 0.71709 0.22328 0.21316
 H685 H 0.71493 0.27011 0.17589
 H686 H 0.68415 0.25346 0.20338
 H687 H 0.84380 0.24855 0.27514
 H688 H 0.78038 0.26434 0.33749
 H689 H 0.75241 0.29759 0.17525
 H690 H 0.74344 0.32903 0.20372
 H691 H 0.76271 0.18620 0.29186
 H692 H 0.73898 0.21697 0.31668
 H693 H 0.79956 0.32698 0.25590
 H694 H 0.82887 0.29476 0.25778
 H695 H 0.68369 0.21790 0.26202
 H696 H 0.70947 0.18644 0.23626
 C697 C 0.22743 0.11642 0.06783
 C698 C 0.23822 0.10759 0.09133
 C699 C 0.24867 0.08236 0.09283
 C700 C 0.24917 0.06631 0.07065
 C701 C 0.23948 0.07536 0.04631
 C702 C 0.22794 0.10054 0.04561
 C703 C 0.23954 0.12498 0.11344
 C704 C 0.24083 0.14018 0.13144
 C705 C 0.24229 0.15850 0.15205
 C706 C 0.24323 0.17443 0.16941
 H707 H 0.21892 0.13581 0.06654
 H708 H 0.25714 0.07534 0.11098
 H709 H 0.25877 0.04752 0.07245
 H710 H 0.21886 0.10810 0.02803
 C711 C 0.77180 0.58038 0.59567
 C712 C 0.75303 0.59986 0.60036
 C713 C 0.73346 0.60469 0.58181
 C714 C 0.73283 0.59051 0.55848
 C715 C 0.75184 0.57125 0.55329
 C716 C 0.77116 0.56606 0.57227
 C717 C 0.75415 0.61585 0.62356
 C718 C 0.75433 0.63031 0.64220
 C719 C 0.75379 0.64837 0.66312
 C720 C 0.75277 0.66467 0.68016
 H721 H 0.78711 0.57656 0.60986
 H722 H 0.71883 0.61968 0.58522
 H723 H 0.71749 0.59466 0.54441
 H724 H 0.78614 0.55148 0.56872
 C725 C 0.76029 0.90669 0.07681
 C726 C 0.74824 0.90481 0.10130
 C727 C 0.73555 0.92656 0.11184
 C728 C 0.73489 0.95014 0.09813
 C729 C 0.74701 0.95268 0.07334
 C730 C 0.75965 0.93031 0.06290
 C731 C 0.74905 0.88091 0.11621
 C732 C 0.74928 0.86175 0.12997
 C733 C 0.74929 0.84037 0.14746
 C734 C 0.74929 0.82308 0.16352
 H735 H 0.77042 0.88998 0.06857
 H736 H 0.72596 0.92529 0.13071
 H737 H 0.72380 0.96598 0.10677
 H738 H 0.77007 0.93102 0.04450
 C739 C 0.24126 0.41002 0.58189
 C740 C 0.25676 0.40831 0.60443
 C741 C 0.27324 0.42910 0.61127
 C742 C 0.27379 0.45176 0.59599
 C743 C 0.25779 0.45394 0.57365
 C744 C 0.24179 0.43267 0.56656
 C745 C 0.25502 0.38574 0.62116
 C746 C 0.25350 0.36720 0.63565
 C747 C 0.25189 0.34587 0.65310
 C748 C 0.25091 0.32795 0.66839
 H749 H 0.22837 0.39408 0.57646
 H750 H 0.28537 0.42795 0.62865
 H751 H 0.28653 0.46768 0.60176
 H752 H 0.22902 0.43389 0.54966
 C753 C 0.76460 0.09171 0.92099
 C754 C 0.74641 0.09587 0.90082
 C755 C 0.72634 0.07774 0.89662
 C756 C 0.72472 0.05529 0.91203
 C757 C 0.74320 0.05055 0.93191
 C758 C 0.76295 0.06918 0.93656
 C759 C 0.74866 0.11797 0.88349
 C760 C 0.74985 0.13568 0.86796
 C761 C 0.75065 0.15561 0.84884
 C762 C 0.75104 0.17205 0.83192
 H763 H 0.78027 0.10560 0.92436
 H764 H 0.71214 0.08076 0.88112
 H765 H 0.70907 0.04148 0.90827
 H766 H 0.77752 0.06594 0.95164
 C767 C 0.24177 0.59219 0.41938
 C768 C 0.25495 0.59086 0.39538
 C769 C 0.26856 0.56811 0.38853
 C770 C 0.26827 0.54644 0.40516
 C771 C 0.25428 0.54722 0.42887
 C772 C 0.24150 0.57050 0.43609
 C773 C 0.25356 0.61227 0.37715
 C774 C 0.25229 0.62978 0.36142
 C775 C 0.25091 0.65003 0.34271
 C776 C 0.25009 0.66734 0.32673
 H777 H 0.23115 0.60971 0.42485
 H778 H 0.27890 0.56691 0.37006
 H779 H 0.27857 0.52887 0.39927
 H780 H 0.23039 0.57156 0.45411
 C781 C 0.27347 0.89335 0.93265
 C782 C 0.25393 0.89645 0.91371
 C783 C 0.23499 0.91609 0.91664
 C784 C 0.23546 0.93241 0.93865
 C785 C 0.25484 0.92913 0.95798
 C786 C 0.27395 0.90957 0.95461
 C787 C 0.25317 0.87893 0.89170
 C788 C 0.25297 0.86369 0.87371
 C789 C 0.25304 0.84538 0.85307
 C790 C 0.25314 0.82949 0.83565
 H791 H 0.28825 0.87827 0.93055
 H792 H 0.21973 0.91859 0.90210
 H793 H 0.22038 0.94716 0.94085
 H794 H 0.28933 0.90684 0.96898
 C795 C 0.78626 0.39913 0.42288
 C796 C 0.77030 0.40641 0.40181
 C797 C 0.75450 0.42872 0.40372
 C798 C 0.75388 0.44312 0.42699
 C799 C 0.76895 0.43523 0.44868
 C800 C 0.78563 0.41345 0.44616
 C801 C 0.76853 0.38964 0.37925
 C802 C 0.76657 0.37468 0.36112
 C803 C 0.76392 0.35624 0.34075
 C804 C 0.76156 0.33979 0.32401
 H805 H 0.79854 0.38188 0.42163
 H806 H 0.74196 0.43444 0.38758
 H807 H 0.74065 0.45964 0.42847
 H808 H 0.79765 0.40710 0.46244
 C809 C 0.11408 0.24169 0.06596
 C810 C 0.10547 0.25741 0.08656
 C811 C 0.08207 0.27141 0.08407
 C812 C 0.06721 0.26957 0.06108
 C813 C 0.07553 0.25364 0.03996
 C814 C 0.09939 0.23980 0.04298
 C815 C 0.12084 0.25887 0.11017
 C816 C 0.13447 0.25935 0.12945
 C817 C 0.15134 0.25912 0.15136
 C818 C 0.16654 0.25831 0.16943
 H819 H 0.13209 0.23057 0.06775
 H820 H 0.07533 0.28386 0.09985
 H821 H 0.04977 0.28152 0.05981
 H822 H 0.10641 0.22639 0.02818
 C823 C 0.58015 0.75236 0.59497
 C824 C 0.60305 0.73731 0.59560
 C825 C 0.61071 0.72322 0.57340
 C826 C 0.59591 0.72473 0.55041
 C827 C 0.57328 0.74043 0.54934
 C828 C 0.56532 0.75389 0.57201
 C829 C 0.61960 0.73763 0.61842
 C830 C 0.63407 0.73842 0.63705
 C831 C 0.65173 0.73972 0.65826
 C832 C 0.66747 0.74098 0.67581
 H833 H 0.57414 0.76347 0.61200
 H834 H 0.62842 0.71151 0.57368
 H835 H 0.60235 0.71390 0.53337
 H836 H 0.54818 0.76640 0.57170
 C837 C 0.07526 0.72218 0.89318
 C838 C 0.09712 0.73714 0.90019
 C839 C 0.09645 0.75240 0.92293
 C840 C 0.07368 0.75337 0.93814
 C841 C 0.05126 0.73920 0.93066
 C842 C 0.05248 0.72315 0.90832
 C843 C 0.11941 0.73828 0.88297
 C844 C 0.13747 0.73976 0.86785
 C845 C 0.15796 0.74195 0.84944
 C846 C 0.17498 0.74410 0.83324
 H847 H 0.07556 0.71031 0.87561
 H848 H 0.11322 0.76416 0.92846
 H849 H 0.07322 0.76610 0.95508
 H850 H 0.03562 0.71179 0.90226
 C851 C 0.59456 0.24841 0.41464
 C852 C 0.59454 0.26398 0.39211
 C853 C 0.57205 0.27820 0.38541
 C854 C 0.54947 0.27635 0.40078
 C855 C 0.54906 0.26018 0.42306
 C856 C 0.57200 0.24655 0.43005
 C857 C 0.61701 0.26422 0.37507
 C858 C 0.63542 0.26395 0.36029
 C859 C 0.65649 0.26325 0.34239
 C860 C 0.67403 0.26248 0.32662
 H861 H 0.61181 0.23721 0.41994
 H862 H 0.57181 0.29033 0.36802
 H863 H 0.53223 0.28734 0.39508
 H864 H 0.57221 0.23369 0.44689
 C865 C 0.91038 0.72849 0.07693
 C866 C 0.90762 0.74175 0.10070
 C867 C 0.92782 0.75775 0.10971
 C868 C 0.95080 0.76046 0.09526
 C869 C 0.95429 0.74709 0.07125
 C870 C 0.93343 0.73117 0.06226
 C871 C 0.88430 0.73918 0.11628
 C872 C 0.86555 0.73807 0.13055
 C873 C 0.84454 0.73788 0.14846
 C874 C 0.82737 0.73859 0.16462
 H875 H 0.89485 0.71590 0.06984
 H876 H 0.92575 0.76837 0.12796
 H877 H 0.96530 0.77399 0.10268
 H878 H 0.93505 0.71976 0.04453
 C879 C 0.41450 0.26597 0.57913
 C880 C 0.41068 0.24710 0.59863
 C881 C 0.42902 0.22705 0.60201
 C882 C 0.45133 0.22605 0.58630
 C883 C 0.45566 0.24515 0.56697
 C884 C 0.43688 0.26497 0.56329
 C885 C 0.38847 0.24844 0.61587
 C886 C 0.37043 0.24892 0.63104
 C887 C 0.34985 0.24889 0.64943
 C888 C 0.33259 0.24852 0.66548
 H889 H 0.40042 0.28160 0.57641
 H890 H 0.42621 0.21232 0.61699
 H891 H 0.46528 0.21035 0.58930
 H892 H 0.43983 0.28002 0.54868
 C893 C 0.89055 0.27867 0.92797
 C894 C 0.89880 0.26720 0.90461
 C895 C 0.92380 0.25608 0.90302
 C896 C 0.94008 0.25542 0.92509
 C897 C 0.93141 0.26550 0.94938
 C898 C 0.90663 0.27796 0.95005
 C899 C 0.88076 0.26538 0.88302
 C900 C 0.86488 0.26341 0.86565
 C901 C 0.84572 0.26071 0.84590
 C902 C 0.82916 0.25819 0.82925
 H903 H 0.87137 0.28769 0.92932
 H904 H 0.93036 0.24708 0.88498
 H905 H 0.95861 0.24526 0.92332
 H906 H 0.89948 0.28745 0.96757
 C907 C 0.39514 0.77104 0.42680
 C908 C 0.39889 0.75099 0.40859
 C909 C 0.41885 0.73256 0.41246
 C910 C 0.43474 0.73396 0.43479
 C911 C 0.43063 0.75374 0.45349
 C912 C 0.41089 0.77244 0.44907
 C913 C 0.38144 0.74911 0.38655
 C914 C 0.36599 0.74821 0.36874
 C915 C 0.34716 0.74781 0.34853
 C916 C 0.33066 0.74786 0.33166
 H917 H 0.37979 0.78544 0.42396
 H918 H 0.42186 0.71691 0.39848
 H919 H 0.44969 0.71922 0.43782
 H920 H 0.40755 0.78810 0.46295
 C921 C 0.10481 0.07361 0.26762
 C922 C 0.09644 0.09442 0.25206
 C923 C 0.07331 0.09214 0.23755
 C924 C 0.05869 0.06896 0.23842
 C925 C 0.06714 0.04743 0.25370
 C926 C 0.09042 0.05047 0.26850
 C927 C 0.11231 0.11763 0.25073
 C928 C 0.12677 0.13624 0.25018
 C929 C 0.14488 0.15707 0.24998
 C930 C 0.16119 0.17411 0.25002
 H931 H 0.12258 0.07526 0.27915
 H932 H 0.06676 0.10813 0.22525
 H933 H 0.04155 0.06776 0.22604
 H934 H 0.09731 0.03537 0.28164
 C935 C 0.61009 0.56320 0.77929
 C936 C 0.60285 0.58660 0.76706
 C937 C 0.57908 0.58814 0.75344
 C938 C 0.56297 0.56611 0.75136
 C939 C 0.57057 0.54224 0.76277
 C940 C 0.59405 0.54116 0.77721
 C941 C 0.62064 0.60842 0.76705
 C942 C 0.63601 0.62629 0.76642
 C943 C 0.65436 0.64686 0.76509
 C944 C 0.67020 0.66426 0.76356
 H945 H 0.62844 0.56181 0.78989
 H946 H 0.57335 0.60614 0.74380
 H947 H 0.54514 0.56743 0.73992
 H948 H 0.60022 0.52314 0.78649
 C949 C 0.91196 0.08012 0.76107
 C950 C 0.91155 0.10388 0.74752
 C951 C 0.93293 0.11103 0.73215
 C952 C 0.95478 0.09475 0.73043
 C953 C 0.95593 0.07074 0.74422
 C954 C 0.93385 0.06362 0.75939
 C955 C 0.88943 0.12130 0.74923
 C956 C 0.87152 0.13666 0.75002
 C957 C 0.85106 0.15524 0.75038
 C958 C 0.83379 0.17134 0.75043
 H959 H 0.89548 0.07445 0.77316
 H960 H 0.93269 0.12924 0.72129
 H961 H 0.97029 0.10081 0.71737
 H962 H 0.93365 0.04595 0.77100
 C963 C 0.42310 0.60616 0.26735
 C964 C 0.40543 0.60217 0.24683
 C965 C 0.40971 0.58189 0.22887
 C966 C 0.43196 0.56596 0.23122
 C967 C 0.45015 0.57037 0.25144
 C968 C 0.44527 0.59039 0.26967
 C969 C 0.38350 0.61966 0.24415
 C970 C 0.36584 0.63527 0.24301
 C971 C 0.34586 0.65433 0.24286
 C972 C 0.32921 0.67103 0.24365
 H973 H 0.41993 0.62172 0.28140
 H974 H 0.39612 0.57867 0.21289
 H975 H 0.43535 0.55076 0.21685
 H976 H 0.45876 0.59395 0.28566
 C977 C 0.08806 0.91736 0.76533
 C978 C 0.08861 0.89245 0.75408
 C979 C 0.06628 0.88274 0.74167
 C980 C 0.04351 0.89780 0.74032
 C981 C 0.04241 0.92317 0.75143
 C982 C 0.06527 0.93261 0.76403
 C983 C 0.11194 0.87662 0.75496
 C984 C 0.13092 0.86255 0.75517
 C985 C 0.15249 0.84524 0.75499
 C986 C 0.17040 0.82985 0.75469
 H987 H 0.10523 0.92499 0.77522
 H988 H 0.06655 0.86354 0.73267
 H989 H 0.02728 0.88974 0.72936
 H990 H 0.06560 0.95136 0.77380
 C991 C 0.58940 0.42141 0.22556
 C992 C 0.59439 0.40028 0.24229
 C993 C 0.57567 0.39293 0.26084
 C994 C 0.55204 0.40654 0.26273
 C995 C 0.54673 0.42776 0.24603
 C996 C 0.56570 0.43514 0.22744
 C997 C 0.61839 0.38559 0.24047
 C998 C 0.63780 0.37216 0.23985
 C999 C 0.65954 0.35509 0.24006
 C1000 C 0.67712 0.33937 0.24092
 H1001 H 0.60374 0.42719 0.21105
 H1002 H 0.57934 0.37663 0.27390
 H1003 H 0.53804 0.40068 0.27753
 H1004 H 0.56206 0.45127 0.21420
 C1005 C 0.92356 0.90275 0.24732
 C1006 C 0.89842 0.90257 0.23642
 C1007 C 0.88833 0.92536 0.22524
 C1008 C 0.90276 0.94854 0.22586
 C1009 C 0.92774 0.94956 0.23788
 C1010 C 0.93819 0.92591 0.24790
 C1011 C 0.88216 0.87961 0.23795
 C1012 C 0.86749 0.86119 0.23944
 C1013 C 0.84924 0.84052 0.24121
 C1014 C 0.83286 0.82358 0.24253
 H1015 H 0.93155 0.88519 0.25613
 H1016 H 0.86900 0.92537 0.21642
 H1017 H 0.89423 0.96551 0.21651
 H1018 H 0.95690 0.92539 0.25785
 C1019 C 0.41766 0.40467 0.74674
 C1020 C 0.39466 0.40414 0.76165
 C1021 C 0.38775 0.42587 0.77681
 C1022 C 0.40339 0.44831 0.77654
 C1023 C 0.42613 0.44932 0.76101
 C1024 C 0.43335 0.42709 0.74646
 C1025 C 0.37734 0.38197 0.76022
 C1026 C 0.36234 0.36384 0.75856
 C1027 C 0.34429 0.34306 0.75618
 C1028 C 0.32855 0.32564 0.75385
 H1029 H 0.42312 0.38800 0.73484
 H1030 H 0.37000 0.42567 0.78843
 H1031 H 0.39751 0.46500 0.78820
 H1032 H 0.45058 0.42739 0.73410
 C1033 C 0.07900 0.24670 0.89907
 C1034 C 0.10137 0.23081 0.89868
 C1035 C 0.10821 0.21642 0.92097
 C1036 C 0.09334 0.21861 0.94382
 C1037 C 0.07142 0.23531 0.94473
 C1038 C 0.06405 0.24888 0.92192
 C1039 C 0.11850 0.23081 0.87628
 C1040 C 0.13364 0.23138 0.85817
 C1041 C 0.15219 0.23259 0.83769
 C1042 C 0.16865 0.23402 0.82082
 H1043 H 0.07360 0.25804 0.88199
 H1044 H 0.12549 0.20408 0.92092
 H1045 H 0.09930 0.20769 0.96099
 H1046 H 0.04745 0.26210 0.92211
 C1047 C 0.61409 0.77085 0.42998
 C1048 C 0.60568 0.75800 0.40730
 C1049 C 0.58145 0.74514 0.40712
 C1050 C 0.56603 0.74455 0.42975
 C1051 C 0.57473 0.75672 0.45288
 C1052 C 0.59874 0.77025 0.45260
 C1053 C 0.62259 0.75692 0.38477
 C1054 C 0.63738 0.75570 0.36640
 C1055 C 0.65534 0.75404 0.34544
 C1056 C 0.67114 0.75253 0.32797
 H1057 H 0.63278 0.78090 0.43034
 H1058 H 0.57479 0.73504 0.38970
 H1059 H 0.54776 0.73376 0.42944
 H1060 H 0.60578 0.78011 0.47000
 C1061 C 0.91046 0.77026 0.92250
 C1062 C 0.90843 0.75699 0.89867
 C1063 C 0.92953 0.74217 0.88963
 C1064 C 0.95259 0.74055 0.90420
 C1065 C 0.95525 0.75382 0.92838
 C1066 C 0.93356 0.76869 0.93727
 C1067 C 0.88489 0.75832 0.88318
 C1068 C 0.86582 0.75863 0.86923
 C1069 C 0.84429 0.75817 0.85187
 C1070 C 0.82662 0.75717 0.83624
 H1071 H 0.89426 0.78198 0.92961
 H1072 H 0.92808 0.73158 0.87131
 H1073 H 0.96782 0.72784 0.89677
 H1074 H 0.93448 0.78007 0.95507
 C1075 C 0.40592 0.25580 0.41989
 C1076 C 0.40501 0.24341 0.39547
 C1077 C 0.42748 0.23113 0.38566
 C1078 C 0.45089 0.23167 0.39990
 C1079 C 0.45218 0.24459 0.42418
 C1080 C 0.42933 0.25635 0.43419
 C1081 C 0.38151 0.24433 0.37982
 C1082 C 0.36239 0.24534 0.36594
 C1083 C 0.34074 0.24667 0.34872
 C1084 C 0.32302 0.24782 0.33312
 H1085 H 0.38870 0.26549 0.42763
 H1086 H 0.42702 0.22146 0.36679
 H1087 H 0.46804 0.22214 0.39183
 H1088 H 0.42977 0.26668 0.45269
 C1089 C 0.07172 0.78275 0.10911
 C1090 C 0.09401 0.76792 0.10320
 C1091 C 0.09450 0.75257 0.08051
 C1092 C 0.07241 0.75123 0.06433
 C1093 C 0.04950 0.76513 0.07080
 C1094 C 0.04962 0.78141 0.09300
 C1095 C 0.11545 0.76696 0.12150
 C1096 C 0.13284 0.76561 0.13743
 C1097 C 0.15273 0.76358 0.15653
 C1098 C 0.16952 0.76162 0.17302
 H1099 H 0.07112 0.79471 0.12661
 H1100 H 0.11163 0.74093 0.07582
 H1101 H 0.07277 0.73835 0.04751
 H1102 H 0.03235 0.79254 0.09829
 C1103 C 0.59614 0.25024 0.57456
 C1104 C 0.59703 0.23375 0.59643
 C1105 C 0.57620 0.21668 0.60141
 C1106 C 0.55407 0.21690 0.58531
 C1107 C 0.55244 0.23428 0.56402
 C1108 C 0.57400 0.25044 0.55835
 C1109 C 0.61823 0.23564 0.61495
 C1110 C 0.63529 0.23748 0.63118
 C1111 C 0.65473 0.23976 0.65073
 C1112 C 0.67113 0.24169 0.66762
 H1113 H 0.61213 0.26359 0.57057
 H1114 H 0.57668 0.20382 0.61826
 H1115 H 0.53785 0.20405 0.58995
 H1116 H 0.57316 0.26418 0.54224
 C1117 C 0.92181 0.23065 0.08585
 C1118 C 0.90298 0.24988 0.09126
 C1119 C 0.89956 0.27083 0.07401
 C1120 C 0.91442 0.27233 0.05118
 C1121 C 0.93295 0.25285 0.04520
 C1122 C 0.93682 0.23217 0.06294
 C1123 C 0.88622 0.24793 0.11379
 C1124 C 0.87118 0.24722 0.13195
 C1125 C 0.85266 0.24735 0.15243
 C1126 C 0.83624 0.24815 0.16935
 H1127 H 0.92455 0.21430 0.09906
 H1128 H 0.88509 0.28583 0.07801
 H1129 H 0.91130 0.28866 0.03803
 H1130 H 0.95084 0.21683 0.05872
 C1131 C 0.42422 0.74923 0.59461
 C1132 C 0.40177 0.76496 0.59567
 C1133 C 0.39544 0.78112 0.57449
 C1134 C 0.41093 0.78088 0.55196
 C1135 C 0.43295 0.76438 0.55029
 C1136 C 0.43979 0.74899 0.57208
 C1137 C 0.38421 0.76329 0.61763
 C1138 C 0.36882 0.76161 0.63543
 C1139 C 0.35017 0.75950 0.65569
 C1140 C 0.33386 0.75777 0.67264
 H1141 H 0.42924 0.73656 0.61086
 H1142 H 0.37813 0.79340 0.57511
 H1143 H 0.40537 0.79317 0.53560
 H1144 H 0.45646 0.73590 0.57125
 C1145 C 0.26637 0.07559 0.90569
 C1146 C 0.25176 0.09850 0.90241
 C1147 C 0.23652 0.10793 0.92300
 C1148 C 0.23597 0.09477 0.94687
 C1149 C 0.25077 0.07168 0.95087
 C1150 C 0.26584 0.06221 0.92961
 C1151 C 0.25271 0.11309 0.87837
 C1152 C 0.25294 0.12667 0.85909
 C1153 C 0.25273 0.14403 0.83765
 C1154 C 0.25230 0.16004 0.82036
 H1155 H 0.27846 0.06825 0.88989
 H1156 H 0.22496 0.12557 0.92061
 H1157 H 0.22304 0.10242 0.96181
 H1158 H 0.27827 0.04519 0.93151
 C1159 C 0.75770 0.58385 0.41169
 C1160 C 0.74196 0.60627 0.41115
 C1161 C 0.72627 0.61243 0.43275
 C1162 C 0.72677 0.59659 0.45505
 C1163 C 0.74305 0.57437 0.45604
 C1164 C 0.75823 0.56797 0.43396
 C1165 C 0.74283 0.62359 0.38896
 C1166 C 0.74392 0.63842 0.37065
 C1167 C 0.74542 0.65611 0.34950
 C1168 C 0.74669 0.67148 0.33165
 H1169 H 0.77001 0.57896 0.39513
 H1170 H 0.71398 0.62973 0.43253
 H1171 H 0.71464 0.60184 0.47162
 H1172 H 0.77122 0.55121 0.43424
 C1173 C 0.73056 0.07141 0.11614
 C1174 C 0.74030 0.09458 0.10549
 C1175 C 0.74825 0.09517 0.07932
 C1176 C 0.74721 0.07244 0.06406
 C1177 C 0.73849 0.04846 0.07484
 C1178 C 0.72957 0.04867 0.10106
 C1179 C 0.74302 0.11730 0.12194
 C1180 C 0.74541 0.13569 0.13653
 C1181 C 0.74814 0.15662 0.15436
 C1182 C 0.75024 0.17413 0.17004
 H1183 H 0.72399 0.07081 0.13629
 H1184 H 0.75589 0.11305 0.07088
 H1185 H 0.75483 0.07355 0.04434
 H1186 H 0.72129 0.03141 0.11009
 C1187 C 0.27262 0.57826 0.60723
 C1188 C 0.25411 0.59787 0.60244
 C1189 C 0.23550 0.59454 0.58254
 C1190 C 0.23519 0.57147 0.56774
 C1191 C 0.25343 0.55144 0.57286
 C1192 C 0.27232 0.55525 0.59256
 C1193 C 0.25375 0.62069 0.61894
 C1194 C 0.25385 0.63903 0.63376
 C1195 C 0.25424 0.65962 0.65217
 C1196 C 0.25463 0.67645 0.66869
 H1197 H 0.28712 0.58061 0.62257
 H1198 H 0.22099 0.60956 0.57876
 H1199 H 0.22032 0.56899 0.55281
 H1200 H 0.28684 0.54034 0.59667
 C1201 C 0.74719 0.90933 0.92347
 C1202 C 0.73239 0.90872 0.90040
 C1203 C 0.71684 0.93022 0.89357
 C1204 C 0.71675 0.95260 0.90927
 C1205 C 0.73229 0.95378 0.93200
 C1206 C 0.74711 0.93171 0.93923
 C1207 C 0.73431 0.88673 0.88290
 C1208 C 0.73625 0.86878 0.86774
 C1209 C 0.73869 0.84816 0.84953
 C1210 C 0.74072 0.83078 0.83373
 H1211 H 0.75937 0.89282 0.92889
 H1212 H 0.70527 0.92994 0.87578
 H1213 H 0.70491 0.96919 0.90339
 H1214 H 0.75948 0.93215 0.95646
 C1215 C 0.25055 0.40629 0.42599
 C1216 C 0.23549 0.40546 0.40310
 C1217 C 0.22045 0.42718 0.39583
 C1218 C 0.22125 0.45002 0.41081
 C1219 C 0.23718 0.45143 0.43324
 C1220 C 0.25133 0.42912 0.44105
 C1221 C 0.23697 0.38322 0.38592
 C1222 C 0.23857 0.36531 0.37067
 C1223 C 0.24056 0.34512 0.35198
 C1224 C 0.24212 0.32846 0.33538
 H1225 H 0.26236 0.38962 0.43172
 H1226 H 0.20873 0.42674 0.37814
 H1227 H 0.20992 0.46681 0.40451
 H1228 H 0.26398 0.42975 0.45807
 C1229 C 0.24662 0.92756 0.09837
 C1230 C 0.26267 0.90545 0.10064
 C1231 C 0.28013 0.89913 0.08051
 C1232 C 0.28076 0.91415 0.05770
 C1233 C 0.26384 0.93568 0.05471
 C1234 C 0.24726 0.94268 0.07555
 C1235 C 0.25983 0.88795 0.12249
 C1236 C 0.25735 0.87233 0.13997
 C1237 C 0.25459 0.85315 0.15961
 C1238 C 0.25263 0.83617 0.17583
 H1239 H 0.23295 0.93256 0.11380
 H1240 H 0.29265 0.88207 0.08207
 H1241 H 0.29390 0.90849 0.04206
 H1242 H 0.23385 0.95900 0.07366
 C1243 C 0.77157 0.39017 0.56984
 C1244 C 0.75084 0.39274 0.58753
 C1245 C 0.73238 0.41278 0.58415
 C1246 C 0.73446 0.42994 0.56287
 C1247 C 0.75499 0.42709 0.54472
 C1248 C 0.77366 0.40720 0.54863
 C1249 C 0.74859 0.37441 0.60878
 C1250 C 0.74748 0.35856 0.62620
 C1251 C 0.74697 0.33970 0.64636
 C1252 C 0.74705 0.32362 0.66360
 H1253 H 0.78603 0.37483 0.57233
 H1254 H 0.71625 0.41493 0.59776
 H1255 H 0.71971 0.44494 0.56023
 H1256 H 0.78988 0.40478 0.53518
 C1257 C 0.09628 0.07008 0.74465
 C1258 C 0.09798 0.09248 0.72899
 C1259 C 0.07689 0.09955 0.71295
 C1260 C 0.05376 0.08498 0.71342
 C1261 C 0.05140 0.06316 0.73000
 C1262 C 0.07314 0.05540 0.74509
 C1263 C 0.12028 0.10958 0.73097
 C1264 C 0.13813 0.12488 0.73296
 C1265 C 0.15817 0.14371 0.73547
 C1266 C 0.17469 0.16041 0.73756
 H1267 H 0.11245 0.06451 0.75724
 H1268 H 0.07799 0.11686 0.70077
 H1269 H 0.03740 0.09122 0.70141
 H1270 H 0.07176 0.03883 0.75822
 C1271 C 0.57015 0.60710 0.28072
 C1272 C 0.59175 0.60060 0.26518
 C1273 C 0.59131 0.57772 0.25012
 C1274 C 0.56895 0.56189 0.24987
 C1275 C 0.54673 0.56890 0.26456
 C1276 C 0.54779 0.59135 0.28046
 C1277 C 0.61349 0.61841 0.26330
 C1278 C 0.63114 0.63393 0.26131
 C1279 C 0.65133 0.65258 0.25867
 C1280 C 0.66836 0.66873 0.25634
 H1281 H 0.57029 0.62475 0.29247
 H1282 H 0.60790 0.57256 0.23794
 H1283 H 0.56858 0.54487 0.23725
 H1284 H 0.53107 0.59705 0.29221
 C1285 C 0.10608 0.92883 0.28218
 C1286 C 0.10134 0.90788 0.26521
 C1287 C 0.07916 0.90816 0.24904
 C1288 C 0.06237 0.92982 0.24905
 C1289 C 0.06772 0.95150 0.26514
 C1290 C 0.08937 0.95049 0.28219
 C1291 C 0.12023 0.88707 0.26315
 C1292 C 0.13659 0.87016 0.26115
 C1293 C 0.15607 0.85071 0.25868
 C1294 C 0.17273 0.83411 0.25669
 H1295 H 0.12315 0.92879 0.29481
 H1296 H 0.07535 0.89206 0.23578
 H1297 H 0.04601 0.93019 0.23554
 H1298 H 0.09380 0.96681 0.29496
 C1299 C 0.57630 0.40164 0.75069
 C1300 C 0.59945 0.40225 0.73598
 C1301 C 0.60638 0.42504 0.72252
 C1302 C 0.59084 0.44746 0.72456
 C1303 C 0.56815 0.44740 0.74020
 C1304 C 0.56067 0.42406 0.75271
 C1305 C 0.61722 0.38034 0.73632
 C1306 C 0.63289 0.36268 0.73713
 C1307 C 0.65197 0.34270 0.73855
 C1308 C 0.66874 0.32613 0.74003
 H1309 H 0.57081 0.38413 0.76129
 H1310 H 0.62425 0.42574 0.71108
 H1311 H 0.59690 0.46506 0.71445
 H1312 H 0.54344 0.42353 0.76507
 C1313 C 0.91294 0.08737 0.26928
 C1314 C 0.89381 0.09168 0.25007
 C1315 C 0.89004 0.07322 0.23024
 C1316 C 0.90512 0.05044 0.22966
 C1317 C 0.92422 0.04574 0.24898
 C1318 C 0.92812 0.06454 0.26872
 C1319 C 0.87750 0.11465 0.25080
 C1320 C 0.86320 0.13343 0.25087
 C1321 C 0.84580 0.15490 0.25049
 C1322 C 0.83047 0.17284 0.24993
 H1323 H 0.91596 0.10151 0.28478
 H1324 H 0.87532 0.07636 0.21525
 H1325 H 0.90193 0.03650 0.21402
 H1326 H 0.94252 0.06134 0.28398
 C1327 C 0.41956 0.58910 0.73120
 C1328 C 0.39881 0.59350 0.74860
 C1329 C 0.39266 0.57462 0.76742
 C1330 C 0.40690 0.55134 0.76871
 C1331 C 0.42756 0.54651 0.75114
 C1332 C 0.43393 0.56574 0.73249
 C1333 C 0.38312 0.61689 0.74697
 C1334 C 0.36896 0.63579 0.74630
 C1335 C 0.35129 0.65708 0.74621
 C1336 C 0.33531 0.67448 0.74664
 H1337 H 0.42444 0.60354 0.71648
 H1338 H 0.37668 0.57782 0.78101
 H1339 H 0.40180 0.53710 0.78355
 H1340 H 0.44959 0.56249 0.71859
 C1341 C 0.92067 0.88983 0.72659
 C1342 C 0.89949 0.89854 0.74162
 C1343 C 0.90122 0.92236 0.75505
 C1344 C 0.92440 0.93698 0.75413
 C1345 C 0.94615 0.92778 0.73993
 C1346 C 0.94384 0.90434 0.72571
 C1347 C 0.87686 0.88198 0.74456
 C1348 C 0.85874 0.86707 0.74711
 C1349 C 0.83844 0.84854 0.75000
 C1350 C 0.82183 0.83192 0.75220
 H1351 H 0.91955 0.87144 0.71611
 H1352 H 0.88497 0.92924 0.76683
 H1353 H 0.92574 0.95485 0.76544
 H1354 H 0.96017 0.89695 0.71438
 C1355 C 0.42716 0.38803 0.27632
 C1356 C 0.40454 0.39564 0.26281
 C1357 C 0.40433 0.41922 0.24885
 C1358 C 0.42688 0.43477 0.24785
 C1359 C 0.44996 0.42682 0.26068
 C1360 C 0.44970 0.40350 0.27531
 C1361 C 0.38215 0.37850 0.26215
 C1362 C 0.36390 0.36354 0.26127
 C1363 C 0.34303 0.34544 0.25996
 C1364 C 0.32557 0.32959 0.25871
 H1365 H 0.42754 0.36984 0.28721
 H1366 H 0.38696 0.42526 0.23824
 H1367 H 0.42657 0.45249 0.23623
 H1368 H 0.46707 0.39706 0.28568
   
