data_POSCAR
  _audit_creation_date              2014-09-24
  _audit_creation_method            'ToBaCCo'
  _symmetry_space_group_name_H-M    'P1'
  _symmetry_Int_Tables_number       1
  _symmetry_cell_setting            triclinic
  loop_
  _symmetry_equiv_pos_as_xyz
 x,y,z
_cell_length_a 59.4579
_cell_length_b 59.3929
_cell_length_c 52.7749
_cell_angle_alpha 89.784000
_cell_angle_beta 89.961100
_cell_angle_gamma 92.127300
loop_
  _atom_site_label
  _atom_site_type_symbol
  _atom_site_fract_x
  _atom_site_fract_y
  _atom_site_fract_z
C1 C 0.39499 0.03382 0.27813
 H2 H 0.39519 0.03954 0.25864
 C3 C 0.41082 0.04272 0.29528
 H4 H 0.42351 0.05504 0.28898
 C5 C 0.37845 0.01053 0.31019
 H6 H 0.36566 -0.00180 0.31602
 C7 C 0.39351 0.01940 0.32807
 H8 H 0.39265 0.01340 0.34747
 N9 N 0.37989 0.01730 0.28558
 C10 C 0.36292 -0.01547 0.21359
 H11 H 0.34478 -0.01666 0.21528
 C12 C 0.37341 -0.02421 0.19226
 H13 H 0.36310 -0.03205 0.17762
 C14 C 0.39826 -0.00477 0.23131
 H15 H 0.40802 0.00209 0.24687
 C16 C 0.40942 -0.01303 0.21020
 H17 H 0.42760 -0.01138 0.20944
 Zn18 Zn 0.35973 0.00440 0.26148
 N19 N 0.37537 -0.00561 0.23240
 C20 C 0.33577 0.03504 0.23020
 N21 N 0.33902 0.02663 0.25385
 C22 C 0.32880 0.03539 0.27441
 C23 C 0.31530 0.05390 0.27186
 C24 C 0.32207 0.05346 0.22671
 C25 C 0.35808 -0.03747 0.28418
 C26 C 0.34888 -0.05829 0.29166
 C27 C 0.31207 -0.04557 0.28061
 C28 C 0.32206 -0.02466 0.27393
 N29 N 0.34473 -0.02131 0.27517
 H30 H 0.34426 0.02794 0.21416
 H31 H 0.33192 0.02847 0.29301
 H32 H 0.30839 0.06124 0.28878
 H33 H 0.31979 0.06005 0.20778
 H34 H 0.37608 -0.03424 0.28518
 H35 H 0.36046 -0.06985 0.29981
 H36 H 0.29422 -0.04768 0.27726
 H37 H 0.31179 -0.01158 0.26634
 C38 C 0.39701 -0.02278 0.19014
 C39 C 0.41020 0.03526 0.32047
 C40 C 0.32556 -0.06353 0.28858
 C41 C 0.31202 0.06349 0.24783
 C42 C 0.10717 0.02338 0.72782
 H43 H 0.10393 0.03236 0.74515
 C44 C 0.09357 0.02658 0.70649
 H45 H 0.07949 0.03758 0.70759
 C46 C 0.12924 -0.00217 0.70517
 H47 H 0.14340 -0.01298 0.70438
 C48 C 0.11627 0.00056 0.68360
 H49 H 0.12027 -0.00864 0.66659
 N50 N 0.12395 0.00836 0.72708
 C51 C 0.13597 -0.01691 0.80310
 H52 H 0.15400 -0.01801 0.80111
 C53 C 0.12536 -0.02523 0.82487
 H54 H 0.13548 -0.03285 0.83938
 C55 C 0.10110 -0.00643 0.78585
 H56 H 0.09166 0.00053 0.77043
 C57 C 0.08980 -0.01405 0.80774
 H58 H 0.07182 -0.01209 0.80918
 Zn59 Zn 0.14153 0.00169 0.75595
 N60 N 0.12388 -0.00751 0.78425
 C61 C 0.15799 0.03779 0.78666
 N62 N 0.15944 0.02757 0.76373
 C63 C 0.17243 0.03662 0.74484
 C64 C 0.18427 0.05708 0.74840
 C65 C 0.16964 0.05826 0.79109
 C66 C 0.14769 -0.04253 0.74294
 C67 C 0.15881 -0.06249 0.73950
 C68 C 0.19393 -0.04257 0.74925
 C69 C 0.18213 -0.02276 0.75199
 N70 N 0.15939 -0.02318 0.74891
 H71 H 0.14734 0.03041 0.80132
 H72 H 0.17300 0.02825 0.72669
 H73 H 0.19376 0.06441 0.73272
 H74 H 0.16814 0.06627 0.80938
 H75 H 0.12955 -0.04246 0.74127
 H76 H 0.14915 -0.07782 0.73519
 H77 H 0.21195 -0.04229 0.75230
 H78 H 0.19098 -0.00729 0.75740
 C79 C 0.10202 -0.02336 0.82780
 C80 C 0.09771 0.01441 0.68436
 C81 C 0.18215 -0.06271 0.74295
 C82 C 0.18274 0.06836 0.77168
 C83 C 0.59113 0.48479 0.22923
 H84 H 0.58165 0.48009 0.24603
 C85 C 0.57980 0.48945 0.20662
 H86 H 0.56162 0.48762 0.20600
 C87 C 0.62632 0.49296 0.20949
 H88 H 0.64446 0.49461 0.21092
 C89 C 0.61576 0.49796 0.18676
 H90 H 0.62600 0.50344 0.17076
 N91 N 0.61402 0.48639 0.23008
 C92 C 0.61637 0.48855 0.30942
 H93 H 0.62797 0.50295 0.30927
 C94 C 0.60505 0.48282 0.33170
 H95 H 0.60752 0.49346 0.34816
 C96 C 0.59958 0.45693 0.28852
 H97 H 0.59797 0.44671 0.27165
 C98 C 0.58783 0.45054 0.31057
 H99 H 0.57704 0.43545 0.31058
 Zn100 Zn 0.63137 0.48265 0.25962
 N101 N 0.61346 0.47570 0.28836
 C102 C 0.63441 0.52855 0.26756
 N103 N 0.64737 0.51045 0.26407
 C104 C 0.67011 0.51289 0.26154
 C105 C 0.68064 0.53432 0.26231
 C106 C 0.64421 0.55016 0.26861
 C107 C 0.64841 0.44371 0.23673
 C108 C 0.66184 0.42493 0.23562
 C109 C 0.68156 0.43843 0.27290
 C110 C 0.66725 0.45648 0.27379
 N111 N 0.65125 0.45892 0.25574
 H112 H 0.61633 0.52615 0.26904
 H113 H 0.68005 0.49843 0.25780
 H114 H 0.69863 0.53610 0.25928
 H115 H 0.63354 0.56435 0.27128
 H116 H 0.63513 0.44567 0.22300
 H117 H 0.65844 0.41254 0.22101
 H118 H 0.69454 0.43741 0.28715
 H119 H 0.66883 0.46858 0.28901
 C120 C 0.59081 0.46344 0.33262
 C121 C 0.59220 0.49599 0.18494
 C122 C 0.67868 0.42194 0.25398
 C123 C 0.66756 0.55331 0.26542
 C124 C 0.88855 0.53661 0.77415
 H125 H 0.89222 0.54339 0.75548
 C126 C 0.90117 0.54413 0.79495
 H127 H 0.91450 0.55676 0.79189
 C128 C 0.86602 0.51258 0.80047
 H129 H 0.85230 0.50024 0.80247
 C130 C 0.87750 0.52035 0.82194
 H131 H 0.87282 0.51306 0.84011
 N132 N 0.87202 0.52041 0.77711
 C133 C 0.86497 0.49312 0.70096
 H134 H 0.84678 0.49206 0.70013
 C135 C 0.87759 0.48663 0.68016
 H136 H 0.86894 0.48064 0.66329
 C137 C 0.89820 0.50198 0.72416
 H138 H 0.90620 0.50750 0.74151
 C139 C 0.91153 0.49583 0.70365
 H140 H 0.92967 0.49757 0.70512
 Zn141 Zn 0.85587 0.50995 0.74846
 N142 N 0.87535 0.50127 0.72212
 C143 C 0.84010 0.54385 0.71476
 N144 N 0.83771 0.53374 0.73785
 C145 C 0.82346 0.54168 0.75554
 C146 C 0.81095 0.56056 0.75043
 C147 C 0.82783 0.56283 0.70881
 C148 C 0.85033 0.46562 0.76359
 C149 C 0.83948 0.44463 0.76711
 C150 C 0.80410 0.46156 0.75760
 C151 C 0.81568 0.48229 0.75423
 N152 N 0.83843 0.48381 0.75692
 H153 H 0.85193 0.53763 0.70115
 H154 H 0.82229 0.53364 0.77394
 H155 H 0.80027 0.56696 0.76517
 H156 H 0.82998 0.57073 0.69040
 H157 H 0.86846 0.46729 0.76521
 H158 H 0.84946 0.43019 0.77129
 H159 H 0.78604 0.46049 0.75494
 H160 H 0.80658 0.49691 0.74862
 C161 C 0.90119 0.48856 0.68106
 C162 C 0.89592 0.53585 0.81939
 C163 C 0.81611 0.44229 0.76362
 C164 C 0.81313 0.57154 0.72687
 C165 C 0.20949 0.41255 0.97668
 H166 H 0.21677 0.40309 0.96150
 C167 C 0.19147 0.42634 0.97163
 H168 H 0.18543 0.42769 0.95237
 C169 C 0.20831 0.42201 1.02023
 H170 H 0.21478 0.41987 1.03921
 C171 C 0.19009 0.43562 1.01614
 H172 H 0.18249 0.44356 1.03228
 N173 N 0.21731 0.41049 1.00075
 C174 C 0.28144 0.39249 1.03146
 H175 H 0.27809 0.37458 1.03379
 C176 C 0.30255 0.40183 1.03732
 H177 H 0.31538 0.39095 1.04438
 C178 C 0.26892 0.42814 1.01831
 H179 H 0.25587 0.43811 1.01018
 C180 C 0.29014 0.43814 1.02335
 H181 H 0.29338 0.45575 1.01877
 Zn182 Zn 0.23926 0.38996 1.00988
 N183 N 0.26530 0.40557 1.02172
 C184 C 0.25930 0.38520 0.96301
 N185 N 0.24848 0.37292 0.98140
 C186 C 0.24556 0.35014 0.97929
 C187 C 0.25236 0.33915 0.95727
 C188 C 0.26663 0.37490 0.94095
 C189 C 0.23352 0.37666 1.06044
 C190 C 0.22486 0.36416 1.08080
 C191 C 0.20164 0.34239 1.05160
 C192 C 0.21039 0.35575 1.03176
 N193 N 0.22674 0.37187 1.03638
 H194 H 0.26202 0.40317 0.96542
 H195 H 0.23778 0.34043 0.99446
 H196 H 0.24894 0.32119 0.95548
 H197 H 0.27511 0.38518 0.92662
 H198 H 0.24563 0.39028 1.06396
 H199 H 0.23103 0.36774 1.09973
 H200 H 0.18936 0.32895 1.04766
 H201 H 0.20437 0.35303 1.01264
 C202 C 0.30749 0.42468 1.03204
 C203 C 0.18114 0.43769 0.99163
 C204 C 0.20908 0.34652 1.07643
 C205 C 0.26267 0.35163 0.93746
 C206 C 0.78302 0.06435 0.99183
 H207 H 0.76720 0.05662 0.98588
 C208 C 0.80312 0.05409 0.98555
 H209 H 0.80225 0.03825 0.97545
 C210 C 0.80336 0.09531 1.00977
 H211 H 0.80348 0.11147 1.01910
 C212 C 0.82371 0.08629 1.00280
 H213 H 0.83910 0.09547 1.00790
 N214 N 0.78349 0.08432 1.00442
 C215 C 0.71414 0.09730 1.02767
 H216 H 0.71714 0.11536 1.02856
 C217 C 0.69289 0.08807 1.03341
 H218 H 0.67988 0.09927 1.03913
 C219 C 0.72795 0.06109 1.02010
 H220 H 0.74172 0.05052 1.01569
 C221 C 0.70661 0.05112 1.02501
 H222 H 0.70419 0.03304 1.02322
 Zn223 Zn 0.75775 0.10112 1.01231
 N224 N 0.73104 0.08395 1.02053
 C225 C 0.73394 0.11692 0.96905
 N226 N 0.75251 0.11980 0.98393
 C227 C 0.76901 0.13536 0.97807
 C228 C 0.76729 0.14878 0.95656
 C229 C 0.73171 0.12980 0.94694
 C230 C 0.77186 0.10791 1.06194
 C231 C 0.77670 0.11959 1.08425
 C232 C 0.76682 0.15409 1.06330
 C233 C 0.76217 0.14171 1.04131
 N234 N 0.76468 0.11903 1.04109
 H235 H 0.72121 0.10413 0.97381
 H236 H 0.78366 0.13727 0.99010
 H237 H 0.78062 0.16121 0.95255
 H238 H 0.71728 0.12668 0.93480
 H239 H 0.77362 0.08985 1.06123
 H240 H 0.78223 0.11039 1.10072
 H241 H 0.76399 0.17199 1.06345
 H242 H 0.75594 0.15018 1.02473
 C243 C 0.68855 0.06474 1.03115
 C244 C 0.82398 0.06526 0.99061
 C245 C 0.77387 0.14295 1.08524
 C246 C 0.74875 0.14576 0.94025
 C247 C 0.28273 0.58745 0.47204
 H248 H 0.26628 0.58199 0.46523
 C249 C 0.30157 0.57517 0.46584
 H250 H 0.29957 0.55996 0.45469
 C251 C 0.30558 0.61389 0.49484
 H252 H 0.30713 0.62907 0.50600
 C253 C 0.32484 0.60250 0.48859
 H254 H 0.34105 0.60869 0.49553
 N255 N 0.28495 0.60583 0.48729
 C256 C 0.21829 0.61284 0.51980
 H257 H 0.21931 0.63102 0.52100
 C258 C 0.19810 0.60129 0.52528
 H259 H 0.18363 0.61070 0.53077
 C260 C 0.23559 0.57870 0.50974
 H261 H 0.25020 0.56995 0.50360
 C262 C 0.21551 0.56640 0.51483
 H263 H 0.21465 0.54836 0.51185
 Zn264 Zn 0.25949 0.62125 0.49842
 N265 N 0.23615 0.60162 0.51094
 C266 C 0.22845 0.63009 0.45960
 N267 N 0.24805 0.63750 0.47061
 C268 C 0.26007 0.65557 0.46119
 C269 C 0.25210 0.66735 0.44028
 C270 C 0.22010 0.64112 0.43839
 C271 C 0.27710 0.62973 0.54578
 C272 C 0.28201 0.64144 0.56799
 C273 C 0.26793 0.67504 0.54861
 C274 C 0.26348 0.66267 0.52652
 N275 N 0.26784 0.64035 0.52570
 H276 H 0.21946 0.61530 0.46687
 H277 H 0.27588 0.66077 0.46990
 H278 H 0.26190 0.68164 0.43286
 H279 H 0.20459 0.63493 0.42968
 H280 H 0.28017 0.61192 0.54468
 H281 H 0.28902 0.63253 0.58391
 H282 H 0.26329 0.69248 0.54951
 H283 H 0.25558 0.67066 0.51059
 C284 C 0.19621 0.57794 0.52150
 C285 C 0.32286 0.58260 0.47450
 C286 C 0.27678 0.66422 0.56990
 C287 C 0.23194 0.66003 0.42857
 C288 C 0.72232 0.90210 0.45544
 H289 H 0.72790 0.89290 0.43910
 C290 C 0.70422 0.91644 0.45330
 H291 H 0.69561 0.91805 0.43534
 C292 C 0.72582 0.91045 0.49923
 H293 H 0.73425 0.90784 0.51711
 C294 C 0.70786 0.92471 0.49798
 H295 H 0.70229 0.93295 0.51503
 N296 N 0.73246 0.89924 0.47830
 C297 C 0.80127 0.88547 0.49748
 H298 H 0.80062 0.86730 0.49924
 C299 C 0.82169 0.89751 0.50031
 H300 H 0.83680 0.88856 0.50447
 C301 C 0.78259 0.91919 0.48851
 H302 H 0.76746 0.92754 0.48320
 C303 C 0.80271 0.93183 0.49075
 H304 H 0.80284 0.94988 0.48772
 Zn305 Zn 0.75574 0.87931 0.48441
 N306 N 0.78224 0.89644 0.49182
 C307 C 0.77273 0.87358 0.43651
 N308 N 0.76217 0.86207 0.45564
 C309 C 0.75812 0.83941 0.45437
 C310 C 0.76373 0.82763 0.43249
 C311 C 0.77908 0.86245 0.41465
 C312 C 0.75767 0.86233 0.53437
 C313 C 0.74932 0.85106 0.55578
 C314 C 0.71789 0.83657 0.53099
 C315 C 0.72677 0.84832 0.51001
 N316 N 0.74630 0.86091 0.51208
 H317 H 0.77628 0.89150 0.43834
 H318 H 0.75031 0.83046 0.47010
 H319 H 0.75939 0.80981 0.43129
 H320 H 0.78756 0.87203 0.39975
 H321 H 0.77279 0.87286 0.53588
 H322 H 0.75847 0.85262 0.57346
 H323 H 0.70211 0.82699 0.52927
 H324 H 0.71774 0.84795 0.49221
 C325 C 0.82254 0.92093 0.49660
 C326 C 0.69660 0.92750 0.47495
 C327 C 0.72901 0.83830 0.55435
 C328 C 0.77403 0.83927 0.41207
 C329 C 0.00456 0.27607 0.43435
 H330 H 0.00925 0.26084 0.44394
 C331 C 0.00307 0.29610 0.44809
 H332 H 0.00619 0.29592 0.46829
 C333 C -0.00520 0.29479 0.39644
 H334 H -0.00819 0.29416 0.37623
 C335 C -0.00659 0.31514 0.40930
 H336 H -0.01036 0.33010 0.39858
 N337 N 0.00041 0.27580 0.40898
 C338 C 0.02530 0.21114 0.40587
 H339 H 0.03720 0.21579 0.39119
 C340 C 0.02873 0.19173 0.42006
 H341 H 0.04272 0.18182 0.41444
 C342 C -0.00759 0.21824 0.42903
 H343 H -0.02152 0.22885 0.43287
 C344 C -0.00459 0.19912 0.44413
 H345 H -0.01642 0.19610 0.45938
 Zn346 Zn 0.00276 0.24958 0.38885
 N347 N 0.00713 0.22379 0.41007
 C348 C 0.03255 0.23806 0.34872
 N349 N 0.02802 0.25382 0.36652
 C350 C 0.04208 0.27217 0.36987
 C351 C 0.06177 0.27490 0.35560
 C352 C 0.05218 0.24007 0.33411
 C353 C -0.04416 0.24399 0.38324
 C354 C -0.06477 0.24145 0.37071
 C355 C -0.04502 0.24340 0.33079
 C356 C -0.02472 0.24590 0.34412
 N357 N -0.02457 0.24580 0.36994
 H358 H 0.02133 0.22344 0.34654
 H359 H 0.03846 0.28447 0.38418
 H360 H 0.07275 0.28956 0.35883
 H361 H 0.05590 0.22685 0.32084
 H362 H -0.04388 0.24491 0.40365
 H363 H -0.08010 0.24030 0.38180
 H364 H -0.04471 0.24316 0.31028
 H365 H -0.00918 0.24811 0.33370
 C366 C 0.01368 0.18502 0.43973
 C367 C -0.00257 0.31605 0.43556
 C368 C -0.06543 0.24094 0.34410
 C369 C 0.06732 0.25850 0.33778
 C370 C 0.00954 0.71253 0.08670
 H371 H 0.02474 0.72293 0.08453
 C372 C 0.00680 0.69261 0.07266
 H373 H 0.01998 0.68782 0.05982
 C374 C -0.02535 0.70516 0.10731
 H375 H -0.03774 0.70961 0.12118
 C376 C -0.02879 0.68532 0.09369
 H377 H -0.04395 0.67506 0.09705
 N378 N -0.00624 0.71819 0.10407
 C379 C -0.00117 0.78975 0.12242
 H380 H -0.00558 0.78809 0.14222
 C381 C 0.00030 0.81107 0.11142
 H382 H -0.00308 0.82550 0.12310
 C383 C 0.00659 0.77269 0.08308
 H384 H 0.00861 0.75768 0.07198
 C385 C 0.00861 0.79390 0.07129
 H386 H 0.01272 0.79488 0.05133
 Zn387 Zn -0.00201 0.74334 0.12640
 N388 N 0.00206 0.77104 0.10834
 C389 C 0.02785 0.75499 0.16649
 N390 N 0.02331 0.73955 0.14798
 C391 C 0.03767 0.72273 0.14331
 C392 C 0.05827 0.72212 0.15593
 C393 C 0.04812 0.75476 0.17992
 C394 C -0.04603 0.75383 0.13208
 C395 C -0.06690 0.75632 0.14327
 C396 C -0.05193 0.74229 0.18255
 C397 C -0.03109 0.74023 0.17043
 N398 N -0.02865 0.74594 0.14560
 H399 H 0.01612 0.76801 0.17026
 H400 H 0.03373 0.71030 0.12900
 H401 H 0.07010 0.70941 0.15099
 H402 H 0.05203 0.76780 0.19369
 H403 H -0.04372 0.75779 0.11220
 H404 H -0.08018 0.76134 0.13074
 H405 H -0.05277 0.73812 0.20247
 H406 H -0.01695 0.73394 0.18082
 C407 C 0.00553 0.81352 0.08556
 C408 C -0.01233 0.67843 0.07664
 C409 C -0.07057 0.75065 0.16913
 C410 C 0.06387 0.73863 0.17399
 C411 C 0.52801 0.22404 0.60122
 H412 H 0.54141 0.23688 0.60122
 C413 C 0.52886 0.20588 0.58441
 H414 H 0.54280 0.20521 0.57128
 C415 C 0.49358 0.20960 0.61825
 H416 H 0.48005 0.21077 0.63179
 C417 C 0.49388 0.19108 0.60204
 H418 H 0.48053 0.17826 0.60355
 N419 N 0.51030 0.22584 0.61736
 C420 C 0.50667 0.29760 0.63562
 H421 H 0.50456 0.29614 0.65593
 C422 C 0.50528 0.31864 0.62388
 H423 H 0.50191 0.33313 0.63546
 C424 C 0.51218 0.28009 0.59602
 H425 H 0.51436 0.26501 0.58509
 C426 C 0.51115 0.30089 0.58350
 H427 H 0.51320 0.30149 0.56312
 Zn428 Zn 0.50939 0.25090 0.63990
 N429 N 0.51011 0.27883 0.62169
 C430 C 0.54996 0.26659 0.66386
 N431 N 0.53424 0.24941 0.66245
 C432 C 0.53623 0.23033 0.67650
 C433 C 0.55454 0.22800 0.69281
 C434 C 0.56855 0.26495 0.67989
 C435 C 0.46293 0.25167 0.64422
 C436 C 0.44201 0.25308 0.65586
 C437 C 0.46016 0.25075 0.69666
 C438 C 0.48088 0.24926 0.68415
 N439 N 0.48187 0.24990 0.65835
 H440 H 0.54831 0.28147 0.65225
 H441 H 0.52358 0.21684 0.67491
 H442 H 0.55569 0.21272 0.70390
 H443 H 0.58110 0.27863 0.68021
 H444 H 0.46420 0.25237 0.62377
 H445 H 0.42719 0.25448 0.64412
 H446 H 0.45972 0.25093 0.71716
 H447 H 0.49617 0.24831 0.69509
 C448 C 0.50757 0.32060 0.59742
 C449 C 0.51154 0.18908 0.58453
 C450 C 0.44041 0.25312 0.68244
 C451 C 0.57112 0.24542 0.69462
 C452 C 0.51148 0.77635 0.91522
 H453 H 0.52490 0.76459 0.91655
 C454 C 0.51254 0.79622 0.92948
 H455 H 0.52694 0.79978 0.94155
 C456 C 0.47689 0.78652 0.89700
 H457 H 0.46323 0.78306 0.88399
 C458 C 0.47724 0.80644 0.91087
 H459 H 0.46355 0.81780 0.90863
 N460 N 0.49382 0.77188 0.89939
 C461 C 0.49195 0.69929 0.88779
 H462 H 0.49059 0.69923 0.86735
 C463 C 0.49334 0.67904 0.90097
 H464 H 0.49293 0.66337 0.89051
 C465 C 0.49439 0.71988 0.92613
 H466 H 0.49482 0.73587 0.93583
 C467 C 0.49571 0.69986 0.94016
 H468 H 0.49752 0.70059 0.96056
 Zn469 Zn 0.49330 0.74530 0.87937
 N470 N 0.49315 0.71921 0.90035
 C471 C 0.53588 0.73114 0.86332
 N472 N 0.51960 0.74609 0.85849
 C473 C 0.52252 0.76212 0.84011
 C474 C 0.54222 0.76320 0.82545
 C475 C 0.55589 0.73187 0.84945
 C476 C 0.44696 0.74170 0.87321
 C477 C 0.42620 0.74094 0.86091
 C478 C 0.44566 0.74270 0.82076
 C479 C 0.46616 0.74358 0.83390
 N480 N 0.46642 0.74343 0.85971
 H481 H 0.53368 0.71894 0.87841
 H482 H 0.50964 0.77422 0.83700
 H483 H 0.54443 0.77617 0.81109
 H484 H 0.56874 0.72000 0.85382
 H485 H 0.44761 0.74139 0.89369
 H486 H 0.41101 0.74036 0.87224
 H487 H 0.44578 0.74274 0.80024
 H488 H 0.48177 0.74432 0.82342
 C489 C 0.49579 0.67916 0.92743
 C490 C 0.49536 0.81169 0.92713
 C491 C 0.42528 0.74144 0.83430
 C492 C 0.55929 0.74807 0.83029
 C493 C -0.22384 0.63119 0.95183
 H494 H -0.21717 0.63250 0.97086
 C495 C -0.21494 0.64509 0.93261
 H496 H -0.20162 0.65742 0.93689
 C497 C -0.24930 0.61345 0.92295
 H498 H -0.26245 0.60087 0.91917
 C499 C -0.24061 0.62664 0.90312
 H500 H -0.24764 0.62460 0.88430
 N501 N -0.24114 0.61622 0.94682
 C502 C -0.27094 0.60308 1.02121
 H503 H -0.27237 0.58488 1.02048
 C504 C -0.27834 0.61436 1.04261
 H505 H -0.28574 0.60430 1.05781
 C506 C -0.26119 0.63765 1.00101
 H507 H -0.25485 0.64672 0.98457
 C508 C -0.26858 0.64971 1.02198
 H509 H -0.26663 0.66787 1.02140
 Zn510 Zn -0.25255 0.59749 0.97314
 N511 N -0.26189 0.61474 1.00128
 C512 C -0.22209 0.57510 1.00592
 N513 N -0.22936 0.57802 0.98176
 C514 C -0.21885 0.56844 0.96188
 C515 C -0.19966 0.55609 0.96573
 C516 C -0.20330 0.56229 1.01072
 C517 C -0.29592 0.59345 0.95523
 C518 C -0.31705 0.58324 0.95142
 C519 C -0.30144 0.54715 0.96096
 C520 C -0.28040 0.55811 0.96437
 N521 N -0.27829 0.58093 0.96220
 H522 H -0.23047 0.58306 1.02146
 H523 H -0.22485 0.57126 0.94283
 H524 H -0.19094 0.54990 0.94933
 H525 H -0.19797 0.56009 1.03014
 H526 H -0.29374 0.61159 0.95390
 H527 H -0.33111 0.59362 0.94690
 H528 H -0.30332 0.52920 0.96442
 H529 H -0.26617 0.54859 0.97032
 C530 C -0.27678 0.63814 1.04373
 C531 C -0.22344 0.64287 0.90795
 C532 C -0.32021 0.55996 0.95541
 C533 C -0.19136 0.55308 0.99042
 C534 C -0.22309 0.38954 0.53781
 H535 H -0.21110 0.38916 0.52241
 C536 C -0.22046 0.37650 0.55833
 H537 H -0.20637 0.36550 0.55900
 C538 C -0.25608 0.40548 0.55464
 H539 H -0.26993 0.41664 0.55340
 C540 C -0.25423 0.39112 0.57718
 H541 H -0.26681 0.39266 0.59186
 N542 N -0.24233 0.40342 0.53568
 C543 C -0.25893 0.40160 0.45502
 H544 H -0.25883 0.41931 0.45010
 C545 C -0.26420 0.38537 0.43663
 H546 H -0.26732 0.39076 0.41739
 C547 C -0.25502 0.37322 0.48617
 H548 H -0.25224 0.36851 0.50565
 C549 C -0.26064 0.35652 0.46859
 H550 H -0.26182 0.33916 0.47491
 Zn551 Zn -0.24915 0.41755 0.50435
 N552 N -0.25398 0.39527 0.47912
 C553 C -0.21300 0.43556 0.47442
 N554 N -0.22506 0.43782 0.49613
 C555 C -0.21824 0.45254 0.51449
 C556 C -0.19770 0.46451 0.51221
 C557 C -0.19255 0.44753 0.47116
 C558 C -0.29414 0.41681 0.51151
 C559 C -0.31559 0.42418 0.51598
 C560 C -0.30121 0.46256 0.51132
 C561 C -0.27971 0.45430 0.50734
 N562 N -0.27668 0.43175 0.50775
 H563 H -0.21835 0.42337 0.46035
 H564 H -0.22799 0.45371 0.53172
 H565 H -0.19157 0.47487 0.52778
 H566 H -0.18233 0.44443 0.45463
 H567 H -0.29113 0.39896 0.51204
 H568 H -0.32830 0.41140 0.52071
 H569 H -0.30308 0.48056 0.51010
 H570 H -0.26552 0.46585 0.50403
 C571 C -0.26504 0.36241 0.44331
 C572 C -0.23781 0.37609 0.57877
 C573 C -0.31981 0.44743 0.51579
 C574 C -0.18436 0.46147 0.49067
 C575 C 0.26911 -0.13688 0.02617
 H576 H 0.26985 -0.14328 0.00703
 C577 C 0.27817 -0.14844 0.04526
 H578 H 0.28638 -0.16390 0.04088
 C579 C 0.25911 -0.10691 0.05330
 H580 H 0.25211 -0.09059 0.05628
 C581 C 0.26870 -0.11902 0.07487
 H582 H 0.26666 -0.11151 0.09330
 N583 N 0.25880 -0.11576 0.03084
 C584 C 0.23196 -0.10901 -0.04503
 H585 H 0.23808 -0.09203 -0.04926
 C586 C 0.22318 -0.12263 -0.06441
 H587 H 0.22327 -0.11613 -0.08359
 C588 C 0.22519 -0.13813 -0.01491
 H589 H 0.22572 -0.14392 0.00452
 C590 C 0.21601 -0.15225 -0.03363
 H591 H 0.20968 -0.16895 -0.02839
 Zn592 Zn 0.24680 -0.09842 0.00415
 N593 N 0.23365 -0.11724 -0.02107
 C594 C 0.28358 -0.09048 -0.02797
 N595 N 0.27133 -0.08108 -0.00927
 C596 C 0.27903 -0.06222 0.00301
 C597 C 0.30007 -0.05234 -0.00310
 C598 C 0.30464 -0.08120 -0.03463
 C599 C 0.20822 -0.09218 0.03159
 C600 C 0.18849 -0.08223 0.03909
 C601 C 0.20035 -0.04856 0.01624
 C602 C 0.22006 -0.05923 0.00926
 N603 N 0.22338 -0.08080 0.01667
 H604 H 0.27773 -0.10608 -0.03661
 H605 H 0.26951 -0.05569 0.01863
 H606 H 0.30653 -0.03811 0.00780
 H607 H 0.31454 -0.08948 -0.04883
 H608 H 0.21122 -0.10935 0.03716
 H609 H 0.17722 -0.09187 0.05143
 H610 H 0.19770 -0.03194 0.00861
 H611 H 0.23208 -0.05068 -0.00318
 C612 C 0.21549 -0.14478 -0.05894
 C613 C 0.27792 -0.13934 0.07161
 C614 C 0.18359 -0.06038 0.03058
 C615 C 0.31344 -0.06234 -0.02155
 C616 C 0.28489 1.13847 0.47517
 H617 H 0.29079 1.14282 0.49397
 C618 C 0.29077 1.15232 0.45459
 H619 H 0.30109 1.16747 0.45765
 C620 C 0.26436 1.11329 0.44829
 H621 H 0.25425 1.09792 0.44597
 C622 C 0.27011 1.12647 0.42714
 H623 H 0.26390 1.12144 0.40865
 N624 N 0.27151 1.11966 0.47175
 C625 C 0.25987 1.11196 0.55222
 H626 H 0.26707 1.09573 0.55537
 C627 C 0.25355 1.12494 0.57290
 H628 H 0.25674 1.11881 0.59185
 C629 C 0.24711 1.13951 0.52363
 H630 H 0.24422 1.14489 0.50434
 C631 C 0.24020 1.15284 0.54370
 H632 H 0.23205 1.16842 0.53952
 Zn633 Zn 0.26435 1.10140 0.50017
 N634 N 0.25707 1.11966 0.52817
 C635 C 0.30624 1.09239 0.52255
 N636 N 0.29005 1.08449 0.50633
 C637 C 0.29371 1.06676 0.49084
 C638 C 0.31407 1.05590 0.49169
 C639 C 0.32707 1.08229 0.52367
 C640 C 0.22030 1.09455 0.48552
 C641 C 0.19947 1.08345 0.48245
 C642 C 0.21621 1.04863 0.49492
 C643 C 0.23678 1.06051 0.49811
 N644 N 0.23839 1.08309 0.49341
 H645 H 0.30351 1.10733 0.53359
 H646 H 0.28112 1.06156 0.47708
 H647 H 0.31649 1.04178 0.47921
 H648 H 0.34005 1.08956 0.53582
 H649 H 0.22195 1.11252 0.48229
 H650 H 0.18505 1.09294 0.47690
 H651 H 0.21483 1.03083 0.49947
 H652 H 0.25108 1.05185 0.50538
 C653 C 0.24361 1.14578 0.56882
 C654 C 0.28326 1.14640 0.43023
 C655 C 0.19723 1.06031 0.48750
 C656 C 0.33134 1.06399 0.50779
 C657 C 0.18292 0.47410 0.25510
 H658 H 0.18515 0.48846 0.26742
 C659 C 0.19541 0.45491 0.25946
 H660 H 0.20748 0.45480 0.27482
 C661 C 0.16391 0.45604 0.22094
 H662 H 0.15115 0.45593 0.20647
 C663 C 0.17618 0.43679 0.22437
 H664 H 0.17277 0.42233 0.21233
 N665 N 0.16742 0.47434 0.23608
 C666 C 0.16188 0.53851 0.20239
 H667 H 0.15051 0.53211 0.18801
 C668 C 0.17228 0.55981 0.19907
 H669 H 0.16930 0.56910 0.18178
 C670 C 0.17861 0.53501 0.24283
 H671 H 0.18021 0.52578 0.26035
 C672 C 0.18922 0.55627 0.24037
 H673 H 0.19906 0.56301 0.25604
 Zn674 Zn 0.14839 0.49924 0.23106
 N675 N 0.16517 0.52653 0.22405
 C676 C 0.12066 0.52391 0.26275
 N677 N 0.13163 0.50428 0.26079
 C678 C 0.13101 0.48880 0.27980
 C679 C 0.11942 0.49303 0.30216
 C680 C 0.10889 0.52886 0.28486
 C681 C 0.13597 0.48973 0.18034
 C682 C 0.12173 0.48209 0.16094
 C683 C 0.09155 0.47836 0.19142
 C684 C 0.10644 0.48607 0.21016
 N685 N 0.12814 0.49172 0.20436
 H686 H 0.12141 0.53590 0.24726
 H687 H 0.13950 0.47315 0.27765
 H688 H 0.11904 0.48041 0.31703
 H689 H 0.10075 0.54480 0.28637
 H690 H 0.15351 0.49374 0.17629
 H691 H 0.12885 0.48204 0.14212
 H692 H 0.07489 0.47315 0.19770
 H693 H 0.10076 0.48671 0.22959
 C694 C 0.18588 0.56913 0.21839
 C695 C 0.19207 0.43599 0.24387
 C696 C 0.09883 0.47610 0.16597
 C697 C 0.10841 0.51341 0.30506
 C698 C -0.18042 1.02089 0.27612
 H699 H -0.17019 1.01276 0.29007
 C700 C -0.19316 1.03906 0.28343
 H701 H -0.19198 1.04534 0.30264
 C702 C -0.19359 1.02367 0.23395
 H703 H -0.19377 1.01771 0.21472
 C704 C -0.20648 1.04194 0.24039
 H705 H -0.21589 1.05041 0.22585
 N706 N -0.17975 1.01448 0.25137
 C707 C -0.15930 0.95368 0.21412
 H708 H -0.14238 0.95901 0.20868
 C709 C -0.16829 0.93294 0.20602
 H710 H -0.15813 0.92241 0.19425
 C711 C -0.19295 0.96102 0.23621
 H712 H -0.20233 0.97202 0.24822
 C713 C -0.20256 0.94022 0.22873
 H714 H -0.21920 0.93515 0.23546
 Zn715 Zn -0.15753 0.99426 0.24041
 N716 N -0.17152 0.96706 0.22925
 C717 C -0.13356 0.96773 0.27658
 N718 N -0.13765 0.98883 0.26797
 C719 C -0.12722 1.00730 0.27846
 C720 C -0.11174 1.00502 0.29800
 C721 C -0.11799 0.96466 0.29616
 C722 C -0.15029 1.01127 0.19020
 C723 C -0.13775 1.01976 0.16961
 C724 C -0.10439 1.01861 0.19532
 C725 C -0.11765 1.01051 0.21545
 N726 N -0.14024 1.00705 0.21276
 H727 H -0.14205 0.95325 0.26801
 H728 H -0.13080 1.02390 0.27138
 H729 H -0.10380 1.02005 0.30608
 H730 H -0.11448 0.94776 0.30240
 H731 H -0.16803 1.00750 0.18778
 H732 H -0.14701 1.02342 0.15262
 H733 H -0.08647 1.01975 0.19856
 H734 H -0.10952 1.00623 0.23297
 C735 C -0.18997 0.92566 0.21390
 C736 C -0.20552 1.05034 0.26513
 C737 C -0.11412 1.02338 0.17151
 C738 C -0.10662 0.98350 0.30686
 C739 C 0.32082 0.53416 -0.22008
 H740 H 0.33061 0.52551 -0.20612
 C741 C 0.30768 0.55198 -0.21259
 H742 H 0.30797 0.55746 -0.19304
 C743 C 0.30989 0.53904 -0.26290
 H744 H 0.31153 0.53443 -0.28261
 C745 C 0.29630 0.55671 -0.25619
 H746 H 0.28777 0.56594 -0.27084
 N747 N 0.32254 0.52885 -0.24506
 C748 C 0.34541 0.46850 -0.28416
 H749 H 0.36278 0.47369 -0.28768
 C750 C 0.33765 0.44829 -0.29160
 H751 H 0.34882 0.43760 -0.30187
 C752 C 0.30954 0.47853 -0.26843
 H753 H 0.29894 0.49000 -0.25854
 C754 C 0.30012 0.45631 -0.27646
 H755 H 0.28288 0.45203 -0.27126
 Zn756 Zn 0.34471 0.50960 -0.25717
 N757 N 0.33093 0.48339 -0.27111
 C758 C 0.36814 0.47896 -0.22573
 N759 N 0.36455 0.50113 -0.23049
 C760 C 0.37431 0.51756 -0.21581
 C761 C 0.38770 0.51196 -0.19520
 C762 C 0.38175 0.47264 -0.20550
 C763 C 0.35533 0.52008 -0.30770
 C764 C 0.36795 0.52916 -0.32777
 C765 C 0.39127 0.54963 -0.29761
 C766 C 0.37823 0.54003 -0.27806
 N767 N 0.36107 0.52499 -0.28334
 H768 H 0.35999 0.46600 -0.23707
 H769 H 0.37078 0.53501 -0.21925
 H770 H 0.39452 0.52517 -0.18302
 H771 H 0.38382 0.45496 -0.20138
 H772 H 0.34124 0.50862 -0.31162
 H773 H 0.36377 0.52391 -0.34687
 H774 H 0.40522 0.56111 -0.29298
 H775 H 0.38230 0.54423 -0.25873
 C776 C 0.31391 0.44091 -0.28611
 C777 C 0.29589 0.56386 -0.23096
 C778 C 0.38656 0.54374 -0.32285
 C779 C 0.39136 0.48928 -0.18979
 C780 C 0.67969 -0.02797 -0.23431
 H781 H 0.68963 -0.01410 -0.24236
 C782 C 0.68880 -0.04812 -0.23122
 H783 H 0.70598 -0.05001 -0.23731
 C784 C 0.64424 -0.04124 -0.21795
 H785 H 0.62671 -0.03873 -0.21375
 C786 C 0.65358 -0.06349 -0.21383
 H787 H 0.64262 -0.07617 -0.20503
 N788 N 0.65649 -0.02495 -0.22795
 C789 C 0.67689 0.03262 -0.22642
 H790 H 0.67538 0.02511 -0.20775
 C791 C 0.69109 0.05151 -0.23020
 H792 H 0.69981 0.05830 -0.21380
 C793 C 0.66525 0.03339 -0.26925
 H794 H 0.65521 0.02616 -0.28443
 C795 C 0.67915 0.05244 -0.27391
 H796 H 0.67983 0.05906 -0.29302
 Zn797 Zn 0.64207 0.00203 -0.23627
 N798 N 0.66383 0.02441 -0.24557
 C799 C 0.63070 0.00335 -0.18450
 N800 N 0.62694 0.01311 -0.20737
 C801 C 0.61379 0.03134 -0.20931
 C802 C 0.60309 0.03978 -0.18793
 C803 C 0.62028 0.01109 -0.16279
 C804 C 0.61833 -0.02536 -0.27226
 C805 C 0.60491 -0.02972 -0.29352
 C806 C 0.59781 0.00997 -0.29610
 C807 C 0.61111 0.01356 -0.27463
 N808 N 0.62145 -0.00393 -0.26338
 H809 H 0.64204 -0.01032 -0.18284
 H810 H 0.61172 0.03958 -0.22733
 H811 H 0.59265 0.05425 -0.18984
 H812 H 0.62301 0.00241 -0.14505
 H813 H 0.62694 -0.03907 -0.26365
 H814 H 0.60349 -0.04662 -0.30113
 H815 H 0.59076 0.02422 -0.30574
 H816 H 0.61430 0.03054 -0.26803
 C817 C 0.69190 0.06243 -0.25404
 C818 C 0.67480 -0.06762 -0.22128
 C819 C 0.59493 -0.01182 -0.30591
 C820 C 0.60623 0.02954 -0.16427
 C821 C 0.02756 0.25872 0.82216
 H822 H 0.01559 0.27174 0.81913
 C823 C 0.04686 0.25810 0.80713
 H824 H 0.04961 0.27069 0.79245
 C825 C 0.03870 0.22678 0.84539
 H826 H 0.03565 0.21487 0.86066
 C827 C 0.05817 0.22546 0.83069
 H828 H 0.07007 0.21261 0.83495
 N829 N 0.02404 0.24343 0.84114
 C830 C -0.04150 0.26691 0.84448
 H831 H -0.03943 0.27778 0.86067
 C832 C -0.05954 0.27003 0.82803
 H833 H -0.07138 0.28289 0.83234
 C834 C -0.02885 0.23701 0.81931
 H835 H -0.01648 0.22457 0.81557
 C836 C -0.04656 0.23966 0.80227
 H837 H -0.04772 0.22897 0.78571
 Zn838 Zn -0.00168 0.24628 0.86203
 N839 N -0.02680 0.25032 0.84018
 C840 C -0.01307 0.27683 0.90107
 N841 N 0.00273 0.27198 0.88341
 C842 C 0.02134 0.28572 0.88003
 C843 C 0.02394 0.30578 0.89359
 C844 C -0.01101 0.29666 0.91525
 C845 C -0.01061 0.19983 0.86952
 C846 C -0.01155 0.17939 0.88268
 C847 C -0.00365 0.19961 0.92143
 C848 C -0.00272 0.21974 0.90746
 N849 N -0.00590 0.21949 0.88189
 H850 H -0.02764 0.26559 0.90362
 H851 H 0.03399 0.28149 0.86636
 H852 H 0.03857 0.31679 0.89016
 H853 H -0.02414 0.30067 0.92853
 H854 H -0.01287 0.19985 0.84924
 H855 H -0.01484 0.16391 0.87233
 H856 H -0.00026 0.20002 0.94159
 H857 H 0.00143 0.23541 0.91698
 C858 C -0.06237 0.25621 0.80664
 C859 C 0.06263 0.24150 0.81155
 C860 C -0.00758 0.17904 0.90890
 C861 C 0.00743 0.31167 0.91110
 C862 C 0.47516 0.26136 0.17262
 H863 H 0.48838 0.27239 0.17998
 C864 C 0.45416 0.26024 0.18477
 H865 H 0.45151 0.27065 0.20122
 C866 C 0.46205 0.23524 0.14178
 H867 H 0.46485 0.22586 0.12465
 C868 C 0.44101 0.23343 0.15340
 H869 H 0.42826 0.22210 0.14537
 N870 N 0.47877 0.24888 0.15150
 C871 C 0.54677 0.23543 0.15501
 H872 H 0.54431 0.22160 0.14202
 C873 C 0.56512 0.23541 0.17143
 H874 H 0.57643 0.22156 0.17067
 C875 C 0.53585 0.27058 0.17090
 H876 H 0.52461 0.28446 0.17033
 C877 C 0.55414 0.27125 0.18772
 H878 H 0.55650 0.28548 0.20033
 Zn879 Zn 0.50660 0.25024 0.13313
 N880 N 0.53220 0.25258 0.15529
 C881 C 0.52318 0.29014 0.10719
 N882 N 0.50591 0.27460 0.10990
 C883 C 0.48683 0.27583 0.09586
 C884 C 0.48411 0.29366 0.07904
 C885 C 0.52125 0.30821 0.09025
 C886 C 0.50436 0.20363 0.12776
 C887 C 0.50459 0.18296 0.11550
 C888 C 0.51266 0.20254 0.07611
 C889 C 0.51207 0.22297 0.08916
 N890 N 0.50803 0.22310 0.11455
 H891 H 0.53828 0.28870 0.11839
 H892 H 0.47348 0.26313 0.09811
 H893 H 0.46850 0.29476 0.06860
 H894 H 0.53473 0.32092 0.08882
 H895 H 0.50104 0.20426 0.14790
 H896 H 0.50112 0.16775 0.12639
 H897 H 0.51628 0.20267 0.05600
 H898 H 0.51499 0.23868 0.07906
 C899 C 0.56889 0.25329 0.18839
 C900 C 0.43666 0.24619 0.17508
 C901 C 0.50900 0.18217 0.08936
 C902 C 0.50130 0.31029 0.07635
 C903 C -0.03231 0.75740 0.65994
 H904 H -0.01750 0.76310 0.67022
 C905 C -0.05235 0.75668 0.67167
 H906 H -0.05304 0.76252 0.69102
 C907 C -0.04812 0.74340 0.62145
 H908 H -0.04646 0.73798 0.60204
 C909 C -0.07051 0.74233 0.63351
 H910 H -0.08431 0.73540 0.62234
 N911 N -0.03050 0.75099 0.63378
 C912 C 0.03791 0.73888 0.63636
 H913 H 0.03595 0.72558 0.62258
 C914 C 0.05637 0.73897 0.65267
 H915 H 0.06831 0.72572 0.65104
 C916 C 0.02549 0.77266 0.65435
 H917 H 0.01350 0.78591 0.65472
 C918 C 0.04383 0.77342 0.67108
 H919 H 0.04555 0.78712 0.68449
 Zn920 Zn -0.00285 0.75353 0.61528
 N921 N 0.02262 0.75533 0.63767
 C922 C 0.01402 0.79498 0.59368
 N923 N -0.00331 0.77935 0.59377
 C924 C -0.02116 0.78136 0.57789
 C925 C -0.02220 0.79965 0.56131
 C926 C 0.01367 0.81358 0.57736
 C927 C -0.00344 0.70702 0.60603
 C928 C -0.00083 0.68738 0.59207
 C929 C 0.00578 0.71016 0.55458
 C930 C 0.00338 0.72943 0.56936
 N931 N -0.00089 0.72753 0.59465
 H932 H 0.02823 0.79298 0.60614
 H933 H -0.03455 0.76861 0.57780
 H934 H -0.03648 0.80074 0.54871
 H935 H 0.02745 0.82601 0.57788
 H936 H -0.00695 0.70598 0.62612
 H937 H -0.00247 0.67118 0.60152
 H938 H 0.00970 0.71190 0.53461
 H939 H 0.00545 0.74588 0.56068
 C940 C 0.05945 0.75623 0.67059
 C941 C -0.07316 0.74915 0.65773
 C942 C 0.00408 0.68885 0.56607
 C943 C -0.00467 0.81613 0.56092
 C944 C 0.53163 0.77095 0.33666
 H945 H 0.51974 0.78402 0.33353
 C946 C 0.54932 0.76830 0.31947
 H947 H 0.55028 0.77909 0.30294
 C948 C 0.54419 0.74090 0.36180
 H949 H 0.54239 0.73039 0.37848
 C950 C 0.56256 0.73831 0.34583
 H951 H 0.57472 0.72604 0.35107
 N952 N 0.52870 0.75649 0.35658
 C953 C 0.45643 0.75483 0.37288
 H954 H 0.45719 0.75349 0.39332
 C955 C 0.43562 0.75413 0.36067
 H956 H 0.42050 0.75204 0.37200
 C957 C 0.47539 0.75779 0.33352
 H958 H 0.49080 0.75843 0.32278
 C959 C 0.45491 0.75754 0.32053
 H960 H 0.45506 0.75892 0.30008
 Zn961 Zn 0.50306 0.75718 0.37832
 N962 N 0.47582 0.75707 0.35931
 C963 C 0.48915 0.79798 0.40110
 N964 N 0.50602 0.78319 0.39918
 C965 C 0.52609 0.78718 0.41101
 C966 C 0.53000 0.80695 0.42491
 C967 C 0.49219 0.81773 0.41524
 C968 C 0.49860 0.71109 0.38455
 C969 C 0.49797 0.69020 0.39667
 C970 C 0.50277 0.70920 0.43680
 C971 C 0.50342 0.72989 0.42381
 N972 N 0.50167 0.73037 0.39808
 H973 H 0.47345 0.79479 0.39125
 H974 H 0.53930 0.77527 0.40905
 H975 H 0.54627 0.81016 0.43368
 H976 H 0.47879 0.82957 0.41611
 H977 H 0.49698 0.71199 0.36416
 H978 H 0.49570 0.67508 0.38542
 H979 H 0.50474 0.70897 0.45719
 H980 H 0.50560 0.74546 0.43421
 C981 C 0.43459 0.75589 0.33411
 C982 C 0.56491 0.75137 0.32356
 C983 C 0.50039 0.68899 0.42310
 C984 C 0.51296 0.82256 0.42701
 B985 B -0.01344 0.01555 1.02250
 B986 B -0.02217 0.00659 0.99354
 B987 B 0.00008 0.02506 0.99624
 B988 B 0.01503 0.01831 1.02218
 B989 B 0.00186 -0.00472 1.03565
 B990 B -0.02138 -0.01179 1.01807
 B991 B 0.01573 -0.01646 0.98818
 B992 B 0.02450 -0.00778 1.01704
 B993 B 0.00216 -0.02601 1.01442
 B994 B -0.01270 -0.01927 0.98848
 B995 B 0.00051 0.00377 0.97501
 B996 B 0.02376 0.01072 0.99281
 B997 B 0.48364 0.52163 0.52870
 B998 B 0.47261 0.51289 0.50072
 B999 B 0.49576 0.53029 0.50130
 B1000 B 0.51197 0.52301 0.52601
 B1001 B 0.49868 0.50068 0.54087
 B1002 B 0.47407 0.49460 0.52538
 B1003 B 0.50873 0.48796 0.49252
 B1004 B 0.51975 0.49645 0.52042
 B1005 B 0.49664 0.47922 0.51996
 B1006 B 0.48040 0.48647 0.49523
 B1007 B 0.49376 0.50878 0.48035
 B1008 B 0.51835 0.51479 0.49611
 B1009 B 0.53019 0.99876 0.51717
 B1010 B 0.54552 1.00335 0.49069
 B1011 B 0.52373 0.98455 0.49022
 B1012 B 0.50304 0.99407 0.50872
 B1013 B 0.51216 1.01957 0.52049
 B1014 B 0.53874 1.02522 0.50925
 B1015 B 0.51035 1.02330 0.46885
 B1016 B 0.49481 1.01790 0.49515
 B1017 B 0.51656 1.03729 0.49577
 B1018 B 0.53753 1.02770 0.47718
 B1019 B 0.52837 1.00226 0.46547
 B1020 B 0.50187 0.99648 0.47638
 B1021 B 0.00540 0.47947 1.01472
 B1022 B 0.02104 0.49075 0.99083
 B1023 B 0.00109 0.47045 0.98496
 B1024 B -0.02112 0.47433 1.00410
 B1025 B -0.01470 0.49746 1.02204
 B1026 B 0.01158 0.50746 1.01402
 B1027 B -0.01539 0.51092 0.97257
 B1028 B -0.03108 0.49951 0.99634
 B1029 B -0.01113 0.51978 1.00233
 B1030 B 0.01110 0.51595 0.98312
 B1031 B 0.00468 0.49279 0.96508
 B1032 B -0.02163 0.48283 0.97313
 B1033 B 0.02379 0.51458 0.47222
 B1034 B 0.03521 0.51266 0.50129
 B1035 B 0.01537 0.53155 0.49579
 B1036 B -0.00377 0.52015 0.47533
 B1037 B 0.00442 0.49362 0.46858
 B1038 B 0.02876 0.48899 0.48474
 B1039 B -0.00431 0.49579 0.51953
 B1040 B -0.01571 0.49768 0.49048
 B1041 B 0.00409 0.47875 0.49597
 B1042 B 0.02326 0.49013 0.51644
 B1043 B 0.01505 0.51663 0.52316
 B1044 B -0.00917 0.52132 0.50694
 B1045 B 0.51584 0.01143 -0.00759
 B1046 B 0.52530 0.00492 0.02147
 B1047 B 0.50354 0.02206 0.01831
 B1048 B 0.48754 0.01323 -0.00635
 B1049 B 0.49958 -0.00997 -0.01835
 B1050 B 0.52313 -0.01518 -0.00108
 B1051 B 0.48671 -0.01930 0.03055
 B1052 B 0.47741 -0.01272 0.00144
 B1053 B 0.49911 -0.02996 0.00461
 B1054 B 0.51513 -0.02112 0.02937
 B1055 B 0.50311 0.00220 0.04135
 B1056 B 0.47956 0.00736 0.02403
 B1057 B 0.47850 0.48135 -0.02610
 B1058 B 0.46881 0.48445 0.00361
 B1059 B 0.48875 0.46561 -0.00198
 B1060 B 0.50631 0.47628 -0.02465
 B1061 B 0.49722 0.50229 -0.03244
 B1062 B 0.47386 0.50740 -0.01483
 B1063 B 0.50903 0.50289 0.01777
 B1064 B 0.51870 0.49965 -0.01196
 B1065 B 0.49891 0.51856 -0.00624
 B1066 B 0.48115 0.50789 0.01636
 B1067 B 0.49030 0.48191 0.02416
 B1068 B 0.51371 0.47688 0.00657
 B1069 B -0.00492 0.98965 0.46170
 B1070 B -0.01920 0.98974 0.48943
 B1071 B 0.00041 0.97029 0.48398
 B1072 B 0.02193 0.98284 0.46751
 B1073 B 0.01554 1.01023 0.46302
 B1074 B -0.01029 1.01428 0.47618
 B1075 B 0.01852 1.00286 0.51414
 B1076 B 0.03299 1.00317 0.48678
 B1077 B 0.01331 1.02243 0.49169
 B1078 B -0.00811 1.00995 0.50816
 B1079 B -0.00150 0.98247 0.51267
 B1080 B 0.02405 0.97853 0.49922
 B1081 B 0.75793 0.22806 0.25116
 B1082 B 0.75378 0.21504 0.27914
 B1083 B 0.77370 0.23578 0.27659
 B1084 B 0.76441 0.25556 0.25654
 B1085 B 0.73798 0.24696 0.24701
 B1086 B 0.73149 0.22169 0.26112
 B1087 B 0.73696 0.25291 0.29845
 B1088 B 0.74177 0.26615 0.27037
 B1089 B 0.72138 0.24550 0.27307
 B1090 B 0.73075 0.22543 0.29305
 B1091 B 0.75707 0.23393 0.30243
 B1092 B 0.76363 0.25938 0.28868
 B1093 B 0.72578 0.76355 0.72057
 B1094 B 0.73361 0.77642 0.74775
 B1095 B 0.71640 0.75325 0.74875
 B1096 B 0.72411 0.73539 0.72591
 B1097 B 0.74677 0.74759 0.71068
 B1098 B 0.75264 0.77333 0.72423
 B1099 B 0.75851 0.74094 0.76016
 B1100 B 0.75029 0.72786 0.73316
 B1101 B 0.76780 0.75098 0.73210
 B1102 B 0.76009 0.76906 0.75494
 B1103 B 0.73746 0.75686 0.77007
 B1104 B 0.73163 0.73127 0.75683
 B1105 B 0.26376 0.26881 0.77008
 B1106 B 0.26046 0.27925 0.74070
 B1107 B 0.27837 0.25838 0.74537
 B1108 B 0.26737 0.24079 0.76779
 B1109 B 0.24188 0.25091 0.77650
 B1110 B 0.23795 0.27494 0.75963
 B1111 B 0.23969 0.24024 0.72605
 B1112 B 0.24335 0.22966 0.75561
 B1113 B 0.22520 0.25050 0.75042
 B1114 B 0.23630 0.26829 0.72840
 B1115 B 0.26150 0.25814 0.71966
 B1116 B 0.26575 0.23408 0.73627
 B1117 B 0.23510 0.74322 0.26677
 B1118 B 0.24209 0.73233 0.23839
 B1119 B 0.22530 0.75467 0.23994
 B1120 B 0.23426 0.77158 0.26383
 B1121 B 0.25695 0.75937 0.27706
 B1122 B 0.26160 0.73501 0.26148
 B1123 B 0.26733 0.76994 0.22777
 B1124 B 0.26071 0.78059 0.25628
 B1125 B 0.27718 0.75820 0.25470
 B1126 B 0.26828 0.74157 0.23067
 B1127 B 0.24555 0.75367 0.21746
 B1128 B 0.24092 0.77820 0.23332
 B1129 B 0.25059 0.73928 0.73958
 B1130 B 0.24515 0.72510 0.76658
 B1131 B 0.26395 0.74698 0.76665
 B1132 B 0.25500 0.76682 0.74651
 B1133 B 0.22983 0.75709 0.73423
 B1134 B 0.22388 0.73106 0.74677
 B1135 B 0.22471 0.76125 0.78555
 B1136 B 0.23076 0.77562 0.75848
 B1137 B 0.21147 0.75378 0.75863
 B1138 B 0.22059 0.73369 0.77865
 B1139 B 0.24559 0.74335 0.79079
 B1140 B 0.25165 0.76946 0.77859
 B1141 B 0.23502 0.25858 0.23120
 B1142 B 0.24491 0.27530 0.25472
 B1143 B 0.22529 0.25470 0.26074
 B1144 B 0.23071 0.23218 0.24250
 B1145 B 0.25420 0.23921 0.22520
 B1146 B 0.26278 0.26604 0.23268
 B1147 B 0.26579 0.24004 0.27527
 B1148 B 0.25606 0.22352 0.25153
 B1149 B 0.27568 0.24420 0.24573
 B1150 B 0.27021 0.26658 0.26398
 B1151 B 0.24673 0.25960 0.28121
 B1152 B 0.23808 0.23273 0.27372
 B1153 B 0.75363 0.75237 0.24963
 B1154 B 0.74942 0.76314 0.22059
 B1155 B 0.76669 0.74151 0.22419
 B1156 B 0.75622 0.72420 0.24710
 B1157 B 0.73173 0.73514 0.25735
 B1158 B 0.72755 0.75945 0.24086
 B1159 B 0.72689 0.72477 0.20695
 B1160 B 0.73126 0.71398 0.23605
 B1161 B 0.71376 0.73552 0.23255
 B1162 B 0.72433 0.75303 0.20961
 B1163 B 0.74876 0.74200 0.19937
 B1164 B 0.75305 0.71770 0.21582
 B1165 B 0.75040 0.23865 0.77656
 B1166 B 0.74726 0.22555 0.74842
 B1167 B 0.72899 0.24522 0.75735
 B1168 B 0.74354 0.26578 0.77318
 B1169 B 0.77104 0.25867 0.77362
 B1170 B 0.77301 0.23358 0.75841
 B1171 B 0.75890 0.26429 0.72412
 B1172 B 0.76204 0.27738 0.75225
 B1173 B 0.78027 0.25768 0.74335
 B1174 B 0.76570 0.23717 0.72747
 B1175 B 0.73819 0.24426 0.72704
 B1176 B 0.73621 0.26940 0.74222
 C1177 C 0.45948 1.04652 0.37818
 C1178 C 0.46509 1.03545 0.35543
 C1179 C 0.44956 1.03404 0.33547
 C1180 C 0.42794 1.04215 0.33851
 C1181 C 0.42245 1.05346 0.36075
 C1182 C 0.43815 1.05596 0.38027
 C1183 C 0.47534 1.04525 0.40010
 C1184 C 0.47181 1.05625 0.42321
 C1185 C 0.48448 1.05103 0.44452
 C1186 C 0.50068 1.03447 0.44351
 C1187 C 0.50643 1.02598 0.41957
 C1188 C 0.49391 1.03122 0.39798
 C1189 C 0.48525 1.02409 0.35360
 C1190 C 0.49912 1.02158 0.37463
 H1191 H 0.48962 1.01573 0.33615
 H1192 H 0.51374 1.01134 0.37278
 H1193 H 0.45351 1.02479 0.31845
 H1194 H 0.40565 1.05953 0.36339
 H1195 H 0.48014 1.05874 0.46209
 H1196 H 0.51972 1.01411 0.41774
 H1197 H 0.43276 1.06406 0.39738
 H1198 H 0.45877 1.06826 0.42547
 C1199 C -0.06206 0.54422 0.88350
 C1200 C -0.08565 0.54426 0.88648
 C1201 C -0.09964 0.54243 0.86513
 C1202 C -0.09044 0.54156 0.84053
 C1203 C -0.06697 0.54485 0.83776
 C1204 C -0.05295 0.54589 0.85894
 C1205 C -0.04796 0.54093 0.90655
 C1206 C -0.02539 0.53473 0.90509
 C1207 C -0.01438 0.52703 0.92657
 C1208 C -0.02531 0.52600 0.95021
 C1209 C -0.04637 0.53578 0.95236
 C1210 C -0.05847 0.54139 0.93057
 C1211 C -0.09506 0.54546 0.91078
 C1212 C -0.08158 0.54495 0.93241
 H1213 H -0.11311 0.54633 0.91314
 H1214 H -0.08969 0.54534 0.95080
 H1215 H -0.11773 0.54156 0.86776
 H1216 H -0.05905 0.54461 0.81929
 H1217 H 0.00234 0.52074 0.92421
 H1218 H -0.05430 0.53724 0.97063
 H1219 H -0.03502 0.54733 0.85573
 H1220 H -0.01659 0.53394 0.88725
 C1221 C 0.06990 -0.03635 0.90008
 C1222 C 0.05800 -0.04127 0.87745
 C1223 C 0.06873 -0.03808 0.85381
 C1224 C 0.09107 -0.02939 0.85243
 C1225 C 0.10283 -0.02518 0.87506
 C1226 C 0.09259 -0.02883 0.89844
 C1227 C 0.05732 -0.03723 0.92465
 C1228 C 0.06743 -0.03077 0.94762
 C1229 C 0.05438 -0.02644 0.96869
 C1230 C 0.03084 -0.02979 0.96833
 C1231 C 0.02096 -0.03941 0.94640
 C1232 C 0.03392 -0.04244 0.92435
 C1233 C 0.03522 -0.04826 0.87860
 C1234 C 0.02341 -0.04878 0.90155
 H1235 H 0.02611 -0.05239 0.86135
 H1236 H 0.00556 -0.05316 0.90124
 H1237 H 0.05949 -0.04174 0.83654
 H1238 H 0.11987 -0.01809 0.87485
 H1239 H 0.06301 -0.01817 0.98410
 H1240 H 0.00286 -0.04211 0.94544
 H1241 H 0.10262 -0.02476 0.91489
 H1242 H 0.08524 -0.02710 0.94934
 C1243 C 0.55608 0.45499 0.40347
 C1244 C 0.57961 0.45969 0.40271
 C1245 C 0.59109 0.45986 0.37959
 C1246 C 0.57934 0.45721 0.35673
 C1247 C 0.55627 0.45139 0.35740
 C1248 C 0.54474 0.45010 0.38055
 C1249 C 0.54403 0.45827 0.42808
 C1250 C 0.52077 0.45374 0.43145
 C1251 C 0.50980 0.46100 0.45332
 C1252 C 0.52169 0.47331 0.47206
 C1253 C 0.54512 0.47638 0.46926
 C1254 C 0.55636 0.46818 0.44825
 C1255 C 0.59126 0.46640 0.42459
 C1256 C 0.57977 0.47119 0.44673
 H1257 H 0.60930 0.46973 0.42404
 H1258 H 0.58928 0.47801 0.46265
 H1259 H 0.60902 0.46392 0.37922
 H1260 H 0.54686 0.44922 0.33996
 H1261 H 0.49173 0.45836 0.45458
 H1262 H 0.55474 0.48685 0.48229
 H1263 H 0.52679 0.44671 0.38000
 H1264 H 0.51071 0.44533 0.41707
 C1265 C 0.56128 0.50667 0.11207
 C1266 C 0.55057 0.51416 0.13426
 C1267 C 0.56063 0.51085 0.15814
 C1268 C 0.58110 0.49980 0.16013
 C1269 C 0.59129 0.49209 0.13800
 C1270 C 0.58167 0.49551 0.11440
 C1271 C 0.54984 0.50969 0.08710
 C1272 C 0.55936 0.50262 0.06432
 C1273 C 0.54691 0.50227 0.04217
 C1274 C 0.52484 0.51008 0.04133
 C1275 C 0.51594 0.51925 0.06362
 C1276 C 0.52821 0.51883 0.08656
 C1277 C 0.52970 0.52436 0.13243
 C1278 C 0.51866 0.52644 0.10913
 H1279 H 0.52145 0.53022 0.14935
 H1280 H 0.50222 0.53371 0.10888
 H1281 H 0.55254 0.51686 0.17510
 H1282 H 0.60670 0.48296 0.13892
 H1283 H 0.55440 0.49421 0.02609
 H1284 H 0.49892 0.52516 0.06363
 H1285 H 0.59037 0.48882 0.09836
 H1286 H 0.57602 0.49615 0.06324
 C1287 C 0.05772 1.00994 0.61713
 C1288 C 0.06322 1.03149 0.62708
 C1289 C 0.07550 1.03335 0.64993
 C1290 C 0.08188 1.01379 0.66279
 C1291 C 0.07423 0.99267 0.65402
 C1292 C 0.06218 0.99071 0.63163
 C1293 C 0.04763 1.00830 0.59136
 C1294 C 0.04611 0.98782 0.57836
 C1295 C 0.03730 0.98672 0.55420
 C1296 C 0.02939 1.00596 0.54185
 C1297 C 0.03083 1.02670 0.55477
 C1298 C 0.04083 1.02810 0.57906
 C1299 C 0.05660 1.05075 0.61390
 C1300 C 0.04501 1.04904 0.59076
 H1301 H 0.06033 1.06734 0.62163
 H1302 H 0.04012 1.06438 0.58141
 H1303 H 0.08084 1.04977 0.65708
 H1304 H 0.07817 0.97747 0.66426
 H1305 H 0.03659 0.97027 0.54546
 H1306 H 0.02498 1.04177 0.54567
 H1307 H 0.05677 0.97396 0.62591
 H1308 H 0.05221 0.97241 0.58622
 C1309 C -0.05886 0.48322 0.61315
 C1310 C -0.07994 0.49363 0.61290
 C1311 C -0.09299 0.49434 0.63487
 C1312 C -0.08536 0.48539 0.65773
 C1313 C -0.06451 0.47501 0.65817
 C1314 C -0.05143 0.47380 0.63610
 C1315 C -0.04505 0.48392 0.58925
 C1316 C -0.02411 0.47361 0.58658
 C1317 C -0.01146 0.47621 0.56412
 C1318 C -0.01931 0.48934 0.54403
 C1319 C -0.04034 0.49919 0.54674
 C1320 C -0.05333 0.49612 0.56846
 C1321 C -0.08762 0.50419 0.59103
 C1322 C -0.07446 0.50568 0.56939
 H1323 H -0.10376 0.51210 0.59089
 H1324 H -0.08086 0.51466 0.55315
 H1325 H -0.10875 0.50296 0.63443
 H1326 H -0.05826 0.46795 0.67563
 H1327 H 0.00472 0.46850 0.56280
 H1328 H -0.04686 0.50970 0.53186
 H1329 H -0.03539 0.46596 0.63748
 H1330 H -0.01720 0.46370 0.60167
 C1331 C 0.43268 -0.03816 0.12126
 C1332 C 0.41051 -0.03019 0.12042
 C1333 C 0.39866 -0.02641 0.14289
 C1334 C 0.40855 -0.03006 0.16660
 C1335 C 0.43008 -0.03907 0.16742
 C1336 C 0.44200 -0.04311 0.14509
 C1337 C 0.44577 -0.03903 0.09688
 C1338 C 0.46841 -0.04535 0.09542
 C1339 C 0.48094 -0.04180 0.07309
 C1340 C 0.47123 -0.03183 0.05172
 C1341 C 0.44808 -0.02767 0.05259
 C1342 C 0.43542 -0.03122 0.07462
 C1343 C 0.40067 -0.02473 0.09725
 C1344 C 0.41290 -0.02513 0.07485
 H1345 H 0.38358 -0.01900 0.09657
 H1346 H 0.40488 -0.01961 0.05757
 H1347 H 0.38222 -0.01919 0.14181
 H1348 H 0.43796 -0.04263 0.18541
 H1349 H 0.49870 -0.04521 0.07331
 H1350 H 0.44009 -0.01912 0.03716
 H1351 H 0.45870 -0.04943 0.14690
 H1352 H 0.47704 -0.05195 0.11166
 C1353 C 0.37625 0.44853 0.02426
 C1354 C 0.36087 0.46229 0.03670
 C1355 C 0.33827 0.45459 0.03973
 C1356 C 0.33128 0.43300 0.03119
 C1357 C 0.34713 0.41914 0.02021
 C1358 C 0.36927 0.42662 0.01705
 C1359 C 0.39945 0.45771 0.01918
 C1360 C 0.41409 0.44658 0.00320
 C1361 C 0.43550 0.45533 -0.00130
 C1362 C 0.44355 0.47547 0.01007
 C1363 C 0.42865 0.48734 0.02542
 C1364 C 0.40641 0.47875 0.02957
 C1365 C 0.36835 0.48339 0.04603
 C1366 C 0.39080 0.49119 0.04312
 H1367 H 0.35676 0.49393 0.05595
 H1368 H 0.39582 0.50745 0.05093
 H1369 H 0.32621 0.46527 0.04867
 H1370 H 0.34229 0.40252 0.01327
 H1371 H 0.44571 0.44601 -0.01421
 H1372 H 0.43410 0.50333 0.03359
 H1373 H 0.38058 0.41489 0.00884
 H1374 H 0.40924 0.43134 -0.00672
 C1375 C -0.11325 0.95640 0.49946
 C1376 C -0.12775 0.95941 0.47857
 C1377 C -0.14907 0.94844 0.47820
 C1378 C -0.15579 0.93379 0.49795
 C1379 C -0.14136 0.93068 0.51847
 C1380 C -0.12039 0.94190 0.51935
 C1381 C -0.09037 0.96767 0.49879
 C1382 C -0.07523 0.96651 0.51912
 C1383 C -0.05317 0.97469 0.51648
 C1384 C -0.04547 0.98419 0.49343
 C1385 C -0.06134 0.98831 0.47443
 C1386 C -0.08356 0.97961 0.47667
 C1387 C -0.12053 0.97259 0.45780
 C1388 C -0.09878 0.98224 0.45672
 H1389 H -0.13160 0.97486 0.44176
 H1390 H -0.09369 0.99157 0.43985
 H1391 H -0.16007 0.95053 0.46205
 H1392 H -0.14630 0.91942 0.53385
 H1393 H -0.04194 0.97247 0.53234
 H1394 H -0.05627 0.99749 0.45749
 H1395 H -0.10987 0.93849 0.53543
 H1396 H -0.07987 0.95886 0.53702
 C1397 C -0.11242 0.03788 0.97523
 C1398 C -0.13087 0.02361 0.98256
 C1399 C -0.15234 0.03245 0.98564
 C1400 C -0.15533 0.05585 0.98393
 C1401 C -0.13671 0.06987 0.97690
 C1402 C -0.11573 0.06104 0.97225
 C1403 C -0.08960 0.02821 0.97367
 C1404 C -0.07060 0.04047 0.96446
 C1405 C -0.04909 0.03237 0.96792
 C1406 C -0.04601 0.01225 0.98128
 C1407 C -0.06514 -0.00184 0.98631
 C1408 C -0.08688 0.00610 0.98277
 C1409 C -0.12742 0.00100 0.98867
 C1410 C -0.10579 -0.00739 0.98949
 H1411 H -0.14147 -0.01000 0.99441
 H1412 H -0.10381 -0.02454 0.99597
 H1413 H -0.16614 0.02132 0.99182
 H1414 H -0.13834 0.08786 0.97454
 H1415 H -0.03503 0.04244 0.96085
 H1416 H -0.06325 -0.01821 0.99503
 H1417 H -0.10208 0.07277 0.96745
 H1418 H -0.07200 0.05657 0.95515
 C1419 C 0.38318 0.54554 0.47358
 C1420 C 0.38299 0.56730 0.46254
 C1421 C 0.36289 0.57890 0.46148
 C1422 C 0.34283 0.56896 0.47092
 C1423 C 0.34265 0.54675 0.47989
 C1424 C 0.36258 0.53512 0.48125
 C1425 C 0.40544 0.53511 0.47773
 C1426 C 0.40774 0.51500 0.49154
 C1427 C 0.42901 0.50743 0.49760
 C1428 C 0.44861 0.51959 0.48993
 C1429 C 0.44634 0.53837 0.47402
 C1430 C 0.42509 0.54675 0.46884
 C1431 C 0.40297 0.57763 0.45345
 C1432 C 0.42354 0.56738 0.45613
 H1433 H 0.40277 0.59411 0.44456
 H1434 H 0.43860 0.57628 0.44927
 H1435 H 0.36294 0.59600 0.45419
 H1436 H 0.32726 0.53881 0.48719
 H1437 H 0.42997 0.49246 0.50925
 H1438 H 0.46102 0.54719 0.46640
 H1439 H 0.36157 0.51828 0.48899
 H1440 H 0.39341 0.50538 0.49883
 C1441 C 0.12974 0.54677 0.51607
 C1442 C 0.13558 0.56714 0.50321
 C1443 C 0.15716 0.57695 0.50555
 C1444 C 0.17355 0.56683 0.52025
 C1445 C 0.16821 0.54632 0.53251
 C1446 C 0.14645 0.53643 0.53062
 C1447 C 0.10610 0.53720 0.51317
 C1448 C 0.09774 0.51760 0.52579
 C1449 C 0.07538 0.50970 0.52228
 C1450 C 0.06090 0.52105 0.50599
 C1451 C 0.06941 0.54042 0.49337
 C1452 C 0.09139 0.54865 0.49700
 C1453 C 0.12000 0.57766 0.48778
 C1454 C 0.09844 0.56849 0.48455
 H1455 H 0.12461 0.59318 0.47788
 H1456 H 0.08702 0.57723 0.47226
 H1457 H 0.16140 0.59246 0.49541
 H1458 H 0.18078 0.53812 0.54374
 H1459 H 0.06947 0.49468 0.53232
 H1460 H 0.05888 0.54946 0.48045
 H1461 H 0.14305 0.52072 0.54048
 H1462 H 0.10815 0.50829 0.53854
 C1463 C 0.61980 0.03797 0.03640
 C1464 C 0.62483 0.05986 0.02672
 C1465 C 0.64712 0.06808 0.02508
 C1466 C 0.66501 0.05528 0.03353
 C1467 C 0.66009 0.03368 0.04358
 C1468 C 0.63778 0.02509 0.04496
 C1469 C 0.59559 0.02952 0.03632
 C1470 C 0.58846 0.00747 0.04359
 C1471 C 0.56589 -0.00001 0.04059
 C1472 C 0.54983 0.01434 0.03052
 C1473 C 0.55684 0.03664 0.02475
 C1474 C 0.57923 0.04415 0.02715
 C1475 C 0.60767 0.07351 0.01839
 C1476 C 0.58535 0.06590 0.01880
 H1477 H 0.61156 0.09033 0.01119
 H1478 H 0.57272 0.07705 0.01177
 H1479 H 0.65050 0.08449 0.01656
 H1480 H 0.67346 0.02344 0.05053
 H1481 H 0.56130 -0.01737 0.04512
 H1482 H 0.54553 0.04783 0.01556
 H1483 H 0.63494 0.00840 0.05275
 H1484 H 0.60020 -0.00444 0.05071
 C1485 C 0.63476 0.96265 0.47827
 C1486 C 0.63815 0.94314 0.49314
 C1487 C 0.65829 0.93191 0.49147
 C1488 C 0.67528 0.93939 0.47487
 C1489 C 0.67188 0.95816 0.45936
 C1490 C 0.65183 0.96982 0.46112
 C1491 C 0.61297 0.97441 0.48138
 C1492 C 0.60783 0.99457 0.46868
 C1493 C 0.58686 1.00433 0.47209
 C1494 C 0.57054 0.99418 0.48814
 C1495 C 0.57592 0.97426 0.50085
 C1496 C 0.59672 0.96463 0.49799
 C1497 C 0.62144 0.93472 0.50959
 C1498 C 0.60105 0.94509 0.51174
 H1499 H 0.62407 0.91973 0.52083
 H1500 H 0.58850 0.93776 0.52455
 H1501 H 0.66081 0.91714 0.50314
 H1502 H 0.68491 0.96407 0.44634
 H1503 H 0.58330 1.01958 0.46177
 H1504 H 0.56361 0.96551 0.51271
 H1505 H 0.64999 0.98432 0.44901
 H1506 H 0.61973 1.00294 0.45603
 C1507 C 0.11721 0.46917 0.98564
 C1508 C 0.12260 0.45156 0.96897
 C1509 C 0.14380 0.44201 0.97024
 C1510 C 0.16006 0.45000 0.98764
 C1511 C 0.15525 0.46873 1.00261
 C1512 C 0.13412 0.47817 1.00172
 C1513 C 0.09354 0.47695 0.98589
 C1514 C 0.08565 0.49213 1.00400
 C1515 C 0.06293 0.49723 1.00488
 C1516 C 0.04746 0.48741 0.98767
 C1517 C 0.05560 0.47360 0.96849
 C1518 C 0.07815 0.46761 0.96806
 C1519 C 0.10665 0.44324 0.95153
 C1520 C 0.08502 0.45143 0.95074
 H1521 H 0.11089 0.43003 0.93844
 H1522 H 0.07319 0.44425 0.93709
 H1523 H 0.14713 0.42761 0.95846
 H1524 H 0.16772 0.47590 1.01549
 H1525 H 0.05745 0.50825 1.01976
 H1526 H 0.04431 0.46676 0.95430
 H1527 H 0.13131 0.49230 1.01394
 H1528 H 0.09651 0.49953 1.01831
 C1529 C -0.00377 0.38150 0.47129
 C1530 C -0.01917 0.37539 0.45180
 C1531 C -0.01959 0.35362 0.44166
 C1532 C -0.00393 0.33787 0.44932
 C1533 C 0.01118 0.34378 0.46890
 C1534 C 0.01117 0.36524 0.47989
 C1535 C -0.00315 0.40545 0.48053
 C1536 C 0.01057 0.41339 0.50069
 C1537 C 0.01180 0.43639 0.50690
 C1538 C -0.00038 0.45204 0.49298
 C1539 C -0.01453 0.44391 0.47342
 C1540 C -0.01656 0.42099 0.46773
 C1541 C -0.03328 0.39134 0.44146
 C1542 C -0.03163 0.41376 0.44884
 H1543 H -0.04507 0.38665 0.42656
 H1544 H -0.04224 0.42568 0.43945
 H1545 H -0.03174 0.34921 0.42703
 H1546 H 0.02363 0.33212 0.47511
 H1547 H 0.02300 0.44198 0.52197
 H1548 H -0.02372 0.45552 0.46186
 H1549 H 0.02353 0.36910 0.49435
 H1550 H 0.02066 0.40214 0.51159
 C1551 C 0.49786 -0.12342 -0.03583
 C1552 C 0.49141 -0.12568 -0.06157
 C1553 C 0.49094 -0.14678 -0.07326
 C1554 C 0.49673 -0.16613 -0.05990
 C1555 C 0.50356 -0.16400 -0.03452
 C1556 C 0.50406 -0.14291 -0.02255
 C1557 C 0.49794 -0.10030 -0.02419
 C1558 C 0.50367 -0.09578 0.00134
 C1559 C 0.50375 -0.07369 0.01084
 C1560 C 0.49814 -0.05562 -0.00488
 C1561 C 0.49212 -0.06025 -0.03016
 C1562 C 0.49192 -0.08209 -0.03978
 C1563 C 0.48545 -0.10688 -0.07572
 C1564 C 0.48574 -0.08557 -0.06507
 H1565 H 0.48054 -0.10866 -0.09541
 H1566 H 0.48107 -0.07153 -0.07691
 H1567 H 0.48622 -0.14812 -0.09306
 H1568 H 0.50814 -0.17871 -0.02379
 H1569 H 0.50838 -0.07074 0.03042
 H1570 H 0.48726 -0.04681 -0.04271
 H1571 H 0.50927 -0.14220 -0.00298
 H1572 H 0.50819 -0.10905 0.01417
 C1573 C 0.00694 -0.11879 1.05523
 C1574 C 0.00045 -0.13704 1.03943
 C1575 C 0.00031 -0.15924 1.04905
 C1576 C 0.00742 -0.16350 1.07403
 C1577 C 0.01581 -0.14532 1.08861
 C1578 C 0.01546 -0.12333 1.07949
 C1579 C 0.00486 -0.09534 1.04535
 C1580 C 0.00715 -0.07642 1.06112
 C1581 C 0.00539 -0.05484 1.05130
 C1582 C 0.00177 -0.05126 1.02526
 C1583 C -0.00152 -0.07016 1.00948
 C1584 C -0.00056 -0.09216 1.01953
 C1585 C -0.00567 -0.13290 1.01420
 C1586 C -0.00550 -0.11099 1.00425
 H1587 H -0.01031 -0.14684 1.00183
 H1588 H -0.00993 -0.10872 0.98452
 H1589 H -0.00583 -0.17304 1.03727
 H1590 H 0.02259 -0.14804 1.10737
 H1591 H 0.00771 -0.04092 1.06431
 H1592 H -0.00491 -0.06780 0.98948
 H1593 H 0.02211 -0.11013 1.09166
 H1594 H 0.01004 -0.07792 1.08123
 C1595 C 0.50156 0.38600 0.56133
 C1596 C 0.51164 0.38403 0.58551
 C1597 C 0.51406 0.36274 0.59666
 C1598 C 0.50596 0.34302 0.58460
 C1599 C 0.49584 0.34501 0.56065
 C1600 C 0.49373 0.36614 0.54912
 C1601 C 0.49943 0.40922 0.55015
 C1602 C 0.49089 0.41326 0.52564
 C1603 C 0.48965 0.43529 0.51613
 C1604 C 0.49663 0.45390 0.53088
 C1605 C 0.50471 0.44990 0.55550
 C1606 C 0.50664 0.42796 0.56489
 C1607 C 0.51896 0.40333 0.59872
 C1608 C 0.51625 0.42479 0.58879
 H1609 H 0.52665 0.40183 0.61724
 H1610 H 0.52201 0.43917 0.59994
 H1611 H 0.52230 0.36160 0.61491
 H1612 H 0.48905 0.33024 0.55096
 H1613 H 0.48339 0.43769 0.49710
 H1614 H 0.51047 0.46389 0.56722
 H1615 H 0.48560 0.36661 0.53087
 H1616 H 0.48543 0.39962 0.51340
 C1617 C 0.51149 1.12981 0.53681
 C1618 C 0.53209 1.14007 0.54490
 C1619 C 0.53213 1.15960 0.55999
 C1620 C 0.51183 1.16939 0.56695
 C1621 C 0.49156 1.15983 0.55752
 C1622 C 0.49134 1.14036 0.54277
 C1623 C 0.51204 1.10779 0.52293
 C1624 C 0.49246 1.09504 0.51668
 C1625 C 0.49379 1.07351 0.50646
 C1626 C 0.51458 1.06396 0.50139
 C1627 C 0.53423 1.07743 0.50593
 C1628 C 0.53313 1.09879 0.51730
 C1629 C 0.55248 1.13054 0.53825
 C1630 C 0.55300 1.11054 0.52445
 H1631 H 0.56832 1.13854 0.54405
 H1632 H 0.56922 1.10372 0.52016
 H1633 H 0.54798 1.16668 0.56698
 H1634 H 0.47567 1.16737 0.56163
 H1635 H 0.47817 1.06445 0.50329
 H1636 H 0.55062 1.07069 0.50230
 H1637 H 0.47517 1.13381 0.53637
 H1638 H 0.47587 1.10090 0.52059
 C1639 C -0.01737 0.61147 1.04514
 C1640 C -0.01066 0.62991 1.02947
 C1641 C -0.00894 0.65183 1.03965
 C1642 C -0.01436 0.65563 1.06518
 C1643 C -0.02172 0.63732 1.08028
 C1644 C -0.02337 0.61563 1.07045
 C1645 C -0.01756 0.58822 1.03423
 C1646 C -0.02113 0.56884 1.04923
 C1647 C -0.01978 0.54750 1.03879
 C1648 C -0.01557 0.54454 1.01282
 C1649 C -0.01202 0.56389 0.99760
 C1650 C -0.01257 0.58562 1.00822
 C1651 C -0.00580 0.62628 1.00383
 C1652 C -0.00710 0.60467 0.99335
 H1653 H -0.00089 0.64037 0.99168
 H1654 H -0.00311 0.60279 0.97345
 H1655 H -0.00359 0.66592 1.02771
 H1656 H -0.02588 0.63970 1.10005
 H1657 H -0.02134 0.53329 1.05163
 H1658 H -0.00762 0.56211 0.97782
 H1659 H -0.02939 0.60243 1.08306
 H1660 H -0.02402 0.56967 1.06936
 C1661 C 0.50520 0.61440 -0.03816
 C1662 C 0.49046 0.62943 -0.02661
 C1663 C 0.48790 0.65110 -0.03712
 C1664 C 0.49991 0.65775 -0.05907
 C1665 C 0.51572 0.64332 -0.06911
 C1666 C 0.51851 0.62207 -0.05874
 C1667 C 0.50552 0.59067 -0.02860
 C1668 C 0.51674 0.57394 -0.04169
 C1669 C 0.51499 0.55168 -0.03386
 C1670 C 0.50286 0.54508 -0.01196
 C1671 C 0.49177 0.56181 0.00160
 C1672 C 0.49256 0.58444 -0.00700
 C1673 C 0.47815 0.62247 -0.00506
 C1674 C 0.47951 0.60060 0.00480
 H1675 H 0.46711 0.63402 0.00416
 H1676 H 0.46946 0.59602 0.02130
 H1677 H 0.47598 0.66236 -0.02891
 H1678 H 0.52581 0.64844 -0.08538
 H1679 H 0.52289 0.53950 -0.04580
 H1680 H 0.48154 0.55706 0.01790
 H1681 H 0.53101 0.61189 -0.06739
 H1682 H 0.52605 0.57738 -0.05888
 C1683 C 0.02088 1.12059 0.47454
 C1684 C 0.00099 1.13230 0.47841
 C1685 C -0.00122 1.15389 0.46771
 C1686 C 0.01655 1.16452 0.45360
 C1687 C 0.03726 1.15354 0.45307
 C1688 C 0.03931 1.13197 0.46309
 C1689 C 0.02126 1.09632 0.48218
 C1690 C 0.03780 1.08204 0.47331
 C1691 C 0.03585 1.05892 0.47755
 C1692 C 0.01819 1.04926 0.49221
 C1693 C 0.00207 1.06369 0.50210
 C1694 C 0.00292 1.08686 0.49613
 C1695 C -0.01668 1.12214 0.49251
 C1696 C -0.01541 1.10015 0.50190
 H1697 H -0.03180 1.13124 0.49618
 H1698 H -0.02962 1.09300 0.51243
 H1699 H -0.01738 1.16145 0.46945
 H1700 H 0.05233 1.16141 0.44511
 H1701 H 0.04758 1.04859 0.46773
 H1702 H -0.01232 1.05664 0.51239
 H1703 H 0.05552 1.12445 0.46169
 H1704 H 0.05139 1.08816 0.46127
 C1705 C 0.78882 0.68775 0.84554
 C1706 C 0.78425 0.69632 0.86995
 C1707 C 0.78263 0.68170 0.89086
 C1708 C 0.78407 0.65841 0.88752
 C1709 C 0.78948 0.65001 0.86360
 C1710 C 0.79210 0.66450 0.84287
 C1711 C 0.78704 0.70321 0.82325
 C1712 C 0.79128 0.69648 0.79822
 C1713 C 0.78465 0.70970 0.77783
 C1714 C 0.77336 0.72971 0.78189
 C1715 C 0.77269 0.73821 0.80674
 C1716 C 0.77917 0.72504 0.82737
 C1717 C 0.77927 0.71901 0.87299
 C1718 C 0.77640 0.73300 0.85208
 H1719 H 0.77602 0.72565 0.89169
 H1720 H 0.77097 0.74998 0.85527
 H1721 H 0.77810 0.68816 0.90929
 H1722 H 0.79070 0.63204 0.86076
 H1723 H 0.78781 0.70367 0.75905
 H1724 H 0.76549 0.75438 0.81040
 H1725 H 0.79530 0.65699 0.82470
 H1726 H 0.79895 0.68074 0.79400
 C1727 C 0.29153 0.18965 0.36502
 C1728 C 0.28509 0.19850 0.38872
 C1729 C 0.28393 0.18456 0.41023
 C1730 C 0.28795 0.16152 0.40833
 C1731 C 0.29464 0.15280 0.38497
 C1732 C 0.29662 0.16670 0.36360
 C1733 C 0.29042 0.20454 0.34209
 C1734 C 0.29706 0.19775 0.31776
 C1735 C 0.29177 0.21052 0.29644
 C1736 C 0.27935 0.23008 0.29883
 C1737 C 0.27588 0.23860 0.32331
 C1738 C 0.28115 0.22596 0.34483
 C1739 C 0.27833 0.22078 0.39050
 C1740 C 0.27600 0.23409 0.36894
 H1741 H 0.27353 0.22761 0.40865
 H1742 H 0.26942 0.25074 0.37110
 H1743 H 0.27836 0.19131 0.42815
 H1744 H 0.29793 0.13506 0.38314
 H1745 H 0.29640 0.20431 0.27802
 H1746 H 0.26752 0.25433 0.32584
 H1747 H 0.30119 0.15896 0.34596
 H1748 H 0.30562 0.18228 0.31474
 C1749 C 0.72368 0.31128 0.38610
 C1750 C 0.73811 0.30762 0.40693
 C1751 C 0.74122 0.32414 0.42557
 C1752 C 0.73026 0.34461 0.42403
 C1753 C 0.71551 0.34804 0.40369
 C1754 C 0.71227 0.33164 0.38492
 C1755 C 0.72259 0.29399 0.36541
 C1756 C 0.70907 0.29582 0.34359
 C1757 C 0.71165 0.28118 0.32310
 C1758 C 0.72812 0.26483 0.32369
 C1759 C 0.73914 0.26102 0.34682
 C1760 C 0.73677 0.27551 0.36734
 C1761 C 0.75019 0.28792 0.40860
 C1762 C 0.74965 0.27226 0.38913
 H1763 H 0.76095 0.28497 0.42476
 H1764 H 0.76014 0.25777 0.39077
 H1765 H 0.75310 0.32137 0.44073
 H1766 H 0.70650 0.36349 0.40217
 H1767 H 0.70212 0.28406 0.30611
 H1768 H 0.75102 0.24774 0.34861
 H1769 H 0.70118 0.33541 0.36943
 H1770 H 0.69719 0.30900 0.34154
 C1771 C 0.20326 0.81101 0.87750
 C1772 C 0.21305 0.80295 0.90008
 C1773 C 0.21560 0.81706 0.92118
 C1774 C 0.20900 0.83948 0.92020
 C1775 C 0.19827 0.84712 0.89825
 C1776 C 0.19539 0.83311 0.87716
 C1777 C 0.20362 0.79635 0.85439
 C1778 C 0.19501 0.80280 0.83066
 C1779 C 0.19945 0.79031 0.80889
 C1780 C 0.21299 0.77149 0.81018
 C1781 C 0.21859 0.76323 0.83431
 C1782 C 0.21441 0.77561 0.85618
 C1783 C 0.22157 0.78132 0.90106
 C1784 C 0.22236 0.76798 0.87952
 H1785 H 0.22877 0.77503 0.91846
 H1786 H 0.23020 0.75184 0.88094
 H1787 H 0.22425 0.81096 0.93778
 H1788 H 0.19257 0.86420 0.89711
 H1789 H 0.19343 0.79634 0.79092
 H1790 H 0.22772 0.74788 0.83621
 H1791 H 0.18775 0.84014 0.86053
 H1792 H 0.18561 0.81787 0.82837
 C1793 C 0.29301 0.82359 0.13793
 C1794 C 0.29058 0.81210 0.11475
 C1795 C 0.28698 0.82439 0.09226
 C1796 C 0.28590 0.84819 0.09272
 C1797 C 0.29203 0.85922 0.11549
 C1798 C 0.29551 0.84716 0.13768
 C1799 C 0.29130 0.81034 0.16197
 C1800 C 0.28620 0.82070 0.18491
 C1801 C 0.27989 0.80788 0.20588
 C1802 C 0.28045 0.78419 0.20583
 C1803 C 0.28693 0.77369 0.18311
 C1804 C 0.29092 0.78656 0.16086
 C1805 C 0.29084 0.78845 0.11456
 C1806 C 0.29184 0.77598 0.13714
 H1807 H 0.28977 0.77944 0.09676
 H1808 H 0.29146 0.75776 0.13600
 H1809 H 0.28322 0.81505 0.07513
 H1810 H 0.29405 0.87736 0.11651
 H1811 H 0.27246 0.81699 0.22108
 H1812 H 0.28618 0.75547 0.18189
 H1813 H 0.29968 0.85657 0.15461
 H1814 H 0.28450 0.83869 0.18629
 C1815 C 0.76064 0.32526 0.63580
 C1816 C 0.78151 0.33432 0.62696
 C1817 C 0.78208 0.35075 0.60761
 C1818 C 0.76200 0.35957 0.59819
 C1819 C 0.74139 0.35108 0.60823
 C1820 C 0.74070 0.33413 0.62645
 C1821 C 0.76055 0.30750 0.65589
 C1822 C 0.74079 0.29563 0.66337
 C1823 C 0.74096 0.28090 0.68383
 C1824 C 0.76081 0.27751 0.69765
 C1825 C 0.78104 0.28778 0.68878
 C1826 C 0.78105 0.30254 0.66782
 C1827 C 0.80154 0.32756 0.63828
 C1828 C 0.80126 0.31251 0.65877
 H1829 H 0.81761 0.33464 0.63183
 H1830 H 0.81711 0.30852 0.66755
 H1831 H 0.79823 0.35753 0.60106
 H1832 H 0.72543 0.35671 0.60123
 H1833 H 0.72505 0.27293 0.68944
 H1834 H 0.79666 0.28488 0.69837
 H1835 H 0.72433 0.32851 0.63326
 H1836 H 0.72493 0.29767 0.65388
 C1837 C 0.22905 0.18849 0.63255
 C1838 C 0.22630 0.16480 0.63479
 C1839 C 0.23005 0.15101 0.61371
 C1840 C 0.23752 0.16039 0.59052
 C1841 C 0.24015 0.18392 0.58848
 C1842 C 0.23584 0.19778 0.60906
 C1843 C 0.22647 0.20252 0.65584
 C1844 C 0.22830 0.22618 0.65548
 C1845 C 0.22984 0.23825 0.67806
 C1846 C 0.22955 0.22712 0.70169
 C1847 C 0.22420 0.20388 0.70198
 C1848 C 0.22305 0.19147 0.67936
 C1849 C 0.22090 0.15498 0.65833
 C1850 C 0.21964 0.16800 0.68021
 H1851 H 0.21866 0.13685 0.66007
 H1852 H 0.21660 0.15951 0.69818
 H1853 H 0.22765 0.13291 0.61560
 H1854 H 0.24635 0.19174 0.57115
 H1855 H 0.23285 0.25630 0.67677
 H1856 H 0.22188 0.19501 0.71957
 H1857 H 0.23879 0.21566 0.60641
 H1858 H 0.22953 0.23565 0.63803
 C1859 C 0.71159 0.67402 0.11234
 C1860 C 0.71777 0.65123 0.11275
 C1861 C 0.72017 0.63930 0.09014
 C1862 C 0.71786 0.64982 0.06635
 C1863 C 0.71151 0.67252 0.06609
 C1864 C 0.70818 0.68433 0.08867
 C1865 C 0.71101 0.68656 0.13705
 C1866 C 0.70427 0.70902 0.13943
 C1867 C 0.70703 0.72065 0.16246
 C1868 C 0.71691 0.71030 0.18349
 C1869 C 0.72249 0.68755 0.18122
 C1870 C 0.71887 0.67555 0.15887
 C1871 C 0.72313 0.64077 0.13564
 C1872 C 0.72420 0.65282 0.15811
 H1873 H 0.72780 0.62330 0.13599
 H1874 H 0.72967 0.64429 0.17510
 H1875 H 0.72599 0.62228 0.09141
 H1876 H 0.70871 0.68129 0.04844
 H1877 H 0.70275 0.73820 0.16325
 H1878 H 0.73124 0.67923 0.19633
 H1879 H 0.70368 0.70173 0.08723
 H1880 H 0.69741 0.71799 0.12355
 C1881 C 0.21085 0.63836 0.21714
 C1882 C 0.22441 0.62115 0.22669
 C1883 C 0.21656 0.59855 0.22614
 C1884 C 0.19512 0.59270 0.21657
 C1885 C 0.18192 0.60975 0.20666
 C1886 C 0.18964 0.63224 0.20687
 C1887 C 0.21930 0.66240 0.21949
 C1888 C 0.20714 0.68082 0.21077
 C1889 C 0.21481 0.70294 0.21547
 C1890 C 0.23468 0.70740 0.22919
 C1891 C 0.24782 0.68904 0.23598
 C1892 C 0.24019 0.66678 0.23158
 C1893 C 0.24542 0.62662 0.23743
 C1894 C 0.25310 0.64895 0.23991
 H1895 H 0.25587 0.61346 0.24462
 H1896 H 0.26924 0.65232 0.24895
 H1897 H 0.22703 0.58552 0.23361
 H1898 H 0.16517 0.60582 0.19951
 H1899 H 0.20481 0.71636 0.20854
 H1900 H 0.26367 0.69190 0.24577
 H1901 H 0.17849 0.64459 0.19951
 H1902 H 0.19151 0.67856 0.20060
 C1903 C 0.72304 0.12806 0.74207
 C1904 C 0.70627 0.12150 0.72436
 C1905 C 0.69692 0.09942 0.72472
 C1906 C 0.70377 0.08350 0.74285
 C1907 C 0.72176 0.08987 0.75902
 C1908 C 0.73124 0.11169 0.75863
 C1909 C 0.73075 0.15235 0.74298
 C1910 C 0.74568 0.16089 0.76156
 C1911 C 0.75100 0.18387 0.76293
 C1912 C 0.74161 0.19913 0.74591
 C1913 C 0.72777 0.19057 0.72632
 C1914 C 0.72176 0.16749 0.72523
 C1915 C 0.69834 0.13722 0.70696
 C1916 C 0.70611 0.15966 0.70719
 H1917 H 0.68564 0.13218 0.69318
 H1918 H 0.69918 0.17122 0.69359
 H1919 H 0.68307 0.09548 0.71201
 H1920 H 0.72887 0.07800 0.77207
 H1921 H 0.76257 0.18955 0.77753
 H1922 H 0.72064 0.20198 0.71269
 H1923 H 0.74479 0.11538 0.77170
 H1924 H 0.75311 0.15025 0.77561
 C1925 C 0.77614 0.11850 0.27852
 C1926 C 0.79556 0.11345 0.26434
 C1927 C 0.80093 0.09110 0.26009
 C1928 C 0.78755 0.07341 0.27001
 C1929 C 0.76871 0.07807 0.28474
 C1930 C 0.76291 0.10046 0.28887
 C1931 C 0.77058 0.14284 0.28145
 C1932 C 0.75097 0.15010 0.29360
 C1933 C 0.74599 0.17303 0.29402
 C1934 C 0.76054 0.18925 0.28257
 C1935 C 0.78049 0.18198 0.27150
 C1936 C 0.78542 0.15927 0.27052
 C1937 C 0.80963 0.13064 0.25439
 C1938 C 0.80474 0.15308 0.25756
 H1939 H 0.82461 0.12668 0.24383
 H1940 H 0.81605 0.16580 0.24921
 H1941 H 0.81576 0.08735 0.24910
 H1942 H 0.75844 0.06442 0.29284
 H1943 H 0.73040 0.17793 0.30265
 H1944 H 0.79171 0.19380 0.26173
 H1945 H 0.74817 0.10331 0.30016
 H1946 H 0.73900 0.13830 0.30219
 C1947 C 0.27606 0.63175 0.77640
 C1948 C 0.25969 0.61419 0.78007
 C1949 C 0.26602 0.59159 0.77848
 C1950 C 0.28867 0.58671 0.77446
 C1951 C 0.30501 0.60421 0.77335
 C1952 C 0.29886 0.62649 0.77438
 C1953 C 0.26852 0.65531 0.77449
 C1954 C 0.28260 0.67264 0.76472
 C1955 C 0.27493 0.69422 0.76212
 C1956 C 0.25326 0.69974 0.77017
 C1957 C 0.23868 0.68222 0.77916
 C1958 C 0.24598 0.65988 0.78047
 C1959 C 0.23732 0.61950 0.78516
 C1960 C 0.23079 0.64193 0.78625
 H1961 H 0.22475 0.60615 0.78856
 H1962 H 0.21339 0.64519 0.79053
 H1963 H 0.25346 0.57794 0.77990
 H1964 H 0.32259 0.60057 0.77071
 H1965 H 0.28607 0.70634 0.75277
 H1966 H 0.22148 0.68571 0.78411
 H1967 H 0.31214 0.63936 0.77335
 H1968 H 0.29930 0.66965 0.75777
 C1969 C 0.29364 0.37197 0.71669
 C1970 C 0.27774 0.38788 0.70976
 C1971 C 0.28438 0.41082 0.70809
 C1972 C 0.30710 0.41790 0.71194
 C1973 C 0.32307 0.40125 0.71564
 C1974 C 0.31645 0.37870 0.71811
 C1975 C 0.28561 0.34851 0.72237
 C1976 C 0.29888 0.33364 0.73592
 C1977 C 0.29062 0.31218 0.74190
 C1978 C 0.26932 0.30429 0.73351
 C1979 C 0.25554 0.31947 0.72078
 C1980 C 0.26327 0.34181 0.71612
 C1981 C 0.25547 0.38062 0.70459
 C1982 C 0.24863 0.35785 0.70674
 H1983 H 0.24326 0.39263 0.69858
 H1984 H 0.23135 0.35297 0.70225
 H1985 H 0.27188 0.42301 0.70349
 H1986 H 0.34070 0.40553 0.71871
 H1987 H 0.30098 0.30202 0.75384
 H1988 H 0.23852 0.31430 0.71550
 H1989 H 0.32939 0.36677 0.72153
 H1990 H 0.31528 0.33868 0.74314
 C1991 C 0.78695 0.85643 0.20676
 C1992 C 0.77176 0.87363 0.20191
 C1993 C 0.77927 0.89641 0.20355
 C1994 C 0.80194 0.90204 0.20931
 C1995 C 0.81710 0.88469 0.21212
 C1996 C 0.80983 0.86226 0.21060
 C1997 C 0.77803 0.83266 0.20831
 C1998 C 0.79089 0.81564 0.21855
 C1999 C 0.78176 0.79411 0.22180
 C2000 C 0.75972 0.78806 0.21393
 C2001 C 0.74653 0.80517 0.20376
 C2002 C 0.75535 0.82759 0.20176
 C2003 C 0.74931 0.86781 0.19569
 C2004 C 0.74145 0.84524 0.19494
 H2005 H 0.73765 0.88088 0.19140
 H2006 H 0.72398 0.84165 0.19011
 H2007 H 0.76751 0.90969 0.20060
 H2008 H 0.83464 0.88840 0.21649
 H2009 H 0.79192 0.78275 0.23234
 H2010 H 0.72910 0.80138 0.19887
 H2011 H 0.82240 0.84977 0.21277
 H2012 H 0.80764 0.81887 0.22583
 C2013 C 0.69829 0.86573 0.77292
 C2014 C 0.71387 0.88390 0.77651
 C2015 C 0.70615 0.90595 0.77899
 C2016 C 0.68286 0.91012 0.77864
 C2017 C 0.66766 0.89135 0.77690
 C2018 C 0.67520 0.86965 0.77430
 C2019 C 0.70693 0.84297 0.76753
 C2020 C 0.69275 0.82523 0.75904
 C2021 C 0.70135 0.80460 0.75301
 C2022 C 0.72435 0.80046 0.75580
 C2023 C 0.73884 0.81833 0.76390
 C2024 C 0.73032 0.83971 0.76910
 C2025 C 0.73697 0.87984 0.77761
 C2026 C 0.74497 0.85811 0.77460
 H2027 H 0.74904 0.89364 0.78088
 H2028 H 0.76295 0.85585 0.77563
 H2029 H 0.71841 0.91965 0.78169
 H2030 H 0.64967 0.89316 0.77588
 H2031 H 0.68983 0.79249 0.74450
 H2032 H 0.75677 0.81593 0.76520
 H2033 H 0.66256 0.85621 0.77308
 H2034 H 0.67505 0.82720 0.75562
 C2035 C 0.22146 0.37155 0.25426
 C2036 C 0.22228 0.38245 0.23035
 C2037 C 0.21362 0.40393 0.22747
 C2038 C 0.20421 0.41499 0.24810
 C2039 C 0.20464 0.40487 0.27212
 C2040 C 0.21314 0.38337 0.27522
 C2041 C 0.22889 0.34770 0.25589
 C2042 C 0.22677 0.33446 0.27805
 C2043 C 0.23234 0.31178 0.27794
 C2044 C 0.24024 0.30168 0.25581
 C2045 C 0.24384 0.31526 0.23420
 C2046 C 0.23754 0.33774 0.23379
 C2047 C 0.23125 0.37168 0.20928
 C2048 C 0.23899 0.34992 0.21105
 H2049 H 0.23207 0.38014 0.19105
 H2050 H 0.24553 0.34222 0.19411
 H2051 H 0.21367 0.41189 0.20893
 H2052 H 0.19749 0.41318 0.28831
 H2053 H 0.23030 0.30221 0.29528
 H2054 H 0.25038 0.30801 0.21700
 H2055 H 0.21265 0.37616 0.29401
 H2056 H 0.22035 0.34113 0.29549
 C2057 C 0.12798 0.24341 0.77572
 C2058 C 0.11823 0.26340 0.78434
 C2059 C 0.09654 0.26265 0.79480
 C2060 C 0.08445 0.24210 0.79781
 C2061 C 0.09404 0.22226 0.78926
 C2062 C 0.11547 0.22288 0.77818
 C2063 C 0.15174 0.24492 0.76594
 C2064 C 0.16287 0.22648 0.75566
 C2065 C 0.18572 0.22847 0.74911
 C2066 C 0.19824 0.24861 0.75340
 C2067 C 0.18655 0.26753 0.76139
 C2068 C 0.16366 0.26588 0.76754
 C2069 C 0.13054 0.28393 0.78367
 C2070 C 0.15288 0.28508 0.77583
 H2071 H 0.12306 0.29923 0.79022
 H2072 H 0.16196 0.30123 0.77660
 H2073 H 0.08951 0.27800 0.80188
 H2074 H 0.08500 0.20619 0.79135
 H2075 H 0.19368 0.21389 0.74160
 H2076 H 0.19525 0.28374 0.76357
 H2077 H 0.12222 0.20709 0.77239
 H2078 H 0.15428 0.21036 0.75280
 C2079 C 0.62201 0.73894 0.27543
 C2080 C 0.61134 0.75965 0.27327
 C2081 C 0.59256 0.76386 0.28869
 C2082 C 0.58352 0.74700 0.30518
 C2083 C 0.59262 0.72547 0.30419
 C2084 C 0.61172 0.72156 0.28989
 C2085 C 0.64406 0.73638 0.26254
 C2086 C 0.65886 0.71991 0.27020
 C2087 C 0.68043 0.71961 0.26028
 C2088 C 0.68753 0.73424 0.24051
 C2089 C 0.67262 0.75088 0.23267
 C2090 C 0.65151 0.75280 0.24468
 C2091 C 0.61966 0.77580 0.25577
 C2092 C 0.63876 0.77199 0.24095
 H2093 H 0.61121 0.79152 0.25338
 H2094 H 0.64445 0.78492 0.22764
 H2095 H 0.58557 0.78041 0.28822
 H2096 H 0.58517 0.71142 0.31473
 H2097 H 0.69185 0.70850 0.26944
 H2098 H 0.67820 0.76356 0.21901
 H2099 H 0.61826 0.70483 0.29027
 H2100 H 0.65471 0.70833 0.28548
 C2101 C 0.62781 0.25054 0.23624
 C2102 C 0.62168 0.27126 0.22530
 C2103 C 0.60195 0.27236 0.21062
 C2104 C 0.58830 0.25295 0.20625
 C2105 C 0.59401 0.23268 0.21798
 C2106 C 0.61340 0.23145 0.23276
 C2107 C 0.64997 0.24963 0.24987
 C2108 C 0.65807 0.22974 0.26056
 C2109 C 0.68001 0.22914 0.27002
 C2110 C 0.69462 0.24835 0.26927
 C2111 C 0.68566 0.26872 0.26108
 C2112 C 0.66383 0.26944 0.25098
 C2113 C 0.63568 0.29056 0.22831
 C2114 C 0.65628 0.28968 0.24088
 H2115 H 0.63095 0.30649 0.22020
 H2116 H 0.66679 0.30495 0.24198
 H2117 H 0.59782 0.28811 0.20161
 H2118 H 0.58352 0.21755 0.21545
 H2119 H 0.68587 0.21312 0.27667
 H2120 H 0.69568 0.28407 0.26158
 H2121 H 0.61702 0.21526 0.24079
 H2122 H 0.64810 0.21420 0.26092
 C2123 C 0.11847 0.75462 0.71852
 C2124 C 0.11105 0.77541 0.70903
 C2125 C 0.09137 0.77603 0.69419
 C2126 C 0.07900 0.75610 0.68831
 C2127 C 0.08599 0.73568 0.69862
 C2128 C 0.10536 0.73490 0.71349
 C2129 C 0.14051 0.75442 0.73248
 C2130 C 0.14985 0.73455 0.74167
 C2131 C 0.17157 0.73490 0.75174
 C2132 C 0.18478 0.75505 0.75318
 C2133 C 0.17456 0.77517 0.74639
 C2134 C 0.15292 0.77499 0.73556
 C2135 C 0.12369 0.79534 0.71374
 C2136 C 0.14412 0.79515 0.72677
 H2137 H 0.11796 0.81131 0.70672
 H2138 H 0.15351 0.81097 0.72928
 H2139 H 0.08625 0.79193 0.68634
 H2140 H 0.07650 0.72011 0.69498
 H2141 H 0.17837 0.71897 0.75734
 H2142 H 0.18346 0.79107 0.74860
 H2143 H 0.10993 0.71861 0.72047
 H2144 H 0.14104 0.71840 0.74044
 C2145 C 0.86167 0.75041 0.69248
 C2146 C 0.86406 0.75177 0.66585
 C2147 C 0.88544 0.75120 0.65461
 C2148 C 0.90515 0.74943 0.66933
 C2149 C 0.90255 0.74839 0.69590
 C2150 C 0.88125 0.74876 0.70726
 C2151 C 0.83835 0.75093 0.70358
 C2152 C 0.83384 0.74942 0.72981
 C2153 C 0.81171 0.74970 0.73898
 C2154 C 0.79342 0.75121 0.72231
 C2155 C 0.79799 0.75359 0.69624
 C2156 C 0.82000 0.75312 0.68683
 C2157 C 0.84512 0.75393 0.65041
 C2158 C 0.82360 0.75466 0.66067
 H2159 H 0.84693 0.75509 0.63000
 H2160 H 0.80952 0.75634 0.64785
 H2161 H 0.88651 0.75321 0.63426
 H2162 H 0.91683 0.74640 0.70826
 H2163 H 0.80910 0.74891 0.75922
 H2164 H 0.78432 0.75538 0.68291
 H2165 H 0.88049 0.74764 0.72764
 H2166 H 0.84715 0.74802 0.74354
 C2167 C 0.37010 0.24255 0.20878
 C2168 C 0.37294 0.24135 0.18220
 C2169 C 0.39456 0.24285 0.17153
 C2170 C 0.41382 0.24515 0.18685
 C2171 C 0.41101 0.24617 0.21325
 C2172 C 0.38948 0.24490 0.22410
 C2173 C 0.34653 0.24150 0.21925
 C2174 C 0.34160 0.24369 0.24524
 C2175 C 0.31929 0.24373 0.25376
 C2176 C 0.30121 0.24106 0.23678
 C2177 C 0.30613 0.23878 0.21085
 C2178 C 0.32838 0.23900 0.20205
 C2179 C 0.35422 0.23870 0.16629
 C2180 C 0.33245 0.23743 0.17600
 H2181 H 0.35642 0.23766 0.14594
 H2182 H 0.31853 0.23552 0.16282
 H2183 H 0.39633 0.24250 0.15110
 H2184 H 0.42550 0.24762 0.22561
 H2185 H 0.31633 0.24670 0.27366
 H2186 H 0.29259 0.23754 0.19713
 H2187 H 0.38840 0.24568 0.24448
 H2188 H 0.35469 0.24604 0.25921
 C2189 C 0.37002 0.75690 0.29627
 C2190 C 0.37312 0.76653 0.32059
 C2191 C 0.39424 0.76656 0.33232
 C2192 C 0.41249 0.75630 0.32083
 C2193 C 0.40933 0.74643 0.29685
 C2194 C 0.38844 0.74682 0.28464
 C2195 C 0.34705 0.75740 0.28444
 C2196 C 0.34221 0.74982 0.25961
 C2197 C 0.32029 0.75043 0.24983
 C2198 C 0.30266 0.75832 0.26466
 C2199 C 0.30756 0.76595 0.28933
 C2200 C 0.32941 0.76607 0.29897
 C2201 C 0.35505 0.77568 0.33343
 C2202 C 0.33358 0.77510 0.32304
 H2203 H 0.35742 0.78297 0.35208
 H2204 H 0.32004 0.78199 0.33399
 H2205 H 0.39640 0.77465 0.35058
 H2206 H 0.42292 0.73801 0.28762
 H2207 H 0.31714 0.74452 0.23072
 H2208 H 0.29441 0.77245 0.30115
 H2209 H 0.38693 0.73879 0.26639
 H2210 H 0.35513 0.74353 0.24746
 C2211 C 0.87682 0.26207 0.76263
 C2212 C 0.88629 0.24080 0.76652
 C2213 C 0.90653 0.23914 0.77995
 C2214 C 0.91773 0.25842 0.78977
 C2215 C 0.90903 0.27961 0.78454
 C2216 C 0.88888 0.28146 0.77115
 C2217 C 0.85367 0.26274 0.75127
 C2218 C 0.84164 0.28266 0.74894
 C2219 C 0.81865 0.28170 0.74311
 C2220 C 0.80711 0.26096 0.73914
 C2221 C 0.82004 0.24159 0.73725
 C2222 C 0.84274 0.24213 0.74442
 C2223 C 0.87504 0.22116 0.75794
 C2224 C 0.85383 0.22184 0.74689
 H2225 H 0.88242 0.20490 0.76060
 H2226 H 0.84546 0.20605 0.74150
 H2227 H 0.91292 0.22264 0.78391
 H2228 H 0.91766 0.29485 0.79116
 H2229 H 0.80995 0.29724 0.74255
 H2230 H 0.81190 0.22541 0.73305
 H2231 H 0.88281 0.29815 0.76816
 H2232 H 0.84932 0.29900 0.75289
 C2233 C 0.56763 0.98213 0.61902
 C2234 C 0.58901 0.99276 0.62356
 C2235 C 0.59767 0.99408 0.64811
 C2236 C 0.58547 0.98507 0.66856
 C2237 C 0.56474 0.97373 0.66433
 C2238 C 0.55581 0.97231 0.63976
 C2239 C 0.55832 0.98290 0.59255
 C2240 C 0.53687 0.97387 0.58560
 C2241 C 0.52827 0.97733 0.56112
 C2242 C 0.54089 0.98982 0.54308
 C2243 C 0.56261 0.99786 0.54982
 C2244 C 0.57138 0.99441 0.57388
 C2245 C 0.60147 1.00268 0.60378
 C2246 C 0.59282 1.00352 0.57946
 H2247 H 0.61792 1.01053 0.60730
 H2248 H 0.60285 1.01205 0.56491
 H2249 H 0.61387 1.00255 0.65149
 H2250 H 0.55528 0.96648 0.68010
 H2251 H 0.51139 0.97108 0.55672
 H2252 H 0.57266 1.00797 0.53664
 H2253 H 0.53957 0.96386 0.63740
 H2254 H 0.52627 0.96473 0.59901
 C2255 C 0.05426 0.45960 1.10593
 C2256 C 0.07760 0.45694 1.10298
 C2257 C 0.09227 0.46127 1.12340
 C2258 C 0.08434 0.46908 1.14705
 C2259 C 0.06070 0.47009 1.14992
 C2260 C 0.04608 0.46562 1.12981
 C2261 C 0.03956 0.45792 1.08296
 C2262 C 0.01631 0.46147 1.08373
 C2263 C 0.00454 0.46538 1.06145
 C2264 C 0.01557 0.46550 1.03786
 C2265 C 0.03734 0.45715 1.03682
 C2266 C 0.04976 0.45440 1.05917
 C2267 C 0.08632 0.45107 1.07930
 C2268 C 0.07270 0.44995 1.05779
 H2269 H 0.10416 0.44850 1.07709
 H2270 H 0.08048 0.44677 1.03963
 H2271 H 0.10990 0.45828 1.12044
 H2272 H 0.05295 0.47606 1.16699
 H2273 H -0.01285 0.47000 1.06304
 H2274 H 0.04538 0.45457 1.01879
 H2275 H 0.02845 0.46805 1.13316
 H2276 H 0.00719 0.46271 1.10131
 C2277 C -0.07115 0.03772 1.10774
 C2278 C -0.09424 0.03224 1.10407
 C2279 C -0.10855 0.02847 1.12501
 C2280 C -0.10045 0.03019 1.15019
 C2281 C -0.07784 0.03804 1.15328
 C2282 C -0.06347 0.04152 1.13256
 C2283 C -0.05578 0.03794 1.08511
 C2284 C -0.03214 0.03997 1.08700
 C2285 C -0.01852 0.03561 1.06607
 C2286 C -0.02805 0.02934 1.04259
 C2287 C -0.05148 0.03060 1.03998
 C2288 C -0.06536 0.03382 1.06102
 C2289 C -0.10281 0.02966 1.07947
 C2290 C -0.08872 0.03082 1.05837
 H2291 H -0.12061 0.02601 1.07651
 H2292 H -0.09610 0.02789 1.03983
 H2293 H -0.12560 0.02270 1.12105
 H2294 H -0.07080 0.04174 1.17171
 H2295 H -0.00050 0.03538 1.06895
 H2296 H -0.05944 0.02712 1.02223
 H2297 H -0.04629 0.04694 1.13642
 H2298 H -0.02383 0.04334 1.10483
 C2299 C 0.43219 0.55367 0.61470
 C2300 C 0.40874 0.55544 0.61095
 C2301 C 0.39404 0.55446 0.63176
 C2302 C 0.40220 0.55055 0.65630
 C2303 C 0.42553 0.55017 0.66010
 C2304 C 0.44037 0.55190 0.63965
 C2305 C 0.44690 0.55116 0.59192
 C2306 C 0.47025 0.54840 0.59360
 C2307 C 0.48232 0.54130 0.57263
 C2308 C 0.47151 0.53685 0.54937
 C2309 C 0.44901 0.54293 0.54678
 C2310 C 0.43658 0.54964 0.56785
 C2311 C 0.39995 0.55636 0.58636
 C2312 C 0.41356 0.55331 0.56523
 H2313 H 0.38205 0.55808 0.58346
 H2314 H 0.40573 0.55271 0.54669
 H2315 H 0.37606 0.55523 0.62864
 H2316 H 0.43237 0.54704 0.67874
 H2317 H 0.49992 0.53782 0.57527
 H2318 H 0.44055 0.54141 0.52891
 H2319 H 0.45802 0.55044 0.64370
 H2320 H 0.47930 0.55055 0.61117
 C2321 C 0.42302 0.47554 -0.11864
 C2322 C 0.43362 0.46914 -0.14138
 C2323 C 0.42296 0.47278 -0.16486
 C2324 C 0.40214 0.48321 -0.16571
 C2325 C 0.39144 0.48873 -0.14315
 C2326 C 0.40152 0.48474 -0.11993
 C2327 C 0.43562 0.47349 -0.09425
 C2328 C 0.42709 0.48148 -0.07140
 C2329 C 0.44034 0.48251 -0.04992
 C2330 C 0.46234 0.47446 -0.04960
 C2331 C 0.47064 0.46511 -0.07211
 C2332 C 0.45757 0.46500 -0.09455
 C2333 C 0.45500 0.45989 -0.14045
 C2334 C 0.46668 0.45780 -0.11754
 H2335 H 0.46309 0.45473 -0.15778
 H2336 H 0.48340 0.45116 -0.11798
 H2337 H 0.43116 0.46837 -0.18241
 H2338 H 0.37520 0.49643 -0.14356
 H2339 H 0.43337 0.49109 -0.03389
 H2340 H 0.48775 0.45944 -0.07269
 H2341 H 0.39226 0.48946 -0.10337
 H2342 H 0.41066 0.48837 -0.06983
 C2343 C -0.05718 0.98062 0.36658
 C2344 C -0.07623 0.96558 0.36694
 C2345 C -0.09201 0.96590 0.34702
 C2346 C -0.08910 0.98116 0.32674
 C2347 C -0.06956 0.99512 0.32592
 C2348 C -0.05383 0.99489 0.34545
 C2349 C -0.04181 0.98125 0.38912
 C2350 C -0.02381 0.99713 0.39154
 C2351 C -0.01151 0.99879 0.41395
 C2352 C -0.01645 0.98446 0.43466
 C2353 C -0.03315 0.96730 0.43152
 C2354 C -0.04638 0.96614 0.40940
 C2355 C -0.07961 0.95074 0.38743
 C2356 C -0.06488 0.95085 0.40807
 H2357 H -0.09404 0.93905 0.38769
 H2358 H -0.06849 0.93932 0.42363
 H2359 H -0.10696 0.95491 0.34781
 H2360 H -0.06649 1.00653 0.31013
 H2361 H 0.00141 1.01205 0.41512
 H2362 H -0.03717 0.95593 0.44695
 H2363 H -0.03933 1.00622 0.34367
 H2364 H -0.01946 1.00913 0.37681
 C2365 C 0.07386 0.52442 0.37570
 C2366 C 0.09537 0.51491 0.37524
 C2367 C 0.10679 0.51242 0.35229
 C2368 C 0.09692 0.51845 0.32927
 C2369 C 0.07585 0.52839 0.32965
 C2370 C 0.06445 0.53141 0.35257
 C2371 C 0.06164 0.52525 0.40061
 C2372 C 0.04027 0.53454 0.40365
 C2373 C 0.02877 0.53269 0.42686
 C2374 C 0.03822 0.52141 0.44748
 C2375 C 0.05991 0.51308 0.44466
 C2376 C 0.07174 0.51532 0.42191
 C2377 C 0.10504 0.50696 0.39753
 C2378 C 0.09335 0.50687 0.42030
 H2379 H 0.12157 0.49986 0.39718
 H2380 H 0.10121 0.49970 0.43686
 H2381 H 0.12327 0.50518 0.35229
 H2382 H 0.06782 0.53315 0.31212
 H2383 H 0.01207 0.53926 0.42826
 H2384 H 0.06754 0.50388 0.45996
 H2385 H 0.04805 0.53856 0.35173
 H2386 H 0.03201 0.54284 0.38821
 C2387 C 0.56921 0.04083 -0.09604
 C2388 C 0.59249 0.03659 -0.09520
 C2389 C 0.60499 0.03585 -0.11760
 C2390 C 0.59434 0.03704 -0.14123
 C2391 C 0.57153 0.04234 -0.14215
 C2392 C 0.55913 0.04447 -0.11980
 C2393 C 0.55588 0.03822 -0.07203
 C2394 C 0.53286 0.04287 -0.07014
 C2395 C 0.52048 0.03641 -0.04852
 C2396 C 0.53065 0.02469 -0.02863
 C2397 C 0.55389 0.02129 -0.03014
 C2398 C 0.56663 0.02894 -0.05082
 C2399 C 0.60272 0.03071 -0.07237
 C2400 C 0.58990 0.02620 -0.05081
 H2401 H 0.62058 0.02770 -0.07169
 H2402 H 0.59823 0.01992 -0.03408
 H2403 H 0.62274 0.03232 -0.11668
 H2404 H 0.56287 0.04335 -0.16014
 H2405 H 0.50262 0.03932 -0.04820
 H2406 H 0.56217 0.01131 -0.01604
 H2407 H 0.54138 0.04735 -0.12154
 H2408 H 0.52408 0.05091 -0.08540
 C2409 C 0.61243 0.53178 -0.03514
 C2410 C 0.61931 0.55249 -0.02381
 C2411 C 0.64109 0.56144 -0.02756
 C2412 C 0.65665 0.55010 -0.04221
 C2413 C 0.65018 0.52935 -0.05311
 C2414 C 0.62824 0.52032 -0.04979
 C2415 C 0.58878 0.52294 -0.03042
 C2416 C 0.57954 0.50298 -0.04131
 C2417 C 0.55735 0.49558 -0.03586
 C2418 C 0.54394 0.50781 -0.01930
 C2419 C 0.55326 0.52762 -0.00853
 C2420 C 0.57508 0.53537 -0.01415
 C2421 C 0.60463 0.56412 -0.00836
 C2422 C 0.58305 0.55562 -0.00342
 H2423 H 0.60999 0.57993 0.00032
 H2424 H 0.57236 0.56514 0.00891
 H2425 H 0.64618 0.57714 -0.01840
 H2426 H 0.66206 0.52023 -0.06431
 H2427 H 0.55080 0.48020 -0.04453
 H2428 H 0.54356 0.53725 0.00463
 H2429 H 0.62403 0.50433 -0.05855
 H2430 H 0.58914 0.49294 -0.05410
 C2431 C 0.13015 1.03076 0.48732
 C2432 C 0.13620 1.04892 0.50360
 C2433 C 0.15818 1.05808 0.50355
 C2434 C 0.17461 1.04931 0.48786
 C2435 C 0.16910 1.03073 0.47251
 C2436 C 0.14703 1.02158 0.47208
 C2437 C 0.10598 1.02243 0.48700
 C2438 C 0.09747 1.00565 0.47033
 C2439 C 0.07449 0.99935 0.47024
 C2440 C 0.05946 1.00954 0.48683
 C2441 C 0.06811 1.02583 0.50374
 C2442 C 0.09083 1.03253 0.50376
 C2443 C 0.12031 1.05801 0.51977
 C2444 C 0.09815 1.04983 0.52004
 H2445 H 0.12507 1.07174 0.53238
 H2446 H 0.08644 1.05750 0.53286
 H2447 H 0.16261 1.07222 0.51577
 H2448 H 0.18175 1.02368 0.46040
 H2449 H 0.06853 0.98662 0.45698
 H2450 H 0.05698 1.03446 0.51616
 H2451 H 0.14350 1.00749 0.45969
 H2452 H 0.10821 0.99748 0.45698
 C2453 C 0.11757 -0.03489 1.03755
 C2454 C 0.12108 -0.05830 1.03791
 C2455 C 0.14290 -0.06633 1.03708
 C2456 C 0.16191 -0.05158 1.03453
 C2457 C 0.15829 -0.02822 1.03427
 C2458 C 0.13652 -0.02000 1.03602
 C2459 C 0.09374 -0.02723 1.03672
 C2460 C 0.08793 -0.00443 1.03728
 C2461 C 0.06559 0.00164 1.03332
 C2462 C 0.04854 -0.01482 1.02819
 C2463 C 0.05435 -0.03754 1.02901
 C2464 C 0.07631 -0.04381 1.03395
 C2465 C 0.10278 -0.07381 1.03742
 C2466 C 0.08092 -0.06673 1.03490
 H2467 H 0.10547 -0.09176 1.03775
 H2468 H 0.06741 -0.07942 1.03334
 H2469 H 0.14460 -0.08438 1.03609
 H2470 H 0.17225 -0.01605 1.03310
 H2471 H 0.06200 0.01937 1.03276
 H2472 H 0.04263 -0.05070 1.02337
 H2473 H 0.13482 -0.00198 1.03537
 H2474 H 0.10047 0.00892 1.04016
 C2475 C 0.61341 0.46916 0.52888
 C2476 C 0.61727 0.44703 0.52067
 C2477 C 0.63914 0.44035 0.51593
 C2478 C 0.65804 0.45497 0.52000
 C2479 C 0.65402 0.47697 0.52854
 C2480 C 0.63212 0.48395 0.53287
 C2481 C 0.58949 0.47598 0.53180
 C2482 C 0.58346 0.49808 0.53773
 C2483 C 0.56097 0.50419 0.53648
 C2484 C 0.54393 0.48839 0.52947
 C2485 C 0.54976 0.46591 0.52603
 C2486 C 0.57215 0.45974 0.52660
 C2487 C 0.59929 0.43159 0.51676
 C2488 C 0.57720 0.43775 0.51987
 H2489 H 0.60231 0.41451 0.51080
 H2490 H 0.56384 0.42532 0.51601
 H2491 H 0.64098 0.42382 0.50787
 H2492 H 0.66770 0.48883 0.53281
 H2493 H 0.55722 0.52167 0.53952
 H2494 H 0.53745 0.45351 0.51947
 H2495 H 0.63021 0.50094 0.53947
 H2496 H 0.59593 0.51114 0.54213
 C2497 C -0.11342 0.47626 0.48980
 C2498 C -0.12731 0.48773 0.47272
 C2499 C -0.15074 0.48318 0.47295
 C2500 C -0.16034 0.46837 0.49109
 C2501 C -0.14661 0.45848 0.50918
 C2502 C -0.12343 0.46230 0.50858
 C2503 C -0.08857 0.47999 0.48783
 C2504 C -0.07365 0.46640 0.50083
 C2505 C -0.05073 0.47131 0.50012
 C2506 C -0.04172 0.49004 0.48659
 C2507 C -0.05646 0.50262 0.47174
 C2508 C -0.07981 0.49737 0.47190
 C2509 C -0.11766 0.50385 0.45607
 C2510 C -0.09448 0.50912 0.45628
 H2511 H -0.12825 0.51298 0.44321
 H2512 H -0.08791 0.52222 0.44368
 H2513 H -0.16148 0.49116 0.45925
 H2514 H -0.15383 0.44715 0.52339
 H2515 H -0.04025 0.46086 0.51157
 H2516 H -0.04992 0.51670 0.46050
 H2517 H -0.11369 0.45429 0.52306
 H2518 H -0.07934 0.45195 0.51185
 C2519 C 0.38393 -0.04361 -0.02239
 C2520 C 0.36793 -0.02675 -0.02520
 C2521 C 0.34481 -0.03280 -0.02565
 C2522 C 0.33756 -0.05556 -0.02415
 C2523 C 0.35365 -0.07221 -0.02331
 C2524 C 0.37651 -0.06638 -0.02256
 C2525 C 0.40808 -0.03653 -0.01868
 C2526 C 0.42419 -0.05170 -0.01073
 C2527 C 0.44602 -0.04423 -0.00517
 C2528 C 0.45301 -0.02151 -0.00833
 C2529 C 0.43699 -0.00622 -0.01666
 C2530 C 0.41447 -0.01344 -0.02096
 C2531 C 0.37520 -0.00408 -0.02726
 C2532 C 0.39804 0.00236 -0.02583
 H2533 H 0.36306 0.00888 -0.02993
 H2534 H 0.40278 0.02011 -0.02739
 H2535 H 0.33245 -0.01986 -0.02686
 H2536 H 0.34852 -0.08988 -0.02220
 H2537 H 0.45674 -0.05632 0.00339
 H2538 H 0.44158 0.01155 -0.01822
 H2539 H 0.38805 -0.07996 -0.02181
 H2540 H 0.41996 -0.06923 -0.00708
 C2541 C 0.39859 1.03946 0.50185
 C2542 C 0.39027 1.04630 0.52561
 C2543 C 0.36809 1.05352 0.52771
 C2544 C 0.35422 1.05477 0.50622
 C2545 C 0.36280 1.04834 0.48265
 C2546 C 0.38456 1.04071 0.48046
 C2547 C 0.42237 1.03220 0.50021
 C2548 C 0.43161 1.02372 0.47782
 C2549 C 0.45423 1.01869 0.47664
 C2550 C 0.46853 1.02243 0.49750
 C2551 C 0.45892 1.02878 0.52067
 C2552 C 0.43605 1.03388 0.52208
 C2553 C 0.40435 1.04655 0.54691
 C2554 C 0.42685 1.04080 0.54510
 H2555 H 0.39805 1.05184 0.56513
 H2556 H 0.43723 1.04187 0.56196
 H2557 H 0.36175 1.05845 0.54605
 H2558 H 0.35291 1.04983 0.46555
 H2559 H 0.46054 1.01214 0.45901
 H2560 H 0.46936 1.03059 0.53741
 H2561 H 0.39024 1.03653 0.46172
 H2562 H 0.42170 1.02080 0.46097
 C2563 C -0.12614 0.52429 1.00026
 C2564 C -0.14035 0.51704 0.98018
 C2565 C -0.16207 0.52538 0.97799
 C2566 C -0.16953 0.54199 0.99467
 C2567 C -0.15515 0.54928 1.01435
 C2568 C -0.13389 0.54048 1.01725
 C2569 C -0.10288 0.51557 1.00153
 C2570 C -0.08809 0.52050 1.02171
 C2571 C -0.06579 0.51417 1.02069
 C2572 C -0.05749 0.50300 0.99947
 C2573 C -0.07282 0.49583 0.98057
 C2574 C -0.09536 0.50208 0.98144
 C2575 C -0.13241 0.50237 0.96175
 C2576 C -0.11024 0.49542 0.96207
 H2577 H -0.14322 0.49687 0.94626
 H2578 H -0.10462 0.48483 0.94682
 H2579 H -0.17291 0.51929 0.96282
 H2580 H -0.15988 0.56252 1.02711
 H2581 H -0.05504 0.51844 1.03650
 H2582 H -0.06705 0.48641 0.96443
 H2583 H -0.12345 0.54728 1.03229
 H2584 H -0.09335 0.52938 1.03836
 C2585 C 0.01507 0.62698 0.52611
 C2586 C 0.02653 0.63213 0.54904
 C2587 C 0.02321 0.65255 0.56141
 C2588 C 0.00849 0.66818 0.55152
 C2589 C -0.00217 0.66366 0.52829
 C2590 C 0.00099 0.64326 0.51572
 C2591 C 0.01763 0.60398 0.51483
 C2592 C 0.00620 0.59637 0.49282
 C2593 C 0.00701 0.57379 0.48516
 C2594 C 0.01931 0.55829 0.49917
 C2595 C 0.03193 0.56636 0.52002
 C2596 C 0.03120 0.58873 0.52787
 C2597 C 0.04075 0.61663 0.56002
 C2598 C 0.04302 0.59538 0.54968
 H2599 H 0.04974 0.62072 0.57737
 H2600 H 0.05364 0.58369 0.55941
 H2601 H 0.03185 0.65619 0.57911
 H2602 H -0.01351 0.67563 0.52025
 H2603 H -0.00300 0.56823 0.46907
 H2604 H 0.04132 0.55485 0.53151
 H2605 H -0.00804 0.64035 0.49824
 H2606 H -0.00414 0.60735 0.48188
 C2607 C 0.50863 0.11675 0.05397
 C2608 C 0.51819 0.12025 0.07827
 C2609 C 0.51912 0.14177 0.08896
 C2610 C 0.50986 0.16007 0.07639
 C2611 C 0.50064 0.15675 0.05214
 C2612 C 0.50009 0.13539 0.04098
 C2613 C 0.50740 0.09319 0.04369
 C2614 C 0.49912 0.08770 0.01933
 C2615 C 0.49796 0.06528 0.01106
 C2616 C 0.50478 0.04783 0.02697
 C2617 C 0.51302 0.05331 0.05121
 C2618 C 0.51484 0.07562 0.05937
 C2619 C 0.52617 0.10217 0.09225
 C2620 C 0.52426 0.08029 0.08315
 H2621 H 0.53351 0.10490 0.11084
 H2622 H 0.53026 0.06679 0.09494
 H2623 H 0.52676 0.14418 0.10744
 H2624 H 0.49321 0.17055 0.04208
 H2625 H 0.49163 0.06166 -0.00777
 H2626 H 0.51872 0.04022 0.06376
 H2627 H 0.49242 0.13370 0.02253
 H2628 H 0.49361 0.10045 0.00637
 C2629 C -0.00114 0.11506 0.94695
 C2630 C -0.01390 0.13197 0.95828
 C2631 C -0.01580 0.15303 0.94611
 C2632 C -0.00561 0.15719 0.92240
 C2633 C 0.00681 0.14025 0.91126
 C2634 C 0.00905 0.11955 0.92325
 C2635 C 0.00054 0.09287 0.96033
 C2636 C 0.01356 0.07555 0.95090
 C2637 C 0.01374 0.05477 0.96299
 C2638 C 0.00107 0.05034 0.98513
 C2639 C -0.01115 0.06797 0.99550
 C2640 C -0.01152 0.08915 0.98321
 C2641 C -0.02496 0.12754 0.98137
 C2642 C -0.02399 0.10654 0.99340
 H2643 H -0.03482 0.14040 0.99009
 H2644 H -0.03317 0.10389 1.01098
 H2645 H -0.02560 0.16597 0.95478
 H2646 H 0.01508 0.14311 0.89317
 H2647 H 0.02364 0.04193 0.95434
 H2648 H -0.02091 0.06515 1.01257
 H2649 H 0.01867 0.10729 0.91342
 H2650 H 0.02364 0.07749 0.93400
 C2651 C 0.50152 0.62267 0.45693
 C2652 C 0.48941 0.63977 0.46885
 C2653 C 0.48940 0.66161 0.45821
 C2654 C 0.50130 0.66660 0.43571
 C2655 C 0.51387 0.64975 0.42457
 C2656 C 0.51406 0.62818 0.43497
 C2657 C 0.50045 0.59941 0.46816
 C2658 C 0.51083 0.58116 0.45674
 C2659 C 0.50925 0.55978 0.46756
 C2660 C 0.49736 0.55564 0.49029
 C2661 C 0.48688 0.57384 0.50184
 C2662 C 0.48812 0.59554 0.49079
 C2663 C 0.47733 0.63486 0.49117
 C2664 C 0.47685 0.61330 0.50199
 H2665 H 0.46810 0.64790 0.50044
 H2666 H 0.46727 0.61043 0.51925
 H2667 H 0.47970 0.67454 0.46705
 H2668 H 0.52368 0.65329 0.40762
 H2669 H 0.51737 0.54636 0.45768
 H2670 H 0.47744 0.57129 0.51911
 H2671 H 0.52415 0.61613 0.42541
 H2672 H 0.52006 0.58284 0.43922
 C2673 C 0.52405 0.88856 0.45944
 C2674 C 0.50574 0.87456 0.46783
 C2675 C 0.50229 0.85286 0.45751
 C2676 C 0.51735 0.84461 0.43955
 C2677 C 0.53628 0.85799 0.43262
 C2678 C 0.53961 0.87968 0.44235
 C2679 C 0.52579 0.91240 0.46875
 C2680 C 0.54098 0.92856 0.45827
 C2681 C 0.54071 0.95099 0.46579
 C2682 C 0.52601 0.95806 0.48486
 C2683 C 0.51111 0.94185 0.49589
 C2684 C 0.51043 0.91933 0.48741
 C2685 C 0.49102 0.88238 0.48631
 C2686 C 0.49363 0.90409 0.49631
 H2687 H 0.47721 0.87157 0.49312
 H2688 H 0.48173 0.90932 0.51048
 H2689 H 0.48787 0.84239 0.46335
 H2690 H 0.54820 0.85191 0.41894
 H2691 H 0.55179 0.96293 0.45593
 H2692 H 0.49909 0.94694 0.51000
 H2693 H 0.55440 0.88923 0.43614
 H2694 H 0.55246 0.92450 0.44328
 C2695 C 0.00891 0.37722 0.94630
 C2696 C 0.01286 0.37494 0.91999
 C2697 C 0.01310 0.35349 0.90897
 C2698 C 0.00868 0.33404 0.92354
 C2699 C 0.00451 0.33624 0.94955
 C2700 C 0.00479 0.35752 0.96088
 C2701 C 0.00837 0.40056 0.95715
 C2702 C 0.00547 0.40484 0.98317
 C2703 C 0.00398 0.42689 0.99207
 C2704 C 0.00546 0.44537 0.97537
 C2705 C 0.00846 0.44112 0.94940
 C2706 C 0.01045 0.41912 0.94034
 C2707 C 0.01581 0.39408 0.90461
 C2708 C 0.01429 0.41567 0.91449
 H2709 H 0.01879 0.39233 0.88446
 H2710 H 0.01613 0.42991 0.90166
 H2711 H 0.01589 0.35195 0.88875
 H2712 H 0.00104 0.32142 0.96115
 H2713 H 0.00090 0.42928 1.01204
 H2714 H 0.00910 0.45497 0.93596
 H2715 H 0.00134 0.35820 0.98092
 H2716 H 0.00407 0.39139 0.99694
 C2717 C 0.48934 0.37197 0.03649
 C2718 C 0.50775 0.35902 0.02932
 C2719 C 0.51185 0.33876 0.04230
 C2720 C 0.49713 0.33093 0.06154
 C2721 C 0.47801 0.34305 0.06711
 C2722 C 0.47409 0.36325 0.05477
 C2723 C 0.48706 0.39469 0.02475
 C2724 C 0.47271 0.41046 0.03497
 C2725 C 0.47273 0.43226 0.02559
 C2726 C 0.48590 0.43906 0.00448
 C2727 C 0.50014 0.42314 -0.00620
 C2728 C 0.50147 0.40135 0.00451
 C2729 C 0.52173 0.36647 0.00928
 C2730 C 0.51822 0.38686 -0.00335
 H2731 H 0.53556 0.35639 0.00326
 H2732 H 0.52953 0.39187 -0.01864
 H2733 H 0.52631 0.32907 0.03742
 H2734 H 0.46627 0.33711 0.08160
 H2735 H 0.46306 0.44409 0.03613
 H2736 H 0.51151 0.42823 -0.02140
 H2737 H 0.45903 0.37178 0.05983
 H2738 H 0.46251 0.40685 0.05150
 C2739 C -0.00779 0.87583 0.51414
 C2740 C 0.01272 0.86471 0.51693
 C2741 C 0.01351 0.84490 0.53153
 C2742 C -0.00582 0.83610 0.54391
 C2743 C -0.02622 0.84689 0.54060
 C2744 C -0.02725 0.86643 0.52592
 C2745 C -0.00748 0.89802 0.50042
 C2746 C -0.02676 0.91076 0.49725
 C2747 C -0.02488 0.93305 0.48881
 C2748 C -0.00382 0.94330 0.48303
 C2749 C 0.01491 0.92940 0.48235
 C2750 C 0.01337 0.90719 0.49160
 C2751 C 0.03250 0.87390 0.50600
 C2752 C 0.03284 0.89474 0.49372
 H2753 H 0.04817 0.86527 0.50784
 H2754 H 0.04879 0.90160 0.48662
 H2755 H 0.02931 0.83654 0.53363
 H2756 H -0.04135 0.84064 0.55011
 H2757 H -0.04005 0.94223 0.48795
 H2758 H 0.03132 0.93650 0.47707
 H2759 H -0.04330 0.87423 0.52468
 H2760 H -0.04334 0.90422 0.50227
 C2761 C 0.20101 0.30395 0.14141
 C2762 C 0.20702 0.29487 0.11765
 C2763 C 0.20694 0.30838 0.09581
 C2764 C 0.20251 0.33131 0.09755
 C2765 C 0.19574 0.34013 0.12082
 C2766 C 0.19469 0.32657 0.14248
 C2767 C 0.20447 0.29005 0.16471
 C2768 C 0.19864 0.29715 0.18921
 C2769 C 0.20627 0.28573 0.21055
 C2770 C 0.22040 0.26745 0.20794
 C2771 C 0.22327 0.25838 0.18361
 C2772 C 0.21547 0.26951 0.16210
 C2773 C 0.21520 0.27312 0.11618
 C2774 C 0.21980 0.26088 0.13801
 H2775 H 0.21963 0.26610 0.09800
 H2776 H 0.22764 0.24479 0.13600
 H2777 H 0.21262 0.30167 0.07792
 H2778 H 0.19233 0.35786 0.12245
 H2779 H 0.20223 0.29220 0.22906
 H2780 H 0.23284 0.24339 0.18103
 H2781 H 0.19036 0.33447 0.16011
 H2782 H 0.18892 0.31188 0.19226
 C2783 C 0.70782 0.80677 0.62428
 C2784 C 0.71356 0.83013 0.62312
 C2785 C 0.71875 0.84045 0.59987
 C2786 C 0.71935 0.82779 0.57760
 C2787 C 0.71252 0.80494 0.57834
 C2788 C 0.70674 0.79450 0.60143
 C2789 C 0.70574 0.79585 0.64996
 C2790 C 0.70075 0.77267 0.65371
 C2791 C 0.70391 0.76266 0.67752
 C2792 C 0.71241 0.77547 0.69801
 C2793 C 0.71480 0.79895 0.69477
 C2794 C 0.71121 0.80917 0.67134
 C2795 C 0.71588 0.84279 0.64529
 C2796 C 0.71511 0.83246 0.66892
 H2797 H 0.71992 0.86073 0.64435
 H2798 H 0.71864 0.84272 0.68550
 H2799 H 0.72366 0.85822 0.59928
 H2800 H 0.71276 0.79490 0.56126
 H2801 H 0.70171 0.74453 0.67915
 H2802 H 0.72223 0.80941 0.70936
 H2803 H 0.70259 0.77666 0.60120
 H2804 H 0.69554 0.76186 0.63823
 C2805 C 0.27537 0.69684 0.64275
 C2806 C 0.26764 0.67416 0.63966
 C2807 C 0.26917 0.66367 0.61612
 C2808 C 0.27764 0.67544 0.59495
 C2809 C 0.28530 0.69793 0.59779
 C2810 C 0.28438 0.70850 0.62148
 C2811 C 0.27215 0.70767 0.66813
 C2812 C 0.27967 0.72989 0.67399
 C2813 C 0.27426 0.73963 0.69733
 C2814 C 0.26109 0.72752 0.71522
 C2815 C 0.25429 0.70519 0.70955
 C2816 C 0.26017 0.69510 0.68684
 C2817 C 0.25738 0.66226 0.65970
 C2818 C 0.25337 0.67263 0.68266
 H2819 H 0.25155 0.64489 0.65729
 H2820 H 0.24456 0.66295 0.69731
 H2821 H 0.26258 0.64650 0.61399
 H2822 H 0.29186 0.70737 0.58164
 H2823 H 0.27960 0.75696 0.70088
 H2824 H 0.24345 0.69557 0.72237
 H2825 H 0.29018 0.72590 0.62264
 H2826 H 0.28936 0.74006 0.66063
 C2827 C 0.77616 0.17902 0.15607
 C2828 C 0.76616 0.15703 0.15438
 C2829 C 0.76649 0.14522 0.13152
 C2830 C 0.77600 0.15508 0.10969
 C2831 C 0.78602 0.17681 0.11123
 C2832 C 0.78629 0.18861 0.13420
 C2833 C 0.77415 0.19147 0.18067
 C2834 C 0.78396 0.21314 0.18516
 C2835 C 0.77993 0.22450 0.20795
 C2836 C 0.76583 0.21463 0.22657
 C2837 C 0.75648 0.19290 0.22212
 C2838 C 0.76105 0.18113 0.20008
 C2839 C 0.75486 0.14724 0.17511
 C2840 C 0.75204 0.15918 0.19735
 H2841 H 0.74732 0.13039 0.17382
 H2842 H 0.74243 0.15116 0.21258
 H2843 H 0.75820 0.12868 0.13040
 H2844 H 0.79351 0.18475 0.09459
 H2845 H 0.78728 0.24128 0.21061
 H2846 H 0.74508 0.18493 0.23572
 H2847 H 0.79391 0.20539 0.13431
 H2848 H 0.79456 0.22161 0.17122
 C2849 C 0.74931 0.18452 0.87095
 C2850 C 0.72853 0.17895 0.88283
 C2851 C 0.72814 0.16623 0.90547
 C2852 C 0.74826 0.15837 0.91583
 C2853 C 0.76847 0.16250 0.90258
 C2854 C 0.76905 0.17540 0.88058
 C2855 C 0.74947 0.19935 0.84806
 C2856 C 0.76952 0.20854 0.83779
 C2857 C 0.76924 0.22148 0.81593
 C2858 C 0.74896 0.22573 0.80329
 C2859 C 0.72861 0.21778 0.81437
 C2860 C 0.72877 0.20495 0.83697
 C2861 C 0.70846 0.18587 0.87171
 C2862 C 0.70855 0.19803 0.84888
 H2863 H 0.69242 0.18141 0.88050
 H2864 H 0.69258 0.20253 0.84076
 H2865 H 0.71230 0.16273 0.91512
 H2866 H 0.78404 0.15563 0.90919
 H2867 H 0.78533 0.22773 0.80867
 H2868 H 0.71274 0.22147 0.80563
 H2869 H 0.78509 0.17772 0.87121
 H2870 H 0.78568 0.20611 0.84647
 C2871 C 0.21474 0.69340 0.35922
 C2872 C 0.21846 0.70598 0.38169
 C2873 C 0.22308 0.69491 0.40454
 C2874 C 0.22407 0.67140 0.40541
 C2875 C 0.21892 0.65886 0.38359
 C2876 C 0.21433 0.66968 0.36073
 C2877 C 0.21343 0.70596 0.33458
 C2878 C 0.21213 0.69514 0.31089
 C2879 C 0.21609 0.70730 0.28853
 C2880 C 0.22121 0.73056 0.28914
 C2881 C 0.21860 0.74183 0.31235
 C2882 C 0.21569 0.72973 0.33502
 C2883 C 0.21865 0.72955 0.38100
 C2884 C 0.21715 0.74118 0.35814
 H2885 H 0.22098 0.73916 0.39827
 H2886 H 0.21851 0.75943 0.35848
 H2887 H 0.22667 0.70463 0.42152
 H2888 H 0.21949 0.64066 0.38394
 H2889 H 0.21631 0.69800 0.27115
 H2890 H 0.22155 0.75993 0.31332
 H2891 H 0.21125 0.65921 0.34437
 H2892 H 0.20947 0.67714 0.30927
 C2893 C 0.77759 0.80621 0.33991
 C2894 C 0.78345 0.79433 0.36202
 C2895 C 0.78327 0.80529 0.38566
 C2896 C 0.77737 0.82801 0.38733
 C2897 C 0.77323 0.83994 0.36494
 C2898 C 0.77372 0.82937 0.34158
 C2899 C 0.77450 0.79344 0.31582
 C2900 C 0.76423 0.80302 0.29472
 C2901 C 0.75872 0.79008 0.27382
 C2902 C 0.76429 0.76729 0.27223
 C2903 C 0.77522 0.75761 0.29305
 C2904 C 0.77964 0.77038 0.31517
 C2905 C 0.78887 0.77158 0.36030
 C2906 C 0.78747 0.75998 0.33723
 H2907 H 0.79389 0.76249 0.37709
 H2908 H 0.79141 0.74231 0.33699
 H2909 H 0.78722 0.79605 0.40273
 H2910 H 0.76862 0.85739 0.36540
 H2911 H 0.74884 0.79806 0.25944
 H2912 H 0.77873 0.73984 0.29284
 H2913 H 0.77049 0.83961 0.32518
 H2914 H 0.75875 0.82011 0.29452
 C2915 C 0.27380 0.32090 0.86449
 C2916 C 0.27819 0.30872 0.88691
 C2917 C 0.27516 0.31885 0.91078
 C2918 C 0.26770 0.34104 0.91258
 C2919 C 0.26410 0.35312 0.89015
 C2920 C 0.26727 0.34337 0.86655
 C2921 C 0.27512 0.30902 0.83954
 C2922 C 0.26868 0.31916 0.81678
 C2923 C 0.26680 0.30673 0.79466
 C2924 C 0.27238 0.28391 0.79374
 C2925 C 0.28038 0.27398 0.81615
 C2926 C 0.28123 0.28621 0.83912
 C2927 C 0.28504 0.28640 0.88527
 C2928 C 0.28667 0.27546 0.86190
 H2929 H 0.28872 0.27707 0.90236
 H2930 H 0.29146 0.25803 0.86178
 H2931 H 0.27839 0.30938 0.92790
 H2932 H 0.25807 0.37009 0.89070
 H2933 H 0.25914 0.31498 0.77880
 H2934 H 0.28415 0.25626 0.81627
 H2935 H 0.26405 0.35372 0.85025
 H2936 H 0.26352 0.33633 0.81578
 C2937 C 0.78717 0.37468 0.76092
 C2938 C 0.80251 0.38098 0.78037
 C2939 C 0.81112 0.40328 0.78187
 C2940 C 0.80483 0.41955 0.76410
 C2941 C 0.78893 0.41345 0.74550
 C2942 C 0.78015 0.39139 0.74394
 C2943 C 0.77958 0.35039 0.75892
 C2944 C 0.76521 0.34222 0.73957
 C2945 C 0.75950 0.31932 0.73778
 C2946 C 0.76810 0.30374 0.75499
 C2947 C 0.78152 0.31192 0.77514
 C2948 C 0.78765 0.33492 0.77691
 C2949 C 0.80955 0.36491 0.79785
 C2950 C 0.80221 0.34239 0.79622
 H2951 H 0.82115 0.36974 0.81288
 H2952 H 0.80840 0.33055 0.81001
 H2953 H 0.82309 0.40790 0.79662
 H2954 H 0.78388 0.42558 0.73144
 H2955 H 0.74820 0.31394 0.72278
 H2956 H 0.78799 0.30029 0.78897
 H2957 H 0.76825 0.38773 0.72898
 H2958 H 0.75833 0.35315 0.72544
 C2959 C 0.29958 0.86965 0.28696
 C2960 C 0.28477 0.88723 0.29082
 C2961 C 0.29340 0.90959 0.29274
 C2962 C 0.31693 0.91477 0.29113
 C2963 C 0.33128 0.89623 0.29056
 C2964 C 0.32277 0.87424 0.28865
 C2965 C 0.29006 0.84683 0.28064
 C2966 C 0.30347 0.83033 0.27027
 C2967 C 0.29400 0.80986 0.26267
 C2968 C 0.27094 0.80446 0.26607
 C2969 C 0.25724 0.82114 0.27611
 C2970 C 0.26658 0.84258 0.28251
 C2971 C 0.26151 0.88225 0.29241
 C2972 C 0.25268 0.86022 0.28912
 H2973 H 0.24998 0.89556 0.29608
 H2974 H 0.23462 0.85723 0.29043
 H2975 H 0.28151 0.92265 0.29572
 H2976 H 0.34934 0.89806 0.28936
 H2977 H 0.30488 0.79891 0.25254
 H2978 H 0.23924 0.81790 0.27775
 H2979 H 0.33476 0.86104 0.28783
 H2980 H 0.32113 0.83340 0.26634
 C2981 C 0.20940 0.87137 0.74290
 C2982 C 0.21356 0.88618 0.76349
 C2983 C 0.20602 0.90830 0.76255
 C2984 C 0.19353 0.91563 0.74180
 C2985 C 0.18970 0.90111 0.72127
 C2986 C 0.19766 0.87931 0.72166
 C2987 C 0.21644 0.84748 0.74532
 C2988 C 0.21366 0.83158 0.72574
 C2989 C 0.21873 0.80909 0.72970
 C2990 C 0.22616 0.80167 0.75350
 C2991 C 0.23098 0.81789 0.77225
 C2992 C 0.22593 0.84053 0.76850
 C2993 C 0.22416 0.87851 0.78540
 C2994 C 0.23000 0.85611 0.78796
 H2995 H 0.22735 0.88983 0.80116
 H2996 H 0.23751 0.85083 0.80562
 H2997 H 0.20862 0.91937 0.77867
 H2998 H 0.18001 0.90652 0.70512
 H2999 H 0.21591 0.79734 0.71430
 H3000 H 0.23811 0.81285 0.79020
 H3001 H 0.19372 0.86875 0.70558
 H3002 H 0.20741 0.83607 0.70730
 C3003 C 0.71442 0.35976 0.25549
 C3004 C 0.71151 0.37221 0.27795
 C3005 C 0.70008 0.39242 0.27728
 C3006 C 0.69218 0.40121 0.25427
 C3007 C 0.69664 0.38957 0.23177
 C3008 C 0.70742 0.36907 0.23234
 C3009 C 0.72427 0.33697 0.25754
 C3010 C 0.72483 0.32181 0.23710
 C3011 C 0.73154 0.29976 0.24082
 C3012 C 0.73784 0.29226 0.26502
 C3013 C 0.74013 0.30815 0.28453
 C3014 C 0.73209 0.32986 0.28147
 C3015 C 0.71979 0.36430 0.30105
 C3016 C 0.73041 0.34384 0.30264
 H3017 H 0.71793 0.37403 0.31821
 H3018 H 0.73631 0.33835 0.32101
 H3019 H 0.69677 0.40084 0.29497
 H3020 H 0.69169 0.39619 0.21356
 H3021 H 0.73053 0.28828 0.22495
 H3022 H 0.74683 0.30329 0.30272
 H3023 H 0.71013 0.36080 0.21450
 H3024 H 0.71905 0.32626 0.21844
 C3025 C 0.69676 0.62050 0.25703
 C3026 C 0.67585 0.61430 0.24569
 C3027 C 0.66661 0.59248 0.24875
 C3028 C 0.67771 0.57638 0.26303
 C3029 C 0.69849 0.58235 0.27419
 C3030 C 0.70791 0.60418 0.27131
 C3031 C 0.70603 0.64411 0.25298
 C3032 C 0.72665 0.65233 0.26322
 C3033 C 0.73456 0.67445 0.25834
 C3034 C 0.72212 0.68894 0.24314
 C3035 C 0.70147 0.68074 0.23324
 C3036 C 0.69343 0.65879 0.23793
 C3037 C 0.66426 0.62978 0.23114
 C3038 C 0.67287 0.65156 0.22732
 H3039 H 0.64828 0.62497 0.22247
 H3040 H 0.66330 0.66291 0.21578
 H3041 H 0.65082 0.58788 0.23951
 H3042 H 0.70736 0.57018 0.28533
 H3043 H 0.75056 0.68009 0.26632
 H3044 H 0.69152 0.69147 0.22140
 H3045 H 0.72389 0.60790 0.28032
 H3046 H 0.73696 0.64192 0.27490
 C3047 C 0.21171 0.13593 0.77633
 C3048 C 0.22346 0.11875 0.76407
 C3049 C 0.21452 0.09655 0.76382
 C3050 C 0.19354 0.09115 0.77492
 C3051 C 0.18216 0.10810 0.78755
 C3052 C 0.19112 0.13016 0.78835
 C3053 C 0.22104 0.15970 0.77455
 C3054 C 0.21078 0.17806 0.78611
 C3055 C 0.21862 0.20013 0.78131
 C3056 C 0.23652 0.20450 0.76443
 C3057 C 0.24852 0.18616 0.75546
 C3058 C 0.24068 0.16395 0.75992
 C3059 C 0.24359 0.12396 0.75118
 C3060 C 0.25192 0.14611 0.74897
 H3061 H 0.25266 0.11081 0.74190
 H3062 H 0.26712 0.14936 0.73800
 H3063 H 0.22364 0.08356 0.75431
 H3064 H 0.16581 0.10454 0.79600
 H3065 H 0.21005 0.21382 0.79013
 H3066 H 0.26316 0.18902 0.74349
 H3067 H 0.18127 0.14255 0.79771
 H3068 H 0.19643 0.17579 0.79848
 C3069 C 0.28090 0.12795 0.24599
 C3070 C 0.29773 0.12290 0.22812
 C3071 C 0.30718 0.10160 0.22813
 C3072 C 0.29983 0.08486 0.24544
 C3073 C 0.28193 0.08942 0.26181
 C3074 C 0.27263 0.11066 0.26219
 C3075 C 0.27296 0.15159 0.24709
 C3076 C 0.25838 0.15910 0.26609
 C3077 C 0.25259 0.18167 0.26714
 C3078 C 0.26108 0.19735 0.24921
 C3079 C 0.27478 0.18968 0.22962
 C3080 C 0.28134 0.16729 0.22890
 C3081 C 0.30532 0.13926 0.21063
 C3082 C 0.29696 0.16085 0.21068
 H3083 H 0.31800 0.13533 0.19672
 H3084 H 0.30344 0.17294 0.19681
 H3085 H 0.32095 0.09847 0.21532
 H3086 H 0.27529 0.07662 0.27473
 H3087 H 0.24191 0.18689 0.28249
 H3088 H 0.28095 0.20122 0.21516
 H3089 H 0.25914 0.11324 0.27541
 H3090 H 0.25182 0.14801 0.28077
 C3091 C 0.77987 0.63452 0.71957
 C3092 C 0.80127 0.63199 0.70841
 C3093 C 0.81166 0.61111 0.70974
 C3094 C 0.80099 0.59259 0.72207
 C3095 C 0.77910 0.59483 0.73145
 C3096 C 0.76864 0.61542 0.73019
 C3097 C 0.77055 0.65761 0.72052
 C3098 C 0.75073 0.66224 0.73374
 C3099 C 0.74397 0.68428 0.73649
 C3100 C 0.75663 0.70256 0.72606
 C3101 C 0.77541 0.69784 0.71103
 C3102 C 0.78289 0.67571 0.70898
 C3103 C 0.81241 0.65046 0.69670
 C3104 C 0.80327 0.67179 0.69667
 H3105 H 0.82864 0.64850 0.68778
 H3106 H 0.81277 0.68561 0.68777
 H3107 H 0.82853 0.60964 0.70229
 H3108 H 0.77015 0.58065 0.74028
 H3109 H 0.72899 0.68689 0.74759
 H3110 H 0.78502 0.71132 0.70201
 H3111 H 0.75193 0.61606 0.73803
 H3112 H 0.74060 0.64922 0.74299
 C3113 C 0.86297 0.75210 0.19638
 C3114 C 0.87900 0.74049 0.21045
 C3115 C 0.90160 0.74062 0.20214
 C3116 C 0.90852 0.75258 0.17987
 C3117 C 0.89252 0.76652 0.16853
 C3118 C 0.87029 0.76619 0.17649
 C3119 C 0.83875 0.74921 0.20330
 C3120 C 0.82174 0.75607 0.18698
 C3121 C 0.79933 0.75299 0.19365
 C3122 C 0.79295 0.74347 0.21719
 C3123 C 0.80989 0.73563 0.23328
 C3124 C 0.83277 0.73787 0.22604
 C3125 C 0.87216 0.72878 0.23252
 C3126 C 0.84964 0.72815 0.24060
 H3127 H 0.88441 0.72016 0.24382
 H3128 H 0.84527 0.71916 0.25793
 H3129 H 0.91299 0.73010 0.21232
 H3130 H 0.89696 0.77841 0.15364
 H3131 H 0.78703 0.75883 0.18029
 H3132 H 0.80533 0.72746 0.25104
 H3133 H 0.85906 0.77727 0.16689
 H3134 H 0.82536 0.76337 0.16860
 C3135 C 0.37436 0.26198 0.71397
 C3136 C 0.38917 0.24744 0.72628
 C3137 C 0.41106 0.24486 0.71653
 C3138 C 0.41832 0.25688 0.69475
 C3139 C 0.40404 0.27262 0.68408
 C3140 C 0.38247 0.27522 0.69352
 C3141 C 0.35049 0.26245 0.72289
 C3142 C 0.33397 0.27333 0.70901
 C3143 C 0.31170 0.27224 0.71673
 C3144 C 0.30489 0.26099 0.73918
 C3145 C 0.32135 0.24996 0.75329
 C3146 C 0.34399 0.25015 0.74489
 C3147 C 0.38185 0.23552 0.74799
 C3148 C 0.35991 0.23724 0.75741
 H3149 H 0.39324 0.22466 0.75782
 H3150 H 0.35511 0.22764 0.77418
 H3151 H 0.42210 0.23303 0.72535
 H3152 H 0.40955 0.28294 0.66811
 H3153 H 0.29970 0.28025 0.70458
 H3154 H 0.31643 0.24039 0.77005
 H3155 H 0.37244 0.28767 0.68444
 H3156 H 0.33765 0.28201 0.69143
 C3157 C 0.35957 0.74172 0.79885
 C3158 C 0.36348 0.72826 0.82052
 C3159 C 0.38507 0.72754 0.83106
 C3160 C 0.40308 0.74069 0.82110
 C3161 C 0.39934 0.75381 0.79939
 C3162 C 0.37792 0.75428 0.78832
 C3163 C 0.33589 0.74258 0.78887
 C3164 C 0.32992 0.75476 0.76698
 C3165 C 0.30734 0.75568 0.75933
 C3166 C 0.29014 0.74465 0.77340
 C3167 C 0.29618 0.73225 0.79498
 C3168 C 0.31863 0.73076 0.80241
 C3169 C 0.34570 0.71610 0.83216
 C3170 C 0.32373 0.71755 0.82351
 H3171 H 0.34871 0.70576 0.84869
 H3172 H 0.31049 0.70824 0.83361
 H3173 H 0.38774 0.71695 0.84748
 H3174 H 0.41285 0.76430 0.79137
 H3175 H 0.30336 0.76539 0.74263
 H3176 H 0.28333 0.72343 0.80616
 H3177 H 0.37591 0.76500 0.77199
 H3178 H 0.34243 0.76375 0.75564
 C3179 C 0.86962 0.23457 0.30711
 C3180 C 0.87434 0.22176 0.32905
 C3181 C 0.89571 0.22338 0.34031
 C3182 C 0.91264 0.23807 0.33058
 C3183 C 0.90813 0.25045 0.30854
 C3184 C 0.88695 0.24871 0.29690
 C3185 C 0.84606 0.23321 0.29660
 C3186 C 0.83929 0.24516 0.27488
 C3187 C 0.81664 0.24484 0.26738
 C3188 C 0.80012 0.23260 0.28131
 C3189 C 0.80708 0.21979 0.30219
 C3190 C 0.82965 0.21986 0.30973
 C3191 C 0.85752 0.20792 0.34022
 C3192 C 0.83563 0.20715 0.33092
 H3193 H 0.86118 0.19801 0.35691
 H3194 H 0.82307 0.19671 0.34076
 H3195 H 0.89906 0.21338 0.35703
 H3196 H 0.92079 0.26205 0.30069
 H3197 H 0.81198 0.25493 0.25123
 H3198 H 0.79476 0.21020 0.31335
 H3199 H 0.88432 0.25896 0.28032
 H3200 H 0.85115 0.25526 0.26381
 C3201 C 0.13209 0.26081 0.30010
 C3202 C 0.13003 0.26770 0.32563
 C3203 C 0.10888 0.26724 0.33747
 C3204 C 0.08941 0.25992 0.32441
 C3205 C 0.09140 0.25333 0.29900
 C3206 C 0.11241 0.25380 0.28696
 C3207 C 0.15525 0.26071 0.28859
 C3208 C 0.15945 0.25363 0.26360
 C3209 C 0.18150 0.25257 0.25444
 C3210 C 0.20000 0.25881 0.26976
 C3211 C 0.19581 0.26626 0.29451
 C3212 C 0.17383 0.26734 0.30391
 C3213 C 0.14911 0.27461 0.33948
 C3214 C 0.17052 0.27440 0.32887
 H3215 H 0.14751 0.27997 0.35898
 H3216 H 0.18477 0.27960 0.34054
 H3217 H 0.10772 0.27196 0.35723
 H3218 H 0.07664 0.24783 0.28837
 H3219 H 0.18402 0.24622 0.23549
 H3220 H 0.20967 0.27041 0.30714
 H3221 H 0.11290 0.24843 0.26747
 H3222 H 0.14599 0.24837 0.25102
 C3223 C 0.62359 0.75157 0.79189
 C3224 C 0.62218 0.75208 0.81870
 C3225 C 0.60118 0.75096 0.83082
 C3226 C 0.58120 0.74989 0.81679
 C3227 C 0.58242 0.75027 0.79023
 C3228 C 0.60336 0.75094 0.77787
 C3229 C 0.64661 0.75191 0.77986
 C3230 C 0.65029 0.74982 0.75352
 C3231 C 0.67223 0.75003 0.74355
 C3232 C 0.69104 0.75268 0.75951
 C3233 C 0.68732 0.75459 0.78575
 C3234 C 0.66558 0.75396 0.79593
 C3235 C 0.64172 0.75383 0.83339
 C3236 C 0.66291 0.75505 0.82225
 H3237 H 0.64062 0.75442 0.85388
 H3238 H 0.67751 0.75654 0.83452
 H3239 H 0.60033 0.75115 0.85135
 H3240 H 0.56715 0.74957 0.77905
 H3241 H 0.67445 0.74831 0.72330
 H3242 H 0.70137 0.75640 0.79870
 H3243 H 0.60340 0.75100 0.75743
 H3244 H 0.63645 0.74779 0.74041
 C3245 C 0.63279 0.23928 0.73730
 C3246 C 0.62179 0.26001 0.73641
 C3247 C 0.60114 0.26156 0.72367
 C3248 C 0.59148 0.24293 0.71080
 C3249 C 0.60218 0.22227 0.71221
 C3250 C 0.62248 0.22040 0.72533
 C3251 C 0.65582 0.23890 0.74900
 C3252 C 0.66823 0.21923 0.75120
 C3253 C 0.69106 0.22058 0.75773
 C3254 C 0.70220 0.24152 0.76168
 C3255 C 0.68885 0.26057 0.76385
 C3256 C 0.66600 0.25949 0.75711
 C3257 C 0.63202 0.27938 0.74704
 C3258 C 0.65377 0.27920 0.75687
 H3259 H 0.62353 0.29522 0.74661
 H3260 H 0.66141 0.29492 0.76358
 H3261 H 0.59293 0.27755 0.72310
 H3262 H 0.59534 0.20765 0.70227
 H3263 H 0.69997 0.20520 0.75878
 H3264 H 0.69665 0.27684 0.76838
 H3265 H 0.63029 0.20430 0.72500
 H3266 H 0.66083 0.20278 0.74708
 C3267 C 0.13181 0.74685 0.20122
 C3268 C 0.11415 0.74190 0.21859
 C3269 C 0.09179 0.73948 0.20984
 C3270 C 0.08709 0.74081 0.18382
 C3271 C 0.10478 0.74461 0.16665
 C3272 C 0.12682 0.74769 0.17515
 C3273 C 0.15522 0.75029 0.21121
 C3274 C 0.17316 0.75814 0.19587
 C3275 C 0.19485 0.76021 0.20553
 C3276 C 0.19959 0.75422 0.23075
 C3277 C 0.18148 0.74776 0.24671
 C3278 C 0.15933 0.74604 0.23716
 C3279 C 0.11907 0.73891 0.24435
 C3280 C 0.14123 0.74038 0.25333
 H3281 H 0.10565 0.73485 0.25769
 H3282 H 0.14420 0.73738 0.27329
 H3283 H 0.07813 0.73613 0.22310
 H3284 H 0.10143 0.74554 0.14649
 H3285 H 0.20805 0.76612 0.19274
 H3286 H 0.18445 0.74409 0.26647
 H3287 H 0.13972 0.75039 0.16097
 H3288 H 0.17081 0.76292 0.17634
   
