data_POSCAR
  _audit_creation_date              2014-09-24
  _audit_creation_method            'ToBaCCo'
  _symmetry_space_group_name_H-M    'P1'
  _symmetry_Int_Tables_number       1
  _symmetry_cell_setting            triclinic
  loop_
  _symmetry_equiv_pos_as_xyz
 x,y,z
_cell_length_a 45.5678
_cell_length_b 45.5678
_cell_length_c 45.5678
_cell_angle_alpha 90.000000
_cell_angle_beta 90.000000
_cell_angle_gamma 90.000000
loop_
  _atom_site_label
  _atom_site_type_symbol
  _atom_site_fract_x
  _atom_site_fract_y
  _atom_site_fract_z
N1 N 0.32706 1.32706 0.32706
 N2 N 0.32706 0.82706 0.82706
 N3 N 0.82705 1.32705 0.82705
 N4 N 0.82705 0.82705 0.32706
 N5 N 0.67294 0.67294 0.32706
 N6 N 0.67294 0.17294 0.82706
 N7 N 1.17294 0.67294 0.82706
 N8 N 1.17296 0.17296 0.32704
 N9 N 0.67295 1.32705 0.67295
 N10 N 0.67294 0.82706 1.17294
 N11 N 1.17294 1.32706 1.17294
 N12 N 1.17295 0.82705 0.67295
 N13 N 0.32705 0.67295 0.67295
 N14 N 0.32706 0.17294 1.17294
 N15 N 0.82705 0.67295 1.17295
 N16 N 0.82705 0.17295 0.67295
 N17 N 1.32706 0.32706 0.67294
 N18 N 1.32705 0.82705 1.17295
 N19 N 0.82706 0.32706 1.17294
 N20 N 0.82705 0.82705 0.67295
 N21 N 0.67294 0.67294 0.67295
 N22 N 0.67295 1.17295 1.17295
 N23 N 0.17295 0.67295 1.17295
 N24 N 0.17294 1.17294 0.67294
 N25 N 1.32706 0.67295 0.32706
 N26 N 1.32705 1.17295 0.82705
 N27 N 0.82706 0.67294 0.82706
 N28 N 0.82706 1.17294 0.32706
 N29 N 0.67295 0.32705 0.32705
 N30 N 0.67295 0.82705 0.82705
 N31 N 0.17295 0.32705 0.82705
 N32 N 0.17294 0.82706 0.32706
 O33 O 0.97132 0.89394 0.85374
 O34 O 0.97131 0.85974 0.81950
 C35 C 0.96119 0.88353 0.82994
 C36 C 0.93665 0.89866 0.81487
 C37 C 0.92432 0.88670 0.78925
 H38 H 0.93343 0.86693 0.77966
 O39 O 1.02868 1.10606 0.85373
 O40 O 1.02869 1.14026 0.81950
 C41 C 1.03881 1.11646 0.82993
 C42 C 1.06334 1.10134 0.81487
 C43 C 1.07568 1.11329 0.78924
 H44 H 1.06656 1.13306 0.77965
 O45 O 0.85374 0.97132 0.89394
 O46 O 0.81950 0.97130 0.85974
 C47 C 0.82993 0.96118 0.88354
 C48 C 0.81487 0.93665 0.89866
 C49 C 0.78925 0.92432 0.88671
 H50 H 0.77966 0.93343 0.86693
 O51 O 1.14626 1.02868 0.89394
 O52 O 1.18050 1.02870 0.85974
 C53 C 1.17007 1.03881 0.88353
 C54 C 1.18513 1.06335 0.89866
 C55 C 1.21075 1.07568 0.88670
 H56 H 1.22034 1.06657 0.86693
 O57 O 0.89394 0.85374 0.97132
 O58 O 0.85974 0.81950 0.97131
 C59 C 0.88353 0.82993 0.96119
 C60 C 0.89866 0.81487 0.93666
 C61 C 0.88671 0.78925 0.92432
 H62 H 0.86693 0.77966 0.93344
 O63 O 1.10606 1.14627 0.97132
 O64 O 1.14026 1.18050 0.97130
 C65 C 1.11646 1.17007 0.96118
 C66 C 1.10134 1.18513 0.93665
 C67 C 1.11329 1.21075 0.92432
 H68 H 1.13307 1.22034 0.93343
 O69 O 0.89394 1.02868 0.85374
 O70 O 0.85974 1.02869 0.81950
 C71 C 0.88353 1.03881 0.82994
 C72 C 0.89866 1.06335 0.81487
 C73 C 0.88670 1.07568 0.78925
 H74 H 0.86693 1.06657 0.77966
 O75 O 1.10606 0.97132 0.85374
 O76 O 1.14026 0.97130 0.81950
 C77 C 1.11647 0.96119 0.82994
 C78 C 1.10134 0.93665 0.81487
 C79 C 1.11330 0.92432 0.78925
 H80 H 1.13307 0.93343 0.77966
 O81 O 1.02868 0.85374 0.89394
 O82 O 1.02869 0.81950 0.85974
 C83 C 1.03881 0.82993 0.88354
 C84 C 1.06335 0.81487 0.89867
 C85 C 1.07568 0.78925 0.88671
 H86 H 1.06657 0.77966 0.86694
 O87 O 0.97132 1.14626 0.89394
 O88 O 0.97130 1.18050 0.85974
 C89 C 0.96119 1.17007 0.88353
 C90 C 0.93665 1.18513 0.89866
 C91 C 0.92432 1.21075 0.88670
 H92 H 0.93343 1.22034 0.86693
 O93 O 0.85374 1.10606 0.97132
 O94 O 0.81950 1.14026 0.97131
 C95 C 0.82994 1.11647 0.96119
 C96 C 0.81487 1.10134 0.93666
 C97 C 0.78925 1.11329 0.92432
 H98 H 0.77966 1.13307 0.93343
 O99 O 1.14627 0.89394 0.97132
 O100 O 1.18050 0.85974 0.97131
 C101 C 1.17007 0.88354 0.96119
 C102 C 1.18513 0.89866 0.93666
 C103 C 1.21075 0.88671 0.92432
 H104 H 1.22035 0.86694 0.93344
 O105 O 0.97132 1.10606 0.85373
 O106 O 0.97130 1.14026 0.81950
 C107 C 0.96118 1.11646 0.82993
 C108 C 0.93665 1.10134 0.81487
 C109 C 0.92432 1.11329 0.78925
 H110 H 0.93343 1.13307 0.77966
 O111 O 1.02868 0.89394 0.85374
 O112 O 1.02869 0.85974 0.81950
 C113 C 1.03881 0.88353 0.82994
 C114 C 1.06335 0.89866 0.81487
 C115 C 1.07568 0.88670 0.78925
 H116 H 1.06657 0.86693 0.77966
 O117 O 1.14626 0.97132 0.89394
 O118 O 1.18050 0.97131 0.85974
 C119 C 1.17007 0.96119 0.88354
 C120 C 1.18513 0.93666 0.89866
 C121 C 1.21075 0.92432 0.88671
 H122 H 1.22034 0.93344 0.86694
 O123 O 0.85373 1.02868 0.89394
 O124 O 0.81950 1.02869 0.85974
 C125 C 0.82993 1.03881 0.88354
 C126 C 0.81487 1.06334 0.89866
 C127 C 0.78925 1.07568 0.88671
 H128 H 0.77966 1.06657 0.86694
 O129 O 0.89394 1.14627 0.97132
 O130 O 0.85974 1.18050 0.97130
 C131 C 0.88354 1.17007 0.96119
 C132 C 0.89866 1.18513 0.93665
 C133 C 0.88671 1.21075 0.92432
 H134 H 0.86693 1.22034 0.93343
 O135 O 1.10606 0.85374 0.97132
 O136 O 1.14026 0.81950 0.97131
 C137 C 1.11647 0.82994 0.96119
 C138 C 1.10134 0.81487 0.93666
 C139 C 1.11330 0.78925 0.92432
 H140 H 1.13307 0.77966 0.93343
 O141 O 1.10606 1.02868 0.85374
 O142 O 1.14026 1.02869 0.81950
 C143 C 1.11646 1.03881 0.82993
 C144 C 1.10134 1.06334 0.81487
 C145 C 1.11329 1.07568 0.78924
 H146 H 1.13306 1.06656 0.77965
 O147 O 0.89394 0.97132 0.85374
 O148 O 0.85974 0.97130 0.81950
 C149 C 0.88353 0.96119 0.82994
 C150 C 0.89866 0.93665 0.81487
 C151 C 0.88671 0.92432 0.78925
 H152 H 0.86693 0.93343 0.77966
 O153 O 1.02868 1.14626 0.89394
 O154 O 1.02869 1.18050 0.85974
 C155 C 1.03881 1.17006 0.88353
 C156 C 1.06335 1.18513 0.89866
 C157 C 1.07568 1.21075 0.88670
 H158 H 1.06657 1.22034 0.86693
 O159 O 0.97132 0.85373 0.89394
 O160 O 0.97131 0.81950 0.85974
 C161 C 0.96119 0.82993 0.88354
 C162 C 0.93665 0.81487 0.89867
 C163 C 0.92432 0.78925 0.88671
 H164 H 0.93343 0.77966 0.86694
 O165 O 1.14627 1.10606 0.97132
 O166 O 1.18050 1.14026 0.97130
 C167 C 1.17007 1.11647 0.96118
 C168 C 1.18513 1.10134 0.93665
 C169 C 1.21075 1.11330 0.92431
 H170 H 1.22034 1.13307 0.93343
 O171 O 0.85374 0.89394 0.97132
 O172 O 0.81950 0.85974 0.97131
 C173 C 0.82993 0.88353 0.96119
 C174 C 0.81487 0.89866 0.93666
 C175 C 0.78925 0.88670 0.92432
 H176 H 0.77966 0.86693 0.93343
 Cu177 Cu 1.00000 0.87726 0.87727
 Cu178 Cu 1.00000 0.83619 0.83619
 Cu179 Cu 1.00000 1.12274 0.87726
 Cu180 Cu 1.00000 1.16381 0.83619
 Cu181 Cu 0.87726 1.00000 0.87726
 Cu182 Cu 0.83619 1.00000 0.83619
 Cu183 Cu 1.12274 1.00000 0.87726
 Cu184 Cu 1.16381 1.00000 0.83619
 C185 C 0.92385 0.92385 0.82732
 H186 H 0.93287 0.93287 0.84739
 C187 C 0.89941 0.89941 0.77658
 C188 C 1.07615 1.07615 0.82732
 H189 H 1.06713 1.06713 0.84738
 C190 C 1.10059 1.10059 0.77657
 C191 C 0.82732 0.92385 0.92385
 H192 H 0.84738 0.93287 0.93287
 C193 C 0.77657 0.89941 0.89941
 C194 C 1.17268 1.07615 0.92385
 H195 H 1.15262 1.06713 0.93287
 C196 C 1.22343 1.10059 0.89940
 C197 C 0.92385 0.82732 0.92386
 H198 H 0.93287 0.84738 0.93287
 C199 C 0.89941 0.77657 0.89941
 C200 C 1.07615 1.17268 0.92385
 H201 H 1.06713 1.15262 0.93287
 C202 C 1.10059 1.22343 0.89941
 C203 C 0.92385 1.07615 0.82732
 H204 H 0.93287 1.06713 0.84738
 C205 C 0.89941 1.10059 0.77657
 C206 C 1.07615 0.92385 0.82732
 H207 H 1.06713 0.93287 0.84738
 C208 C 1.10059 0.89941 0.77658
 C209 C 1.07615 0.82732 0.92386
 H210 H 1.06713 0.84738 0.93287
 C211 C 1.10059 0.77657 0.89941
 C212 C 0.92385 1.17268 0.92385
 H213 H 0.93287 1.15262 0.93287
 C214 C 0.89941 1.22343 0.89941
 C215 C 0.82732 1.07615 0.92385
 H216 H 0.84738 1.06713 0.93287
 C217 C 0.77657 1.10059 0.89941
 C218 C 1.17268 0.92385 0.92385
 H219 H 1.15262 0.93287 0.93287
 C220 C 1.22343 0.89941 0.89941
 O221 O 1.02868 0.89394 1.14627
 O222 O 1.02870 0.85974 1.18051
 C223 C 1.03881 0.88354 1.17007
 C224 C 1.06335 0.89867 1.18514
 C225 C 1.07568 0.88671 1.21076
 H226 H 1.06657 0.86694 1.22035
 O227 O 0.97132 1.10606 1.14626
 O228 O 0.97131 1.14026 1.18050
 C229 C 0.96119 1.11647 1.17006
 C230 C 0.93666 1.10134 1.18513
 C231 C 0.92432 1.11329 1.21075
 H232 H 0.93344 1.13307 1.22034
 O233 O 0.85374 1.02868 1.10606
 O234 O 0.81950 1.02870 1.14026
 C235 C 0.82994 1.03882 1.11647
 C236 C 0.81487 1.06335 1.10134
 C237 C 0.78925 1.07568 1.11330
 H238 H 0.77966 1.06657 1.13307
 O239 O 1.14627 0.97132 1.10606
 O240 O 1.18050 0.97131 1.14026
 C241 C 1.17007 0.96119 1.11647
 C242 C 1.18513 0.93665 1.10134
 C243 C 1.21075 0.92432 1.11330
 H244 H 1.22034 0.93343 1.13307
 O245 O 1.10606 0.85374 1.02868
 O246 O 1.14026 0.81950 1.02870
 C247 C 1.11647 0.82994 1.03882
 C248 C 1.10134 0.81487 1.06335
 C249 C 1.11330 0.78925 1.07568
 H250 H 1.13307 0.77966 1.06657
 O251 O 0.89394 1.14627 1.02868
 O252 O 0.85974 1.18050 1.02869
 C253 C 0.88354 1.17007 1.03881
 C254 C 0.89866 1.18513 1.06335
 C255 C 0.88671 1.21075 1.07568
 H256 H 0.86693 1.22034 1.06657
 O257 O 0.89394 0.97132 1.14627
 O258 O 0.85974 0.97131 1.18050
 C259 C 0.88353 0.96119 1.17007
 C260 C 0.89866 0.93665 1.18514
 C261 C 0.88670 0.92432 1.21075
 H262 H 0.86693 0.93343 1.22034
 O263 O 1.10606 1.02868 1.14626
 O264 O 1.14026 1.02870 1.18050
 C265 C 1.11647 1.03882 1.17006
 C266 C 1.10134 1.06335 1.18513
 C267 C 1.11330 1.07569 1.21075
 H268 H 1.13307 1.06657 1.22034
 O269 O 0.97132 0.85374 1.10606
 O270 O 0.97131 0.81950 1.14027
 C271 C 0.96119 0.82994 1.11647
 C272 C 0.93665 0.81487 1.10134
 C273 C 0.92432 0.78925 1.11330
 H274 H 0.93343 0.77966 1.13307
 O275 O 1.02868 1.14627 1.10606
 O276 O 1.02870 1.18050 1.14026
 C277 C 1.03881 1.17007 1.11646
 C278 C 1.06335 1.18513 1.10134
 C279 C 1.07568 1.21076 1.11329
 H280 H 1.06657 1.22035 1.13306
 O281 O 0.85374 0.89394 1.02868
 O282 O 0.81950 0.85974 1.02870
 C283 C 0.82993 0.88354 1.03882
 C284 C 0.81487 0.89866 1.06335
 C285 C 0.78925 0.88671 1.07568
 H286 H 0.77966 0.86694 1.06657
 O287 O 1.14627 1.10606 1.02868
 O288 O 1.18050 1.14026 1.02869
 C289 C 1.17007 1.11647 1.03881
 C290 C 1.18513 1.10134 1.06334
 C291 C 1.21075 1.11329 1.07568
 H292 H 1.22035 1.13307 1.06656
 O293 O 1.02868 1.10606 1.14626
 O294 O 1.02870 1.14026 1.18050
 C295 C 1.03882 1.11647 1.17006
 C296 C 1.06335 1.10134 1.18513
 C297 C 1.07569 1.11330 1.21075
 H298 H 1.06657 1.13307 1.22034
 O299 O 0.97132 0.89394 1.14627
 O300 O 0.97131 0.85974 1.18051
 C301 C 0.96119 0.88354 1.17007
 C302 C 0.93665 0.89866 1.18514
 C303 C 0.92432 0.88671 1.21076
 H304 H 0.93343 0.86693 1.22035
 O305 O 1.14627 1.02868 1.10606
 O306 O 1.18050 1.02870 1.14026
 C307 C 1.17007 1.03881 1.11646
 C308 C 1.18513 1.06335 1.10134
 C309 C 1.21075 1.07568 1.11329
 H310 H 1.22035 1.06657 1.13306
 O311 O 0.85374 0.97132 1.10606
 O312 O 0.81950 0.97131 1.14026
 C313 C 0.82994 0.96119 1.11647
 C314 C 0.81487 0.93666 1.10134
 C315 C 0.78925 0.92432 1.11330
 H316 H 0.77966 0.93343 1.13307
 O317 O 1.10606 1.14627 1.02868
 O318 O 1.14026 1.18050 1.02869
 C319 C 1.11647 1.17007 1.03881
 C320 C 1.10134 1.18513 1.06334
 C321 C 1.11330 1.21076 1.07568
 H322 H 1.13307 1.22035 1.06657
 O323 O 0.89394 0.85374 1.02868
 O324 O 0.85974 0.81950 1.02870
 C325 C 0.88353 0.82994 1.03882
 C326 C 0.89866 0.81487 1.06335
 C327 C 0.88670 0.78925 1.07569
 H328 H 0.86693 0.77966 1.06657
 O329 O 1.10606 0.97132 1.14627
 O330 O 1.14026 0.97131 1.18050
 C331 C 1.11647 0.96119 1.17007
 C332 C 1.10134 0.93666 1.18513
 C333 C 1.11329 0.92432 1.21076
 H334 H 1.13307 0.93344 1.22035
 O335 O 0.89394 1.02868 1.14627
 O336 O 0.85974 1.02870 1.18050
 C337 C 0.88354 1.03881 1.17007
 C338 C 0.89867 1.06335 1.18513
 C339 C 0.88671 1.07568 1.21076
 H340 H 0.86694 1.06657 1.22035
 O341 O 0.97132 1.14627 1.10606
 O342 O 0.97131 1.18050 1.14026
 C343 C 0.96119 1.17007 1.11646
 C344 C 0.93666 1.18513 1.10134
 C345 C 0.92432 1.21075 1.11329
 H346 H 0.93343 1.22034 1.13307
 O347 O 1.02868 0.85374 1.10606
 O348 O 1.02870 0.81950 1.14027
 C349 C 1.03881 0.82994 1.11647
 C350 C 1.06335 0.81487 1.10134
 C351 C 1.07568 0.78925 1.11330
 H352 H 1.06657 0.77966 1.13307
 O353 O 1.14627 0.89394 1.02868
 O354 O 1.18050 0.85974 1.02870
 C355 C 1.17007 0.88354 1.03882
 C356 C 1.18513 0.89866 1.06335
 C357 C 1.21075 0.88671 1.07568
 H358 H 1.22034 0.86693 1.06657
 O359 O 0.85374 1.10606 1.02868
 O360 O 0.81950 1.14026 1.02870
 C361 C 0.82994 1.11647 1.03881
 C362 C 0.81487 1.10134 1.06335
 C363 C 0.78925 1.11330 1.07568
 H364 H 0.77966 1.13307 1.06657
 Cu365 Cu 1.00000 0.87726 1.12274
 Cu366 Cu 1.00000 0.83619 1.16382
 Cu367 Cu 1.00000 1.12274 1.12274
 Cu368 Cu 1.00000 1.16381 1.16381
 Cu369 Cu 0.87726 0.87726 1.00000
 Cu370 Cu 0.83619 0.83619 1.00000
 Cu371 Cu 1.12274 0.87726 1.00000
 Cu372 Cu 1.16381 0.83619 1.00000
 Cu373 Cu 0.87726 1.12274 1.00000
 Cu374 Cu 0.83619 1.16381 1.00000
 Cu375 Cu 1.12274 1.12274 1.00000
 Cu376 Cu 1.16381 1.16381 1.00000
 Cu377 Cu 0.87726 1.00000 1.12274
 Cu378 Cu 0.83619 1.00000 1.16381
 Cu379 Cu 1.12274 1.00000 1.12274
 Cu380 Cu 1.16381 1.00000 1.16381
 C381 C 1.07615 0.92386 1.17268
 H382 H 1.06713 0.93287 1.15262
 C383 C 1.10059 0.89942 1.22343
 C384 C 0.92386 1.07615 1.17268
 H385 H 0.93287 1.06713 1.15262
 C386 C 0.89942 1.10059 1.22343
 C387 C 0.82732 1.07615 1.07615
 H388 H 0.84739 1.06713 1.06713
 C389 C 0.77658 1.10059 1.10059
 C390 C 1.17268 0.92385 1.07615
 H391 H 1.15262 0.93287 1.06713
 C392 C 1.22343 0.89941 1.10059
 C393 C 1.07615 0.82732 1.07615
 H394 H 1.06713 0.84739 1.06713
 C395 C 1.10059 0.77658 1.10059
 C396 C 0.92385 1.17268 1.07615
 H397 H 0.93287 1.15262 1.06713
 C398 C 0.89941 1.22343 1.10059
 C399 C 0.92385 0.92385 1.17268
 H400 H 0.93287 0.93287 1.15262
 C401 C 0.89941 0.89941 1.22343
 C402 C 1.07615 1.07615 1.17268
 H403 H 1.06713 1.06713 1.15262
 C404 C 1.10060 1.10060 1.22342
 C405 C 0.92385 0.82732 1.07615
 H406 H 0.93287 0.84738 1.06713
 C407 C 0.89941 0.77658 1.10060
 C408 C 1.07615 1.17268 1.07615
 H409 H 1.06713 1.15262 1.06713
 C410 C 1.10059 1.22343 1.10059
 C411 C 0.82732 0.92385 1.07615
 H412 H 0.84738 0.93287 1.06713
 C413 C 0.77657 0.89941 1.10059
 C414 C 1.17268 1.07615 1.07615
 H415 H 1.15262 1.06713 1.06713
 C416 C 1.22343 1.10059 1.10059
 O417 O 0.97132 0.39394 0.35374
 O418 O 0.97131 0.35974 0.31950
 C419 C 0.96119 0.38354 0.32993
 C420 C 0.93666 0.39866 0.31487
 C421 C 0.92432 0.38671 0.28925
 H422 H 0.93343 0.36693 0.27966
 O423 O 1.02868 0.60606 0.35374
 O424 O 1.02869 0.64026 0.31950
 C425 C 1.03881 0.61647 0.32994
 C426 C 1.06335 0.60134 0.31487
 C427 C 1.07568 0.61330 0.28925
 H428 H 1.06657 0.63307 0.27966
 O429 O 0.85374 0.47132 0.39394
 O430 O 0.81950 0.47130 0.35974
 C431 C 0.82994 0.46119 0.38354
 C432 C 0.81487 0.43665 0.39866
 C433 C 0.78925 0.42432 0.38670
 H434 H 0.77966 0.43343 0.36693
 O435 O 1.14627 0.52868 0.39394
 O436 O 1.18050 0.52870 0.35974
 C437 C 1.17007 0.53882 0.38354
 C438 C 1.18513 0.56335 0.39866
 C439 C 1.21075 0.57568 0.38671
 H440 H 1.22034 0.56657 0.36694
 O441 O 0.89394 0.35373 0.47132
 O442 O 0.85974 0.31950 0.47131
 C443 C 0.88354 0.32993 0.46119
 C444 C 0.89867 0.31487 0.43666
 C445 C 0.88671 0.28924 0.42432
 H446 H 0.86694 0.27965 0.43344
 O447 O 1.10606 0.64627 0.47132
 O448 O 1.14026 0.68050 0.47131
 C449 C 1.11646 0.67007 0.46119
 C450 C 1.10134 0.68513 0.43666
 C451 C 1.11329 0.71076 0.42432
 H452 H 1.13306 0.72035 0.43344
 O453 O 0.89394 0.52868 0.35374
 O454 O 0.85974 0.52870 0.31950
 C455 C 0.88354 0.53881 0.32994
 C456 C 0.89866 0.56335 0.31487
 C457 C 0.88671 0.57568 0.28925
 H458 H 0.86693 0.56657 0.27966
 O459 O 1.10606 0.47132 0.35374
 O460 O 1.14026 0.47131 0.31950
 C461 C 1.11647 0.46119 0.32994
 C462 C 1.10134 0.43666 0.31487
 C463 C 1.11329 0.42432 0.28925
 H464 H 1.13307 0.43344 0.27966
 O465 O 1.02868 0.35374 0.39394
 O466 O 1.02870 0.31950 0.35974
 C467 C 1.03882 0.32994 0.38353
 C468 C 1.06335 0.31487 0.39866
 C469 C 1.07568 0.28925 0.38670
 H470 H 1.06657 0.27966 0.36693
 O471 O 0.97132 0.64627 0.39394
 O472 O 0.97130 0.68050 0.35974
 C473 C 0.96119 0.67007 0.38354
 C474 C 0.93665 0.68513 0.39866
 C475 C 0.92432 0.71075 0.38671
 H476 H 0.93343 0.72034 0.36694
 O477 O 0.85374 0.60606 0.47132
 O478 O 0.81950 0.64026 0.47131
 C479 C 0.82993 0.61646 0.46119
 C480 C 0.81487 0.60134 0.43666
 C481 C 0.78925 0.61329 0.42432
 H482 H 0.77966 0.63306 0.43344
 O483 O 1.14627 0.39394 0.47132
 O484 O 1.18050 0.35974 0.47130
 C485 C 1.17007 0.38354 0.46119
 C486 C 1.18513 0.39866 0.43665
 C487 C 1.21075 0.38671 0.42432
 H488 H 1.22035 0.36694 0.43343
 O489 O 0.97132 0.60606 0.35374
 O490 O 0.97131 0.64026 0.31950
 C491 C 0.96119 0.61647 0.32994
 C492 C 0.93665 0.60134 0.31487
 C493 C 0.92432 0.61330 0.28925
 H494 H 0.93343 0.63307 0.27966
 O495 O 1.02868 0.39394 0.35374
 O496 O 1.02870 0.35974 0.31950
 C497 C 1.03881 0.38354 0.32993
 C498 C 1.06335 0.39867 0.31487
 C499 C 1.07568 0.38671 0.28925
 H500 H 1.06657 0.36694 0.27965
 O501 O 1.14627 0.47132 0.39394
 O502 O 1.18050 0.47131 0.35974
 C503 C 1.17007 0.46119 0.38354
 C504 C 1.18513 0.43666 0.39866
 C505 C 1.21075 0.42432 0.38671
 H506 H 1.22034 0.43344 0.36693
 O507 O 0.85374 0.52868 0.39394
 O508 O 0.81950 0.52869 0.35974
 C509 C 0.82994 0.53881 0.38354
 C510 C 0.81487 0.56334 0.39866
 C511 C 0.78925 0.57568 0.38671
 H512 H 0.77966 0.56657 0.36694
 O513 O 0.89394 0.64626 0.47132
 O514 O 0.85974 0.68050 0.47131
 C515 C 0.88353 0.67006 0.46119
 C516 C 0.89866 0.68513 0.43666
 C517 C 0.88670 0.71075 0.42432
 H518 H 0.86693 0.72034 0.43344
 O519 O 1.10606 0.35374 0.47132
 O520 O 1.14026 0.31950 0.47130
 C521 C 1.11647 0.32994 0.46118
 C522 C 1.10134 0.31487 0.43665
 C523 C 1.11330 0.28925 0.42432
 H524 H 1.13307 0.27966 0.43343
 O525 O 1.10606 0.52868 0.35374
 O526 O 1.14026 0.52870 0.31950
 C527 C 1.11647 0.53882 0.32994
 C528 C 1.10134 0.56335 0.31487
 C529 C 1.11329 0.57568 0.28925
 H530 H 1.13307 0.56657 0.27966
 O531 O 0.89394 0.47132 0.35374
 O532 O 0.85974 0.47131 0.31950
 C533 C 0.88354 0.46119 0.32994
 C534 C 0.89866 0.43666 0.31487
 C535 C 0.88671 0.42432 0.28925
 H536 H 0.86693 0.43343 0.27966
 O537 O 1.02868 0.64627 0.39394
 O538 O 1.02869 0.68050 0.35974
 C539 C 1.03881 0.67007 0.38354
 C540 C 1.06334 0.68513 0.39867
 C541 C 1.07568 0.71076 0.38671
 H542 H 1.06657 0.72035 0.36694
 O543 O 0.97132 0.35374 0.39394
 O544 O 0.97131 0.31950 0.35974
 C545 C 0.96119 0.32993 0.38354
 C546 C 0.93666 0.31487 0.39866
 C547 C 0.92432 0.28925 0.38671
 H548 H 0.93344 0.27965 0.36694
 O549 O 1.14626 0.60606 0.47132
 O550 O 1.18050 0.64026 0.47131
 C551 C 1.17007 0.61647 0.46119
 C552 C 1.18513 0.60134 0.43666
 C553 C 1.21075 0.61330 0.42432
 H554 H 1.22034 0.63307 0.43344
 O555 O 0.85374 0.39394 0.47132
 O556 O 0.81950 0.35974 0.47130
 C557 C 0.82994 0.38353 0.46119
 C558 C 0.81487 0.39866 0.43665
 C559 C 0.78925 0.38670 0.42432
 H560 H 0.77966 0.36693 0.43343
 Cu561 Cu 1.00000 0.37726 0.37726
 Cu562 Cu 1.00000 0.33619 0.33619
 Cu563 Cu 1.00000 0.62274 0.37726
 Cu564 Cu 1.00000 0.66381 0.33619
 Cu565 Cu 0.87726 0.50000 0.37726
 Cu566 Cu 0.83619 0.50000 0.33619
 Cu567 Cu 1.12274 0.50000 0.37726
 Cu568 Cu 1.16381 0.50000 0.33619
 C569 C 0.92385 0.42385 0.32732
 H570 H 0.93287 0.43287 0.34738
 C571 C 0.89941 0.39941 0.27657
 C572 C 1.07615 0.57615 0.32732
 H573 H 1.06713 0.56713 0.34738
 C574 C 1.10059 0.60059 0.27657
 C575 C 0.82732 0.42385 0.42385
 H576 H 0.84738 0.43287 0.43287
 C577 C 0.77658 0.39941 0.39941
 C578 C 1.17268 0.57615 0.42385
 H579 H 1.15262 0.56713 0.43287
 C580 C 1.22343 0.60059 0.39941
 C581 C 0.92386 0.32732 0.42385
 H582 H 0.93287 0.34738 0.43287
 C583 C 0.89942 0.27657 0.39941
 C584 C 1.07615 0.67268 0.42385
 H585 H 1.06713 0.65262 0.43287
 C586 C 1.10059 0.72343 0.39941
 C587 C 0.92385 0.57615 0.32732
 H588 H 0.93287 0.56713 0.34738
 C589 C 0.89941 0.60059 0.27658
 C590 C 1.07615 0.42385 0.32732
 H591 H 1.06713 0.43287 0.34738
 C592 C 1.10059 0.39941 0.27657
 C593 C 1.07615 0.32732 0.42385
 H594 H 1.06713 0.34738 0.43287
 C595 C 1.10060 0.27658 0.39941
 C596 C 0.92385 0.67268 0.42385
 H597 H 0.93287 0.65262 0.43287
 C598 C 0.89941 0.72343 0.39941
 C599 C 0.82732 0.57615 0.42385
 H600 H 0.84738 0.56713 0.43287
 C601 C 0.77657 0.60059 0.39941
 C602 C 1.17268 0.42385 0.42385
 H603 H 1.15262 0.43287 0.43287
 C604 C 1.22343 0.39941 0.39941
 O605 O 1.02868 0.39394 0.64626
 O606 O 1.02870 0.35974 0.68050
 C607 C 1.03881 0.38353 0.67006
 C608 C 1.06335 0.39866 0.68513
 C609 C 1.07568 0.38670 0.71075
 H610 H 1.06657 0.36693 0.72034
 O611 O 0.97132 0.60606 0.64627
 O612 O 0.97130 0.64026 0.68051
 C613 C 0.96119 0.61646 0.67007
 C614 C 0.93665 0.60134 0.68514
 C615 C 0.92432 0.61329 0.71076
 H616 H 0.93343 0.63306 0.72035
 O617 O 0.85374 0.52868 0.60606
 O618 O 0.81950 0.52869 0.64026
 C619 C 0.82994 0.53881 0.61647
 C620 C 0.81487 0.56334 0.60134
 C621 C 0.78925 0.57568 0.61330
 H622 H 0.77966 0.56657 0.63307
 O623 O 1.14627 0.47132 0.60606
 O624 O 1.18050 0.47131 0.64026
 C625 C 1.17007 0.46119 0.61646
 C626 C 1.18513 0.43666 0.60134
 C627 C 1.21075 0.42432 0.61329
 H628 H 1.22035 0.43343 0.63306
 O629 O 1.10606 0.35374 0.52868
 O630 O 1.14026 0.31950 0.52869
 C631 C 1.11647 0.32993 0.53881
 C632 C 1.10134 0.31487 0.56334
 C633 C 1.11329 0.28924 0.57567
 H634 H 1.13306 0.27965 0.56656
 O635 O 0.89394 0.64626 0.52868
 O636 O 0.85974 0.68050 0.52870
 C637 C 0.88353 0.67006 0.53882
 C638 C 0.89866 0.68513 0.56335
 C639 C 0.88671 0.71075 0.57568
 H640 H 0.86693 0.72034 0.56657
 O641 O 0.89394 0.47132 0.64627
 O642 O 0.85974 0.47130 0.68050
 C643 C 0.88354 0.46118 0.67007
 C644 C 0.89866 0.43665 0.68513
 C645 C 0.88671 0.42432 0.71075
 H646 H 0.86694 0.43343 0.72034
 O647 O 1.10606 0.52868 0.64627
 O648 O 1.14026 0.52869 0.68050
 C649 C 1.11646 0.53881 0.67007
 C650 C 1.10134 0.56334 0.68514
 C651 C 1.11329 0.57568 0.71076
 H652 H 1.13307 0.56656 0.72035
 O653 O 0.97132 0.35373 0.60606
 O654 O 0.97131 0.31949 0.64026
 C655 C 0.96119 0.32993 0.61647
 C656 C 0.93665 0.31486 0.60134
 C657 C 0.92432 0.28925 0.61330
 H658 H 0.93343 0.27966 0.63307
 O659 O 1.02868 0.64626 0.60606
 O660 O 1.02869 0.68050 0.64027
 C661 C 1.03881 0.67006 0.61647
 C662 C 1.06335 0.68513 0.60134
 C663 C 1.07568 0.71075 0.61330
 H664 H 1.06657 0.72034 0.63307
 O665 O 0.85374 0.39394 0.52868
 O666 O 0.81950 0.35974 0.52869
 C667 C 0.82994 0.38353 0.53881
 C668 C 0.81487 0.39866 0.56334
 C669 C 0.78925 0.38670 0.57568
 H670 H 0.77966 0.36693 0.56657
 O671 O 1.14626 0.60606 0.52868
 O672 O 1.18050 0.64026 0.52870
 C673 C 1.17006 0.61647 0.53882
 C674 C 1.18513 0.60134 0.56335
 C675 C 1.21075 0.61330 0.57568
 H676 H 1.22034 0.63307 0.56657
 O677 O 1.02868 0.60606 0.64627
 O678 O 1.02869 0.64026 0.68051
 C679 C 1.03881 0.61646 0.67007
 C680 C 1.06334 0.60134 0.68514
 C681 C 1.07568 0.61329 0.71076
 H682 H 1.06657 0.63306 0.72035
 O683 O 0.97132 0.39394 0.64626
 O684 O 0.97131 0.35974 0.68050
 C685 C 0.96119 0.38353 0.67006
 C686 C 0.93666 0.39866 0.68513
 C687 C 0.92432 0.38670 0.71075
 H688 H 0.93343 0.36693 0.72034
 O689 O 1.14626 0.52868 0.60606
 O690 O 1.18050 0.52869 0.64026
 C691 C 1.17006 0.53881 0.61647
 C692 C 1.18513 0.56335 0.60134
 C693 C 1.21075 0.57568 0.61330
 H694 H 1.22034 0.56657 0.63307
 O695 O 0.85374 0.47132 0.60606
 O696 O 0.81950 0.47130 0.64026
 C697 C 0.82994 0.46118 0.61647
 C698 C 0.81487 0.43665 0.60134
 C699 C 0.78925 0.42432 0.61329
 H700 H 0.77966 0.43343 0.63307
 O701 O 1.10606 0.64626 0.52868
 O702 O 1.14026 0.68050 0.52870
 C703 C 1.11646 0.67007 0.53882
 C704 C 1.10134 0.68513 0.56335
 C705 C 1.11329 0.71075 0.57568
 H706 H 1.13307 0.72034 0.56657
 O707 O 0.89394 0.35373 0.52868
 O708 O 0.85974 0.31950 0.52869
 C709 C 0.88354 0.32993 0.53881
 C710 C 0.89866 0.31487 0.56335
 C711 C 0.88670 0.28925 0.57568
 H712 H 0.86693 0.27966 0.56657
 O713 O 1.10606 0.47132 0.64626
 O714 O 1.14026 0.47130 0.68050
 C715 C 1.11647 0.46118 0.67006
 C716 C 1.10134 0.43665 0.68513
 C717 C 1.11330 0.42432 0.71075
 H718 H 1.13307 0.43343 0.72034
 O719 O 0.89394 0.52868 0.64627
 O720 O 0.85974 0.52869 0.68050
 C721 C 0.88353 0.53881 0.67007
 C722 C 0.89866 0.56334 0.68514
 C723 C 0.88671 0.57568 0.71076
 H724 H 0.86693 0.56656 0.72035
 O725 O 0.97132 0.64626 0.60606
 O726 O 0.97130 0.68050 0.64027
 C727 C 0.96119 0.67006 0.61647
 C728 C 0.93665 0.68513 0.60134
 C729 C 0.92432 0.71075 0.61330
 H730 H 0.93343 0.72034 0.63307
 O731 O 1.02868 0.35373 0.60606
 O732 O 1.02869 0.31950 0.64026
 C733 C 1.03881 0.32993 0.61646
 C734 C 1.06334 0.31487 0.60133
 C735 C 1.07568 0.28924 0.61329
 H736 H 1.06656 0.27965 0.63306
 O737 O 1.14627 0.39394 0.52868
 O738 O 1.18050 0.35974 0.52869
 C739 C 1.17007 0.38354 0.53881
 C740 C 1.18513 0.39866 0.56334
 C741 C 1.21075 0.38671 0.57568
 H742 H 1.22035 0.36694 0.56657
 O743 O 0.85374 0.60606 0.52868
 O744 O 0.81950 0.64026 0.52870
 C745 C 0.82993 0.61646 0.53882
 C746 C 0.81487 0.60134 0.56335
 C747 C 0.78925 0.61329 0.57568
 H748 H 0.77966 0.63307 0.56657
 Cu749 Cu 1.00000 0.37726 0.62274
 Cu750 Cu 1.00000 0.33619 0.66381
 Cu751 Cu 1.00000 0.62274 0.62274
 Cu752 Cu 1.00000 0.66381 0.66381
 Cu753 Cu 0.87726 0.37726 0.50000
 Cu754 Cu 0.83619 0.33619 0.50000
 Cu755 Cu 1.12274 0.37726 0.50000
 Cu756 Cu 1.16381 0.33619 0.50000
 Cu757 Cu 0.87726 0.62274 0.50000
 Cu758 Cu 0.83619 0.66381 0.50000
 Cu759 Cu 1.12274 0.62274 0.50000
 Cu760 Cu 1.16381 0.66381 0.50000
 Cu761 Cu 0.87726 0.50000 0.62274
 Cu762 Cu 0.83619 0.50000 0.66381
 Cu763 Cu 1.12274 0.50000 0.62274
 Cu764 Cu 1.16381 0.50000 0.66381
 C765 C 1.07615 0.42385 0.67268
 H766 H 1.06713 0.43287 0.65262
 C767 C 1.10059 0.39941 0.72343
 C768 C 0.92385 0.57615 0.67268
 H769 H 0.93287 0.56713 0.65262
 C770 C 0.89941 0.60059 0.72343
 C771 C 0.82732 0.57615 0.57615
 H772 H 0.84738 0.56713 0.56713
 C773 C 0.77657 0.60059 0.60059
 C774 C 1.17268 0.42385 0.57615
 H775 H 1.15262 0.43287 0.56713
 C776 C 1.22343 0.39941 0.60059
 C777 C 1.07615 0.32732 0.57615
 H778 H 1.06713 0.34738 0.56713
 C779 C 1.10059 0.27657 0.60058
 C780 C 0.92385 0.67268 0.57615
 H781 H 0.93287 0.65262 0.56713
 C782 C 0.89941 0.72343 0.60059
 C783 C 0.92385 0.42385 0.67268
 H784 H 0.93287 0.43287 0.65262
 C785 C 0.89941 0.39941 0.72343
 C786 C 1.07615 0.57615 0.67268
 H787 H 1.06713 0.56713 0.65262
 C788 C 1.10059 0.60059 0.72343
 C789 C 0.92385 0.32732 0.57615
 H790 H 0.93287 0.34738 0.56713
 C791 C 0.89941 0.27657 0.60059
 C792 C 1.07615 0.67268 0.57615
 H793 H 1.06713 0.65262 0.56713
 C794 C 1.10059 0.72343 0.60059
 C795 C 0.82732 0.42385 0.57615
 H796 H 0.84738 0.43287 0.56713
 C797 C 0.77657 0.39941 0.60059
 C798 C 1.17268 0.57615 0.57615
 H799 H 1.15262 0.56713 0.56713
 C800 C 1.22343 0.60059 0.60059
 O801 O 0.47132 0.89394 0.35374
 O802 O 0.47130 0.85974 0.31950
 C803 C 0.46119 0.88354 0.32994
 C804 C 0.43665 0.89866 0.31487
 C805 C 0.42432 0.88670 0.28925
 H806 H 0.43343 0.86693 0.27966
 O807 O 0.52868 1.10606 0.35374
 O808 O 0.52870 1.14026 0.31950
 C809 C 0.53882 1.11647 0.32994
 C810 C 0.56335 1.10134 0.31487
 C811 C 0.57568 1.11330 0.28925
 H812 H 0.56657 1.13307 0.27966
 O813 O 0.35373 0.97132 0.39394
 O814 O 0.31950 0.97131 0.35974
 C815 C 0.32993 0.96119 0.38354
 C816 C 0.31487 0.93666 0.39866
 C817 C 0.28924 0.92432 0.38671
 H818 H 0.27965 0.93344 0.36694
 O819 O 0.64627 1.02868 0.39394
 O820 O 0.68050 1.02869 0.35974
 C821 C 0.67007 1.03881 0.38354
 C822 C 0.68513 1.06334 0.39866
 C823 C 0.71076 1.07568 0.38671
 H824 H 0.72035 1.06656 0.36694
 O825 O 0.39394 0.85374 0.47132
 O826 O 0.35974 0.81950 0.47131
 C827 C 0.38353 0.82994 0.46119
 C828 C 0.39866 0.81487 0.43666
 C829 C 0.38670 0.78925 0.42432
 H830 H 0.36693 0.77966 0.43343
 O831 O 0.60606 1.14626 0.47132
 O832 O 0.64026 1.18050 0.47131
 C833 C 0.61647 1.17006 0.46119
 C834 C 0.60134 1.18513 0.43665
 C835 C 0.61330 1.21075 0.42432
 H836 H 0.63307 1.22034 0.43343
 O837 O 0.39394 1.02868 0.35374
 O838 O 0.35974 1.02869 0.31950
 C839 C 0.38354 1.03881 0.32993
 C840 C 0.39866 1.06335 0.31487
 C841 C 0.38671 1.07568 0.28925
 H842 H 0.36694 1.06657 0.27965
 O843 O 0.60606 0.97132 0.35374
 O844 O 0.64026 0.97130 0.31950
 C845 C 0.61646 0.96119 0.32994
 C846 C 0.60134 0.93665 0.31487
 C847 C 0.61329 0.92432 0.28925
 H848 H 0.63306 0.93343 0.27966
 O849 O 0.52868 0.85374 0.39394
 O850 O 0.52869 0.81950 0.35974
 C851 C 0.53881 0.82994 0.38354
 C852 C 0.56334 0.81487 0.39866
 C853 C 0.57568 0.78925 0.38671
 H854 H 0.56657 0.77966 0.36694
 O855 O 0.47132 1.14627 0.39394
 O856 O 0.47131 1.18050 0.35974
 C857 C 0.46119 1.17007 0.38353
 C858 C 0.43666 1.18513 0.39866
 C859 C 0.42432 1.21075 0.38670
 H860 H 0.43343 1.22034 0.36693
 O861 O 0.35374 1.10606 0.47132
 O862 O 0.31950 1.14026 0.47130
 C863 C 0.32993 1.11647 0.46118
 C864 C 0.31487 1.10134 0.43665
 C865 C 0.28925 1.11330 0.42431
 H866 H 0.27966 1.13307 0.43343
 O867 O 0.64626 0.89394 0.47132
 O868 O 0.68050 0.85974 0.47131
 C869 C 0.67006 0.88353 0.46119
 C870 C 0.68513 0.89866 0.43666
 C871 C 0.71075 0.88670 0.42432
 H872 H 0.72034 0.86693 0.43343
 O873 O 0.47132 1.10606 0.35374
 O874 O 0.47131 1.14026 0.31950
 C875 C 0.46119 1.11646 0.32993
 C876 C 0.43666 1.10134 0.31487
 C877 C 0.42432 1.11329 0.28925
 H878 H 0.43344 1.13306 0.27966
 O879 O 0.52868 0.89394 0.35374
 O880 O 0.52869 0.85974 0.31950
 C881 C 0.53881 0.88354 0.32994
 C882 C 0.56334 0.89866 0.31487
 C883 C 0.57568 0.88671 0.28925
 H884 H 0.56657 0.86693 0.27966
 O885 O 0.64626 0.97132 0.39394
 O886 O 0.68050 0.97130 0.35974
 C887 C 0.67006 0.96119 0.38354
 C888 C 0.68513 0.93665 0.39866
 C889 C 0.71075 0.92432 0.38671
 H890 H 0.72034 0.93343 0.36694
 O891 O 0.35373 1.02868 0.39394
 O892 O 0.31950 1.02870 0.35974
 C893 C 0.32993 1.03882 0.38353
 C894 C 0.31487 1.06335 0.39866
 C895 C 0.28925 1.07569 0.38670
 H896 H 0.27966 1.06657 0.36693
 O897 O 0.39394 1.14627 0.47132
 O898 O 0.35974 1.18050 0.47130
 C899 C 0.38354 1.17007 0.46119
 C900 C 0.39866 1.18513 0.43665
 C901 C 0.38671 1.21075 0.42432
 H902 H 0.36693 1.22034 0.43343
 O903 O 0.60606 0.85374 0.47132
 O904 O 0.64026 0.81950 0.47131
 C905 C 0.61646 0.82993 0.46119
 C906 C 0.60134 0.81487 0.43666
 C907 C 0.61329 0.78925 0.42432
 H908 H 0.63306 0.77966 0.43343
 O909 O 0.60606 1.02868 0.35374
 O910 O 0.64026 1.02869 0.31950
 C911 C 0.61647 1.03881 0.32994
 C912 C 0.60134 1.06335 0.31487
 C913 C 0.61330 1.07568 0.28925
 H914 H 0.63307 1.06657 0.27966
 O915 O 0.39394 0.97132 0.35374
 O916 O 0.35974 0.97131 0.31950
 C917 C 0.38353 0.96119 0.32994
 C918 C 0.39866 0.93665 0.31487
 C919 C 0.38670 0.92432 0.28925
 H920 H 0.36693 0.93343 0.27966
 O921 O 0.52868 1.14626 0.39394
 O922 O 0.52870 1.18050 0.35974
 C923 C 0.53881 1.17007 0.38354
 C924 C 0.56335 1.18513 0.39866
 C925 C 0.57568 1.21075 0.38671
 H926 H 0.56657 1.22034 0.36693
 O927 O 0.47132 0.85374 0.39394
 O928 O 0.47130 0.81950 0.35974
 C929 C 0.46119 0.82994 0.38354
 C930 C 0.43665 0.81487 0.39866
 C931 C 0.42432 0.78925 0.38671
 H932 H 0.43343 0.77966 0.36694
 O933 O 0.64627 1.10606 0.47132
 O934 O 0.68050 1.14026 0.47131
 C935 C 0.67007 1.11646 0.46119
 C936 C 0.68513 1.10134 0.43666
 C937 C 0.71075 1.11329 0.42432
 H938 H 0.72035 1.13306 0.43344
 O939 O 0.35373 0.89394 0.47132
 O940 O 0.31950 0.85974 0.47131
 C941 C 0.32993 0.88354 0.46119
 C942 C 0.31487 0.89867 0.43666
 C943 C 0.28924 0.88671 0.42432
 H944 H 0.27965 0.86694 0.43344
 Cu945 Cu 0.50000 0.87726 0.37726
 Cu946 Cu 0.50000 0.83619 0.33619
 Cu947 Cu 0.50000 1.12274 0.37726
 Cu948 Cu 0.50000 1.16381 0.33619
 Cu949 Cu 0.37726 1.00000 0.37726
 Cu950 Cu 0.33619 1.00000 0.33619
 Cu951 Cu 0.62274 1.00000 0.37726
 Cu952 Cu 0.66381 1.00000 0.33619
 C953 C 0.42385 0.92385 0.32732
 H954 H 0.43287 0.93287 0.34738
 C955 C 0.39941 0.89941 0.27657
 C956 C 0.57615 1.07615 0.32732
 H957 H 0.56713 1.06713 0.34738
 C958 C 0.60059 1.10059 0.27657
 C959 C 0.32732 0.92386 0.42385
 H960 H 0.34738 0.93287 0.43287
 C961 C 0.27657 0.89942 0.39941
 C962 C 0.67268 1.07615 0.42385
 H963 H 0.65262 1.06713 0.43287
 C964 C 0.72343 1.10059 0.39941
 C965 C 0.42385 0.82732 0.42385
 H966 H 0.43287 0.84738 0.43287
 C967 C 0.39941 0.77657 0.39941
 C968 C 0.57615 1.17268 0.42385
 H969 H 0.56713 1.15262 0.43287
 C970 C 0.60059 1.22343 0.39941
 C971 C 0.42385 1.07615 0.32732
 H972 H 0.43287 1.06713 0.34738
 C973 C 0.39941 1.10059 0.27657
 C974 C 0.57615 0.92385 0.32732
 H975 H 0.56713 0.93287 0.34738
 C976 C 0.60059 0.89941 0.27657
 C977 C 0.57615 0.82732 0.42385
 H978 H 0.56713 0.84738 0.43287
 C979 C 0.60059 0.77657 0.39941
 C980 C 0.42385 1.17268 0.42385
 H981 H 0.43287 1.15262 0.43287
 C982 C 0.39941 1.22343 0.39941
 C983 C 0.32732 1.07615 0.42385
 H984 H 0.34738 1.06713 0.43287
 C985 C 0.27658 1.10060 0.39940
 C986 C 0.67268 0.92385 0.42385
 H987 H 0.65262 0.93287 0.43287
 C988 C 0.72343 0.89941 0.39941
 O989 O 0.52868 0.89394 0.64627
 O990 O 0.52869 0.85974 0.68051
 C991 C 0.53881 0.88353 0.67007
 C992 C 0.56335 0.89866 0.68514
 C993 C 0.57568 0.88670 0.71075
 H994 H 0.56657 0.86693 0.72034
 O995 O 0.47132 1.10606 0.64626
 O996 O 0.47130 1.14026 0.68050
 C997 C 0.46119 1.11647 0.67006
 C998 C 0.43665 1.10134 0.68513
 C999 C 0.42432 1.11330 0.71075
 H1000 H 0.43343 1.13307 0.72034
 O1001 O 0.35373 1.02868 0.60606
 O1002 O 0.31950 1.02870 0.64026
 C1003 C 0.32993 1.03881 0.61646
 C1004 C 0.31487 1.06334 0.60133
 C1005 C 0.28924 1.07568 0.61329
 H1006 H 0.27965 1.06656 0.63306
 O1007 O 0.64626 0.97132 0.60606
 O1008 O 0.68050 0.97131 0.64026
 C1009 C 0.67006 0.96119 0.61647
 C1010 C 0.68513 0.93665 0.60134
 C1011 C 0.71075 0.92432 0.61330
 H1012 H 0.72034 0.93343 0.63307
 O1013 O 0.60606 0.85374 0.52868
 O1014 O 0.64026 0.81950 0.52870
 C1015 C 0.61646 0.82993 0.53882
 C1016 C 0.60134 0.81487 0.56335
 C1017 C 0.61329 0.78925 0.57568
 H1018 H 0.63306 0.77966 0.56657
 O1019 O 0.39394 1.14627 0.52868
 O1020 O 0.35974 1.18050 0.52869
 C1021 C 0.38353 1.17007 0.53881
 C1022 C 0.39866 1.18513 0.56334
 C1023 C 0.38671 1.21075 0.57568
 H1024 H 0.36693 1.22034 0.56657
 O1025 O 0.39394 0.97132 0.64627
 O1026 O 0.35974 0.97131 0.68050
 C1027 C 0.38353 0.96119 0.67007
 C1028 C 0.39866 0.93666 0.68513
 C1029 C 0.38671 0.92432 0.71076
 H1030 H 0.36693 0.93344 0.72035
 O1031 O 0.60606 1.02868 0.64627
 O1032 O 0.64026 1.02869 0.68050
 C1033 C 0.61646 1.03881 0.67007
 C1034 C 0.60134 1.06334 0.68513
 C1035 C 0.61329 1.07568 0.71076
 H1036 H 0.63306 1.06657 0.72035
 O1037 O 0.47132 0.85374 0.60606
 O1038 O 0.47130 0.81950 0.64026
 C1039 C 0.46118 0.82994 0.61647
 C1040 C 0.43665 0.81487 0.60134
 C1041 C 0.42432 0.78925 0.61330
 H1042 H 0.43343 0.77966 0.63307
 O1043 O 0.52868 1.14627 0.60606
 O1044 O 0.52869 1.18050 0.64026
 C1045 C 0.53881 1.17007 0.61646
 C1046 C 0.56335 1.18513 0.60134
 C1047 C 0.57568 1.21075 0.61329
 H1048 H 0.56657 1.22034 0.63307
 O1049 O 0.35373 0.89394 0.52868
 O1050 O 0.31950 0.85974 0.52870
 C1051 C 0.32993 0.88354 0.53882
 C1052 C 0.31487 0.89866 0.56335
 C1053 C 0.28925 0.88670 0.57568
 H1054 H 0.27966 0.86693 0.56657
 O1055 O 0.64626 1.10606 0.52868
 O1056 O 0.68050 1.14026 0.52870
 C1057 C 0.67006 1.11646 0.53882
 C1058 C 0.68513 1.10134 0.56335
 C1059 C 0.71075 1.11329 0.57568
 H1060 H 0.72034 1.13307 0.56657
 O1061 O 0.52868 1.10606 0.64626
 O1062 O 0.52869 1.14026 0.68050
 C1063 C 0.53881 1.11647 0.67007
 C1064 C 0.56334 1.10134 0.68513
 C1065 C 0.57568 1.11329 0.71075
 H1066 H 0.56656 1.13306 0.72035
 O1067 O 0.47132 0.89394 0.64627
 O1068 O 0.47130 0.85974 0.68050
 C1069 C 0.46119 0.88354 0.67007
 C1070 C 0.43665 0.89867 0.68514
 C1071 C 0.42432 0.88671 0.71076
 H1072 H 0.43343 0.86694 0.72035
 O1073 O 0.64626 1.02868 0.60606
 O1074 O 0.68050 1.02869 0.64026
 C1075 C 0.67006 1.03881 0.61647
 C1076 C 0.68513 1.06335 0.60134
 C1077 C 0.71075 1.07568 0.61330
 H1078 H 0.72034 1.06657 0.63307
 O1079 O 0.35373 0.97132 0.60606
 O1080 O 0.31950 0.97131 0.64026
 C1081 C 0.32993 0.96119 0.61647
 C1082 C 0.31487 0.93665 0.60134
 C1083 C 0.28925 0.92432 0.61330
 H1084 H 0.27966 0.93343 0.63307
 O1085 O 0.60606 1.14626 0.52868
 O1086 O 0.64026 1.18050 0.52870
 C1087 C 0.61647 1.17007 0.53881
 C1088 C 0.60134 1.18513 0.56335
 C1089 C 0.61329 1.21075 0.57568
 H1090 H 0.63307 1.22034 0.56657
 O1091 O 0.39394 0.85374 0.52868
 O1092 O 0.35974 0.81950 0.52870
 C1093 C 0.38353 0.82994 0.53882
 C1094 C 0.39866 0.81487 0.56335
 C1095 C 0.38670 0.78925 0.57568
 H1096 H 0.36693 0.77966 0.56657
 O1097 O 0.60606 0.97132 0.64627
 O1098 O 0.64026 0.97131 0.68050
 C1099 C 0.61646 0.96119 0.67007
 C1100 C 0.60134 0.93665 0.68514
 C1101 C 0.61330 0.92432 0.71075
 H1102 H 0.63307 0.93343 0.72034
 O1103 O 0.39394 1.02868 0.64626
 O1104 O 0.35974 1.02870 0.68050
 C1105 C 0.38353 1.03882 0.67006
 C1106 C 0.39866 1.06335 0.68513
 C1107 C 0.38670 1.07568 0.71075
 H1108 H 0.36693 1.06657 0.72034
 O1109 O 0.47132 1.14627 0.60606
 O1110 O 0.47131 1.18050 0.64026
 C1111 C 0.46119 1.17007 0.61646
 C1112 C 0.43665 1.18513 0.60134
 C1113 C 0.42432 1.21075 0.61329
 H1114 H 0.43343 1.22034 0.63306
 O1115 O 0.52868 0.85374 0.60606
 O1116 O 0.52869 0.81950 0.64026
 C1117 C 0.53881 0.82994 0.61647
 C1118 C 0.56334 0.81487 0.60134
 C1119 C 0.57568 0.78925 0.61330
 H1120 H 0.56657 0.77966 0.63307
 O1121 O 0.64626 0.89394 0.52868
 O1122 O 0.68050 0.85974 0.52870
 C1123 C 0.67006 0.88353 0.53882
 C1124 C 0.68513 0.89866 0.56335
 C1125 C 0.71075 0.88671 0.57568
 H1126 H 0.72034 0.86693 0.56657
 O1127 O 0.35373 1.10606 0.52868
 O1128 O 0.31950 1.14026 0.52869
 C1129 C 0.32993 1.11646 0.53881
 C1130 C 0.31487 1.10134 0.56334
 C1131 C 0.28924 1.11329 0.57567
 H1132 H 0.27965 1.13306 0.56656
 Cu1133 Cu 0.50000 0.87726 0.62274
 Cu1134 Cu 0.50000 0.83619 0.66381
 Cu1135 Cu 0.50000 1.12274 0.62274
 Cu1136 Cu 0.50000 1.16381 0.66381
 Cu1137 Cu 0.37726 0.87726 0.50000
 Cu1138 Cu 0.33619 0.83619 0.50000
 Cu1139 Cu 0.62274 0.87726 0.50000
 Cu1140 Cu 0.66381 0.83619 0.50000
 Cu1141 Cu 0.37726 1.12274 0.50000
 Cu1142 Cu 0.33619 1.16381 0.50000
 Cu1143 Cu 0.62274 1.12274 0.50000
 Cu1144 Cu 0.66381 1.16381 0.50000
 Cu1145 Cu 0.37726 1.00000 0.62274
 Cu1146 Cu 0.33619 1.00000 0.66381
 Cu1147 Cu 0.62274 1.00000 0.62274
 Cu1148 Cu 0.66381 1.00000 0.66381
 C1149 C 0.57615 0.92385 0.67268
 H1150 H 0.56713 0.93287 0.65262
 C1151 C 0.60059 0.89941 0.72343
 C1152 C 0.42385 1.07615 0.67268
 H1153 H 0.43287 1.06713 0.65262
 C1154 C 0.39941 1.10059 0.72343
 C1155 C 0.32732 1.07615 0.57614
 H1156 H 0.34738 1.06713 0.56713
 C1157 C 0.27657 1.10059 0.60058
 C1158 C 0.67268 0.92385 0.57615
 H1159 H 0.65262 0.93287 0.56713
 C1160 C 0.72343 0.89941 0.60059
 C1161 C 0.57615 0.82732 0.57615
 H1162 H 0.56713 0.84738 0.56713
 C1163 C 0.60059 0.77657 0.60059
 C1164 C 0.42385 1.17268 0.57615
 H1165 H 0.43287 1.15262 0.56713
 C1166 C 0.39941 1.22343 0.60059
 C1167 C 0.42385 0.92385 0.67268
 H1168 H 0.43287 0.93287 0.65262
 C1169 C 0.39941 0.89941 0.72343
 C1170 C 0.57615 1.07615 0.67268
 H1171 H 0.56713 1.06713 0.65262
 C1172 C 0.60059 1.10059 0.72343
 C1173 C 0.42385 0.82732 0.57615
 H1174 H 0.43287 0.84738 0.56713
 C1175 C 0.39941 0.77658 0.60059
 C1176 C 0.57615 1.17268 0.57615
 H1177 H 0.56713 1.15262 0.56713
 C1178 C 0.60059 1.22343 0.60059
 C1179 C 0.32732 0.92385 0.57615
 H1180 H 0.34738 0.93287 0.56713
 C1181 C 0.27657 0.89941 0.60060
 C1182 C 0.67268 1.07615 0.57615
 H1183 H 0.65262 1.06713 0.56713
 C1184 C 0.72343 1.10059 0.60059
 O1185 O 0.47132 0.39394 0.85374
 O1186 O 0.47130 0.35974 0.81950
 C1187 C 0.46119 0.38354 0.82993
 C1188 C 0.43665 0.39866 0.81487
 C1189 C 0.42432 0.38671 0.78925
 H1190 H 0.43343 0.36694 0.77966
 O1191 O 0.52868 0.60606 0.85374
 O1192 O 0.52869 0.64026 0.81950
 C1193 C 0.53881 0.61646 0.82994
 C1194 C 0.56334 0.60134 0.81487
 C1195 C 0.57568 0.61329 0.78925
 H1196 H 0.56657 0.63307 0.77966
 O1197 O 0.35373 0.47132 0.89394
 O1198 O 0.31950 0.47131 0.85974
 C1199 C 0.32993 0.46119 0.88353
 C1200 C 0.31487 0.43665 0.89866
 C1201 C 0.28925 0.42432 0.88670
 H1202 H 0.27966 0.43343 0.86693
 O1203 O 0.64626 0.52868 0.89394
 O1204 O 0.68050 0.52869 0.85974
 C1205 C 0.67006 0.53881 0.88354
 C1206 C 0.68513 0.56334 0.89867
 C1207 C 0.71075 0.57568 0.88671
 H1208 H 0.72034 0.56656 0.86694
 O1209 O 0.39394 0.35373 0.97132
 O1210 O 0.35974 0.31950 0.97130
 C1211 C 0.38353 0.32993 0.96119
 C1212 C 0.39866 0.31487 0.93665
 C1213 C 0.38670 0.28925 0.92432
 H1214 H 0.36693 0.27966 0.93343
 O1215 O 0.60606 0.64626 0.97132
 O1216 O 0.64026 0.68050 0.97131
 C1217 C 0.61647 0.67006 0.96119
 C1218 C 0.60134 0.68513 0.93666
 C1219 C 0.61330 0.71075 0.92432
 H1220 H 0.63307 0.72034 0.93343
 O1221 O 0.39394 0.52868 0.85374
 O1222 O 0.35974 0.52870 0.81950
 C1223 C 0.38353 0.53882 0.82994
 C1224 C 0.39866 0.56335 0.81487
 C1225 C 0.38670 0.57568 0.78925
 H1226 H 0.36693 0.56657 0.77966
 O1227 O 0.60606 0.47132 0.85374
 O1228 O 0.64026 0.47130 0.81950
 C1229 C 0.61646 0.46119 0.82994
 C1230 C 0.60134 0.43665 0.81487
 C1231 C 0.61329 0.42432 0.78925
 H1232 H 0.63307 0.43343 0.77966
 O1233 O 0.52868 0.35373 0.89394
 O1234 O 0.52869 0.31950 0.85974
 C1235 C 0.53881 0.32993 0.88354
 C1236 C 0.56334 0.31487 0.89866
 C1237 C 0.57568 0.28924 0.88671
 H1238 H 0.56656 0.27965 0.86694
 O1239 O 0.47132 0.64626 0.89394
 O1240 O 0.47131 0.68050 0.85974
 C1241 C 0.46119 0.67007 0.88354
 C1242 C 0.43665 0.68513 0.89867
 C1243 C 0.42432 0.71075 0.88671
 H1244 H 0.43343 0.72034 0.86694
 O1245 O 0.35373 0.60606 0.97132
 O1246 O 0.31950 0.64026 0.97131
 C1247 C 0.32993 0.61646 0.96119
 C1248 C 0.31487 0.60134 0.93666
 C1249 C 0.28924 0.61329 0.92432
 H1250 H 0.27965 0.63306 0.93344
 O1251 O 0.64626 0.39394 0.97132
 O1252 O 0.68050 0.35974 0.97130
 C1253 C 0.67006 0.38353 0.96119
 C1254 C 0.68513 0.39866 0.93665
 C1255 C 0.71075 0.38670 0.92432
 H1256 H 0.72034 0.36693 0.93343
 O1257 O 0.47132 0.60606 0.85374
 O1258 O 0.47130 0.64026 0.81950
 C1259 C 0.46118 0.61647 0.82994
 C1260 C 0.43665 0.60134 0.81487
 C1261 C 0.42432 0.61330 0.78925
 H1262 H 0.43343 0.63307 0.77966
 O1263 O 0.52868 0.39394 0.85373
 O1264 O 0.52869 0.35974 0.81950
 C1265 C 0.53881 0.38353 0.82993
 C1266 C 0.56335 0.39866 0.81487
 C1267 C 0.57568 0.38670 0.78925
 H1268 H 0.56657 0.36693 0.77966
 O1269 O 0.64626 0.47132 0.89394
 O1270 O 0.68050 0.47130 0.85974
 C1271 C 0.67006 0.46118 0.88354
 C1272 C 0.68513 0.43665 0.89866
 C1273 C 0.71075 0.42432 0.88670
 H1274 H 0.72034 0.43343 0.86693
 O1275 O 0.35373 0.52868 0.89394
 O1276 O 0.31950 0.52869 0.85974
 C1277 C 0.32993 0.53881 0.88354
 C1278 C 0.31487 0.56334 0.89867
 C1279 C 0.28924 0.57568 0.88671
 H1280 H 0.27965 0.56657 0.86694
 O1281 O 0.39394 0.64626 0.97132
 O1282 O 0.35974 0.68050 0.97131
 C1283 C 0.38353 0.67007 0.96119
 C1284 C 0.39866 0.68513 0.93666
 C1285 C 0.38671 0.71075 0.92432
 H1286 H 0.36693 0.72034 0.93344
 O1287 O 0.60606 0.35373 0.97132
 O1288 O 0.64026 0.31950 0.97131
 C1289 C 0.61646 0.32993 0.96119
 C1290 C 0.60134 0.31487 0.93666
 C1291 C 0.61329 0.28924 0.92432
 H1292 H 0.63306 0.27965 0.93344
 O1293 O 0.60606 0.52868 0.85374
 O1294 O 0.64026 0.52869 0.81950
 C1295 C 0.61646 0.53881 0.82994
 C1296 C 0.60134 0.56334 0.81487
 C1297 C 0.61329 0.57568 0.78925
 H1298 H 0.63306 0.56657 0.77966
 O1299 O 0.39394 0.47132 0.85374
 O1300 O 0.35974 0.47131 0.81950
 C1301 C 0.38353 0.46119 0.82994
 C1302 C 0.39866 0.43666 0.81487
 C1303 C 0.38671 0.42432 0.78925
 H1304 H 0.36693 0.43344 0.77966
 O1305 O 0.52868 0.64626 0.89394
 O1306 O 0.52869 0.68050 0.85974
 C1307 C 0.53881 0.67006 0.88354
 C1308 C 0.56335 0.68513 0.89866
 C1309 C 0.57568 0.71075 0.88671
 H1310 H 0.56657 0.72034 0.86693
 O1311 O 0.47132 0.35373 0.89394
 O1312 O 0.47130 0.31950 0.85974
 C1313 C 0.46119 0.32993 0.88353
 C1314 C 0.43665 0.31487 0.89866
 C1315 C 0.42432 0.28925 0.88670
 H1316 H 0.43343 0.27966 0.86693
 O1317 O 0.64626 0.60606 0.97132
 O1318 O 0.68050 0.64026 0.97131
 C1319 C 0.67006 0.61646 0.96119
 C1320 C 0.68513 0.60134 0.93666
 C1321 C 0.71075 0.61329 0.92432
 H1322 H 0.72034 0.63306 0.93344
 O1323 O 0.35373 0.39394 0.97132
 O1324 O 0.31950 0.35974 0.97130
 C1325 C 0.32993 0.38353 0.96119
 C1326 C 0.31487 0.39866 0.93665
 C1327 C 0.28925 0.38670 0.92432
 H1328 H 0.27966 0.36693 0.93343
 Cu1329 Cu 0.50000 0.37726 0.87726
 Cu1330 Cu 0.50000 0.33619 0.83619
 Cu1331 Cu 0.50000 0.62274 0.87727
 Cu1332 Cu 0.50000 0.66381 0.83619
 Cu1333 Cu 0.37726 0.50000 0.87726
 Cu1334 Cu 0.33619 0.50000 0.83619
 Cu1335 Cu 0.62274 0.50000 0.87726
 Cu1336 Cu 0.66381 0.50000 0.83619
 C1337 C 0.42385 0.42385 0.82732
 H1338 H 0.43287 0.43287 0.84738
 C1339 C 0.39941 0.39941 0.77657
 C1340 C 0.57615 0.57615 0.82732
 H1341 H 0.56713 0.56713 0.84739
 C1342 C 0.60059 0.60059 0.77657
 C1343 C 0.32732 0.42385 0.92385
 H1344 H 0.34738 0.43287 0.93287
 C1345 C 0.27657 0.39941 0.89941
 C1346 C 0.67268 0.57615 0.92386
 H1347 H 0.65261 0.56713 0.93287
 C1348 C 0.72343 0.60059 0.89941
 C1349 C 0.42385 0.32732 0.92385
 H1350 H 0.43287 0.34738 0.93287
 C1351 C 0.39941 0.27657 0.89941
 C1352 C 0.57615 0.67268 0.92385
 H1353 H 0.56713 0.65262 0.93287
 C1354 C 0.60059 0.72343 0.89941
 C1355 C 0.42385 0.57615 0.82732
 H1356 H 0.43287 0.56713 0.84738
 C1357 C 0.39941 0.60059 0.77658
 C1358 C 0.57615 0.42385 0.82732
 H1359 H 0.56713 0.43287 0.84738
 C1360 C 0.60059 0.39941 0.77657
 C1361 C 0.57615 0.32732 0.92385
 H1362 H 0.56713 0.34738 0.93287
 C1363 C 0.60059 0.27657 0.89941
 C1364 C 0.42385 0.67268 0.92386
 H1365 H 0.43287 0.65262 0.93287
 C1366 C 0.39941 0.72343 0.89941
 C1367 C 0.32732 0.57615 0.92385
 H1368 H 0.34738 0.56713 0.93287
 C1369 C 0.27657 0.60059 0.89941
 C1370 C 0.67268 0.42385 0.92385
 H1371 H 0.65262 0.43287 0.93287
 C1372 C 0.72343 0.39941 0.89941
 O1373 O 0.52868 0.39394 1.14626
 O1374 O 0.52869 0.35974 1.18050
 C1375 C 0.53881 0.38353 1.17007
 C1376 C 0.56335 0.39866 1.18513
 C1377 C 0.57568 0.38670 1.21075
 H1378 H 0.56657 0.36693 1.22034
 O1379 O 0.47132 0.60606 1.14627
 O1380 O 0.47130 0.64026 1.18050
 C1381 C 0.46119 0.61646 1.17007
 C1382 C 0.43665 0.60134 1.18513
 C1383 C 0.42432 0.61329 1.21076
 H1384 H 0.43343 0.63307 1.22035
 O1385 O 0.35373 0.52868 1.10606
 O1386 O 0.31950 0.52869 1.14026
 C1387 C 0.32993 0.53881 1.11647
 C1388 C 0.31487 0.56335 1.10134
 C1389 C 0.28925 0.57568 1.11330
 H1390 H 0.27966 0.56657 1.13307
 O1391 O 0.64626 0.47132 1.10606
 O1392 O 0.68050 0.47131 1.14026
 C1393 C 0.67006 0.46119 1.11646
 C1394 C 0.68513 0.43666 1.10134
 C1395 C 0.71075 0.42432 1.11329
 H1396 H 0.72034 0.43343 1.13306
 O1397 O 0.60606 0.35373 1.02868
 O1398 O 0.64026 0.31950 1.02870
 C1399 C 0.61647 0.32993 1.03881
 C1400 C 0.60134 0.31487 1.06335
 C1401 C 0.61330 0.28925 1.07568
 H1402 H 0.63307 0.27966 1.06657
 O1403 O 0.39394 0.64626 1.02868
 O1404 O 0.35974 0.68050 1.02870
 C1405 C 0.38353 0.67007 1.03882
 C1406 C 0.39866 0.68513 1.06335
 C1407 C 0.38671 0.71075 1.07568
 H1408 H 0.36693 0.72034 1.06657
 O1409 O 0.39394 0.47132 1.14626
 O1410 O 0.35974 0.47130 1.18050
 C1411 C 0.38354 0.46119 1.17006
 C1412 C 0.39866 0.43665 1.18513
 C1413 C 0.38671 0.42432 1.21075
 H1414 H 0.36693 0.43343 1.22034
 O1415 O 0.60606 0.52868 1.14627
 O1416 O 0.64026 0.52869 1.18050
 C1417 C 0.61646 0.53881 1.17007
 C1418 C 0.60134 0.56334 1.18513
 C1419 C 0.61329 0.57568 1.21076
 H1420 H 0.63306 0.56657 1.22035
 O1421 O 0.47132 0.35374 1.10606
 O1422 O 0.47131 0.31950 1.14026
 C1423 C 0.46119 0.32993 1.11646
 C1424 C 0.43666 0.31487 1.10134
 C1425 C 0.42432 0.28925 1.11329
 H1426 H 0.43343 0.27966 1.13306
 O1427 O 0.52868 0.64626 1.10606
 O1428 O 0.52869 0.68050 1.14026
 C1429 C 0.53881 0.67007 1.11647
 C1430 C 0.56334 0.68513 1.10134
 C1431 C 0.57568 0.71075 1.11330
 H1432 H 0.56657 0.72034 1.13307
 O1433 O 0.35374 0.39394 1.02868
 O1434 O 0.31950 0.35974 1.02869
 C1435 C 0.32994 0.38354 1.03881
 C1436 C 0.31487 0.39866 1.06334
 C1437 C 0.28925 0.38671 1.07568
 H1438 H 0.27966 0.36694 1.06656
 O1439 O 0.64626 0.60606 1.02868
 O1440 O 0.68050 0.64026 1.02870
 C1441 C 0.67007 0.61647 1.03882
 C1442 C 0.68513 0.60134 1.06335
 C1443 C 0.71075 0.61330 1.07569
 H1444 H 0.72034 0.63307 1.06657
 O1445 O 0.52868 0.60606 1.14627
 O1446 O 0.52869 0.64026 1.18050
 C1447 C 0.53881 0.61646 1.17007
 C1448 C 0.56334 0.60134 1.18514
 C1449 C 0.57568 0.61329 1.21076
 H1450 H 0.56657 0.63306 1.22035
 O1451 O 0.47132 0.39394 1.14626
 O1452 O 0.47131 0.35974 1.18050
 C1453 C 0.46119 0.38353 1.17006
 C1454 C 0.43665 0.39866 1.18513
 C1455 C 0.42432 0.38671 1.21075
 H1456 H 0.43343 0.36693 1.22034
 O1457 O 0.64626 0.52868 1.10606
 O1458 O 0.68050 0.52869 1.14026
 C1459 C 0.67007 0.53881 1.11647
 C1460 C 0.68513 0.56335 1.10134
 C1461 C 0.71075 0.57568 1.11330
 H1462 H 0.72034 0.56657 1.13307
 O1463 O 0.35374 0.47132 1.10606
 O1464 O 0.31950 0.47131 1.14026
 C1465 C 0.32994 0.46119 1.11646
 C1466 C 0.31487 0.43666 1.10134
 C1467 C 0.28925 0.42432 1.11329
 H1468 H 0.27966 0.43343 1.13306
 O1469 O 0.60606 0.64626 1.02868
 O1470 O 0.64026 0.68050 1.02870
 C1471 C 0.61646 0.67006 1.03882
 C1472 C 0.60134 0.68513 1.06335
 C1473 C 0.61329 0.71075 1.07568
 H1474 H 0.63306 0.72034 1.06657
 O1475 O 0.39394 0.35374 1.02868
 O1476 O 0.35974 0.31950 1.02869
 C1477 C 0.38354 0.32993 1.03881
 C1478 C 0.39866 0.31487 1.06334
 C1479 C 0.38671 0.28925 1.07568
 H1480 H 0.36694 0.27966 1.06656
 O1481 O 0.60606 0.47132 1.14627
 O1482 O 0.64026 0.47130 1.18050
 C1483 C 0.61647 0.46119 1.17007
 C1484 C 0.60134 0.43665 1.18513
 C1485 C 0.61330 0.42432 1.21075
 H1486 H 0.63307 0.43343 1.22034
 O1487 O 0.39394 0.52868 1.14627
 O1488 O 0.35974 0.52869 1.18050
 C1489 C 0.38353 0.53881 1.17007
 C1490 C 0.39866 0.56334 1.18513
 C1491 C 0.38671 0.57568 1.21075
 H1492 H 0.36693 0.56657 1.22035
 O1493 O 0.47132 0.64626 1.10606
 O1494 O 0.47130 0.68050 1.14026
 C1495 C 0.46119 0.67007 1.11647
 C1496 C 0.43665 0.68513 1.10134
 C1497 C 0.42432 0.71075 1.11330
 H1498 H 0.43343 0.72034 1.13307
 O1499 O 0.52868 0.35373 1.10606
 O1500 O 0.52869 0.31950 1.14026
 C1501 C 0.53881 0.32993 1.11647
 C1502 C 0.56335 0.31487 1.10134
 C1503 C 0.57568 0.28925 1.11330
 H1504 H 0.56657 0.27966 1.13307
 O1505 O 0.64626 0.39394 1.02868
 O1506 O 0.68050 0.35974 1.02869
 C1507 C 0.67006 0.38354 1.03881
 C1508 C 0.68513 0.39866 1.06334
 C1509 C 0.71075 0.38671 1.07568
 H1510 H 0.72034 0.36694 1.06657
 O1511 O 0.35373 0.60606 1.02868
 O1512 O 0.31950 0.64026 1.02870
 C1513 C 0.32993 0.61647 1.03882
 C1514 C 0.31487 0.60134 1.06335
 C1515 C 0.28925 0.61329 1.07568
 H1516 H 0.27966 0.63307 1.06657
 Cu1517 Cu 0.50000 0.37726 1.12274
 Cu1518 Cu 0.50000 0.33619 1.16381
 Cu1519 Cu 0.50000 0.62274 1.12274
 Cu1520 Cu 0.50000 0.66381 1.16381
 Cu1521 Cu 0.37726 0.37726 1.00000
 Cu1522 Cu 0.33619 0.33619 1.00000
 Cu1523 Cu 0.62274 0.37726 1.00000
 Cu1524 Cu 0.66381 0.33619 1.00000
 Cu1525 Cu 0.37726 0.62274 1.00000
 Cu1526 Cu 0.33619 0.66381 1.00000
 Cu1527 Cu 0.62274 0.62274 1.00000
 Cu1528 Cu 0.66381 0.66381 1.00000
 Cu1529 Cu 0.37726 0.50000 1.12274
 Cu1530 Cu 0.33619 0.50000 1.16381
 Cu1531 Cu 0.62274 0.50000 1.12274
 Cu1532 Cu 0.66381 0.50000 1.16381
 C1533 C 0.57615 0.42385 1.17268
 H1534 H 0.56713 0.43287 1.15262
 C1535 C 0.60059 0.39941 1.22343
 C1536 C 0.42385 0.57615 1.17268
 H1537 H 0.43287 0.56713 1.15262
 C1538 C 0.39941 0.60059 1.22343
 C1539 C 0.32732 0.57615 1.07615
 H1540 H 0.34738 0.56713 1.06713
 C1541 C 0.27657 0.60059 1.10059
 C1542 C 0.67268 0.42385 1.07615
 H1543 H 0.65261 0.43287 1.06713
 C1544 C 0.72343 0.39941 1.10059
 C1545 C 0.57615 0.32732 1.07615
 H1546 H 0.56713 0.34738 1.06713
 C1547 C 0.60059 0.27657 1.10059
 C1548 C 0.42385 0.67268 1.07615
 H1549 H 0.43287 0.65262 1.06713
 C1550 C 0.39941 0.72343 1.10059
 C1551 C 0.42385 0.42385 1.17268
 H1552 H 0.43287 0.43287 1.15262
 C1553 C 0.39941 0.39941 1.22343
 C1554 C 0.57615 0.57615 1.17268
 H1555 H 0.56713 0.56713 1.15262
 C1556 C 0.60059 0.60059 1.22343
 C1557 C 0.42385 0.32732 1.07615
 H1558 H 0.43287 0.34738 1.06713
 C1559 C 0.39941 0.27657 1.10059
 C1560 C 0.57615 0.67268 1.07615
 H1561 H 0.56713 0.65262 1.06713
 C1562 C 0.60059 0.72343 1.10059
 C1563 C 0.32732 0.42385 1.07615
 H1564 H 0.34738 0.43287 1.06713
 C1565 C 0.27657 0.39941 1.10059
 C1566 C 0.67268 0.57615 1.07615
 H1567 H 0.65262 0.56713 1.06713
 C1568 C 0.72343 0.60059 1.10060
 C1569 C 1.15663 1.15663 1.30722
 C1570 C 1.14284 1.14284 1.28932
 C1571 C 1.12739 1.12739 1.26737
 C1572 C 1.11482 1.11482 1.24779
 C1573 C 1.15661 0.65661 0.80723
 C1574 C 1.14283 0.64283 0.78933
 C1575 C 1.12738 0.62738 0.76738
 C1576 C 1.11481 0.61480 0.74780
 C1577 C 0.65661 1.15661 0.80723
 C1578 C 0.64282 1.14282 0.78933
 C1579 C 0.62738 1.12738 0.76738
 C1580 C 0.61480 1.11480 0.74780
 C1581 C 0.65661 0.65661 1.30723
 C1582 C 0.64283 0.64283 1.28933
 C1583 C 0.62738 0.62738 1.26738
 C1584 C 0.61481 0.61480 1.24780
 C1585 C 0.84338 0.84338 1.30723
 C1586 C 0.85717 0.85717 1.28933
 C1587 C 0.87262 0.87262 1.26738
 C1588 C 0.88519 0.88519 1.24780
 C1589 C 0.84338 0.34338 0.80723
 C1590 C 0.85717 0.35717 0.78933
 C1591 C 0.87262 0.37262 0.76738
 C1592 C 0.88519 0.38519 0.74780
 C1593 C 0.34339 0.84339 0.80724
 C1594 C 0.35717 0.85718 0.78934
 C1595 C 0.37262 0.87262 0.76739
 C1596 C 0.38519 0.88520 0.74780
 C1597 C 0.34339 0.34339 1.30723
 C1598 C 0.35717 0.35717 1.28933
 C1599 C 0.37262 0.37262 1.26738
 C1600 C 0.38519 0.38519 1.24780
 C1601 C 0.84338 1.15662 0.69278
 C1602 C 0.85716 1.14283 0.71068
 C1603 C 0.87261 1.12738 0.73262
 C1604 C 0.88519 1.11481 0.75220
 C1605 C 0.84338 0.65662 0.19278
 C1606 C 0.85717 0.64283 0.21068
 C1607 C 0.87262 0.62738 0.23262
 C1608 C 0.88519 0.61481 0.25221
 C1609 C 0.34339 1.15661 0.19277
 C1610 C 0.35718 1.14282 0.21067
 C1611 C 0.37262 1.12738 0.23262
 C1612 C 0.38520 1.11481 0.25220
 C1613 C 0.34338 0.65662 0.69278
 C1614 C 0.35717 0.64283 0.71068
 C1615 C 0.37261 0.62739 0.73263
 C1616 C 0.38519 0.61481 0.75221
 C1617 C 1.15662 0.84338 0.69278
 C1618 C 1.14283 0.85717 0.71068
 C1619 C 1.12738 0.87261 0.73263
 C1620 C 1.11481 0.88519 0.75221
 C1621 C 1.15661 0.34339 0.19277
 C1622 C 1.14283 0.35718 0.21067
 C1623 C 1.12738 0.37263 0.23262
 C1624 C 1.11481 0.38520 0.25220
 C1625 C 0.65661 0.84339 0.19277
 C1626 C 0.64283 0.85717 0.21067
 C1627 C 0.62738 0.87262 0.23262
 C1628 C 0.61481 0.88519 0.25220
 C1629 C 0.65661 0.34339 0.69277
 C1630 C 0.64283 0.35717 0.71067
 C1631 C 0.62738 0.37262 0.73262
 C1632 C 0.61481 0.38519 0.75220
 C1633 C 1.30723 1.15661 1.15661
 C1634 C 1.28933 1.14283 1.14282
 C1635 C 1.26738 1.12738 1.12738
 C1636 C 1.24780 1.11481 1.11480
 C1637 C 1.30722 0.65662 0.65662
 C1638 C 1.28933 0.64283 0.64283
 C1639 C 1.26738 0.62738 0.62739
 C1640 C 1.24780 0.61481 0.61481
 C1641 C 0.80722 1.15662 0.65662
 C1642 C 0.78932 1.14283 0.64283
 C1643 C 0.76738 1.12738 0.62739
 C1644 C 0.74780 1.11481 0.61481
 C1645 C 0.80723 0.65662 1.15662
 C1646 C 0.78933 0.64283 1.14284
 C1647 C 0.76738 0.62739 1.12739
 C1648 C 0.74780 0.61481 1.11481
 C1649 C 1.30723 0.84339 0.84339
 C1650 C 1.28933 0.85718 0.85718
 C1651 C 1.26738 0.87262 0.87263
 C1652 C 1.24780 0.88520 0.88520
 C1653 C 1.30723 0.34339 0.34339
 C1654 C 1.28933 0.35717 0.35717
 C1655 C 1.26738 0.37262 0.37262
 C1656 C 1.24780 0.38520 0.38519
 C1657 C 0.80723 0.84338 0.34339
 C1658 C 0.78933 0.85717 0.35717
 C1659 C 0.76738 0.87262 0.37262
 C1660 C 0.74780 0.88519 0.38519
 C1661 C 0.80723 0.34338 0.84338
 C1662 C 0.78933 0.35717 0.85717
 C1663 C 0.76738 0.37262 0.87262
 C1664 C 0.74780 0.38519 0.88519
 C1665 C 0.69277 0.84339 1.15661
 C1666 C 0.71067 0.85717 1.14283
 C1667 C 0.73262 0.87262 1.12738
 C1668 C 0.75220 0.88519 1.11481
 C1669 C 0.69277 0.34339 0.65661
 C1670 C 0.71067 0.35717 0.64283
 C1671 C 0.73262 0.37262 0.62738
 C1672 C 0.75220 0.38519 0.61481
 C1673 C 0.19277 0.84338 0.65662
 C1674 C 0.21067 0.85717 0.64284
 C1675 C 0.23262 0.87261 0.62739
 C1676 C 0.25220 0.88519 0.61481
 C1677 C 0.19277 0.34339 1.15661
 C1678 C 0.21067 0.35718 1.14282
 C1679 C 0.23262 0.37262 1.12738
 C1680 C 0.25220 0.38520 1.11480
 C1681 C 0.69277 1.15661 0.84339
 C1682 C 0.71067 1.14282 0.85718
 C1683 C 0.73262 1.12738 0.87262
 C1684 C 0.75220 1.11481 0.88520
 C1685 C 0.69277 0.65661 0.34339
 C1686 C 0.71067 0.64283 0.35718
 C1687 C 0.73262 0.62738 0.37262
 C1688 C 0.75220 0.61481 0.38520
 C1689 C 0.19278 1.15663 0.34337
 C1690 C 0.21068 1.14284 0.35716
 C1691 C 0.23263 1.12739 0.37261
 C1692 C 0.25221 1.11482 0.38518
 C1693 C 0.19277 0.65661 0.84339
 C1694 C 0.21067 0.64283 0.85718
 C1695 C 0.23262 0.62738 0.87262
 C1696 C 0.25220 0.61480 0.88520
 C1697 C 1.15661 1.30723 1.15661
 C1698 C 1.14283 1.28933 1.14283
 C1699 C 1.12738 1.26738 1.12738
 C1700 C 1.11481 1.24780 1.11480
 C1701 C 1.15662 0.80722 0.65662
 C1702 C 1.14283 0.78933 0.64283
 C1703 C 1.12738 0.76738 0.62739
 C1704 C 1.11481 0.74780 0.61481
 C1705 C 0.65661 1.30723 0.65661
 C1706 C 0.64283 1.28933 0.64283
 C1707 C 0.62738 1.26738 0.62738
 C1708 C 0.61481 1.24780 0.61481
 C1709 C 0.65661 0.80723 1.15661
 C1710 C 0.64283 0.78933 1.14283
 C1711 C 0.62738 0.76738 1.12738
 C1712 C 0.61481 0.74780 1.11481
 C1713 C 0.84338 1.30723 0.84338
 C1714 C 0.85717 1.28933 0.85717
 C1715 C 0.87262 1.26738 0.87262
 C1716 C 0.88519 1.24780 0.88519
 C1717 C 0.84338 0.80723 0.34339
 C1718 C 0.85717 0.78933 0.35717
 C1719 C 0.87262 0.76738 0.37262
 C1720 C 0.88519 0.74780 0.38519
 C1721 C 0.34339 1.30723 0.34339
 C1722 C 0.35717 1.28933 0.35717
 C1723 C 0.37262 1.26738 0.37262
 C1724 C 0.38519 1.24780 0.38519
 C1725 C 0.34339 0.80723 0.84339
 C1726 C 0.35718 0.78933 0.85718
 C1727 C 0.37262 0.76738 0.87262
 C1728 C 0.38519 0.74780 0.88520
 C1729 C 1.15661 0.69277 0.84339
 C1730 C 1.14283 0.71067 0.85718
 C1731 C 1.12738 0.73262 0.87262
 C1732 C 1.11481 0.75220 0.88520
 C1733 C 1.15662 0.19278 0.34338
 C1734 C 1.14284 0.21068 0.35716
 C1735 C 1.12739 0.23263 0.37261
 C1736 C 1.11481 0.25221 0.38519
 C1737 C 0.65661 0.69277 0.34339
 C1738 C 0.64283 0.71067 0.35717
 C1739 C 0.62738 0.73262 0.37262
 C1740 C 0.61481 0.75220 0.38519
 C1741 C 0.65661 0.19277 0.84339
 C1742 C 0.64282 0.21066 0.85718
 C1743 C 0.62738 0.23261 0.87262
 C1744 C 0.61480 0.25220 0.88520
 C1745 C 0.84338 0.69278 1.15662
 C1746 C 0.85717 0.71068 1.14284
 C1747 C 0.87262 0.73262 1.12739
 C1748 C 0.88519 0.75221 1.11481
 C1749 C 0.84338 0.19277 0.65662
 C1750 C 0.85717 0.21067 0.64283
 C1751 C 0.87261 0.23262 0.62739
 C1752 C 0.88519 0.25220 0.61481
 C1753 C 0.34338 0.69278 0.65662
 C1754 C 0.35717 0.71068 0.64283
 C1755 C 0.37261 0.73263 0.62739
 C1756 C 0.38519 0.75221 0.61481
 C1757 C 0.34339 0.19277 1.15661
 C1758 C 0.35718 0.21067 1.14282
 C1759 C 0.37262 0.23262 1.12738
 C1760 C 0.38520 0.25220 1.11480
 C1761 C 1.15661 1.15661 0.69276
 C1762 C 1.14282 1.14282 0.71066
 C1763 C 1.12738 1.12738 0.73261
 C1764 C 1.11480 1.11480 0.75220
 C1765 C 1.15662 0.65662 0.19278
 C1766 C 1.14283 0.64283 0.21068
 C1767 C 1.12738 0.62739 0.23262
 C1768 C 1.11481 0.61481 0.25221
 C1769 C 0.65662 1.15662 0.19278
 C1770 C 0.64283 1.14283 0.21068
 C1771 C 0.62739 1.12738 0.23262
 C1772 C 0.61481 1.11481 0.25221
 C1773 C 0.65661 0.65661 0.69277
 C1774 C 0.64283 0.64283 0.71067
 C1775 C 0.62738 0.62738 0.73262
 C1776 C 0.61481 0.61481 0.75220
 C1777 C 0.84339 0.84339 0.69277
 C1778 C 0.85717 0.85717 0.71067
 C1779 C 0.87262 0.87262 0.73262
 C1780 C 0.88519 0.88519 0.75220
 C1781 C 0.84339 0.34339 0.19277
 C1782 C 0.85717 0.35717 0.21067
 C1783 C 0.87262 0.37262 0.23262
 C1784 C 0.88519 0.38519 0.25220
 C1785 C 0.34338 0.84338 0.19278
 C1786 C 0.35717 0.85717 0.21068
 C1787 C 0.37261 0.87261 0.23262
 C1788 C 0.38519 0.88519 0.25221
 C1789 C 0.34339 0.34339 0.69277
 C1790 C 0.35717 0.35717 0.71067
 C1791 C 0.37262 0.37262 0.73262
 C1792 C 0.38519 0.38520 0.75220
 C1793 C 1.15661 0.84339 1.30724
 C1794 C 1.14282 0.85718 1.28934
 C1795 C 1.12738 0.87263 1.26739
 C1796 C 1.11481 0.88520 1.24780
 C1797 C 1.15662 0.34338 0.80722
 C1798 C 1.14283 0.35717 0.78932
 C1799 C 1.12738 0.37261 0.76738
 C1800 C 1.11481 0.38519 0.74779
 C1801 C 0.65662 0.84338 0.80723
 C1802 C 0.64283 0.85717 0.78933
 C1803 C 0.62738 0.87261 0.76738
 C1804 C 0.61481 0.88519 0.74780
 C1805 C 0.65662 0.34338 1.30723
 C1806 C 0.64283 0.35717 1.28933
 C1807 C 0.62738 0.37261 1.26738
 C1808 C 0.61481 0.38519 1.24780
 C1809 C 0.84339 1.15661 1.30724
 C1810 C 0.85718 1.14282 1.28933
 C1811 C 0.87263 1.12738 1.26738
 C1812 C 0.88520 1.11481 1.24780
 C1813 C 0.84339 0.65661 0.80724
 C1814 C 0.85717 0.64282 0.78934
 C1815 C 0.87262 0.62738 0.76738
 C1816 C 0.88519 0.61480 0.74780
 C1817 C 0.34338 1.15662 0.80722
 C1818 C 0.35716 1.14284 0.78932
 C1819 C 0.37261 1.12739 0.76737
 C1820 C 0.38519 1.11481 0.74779
 C1821 C 0.34339 0.65661 1.30723
 C1822 C 0.35717 0.64283 1.28933
 C1823 C 0.37262 0.62738 1.26738
 C1824 C 0.38519 0.61481 1.24780
 C1825 C 1.15662 1.30722 0.84338
 C1826 C 1.14283 1.28932 0.85717
 C1827 C 1.12738 1.26738 0.87261
 C1828 C 1.11481 1.24780 0.88519
 C1829 C 1.15661 0.80724 0.34339
 C1830 C 1.14282 0.78934 0.35718
 C1831 C 1.12738 0.76738 0.37262
 C1832 C 1.11480 0.74780 0.38520
 C1833 C 0.65662 1.30722 0.34338
 C1834 C 0.64283 1.28933 0.35717
 C1835 C 0.62739 1.26738 0.37262
 C1836 C 0.61481 1.24780 0.38519
 C1837 C 0.65662 0.80722 0.84338
 C1838 C 0.64283 0.78932 0.85717
 C1839 C 0.62738 0.76738 0.87262
 C1840 C 0.61481 0.74779 0.88519
 C1841 C 0.84339 1.30723 1.15661
 C1842 C 0.85717 1.28933 1.14283
 C1843 C 0.87262 1.26738 1.12738
 C1844 C 0.88519 1.24780 1.11481
 C1845 C 0.84339 0.80723 0.65662
 C1846 C 0.85717 0.78933 0.64283
 C1847 C 0.87262 0.76738 0.62738
 C1848 C 0.88519 0.74780 0.61481
 C1849 C 0.34339 1.30723 0.65661
 C1850 C 0.35717 1.28933 0.64283
 C1851 C 0.37262 1.26738 0.62738
 C1852 C 0.38519 1.24780 0.61481
 C1853 C 0.34338 0.80722 1.15662
 C1854 C 0.35717 0.78933 1.14283
 C1855 C 0.37262 0.76738 1.12739
 C1856 C 0.38519 0.74780 1.11481
 C1857 C 0.84339 0.69277 0.84339
 C1858 C 0.85717 0.71067 0.85718
 C1859 C 0.87262 0.73262 0.87262
 C1860 C 0.88519 0.75220 0.88520
 C1861 C 0.84339 0.19276 0.34339
 C1862 C 0.85718 0.21066 0.35718
 C1863 C 0.87263 0.23261 0.37262
 C1864 C 0.88520 0.25220 0.38520
 C1865 C 0.34339 0.69277 0.34339
 C1866 C 0.35717 0.71067 0.35717
 C1867 C 0.37262 0.73262 0.37262
 C1868 C 0.38519 0.75220 0.38519
 C1869 C 0.34338 0.19278 0.84338
 C1870 C 0.35716 0.21068 0.85716
 C1871 C 0.37261 0.23262 0.87261
 C1872 C 0.38519 0.25220 0.88519
 C1873 C 1.15662 0.69278 1.15662
 C1874 C 1.14283 0.71068 1.14283
 C1875 C 1.12738 0.73262 1.12739
 C1876 C 1.11481 0.75221 1.11481
 C1877 C 1.15661 0.19276 0.65661
 C1878 C 1.14282 0.21066 0.64282
 C1879 C 1.12738 0.23261 0.62737
 C1880 C 1.11480 0.25220 0.61480
 C1881 C 0.65661 0.69277 0.65662
 C1882 C 0.64283 0.71067 0.64283
 C1883 C 0.62738 0.73262 0.62738
 C1884 C 0.61481 0.75220 0.61481
 C1885 C 0.65662 0.19277 1.15662
 C1886 C 0.64283 0.21067 1.14283
 C1887 C 0.62738 0.23262 1.12738
 C1888 C 0.61481 0.25220 1.11481
 C1889 C 1.30722 1.15662 0.84338
 C1890 C 1.28932 1.14284 0.85716
 C1891 C 1.26737 1.12739 0.87261
 C1892 C 1.24779 1.11481 0.88518
 C1893 C 1.30723 0.65662 0.34339
 C1894 C 1.28933 0.64283 0.35717
 C1895 C 1.26738 0.62738 0.37262
 C1896 C 1.24780 0.61481 0.38520
 C1897 C 0.80724 1.15661 0.34339
 C1898 C 0.78934 1.14282 0.35718
 C1899 C 0.76739 1.12738 0.37262
 C1900 C 0.74780 1.11480 0.38520
 C1901 C 0.80723 0.65661 0.84339
 C1902 C 0.78933 0.64282 0.85718
 C1903 C 0.76738 0.62738 0.87263
 C1904 C 0.74780 0.61480 0.88520
 C1905 C 1.30722 0.84338 1.15662
 C1906 C 1.28933 0.85717 1.14284
 C1907 C 1.26738 0.87261 1.12739
 C1908 C 1.24780 0.88519 1.11481
 C1909 C 1.30723 0.34339 0.65661
 C1910 C 1.28933 0.35717 0.64283
 C1911 C 1.26738 0.37262 0.62738
 C1912 C 1.24780 0.38519 0.61481
 C1913 C 0.80723 0.84339 0.65662
 C1914 C 0.78933 0.85717 0.64283
 C1915 C 0.76738 0.87262 0.62738
 C1916 C 0.74780 0.88519 0.61481
 C1917 C 0.80723 0.34339 1.15661
 C1918 C 0.78933 0.35717 1.14283
 C1919 C 0.76738 0.37262 1.12738
 C1920 C 0.74780 0.38520 1.11480
 C1921 C 0.69278 1.15662 1.15662
 C1922 C 0.71068 1.14283 1.14283
 C1923 C 0.73263 1.12739 1.12739
 C1924 C 0.75221 1.11481 1.11481
 C1925 C 0.69277 0.65661 0.65662
 C1926 C 0.71067 0.64283 0.64283
 C1927 C 0.73262 0.62738 0.62738
 C1928 C 0.75220 0.61481 0.61481
 C1929 C 0.19276 1.15661 0.65661
 C1930 C 0.21066 1.14282 0.64282
 C1931 C 0.23261 1.12738 0.62737
 C1932 C 0.25220 1.11480 0.61480
 C1933 C 0.19277 0.65662 1.15662
 C1934 C 0.21067 0.64283 1.14283
 C1935 C 0.23262 0.62738 1.12739
 C1936 C 0.25220 0.61481 1.11481
 C1937 C 0.69277 0.84338 0.84338
 C1938 C 0.71067 0.85717 0.85717
 C1939 C 0.73262 0.87261 0.87262
 C1940 C 0.75221 0.88519 0.88519
 C1941 C 0.69278 0.34338 0.34338
 C1942 C 0.71068 0.35717 0.35717
 C1943 C 0.73263 0.37261 0.37261
 C1944 C 0.75221 0.38519 0.38519
 C1945 C 0.19277 0.84339 0.34339
 C1946 C 0.21067 0.85718 0.35718
 C1947 C 0.23262 0.87263 0.37262
 C1948 C 0.25220 0.88520 0.38520
 C1949 C 0.19278 0.34338 0.84338
 C1950 C 0.21067 0.35717 0.85717
 C1951 C 0.23262 0.37261 0.87261
 C1952 C 0.25220 0.38519 0.88519
   
