data_POSCAR
  _audit_creation_date              2014-09-24
  _audit_creation_method            'ToBaCCo'
  _symmetry_space_group_name_H-M    'P1'
  _symmetry_Int_Tables_number       1
  _symmetry_cell_setting            triclinic
  loop_
  _symmetry_equiv_pos_as_xyz
 x,y,z
_cell_length_a 54.0024
_cell_length_b 53.9023
_cell_length_c 53.9538
_cell_angle_alpha 89.852400
_cell_angle_beta 89.987700
_cell_angle_gamma 89.949200
loop_
  _atom_site_label
  _atom_site_type_symbol
  _atom_site_fract_x
  _atom_site_fract_y
  _atom_site_fract_z
C1 C 0.25022 0.99751 -0.01528
 C2 C 0.25153 0.99618 0.00975
 C3 C 0.25088 1.01856 0.02565
 C4 C 0.25275 0.97221 0.02302
 C5 C 0.24829 0.97507 -0.03101
 C6 C 0.24970 1.02160 -0.02843
 C7 C 0.26962 1.03644 0.02480
 C8 C 0.26976 1.05615 0.04167
 C9 C 0.25125 1.05834 0.06029
 C10 C 0.23198 1.04046 0.06000
 C11 C 0.23195 1.02096 0.04312
 C12 C 0.27477 0.96551 0.03503
 C13 C 0.27547 0.94476 0.05051
 C14 C 0.25399 0.93068 0.05464
 C15 C 0.23204 0.93711 0.04215
 C16 C 0.23148 0.95767 0.02628
 C17 C 0.22754 0.97222 -0.04632
 C18 C 0.22611 0.95247 -0.06290
 C19 C 0.24556 0.93522 -0.06473
 C20 C 0.26609 0.93768 -0.04885
 C21 C 0.26748 0.95752 -0.03215
 C22 C 0.22849 1.03661 -0.02808
 C23 C 0.22748 1.05814 -0.04260
 C24 C 0.24781 1.06506 -0.05737
 C25 C 0.26928 1.05034 -0.05701
 C26 C 0.27011 1.02865 -0.04285
 H27 H 0.28467 1.03465 0.01165
 H28 H 0.28554 1.06841 0.04084
 H29 H 0.21613 1.04156 0.07215
 H30 H 0.21702 1.00757 0.04376
 H31 H 0.29124 0.97678 0.03289
 H32 H 0.29253 0.94033 0.06011
 H33 H 0.21427 0.96286 0.01734
 H34 H 0.21251 0.98553 -0.04564
 H35 H 0.20983 0.95085 -0.07449
 H36 H 0.28147 0.92484 -0.04998
 H37 H 0.28381 0.95961 -0.02072
 H38 H 0.21253 1.03126 -0.01715
 H39 H 0.21075 1.06923 -0.04256
 H40 H 0.28506 1.05510 -0.06846
 H41 H 0.28654 1.01711 -0.04340
 H42 H 0.21529 0.92644 0.04499
 C43 C 0.75369 0.49992 0.50843
 C44 C 0.75285 0.50045 0.48332
 C45 C 0.75360 0.47754 0.46813
 C46 C 0.75082 0.52416 0.46956
 C47 C 0.75324 0.52288 0.52347
 C48 C 0.75471 0.47644 0.52264
 C49 C 0.77358 0.46092 0.46967
 C50 C 0.77488 0.44048 0.45378
 C51 C 0.75631 0.43641 0.43595
 C52 C 0.73619 0.45294 0.43475
 C53 C 0.73492 0.47332 0.45059
 C54 C 0.77015 0.53161 0.45391
 C55 C 0.76800 0.55324 0.43979
 C56 C 0.74624 0.56750 0.44073
 C57 C 0.72691 0.56008 0.45655
 C58 C 0.72926 0.53862 0.47100
 C59 C 0.73458 0.52600 0.54123
 C60 C 0.73529 0.54598 0.55755
 C61 C 0.75483 0.56316 0.55658
 C62 C 0.77304 0.56057 0.53813
 C63 C 0.77231 0.54049 0.52174
 C64 C 0.73377 0.46119 0.52467
 C65 C 0.73375 0.44116 0.54125
 C66 C 0.75481 0.43596 0.55570
 C67 C 0.77600 0.45078 0.55291
 C68 C 0.77584 0.47102 0.53673
 H69 H 0.78849 0.46416 0.48268
 H70 H 0.79077 0.42828 0.45495
 H71 H 0.72138 0.45012 0.42153
 H72 H 0.71938 0.48595 0.44907
 H73 H 0.78684 0.52053 0.45251
 H74 H 0.78301 0.55840 0.42751
 H75 H 0.71408 0.53297 0.48286
 H76 H 0.71968 0.51264 0.54279
 H77 H 0.72076 0.54775 0.57127
 H78 H 0.78842 0.57341 0.53711
 H79 H 0.78707 0.53817 0.50836
 H80 H 0.71719 0.46540 0.51417
 H81 H 0.71724 0.42991 0.54303
 H82 H 0.79236 0.44729 0.56400
 H83 H 0.79201 0.48285 0.53559
 H84 H 0.70999 0.57081 0.45761
 C85 C 0.74669 1.01205 0.99626
 C86 C 0.74784 0.98698 0.99718
 C87 C 0.74953 0.97164 0.97451
 C88 C 0.74850 0.97341 1.02104
 C89 C 0.74586 1.02740 1.01897
 C90 C 0.74643 1.02573 0.97253
 C91 C 0.72975 0.97024 0.95771
 C92 C 0.73063 0.95353 0.93790
 C93 C 0.75125 0.93786 0.93473
 C94 C 0.77133 0.94000 0.95116
 C95 C 0.77041 0.95662 0.97091
 C96 C 0.72860 0.95809 1.02764
 C97 C 0.72964 0.94381 1.04924
 C98 C 0.75084 0.94424 1.06431
 C99 C 0.77067 0.95984 1.05780
 C100 C 0.76944 0.97446 1.03637
 C101 C 0.76459 1.04484 1.02328
 C102 C 0.76333 1.06060 1.04369
 C103 C 0.74319 1.05936 1.06013
 C104 C 0.72459 1.04158 1.05601
 C105 C 0.72588 1.02576 1.03552
 C106 C 0.76861 1.03200 0.96070
 C107 C 0.76851 1.04839 0.94058
 C108 C 0.74609 1.05855 0.93154
 C109 C 0.72378 1.05093 0.94295
 C110 C 0.72405 1.03505 0.96342
 H111 H 0.71329 0.98137 0.96048
 H112 H 0.71477 0.95211 0.92572
 H113 H 0.78764 0.92852 0.94897
 H114 H 0.78584 0.95747 0.98370
 H115 H 0.71239 0.95699 1.01587
 H116 H 0.71425 0.93172 1.05371
 H117 H 0.78502 0.98608 1.03138
 H118 H 0.78023 1.04630 1.01080
 H119 H 0.77817 1.07376 1.04662
 H120 H 0.70871 1.04036 1.06821
 H121 H 0.71106 1.01265 1.03227
 H122 H 0.78606 1.02488 0.96760
 H123 H 0.78609 1.05274 0.93199
 H124 H 0.70608 1.05852 0.93740
 H125 H 0.70680 1.03062 0.97269
 H126 H 0.78719 0.96049 1.06916
 C127 C 0.24622 0.48347 0.49711
 C128 C 0.24479 0.50857 0.49706
 C129 C 0.24515 0.52322 0.52025
 C130 C 0.24342 0.52312 0.47387
 C131 C 0.24773 0.46880 0.47391
 C132 C 0.24700 0.46923 0.52057
 C133 C 0.22610 0.52122 0.53784
 C134 C 0.22597 0.53658 0.55872
 C135 C 0.24479 0.55428 0.56219
 C136 C 0.26404 0.55582 0.54473
 C137 C 0.26414 0.54052 0.52394
 C138 C 0.22157 0.53601 0.46829
 C139 C 0.22065 0.55206 0.44799
 C140 C 0.24174 0.55586 0.43327
 C141 C 0.26356 0.54265 0.43867
 C142 C 0.26434 0.52623 0.45879
 C143 C 0.26779 0.45265 0.47045
 C144 C 0.26903 0.43753 0.44953
 C145 C 0.25010 0.43810 0.43166
 C146 C 0.23014 0.45458 0.43496
 C147 C 0.22891 0.46973 0.45598
 C148 C 0.26805 0.46969 0.53579
 C149 C 0.26906 0.45486 0.55708
 C150 C 0.24891 0.43966 0.56355
 C151 C 0.22767 0.43975 0.54854
 C152 C 0.22684 0.45424 0.52708
 H153 H 0.21107 0.50824 0.53507
 H154 H 0.21075 0.53516 0.57170
 H155 H 0.27902 0.56894 0.54710
 H156 H 0.27901 0.54229 0.51057
 H157 H 0.20539 0.53397 0.47998
 H158 H 0.20372 0.56222 0.44435
 H159 H 0.28141 0.51659 0.46310
 H160 H 0.28252 0.45167 0.48405
 H161 H 0.28483 0.42535 0.44736
 H162 H 0.21512 0.45521 0.42169
 H163 H 0.21302 0.48170 0.45854
 H164 H 0.28381 0.48109 0.53087
 H165 H 0.28562 0.45510 0.56840
 H166 H 0.21205 0.42796 0.55298
 H167 H 0.21053 0.45364 0.51541
 H168 H 0.28001 0.54525 0.42749
 C169 C 0.99716 0.24487 -0.01046
 C170 C 0.99760 0.24492 0.01473
 C171 C 0.97460 0.24411 0.02974
 C172 C 1.02117 0.24541 0.02895
 C173 C 1.02017 0.24567 -0.02544
 C174 C 0.97376 0.24440 -0.02489
 C175 C 0.97058 0.26246 0.04766
 C176 C 0.95039 0.26093 0.06369
 C177 C 0.93387 0.24085 0.06229
 C178 C 0.93760 0.22271 0.04395
 C179 C 0.95788 0.22428 0.02785
 C180 C 1.03851 0.26451 0.02588
 C181 C 1.05997 0.26518 0.04043
 C182 C 1.06440 0.24697 0.05887
 C183 C 1.04683 0.22770 0.06143
 C184 C 1.02559 0.22702 0.04676
 C185 C 1.03820 0.22706 -0.02361
 C186 C 1.05882 0.22729 -0.03931
 C187 C 1.06170 0.24598 -0.05757
 C188 C 1.04353 0.26484 -0.05873
 C189 C 1.02311 0.26459 -0.04298
 C190 C 0.97057 0.22610 -0.04296
 C191 C 0.95060 0.22710 -0.05929
 C192 C 0.93317 0.24665 -0.05825
 C193 C 0.93600 0.26442 -0.03915
 C194 C 0.95614 0.26337 -0.02284
 H195 H 0.98333 0.27787 0.04942
 H196 H 0.94778 0.27542 0.07730
 H197 H 0.92535 0.20689 0.04260
 H198 H 0.96095 0.20967 0.01445
 H199 H 1.03517 0.27924 0.01260
 H200 H 1.07222 0.28084 0.03797
 H201 H 1.01252 0.21199 0.04929
 H202 H 1.03595 0.21199 -0.01050
 H203 H 1.07161 0.21192 -0.03786
 H204 H 1.04518 0.28037 -0.07134
 H205 H 1.00944 0.27924 -0.04452
 H206 H 0.98390 0.21118 -0.04472
 H207 H 0.94886 0.21212 -0.07246
 H208 H 0.92374 0.28020 -0.03760
 H209 H 0.95857 0.27800 -0.00933
 H210 H 1.04958 0.21251 0.07425
 C211 C 0.49474 0.74661 0.51641
 C212 C 0.49381 0.74830 0.49135
 C213 C 0.51658 0.74943 0.47615
 C214 C 0.47031 0.74844 0.47724
 C215 C 0.47220 0.74371 0.53189
 C216 C 0.51857 0.74796 0.53005
 C217 C 0.53032 0.77140 0.47409
 C218 C 0.55042 0.77269 0.45773
 C219 C 0.55718 0.75190 0.44356
 C220 C 0.54364 0.72982 0.44611
 C221 C 0.52336 0.72869 0.46208
 C222 C 0.46534 0.76841 0.46131
 C223 C 0.44532 0.76756 0.44505
 C224 C 0.42991 0.74660 0.44422
 C225 C 0.43431 0.72695 0.46090
 C226 C 0.45444 0.72783 0.47725
 C227 C 0.47046 0.72322 0.54784
 C228 C 0.45099 0.72133 0.56473
 C229 C 0.43295 0.74008 0.56632
 C230 C 0.43425 0.76025 0.54971
 C231 C 0.45377 0.76208 0.53266
 C232 C 0.53691 0.72971 0.52724
 C233 C 0.55851 0.73054 0.54157
 C234 C 0.56199 0.74953 0.55908
 C235 C 0.54372 0.76797 0.56146
 C236 C 0.52220 0.76711 0.54718
 H237 H 0.52510 0.78763 0.48468
 H238 H 0.56068 0.78988 0.45612
 H239 H 0.54833 0.71364 0.43521
 H240 H 0.51273 0.71169 0.46332
 H241 H 0.47740 0.78446 0.46104
 H242 H 0.44212 0.78319 0.43280
 H243 H 0.45825 0.71206 0.48912
 H244 H 0.48450 0.70886 0.54750
 H245 H 0.45028 0.70530 0.57684
 H246 H 0.42080 0.77512 0.55061
 H247 H 0.45501 0.77823 0.52075
 H248 H 0.53421 0.71450 0.51445
 H249 H 0.57208 0.71589 0.53954
 H250 H 0.54600 0.78304 0.57449
 H251 H 0.50823 0.78133 0.54961
 H252 H 0.42286 0.71048 0.46056
 C253 C 0.00639 0.75051 0.00239
 C254 C -0.01859 0.75253 0.00391
 C255 C -0.03202 0.75466 0.02784
 C256 C -0.03431 0.75131 -0.01858
 C257 C 0.01917 0.74861 -0.02178
 C258 C 0.02274 0.75010 0.02440
 C259 C -0.03001 0.73641 0.04628
 C260 C -0.04555 0.73694 0.06708
 C261 C -0.06386 0.75559 0.06979
 C262 C -0.06488 0.77434 0.05145
 C263 C -0.04931 0.77377 0.03083
 C264 C -0.05127 0.73189 -0.02097
 C265 C -0.06765 0.73123 -0.04091
 C266 C -0.06776 0.75021 -0.05907
 C267 C -0.04999 0.76937 -0.05677
 C268 C -0.03363 0.76997 -0.03667
 C269 C 0.03074 0.76955 -0.03179
 C270 C 0.04552 0.76754 -0.05292
 C271 C 0.04980 0.74425 -0.06413
 C272 C 0.03734 0.72338 -0.05420
 C273 C 0.02204 0.72563 -0.03341
 C274 C 0.02523 0.77096 0.03970
 C275 C 0.04370 0.77156 0.05794
 C276 C 0.05998 0.75136 0.06096
 C277 C 0.05656 0.73012 0.04634
 C278 C 0.03821 0.72954 0.02822
 H279 H -0.01722 0.72110 0.04405
 H280 H -0.04409 0.72166 0.08000
 H281 H -0.07744 0.78989 0.05294
 H282 H -0.05108 0.78813 0.01685
 H283 H -0.05189 0.71721 -0.00723
 H284 H -0.07977 0.71534 -0.04215
 H285 H -0.02098 0.78543 -0.03481
 H286 H 0.02888 0.78739 -0.02277
 H287 H 0.05496 0.78410 -0.05917
 H288 H 0.03907 0.70525 -0.06257
 H289 H 0.01310 0.70928 -0.02587
 H290 H 0.01364 0.78711 0.03680
 H291 H 0.04597 0.78820 0.06890
 H292 H 0.06842 0.71406 0.04861
 H293 H 0.03649 0.71321 0.01670
 H294 H -0.04947 0.78483 -0.06955
 C295 C 0.50939 0.25420 0.50206
 C296 C 0.48440 0.25458 0.50182
 C297 C 0.47017 0.25606 0.47844
 C298 C 0.46961 0.25341 0.52485
 C299 C 0.52395 0.25579 0.52516
 C300 C 0.52415 0.25184 0.47917
 C301 C 0.45574 0.27717 0.47386
 C302 C 0.44004 0.27812 0.45338
 C303 C 0.43817 0.25778 0.43722
 C304 C 0.45335 0.23692 0.44137
 C305 C 0.46923 0.23606 0.46188
 C306 C 0.46911 0.27319 0.54169
 C307 C 0.45253 0.27282 0.56167
 C308 C 0.43622 0.25271 0.56493
 C309 C 0.43767 0.23253 0.54856
 C310 C 0.45408 0.23297 0.52865
 C311 C 0.52608 0.23541 0.54122
 C312 C 0.54383 0.23556 0.56015
 C313 C 0.55969 0.25606 0.56310
 C314 C 0.55640 0.27694 0.54781
 C315 C 0.53879 0.27673 0.52895
 C316 C 0.53804 0.23020 0.47559
 C317 C 0.55528 0.22885 0.45645
 C318 C 0.55914 0.24925 0.44068
 C319 C 0.54430 0.27054 0.44354
 C320 C 0.52692 0.27185 0.46274
 H321 H 0.45632 0.29277 0.48647
 H322 H 0.42902 0.29465 0.45044
 H323 H 0.45216 0.22088 0.42939
 H324 H 0.48007 0.21950 0.46535
 H325 H 0.48081 0.28924 0.53882
 H326 H 0.45170 0.28871 0.57388
 H327 H 0.45430 0.21754 0.51581
 H328 H 0.51498 0.21896 0.53826
 H329 H 0.54604 0.21916 0.57157
 H330 H 0.56797 0.29319 0.54997
 H331 H 0.53740 0.29256 0.51661
 H332 H 0.53608 0.21463 0.48817
 H333 H 0.56606 0.21203 0.45438
 H334 H 0.54700 0.28658 0.43173
 H335 H 0.51650 0.28879 0.46552
 H336 H 0.42574 0.21656 0.55087
 C337 C 1.00527 0.01411 0.24857
 C338 C 1.00612 -0.01097 0.25024
 C339 C 1.02956 -0.02523 0.25007
 C340 C 0.98320 -0.02590 0.25128
 C341 C 0.98140 0.02766 0.24941
 C342 C 1.02779 0.02969 0.24653
 C343 C 1.04577 -0.02424 0.22982
 C344 C 1.06597 -0.04049 0.22845
 C345 C 1.07019 -0.05844 0.24719
 C346 C 1.05427 -0.05830 0.26798
 C347 C 1.03427 -0.04203 0.26930
 C348 C 0.97450 -0.03723 0.22971
 C349 C 0.95380 -0.05267 0.23050
 C350 C 0.94166 -0.05781 0.25315
 C351 C 0.95071 -0.04621 0.27482
 C352 C 0.97107 -0.03021 0.27380
 C353 C 0.97663 0.04370 0.26923
 C354 C 0.95514 0.05806 0.26954
 C355 C 0.93807 0.05679 0.24991
 C356 C 0.94267 0.04031 0.23026
 C357 C 0.96425 0.02594 0.22996
 C358 C 1.04577 0.03001 0.26532
 C359 C 1.06509 0.04735 0.26454
 C360 C 1.06662 0.06467 0.24502
 C361 C 1.04911 0.06350 0.22578
 C362 C 1.02985 0.04631 0.22663
 H363 H 1.04217 -0.01167 0.21455
 H364 H 1.07708 -0.03989 0.21180
 H365 H 1.05725 -0.07049 0.28365
 H366 H 1.02215 -0.04286 0.28527
 H367 H 0.98397 -0.03430 0.21224
 H368 H 0.94837 -0.06161 0.21343
 H369 H 0.97767 -0.02154 0.29063
 H370 H 0.98974 0.04528 0.28434
 H371 H 0.95194 0.07033 0.28508
 H372 H 0.93004 0.03920 0.21472
 H373 H 0.96793 0.01404 0.21425
 H374 H 1.04427 0.01757 0.28104
 H375 H 1.07817 0.04791 0.27973
 H376 H 1.05004 0.07619 0.21022
 H377 H 1.01616 0.04632 0.21195
 H378 H 0.94171 -0.04879 0.29255
 C379 C 0.50280 0.51601 0.74672
 C380 C 0.50282 0.49089 0.74590
 C381 C 0.52576 0.47604 0.74324
 C382 C 0.47964 0.47642 0.74805
 C383 C 0.47939 0.53027 0.74811
 C384 C 0.52587 0.53079 0.74605
 C385 C 0.52813 0.46030 0.72275
 C386 C 0.54748 0.44321 0.72151
 C387 C 0.56470 0.44122 0.74094
 C388 C 0.56296 0.45782 0.76098
 C389 C 0.54358 0.47510 0.76214
 C390 C 0.46142 0.47744 0.72955
 C391 C 0.44073 0.46191 0.73088
 C392 C 0.43809 0.44502 0.75064
 C393 C 0.45616 0.44453 0.76938
 C394 C 0.47678 0.46000 0.76801
 C395 C 0.46591 0.53175 0.77028
 C396 C 0.44459 0.54650 0.77156
 C397 C 0.43629 0.55958 0.75056
 C398 C 0.44967 0.55767 0.72832
 C399 C 0.47118 0.54335 0.72719
 C400 C 0.53054 0.54768 0.76519
 C401 C 0.55106 0.56329 0.76413
 C402 C 0.56726 0.56249 0.74377
 C403 C 0.56287 0.54517 0.72481
 C404 C 0.54225 0.52950 0.72589
 H405 H 0.51452 0.46078 0.70801
 H406 H 0.54860 0.43111 0.70556
 H407 H 0.57582 0.45664 0.77633
 H408 H 0.54181 0.48690 0.77826
 H409 H 0.46360 0.48970 0.71377
 H410 H 0.42727 0.46248 0.71603
 H411 H 0.49073 0.45898 0.78241
 H412 H 0.47215 0.52185 0.78662
 H413 H 0.43452 0.54765 0.78888
 H414 H 0.44379 0.56778 0.71197
 H415 H 0.48152 0.54247 0.71000
 H416 H 0.51813 0.54892 0.78091
 H417 H 0.55419 0.57612 0.77921
 H418 H 0.57490 0.54432 0.70877
 H419 H 0.53869 0.51688 0.71072
 H420 H 0.45445 0.43202 0.78502
 C421 C 1.01590 1.00225 0.74943
 C422 C 0.99087 1.00386 0.74856
 C423 C 0.97462 0.98176 0.74815
 C424 C 0.97799 1.02808 0.74790
 C425 C 1.03170 1.02470 0.74914
 C426 C 1.02925 0.97814 0.75001
 C427 C 0.95807 0.97870 0.72839
 C428 C 0.94054 0.95977 0.72888
 C429 C 0.93904 0.94357 0.74925
 C430 C 0.95626 0.94603 0.76866
 C431 C 0.97389 0.96507 0.76815
 C432 C 0.97442 1.04057 0.72543
 C433 C 0.95856 1.06106 0.72420
 C434 C 0.94620 1.06981 0.74560
 C435 C 0.95127 1.05785 0.76839
 C436 C 0.96662 1.03701 0.76938
 C437 C 1.03174 1.04138 0.76907
 C438 C 1.04893 1.06077 0.76980
 C439 C 1.06646 1.06361 0.75071
 C440 C 1.06577 1.04731 0.73044
 C441 C 1.04863 1.02799 0.72973
 C442 C 1.04698 0.97396 0.76846
 C443 C 1.06193 0.95287 0.76793
 C444 C 1.05980 0.93523 0.74870
 C445 C 1.04118 0.93923 0.73063
 C446 C 1.02628 0.96051 0.73120
 H447 H 0.95844 0.99127 0.71270
 H448 H 0.92789 0.95801 0.71341
 H449 H 0.95544 0.93389 0.78466
 H450 H 0.98635 0.96734 0.78371
 H451 H 0.98315 1.03384 0.70866
 H452 H 0.95625 1.07008 0.70642
 H453 H 0.96899 1.02730 0.78683
 H454 H 1.01914 1.03879 0.78447
 H455 H 1.04920 1.07288 0.78578
 H456 H 1.07875 1.04927 0.71526
 H457 H 1.04890 1.01523 0.71425
 H458 H 1.04946 0.98729 0.78326
 H459 H 1.07481 0.95040 0.78307
 H460 H 1.03893 0.92690 0.71503
 H461 H 1.01310 0.96367 0.71640
 H462 H 0.94197 1.06319 0.78532
 C463 C 0.51862 0.50271 0.25099
 C464 C 0.49365 0.50085 0.24940
 C465 C 0.48104 0.47652 0.24814
 C466 C 0.47714 0.52275 0.24857
 C467 C 0.53166 0.52686 0.25299
 C468 C 0.53465 0.48044 0.24996
 C469 C 0.48062 0.46288 0.22605
 C470 C 0.46543 0.44197 0.22398
 C471 C 0.45071 0.43427 0.24410
 C472 C 0.45209 0.44738 0.26652
 C473 C 0.46694 0.46847 0.26843
 C474 C 0.46128 0.52572 0.22821
 C475 C 0.44304 0.54400 0.22833
 C476 C 0.44013 0.55960 0.24894
 C477 C 0.45672 0.55732 0.26894
 C478 C 0.47507 0.53894 0.26879
 C479 C 0.54816 0.53056 0.27271
 C480 C 0.56306 0.55167 0.27354
 C481 C 0.56200 0.56949 0.25451
 C482 C 0.54490 0.56614 0.23510
 C483 C 0.52991 0.54494 0.23430
 C484 C 0.53430 0.46255 0.26889
 C485 C 0.55108 0.44275 0.26848
 C486 C 0.56849 0.44066 0.24919
 C487 C 0.56823 0.45831 0.22996
 C488 C 0.55158 0.47806 0.23044
 H489 H 0.49123 0.46906 0.21015
 H490 H 0.46473 0.43211 0.20653
 H491 H 0.44074 0.44203 0.28220
 H492 H 0.46690 0.47899 0.28551
 H493 H 0.46265 0.51343 0.21242
 H494 H 0.43091 0.54565 0.21244
 H495 H 0.48695 0.53667 0.28481
 H496 H 0.54983 0.51678 0.28727
 H497 H 0.57566 0.55389 0.28898
 H498 H 0.54382 0.57938 0.22002
 H499 H 0.51767 0.54219 0.21865
 H500 H 0.52156 0.46434 0.28428
 H501 H 0.55101 0.42961 0.28369
 H502 H 0.58108 0.45696 0.21461
 H503 H 0.55204 0.49171 0.21567
 H504 H 0.45481 0.56901 0.28512
 O505 O 0.25678 0.18599 0.21034
 O506 O 0.28225 0.17962 0.24612
 O507 O 0.19200 0.21951 0.24216
 O508 O 0.18269 0.25334 0.26380
 O509 O 0.22536 0.25032 0.17569
 O510 O 0.26105 0.27580 0.16884
 O511 O 0.25632 0.28889 0.30376
 O512 O 0.22628 0.25758 0.31083
 O513 O 0.31971 0.25216 0.27837
 O514 O 0.32782 0.22225 0.24457
 O515 O 0.29328 0.31468 0.23986
 O516 O 0.25915 0.32232 0.21088
 O517 O 0.25860 0.31730 0.27269
 O518 O 0.23193 0.32399 0.23585
 O519 O 0.32205 0.28412 0.24355
 O520 O 0.32964 0.24735 0.21715
 O521 O 0.28870 0.25489 0.30665
 O522 O 0.25383 0.22793 0.31457
 O523 O 0.25902 0.21417 0.17900
 O524 O 0.28761 0.24745 0.17149
 O525 O 0.19461 0.25194 0.20440
 O526 O 0.18843 0.28299 0.23695
 O527 O 0.22068 0.18865 0.24382
 O528 O 0.25389 0.18189 0.27255
 Zr529 Zr 0.25484 0.20746 0.24279
 O530 O 0.27777 0.22902 0.26572
 Zr531 Zr 0.21287 0.25228 0.23880
 O532 O 0.23382 0.27578 0.26181
 Zr533 Zr 0.25801 0.24874 0.19710
 O534 O 0.28095 0.27225 0.21816
 Zr535 Zr 0.25609 0.25451 0.28558
 O536 O 0.23273 0.23089 0.26482
 Zr537 Zr 0.30125 0.25115 0.24395
 O538 O 0.28039 0.22723 0.22086
 Zr539 Zr 0.25910 0.29594 0.24002
 O540 O 0.23610 0.27444 0.21659
 O541 O 0.23343 0.22748 0.21779
 O542 O 0.28080 0.27615 0.26517
 C543 C 0.25842 0.19177 0.18726
 C544 C 0.19818 0.19650 0.24378
 C545 C 0.20238 0.25151 0.18189
 C546 C 0.25733 0.31133 0.29575
 C547 C 0.31170 0.25372 0.30076
 C548 C 0.31576 0.30702 0.24153
 H549 H 0.28729 0.21795 0.27680
 H550 H 0.29188 0.28163 0.20684
 H551 H 0.22289 0.21664 0.20744
 H552 H 0.22260 0.28671 0.27130
 H553 H 0.21359 0.24542 0.30558
 H554 H 0.18788 0.26331 0.27825
 H555 H 0.32708 0.26026 0.20434
 H556 H 0.30008 0.23596 0.17854
 H557 H 0.26606 0.21468 0.31128
 H558 H 0.24219 0.18873 0.28491
 H559 H 0.27213 0.31739 0.19893
 H560 H 0.24981 0.28955 0.17349
 H561 H 0.29606 0.18462 0.23513
 H562 H 0.32342 0.21078 0.25821
 H563 H 0.19441 0.29387 0.22341
 H564 H 0.21935 0.32156 0.24895
 O565 O 0.74879 0.82478 0.22269
 O566 O 0.72133 0.83248 0.25717
 O567 O 0.81266 0.79432 0.26041
 O568 O 0.82026 0.76209 0.28577
 O569 O 0.78395 0.75880 0.19466
 O570 O 0.74846 0.73240 0.18733
 O571 O 0.74651 0.72683 0.32238
 O572 O 0.77549 0.76052 0.32864
 O573 O 0.68350 0.76142 0.29159
 O574 O 0.67775 0.79067 0.25553
 O575 O 0.71210 0.69778 0.25804
 O576 O 0.74869 0.68954 0.23080
 O577 O 0.74368 0.69722 0.29260
 O578 O 0.77314 0.68812 0.25887
 O579 O 0.68310 0.72831 0.25768
 O580 O 0.67621 0.76327 0.23019
 O581 O 0.71297 0.75908 0.32155
 O582 O 0.74238 0.78754 0.33007
 O583 O 0.75059 0.79462 0.19333
 O584 O 0.72229 0.76136 0.18587
 O585 O 0.81289 0.75897 0.22526
 O586 O 0.81761 0.73099 0.26020
 O587 O 0.78337 0.82451 0.25707
 O588 O 0.74823 0.83324 0.28409
 Zr589 Zr 0.74956 0.80528 0.25664
 O590 O 0.72590 0.78463 0.27988
 Zr591 Zr 0.79233 0.76099 0.25830
 O592 O 0.77021 0.73810 0.28103
 Zr593 Zr 0.74987 0.76134 0.21367
 O594 O 0.72557 0.73906 0.23462
 Zr595 Zr 0.74652 0.76031 0.30224
 O596 O 0.77058 0.78360 0.28163
 Zr597 Zr 0.70374 0.76134 0.25804
 O598 O 0.72571 0.78390 0.23449
 Zr599 Zr 0.74625 0.71672 0.25894
 O600 O 0.77078 0.73720 0.23606
 O601 O 0.77278 0.78407 0.23446
 O602 O 0.72313 0.73761 0.28162
 C603 C 0.74974 0.81746 0.20003
 C604 C 0.80593 0.81721 0.25908
 C605 C 0.80652 0.75801 0.20232
 C606 C 0.74444 0.70417 0.31534
 C607 C 0.69034 0.75989 0.31439
 C608 C 0.68950 0.70535 0.25769
 H609 H 0.71596 0.79605 0.29021
 H610 H 0.71534 0.72907 0.22321
 H611 H 0.78385 0.79426 0.22394
 H612 H 0.78090 0.72772 0.29172
 H613 H 0.78626 0.77484 0.32460
 H614 H 0.81385 0.75315 0.30045
 H615 H 0.68097 0.75156 0.21694
 H616 H 0.70933 0.77313 0.19138
 H617 H 0.75052 0.80266 0.32373
 H618 H 0.76224 0.83029 0.29555
 H619 H 0.73520 0.69270 0.21880
 H620 H 0.76005 0.71940 0.19316
 H621 H 0.70857 0.82704 0.24519
 H622 H 0.68032 0.80174 0.26990
 H623 H 0.81186 0.71844 0.24814
 H624 H 0.78510 0.69162 0.27229
 O625 O 0.75094 0.18579 0.78117
 O626 O 0.72683 0.17766 0.74599
 O627 O 0.81681 0.21803 0.74943
 O628 O 0.82644 0.25061 0.72617
 O629 O 0.78250 0.25140 0.81358
 O630 O 0.74749 0.27667 0.81957
 O631 O 0.75325 0.28407 0.68314
 O632 O 0.78152 0.25249 0.67705
 O633 O 0.68888 0.25007 0.71123
 O634 O 0.67973 0.22257 0.74542
 O635 O 0.71626 0.31401 0.74529
 O636 O 0.74953 0.32318 0.77338
 O637 O 0.75036 0.31418 0.71240
 O638 O 0.77831 0.32168 0.74964
 O639 O 0.68719 0.28363 0.74443
 O640 O 0.67994 0.24725 0.77307
 O641 O 0.71950 0.25130 0.68241
 O642 O 0.75497 0.22203 0.67679
 O643 O 0.74942 0.21508 0.81144
 O644 O 0.72006 0.24925 0.81680
 O645 O 0.81378 0.25198 0.78543
 O646 O 0.81999 0.28177 0.75069
 O647 O 0.78797 0.18735 0.74731
 O648 O 0.75407 0.17978 0.71906
 Zr649 Zr 0.75368 0.20608 0.74807
 O650 O 0.73056 0.22680 0.72449
 Zr651 Zr 0.79584 0.25083 0.75065
 O652 O 0.77510 0.27306 0.72597
 Zr653 Zr 0.75034 0.24910 0.79193
 O654 O 0.72802 0.27233 0.76977
 Zr655 Zr 0.75249 0.25094 0.70332
 O656 O 0.77605 0.22853 0.72533
 Zr657 Zr 0.70750 0.25026 0.74530
 O658 O 0.72809 0.22678 0.76909
 Zr659 Zr 0.75005 0.29466 0.74650
 O660 O 0.77246 0.27401 0.77148
 O661 O 0.77499 0.22688 0.77243
 O662 O 0.72809 0.27386 0.72260
 C663 C 0.74930 0.19241 0.80395
 C664 C 0.81049 0.19512 0.74778
 C665 C 0.80554 0.25238 0.80781
 C666 C 0.75206 0.30687 0.68976
 C667 C 0.69654 0.25072 0.68872
 C668 C 0.69369 0.30657 0.74455
 H669 H 0.72082 0.21538 0.71405
 H670 H 0.71724 0.28241 0.78060
 H671 H 0.78540 0.21636 0.78332
 H672 H 0.78644 0.28333 0.71589
 H673 H 0.79493 0.24167 0.68341
 H674 H 0.82102 0.25873 0.71065
 H675 H 0.68160 0.26166 0.78426
 H676 H 0.70847 0.23625 0.81109
 H677 H 0.74040 0.21109 0.67866
 H678 H 0.76627 0.18575 0.70672
 H679 H 0.73789 0.31807 0.78659
 H680 H 0.75773 0.29079 0.81386
 H681 H 0.71230 0.18358 0.75548
 H682 H 0.68492 0.20942 0.73377
 H683 H 0.81460 0.29278 0.76434
 H684 H 0.78951 0.31987 0.73525
 O685 O 0.24140 0.80589 0.78439
 O686 O 0.26861 0.81215 0.75024
 O687 O 0.17721 0.77510 0.74786
 O688 O 0.16861 0.74219 0.72477
 O689 O 0.20507 0.74136 0.81559
 O690 O 0.23954 0.71571 0.82490
 O691 O 0.24404 0.70442 0.68950
 O692 O 0.21558 0.73678 0.68066
 O693 O 0.30620 0.73867 0.72016
 O694 O 0.31307 0.76745 0.75496
 O695 O 0.27501 0.67638 0.75377
 O696 O 0.23922 0.66975 0.78183
 O697 O 0.24245 0.67564 0.72027
 O698 O 0.21324 0.66952 0.75518
 O699 O 0.30498 0.70590 0.75476
 O700 O 0.31186 0.74220 0.78201
 O701 O 0.27761 0.73772 0.68932
 O702 O 0.24401 0.76586 0.67967
 O703 O 0.23996 0.77734 0.81543
 O704 O 0.26695 0.74293 0.82430
 O705 O 0.17615 0.74222 0.78493
 O706 O 0.17161 0.71168 0.75141
 O707 O 0.20691 0.80492 0.74899
 O708 O 0.24208 0.81090 0.72213
 Zr709 Zr 0.24041 0.78500 0.75158
 O710 O 0.26435 0.76298 0.73008
 Zr711 Zr 0.19690 0.74169 0.75190
 O712 O 0.21873 0.71789 0.72991
 Zr713 Zr 0.23916 0.74301 0.79671
 O714 O 0.26269 0.71890 0.77697
 Zr715 Zr 0.24345 0.73862 0.70812
 O716 O 0.21928 0.76267 0.72761
 Zr717 Zr 0.28542 0.73969 0.75315
 O718 O 0.26375 0.76409 0.77494
 Zr719 Zr 0.24165 0.69650 0.75312
 O720 O 0.21783 0.71843 0.77528
 O721 O 0.21672 0.76541 0.77478
 O722 O 0.26581 0.71586 0.72999
 C723 C 0.24125 0.79983 0.80745
 C724 C 0.18420 0.79789 0.74739
 C725 C 0.18254 0.74129 0.80786
 C726 C 0.24344 0.68188 0.69730
 C727 C 0.30009 0.73803 0.69714
 C728 C 0.29779 0.68318 0.75445
 H729 H 0.27503 0.77392 0.71998
 H730 H 0.27249 0.70890 0.78879
 H731 H 0.20590 0.77642 0.78469
 H732 H 0.20788 0.70750 0.71946
 H733 H 0.20279 0.74914 0.68522
 H734 H 0.17450 0.73226 0.71056
 H735 H 0.30801 0.72919 0.79438
 H736 H 0.28012 0.75428 0.81842
 H737 H 0.25620 0.77872 0.68423
 H738 H 0.23066 0.80481 0.70915
 H739 H 0.25261 0.67312 0.79386
 H740 H 0.22946 0.70171 0.81871
 H741 H 0.28182 0.80640 0.76161
 H742 H 0.31000 0.77939 0.74135
 H743 H 0.17598 0.70066 0.76545
 H744 H 0.20172 0.67250 0.74123
 O745 O 0.24697 0.31963 0.72139
 O746 O 0.21997 0.32574 0.75632
 O747 O 0.31336 0.29272 0.75577
 O748 O 0.32422 0.26119 0.78063
 O749 O 0.28340 0.25577 0.69170
 O750 O 0.24954 0.22753 0.68564
 O751 O 0.25303 0.22175 0.82105
 O752 O 0.28108 0.25608 0.82616
 O753 O 0.18795 0.25208 0.79262
 O754 O 0.17816 0.28029 0.75760
 O755 O 0.21922 0.19043 0.75828
 O756 O 0.25481 0.18419 0.72963
 O757 O 0.25162 0.19197 0.79135
 O758 O 0.28087 0.18500 0.75633
 O759 O 0.18821 0.21890 0.75903
 O760 O 0.17841 0.25392 0.73118
 O761 O 0.21845 0.25260 0.82160
 O762 O 0.24711 0.28276 0.82832
 O763 O 0.24845 0.28948 0.69200
 O764 O 0.22132 0.25455 0.68609
 O765 O 0.31397 0.25774 0.72058
 O766 O 0.32179 0.22968 0.75540
 O767 O 0.28232 0.32124 0.75521
 O768 O 0.24680 0.32770 0.78298
 Zr769 Zr 0.24961 0.30010 0.75527
 O770 O 0.22818 0.27801 0.77930
 Zr771 Zr 0.29496 0.25835 0.75473
 O772 O 0.27534 0.23439 0.77866
 Zr773 Zr 0.25039 0.25623 0.71227
 O774 O 0.22876 0.23230 0.73418
 Zr775 Zr 0.25117 0.25513 0.80085
 O776 O 0.27301 0.27965 0.77916
 Zr777 Zr 0.20664 0.25328 0.75840
 O778 O 0.22603 0.27738 0.73417
 Zr779 Zr 0.25194 0.21150 0.75760
 O780 O 0.27386 0.23338 0.73347
 O781 O 0.27294 0.28026 0.73201
 O782 O 0.22848 0.23097 0.78116
 C783 C 0.24725 0.31230 0.69871
 C784 C 0.30534 0.31521 0.75573
 C785 C 0.30633 0.25649 0.69803
 C786 C 0.25210 0.19899 0.81408
 C787 C 0.19558 0.25167 0.81519
 C788 C 0.19621 0.19644 0.75889
 H789 H 0.21797 0.28882 0.79000
 H790 H 0.21874 0.22161 0.72322
 H791 H 0.28298 0.29113 0.72114
 H792 H 0.28702 0.22472 0.78897
 H793 H 0.29144 0.27051 0.82154
 H794 H 0.31914 0.25193 0.79564
 H795 H 0.18254 0.24126 0.71861
 H796 H 0.20827 0.26601 0.69200
 H797 H 0.25670 0.29726 0.82259
 H798 H 0.26151 0.32612 0.79380
 H799 H 0.24087 0.18665 0.71799
 H800 H 0.26176 0.21495 0.69110
 H801 H 0.20699 0.31919 0.74516
 H802 H 0.18164 0.29252 0.77077
 H803 H 0.31645 0.21711 0.74318
 H804 H 0.29255 0.18870 0.76995
 O805 O 0.76013 0.68871 0.70868
 O806 O 0.78514 0.68195 0.74446
 O807 O 0.69209 0.71461 0.74104
 O808 O 0.67985 0.74591 0.76503
 O809 O 0.72341 0.75199 0.67745
 O810 O 0.75681 0.78093 0.67278
 O811 O 0.75043 0.78473 0.80828
 O812 O 0.72259 0.75112 0.81304
 O813 O 0.81628 0.75519 0.78145
 O814 O 0.82690 0.72793 0.74555
 O815 O 0.78515 0.81754 0.74752
 O816 O 0.75114 0.82440 0.71789
 O817 O 0.75053 0.81526 0.77921
 O818 O 0.72321 0.82197 0.74241
 O819 O 0.81635 0.78930 0.74863
 O820 O 0.82745 0.75542 0.72045
 O821 O 0.78492 0.75331 0.80943
 O822 O 0.75199 0.72296 0.81481
 O823 O 0.75968 0.71870 0.67897
 O824 O 0.78578 0.75469 0.67408
 O825 O 0.69236 0.74971 0.70580
 O826 O 0.68338 0.77784 0.74027
 O827 O 0.72328 0.68626 0.74134
 O828 O 0.75646 0.68037 0.77036
 Zr829 Zr 0.75573 0.70777 0.74226
 O830 O 0.77662 0.72953 0.76682
 Zr831 Zr 0.71020 0.74913 0.74043
 O832 O 0.72892 0.77267 0.76529
 Zr833 Zr 0.75587 0.75192 0.69921
 O834 O 0.77658 0.77584 0.72210
 Zr835 Zr 0.75265 0.75174 0.78791
 O836 O 0.73147 0.72777 0.76535
 Zr837 Zr 0.79833 0.75483 0.74673
 O838 O 0.77974 0.73085 0.72188
 Zr839 Zr 0.75267 0.79617 0.74520
 O840 O 0.73178 0.77447 0.72002
 O841 O 0.73297 0.72750 0.71823
 O842 O 0.77568 0.77653 0.76924
 C843 C 0.76122 0.69592 0.68598
 C844 C 0.70021 0.69216 0.74126
 C845 C 0.70035 0.75111 0.68339
 C846 C 0.75000 0.80767 0.80182
 C847 C 0.80798 0.75449 0.80378
 C848 C 0.80819 0.81169 0.74878
 H849 H 0.78691 0.71855 0.77727
 H850 H 0.78682 0.78684 0.71161
 H851 H 0.72350 0.71652 0.70703
 H852 H 0.71682 0.78204 0.77535
 H853 H 0.71077 0.73854 0.80686
 H854 H 0.68395 0.75548 0.78009
 H855 H 0.82346 0.76823 0.70791
 H856 H 0.79894 0.74357 0.68044
 H857 H 0.76573 0.71137 0.81127
 H858 H 0.74394 0.68533 0.78281
 H859 H 0.76477 0.82145 0.70602
 H860 H 0.74463 0.79347 0.67835
 H861 H 0.79879 0.68879 0.73429
 H862 H 0.82392 0.71586 0.75907
 H863 H 0.68861 0.79008 0.72760
 H864 H 0.71111 0.81808 0.75562
 O865 O 0.24407 0.68257 0.28162
 O866 O 0.21997 0.67578 0.24604
 O867 O 0.31252 0.70948 0.25008
 O868 O 0.32524 0.74111 0.22733
 O869 O 0.27991 0.74568 0.31373
 O870 O 0.24691 0.77398 0.31882
 O871 O 0.25465 0.77912 0.18241
 O872 O 0.28091 0.74559 0.17708
 O873 O 0.18795 0.75071 0.20999
 O874 O 0.17622 0.72421 0.24422
 O875 O 0.21985 0.81246 0.24344
 O876 O 0.25310 0.81954 0.27209
 O877 O 0.25364 0.80963 0.21139
 O878 O 0.28222 0.81532 0.24880
 O879 O 0.18840 0.78454 0.24279
 O880 O 0.17802 0.74905 0.27181
 O881 O 0.21894 0.74892 0.18159
 O882 O 0.25230 0.71685 0.17702
 O883 O 0.24446 0.71225 0.31152
 O884 O 0.21746 0.74855 0.31601
 O885 O 0.31155 0.74389 0.28604
 O886 O 0.32031 0.77295 0.25081
 O887 O 0.28159 0.68089 0.24935
 O888 O 0.24810 0.67568 0.21952
 Zr889 Zr 0.24880 0.70218 0.24834
 O890 O 0.22757 0.72425 0.22417
 Zr891 Zr 0.29411 0.74373 0.25096
 O892 O 0.27547 0.76704 0.22564
 Zr893 Zr 0.24800 0.74586 0.29162
 O894 O 0.22785 0.77043 0.26885
 Zr895 Zr 0.25154 0.74635 0.20299
 O896 O 0.27309 0.72258 0.22564
 Zr897 Zr 0.20604 0.74966 0.24435
 O898 O 0.22447 0.72496 0.26871
 Zr899 Zr 0.25190 0.79064 0.24566
 O900 O 0.27228 0.76877 0.27128
 O901 O 0.27122 0.72172 0.27270
 O902 O 0.22875 0.77125 0.22173
 C903 C 0.24293 0.68954 0.30433
 C904 C 0.30463 0.68700 0.24965
 C905 C 0.30304 0.74487 0.30831
 C906 C 0.25473 0.80202 0.18882
 C907 C 0.19592 0.75042 0.18758
 C908 C 0.19679 0.80686 0.24247
 H909 H 0.21713 0.71346 0.21372
 H910 H 0.21772 0.78147 0.27938
 H911 H 0.28066 0.71062 0.28389
 H912 H 0.28765 0.77631 0.21556
 H913 H 0.29344 0.73390 0.18370
 H914 H 0.32046 0.74862 0.21130
 H915 H 0.18054 0.76353 0.28276
 H916 H 0.20508 0.73627 0.31034
 H917 H 0.23688 0.70713 0.17875
 H918 H 0.26137 0.68035 0.20775
 H919 H 0.24103 0.81544 0.28526
 H920 H 0.25849 0.78707 0.31320
 H921 H 0.20574 0.68290 0.25515
 H922 H 0.18059 0.71056 0.23281
 H923 H 0.31590 0.78419 0.26461
 H924 H 0.29297 0.81300 0.23414
 O925 O 0.75359 0.30700 0.28698
 O926 O 0.77971 0.31236 0.25116
 O927 O 0.68586 0.28121 0.25384
 O928 O 0.67402 0.24963 0.22995
 O929 O 0.71615 0.24456 0.31831
 O930 O 0.74927 0.21518 0.32400
 O931 O 0.74404 0.20850 0.18895
 O932 O 0.71642 0.24293 0.18353
 O933 O 0.80998 0.23823 0.21564
 O934 O 0.82072 0.26615 0.25077
 O935 O 0.77821 0.17688 0.25084
 O936 O 0.74349 0.17168 0.28075
 O937 O 0.74366 0.17892 0.21900
 O938 O 0.71651 0.17289 0.25518
 O939 O 0.80945 0.20500 0.24934
 O940 O 0.82069 0.23959 0.27670
 O941 O 0.77901 0.23959 0.18720
 O942 O 0.74698 0.26976 0.18043
 O943 O 0.75304 0.27713 0.31679
 O944 O 0.77817 0.24113 0.32301
 O945 O 0.68535 0.24692 0.28970
 O946 O 0.67643 0.21828 0.25601
 O947 O 0.71748 0.30904 0.25344
 O948 O 0.75107 0.31435 0.22511
 Zr949 Zr 0.74973 0.28726 0.25348
 O950 O 0.77046 0.26469 0.22939
 Zr951 Zr 0.70370 0.24649 0.25537
 O952 O 0.72250 0.22202 0.23143
 Zr953 Zr 0.74889 0.24379 0.29713
 O954 O 0.76978 0.21932 0.27508
 Zr955 Zr 0.74661 0.24212 0.20849
 O956 O 0.72563 0.26704 0.23036
 Zr957 Zr 0.79180 0.23966 0.25018
 O958 O 0.77325 0.26423 0.27447
 Zr959 Zr 0.74587 0.19875 0.25235
 O960 O 0.72473 0.22125 0.27656
 O961 O 0.72646 0.26820 0.27748
 O962 O 0.76925 0.21757 0.22801
 C963 C 0.75461 0.29988 0.30975
 C964 C 0.69433 0.30351 0.25328
 C965 C 0.69316 0.24574 0.31216
 C966 C 0.74324 0.18577 0.19619
 C967 C 0.80198 0.23831 0.19319
 C968 C 0.80128 0.18264 0.24972
 H969 H 0.78096 0.27529 0.21876
 H970 H 0.77985 0.20851 0.28594
 H971 H 0.71698 0.27951 0.28837
 H972 H 0.71040 0.21252 0.22152
 H973 H 0.70521 0.25635 0.18913
 H974 H 0.67796 0.23904 0.21553
 H975 H 0.81667 0.22696 0.28940
 H976 H 0.79183 0.25146 0.31642
 H977 H 0.75974 0.28216 0.18474
 H978 H 0.73903 0.30910 0.21233
 H979 H 0.75774 0.17406 0.29201
 H980 H 0.73670 0.20292 0.31877
 H981 H 0.79284 0.30576 0.26215
 H982 H 0.81770 0.27818 0.23722
 H983 H 0.68156 0.20607 0.26875
 H984 H 0.70395 0.17734 0.24258
 C985 C 0.25497 0.11319 0.11527
 C986 C 0.24040 0.09211 0.11907
 C987 C 0.23902 0.07403 0.10078
 C988 C 0.25212 0.07647 0.07813
 C989 C 0.26636 0.09841 0.07522
 N990 N 0.26718 0.11584 0.09340
 C991 C 0.25681 0.13285 0.13427
 N992 N 0.26056 0.15678 0.12704
 C993 C 0.26159 0.17580 0.14354
 C994 C 0.25876 0.17122 0.16905
 C995 C 0.25556 0.14658 0.17689
 C996 C 0.25463 0.12742 0.15964
 H997 H 0.22856 0.05762 0.10550
 H998 H 0.27604 0.10259 0.05822
 H999 H 0.26433 0.19447 0.13665
 H1000 H 0.25352 0.14206 0.19635
 H1001 H 0.22993 0.08953 0.13599
 H1002 H 0.25240 0.10857 0.16621
 C1003 C 0.76136 0.61888 0.61253
 C1004 C 0.75405 0.59473 0.61901
 C1005 C 0.75198 0.57671 0.60073
 C1006 C 0.75694 0.58257 0.57589
 C1007 C 0.76406 0.60696 0.57007
 N1008 N 0.76590 0.62432 0.58827
 C1009 C 0.76331 0.63862 0.63143
 N1010 N 0.75915 0.66268 0.62481
 C1011 C 0.75925 0.68145 0.64165
 C1012 C 0.76344 0.67638 0.66687
 C1013 C 0.76869 0.65183 0.67384
 C1014 C 0.76879 0.63302 0.65625
 H1015 H 0.74667 0.55808 0.60609
 H1016 H 0.76782 0.61228 0.55109
 H1017 H 0.75532 0.70014 0.63541
 H1018 H 0.77248 0.64706 0.69298
 H1019 H 0.74950 0.58977 0.63791
 H1020 H 0.77310 0.61431 0.66215
 C1021 C 0.75423 0.89209 0.12389
 C1022 C 0.77448 0.89448 0.10773
 C1023 C 0.77372 0.91212 0.08880
 C1024 C 0.75277 0.92721 0.08579
 C1025 C 0.73319 0.92470 0.10272
 N1026 N 0.73441 0.90748 0.12116
 C1027 C 0.75372 0.87278 0.14334
 N1028 N 0.74262 0.87766 0.16547
 C1029 C 0.74124 0.86042 0.18390
 C1030 C 0.75088 0.83649 0.18030
 C1031 C 0.76205 0.83102 0.15748
 C1032 C 0.76364 0.84911 0.13905
 H1033 H 0.78915 0.91346 0.07603
 H1034 H 0.71684 0.93623 0.10112
 H1035 H 0.73236 0.86532 0.20120
 H1036 H 0.76980 0.81282 0.15396
 H1037 H 0.79069 0.88281 0.10967
 H1038 H 0.77208 0.84445 0.12147
 C1039 C 0.25122 0.38716 0.62283
 C1040 C 0.27152 0.38924 0.60670
 C1041 C 0.27113 0.40699 0.58787
 C1042 C 0.25050 0.42252 0.58496
 C1043 C 0.23087 0.42033 0.60189
 N1044 N 0.23173 0.40298 0.62022
 C1045 C 0.25034 0.36769 0.64209
 N1046 N 0.23976 0.37265 0.66445
 C1047 C 0.23841 0.35533 0.68281
 C1048 C 0.24760 0.33128 0.67890
 C1049 C 0.25810 0.32571 0.65578
 C1050 C 0.25963 0.34385 0.63743
 H1051 H 0.28658 0.40807 0.57511
 H1052 H 0.21477 0.43222 0.60036
 H1053 H 0.23006 0.36030 0.70035
 H1054 H 0.26554 0.30743 0.65200
 H1055 H 0.28749 0.37721 0.60856
 H1056 H 0.26765 0.33915 0.61966
 C1057 C 0.74542 0.11392 0.87595
 C1058 C 0.72517 0.09787 0.87826
 C1059 C 0.72541 0.07947 0.89645
 C1060 C 0.74598 0.07658 0.91232
 C1061 C 0.76607 0.09300 0.90892
 N1062 N 0.76511 0.11113 0.89138
 C1063 C 0.74567 0.13398 0.85731
 N1064 N 0.75605 0.15625 0.86310
 C1065 C 0.75695 0.17539 0.84662
 C1066 C 0.74754 0.17240 0.82258
 C1067 C 0.73700 0.14951 0.81621
 C1068 C 0.73586 0.13035 0.83354
 H1069 H 0.70967 0.06710 0.89743
 H1070 H 0.78208 0.09244 0.92093
 H1071 H 0.76547 0.19269 0.85213
 H1072 H 0.72957 0.14644 0.79782
 H1073 H 0.70911 0.09977 0.86639
 H1074 H 0.72790 0.11272 0.82823
 C1075 C 0.23924 0.61155 0.37692
 C1076 C 0.22042 0.59363 0.37809
 C1077 C 0.22139 0.57522 0.39628
 C1078 C 0.24116 0.57448 0.41310
 C1079 C 0.25968 0.59263 0.41122
 N1080 N 0.25817 0.61060 0.39356
 C1081 C 0.23887 0.63159 0.35822
 N1082 N 0.24857 0.65416 0.36404
 C1083 C 0.24933 0.67321 0.34746
 C1084 C 0.24049 0.66985 0.32324
 C1085 C 0.23048 0.64670 0.31689
 C1086 C 0.22951 0.62761 0.33432
 H1087 H 0.20670 0.56158 0.39726
 H1088 H 0.27500 0.59287 0.42415
 H1089 H 0.25746 0.69069 0.35300
 H1090 H 0.22355 0.64330 0.29837
 H1091 H 0.20483 0.59412 0.36549
 H1092 H 0.22219 0.60975 0.32887
 C1093 C 0.24373 0.87886 0.87935
 C1094 C 0.23501 0.90283 0.87397
 C1095 C 0.23570 0.92107 0.89219
 C1096 C 0.24481 0.91562 0.91594
 C1097 C 0.25312 0.89136 0.92071
 N1098 N 0.25228 0.87382 0.90259
 C1099 C 0.24346 0.85891 0.86046
 N1100 N 0.24242 0.83475 0.86788
 C1101 C 0.24178 0.81560 0.85146
 C1102 C 0.24224 0.82027 0.82581
 C1103 C 0.24376 0.84504 0.81785
 C1104 C 0.24447 0.86430 0.83500
 H1105 H 0.22930 0.93955 0.88757
 H1106 H 0.26000 0.88627 0.93886
 H1107 H 0.24082 0.79681 0.85849
 H1108 H 0.24447 0.84963 0.79831
 H1109 H 0.22736 0.90752 0.85604
 H1110 H 0.24618 0.88312 0.82823
 C1111 C 0.75972 0.37588 0.38463
 C1112 C 0.76749 0.37224 0.40926
 C1113 C 0.76653 0.39196 0.42599
 C1114 C 0.75800 0.41534 0.41830
 C1115 C 0.75099 0.41833 0.39341
 N1116 N 0.75201 0.39886 0.37750
 C1117 C 0.75956 0.35565 0.36602
 N1118 N 0.75859 0.36176 0.34153
 C1119 C 0.75746 0.34443 0.32329
 C1120 C 0.75697 0.31906 0.32928
 C1121 C 0.75796 0.31233 0.35444
 C1122 C 0.75920 0.33047 0.37279
 H1123 H 0.77212 0.38881 0.44501
 H1124 H 0.74484 0.43617 0.38651
 H1125 H 0.75663 0.35055 0.30419
 H1126 H 0.75742 0.29303 0.36002
 H1127 H 0.77443 0.35454 0.41567
 H1128 H 0.75915 0.32464 0.39197
 C1129 C 0.12629 0.25046 0.10707
 C1130 C 0.12776 0.26158 0.08358
 C1131 C 0.10740 0.26051 0.06760
 C1132 C 0.08543 0.24819 0.07472
 C1133 C 0.08501 0.23738 0.09859
 N1134 N 0.10494 0.23898 0.11380
 C1135 C 0.14668 0.25148 0.12538
 N1136 N 0.14090 0.24857 0.14975
 C1137 C 0.15827 0.24876 0.16792
 C1138 C 0.18343 0.25174 0.16202
 C1139 C 0.18992 0.25458 0.13696
 C1140 C 0.17163 0.25451 0.11859
 H1141 H 0.10942 0.26872 0.04941
 H1142 H 0.06857 0.22863 0.10591
 H1143 H 0.15233 0.24631 0.18693
 H1144 H 0.20911 0.25679 0.13154
 H1145 H 0.14422 0.27135 0.07765
 H1146 H 0.17712 0.25626 0.09939
 C1147 C 0.62471 0.75006 0.60787
 C1148 C 0.62805 0.74349 0.58287
 C1149 C 0.60766 0.74332 0.56686
 C1150 C 0.58401 0.74966 0.57562
 C1151 C 0.58150 0.75591 0.60073
 N1152 N 0.60154 0.75587 0.61591
 C1153 C 0.64514 0.75024 0.62626
 N1154 N 0.63902 0.75044 0.65072
 C1155 C 0.65622 0.75080 0.66905
 C1156 C 0.68158 0.75109 0.66330
 C1157 C 0.68844 0.75111 0.63818
 C1158 C 0.67034 0.75072 0.61962
 H1159 H 0.61043 0.73841 0.54761
 H1160 H 0.56357 0.76042 0.60846
 H1161 H 0.64994 0.75085 0.68810
 H1162 H 0.70777 0.75143 0.63285
 H1163 H 0.64595 0.73814 0.57568
 H1164 H 0.67618 0.75119 0.60047
 C1165 C 0.10433 0.73889 0.87997
 C1166 C 0.09949 0.71834 0.89513
 C1167 C 0.08082 0.71972 0.91295
 C1168 C 0.06712 0.74179 0.91622
 C1169 C 0.07228 0.76168 0.89993
 N1170 N 0.09032 0.75968 0.88248
 C1171 C 0.12455 0.73862 0.86158
 N1172 N 0.12132 0.75032 0.83942
 C1173 C 0.13944 0.75117 0.82193
 C1174 C 0.16264 0.74035 0.82660
 C1175 C 0.16649 0.72855 0.84948
 C1176 C 0.14743 0.72745 0.86691
 H1177 H 0.07832 0.70387 0.92502
 H1178 H 0.06173 0.77873 0.90060
 H1179 H 0.13584 0.76064 0.80458
 H1180 H 0.18413 0.71998 0.85377
 H1181 H 0.11011 0.70140 0.89332
 H1182 H 0.15074 0.71846 0.88458
 C1183 C 0.61865 0.24804 0.38839
 C1184 C 0.62212 0.23805 0.41218
 C1185 C 0.60270 0.23853 0.42914
 C1186 C 0.57972 0.24874 0.42252
 C1187 C 0.57693 0.25848 0.39854
 N1188 N 0.59616 0.25776 0.38227
 C1189 C 0.63847 0.24758 0.36948
 N1190 N 0.63201 0.24855 0.34512
 C1191 C 0.64906 0.24796 0.32662
 C1192 C 0.67444 0.24636 0.33218
 C1193 C 0.68154 0.24572 0.35719
 C1194 C 0.66368 0.24640 0.37585
 H1195 H 0.60575 0.23106 0.44754
 H1196 H 0.55944 0.26631 0.39263
 H1197 H 0.64269 0.24872 0.30762
 H1198 H 0.70089 0.24480 0.36239
 H1199 H 0.63941 0.22950 0.41765
 H1200 H 0.66972 0.24642 0.39495
 C1201 C 0.88377 0.75435 0.12850
 C1202 C 0.90673 0.74254 0.13160
 C1203 C 0.92407 0.74295 0.11236
 C1204 C 0.91886 0.75518 0.08977
 C1205 C 0.89536 0.76660 0.08761
 N1206 N 0.87881 0.76574 0.10656
 C1207 C 0.86447 0.75451 0.14807
 N1208 N 0.84041 0.75821 0.14138
 C1209 C 0.82166 0.75910 0.15819
 C1210 C 0.82662 0.75645 0.18361
 C1211 C 0.85133 0.75278 0.19094
 C1212 C 0.87024 0.75181 0.17331
 H1213 H 0.94180 0.73428 0.11577
 H1214 H 0.88942 0.77533 0.07058
 H1215 H 0.80295 0.76215 0.15166
 H1216 H 0.85613 0.75080 0.21033
 H1217 H 0.91131 0.73276 0.14851
 H1218 H 0.88912 0.74956 0.17958
 C1219 C 0.37939 0.25478 0.62024
 C1220 C 0.37417 0.24535 0.59658
 C1221 C 0.39271 0.24478 0.57869
 C1222 C 0.41662 0.25329 0.58421
 C1223 C 0.42121 0.26237 0.60814
 N1224 N 0.40277 0.26277 0.62535
 C1225 C 0.36020 0.25572 0.63983
 N1226 N 0.36721 0.25519 0.66408
 C1227 C 0.35049 0.25552 0.68296
 C1228 C 0.32497 0.25641 0.67788
 C1229 C 0.31744 0.25748 0.65300
 C1230 C 0.33490 0.25726 0.63402
 H1231 H 0.38823 0.23786 0.56041
 H1232 H 0.43946 0.26887 0.61324
 H1233 H 0.35717 0.25492 0.70186
 H1234 H 0.29802 0.25863 0.64812
 H1235 H 0.35611 0.23810 0.59189
 H1236 H 0.32851 0.25865 0.61508
 C1237 C 0.87679 0.25238 0.88731
 C1238 C 0.87327 0.26342 0.91057
 C1239 C 0.89177 0.26158 0.92858
 C1240 C 0.91400 0.24866 0.92374
 C1241 C 0.91666 0.23816 0.89989
 N1242 N 0.89843 0.24039 0.88271
 C1243 C 0.85794 0.25351 0.86740
 N1244 N 0.86533 0.25046 0.84345
 C1245 C 0.84913 0.25047 0.82416
 C1246 C 0.82365 0.25335 0.82845
 C1247 C 0.81562 0.25646 0.85302
 C1248 C 0.83262 0.25655 0.87248
 H1249 H 0.88802 0.26965 0.94652
 H1250 H 0.93356 0.22904 0.89426
 H1251 H 0.85618 0.24785 0.80557
 H1252 H 0.79614 0.25860 0.85729
 H1253 H 0.85658 0.27363 0.91489
 H1254 H 0.82581 0.25830 0.89124
 C1255 C 0.37337 0.74313 0.38867
 C1256 C 0.36836 0.73414 0.41266
 C1257 C 0.38677 0.73511 0.43082
 C1258 C 0.41014 0.74496 0.42519
 C1259 C 0.41453 0.75324 0.40087
 N1260 N 0.39635 0.75210 0.38354
 C1261 C 0.35464 0.74304 0.36860
 N1262 N 0.36248 0.74421 0.34462
 C1263 C 0.34651 0.74478 0.32513
 C1264 C 0.32084 0.74440 0.32923
 C1265 C 0.31236 0.74341 0.35384
 C1266 C 0.32911 0.74277 0.37350
 H1267 H 0.38265 0.72846 0.44932
 H1268 H 0.43247 0.76042 0.39555
 H1269 H 0.35393 0.74561 0.30652
 H1270 H 0.29274 0.74319 0.35799
 H1271 H 0.35061 0.72617 0.41741
 H1272 H 0.32198 0.74262 0.39222
 C1273 C 0.12070 0.12291 0.24584
 C1274 C 0.09645 0.12788 0.23782
 C1275 C 0.07894 0.10891 0.23768
 C1276 C 0.08540 0.08482 0.24524
 C1277 C 0.10987 0.08054 0.25299
 N1278 N 0.12666 0.09937 0.25297
 C1279 C 0.14011 0.14238 0.24603
 N1280 N 0.16436 0.13548 0.24510
 C1281 C 0.18315 0.15228 0.24467
 C1282 C 0.17802 0.17786 0.24513
 C1283 C 0.15316 0.18535 0.24659
 C1284 C 0.13425 0.16776 0.24718
 H1285 H 0.06024 0.11319 0.23182
 H1286 H 0.11573 0.06219 0.25871
 H1287 H 0.20203 0.14560 0.24370
 H1288 H 0.14827 0.20482 0.24730
 H1289 H 0.09096 0.14604 0.23128
 H1290 H 0.11534 0.17416 0.24881
 C1291 C 0.62690 0.61463 0.74026
 C1292 C 0.63096 0.59004 0.73260
 C1293 C 0.61152 0.57297 0.73357
 C1294 C 0.58810 0.58032 0.74211
 C1295 C 0.58474 0.60515 0.74912
 N1296 N 0.60389 0.62138 0.74801
 C1297 C 0.64655 0.63377 0.73996
 N1298 N 0.63966 0.65806 0.74058
 C1299 C 0.65634 0.67689 0.74095
 C1300 C 0.68183 0.67179 0.74090
 C1301 C 0.68940 0.64685 0.74042
 C1302 C 0.67188 0.62783 0.74000
 H1303 H 0.61487 0.55399 0.72796
 H1304 H 0.56684 0.61175 0.75529
 H1305 H 0.64958 0.69580 0.74136
 H1306 H 0.70886 0.64199 0.74049
 H1307 H 0.64872 0.58396 0.72564
 H1308 H 0.67828 0.60883 0.74025
 C1309 C 0.88977 0.12414 0.74304
 C1310 C 0.89474 0.10990 0.72195
 C1311 C 0.91399 0.09263 0.72243
 C1312 C 0.92818 0.08897 0.74411
 C1313 C 0.92281 0.10432 0.76461
 N1314 N 0.90420 0.12128 0.76348
 C1315 C 0.86914 0.14211 0.74362
 N1316 N 0.87204 0.16387 0.75602
 C1317 C 0.85365 0.18106 0.75747
 C1318 C 0.83052 0.17649 0.74651
 C1319 C 0.82698 0.15396 0.73406
 C1320 C 0.84630 0.13682 0.73239
 H1321 H 0.91661 0.08124 0.70616
 H1322 H 0.93365 0.10335 0.78143
 H1323 H 0.85702 0.19813 0.76744
 H1324 H 0.80941 0.14976 0.72536
 H1325 H 0.88381 0.11203 0.70526
 H1326 H 0.84326 0.11945 0.72284
 C1327 C 0.37958 0.61088 0.25073
 C1328 C 0.37591 0.58681 0.24156
 C1329 C 0.39561 0.57013 0.24122
 C1330 C 0.41908 0.57726 0.24982
 C1331 C 0.42199 0.60143 0.25894
 N1332 N 0.40251 0.61744 0.25899
 C1333 C 0.35959 0.62970 0.25072
 N1334 N 0.36595 0.65412 0.25107
 C1335 C 0.34882 0.67258 0.25073
 C1336 C 0.32342 0.66695 0.25002
 C1337 C 0.31641 0.64188 0.25001
 C1338 C 0.33437 0.62325 0.25044
 H1339 H 0.39247 0.55157 0.23426
 H1340 H 0.43982 0.60775 0.26553
 H1341 H 0.35515 0.69162 0.25098
 H1342 H 0.29705 0.63663 0.24978
 H1343 H 0.35826 0.58095 0.23417
 H1344 H 0.32840 0.60412 0.25093
 C1345 C 0.10972 0.87454 0.74487
 C1346 C 0.08639 0.87264 0.73360
 C1347 C 0.06987 0.89258 0.73479
 C1348 C 0.07628 0.91463 0.74732
 C1349 C 0.10011 0.91559 0.75811
 N1350 N 0.11583 0.89600 0.75648
 C1351 C 0.12824 0.85423 0.74429
 N1352 N 0.15253 0.85998 0.74779
 C1353 C 0.17066 0.84249 0.74835
 C1354 C 0.16475 0.81727 0.74563
 C1355 C 0.13979 0.81089 0.74204
 C1356 C 0.12152 0.82924 0.74135
 H1357 H 0.05180 0.89011 0.72654
 H1358 H 0.10693 0.93217 0.76698
 H1359 H 0.18960 0.84833 0.75132
 H1360 H 0.13429 0.79168 0.74002
 H1361 H 0.08091 0.85612 0.72368
 H1362 H 0.10240 0.82372 0.73922
 C1363 C 0.62394 0.38384 0.25085
 C1364 C 0.63013 0.40785 0.24282
 C1365 C 0.61205 0.42627 0.24236
 C1366 C 0.58767 0.42092 0.24958
 C1367 C 0.58212 0.39663 0.25720
 N1368 N 0.60011 0.37894 0.25755
 C1369 C 0.64251 0.36363 0.25177
 N1370 N 0.63474 0.33963 0.25068
 C1371 C 0.65079 0.32016 0.25120
 C1372 C 0.67641 0.32434 0.25290
 C1373 C 0.68475 0.34894 0.25446
 C1374 C 0.66795 0.36854 0.25404
 H1375 H 0.61726 0.44479 0.23656
 H1376 H 0.56348 0.39162 0.26260
 H1377 H 0.64349 0.30150 0.25015
 H1378 H 0.70428 0.35312 0.25619
 H1379 H 0.64859 0.41246 0.23658
 H1380 H 0.67495 0.38723 0.25589
 C1381 C 0.88229 0.89123 0.25568
 C1382 C 0.88620 0.90535 0.23424
 C1383 C 0.90571 0.92221 0.23339
 C1384 C 0.92137 0.92549 0.25404
 C1385 C 0.91639 0.91106 0.27536
 N1386 N 0.89754 0.89433 0.27547
 C1387 C 0.86223 0.87272 0.25691
 N1388 N 0.86632 0.85051 0.26832
 C1389 C 0.84870 0.83249 0.26933
 C1390 C 0.82528 0.83656 0.25879
 C1391 C 0.82059 0.85955 0.24742
 C1392 C 0.83902 0.87756 0.24632
 H1393 H 0.90786 0.93318 0.21671
 H1394 H 0.92810 0.91204 0.29158
 H1395 H 0.85296 0.81509 0.27845
 H1396 H 0.80280 0.86345 0.23900
 H1397 H 0.87452 0.90311 0.21808
 H1398 H 0.83509 0.89518 0.23746
 C1399 C 0.37840 0.39289 0.75282
 C1400 C 0.37377 0.41740 0.74508
 C1401 C 0.39318 0.43448 0.74441
 C1402 C 0.41716 0.42726 0.75133
 C1403 C 0.42103 0.40255 0.75866
 N1404 N 0.40189 0.38627 0.75914
 C1405 C 0.35887 0.37366 0.75372
 N1406 N 0.36584 0.34938 0.75391
 C1407 C 0.34923 0.33050 0.75477
 C1408 C 0.32374 0.33555 0.75555
 C1409 C 0.31611 0.36048 0.75574
 C1410 C 0.33355 0.37953 0.75491
 H1411 H 0.38940 0.45337 0.73865
 H1412 H 0.43933 0.39603 0.76364
 H1413 H 0.35601 0.31160 0.75467
 H1414 H 0.29666 0.36531 0.75654
 H1415 H 0.35559 0.42337 0.73918
 H1416 H 0.32711 0.39851 0.75558
 C1417 C 0.12113 0.24578 0.89125
 C1418 C 0.12404 0.23394 0.91425
 C1419 C 0.10447 0.23388 0.93118
 C1420 C 0.08182 0.24568 0.92546
 C1421 C 0.07984 0.25701 0.90191
 N1422 N 0.09910 0.25662 0.88578
 C1423 C 0.14096 0.24652 0.87237
 N1424 N 0.13448 0.25018 0.84825
 C1425 C 0.15148 0.25173 0.82976
 C1426 C 0.17684 0.24985 0.83512
 C1427 C 0.18397 0.24622 0.85991
 C1428 C 0.16614 0.24455 0.87855
 H1429 H 0.10767 0.22528 0.94902
 H1430 H 0.06275 0.26535 0.89563
 H1431 H 0.14510 0.25462 0.81096
 H1432 H 0.20333 0.24472 0.86494
 H1433 H 0.14106 0.22457 0.91916
 H1434 H 0.17216 0.24234 0.89754
 C1435 C 0.61560 0.75467 0.39023
 C1436 C 0.61466 0.73501 0.40733
 C1437 C 0.59577 0.73428 0.42492
 C1438 C 0.57793 0.75317 0.42568
 C1439 C 0.57957 0.77259 0.40838
 N1440 N 0.59799 0.77274 0.39115
 C1441 C 0.63509 0.75588 0.37103
 N1442 N 0.62970 0.76550 0.34828
 C1443 C 0.64684 0.76683 0.32981
 C1444 C 0.67115 0.75853 0.33394
 C1445 C 0.67710 0.74887 0.35738
 C1446 C 0.65918 0.74744 0.37588
 H1447 H 0.59505 0.71896 0.43793
 H1448 H 0.56591 0.78729 0.40819
 H1449 H 0.64155 0.77460 0.31207
 H1450 H 0.69561 0.74222 0.36142
 H1451 H 0.62803 0.72005 0.40680
 H1452 H 0.66427 0.74018 0.39390
 C1453 C 0.87850 0.75195 0.88377
 C1454 C 0.87359 0.73903 0.90578
 C1455 C 0.89133 0.73830 0.92446
 C1456 C 0.91436 0.75035 0.92156
 C1457 C 0.91855 0.76278 0.89884
 N1458 N 0.90089 0.76309 0.88084
 C1459 C 0.85999 0.75335 0.86361
 N1460 N 0.86775 0.75544 0.83967
 C1461 C 0.85162 0.75616 0.82029
 C1462 C 0.82597 0.75477 0.82452
 C1463 C 0.81764 0.75329 0.84913
 C1464 C 0.83450 0.75264 0.86863
 H1465 H 0.88623 0.72909 0.94153
 H1466 H 0.93606 0.77160 0.89483
 H1467 H 0.85889 0.75759 0.80165
 H1468 H 0.79807 0.75251 0.85341
 H1469 H 0.85625 0.72939 0.90863
 H1470 H 0.82753 0.75185 0.88742
 C1471 C 0.38314 0.25699 0.38004
 C1472 C 0.37774 0.26770 0.40311
 C1473 C 0.39571 0.26795 0.42159
 C1474 C 0.41927 0.25787 0.41722
 C1475 C 0.42413 0.24770 0.39376
 N1476 N 0.40622 0.24758 0.37599
 C1477 C 0.36439 0.25591 0.36003
 N1478 N 0.37192 0.25485 0.33595
 C1479 C 0.35560 0.25406 0.31673
 C1480 C 0.32997 0.25425 0.32127
 C1481 C 0.32189 0.25491 0.34599
 C1482 C 0.33893 0.25562 0.36531
 H1483 H 0.39100 0.27576 0.43945
 H1484 H 0.44215 0.24002 0.38950
 H1485 H 0.36269 0.25340 0.29798
 H1486 H 0.30234 0.25478 0.35049
 H1487 H 0.35995 0.27607 0.40693
 H1488 H 0.33208 0.25553 0.38415
 C1489 C 0.12102 0.75385 0.11157
 C1490 C 0.12435 0.74386 0.08779
 C1491 C 0.10450 0.74335 0.07130
 C1492 C 0.08124 0.75262 0.07834
 C1493 C 0.07870 0.76267 0.10216
 N1494 N 0.09831 0.76282 0.11800
 C1495 C 0.14106 0.75370 0.13033
 N1496 N 0.13476 0.75467 0.15472
 C1497 C 0.15187 0.75388 0.17314
 C1498 C 0.17722 0.75192 0.16751
 C1499 C 0.18422 0.75141 0.14247
 C1500 C 0.16626 0.75237 0.12386
 H1501 H 0.10736 0.73567 0.05299
 H1502 H 0.06105 0.76984 0.10839
 H1503 H 0.14556 0.75460 0.19217
 H1504 H 0.20354 0.75024 0.13722
 H1505 H 0.14180 0.73589 0.08204
 H1506 H 0.17222 0.75233 0.10473
 C1507 C 0.62057 0.25309 0.61384
 C1508 C 0.62387 0.26357 0.59023
 C1509 C 0.60400 0.26449 0.57379
 C1510 C 0.58074 0.25518 0.58074
 C1511 C 0.57815 0.24490 0.60451
 N1512 N 0.59781 0.24427 0.62027
 C1513 C 0.64082 0.25216 0.63231
 N1514 N 0.63481 0.25053 0.65674
 C1515 C 0.65220 0.24993 0.67491
 C1516 C 0.67752 0.25093 0.66894
 C1517 C 0.68418 0.25223 0.64383
 C1518 C 0.66596 0.25277 0.62549
 H1519 H 0.60692 0.27232 0.55552
 H1520 H 0.56049 0.23771 0.61069
 H1521 H 0.64613 0.24876 0.69399
 H1522 H 0.70346 0.25281 0.63832
 H1523 H 0.64138 0.27144 0.58452
 H1524 H 0.67164 0.25329 0.60629
 C1525 C 0.87501 0.23590 0.11532
 C1526 C 0.87056 0.22907 0.09056
 C1527 C 0.88975 0.23051 0.07324
 C1528 C 0.91334 0.23863 0.08046
 C1529 C 0.91713 0.24468 0.10547
 N1530 N 0.89819 0.24319 0.12195
 C1531 C 0.85548 0.23548 0.13463
 N1532 N 0.86247 0.23562 0.15888
 C1533 C 0.84586 0.23619 0.17780
 C1534 C 0.82036 0.23695 0.17282
 C1535 C 0.81270 0.23679 0.14794
 C1536 C 0.83012 0.23612 0.12885
 H1537 H 0.88603 0.22563 0.05414
 H1538 H 0.93516 0.25046 0.11199
 H1539 H 0.85267 0.23630 0.19666
 H1540 H 0.79324 0.23748 0.14315
 H1541 H 0.85267 0.22249 0.08451
 H1542 H 0.82362 0.23678 0.10991
 C1543 C 0.37798 0.73802 0.62378
 C1544 C 0.40222 0.72993 0.62872
 C1545 C 0.41999 0.73065 0.61000
 C1546 C 0.41381 0.73913 0.58616
 C1547 C 0.38930 0.74676 0.58185
 N1548 N 0.37226 0.74595 0.60046
 C1549 C 0.35844 0.73787 0.64317
 N1550 N 0.33420 0.73728 0.63621
 C1551 C 0.31533 0.73717 0.65296
 C1552 C 0.32035 0.73780 0.67852
 C1553 C 0.34522 0.73867 0.68606
 C1554 C 0.36422 0.73881 0.66855
 H1555 H 0.43869 0.72481 0.61432
 H1556 H 0.38361 0.75313 0.56369
 H1557 H 0.29646 0.73664 0.64624
 H1558 H 0.35007 0.73946 0.70551
 H1559 H 0.40752 0.72278 0.64669
 H1560 H 0.38312 0.74016 0.67500
 C1561 C 0.24568 0.12409 0.88981
 C1562 C 0.22548 0.10782 0.89174
 C1563 C 0.22576 0.08912 0.90965
 C1564 C 0.24617 0.08648 0.92549
 C1565 C 0.26565 0.10359 0.92347
 N1566 N 0.26492 0.12177 0.90595
 C1567 C 0.24681 0.14318 0.87017
 N1568 N 0.25768 0.16545 0.87497
 C1569 C 0.25958 0.18357 0.85746
 C1570 C 0.25072 0.17950 0.83334
 C1571 C 0.23982 0.15652 0.82795
 C1572 C 0.23770 0.13842 0.84630
 H1573 H 0.21043 0.07621 0.91057
 H1574 H 0.28158 0.10229 0.93558
 H1575 H 0.26821 0.20101 0.86232
 H1576 H 0.23263 0.15265 0.80962
 H1577 H 0.20969 0.10944 0.87947
 H1578 H 0.22947 0.12071 0.84171
 C1579 C 0.74013 0.62792 0.38980
 C1580 C 0.72036 0.61121 0.39234
 C1581 C 0.72199 0.59196 0.40959
 C1582 C 0.74332 0.58923 0.42415
 C1583 C 0.76237 0.60674 0.42157
 N1584 N 0.76031 0.62543 0.40472
 C1585 C 0.73993 0.64763 0.37075
 N1586 N 0.75134 0.66963 0.37547
 C1587 C 0.75261 0.68813 0.35831
 C1588 C 0.74261 0.68468 0.33455
 C1589 C 0.73092 0.66207 0.32927
 C1590 C 0.72941 0.64359 0.34733
 H1591 H 0.70694 0.57876 0.41101
 H1592 H 0.77897 0.60539 0.43273
 H1593 H 0.76189 0.70526 0.36305
 H1594 H 0.72289 0.65868 0.31119
 H1595 H 0.70386 0.61293 0.38106
 H1596 H 0.72073 0.62610 0.34274
 C1597 C 0.73993 0.11055 0.12061
 C1598 C 0.73233 0.08585 0.12430
 C1599 C 0.73321 0.06915 0.10458
 C1600 C 0.74151 0.07694 0.08119
 C1601 C 0.74838 0.10188 0.07816
 N1602 N 0.74742 0.11776 0.09762
 C1603 C 0.74000 0.12918 0.14074
 N1604 N 0.74065 0.15368 0.13453
 C1605 C 0.74146 0.17200 0.15177
 C1606 C 0.74186 0.16609 0.17712
 C1607 C 0.74134 0.14093 0.18396
 C1608 C 0.74048 0.12248 0.16591
 H1609 H 0.72775 0.05008 0.10773
 H1610 H 0.75436 0.10883 0.06030
 H1611 H 0.74196 0.19110 0.14558
 H1612 H 0.74186 0.13544 0.20327
 H1613 H 0.72555 0.07940 0.14203
 H1614 H 0.74080 0.10330 0.17180
 C1615 C 0.24348 0.60532 0.62292
 C1616 C 0.23648 0.58050 0.62692
 C1617 C 0.23684 0.56379 0.60716
 C1618 C 0.24408 0.57170 0.58345
 C1619 C 0.25059 0.59671 0.58020
 N1620 N 0.25008 0.61259 0.59967
 C1621 C 0.24342 0.62420 0.64285
 N1622 N 0.24348 0.64860 0.63625
 C1623 C 0.24360 0.66721 0.65317
 C1624 C 0.24372 0.66176 0.67863
 C1625 C 0.24399 0.63672 0.68590
 C1626 C 0.24392 0.61793 0.66814
 H1627 H 0.23169 0.54466 0.61048
 H1628 H 0.25578 0.60375 0.56213
 H1629 H 0.24351 0.68621 0.64664
 H1630 H 0.24436 0.63159 0.70532
 H1631 H 0.23042 0.57396 0.64487
 H1632 H 0.24466 0.59886 0.67433
 C1633 C 0.75041 0.88103 0.87935
 C1634 C 0.76027 0.87600 0.90292
 C1635 C 0.76057 0.89456 0.92082
 C1636 C 0.75130 0.91828 0.91540
 C1637 C 0.74189 0.92271 0.89151
 N1638 N 0.74178 0.90426 0.87431
 C1639 C 0.74959 0.86178 0.85981
 N1640 N 0.74986 0.86877 0.83553
 C1641 C 0.74967 0.85198 0.81671
 C1642 C 0.74917 0.82641 0.82188
 C1643 C 0.74833 0.81890 0.84681
 C1644 C 0.74843 0.83642 0.86572
 H1645 H 0.76780 0.89021 0.93904
 H1646 H 0.73485 0.94082 0.88646
 H1647 H 0.75018 0.85866 0.79778
 H1648 H 0.74765 0.79943 0.85178
 H1649 H 0.76801 0.85807 0.90753
 H1650 H 0.74732 0.83004 0.88471
 C1651 C 0.25310 0.38773 0.37033
 C1652 C 0.24481 0.41218 0.36642
 C1653 C 0.24377 0.42867 0.38637
 C1654 C 0.25094 0.42093 0.41017
 C1655 C 0.25885 0.39630 0.41328
 N1656 N 0.25963 0.38062 0.39365
 C1657 C 0.25429 0.36898 0.35028
 N1658 N 0.25532 0.34459 0.35679
 C1659 C 0.25648 0.32605 0.33983
 C1660 C 0.25673 0.33154 0.31437
 C1661 C 0.25607 0.35660 0.30716
 C1662 C 0.25489 0.37534 0.32499
 H1663 H 0.23757 0.44751 0.38314
 H1664 H 0.26408 0.38936 0.43138
 H1665 H 0.25713 0.30706 0.34634
 H1666 H 0.25641 0.36175 0.28775
 H1667 H 0.23878 0.41855 0.34839
 H1668 H 0.25482 0.39445 0.31889
 C1669 C 0.25606 0.87386 0.10991
 C1670 C 0.27448 0.87454 0.09152
 C1671 C 0.27359 0.89283 0.07321
 C1672 C 0.25432 0.91027 0.07302
 C1673 C 0.23616 0.90883 0.09158
 N1674 N 0.23759 0.89106 0.10945
 C1675 C 0.25654 0.85521 0.13001
 N1676 N 0.24761 0.86133 0.15281
 C1677 C 0.24735 0.84493 0.17203
 C1678 C 0.25601 0.82061 0.16867
 C1679 C 0.26509 0.81391 0.14524
 C1680 C 0.26549 0.83112 0.12595
 H1681 H 0.28800 0.89345 0.05926
 H1682 H 0.22123 0.92223 0.09226
 H1683 H 0.23991 0.85075 0.18972
 H1684 H 0.27185 0.79531 0.14179
 H1685 H 0.28974 0.86151 0.09161
 H1686 H 0.27218 0.82542 0.10793
 C1687 C 0.75474 0.37953 0.61147
 C1688 C 0.77442 0.38082 0.59449
 C1689 C 0.77430 0.39904 0.57610
 C1690 C 0.75452 0.41581 0.57439
 C1691 C 0.73513 0.41385 0.59163
 N1692 N 0.73582 0.39614 0.60964
 C1693 C 0.75435 0.36066 0.63140
 N1694 N 0.74442 0.36639 0.65390
 C1695 C 0.74371 0.34976 0.67296
 C1696 C 0.75299 0.32564 0.66970
 C1697 C 0.76297 0.31935 0.64652
 C1698 C 0.76377 0.33676 0.62743
 H1699 H 0.78964 0.40006 0.56320
 H1700 H 0.71976 0.42674 0.59112
 H1701 H 0.73561 0.35527 0.69045
 H1702 H 0.77030 0.30096 0.64313
 H1703 H 0.79002 0.36825 0.59572
 H1704 H 0.77129 0.33139 0.60964
 C1705 C 0.12374 0.11820 0.75613
 C1706 C 0.12932 0.09438 0.74723
 C1707 C 0.11063 0.07668 0.74552
 C1708 C 0.08629 0.08256 0.75246
 C1709 C 0.08140 0.10660 0.76114
 N1710 N 0.09995 0.12361 0.76259
 C1711 C 0.14284 0.13781 0.75782
 N1712 N 0.13572 0.16203 0.75686
 C1713 C 0.15228 0.18101 0.75756
 C1714 C 0.17778 0.17610 0.75922
 C1715 C 0.18546 0.15126 0.76089
 C1716 C 0.16812 0.13214 0.76031
 H1717 H 0.11530 0.05830 0.73894
 H1718 H 0.06283 0.11198 0.76643
 H1719 H 0.14547 0.19987 0.75647
 H1720 H 0.20488 0.14654 0.76262
 H1721 H 0.14776 0.08944 0.74116
 H1722 H 0.17457 0.11322 0.76204
 C1723 C 0.61320 0.63039 0.25496
 C1724 C 0.58866 0.63438 0.24711
 C1725 C 0.57191 0.61461 0.24695
 C1726 C 0.57945 0.59085 0.25452
 C1727 C 0.60420 0.58761 0.26189
 N1728 N 0.62014 0.60710 0.26187
 C1729 C 0.63208 0.65041 0.25553
 N1730 N 0.65646 0.64394 0.25645
 C1731 C 0.67499 0.66099 0.25720
 C1732 C 0.66950 0.68647 0.25713
 C1733 C 0.64447 0.69359 0.25649
 C1734 C 0.62577 0.67571 0.25576
 H1735 H 0.55301 0.61796 0.24111
 H1736 H 0.61103 0.56953 0.26735
 H1737 H 0.69397 0.65456 0.25784
 H1738 H 0.63926 0.71299 0.25664
 H1739 H 0.58237 0.65235 0.24077
 H1740 H 0.60671 0.68184 0.25581
 C1741 C 0.12603 0.88669 0.24106
 C1742 C 0.12889 0.90933 0.22851
 C1743 C 0.11053 0.92750 0.23043
 C1744 C 0.08919 0.92342 0.24499
 C1745 C 0.08716 0.90017 0.25698
 N1746 N 0.10519 0.88280 0.25460
 C1747 C 0.14471 0.86665 0.23998
 N1748 N 0.13734 0.84291 0.24453
 C1749 C 0.15345 0.82354 0.24492
 C1750 C 0.17882 0.82756 0.24103
 C1751 C 0.18684 0.85191 0.23627
 C1752 C 0.16990 0.87145 0.23571
 H1753 H 0.11371 0.94499 0.22110
 H1754 H 0.07087 0.89510 0.26744
 H1755 H 0.14643 0.80512 0.24874
 H1756 H 0.20624 0.85591 0.23317
 H1757 H 0.14494 0.91299 0.21709
 H1758 H 0.17666 0.89009 0.23268
 C1759 C 0.61780 0.38197 0.74174
 C1760 C 0.59377 0.37774 0.73277
 C1761 C 0.57662 0.39706 0.73253
 C1762 C 0.58324 0.42078 0.74092
 C1763 C 0.60753 0.42436 0.74949
 N1764 N 0.62396 0.40518 0.74959
 C1765 C 0.63674 0.36201 0.74249
 N1766 N 0.66114 0.36833 0.74282
 C1767 C 0.67955 0.35109 0.74344
 C1768 C 0.67386 0.32564 0.74387
 C1769 C 0.64880 0.31873 0.74383
 C1770 C 0.63027 0.33676 0.74326
 H1771 H 0.55803 0.39330 0.72602
 H1772 H 0.61352 0.44239 0.75586
 H1773 H 0.69859 0.35734 0.74357
 H1774 H 0.64346 0.29938 0.74441
 H1775 H 0.58818 0.35987 0.72566
 H1776 H 0.61117 0.33081 0.74387
 C1777 C 0.87605 0.10636 0.24847
 C1778 C 0.87280 0.08162 0.24092
 C1779 C 0.89297 0.06533 0.24142
 C1780 C 0.91628 0.07357 0.24944
 C1781 C 0.91871 0.09843 0.25665
 N1782 N 0.89891 0.11391 0.25591
 C1783 C 0.85587 0.12498 0.24808
 N1784 N 0.86225 0.14938 0.24864
 C1785 C 0.84523 0.16789 0.24893
 C1786 C 0.81983 0.16238 0.24891
 C1787 C 0.81271 0.13732 0.24837
 C1788 C 0.83063 0.11858 0.24798
 H1789 H 0.89031 0.04627 0.23569
 H1790 H 0.93644 0.10573 0.26247
 H1791 H 0.85169 0.18689 0.24938
 H1792 H 0.79332 0.13219 0.24844
 H1793 H 0.85516 0.07491 0.23428
 H1794 H 0.82464 0.09945 0.24816
 C1795 C 0.37404 0.60852 0.75309
 C1796 C 0.37563 0.59075 0.73416
 C1797 C 0.39578 0.57454 0.73352
 C1798 C 0.41416 0.57576 0.75183
 C1799 C 0.41170 0.59351 0.77065
 N1800 N 0.39214 0.60943 0.77064
 C1801 C 0.35382 0.62703 0.75371
 N1802 N 0.35863 0.65025 0.76235
 C1803 C 0.34111 0.66838 0.76285
 C1804 C 0.31695 0.66351 0.75457
 C1805 C 0.31146 0.63954 0.74607
 C1806 C 0.32983 0.62132 0.74551
 H1807 H 0.39710 0.56111 0.71868
 H1808 H 0.42569 0.59520 0.78491
 H1809 H 0.34607 0.68654 0.76977
 H1810 H 0.29306 0.63496 0.73953
 H1811 H 0.36191 0.58986 0.71958
 H1812 H 0.32521 0.60293 0.73897
 C1813 C 0.88079 0.88982 0.75201
 C1814 C 0.87581 0.91398 0.74359
 C1815 C 0.89477 0.93146 0.74297
 C1816 C 0.91880 0.92503 0.75053
 C1817 C 0.92304 0.90074 0.75893
 N1818 N 0.90425 0.88394 0.75927
 C1819 C 0.86152 0.87028 0.75211
 N1820 N 0.86865 0.84608 0.75098
 C1821 C 0.85207 0.82714 0.75019
 C1822 C 0.82651 0.83206 0.75042
 C1823 C 0.81876 0.85685 0.75216
 C1824 C 0.83614 0.87594 0.75312
 H1825 H 0.89060 0.95007 0.73659
 H1826 H 0.94136 0.89496 0.76471
 H1827 H 0.85893 0.80830 0.74911
 H1828 H 0.79927 0.86155 0.75280
 H1829 H 0.85769 0.91935 0.73694
 H1830 H 0.82960 0.89482 0.75489
 C1831 C 0.39453 0.37880 0.23881
 C1832 C 0.39738 0.39615 0.21956
 C1833 C 0.41635 0.41365 0.22083
 C1834 C 0.43239 0.41403 0.24127
 C1835 C 0.42937 0.39590 0.25976
 N1836 N 0.41082 0.37894 0.25806
 C1837 C 0.37403 0.36064 0.23887
 N1838 N 0.37760 0.33791 0.24934
 C1839 C 0.35938 0.32052 0.25032
 C1840 C 0.33573 0.32579 0.24080
 C1841 C 0.33155 0.34928 0.23033
 C1842 C 0.35063 0.36667 0.22921
 H1843 H 0.41798 0.42741 0.20626
 H1844 H 0.44156 0.39545 0.27569
 H1845 H 0.36332 0.30271 0.25876
 H1846 H 0.31359 0.35413 0.22280
 H1847 H 0.38508 0.39625 0.20372
 H1848 H 0.34693 0.38479 0.22134
   
