data_POSCAR
  _audit_creation_date              2014-09-24
  _audit_creation_method            'ToBaCCo'
  _symmetry_space_group_name_H-M    'P1'
  _symmetry_Int_Tables_number       1
  _symmetry_cell_setting            triclinic
  loop_
  _symmetry_equiv_pos_as_xyz
 x,y,z
_cell_length_a 62.9721
_cell_length_b 61.3528
_cell_length_c 58.3117
_cell_angle_alpha 90.020500
_cell_angle_beta 89.663300
_cell_angle_gamma 89.789700
loop_
  _atom_site_label
  _atom_site_type_symbol
  _atom_site_fract_x
  _atom_site_fract_y
  _atom_site_fract_z
N1 N 0.37706 0.32934 0.31509
 N2 N 0.38425 0.34796 0.30702
 C3 C 0.40313 0.34463 0.29669
 C4 C 0.40794 0.32272 0.29804
 C5 C 0.39106 0.31341 0.30978
 H6 H 0.41229 0.35707 0.28804
 H7 H 0.38907 0.29638 0.31401
 Cu8 Cu 0.36754 0.37449 0.30840
 Cu9 Cu 0.34986 0.32740 0.33149
 Cu10 Cu 0.32531 0.37673 0.34300
 N11 N 0.34566 0.39659 0.30435
 N12 N 0.32873 0.39698 0.31763
 C13 C 0.31542 0.41264 0.31035
 C14 C 0.32458 0.42267 0.29158
 C15 C 0.34385 0.41223 0.28826
 H16 H 0.30009 0.41625 0.31797
 H17 H 0.35522 0.41516 0.27465
 N18 N 0.31807 0.34997 0.35931
 N19 N 0.32648 0.33078 0.35432
 C20 C 0.31761 0.31566 0.36820
 C21 C 0.30318 0.32607 0.38257
 C22 C 0.30395 0.34774 0.37648
 H23 H 0.32187 0.29857 0.36842
 H24 H 0.29488 0.36096 0.38401
 H25 H 0.33517 0.35512 0.31895
 H26 H 0.35378 0.35803 0.34357
 N27 N 0.35196 0.80615 -0.17438
 N28 N 0.35249 0.81719 -0.19372
 C29 C 0.36907 0.81007 -0.20645
 C30 C 0.37969 0.79420 -0.19397
 C31 C 0.36844 0.79221 -0.17372
 H32 H 0.37353 0.81658 -0.22303
 H33 H 0.37181 0.78123 -0.15966
 Cu34 Cu 0.33272 0.84156 -0.19902
 Cu35 Cu 0.32936 0.81029 -0.15220
 Cu36 Cu 0.31461 0.86206 -0.14691
 N37 N 0.32141 0.87151 -0.19529
 N38 N 0.31733 0.87986 -0.17484
 C39 C 0.31177 0.90089 -0.17716
 C40 C 0.31151 0.90585 -0.20024
 C41 C 0.31769 0.88687 -0.21137
 H42 H 0.30664 0.91131 -0.16320
 H43 H 0.31953 0.88445 -0.22965
 N44 N 0.30253 0.83939 -0.12734
 N45 N 0.30764 0.81878 -0.13033
 C46 C 0.29571 0.80635 -0.11637
 C47 C 0.28260 0.81997 -0.10377
 C48 C 0.28745 0.84085 -0.11094
 H49 H 0.29649 0.78876 -0.11550
 H50 H 0.28001 0.85587 -0.10532
 H51 H 0.31063 0.83959 -0.17193
 H52 H 0.33873 0.84675 -0.16565
 N53 N 0.88826 0.32384 -0.16448
 N54 N 0.88500 0.33093 -0.18544
 C55 C 0.90044 0.32320 -0.19936
 C56 C 0.91432 0.31103 -0.18618
 C57 C 0.90626 0.31196 -0.16412
 H58 H 0.90156 0.32629 -0.21759
 H59 H 0.91243 0.30371 -0.14916
 Cu60 Cu 0.86116 0.35022 -0.19189
 Cu61 Cu 0.86739 0.32863 -0.14010
 Cu62 Cu 0.81721 0.34142 -0.16075
 N63 N 0.83688 0.36983 -0.19354
 N64 N 0.81889 0.36540 -0.18297
 C65 C 0.80450 0.38100 -0.18806
 C66 C 0.81439 0.39638 -0.20183
 C67 C 0.83492 0.38879 -0.20489
 H68 H 0.78854 0.38176 -0.18114
 H69 H 0.84745 0.39640 -0.21478
 N70 N 0.82188 0.32658 -0.13112
 N71 N 0.84106 0.32371 -0.12252
 C72 C 0.83931 0.31467 -0.10161
 C73 C 0.81807 0.31137 -0.09695
 C74 C 0.80738 0.31905 -0.11599
 H75 H 0.85257 0.30993 -0.09098
 H76 H 0.79038 0.31941 -0.11852
 H77 H 0.84579 0.32392 -0.16521
 H78 H 0.84649 0.35200 -0.15303
 N79 N 0.85959 0.80879 0.33333
 N80 N 0.86709 0.82790 0.32711
 C81 C 0.88690 0.82545 0.31885
 C82 C 0.89192 0.80358 0.31934
 C83 C 0.87425 0.79334 0.32849
 H84 H 0.89658 0.83847 0.31201
 H85 H 0.87235 0.77609 0.33171
 Cu86 Cu 0.84972 0.85397 0.32735
 Cu87 Cu 0.83168 0.80593 0.34798
 Cu88 Cu 0.80428 0.85411 0.35683
 N89 N 0.82730 0.87478 0.32052
 N90 N 0.80900 0.87414 0.33144
 C91 C 0.79578 0.88902 0.32235
 C92 C 0.80651 0.89967 0.30489
 C93 C 0.82655 0.89038 0.30430
 H94 H 0.77963 0.89185 0.32807
 H95 H 0.83933 0.89411 0.29247
 N96 N 0.79774 0.82746 0.37372
 N97 N 0.80741 0.80868 0.36976
 C98 C 0.79977 0.79373 0.38463
 C99 C 0.78487 0.80385 0.39864
 C100 C 0.78400 0.82516 0.39124
 H101 H 0.80553 0.77717 0.38610
 H102 H 0.77448 0.83819 0.39848
 H103 H 0.81738 0.83316 0.33397
 H104 H 0.83350 0.83681 0.36059
 N105 N 0.61926 0.68323 0.32961
 N106 N 0.62190 0.67544 0.30877
 C107 C 0.60749 0.68449 0.29473
 C108 C 0.59493 0.69844 0.30759
 C109 C 0.60266 0.69715 0.32969
 H110 H 0.60612 0.68103 0.27661
 H111 H 0.59708 0.70612 0.34454
 Cu112 Cu 0.64358 0.65383 0.30219
 Cu113 Cu 0.63878 0.67559 0.35432
 Cu114 Cu 0.68753 0.65736 0.33369
 N115 N 0.66575 0.63196 0.29994
 N116 N 0.68375 0.63424 0.31101
 C117 C 0.69672 0.61751 0.30563
 C118 C 0.68597 0.60381 0.29092
 C119 C 0.66636 0.61340 0.28768
 H120 H 0.71239 0.61500 0.31269
 H121 H 0.65359 0.60742 0.27708
 N122 N 0.68398 0.67155 0.36374
 N123 N 0.66511 0.67633 0.37245
 C124 C 0.66751 0.68324 0.39417
 C125 C 0.68891 0.68316 0.39913
 C126 C 0.69897 0.67582 0.37948
 H127 H 0.65470 0.68859 0.40529
 H128 H 0.71581 0.67305 0.37710
 H129 H 0.66102 0.67798 0.32948
 H130 H 0.65701 0.64999 0.34113
 N131 N 0.63672 0.19009 -0.16721
 N132 N 0.63566 0.17711 -0.18512
 C133 C 0.61680 0.18002 -0.19548
 C134 C 0.60533 0.19524 -0.18301
 C135 C 0.61836 0.20124 -0.16516
 H136 H 0.61180 0.17179 -0.21093
 H137 H 0.61518 0.21371 -0.15246
 Cu138 Cu 0.65902 0.15757 -0.19298
 Cu139 Cu 0.66299 0.19389 -0.15030
 Cu140 Cu 0.70373 0.15717 -0.16171
 N141 N 0.67913 0.13339 -0.19441
 N142 N 0.69728 0.13406 -0.18340
 C143 C 0.70905 0.11649 -0.18913
 C144 C 0.69734 0.10383 -0.20402
 C145 C 0.67836 0.11492 -0.20686
 H146 H 0.72471 0.11296 -0.18253
 H147 H 0.66529 0.11027 -0.21777
 N148 N 0.70437 0.17813 -0.13603
 N149 N 0.68929 0.19274 -0.13223
 C150 C 0.69452 0.20475 -0.11375
 C151 C 0.71348 0.19692 -0.10532
 C152 C 0.71923 0.17998 -0.11964
 H153 H 0.68483 0.21753 -0.10630
 H154 H 0.73313 0.16969 -0.11810
 H155 H 0.68447 0.18184 -0.17377
 H156 H 0.67201 0.16156 -0.15416
 N157 N 0.14231 0.68800 -0.20401
 N158 N 0.14070 0.66995 -0.21604
 C159 C 0.12373 0.67130 -0.22984
 C160 C 0.11434 0.69138 -0.22643
 C161 C 0.12657 0.70170 -0.21008
 H162 H 0.11842 0.65849 -0.24118
 H163 H 0.12366 0.71748 -0.20237
 Cu164 Cu 0.16061 0.64617 -0.21216
 Cu165 Cu 0.16335 0.69084 -0.17962
 Cu166 Cu 0.17539 0.63969 -0.15774
 N167 N 0.17575 0.62039 -0.20252
 N168 N 0.18043 0.61723 -0.18083
 C169 C 0.19007 0.59775 -0.17862
 C170 C 0.19198 0.58865 -0.20020
 C171 C 0.18279 0.60341 -0.21501
 H172 H 0.19627 0.59129 -0.16273
 H173 H 0.18147 0.60197 -0.23343
 N174 N 0.17900 0.66698 -0.14029
 N175 N 0.17576 0.68654 -0.14909
 C176 C 0.18165 0.70174 -0.13373
 C177 C 0.18885 0.69111 -0.11436
 C178 C 0.18690 0.66917 -0.11905
 H179 H 0.18065 0.71915 -0.13642
 H180 H 0.19155 0.65579 -0.10807
 H181 H 0.18232 0.66228 -0.18220
 H182 H 0.15382 0.66024 -0.17361
 N183 N 0.13883 0.18269 0.31614
 N184 N 0.13184 0.16260 0.31325
 C185 C 0.11264 0.16329 0.30336
 C186 C 0.10730 0.18476 0.29957
 C187 C 0.12419 0.19675 0.30794
 H188 H 0.10376 0.14913 0.29801
 H189 H 0.12592 0.21428 0.30757
 Cu190 Cu 0.14935 0.13636 0.31791
 Cu191 Cu 0.16697 0.18886 0.32971
 Cu192 Cu 0.19919 0.14555 0.33334
 N193 N 0.17167 0.11498 0.31227
 N194 N 0.19155 0.11907 0.31742
 C195 C 0.20391 0.10266 0.30982
 C196 C 0.19097 0.08738 0.29961
 C197 C 0.17058 0.09553 0.30166
 H198 H 0.22102 0.10206 0.31125
 H199 H 0.15621 0.08847 0.29486
 N200 N 0.20233 0.17021 0.35372
 N201 N 0.19055 0.18787 0.35175
 C202 C 0.19691 0.20258 0.36751
 C203 C 0.21316 0.19325 0.38017
 C204 C 0.21609 0.17275 0.37100
 H205 H 0.18971 0.21843 0.37015
 H206 H 0.22742 0.16056 0.37650
 H207 H 0.17076 0.16032 0.30983
 H208 H 0.16302 0.15843 0.34067
 N209 N 0.63205 0.31062 0.69014
 N210 N 0.63175 0.32835 0.70282
 C211 C 0.61422 0.32809 0.71623
 C212 C 0.60338 0.30895 0.71196
 C213 C 0.61516 0.29822 0.69546
 H214 H 0.60981 0.34061 0.72843
 H215 H 0.61135 0.28281 0.68748
 Cu216 Cu 0.65484 0.34947 0.70100
 Cu217 Cu 0.65321 0.30566 0.66638
 Cu218 Cu 0.69280 0.34425 0.66026
 N219 N 0.67746 0.37091 0.69751
 N220 N 0.69139 0.36941 0.68066
 C221 C 0.70423 0.38691 0.68114
 C222 C 0.69835 0.39975 0.69955
 C223 C 0.68142 0.38914 0.70970
 H224 H 0.71723 0.38983 0.66935
 H225 H 0.67244 0.39457 0.72451
 N226 N 0.69147 0.31758 0.64134
 N227 N 0.67587 0.30336 0.64322
 C228 C 0.67833 0.28789 0.62706
 C229 C 0.69654 0.29230 0.61478
 C230 C 0.70462 0.31114 0.62426
 H231 H 0.66768 0.27436 0.62433
 H232 H 0.71858 0.31986 0.61857
 H233 H 0.67763 0.32274 0.68186
 H234 H 0.66062 0.33825 0.66134
 N235 N 0.63069 0.80852 1.17086
 N236 N 0.62203 0.82692 1.17789
 C237 C 0.60179 0.82331 1.18415
 C238 C 0.59773 0.80140 1.18144
 C239 C 0.61639 0.79235 1.17318
 H240 H 0.59111 0.83550 1.19112
 H241 H 0.61924 0.77545 1.16881
 Cu242 Cu 0.63845 0.85337 1.18096
 Cu243 Cu 0.65951 0.80746 1.15840
 Cu244 Cu 0.68471 0.85719 1.15320
 N245 N 0.65962 0.87462 1.19003
 N246 N 0.67814 0.87562 1.17957
 C247 C 0.69019 0.89075 1.18989
 C248 C 0.67848 0.89975 1.20768
 C249 C 0.65911 0.88927 1.20724
 H250 H 0.70623 0.89486 1.18484
 H251 H 0.64589 0.89166 1.21892
 N252 N 0.69307 0.83164 1.13513
 N253 N 0.68425 0.81231 1.13786
 C254 C 0.69259 0.79849 1.12220
 C255 C 0.70706 0.80987 1.10892
 C256 C 0.70699 0.83078 1.11760
 H257 H 0.68735 0.78191 1.11952
 H258 H 0.71577 0.84458 1.11104
 H259 H 0.67218 0.83464 1.17424
 H260 H 0.65659 0.83891 1.14737
 N261 N 0.13276 0.32135 1.18593
 N262 N 0.12636 0.34037 1.19384
 C263 C 0.10791 0.33798 1.20519
 C264 C 0.10255 0.31625 1.20478
 C265 C 0.11864 0.30603 1.19245
 H266 H 0.09946 0.35095 1.21395
 H267 H 0.11998 0.28883 1.18857
 Cu268 Cu 0.14356 0.36621 1.19137
 Cu269 Cu 0.15903 0.31839 1.16793
 Cu270 Cu 0.18535 0.36661 1.15621
 N271 N 0.16639 0.38691 1.19538
 N272 N 0.18330 0.38662 1.18207
 C273 C 0.19694 0.40201 1.18918
 C274 C 0.18792 0.41248 1.20787
 C275 C 0.16851 0.40261 1.21128
 H276 H 0.21211 0.40548 1.18120
 H277 H 0.15696 0.40632 1.22453
 N278 N 0.19029 0.33988 1.13866
 N279 N 0.18131 0.32105 1.14375
 C280 C 0.18809 0.30596 1.12846
 C281 C 0.20160 0.31607 1.11297
 C282 C 0.20256 0.33750 1.11992
 H283 H 0.18266 0.28926 1.12782
 H284 H 0.21136 0.35048 1.11173
 H285 H 0.17498 0.34537 1.18018
 H286 H 0.15606 0.34942 1.15594
 N287 N 0.12121 0.83314 0.67499
 N288 N 0.12342 0.84946 0.68934
 C289 C 0.10806 0.84839 0.70551
 C290 C 0.09583 0.83023 0.70098
 C291 C 0.10454 0.82101 0.68149
 H292 H 0.10669 0.85917 0.72013
 H293 H 0.09969 0.80609 0.67318
 Cu294 Cu 0.14744 0.86904 0.68628
 Cu295 Cu 0.14109 0.82791 0.65006
 Cu296 Cu 0.19150 0.84669 0.66260
 N297 N 0.17440 0.88403 0.68628
 N298 N 0.19194 0.87504 0.67821
 C299 C 0.20829 0.88879 0.68181
 C300 C 0.20026 0.90742 0.69215
 C301 C 0.17879 0.90386 0.69463
 H302 H 0.22455 0.88579 0.67657
 H303 H 0.16726 0.91488 0.70217
 N304 N 0.18597 0.82335 0.63970
 N305 N 0.16649 0.81727 0.63448
 C306 C 0.16719 0.80257 0.61750
 C307 C 0.18810 0.79898 0.61164
 C308 C 0.19974 0.81239 0.62600
 H309 H 0.15342 0.79507 0.60987
 H310 H 0.21678 0.81457 0.62590
 H311 H 0.16289 0.83425 0.67459
 H312 H 0.16248 0.85456 0.65076
 N313 N 0.37731 0.67580 0.65835
 N314 N 0.37549 0.66909 0.67968
 C315 C 0.38951 0.67982 0.69275
 C316 C 0.40087 0.69377 0.67871
 C317 C 0.39299 0.69060 0.65695
 H318 H 0.39078 0.67821 0.71116
 H319 H 0.39708 0.69968 0.64166
 Cu320 Cu 0.35391 0.64813 0.68842
 Cu321 Cu 0.35620 0.66802 0.63553
 Cu322 Cu 0.30822 0.65224 0.65973
 N323 N 0.33161 0.62670 0.69229
 N324 N 0.31308 0.62898 0.68223
 C325 C 0.30048 0.61224 0.68845
 C326 C 0.31203 0.59863 0.70266
 C327 C 0.33170 0.60825 0.70469
 H328 H 0.28453 0.60963 0.68224
 H329 H 0.34508 0.60226 0.71442
 N330 N 0.31040 0.66696 0.62970
 N331 N 0.32893 0.67049 0.61965
 C332 C 0.32574 0.68003 0.59927
 C333 C 0.30426 0.68321 0.59656
 C334 C 0.29484 0.67472 0.61610
 H335 H 0.33824 0.68590 0.58810
 H336 H 0.27808 0.67450 0.62027
 H337 H 0.33534 0.67201 0.66190
 H338 H 0.33782 0.64366 0.65067
 N339 N 0.36884 0.18594 1.19684
 N340 N 0.36720 0.16907 1.21063
 C341 C 0.38415 0.16856 1.22464
 C342 C 0.39676 0.18632 1.21954
 C343 C 0.38657 0.19704 1.20191
 H344 H 0.38680 0.15657 1.23792
 H345 H 0.39169 0.21180 1.19343
 Cu346 Cu 0.34258 0.15002 1.20970
 Cu347 Cu 0.34764 0.19246 1.17373
 Cu348 Cu 0.30761 0.15468 1.16654
 N349 N 0.32346 0.12644 1.20173
 N350 N 0.31095 0.12783 1.18381
 C351 C 0.30040 0.10897 1.18134
 C352 C 0.30641 0.09522 1.19885
 C353 C 0.32092 0.10677 1.21164
 H354 H 0.28868 0.10577 1.16829
 H355 H 0.32919 0.10119 1.22676
 N356 N 0.31091 0.18039 1.14668
 N357 N 0.32700 0.19401 1.14852
 C358 C 0.32621 0.20840 1.13111
 C359 C 0.30850 0.20391 1.11816
 C360 C 0.29907 0.18616 1.12848
 H361 H 0.33759 0.22125 1.12807
 H362 H 0.28520 0.17754 1.12254
 H363 H 0.32174 0.17703 1.18792
 H364 H 0.33962 0.16006 1.16958
 N365 N 0.87016 0.68627 1.16603
 N366 N 0.86747 0.67778 1.18654
 C367 C 0.88124 0.68693 1.20120
 C368 C 0.89341 0.70170 1.18907
 C369 C 0.88613 0.70076 1.16678
 H370 H 0.88259 0.68284 1.21918
 H371 H 0.89171 0.71022 1.15230
 Cu372 Cu 0.84699 0.65477 1.19160
 Cu373 Cu 0.85171 0.67853 1.14054
 Cu374 Cu 0.80369 0.65671 1.15876
 N375 N 0.82629 0.63150 1.19219
 N376 N 0.80850 0.63293 1.18056
 C377 C 0.79642 0.61541 1.18532
 C378 C 0.80760 0.60215 1.20021
 C379 C 0.82648 0.61279 1.20418
 H380 H 0.78096 0.61229 1.17803
 H381 H 0.83916 0.60757 1.21537
 N382 N 0.80702 0.67276 1.12966
 N383 N 0.82578 0.67892 1.12180
 C384 C 0.82342 0.68762 1.10081
 C385 C 0.80212 0.68735 1.09544
 C386 C 0.79208 0.67793 1.11409
 H387 H 0.83610 0.69466 1.09068
 H388 H 0.77528 0.67474 1.11601
 H389 H 0.82861 0.67874 1.16477
 H390 H 0.83469 0.65152 1.15209
 N391 N 0.87019 0.18958 0.69448
 N392 N 0.87377 0.17084 0.70475
 C393 C 0.89269 0.17163 0.71532
 C394 C 0.90119 0.19210 0.71188
 C395 C 0.88644 0.20320 0.69879
 H396 H 0.89989 0.15819 0.72447
 H397 H 0.88810 0.21938 0.69163
 Cu398 Cu 0.85376 0.14684 0.70262
 Cu399 Cu 0.84661 0.19300 0.67297
 Cu400 Cu 0.83298 0.14267 0.65044
 N401 N 0.83427 0.12334 0.69521
 N402 N 0.82748 0.12081 0.67409
 C403 C 0.81569 0.10259 0.67295
 C404 C 0.81452 0.09364 0.69466
 C405 C 0.82644 0.10722 0.70844
 H406 H 0.80781 0.09682 0.65768
 H407 H 0.82945 0.10533 0.72658
 N408 N 0.82918 0.17039 0.63380
 N409 N 0.83218 0.18969 0.64330
 C410 C 0.82581 0.20532 0.62859
 C411 C 0.81892 0.19525 0.60879
 C412 C 0.82135 0.17320 0.61261
 H413 H 0.82682 0.22266 0.63175
 H414 H 0.81703 0.16013 0.60110
 H415 H 0.82876 0.16408 0.67634
 H416 H 0.85617 0.16270 0.66422
 N417 N 0.32708 0.36984 0.65786
 N418 N 0.33313 0.36733 0.67922
 C419 C 0.32301 0.38194 0.69255
 C420 C 0.31012 0.39448 0.67872
 C421 C 0.31317 0.38657 0.65674
 H422 H 0.32483 0.38329 0.71092
 H423 H 0.30527 0.39193 0.64130
 Cu424 Cu 0.35374 0.34532 0.68760
 Cu425 Cu 0.33654 0.34959 0.63404
 Cu426 Cu 0.35426 0.29998 0.65590
 N427 N 0.37493 0.32294 0.69239
 N428 N 0.37457 0.30443 0.68101
 C429 C 0.39028 0.29145 0.68891
 C430 C 0.40118 0.30282 0.70568
 C431 C 0.39107 0.32271 0.70735
 H432 H 0.39387 0.27530 0.68248
 H433 H 0.39500 0.33593 0.71883
 N434 N 0.34163 0.30314 0.62500
 N435 N 0.33707 0.32240 0.61612
 C436 C 0.33002 0.31972 0.59460
 C437 C 0.32963 0.29774 0.58985
 C438 C 0.33698 0.28757 0.60947
 H439 H 0.32431 0.33272 0.58370
 H440 H 0.33890 0.27023 0.61216
 H441 H 0.33303 0.32637 0.65865
 H442 H 0.36092 0.33128 0.64913
 N443 N 0.30655 0.85373 0.16365
 N444 N 0.32541 0.86245 0.16652
 C445 C 0.32307 0.88321 0.17346
 C446 C 0.30162 0.88750 0.17554
 C447 C 0.29152 0.86845 0.16937
 H448 H 0.33598 0.89403 0.17775
 H449 H 0.27459 0.86559 0.16882
 Cu450 Cu 0.35119 0.84524 0.16395
 Cu451 Cu 0.30325 0.82423 0.15196
 Cu452 Cu 0.34946 0.79688 0.13760
 N453 N 0.37269 0.82304 0.16928
 N454 N 0.37153 0.80362 0.15981
 C455 C 0.38744 0.79106 0.16778
 C456 C 0.39924 0.80346 0.18284
 C457 C 0.38957 0.82367 0.18329
 H458 H 0.39024 0.77427 0.16293
 H459 H 0.39404 0.83756 0.19360
 N460 N 0.32191 0.78935 0.12440
 N461 N 0.30408 0.79909 0.13075
 C462 C 0.28826 0.79213 0.11720
 C463 C 0.29666 0.77763 0.10142
 C464 C 0.31800 0.77614 0.10650
 H465 H 0.27230 0.79869 0.11739
 H466 H 0.33000 0.76722 0.09700
 H467 H 0.33183 0.81093 0.16234
 H468 H 0.33156 0.82632 0.13455
 N469 N 0.82044 0.37153 0.19539
 N470 N 0.83704 0.36884 0.20865
 C471 C 0.83734 0.38507 0.22433
 C472 C 0.81978 0.39826 0.22065
 C473 C 0.80950 0.38917 0.20221
 H474 H 0.84874 0.38652 0.23804
 H475 H 0.79476 0.39466 0.19468
 Cu476 Cu 0.85497 0.34296 0.20541
 Cu477 Cu 0.81272 0.35123 0.17156
 Cu478 Cu 0.85111 0.31344 0.15648
 N479 N 0.87608 0.32108 0.19682
 N480 N 0.87529 0.31087 0.17699
 C481 C 0.89235 0.29773 0.17492
 C482 C 0.90419 0.29946 0.19467
 C483 C 0.89343 0.31433 0.20828
 H484 H 0.89555 0.28709 0.16051
 H485 H 0.89808 0.32002 0.22507
 N486 N 0.82518 0.31843 0.13832
 N487 N 0.81096 0.33342 0.14381
 C488 C 0.79525 0.33325 0.12828
 C489 C 0.79949 0.31698 0.11263
 C490 C 0.81850 0.30779 0.11947
 H491 H 0.78132 0.34360 0.12878
 H492 H 0.82671 0.29429 0.11137
 H493 H 0.82994 0.32326 0.18082
 H494 H 0.84445 0.34542 0.16539
 N495 N 0.81391 0.86213 0.68988
 N496 N 0.82962 0.85949 0.70439
 C497 C 0.82968 0.87624 0.71934
 C498 C 0.81287 0.88983 0.71412
 C499 C 0.80314 0.88039 0.69542
 H500 H 0.84068 0.87805 0.73339
 H501 H 0.78917 0.88628 0.68665
 Cu502 Cu 0.84782 0.83393 0.70320
 Cu503 Cu 0.80816 0.84142 0.66534
 Cu504 Cu 0.84045 0.79566 0.66301
 N505 N 0.87004 0.81327 0.69502
 N506 N 0.86753 0.79916 0.67829
 C507 C 0.88542 0.78731 0.67580
 C508 C 0.89971 0.79423 0.69207
 C509 C 0.88947 0.81059 0.70412
 H510 H 0.88751 0.77406 0.66375
 H511 H 0.89570 0.81983 0.71836
 N512 N 0.81620 0.79999 0.64252
 N513 N 0.80493 0.81818 0.64219
 C514 C 0.79110 0.81720 0.62469
 C515 C 0.79355 0.79730 0.61393
 C516 C 0.80950 0.78673 0.62566
 H517 H 0.77992 0.82989 0.62018
 H518 H 0.81635 0.77101 0.62155
 H519 H 0.81945 0.81489 0.68240
 H520 H 0.83873 0.82895 0.66310
 N521 N 0.68266 0.63656 0.70453
 N522 N 0.66494 0.63440 0.71639
 C523 C 0.66636 0.61663 0.72983
 C524 C 0.68615 0.60734 0.72649
 C525 C 0.69618 0.62048 0.71048
 H526 H 0.65388 0.61081 0.74106
 H527 H 0.71174 0.61796 0.70295
 Cu528 Cu 0.64144 0.65479 0.71290
 Cu529 Cu 0.68544 0.65867 0.68036
 Cu530 Cu 0.63576 0.67115 0.65884
 N531 N 0.61797 0.67372 0.70412
 N532 N 0.61502 0.67864 0.68243
 C533 C 0.59702 0.69028 0.68039
 C534 C 0.58855 0.69335 0.70202
 C535 C 0.60221 0.68264 0.71680
 H536 H 0.59095 0.69667 0.66442
 H537 H 0.60057 0.68111 0.73520
 N538 N 0.66214 0.67422 0.64092
 N539 N 0.68127 0.67159 0.64968
 C540 C 0.69586 0.67827 0.63415
 C541 C 0.68520 0.68514 0.61472
 C542 C 0.66395 0.68220 0.61957
 H543 H 0.71285 0.67803 0.63676
 H544 H 0.65072 0.68667 0.60878
 H545 H 0.65754 0.67763 0.68334
 H546 H 0.65579 0.64858 0.67425
 N547 N 0.67833 0.11957 0.17610
 N548 N 0.65971 0.11965 0.18639
 C549 C 0.65976 0.10470 0.20327
 C550 C 0.67960 0.09504 0.20370
 C551 C 0.69102 0.10480 0.18623
 H552 H 0.64655 0.10148 0.21471
 H553 H 0.70724 0.10134 0.18117
 Cu554 Cu 0.63762 0.14020 0.17762
 Cu555 Cu 0.68407 0.13855 0.15012
 Cu556 Cu 0.65673 0.18726 0.15593
 N557 N 0.62030 0.16627 0.17594
 N558 N 0.62814 0.18512 0.16932
 C559 C 0.61356 0.20086 0.17337
 C560 C 0.59555 0.19109 0.18240
 C561 C 0.60034 0.16919 0.18366
 H562 H 0.61588 0.21804 0.17008
 H563 H 0.59052 0.15653 0.19102
 N564 N 0.68211 0.18363 0.13571
 N565 N 0.69173 0.16464 0.13289
 C566 C 0.70684 0.16645 0.11667
 C567 C 0.70698 0.18766 0.10895
 C568 C 0.69118 0.19822 0.12139
 H569 H 0.71690 0.15323 0.11077
 H570 H 0.68608 0.21497 0.11942
 H571 H 0.67036 0.16050 0.17147
 H572 H 0.65523 0.15602 0.14437
 N573 N 0.17151 0.63007 0.15739
 N574 N 0.16028 0.62674 0.17615
 C575 C 0.16918 0.61027 0.18803
 C576 C 0.18657 0.60278 0.17574
 C577 C 0.18752 0.61553 0.15635
 H578 H 0.16381 0.60451 0.20459
 H579 H 0.19985 0.61529 0.14337
 Cu580 Cu 0.13575 0.64501 0.18353
 Cu581 Cu 0.16717 0.65555 0.13839
 Cu582 Cu 0.12200 0.68626 0.14810
 N583 N 0.11039 0.66260 0.18896
 N584 N 0.10549 0.67885 0.17523
 C585 C 0.08869 0.68966 0.18389
 C586 C 0.08253 0.67952 0.20392
 C587 C 0.09648 0.66231 0.20666
 H588 H 0.08184 0.70425 0.17656
 H589 H 0.09715 0.65125 0.22108
 N590 N 0.14108 0.69115 0.12173
 N591 N 0.15864 0.67972 0.11849
 C592 C 0.16974 0.68855 0.10111
 C593 C 0.15860 0.70626 0.09297
 C594 C 0.14041 0.70743 0.10621
 H595 H 0.18522 0.68309 0.09534
 H596 H 0.12841 0.72006 0.10560
 H597 H 0.15002 0.67531 0.16117
 H598 H 0.13468 0.65556 0.14339
 N599 N 0.19837 0.13616 0.65554
 N600 N 0.18712 0.13469 0.67455
 C601 C 0.19517 0.11852 0.68756
 C602 C 0.21208 0.10924 0.67577
 C603 C 0.21356 0.12069 0.65547
 H604 H 0.18915 0.11375 0.70421
 H605 H 0.22520 0.11838 0.64196
 Cu606 Cu 0.16280 0.15387 0.67975
 Cu607 Cu 0.19313 0.15861 0.63274
 Cu608 Cu 0.15955 0.20054 0.65034
 N609 N 0.13777 0.17257 0.68233
 N610 N 0.13704 0.19131 0.67139
 C611 C 0.11950 0.20231 0.67798
 C612 C 0.10846 0.18962 0.69357
 C613 C 0.12042 0.17080 0.69588
 H614 H 0.11529 0.21848 0.67214
 H615 H 0.11726 0.15739 0.70743
 N616 N 0.17877 0.20289 0.62356
 N617 N 0.19174 0.18701 0.61718
 C618 C 0.20363 0.19383 0.59933
 C619 C 0.19751 0.21480 0.59390
 C620 C 0.18163 0.22004 0.60943
 H621 H 0.21581 0.18423 0.59087
 H622 H 0.17313 0.23535 0.61063
 H623 H 0.18483 0.17957 0.65843
 H624 H 0.16219 0.16915 0.64112
 N625 N 0.29669 0.65527 0.31804
 N626 N 0.31067 0.65175 0.30160
 C627 C 0.30525 0.63358 0.29010
 C628 C 0.28716 0.62518 0.30027
 C629 C 0.28214 0.63928 0.31792
 H630 H 0.31425 0.62656 0.27606
 H631 H 0.26893 0.63802 0.32980
 Cu632 Cu 0.33562 0.67019 0.29819
 Cu633 Cu 0.29870 0.68046 0.33810
 Cu634 Cu 0.35114 0.69277 0.34823
 N635 N 0.36361 0.68280 0.30182
 N636 N 0.37007 0.69001 0.32186
 C637 C 0.39048 0.69613 0.32011
 C638 C 0.39693 0.69309 0.29768
 C639 C 0.37952 0.68473 0.28643
 H640 H 0.39964 0.70318 0.33386
 H641 H 0.37859 0.68016 0.26855
 N642 N 0.32766 0.70249 0.36849
 N643 N 0.30757 0.69853 0.36382
 C644 C 0.29512 0.70863 0.37930
 C645 C 0.30801 0.71948 0.39454
 C646 C 0.32857 0.71523 0.38731
 H647 H 0.27796 0.70804 0.37946
 H648 H 0.34302 0.72142 0.39479
 H649 H 0.32626 0.69750 0.32674
 H650 H 0.32894 0.66960 0.33943
 N651 N 0.31059 0.13273 0.83463
 N652 N 0.32637 0.12519 0.82203
 C653 C 0.31989 0.10718 0.81091
 C654 C 0.29897 0.10329 0.81695
 C655 C 0.29359 0.11976 0.83207
 H656 H 0.32924 0.09826 0.79841
 H657 H 0.27810 0.12283 0.83956
 Cu658 Cu 0.35260 0.14163 0.81874
 Cu659 Cu 0.31228 0.16048 0.85071
 Cu660 Cu 0.36334 0.18009 0.85787
 N661 N 0.37825 0.15913 0.81670
 N662 N 0.38180 0.17496 0.83139
 C663 C 0.39926 0.18594 0.82479
 C664 C 0.40712 0.17632 0.80504
 C665 C 0.39353 0.15930 0.80042
 H666 H 0.40554 0.20008 0.83349
 H667 H 0.39408 0.14866 0.78563
 N668 N 0.33924 0.18944 0.87723
 N669 N 0.31964 0.18275 0.87363
 C670 C 0.30656 0.19252 0.88881
 C671 C 0.31851 0.20588 0.90271
 C672 C 0.33919 0.20354 0.89497
 H673 H 0.28965 0.18970 0.89005
 H674 H 0.35308 0.21165 0.90160
 H675 H 0.33908 0.17528 0.83607
 H676 H 0.34290 0.15306 0.85751
 N677 N 0.81901 0.63618 0.82288
 N678 N 0.83857 0.62916 0.81895
 C679 C 0.83774 0.60915 0.80951
 C680 C 0.81670 0.60336 0.80725
 C681 C 0.80522 0.62082 0.81594
 H682 H 0.85139 0.59993 0.80363
 H683 H 0.78812 0.62243 0.81669
 Cu684 Cu 0.86402 0.64752 0.82286
 Cu685 Cu 0.81271 0.66521 0.83604
 Cu686 Cu 0.85405 0.69896 0.83796
 N687 N 0.88482 0.67062 0.81800
 N688 N 0.88033 0.69103 0.82297
 C689 C 0.89647 0.70382 0.81630
 C690 C 0.91210 0.69068 0.80698
 C691 C 0.90435 0.66965 0.80845
 H692 H 0.89677 0.72138 0.81794
 H693 H 0.91184 0.65495 0.80204
 N694 N 0.83013 0.70257 0.85851
 N695 N 0.81326 0.69006 0.85730
 C696 C 0.79892 0.69684 0.87310
 C697 C 0.80768 0.71419 0.88497
 C698 C 0.82745 0.71729 0.87531
 H699 H 0.78374 0.68920 0.87633
 H700 H 0.83909 0.72932 0.88023
 H701 H 0.84007 0.66901 0.81525
 H702 H 0.84279 0.66174 0.84615
 N703 N 0.81354 0.13098 0.31769
 N704 N 0.83200 0.12402 0.30987
 C705 C 0.82933 0.10484 0.29914
 C706 C 0.80804 0.09964 0.29999
 C707 C 0.79838 0.11660 0.31177
 H708 H 0.84188 0.09547 0.29106
 H709 H 0.78174 0.11808 0.31624
 Cu710 Cu 0.85780 0.14091 0.31314
 Cu711 Cu 0.81098 0.15759 0.33593
 Cu712 Cu 0.85842 0.18204 0.35045
 N713 N 0.87971 0.16319 0.31194
 N714 N 0.87918 0.18012 0.32574
 C715 C 0.89563 0.19332 0.32083
 C716 C 0.90720 0.18387 0.30324
 C717 C 0.89680 0.16473 0.29808
 H718 H 0.89930 0.20822 0.32989
 H719 H 0.90121 0.15296 0.28505
 N720 N 0.83205 0.18713 0.36746
 N721 N 0.81358 0.17894 0.36129
 C722 C 0.79879 0.18473 0.37704
 C723 C 0.80872 0.19674 0.39394
 C724 C 0.82972 0.19788 0.38736
 H725 H 0.78252 0.17915 0.37720
 H726 H 0.84251 0.20534 0.39682
 H727 H 0.83842 0.17350 0.32517
 H728 H 0.84078 0.15269 0.34853
 N729 N 0.68413 0.36833 0.31944
 N730 N 0.67053 0.36380 0.30309
 C731 C 0.67066 0.38014 0.28760
 C732 C 0.68538 0.39541 0.29456
 C733 C 0.69361 0.38740 0.31476
 H734 H 0.66169 0.38029 0.27183
 H735 H 0.70622 0.39451 0.32478
 Cu736 Cu 0.65568 0.33596 0.30242
 Cu737 Cu 0.69047 0.34797 0.34392
 Cu738 Cu 0.66127 0.30065 0.34642
 N739 N 0.63551 0.31251 0.30791
 N740 N 0.63712 0.29966 0.32587
 C741 C 0.62057 0.28587 0.32629
 C742 C 0.60813 0.29009 0.30741
 C743 C 0.61805 0.30701 0.29600
 H744 H 0.61796 0.27346 0.33917
 H745 H 0.61266 0.31506 0.28058
 N746 N 0.68275 0.30829 0.36946
 N747 N 0.69294 0.32706 0.36934
 C748 C 0.70576 0.32791 0.38773
 C749 C 0.70384 0.30858 0.39961
 C750 C 0.68920 0.29646 0.38760
 H751 H 0.71637 0.34118 0.39172
 H752 H 0.68362 0.28030 0.39185
 H753 H 0.68232 0.31934 0.32784
 H754 H 0.66063 0.33382 0.34363
 N755 N 0.67542 0.86621 0.81379
 N756 N 0.65765 0.87009 0.80273
 C757 C 0.65992 0.88814 0.78985
 C758 C 0.68034 0.89577 0.79266
 C759 C 0.68983 0.88143 0.80785
 H760 H 0.64773 0.89504 0.77903
 H761 H 0.70581 0.88228 0.81450
 Cu762 Cu 0.63341 0.85080 0.80565
 Cu763 Cu 0.67762 0.84225 0.83597
 Cu764 Cu 0.62794 0.82849 0.85742
 N765 N 0.60954 0.83196 0.81282
 N766 N 0.60653 0.82477 0.83382
 C767 C 0.58848 0.81313 0.83464
 C768 C 0.58018 0.81243 0.81282
 C769 C 0.59389 0.82449 0.79931
 H770 H 0.58259 0.80471 0.84967
 H771 H 0.59260 0.82756 0.78110
 N772 N 0.65453 0.82244 0.87382
 N773 N 0.67356 0.82607 0.86499
 C774 C 0.68829 0.81703 0.87877
 C775 C 0.67790 0.80732 0.89709
 C776 C 0.65660 0.81121 0.89347
 H777 H 0.70522 0.81718 0.87552
 H778 H 0.64349 0.80519 0.90370
 H779 H 0.64950 0.82442 0.83153
 H780 H 0.64838 0.85229 0.84427
 N781 N 0.19675 0.36492 0.83468
 N782 N 0.18682 0.36558 0.81492
 C783 C 0.19629 0.38038 0.80128
 C784 C 0.21275 0.38970 0.81336
 C785 C 0.21252 0.37967 0.83455
 H786 H 0.19133 0.38445 0.78407
 H787 H 0.22319 0.38263 0.84868
 Cu788 Cu 0.16173 0.34790 0.80965
 Cu789 Cu 0.18858 0.34469 0.85883
 Cu790 Cu 0.15580 0.30260 0.84094
 N791 N 0.13706 0.32929 0.80592
 N792 N 0.13539 0.31099 0.81753
 C793 C 0.11842 0.29989 0.81001
 C794 C 0.10872 0.31211 0.79312
 C795 C 0.12085 0.33072 0.79099
 H796 H 0.11359 0.28406 0.81627
 H797 H 0.11858 0.34378 0.77878
 N798 N 0.17223 0.30151 0.86959
 N799 N 0.18482 0.31747 0.87619
 C800 C 0.19494 0.31139 0.89543
 C801 C 0.18804 0.29083 0.90145
 C802 C 0.17356 0.28506 0.88485
 H803 H 0.20675 0.32102 0.90416
 H804 H 0.16526 0.26971 0.88351
 H805 H 0.18180 0.32288 0.83383
 H806 H 0.15810 0.33448 0.84892
 N807 N 0.18264 0.86541 0.32804
 N808 N 0.17273 0.86476 0.30827
 C809 C 0.18246 0.87841 0.29348
 C810 C 0.19911 0.88825 0.30487
 C811 C 0.19865 0.87977 0.32676
 H812 H 0.17749 0.88144 0.27605
 H813 H 0.20925 0.88365 0.34070
 Cu814 Cu 0.14720 0.84720 0.30474
 Cu815 Cu 0.17419 0.84757 0.35400
 Cu816 Cu 0.14171 0.80424 0.33977
 N817 N 0.12224 0.82856 0.30335
 N818 N 0.12079 0.81126 0.31657
 C819 C 0.10336 0.79995 0.31098
 C820 C 0.09309 0.81094 0.29364
 C821 C 0.10539 0.82911 0.28918
 H822 H 0.09854 0.78482 0.31896
 H823 H 0.10270 0.84127 0.27608
 N824 N 0.15821 0.80524 0.36822
 N825 N 0.17058 0.82178 0.37357
 C826 C 0.18100 0.81704 0.39300
 C827 C 0.17453 0.79677 0.40042
 C828 C 0.15997 0.78975 0.38447
 H829 H 0.19296 0.82725 0.40074
 H830 H 0.15212 0.77411 0.38409
 H831 H 0.16749 0.82415 0.33080
 H832 H 0.14374 0.83663 0.34501
 C833 C 0.24929 1.04518 0.24483
 C834 C 0.26500 1.03457 0.23183
 C835 C 0.26491 1.01178 0.23036
 C836 C 0.24873 0.99945 0.24089
 C837 C 0.23251 1.01056 0.25288
 C838 C 0.23295 1.03326 0.25533
 C839 C 0.24874 0.97513 0.23947
 C840 C 0.24010 0.96254 0.25735
 C841 C 0.23997 0.93977 0.25615
 C842 C 0.24954 0.92920 0.23743
 C843 C 0.25941 0.94142 0.22000
 C844 C 0.25810 0.96426 0.22071
 H845 H 0.24904 1.06279 0.24564
 H846 H 0.27771 1.00389 0.22107
 H847 H 0.21940 1.00168 0.26041
 H848 H 0.23360 0.97027 0.27254
 H849 H 0.25048 0.91160 0.23741
 H850 H 0.26486 0.97343 0.20664
 C851 C 0.25395 0.54795 0.74936
 C852 C 0.27077 0.53805 0.73739
 C853 C 0.27236 0.51522 0.73699
 C854 C 0.25709 0.50222 0.74813
 C855 C 0.24055 0.51252 0.76034
 C856 C 0.23912 0.53525 0.76135
 C857 C 0.25850 0.47800 0.74744
 C858 C 0.25216 0.46550 0.76653
 C859 C 0.25227 0.44271 0.76554
 C860 C 0.25997 0.43223 0.74585
 C861 C 0.26727 0.44437 0.72704
 C862 C 0.26593 0.46718 0.72765
 H863 H 0.25325 0.56554 0.75065
 H864 H 0.28571 0.50771 0.72824
 H865 H 0.22859 0.50296 0.76911
 H866 H 0.24677 0.47335 0.78215
 H867 H 0.26045 0.41459 0.74529
 H868 H 0.27095 0.47639 0.71276
 C869 C 0.74117 -0.06105 0.25913
 C870 C 0.75933 -0.04969 0.26558
 C871 C 0.75934 -0.02689 0.26504
 C872 C 0.74058 -0.01498 0.26016
 C873 C 0.72213 -0.02703 0.25469
 C874 C 0.72274 -0.04982 0.25302
 C875 C 0.74044 0.00964 0.26028
 C876 C 0.72391 0.02161 0.24984
 C877 C 0.72402 0.04443 0.24940
 C878 C 0.74111 0.05580 0.25881
 C879 C 0.75780 0.04445 0.26924
 C880 C 0.75710 0.02161 0.27038
 H881 H 0.74147 -0.07870 0.25869
 H882 H 0.77415 -0.01892 0.26878
 H883 H 0.70721 -0.01914 0.25105
 H884 H 0.71099 0.01363 0.24121
 H885 H 0.74142 0.07342 0.25785
 H886 H 0.76974 0.01356 0.27948
 C887 C 0.75245 0.44356 0.75610
 C888 C 0.76728 0.45408 0.76998
 C889 C 0.76660 0.47686 0.77212
 C890 C 0.75201 0.48956 0.75946
 C891 C 0.73818 0.47855 0.74438
 C892 C 0.73810 0.45568 0.74294
 C893 C 0.75179 0.51408 0.76125
 C894 C 0.73337 0.52626 0.75582
 C895 C 0.73348 0.54915 0.75644
 C896 C 0.75156 0.56002 0.76414
 C897 C 0.76970 0.54844 0.77075
 C898 C 0.77002 0.52564 0.76839
 H899 H 0.75341 0.42606 0.75392
 H900 H 0.77780 0.48435 0.78362
 H901 H 0.72767 0.48756 0.73323
 H902 H 0.71888 0.51819 0.75084
 H903 H 0.75137 0.57762 0.76509
 H904 H 0.78460 0.51715 0.77230
 C905 C 0.25516 0.45792 0.24771
 C906 C 0.27286 0.47083 0.25287
 C907 C 0.27142 0.49357 0.25082
 C908 C 0.25221 0.50344 0.24430
 C909 C 0.23451 0.49032 0.23978
 C910 C 0.23600 0.46763 0.24111
 C911 C 0.25035 0.52738 0.24222
 C912 C 0.23995 0.53654 0.22325
 C913 C 0.23659 0.55904 0.22194
 C914 C 0.24448 0.57262 0.23917
 C915 C 0.25530 0.56376 0.25791
 C916 C 0.25798 0.54113 0.25957
 H917 H 0.25624 0.44034 0.24898
 H918 H 0.28517 0.50350 0.25452
 H919 H 0.21953 0.49771 0.23498
 H920 H 0.23390 0.52616 0.20977
 H921 H 0.24198 0.59007 0.23815
 H922 H 0.26581 0.53432 0.27444
 C923 C 0.75417 1.05374 0.74905
 C924 C 0.76817 1.04099 0.73591
 C925 C 0.76670 1.01817 0.73694
 C926 C 0.75184 1.00783 0.75152
 C927 C 0.73754 1.02111 0.76404
 C928 C 0.73840 1.04390 0.76248
 C929 C 0.75096 0.98338 0.75308
 C930 C 0.73189 0.97250 0.75893
 C931 C 0.73127 0.94966 0.76072
 C932 C 0.74935 0.93750 0.75501
 C933 C 0.76821 0.94779 0.74858
 C934 C 0.76924 0.97060 0.74852
 H935 H 0.75441 1.07132 0.74743
 H936 H 0.77705 1.00867 0.72594
 H937 H 0.72560 1.01404 0.77513
 H938 H 0.71743 0.98154 0.76218
 H939 H 0.74877 0.91987 0.75539
 H940 H 0.78428 0.97813 0.74443
 C941 C 0.74757 0.55618 0.24689
 C942 C 0.76465 0.54463 0.23737
 C943 C 0.76549 0.52189 0.23972
 C944 C 0.74955 0.51051 0.25193
 C945 C 0.73256 0.52267 0.26145
 C946 C 0.73147 0.54532 0.25880
 C947 C 0.75060 0.48621 0.25480
 C948 C 0.73192 0.47395 0.25872
 C949 C 0.73295 0.45141 0.26226
 C950 C 0.75241 0.44064 0.26009
 C951 C 0.77096 0.45214 0.25504
 C952 C 0.77022 0.47491 0.25344
 H953 H 0.74681 0.57373 0.24518
 H954 H 0.77849 0.51330 0.23154
 H955 H 0.72033 0.51489 0.27158
 H956 H 0.71647 0.48166 0.25924
 H957 H 0.75307 0.42307 0.26175
 H958 H 0.78496 0.48344 0.25047
 C959 C 0.26541 -0.04930 0.73676
 C960 C 0.27989 -0.03806 0.75067
 C961 C 0.28030 -0.01517 0.75014
 C962 C 0.26578 -0.00328 0.73682
 C963 C 0.25117 -0.01486 0.72342
 C964 C 0.25074 -0.03774 0.72330
 C965 C 0.26414 0.02098 0.73866
 C966 C 0.25680 0.03353 0.72000
 C967 C 0.25233 0.05582 0.72259
 C968 C 0.25638 0.06598 0.74360
 C969 C 0.26476 0.05409 0.76187
 C970 C 0.26832 0.03166 0.75958
 H971 H 0.26436 -0.06684 0.73800
 H972 H 0.29157 -0.00674 0.76088
 H973 H 0.23916 -0.00610 0.71393
 H974 H 0.25393 0.02595 0.70356
 H975 H 0.25347 0.08328 0.74567
 H976 H 0.27375 0.02267 0.77440
 C977 C 0.25313 0.25571 1.06885
 C978 C 0.23980 0.26943 1.05613
 C979 C 0.24006 0.26808 1.03207
 C980 C 0.25322 0.25295 1.02054
 C981 C 0.26683 0.23975 1.03370
 C982 C 0.26713 0.24136 1.05766
 C983 C 0.25323 0.25155 0.99490
 C984 C 0.27179 0.24558 0.98264
 C985 C 0.27165 0.24387 0.95862
 C986 C 0.25325 0.24962 0.94666
 C987 C 0.23486 0.25598 0.95841
 C988 C 0.23463 0.25627 0.98241
 H989 H 0.25389 0.25741 1.08731
 H990 H 0.23029 0.27932 1.02245
 H991 H 0.27737 0.22810 1.02554
 H992 H 0.28639 0.24203 0.99158
 H993 H 0.25314 0.24913 0.92810
 H994 H 0.21998 0.26051 0.99113
 C995 C 0.24475 0.74261 0.56284
 C996 C 0.22982 0.75711 0.55353
 C997 C 0.22972 0.76113 0.52988
 C998 C 0.24402 0.75041 0.51512
 C999 C 0.25833 0.73537 0.52460
 C1000 C 0.25911 0.73160 0.54831
 C1001 C 0.24392 0.75458 0.48992
 C1002 C 0.26277 0.75250 0.47689
 C1003 C 0.26252 0.75472 0.45300
 C1004 C 0.24370 0.76109 0.44221
 C1005 C 0.22495 0.76391 0.45488
 C1006 C 0.22494 0.75999 0.47852
 H1007 H 0.24484 0.73975 0.58115
 H1008 H 0.21847 0.77286 0.52322
 H1009 H 0.26882 0.72612 0.51350
 H1010 H 0.27763 0.74840 0.48506
 H1011 H 0.24344 0.76327 0.42378
 H1012 H 0.21006 0.76120 0.48781
 C1013 C 0.22658 0.75927 -0.06644
 C1014 C 0.23461 0.77696 -0.05389
 C1015 C 0.23291 0.77698 -0.02993
 C1016 C 0.22365 0.75935 -0.01841
 C1017 C 0.21564 0.74183 -0.03108
 C1018 C 0.21699 0.74163 -0.05509
 C1019 C 0.22351 0.75841 0.00688
 C1020 C 0.20493 0.75260 0.01877
 C1021 C 0.20532 0.74951 0.04253
 C1022 C 0.22422 0.75296 0.05456
 C1023 C 0.24282 0.75904 0.04296
 C1024 C 0.24240 0.76164 0.01909
 H1025 H 0.22815 0.75914 -0.08493
 H1026 H 0.23934 0.79047 -0.02022
 H1027 H 0.20874 0.72804 -0.02220
 H1028 H 0.19038 0.74962 0.00946
 H1029 H 0.22455 0.75032 0.07292
 H1030 H 0.25689 0.76577 0.00998
 C1031 C 0.25660 0.25943 0.42524
 C1032 C 0.26571 0.27684 0.43723
 C1033 C 0.26645 0.27622 0.46126
 C1034 C 0.25878 0.25809 0.47344
 C1035 C 0.24982 0.24071 0.46118
 C1036 C 0.24846 0.24138 0.43715
 C1037 C 0.26050 0.25718 0.49885
 C1038 C 0.24337 0.25000 0.51236
 C1039 C 0.24507 0.24911 0.53630
 C1040 C 0.26394 0.25566 0.54691
 C1041 C 0.28103 0.26367 0.53377
 C1042 C 0.27921 0.26398 0.50973
 H1043 H 0.25595 0.25989 0.40670
 H1044 H 0.27324 0.28984 0.47044
 H1045 H 0.24401 0.22653 0.47029
 H1046 H 0.22860 0.24528 0.50436
 H1047 H 0.26466 0.25553 0.56542
 H1048 H 0.29241 0.26972 0.49942
 C1049 C 0.74950 0.74766 1.05579
 C1050 C 0.73883 0.76545 1.04602
 C1051 C 0.73738 0.76708 1.02209
 C1052 C 0.74616 0.75093 1.00775
 C1053 C 0.75697 0.73331 1.01787
 C1054 C 0.75917 0.73181 1.04177
 C1055 C 0.74491 0.75295 0.98229
 C1056 C 0.76201 0.74622 0.96835
 C1057 C 0.76088 0.74768 0.94442
 C1058 C 0.74287 0.75686 0.93419
 C1059 C 0.72595 0.76453 0.94781
 C1060 C 0.72686 0.76198 0.97175
 H1061 H 0.75155 0.74712 1.07419
 H1062 H 0.72974 0.78127 1.01473
 H1063 H 0.76403 0.72077 1.00720
 H1064 H 0.77638 0.73984 0.97598
 H1065 H 0.74226 0.75833 0.91571
 H1066 H 0.71352 0.76731 0.98214
 C1067 C 0.76005 0.24800 0.56645
 C1068 C 0.74249 0.25754 0.55564
 C1069 C 0.74138 0.25779 0.53163
 C1070 C 0.75814 0.24949 0.51813
 C1071 C 0.77579 0.24029 0.52936
 C1072 C 0.77646 0.23856 0.55335
 C1073 C 0.75689 0.24955 0.49250
 C1074 C 0.76730 0.23333 0.47950
 C1075 C 0.76720 0.23372 0.45545
 C1076 C 0.75507 0.24959 0.44417
 C1077 C 0.74432 0.26577 0.45673
 C1078 C 0.74568 0.26598 0.48074
 H1079 H 0.76005 0.24665 0.58494
 H1080 H 0.72720 0.26421 0.52368
 H1081 H 0.78905 0.23393 0.51955
 H1082 H 0.77587 0.22032 0.48790
 H1083 H 0.75506 0.25034 0.42564
 H1084 H 0.73808 0.27913 0.49008
 C1085 C 0.76151 0.25502 -0.05481
 C1086 C 0.77389 0.26918 -0.04161
 C1087 C 0.77196 0.26871 -0.01761
 C1088 C 0.75736 0.25478 -0.00653
 C1089 C 0.74540 0.24047 -0.02024
 C1090 C 0.74780 0.24019 -0.04414
 C1091 C 0.75526 0.25472 0.01915
 C1092 C 0.74811 0.23604 0.03106
 C1093 C 0.74594 0.23612 0.05504
 C1094 C 0.75258 0.25432 0.06748
 C1095 C 0.76036 0.27271 0.05614
 C1096 C 0.76078 0.27327 0.03215
 H1097 H 0.76367 0.25431 -0.07323
 H1098 H 0.78235 0.27901 -0.00772
 H1099 H 0.73412 0.22931 -0.01268
 H1100 H 0.74409 0.22129 0.02198
 H1101 H 0.75189 0.25415 0.08605
 H1102 H 0.76592 0.28815 0.02394
 C1103 C 0.74203 0.73792 0.44516
 C1104 C 0.75170 0.75514 0.45685
 C1105 C 0.75178 0.75523 0.48092
 C1106 C 0.74347 0.73761 0.49366
 C1107 C 0.73432 0.72024 0.48133
 C1108 C 0.73249 0.72084 0.45737
 C1109 C 0.74332 0.73779 0.51954
 C1110 C 0.72885 0.72484 0.53209
 C1111 C 0.72850 0.72477 0.55618
 C1112 C 0.74227 0.73859 0.56811
 C1113 C 0.75593 0.75256 0.55607
 C1114 C 0.75689 0.75158 0.53206
 H1115 H 0.74059 0.73880 0.42671
 H1116 H 0.75810 0.76944 0.48937
 H1117 H 0.72797 0.70618 0.49008
 H1118 H 0.71722 0.71504 0.52339
 H1119 H 0.74126 0.73974 0.58660
 H1120 H 0.76826 0.76194 0.52350
 C1121 C 1.06316 0.24786 0.25028
 C1122 C 1.05292 0.22928 0.25880
 C1123 C 1.03071 0.22786 0.25737
 C1124 C 1.01838 0.24549 0.24929
 C1125 C 1.02908 0.26433 0.24173
 C1126 C 1.05134 0.26528 0.24140
 C1127 C 0.99455 0.24440 0.24907
 C1128 C 0.98258 0.25703 0.23352
 C1129 C 0.96030 0.25683 0.23405
 C1130 C 0.94972 0.24311 0.24951
 C1131 C 0.96125 0.22930 0.26399
 C1132 C 0.98347 0.23050 0.26420
 H1133 H 1.08030 0.24886 0.25068
 H1134 H 1.02321 0.21293 0.26285
 H1135 H 1.02028 0.27842 0.23593
 H1136 H 0.99036 0.26701 0.22073
 H1137 H 0.93257 0.24201 0.24901
 H1138 H 0.99184 0.22040 0.27637
 C1139 C 0.55890 0.24934 0.76274
 C1140 C 0.54800 0.23452 0.77667
 C1141 C 0.52577 0.23349 0.77566
 C1142 C 0.51425 0.24647 0.75998
 C1143 C 0.52568 0.26167 0.74653
 C1144 C 0.54779 0.26349 0.74831
 C1145 C 0.49054 0.24438 0.75794
 C1146 C 0.47801 0.26178 0.74953
 C1147 C 0.45598 0.25958 0.74683
 C1148 C 0.44601 0.24053 0.75433
 C1149 C 0.45790 0.22340 0.76351
 C1150 C 0.48008 0.22494 0.76440
 H1151 H 0.57595 0.25092 0.76437
 H1152 H 0.51771 0.22259 0.78734
 H1153 H 0.51774 0.27213 0.73437
 H1154 H 0.48510 0.27717 0.74490
 H1155 H 0.42891 0.23908 0.75333
 H1156 H 0.48886 0.21099 0.77058
 C1157 C -0.04788 0.25095 0.75589
 C1158 C -0.03533 0.26473 0.76925
 C1159 C -0.01316 0.26380 0.76702
 C1160 C -0.00323 0.25006 0.75066
 C1161 C -0.01628 0.23600 0.73777
 C1162 C -0.03845 0.23598 0.74076
 C1163 C 0.02053 0.25032 0.74747
 C1164 C 0.03174 0.23212 0.73841
 C1165 C 0.05390 0.23281 0.73528
 C1166 C 0.06515 0.25101 0.74289
 C1167 C 0.05457 0.26890 0.75239
 C1168 C 0.03238 0.26895 0.75368
 H1169 H -0.06490 0.25078 0.75855
 H1170 H -0.00385 0.27383 0.77837
 H1171 H -0.00950 0.22496 0.72526
 H1172 H 0.02352 0.21740 0.73361
 H1173 H 0.08230 0.25125 0.74154
 H1174 H 0.02466 0.28351 0.76005
 C1175 C 0.44571 0.25006 0.25907
 C1176 C 0.45817 0.26803 0.26512
 C1177 C 0.48031 0.26675 0.26233
 C1178 C 0.49011 0.24748 0.25434
 C1179 C 0.47731 0.22941 0.24904
 C1180 C 0.45515 0.23081 0.25096
 C1181 C 0.51361 0.24639 0.25141
 C1182 C 0.52283 0.23538 0.23264
 C1183 C 0.54503 0.23424 0.22985
 C1184 C 0.55803 0.24494 0.24580
 C1185 C 0.54908 0.25563 0.26482
 C1186 C 0.52698 0.25616 0.26762
 H1187 H 0.42860 0.25098 0.26050
 H1188 H 0.48989 0.28085 0.26633
 H1189 H 0.48445 0.21434 0.24309
 H1190 H 0.51276 0.22756 0.22012
 H1191 H 0.57512 0.24380 0.24442
 H1192 H 0.52029 0.26402 0.28265
 C1193 C 1.06315 0.75848 0.74335
 C1194 C 1.05457 0.73803 0.74836
 C1195 C 1.03249 0.73543 0.74874
 C1196 C 1.01892 0.75337 0.74512
 C1197 C 1.02786 0.77397 0.74064
 C1198 C 1.04992 0.77639 0.73916
 C1199 C 0.99551 0.75051 0.74563
 C1200 C 0.98257 0.76186 0.73006
 C1201 C 0.96047 0.75965 0.73088
 C1202 C 0.95121 0.74575 0.74708
 C1203 C 0.96390 0.73349 0.76199
 C1204 C 0.98599 0.73609 0.76136
 H1205 H 1.08021 0.76043 0.74226
 H1206 H 1.02598 0.71939 0.75187
 H1207 H 1.01779 0.78802 0.73770
 H1208 H 0.98957 0.77230 0.71711
 H1209 H 0.93417 0.74347 0.74704
 H1210 H 0.99562 0.72699 0.77337
 C1211 C 0.55477 0.74758 0.24012
 C1212 C 0.54365 0.73783 0.25830
 C1213 C 0.52141 0.73748 0.25804
 C1214 C 0.51005 0.74569 0.23917
 C1215 C 0.52155 0.75513 0.22097
 C1216 C 0.54374 0.75700 0.22171
 C1217 C 0.48632 0.74508 0.23876
 C1218 C 0.47468 0.76133 0.22723
 C1219 C 0.45247 0.76071 0.22651
 C1220 C 0.44157 0.74430 0.23836
 C1221 C 0.45277 0.72867 0.25113
 C1222 C 0.47505 0.72872 0.25051
 H1223 H 0.57186 0.74886 0.24114
 H1224 H 0.51314 0.73082 0.27274
 H1225 H 0.51333 0.76148 0.20617
 H1226 H 0.48270 0.77477 0.21894
 H1227 H 0.42440 0.74476 0.23891
 H1228 H 0.48346 0.71602 0.25962
 C1229 C -0.06624 0.75110 0.25704
 C1230 C -0.05471 0.76128 0.27464
 C1231 C -0.03245 0.75964 0.27457
 C1232 C -0.02162 0.74863 0.25691
 C1233 C -0.03334 0.73932 0.23906
 C1234 C -0.05554 0.74041 0.23906
 C1235 C 0.00191 0.74752 0.25655
 C1236 C 0.01234 0.72820 0.24981
 C1237 C 0.03450 0.72747 0.24820
 C1238 C 0.04638 0.74576 0.25430
 C1239 C 0.03631 0.76496 0.26157
 C1240 C 0.01409 0.76594 0.26228
 H1241 H -0.08334 0.75265 0.25640
 H1242 H -0.02354 0.76716 0.28827
 H1243 H -0.02522 0.73143 0.22487
 H1244 H 0.00329 0.71388 0.24523
 H1245 H 0.06354 0.74511 0.25313
 H1246 H 0.00638 0.78102 0.26732
 C1247 C 0.42950 0.75290 0.74297
 C1248 C 0.43828 0.76097 0.76319
 C1249 C 0.46036 0.76051 0.76613
 C1250 C 0.47396 0.75359 0.74815
 C1251 C 0.46464 0.74659 0.72746
 C1252 C 0.44259 0.74509 0.72536
 C1253 C 0.49761 0.75305 0.75100
 C1254 C 0.51027 0.73875 0.73778
 C1255 C 0.53245 0.73868 0.73948
 C1256 C 0.54227 0.75247 0.75534
 C1257 C 0.52998 0.76641 0.76919
 C1258 C 0.50783 0.76680 0.76678
 H1259 H 0.41240 0.75210 0.74122
 H1260 H 0.46665 0.76551 0.78251
 H1261 H 0.47428 0.74144 0.71305
 H1262 H 0.50312 0.72722 0.72618
 H1263 H 0.55939 0.75242 0.75688
 H1264 H 0.49885 0.77835 0.77698
 N1265 N 0.45681 0.30741 0.27129
 N1266 N 0.44382 0.32244 0.27983
 C1267 C 0.42659 0.31188 0.28787
 C1268 C 0.42935 0.28990 0.28395
 N1269 N 0.44839 0.28776 0.27347
 H1270 H 0.41850 0.27685 0.28815
 N1271 N 0.42499 0.76135 0.80251
 N1272 N 0.40890 0.76967 0.81443
 C1273 C 0.39800 0.78271 0.80000
 C1274 C 0.40785 0.78212 0.77884
 N1275 N 0.42456 0.76860 0.78115
 H1276 H 0.40306 0.79014 0.76315
 N1277 N -0.03715 0.28159 0.80711
 N1278 N -0.05028 0.29370 0.81963
 C1279 C -0.06693 0.29865 0.80614
 C1280 C -0.06371 0.28909 0.78500
 N1281 N -0.04496 0.27854 0.78632
 H1282 H -0.07418 0.28929 0.77034
 N1283 N -0.05546 0.79196 0.30100
 N1284 N -0.06918 0.80374 0.31304
 C1285 C -0.08817 0.79393 0.31104
 C1286 C -0.08575 0.77581 0.29723
 N1287 N -0.06503 0.77520 0.29121
 H1288 H -0.09804 0.76498 0.29120
 N1289 N 0.54850 0.73073 0.29916
 N1290 N 0.56196 0.72054 0.31292
 C1291 C 0.57722 0.71187 0.29938
 C1292 C 0.57285 0.71716 0.27693
 N1293 N 0.55484 0.72896 0.27753
 H1294 H 0.58167 0.71262 0.26166
 N1295 N 0.55442 0.22058 0.81515
 N1296 N 0.56963 0.21046 0.82667
 C1297 C 0.58472 0.20490 0.81123
 C1298 C 0.57844 0.21204 0.78994
 N1299 N 0.55945 0.22175 0.79310
 H1300 H 0.58728 0.21131 0.77397
 N1301 N 1.06444 0.69952 0.74641
 N1302 N 1.08031 0.68658 0.75259
 C1303 C 1.09461 0.69930 0.76328
 C1304 C 1.08714 0.72037 0.76344
 N1305 N 1.06831 0.71985 0.75271
 H1306 H 1.09453 0.73462 0.77082
 N1307 N 1.05810 0.19147 0.27054
 N1308 N 1.07211 0.17921 0.28148
 C1309 C 1.08830 0.19234 0.28737
 C1310 C 1.08387 0.21307 0.27956
 N1311 N 1.06488 0.21183 0.26907
 H1312 H 1.09339 0.22759 0.28158
 N1313 N 0.55273 0.30169 0.73836
 N1314 N 0.56755 0.31456 0.72954
 C1315 C 0.58352 0.30144 0.72251
 C1316 C 0.57810 0.28018 0.72726
 N1317 N 0.55877 0.28101 0.73714
 H1318 H 0.58757 0.26562 0.72456
 N1319 N 0.54463 0.78658 0.19405
 N1320 N 0.55853 0.79901 0.18314
 C1321 C 0.57783 0.79045 0.18728
 C1322 C 0.57542 0.77246 0.20120
 N1323 N 0.55438 0.77062 0.20517
 H1324 H 0.58787 0.76276 0.20887
 N1325 N 1.05388 0.30419 0.23331
 N1326 N 1.06713 0.31821 0.22366
 C1327 C 1.08398 0.30659 0.21611
 C1328 C 1.08078 0.28500 0.22156
 N1329 N 1.06183 0.28420 0.23236
 H1330 H 1.09116 0.27129 0.21803
 N1331 N 1.05459 0.81604 0.74042
 N1332 N 1.06689 0.83103 0.73074
 C1333 C 1.07931 0.82044 0.71540
 C1334 C 1.07443 0.79868 0.71604
 N1335 N 1.05905 0.79655 0.73183
 H1336 H 1.08163 0.78554 0.70628
 N1337 N 0.44053 0.73461 0.68491
 N1338 N 0.42979 0.72081 0.67189
 C1339 C 0.41590 0.71057 0.68587
 C1340 C 0.41818 0.71865 0.70768
 N1341 N 0.43358 0.73367 0.70637
 H1342 H 0.40980 0.71378 0.72310
 N1343 N 0.44524 0.19228 0.25025
 N1344 N 0.42965 0.17986 0.24245
 C1345 C 0.41630 0.19317 0.23103
 C1346 C 0.42404 0.21407 0.23212
 N1347 N 0.44206 0.21286 0.24428
 H1348 H 0.41716 0.22877 0.22501
 N1349 N -0.06080 0.73425 0.19825
 N1350 N -0.07418 0.72428 0.18433
 C1351 C -0.08921 0.71515 0.19773
 C1352 C -0.08479 0.71995 0.22032
 N1353 N -0.06694 0.73190 0.21986
 H1354 H -0.09340 0.71496 0.23554
 N1355 N -0.04488 0.19867 0.72855
 N1356 N -0.06077 0.18627 0.72156
 C1357 C -0.07765 0.19954 0.71876
 C1358 C -0.07165 0.22049 0.72421
 N1359 N -0.05107 0.21926 0.73031
 H1360 H -0.08149 0.23500 0.72455
 N1361 N 0.31147 0.46638 0.25388
 N1362 N 0.32582 0.45362 0.26373
 C1363 C 0.31501 0.43969 0.27731
 C1364 C 0.29368 0.44414 0.27542
 N1365 N 0.29211 0.46081 0.26062
 H1366 H 0.28057 0.43602 0.28390
 N1367 N 0.29369 -0.04136 0.78919
 N1368 N 0.30169 -0.05626 0.80309
 C1369 C 0.30482 -0.07440 0.79047
 C1370 C 0.29849 -0.07015 0.76823
 N1371 N 0.29149 -0.04933 0.76823
 H1372 H 0.29781 -0.08138 0.75393
 N1373 N 0.80501 0.44739 0.77377
 N1374 N 0.81816 0.43172 0.78030
 C1375 C 0.80615 0.41590 0.78973
 C1376 C 0.78510 0.42238 0.78879
 N1377 N 0.78513 0.44215 0.77869
 H1378 H 0.77115 0.41327 0.79385
 N1379 N 0.79715 -0.05889 0.26509
 N1380 N 0.81033 -0.07268 0.27530
 C1381 C 0.79863 -0.08411 0.29056
 C1382 C 0.77789 -0.07707 0.28930
 N1383 N 0.77764 -0.06143 0.27321
 H1384 H 0.76425 -0.08277 0.29893
 N1385 N 0.30763 0.54588 0.72761
 N1386 N 0.31921 0.56185 0.71885
 C1387 C 0.30555 0.57772 0.71262
 C1388 C 0.28523 0.57106 0.71787
 N1389 N 0.28721 0.55110 0.72727
 H1390 H 0.27054 0.57999 0.71557
 N1391 N 0.28562 1.04157 0.19723
 N1392 N 0.29657 1.05757 0.18761
 C1393 C 0.29798 1.07349 0.20343
 C1394 C 0.28742 1.06695 0.22295
 N1395 N 0.27987 1.04691 0.21840
 H1396 H 0.28445 1.07634 0.23837
 N1397 N 0.80196 0.55096 0.22828
 N1398 N 0.81405 0.56621 0.21885
 C1399 C 0.80078 0.58149 0.21043
 C1400 C 0.78024 0.57522 0.21495
 N1401 N 0.78162 0.55613 0.22622
 H1402 H 0.76579 0.58415 0.21130
 N1403 N 0.78630 1.04356 0.69896
 N1404 N 0.79838 1.05733 0.68728
 C1405 C 0.80251 1.07416 0.70141
 C1406 C 0.79248 1.07037 0.72212
 N1407 N 0.78249 1.05110 0.71987
 H1408 H 0.79195 1.08087 0.73704
 N1409 N 0.69372 0.55133 0.26609
 N1410 N 0.68096 0.56685 0.27407
 C1411 C 0.69357 0.58317 0.28125
 C1412 C 0.71437 0.57729 0.27745
 N1413 N 0.71381 0.55736 0.26792
 H1414 H 0.72850 0.58677 0.28077
 N1415 N 0.70145 1.05476 0.76598
 N1416 N 0.68993 1.07120 0.77406
 C1417 C 0.70332 1.08426 0.78562
 C1418 C 0.72347 1.07531 0.78437
 N1419 N 0.72158 1.05692 0.77197
 H1420 H 0.73819 1.08201 0.79075
 N1421 N 0.21845 0.53749 0.79668
 N1422 N 0.20603 0.55148 0.80777
 C1423 C 0.20335 0.56865 0.79368
 C1424 C 0.21450 0.56489 0.77370
 N1425 N 0.22377 0.54529 0.77626
 H1426 H 0.21639 0.57571 0.75917
 N1427 N 0.19643 1.03738 0.26911
 N1428 N 0.18462 1.05150 0.28080
 C1429 C 0.19766 1.06776 0.28719
 C1430 C 0.21774 1.06329 0.27902
 N1431 N 0.21632 1.04425 0.26774
 H1432 H 0.23189 1.07309 0.28082
 N1433 N 0.72350 0.45140 0.70462
 N1434 N 0.71333 0.43663 0.69230
 C1435 C 0.70827 0.42025 0.70669
 C1436 C 0.71579 0.42530 0.72819
 N1437 N 0.72521 0.44489 0.72618
 H1438 H 0.71538 0.41528 0.74347
 N1439 N 0.68481 -0.05745 0.24851
 N1440 N 0.67245 -0.07080 0.23670
 C1441 C 0.68546 -0.08355 0.22398
 C1442 C 0.70610 -0.07779 0.22845
 N1443 N 0.70505 -0.06155 0.24388
 H1444 H 0.72049 -0.08448 0.22096
 N1445 N 0.19835 0.45871 0.24282
 N1446 N 0.18503 0.44417 0.23434
 C1447 C 0.19671 0.43052 0.22119
 C1448 C 0.21762 0.43695 0.22200
 N1449 N 0.21795 0.45454 0.23572
 H1450 H 0.23116 0.42986 0.21320
 N1451 N 0.21515 -0.03887 0.70755
 N1452 N 0.20127 -0.05294 0.69939
 C1453 C 0.21117 -0.07240 0.69844
 C1454 C 0.23165 -0.06989 0.70638
 N1455 N 0.23347 -0.04863 0.71202
 H1456 H 0.24360 -0.08240 0.70867
 N1457 N 0.27199 0.31570 0.43249
 N1458 N 0.28170 0.32925 0.41826
 C1459 C 0.29045 0.31699 0.40146
 C1460 C 0.28565 0.29542 0.40571
 N1461 N 0.27406 0.29536 0.42522
 H1462 H 0.29035 0.28122 0.39587
 N1463 N 0.24458 0.81513 -0.05864
 N1464 N 0.25726 0.82720 -0.07162
 C1465 C 0.26655 0.81354 -0.08680
 C1466 C 0.25906 0.79280 -0.08292
 N1467 N 0.24536 0.79449 -0.06526
 H1468 H 0.26359 0.77787 -0.09158
 N1469 N 0.80775 0.28827 -0.04207
 N1470 N 0.82001 0.29942 -0.05633
 C1471 C 0.80935 0.30111 -0.07622
 C1472 C 0.79015 0.29056 -0.07379
 N1473 N 0.78980 0.28268 -0.05220
 H1474 H 0.77795 0.28842 -0.08658
 N1475 N 0.75745 0.79401 0.45119
 N1476 N 0.76582 0.80747 0.43589
 C1477 C 0.77386 0.79501 0.41885
 C1478 C 0.77009 0.77344 0.42409
 N1479 N 0.75978 0.77354 0.44441
 H1480 H 0.77436 0.75915 0.41417
 N1481 N 0.70486 0.25967 0.56505
 N1482 N 0.69214 0.26840 0.58074
 C1483 C 0.70456 0.28002 0.59495
 C1484 C 0.72534 0.27805 0.58764
 N1485 N 0.72481 0.26520 0.56896
 H1486 H 0.73943 0.28504 0.59521
 N1487 N 0.73300 0.80380 1.05489
 N1488 N 0.72510 0.81616 1.07151
 C1489 C 0.71788 0.80255 1.08791
 C1490 C 0.72165 0.78140 1.08090
 N1491 N 0.73112 0.78291 1.06021
 H1492 H 0.71781 0.76645 1.08984
 N1493 N 0.22518 0.30611 1.05837
 N1494 N 0.21533 0.31909 1.07315
 C1495 C 0.21141 0.30713 1.09208
 C1496 C 0.21927 0.28636 1.08852
 N1497 N 0.22781 0.28643 1.06724
 H1498 H 0.21936 0.27282 1.10042
 N1499 N 0.19314 0.76604 0.56180
 N1500 N 0.18160 0.77701 0.57692
 C1501 C 0.19514 0.78498 0.59263
 C1502 C 0.21549 0.77836 0.58683
 N1503 N 0.21344 0.76656 0.56747
 H1504 H 0.23024 0.78218 0.59534
 N1505 N 0.29247 0.71181 0.54541
 N1506 N 0.30478 0.69878 0.55757
 C1507 C 0.29466 0.69531 0.57762
 C1508 C 0.27575 0.70678 0.57752
 N1509 N 0.27502 0.71695 0.55704
 H1510 H 0.26407 0.70800 0.59115
 N1511 N 0.30385 0.23130 1.06470
 N1512 N 0.31554 0.22197 1.08078
 C1513 C 0.30196 0.21489 1.09705
 C1514 C 0.28156 0.22021 1.09060
 N1515 N 0.28345 0.23044 1.07029
 H1516 H 0.26692 0.21752 1.09998
 N1517 N 0.79020 0.70815 1.04016
 N1518 N 0.80227 0.69636 1.05397
 C1519 C 0.79258 0.69634 1.07461
 C1520 C 0.77421 0.70856 1.07311
 N1521 N 0.77334 0.71576 1.05129
 H1522 H 0.76332 0.71277 1.08685
 N1523 N 0.80183 0.20863 0.55261
 N1524 N 0.81306 0.19645 0.56683
 C1525 C 0.81075 0.20532 0.58781
 C1526 C 0.79768 0.22336 0.58607
 N1527 N 0.79233 0.22483 0.56374
 H1528 H 0.79180 0.23355 0.59987
 N1529 N 0.70147 0.69745 0.45645
 N1530 N 0.68909 0.68760 0.44141
 C1531 C 0.69859 0.68976 0.42081
 C1532 C 0.71718 0.70123 0.42361
 N1533 N 0.71838 0.70586 0.44617
 H1534 H 0.72799 0.70673 0.41035
 N1535 N 0.74142 0.20210 -0.05280
 N1536 N 0.73303 0.18994 -0.06917
 C1537 C 0.72432 0.20380 -0.08440
 C1538 C 0.72767 0.22485 -0.07700
 N1539 N 0.73837 0.22304 -0.05720
 H1540 H 0.72333 0.23993 -0.08544
 N1541 N 0.20828 0.70313 -0.05865
 N1542 N 0.20091 0.68918 -0.07396
 C1543 C 0.19721 0.70067 -0.09322
 C1544 C 0.20264 0.72211 -0.08933
 N1545 N 0.20951 0.72296 -0.06752
 H1546 H 0.20152 0.73570 -0.10110
 N1547 N 0.24267 0.20262 0.43108
 N1548 N 0.23362 0.18934 0.41618
 C1549 C 0.22445 0.20199 0.40011
 C1550 C 0.22828 0.22352 0.40550
 N1551 N 0.23977 0.22318 0.42495
 H1552 H 0.22344 0.23792 0.39614
 N1553 N 0.27554 0.44013 0.68615
 N1554 N 0.28680 0.42705 0.67260
 C1555 C 0.29564 0.41185 0.68629
 C1556 C 0.28938 0.41586 0.70852
 N1557 N 0.27681 0.43356 0.70774
 H1558 H 0.29389 0.40706 0.72384
 N1559 N 0.28924 0.94136 0.19338
 N1560 N 0.30116 0.92748 0.18158
 C1561 C 0.29204 0.90780 0.18386
 C1562 C 0.27416 0.90996 0.19745
 N1563 N 0.27301 0.93122 0.20319
 H1564 H 0.26384 0.89712 0.20354
 N1565 N 0.80935 0.44446 0.25645
 N1566 N 0.82299 0.42999 0.24780
 C1567 C 0.81155 0.41641 0.23452
 C1568 C 0.79068 0.42285 0.23537
 N1569 N 0.78988 0.44026 0.24922
 H1570 H 0.77729 0.41566 0.22663
 N1571 N 0.80583 0.93750 0.74849
 N1572 N 0.81826 0.92199 0.73983
 C1573 C 0.80581 0.90931 0.72667
 C1574 C 0.78543 0.91737 0.72758
 N1575 N 0.78607 0.93489 0.74139
 H1576 H 0.77141 0.91093 0.71937
 N1577 N 0.69526 0.55621 0.75408
 N1578 N 0.68215 0.57163 0.74667
 C1579 C 0.69431 0.58719 0.73693
 C1580 C 0.71524 0.58088 0.73860
 N1581 N 0.71520 0.56152 0.74947
 H1582 H 0.72915 0.58962 0.73271
 N1583 N 0.68638 0.05111 0.24286
 N1584 N 0.67397 0.06446 0.23108
 C1585 C 0.68692 0.07803 0.21946
 C1586 C 0.70766 0.07277 0.22458
 N1587 N 0.70661 0.05592 0.23926
 H1588 H 0.72205 0.08025 0.21813
 N1589 N 0.22763 0.56319 0.18153
 N1590 N 0.21445 0.57465 0.16857
 C1591 C 0.20249 0.58682 0.18298
 C1592 C 0.20884 0.58276 0.20509
 N1593 N 0.22459 0.56801 0.20343
 H1594 H 0.20292 0.59006 0.22079
 N1595 N 0.24862 0.06516 0.68208
 N1596 N 0.23825 0.07928 0.66904
 C1597 C 0.22601 0.09140 0.68323
 C1598 C 0.22926 0.08440 0.70537
 N1599 N 0.24353 0.06807 0.70393
 H1600 H 0.22205 0.09062 0.72096
 N1601 N 0.25764 0.57588 0.29759
 N1602 N 0.26551 0.59239 0.30944
 C1603 C 0.27611 0.60502 0.29434
 C1604 C 0.27448 0.59589 0.27288
 N1605 N 0.26284 0.57776 0.27565
 H1606 H 0.28070 0.60201 0.25678
 N1607 N 0.25535 0.07134 0.79806
 N1608 N 0.26396 0.08487 0.81306
 C1609 C 0.28446 0.08735 0.80676
 C1610 C 0.28818 0.07486 0.78749
 N1611 N 0.26970 0.06503 0.78276
 H1612 H 0.30238 0.07424 0.77695
 N1613 N 0.80749 0.55229 0.77973
 N1614 N 0.82049 0.56651 0.78940
 C1615 C 0.80847 0.58360 0.79616
 C1616 C 0.78773 0.57948 0.79028
 N1617 N 0.78774 0.55982 0.77994
 H1618 H 0.77402 0.58977 0.79336
 N1619 N 0.79556 0.04743 0.27731
 N1620 N 0.80943 0.06175 0.28512
 C1621 C 0.79833 0.07980 0.29076
 C1622 C 0.77717 0.07618 0.28609
 N1623 N 0.77612 0.05576 0.27767
 H1624 H 0.76396 0.08730 0.28844
 N1625 N 0.69583 0.44047 0.25746
 N1626 N 0.68265 0.42536 0.26543
 C1627 C 0.69330 0.41433 0.28177
 C1628 C 0.71331 0.42300 0.28353
 N1629 N 0.71432 0.43919 0.26810
 H1630 H 0.72616 0.41761 0.29443
 N1631 N 0.69268 0.94531 0.76340
 N1632 N 0.67864 0.93114 0.77148
 C1633 C 0.68977 0.91507 0.78171
 C1634 C 0.71105 0.91976 0.77962
 N1635 N 0.71224 0.93870 0.76801
 H1636 H 0.72435 0.91024 0.78578
 N1637 N 0.24828 0.43431 0.80628
 N1638 N 0.23809 0.42026 0.81962
 C1639 C 0.22708 0.40702 0.80559
 C1640 C 0.23093 0.41322 0.78326
 N1641 N 0.24425 0.43024 0.78443
 H1642 H 0.22440 0.40635 0.76773
 N1643 N 0.23551 0.93178 0.29672
 N1644 N 0.22495 0.91824 0.31023
 C1645 C 0.21366 0.90507 0.29642
 C1646 C 0.21775 0.91079 0.27394
 N1647 N 0.23148 0.92750 0.27493
 H1648 H 0.21115 0.90384 0.25849
 N1649 N 0.44748 0.29790 0.74018
 N1650 N 0.43306 0.30991 0.72953
 C1651 C 0.41978 0.29597 0.71899
 C1652 C 0.42639 0.27501 0.72362
 N1653 N 0.44368 0.27692 0.73697
 H1654 H 0.41925 0.25990 0.71803
 N1655 N 0.44643 0.79859 0.21574
 N1656 N 0.43245 0.81058 0.20441
 C1657 C 0.41780 0.79672 0.19615
 C1658 C 0.42309 0.77587 0.20287
 N1659 N 0.44104 0.77776 0.21510
 H1660 H 0.41466 0.76088 0.19944
 N1661 N 0.95309 0.27009 0.19547
 N1662 N 0.93824 0.28107 0.18427
 C1663 C 0.92377 0.28751 0.20003
 C1664 C 0.93009 0.28005 0.22122
 N1665 N 0.94844 0.26923 0.21762
 H1666 H 0.92189 0.28176 0.23750
 N1667 N 0.95054 0.76879 0.69177
 N1668 N 0.93428 0.77750 0.68066
 C1669 C 0.92060 0.78483 0.69679
 C1670 C 0.92878 0.78027 0.71807
 N1671 N 0.94747 0.77026 0.71420
 H1672 H 0.92145 0.78298 0.73467
 N1673 N 0.55933 0.26118 0.30457
 N1674 N 0.57500 0.26986 0.31653
 C1675 C 0.58840 0.27901 0.30123
 C1676 C 0.58058 0.27560 0.27950
 N1677 N 0.56244 0.26439 0.28235
 H1678 H 0.58755 0.28041 0.26326
 N1679 N 0.53199 0.78293 0.80707
 N1680 N 0.54505 0.79506 0.81936
 C1681 C 0.56158 0.80001 0.80555
 C1682 C 0.55841 0.79042 0.78448
 N1683 N 0.53978 0.77987 0.78617
 H1684 H 0.56877 0.79071 0.76961
 N1685 N 0.06282 0.30754 0.75784
 N1686 N 0.07725 0.31967 0.76832
 C1687 C 0.09037 0.30576 0.77928
 C1688 C 0.08371 0.28483 0.77512
 N1689 N 0.06657 0.28661 0.76165
 H1690 H 0.09070 0.26975 0.78116
 N1691 N 0.04518 0.80380 0.26220
 N1692 N 0.06037 0.81666 0.27014
 C1693 C 0.07392 0.80371 0.28175
 C1694 C 0.06671 0.78263 0.28064
 N1695 N 0.04881 0.78333 0.26829
 H1696 H 0.07385 0.76814 0.28792
 N1697 N 0.53902 0.72130 0.70265
 N1698 N 0.55362 0.70936 0.69207
 C1699 C 0.56909 0.70554 0.70742
 C1700 C 0.56363 0.71566 0.72779
 N1701 N 0.54473 0.72535 0.72404
 H1702 H 0.57258 0.71614 0.74358
 N1703 N 0.54385 0.20372 0.20320
 N1704 N 0.55682 0.19173 0.19041
 C1705 C 0.57601 0.20131 0.19114
 C1706 C 0.57445 0.21954 0.20493
 N1707 N 0.55408 0.22043 0.21228
 H1708 H 0.58723 0.23011 0.21022
 N1709 N 0.04267 0.68844 0.24668
 N1710 N 0.05563 0.67504 0.23538
 C1711 C 0.06633 0.68739 0.22008
 C1712 C 0.05973 0.70864 0.22238
 N1713 N 0.04504 0.70864 0.23912
 H1714 H 0.06524 0.72281 0.21305
 N1715 N 0.06161 0.19414 0.72826
 N1716 N 0.07615 0.18203 0.71760
 C1717 C 0.08932 0.19592 0.70665
 C1718 C 0.08247 0.21685 0.71095
 N1719 N 0.06522 0.21511 0.72455
 H1720 H 0.08971 0.23191 0.70529
 N1721 N 0.45039 0.70790 0.28651
 N1722 N 0.43589 0.69852 0.29970
 C1723 C 0.41756 0.69909 0.28795
 C1724 C 0.42119 0.70914 0.26718
 N1725 N 0.44192 0.71454 0.26697
 H1726 H 0.40959 0.71332 0.25428
 N1727 N 0.45028 0.18442 0.76606
 N1728 N 0.43667 0.17131 0.77666
 C1729 C 0.42480 0.18398 0.79069
 C1730 C 0.43136 0.20522 0.78829
 N1731 N 0.44723 0.20481 0.77280
 H1732 H 0.42489 0.21964 0.79649
 N1733 N 0.96268 0.69781 0.78045
 N1734 N 0.94907 0.68557 0.79212
 C1735 C 0.93171 0.69801 0.79584
 C1736 C 0.93500 0.71814 0.78614
 N1737 N 0.95447 0.71738 0.77664
 H1738 H 0.92401 0.73173 0.78533
 N1739 N 0.95764 0.19187 0.27695
 N1740 N 0.94338 0.17904 0.28678
 C1741 C 0.92688 0.19188 0.29279
 C1742 C 0.93134 0.21298 0.28630
 N1743 N 0.95071 0.21228 0.27644
 H1744 H 0.92119 0.22721 0.28775
 N1745 N 0.31291 0.28606 0.53328
 N1746 N 0.32630 0.29538 0.54764
 C1747 C 0.32143 0.28798 0.56874
 C1748 C 0.30439 0.27400 0.56692
 N1749 N 0.29943 0.27327 0.54442
 H1750 H 0.29564 0.26657 0.58086
 N1751 N 0.28135 0.75662 0.04706
 N1752 N 0.29616 0.76090 0.06246
 C1753 C 0.28602 0.76898 0.08106
 C1754 C 0.26458 0.76953 0.07663
 N1755 N 0.26231 0.76168 0.05526
 H1756 H 0.25194 0.77556 0.08761
 N1757 N 0.76215 0.31099 0.06738
 N1758 N 0.77225 0.32334 0.08245
 C1759 C 0.78574 0.31010 0.09379
 C1760 C 0.78351 0.28927 0.08546
 N1761 N 0.76863 0.29052 0.06910
 H1762 H 0.79156 0.27458 0.09101
 N1763 N 0.76664 0.79025 0.56102
 N1764 N 0.77602 0.80287 0.57632
 C1765 C 0.78246 0.78970 0.59342
 C1766 C 0.77670 0.76859 0.58824
 N1767 N 0.76686 0.76966 0.56784
 H1768 H 0.77897 0.75405 0.59845
 N1769 N 0.30071 0.74935 0.44648
 N1770 N 0.31346 0.73993 0.43118
 C1771 C 0.30093 0.73267 0.41415
 C1772 C 0.28025 0.73807 0.41931
 N1773 N 0.28072 0.74851 0.43954
 H1774 H 0.26611 0.73377 0.40989
 N1775 N 0.30991 0.23827 0.95284
 N1776 N 0.32297 0.22844 0.93814
 C1777 C 0.31071 0.21928 0.92192
 C1778 C 0.28980 0.22385 0.92703
 N1779 N 0.28993 0.23578 0.94638
 H1780 H 0.27584 0.21859 0.91785
 N1781 N 0.79858 0.74539 0.93554
 N1782 N 0.81147 0.73681 0.91994
 C1783 C 0.79917 0.72614 0.90482
 C1784 C 0.77823 0.72857 0.91148
 N1785 N 0.77860 0.74074 0.93070
 H1786 H 0.76420 0.72211 0.90331
 N1787 N 0.79962 0.21247 0.45171
 N1788 N 0.81133 0.20282 0.43575
 C1789 C 0.80019 0.20380 0.41615
 C1790 C 0.78125 0.21443 0.42050
 N1791 N 0.78154 0.21969 0.44297
 H1792 H 0.76909 0.21884 0.40829
 N1793 N 0.73432 0.30377 0.45063
 N1794 N 0.72389 0.31583 0.43552
 C1795 C 0.71583 0.30195 0.41993
 C1796 C 0.72170 0.28105 0.42579
 N1797 N 0.73325 0.28289 0.44501
 H1798 H 0.71838 0.26607 0.41669
 N1799 N 0.68878 0.77593 0.94708
 N1800 N 0.67560 0.78733 0.93410
 C1801 C 0.68688 0.79421 0.91579
 C1802 C 0.70740 0.78655 0.91783
 N1803 N 0.70793 0.77515 0.93759
 H1804 H 0.72063 0.78925 0.90626
 N1805 N 0.19799 0.25252 0.94617
 N1806 N 0.18508 0.26117 0.93070
 C1807 C 0.19599 0.27731 0.92031
 C1808 C 0.21594 0.27826 0.92971
 N1809 N 0.21655 0.26259 0.94575
 H1810 H 0.22898 0.28880 0.92490
 N1811 N 0.18736 0.76008 0.44565
 N1812 N 0.17340 0.76826 0.43099
 C1813 C 0.18353 0.78416 0.41935
 C1814 C 0.20404 0.78543 0.42711
 N1815 N 0.20582 0.77015 0.44346
 H1816 H 0.21666 0.79587 0.42094
 N1817 N 0.69445 0.70626 0.55880
 N1818 N 0.68253 0.69570 0.57384
 C1819 C 0.69370 0.69457 0.59343
 C1820 C 0.71291 0.70492 0.58999
 N1821 N 0.71272 0.71207 0.56810
 H1822 H 0.72549 0.70736 0.60228
 N1823 N 0.74066 0.19708 0.06065
 N1824 N 0.73061 0.18370 0.07482
 C1825 C 0.72034 0.19626 0.09034
 C1826 C 0.72448 0.21778 0.08536
 N1827 N 0.73727 0.21758 0.06676
 H1828 H 0.71869 0.23213 0.09424
 N1829 N 0.16717 0.74728 0.05066
 N1830 N 0.15407 0.73602 0.06402
 C1831 C 0.16628 0.72209 0.07611
 C1832 C 0.18713 0.72524 0.07001
 N1833 N 0.18706 0.74110 0.05421
 H1834 H 0.20102 0.71673 0.07630
 N1835 N 0.20831 0.25273 0.54907
 N1836 N 0.19525 0.24432 0.56461
 C1837 C 0.20622 0.22859 0.57558
 C1838 C 0.22645 0.22767 0.56642
 N1839 N 0.22707 0.24297 0.54995
 H1840 H 0.23945 0.21709 0.57132
   
