data_POSCAR
  _audit_creation_date              2014-09-24
  _audit_creation_method            'ToBaCCo'
  _symmetry_space_group_name_H-M    'P1'
  _symmetry_Int_Tables_number       1
  _symmetry_cell_setting            triclinic
  loop_
  _symmetry_equiv_pos_as_xyz
 x,y,z
_cell_length_a 61.9405
_cell_length_b 62.0616
_cell_length_c 61.9297
_cell_angle_alpha 89.946600
_cell_angle_beta 90.022000
_cell_angle_gamma 90.043900
loop_
  _atom_site_label
  _atom_site_type_symbol
  _atom_site_fract_x
  _atom_site_fract_y
  _atom_site_fract_z
C1 C 0.36581 1.34973 0.33481
 C2 C 0.36458 1.33274 0.34965
 C3 C 0.34833 1.33240 0.36492
 C4 C 0.33324 1.34920 0.36566
 C5 C 0.33484 1.36632 0.35147
 C6 C 0.35128 1.36656 0.33583
 C7 C 0.37878 1.35320 0.31719
 N8 N 0.37264 1.37184 0.30727
 C9 C 0.35591 1.38022 0.31890
 C10 C 0.31772 1.37985 0.35562
 N11 N 0.30547 1.37120 0.37178
 C12 C 0.31508 1.35241 0.37795
 C13 C 0.35079 1.31381 0.37680
 N14 N 0.36830 1.30301 0.36924
 C15 C 0.37676 1.31444 0.35254
 H16 H 0.39180 1.34274 0.31216
 H17 H 0.34674 1.39445 0.31470
 H18 H 0.31399 1.39431 0.34661
 H19 H 0.30960 1.34178 0.39067
 H20 H 0.34083 1.30874 0.39024
 H21 H 0.39068 1.30973 0.34310
 C22 C 0.36829 0.85207 0.83741
 C23 C 0.36741 0.83502 0.85228
 C24 C 0.35068 0.83393 0.86704
 C25 C 0.33475 0.84999 0.86731
 C26 C 0.33588 0.86699 0.85299
 C27 C 0.35258 0.86790 0.83775
 C28 C 0.38157 0.85633 0.82009
 N29 N 0.37410 0.87417 0.80978
 C30 C 0.35645 0.88141 0.82058
 C31 C 0.31824 0.87990 0.85668
 N32 N 0.30611 0.87106 0.87280
 C33 C 0.31622 0.85262 0.87926
 C34 C 0.35342 0.81532 0.87881
 N35 N 0.37145 0.80513 0.87164
 C36 C 0.38009 0.81707 0.85538
 H37 H 0.39495 0.84650 0.81469
 H38 H 0.34673 0.89514 0.81591
 H39 H 0.31420 0.89417 0.84750
 H40 H 0.31092 0.84199 0.89205
 H41 H 0.34309 0.80969 0.89174
 H42 H 0.39431 0.81281 0.84617
 C43 C 0.86655 1.34965 0.83435
 C44 C 0.86789 1.33501 0.85154
 C45 C 0.85229 1.33501 0.86753
 C46 C 0.83502 1.34962 0.86641
 C47 C 0.83341 1.36357 0.84910
 C48 C 0.84929 1.36360 0.83297
 C49 C 0.87934 1.35318 0.81654
 N50 N 0.87021 1.36890 0.80413
 C51 C 0.85165 1.37519 0.81418
 C52 C 0.81465 1.37509 0.85163
 N53 N 0.80478 1.36877 0.87028
 C54 C 0.81732 1.35313 0.87937
 C55 C 0.85691 1.31815 0.88126
 N56 N 0.87473 1.30779 0.87379
 C57 C 0.88163 1.31814 0.85572
 H58 H 0.89384 1.34427 0.81270
 H59 H 0.84085 1.38776 0.80875
 H60 H 0.80911 1.38762 0.84083
 H61 H 0.81363 1.34424 0.89394
 H62 H 0.84726 1.31302 0.89491
 H63 H 0.89523 1.31330 0.84588
 C64 C 0.86716 0.85167 0.33594
 C65 C 0.86721 0.83567 0.35199
 C66 C 0.85063 0.83482 0.36694
 C67 C 0.83395 0.85004 0.36625
 C68 C 0.83394 0.86581 0.35048
 C69 C 0.85049 0.86642 0.33507
 C70 C 0.88044 0.85576 0.31858
 N71 N 0.87200 0.87237 0.30685
 C72 C 0.85365 0.87893 0.31706
 C73 C 0.81571 0.87808 0.35345
 N74 N 0.80463 0.87009 0.37061
 C75 C 0.81562 0.85285 0.37846
 C76 C 0.85404 0.81699 0.37966
 N77 N 0.87226 0.80692 0.37282
 C78 C 0.88049 0.81830 0.35595
 H79 H 0.89449 0.84637 0.31426
 H80 H 0.84327 0.89202 0.31203
 H81 H 0.81069 0.89164 0.34364
 H82 H 0.81075 0.84320 0.39220
 H83 H 0.84381 0.81158 0.39276
 H84 H 0.89459 0.81381 0.34667
 C85 C 0.63353 0.65039 0.33469
 C86 C 0.63399 0.66717 0.34983
 C87 C 0.64961 0.66740 0.36577
 C88 C 0.66485 0.65075 0.36690
 C89 C 0.66414 0.63398 0.35221
 C90 C 0.64829 0.63378 0.33601
 C91 C 0.62116 0.64690 0.31662
 N92 N 0.62785 0.62840 0.30682
 C93 C 0.64439 0.62022 0.31886
 C94 C 0.68145 0.62076 0.35655
 N95 N 0.69269 0.62918 0.37341
 C96 C 0.68258 0.64750 0.37986
 C97 C 0.64664 0.68589 0.37766
 N98 N 0.62946 0.69675 0.36944
 C99 C 0.62165 0.68542 0.35237
 H100 H 0.60809 0.65715 0.31129
 H101 H 0.65385 0.60612 0.31491
 H102 H 0.68602 0.60654 0.34753
 H103 H 0.68788 0.65790 0.39285
 H104 H 0.65615 0.69093 0.39143
 H105 H 0.60819 0.69026 0.34234
 C106 C 0.63335 0.14948 0.83476
 C107 C 0.63435 0.16661 0.84944
 C108 C 0.65037 0.16710 0.86493
 C109 C 0.66548 0.15034 0.86608
 C110 C 0.66412 0.13310 0.85204
 C111 C 0.64790 0.13269 0.83616
 C112 C 0.62064 0.14586 0.81698
 N113 N 0.62697 0.12717 0.80733
 C114 C 0.64354 0.11890 0.81928
 C115 C 0.68125 0.11969 0.85657
 N116 N 0.69326 0.12854 0.87280
 C117 C 0.68348 0.14732 0.87865
 C118 C 0.64780 0.18583 0.87652
 N119 N 0.63043 0.19659 0.86854
 C120 C 0.62217 0.18497 0.85189
 H121 H 0.60768 0.15626 0.81167
 H122 H 0.65279 0.10465 0.81535
 H123 H 0.68518 0.10517 0.84775
 H124 H 0.68875 0.15810 0.89131
 H125 H 0.65761 0.19105 0.89001
 H126 H 0.60842 0.18962 0.84215
 C127 C 1.13537 0.65120 0.83376
 C128 C 1.13591 0.66798 0.84888
 C129 C 1.15145 0.66808 0.86490
 C130 C 1.16678 0.65151 0.86589
 C131 C 1.16604 0.63475 0.85124
 C132 C 1.15024 0.63462 0.83497
 C133 C 1.12282 0.64761 0.81583
 N134 N 1.12969 0.62927 0.80604
 C135 C 1.14641 0.62115 0.81772
 C136 C 1.18316 0.62137 0.85577
 N137 N 1.19464 0.62977 0.87258
 C138 C 1.18452 0.64826 0.87881
 C139 C 1.14824 0.68633 0.87709
 N140 N 1.13117 0.69731 0.86880
 C141 C 1.12360 0.68625 0.85146
 H142 H 1.10979 0.65777 0.81018
 H143 H 1.15564 0.60696 0.81351
 H144 H 1.18748 0.60720 0.84656
 H145 H 1.18940 0.65865 0.89195
 H146 H 1.15778 0.69138 0.89084
 H147 H 1.10995 0.69097 0.84162
 C148 C 1.13554 0.15162 0.33274
 C149 C 1.13618 0.16849 0.34776
 C150 C 1.15127 0.16822 0.36418
 C151 C 1.16604 0.15120 0.36567
 C152 C 1.16511 0.13432 0.35119
 C153 C 1.14966 0.13450 0.33458
 C154 C 1.12337 0.14832 0.31451
 N155 N 1.12956 0.12947 0.30507
 C156 C 1.14559 0.12087 0.31751
 C157 C 1.18188 0.12060 0.35614
 N158 N 1.19332 0.12898 0.37301
 C159 C 1.18346 0.14771 0.37892
 C160 C 1.14825 0.18655 0.37626
 N161 N 1.13164 0.19793 0.36758
 C162 C 1.12427 0.18707 0.35002
 H163 H 1.11071 0.15893 0.30889
 H164 H 1.15457 0.10636 0.31395
 H165 H 1.18609 0.10629 0.34711
 H166 H 1.18838 0.15819 0.39197
 H167 H 1.15751 0.19130 0.39030
 H168 H 1.11092 0.19206 0.33991
 C169 C 0.63455 1.34922 0.66653
 C170 C 0.63509 1.33252 0.65132
 C171 C 0.65082 1.33236 0.63550
 C172 C 0.66610 1.34902 0.63457
 C173 C 0.66531 1.36571 0.64934
 C174 C 0.64934 1.36583 0.66542
 C175 C 0.62201 1.35266 0.68448
 N176 N 0.62862 1.37113 0.69441
 C177 C 0.64529 1.37935 0.68257
 C178 C 0.68262 1.37901 0.64513
 N179 N 0.69393 1.37070 0.62828
 C180 C 0.68386 1.35238 0.62170
 C181 C 0.64787 1.31396 0.62346
 N182 N 0.63059 1.30308 0.63147
 C183 C 0.62271 1.31431 0.64856
 H184 H 0.60886 1.34240 0.68963
 H185 H 0.65472 1.39345 0.68664
 H186 H 0.68712 1.39322 0.65421
 H187 H 0.68920 1.34208 0.60865
 H188 H 0.65744 1.30899 0.60972
 H189 H 0.60915 1.30943 0.65845
 C190 C 0.63315 0.85025 1.16539
 C191 C 0.63348 0.83396 1.14971
 C192 C 0.64903 0.83419 1.13368
 C193 C 0.66436 0.85083 1.13303
 C194 C 0.66390 0.86697 1.14843
 C195 C 0.64805 0.86677 1.16459
 C196 C 0.62071 0.85342 1.18349
 N197 N 0.62747 0.87170 1.19370
 C198 C 0.64419 0.87997 1.18199
 C199 C 0.68137 0.88014 1.14471
 N200 N 0.69239 0.87245 1.12739
 C201 C 0.68203 0.85459 1.12006
 C202 C 0.64601 0.81601 1.12133
 N203 N 0.62889 0.80488 1.12937
 C204 C 0.62114 0.81576 1.14674
 H205 H 0.60748 0.84320 1.18850
 H206 H 0.65371 0.89394 1.18626
 H207 H 0.68594 0.89409 1.15415
 H208 H 0.68746 0.84457 1.10684
 H209 H 0.65552 0.81126 1.10747
 H210 H 0.60780 0.81056 1.15677
 C211 C 1.13181 1.35182 1.16322
 C212 C 1.13280 1.33478 1.14843
 C213 C 1.14932 1.33397 1.13347
 C214 C 1.16496 1.35030 1.13297
 C215 C 1.16372 1.36738 1.14718
 C216 C 1.14710 1.36808 1.16258
 C217 C 1.11868 1.35570 1.18066
 N218 N 1.12563 1.37387 1.19073
 C219 C 1.14291 1.38165 1.17967
 C220 C 1.18125 1.38046 1.14324
 N221 N 1.19337 1.37159 1.12713
 C222 C 1.18334 1.35305 1.12087
 C223 C 1.14672 1.31531 1.12178
 N224 N 1.12891 1.30486 1.12918
 C225 C 1.12033 1.31665 1.14554
 H226 H 1.10537 1.34568 1.18595
 H227 H 1.15244 1.39551 1.18436
 H228 H 1.18526 1.39482 1.15227
 H229 H 1.18862 1.34236 1.10814
 H230 H 1.15693 1.30986 1.10870
 H231 H 1.10626 1.31219 1.15491
 C232 C 1.13069 0.85262 0.66303
 C233 C 1.13121 0.83605 0.64765
 C234 C 1.14741 0.83562 0.63232
 C235 C 1.16318 0.85182 0.63201
 C236 C 1.16255 0.86831 0.64700
 C237 C 1.14619 0.86869 0.66267
 C238 C 1.11780 0.85622 0.68073
 N239 N 1.12507 0.87408 0.69114
 C240 C 1.14237 0.88187 0.68012
 C241 C 1.18036 0.88112 0.64341
 N242 N 1.19179 0.87271 0.62669
 C243 C 1.18135 0.85479 0.61963
 C244 C 1.14460 0.81725 0.62024
 N245 N 1.12700 0.80657 0.62779
 C246 C 1.11870 0.81797 0.64457
 H247 H 1.10436 0.84632 0.68588
 H248 H 1.15205 0.89557 0.68498
 H249 H 1.18503 0.89510 0.65275
 H250 H 1.18667 0.84454 0.60654
 H251 H 1.15465 0.81205 0.60694
 H252 H 1.10492 0.81317 0.65419
 C253 C 0.36793 0.64812 0.66306
 C254 C 0.36820 0.66332 0.64628
 C255 C 0.35250 0.66270 0.63040
 C256 C 0.33640 0.64680 0.63099
 C257 C 0.33599 0.63203 0.64766
 C258 C 0.35198 0.63253 0.66368
 C259 C 0.38067 0.64527 0.68105
 N260 N 0.37294 0.62820 0.69244
 C261 C 0.35538 0.62033 0.68192
 C262 C 0.31789 0.61949 0.64491
 N263 N 0.30730 0.62604 0.62674
 C264 C 0.31876 0.64274 0.61812
 C265 C 0.35592 0.68009 0.61703
 N266 N 0.37335 0.69119 0.62437
 C267 C 0.38103 0.68098 0.64220
 H268 H 0.39459 0.65486 0.68548
 H269 H 0.34552 0.60698 0.68739
 H270 H 0.31315 0.60632 0.65533
 H271 H 0.31417 0.65211 0.60412
 H272 H 0.34622 0.68453 0.60319
 H273 H 0.39441 0.68650 0.65200
 C274 C 0.36738 0.14990 1.16384
 C275 C 0.36766 0.16519 1.14715
 C276 C 0.35194 0.16468 1.13126
 C277 C 0.33582 0.14879 1.13178
 C278 C 0.33542 0.13393 1.14836
 C279 C 0.35141 0.13432 1.16437
 C280 C 0.38012 0.14689 1.18182
 N281 N 0.37236 0.12975 1.19308
 C282 C 0.35479 0.12199 1.18251
 C283 C 0.31735 0.12138 1.14556
 N284 N 0.30674 0.12800 1.12743
 C285 C 0.31817 0.14476 1.11888
 C286 C 0.35544 0.18210 1.11795
 N287 N 0.37293 0.19311 1.12532
 C288 C 0.38056 0.18281 1.14312
 H289 H 0.39406 0.15642 1.18633
 H290 H 0.34490 0.10863 1.18788
 H291 H 0.31267 0.10812 1.15590
 H292 H 0.31357 0.15417 1.10491
 H293 H 0.34577 0.18661 1.10410
 H294 H 0.39399 0.18822 1.15292
 C295 C 0.87021 0.64724 1.16190
 C296 C 0.86991 0.66308 1.14573
 C297 C 0.85388 0.66285 1.13016
 C298 C 0.83806 0.64668 1.13043
 C299 C 0.83838 0.63106 1.14638
 C300 C 0.85461 0.63129 1.16216
 C301 C 0.88306 0.64421 1.17978
 N302 N 0.87569 0.62675 1.19080
 C303 C 0.85831 0.61872 1.18009
 C304 C 0.82049 0.61825 1.14342
 N305 N 0.80938 0.62564 1.12600
 C306 C 0.82005 0.64300 1.11793
 C307 C 0.85685 0.68073 1.11735
 N308 N 0.87435 0.69173 1.12469
 C309 C 0.88246 0.68101 1.14203
 H310 H 0.89665 0.65411 1.18452
 H311 H 0.84861 0.60520 1.18538
 H312 H 0.81581 0.60464 1.15333
 H313 H 0.81472 0.65270 1.10440
 H314 H 0.84690 0.68547 1.10378
 H315 H 0.89605 0.68626 1.15168
 C316 C 0.86687 0.14934 0.66441
 C317 C 0.86638 0.16533 0.64841
 C318 C 0.85073 0.16475 0.63248
 C319 C 0.83546 0.14804 0.63223
 C320 C 0.83609 0.13218 0.64793
 C321 C 0.85204 0.13274 0.66401
 C322 C 0.87945 0.14653 0.68249
 N323 N 0.87286 0.12839 0.69307
 C324 C 0.85609 0.11985 0.68163
 C325 C 0.81869 0.11883 0.64451
 N326 N 0.80756 0.12614 0.62708
 C327 C 0.81778 0.14395 0.61940
 C328 C 0.85366 0.18268 0.61969
 N329 N 0.87083 0.19396 0.62737
 C330 C 0.87869 0.18346 0.64495
 H331 H 0.89268 0.15689 0.68723
 H332 H 0.84667 0.10590 0.68622
 H333 H 0.81428 0.10498 0.65420
 H334 H 0.81226 0.15371 0.60599
 H335 H 0.84408 0.18712 0.60576
 H336 H 0.89212 0.18885 0.65475
 C337 C 1.35113 0.36587 0.66475
 C338 C 1.33442 0.36516 0.64948
 C339 C 1.33402 0.34900 0.63412
 C340 C 1.35022 0.33322 0.63395
 C341 C 1.36682 0.33405 0.64881
 C342 C 1.36718 0.35038 0.66446
 C343 C 1.35501 0.37904 0.68219
 N344 N 1.37289 0.37178 0.69262
 C345 C 1.38045 0.35427 0.68185
 C346 C 1.37989 0.31653 0.64508
 N347 N 1.37146 0.30474 0.62852
 C348 C 1.35321 0.31501 0.62171
 C349 C 1.31580 0.35201 0.62178
 N350 N 1.30507 0.36952 0.62936
 C351 C 1.31632 0.37762 0.64636
 H352 H 1.34506 0.39238 0.68742
 H353 H 1.39439 0.34484 0.68653
 H354 H 1.39390 0.31225 0.65459
 H355 H 1.34290 0.30997 0.60854
 H356 H 1.31048 0.34193 0.60854
 H357 H 1.31170 0.39160 0.65572
 C358 C 1.35147 0.86559 1.16455
 C359 C 1.33491 0.86485 1.14908
 C360 C 1.33375 0.84775 1.13481
 C361 C 1.34927 0.83133 1.13560
 C362 C 1.36572 0.83224 1.15059
 C363 C 1.36657 0.84927 1.16544
 C364 C 1.35578 0.87942 1.18138
 N365 N 1.37286 0.87162 1.19290
 C366 C 1.37955 0.85318 1.18299
 C367 C 1.37836 0.81427 1.14764
 N368 N 1.36991 0.80220 1.13130
 C369 C 1.35192 0.81261 1.12402
 C370 C 1.31559 0.85069 1.12238
 N371 N 1.30568 0.86916 1.12873
 C372 C 1.31743 0.87794 1.14505
 H373 H 1.34615 0.89332 1.18562
 H374 H 1.39293 0.84315 1.18801
 H375 H 1.39229 0.81009 1.15733
 H376 H 1.34176 0.80750 1.11077
 H377 H 1.30998 0.84010 1.10968
 H378 H 1.31324 0.89244 1.15379
 C379 C 0.85332 0.36756 1.16328
 C380 C 0.83674 0.36686 1.14784
 C381 C 0.83557 0.34979 1.13354
 C382 C 0.85107 0.33337 1.13427
 C383 C 0.86754 0.33422 1.14923
 C384 C 0.86842 0.35122 1.16411
 C385 C 0.85757 0.38126 1.18024
 N386 N 0.87459 0.37337 1.19177
 C387 C 0.88133 0.35500 1.18175
 C388 C 0.88008 0.31617 1.14628
 N389 N 0.87149 0.30412 1.12999
 C390 C 0.85357 0.31463 1.12273
 C391 C 0.81733 0.35264 1.12123
 N392 N 0.80735 0.37103 1.12767
 C393 C 0.81915 0.37986 1.14394
 H394 H 0.84789 0.39511 1.18457
 H395 H 0.89465 0.34492 1.18678
 H396 H 0.89398 0.31190 1.15596
 H397 H 0.84332 0.30953 1.10954
 H398 H 0.81168 0.34202 1.10857
 H399 H 0.81489 0.39429 1.15276
 C400 C 0.85186 0.86789 0.66340
 C401 C 0.83547 0.86708 0.64782
 C402 C 0.83519 0.85065 0.63278
 C403 C 0.85140 0.83491 0.63300
 C404 C 0.86776 0.83583 0.64820
 C405 C 0.86797 0.85245 0.66357
 C406 C 0.85527 0.88115 0.68085
 N407 N 0.87305 0.87417 0.69162
 C408 C 0.88100 0.85668 0.68109
 C409 C 0.88068 0.81806 0.64506
 N410 N 0.87248 0.80636 0.62841
 C411 C 0.85458 0.81659 0.62095
 C412 C 0.81697 0.85334 0.62035
 N413 N 0.80628 0.87111 0.62741
 C414 C 0.81750 0.87959 0.64423
 H415 H 0.84530 0.89467 0.68556
 H416 H 0.89470 0.84719 0.68631
 H417 H 0.89462 0.81361 0.65462
 H418 H 0.84450 0.81106 0.60779
 H419 H 0.81189 0.84314 0.60712
 H420 H 0.81267 0.89354 0.65353
 C421 C 0.64883 0.63311 0.66436
 C422 C 0.66436 0.63261 0.64792
 C423 C 0.66424 0.64813 0.63186
 C424 C 0.64861 0.66450 0.63215
 C425 C 0.63345 0.66512 0.64855
 C426 C 0.63354 0.64931 0.66473
 C427 C 0.64552 0.62048 0.68233
 N428 N 0.62863 0.62869 0.69363
 C429 C 0.62125 0.64637 0.68299
 C430 C 0.62109 0.68324 0.64545
 N431 N 0.62829 0.69366 0.62754
 C432 C 0.64511 0.68227 0.61927
 C433 C 0.68181 0.64425 0.61880
 N434 N 0.69264 0.62690 0.62669
 C435 C 0.68200 0.61966 0.64446
 H436 H 0.65505 0.60667 0.68711
 H437 H 0.60790 0.65637 0.68815
 H438 H 0.60787 0.68851 0.65558
 H439 H 0.65452 0.68692 0.60529
 H440 H 0.68685 0.65389 0.60512
 H441 H 0.68694 0.60617 0.65438
 C442 C 0.64800 1.13366 1.16515
 C443 C 0.66447 1.13385 1.14961
 C444 C 0.66526 1.15013 1.13434
 C445 C 0.64965 1.16649 1.13448
 C446 C 0.63335 1.16618 1.14967
 C447 C 0.63273 1.14986 1.16533
 C448 C 0.64376 1.12043 1.18248
 N449 N 0.62654 1.12845 1.19359
 C450 C 0.61975 1.14650 1.18301
 C451 C 0.62063 1.18397 1.14606
 N452 N 0.62895 1.19541 1.12919
 C453 C 0.64685 1.18473 1.12216
 C454 C 0.68327 1.14662 1.12182
 N455 N 0.69351 1.12873 1.12925
 C456 C 0.68213 1.12084 1.14627
 H457 H 0.65344 1.10672 1.18723
 H458 H 0.60621 1.15651 1.18756
 H459 H 0.60685 1.18858 1.15573
 H460 H 0.65693 1.18940 1.10867
 H461 H 0.68885 1.15669 1.10868
 H462 H 0.68645 1.10673 1.15560
 C463 C 0.15090 0.63668 1.16655
 C464 C 0.16767 0.63745 1.15139
 C465 C 0.16726 0.65265 1.13511
 C466 C 0.15020 0.66741 1.13391
 C467 C 0.13340 0.66636 1.14853
 C468 C 0.13373 0.65078 1.16502
 C469 C 0.14782 0.62440 1.18473
 N470 N 0.12905 0.63049 1.19446
 C471 C 0.12027 0.64658 1.18223
 C472 C 0.11965 0.68318 1.14387
 N473 N 0.12795 0.69476 1.12705
 C474 C 0.14663 0.68494 1.12087
 C475 C 0.18558 0.64979 1.12288
 N476 N 0.19707 0.63317 1.13137
 C477 C 0.18628 0.62563 1.14892
 H478 H 0.15853 0.61174 1.19015
 H479 H 0.10577 0.65550 1.18604
 H480 H 0.10540 0.68733 1.15307
 H481 H 0.15704 0.68995 1.10778
 H482 H 0.19026 0.65919 1.10892
 H483 H 0.19137 0.61224 1.15891
 C484 C 0.14673 1.13271 0.66371
 C485 C 0.16320 1.13276 0.64817
 C486 C 0.16406 1.14896 0.63284
 C487 C 0.14851 1.16538 0.63289
 C488 C 0.13220 1.16522 0.64808
 C489 C 0.13152 1.14896 0.66383
 C490 C 0.14249 1.11959 0.68111
 N491 N 0.12532 1.12770 0.69222
 C492 C 0.11857 1.14573 0.68157
 C493 C 0.11956 1.18305 0.64435
 N494 N 0.12794 1.19435 0.62742
 C495 C 0.14580 1.18356 0.62046
 C496 C 0.18208 1.14535 0.62036
 N497 N 0.19227 1.12747 0.62789
 C498 C 0.18083 1.11969 0.64493
 H499 H 0.15215 1.10588 0.68591
 H500 H 0.10508 1.15582 0.68612
 H501 H 0.10578 1.18777 0.65398
 H502 H 0.15591 1.18810 0.60696
 H503 H 0.18773 1.15536 0.60720
 H504 H 0.18510 1.10562 0.65434
 C505 C 1.35242 0.63294 0.33611
 C506 C 1.33574 0.63358 0.35143
 C507 C 1.33443 0.65065 0.36572
 C508 C 1.34989 0.66715 0.36508
 C509 C 1.36645 0.66635 0.35023
 C510 C 1.36748 0.64934 0.33538
 C511 C 1.35687 0.61921 0.31924
 N512 N 1.37399 0.62713 0.30787
 C513 C 1.38057 0.64556 0.31789
 C514 C 1.37895 0.68443 0.35325
 N515 N 1.37027 0.69646 0.36948
 C516 C 1.35231 0.68591 0.37664
 C517 C 1.31616 0.64767 0.37796
 N518 N 1.30630 0.62920 0.37149
 C519 C 1.31821 0.62046 0.35527
 H520 H 1.34729 0.60529 0.31488
 H521 H 1.39394 0.65567 0.31300
 H522 H 1.39290 0.68872 0.34365
 H523 H 1.34199 0.69099 0.38976
 H524 H 1.31044 0.65824 0.39062
 H525 H 1.31409 0.60598 0.34645
 C526 C 1.35123 1.13356 0.83686
 C527 C 1.33658 1.13278 0.85410
 C528 C 1.33695 1.14867 0.86975
 C529 C 1.35208 1.16546 0.86847
 C530 C 1.36621 1.16644 0.85128
 C531 C 1.36586 1.15034 0.83541
 C532 C 1.35420 1.12069 0.81902
 N533 N 1.37028 1.12927 0.80678
 C534 C 1.37745 1.14745 0.81670
 C535 C 1.37816 1.18498 0.85356
 N536 N 1.37191 1.19528 0.87198
 C537 C 1.35591 1.18325 0.88115
 C538 C 1.31998 1.14475 0.88354
 N539 N 1.30932 1.12689 0.87663
 C540 C 1.31948 1.11938 0.85872
 H541 H 1.34503 1.10639 0.81502
 H542 H 1.39026 1.15777 0.81081
 H543 H 1.39085 1.19013 0.84273
 H544 H 1.34694 1.18741 0.89553
 H545 H 1.31538 1.15453 0.89725
 H546 H 1.31414 1.10583 0.84909
 C547 C 0.85258 0.63281 0.83639
 C548 C 0.83629 0.63314 0.85213
 C549 C 0.83563 0.64968 0.86708
 C550 C 0.85131 0.66596 0.86665
 C551 C 0.86744 0.66557 0.85125
 C552 C 0.86798 0.64897 0.83591
 C553 C 0.85643 0.61957 0.81898
 N554 N 0.87366 0.62742 0.80789
 C555 C 0.88085 0.64537 0.81820
 C556 C 0.87994 0.68366 0.85427
 N557 N 0.87170 0.69505 0.87110
 C558 C 0.85415 0.68434 0.87872
 C559 C 0.81758 0.64658 0.87962
 N560 N 0.80727 0.62853 0.87270
 C561 C 0.81864 0.62018 0.85591
 H562 H 0.84684 0.60578 0.81422
 H563 H 0.89424 0.65531 0.81299
 H564 H 0.89369 0.68846 0.84461
 H565 H 0.84418 0.68951 0.89210
 H566 H 0.81229 0.65679 0.89274
 H567 H 0.81404 0.60610 0.84668
 C568 C 0.85202 1.13239 0.33699
 C569 C 0.83565 1.13304 0.35260
 C570 C 0.83530 1.14944 0.36768
 C571 C 0.85142 1.16530 0.36748
 C572 C 0.86775 1.16453 0.35226
 C573 C 0.86803 1.14795 0.33686
 C574 C 0.85548 1.11922 0.31949
 N575 N 0.87321 1.12637 0.30874
 C576 C 0.88106 1.14388 0.31932
 C577 C 0.88056 1.18240 0.35541
 N578 N 0.87232 1.19401 0.37208
 C579 C 0.85450 1.18363 0.37954
 C580 C 0.81714 1.14658 0.38014
 N581 N 0.80653 1.12875 0.37307
 C582 C 0.81776 1.12038 0.35621
 H583 H 0.84559 1.10564 0.31472
 H584 H 0.89470 1.15349 0.31413
 H585 H 0.89444 1.18697 0.34582
 H586 H 0.84441 1.18907 0.39272
 H587 H 0.81205 1.15671 0.39341
 H588 H 0.81298 1.10641 0.34690
 C589 C 0.64784 0.36668 0.33638
 C590 C 0.66313 0.36769 0.35304
 C591 C 0.66365 0.35186 0.36878
 C592 C 0.64890 0.33469 0.36796
 C593 C 0.63409 0.33353 0.35126
 C594 C 0.63363 0.34959 0.33533
 C595 C 0.64396 0.37956 0.31873
 N596 N 0.62784 0.37062 0.30669
 C597 C 0.62156 0.35215 0.31686
 C598 C 0.62244 0.31487 0.35403
 N599 N 0.62971 0.30468 0.37205
 C600 C 0.64593 0.31670 0.38066
 C601 C 0.68096 0.35630 0.38203
 N602 N 0.69105 0.37427 0.37452
 C603 C 0.68015 0.38138 0.35686
 H604 H 0.65302 0.39390 0.31463
 H605 H 0.60881 0.34143 0.31166
 H606 H 0.60950 0.30920 0.34374
 H607 H 0.65517 0.31247 0.39488
 H608 H 0.68646 0.34656 0.39545
 H609 H 0.68462 0.39519 0.34715
 C610 C 0.64671 0.86777 0.83704
 C611 C 0.66323 0.86762 0.85255
 C612 C 0.66409 0.85129 0.86775
 C613 C 0.64837 0.83504 0.86782
 C614 C 0.63201 0.83526 0.85264
 C615 C 0.63127 0.85163 0.83705
 C616 C 0.64261 0.88076 0.81948
 N617 N 0.62520 0.87278 0.80876
 C618 C 0.61815 0.85499 0.81946
 C619 C 0.61952 0.81725 0.85613
 N620 N 0.62795 0.80608 0.87302
 C621 C 0.64565 0.81684 0.88023
 C622 C 0.68236 0.85452 0.87995
 N623 N 0.69260 0.87244 0.87259
 C624 C 0.68098 0.88059 0.85585
 H625 H 0.65215 0.89447 0.81436
 H626 H 0.60467 0.84499 0.81459
 H627 H 0.60561 0.81236 0.84673
 H628 H 0.65580 0.81182 0.89354
 H629 H 0.68785 0.84447 0.89315
 H630 H 0.68546 0.89453 0.84633
 C631 C 0.14968 0.36492 0.83378
 C632 C 0.16569 0.36487 0.84977
 C633 C 0.16470 0.35022 0.86659
 C634 C 0.14775 0.33523 0.86748
 C635 C 0.13194 0.33533 0.85168
 C636 C 0.13278 0.35048 0.83487
 C637 C 0.14704 0.37679 0.81523
 N638 N 0.12868 0.37020 0.80501
 C639 C 0.11988 0.35406 0.81713
 C640 C 0.11851 0.31813 0.85565
 N641 N 0.12577 0.30756 0.87345
 C642 C 0.14355 0.31803 0.88090
 C643 C 0.18262 0.35359 0.87933
 N644 N 0.19443 0.36990 0.87060
 C645 C 0.18417 0.37684 0.85249
 H646 H 0.15760 0.38967 0.81000
 H647 H 0.10564 0.34482 0.81303
 H648 H 0.10480 0.31332 0.84593
 H649 H 0.15337 0.31284 0.89441
 H650 H 0.18696 0.34455 0.89364
 H651 H 0.18967 0.38975 0.84209
 C652 C 0.14624 0.86898 0.33705
 C653 C 0.16150 0.87002 0.35375
 C654 C 0.16196 0.85422 0.36952
 C655 C 0.14723 0.83705 0.36869
 C656 C 0.13246 0.83586 0.35198
 C657 C 0.13204 0.85188 0.33602
 C658 C 0.14246 0.88175 0.31928
 N659 N 0.12641 0.87271 0.30720
 C660 C 0.12008 0.85431 0.31747
 C661 C 0.12091 0.81713 0.35468
 N662 N 0.12822 0.80693 0.37268
 C663 C 0.14435 0.81902 0.38134
 C664 C 0.17929 0.85858 0.38275
 N665 N 0.18948 0.87648 0.37521
 C666 C 0.17861 0.88363 0.35755
 H667 H 0.15154 0.89605 0.31512
 H668 H 0.10738 0.84353 0.31226
 H669 H 0.10805 0.81139 0.34432
 H670 H 0.15365 0.81477 0.39553
 H671 H 0.18479 0.84879 0.39614
 H672 H 0.18318 0.89737 0.34778
 O673 O 0.97831 0.92406 0.89147
 O674 O 0.97816 0.89918 0.86606
 C675 C 0.97086 0.91665 0.87386
 C676 C 0.95321 0.92824 0.86265
 C677 C 0.94578 0.92126 0.84239
 H678 H 0.95322 0.90741 0.83483
 O679 O 1.02112 1.07783 0.89265
 O680 O 1.02117 1.10315 0.86764
 C681 C 1.02846 1.08552 0.87510
 C682 C 1.04610 1.07418 0.86365
 C683 C 1.05293 1.08113 0.84318
 H684 H 1.04407 1.09386 0.83518
 O685 O 0.89195 0.98011 0.92186
 O686 O 0.86658 0.98024 0.89687
 C687 C 0.87436 0.97275 0.91432
 C688 C 0.86317 0.95498 0.92576
 C689 C 0.84311 0.94733 0.91843
 H690 H 0.83566 0.95467 0.90442
 O691 O 1.10812 1.02131 0.92214
 O692 O 1.13347 1.02154 0.89715
 C693 C 1.12578 1.02868 0.91477
 C694 C 1.13710 1.04607 0.92665
 C695 C 1.15745 1.05347 0.91986
 H696 H 1.16506 1.04621 0.90591
 O697 O 0.92180 0.89378 0.97837
 O698 O 0.89673 0.86853 0.97817
 C699 C 0.91424 0.87631 0.97083
 C700 C 0.92562 0.86526 0.95296
 C701 C 0.91839 0.84518 0.94543
 H702 H 0.90509 0.83723 0.95353
 O703 O 1.07826 1.10695 0.97949
 O704 O 1.10329 1.13223 0.97962
 C705 C 1.08580 1.12454 0.97215
 C706 C 1.07431 1.13585 0.95448
 C707 C 1.08148 1.15604 0.94707
 H708 H 1.09546 1.16348 0.95448
 O709 O 0.92114 1.02258 0.89260
 O710 O 0.89592 1.02286 0.86745
 C711 C 0.91351 1.03013 0.87513
 C712 C 0.92512 1.04773 0.86388
 C713 C 0.91788 1.05549 0.84383
 H714 H 0.90350 1.04859 0.83672
 O715 O 1.07826 0.97999 0.89198
 O716 O 1.10337 0.98008 0.86675
 C717 C 1.08574 0.97279 0.87432
 C718 C 1.07398 0.95543 0.86283
 C719 C 1.08111 0.94799 0.84263
 H720 H 1.09522 0.95521 0.83524
 O721 O 1.02043 0.89428 0.92079
 O722 O 1.02031 0.86929 0.89550
 C723 C 1.02773 0.87677 0.91309
 C724 C 1.04545 0.86538 0.92441
 C725 C 1.05297 0.84541 0.91685
 H726 H 1.04496 0.83777 0.90332
 O727 O 0.97909 1.10711 0.92258
 O728 O 0.97919 1.13256 0.89770
 C729 C 0.97182 1.12478 0.91520
 C730 C 0.95424 1.13609 0.92680
 C731 C 0.94720 1.15645 0.91987
 H732 H 0.95549 1.16438 0.90667
 O733 O 0.89214 1.07788 0.97996
 O734 O 0.86713 1.10315 0.98013
 C735 C 0.87452 1.08552 0.97279
 C736 C 0.86293 1.07412 0.95524
 C737 C 0.84251 1.08113 0.94833
 H738 H 0.83461 1.09405 0.95698
 O739 O 1.10728 0.92274 0.97849
 O740 O 1.13222 0.89740 0.97833
 C741 C 1.12483 0.91511 0.97116
 C742 C 1.13634 0.92659 0.95361
 C743 C 1.15657 0.91936 0.94643
 H744 H 1.16441 0.90629 0.95495
 O745 O 0.97902 1.07805 0.89254
 O746 O 0.97910 1.10340 0.86755
 C747 C 0.97170 1.08581 0.87502
 C748 C 0.95392 1.07460 0.86362
 C749 C 0.94693 1.08168 0.84325
 H750 H 0.95571 1.09447 0.83524
 O751 O 1.02046 0.92412 0.89150
 O752 O 1.02031 0.89925 0.86609
 C753 C 1.02776 0.91669 0.87385
 C754 C 1.04550 0.92812 0.86259
 C755 C 1.05270 0.92109 0.84229
 H756 H 1.04437 0.90797 0.83433
 O757 O 1.10783 0.97929 0.92146
 O758 O 1.13313 0.97935 0.89642
 C759 C 1.12533 0.97183 0.91385
 C760 C 1.13642 0.95398 0.92526
 C761 C 1.15634 0.94607 0.91785
 H762 H 1.16353 0.95310 0.90356
 O763 O 0.89181 1.02215 0.92227
 O764 O 0.86643 1.02239 0.89730
 C765 C 0.87420 1.02957 0.91487
 C766 C 0.86293 1.04702 0.92666
 C767 C 0.84280 1.05466 0.91957
 H768 H 0.83555 1.04766 0.90530
 O769 O 0.92197 1.10721 0.97949
 O770 O 0.89711 1.13263 0.97961
 C771 C 0.91453 1.12482 0.97214
 C772 C 0.92611 1.13607 0.95447
 C773 C 0.91911 1.15633 0.94710
 H774 H 0.90519 1.16383 0.95452
 O775 O 1.07745 0.89347 0.97778
 O776 O 1.10230 0.86805 0.97755
 C777 C 1.08490 0.87600 0.97015
 C778 C 1.07347 0.86509 0.95221
 C779 C 1.08092 0.84526 0.94424
 H780 H 1.09501 0.83785 0.95146
 O781 O 1.07875 1.02197 0.89244
 O782 O 1.10389 1.02222 0.86724
 C783 C 1.08637 1.02954 0.87497
 C784 C 1.07478 1.04721 0.86378
 C785 C 1.08189 1.05489 0.84364
 H786 H 1.09618 1.04792 0.83645
 O787 O 0.92135 0.98062 0.89213
 O788 O 0.89615 0.98081 0.86696
 C789 C 0.91379 0.97349 0.87446
 C790 C 0.92537 0.95611 0.86289
 C791 C 0.91834 0.94910 0.84251
 H792 H 0.90500 0.95727 0.83471
 O793 O 1.02122 1.10708 0.92253
 O794 O 1.02129 1.13251 0.89764
 C795 C 1.02860 1.12471 0.91515
 C796 C 1.04622 1.13596 0.92676
 C797 C 1.05341 1.15626 0.91979
 H798 H 1.04518 1.16420 0.90657
 O799 O 0.97830 0.89445 0.92093
 O800 O 0.97814 0.86945 0.89565
 C801 C 0.97084 0.87699 0.91326
 C802 C 0.95319 0.86563 0.92474
 C803 C 0.94556 0.84565 0.91728
 H804 H 0.95283 0.83839 0.90315
 O805 O 1.10770 1.07729 0.97974
 O806 O 1.13287 1.10244 0.97993
 C807 C 1.12535 1.08487 0.97255
 C808 C 1.13689 1.07343 0.95503
 C809 C 1.15736 1.08039 0.94822
 H810 H 1.16522 1.09348 0.95670
 O811 O 0.89218 0.92322 0.97882
 O812 O 0.86700 0.89808 0.97865
 C813 C 0.87460 0.91570 0.97142
 C814 C 0.86323 0.92722 0.95380
 C815 C 0.84307 0.91997 0.94639
 H816 H 0.83527 0.90656 0.95445
 Cu817 Cu 0.99939 0.91172 0.90870
 Cu818 Cu 0.99923 0.88179 0.87828
 Cu819 Cu 1.00011 1.08997 0.91007
 Cu820 Cu 1.00020 1.12046 0.88014
 Cu821 Cu 0.90908 1.00134 0.90973
 Cu822 Cu 0.87871 1.00158 0.87964
 Cu823 Cu 1.09074 1.00063 0.90952
 Cu824 Cu 1.12101 1.00082 0.87937
 C825 C 0.94299 0.94576 0.87268
 H826 H 0.94838 0.95095 0.88849
 C827 C 0.92838 0.93162 0.83213
 C828 C 1.05689 1.05698 0.87363
 H829 H 1.05167 1.05154 0.88941
 C830 C 1.07098 1.07177 0.83303
 C831 C 0.87302 0.94490 0.94354
 H832 H 0.88867 0.95044 0.94904
 C833 C 0.83290 0.92983 0.92865
 C834 C 1.12704 1.05608 0.94432
 H835 H 1.11117 1.05076 0.94938
 C836 C 1.16776 1.07062 0.93058
 C837 C 0.94320 0.87523 0.94267
 H838 H 0.94873 0.89082 0.94827
 C839 C 0.92818 0.83526 0.92754
 C840 C 1.05660 1.12601 0.94428
 H841 H 1.05124 1.11026 0.94962
 C842 C 1.07111 1.16642 0.92973
 C843 C 0.94315 1.05739 0.87361
 H844 H 0.94848 1.05187 0.88933
 C845 C 0.92877 1.07238 0.83320
 C846 C 1.05608 0.94547 0.87259
 H847 H 1.05074 0.95083 0.88835
 C848 C 1.07056 0.93082 0.83221
 C849 C 1.05565 0.87495 0.94226
 H850 H 1.05007 0.89044 0.94806
 C851 C 1.07075 0.83523 0.92661
 C852 C 0.94375 1.12615 0.94427
 H853 H 0.94899 1.11036 0.94959
 C854 C 0.92957 1.16669 0.92982
 C855 C 0.87282 1.05682 0.94454
 H856 H 0.88860 1.05138 0.94975
 C857 C 0.83231 1.07165 0.93035
 C858 C 1.12659 0.94413 0.94316
 H859 H 1.11096 0.94975 0.94861
 C860 C 1.16669 0.92880 0.92839
 O861 O 1.02046 0.92233 1.10758
 O862 O 1.02048 0.89708 1.13265
 C863 C 1.02777 0.91472 1.12515
 C864 C 1.04543 0.92613 1.13656
 C865 C 1.05245 0.91912 1.15695
 H866 H 1.04379 0.90625 1.16495
 O867 O 0.97897 1.07677 1.10883
 O868 O 0.97917 1.10170 1.13418
 C869 C 0.97167 1.08428 1.12645
 C870 C 0.95394 1.07287 1.13770
 C871 C 0.94647 1.07999 1.15789
 H872 H 0.95398 1.09384 1.16542
 O873 O 0.89236 1.02102 1.07854
 O874 O 0.86708 1.02085 1.10361
 C875 C 0.87479 1.02835 1.08613
 C876 C 0.86360 1.04618 1.07483
 C877 C 0.84347 1.05361 1.08211
 H878 H 0.83555 1.04539 1.09536
 O879 O 1.10787 0.97796 1.07793
 O880 O 1.13316 0.97764 1.10300
 C881 C 1.12537 0.97039 1.08546
 C882 C 1.13642 0.95266 1.07393
 C883 C 1.15640 0.94479 1.08122
 H884 H 1.16395 0.95198 1.09525
 O885 O 1.07699 0.89292 1.01998
 O886 O 1.10177 0.86743 1.01973
 C887 C 1.08428 0.87517 1.02713
 C888 C 1.07273 0.86382 1.04475
 C889 C 1.07962 0.84342 1.05172
 H890 H 1.09242 0.83537 1.04299
 O891 O 0.92258 1.10718 1.02163
 O892 O 0.89774 1.13261 1.02179
 C893 C 0.91527 1.12479 1.02904
 C894 C 0.92683 1.13586 1.04682
 C895 C 0.91973 1.15598 1.05432
 H896 H 0.90679 1.16409 1.04585
 O897 O 0.92182 0.97871 1.10781
 O898 O 0.89669 0.97851 1.13302
 C899 C 0.91428 0.97128 1.12537
 C900 C 0.92577 0.95362 1.13663
 C901 C 0.91882 0.94642 1.15697
 H902 H 0.90590 0.95494 1.16502
 O903 O 1.07878 1.02021 1.10753
 O904 O 1.10397 1.02004 1.13270
 C905 C 1.08645 1.02753 1.12508
 C906 C 1.07503 1.04516 1.13647
 C907 C 1.08271 1.05300 1.15633
 H908 H 1.09716 1.04606 1.16328
 O909 O 0.97869 0.89276 1.07759
 O910 O 0.97872 0.86730 1.10245
 C911 C 0.97138 0.87509 1.08494
 C912 C 0.95384 0.86383 1.07322
 C913 C 0.94647 0.84355 1.08013
 H914 H 0.95387 0.83598 1.09404
 O915 O 1.02110 1.10614 1.07912
 O916 O 1.02132 1.13121 1.10433
 C917 C 1.02858 1.12363 1.08671
 C918 C 1.04620 1.13497 1.07517
 C919 C 1.05391 1.15492 1.08263
 H920 H 1.04669 1.16220 1.09678
 O921 O 0.89228 0.92257 1.02099
 O922 O 0.86712 0.89742 1.02084
 C923 C 0.87476 0.91487 1.02837
 C924 C 0.86347 0.92614 1.04616
 C925 C 0.84337 0.91877 1.05369
 H926 H 0.83601 0.90478 1.04627
 O927 O 1.10765 1.07754 1.02184
 O928 O 1.13278 1.10274 1.02205
 C929 C 1.12516 1.08517 1.02934
 C930 C 1.13655 1.07359 1.04690
 C931 C 1.15658 1.08097 1.05457
 H932 H 1.16355 1.09538 1.04762
 O933 O 1.02110 1.07626 1.10839
 O934 O 1.02133 1.10121 1.13372
 C935 C 1.02859 1.08370 1.12596
 C936 C 1.04644 1.07227 1.13706
 C937 C 1.05395 1.07944 1.15720
 H938 H 1.04551 1.09241 1.16526
 O939 O 0.97834 0.92181 1.10749
 O940 O 0.97831 0.89649 1.13250
 C941 C 0.97087 0.91402 1.12493
 C942 C 0.95314 0.92533 1.13626
 C943 C 0.94548 0.91786 1.15627
 H944 H 0.95260 0.90358 1.16333
 O945 O 1.10818 1.01996 1.07781
 O946 O 1.13352 1.01972 1.10283
 C947 C 1.12585 1.02716 1.08530
 C948 C 1.13713 1.04488 1.07389
 C949 C 1.15749 1.05203 1.08086
 H950 H 1.16560 1.04336 1.09368
 O951 O 0.89226 0.97897 1.07818
 O952 O 0.86699 0.97875 1.10325
 C953 C 0.87466 0.97156 1.08564
 C954 C 0.86335 0.95401 1.07402
 C955 C 0.84312 0.94664 1.08109
 H956 H 0.83522 0.95472 1.09441
 O957 O 1.07772 1.10662 1.02166
 O958 O 1.10274 1.13193 1.02182
 C959 C 1.08520 1.12417 1.02912
 C960 C 1.07374 1.13528 1.04690
 C961 C 1.08105 1.15532 1.05445
 H962 H 1.09441 1.16322 1.04639
 O963 O 0.92202 0.89322 1.02048
 O964 O 0.89697 0.86795 1.02028
 C965 C 0.91456 0.87553 1.02763
 C966 C 0.92616 0.86401 1.04509
 C967 C 0.91920 0.84361 1.05203
 H968 H 0.90597 0.83577 1.04373
 O969 O 1.07832 0.97816 1.10741
 O970 O 1.10345 0.97789 1.13264
 C971 C 1.08583 0.97069 1.12497
 C972 C 1.07410 0.95319 1.13630
 C973 C 1.08131 0.94552 1.15640
 H974 H 1.09564 0.95251 1.16355
 O975 O 0.92182 1.02063 1.10823
 O976 O 0.89667 1.02047 1.13344
 C977 C 0.91429 1.02779 1.12590
 C978 C 0.92591 1.04516 1.13745
 C979 C 0.91885 1.05229 1.15776
 H980 H 0.90545 1.04420 1.16554
 O981 O 0.97896 1.10616 1.07917
 O982 O 0.97912 1.13120 1.10441
 C983 C 0.97164 1.12366 1.08686
 C984 C 0.95400 1.13509 1.07542
 C985 C 0.94617 1.15488 1.08316
 H986 H 0.95310 1.16168 1.09768
 O987 O 1.02079 0.89299 1.07783
 O988 O 1.02089 0.86758 1.10274
 C989 C 1.02823 0.87541 1.08525
 C990 C 1.04576 0.86416 1.07352
 C991 C 1.05337 0.84407 1.08071
 H992 H 1.04642 0.83695 1.09507
 O993 O 1.10717 0.92190 1.02058
 O994 O 1.13206 0.89650 1.02041
 C995 C 1.12462 0.91402 1.02794
 C996 C 1.13605 0.92511 1.04577
 C997 C 1.15611 0.91756 1.05317
 H998 H 1.16375 0.90411 1.04509
 O999 O 0.89255 1.07816 1.02207
 O1000 O 0.86757 1.10346 1.02228
 C1001 C 0.87513 1.08589 1.02961
 C1002 C 0.86385 1.07447 1.04736
 C1003 C 0.84387 1.08189 1.05509
 H1004 H 0.83661 1.09605 1.04789
 Cu1005 Cu 0.99957 0.91002 1.09013
 Cu1006 Cu 0.99963 0.87956 1.12010
 Cu1007 Cu 1.00001 1.08883 1.09135
 Cu1008 Cu 1.00028 1.11884 1.12170
 Cu1009 Cu 0.90957 0.91073 0.99970
 Cu1010 Cu 0.87943 0.88047 0.99947
 Cu1011 Cu 1.08973 0.91029 0.99924
 Cu1012 Cu 1.11956 0.87978 0.99899
 Cu1013 Cu 0.90980 1.09007 1.00075
 Cu1014 Cu 0.87990 1.12052 1.00095
 Cu1015 Cu 1.09031 1.08959 1.00065
 Cu1016 Cu 1.12042 1.11988 1.00085
 Cu1017 Cu 0.90957 0.99986 1.09066
 Cu1018 Cu 0.87930 0.99961 1.12084
 Cu1019 Cu 1.09077 0.99910 1.09016
 Cu1020 Cu 1.12106 0.99881 1.12032
 C1021 C 1.05612 0.94341 1.12655
 H1022 H 1.05082 0.94885 1.11079
 C1023 C 1.07052 0.92856 1.16700
 C1024 C 0.94363 1.05537 1.12770
 H1025 H 0.94904 1.05007 1.11195
 C1026 C 0.92896 1.06977 1.16811
 C1027 C 0.87351 1.05655 1.05728
 H1028 H 0.88911 1.05100 1.05168
 C1029 C 0.83348 1.07153 1.07243
 C1030 C 1.12647 0.94280 1.05611
 H1031 H 1.11090 0.94856 1.05062
 C1032 C 1.16640 0.92725 1.07092
 C1033 C 1.05554 0.87388 1.05552
 H1034 H 1.05017 0.88964 1.05024
 C1035 C 1.07026 0.83343 1.06988
 C1036 C 0.94422 1.12573 1.05724
 H1037 H 0.94975 1.11019 1.05155
 C1038 C 0.92907 1.16559 1.07268
 C1039 C 0.94317 0.94321 1.12660
 H1040 H 0.94861 0.94870 1.11090
 C1041 C 0.92838 0.92837 1.16691
 C1042 C 1.05687 1.05490 1.12700
 H1043 H 1.05119 1.04933 1.11142
 C1044 C 1.07225 1.07013 1.16692
 C1045 C 0.94366 0.87385 1.05560
 H1046 H 0.94898 0.88967 1.05045
 C1047 C 0.92918 0.83325 1.06961
 C1048 C 1.05614 1.12536 1.05720
 H1049 H 1.05057 1.10979 1.05161
 C1050 C 1.07133 1.16524 1.07237
 C1051 C 0.87325 0.94384 1.05637
 H1052 H 0.88894 0.94934 1.05094
 C1053 C 0.83301 0.92894 1.07113
 C1054 C 1.12699 1.05553 1.05665
 H1055 H 1.11128 1.05012 1.05121
 C1056 C 1.16736 1.07022 1.07147
 O1057 O 0.97850 0.42429 0.39124
 O1058 O 0.97833 0.39942 0.36583
 C1059 C 0.97110 0.41693 0.37360
 C1060 C 0.95341 0.42847 0.36240
 C1061 C 0.94632 0.42165 0.34200
 H1062 H 0.95507 0.40895 0.33386
 O1063 O 1.02146 0.57882 0.39253
 O1064 O 1.02147 0.60413 0.36751
 C1065 C 1.02889 0.58658 0.37506
 C1066 C 1.04658 0.57525 0.36367
 C1067 C 1.05432 0.58287 0.34375
 H1068 H 1.04724 0.59721 0.33676
 O1069 O 0.89189 0.48040 0.42199
 O1070 O 0.86647 0.48071 0.39704
 C1071 C 0.87418 0.47324 0.41454
 C1072 C 0.86284 0.45564 0.42607
 C1073 C 0.84238 0.44864 0.41924
 H1074 H 0.83435 0.45702 0.40616
 O1075 O 1.10742 0.52153 0.42147
 O1076 O 1.13274 0.52177 0.39644
 C1077 C 1.12503 0.52896 0.41403
 C1078 C 1.13633 0.54647 0.42575
 C1079 C 1.15642 0.55413 0.41851
 H1080 H 1.16384 0.54695 0.40441
 O1081 O 0.92196 0.39361 0.47780
 O1082 O 0.89682 0.36843 0.47758
 C1083 C 0.91437 0.37615 0.47026
 C1084 C 0.92577 0.36507 0.45243
 C1085 C 0.91861 0.34492 0.44499
 H1086 H 0.90534 0.33696 0.45312
 O1087 O 1.07824 0.60733 0.47925
 O1088 O 1.10344 0.63246 0.47939
 C1089 C 1.08588 0.62489 0.47195
 C1090 C 1.07445 0.63631 0.45431
 C1091 C 1.08192 0.65632 0.44675
 H1092 H 1.09601 0.66361 0.45411
 O1093 O 0.92168 0.52226 0.39242
 O1094 O 0.89650 0.52264 0.36724
 C1095 C 0.91416 0.52977 0.37488
 C1096 C 0.92593 0.54726 0.36358
 C1097 C 0.91901 0.55469 0.34329
 H1098 H 0.90502 0.54740 0.33575
 O1099 O 1.07803 0.47977 0.39140
 O1100 O 1.10319 0.47992 0.36622
 C1101 C 1.08559 0.47257 0.37376
 C1102 C 1.07396 0.45517 0.36226
 C1103 C 1.08114 0.44778 0.34206
 H1104 H 1.09522 0.45505 0.33468
 O1105 O 1.02057 0.39435 0.42046
 O1106 O 1.02042 0.36937 0.39515
 C1107 C 1.02790 0.37688 0.41272
 C1108 C 1.04572 0.36556 0.42395
 C1109 C 1.05337 0.34570 0.41625
 H1110 H 1.04540 0.33807 0.40270
 O1111 O 0.97915 0.60785 0.42226
 O1112 O 0.97909 0.63323 0.39732
 C1113 C 0.97175 0.62544 0.41482
 C1114 C 0.95413 0.63665 0.42643
 C1115 C 0.94657 0.65676 0.41924
 H1116 H 0.95387 0.66422 0.40521
 O1117 O 0.89276 0.57846 0.47952
 O1118 O 0.86765 0.60363 0.47980
 C1119 C 0.87517 0.58613 0.47229
 C1120 C 0.86369 0.57488 0.45459
 C1121 C 0.84343 0.58214 0.44749
 H1122 H 0.83566 0.59539 0.45577
 O1123 O 1.10731 0.42299 0.47844
 O1124 O 1.13246 0.39785 0.47820
 C1125 C 1.12495 0.41555 0.47111
 C1126 C 1.13640 0.42719 0.45362
 C1127 C 1.15670 0.42013 0.44644
 H1128 H 1.16463 0.40713 0.45496
 O1129 O 0.97931 0.57841 0.39261
 O1130 O 0.97930 0.60366 0.36753
 C1131 C 0.97197 0.58605 0.37505
 C1132 C 0.95434 0.57463 0.36362
 C1133 C 0.94737 0.58164 0.34322
 H1134 H 0.95579 0.59475 0.33531
 O1135 O 1.02058 0.42387 0.39089
 O1136 O 1.02039 0.39899 0.36549
 C1137 C 1.02785 0.41642 0.37323
 C1138 C 1.04557 0.42783 0.36197
 C1139 C 1.05280 0.42080 0.34169
 H1140 H 1.04453 0.40765 0.33372
 O1141 O 1.10736 0.47948 0.42118
 O1142 O 1.13267 0.47962 0.39615
 C1143 C 1.12494 0.47214 0.41364
 C1144 C 1.13622 0.45449 0.42517
 C1145 C 1.15622 0.44676 0.41779
 H1146 H 1.16336 0.45381 0.40348
 O1147 O 0.89210 0.52239 0.42194
 O1148 O 0.86674 0.52279 0.39694
 C1149 C 0.87455 0.52995 0.41451
 C1150 C 0.86343 0.54751 0.42624
 C1151 C 0.84325 0.55512 0.41924
 H1152 H 0.83565 0.54790 0.40525
 O1153 O 0.92263 0.60771 0.47962
 O1154 O 0.89763 0.63299 0.47983
 C1155 C 0.91512 0.62532 0.47236
 C1156 C 0.92655 0.63665 0.45466
 C1157 C 0.91937 0.65684 0.44737
 H1158 H 0.90605 0.66467 0.45552
 O1159 O 1.07762 0.39358 0.47739
 O1160 O 1.10265 0.36834 0.47703
 C1161 C 1.08520 0.37622 0.46966
 C1162 C 1.07384 0.36534 0.45165
 C1163 C 1.08139 0.34560 0.44358
 H1164 H 1.09553 0.33823 0.45073
 O1165 O 1.07785 0.52172 0.39187
 O1166 O 1.10301 0.52196 0.36668
 C1167 C 1.08541 0.52919 0.37434
 C1168 C 1.07395 0.54694 0.36316
 C1169 C 1.08103 0.55437 0.34295
 H1170 H 1.09406 0.54599 0.33490
 O1171 O 0.92099 0.48025 0.39200
 O1172 O 0.89575 0.48050 0.36688
 C1173 C 0.91328 0.47300 0.37443
 C1174 C 0.92476 0.45546 0.36295
 C1175 C 0.91738 0.44789 0.34286
 H1176 H 0.90300 0.45489 0.33582
 O1177 O 1.02126 0.60786 0.42249
 O1178 O 1.02125 0.63328 0.39758
 C1179 C 1.02862 0.62548 0.41508
 C1180 C 1.04635 0.63664 0.42660
 C1181 C 1.05392 0.65673 0.41940
 H1182 H 1.04593 0.66464 0.40601
 O1183 O 0.97840 0.39428 0.42037
 O1184 O 0.97823 0.36928 0.39508
 C1185 C 0.97095 0.37680 0.41270
 C1186 C 0.95334 0.36542 0.42421
 C1187 C 0.94580 0.34536 0.41685
 H1188 H 0.95312 0.33805 0.40277
 O1189 O 1.10755 0.57759 0.47923
 O1190 O 1.13286 0.60259 0.47942
 C1191 C 1.12516 0.58514 0.47193
 C1192 C 1.13643 0.57384 0.45413
 C1193 C 1.15658 0.58116 0.44675
 H1194 H 1.16443 0.59447 0.45488
 O1195 O 0.89223 0.42296 0.47823
 O1196 O 0.86697 0.39790 0.47804
 C1197 C 0.87459 0.41551 0.47086
 C1198 C 0.86311 0.42728 0.45348
 C1199 C 0.84277 0.42032 0.44623
 H1200 H 0.83536 0.40631 0.45358
 Cu1201 Cu 0.99952 0.41168 0.40829
 Cu1202 Cu 0.99931 0.38175 0.37785
 Cu1203 Cu 1.00029 0.59070 0.40997
 Cu1204 Cu 1.00025 0.62112 0.37997
 Cu1205 Cu 0.90919 0.50129 0.40958
 Cu1206 Cu 0.87882 0.50170 0.37950
 Cu1207 Cu 1.09015 0.50060 0.40899
 Cu1208 Cu 1.12046 0.50085 0.37886
 C1209 C 0.94277 0.44562 0.37256
 H1210 H 0.94818 0.45094 0.38831
 C1211 C 0.92810 0.43098 0.33214
 C1212 C 1.05649 0.55727 0.37321
 H1213 H 1.05097 0.55165 0.38883
 C1214 C 1.07150 0.57249 0.33312
 C1215 C 0.87293 0.44503 0.44338
 H1216 H 0.88879 0.45022 0.44861
 C1217 C 0.83222 0.43093 0.42915
 C1218 C 1.12656 0.55633 0.44367
 H1219 H 1.11090 0.55076 0.44912
 C1220 C 1.16668 0.57147 0.42890
 C1221 C 0.94330 0.37505 0.44209
 H1222 H 0.94877 0.39069 0.44761
 C1223 C 0.92846 0.33495 0.42715
 C1224 C 1.05657 0.62669 0.44422
 H1225 H 1.05096 0.61108 0.44971
 C1226 C 1.07175 0.66668 0.42930
 C1227 C 0.94369 0.55726 0.37353
 H1228 H 0.94887 0.55190 0.38936
 C1229 C 0.92967 0.57184 0.33292
 C1230 C 1.05608 0.44518 0.37199
 H1231 H 1.05071 0.45054 0.38773
 C1232 C 1.07065 0.43059 0.33162
 C1233 C 1.05591 0.37512 0.44181
 H1234 H 1.05023 0.39053 0.44771
 C1235 C 1.07125 0.33560 0.42592
 C1236 C 0.94410 0.62681 0.44424
 H1237 H 0.94959 0.61114 0.44964
 C1238 C 0.92920 0.66700 0.42961
 C1239 C 0.87343 0.55741 0.44402
 H1240 H 0.88916 0.55187 0.44928
 C1241 C 0.83308 0.57241 0.42978
 C1242 C 1.12648 0.44461 0.44311
 H1243 H 1.11079 0.45008 0.44853
 C1244 C 1.16671 0.42960 0.42836
 O1245 O 1.02097 0.42135 0.60683
 O1246 O 1.02099 0.39604 0.63185
 C1247 C 1.02839 0.41361 0.62431
 C1248 C 1.04610 0.42500 0.63569
 C1249 C 1.05393 0.41736 0.65557
 H1250 H 1.04691 0.40297 0.66253
 O1251 O 0.97931 0.57699 0.60820
 O1252 O 0.97944 0.60189 0.63357
 C1253 C 0.97202 0.58443 0.62583
 C1254 C 0.95429 0.57298 0.63708
 C1255 C 0.94694 0.58009 0.65728
 H1256 H 0.95512 0.59334 0.66521
 O1257 O 0.89282 0.52064 0.57801
 O1258 O 0.86752 0.52047 0.60305
 C1259 C 0.87520 0.52791 0.58553
 C1260 C 0.86391 0.54560 0.57409
 C1261 C 0.84359 0.55276 0.58111
 H1262 H 0.83563 0.54448 0.59429
 O1263 O 1.10717 0.47814 0.57788
 O1264 O 1.13246 0.47781 0.60296
 C1265 C 1.12468 0.47057 0.58542
 C1266 C 1.13576 0.45280 0.57397
 C1267 C 1.15572 0.44503 0.58137
 H1268 H 1.16358 0.45294 0.59483
 O1269 O 1.07714 0.39251 0.51952
 O1270 O 1.10210 0.36719 0.51917
 C1271 C 1.08453 0.37475 0.52655
 C1272 C 1.07300 0.36322 0.54407
 C1273 C 1.08007 0.34289 0.55111
 H1274 H 1.09297 0.33496 0.54243
 O1275 O 0.92266 0.60754 0.52176
 O1276 O 0.89766 0.63282 0.52199
 C1277 C 0.91520 0.62506 0.52926
 C1278 C 0.92670 0.63617 0.54704
 C1279 C 0.91954 0.65625 0.55458
 H1280 H 0.90620 0.66419 0.54653
 O1281 O 0.92249 0.47860 0.60749
 O1282 O 0.89736 0.47841 0.63270
 C1283 C 0.91494 0.47114 0.62503
 C1284 C 0.92634 0.45334 0.63618
 C1285 C 0.91902 0.44573 0.65625
 H1286 H 0.90592 0.45404 0.66424
 O1287 O 1.07832 0.52050 0.60762
 O1288 O 1.10356 0.52025 0.63275
 C1289 C 1.08605 0.52777 0.62518
 C1290 C 1.07476 0.54544 0.63658
 C1291 C 1.08238 0.55311 0.65653
 H1292 H 1.09652 0.54583 0.66378
 O1293 O 0.97879 0.39220 0.57700
 O1294 O 0.97874 0.36674 0.60185
 C1295 C 0.97135 0.37460 0.58439
 C1296 C 0.95360 0.36351 0.57280
 C1297 C 0.94582 0.34350 0.58003
 H1298 H 0.95307 0.33602 0.59408
 O1299 O 1.02138 0.60661 0.57868
 O1300 O 1.02154 0.63168 0.60390
 C1301 C 1.02882 0.62411 0.58629
 C1302 C 1.04641 0.63546 0.57473
 C1303 C 1.05393 0.65554 0.58201
 H1304 H 1.04661 0.66289 0.59607
 O1305 O 0.89257 0.42260 0.52037
 O1306 O 0.86731 0.39753 0.52019
 C1307 C 0.87501 0.41496 0.52772
 C1308 C 0.86378 0.42618 0.54560
 C1309 C 0.84365 0.41884 0.55300
 H1310 H 0.83579 0.40555 0.54483
 O1311 O 1.10755 0.57760 0.52141
 O1312 O 1.13284 0.60262 0.52164
 C1313 C 1.12511 0.58509 0.52892
 C1314 C 1.13639 0.57344 0.54650
 C1315 C 1.15651 0.58062 0.55414
 H1316 H 1.16365 0.59493 0.54712
 O1317 O 1.02142 0.57706 0.60820
 O1318 O 1.02159 0.60199 0.63355
 C1319 C 1.02889 0.58452 0.62578
 C1320 C 1.04668 0.57308 0.63691
 C1321 C 1.05438 0.58038 0.65693
 H1322 H 1.04645 0.59378 0.66481
 O1323 O 0.97880 0.42134 0.60684
 O1324 O 0.97873 0.39601 0.63183
 C1325 C 0.97135 0.41358 0.62431
 C1326 C 0.95363 0.42493 0.63567
 C1327 C 0.94566 0.41716 0.65544
 H1328 H 0.95262 0.40272 0.66236
 O1329 O 1.10751 0.52015 0.57766
 O1330 O 1.13287 0.51984 0.60266
 C1331 C 1.12524 0.52727 0.58512
 C1332 C 1.13666 0.54485 0.57363
 C1333 C 1.15710 0.55179 0.58055
 H1334 H 1.16513 0.54307 0.59338
 O1335 O 0.89275 0.47860 0.57807
 O1336 O 0.86748 0.47838 0.60315
 C1337 C 0.87518 0.47114 0.58558
 C1338 C 0.86389 0.45355 0.57396
 C1339 C 0.84384 0.44585 0.58126
 H1340 H 0.83644 0.45303 0.59537
 O1341 O 1.07791 0.60699 0.52136
 O1342 O 1.10308 0.63215 0.52154
 C1343 C 1.08548 0.62450 0.52881
 C1344 C 1.07400 0.63571 0.54652
 C1345 C 1.08113 0.65589 0.55387
 H1346 H 1.09441 0.66382 0.54572
 O1347 O 0.92200 0.39296 0.51993
 O1348 O 0.89686 0.36778 0.51972
 C1349 C 0.91444 0.37532 0.52712
 C1350 C 0.92590 0.36382 0.54469
 C1351 C 0.91856 0.34365 0.55194
 H1352 H 0.90518 0.33594 0.54375
 O1353 O 1.07750 0.47848 0.60735
 O1354 O 1.10267 0.47819 0.63254
 C1355 C 1.08501 0.47104 0.62492
 C1356 C 1.07346 0.45337 0.63616
 C1357 C 1.08061 0.44594 0.65635
 H1358 H 1.09365 0.45434 0.66437
 O1359 O 0.92212 0.52062 0.60785
 O1360 O 0.89697 0.52050 0.63305
 C1361 C 0.91452 0.52790 0.62545
 C1362 C 0.92604 0.54546 0.63686
 C1363 C 0.91874 0.55298 0.65697
 H1364 H 0.90465 0.54569 0.66433
 O1365 O 0.97928 0.60685 0.57896
 O1366 O 0.97939 0.63188 0.60420
 C1367 C 0.97197 0.62436 0.58663
 C1368 C 0.95435 0.63579 0.57519
 C1369 C 0.94681 0.65579 0.58266
 H1370 H 0.95415 0.66305 0.59676
 O1371 O 1.02092 0.39218 0.57701
 O1372 O 1.02096 0.36673 0.60189
 C1373 C 1.02832 0.37457 0.58441
 C1374 C 1.04592 0.36337 0.57273
 C1375 C 1.05373 0.34341 0.58003
 H1376 H 1.04683 0.33634 0.59444
 O1377 O 1.10691 0.42182 0.52058
 O1378 O 1.13198 0.39661 0.52035
 C1379 C 1.12434 0.41398 0.52803
 C1380 C 1.13553 0.42499 0.54606
 C1381 C 1.15534 0.41722 0.55392
 H1382 H 1.16255 0.40312 0.54660
 O1383 O 0.89304 0.57805 0.52165
 O1384 O 0.86792 0.60321 0.52193
 C1385 C 0.87551 0.58559 0.52912
 C1386 C 0.86413 0.57392 0.54663
 C1387 C 0.84393 0.58101 0.55405
 H1388 H 0.83653 0.59505 0.54674
 Cu1389 Cu 0.99987 0.40931 0.58944
 Cu1390 Cu 0.99986 0.37883 0.61937
 Cu1391 Cu 1.00033 0.58938 0.59098
 Cu1392 Cu 1.00050 0.61937 0.62136
 Cu1393 Cu 0.90971 0.41054 0.49910
 Cu1394 Cu 0.87946 0.38038 0.49886
 Cu1395 Cu 1.08974 0.41025 0.49902
 Cu1396 Cu 1.11981 0.37996 0.49864
 Cu1397 Cu 0.91028 0.59042 0.50062
 Cu1398 Cu 0.88021 0.62071 0.50091
 Cu1399 Cu 1.09030 0.58986 0.50030
 Cu1400 Cu 1.12060 0.61997 0.50052
 Cu1401 Cu 0.91006 0.49964 0.59034
 Cu1402 Cu 0.87980 0.49942 0.62051
 Cu1403 Cu 1.09010 0.49936 0.59012
 Cu1404 Cu 1.12043 0.49899 0.62025
 C1405 C 1.05596 0.44303 0.62615
 H1406 H 1.05041 0.44865 0.61055
 C1407 C 1.07114 0.42777 0.66617
 C1408 C 0.94391 0.55549 0.62713
 H1409 H 0.94938 0.55005 0.61145
 C1410 C 0.92909 0.57030 0.66734
 C1411 C 0.87391 0.55612 0.55666
 H1412 H 0.88967 0.55081 0.55129
 C1413 C 0.83347 0.57051 0.57125
 C1414 C 1.12593 0.44284 0.55615
 H1415 H 1.11046 0.44866 0.55045
 C1416 C 1.16562 0.42716 0.57156
 C1417 C 1.05566 0.37312 0.55473
 H1418 H 1.05014 0.38881 0.54940
 C1419 C 1.07074 0.33286 0.56926
 C1420 C 0.94428 0.62620 0.55729
 H1421 H 0.94975 0.61060 0.55169
 C1422 C 0.92940 0.66618 0.57245
 C1423 C 0.94387 0.44305 0.62621
 H1424 H 0.94954 0.44879 0.61069
 C1425 C 0.92841 0.42749 0.66599
 C1426 C 1.05682 0.55545 0.62699
 H1427 H 1.05109 0.54989 0.61144
 C1428 C 1.07231 0.57060 0.66683
 C1429 C 0.94360 0.37347 0.55505
 H1430 H 0.94922 0.38911 0.54966
 C1431 C 0.92833 0.33338 0.56968
 C1432 C 1.05647 0.62576 0.55689
 H1433 H 1.05102 0.61009 0.55144
 C1434 C 1.07126 0.66593 0.57166
 C1435 C 0.87365 0.44370 0.55603
 H1436 H 0.88928 0.44930 0.55055
 C1437 C 0.83356 0.42851 0.57087
 C1438 C 1.12663 0.55554 0.55635
 H1439 H 1.11085 0.55028 0.55095
 C1440 C 1.16717 0.56982 0.57108
 O1441 O 0.57773 1.01982 0.60841
 O1442 O 0.60290 1.01960 0.63360
 C1443 C 0.58537 1.02707 0.62600
 C1444 C 0.57387 1.04459 0.63746
 C1445 C 0.58132 1.05219 0.65751
 H1446 H 0.59569 1.04517 0.66453
 O1447 O 0.42137 0.97823 0.60815
 O1448 O 0.39615 0.97795 0.63327
 C1449 C 0.41380 0.97080 0.62570
 C1450 C 0.42538 0.95325 0.63703
 C1451 C 0.41857 0.94620 0.65746
 H1452 H 0.40546 0.95451 0.66548
 O1453 O 0.52064 1.10573 0.57978
 O1454 O 0.52079 1.13075 0.60505
 C1455 C 0.52814 1.12318 0.58747
 C1456 C 0.54590 1.13447 0.57606
 C1457 C 0.55383 1.15425 0.58377
 H1458 H 0.54674 1.16138 0.59805
 O1459 O 0.47780 0.89223 0.57784
 O1460 O 0.47770 0.86676 0.60269
 C1461 C 0.47040 0.87460 0.58518
 C1462 C 0.45289 0.86337 0.57338
 C1463 C 0.44549 0.84308 0.58022
 H1464 H 0.45278 0.83553 0.59421
 O1465 O 0.60699 1.07704 0.52228
 O1466 O 0.63214 1.10221 0.52255
 C1467 C 0.62453 1.08460 0.52977
 C1468 C 0.63590 1.07296 0.54730
 C1469 C 0.65612 1.08004 0.55474
 H1470 H 0.66353 1.09409 0.54744
 O1471 O 0.39213 0.92222 0.52053
 O1472 O 0.36695 0.89707 0.52029
 C1473 C 0.37457 0.91454 0.52783
 C1474 C 0.36324 0.92576 0.54563
 C1475 C 0.34295 0.91857 0.55277
 H1476 H 0.33508 0.90537 0.54448
 O1477 O 0.47819 1.07635 0.60908
 O1478 O 0.47826 1.10130 0.63442
 C1479 C 0.47078 1.08389 0.62664
 C1480 C 0.45285 1.07262 0.63773
 C1481 C 0.44507 1.08009 0.65765
 H1482 H 0.45303 1.09351 0.66550
 O1483 O 0.51992 0.92142 0.60769
 O1484 O 0.51988 0.89613 0.63273
 C1485 C 0.52724 0.91374 0.62524
 C1486 C 0.54487 0.92515 0.63670
 C1487 C 0.55190 0.91810 0.65708
 H1488 H 0.54359 0.90488 0.66493
 O1489 O 0.60687 0.97777 0.57860
 O1490 O 0.63215 0.97739 0.60368
 C1491 C 0.62439 0.97022 0.58610
 C1492 C 0.63554 0.95263 0.57443
 C1493 C 0.65563 0.94491 0.58156
 H1494 H 0.66315 0.95209 0.59561
 O1495 O 0.39174 1.02019 0.57858
 O1496 O 0.36631 1.01988 0.60350
 C1497 C 0.37408 1.02740 0.58606
 C1498 C 0.36289 1.04519 0.57469
 C1499 C 0.34265 1.05248 0.58180
 H1500 H 0.33463 1.04417 0.59492
 O1501 O 0.42221 1.10669 0.52203
 O1502 O 0.39732 1.13208 0.52216
 C1503 C 0.41487 1.12432 0.52940
 C1504 C 0.42647 1.13550 0.54708
 C1505 C 0.41950 1.15576 0.55433
 H1506 H 0.40663 1.16385 0.54573
 O1507 O 0.57668 0.89248 0.52082
 O1508 O 0.60158 0.86710 0.52053
 C1509 C 0.58414 0.87482 0.52805
 C1510 C 0.57271 0.86347 0.54573
 C1511 C 0.58013 0.84344 0.55329
 H1512 H 0.59415 0.83611 0.54586
 O1513 O 0.42098 1.02021 0.60842
 O1514 O 0.39568 1.02000 0.63347
 C1515 C 0.41324 1.02747 0.62596
 C1516 C 0.42460 1.04512 0.63738
 C1517 C 0.41692 1.05293 0.65723
 H1518 H 0.40270 1.04574 0.66445
 O1519 O 0.57727 0.97780 0.60807
 O1520 O 0.60239 0.97748 0.63332
 C1521 C 0.58478 0.97029 0.62561
 C1522 C 0.57308 0.95272 0.63685
 C1523 C 0.58005 0.94527 0.65711
 H1524 H 0.59400 0.95261 0.66467
 O1525 O 0.51988 0.89213 0.57790
 O1526 O 0.51987 0.86670 0.60279
 C1527 C 0.52721 0.87450 0.58528
 C1528 C 0.54485 0.86329 0.57368
 C1529 C 0.55235 0.84317 0.58084
 H1530 H 0.54441 0.83530 0.59428
 O1531 O 0.47848 1.10594 0.57963
 O1532 O 0.47856 1.13100 0.60485
 C1533 C 0.47116 1.12347 0.58726
 C1534 C 0.45361 1.13492 0.57570
 C1535 C 0.44591 1.15486 0.58319
 H1536 H 0.45290 1.16180 0.59762
 O1537 O 0.39222 1.07752 0.52234
 O1538 O 0.36722 1.10280 0.52258
 C1539 C 0.37475 1.08519 0.52984
 C1540 C 0.36334 1.07365 0.54741
 C1541 C 0.34324 1.08094 0.55496
 H1542 H 0.33600 1.09511 0.54776
 O1543 O 0.60637 0.92189 0.52103
 O1544 O 0.63137 0.89660 0.52077
 C1545 C 0.62389 0.91412 0.52829
 C1546 C 0.63533 0.92528 0.54607
 C1547 C 0.65553 0.91793 0.55328
 H1548 H 0.66329 0.90467 0.54501
 O1549 O 0.47784 0.92128 0.60782
 O1550 O 0.47774 0.89597 0.63284
 C1551 C 0.47045 0.91359 0.62534
 C1552 C 0.45295 0.92512 0.63681
 C1553 C 0.44572 0.91808 0.65713
 H1554 H 0.45316 0.90414 0.66457
 O1555 O 0.52029 1.07590 0.60910
 O1556 O 0.52039 1.10078 0.63449
 C1557 C 0.52764 1.08326 0.62677
 C1558 C 0.54530 1.07170 0.63801
 C1559 C 0.55252 1.07860 0.65834
 H1560 H 0.54394 1.09145 0.66644
 O1561 O 0.39199 0.97815 0.57838
 O1562 O 0.36660 0.97778 0.60334
 C1563 C 0.37441 0.97062 0.58578
 C1564 C 0.36321 0.95309 0.57403
 C1565 C 0.34302 0.94554 0.58106
 H1566 H 0.33551 0.95277 0.59508
 O1567 O 0.60707 1.01977 0.57865
 O1568 O 0.63240 1.01948 0.60368
 C1569 C 0.62474 1.02696 0.58618
 C1570 C 0.63608 1.04463 0.57474
 C1571 C 0.65644 1.05174 0.58175
 H1572 H 0.66440 1.04341 0.59489
 O1573 O 0.42160 0.89262 0.52021
 O1574 O 0.39654 0.86735 0.51989
 C1575 C 0.41407 0.87495 0.52736
 C1576 C 0.42552 0.86347 0.54495
 C1577 C 0.41855 0.84305 0.55182
 H1578 H 0.40545 0.83517 0.54334
 O1579 O 0.57722 1.10633 0.52230
 O1580 O 0.60226 1.13160 0.52253
 C1581 C 0.58473 1.12383 0.52983
 C1582 C 0.57337 1.13487 0.54773
 C1583 C 0.58086 1.15477 0.55548
 H1584 H 0.59423 1.16265 0.54744
 Cu1585 Cu 0.58972 0.99883 0.59093
 Cu1586 Cu 0.62000 0.99846 0.62110
 Cu1587 Cu 0.40905 0.99922 0.59088
 Cu1588 Cu 0.37862 0.99884 0.62090
 Cu1589 Cu 0.49940 1.08849 0.59186
 Cu1590 Cu 0.49954 1.11847 0.62224
 Cu1591 Cu 0.49886 0.90931 0.59033
 Cu1592 Cu 0.49880 0.87883 0.62026
 C1593 C 0.55585 1.05445 0.62788
 H1594 H 0.55038 1.04908 0.61216
 C1595 C 0.57071 1.06918 0.66819
 C1596 C 0.44276 0.94279 0.62698
 H1597 H 0.44797 0.94804 0.61113
 C1598 C 0.42856 0.92855 0.66765
 C1599 C 0.55571 1.12498 0.55796
 H1600 H 0.54998 1.10953 0.55219
 C1601 C 0.57131 1.16455 0.57358
 C1602 C 0.44287 0.87336 0.55565
 H1603 H 0.44821 0.88919 0.55054
 C1604 C 0.42835 0.83272 0.56950
 C1605 C 0.62609 1.05517 0.55733
 H1606 H 0.61031 1.04988 0.55196
 C1607 C 0.66659 1.06950 0.57192
 C1608 C 0.37311 0.94319 0.55621
 H1609 H 0.38885 0.94869 0.55092
 C1610 C 0.33272 0.92833 0.57051
 C1611 C 0.44266 1.05498 0.62786
 H1612 H 0.44844 1.04930 0.61237
 C1613 C 0.42704 1.07043 0.66750
 C1614 C 0.55539 0.94264 0.62686
 H1615 H 0.55018 0.94803 0.61106
 C1616 C 0.56953 0.92800 0.66741
 C1617 C 0.62560 0.94279 0.55659
 H1618 H 0.60993 0.94840 0.55124
 C1619 C 0.66580 0.92760 0.57105
 C1620 C 0.37295 1.05570 0.55732
 H1621 H 0.38864 1.05025 0.55186
 C1622 C 0.33270 1.07042 0.57211
 C1623 C 0.44378 1.12540 0.55763
 H1624 H 0.44920 1.10975 0.55214
 C1625 C 0.42888 1.16554 0.57257
 C1626 C 0.55497 0.87318 0.55595
 H1627 H 0.54941 0.88880 0.55048
 C1628 C 0.57006 0.83313 0.57083
 O1629 O 0.57824 0.97973 0.39223
 O1630 O 0.60353 0.97986 0.36717
 C1631 C 0.58591 0.97249 0.37465
 C1632 C 0.57434 0.95503 0.36313
 C1633 C 0.58192 0.94722 0.34322
 H1634 H 0.59645 0.95406 0.33633
 O1635 O 0.42093 1.02196 0.39239
 O1636 O 0.39568 1.02230 0.36729
 C1637 C 0.41333 1.02948 0.37490
 C1638 C 0.42499 1.04706 0.36365
 C1639 C 0.41776 1.05486 0.34361
 H1640 H 0.40359 1.04778 0.33620
 O1641 O 0.47846 1.10677 0.42259
 O1642 O 0.47856 1.13221 0.39770
 C1643 C 0.47106 1.12435 0.41511
 C1644 C 0.45321 1.13543 0.42651
 C1645 C 0.44517 1.15517 0.41882
 H1646 H 0.45232 1.16245 0.40462
 O1647 O 0.52014 0.89453 0.42067
 O1648 O 0.52016 0.86957 0.39535
 C1649 C 0.52750 0.87704 0.41299
 C1650 C 0.54511 0.86559 0.42446
 C1651 C 0.55298 0.84583 0.41667
 H1652 H 0.54592 0.83881 0.40230
 O1653 O 0.60648 0.92224 0.47893
 O1654 O 0.63146 0.89693 0.47869
 C1655 C 0.62400 0.91461 0.47151
 C1656 C 0.63547 0.92608 0.45394
 C1657 C 0.65551 0.91860 0.44645
 H1658 H 0.66315 0.90508 0.45444
 O1659 O 0.39190 1.07739 0.48023
 O1660 O 0.36683 1.10260 0.48048
 C1661 C 0.37427 1.08503 0.47306
 C1662 C 0.36273 1.07374 0.45542
 C1663 C 0.34228 1.08075 0.44860
 H1664 H 0.33433 1.09353 0.45742
 O1665 O 0.52065 1.07757 0.39284
 O1666 O 0.52076 1.10290 0.36785
 C1667 C 0.52803 1.08526 0.37532
 C1668 C 0.54572 1.07394 0.36393
 C1669 C 0.55270 1.08096 0.34353
 H1670 H 0.54392 1.09374 0.33552
 O1671 O 0.47822 0.92446 0.39116
 O1672 O 0.47824 0.89960 0.36574
 C1673 C 0.47090 0.91707 0.37349
 C1674 C 0.45314 0.92849 0.36229
 C1675 C 0.44596 0.92151 0.34198
 H1676 H 0.45471 0.90881 0.33385
 O1677 O 0.60763 1.02130 0.42252
 O1678 O 0.63308 1.02156 0.39763
 C1679 C 0.62528 1.02873 0.41518
 C1680 C 0.63649 1.04623 0.42696
 C1681 C 0.65660 1.05395 0.41986
 H1682 H 0.66410 1.04680 0.40579
 O1683 O 0.39147 0.98000 0.42208
 O1684 O 0.36598 0.98026 0.39722
 C1685 C 0.37376 0.97281 0.41469
 C1686 C 0.36246 0.95520 0.42625
 C1687 C 0.34196 0.94829 0.41951
 H1688 H 0.33389 0.95674 0.40650
 O1689 O 0.57748 1.10656 0.48008
 O1690 O 0.60251 1.13184 0.48029
 C1691 C 0.58505 1.12414 0.47276
 C1692 C 0.57371 1.13540 0.45495
 C1693 C 0.58130 1.15532 0.44725
 H1694 H 0.59536 1.16263 0.45463
 O1695 O 0.42178 0.89334 0.47807
 O1696 O 0.39670 0.86810 0.47775
 C1697 C 0.41425 0.87588 0.47048
 C1698 C 0.42562 0.86493 0.45254
 C1699 C 0.41840 0.84487 0.44495
 H1700 H 0.40545 0.83675 0.45340
 O1701 O 0.42047 0.97998 0.39200
 O1702 O 0.39516 0.98016 0.36694
 C1703 C 0.41275 0.97273 0.37444
 C1704 C 0.42428 0.95526 0.36292
 C1705 C 0.41682 0.94754 0.34292
 H1706 H 0.40234 0.95440 0.33596
 O1707 O 0.57826 1.02173 0.39283
 O1708 O 0.60352 1.02201 0.36776
 C1709 C 0.58594 1.02930 0.37539
 C1710 C 0.57439 1.04695 0.36415
 C1711 C 0.58165 1.05471 0.34410
 H1712 H 0.59601 1.04778 0.33700
 O1713 O 0.47793 0.89455 0.42035
 O1714 O 0.47792 0.86960 0.39503
 C1715 C 0.47048 0.87712 0.41259
 C1716 C 0.45275 0.86573 0.42394
 C1717 C 0.44483 0.84599 0.41613
 H1718 H 0.45173 0.83921 0.40159
 O1719 O 0.52066 1.10679 0.42277
 O1720 O 0.52079 1.13223 0.39789
 C1721 C 0.52810 1.12441 0.41540
 C1722 C 0.54583 1.13556 0.42698
 C1723 C 0.55353 1.15556 0.41966
 H1724 H 0.54569 1.16339 0.40613
 O1725 O 0.39187 0.92252 0.47840
 O1726 O 0.36667 0.89740 0.47815
 C1727 C 0.37426 0.91504 0.47099
 C1728 C 0.36276 0.92682 0.45363
 C1729 C 0.34236 0.91993 0.44646
 H1730 H 0.33491 0.90596 0.45383
 O1731 O 0.60720 1.07722 0.48018
 O1732 O 0.63234 1.10240 0.48045
 C1733 C 0.62481 1.08488 0.47297
 C1734 C 0.63628 1.07361 0.45530
 C1735 C 0.65650 1.08096 0.44811
 H1736 H 0.66425 1.09426 0.45636
 O1737 O 0.52030 0.92424 0.39122
 O1738 O 0.52029 0.89937 0.36581
 C1739 C 0.52767 0.91681 0.37359
 C1740 C 0.54552 0.92817 0.36246
 C1741 C 0.55286 0.92108 0.34224
 H1742 H 0.54420 0.90827 0.33413
 O1743 O 0.47856 1.07771 0.39266
 O1744 O 0.47869 1.10306 0.36768
 C1745 C 0.47126 1.08548 0.37513
 C1746 C 0.45349 1.07429 0.36371
 C1747 C 0.44625 1.08168 0.34353
 H1748 H 0.45459 1.09490 0.33573
 O1749 O 0.39156 1.02197 0.42206
 O1750 O 0.36612 1.02235 0.39715
 C1751 C 0.37397 1.02950 0.41470
 C1752 C 0.36278 1.04694 0.42656
 C1753 C 0.34264 1.05463 0.41953
 H1754 H 0.33541 1.04776 0.40520
 O1755 O 0.60730 0.97928 0.42219
 O1756 O 0.63275 0.97941 0.39729
 C1757 C 0.62486 0.97187 0.41468
 C1758 C 0.63586 0.95397 0.42605
 C1759 C 0.65575 0.94607 0.41860
 H1760 H 0.66321 0.95334 0.40456
 O1761 O 0.57639 0.89323 0.47859
 O1762 O 0.60127 0.86784 0.47832
 C1763 C 0.58382 0.87575 0.47097
 C1764 C 0.57246 0.86490 0.45294
 C1765 C 0.57988 0.84503 0.44509
 H1766 H 0.59318 0.83704 0.45314
 O1767 O 0.42174 1.10668 0.47988
 O1768 O 0.39677 1.13199 0.48000
 C1769 C 0.41420 1.12423 0.47250
 C1770 C 0.42550 1.13540 0.45461
 C1771 C 0.41788 1.15525 0.44684
 H1772 H 0.40435 1.16296 0.45477
 Cu1773 Cu 0.59033 1.00050 0.40993
 Cu1774 Cu 0.62079 1.00074 0.37996
 Cu1775 Cu 0.40865 1.00095 0.40961
 Cu1776 Cu 0.37817 1.00129 0.37964
 Cu1777 Cu 0.58970 1.08928 0.50119
 Cu1778 Cu 0.61980 1.11957 0.50148
 Cu1779 Cu 0.58897 0.90998 0.49988
 Cu1780 Cu 0.61890 0.87955 0.49954
 Cu1781 Cu 0.40952 1.08954 0.50111
 Cu1782 Cu 0.37955 1.11993 0.50133
 Cu1783 Cu 0.40936 0.91019 0.49932
 Cu1784 Cu 0.37920 0.87994 0.49899
 Cu1785 Cu 0.49959 1.08968 0.41022
 Cu1786 Cu 0.49974 1.12018 0.38030
 Cu1787 Cu 0.49915 0.91192 0.40840
 Cu1788 Cu 0.49916 0.88202 0.37795
 C1789 C 0.55613 0.94539 0.37258
 H1790 H 0.55056 0.95091 0.38820
 C1791 C 0.57124 0.93025 0.33253
 C1792 C 0.44294 1.05681 0.37348
 H1793 H 0.44834 1.05116 0.38913
 C1794 C 0.42832 1.07215 0.33336
 C1795 C 0.44333 1.12574 0.44449
 H1796 H 0.44916 1.11033 0.45026
 C1797 C 0.42752 1.16523 0.42888
 C1798 C 0.55490 0.87492 0.44268
 H1799 H 0.54923 0.89036 0.44852
 C1800 C 0.57038 0.83541 0.42687
 C1801 C 0.62592 0.94394 0.44381
 H1802 H 0.61037 0.94966 0.44937
 C1803 C 0.66575 0.92840 0.42872
 C1804 C 0.37266 1.05658 0.44453
 H1805 H 0.38845 1.05113 0.44969
 C1806 C 0.33210 1.07147 0.43051
 C1807 C 0.55642 1.05668 0.37391
 H1808 H 0.55109 1.05119 0.38964
 C1809 C 0.57083 1.07164 0.33348
 C1810 C 0.44245 0.94561 0.37244
 H1811 H 0.44793 0.95104 0.38813
 C1812 C 0.42759 0.93066 0.33220
 C1813 C 0.62655 1.05608 0.44479
 H1814 H 0.61086 1.05048 0.45011
 C1815 C 0.66677 1.07130 0.43034
 C1816 C 0.37260 0.94454 0.44350
 H1817 H 0.38850 0.94967 0.44866
 C1818 C 0.33178 0.93060 0.42943
 C1819 C 0.55587 1.12573 0.44479
 H1820 H 0.55017 1.11019 0.45038
 C1821 C 0.57132 1.16555 0.42961
 C1822 C 0.44304 0.87504 0.44216
 H1823 H 0.44866 0.89053 0.44792
 C1824 C 0.42770 0.83528 0.42657
 O1825 O 0.47900 0.42371 0.89172
 O1826 O 0.47893 0.39877 0.86638
 C1827 C 0.47157 0.41623 0.87413
 C1828 C 0.45378 0.42762 0.86292
 C1829 C 0.44637 0.42039 0.84277
 H1830 H 0.45459 0.40718 0.83487
 O1831 O 0.52190 0.57741 0.89281
 O1832 O 0.52217 0.60271 0.86777
 C1833 C 0.52942 0.58511 0.87535
 C1834 C 0.54721 0.57378 0.86412
 C1835 C 0.55465 0.58109 0.84400
 H1836 H 0.54652 0.59440 0.83613
 O1837 O 0.39219 0.48007 0.92160
 O1838 O 0.36688 0.48033 0.89655
 C1839 C 0.37455 0.47284 0.91405
 C1840 C 0.36328 0.45510 0.92544
 C1841 C 0.34322 0.44750 0.91807
 H1842 H 0.33538 0.45546 0.90462
 O1843 O 0.60860 0.52112 0.92286
 O1844 O 0.63401 0.52136 0.89793
 C1845 C 0.62619 0.52860 0.91544
 C1846 C 0.63731 0.54625 0.92709
 C1847 C 0.65741 0.55395 0.91996
 H1848 H 0.66495 0.54671 0.90596
 O1849 O 0.42201 0.39376 0.97797
 O1850 O 0.39704 0.36841 0.97782
 C1851 C 0.41451 0.37624 0.97045
 C1852 C 0.42603 0.36513 0.95269
 C1853 C 0.41869 0.34515 0.94494
 H1854 H 0.40444 0.33797 0.95206
 O1855 O 0.57819 0.60669 0.98023
 O1856 O 0.60314 0.63206 0.98046
 C1857 C 0.58567 0.62433 0.97298
 C1858 C 0.57425 0.63563 0.95526
 C1859 C 0.58145 0.65584 0.94801
 H1860 H 0.59472 0.66371 0.95623
 O1861 O 0.42205 0.52192 0.89210
 O1862 O 0.39691 0.52228 0.86687
 C1863 C 0.41455 0.52942 0.87455
 C1864 C 0.42630 0.54692 0.86328
 C1865 C 0.41918 0.55460 0.84316
 H1866 H 0.40504 0.54749 0.83573
 O1867 O 0.57938 0.47920 0.89288
 O1868 O 0.60465 0.47929 0.86780
 C1869 C 0.58702 0.47193 0.87530
 C1870 C 0.57539 0.45452 0.86376
 C1871 C 0.58292 0.44674 0.84383
 H1872 H 0.59748 0.45353 0.83696
 O1873 O 0.52131 0.39399 0.92090
 O1874 O 0.52126 0.36903 0.89558
 C1875 C 0.52867 0.37652 0.91318
 C1876 C 0.54631 0.36507 0.92455
 C1877 C 0.55418 0.34535 0.91670
 H1878 H 0.54711 0.33835 0.90232
 O1879 O 0.47963 0.60677 0.92225
 O1880 O 0.47983 0.63216 0.89731
 C1881 C 0.47232 0.62438 0.91476
 C1882 C 0.45460 0.63560 0.92622
 C1883 C 0.44685 0.65553 0.91873
 H1884 H 0.45410 0.66287 0.90461
 O1885 O 0.39313 0.57762 0.97973
 O1886 O 0.36817 0.60294 0.97995
 C1887 C 0.37556 0.58535 0.97252
 C1888 C 0.36403 0.57413 0.95482
 C1889 C 0.34368 0.58130 0.94786
 H1890 H 0.33578 0.59414 0.95663
 O1891 O 0.60762 0.42170 0.97870
 O1892 O 0.63246 0.39626 0.97863
 C1893 C 0.62507 0.41391 0.97129
 C1894 C 0.63659 0.42530 0.95369
 C1895 C 0.65634 0.41747 0.94577
 H1896 H 0.66314 0.40296 0.95269
 O1897 O 0.47977 0.57764 0.89235
 O1898 O 0.48004 0.60291 0.86729
 C1899 C 0.47255 0.58536 0.87477
 C1900 C 0.45482 0.57414 0.86331
 C1901 C 0.44767 0.58142 0.84305
 H1902 H 0.45605 0.59460 0.83521
 O1903 O 0.52117 0.42392 0.89173
 O1904 O 0.52108 0.39905 0.86632
 C1905 C 0.52850 0.41649 0.87410
 C1906 C 0.54639 0.42782 0.86297
 C1907 C 0.55371 0.42075 0.84275
 H1908 H 0.54502 0.40800 0.83459
 O1909 O 0.60873 0.47909 0.92267
 O1910 O 0.63414 0.47923 0.89774
 C1911 C 0.62635 0.47177 0.91520
 C1912 C 0.63740 0.45387 0.92654
 C1913 C 0.65743 0.44620 0.91924
 H1914 H 0.66551 0.45452 0.90617
 O1915 O 0.39265 0.52209 0.92176
 O1916 O 0.36734 0.52249 0.89672
 C1917 C 0.37514 0.52967 0.91428
 C1918 C 0.36402 0.54725 0.92602
 C1919 C 0.34399 0.55510 0.91885
 H1920 H 0.33679 0.54826 0.90449
 O1921 O 0.42303 0.60690 0.97956
 O1922 O 0.39817 0.63231 0.97970
 C1923 C 0.41558 0.62451 0.97222
 C1924 C 0.42696 0.63569 0.95438
 C1925 C 0.41957 0.65570 0.94678
 H1926 H 0.40615 0.66351 0.95479
 O1927 O 0.57758 0.39274 0.97850
 O1928 O 0.60233 0.36722 0.97846
 C1929 C 0.58496 0.37519 0.97102
 C1930 C 0.57364 0.36433 0.95299
 C1931 C 0.58111 0.34451 0.94507
 H1932 H 0.59445 0.33653 0.95307
 O1933 O 0.57932 0.52120 0.89308
 O1934 O 0.60457 0.52140 0.86798
 C1935 C 0.58696 0.52867 0.87557
 C1936 C 0.57545 0.54630 0.86426
 C1937 C 0.58283 0.55401 0.84424
 H1938 H 0.59694 0.54679 0.83688
 O1939 O 0.42167 0.47994 0.89201
 O1940 O 0.39653 0.48017 0.86679
 C1941 C 0.41404 0.47267 0.87443
 C1942 C 0.42549 0.45504 0.86309
 C1943 C 0.41808 0.44736 0.84306
 H1944 H 0.40393 0.45455 0.83573
 O1945 O 0.52177 0.60674 0.92253
 O1946 O 0.52200 0.63215 0.89762
 C1947 C 0.52923 0.62435 0.91517
 C1948 C 0.54678 0.63558 0.92691
 C1949 C 0.55437 0.65569 0.91975
 H1950 H 0.54714 0.66312 0.90567
 O1951 O 0.47922 0.39408 0.92129
 O1952 O 0.47917 0.36904 0.89605
 C1953 C 0.47190 0.37653 0.91371
 C1954 C 0.45432 0.36510 0.92521
 C1955 C 0.44717 0.34481 0.91813
 H1956 H 0.45566 0.33692 0.90507
 O1957 O 0.60798 0.57739 0.98016
 O1958 O 0.63303 0.60265 0.98037
 C1959 C 0.62554 0.58510 0.97291
 C1960 C 0.63702 0.57383 0.95524
 C1961 C 0.65722 0.58117 0.94801
 H1962 H 0.66494 0.59455 0.95616
 O1963 O 0.39239 0.42313 0.97817
 O1964 O 0.36732 0.39788 0.97799
 C1965 C 0.37487 0.41549 0.97072
 C1966 C 0.36350 0.42698 0.95310
 C1967 C 0.34353 0.41949 0.94540
 H1968 H 0.33623 0.40538 0.95266
 Cu1969 Cu 0.50018 0.41143 0.90894
 Cu1970 Cu 0.50008 0.38148 0.87852
 Cu1971 Cu 0.50074 0.58960 0.90998
 Cu1972 Cu 0.50104 0.62003 0.87999
 Cu1973 Cu 0.40965 0.50098 0.90938
 Cu1974 Cu 0.37936 0.50135 0.87921
 Cu1975 Cu 0.59148 0.50012 0.91037
 Cu1976 Cu 0.62191 0.50034 0.88036
 C1977 C 0.44341 0.44511 0.87281
 H1978 H 0.44895 0.45064 0.88845
 C1979 C 0.42843 0.43003 0.83274
 C1980 C 0.55755 0.55621 0.87399
 H1981 H 0.55201 0.55063 0.88962
 C1982 C 0.57252 0.57139 0.83395
 C1983 C 0.37314 0.44488 0.94312
 H1984 H 0.38873 0.45049 0.94873
 C1985 C 0.33323 0.42966 0.92791
 C1986 C 0.62733 0.55620 0.94484
 H1987 H 0.61166 0.55058 0.95019
 C1988 C 0.66753 0.57139 0.93033
 C1989 C 0.44387 0.37494 0.94273
 H1990 H 0.44926 0.39060 0.94825
 C1991 C 0.42923 0.33470 0.92774
 C1992 C 0.55674 0.62575 0.94476
 H1993 H 0.55124 0.61007 0.95013
 C1994 C 0.57168 0.66599 0.93021
 C1995 C 0.44421 0.55671 0.87313
 H1996 H 0.44953 0.55115 0.88884
 C1997 C 0.42980 0.57181 0.83285
 C1998 C 0.55711 0.44495 0.87317
 H1999 H 0.55156 0.45044 0.88881
 C2000 C 0.57216 0.42987 0.83307
 C2001 C 0.55607 0.37436 0.94278
 H2002 H 0.55037 0.38976 0.94868
 C2003 C 0.57159 0.33493 0.92685
 C2004 C 0.44463 0.62590 0.94414
 H2005 H 0.45027 0.61036 0.94977
 C2006 C 0.42933 0.66573 0.92891
 C2007 C 0.37387 0.55686 0.94403
 H2008 H 0.38958 0.55128 0.94930
 C2009 C 0.33352 0.57205 0.92974
 C2010 C 0.62731 0.44353 0.94400
 H2011 H 0.61181 0.44931 0.94965
 C2012 C 0.66702 0.42785 0.92859
 O2013 O 0.52097 0.42238 1.10810
 O2014 O 0.52079 0.39707 1.13311
 C2015 C 0.52825 0.41464 1.12564
 C2016 C 0.54608 0.42581 1.13700
 C2017 C 0.55323 0.41858 1.15726
 H2018 H 0.54455 0.40569 1.16523
 O2019 O 0.47946 0.57550 1.10923
 O2020 O 0.47955 0.60033 1.13468
 C2021 C 0.47217 0.58288 1.12691
 C2022 C 0.45441 0.57145 1.13813
 C2023 C 0.44736 0.57832 1.15852
 H2024 H 0.45619 0.59097 1.16668
 O2025 O 0.39229 0.52042 1.07838
 O2026 O 0.36686 0.52037 1.10329
 C2027 C 0.37473 0.52785 1.08587
 C2028 C 0.36380 0.54584 1.07457
 C2029 C 0.34400 0.55382 1.08213
 H2030 H 0.33607 0.54594 1.09558
 O2031 O 0.60832 0.47777 1.07821
 O2032 O 0.63372 0.47743 1.10318
 C2033 C 0.62588 0.47024 1.08563
 C2034 C 0.63696 0.45262 1.07395
 C2035 C 0.65710 0.44497 1.08101
 H2036 H 0.66473 0.45226 1.09494
 O2037 O 0.57737 0.39254 1.02066
 O2038 O 0.60213 0.36703 1.02062
 C2039 C 0.58467 0.37486 1.02798
 C2040 C 0.57315 0.36369 1.04573
 C2041 C 0.58026 0.34350 1.05307
 H2042 H 0.59315 0.33545 1.04449
 O2043 O 0.42339 0.60664 1.02178
 O2044 O 0.39859 0.63212 1.02190
 C2045 C 0.41604 0.62422 1.02925
 C2046 C 0.42741 0.63512 1.04726
 C2047 C 0.42010 0.65510 1.05496
 H2048 H 0.40719 0.66324 1.04646
 O2049 O 0.42137 0.47817 1.10798
 O2050 O 0.39610 0.47799 1.13306
 C2051 C 0.41370 0.47071 1.12547
 C2052 C 0.42529 0.45317 1.13682
 C2053 C 0.41808 0.44557 1.15694
 H2054 H 0.40379 0.45259 1.16409
 O2055 O 0.57931 0.51977 1.10819
 O2056 O 0.60456 0.51958 1.13330
 C2057 C 0.58700 0.52703 1.12575
 C2058 C 0.57552 0.54458 1.13720
 C2059 C 0.58311 0.55238 1.15712
 H2060 H 0.59759 0.54550 1.16407
 O2061 O 0.47881 0.39340 1.07803
 O2062 O 0.47859 0.36793 1.10287
 C2063 C 0.47132 0.37579 1.08535
 C2064 C 0.45372 0.36462 1.07357
 C2065 C 0.44621 0.34440 1.08055
 H2066 H 0.45347 0.33689 1.09457
 O2067 O 0.52151 0.60541 1.07985
 O2068 O 0.52153 0.63040 1.10515
 C2069 C 0.52889 0.62291 1.08753
 C2070 C 0.54652 0.63436 1.07608
 C2071 C 0.55420 0.65430 1.08362
 H2072 H 0.54698 0.66147 1.09783
 O2073 O 0.39221 0.42280 1.02027
 O2074 O 0.36713 0.39756 1.02009
 C2075 C 0.37463 0.41511 1.02753
 C2076 C 0.36318 0.42637 1.04523
 C2077 C 0.34284 0.41922 1.05226
 H2078 H 0.33491 0.40629 1.04361
 O2079 O 0.60799 0.57719 1.02226
 O2080 O 0.63306 0.60245 1.02247
 C2081 C 0.62554 0.58480 1.02968
 C2082 C 0.63704 0.57315 1.04711
 C2083 C 0.65727 0.58029 1.05447
 H2084 H 0.66461 0.59437 1.04718
 O2085 O 0.52156 0.57548 1.10905
 O2086 O 0.52162 0.60036 1.13446
 C2087 C 0.52896 0.58290 1.12667
 C2088 C 0.54680 0.57151 1.13781
 C2089 C 0.55415 0.57860 1.15802
 H2090 H 0.54555 0.59143 1.16612
 O2091 O 0.47891 0.42240 1.10815
 O2092 O 0.47872 0.39707 1.13315
 C2093 C 0.47151 0.41473 1.12568
 C2094 C 0.45388 0.42612 1.13709
 C2095 C 0.44691 0.41918 1.15752
 H2096 H 0.45562 0.40636 1.16555
 O2097 O 0.60857 0.51977 1.07840
 O2098 O 0.63400 0.51952 1.10334
 C2099 C 0.62624 0.52700 1.08588
 C2100 C 0.63747 0.54474 1.07445
 C2101 C 0.65781 0.55192 1.08140
 H2102 H 0.66586 0.54359 1.09450
 O2103 O 0.39207 0.47837 1.07823
 O2104 O 0.36664 0.47819 1.10314
 C2105 C 0.37446 0.47093 1.08562
 C2106 C 0.36325 0.45339 1.07388
 C2107 C 0.34321 0.44560 1.08108
 H2108 H 0.33601 0.45252 1.09541
 O2109 O 0.57803 0.60631 1.02241
 O2110 O 0.60298 0.63167 1.02264
 C2111 C 0.58548 0.62383 1.02994
 C2112 C 0.57402 0.63485 1.04778
 C2113 C 0.58124 0.65492 1.05535
 H2114 H 0.59449 0.66290 1.04721
 O2115 O 0.42225 0.39367 1.02021
 O2116 O 0.39729 0.36831 1.02004
 C2117 C 0.41480 0.37602 1.02748
 C2118 C 0.42628 0.36467 1.04516
 C2119 C 0.41924 0.34433 1.05218
 H2120 H 0.40609 0.33644 1.04379
 O2121 O 0.57900 0.47776 1.10793
 O2122 O 0.60423 0.47742 1.13306
 C2123 C 0.58659 0.47023 1.12543
 C2124 C 0.57490 0.45269 1.13672
 C2125 C 0.58224 0.44482 1.15670
 H2126 H 0.59666 0.45167 1.16380
 O2127 O 0.42139 0.52012 1.10833
 O2128 O 0.39612 0.52007 1.13341
 C2129 C 0.41377 0.52738 1.12592
 C2130 C 0.42546 0.54473 1.13747
 C2131 C 0.41814 0.55234 1.15756
 H2132 H 0.40367 0.54547 1.16453
 O2133 O 0.47932 0.60527 1.07986
 O2134 O 0.47930 0.63019 1.10520
 C2135 C 0.47190 0.62271 1.08759
 C2136 C 0.45427 0.63416 1.07614
 C2137 C 0.44622 0.65380 1.08405
 H2138 H 0.45296 0.66047 1.09872
 O2139 O 0.52102 0.39307 1.07840
 O2140 O 0.52085 0.36765 1.10329
 C2141 C 0.52835 0.37546 1.08587
 C2142 C 0.54603 0.36419 1.07435
 C2143 C 0.55390 0.34434 1.08195
 H2144 H 0.54701 0.33743 1.09644
 O2145 O 0.60754 0.42156 1.02083
 O2146 O 0.63241 0.39616 1.02077
 C2147 C 0.62503 0.41376 1.02816
 C2148 C 0.63655 0.42503 1.04582
 C2149 C 0.65677 0.41770 1.05300
 H2150 H 0.66447 0.40432 1.04485
 O2151 O 0.39330 0.57765 1.02187
 O2152 O 0.36843 0.60305 1.02206
 C2153 C 0.37588 0.58543 1.02936
 C2154 C 0.36446 0.57410 1.04707
 C2155 C 0.34476 0.58200 1.05502
 H2156 H 0.33774 0.59633 1.04792
 Cu2157 Cu 0.49993 0.41034 1.09067
 Cu2158 Cu 0.49969 0.37986 1.12059
 Cu2159 Cu 0.50045 0.58794 1.09195
 Cu2160 Cu 0.50051 0.61783 1.12241
 Cu2161 Cu 0.40972 0.41086 0.99919
 Cu2162 Cu 0.37971 0.38048 0.99900
 Cu2163 Cu 0.59004 0.40969 0.99970
 Cu2164 Cu 0.61981 0.37909 0.99965
 Cu2165 Cu 0.41071 0.58967 1.00070
 Cu2166 Cu 0.38087 0.62017 1.00090
 Cu2167 Cu 0.59054 0.58937 1.00125
 Cu2168 Cu 0.62054 0.61977 1.00151
 Cu2169 Cu 0.40930 0.49928 1.09073
 Cu2170 Cu 0.37884 0.49914 1.12071
 Cu2171 Cu 0.59127 0.49880 1.09069
 Cu2172 Cu 0.62168 0.49846 1.12074
 C2173 C 0.55679 0.44310 1.12705
 H2174 H 0.55138 0.44871 1.11139
 C2175 C 0.57144 0.42783 1.16725
 C2176 C 0.44361 0.55440 1.12793
 H2177 H 0.44897 0.54906 1.11217
 C2178 C 0.42903 0.56912 1.16833
 C2179 C 0.37377 0.55593 1.05687
 H2180 H 0.38917 0.55000 1.05110
 C2181 C 0.33438 0.57197 1.07253
 C2182 C 0.62691 0.44264 1.05625
 H2183 H 0.61121 0.44822 1.05095
 C2184 C 0.66717 0.42755 1.07061
 C2185 C 0.55578 0.37373 1.05624
 H2186 H 0.55023 0.38932 1.05066
 C2187 C 0.57098 0.33372 1.07137
 C2188 C 0.44474 0.62497 1.05773
 H2189 H 0.45043 0.60953 1.05190
 C2190 C 0.42916 0.66452 1.07354
 C2191 C 0.44320 0.44335 1.12706
 H2192 H 0.44849 0.44875 1.11129
 C2193 C 0.42886 0.42863 1.16758
 C2194 C 0.55736 0.55426 1.12771
 H2195 H 0.55177 0.54875 1.11208
 C2196 C 0.57250 0.56939 1.16776
 C2197 C 0.44371 0.37456 1.05579
 H2198 H 0.44912 0.39033 1.05057
 C2199 C 0.42900 0.33407 1.06993
 C2200 C 0.55648 0.62484 1.05808
 H2201 H 0.55095 0.60927 1.05243
 C2202 C 0.57155 0.66475 1.07335
 C2203 C 0.37306 0.44369 1.05593
 H2204 H 0.38878 0.44925 1.05062
 C2205 C 0.33272 0.42858 1.07032
 C2206 C 0.62735 0.55529 1.05712
 H2207 H 0.61157 0.54995 1.05180
 C2208 C 0.66785 0.56974 1.07158
 C2209 C 1.10539 1.10426 1.24714
 C2210 C 1.11582 1.09051 1.26179
 C2211 C 1.12414 1.09903 1.28108
 C2212 C 1.12158 1.12113 1.28615
 C2213 C 1.11072 1.13452 1.27116
 C2214 C 1.10291 1.12626 1.25161
 C2215 C 1.09694 1.09547 1.22668
 C2216 C 1.08711 1.10939 1.21178
 C2217 C 1.07938 1.10106 1.19223
 C2218 C 1.08081 1.07882 1.18770
 C2219 C 1.09058 1.06506 1.20303
 C2220 C 1.09890 1.07336 1.22241
 C2221 C 1.09283 1.13966 1.23634
 C2222 C 1.08520 1.13139 1.21670
 C2223 C 1.11761 1.06846 1.25689
 C2224 C 1.10917 1.06001 1.23761
 H2225 H 1.09091 1.15671 1.23956
 H2226 H 1.07761 1.14230 1.20533
 H2227 H 1.12553 1.05763 1.26810
 H2228 H 1.11082 1.04291 1.23452
 H2229 H 1.13189 1.08821 1.29237
 H2230 H 1.10903 1.15160 1.27411
 H2231 H 1.07248 1.11201 1.18049
 H2232 H 1.09156 1.04790 1.20003
 C2233 C 1.10549 0.60419 0.74707
 C2234 C 1.11296 0.58992 0.76302
 C2235 C 1.12103 0.59827 0.78248
 C2236 C 1.12146 0.62069 0.78607
 C2237 C 1.11386 0.63471 0.76987
 C2238 C 1.10593 0.62657 0.75032
 C2239 C 1.09705 0.59554 0.72655
 C2240 C 1.08976 0.60984 0.71057
 C2241 C 1.08181 0.60157 0.69108
 C2242 C 1.08090 0.57915 0.68755
 C2243 C 1.08829 0.56503 0.70381
 C2244 C 1.09645 0.57316 0.72332
 C2245 C 1.09849 0.64036 0.73393
 C2246 C 1.09059 0.63214 0.71437
 C2247 C 1.11213 0.56762 0.75919
 C2248 C 1.10398 0.55938 0.73970
 H2249 H 1.09880 0.65766 0.73624
 H2250 H 1.08502 0.64333 0.70214
 H2251 H 1.11781 0.55643 0.77137
 H2252 H 1.10360 0.54208 0.73741
 H2253 H 1.12669 0.58739 0.79494
 H2254 H 1.11446 0.65198 0.77234
 H2255 H 1.07658 0.61261 0.67857
 H2256 H 1.08746 0.54776 0.70138
 C2257 C 0.60291 1.10239 0.74919
 C2258 C 0.61352 1.08857 0.76364
 C2259 C 0.62176 1.09693 0.78304
 C2260 C 0.61890 1.11891 0.78842
 C2261 C 0.60778 1.13235 0.77366
 C2262 C 0.60011 1.12428 0.75399
 C2263 C 0.59466 1.09382 0.72856
 C2264 C 0.58474 1.10785 0.71382
 C2265 C 0.57727 1.09976 0.69408
 C2266 C 0.57900 1.07761 0.68919
 C2267 C 0.58882 1.06373 0.70438
 C2268 C 0.59693 1.07181 0.72394
 C2269 C 0.58990 1.13779 0.73890
 C2270 C 0.58249 1.12974 0.71908
 C2271 C 0.61562 1.06663 0.75840
 C2272 C 0.60732 1.05836 0.73897
 H2273 H 0.58774 1.15475 0.74238
 H2274 H 0.57483 1.14073 0.70785
 H2275 H 0.62368 1.05573 0.76944
 H2276 H 0.60922 1.04134 0.73561
 H2277 H 0.62973 1.08609 0.79417
 H2278 H 0.60587 1.14937 0.77685
 H2279 H 0.57036 1.11083 0.68246
 H2280 H 0.59002 1.04663 0.70112
 C2281 C 0.60441 0.60331 1.24858
 C2282 C 0.61511 0.58964 1.26310
 C2283 C 0.62315 0.59812 1.28251
 C2284 C 0.62000 0.62008 1.28786
 C2285 C 0.60879 0.63337 1.27304
 C2286 C 0.60132 0.62517 1.25334
 C2287 C 0.59633 0.59458 1.22795
 C2288 C 0.58629 0.60845 1.21314
 C2289 C 0.57893 0.60019 1.19343
 C2290 C 0.58086 0.57804 1.18865
 C2291 C 0.59084 0.56433 1.20388
 C2292 C 0.59885 0.57258 1.22341
 C2293 C 0.59101 0.63852 1.23817
 C2294 C 0.58377 0.63033 1.21834
 C2295 C 0.61749 0.56771 1.25793
 C2296 C 0.60935 0.55929 1.23851
 H2297 H 0.58863 0.65546 1.24160
 H2298 H 0.57601 0.64120 1.20705
 H2299 H 0.62563 0.55693 1.26904
 H2300 H 0.61145 0.54228 1.23521
 H2301 H 0.63117 0.58738 1.29370
 H2302 H 0.60663 0.65036 1.27625
 H2303 H 0.57190 0.61115 1.18177
 H2304 H 0.59221 0.54722 1.20071
 C2305 C 0.89600 0.89638 1.24837
 C2306 C 0.87414 0.89923 1.25349
 C2307 C 0.86631 0.89158 1.27329
 C2308 C 0.87996 0.88040 1.28781
 C2309 C 0.90189 0.87749 1.28210
 C2310 C 0.91002 0.88574 1.26261
 C2311 C 0.90433 0.90463 1.22764
 C2312 C 0.92632 0.90234 1.22274
 C2313 C 0.93420 0.91045 1.20310
 C2314 C 0.92012 0.92020 1.18804
 C2315 C 0.89799 0.92197 1.19321
 C2316 C 0.89011 0.91455 1.21307
 C2317 C 0.93193 0.88363 1.25709
 C2318 C 0.93998 0.89194 1.23758
 C2319 C 0.86043 0.90946 1.23859
 C2320 C 0.86825 0.91683 1.21865
 H2321 H 0.94298 0.87555 1.26798
 H2322 H 0.95699 0.89004 1.23400
 H2323 H 0.84349 0.91166 1.24231
 H2324 H 0.85711 0.92450 1.20756
 H2325 H 0.84932 0.89356 1.27679
 H2326 H 0.91290 0.86950 1.29306
 H2327 H 0.95130 0.90926 1.19967
 H2328 H 0.88676 0.92886 1.18172
 C2329 C 0.89473 0.39359 0.74612
 C2330 C 0.87269 0.39586 0.75077
 C2331 C 0.86460 0.38781 0.77033
 C2332 C 0.87823 0.37693 0.78510
 C2333 C 0.90034 0.37458 0.77980
 C2334 C 0.90867 0.38313 0.76055
 C2335 C 0.90336 0.40233 0.72571
 C2336 C 0.92552 0.40059 0.72131
 C2337 C 0.93368 0.40914 0.70199
 C2338 C 0.91978 0.41889 0.68678
 C2339 C 0.89750 0.42018 0.69145
 C2340 C 0.88929 0.41222 0.71098
 C2341 C 0.93075 0.38157 0.75553
 C2342 C 0.93905 0.39028 0.73631
 C2343 C 0.85912 0.40601 0.73569
 C2344 C 0.86725 0.41391 0.71607
 H2345 H 0.94173 0.37363 0.76659
 H2346 H 0.95618 0.38880 0.73311
 H2347 H 0.84204 0.40778 0.73904
 H2348 H 0.85621 0.42154 0.70484
 H2349 H 0.84751 0.38940 0.77353
 H2350 H 0.91136 0.36687 0.79093
 H2351 H 0.95088 0.40832 0.69892
 H2352 H 0.88644 0.42712 0.67982
 C2353 C 0.39745 0.89801 0.74998
 C2354 C 0.37519 0.89829 0.75421
 C2355 C 0.36764 0.89072 0.77414
 C2356 C 0.38213 0.88263 0.78969
 C2357 C 0.40441 0.88239 0.78516
 C2358 C 0.41219 0.89020 0.76535
 C2359 C 0.40546 0.90590 0.72899
 C2360 C 0.42773 0.90575 0.72477
 C2361 C 0.43525 0.91331 0.70477
 C2362 C 0.42063 0.92074 0.68895
 C2363 C 0.39832 0.92058 0.69349
 C2364 C 0.39068 0.91332 0.71350
 C2365 C 0.43436 0.89030 0.76054
 C2366 C 0.44200 0.89802 0.74063
 C2367 C 0.36090 0.90596 0.73835
 C2368 C 0.36851 0.91328 0.71831
 H2369 H 0.44590 0.88437 0.77227
 H2370 H 0.45923 0.89782 0.73758
 H2371 H 0.34368 0.90621 0.74142
 H2372 H 0.35695 0.91899 0.70649
 H2373 H 0.35045 0.89061 0.77737
 H2374 H 0.41563 0.87631 0.79713
 H2375 H 0.45245 0.91359 0.70161
 H2376 H 0.38686 0.92582 0.68136
 C2377 C 0.39718 0.39615 1.24912
 C2378 C 0.38652 0.41010 1.26338
 C2379 C 0.37817 0.40189 1.28280
 C2380 C 0.38095 0.37995 1.28840
 C2381 C 0.39219 0.36640 1.27387
 C2382 C 0.39997 0.37431 1.25416
 C2383 C 0.40545 0.40454 1.22842
 C2384 C 0.41537 0.39039 1.21383
 C2385 C 0.42275 0.39830 1.19396
 C2386 C 0.42090 0.42038 1.18879
 C2387 C 0.41119 0.43440 1.20389
 C2388 C 0.40315 0.42650 1.22355
 C2389 C 0.41022 0.36068 1.23925
 C2390 C 0.41765 0.36855 1.21935
 C2391 C 0.38444 0.43199 1.25792
 C2392 C 0.39276 0.44008 1.23842
 H2393 H 0.41238 0.34374 1.24291
 H2394 H 0.42532 0.35746 1.20824
 H2395 H 0.37634 0.44298 1.26882
 H2396 H 0.39084 0.45707 1.23487
 H2397 H 0.37013 0.41283 1.29377
 H2398 H 0.39408 0.34940 1.27725
 H2399 H 0.42963 0.38712 1.18245
 H2400 H 0.40994 0.45147 1.20045
 C2401 C 0.89729 1.10458 0.75146
 C2402 C 0.90034 1.12635 0.74616
 C2403 C 0.89260 1.13413 0.72636
 C2404 C 0.88111 1.12052 0.71206
 C2405 C 0.87809 1.09868 0.71793
 C2406 C 0.88641 1.09060 0.73739
 C2407 C 0.90554 1.09630 0.77222
 C2408 C 0.90300 1.07441 0.77727
 C2409 C 0.91101 1.06658 0.79696
 C2410 C 0.92090 1.08062 0.81195
 C2411 C 0.92301 1.10265 0.80659
 C2412 C 0.91568 1.11048 0.78665
 C2413 C 0.88409 1.06878 0.74305
 C2414 C 0.89240 1.06079 0.76257
 C2415 C 0.91083 1.14000 0.76092
 C2416 C 0.91821 1.13224 0.78090
 H2417 H 0.87583 1.05778 0.73227
 H2418 H 0.89031 1.04385 0.76628
 H2419 H 0.91320 1.15687 0.75708
 H2420 H 0.92605 1.14335 0.79188
 H2421 H 0.89473 1.15104 0.72268
 H2422 H 0.86992 1.08768 0.70712
 H2423 H 0.90960 1.04955 0.80051
 H2424 H 0.93006 1.11385 0.81799
 C2425 C 0.89943 0.60333 0.25062
 C2426 C 0.89170 0.58868 0.23518
 C2427 C 0.88393 0.59650 0.21539
 C2428 C 0.88408 0.61877 0.21095
 C2429 C 0.89212 0.63320 0.22654
 C2430 C 0.89968 0.62558 0.24647
 C2431 C 0.90729 0.59524 0.27160
 C2432 C 0.91466 0.60993 0.28717
 C2433 C 0.92187 0.60219 0.30718
 C2434 C 0.92200 0.57990 0.31162
 C2435 C 0.91464 0.56539 0.29571
 C2436 C 0.90715 0.57299 0.27572
 C2437 C 0.90730 0.63977 0.26242
 C2438 C 0.91461 0.63208 0.28245
 C2439 C 0.89183 0.56652 0.23988
 C2440 C 0.89949 0.55881 0.25978
 H2441 H 0.90753 0.65697 0.25942
 H2442 H 0.92028 0.64357 0.29433
 H2443 H 0.88596 0.55505 0.22808
 H2444 H 0.89931 0.54160 0.26276
 H2445 H 0.87796 0.58532 0.20337
 H2446 H 0.89200 0.65036 0.22334
 H2447 H 0.92709 0.61356 0.31938
 H2448 H 0.91491 0.54820 0.29879
 C2449 C 0.39682 1.10526 0.25217
 C2450 C 0.38862 1.09093 0.23668
 C2451 C 0.38058 1.09912 0.21716
 C2452 C 0.38093 1.12144 0.21301
 C2453 C 0.38944 1.13556 0.22864
 C2454 C 0.39726 1.12757 0.24833
 C2455 C 0.40498 1.09677 0.27287
 C2456 C 0.41283 1.11114 0.28851
 C2457 C 0.42034 1.10301 0.30825
 C2458 C 0.42032 1.08064 0.31235
 C2459 C 0.41250 1.06647 0.29636
 C2460 C 0.40469 1.07446 0.27665
 C2461 C 0.40535 1.14143 0.26433
 C2462 C 0.41294 1.13336 0.28411
 C2463 C 0.38859 1.06870 0.24104
 C2464 C 0.39656 1.06060 0.26066
 H2465 H 0.40574 1.15867 0.26159
 H2466 H 0.41897 1.14461 0.29605
 H2467 H 0.38236 1.05747 0.22919
 H2468 H 0.39625 1.04336 0.26338
 H2469 H 0.37427 1.08817 0.20509
 H2470 H 0.38951 1.15276 0.22563
 H2471 H 0.42591 1.11414 0.32053
 H2472 H 0.41266 1.04923 0.29915
 C2473 C 0.39786 0.60423 0.75155
 C2474 C 0.39816 0.62651 0.74756
 C2475 C 0.39014 0.63433 0.72788
 C2476 C 0.38159 0.62007 0.71241
 C2477 C 0.38135 0.59778 0.71671
 C2478 C 0.38959 0.58975 0.73622
 C2479 C 0.40624 0.59592 0.77223
 C2480 C 0.40608 0.57364 0.77617
 C2481 C 0.41404 0.56582 0.79587
 C2482 C 0.42186 0.58013 0.81174
 C2483 C 0.42181 0.60247 0.80747
 C2484 C 0.41415 0.61042 0.78771
 C2485 C 0.38971 0.56756 0.74073
 C2486 C 0.39788 0.55963 0.76034
 C2487 C 0.40633 0.64052 0.76340
 C2488 C 0.41412 0.63261 0.78317
 H2489 H 0.38343 0.55622 0.72901
 H2490 H 0.39767 0.54240 0.76317
 H2491 H 0.40661 0.65774 0.76053
 H2492 H 0.42019 0.64397 0.79498
 H2493 H 0.39012 0.65151 0.72475
 H2494 H 0.37500 0.58672 0.70476
 H2495 H 0.41427 0.54860 0.79879
 H2496 H 0.42740 0.61370 0.81964
 C2497 C 1.10155 0.89834 0.75067
 C2498 C 1.10135 0.87604 0.74688
 C2499 C 1.10891 0.86816 0.72708
 C2500 C 1.11685 0.88238 0.71121
 C2501 C 1.11700 0.90470 0.71532
 C2502 C 1.10926 0.91279 0.73500
 C2503 C 1.09362 0.90670 0.77149
 C2504 C 1.09368 0.92900 0.77527
 C2505 C 1.08605 0.93685 0.79509
 C2506 C 1.07857 0.92254 0.81115
 C2507 C 1.07882 0.90019 0.80706
 C2508 C 1.08620 0.89220 0.78725
 C2509 C 1.10908 0.93501 0.73937
 C2510 C 1.10137 0.94298 0.75914
 C2511 C 1.09374 0.86205 0.76302
 C2512 C 1.08635 0.86999 0.78289
 H2513 H 1.11495 0.94633 0.72741
 H2514 H 1.10150 0.96022 0.76184
 H2515 H 1.09355 0.84480 0.76029
 H2516 H 1.08065 0.85865 0.79492
 H2517 H 1.10905 0.85095 0.72418
 H2518 H 1.12293 0.91572 0.70310
 H2519 H 1.08571 0.95408 0.79793
 H2520 H 1.07353 0.88898 0.81940
 C2521 C 1.10194 0.39817 0.25019
 C2522 C 1.10194 0.37586 0.24647
 C2523 C 1.10958 0.36799 0.22671
 C2524 C 1.11736 0.38221 0.21077
 C2525 C 1.11733 0.40455 0.21479
 C2526 C 1.10953 0.41264 0.23446
 C2527 C 1.09393 0.40652 0.27098
 C2528 C 1.09380 0.42883 0.27469
 C2529 C 1.08609 0.43668 0.29450
 C2530 C 1.07871 0.42234 0.31057
 C2531 C 1.07915 0.39999 0.30655
 C2532 C 1.08662 0.39201 0.28677
 C2533 C 1.10916 0.43486 0.23877
 C2534 C 1.10138 0.44283 0.25852
 C2535 C 1.09445 0.36185 0.26265
 C2536 C 1.08696 0.36979 0.28249
 H2537 H 1.11492 0.44621 0.22677
 H2538 H 1.10136 0.46008 0.26117
 H2539 H 1.09443 0.34460 0.25998
 H2540 H 1.08136 0.35843 0.29455
 H2541 H 1.10989 0.35077 0.22391
 H2542 H 1.12316 0.41557 0.20253
 H2543 H 1.08562 0.45390 0.29730
 H2544 H 1.07393 0.38876 0.31891
 C2545 C 0.60343 0.89655 0.25176
 C2546 C 0.60023 0.87473 0.24683
 C2547 C 0.60788 0.86660 0.22716
 C2548 C 0.61940 0.87991 0.21260
 C2549 C 0.62261 0.90182 0.21811
 C2550 C 0.61439 0.91024 0.23745
 C2551 C 0.59520 0.90522 0.27235
 C2552 C 0.59785 0.92718 0.27703
 C2553 C 0.58974 0.93538 0.29652
 C2554 C 0.57958 0.92165 0.31162
 C2555 C 0.57749 0.89953 0.30669
 C2556 C 0.58492 0.89133 0.28698
 C2557 C 0.61686 0.93213 0.24275
 C2558 C 0.60858 0.94049 0.26212
 C2559 C 0.58966 0.86137 0.26181
 C2560 C 0.58229 0.86949 0.28162
 H2561 H 0.62520 0.94292 0.23180
 H2562 H 0.61076 0.95747 0.26553
 H2563 H 0.58718 0.84446 0.25826
 H2564 H 0.57434 0.85861 0.29277
 H2565 H 0.60562 0.84965 0.22378
 H2566 H 0.63082 0.91260 0.20710
 H2567 H 0.59121 0.95246 0.29979
 H2568 H 0.57030 0.88855 0.31823
 C2569 C 0.60452 0.39614 0.75239
 C2570 C 0.60139 0.37429 0.74754
 C2571 C 0.60909 0.36613 0.72792
 C2572 C 0.62055 0.37942 0.71329
 C2573 C 0.62371 0.40136 0.71873
 C2574 C 0.61546 0.40981 0.73806
 C2575 C 0.59623 0.40482 0.77295
 C2576 C 0.59882 0.42680 0.77760
 C2577 C 0.59067 0.43501 0.79707
 C2578 C 0.58050 0.42128 0.81217
 C2579 C 0.57845 0.39916 0.80726
 C2580 C 0.58595 0.39094 0.78759
 C2581 C 0.61787 0.43172 0.74332
 C2582 C 0.60955 0.44010 0.76267
 C2583 C 0.59083 0.36094 0.76253
 C2584 C 0.58339 0.36909 0.78229
 H2585 H 0.62620 0.44250 0.73235
 H2586 H 0.61170 0.45709 0.76605
 H2587 H 0.58842 0.34401 0.75902
 H2588 H 0.57545 0.35821 0.79345
 H2589 H 0.60690 0.34915 0.72464
 H2590 H 0.63191 0.41212 0.70769
 H2591 H 0.59212 0.45209 0.80033
 H2592 H 0.57124 0.38819 0.81881
 C2593 C 1.24859 1.10298 1.10365
 C2594 C 1.25392 1.10005 1.12546
 C2595 C 1.27360 1.10807 1.13324
 C2596 C 1.28777 1.11968 1.11958
 C2597 C 1.28184 1.12265 1.09770
 C2598 C 1.26250 1.11406 1.08963
 C2599 C 1.22798 1.09439 1.09536
 C2600 C 1.22290 1.09679 1.07342
 C2601 C 1.20336 1.08845 1.06559
 C2602 C 1.18853 1.07835 1.07968
 C2603 C 1.19391 1.07637 1.10175
 C2604 C 1.21371 1.08404 1.10958
 C2605 C 1.25681 1.11625 1.06776
 C2606 C 1.23743 1.10761 1.05976
 C2607 C 1.23933 1.08937 1.13916
 C2608 C 1.21949 1.08165 1.13140
 H2609 H 1.26745 1.12466 1.05671
 H2610 H 1.23370 1.10961 1.04278
 H2611 H 1.24320 1.08709 1.15607
 H2612 H 1.20863 1.07366 1.14254
 H2613 H 1.27729 1.10600 1.15019
 H2614 H 1.29255 1.13094 1.08667
 H2615 H 1.19980 1.08977 1.04852
 H2616 H 1.18262 1.06917 1.11299
 C2617 C 1.24890 0.60152 0.60307
 C2618 C 1.25422 0.59857 0.62488
 C2619 C 1.27402 0.60636 0.63262
 C2620 C 1.28829 0.61780 0.61892
 C2621 C 1.28239 0.62073 0.59702
 C2622 C 1.26294 0.61236 0.58899
 C2623 C 1.22816 0.59320 0.59483
 C2624 C 1.22308 0.59563 0.57289
 C2625 C 1.20340 0.58756 0.56511
 C2626 C 1.18845 0.57772 0.57925
 C2627 C 1.19383 0.57572 0.60132
 C2628 C 1.21376 0.58311 0.60910
 C2629 C 1.25726 0.61457 0.56713
 C2630 C 1.23775 0.60619 0.55917
 C2631 C 1.23950 0.58813 0.63863
 C2632 C 1.21953 0.58069 0.63091
 H2633 H 1.26800 0.62280 0.55605
 H2634 H 1.23402 0.60820 0.54220
 H2635 H 1.24336 0.58584 0.65554
 H2636 H 1.20858 0.57289 0.64209
 H2637 H 1.27771 0.60431 0.64957
 H2638 H 1.29318 0.62886 0.58595
 H2639 H 1.19984 0.58888 0.54804
 H2640 H 1.18245 0.56872 0.61260
 C2641 C 0.74830 1.10121 0.60351
 C2642 C 0.75245 1.10096 0.62580
 C2643 C 0.77220 1.10894 0.63345
 C2644 C 0.78760 1.11740 0.61902
 C2645 C 0.78314 1.11759 0.59672
 C2646 C 0.76354 1.10938 0.58885
 C2647 C 0.72751 1.09290 0.59539
 C2648 C 0.72338 1.09303 0.57310
 C2649 C 0.70356 1.08514 0.56548
 C2650 C 0.68780 1.07741 0.57999
 C2651 C 0.69227 1.07752 0.60233
 C2652 C 0.71212 1.08511 0.61009
 C2653 C 0.75884 1.10923 0.56666
 C2654 C 0.73913 1.10112 0.55891
 C2655 C 0.73670 1.09291 0.64000
 C2656 C 0.71685 1.08518 0.63229
 H2657 H 0.77048 1.11544 0.55517
 H2658 H 0.73614 1.10131 0.54167
 H2659 H 0.73971 1.09267 0.65724
 H2660 H 0.70510 1.07921 0.64379
 H2661 H 0.77540 1.10904 0.65065
 H2662 H 0.79502 1.12392 0.58554
 H2663 H 0.70049 1.08488 0.54825
 H2664 H 0.68018 1.07203 0.61372
 C2665 C 0.74973 0.60130 1.10280
 C2666 C 0.76499 0.60926 1.08805
 C2667 C 0.78470 0.61730 1.09580
 C2668 C 0.78924 0.61718 1.11809
 C2669 C 0.77379 0.60897 1.13262
 C2670 C 0.75395 0.60113 1.12507
 C2671 C 0.72887 0.59308 1.09478
 C2672 C 0.71348 0.58544 1.10956
 C2673 C 0.69358 0.57788 1.10189
 C2674 C 0.68906 0.57768 1.07956
 C2675 C 0.70480 0.58529 1.06497
 C2676 C 0.72467 0.59312 1.07250
 C2677 C 0.73819 0.59326 1.13936
 C2678 C 0.71827 0.58561 1.13174
 C2679 C 0.76022 0.60903 1.06586
 C2680 C 0.74043 0.60104 1.05821
 H2681 H 0.74125 0.59308 1.15659
 H2682 H 0.70653 0.57975 1.14331
 H2683 H 0.77188 0.61508 1.05431
 H2684 H 0.73739 0.60116 1.04098
 H2685 H 0.79661 0.62341 1.08454
 H2686 H 0.77707 0.60911 1.14980
 H2687 H 0.68151 0.57246 1.11333
 H2688 H 0.70166 0.58496 1.04775
 C2689 C 1.24778 0.89548 0.89663
 C2690 C 1.25255 0.87355 0.89929
 C2691 C 1.27229 0.86552 0.89168
 C2692 C 1.28707 0.87909 0.88075
 C2693 C 1.28170 0.90110 0.87808
 C2694 C 1.26229 0.90939 0.88625
 C2695 C 1.22713 0.90403 0.90482
 C2696 C 1.22260 0.92608 0.90270
 C2697 C 1.20304 0.93417 0.91073
 C2698 C 1.18771 0.92026 0.92028
 C2699 C 1.19251 0.89808 0.92191
 C2700 C 1.21229 0.88996 0.91453
 C2701 C 1.25715 0.93137 0.88431
 C2702 C 1.23772 0.93960 0.89254
 C2703 C 1.23736 0.86000 0.90931
 C2704 C 1.21751 0.86803 0.91665
 H2705 H 1.26827 0.94232 0.87643
 H2706 H 1.23442 0.95665 0.89077
 H2707 H 1.24080 0.84300 0.91137
 H2708 H 1.20620 0.85700 0.92415
 H2709 H 1.27558 0.84851 0.89352
 H2710 H 1.29288 0.91208 0.87036
 H2711 H 1.19989 0.95130 0.90966
 H2712 H 1.18081 0.88699 0.92868
 C2713 C 1.24745 0.39605 0.39596
 C2714 C 1.25205 0.37407 0.39847
 C2715 C 1.27166 0.36594 0.39070
 C2716 C 1.28655 0.37943 0.37982
 C2717 C 1.28135 0.40150 0.37727
 C2718 C 1.26202 0.40990 0.38557
 C2719 C 1.22690 0.40469 0.40432
 C2720 C 1.22249 0.42678 0.40232
 C2721 C 1.20300 0.43493 0.41050
 C2722 C 1.18767 0.42106 0.42011
 C2723 C 1.19236 0.39885 0.42162
 C2724 C 1.21203 0.39067 0.41406
 C2725 C 1.25700 0.43192 0.38376
 C2726 C 1.23764 0.44024 0.39213
 C2727 C 1.23683 0.36057 0.40850
 C2728 C 1.21710 0.36869 0.41602
 H2729 H 1.26815 0.44283 0.37587
 H2730 H 1.23445 0.45732 0.39045
 H2731 H 1.24015 0.34354 0.41044
 H2732 H 1.20576 0.35770 0.42354
 H2733 H 1.27473 0.34887 0.39241
 H2734 H 1.29258 0.41239 0.36951
 H2735 H 1.19990 0.45208 0.40948
 H2736 H 1.18064 0.38780 0.42840
 C2737 C 0.74590 0.89483 0.39546
 C2738 C 0.74934 0.87246 0.39527
 C2739 C 0.76884 0.86438 0.38716
 C2740 C 0.78469 0.87847 0.37901
 C2741 C 0.78092 0.90085 0.37918
 C2742 C 0.76159 0.90913 0.38753
 C2743 C 0.72547 0.90343 0.40409
 C2744 C 0.72213 0.92580 0.40449
 C2745 C 0.70269 0.93390 0.41277
 C2746 C 0.68653 0.91978 0.42036
 C2747 C 0.69018 0.89736 0.41970
 C2748 C 0.70966 0.88912 0.41172
 C2749 C 0.75765 0.93141 0.38816
 C2750 C 0.73828 0.93961 0.39656
 C2751 C 0.73316 0.85865 0.40313
 C2752 C 0.71363 0.86683 0.41114
 H2753 H 0.76965 0.94261 0.38214
 H2754 H 0.73590 0.95690 0.39678
 H2755 H 0.73560 0.84136 0.40303
 H2756 H 0.70154 0.85562 0.41699
 H2757 H 0.77158 0.84714 0.38683
 H2758 H 0.79318 0.91176 0.37316
 H2759 H 0.70023 0.95117 0.41345
 H2760 H 0.67776 0.88630 0.42509
 C2761 C 0.74684 0.39346 0.89487
 C2762 C 0.76124 0.38294 0.90881
 C2763 C 0.78045 0.37434 0.90046
 C2764 C 0.78573 0.37671 0.87834
 C2765 C 0.77095 0.38759 0.86472
 C2766 C 0.75146 0.39570 0.87283
 C2767 C 0.72650 0.40232 0.90353
 C2768 C 0.71184 0.41231 0.88945
 C2769 C 0.69240 0.42042 0.89768
 C2770 C 0.68774 0.41914 0.91996
 C2771 C 0.70287 0.40927 0.93386
 C2772 C 0.72212 0.40059 0.92569
 C2773 C 0.73643 0.40593 0.85925
 C2774 C 0.71689 0.41396 0.86740
 C2775 C 0.75622 0.38139 0.93090
 C2776 C 0.73707 0.39019 0.93921
 H2777 H 0.73976 0.40768 0.84217
 H2778 H 0.70572 0.42166 0.85636
 H2779 H 0.76724 0.37339 0.94188
 H2780 H 0.73387 0.38871 0.95635
 H2781 H 0.79156 0.36659 0.91147
 H2782 H 0.77409 0.38916 0.84761
 H2783 H 0.68082 0.42745 0.88663
 H2784 H 0.69980 0.40844 0.95106
 C2785 C 0.75170 0.89682 1.10337
 C2786 C 0.73628 0.88876 1.08883
 C2787 C 0.71669 0.88067 1.09684
 C2788 C 0.71240 0.88092 1.11917
 C2789 C 0.72799 0.88923 1.13348
 C2790 C 0.74773 0.89707 1.12569
 C2791 C 0.77244 0.90509 1.09508
 C2792 C 0.78797 0.91279 1.10967
 C2793 C 0.80774 0.92043 1.10175
 C2794 C 0.81197 0.92073 1.07937
 C2795 C 0.79608 0.91303 1.06497
 C2796 C 0.77635 0.90507 1.07276
 C2797 C 0.76364 0.90499 1.13977
 C2798 C 0.78346 0.91265 1.13190
 C2799 C 0.74079 0.88896 1.06659
 C2800 C 0.76045 0.89705 1.05869
 H2801 H 0.76078 0.90521 1.15703
 H2802 H 0.79532 0.91857 1.14331
 H2803 H 0.72902 0.88283 1.05519
 H2804 H 0.76327 0.89693 1.04142
 H2805 H 0.70467 0.87443 1.08577
 H2806 H 0.72490 0.88916 1.15070
 H2807 H 0.81993 0.92587 1.11305
 H2808 H 0.79897 0.91342 1.04772
 C2809 C 0.75284 0.39537 0.60343
 C2810 C 0.73707 0.40973 0.61102
 C2811 C 0.71761 0.40151 0.61922
 C2812 C 0.71383 0.37913 0.61968
 C2813 C 0.72982 0.36499 0.61188
 C2814 C 0.74938 0.37301 0.60382
 C2815 C 0.77342 0.40389 0.59498
 C2816 C 0.78926 0.38949 0.58764
 C2817 C 0.80886 0.39764 0.57980
 C2818 C 0.81265 0.42004 0.57909
 C2819 C 0.79649 0.43424 0.58646
 C2820 C 0.77687 0.42624 0.59450
 C2821 C 0.76560 0.35912 0.59628
 C2822 C 0.78523 0.36722 0.58836
 C2823 C 0.74111 0.43201 0.61026
 C2824 C 0.76065 0.44012 0.60210
 H2825 H 0.76313 0.34184 0.59654
 H2826 H 0.79733 0.35595 0.58274
 H2827 H 0.72907 0.44327 0.61603
 H2828 H 0.76311 0.45741 0.60181
 H2829 H 0.70532 0.41248 0.62500
 H2830 H 0.72719 0.34775 0.61249
 H2831 H 0.82128 0.38653 0.57456
 H2832 H 0.79910 0.45150 0.58577
 C2833 C 0.25130 0.89641 0.60245
 C2834 C 0.23572 0.91102 0.60996
 C2835 C 0.21609 0.90311 0.61805
 C2836 C 0.21196 0.88080 0.61845
 C2837 C 0.22776 0.86640 0.61077
 C2838 C 0.24749 0.87411 0.60284
 C2839 C 0.27203 0.90460 0.59408
 C2840 C 0.28769 0.88997 0.58682
 C2841 C 0.30746 0.89781 0.57910
 C2842 C 0.31158 0.92015 0.57842
 C2843 C 0.29558 0.93460 0.58564
 C2844 C 0.27581 0.92690 0.59358
 C2845 C 0.26353 0.85997 0.59537
 C2846 C 0.28332 0.86776 0.58754
 C2847 C 0.24009 0.93323 0.60919
 C2848 C 0.25978 0.94104 0.60109
 H2849 H 0.26079 0.84272 0.59563
 H2850 H 0.29528 0.85630 0.58199
 H2851 H 0.22819 0.94468 0.61489
 H2852 H 0.26250 0.95829 0.60079
 H2853 H 0.20392 0.91427 0.62373
 H2854 H 0.22483 0.84920 0.61133
 H2855 H 0.31975 0.88652 0.57395
 H2856 H 0.29844 0.95182 0.58495
 C2857 C 0.25159 0.39577 1.10264
 C2858 C 0.24671 0.37385 1.10019
 C2859 C 0.22705 0.36591 1.10808
 C2860 C 0.21239 0.37956 1.11904
 C2861 C 0.21788 0.40157 1.12154
 C2862 C 0.23725 0.40976 1.11311
 C2863 C 0.27219 0.40421 1.09415
 C2864 C 0.27685 0.42625 1.09612
 C2865 C 0.29640 0.43421 1.08790
 C2866 C 0.31158 0.42020 1.07832
 C2867 C 0.30660 0.39806 1.07674
 C2868 C 0.28685 0.39006 1.08434
 C2869 C 0.24253 0.43173 1.11486
 C2870 C 0.26192 0.43986 1.10637
 C2871 C 0.26171 0.36020 1.09006
 C2872 C 0.28150 0.36814 1.08242
 H2873 H 0.23155 0.44275 1.12281
 H2874 H 0.26533 0.45690 1.10803
 H2875 H 0.25817 0.34321 1.08815
 H2876 H 0.29267 0.35704 1.07485
 H2877 H 0.22372 0.34889 1.10640
 H2878 H 0.20684 0.41259 1.12934
 H2879 H 0.29969 0.45132 1.08891
 H2880 H 0.31818 0.38692 1.06991
 C2881 C 0.75119 1.10428 0.89790
 C2882 C 0.73682 1.09025 0.88745
 C2883 C 0.71751 1.09845 0.87887
 C2884 C 0.71213 1.12050 0.88117
 C2885 C 0.72680 1.13416 0.89214
 C2886 C 0.74638 1.12622 0.90020
 C2887 C 0.77175 1.09585 0.90648
 C2888 C 0.78644 1.11005 0.91624
 C2889 C 0.80618 1.10209 0.92389
 C2890 C 0.81113 1.07994 0.92239
 C2891 C 0.79592 1.06589 0.91288
 C2892 C 0.77637 1.07381 0.90463
 C2893 C 0.76139 1.13990 0.91029
 C2894 C 0.78115 1.13199 0.91803
 C2895 C 0.74204 1.06827 0.88585
 C2896 C 0.76141 1.06016 0.89442
 H2897 H 0.75792 1.15692 0.91208
 H2898 H 0.79233 1.14311 0.92556
 H2899 H 0.73105 1.05722 0.87792
 H2900 H 0.76478 1.04311 0.89286
 H2901 H 0.70646 1.08742 0.87107
 H2902 H 0.72359 1.15121 0.89367
 H2903 H 0.81778 1.11327 0.93065
 H2904 H 0.79920 1.04877 0.91193
 C2905 C 0.75180 0.60496 0.39814
 C2906 C 0.73604 0.59047 0.39071
 C2907 C 0.71650 0.59855 0.38259
 C2908 C 0.71263 0.62091 0.38204
 C2909 C 0.72859 0.63517 0.38971
 C2910 C 0.74824 0.62729 0.39769
 C2911 C 0.77249 0.59659 0.40643
 C2912 C 0.78835 0.61111 0.41358
 C2913 C 0.80808 0.60310 0.42121
 C2914 C 0.81199 0.58073 0.42190
 C2915 C 0.79580 0.56641 0.41477
 C2916 C 0.77606 0.57426 0.40694
 C2917 C 0.76446 0.64130 0.40506
 C2918 C 0.78420 0.63335 0.41283
 C2919 C 0.74018 0.56822 0.39151
 C2920 C 0.75983 0.56026 0.39953
 H2921 H 0.76191 0.65857 0.40476
 H2922 H 0.79631 0.64471 0.41830
 H2923 H 0.72814 0.55687 0.38587
 H2924 H 0.76238 0.54299 0.39984
 H2925 H 0.70421 0.58748 0.37690
 H2926 H 0.72589 0.65240 0.38904
 H2927 H 0.82051 0.61431 0.42627
 H2928 H 0.79851 0.54917 0.41546
 C2929 C 0.25091 1.10434 0.39847
 C2930 C 0.23668 1.09047 0.38763
 C2931 C 0.21744 1.09878 0.37902
 C2932 C 0.21199 1.12077 0.38166
 C2933 C 0.22646 1.13424 0.39312
 C2934 C 0.24600 1.12621 0.40118
 C2935 C 0.27146 1.09584 0.40698
 C2936 C 0.28606 1.10991 0.41705
 C2937 C 0.30583 1.10190 0.42457
 C2938 C 0.31090 1.07981 0.42266
 C2939 C 0.29576 1.06586 0.41285
 C2940 C 0.27620 1.07386 0.40470
 C2941 C 0.26089 1.13975 0.41163
 C2942 C 0.28065 1.13177 0.41928
 C2943 C 0.24200 1.06855 0.38562
 C2944 C 0.26134 1.06035 0.39415
 H2945 H 0.25733 1.15671 0.41374
 H2946 H 0.29176 1.14280 0.42707
 H2947 H 0.23111 1.05762 0.37740
 H2948 H 0.26480 1.04335 0.39225
 H2949 H 0.20650 1.08790 0.37084
 H2950 H 0.22318 1.15125 0.39495
 H2951 H 0.31737 1.11301 0.43155
 H2952 H 0.29911 1.04879 0.41158
 C2953 C 0.25239 0.60516 0.89770
 C2954 C 0.23817 0.59133 0.88682
 C2955 C 0.21891 0.59965 0.87828
 C2956 C 0.21340 0.62161 0.88108
 C2957 C 0.22786 0.63505 0.89258
 C2958 C 0.24745 0.62701 0.90054
 C2959 C 0.27296 0.59663 0.90615
 C2960 C 0.28755 0.61065 0.91629
 C2961 C 0.30732 0.60259 0.92378
 C2962 C 0.31237 0.58049 0.92181
 C2963 C 0.29723 0.56661 0.91194
 C2964 C 0.27769 0.57465 0.90378
 C2965 C 0.26235 0.64051 0.91104
 C2966 C 0.28214 0.63250 0.91862
 C2967 C 0.24349 0.56942 0.88470
 C2968 C 0.26284 0.56119 0.89318
 H2969 H 0.25878 0.65745 0.91325
 H2970 H 0.29325 0.64350 0.92646
 H2971 H 0.23260 0.55852 0.87643
 H2972 H 0.26629 0.54419 0.89122
 H2973 H 0.20797 0.58878 0.87010
 H2974 H 0.22450 0.65204 0.89453
 H2975 H 0.31886 0.61367 0.93082
 H2976 H 0.30054 0.54953 0.91063
 C2977 C 1.10444 1.24566 1.10521
 C2978 C 1.09001 1.26138 1.11275
 C2979 C 1.09819 1.28086 1.12079
 C2980 C 1.12060 1.28474 1.12113
 C2981 C 1.13482 1.26880 1.11343
 C2982 C 1.12683 1.24919 1.10554
 C2983 C 1.09594 1.22512 1.09679
 C2984 C 1.11039 1.20934 1.08942
 C2985 C 1.10225 1.18980 1.08152
 C2986 C 1.07980 1.18603 1.08076
 C2987 C 1.06555 1.20211 1.08818
 C2988 C 1.07354 1.22165 1.09628
 C2989 C 1.14078 1.23302 1.09800
 C2990 C 1.13270 1.21340 1.09013
 C2991 C 1.06770 1.25732 1.11202
 C2992 C 1.05960 1.23780 1.10388
 H2993 H 1.15809 1.23553 1.09822
 H2994 H 1.14401 1.20135 1.08449
 H2995 H 1.05640 1.26933 1.11776
 H2996 H 1.04229 1.23533 1.10358
 H2997 H 1.08715 1.29315 1.12645
 H2998 H 1.15209 1.27156 1.11389
 H2999 H 1.11339 1.17743 1.07625
 H3000 H 1.04826 1.19951 1.08743
 C3001 C 1.10328 0.74704 0.60393
 C3002 C 1.08865 0.76254 0.61156
 C3003 C 1.09657 0.78215 0.61957
 C3004 C 1.11892 0.78636 0.61974
 C3005 C 1.13334 0.77064 0.61195
 C3006 C 1.12561 0.75091 0.60412
 C3007 C 1.09506 0.72635 0.59559
 C3008 C 1.10971 0.71077 0.58819
 C3009 C 1.10184 0.69107 0.58044
 C3010 C 1.07946 0.68693 0.57981
 C3011 C 1.06499 0.70284 0.58721
 C3012 C 1.07272 0.72253 0.59521
 C3013 C 1.13977 0.73495 0.59654
 C3014 C 1.13196 0.71519 0.58876
 C3015 C 1.06640 0.75812 0.61095
 C3016 C 1.05857 0.73848 0.60286
 H3017 H 1.15704 0.73773 0.59665
 H3018 H 1.14342 0.70329 0.58310
 H3019 H 1.05494 0.76996 0.61675
 H3020 H 1.04129 0.73573 0.60266
 H3021 H 1.08540 0.79426 0.62533
 H3022 H 1.15056 0.77367 0.61232
 H3023 H 1.11316 0.67885 0.57518
 H3024 H 1.04774 0.69998 0.58657
 C3025 C 0.60542 1.24435 0.60708
 C3026 C 0.59122 1.25994 0.61529
 C3027 C 0.59964 1.27926 0.62349
 C3028 C 0.62206 1.28313 0.62326
 C3029 C 0.63605 1.26734 0.61486
 C3030 C 0.62783 1.24786 0.60687
 C3031 C 0.59667 1.22396 0.59853
 C3032 C 0.61090 1.20828 0.59055
 C3033 C 0.60252 1.18888 0.58254
 C3034 C 0.58005 1.18517 0.58220
 C3035 C 0.56603 1.20116 0.59023
 C3036 C 0.57426 1.22054 0.59851
 C3037 C 0.64154 1.23180 0.59871
 C3038 C 0.63323 1.21231 0.59075
 C3039 C 0.56889 1.25592 0.61506
 C3040 C 0.56055 1.23657 0.60675
 H3041 H 0.65886 1.23429 0.59850
 H3042 H 0.64437 1.20033 0.58463
 H3043 H 0.55776 1.26784 0.62131
 H3044 H 0.54323 1.23413 0.60683
 H3045 H 0.58879 1.29145 0.62969
 H3046 H 0.65332 1.27012 0.61488
 H3047 H 0.61353 1.17658 0.57683
 H3048 H 0.54872 1.19865 0.58982
 C3049 C 0.60451 0.74558 1.10555
 C3050 C 0.62685 0.74948 1.10510
 C3051 C 0.63479 0.76919 1.11280
 C3052 C 0.62061 0.78481 1.12118
 C3053 C 0.59826 0.78058 1.12161
 C3054 C 0.59011 0.76103 1.11369
 C3055 C 0.59605 0.72492 1.09736
 C3056 C 0.57371 0.72110 1.09758
 C3057 C 0.56575 0.70147 1.08964
 C3058 C 0.57999 0.68560 1.08173
 C3059 C 0.60239 0.68971 1.08186
 C3060 C 0.61049 0.70938 1.08950
 C3061 C 0.56785 0.75661 1.11370
 C3062 C 0.55979 0.73701 1.10572
 C3063 C 0.64078 0.73355 1.09705
 C3064 C 0.63274 0.71380 1.08945
 H3065 H 0.55656 0.76841 1.11989
 H3066 H 0.54251 0.73427 1.10598
 H3067 H 0.65804 0.73634 1.09667
 H3068 H 0.64404 0.70193 1.08342
 H3069 H 0.65201 0.77226 1.11268
 H3070 H 0.58726 0.79263 1.12783
 H3071 H 0.54848 0.69866 1.08938
 H3072 H 0.61358 0.67753 1.07625
 C3073 C 0.89881 1.24845 0.89784
 C3074 C 0.89111 1.26398 0.91242
 C3075 C 0.88324 1.28364 0.90442
 C3076 C 0.88330 1.28787 0.88207
 C3077 C 0.89127 1.27216 0.86774
 C3078 C 0.89892 1.25239 0.87551
 C3079 C 0.90676 1.22761 0.90608
 C3080 C 0.91409 1.21199 0.89145
 C3081 C 0.92141 1.19212 0.89931
 C3082 C 0.92172 1.18785 0.92168
 C3083 C 0.91438 1.20381 0.93614
 C3084 C 0.90677 1.22367 0.92841
 C3085 C 0.90647 1.23639 0.86139
 C3086 C 0.91387 1.21650 0.86922
 C3087 C 0.89138 1.25945 0.93466
 C3088 C 0.89914 1.23967 0.94252
 H3089 H 0.90659 1.23923 0.84412
 H3090 H 0.91950 1.20456 0.85777
 H3091 H 0.88553 1.27130 0.94608
 H3092 H 0.89906 1.23685 0.95979
 H3093 H 0.87724 1.29572 0.91551
 H3094 H 0.89100 1.27513 0.85050
 H3095 H 0.92658 1.17988 0.88798
 H3096 H 0.91477 1.20085 0.95338
 C3097 C 0.89659 0.74783 0.39723
 C3098 C 0.91109 0.76355 0.38974
 C3099 C 0.90299 0.78306 0.38162
 C3100 C 0.88059 0.78693 0.38117
 C3101 C 0.86631 0.77097 0.38882
 C3102 C 0.87421 0.75137 0.39679
 C3103 C 0.90497 0.72723 0.40563
 C3104 C 0.89044 0.71143 0.41287
 C3105 C 0.89846 0.69181 0.42067
 C3106 C 0.92088 0.68796 0.42146
 C3107 C 0.93523 0.70406 0.41421
 C3108 C 0.92735 0.72370 0.40619
 C3109 C 0.86017 0.73520 0.40422
 C3110 C 0.86815 0.71554 0.41208
 C3111 C 0.93339 0.75944 0.39056
 C3112 C 0.94138 0.73986 0.39869
 H3113 H 0.84287 0.73773 0.40392
 H3114 H 0.85677 0.70347 0.41762
 H3115 H 0.94475 0.77144 0.38487
 H3116 H 0.95868 0.73734 0.39904
 H3117 H 0.91406 0.79534 0.37593
 H3118 H 0.84905 0.77368 0.38821
 H3119 H 0.88724 0.67943 0.42582
 H3120 H 0.95250 0.70139 0.41497
 C3121 C 0.39337 1.24465 0.39460
 C3122 C 0.40762 1.26036 0.38664
 C3123 C 0.39922 1.27955 0.37813
 C3124 C 0.37677 1.28316 0.37776
 C3125 C 0.36273 1.26726 0.38592
 C3126 C 0.37094 1.24791 0.39425
 C3127 C 0.40212 1.22439 0.40347
 C3128 C 0.38787 1.20858 0.41120
 C3129 C 0.39625 1.18928 0.41946
 C3130 C 0.41874 1.18581 0.42024
 C3131 C 0.43278 1.20196 0.41251
 C3132 C 0.42455 1.22123 0.40401
 C3133 C 0.35719 1.23172 0.40219
 C3134 C 0.36551 1.21236 0.41047
 C3135 C 0.42998 1.25660 0.38743
 C3136 C 0.43830 1.23739 0.39602
 H3137 H 0.33986 1.23402 0.40197
 H3138 H 0.35435 1.20028 0.41639
 H3139 H 0.44113 1.26863 0.38138
 H3140 H 0.45564 1.23514 0.39634
 H3141 H 0.41012 1.29183 0.37215
 H3142 H 0.34544 1.26986 0.38547
 H3143 H 0.38525 1.17686 0.42498
 H3144 H 0.45010 1.19962 0.41328
 C3145 C 0.39606 0.74603 0.89581
 C3146 C 0.41047 0.76185 0.88835
 C3147 C 0.40225 0.78130 0.88024
 C3148 C 0.37982 0.78504 0.87974
 C3149 C 0.36563 0.76898 0.88734
 C3150 C 0.37366 0.74941 0.89531
 C3151 C 0.40460 0.72552 0.90431
 C3152 C 0.39018 0.70965 0.91160
 C3153 C 0.39836 0.69015 0.91957
 C3154 C 0.42081 0.68650 0.92048
 C3155 C 0.43504 0.70267 0.91313
 C3156 C 0.42701 0.72218 0.90496
 C3157 C 0.35974 0.73314 0.90276
 C3158 C 0.36786 0.71357 0.91072
 C3159 C 0.43279 0.75791 0.88924
 C3160 C 0.44092 0.73843 0.89744
 H3161 H 0.34242 0.73555 0.90242
 H3162 H 0.35656 0.70144 0.91629
 H3163 H 0.44408 0.77000 0.88357
 H3164 H 0.45825 0.73606 0.89786
 H3165 H 0.41327 0.79367 0.87466
 H3166 H 0.34835 0.77161 0.88674
 H3167 H 0.38723 0.67771 0.92480
 H3168 H 0.45233 0.70017 0.91398
 C3169 C 1.10513 0.75556 0.89329
 C3170 C 1.10555 0.75210 0.87089
 C3171 C 1.11410 0.73277 0.86289
 C3172 C 1.12243 0.71712 0.87710
 C3173 C 1.12201 0.72093 0.89951
 C3174 C 1.11325 0.74008 0.90771
 C3175 C 1.09606 0.77580 0.90182
 C3176 C 1.09547 0.77918 0.92422
 C3177 C 1.08687 0.79847 0.93224
 C3178 C 1.07916 0.81448 0.91803
 C3179 C 1.07991 0.81076 0.89557
 C3180 C 1.08824 0.79142 0.88740
 C3181 C 1.11239 0.74404 0.93003
 C3182 C 1.10359 0.76323 0.93815
 C3183 C 1.09747 0.76806 0.85697
 C3184 C 1.08903 0.78742 0.86508
 H3185 H 1.11855 0.73220 0.94132
 H3186 H 1.10323 0.76565 0.95547
 H3187 H 1.09773 0.76560 0.83965
 H3188 H 1.08304 0.79934 0.85378
 H3189 H 1.11459 0.73002 0.84562
 H3190 H 1.12816 0.70883 0.91052
 H3191 H 1.08610 0.80096 0.94954
 H3192 H 1.07439 0.82306 0.88443
 C3193 C 1.10571 0.25615 0.39225
 C3194 C 1.10631 0.25286 0.36983
 C3195 C 1.11485 0.23356 0.36175
 C3196 C 1.12296 0.21775 0.37592
 C3197 C 1.12233 0.22139 0.39835
 C3198 C 1.11362 0.24052 0.40662
 C3199 C 1.09666 0.27636 0.40086
 C3200 C 1.09591 0.27957 0.42328
 C3201 C 1.08732 0.29882 0.43139
 C3202 C 1.07973 0.31494 0.41724
 C3203 C 1.08064 0.31141 0.39476
 C3204 C 1.08900 0.29211 0.38650
 C3205 C 1.11259 0.24431 0.42896
 C3206 C 1.10383 0.26348 0.43715
 C3207 C 1.09841 0.26896 0.35596
 C3208 C 1.08996 0.28828 0.36415
 H3209 H 1.11860 0.23235 0.44021
 H3210 H 1.10334 0.26577 0.45449
 H3211 H 1.09882 0.26664 0.33863
 H3212 H 1.08410 0.30031 0.35290
 H3213 H 1.11549 0.23094 0.34447
 H3214 H 1.12827 0.20917 0.40935
 H3215 H 1.08642 0.30121 0.44870
 H3216 H 1.07520 0.32380 0.38369
 C3217 C 0.60438 0.75564 0.39338
 C3218 C 0.62677 0.75209 0.39373
 C3219 C 0.63496 0.73257 0.38586
 C3220 C 0.62096 0.71677 0.37746
 C3221 C 0.59856 0.72068 0.37707
 C3222 C 0.59016 0.74005 0.38514
 C3223 C 0.59566 0.77606 0.40186
 C3224 C 0.57326 0.77951 0.40178
 C3225 C 0.56504 0.79888 0.41003
 C3226 C 0.57908 0.81484 0.41816
 C3227 C 0.60154 0.81112 0.41788
 C3228 C 0.60990 0.79172 0.40990
 C3229 C 0.56785 0.74411 0.38525
 C3230 C 0.55953 0.76348 0.39348
 C3231 C 0.64050 0.76815 0.40192
 C3232 C 0.63221 0.78766 0.40981
 H3233 H 0.55671 0.73220 0.37897
 H3234 H 0.54222 0.76594 0.39332
 H3235 H 0.65781 0.76563 0.40223
 H3236 H 0.64336 0.79963 0.41597
 H3237 H 0.65222 0.72975 0.38596
 H3238 H 0.58769 0.70849 0.37086
 H3239 H 0.54773 0.80142 0.41038
 H3240 H 0.61256 0.82340 0.42367
 C3241 C 0.60549 0.25539 0.89282
 C3242 C 0.59122 0.23976 0.88475
 C3243 C 0.59958 0.22044 0.87655
 C3244 C 0.62200 0.21662 0.87661
 C3245 C 0.63606 0.23247 0.88481
 C3246 C 0.62789 0.25194 0.89285
 C3247 C 0.59680 0.27574 0.90147
 C3248 C 0.61108 0.29143 0.90939
 C3249 C 0.60275 0.31077 0.91754
 C3250 C 0.58028 0.31440 0.91807
 C3251 C 0.56620 0.29842 0.91008
 C3252 C 0.57438 0.27910 0.90168
 C3253 C 0.64167 0.26802 0.90092
 C3254 C 0.63341 0.28747 0.90899
 C3255 C 0.56889 0.24373 0.88516
 C3256 C 0.56061 0.26304 0.89353
 H3257 H 0.65899 0.26557 0.90098
 H3258 H 0.64459 0.29946 0.91505
 H3259 H 0.55772 0.23177 0.87901
 H3260 H 0.54329 0.26544 0.89360
 H3261 H 0.58866 0.20821 0.87051
 H3262 H 0.65332 0.22972 0.88468
 H3263 H 0.61377 0.32307 0.92325
 H3264 H 0.54889 0.30091 0.91062
 C3265 C 0.89772 0.75132 1.10053
 C3266 C 0.87542 0.74723 1.10051
 C3267 C 0.86782 0.72739 1.10826
 C3268 C 0.88232 0.71183 1.11625
 C3269 C 0.90463 0.71623 1.11620
 C3270 C 0.91244 0.73592 1.10824
 C3271 C 0.90580 0.77218 1.09245
 C3272 C 0.92810 0.77624 1.09234
 C3273 C 0.93569 0.79612 1.08465
 C3274 C 0.92113 0.81201 1.07735
 C3275 C 0.89879 0.80761 1.07770
 C3276 C 0.89106 0.78770 1.08510
 C3277 C 0.93465 0.74056 1.10786
 C3278 C 0.94235 0.76035 1.09998
 C3279 C 0.86117 0.76312 1.09291
 C3280 C 0.86885 0.78305 1.08540
 H3281 H 0.94617 0.72880 1.11371
 H3282 H 0.95960 0.76328 1.09998
 H3283 H 0.84393 0.76017 1.09286
 H3284 H 0.85731 0.79490 1.07976
 H3285 H 0.85062 0.72422 1.10853
 H3286 H 0.91586 0.70423 1.12214
 H3287 H 0.95292 0.79916 1.08421
 H3288 H 0.88737 0.81980 1.07253
 C3289 C 0.89525 0.25268 0.60217
 C3290 C 0.90967 0.23723 0.61033
 C3291 C 0.90149 0.21786 0.61868
 C3292 C 0.87911 0.21380 0.61864
 C3293 C 0.86491 0.22938 0.61018
 C3294 C 0.87289 0.24893 0.60207
 C3295 C 0.90374 0.27321 0.59367
 C3296 C 0.88930 0.28881 0.58588
 C3297 C 0.89742 0.30843 0.57810
 C3298 C 0.91984 0.31243 0.57779
 C3299 C 0.93408 0.29645 0.58551
 C3300 C 0.92610 0.27689 0.59361
 C3301 C 0.85896 0.26489 0.59401
 C3302 C 0.86702 0.28452 0.58613
 C3303 C 0.93195 0.24148 0.61000
 C3304 C 0.94003 0.26095 0.60171
 H3305 H 0.84167 0.26221 0.59389
 H3306 H 0.85572 0.29643 0.58015
 H3307 H 0.94324 0.22967 0.61620
 H3308 H 0.95733 0.26359 0.60175
 H3309 H 0.91249 0.20582 0.62496
 H3310 H 0.84767 0.22643 0.61034
 H3311 H 0.88624 0.32069 0.57260
 H3312 H 0.95136 0.29916 0.58510
 C3313 C 0.39686 0.75064 0.60000
 C3314 C 0.37458 0.74643 0.59965
 C3315 C 0.36695 0.72661 0.60738
 C3316 C 0.38139 0.71117 0.61571
 C3317 C 0.40368 0.71566 0.61596
 C3318 C 0.41152 0.73534 0.60801
 C3319 C 0.40495 0.77152 0.59200
 C3320 C 0.42723 0.77570 0.59225
 C3321 C 0.43483 0.79562 0.58466
 C3322 C 0.42030 0.81143 0.57714
 C3323 C 0.39798 0.80692 0.57713
 C3324 C 0.39024 0.78696 0.58441
 C3325 C 0.43371 0.74009 0.60796
 C3326 C 0.44144 0.75990 0.60015
 C3327 C 0.36037 0.76224 0.59179
 C3328 C 0.36806 0.78219 0.58437
 H3329 H 0.44520 0.72841 0.61404
 H3330 H 0.45866 0.76292 0.60042
 H3331 H 0.34314 0.75920 0.59148
 H3332 H 0.35655 0.79397 0.57853
 H3333 H 0.34976 0.72337 0.60744
 H3334 H 0.41486 0.70376 0.62219
 H3335 H 0.45205 0.79874 0.58448
 H3336 H 0.38657 0.81903 0.57179
 C3337 C 0.39688 0.25236 1.10087
 C3338 C 0.37457 0.24832 1.10051
 C3339 C 0.36680 0.22856 1.10828
 C3340 C 0.38112 0.21304 1.11666
 C3341 C 0.40344 0.21738 1.11693
 C3342 C 0.41143 0.23699 1.10894
 C3343 C 0.40514 0.27317 1.09281
 C3344 C 0.42744 0.27719 1.09305
 C3345 C 0.43520 0.29702 1.08537
 C3346 C 0.42079 0.31290 1.07774
 C3347 C 0.39843 0.30854 1.07776
 C3348 C 0.39054 0.28868 1.08514
 C3349 C 0.43365 0.24159 1.10891
 C3350 C 0.44152 0.26132 1.10103
 C3351 C 0.36049 0.26419 1.09258
 C3352 C 0.36833 0.28406 1.08509
 H3353 H 0.44505 0.22985 1.11504
 H3354 H 0.45877 0.26421 1.10131
 H3355 H 0.34324 0.26128 1.09226
 H3356 H 0.35691 0.29591 1.07920
 H3357 H 0.34959 0.22544 1.10831
 H3358 H 0.41453 0.20542 1.12320
 H3359 H 0.45244 0.30001 1.08519
 H3360 H 0.38712 0.32071 1.07235
 C3361 C 1.10135 1.10381 0.75075
 C3362 C 1.11232 1.08990 0.73671
 C3363 C 1.12043 1.09799 0.71716
 C3364 C 1.11708 1.11975 0.71118
 C3365 C 1.10542 1.13325 0.72541
 C3366 C 1.09794 1.12548 0.74532
 C3367 C 1.09343 1.09556 0.77166
 C3368 C 1.08327 1.10970 0.78609
 C3369 C 1.07628 1.10193 0.80616
 C3370 C 1.07867 1.07996 0.81166
 C3371 C 1.08858 1.06595 0.79668
 C3372 C 1.09630 1.07374 0.77686
 C3373 C 1.08741 1.13908 0.76007
 C3374 C 1.08037 1.13137 0.78019
 C3375 C 1.11499 1.06816 0.74251
 C3376 C 1.10695 1.06018 0.76216
 H3377 H 1.08477 1.15589 0.75613
 H3378 H 1.07250 1.14245 0.79117
 H3379 H 1.12332 1.05720 0.73175
 H3380 H 1.10930 1.04330 0.76597
 H3381 H 1.12873 1.08707 0.70638
 H3382 H 1.10303 1.15010 0.72164
 H3383 H 1.06925 1.11314 0.81755
 H3384 H 1.09021 1.04896 0.80031
 C3385 C 1.10459 0.60586 0.25252
 C3386 C 1.12659 0.60355 0.24779
 C3387 C 1.13460 0.61152 0.22820
 C3388 C 1.12095 0.62238 0.21342
 C3389 C 1.09886 0.62478 0.21877
 C3390 C 1.09059 0.61628 0.23810
 C3391 C 1.09607 0.59724 0.27303
 C3392 C 1.07395 0.59904 0.27756
 C3393 C 1.06591 0.59061 0.29701
 C3394 C 1.07993 0.58095 0.31219
 C3395 C 1.10216 0.57963 0.30737
 C3396 C 1.11024 0.58745 0.28774
 C3397 C 1.06854 0.61789 0.24325
 C3398 C 1.06034 0.60928 0.26257
 C3399 C 1.14025 0.59348 0.26284
 C3400 C 1.13224 0.58570 0.28255
 H3401 H 1.05751 0.62580 0.23222
 H3402 H 1.04324 0.61081 0.26587
 H3403 H 1.15731 0.59170 0.25942
 H3404 H 1.14334 0.57815 0.29376
 H3405 H 1.15170 0.60996 0.22503
 H3406 H 1.08786 0.63254 0.20765
 H3407 H 1.04874 0.59147 0.30020
 H3408 H 1.11331 0.57279 0.31898
 C3409 C 0.60214 1.10420 0.25180
 C3410 C 0.61326 1.09039 0.23777
 C3411 C 0.62155 1.09860 0.21835
 C3412 C 0.61823 1.12039 0.21247
 C3413 C 0.60646 1.13380 0.22670
 C3414 C 0.59880 1.12591 0.24648
 C3415 C 0.59398 1.09582 0.27255
 C3416 C 0.58367 1.10986 0.28696
 C3417 C 0.57643 1.10196 0.30689
 C3418 C 0.57874 1.07995 0.31225
 C3419 C 0.58881 1.06604 0.29730
 C3420 C 0.59677 1.07396 0.27762
 C3421 C 0.58813 1.13943 0.26121
 C3422 C 0.58086 1.13158 0.28119
 C3423 C 0.61585 1.06860 0.24345
 C3424 C 0.60758 1.06049 0.26295
 H3425 H 0.58554 1.15626 0.25735
 H3426 H 0.57288 1.14259 0.29215
 H3427 H 0.62429 1.05772 0.23271
 H3428 H 0.60988 1.04358 0.26667
 H3429 H 0.62996 1.08776 0.20757
 H3430 H 0.60411 1.15068 0.22302
 H3431 H 0.56929 1.11310 0.31827
 H3432 H 0.59038 1.04902 0.30083
 C3433 C 0.60460 0.60431 0.75296
 C3434 C 0.61227 0.58991 0.73727
 C3435 C 0.62024 0.59805 0.71770
 C3436 C 0.62037 0.62040 0.71371
 C3437 C 0.61249 0.63460 0.72959
 C3438 C 0.60469 0.62665 0.74929
 C3439 C 0.59636 0.59586 0.77364
 C3440 C 0.58894 0.61030 0.78941
 C3441 C 0.58127 0.60220 0.80910
 C3442 C 0.58073 0.57982 0.81302
 C3443 C 0.58818 0.56558 0.79693
 C3444 C 0.59610 0.57353 0.77725
 C3445 C 0.59708 0.64058 0.76545
 C3446 C 0.58939 0.63254 0.78520
 C3447 C 0.61178 0.56766 0.74148
 C3448 C 0.60378 0.55960 0.76111
 H3449 H 0.59711 0.65784 0.76283
 H3450 H 0.58371 0.64384 0.79725
 H3451 H 0.61761 0.55637 0.72949
 H3452 H 0.60367 0.54233 0.76369
 H3453 H 0.62607 0.58705 0.70546
 H3454 H 0.61281 0.65182 0.72673
 H3455 H 0.57597 0.61335 0.82146
 H3456 H 0.58761 0.54833 0.79963
 C3457 C 0.89668 0.89941 0.75071
 C3458 C 0.87436 0.89908 0.74681
 C3459 C 0.86669 0.89094 0.72716
 C3460 C 0.88114 0.88291 0.71156
 C3461 C 0.90348 0.88326 0.71577
 C3462 C 0.91136 0.89163 0.73530
 C3463 C 0.90483 0.90793 0.77139
 C3464 C 0.92715 0.90836 0.77528
 C3465 C 0.93480 0.91641 0.79501
 C3466 C 0.92028 0.92372 0.81094
 C3467 C 0.89791 0.92310 0.80671
 C3468 C 0.89012 0.91533 0.78694
 C3469 C 0.93360 0.89235 0.73975
 C3470 C 0.94136 0.90064 0.75938
 C3471 C 0.86014 0.90676 0.76271
 C3472 C 0.86789 0.91469 0.78246
 H3473 H 0.94509 0.88645 0.72798
 H3474 H 0.95863 0.90089 0.76217
 H3475 H 0.84288 0.90656 0.75989
 H3476 H 0.85638 0.92037 0.79433
 H3477 H 0.84946 0.89041 0.72415
 H3478 H 0.91466 0.87726 0.70375
 H3479 H 0.95204 0.91707 0.79792
 H3480 H 0.88653 0.92828 0.81892
 C3481 C 0.89767 0.39802 0.25033
 C3482 C 0.90114 0.37629 0.24524
 C3483 C 0.89394 0.36829 0.22536
 C3484 C 0.88254 0.38161 0.21072
 C3485 C 0.87909 0.40345 0.21635
 C3486 C 0.88689 0.41176 0.23594
 C3487 C 0.90536 0.40651 0.27121
 C3488 C 0.90246 0.42839 0.27609
 C3489 C 0.91011 0.43642 0.29586
 C3490 C 0.92005 0.42259 0.31101
 C3491 C 0.92230 0.40053 0.30588
 C3492 C 0.91538 0.39253 0.28592
 C3493 C 0.88415 0.43357 0.24143
 C3494 C 0.89196 0.44178 0.26108
 C3495 C 0.91146 0.36284 0.26030
 C3496 C 0.91830 0.37078 0.28037
 H3497 H 0.87596 0.44441 0.23042
 H3498 H 0.88958 0.45870 0.26464
 H3499 H 0.91413 0.34599 0.25662
 H3500 H 0.92606 0.35983 0.29159
 H3501 H 0.89636 0.35138 0.22191
 H3502 H 0.87092 0.41422 0.20529
 H3503 H 0.90848 0.45345 0.29929
 H3504 H 0.92927 0.38945 0.31746
 C3505 C 0.39645 0.89687 0.25101
 C3506 C 0.39992 0.87510 0.24609
 C3507 C 0.39253 0.86689 0.22636
 C3508 C 0.38095 0.88005 0.21171
 C3509 C 0.37749 0.90193 0.21718
 C3510 C 0.38548 0.91044 0.23661
 C3511 C 0.40434 0.90557 0.27172
 C3512 C 0.40142 0.92749 0.27644
 C3513 C 0.40924 0.93572 0.29606
 C3514 C 0.41940 0.92206 0.31122
 C3515 C 0.42169 0.89997 0.30626
 C3516 C 0.41457 0.89176 0.28644
 C3517 C 0.38272 0.93229 0.24193
 C3518 C 0.39071 0.94070 0.26142
 C3519 C 0.41046 0.86182 0.26116
 C3520 C 0.41750 0.86997 0.28107
 H3521 H 0.37438 0.94300 0.23091
 H3522 H 0.38831 0.95765 0.26485
 H3523 H 0.41314 0.84494 0.25760
 H3524 H 0.42542 0.85915 0.29229
 H3525 H 0.39496 0.84996 0.22304
 H3526 H 0.36919 0.91258 0.20611
 H3527 H 0.40757 0.95277 0.29936
 H3528 H 0.42884 0.88902 0.31786
 C3529 C 0.39695 0.39666 0.75168
 C3530 C 0.38885 0.41092 0.73604
 C3531 C 0.38096 0.40262 0.71649
 C3532 C 0.38140 0.38029 0.71248
 C3533 C 0.38980 0.36627 0.72827
 C3534 C 0.39745 0.37435 0.74797
 C3535 C 0.40496 0.40524 0.77239
 C3536 C 0.41271 0.39094 0.78815
 C3537 C 0.42015 0.39914 0.80786
 C3538 C 0.42021 0.42152 0.81182
 C3539 C 0.41241 0.43564 0.79576
 C3540 C 0.40465 0.42757 0.77606
 C3541 C 0.40541 0.36056 0.76410
 C3542 C 0.41285 0.36871 0.78389
 C3543 C 0.38876 0.43316 0.74030
 C3544 C 0.39660 0.44135 0.75994
 H3545 H 0.40583 0.34331 0.76145
 H3546 H 0.41880 0.35751 0.79593
 H3547 H 0.38260 0.44434 0.72835
 H3548 H 0.39627 0.45860 0.76256
 H3549 H 0.37467 0.41348 0.70431
 H3550 H 0.38988 0.34905 0.72541
 H3551 H 0.42567 0.38805 0.82021
 H3552 H 0.41259 0.45288 0.79847
 C3553 C 1.10231 0.89637 1.24860
 C3554 C 1.09974 0.87450 1.25368
 C3555 C 1.10748 0.86673 1.27348
 C3556 C 1.11841 0.88050 1.28806
 C3557 C 1.12099 0.90245 1.28239
 C3558 C 1.11272 0.91048 1.26289
 C3559 C 1.09401 0.90465 1.22786
 C3560 C 1.09609 0.92664 1.22301
 C3561 C 1.08802 0.93445 1.20333
 C3562 C 1.07848 0.92033 1.18821
 C3563 C 1.07681 0.89823 1.19337
 C3564 C 1.08426 0.89038 1.21325
 C3565 C 1.11459 0.93240 1.25743
 C3566 C 1.10627 0.94037 1.23790
 C3567 C 1.08968 0.86074 1.23872
 C3568 C 1.08221 0.86852 1.21879
 H3569 H 1.12250 0.94350 1.26837
 H3570 H 1.10801 0.95738 1.23435
 H3571 H 1.08768 0.84378 1.24240
 H3572 H 1.07467 0.85733 1.20766
 H3573 H 1.10571 0.84974 1.27698
 H3574 H 1.12872 0.91358 1.29339
 H3575 H 1.08910 0.95154 1.19990
 H3576 H 1.07001 0.88700 1.18184
 C3577 C 1.10437 0.39454 0.74678
 C3578 C 1.09041 0.38392 0.76110
 C3579 C 1.09867 0.37548 0.78043
 C3580 C 1.12070 0.37816 0.78594
 C3581 C 1.13432 0.38924 0.77132
 C3582 C 1.12632 0.39712 0.75166
 C3583 C 1.09583 0.40310 0.72626
 C3584 C 1.10995 0.41309 0.71163
 C3585 C 1.10186 0.42086 0.69198
 C3586 C 1.07964 0.41933 0.68709
 C3587 C 1.06568 0.40950 0.70221
 C3588 C 1.07375 0.40109 0.72164
 C3589 C 1.13993 0.40739 0.73669
 C3590 C 1.13192 0.41509 0.71694
 C3591 C 1.06840 0.38207 0.75585
 C3592 C 1.06018 0.39065 0.73653
 H3593 H 1.15695 0.40939 0.74021
 H3594 H 1.14299 0.42279 0.70579
 H3595 H 1.05741 0.37400 0.76681
 H3596 H 1.04310 0.38895 0.73316
 H3597 H 1.08767 0.36760 0.79147
 H3598 H 1.15136 0.39106 0.77468
 H3599 H 1.11298 0.42783 0.68043
 H3600 H 1.04852 0.40849 0.69899
 C3601 C 0.60077 0.89636 0.74927
 C3602 C 0.60847 0.91100 0.76475
 C3603 C 0.61652 0.90314 0.78443
 C3604 C 0.61666 0.88085 0.78871
 C3605 C 0.60871 0.86643 0.77305
 C3606 C 0.60086 0.87409 0.75325
 C3607 C 0.59259 0.90450 0.72844
 C3608 C 0.58525 0.88982 0.71284
 C3609 C 0.57775 0.89760 0.69295
 C3610 C 0.57733 0.91991 0.68865
 C3611 C 0.58463 0.93440 0.70461
 C3612 C 0.59239 0.92677 0.72447
 C3613 C 0.59327 0.85991 0.73729
 C3614 C 0.58565 0.86764 0.71739
 C3615 C 0.60800 0.93319 0.76021
 C3616 C 0.60003 0.94094 0.74044
 H3617 H 0.59330 0.84269 0.74016
 H3618 H 0.58002 0.85616 0.70548
 H3619 H 0.61384 0.94466 0.77203
 H3620 H 0.59997 0.95817 0.73758
 H3621 H 0.62245 0.91430 0.79649
 H3622 H 0.60908 0.84925 0.77610
 H3623 H 0.57257 0.88624 0.68071
 H3624 H 0.58413 0.95160 0.70163
 C3625 C 0.60348 0.39484 1.24841
 C3626 C 0.61401 0.40880 1.26277
 C3627 C 0.62233 0.40058 1.28216
 C3628 C 0.61972 0.37859 1.28767
 C3629 C 0.60866 0.36497 1.27304
 C3630 C 0.60086 0.37293 1.25333
 C3631 C 0.59513 0.40331 1.22778
 C3632 C 0.58526 0.38920 1.21310
 C3633 C 0.57775 0.39724 1.19331
 C3634 C 0.57949 0.41938 1.18833
 C3635 C 0.58917 0.43334 1.20351
 C3636 C 0.59728 0.42534 1.22309
 C3637 C 0.59067 0.35934 1.23831
 C3638 C 0.58314 0.36730 1.21847
 C3639 C 0.61594 0.43075 1.25748
 C3640 C 0.60758 0.43890 1.23805
 H3641 H 0.58862 0.34236 1.24186
 H3642 H 0.57551 0.35624 1.20729
 H3643 H 0.62393 0.44173 1.26848
 H3644 H 0.60937 0.45594 1.23463
 H3645 H 0.63015 0.41160 1.29321
 H3646 H 0.60685 0.34797 1.27642
 H3647 H 0.57084 0.38614 1.18172
 H3648 H 0.59030 0.45044 1.20021
 C3649 C 0.89701 1.10168 1.24952
 C3650 C 0.87468 1.10189 1.25337
 C3651 C 0.86695 1.10983 1.27307
 C3652 C 0.88135 1.11778 1.28877
 C3653 C 0.90370 1.11755 1.28461
 C3654 C 0.91164 1.10938 1.26504
 C3655 C 0.90522 1.09335 1.22880
 C3656 C 0.92756 1.09300 1.22499
 C3657 C 0.93527 1.08506 1.20523
 C3658 C 0.92079 1.07777 1.18923
 C3659 C 0.89841 1.07838 1.19337
 C3660 C 0.89056 1.08602 1.21315
 C3661 C 0.93389 1.10876 1.26065
 C3662 C 0.94172 1.10064 1.24099
 C3663 C 0.86051 1.09430 1.23736
 C3664 C 0.86832 1.08657 1.21756
 H3665 H 0.94535 1.11460 1.27250
 H3666 H 0.95899 1.10046 1.23825
 H3667 H 0.84324 1.09443 1.24012
 H3668 H 0.85684 1.08094 1.20562
 H3669 H 0.84972 1.11027 1.27604
 H3670 H 0.91485 1.12350 1.29671
 H3671 H 0.95252 1.08442 1.20239
 H3672 H 0.88706 1.07322 1.18110
 C3673 C 0.89744 0.60301 0.74853
 C3674 C 0.88978 0.58859 0.76425
 C3675 C 0.88192 0.59672 0.78387
 C3676 C 0.88193 0.61907 0.78786
 C3677 C 0.88980 0.63325 0.77193
 C3678 C 0.89747 0.62533 0.75220
 C3679 C 0.90553 0.59459 0.72779
 C3680 C 0.91292 0.60905 0.71199
 C3681 C 0.92046 0.60101 0.69226
 C3682 C 0.92091 0.57864 0.68831
 C3683 C 0.91345 0.56436 0.70440
 C3684 C 0.90566 0.57227 0.72414
 C3685 C 0.90505 0.63928 0.73601
 C3686 C 0.91259 0.63128 0.71622
 C3687 C 0.89014 0.56635 0.76000
 C3688 C 0.89800 0.55832 0.74031
 H3689 H 0.90511 0.65654 0.73864
 H3690 H 0.91826 0.64260 0.70415
 H3691 H 0.88431 0.55504 0.77201
 H3692 H 0.89800 0.54106 0.73771
 H3693 H 0.87605 0.58572 0.79613
 H3694 H 0.88953 0.65048 0.77474
 H3695 H 0.92574 0.61219 0.67989
 H3696 H 0.91393 0.54712 0.70166
 C3697 C 0.39392 1.10423 0.74760
 C3698 C 0.39347 1.12662 0.75081
 C3699 C 0.38564 1.13479 0.77039
 C3700 C 0.37818 1.12076 0.78666
 C3701 C 0.37862 1.09834 0.78309
 C3702 C 0.38657 1.08998 0.76361
 C3703 C 0.40231 1.09555 0.72710
 C3704 C 0.40295 1.07316 0.72394
 C3705 C 0.41108 1.06499 0.70445
 C3706 C 0.41844 1.07907 0.68815
 C3707 C 0.41752 1.10150 0.69160
 C3708 C 0.40956 1.10982 0.71106
 C3709 C 0.38740 1.06767 0.75985
 C3710 C 0.39549 1.05940 0.74036
 C3711 C 0.40084 1.14038 0.73437
 C3712 C 0.40871 1.13213 0.71481
 H3713 H 0.38180 1.05650 0.77208
 H3714 H 0.39589 1.04209 0.73813
 H3715 H 0.40053 1.15769 0.73663
 H3716 H 0.41425 1.14330 0.70254
 H3717 H 0.38508 1.15205 0.77288
 H3718 H 0.37314 1.08743 0.79561
 H3719 H 0.41193 1.04771 0.70207
 H3720 H 0.42276 1.11250 0.67905
 C3721 C 0.39792 0.60229 1.24976
 C3722 C 0.40135 0.62403 1.25483
 C3723 C 0.39385 0.63210 1.27456
 C3724 C 0.38221 0.61883 1.28906
 C3725 C 0.37881 0.59697 1.28345
 C3726 C 0.38690 0.58859 1.26402
 C3727 C 0.40590 0.59373 1.22902
 C3728 C 0.40298 0.57185 1.22415
 C3729 C 0.41082 0.56377 1.20449
 C3730 C 0.42097 0.57756 1.18942
 C3731 C 0.42331 0.59960 1.19456
 C3732 C 0.41617 0.60766 1.21442
 C3733 C 0.38418 0.56678 1.25854
 C3734 C 0.39224 0.55851 1.23903
 C3735 C 0.41195 0.63743 1.23989
 C3736 C 0.41907 0.62942 1.21996
 H3737 H 0.37580 0.55598 1.26945
 H3738 H 0.38985 0.54158 1.23548
 H3739 H 0.41460 0.65429 1.24357
 H3740 H 0.42702 0.64033 1.20884
 H3741 H 0.39625 0.64902 1.27798
 H3742 H 0.37047 0.58623 1.29441
 H3743 H 0.40915 0.54674 1.20106
 H3744 H 0.43047 0.61064 1.18306
 C3745 C 1.10198 1.24811 0.89756
 C3746 C 1.10976 1.26364 0.91210
 C3747 C 1.11755 1.28333 0.90407
 C3748 C 1.11734 1.28758 0.88173
 C3749 C 1.10929 1.27187 0.86743
 C3750 C 1.10173 1.25206 0.87523
 C3751 C 1.09408 1.22726 0.90584
 C3752 C 1.08666 1.21162 0.89125
 C3753 C 1.07935 1.19176 0.89916
 C3754 C 1.07910 1.18752 0.92154
 C3755 C 1.08656 1.20347 0.93595
 C3756 C 1.09418 1.22333 0.92817
 C3757 C 1.09409 1.23604 0.86114
 C3758 C 1.08675 1.21614 0.86901
 C3759 C 1.10962 1.25912 0.93434
 C3760 C 1.10190 1.23934 0.94224
 H3761 H 1.09387 1.23889 0.84388
 H3762 H 1.08105 1.20420 0.85760
 H3763 H 1.11553 1.27097 0.94574
 H3764 H 1.10206 1.23651 0.95951
 H3765 H 1.12360 1.29542 0.91515
 H3766 H 1.10942 1.27488 0.85020
 H3767 H 1.07409 1.17952 0.88785
 H3768 H 1.08623 1.20054 0.95320
 C3769 C 1.10464 0.74738 0.39678
 C3770 C 1.10519 0.75096 0.37440
 C3771 C 1.11302 0.77066 0.36655
 C3772 C 1.12041 0.78666 0.38088
 C3773 C 1.11991 0.78271 0.40329
 C3774 C 1.11194 0.76312 0.41134
 C3775 C 1.09623 0.72675 0.40513
 C3776 C 1.09551 0.72322 0.42752
 C3777 C 1.08739 0.70361 0.43537
 C3778 C 1.08016 0.68754 0.42098
 C3779 C 1.08114 0.69138 0.39856
 C3780 C 1.08907 0.71098 0.39056
 C3781 C 1.11101 0.75898 0.43363
 C3782 C 1.10289 0.73938 0.44159
 C3783 C 1.09789 0.73478 0.36033
 C3784 C 1.09001 0.71510 0.36827
 H3785 H 1.11656 0.77100 0.44503
 H3786 H 1.10242 0.73686 0.45889
 H3787 H 1.09827 0.73734 0.34302
 H3788 H 1.08454 0.70304 0.35686
 H3789 H 1.11363 0.77345 0.34929
 H3790 H 1.12535 0.79504 0.41441
 H3791 H 1.08648 0.70094 0.45264
 H3792 H 1.07601 0.67902 0.38732
 C3793 C 0.60532 1.24560 0.39654
 C3794 C 0.60603 1.24899 0.37414
 C3795 C 0.61415 1.26851 0.36615
 C3796 C 0.62168 1.28455 0.38039
 C3797 C 0.62103 1.28079 0.40282
 C3798 C 0.61275 1.26138 0.41100
 C3799 C 0.59657 1.22517 0.40503
 C3800 C 0.59567 1.22184 0.42744
 C3801 C 0.58726 1.20241 0.43542
 C3802 C 0.57993 1.18628 0.42114
 C3803 C 0.58108 1.18992 0.39869
 C3804 C 0.58929 1.20935 0.39056
 C3805 C 0.61163 1.25745 0.43332
 C3806 C 0.60320 1.23803 0.44140
 C3807 C 0.59859 1.23277 0.36017
 C3808 C 0.59040 1.21327 0.36824
 H3809 H 0.61728 1.26950 0.44465
 H3810 H 0.60259 1.23567 0.45873
 H3811 H 0.59909 1.23518 0.34284
 H3812 H 0.58484 1.20118 0.35691
 H3813 H 0.61487 1.27116 0.34888
 H3814 H 0.62657 1.29314 0.41387
 H3815 H 0.58623 1.19992 0.45271
 H3816 H 0.57587 1.17752 0.38753
 C3817 C 0.60402 0.74695 0.89777
 C3818 C 0.58945 0.76246 0.89003
 C3819 C 0.59745 0.78196 0.88180
 C3820 C 0.61982 0.78605 0.88149
 C3821 C 0.63418 0.77036 0.88946
 C3822 C 0.62638 0.75072 0.89752
 C3823 C 0.59572 0.72633 0.90625
 C3824 C 0.61032 0.71072 0.91372
 C3825 C 0.60237 0.69105 0.92154
 C3826 C 0.57997 0.68700 0.92212
 C3827 C 0.56557 0.70296 0.91469
 C3828 C 0.57337 0.72260 0.90663
 C3829 C 0.64047 0.73473 0.90521
 C3830 C 0.63258 0.71504 0.91312
 C3831 C 0.56718 0.75815 0.89068
 C3832 C 0.55928 0.73858 0.89889
 H3833 H 0.65776 0.73744 0.90506
 H3834 H 0.64400 0.70312 0.91884
 H3835 H 0.55577 0.77000 0.88479
 H3836 H 0.54199 0.73590 0.89910
 H3837 H 0.58631 0.79406 0.87591
 H3838 H 0.65142 0.77329 0.88901
 H3839 H 0.61364 0.67879 0.92684
 H3840 H 0.54831 0.70016 0.91531
 C3841 C 0.89573 1.24585 1.10611
 C3842 C 0.87386 1.25088 1.10313
 C3843 C 0.86588 1.27053 1.11092
 C3844 C 0.87942 1.28498 1.12229
 C3845 C 0.90132 1.27928 1.12544
 C3846 C 0.90959 1.25998 1.11708
 C3847 C 0.90428 1.22539 1.09756
 C3848 C 0.92631 1.22066 1.09990
 C3849 C 0.93441 1.20133 1.09144
 C3850 C 0.92054 1.18640 1.08124
 C3851 C 0.89837 1.19138 1.07942
 C3852 C 0.89025 1.21096 1.08721
 C3853 C 0.93153 1.25460 1.11929
 C3854 C 0.93978 1.23536 1.11070
 C3855 C 0.86034 1.23609 1.09253
 C3856 C 0.86836 1.21639 1.08487
 H3857 H 0.94245 1.26541 1.12763
 H3858 H 0.95681 1.23190 1.11266
 H3859 H 0.84339 1.23972 1.09023
 H3860 H 0.85736 1.20539 1.07688
 H3861 H 0.84892 1.27405 1.10875
 H3862 H 0.91226 1.29019 1.13358
 H3863 H 0.95154 1.19805 1.09267
 H3864 H 0.88729 1.17997 1.07218
 C3865 C 0.89676 0.74691 0.60495
 C3866 C 0.91126 0.76261 0.61246
 C3867 C 0.90316 0.78220 0.62036
 C3868 C 0.88077 0.78618 0.62053
 C3869 C 0.86650 0.77022 0.61290
 C3870 C 0.87439 0.75053 0.60517
 C3871 C 0.90515 0.72627 0.59667
 C3872 C 0.89063 0.71052 0.58934
 C3873 C 0.89866 0.69091 0.58155
 C3874 C 0.92107 0.68703 0.58082
 C3875 C 0.93541 0.70307 0.58824
 C3876 C 0.92753 0.72269 0.59625
 C3877 C 0.86036 0.73438 0.59770
 C3878 C 0.86834 0.71469 0.58996
 C3879 C 0.93355 0.75843 0.61184
 C3880 C 0.94155 0.73882 0.60382
 H3881 H 0.84307 0.73697 0.59784
 H3882 H 0.85697 0.70265 0.58436
 H3883 H 0.94491 0.77042 0.61755
 H3884 H 0.95885 0.73627 0.60359
 H3885 H 0.91423 0.79448 0.62602
 H3886 H 0.84925 0.77303 0.61329
 H3887 H 0.88743 0.67858 0.57630
 H3888 H 0.95269 0.70039 0.58754
 C3889 C 0.39582 1.24648 0.60468
 C3890 C 0.37397 1.25153 0.60161
 C3891 C 0.36600 1.27124 0.60922
 C3892 C 0.37950 1.28574 0.62057
 C3893 C 0.40143 1.28009 0.62370
 C3894 C 0.40969 1.26070 0.61551
 C3895 C 0.40432 1.22586 0.59645
 C3896 C 0.42631 1.22106 0.59896
 C3897 C 0.43435 1.20154 0.59085
 C3898 C 0.42044 1.18652 0.58084
 C3899 C 0.39830 1.19158 0.57888
 C3900 C 0.39025 1.21132 0.58631
 C3901 C 0.43161 1.25528 0.61785
 C3902 C 0.43981 1.23588 0.60956
 C3903 C 0.36042 1.23664 0.59117
 C3904 C 0.36839 1.21680 0.58381
 H3905 H 0.44253 1.26616 0.62608
 H3906 H 0.45681 1.23237 0.61164
 H3907 H 0.34349 1.24028 0.58880
 H3908 H 0.35737 1.20572 0.57597
 H3909 H 0.34903 1.27471 0.60705
 H3910 H 0.41235 1.29104 0.63180
 H3911 H 0.45146 1.19819 0.59221
 H3912 H 0.38718 1.18011 0.57180
 C3913 C 0.39482 0.74424 1.10730
 C3914 C 0.37294 0.74912 1.10416
 C3915 C 0.36473 0.76866 1.11197
 C3916 C 0.37804 0.78316 1.12354
 C3917 C 0.39997 0.77762 1.12683
 C3918 C 0.40847 0.75842 1.11846
 C3919 C 0.40361 0.72389 1.09872
 C3920 C 0.42565 0.71932 1.10124
 C3921 C 0.43400 0.70010 1.09273
 C3922 C 0.42036 0.68515 1.08227
 C3923 C 0.39815 0.68996 1.08030
 C3924 C 0.38980 0.70941 1.08816
 C3925 C 0.43042 0.75320 1.12085
 C3926 C 0.43890 0.73407 1.11225
 C3927 C 0.35963 0.73427 1.09335
 C3928 C 0.36788 0.71468 1.08564
 H3929 H 0.44118 0.76406 1.12934
 H3930 H 0.45594 0.73073 1.11435
 H3931 H 0.34267 0.73778 1.09091
 H3932 H 0.35705 0.70365 1.07749
 H3933 H 0.34775 0.77207 1.10967
 H3934 H 0.41076 0.78857 1.13510
 H3935 H 0.45114 0.69695 1.09411
 H3936 H 0.38724 0.67852 1.07286
 C3937 C 0.89572 0.75444 0.89499
 C3938 C 0.91026 0.73891 0.88729
 C3939 C 0.90223 0.71934 0.87927
 C3940 C 0.87987 0.71521 0.87917
 C3941 C 0.86554 0.73096 0.88704
 C3942 C 0.87337 0.75065 0.89487
 C3943 C 0.90405 0.77508 0.90335
 C3944 C 0.88948 0.79070 0.91083
 C3945 C 0.89746 0.81034 0.91864
 C3946 C 0.91986 0.81437 0.91923
 C3947 C 0.93424 0.79844 0.91172
 C3948 C 0.92640 0.77881 0.90367
 C3949 C 0.85930 0.76666 0.90253
 C3950 C 0.86722 0.78637 0.91032
 C3951 C 0.93253 0.74323 0.88782
 C3952 C 0.94047 0.76282 0.89593
 H3953 H 0.84202 0.76394 0.90248
 H3954 H 0.85582 0.79830 0.91605
 H3955 H 0.94392 0.73136 0.88196
 H3956 H 0.95775 0.76550 0.89608
 H3957 H 0.91335 0.70720 0.87344
 H3958 H 0.84831 0.72799 0.88674
 H3959 H 0.88621 0.82259 0.92398
 H3960 H 0.95150 0.80122 0.91234
 C3961 C 0.89625 0.25374 0.39530
 C3962 C 0.87391 0.24992 0.39515
 C3963 C 0.86612 0.23013 0.38754
 C3964 C 0.88048 0.21427 0.37993
 C3965 C 0.90285 0.21843 0.38005
 C3966 C 0.91083 0.23812 0.38783
 C3967 C 0.90452 0.27449 0.40343
 C3968 C 0.92687 0.27826 0.40377
 C3969 C 0.93465 0.29800 0.41162
 C3970 C 0.92022 0.31397 0.41896
 C3971 C 0.89783 0.30990 0.41833
 C3972 C 0.88991 0.29016 0.41070
 C3973 C 0.93309 0.24249 0.38838
 C3974 C 0.94098 0.26220 0.39625
 C3975 C 0.85979 0.26600 0.40258
 C3976 C 0.86766 0.28580 0.41017
 H3977 H 0.94452 0.23057 0.38270
 H3978 H 0.95826 0.26491 0.39642
 H3979 H 0.84251 0.26325 0.40250
 H3980 H 0.85622 0.29777 0.41574
 H3981 H 0.84889 0.22717 0.38720
 H3982 H 0.91399 0.20622 0.37441
 H3983 H 0.95191 0.30083 0.41225
 H3984 H 0.88654 0.32217 0.42354
 C3985 C 0.39443 0.75484 0.39332
 C3986 C 0.40831 0.74073 0.38242
 C3987 C 0.40007 0.72137 0.37410
 C3988 C 0.37817 0.71563 0.37721
 C3989 C 0.36461 0.73006 0.38855
 C3990 C 0.37256 0.74976 0.39629
 C3991 C 0.40295 0.77537 0.40181
 C3992 C 0.38890 0.78979 0.41209
 C3993 C 0.39699 0.80942 0.41984
 C3994 C 0.41916 0.81445 0.41802
 C3995 C 0.43305 0.79954 0.40787
 C3996 C 0.42497 0.78015 0.39946
 C3997 C 0.35902 0.76455 0.40683
 C3998 C 0.36701 0.78430 0.41444
 C3999 C 0.43024 0.74616 0.38020
 C4000 C 0.43846 0.76546 0.38873
 H4001 H 0.34207 0.76087 0.40913
 H4002 H 0.35600 0.79529 0.42238
 H4003 H 0.44117 0.73535 0.37192
 H4004 H 0.45548 0.76896 0.38677
 H4005 H 0.41104 0.71048 0.36602
 H4006 H 0.34765 0.72649 0.39069
 H4007 H 0.38591 0.82081 0.42705
 H4008 H 0.45017 0.80285 0.40663
 C4009 C 0.39659 0.25357 0.89555
 C4010 C 0.39891 0.24857 0.87360
 C4011 C 0.39096 0.22887 0.86585
 C4012 C 0.38005 0.21435 0.87972
 C4013 C 0.37770 0.21997 0.90174
 C4014 C 0.38620 0.23933 0.90975
 C4015 C 0.40515 0.27417 0.90382
 C4016 C 0.40335 0.27893 0.92589
 C4017 C 0.41165 0.29846 0.93369
 C4018 C 0.42113 0.31357 0.91950
 C4019 C 0.42255 0.30850 0.89731
 C4020 C 0.41488 0.28874 0.88947
 C4021 C 0.38460 0.24471 0.93174
 C4022 C 0.39317 0.26409 0.93970
 C4023 C 0.40896 0.26347 0.85976
 C4024 C 0.41666 0.28328 0.86753
 H4025 H 0.37672 0.23380 0.94291
 H4026 H 0.39164 0.26757 0.95677
 H4027 H 0.41076 0.25985 0.84274
 H4028 H 0.42416 0.29437 0.85628
 H4029 H 0.39255 0.22541 0.84881
 H4030 H 0.36999 0.20901 0.91294
 H4031 H 0.41077 0.30180 0.95083
 H4032 H 0.42930 0.32001 0.88603
 C4033 C 1.10325 0.75248 1.10212
 C4034 C 1.12515 0.74757 1.09931
 C4035 C 1.13319 0.72801 1.10724
 C4036 C 1.11971 0.71350 1.11864
 C4037 C 1.09771 0.71898 1.12145
 C4038 C 1.08937 0.73825 1.11296
 C4039 C 1.09472 0.77302 1.09368
 C4040 C 1.07270 0.77775 1.09601
 C4041 C 1.06467 0.79727 1.08783
 C4042 C 1.07862 0.81234 1.07793
 C4043 C 1.10077 0.80731 1.07605
 C4044 C 1.10881 0.78759 1.08358
 C4045 C 1.06742 0.74357 1.11507
 C4046 C 1.05919 0.76291 1.10659
 C4047 C 1.13871 0.76246 1.08887
 C4048 C 1.13071 0.78220 1.08129
 H4049 H 1.05648 0.73269 1.12330
 H4050 H 1.04216 0.76636 1.10853
 H4051 H 1.15569 0.75889 1.08669
 H4052 H 1.14174 0.79330 1.07349
 H4053 H 1.15023 0.72474 1.10532
 H4054 H 1.08683 0.70803 1.12962
 H4055 H 1.04756 0.80061 1.08912
 H4056 H 1.11190 0.81881 1.06904
 C4057 C 1.10370 0.25212 0.60221
 C4058 C 1.08985 0.23823 0.61350
 C4059 C 1.09811 0.21904 0.62219
 C4060 C 1.11998 0.21322 0.61907
 C4061 C 1.13346 0.22734 0.60720
 C4062 C 1.12551 0.24691 0.59913
 C4063 C 1.09521 0.27258 0.59352
 C4064 C 1.10926 0.28687 0.58299
 C4065 C 1.10125 0.30655 0.57528
 C4066 C 1.07915 0.31178 0.57738
 C4067 C 1.06524 0.29689 0.58761
 C4068 C 1.07325 0.27749 0.59604
 C4069 C 1.13902 0.26152 0.58823
 C4070 C 1.13108 0.28124 0.58047
 C4071 C 1.06797 0.24375 0.61580
 C4072 C 1.05977 0.26296 0.60706
 H4073 H 1.15593 0.25775 0.58584
 H4074 H 1.14209 0.29211 0.57232
 H4075 H 1.05706 0.23310 0.62438
 H4076 H 1.04279 0.26657 0.60915
 H4077 H 1.08720 0.20835 0.63065
 H4078 H 1.15039 0.22369 0.60499
 H4079 H 1.11237 0.31788 0.56798
 H4080 H 1.04815 0.30029 0.58902
 C4081 C 0.60358 0.75269 0.60337
 C4082 C 0.61119 0.73710 0.58883
 C4083 C 0.61951 0.71765 0.59689
 C4084 C 0.61999 0.71370 0.61929
 C4085 C 0.61224 0.72953 0.63361
 C4086 C 0.60410 0.74909 0.62574
 C4087 C 0.59490 0.77320 0.59501
 C4088 C 0.58752 0.78886 0.60957
 C4089 C 0.57944 0.80839 0.60157
 C4090 C 0.57849 0.81227 0.57915
 C4091 C 0.58588 0.79627 0.56478
 C4092 C 0.59420 0.77675 0.57263
 C4093 C 0.59653 0.76514 0.63981
 C4094 C 0.58843 0.78472 0.63186
 C4095 C 0.61025 0.74125 0.56653
 C4096 C 0.60185 0.76071 0.55857
 H4097 H 0.59690 0.76257 0.65711
 H4098 H 0.58279 0.79669 0.64326
 H4099 H 0.61603 0.72934 0.55514
 H4100 H 0.60140 0.76326 0.54127
 H4101 H 0.62526 0.70546 0.58580
 H4102 H 0.61285 0.72674 0.65086
 H4103 H 0.57420 0.82068 0.61282
 H4104 H 0.58500 0.79893 0.54750
 C4105 C 0.60443 0.25325 1.10445
 C4106 C 0.62625 0.24815 1.10129
 C4107 C 0.63430 0.22856 1.10920
 C4108 C 0.62089 0.21430 1.12098
 C4109 C 0.59901 0.22002 1.12420
 C4110 C 0.59066 0.23923 1.11568
 C4111 C 0.59584 0.27372 1.09589
 C4112 C 0.57385 0.27852 1.09846
 C4113 C 0.56572 0.29789 1.09007
 C4114 C 0.57953 0.31282 1.07976
 C4115 C 0.60167 0.30774 1.07771
 C4116 C 0.60980 0.28811 1.08539
 C4117 C 0.56876 0.24466 1.11807
 C4118 C 0.56046 0.26388 1.10945
 C4119 C 0.63969 0.26288 1.09046
 C4120 C 0.63164 0.28260 1.08282
 H4121 H 0.55792 0.23391 1.12660
 H4122 H 0.54347 0.26740 1.11158
 H4123 H 0.65661 0.25920 1.08801
 H4124 H 0.64259 0.29356 1.07470
 H4125 H 0.65124 0.22498 1.10693
 H4126 H 0.58815 0.20922 1.13260
 H4127 H 0.54861 0.30120 1.09147
 H4128 H 0.61272 0.31913 1.07039
 C4129 C 1.24996 1.10277 0.90078
 C4130 C 1.26550 1.08828 0.89296
 C4131 C 1.28521 1.09631 0.88518
 C4132 C 1.28946 1.11861 0.88540
 C4133 C 1.27377 1.13286 0.89357
 C4134 C 1.25394 1.12504 0.90114
 C4135 C 1.22902 1.09448 0.90854
 C4136 C 1.21334 1.10903 0.91593
 C4137 C 1.19336 1.10112 0.92299
 C4138 C 1.18904 1.07880 0.92299
 C4139 C 1.20506 1.06444 0.91561
 C4140 C 1.22503 1.07221 0.90825
 C4141 C 1.23790 1.13907 0.90880
 C4142 C 1.21791 1.13120 0.91601
 C4143 C 1.26094 1.06609 0.89297
 C4144 C 1.24108 1.05819 0.90055
 H4145 H 1.24077 1.15629 0.90912
 H4146 H 1.20594 1.14258 0.92170
 H4147 H 1.27281 1.05474 0.88702
 H4148 H 1.23821 1.04097 0.90025
 H4149 H 1.29728 1.08528 0.87904
 H4150 H 1.27679 1.15005 0.89346
 H4151 H 1.18107 1.11240 0.92820
 H4152 H 1.20206 1.04724 0.91577
 C4153 C 1.24727 0.60458 0.39610
 C4154 C 1.26316 0.59020 0.38880
 C4155 C 1.28263 0.59840 0.38062
 C4156 C 1.28630 0.62080 0.37985
 C4157 C 1.27017 0.63496 0.38730
 C4158 C 1.25061 0.62695 0.39539
 C4159 C 1.22673 0.59607 0.40462
 C4160 C 1.21080 0.61048 0.41174
 C4161 C 1.19124 0.60234 0.41968
 C4162 C 1.18757 0.57993 0.42067
 C4163 C 1.20381 0.56571 0.41351
 C4164 C 1.22340 0.57371 0.40541
 C4165 C 1.23429 0.64086 0.40269
 C4166 C 1.21470 0.63276 0.41070
 C4167 C 1.25924 0.56791 0.38987
 C4168 C 1.23971 0.55981 0.39806
 H4169 H 1.23667 0.65815 0.40218
 H4170 H 1.20252 0.64404 0.41614
 H4171 H 1.27138 0.55664 0.38432
 H4172 H 1.23735 0.54252 0.39859
 H4173 H 1.29503 0.58740 0.37513
 H4174 H 1.27270 0.65221 0.38648
 H4175 H 1.17875 0.61344 0.42478
 H4176 H 1.20127 0.54846 0.41442
 C4177 C 0.74760 1.10432 0.39799
 C4178 C 0.75117 1.12666 0.39770
 C4179 C 0.77074 1.13463 0.38960
 C4180 C 0.78659 1.12045 0.38163
 C4181 C 0.78270 1.09808 0.38200
 C4182 C 0.76326 1.08992 0.39025
 C4183 C 0.72703 1.09584 0.40647
 C4184 C 0.72349 1.07350 0.40686
 C4185 C 0.70387 1.06553 0.41490
 C4186 C 0.68775 1.07975 0.42231
 C4187 C 0.69163 1.10215 0.42173
 C4188 C 0.71126 1.11026 0.41392
 C4189 C 0.75915 1.06765 0.39093
 C4190 C 0.73962 1.05958 0.39915
 C4191 C 0.73503 1.14058 0.40538
 C4192 C 0.71539 1.13252 0.41331
 H4193 H 0.77112 1.05637 0.38505
 H4194 H 0.73709 1.04231 0.39937
 H4195 H 0.73758 1.15785 0.40521
 H4196 H 0.70334 1.14381 0.41901
 H4197 H 0.77351 1.15186 0.38912
 H4198 H 0.79492 1.08708 0.37611
 H4199 H 0.70121 1.04828 0.41552
 H4200 H 0.67924 1.11328 0.42700
 C4201 C 0.74829 0.60419 0.89762
 C4202 C 0.76401 0.58974 0.89007
 C4203 C 0.78345 0.59786 0.88176
 C4204 C 0.78728 0.62023 0.88118
 C4205 C 0.77136 0.63446 0.88891
 C4206 C 0.75180 0.62654 0.89706
 C4207 C 0.72774 0.59577 0.90621
 C4208 C 0.71194 0.61024 0.91349
 C4209 C 0.69233 0.60218 0.92140
 C4210 C 0.68852 0.57979 0.92225
 C4211 C 0.70467 0.56552 0.91501
 C4212 C 0.72427 0.57343 0.90688
 C4213 C 0.73562 0.64051 0.90456
 C4214 C 0.71601 0.63250 0.91259
 C4215 C 0.75995 0.56748 0.89102
 C4216 C 0.74043 0.55946 0.89933
 H4217 H 0.73813 0.65779 0.90417
 H4218 H 0.70393 0.64383 0.91816
 H4219 H 0.77195 0.55616 0.88529
 H4220 H 0.73795 0.54218 0.89976
 H4221 H 0.79572 0.58683 0.87603
 H4222 H 0.77406 0.65169 0.88823
 H4223 H 0.67992 0.61335 0.92655
 H4224 H 0.70205 0.54827 0.91583
 C4225 C 1.24689 0.89388 1.10368
 C4226 C 1.25011 0.87150 1.10449
 C4227 C 1.26961 0.86344 1.11266
 C4228 C 1.28578 0.87757 1.12013
 C4229 C 1.28224 0.89998 1.11924
 C4230 C 1.26284 0.90823 1.11096
 C4231 C 1.22639 0.90244 1.09513
 C4232 C 1.22318 0.92481 1.09426
 C4233 C 1.20363 0.93286 1.08616
 C4234 C 1.18728 0.91869 1.07910
 C4235 C 1.19082 0.89627 1.08014
 C4236 C 1.21036 0.88807 1.08807
 C4237 C 1.25906 0.93052 1.10980
 C4238 C 1.23958 0.93867 1.10156
 C4239 C 1.23371 0.85763 1.09722
 C4240 C 1.21415 0.86578 1.08919
 H4241 H 1.27125 0.94177 1.11533
 H4242 H 1.23731 0.95597 1.10097
 H4243 H 1.23599 0.84033 1.09779
 H4244 H 1.20190 0.85453 1.08379
 H4245 H 1.27206 0.84619 1.11356
 H4246 H 1.29468 0.91096 1.12474
 H4247 H 1.20120 0.95013 1.08520
 H4248 H 1.17825 0.88520 1.07511
 C4249 C 1.24604 0.39396 0.60481
 C4250 C 1.24979 0.39417 0.62718
 C4251 C 1.26941 0.38623 0.63519
 C4252 C 1.28507 0.37784 0.62103
 C4253 C 1.28097 0.37761 0.59866
 C4254 C 1.26153 0.38580 0.59044
 C4255 C 1.22549 0.40243 0.59629
 C4256 C 1.22185 0.40249 0.57391
 C4257 C 1.20234 0.41072 0.56588
 C4258 C 1.18639 0.41860 0.58008
 C4259 C 1.19033 0.41819 0.60252
 C4260 C 1.20989 0.41029 0.61069
 C4261 C 1.25727 0.38605 0.56815
 C4262 C 1.23780 0.39433 0.56002
 C4263 C 1.23381 0.40224 0.64108
 C4264 C 1.21416 0.41009 0.63297
 H4265 H 1.26911 0.37985 0.55689
 H4266 H 1.23519 0.39427 0.54272
 H4267 H 1.23649 0.40243 0.65837
 H4268 H 1.20224 0.41612 0.64425
 H4269 H 1.27239 0.38621 0.65243
 H4270 H 1.29307 0.37137 0.58769
 H4271 H 1.19968 0.41119 0.54860
 H4272 H 1.17808 0.42379 0.61368
 C4273 C 0.74704 0.89511 0.60284
 C4274 C 0.76268 0.90962 0.61046
 C4275 C 0.78223 0.90159 0.61857
 C4276 C 0.78625 0.87926 0.61891
 C4277 C 0.77043 0.86496 0.61103
 C4278 C 0.75074 0.87279 0.60309
 C4279 C 0.72635 0.90344 0.59453
 C4280 C 0.71060 0.88892 0.58719
 C4281 C 0.69086 0.89690 0.57954
 C4282 C 0.68686 0.91926 0.57900
 C4283 C 0.70296 0.93359 0.58630
 C4284 C 0.72268 0.92576 0.59418
 C4285 C 0.73462 0.85876 0.59552
 C4286 C 0.71487 0.86669 0.58775
 C4287 C 0.75844 0.93185 0.60983
 C4288 C 0.73880 0.93979 0.60178
 H4289 H 0.73727 0.84151 0.59566
 H4290 H 0.70284 0.85531 0.58213
 H4291 H 0.77040 0.94322 0.61562
 H4292 H 0.73617 0.95705 0.60159
 H4293 H 0.79443 0.91269 0.62437
 H4294 H 0.77330 0.84775 0.61150
 H4295 H 0.67850 0.88568 0.57433
 H4296 H 0.70021 0.95083 0.58570
 C4297 C 0.74817 0.39510 1.10297
 C4298 C 0.76402 0.40964 1.11011
 C4299 C 0.78354 0.40161 1.11833
 C4300 C 0.78729 0.37924 1.11926
 C4301 C 0.77121 0.36493 1.11196
 C4302 C 0.75160 0.37276 1.10386
 C4303 C 0.72756 0.40343 1.09446
 C4304 C 0.71163 0.38888 1.08755
 C4305 C 0.69197 0.39685 1.07969
 C4306 C 0.68821 0.41923 1.07859
 C4307 C 0.70447 0.43359 1.08548
 C4308 C 0.72414 0.42577 1.09350
 C4309 C 0.73530 0.35871 1.09674
 C4310 C 0.71563 0.36663 1.08876
 C4311 C 0.76003 0.43189 1.10886
 C4312 C 0.74044 0.43982 1.10066
 H4313 H 0.73774 0.34143 1.09738
 H4314 H 0.70347 0.35524 1.08348
 H4315 H 0.77214 0.44328 1.11427
 H4316 H 0.73800 0.45709 1.10000
 H4317 H 0.79592 0.41272 1.12371
 H4318 H 0.77383 0.34770 1.11292
 H4319 H 0.67948 0.38564 1.07480
 H4320 H 0.70186 0.45083 1.08446
 C4321 C 0.75251 1.10393 1.10506
 C4322 C 0.74852 1.10346 1.12737
 C4323 C 0.72887 1.11143 1.13525
 C4324 C 0.71343 1.12013 1.12101
 C4325 C 0.71774 1.12058 1.09869
 C4326 C 0.73722 1.11236 1.09060
 C4327 C 0.77315 1.09554 1.09669
 C4328 C 0.77707 1.09582 1.07436
 C4329 C 0.79670 1.08777 1.06649
 C4330 C 0.81251 1.07974 1.08079
 C4331 C 0.80827 1.07975 1.10318
 C4332 C 0.78858 1.08748 1.11118
 C4333 C 0.74173 1.11239 1.06836
 C4334 C 0.76128 1.10419 1.06038
 C4335 C 0.76432 1.09515 1.14137
 C4336 C 0.78405 1.08737 1.13342
 H4337 H 0.73004 1.11880 1.05703
 H4338 H 0.76411 1.10450 1.04311
 H4339 H 0.76145 1.09474 1.15862
 H4340 H 0.79583 1.08118 1.14477
 H4341 H 0.72574 1.11130 1.15246
 H4342 H 0.70582 1.12708 1.08766
 H4343 H 0.79958 1.08758 1.04923
 H4344 H 0.82040 1.07403 1.11442
 C4345 C 0.75203 0.60248 0.60299
 C4346 C 0.73661 0.61035 0.58834
 C4347 C 0.71700 0.61847 0.59624
 C4348 C 0.71271 0.61850 0.61857
 C4349 C 0.72834 0.61044 0.63299
 C4350 C 0.74807 0.60251 0.62531
 C4351 C 0.77277 0.59414 0.59483
 C4352 C 0.78828 0.58658 0.60952
 C4353 C 0.80806 0.57889 0.60172
 C4354 C 0.81234 0.57850 0.57936
 C4355 C 0.79647 0.58603 0.56485
 C4356 C 0.77671 0.59398 0.57251
 C4357 C 0.76396 0.59474 0.63950
 C4358 C 0.78375 0.58696 0.63174
 C4359 C 0.74114 0.60992 0.56611
 C4360 C 0.76082 0.60182 0.55833
 H4361 H 0.76109 0.59472 0.65676
 H4362 H 0.79560 0.58117 0.64324
 H4363 H 0.72937 0.61590 0.55463
 H4364 H 0.76367 0.60179 0.54107
 H4365 H 0.70496 0.62449 0.58507
 H4366 H 0.72530 0.61073 0.65022
 H4367 H 0.82024 0.57354 0.61308
 H4368 H 0.79944 0.58557 0.54761
 C4369 C 0.25141 1.10261 0.60412
 C4370 C 0.23623 1.11106 0.58955
 C4371 C 0.21670 1.11929 0.59750
 C4372 C 0.21222 1.11883 0.61979
 C4373 C 0.22755 1.11009 0.63413
 C4374 C 0.24724 1.10210 0.62640
 C4375 C 0.27211 1.09423 0.59590
 C4376 C 0.28743 1.08614 0.61051
 C4377 C 0.30719 1.07845 0.60265
 C4378 C 0.31162 1.07852 0.58031
 C4379 C 0.29593 1.08656 0.56588
 C4380 C 0.27621 1.09456 0.57361
 C4381 C 0.26293 1.09377 0.64051
 C4382 C 0.28271 1.08599 0.63270
 C4383 C 0.24092 1.11113 0.56735
 C4384 C 0.26054 1.10295 0.55951
 H4385 H 0.25992 1.09334 0.65774
 H4386 H 0.29441 1.07978 0.64413
 H4387 H 0.22933 1.11756 0.55594
 H4388 H 0.26351 1.10330 0.54227
 H4389 H 0.20487 1.12581 0.58639
 H4390 H 0.22430 1.10996 0.65132
 H4391 H 0.31923 1.07273 0.61398
 H4392 H 0.29896 1.08643 0.54865
 C4393 C 0.25534 0.60741 1.10643
 C4394 C 0.25202 0.60779 1.12886
 C4395 C 0.23274 0.61635 1.13702
 C4396 C 0.21695 0.62465 1.12293
 C4397 C 0.22063 0.62429 1.10049
 C4398 C 0.23976 0.61558 1.09214
 C4399 C 0.27550 0.59824 1.09775
 C4400 C 0.27872 0.59766 1.07532
 C4401 C 0.29789 0.58887 1.06714
 C4402 C 0.31388 0.58087 1.08124
 C4403 C 0.31035 0.58168 1.10372
 C4404 C 0.29115 0.59025 1.11205
 C4405 C 0.24358 0.61476 1.06979
 C4406 C 0.26271 0.60590 1.06152
 C4407 C 0.26806 0.59961 1.14266
 C4408 C 0.28732 0.59104 1.13439
 H4409 H 0.23166 0.62097 1.05860
 H4410 H 0.26501 0.60555 1.04418
 H4411 H 0.26571 0.59986 1.15999
 H4412 H 0.29929 0.58493 1.14559
 H4413 H 0.23010 0.61680 1.15430
 H4414 H 0.20842 0.63040 1.08955
 H4415 H 0.30029 0.58809 1.04983
 H4416 H 0.32266 0.57595 1.11475
 C4417 C 0.75202 0.89691 0.89632
 C4418 C 0.73621 0.91132 0.88886
 C4419 C 0.71663 0.90316 0.88089
 C4420 C 0.71276 0.88079 0.88061
 C4421 C 0.72879 0.86660 0.88822
 C4422 C 0.74849 0.87456 0.89600
 C4423 C 0.77267 0.90537 0.90462
 C4424 C 0.78854 0.89093 0.91186
 C4425 C 0.80818 0.89903 0.91962
 C4426 C 0.81198 0.92142 0.92040
 C4427 C 0.79580 0.93567 0.91312
 C4428 C 0.77615 0.92772 0.90512
 C4429 C 0.76475 0.86062 0.90341
 C4430 C 0.78446 0.86867 0.91116
 C4431 C 0.74030 0.93359 0.88958
 C4432 C 0.75991 0.94165 0.89762
 H4433 H 0.76222 0.84335 0.90320
 H4434 H 0.79659 0.85737 0.91670
 H4435 H 0.72823 0.94488 0.88391
 H4436 H 0.76240 0.95893 0.89792
 H4437 H 0.70428 0.91416 0.87525
 H4438 H 0.72605 0.84937 0.88775
 H4439 H 0.82062 0.88788 0.92478
 H4440 H 0.79842 0.95292 0.91387
 C4441 C 0.75035 0.39926 0.39795
 C4442 C 0.73514 0.39111 0.41266
 C4443 C 0.71551 0.38289 0.40487
 C4444 C 0.71100 0.38304 0.38257
 C4445 C 0.72639 0.39146 0.36810
 C4446 C 0.74614 0.39947 0.37567
 C4447 C 0.77116 0.40759 0.40599
 C4448 C 0.78650 0.41534 0.39122
 C4449 C 0.80639 0.42294 0.39889
 C4450 C 0.81094 0.42307 0.42120
 C4451 C 0.79523 0.41539 0.43580
 C4452 C 0.77537 0.40750 0.42826
 C4453 C 0.76184 0.40748 0.36140
 C4454 C 0.78171 0.41523 0.36904
 C4455 C 0.73992 0.39131 0.43485
 C4456 C 0.75966 0.39943 0.44252
 H4457 H 0.75878 0.40768 0.34418
 H4458 H 0.79342 0.42118 0.35749
 H4459 H 0.72832 0.38512 0.44638
 H4460 H 0.76271 0.39926 0.45975
 H4461 H 0.70366 0.37656 0.41607
 H4462 H 0.72318 0.39130 0.35090
 H4463 H 0.81844 0.42839 0.38744
 H4464 H 0.79838 0.41566 0.45301
 C4465 C 0.24927 0.90041 0.39847
 C4466 C 0.23397 0.89250 0.41323
 C4467 C 0.21415 0.88471 0.40548
 C4468 C 0.20954 0.88503 0.38321
 C4469 C 0.22501 0.89323 0.36870
 C4470 C 0.24495 0.90081 0.37622
 C4471 C 0.27029 0.90824 0.40645
 C4472 C 0.28572 0.91575 0.39164
 C4473 C 0.30577 0.92293 0.39925
 C4474 C 0.31042 0.92292 0.42155
 C4475 C 0.29465 0.91543 0.43618
 C4476 C 0.27461 0.90795 0.42870
 C4477 C 0.26075 0.90856 0.36191
 C4478 C 0.28082 0.91584 0.36949
 C4479 C 0.23886 0.89248 0.43539
 C4480 C 0.25881 0.90014 0.44300
 H4481 H 0.25762 0.90890 0.34470
 H4482 H 0.29259 0.92161 0.35790
 H4483 H 0.22719 0.88648 0.44695
 H4484 H 0.26193 0.89984 0.46021
 H4485 H 0.20224 0.87854 0.41672
 H4486 H 0.22173 0.89319 0.35152
 H4487 H 0.31786 0.92822 0.38777
 H4488 H 0.29789 0.91559 0.45338
 C4489 C 0.25322 0.39525 0.89499
 C4490 C 0.23753 0.38762 0.90947
 C4491 C 0.21820 0.37906 0.90133
 C4492 C 0.21445 0.37830 0.87891
 C4493 C 0.23040 0.38603 0.86464
 C4494 C 0.24983 0.39446 0.87259
 C4495 C 0.27359 0.40424 0.90343
 C4496 C 0.28934 0.41169 0.88893
 C4497 C 0.30875 0.42005 0.89702
 C4498 C 0.31243 0.42114 0.91946
 C4499 C 0.29635 0.41371 0.93377
 C4500 C 0.27694 0.40516 0.92583
 C4501 C 0.26596 0.40210 0.85858
 C4502 C 0.28540 0.41053 0.86662
 C4503 C 0.24147 0.38881 0.93179
 C4504 C 0.26082 0.39747 0.93983
 H4505 H 0.26355 0.40154 0.84126
 H4506 H 0.29743 0.41622 0.85526
 H4507 H 0.22948 0.38302 0.94314
 H4508 H 0.26321 0.39808 0.95715
 H4509 H 0.20592 0.37336 0.91241
 H4510 H 0.22776 0.38523 0.84737
 H4511 H 0.32112 0.42536 0.88585
 H4512 H 0.29888 0.41470 0.95106
   
