data_POSCAR
  _audit_creation_date              2014-09-24
  _audit_creation_method            'ToBaCCo'
  _symmetry_space_group_name_H-M    'P1'
  _symmetry_Int_Tables_number       1
  _symmetry_cell_setting            triclinic
  loop_
  _symmetry_equiv_pos_as_xyz
 x,y,z
_cell_length_a 92.9809
_cell_length_b 93.2355
_cell_length_c 93.9033
_cell_angle_alpha 89.865500
_cell_angle_beta 89.914300
_cell_angle_gamma 89.818700
loop_
  _atom_site_label
  _atom_site_type_symbol
  _atom_site_fract_x
  _atom_site_fract_y
  _atom_site_fract_z
N1 N 0.36412 0.32427 0.33523
 N2 N 0.36398 0.33431 0.32536
 C3 C 0.37507 0.33211 0.31636
 C4 C 0.38245 0.32011 0.32091
 C5 C 0.37528 0.31536 0.33286
 H6 H 0.37763 0.33869 0.30721
 H7 H 0.37798 0.30613 0.33933
 Cu8 Cu 0.34935 0.34926 0.32535
 Cu9 Cu 0.34989 0.32351 0.35044
 Cu10 Cu 0.32371 0.35009 0.35057
 N11 N 0.33463 0.36412 0.32551
 N12 N 0.32463 0.36437 0.33544
 C13 C 0.31582 0.37562 0.33313
 C14 C 0.32060 0.38274 0.32117
 C15 C 0.33250 0.37523 0.31654
 H16 H 0.30660 0.37837 0.33961
 H17 H 0.33903 0.37768 0.30731
 N18 N 0.32461 0.33472 0.36496
 N19 N 0.33458 0.32460 0.36492
 C20 C 0.33233 0.31574 0.37606
 C21 C 0.32042 0.32059 0.38336
 C22 C 0.31574 0.33258 0.37612
 H23 H 0.33881 0.30645 0.37866
 H24 H 0.30656 0.33919 0.37880
 H25 H 0.33367 0.33379 0.33934
 H26 H 0.34544 0.34525 0.35069
 N27 N 0.36501 0.82425 -0.16530
 N28 N 0.36483 0.83433 -0.17515
 C29 C 0.37585 0.83213 -0.18424
 C30 C 0.38322 0.82010 -0.17975
 C31 C 0.37614 0.81532 -0.16776
 H32 H 0.37834 0.83875 -0.19339
 H33 H 0.37888 0.80608 -0.16131
 Cu34 Cu 0.35031 0.84938 -0.17499
 Cu35 Cu 0.35087 0.82350 -0.15000
 Cu36 Cu 0.32463 0.85002 -0.14977
 N37 N 0.33541 0.86407 -0.17488
 N38 N 0.32541 0.86427 -0.16494
 C39 C 0.31650 0.87544 -0.16727
 C40 C 0.32123 0.88253 -0.17927
 C41 C 0.33319 0.87511 -0.18390
 H42 H 0.30728 0.87817 -0.16076
 H43 H 0.33971 0.87756 -0.19314
 N44 N 0.32565 0.83468 -0.13534
 N45 N 0.33565 0.82458 -0.13541
 C46 C 0.33345 0.81572 -0.12426
 C47 C 0.32157 0.82055 -0.11690
 C48 C 0.31684 0.83252 -0.12413
 H49 H 0.33996 0.80644 -0.12168
 H50 H 0.30763 0.83910 -0.12144
 H51 H 0.33462 0.83379 -0.16108
 H52 H 0.34633 0.84520 -0.14965
 N53 N 0.86427 0.32733 -0.16485
 N54 N 0.86197 0.33469 -0.17660
 C55 C 0.87299 0.33255 -0.18568
 C56 C 0.88269 0.32344 -0.17920
 C57 C 0.87688 0.32027 -0.16604
 H58 H 0.87374 0.33711 -0.19626
 H59 H 0.88124 0.31300 -0.15815
 Cu60 Cu 0.84488 0.34639 -0.17903
 Cu61 Cu 0.84998 0.32615 -0.14966
 Cu62 Cu 0.81971 0.34759 -0.15349
 N63 N 0.83225 0.36291 -0.17681
 N64 N 0.82253 0.36347 -0.16664
 C65 C 0.81503 0.37579 -0.16780
 C66 C 0.82049 0.38333 -0.17924
 C67 C 0.83134 0.37490 -0.18480
 H68 H 0.80607 0.37882 -0.16108
 H69 H 0.83783 0.37711 -0.19412
 N70 N 0.82229 0.33421 -0.13749
 N71 N 0.83400 0.32635 -0.13576
 C72 C 0.83252 0.31837 -0.12385
 C73 C 0.81931 0.32146 -0.11790
 C74 C 0.81306 0.33150 -0.12675
 H75 H 0.84033 0.31070 -0.11994
 H76 H 0.80257 0.33639 -0.12552
 H77 H 0.83244 0.33101 -0.16170
 H78 H 0.84168 0.34653 -0.15326
 N79 N 0.86373 0.82479 0.33553
 N80 N 0.86330 0.83461 0.32545
 C81 C 0.87445 0.83253 0.31649
 C82 C 0.88217 0.82085 0.32129
 C83 C 0.87514 0.81614 0.33334
 H84 H 0.87679 0.83898 0.30719
 H85 H 0.87809 0.80710 0.33997
 Cu86 Cu 0.84829 0.84919 0.32501
 Cu87 Cu 0.84950 0.82393 0.35069
 Cu88 Cu 0.82308 0.85021 0.35077
 N89 N 0.83364 0.86412 0.32554
 N90 N 0.82383 0.86449 0.33564
 C91 C 0.81510 0.87584 0.33350
 C92 C 0.81977 0.88289 0.32144
 C93 C 0.83151 0.87526 0.31660
 H94 H 0.80603 0.87872 0.34015
 H95 H 0.83794 0.87763 0.30729
 N96 N 0.82409 0.83486 0.36519
 N97 N 0.83418 0.82484 0.36515
 C98 C 0.83200 0.81595 0.37627
 C99 C 0.82003 0.82065 0.38357
 C100 C 0.81524 0.83260 0.37633
 H101 H 0.83858 0.80673 0.37888
 H102 H 0.80597 0.83911 0.37900
 H103 H 0.83300 0.83382 0.33965
 H104 H 0.84487 0.84564 0.35052
 N105 N 0.63609 0.67582 0.33579
 N106 N 0.63614 0.66578 0.32597
 C107 C 0.62509 0.66809 0.31697
 C108 C 0.61782 0.68017 0.32149
 C109 C 0.62502 0.68485 0.33340
 H110 H 0.62248 0.66152 0.30787
 H111 H 0.62240 0.69411 0.33983
 Cu112 Cu 0.65057 0.65061 0.32601
 Cu113 Cu 0.65035 0.67648 0.35091
 Cu114 Cu 0.67649 0.64988 0.35094
 N115 N 0.66549 0.63593 0.32598
 N116 N 0.67556 0.63567 0.33581
 C117 C 0.68441 0.62448 0.33339
 C118 C 0.67959 0.61742 0.32146
 C119 C 0.66762 0.62490 0.31696
 H120 H 0.69367 0.62169 0.33980
 H121 H 0.66100 0.62248 0.30782
 N122 N 0.67564 0.66520 0.36535
 N123 N 0.66568 0.67534 0.36533
 C124 C 0.66797 0.68418 0.37642
 C125 C 0.67989 0.67932 0.38368
 C126 C 0.68454 0.66733 0.37646
 H127 H 0.66151 0.69347 0.37903
 H128 H 0.69372 0.66071 0.37911
 H129 H 0.66646 0.66615 0.33965
 H130 H 0.65481 0.65478 0.35128
 N131 N 0.63585 0.17557 -0.16496
 N132 N 0.63626 0.16582 -0.17505
 C133 C 0.62515 0.16799 -0.18400
 C134 C 0.61747 0.17969 -0.17922
 C135 C 0.62449 0.18430 -0.16716
 H136 H 0.62280 0.16157 -0.19329
 H137 H 0.62155 0.19330 -0.16050
 Cu138 Cu 0.65116 0.15113 -0.17552
 Cu139 Cu 0.65003 0.17618 -0.14974
 Cu140 Cu 0.67619 0.14963 -0.14965
 N141 N 0.66567 0.13607 -0.17499
 N142 N 0.67540 0.13550 -0.16484
 C143 C 0.68402 0.12407 -0.16700
 C144 C 0.67937 0.11720 -0.17910
 C145 C 0.66776 0.12500 -0.18397
 H146 H 0.69300 0.12104 -0.16031
 H147 H 0.66137 0.12278 -0.19332
 N148 N 0.67523 0.16486 -0.13518
 N149 N 0.66528 0.17500 -0.13524
 C150 C 0.66754 0.18383 -0.12412
 C151 C 0.67942 0.17894 -0.11682
 C152 C 0.68408 0.16696 -0.12404
 H153 H 0.66111 0.19316 -0.12155
 H154 H 0.69328 0.16034 -0.12139
 H155 H 0.66652 0.16620 -0.16075
 H156 H 0.65444 0.15442 -0.14998
 N157 N 0.13583 0.67522 -0.16480
 N158 N 0.13597 0.66520 -0.17464
 C159 C 0.12489 0.66745 -0.18363
 C160 C 0.11754 0.67947 -0.17911
 C161 C 0.12470 0.68417 -0.16718
 H162 H 0.12234 0.66089 -0.19277
 H163 H 0.12202 0.69340 -0.16074
 Cu164 Cu 0.15060 0.65023 -0.17467
 Cu165 Cu 0.15001 0.67590 -0.14961
 Cu166 Cu 0.17620 0.64935 -0.14942
 N167 N 0.16536 0.63538 -0.17445
 N168 N 0.17535 0.63512 -0.16455
 C169 C 0.18417 0.62387 -0.16686
 C170 C 0.17940 0.61678 -0.17880
 C171 C 0.16749 0.62429 -0.18340
 H172 H 0.19338 0.62110 -0.16040
 H173 H 0.16094 0.62187 -0.19260
 N174 N 0.17525 0.66468 -0.13501
 N175 N 0.16526 0.67479 -0.13510
 C176 C 0.16745 0.68365 -0.12400
 C177 C 0.17933 0.67882 -0.11666
 C178 C 0.18407 0.66684 -0.12384
 H179 H 0.16096 0.69294 -0.12144
 H180 H 0.19326 0.66026 -0.12114
 H181 H 0.16627 0.66567 -0.16066
 H182 H 0.15450 0.65419 -0.14930
 N183 N 0.13639 0.17602 0.33565
 N184 N 0.13677 0.16629 0.32554
 C185 C 0.12566 0.16854 0.31659
 C186 C 0.11803 0.18026 0.32144
 C187 C 0.12506 0.18479 0.33350
 H188 H 0.12328 0.16218 0.30728
 H189 H 0.12216 0.19377 0.34020
 Cu190 Cu 0.15166 0.15157 0.32509
 Cu191 Cu 0.15059 0.17662 0.35082
 Cu192 Cu 0.17680 0.15012 0.35086
 N193 N 0.16619 0.13652 0.32557
 N194 N 0.17596 0.13598 0.33568
 C195 C 0.18460 0.12458 0.33349
 C196 C 0.17994 0.11767 0.32141
 C197 C 0.16829 0.12545 0.31659
 H198 H 0.19361 0.12156 0.34015
 H199 H 0.16189 0.12321 0.30726
 N200 N 0.17585 0.16537 0.36531
 N201 N 0.16585 0.17547 0.36529
 C202 C 0.16808 0.18429 0.37640
 C203 C 0.18000 0.17945 0.38368
 C204 C 0.18471 0.16750 0.37644
 H205 H 0.16159 0.19356 0.37901
 H206 H 0.19392 0.16090 0.37909
 H207 H 0.16710 0.16665 0.33976
 H208 H 0.15510 0.15485 0.35060
 N209 N 0.63593 0.32527 0.66510
 N210 N 0.63618 0.33529 0.67494
 C211 C 0.62520 0.33314 0.68408
 C212 C 0.61775 0.32122 0.67963
 C213 C 0.62478 0.31643 0.66761
 H214 H 0.62279 0.33971 0.69326
 H215 H 0.62200 0.30722 0.66121
 Cu216 Cu 0.65079 0.35016 0.67484
 Cu217 Cu 0.65004 0.32445 0.64979
 Cu218 Cu 0.67660 0.35044 0.64968
 N219 N 0.66597 0.36445 0.67480
 N220 N 0.67602 0.36451 0.66493
 C221 C 0.68506 0.37550 0.66733
 C222 C 0.68036 0.38263 0.67930
 C223 C 0.66828 0.37541 0.68384
 H224 H 0.69432 0.37812 0.66085
 H225 H 0.66171 0.37797 0.69300
 N226 N 0.67537 0.33530 0.63514
 N227 N 0.66524 0.32540 0.63518
 C228 C 0.66730 0.31661 0.62399
 C229 C 0.67923 0.32126 0.61664
 C230 C 0.68414 0.33307 0.62392
 H231 H 0.66068 0.30747 0.62138
 H232 H 0.69344 0.33949 0.62126
 H233 H 0.66637 0.33436 0.66098
 H234 H 0.65486 0.34606 0.64950
 N235 N 0.63603 0.82488 1.16504
 N236 N 0.63619 0.83485 1.17493
 C237 C 0.62520 0.83256 1.18403
 C238 C 0.61787 0.82059 1.17950
 C239 C 0.62495 0.81594 1.16747
 H240 H 0.62270 0.83908 1.19322
 H241 H 0.62224 0.80676 1.16099
 Cu242 Cu 0.65071 0.84983 1.17489
 Cu243 Cu 0.65014 0.82421 1.14973
 Cu244 Cu 0.67649 0.85042 1.14970
 N245 N 0.66578 0.86428 1.17491
 N246 N 0.67581 0.86447 1.16501
 C247 C 0.68476 0.87552 1.16744
 C248 C 0.68005 0.88255 1.17948
 C249 C 0.66803 0.87520 1.18400
 H250 H 0.69398 0.87826 1.16096
 H251 H 0.66145 0.87767 1.19319
 N252 N 0.67538 0.83530 1.13511
 N253 N 0.66534 0.82531 1.13514
 C254 C 0.66745 0.81657 1.12392
 C255 C 0.67933 0.82133 1.11657
 C256 C 0.68415 0.83317 1.12386
 H257 H 0.66089 0.80739 1.12129
 H258 H 0.69338 0.83968 1.12118
 H259 H 0.66638 0.83421 1.16095
 H260 H 0.65476 0.84586 1.14953
 N261 N 0.13600 0.32487 1.16454
 N262 N 0.13620 0.33482 1.17446
 C263 C 0.12514 0.33263 1.18349
 C264 C 0.11772 0.32072 1.17893
 C265 C 0.12483 0.31602 1.16693
 H266 H 0.12266 0.33914 1.19269
 H267 H 0.12210 0.30684 1.16045
 Cu268 Cu 0.15082 0.34971 1.17445
 Cu269 Cu 0.15022 0.32412 1.14932
 Cu270 Cu 0.17661 0.35034 1.14932
 N271 N 0.16583 0.36421 1.17450
 N272 N 0.17584 0.36443 1.16458
 C273 C 0.18472 0.37555 1.16696
 C274 C 0.17999 0.38259 1.17897
 C275 C 0.16802 0.37519 1.18354
 H276 H 0.19392 0.37829 1.16045
 H277 H 0.16145 0.37765 1.19273
 N278 N 0.17556 0.33515 1.13480
 N279 N 0.16552 0.32516 1.13482
 C280 C 0.16771 0.31634 1.12367
 C281 C 0.17964 0.32108 1.11637
 C282 C 0.18441 0.33296 1.12362
 H283 H 0.16119 0.30714 1.12107
 H284 H 0.19366 0.33945 1.12098
 H285 H 0.16651 0.33411 1.16048
 H286 H 0.15489 0.34577 1.14909
 N287 N 0.13591 0.82525 0.66468
 N288 N 0.13614 0.83517 0.67462
 C289 C 0.12508 0.83297 0.68366
 C290 C 0.11762 0.82111 0.67905
 C291 C 0.12471 0.81642 0.66703
 H292 H 0.12262 0.83946 0.69289
 H293 H 0.12194 0.80729 0.66052
 Cu294 Cu 0.15081 0.85000 0.67465
 Cu295 Cu 0.15012 0.82448 0.64945
 Cu296 Cu 0.17662 0.85058 0.64954
 N297 N 0.16586 0.86447 0.67472
 N298 N 0.17589 0.86465 0.66483
 C299 C 0.18482 0.87573 0.66724
 C300 C 0.18009 0.88278 0.67925
 C301 C 0.16808 0.87542 0.68379
 H302 H 0.19404 0.87846 0.66075
 H303 H 0.16150 0.87789 0.69297
 N304 N 0.17553 0.83543 0.63498
 N305 N 0.16542 0.82549 0.63495
 C306 C 0.16756 0.81673 0.62376
 C307 C 0.17951 0.82142 0.61647
 C308 C 0.18436 0.83324 0.62379
 H309 H 0.16097 0.80758 0.62110
 H310 H 0.19364 0.83969 0.62116
 H311 H 0.16646 0.83437 0.66069
 H312 H 0.15491 0.84611 0.64930
 N313 N 0.36434 0.67518 0.66469
 N314 N 0.36430 0.66508 0.67450
 C315 C 0.37535 0.66727 0.68350
 C316 C 0.38260 0.67934 0.67900
 C317 C 0.37540 0.68414 0.66709
 H318 H 0.37796 0.66064 0.69260
 H319 H 0.37796 0.69346 0.66071
 Cu320 Cu 0.34986 0.65003 0.67445
 Cu321 Cu 0.35013 0.67595 0.64950
 Cu322 Cu 0.32405 0.64944 0.64943
 N323 N 0.33502 0.63536 0.67445
 N324 N 0.32497 0.63519 0.66460
 C325 C 0.31617 0.62399 0.66696
 C326 C 0.32102 0.61683 0.67888
 C327 C 0.33294 0.62426 0.68343
 H328 H 0.30691 0.62130 0.66054
 H329 H 0.33957 0.62173 0.69256
 N330 N 0.32493 0.66478 0.63499
 N331 N 0.33485 0.67489 0.63502
 C332 C 0.33258 0.68375 0.62388
 C333 C 0.32073 0.67892 0.61658
 C334 C 0.31608 0.66695 0.62383
 H335 H 0.33902 0.69303 0.62127
 H336 H 0.30693 0.66035 0.62116
 H337 H 0.33402 0.66565 0.66066
 H338 H 0.34574 0.65426 0.64913
 N339 N 0.36506 0.17461 1.16417
 N340 N 0.36462 0.16490 1.17432
 C341 C 0.37571 0.16703 1.18331
 C342 C 0.38339 0.17868 1.17845
 C343 C 0.37639 0.18330 1.16634
 H344 H 0.37802 0.16068 1.19269
 H345 H 0.37917 0.19242 1.15978
 Cu346 Cu 0.34974 0.15030 1.17461
 Cu347 Cu 0.35063 0.17564 1.14914
 Cu348 Cu 0.32150 0.15260 1.15252
 N349 N 0.33456 0.13600 1.17486
 N350 N 0.32357 0.13693 1.16613
 C351 C 0.31461 0.12586 1.16851
 C352 C 0.32040 0.11755 1.17923
 C353 C 0.33302 0.12421 1.18309
 H354 H 0.30459 0.12409 1.16296
 H355 H 0.34043 0.12074 1.19127
 N356 N 0.32350 0.16648 1.13677
 N357 N 0.33471 0.17504 1.13531
 C358 C 0.33304 0.18295 1.12339
 C359 C 0.32025 0.17908 1.11712
 C360 C 0.31444 0.16866 1.12579
 H361 H 0.34050 0.19097 1.11958
 H362 H 0.30440 0.16308 1.12419
 H363 H 0.33477 0.16791 1.16196
 H364 H 0.34336 0.15453 1.14988
 N365 N 0.86471 0.67544 1.16481
 N366 N 0.86413 0.66575 1.17501
 C367 C 0.87513 0.66788 1.18409
 C368 C 0.88291 0.67947 1.17926
 C369 C 0.87607 0.68406 1.16706
 H370 H 0.87733 0.66153 1.19349
 H371 H 0.87912 0.69301 1.16036
 Cu372 Cu 0.84915 0.65124 1.17545
 Cu373 Cu 0.85071 0.67614 1.14944
 Cu374 Cu 0.82433 0.64996 1.14942
 N375 N 0.83451 0.63637 1.17499
 N376 N 0.82486 0.63591 1.16477
 C377 C 0.81613 0.62461 1.16696
 C378 C 0.82061 0.61770 1.17916
 C379 C 0.83225 0.62536 1.18404
 H380 H 0.80721 0.62165 1.16021
 H381 H 0.83855 0.62306 1.19344
 N382 N 0.82555 0.66508 1.13479
 N383 N 0.83559 0.67507 1.13480
 C384 C 0.83349 0.68386 1.12358
 C385 C 0.82161 0.67912 1.11624
 C386 C 0.81679 0.66725 1.12356
 H387 H 0.84002 0.69308 1.12096
 H388 H 0.80754 0.66078 1.12093
 H389 H 0.83408 0.66650 1.16043
 H390 H 0.84613 0.65449 1.14985
 N391 N 0.86481 0.17524 0.66474
 N392 N 0.86468 0.16526 0.67467
 C393 C 0.87569 0.16752 0.68369
 C394 C 0.88302 0.17950 0.67910
 C395 C 0.87589 0.18418 0.66709
 H396 H 0.87818 0.16103 0.69293
 H397 H 0.87854 0.19340 0.66061
 Cu398 Cu 0.85007 0.15035 0.67482
 Cu399 Cu 0.85059 0.17595 0.64954
 Cu400 Cu 0.82446 0.14950 0.64962
 N401 N 0.83534 0.13556 0.67475
 N402 N 0.82536 0.13531 0.66484
 C403 C 0.81655 0.12412 0.66722
 C404 C 0.82132 0.11705 0.67922
 C405 C 0.83321 0.12452 0.68379
 H406 H 0.80735 0.12136 0.66076
 H407 H 0.83974 0.12210 0.69302
 N408 N 0.82535 0.16477 0.63510
 N409 N 0.83531 0.17485 0.63507
 C410 C 0.83303 0.18367 0.62389
 C411 C 0.82114 0.17884 0.61664
 C412 C 0.81648 0.16691 0.62395
 H413 H 0.83948 0.19293 0.62124
 H414 H 0.80730 0.16034 0.62134
 H415 H 0.83434 0.16587 0.66075
 H416 H 0.84613 0.15430 0.64946
 N417 N 0.32657 0.36501 0.66381
 N418 N 0.33356 0.36253 0.67574
 C419 C 0.33131 0.37349 0.68479
 C420 C 0.32252 0.38335 0.67810
 C421 C 0.31967 0.37769 0.66484
 H422 H 0.33554 0.37409 0.69550
 H423 H 0.31268 0.38220 0.65678
 Cu424 Cu 0.34491 0.34528 0.67844
 Cu425 Cu 0.32556 0.35082 0.64860
 Cu426 Cu 0.34666 0.32041 0.65278
 N427 N 0.36146 0.33262 0.67650
 N428 N 0.36226 0.32304 0.66628
 C429 C 0.37464 0.31561 0.66759
 C430 C 0.38194 0.32095 0.67920
 C431 C 0.37331 0.33167 0.68468
 H432 H 0.37791 0.30682 0.66081
 H433 H 0.37536 0.33811 0.69402
 N434 N 0.33361 0.32318 0.63655
 N435 N 0.32588 0.33494 0.63470
 C436 C 0.31805 0.33357 0.62271
 C437 C 0.32110 0.32037 0.61682
 C438 C 0.33096 0.31402 0.62580
 H439 H 0.31046 0.34141 0.61872
 H440 H 0.33573 0.30349 0.62467
 H441 H 0.32993 0.33318 0.66066
 H442 H 0.34582 0.34234 0.65266
 N443 N 0.32436 0.86467 0.16386
 N444 N 0.33431 0.86446 0.17381
 C445 C 0.33205 0.87553 0.18276
 C446 C 0.32011 0.88296 0.17810
 C447 C 0.31545 0.87585 0.16613
 H448 H 0.33853 0.87799 0.19199
 H449 H 0.30626 0.87857 0.15962
 Cu450 Cu 0.34919 0.84973 0.17405
 Cu451 Cu 0.32364 0.85045 0.14873
 Cu452 Cu 0.35004 0.82411 0.14894
 N453 N 0.36395 0.83487 0.17404
 N454 N 0.36419 0.82489 0.16416
 C455 C 0.37539 0.81602 0.16654
 C456 C 0.38248 0.82073 0.17850
 C457 C 0.37501 0.83267 0.18306
 H458 H 0.37816 0.80683 0.16007
 H459 H 0.37747 0.83921 0.19223
 N460 N 0.33482 0.82510 0.13441
 N461 N 0.32475 0.83514 0.13432
 C462 C 0.31595 0.83291 0.12316
 C463 C 0.32076 0.82096 0.11597
 C464 C 0.33268 0.81623 0.12331
 H465 H 0.30669 0.83942 0.12047
 H466 H 0.33924 0.80698 0.12076
 H467 H 0.33362 0.83421 0.16003
 H468 H 0.34534 0.84581 0.14869
 N469 N 0.82449 0.36453 0.16393
 N470 N 0.83450 0.36431 0.17382
 C471 C 0.83232 0.37539 0.18278
 C472 C 0.82038 0.38285 0.17816
 C473 C 0.81563 0.37574 0.16622
 H474 H 0.83886 0.37785 0.19196
 H475 H 0.80642 0.37850 0.15974
 Cu476 Cu 0.84940 0.34960 0.17391
 Cu477 Cu 0.82364 0.35026 0.14884
 Cu478 Cu 0.84993 0.32378 0.14902
 N479 N 0.86398 0.33458 0.17403
 N480 N 0.86415 0.32455 0.16420
 C481 C 0.87532 0.31563 0.16659
 C482 C 0.88245 0.32037 0.17853
 C483 C 0.87505 0.33236 0.18305
 H484 H 0.87805 0.30642 0.16015
 H485 H 0.87756 0.33894 0.19217
 N486 N 0.83462 0.32481 0.13456
 N487 N 0.82459 0.33489 0.13449
 C488 C 0.81574 0.33268 0.12336
 C489 C 0.82048 0.32071 0.11618
 C490 C 0.83240 0.31593 0.12348
 H491 H 0.80652 0.33924 0.12068
 H492 H 0.83892 0.30667 0.12091
 H493 H 0.83368 0.33402 0.16013
 H494 H 0.84533 0.34546 0.14860
 N495 N 0.82416 0.86496 0.66461
 N496 N 0.83385 0.86449 0.67480
 C497 C 0.83162 0.87557 0.68374
 C498 C 0.81996 0.88327 0.67883
 C499 C 0.81543 0.87631 0.66673
 H500 H 0.83794 0.87786 0.69312
 H501 H 0.80645 0.87926 0.66001
 Cu502 Cu 0.84843 0.84949 0.67541
 Cu503 Cu 0.82352 0.85083 0.64942
 Cu504 Cu 0.84985 0.82447 0.64964
 N505 N 0.86339 0.83484 0.67507
 N506 N 0.86388 0.82511 0.66495
 C507 C 0.87522 0.81638 0.66719
 C508 C 0.88214 0.82093 0.67931
 C509 C 0.87443 0.83262 0.68410
 H510 H 0.87821 0.80741 0.66052
 H511 H 0.87672 0.83900 0.69343
 N512 N 0.83473 0.82558 0.63503
 N513 N 0.82467 0.83562 0.63494
 C514 C 0.81589 0.83343 0.62375
 C515 C 0.82073 0.82150 0.61654
 C516 C 0.83263 0.81674 0.62389
 H517 H 0.80663 0.83993 0.62108
 H518 H 0.83917 0.80748 0.62135
 H519 H 0.83324 0.83433 0.66058
 H520 H 0.84528 0.84620 0.64986
 N521 N 0.67585 0.63643 0.66637
 N522 N 0.66721 0.63801 0.67736
 C523 C 0.66865 0.62663 0.68610
 C524 C 0.67868 0.61749 0.68018
 C525 C 0.68310 0.62398 0.66772
 H526 H 0.66297 0.62521 0.69607
 H527 H 0.69119 0.62010 0.66038
 Cu528 Cu 0.65489 0.65475 0.67931
 Cu529 Cu 0.67771 0.65115 0.65178
 Cu530 Cu 0.65142 0.67747 0.65168
 N531 N 0.63814 0.66706 0.67724
 N532 N 0.63661 0.67565 0.66621
 C533 C 0.62415 0.68292 0.66748
 C534 C 0.61759 0.67857 0.67993
 C535 C 0.62670 0.66855 0.68593
 H536 H 0.62032 0.69098 0.66010
 H537 H 0.62523 0.66293 0.69592
 N538 N 0.66573 0.67544 0.63630
 N539 N 0.67576 0.66537 0.63634
 C540 C 0.68415 0.66700 0.62474
 C541 C 0.67910 0.67860 0.61713
 C542 C 0.66746 0.68375 0.62467
 H543 H 0.69341 0.66045 0.62216
 H544 H 0.66096 0.69302 0.62202
 H545 H 0.66892 0.66870 0.66193
 H546 H 0.65611 0.65596 0.65349
 N547 N 0.67554 0.13548 0.16436
 N548 N 0.66577 0.13603 0.17448
 C549 C 0.66788 0.12500 0.18355
 C550 C 0.67956 0.11723 0.17879
 C551 C 0.68422 0.12411 0.16663
 H552 H 0.66145 0.12275 0.19289
 H553 H 0.69322 0.12107 0.15997
 Cu554 Cu 0.65113 0.15099 0.17482
 Cu555 Cu 0.67626 0.14949 0.14899
 Cu556 Cu 0.64990 0.17584 0.14874
 N557 N 0.63615 0.16558 0.17419
 N558 N 0.63571 0.17525 0.16397
 C559 C 0.62433 0.18396 0.16608
 C560 C 0.61733 0.17945 0.17821
 C561 C 0.62502 0.16781 0.18315
 H562 H 0.62139 0.19292 0.15933
 H563 H 0.62269 0.16150 0.19255
 N564 N 0.66518 0.17465 0.13423
 N565 N 0.67522 0.16459 0.13433
 C566 C 0.68408 0.16665 0.12315
 C567 C 0.67933 0.17851 0.11575
 C568 C 0.66739 0.18338 0.12299
 H569 H 0.69333 0.16008 0.12059
 H570 H 0.66088 0.19262 0.12028
 H571 H 0.66640 0.16609 0.15989
 H572 H 0.65447 0.15413 0.14924
 N573 N 0.17483 0.63535 0.16380
 N574 N 0.16513 0.63582 0.17403
 C575 C 0.16735 0.62476 0.18300
 C576 C 0.17886 0.61691 0.17798
 C577 C 0.18343 0.62388 0.16584
 H578 H 0.16097 0.62247 0.19235
 H579 H 0.19240 0.62090 0.15911
 Cu580 Cu 0.15061 0.65084 0.17442
 Cu581 Cu 0.17572 0.64975 0.14873
 Cu582 Cu 0.15264 0.67894 0.15222
 N583 N 0.13626 0.66604 0.17483
 N584 N 0.13715 0.67706 0.16606
 C585 C 0.12605 0.68605 0.16849
 C586 C 0.11787 0.68030 0.17933
 C587 C 0.12464 0.66772 0.18320
 H588 H 0.12409 0.69599 0.16285
 H589 H 0.12127 0.66029 0.19138
 N590 N 0.16644 0.67691 0.13641
 N591 N 0.17500 0.66567 0.13490
 C592 C 0.18287 0.66734 0.12295
 C593 C 0.17898 0.68016 0.11672
 C594 C 0.16858 0.68599 0.12544
 H595 H 0.19091 0.65989 0.11911
 H596 H 0.16300 0.69606 0.12387
 H597 H 0.16802 0.66557 0.16163
 H598 H 0.15449 0.65709 0.14961
 N599 N 0.17487 0.13508 0.66516
 N600 N 0.16472 0.13521 0.67494
 C601 C 0.16689 0.12418 0.68400
 C602 C 0.17899 0.11684 0.67958
 C603 C 0.18383 0.12398 0.66765
 H604 H 0.16023 0.12166 0.69311
 H605 H 0.19317 0.12131 0.66128
 Cu606 Cu 0.14961 0.14971 0.67479
 Cu607 Cu 0.17571 0.14931 0.64996
 Cu608 Cu 0.14924 0.17559 0.64979
 N609 N 0.13497 0.16469 0.67472
 N610 N 0.13489 0.17476 0.66488
 C611 C 0.12374 0.18370 0.66725
 C612 C 0.11653 0.17894 0.67917
 C613 C 0.12387 0.16690 0.68370
 H614 H 0.12112 0.19300 0.66084
 H615 H 0.12132 0.16033 0.69287
 N616 N 0.16468 0.17463 0.63541
 N617 N 0.17476 0.16460 0.63546
 C618 C 0.18367 0.16682 0.62434
 C619 C 0.17891 0.17876 0.61704
 C620 C 0.16691 0.18348 0.62427
 H621 H 0.19294 0.16030 0.62173
 H622 H 0.16036 0.19271 0.62160
 H623 H 0.16540 0.16546 0.66115
 H624 H 0.15398 0.15396 0.64952
 N625 N 0.32458 0.63483 0.33535
 N626 N 0.33454 0.63503 0.32538
 C627 C 0.33236 0.62396 0.31643
 C628 C 0.32045 0.61654 0.32113
 C629 C 0.31574 0.62365 0.33310
 H630 H 0.33886 0.62150 0.30720
 H631 H 0.30655 0.62094 0.33963
 Cu632 Cu 0.34933 0.64978 0.32511
 Cu633 Cu 0.32373 0.64905 0.35048
 Cu634 Cu 0.34994 0.67539 0.35024
 N635 N 0.36397 0.66468 0.32512
 N636 N 0.36412 0.67465 0.33501
 C637 C 0.37526 0.68354 0.33264
 C638 C 0.38240 0.67885 0.32066
 C639 C 0.37504 0.66690 0.31610
 H640 H 0.37795 0.69273 0.33911
 H641 H 0.37757 0.66037 0.30692
 N642 N 0.33470 0.67440 0.36479
 N643 N 0.32470 0.66436 0.36488
 C644 C 0.31587 0.66657 0.37607
 C645 C 0.32060 0.67850 0.38327
 C646 C 0.33250 0.68325 0.37592
 H647 H 0.30666 0.66005 0.37878
 H648 H 0.33900 0.69249 0.37848
 H649 H 0.33361 0.66527 0.33918
 H650 H 0.34539 0.65368 0.35049
 N651 N 0.32328 0.13613 0.83407
 N652 N 0.33426 0.13514 0.82527
 C653 C 0.33269 0.12333 0.81716
 C654 C 0.32007 0.11671 0.82117
 C655 C 0.31432 0.12505 0.83186
 H656 H 0.34003 0.11988 0.80889
 H657 H 0.30439 0.12322 0.83760
 Cu658 Cu 0.34935 0.14953 0.82529
 Cu659 Cu 0.32124 0.15187 0.84753
 Cu660 Cu 0.35036 0.17494 0.85048
 N661 N 0.36426 0.16409 0.82527
 N662 N 0.36473 0.17387 0.83534
 C663 C 0.37602 0.18257 0.83298
 C664 C 0.38293 0.17795 0.82083
 C665 C 0.37526 0.16624 0.81615
 H666 H 0.37891 0.19165 0.83952
 H667 H 0.37746 0.15989 0.80676
 N668 N 0.33451 0.17437 0.86445
 N669 N 0.32328 0.16583 0.86313
 C670 C 0.31424 0.16809 0.87413
 C671 C 0.32009 0.17854 0.88267
 C672 C 0.33287 0.18235 0.87630
 H673 H 0.30417 0.16256 0.87582
 H674 H 0.34032 0.19042 0.87997
 H675 H 0.33443 0.16716 0.83786
 H676 H 0.34312 0.15381 0.84999
 N677 N 0.82485 0.63484 0.83544
 N678 N 0.83484 0.63510 0.82550
 C679 C 0.83269 0.62408 0.81649
 C680 C 0.82078 0.61662 0.82112
 C681 C 0.81603 0.62367 0.83312
 H682 H 0.83919 0.62168 0.80724
 H683 H 0.80682 0.62093 0.83960
 Cu684 Cu 0.84956 0.64989 0.82532
 Cu685 Cu 0.82393 0.64903 0.85060
 Cu686 Cu 0.85006 0.67549 0.85046
 N687 N 0.86417 0.66480 0.82536
 N688 N 0.86428 0.67478 0.83524
 C689 C 0.87539 0.68370 0.83285
 C690 C 0.88255 0.67901 0.82087
 C691 C 0.87522 0.66704 0.81632
 H692 H 0.87805 0.69291 0.83931
 H693 H 0.87775 0.66053 0.80714
 N694 N 0.83477 0.67440 0.86497
 N695 N 0.82482 0.66432 0.86503
 C696 C 0.81595 0.66648 0.87620
 C697 C 0.82061 0.67843 0.88342
 C698 C 0.83250 0.68323 0.87610
 H699 H 0.80677 0.65991 0.87887
 H700 H 0.83896 0.69249 0.87868
 H701 H 0.83382 0.66534 0.83936
 H702 H 0.84562 0.65377 0.85069
 N703 N 0.82478 0.13472 0.33565
 N704 N 0.83481 0.13494 0.32575
 C705 C 0.83269 0.12388 0.31677
 C706 C 0.82078 0.11643 0.32139
 C707 C 0.81598 0.12353 0.33335
 H708 H 0.83925 0.12144 0.30756
 H709 H 0.80676 0.12078 0.33983
 Cu710 Cu 0.84962 0.14965 0.32567
 Cu711 Cu 0.82379 0.14898 0.35074
 Cu712 Cu 0.84988 0.17548 0.35054
 N713 N 0.86410 0.16468 0.32554
 N714 N 0.86417 0.17472 0.33537
 C715 C 0.87526 0.18366 0.33295
 C716 C 0.88245 0.17893 0.32100
 C717 C 0.87516 0.16692 0.31651
 H718 H 0.87789 0.19290 0.33937
 H719 H 0.87773 0.16035 0.30737
 N720 N 0.83454 0.17445 0.36501
 N721 N 0.82461 0.16435 0.36509
 C722 C 0.81571 0.16654 0.37623
 C723 C 0.82033 0.17852 0.38340
 C724 C 0.83223 0.18332 0.37609
 H725 H 0.80654 0.15996 0.37892
 H726 H 0.83867 0.19260 0.37865
 H727 H 0.83370 0.16518 0.33942
 H728 H 0.84541 0.15377 0.35097
 N729 N 0.67510 0.36446 0.33542
 N730 N 0.66511 0.36437 0.32551
 C731 C 0.66734 0.37543 0.31652
 C732 C 0.67931 0.38276 0.32112
 C733 C 0.68401 0.37559 0.33309
 H734 H 0.66080 0.37798 0.30733
 H735 H 0.69321 0.37826 0.33959
 Cu736 Cu 0.65014 0.34982 0.32544
 Cu737 Cu 0.67584 0.35019 0.35058
 Cu738 Cu 0.64949 0.32394 0.35038
 N739 N 0.63554 0.33493 0.32532
 N740 N 0.63532 0.32485 0.33515
 C741 C 0.62418 0.31600 0.33268
 C742 C 0.61712 0.32084 0.32070
 C743 C 0.62453 0.33282 0.31624
 H744 H 0.62144 0.30675 0.33909
 H745 H 0.62209 0.33944 0.30708
 N746 N 0.66472 0.32483 0.36491
 N747 N 0.67476 0.33483 0.36500
 C748 C 0.68354 0.33257 0.37620
 C749 C 0.67872 0.32063 0.38342
 C750 C 0.66685 0.31594 0.37606
 H751 H 0.69274 0.33906 0.37891
 H752 H 0.66029 0.30674 0.37865
 H753 H 0.66581 0.33408 0.33927
 H754 H 0.65415 0.34559 0.35076
 N755 N 0.67509 0.86457 0.83502
 N756 N 0.66503 0.86450 0.82518
 C757 C 0.66725 0.87554 0.81615
 C758 C 0.67928 0.88282 0.82066
 C759 C 0.68403 0.87565 0.83261
 H760 H 0.66066 0.87811 0.80701
 H761 H 0.69327 0.87830 0.83907
 Cu762 Cu 0.64998 0.85006 0.82522
 Cu763 Cu 0.67582 0.85036 0.85023
 Cu764 Cu 0.64931 0.82427 0.85027
 N765 N 0.63531 0.83521 0.82521
 N766 N 0.63509 0.82517 0.83507
 C767 C 0.62394 0.81632 0.83263
 C768 C 0.61689 0.82113 0.82062
 C769 C 0.62432 0.83308 0.81613
 H770 H 0.62120 0.80708 0.83905
 H771 H 0.62191 0.83964 0.80692
 N772 N 0.66461 0.82514 0.86475
 N773 N 0.67472 0.83507 0.86473
 C774 C 0.68355 0.83279 0.87589
 C775 C 0.67870 0.82092 0.88319
 C776 C 0.66674 0.81628 0.87592
 H777 H 0.69282 0.83923 0.87851
 H778 H 0.66015 0.80712 0.87857
 H779 H 0.66564 0.83429 0.83903
 H780 H 0.65412 0.84591 0.85053
 N781 N 0.17559 0.36423 0.83496
 N782 N 0.16592 0.36376 0.82476
 C783 C 0.16819 0.37474 0.81567
 C784 C 0.17985 0.38239 0.82051
 C785 C 0.18433 0.37550 0.83273
 H786 H 0.16188 0.37702 0.80627
 H787 H 0.19324 0.37849 0.83948
 Cu788 Cu 0.15119 0.34898 0.82438
 Cu789 Cu 0.17610 0.35024 0.85036
 Cu790 Cu 0.14956 0.32425 0.85052
 N791 N 0.13610 0.33458 0.82496
 N792 N 0.13549 0.32497 0.83521
 C793 C 0.12405 0.31641 0.83308
 C794 C 0.11721 0.32096 0.82086
 C795 C 0.12506 0.33246 0.81593
 H796 H 0.12094 0.30756 0.83987
 H797 H 0.12289 0.33875 0.80647
 N798 N 0.16472 0.32527 0.86511
 N799 N 0.17484 0.33518 0.86506
 C800 C 0.18364 0.33296 0.87625
 C801 C 0.17876 0.32114 0.88361
 C802 C 0.16682 0.31648 0.87634
 H803 H 0.19297 0.33936 0.87881
 H804 H 0.16024 0.30731 0.87899
 H805 H 0.16627 0.33374 0.83944
 H806 H 0.15434 0.34588 0.84999
 N807 N 0.17546 0.86429 0.33473
 N808 N 0.16586 0.86379 0.32447
 C809 C 0.16811 0.87482 0.31543
 C810 C 0.17970 0.88252 0.32036
 C811 C 0.18415 0.87562 0.33257
 H812 H 0.16182 0.87710 0.30601
 H813 H 0.19304 0.87860 0.33936
 Cu814 Cu 0.15127 0.84889 0.32395
 Cu815 Cu 0.17598 0.85027 0.35010
 Cu816 Cu 0.14968 0.82404 0.34997
 N817 N 0.13633 0.83434 0.32432
 N818 N 0.13575 0.82467 0.33454
 C819 C 0.12442 0.81600 0.33229
 C820 C 0.11761 0.82054 0.32005
 C821 C 0.12536 0.83215 0.31522
 H822 H 0.12138 0.80708 0.33901
 H823 H 0.12316 0.83850 0.30582
 N824 N 0.16471 0.82515 0.36468
 N825 N 0.17474 0.83515 0.36473
 C826 C 0.18346 0.83298 0.37599
 C827 C 0.17863 0.82111 0.38328
 C828 C 0.16679 0.81635 0.37590
 H829 H 0.19270 0.83946 0.37864
 H830 H 0.16027 0.80712 0.37848
 H831 H 0.16638 0.83374 0.33904
 H832 H 0.15425 0.84573 0.34955
 C833 C 0.24995 1.04407 0.25998
 C834 C 0.26036 1.04397 0.24963
 C835 C 0.26030 1.03035 0.24374
 N836 N 0.25020 1.02214 0.25012
 C837 C 0.24388 1.03051 0.26007
 C838 C 0.26874 1.02605 0.23198
 C839 C 0.27005 1.01162 0.22758
 C840 C 0.27567 1.00724 0.21461
 C841 C 0.27566 0.99248 0.21471
 C842 C 0.27005 0.98826 0.22775
 N843 N 0.26674 0.99999 0.23557
 C844 C 0.26871 0.97386 0.23234
 C845 C 0.26029 0.96975 0.24419
 C846 C 0.26016 0.95613 0.25014
 C847 C 0.24974 0.95623 0.26049
 C848 C 0.24390 0.96993 0.26055
 N849 N 0.25033 0.97816 0.25055
 C850 C 0.23211 0.97427 0.26898
 C851 C 0.22751 0.98866 0.27018
 C852 C 0.21451 0.99300 0.27602
 C853 C 0.21447 1.00776 0.27587
 C854 C 0.22747 1.01201 0.26998
 N855 N 0.23538 1.00030 0.26662
 C856 C 0.23204 1.02639 0.26857
 H857 H 0.24713 1.05313 0.26662
 H858 H 0.26714 1.05292 0.24672
 H859 H 0.24612 1.00026 0.26355
 H860 H 0.27939 1.01397 0.20596
 H861 H 0.27936 0.98565 0.20615
 H862 H 0.26677 0.94702 0.24724
 H863 H 0.24670 0.94722 0.26712
 H864 H 0.20587 1.01459 0.27972
 H865 H 0.26384 1.00006 0.24626
 H866 H 0.20596 0.98624 0.28003
 C867 C 0.26059 0.45562 0.74975
 C868 C 0.25011 0.45568 0.76004
 C869 C 0.24426 0.46937 0.76009
 N870 N 0.25073 0.47763 0.75014
 C871 C 0.26075 0.46924 0.74381
 C872 C 0.23245 0.47370 0.76853
 C873 C 0.22782 0.48808 0.76977
 C874 C 0.21480 0.49237 0.77562
 C875 C 0.21474 0.50713 0.77555
 C876 C 0.22774 0.51144 0.76970
 N877 N 0.23567 0.49975 0.76627
 C878 C 0.23226 0.52584 0.76836
 C879 C 0.24412 0.53001 0.75991
 C880 C 0.25014 0.54359 0.75986
 C881 C 0.26061 0.54353 0.74957
 C882 C 0.26064 0.52991 0.74368
 N883 N 0.25054 0.52167 0.75000
 C884 C 0.26916 0.52564 0.73197
 C885 C 0.27050 0.51123 0.72750
 C886 C 0.27623 0.50692 0.71455
 C887 C 0.27628 0.49217 0.71458
 C888 C 0.27059 0.48786 0.72756
 N889 N 0.26717 0.49955 0.73540
 C890 C 0.26933 0.47344 0.73210
 H891 H 0.26726 0.44653 0.74689
 H892 H 0.24707 0.44666 0.76665
 H893 H 0.26421 0.49957 0.74608
 H894 H 0.20628 0.48557 0.77961
 H895 H 0.20613 0.51392 0.77945
 H896 H 0.24722 0.55264 0.76647
 H897 H 0.26738 0.55251 0.74671
 H898 H 0.28007 0.48540 0.70601
 H899 H 0.24641 0.49973 0.76321
 H900 H 0.28001 0.51371 0.70596
 C901 C 0.76064 -0.04415 0.25003
 C902 C 0.75023 -0.04410 0.23971
 C903 C 0.74432 -0.03043 0.23961
 N904 N 0.75070 -0.02217 0.24956
 C905 C 0.76069 -0.03054 0.25594
 C906 C 0.73251 -0.02615 0.23118
 C907 C 0.72782 -0.01179 0.22996
 C908 C 0.71477 -0.00752 0.22417
 C909 C 0.71462 0.00724 0.22433
 C910 C 0.72759 0.01156 0.23015
 N911 N 0.73560 -0.00010 0.23348
 C912 C 0.73204 0.02597 0.23153
 C913 C 0.74388 0.03017 0.23995
 C914 C 0.74985 0.04377 0.23998
 C915 C 0.76030 0.04371 0.25027
 C916 C 0.76036 0.03008 0.25619
 N917 N 0.75030 0.02182 0.24988
 C918 C 0.76886 0.02580 0.26791
 C919 C 0.77024 0.01137 0.27236
 C920 C 0.77590 0.00700 0.28532
 C921 C 0.77596 -0.00775 0.28528
 C922 C 0.77036 -0.01199 0.27228
 N923 N 0.76698 -0.00027 0.26443
 C924 C 0.76909 -0.02639 0.26775
 H925 H 0.76729 -0.05323 0.25296
 H926 H 0.74725 -0.05312 0.23312
 H927 H 0.76406 -0.00020 0.25375
 H928 H 0.70627 -0.01433 0.22021
 H929 H 0.70596 0.01401 0.22051
 H930 H 0.74693 0.05282 0.23333
 H931 H 0.76702 0.05272 0.25313
 H932 H 0.77972 -0.01457 0.29385
 H933 H 0.74635 -0.00007 0.23651
 H934 H 0.77960 0.01375 0.29393
 C935 C 0.75050 0.45599 0.73992
 C936 C 0.76091 0.45608 0.75025
 C937 C 0.76081 0.46971 0.75612
 N938 N 0.75071 0.47794 0.74972
 C939 C 0.74444 0.46958 0.73978
 C940 C 0.76922 0.47403 0.76787
 C941 C 0.77027 0.48847 0.77232
 C942 C 0.77585 0.49286 0.78528
 C943 C 0.77561 0.50762 0.78523
 C944 C 0.76985 0.51183 0.77225
 N945 N 0.76670 0.50010 0.76442
 C946 C 0.76833 0.52622 0.76770
 C947 C 0.75970 0.53036 0.75602
 C948 C 0.75945 0.54396 0.75004
 C949 C 0.74892 0.54386 0.73983
 C950 C 0.74311 0.53019 0.73990
 N951 N 0.74970 0.52196 0.74982
 C952 C 0.73128 0.52581 0.73158
 C953 C 0.72706 0.51133 0.73026
 C954 C 0.71412 0.50678 0.72452
 C955 C 0.71452 0.49203 0.72439
 C956 C 0.72767 0.48799 0.73013
 N957 N 0.73528 0.49981 0.73359
 C958 C 0.73260 0.47371 0.73132
 H959 H 0.74764 0.44692 0.73335
 H960 H 0.76768 0.44709 0.75317
 H961 H 0.74604 0.50000 0.73655
 H962 H 0.77972 0.48615 0.79388
 H963 H 0.77927 0.51446 0.79377
 H964 H 0.76609 0.55305 0.75281
 H965 H 0.74585 0.55285 0.73317
 H966 H 0.70612 0.48508 0.72048
 H967 H 0.76376 0.50009 0.75374
 H968 H 0.70534 0.51340 0.72073
 C969 C 0.25982 0.54386 0.25009
 C970 C 0.24939 0.54391 0.23978
 C971 C 0.24344 0.53030 0.23973
 N972 N 0.24987 0.52195 0.24965
 C973 C 0.25990 0.53022 0.25598
 C974 C 0.23164 0.52609 0.23126
 C975 C 0.22720 0.51168 0.22988
 C976 C 0.21425 0.50734 0.22402
 C977 C 0.21443 0.49258 0.22384
 C978 C 0.22748 0.48832 0.22964
 N979 N 0.23522 0.50002 0.23321
 C980 C 0.23222 0.47397 0.23079
 C981 C 0.24405 0.46970 0.23919
 C982 C 0.25003 0.45606 0.23921
 C983 C 0.26046 0.45602 0.24952
 C984 C 0.26046 0.46961 0.25548
 N985 N 0.25041 0.47795 0.24916
 C986 C 0.26887 0.47375 0.26728
 C987 C 0.27008 0.48813 0.27187
 C988 C 0.27566 0.49233 0.28489
 C989 C 0.27554 0.50708 0.28501
 C990 C 0.26987 0.51149 0.27206
 N991 N 0.26666 0.49987 0.26408
 C992 C 0.26842 0.52593 0.26768
 H993 H 0.26653 0.55286 0.25296
 H994 H 0.24648 0.55297 0.23315
 H995 H 0.26376 0.49998 0.25339
 H996 H 0.20560 0.51410 0.22018
 H997 H 0.20596 0.48576 0.21984
 H998 H 0.24708 0.44705 0.23259
 H999 H 0.26717 0.44697 0.25239
 H1000 H 0.27921 0.51380 0.29365
 H1001 H 0.24596 0.50008 0.23626
 H1002 H 0.27943 0.48548 0.29344
 C1003 C 0.74944 1.04439 0.76043
 C1004 C 0.75997 1.04434 0.75020
 C1005 C 0.76002 1.03074 0.74427
 N1006 N 0.74988 1.02249 0.75052
 C1007 C 0.74341 1.03081 0.76043
 C1008 C 0.76860 1.02648 0.73260
 C1009 C 0.76992 1.01207 0.72814
 C1010 C 0.77559 1.00775 0.71517
 C1011 C 0.77557 0.99300 0.71521
 C1012 C 0.76991 0.98872 0.72821
 N1013 N 0.76657 1.00041 0.73606
 C1014 C 0.76857 0.97431 0.73274
 C1015 C 0.76012 0.97014 0.74454
 C1016 C 0.76002 0.95652 0.75049
 C1017 C 0.74953 0.95656 0.76077
 C1018 C 0.74363 0.97023 0.76081
 N1019 N 0.75009 0.97850 0.75086
 C1020 C 0.73176 0.97451 0.76917
 C1021 C 0.72710 0.98888 0.77034
 C1022 C 0.71404 0.99317 0.77607
 C1023 C 0.71394 1.00793 0.77592
 C1024 C 0.72697 1.01223 0.77015
 N1025 N 0.73496 1.00055 0.76684
 C1026 C 0.73150 1.02663 0.76879
 H1027 H 0.74650 1.05342 0.76705
 H1028 H 0.76675 1.05333 0.74738
 H1029 H 0.74572 1.00056 0.76386
 H1030 H 0.77935 1.01452 0.70657
 H1031 H 0.77931 0.98620 0.70663
 H1032 H 0.76670 0.94744 0.74762
 H1033 H 0.74650 0.94753 0.76737
 H1034 H 0.70529 1.01472 0.77972
 H1035 H 0.76363 1.00044 0.74675
 H1036 H 0.70548 0.98637 0.78001
 C1037 C 0.74445 0.45500 0.25477
 C1038 C 0.75535 0.45498 0.24494
 C1039 C 0.75850 0.46923 0.24205
 N1040 N 0.74992 0.47790 0.24987
 C1041 C 0.74133 0.46925 0.25768
 C1042 C 0.76886 0.47382 0.23199
 C1043 C 0.77196 0.48835 0.22876
 C1044 C 0.78053 0.49269 0.21745
 C1045 C 0.78059 0.50741 0.21750
 C1046 C 0.77206 0.51175 0.22883
 N1047 N 0.76707 0.50004 0.23582
 C1048 C 0.76905 0.52628 0.23214
 C1049 C 0.75867 0.53089 0.24219
 C1050 C 0.75555 0.54514 0.24510
 C1051 C 0.74463 0.54515 0.25490
 C1052 C 0.74146 0.53091 0.25777
 N1053 N 0.75005 0.52224 0.24997
 C1054 C 0.73106 0.52632 0.26779
 C1055 C 0.72797 0.51180 0.27105
 C1056 C 0.71939 0.50746 0.28235
 C1057 C 0.71936 0.49274 0.28233
 C1058 C 0.72792 0.48839 0.27102
 N1059 N 0.73290 0.50009 0.26402
 C1060 C 0.73095 0.47387 0.26773
 H1061 H 0.73946 0.44556 0.25930
 H1062 H 0.76032 0.44553 0.24041
 H1063 H 0.73851 0.50010 0.25448
 H1064 H 0.78598 0.48596 0.20976
 H1065 H 0.78609 0.51416 0.20985
 H1066 H 0.76055 0.55458 0.24059
 H1067 H 0.73966 0.55461 0.25944
 H1068 H 0.71386 0.48600 0.28999
 H1069 H 0.76148 0.50003 0.24537
 H1070 H 0.71392 0.51420 0.29002
 C1071 C 0.25050 -0.04433 0.73955
 C1072 C 0.26097 -0.04450 0.74982
 C1073 C 0.26105 -0.03095 0.75588
 N1074 N 0.25101 -0.02252 0.74965
 C1075 C 0.24459 -0.03067 0.73963
 C1076 C 0.26949 -0.02693 0.76770
 C1077 C 0.27069 -0.01260 0.77244
 C1078 C 0.27626 -0.00852 0.78550
 C1079 C 0.27609 0.00623 0.78578
 C1080 C 0.27041 0.01075 0.77287
 N1081 N 0.26724 -0.00078 0.76477
 C1082 C 0.26896 0.02524 0.76862
 C1083 C 0.26053 0.02964 0.75690
 C1084 C 0.26052 0.04332 0.75110
 C1085 C 0.25013 0.04350 0.74077
 C1086 C 0.24413 0.02992 0.74059
 N1087 N 0.25049 0.02146 0.75047
 C1088 C 0.23231 0.02583 0.73211
 C1089 C 0.22784 0.01143 0.73062
 C1090 C 0.21484 0.00716 0.72481
 C1091 C 0.21498 -0.00759 0.72456
 C1092 C 0.22805 -0.01192 0.73026
 N1093 N 0.23585 -0.00026 0.73384
 C1094 C 0.23274 -0.02629 0.73131
 H1095 H 0.24749 -0.05329 0.73289
 H1096 H 0.26765 -0.05360 0.75261
 H1097 H 0.24661 -0.00027 0.73683
 H1098 H 0.28005 -0.01545 0.79398
 H1099 H 0.27975 0.01286 0.79448
 H1100 H 0.26725 0.05228 0.75407
 H1101 H 0.24725 0.05263 0.73421
 H1102 H 0.20646 -0.01437 0.72057
 H1103 H 0.26433 -0.00057 0.75408
 H1104 H 0.20618 0.01397 0.72108
 C1105 C 0.24979 0.25966 0.95616
 C1106 C 0.26014 0.24915 0.95614
 C1107 C 0.26018 0.24319 0.96967
 N1108 N 0.25021 0.24969 0.97795
 C1109 C 0.24386 0.25978 0.96971
 C1110 C 0.26861 0.23128 0.97385
 C1111 C 0.26993 0.22671 0.98816
 C1112 C 0.27559 0.21361 0.99242
 C1113 C 0.27560 0.21359 1.00707
 C1114 C 0.26995 0.22668 1.01134
 N1115 N 0.26660 0.23464 0.99975
 C1116 C 0.26871 0.23122 1.02564
 C1117 C 0.26039 0.24320 1.02984
 C1118 C 0.26050 0.24918 1.04334
 C1119 C 0.25024 0.25976 1.04336
 C1120 C 0.24419 0.25989 1.02988
 N1121 N 0.25040 0.24974 1.02163
 C1122 C 0.23242 0.26855 1.02574
 C1123 C 0.22782 0.26994 1.01146
 C1124 C 0.21481 0.27588 1.00725
 C1125 C 0.21472 0.27584 0.99260
 C1126 C 0.22767 0.26986 0.98827
 N1127 N 0.23564 0.26639 0.99982
 C1128 C 0.23211 0.26841 0.97393
 H1129 H 0.24691 0.26638 0.94719
 H1130 H 0.26679 0.24618 0.94714
 H1131 H 0.24636 0.26321 0.99976
 H1132 H 0.27935 0.20497 0.98569
 H1133 H 0.27938 0.20494 1.01381
 H1134 H 0.26720 0.24617 1.05228
 H1135 H 0.24746 0.26651 1.05232
 H1136 H 0.20609 0.27978 0.98591
 H1137 H 0.26369 0.24541 0.99974
 H1138 H 0.20627 0.27987 1.01403
 C1139 C 0.25000 0.76047 0.54335
 C1140 C 0.26034 0.74997 0.54338
 C1141 C 0.26032 0.74397 0.52989
 N1142 N 0.25031 0.75043 0.52164
 C1143 C 0.24400 0.76055 0.52985
 C1144 C 0.26875 0.73204 0.52574
 C1145 C 0.27006 0.72746 0.51146
 C1146 C 0.27584 0.71441 0.50724
 C1147 C 0.27582 0.71436 0.49259
 C1148 C 0.27003 0.72738 0.48826
 N1149 N 0.26664 0.73534 0.49982
 C1150 C 0.26868 0.73187 0.47394
 C1151 C 0.26019 0.74373 0.46971
 C1152 C 0.26014 0.74965 0.45615
 C1153 C 0.24977 0.76013 0.45613
 C1154 C 0.24382 0.76027 0.46967
 N1155 N 0.25019 0.75023 0.47795
 C1156 C 0.23202 0.76887 0.47385
 C1157 C 0.22755 0.77034 0.48817
 C1158 C 0.21454 0.77624 0.49246
 C1159 C 0.21459 0.77632 0.50711
 C1160 C 0.22763 0.77046 0.51136
 N1161 N 0.23550 0.76693 0.49975
 C1162 C 0.23219 0.76913 0.52566
 H1163 H 0.24714 0.76721 0.55230
 H1164 H 0.26703 0.74701 0.55235
 H1165 H 0.24624 0.76382 0.49972
 H1166 H 0.27971 0.70582 0.51401
 H1167 H 0.27968 0.70573 0.48589
 H1168 H 0.26682 0.74667 0.44718
 H1169 H 0.24688 0.76681 0.44713
 H1170 H 0.20601 0.78027 0.51386
 H1171 H 0.26361 0.74608 0.49977
 H1172 H 0.20591 0.78011 0.48574
 C1173 C 0.25010 0.73963 -0.04395
 C1174 C 0.26056 0.74996 -0.04392
 C1175 C 0.26053 0.75593 -0.03042
 N1176 N 0.25040 0.74963 -0.02221
 C1177 C 0.24402 0.73964 -0.03046
 C1178 C 0.26904 0.76771 -0.02623
 C1179 C 0.27032 0.77224 -0.01193
 C1180 C 0.27612 0.78523 -0.00768
 C1181 C 0.27604 0.78524 0.00698
 C1182 C 0.27018 0.77227 0.01127
 N1183 N 0.26680 0.76438 -0.00032
 C1184 C 0.26872 0.76778 0.02558
 C1185 C 0.26010 0.75605 0.02977
 C1186 C 0.25990 0.75011 0.04331
 C1187 C 0.24940 0.73983 0.04328
 C1188 C 0.24354 0.73982 0.02972
 N1189 N 0.25007 0.74976 0.02147
 C1190 C 0.23167 0.73144 0.02549
 C1191 C 0.22725 0.73007 0.01116
 C1192 C 0.21422 0.72436 0.00683
 C1193 C 0.21435 0.72429 -0.00781
 C1194 C 0.22745 0.72997 -0.01203
 N1195 N 0.23529 0.73338 -0.00040
 C1196 C 0.23211 0.73124 -0.02631
 H1197 H 0.24722 0.73295 -0.05291
 H1198 H 0.26734 0.75281 -0.05286
 H1199 H 0.24605 0.73634 -0.00034
 H1200 H 0.28004 0.79380 -0.01442
 H1201 H 0.27988 0.79383 0.01370
 H1202 H 0.26655 0.75297 0.05231
 H1203 H 0.24637 0.73319 0.05226
 H1204 H 0.20578 0.72046 -0.01458
 H1205 H 0.26373 0.75367 -0.00030
 H1206 H 0.20553 0.72058 0.01353
 C1207 C 0.25001 0.23920 0.45691
 C1208 C 0.26044 0.24956 0.45681
 C1209 C 0.26052 0.25556 0.47031
 N1210 N 0.25053 0.24920 0.47864
 C1211 C 0.24413 0.23916 0.47048
 C1212 C 0.26891 0.26746 0.47439
 C1213 C 0.27020 0.27208 0.48866
 C1214 C 0.27580 0.28518 0.49282
 C1215 C 0.27579 0.28527 0.50747
 C1216 C 0.27016 0.27223 0.51185
 N1217 N 0.26687 0.26421 0.50033
 C1218 C 0.26884 0.26779 0.52620
 C1219 C 0.26030 0.25604 0.53049
 C1220 C 0.26025 0.25012 0.54404
 C1221 C 0.24977 0.23981 0.54414
 C1222 C 0.24377 0.23977 0.53063
 N1223 N 0.25020 0.24972 0.52231
 C1224 C 0.23193 0.23128 0.52650
 C1225 C 0.22746 0.22982 0.51220
 C1226 C 0.21451 0.22388 0.50793
 C1227 C 0.21464 0.22369 0.49328
 C1228 C 0.22765 0.22955 0.48902
 N1229 N 0.23543 0.23316 0.50062
 C1230 C 0.23231 0.23073 0.47476
 H1231 H 0.24700 0.23254 0.44797
 H1232 H 0.26708 0.25245 0.44778
 H1233 H 0.24616 0.23623 0.50064
 H1234 H 0.27951 0.29380 0.48601
 H1235 H 0.27950 0.29395 0.51414
 H1236 H 0.26701 0.25298 0.55296
 H1237 H 0.24685 0.23316 0.55314
 H1238 H 0.20615 0.21963 0.48653
 H1239 H 0.26396 0.25346 0.50044
 H1240 H 0.20589 0.22001 0.51467
 C1241 C 0.74962 0.76007 0.95619
 C1242 C 0.75999 0.74960 0.95619
 C1243 C 0.76008 0.74370 0.96976
 N1244 N 0.75010 0.75020 0.97802
 C1245 C 0.74371 0.76023 0.96975
 C1246 C 0.76859 0.73186 0.97398
 C1247 C 0.77002 0.72741 0.98832
 C1248 C 0.77586 0.71442 0.99266
 C1249 C 0.77596 0.71453 1.00731
 C1250 C 0.77017 0.72758 1.01151
 N1251 N 0.76666 0.73540 0.99987
 C1252 C 0.76894 0.73222 1.02578
 C1253 C 0.76046 0.74410 1.02994
 C1254 C 0.76049 0.75012 1.04342
 C1255 C 0.75009 0.76057 1.04342
 C1256 C 0.74405 0.76060 1.02993
 N1257 N 0.75038 0.75050 1.02171
 C1258 C 0.73220 0.76913 1.02576
 C1259 C 0.72760 0.77044 1.01147
 C1260 C 0.71454 0.77627 1.00724
 C1261 C 0.71447 0.77619 0.99259
 C1262 C 0.72747 0.77031 0.98828
 N1263 N 0.73545 0.76692 0.99985
 C1264 C 0.73192 0.76884 0.97395
 H1265 H 0.74670 0.76674 0.94719
 H1266 H 0.76665 0.74660 0.94721
 H1267 H 0.74620 0.76382 0.99980
 H1268 H 0.77970 0.70578 0.98598
 H1269 H 0.77989 0.70598 1.01410
 H1270 H 0.76723 0.74722 1.05237
 H1271 H 0.74724 0.76731 1.05236
 H1272 H 0.70582 0.78005 0.98588
 H1273 H 0.76361 0.74613 0.99979
 H1274 H 0.70596 0.78019 1.01400
 C1275 C 0.75987 0.24954 0.45642
 C1276 C 0.74949 0.26000 0.45645
 C1277 C 0.74359 0.26012 0.47001
 N1278 N 0.75000 0.25007 0.47826
 C1279 C 0.75998 0.24360 0.46997
 C1280 C 0.73178 0.26869 0.47424
 C1281 C 0.72733 0.27010 0.48857
 C1282 C 0.71433 0.27597 0.49290
 C1283 C 0.71440 0.27598 0.50755
 C1284 C 0.72745 0.27012 0.51176
 N1285 N 0.73531 0.26665 0.50013
 C1286 C 0.73205 0.26876 0.52604
 C1287 C 0.74390 0.26022 0.53018
 C1288 C 0.74996 0.26017 0.54366
 C1289 C 0.76036 0.24972 0.54363
 C1290 C 0.76031 0.24372 0.53014
 N1291 N 0.75023 0.25014 0.52194
 C1292 C 0.76876 0.23184 0.52595
 C1293 C 0.77001 0.22727 0.51166
 C1294 C 0.77574 0.21421 0.50740
 C1295 C 0.77565 0.21418 0.49275
 C1296 C 0.76987 0.22722 0.48846
 N1297 N 0.76654 0.23517 0.50005
 C1298 C 0.76846 0.23173 0.47415
 H1299 H 0.76651 0.24657 0.44742
 H1300 H 0.74654 0.26668 0.44747
 H1301 H 0.76354 0.24591 0.50002
 H1302 H 0.70569 0.27987 0.48621
 H1303 H 0.70582 0.27989 0.51432
 H1304 H 0.74711 0.26689 0.55262
 H1305 H 0.76711 0.24680 0.55257
 H1306 H 0.77944 0.20554 0.48603
 H1307 H 0.74605 0.26355 0.50007
 H1308 H 0.77962 0.20561 0.51415
 C1309 C 0.73967 0.25054 -0.04418
 C1310 C 0.74999 0.26100 -0.04411
 C1311 C 0.75585 0.26104 -0.03055
 N1312 N 0.74954 0.25090 -0.02237
 C1313 C 0.73963 0.24447 -0.03068
 C1314 C 0.76757 0.26960 -0.02629
 C1315 C 0.77221 0.27075 -0.01203
 C1316 C 0.78515 0.27671 -0.00780
 C1317 C 0.78529 0.27640 0.00686
 C1318 C 0.77240 0.27032 0.01116
 N1319 N 0.76446 0.26699 -0.00041
 C1320 C 0.76796 0.26870 0.02548
 C1321 C 0.75619 0.26011 0.02962
 C1322 C 0.75018 0.25992 0.04314
 C1323 C 0.73982 0.24949 0.04306
 C1324 C 0.73985 0.24365 0.02950
 N1325 N 0.74987 0.25014 0.02130
 C1326 C 0.73146 0.23183 0.02522
 C1327 C 0.73018 0.22746 0.01088
 C1328 C 0.72469 0.21439 0.00650
 C1329 C 0.72465 0.21457 -0.00815
 C1330 C 0.73010 0.22777 -0.01231
 N1331 N 0.73336 0.23559 -0.00065
 C1332 C 0.73131 0.23249 -0.02658
 H1333 H 0.73307 0.24762 -0.05319
 H1334 H 0.75295 0.26773 -0.05305
 H1335 H 0.73614 0.24638 -0.00053
 H1336 H 0.79360 0.28089 -0.01456
 H1337 H 0.79388 0.28030 0.01357
 H1338 H 0.75302 0.26655 0.05215
 H1339 H 0.73309 0.24650 0.05199
 H1340 H 0.72101 0.20596 -0.01495
 H1341 H 0.75376 0.26379 -0.00037
 H1342 H 0.72108 0.20562 0.01316
 C1343 C 0.73953 0.75023 0.45701
 C1344 C 0.74992 0.76063 0.45706
 C1345 C 0.75577 0.76067 0.47062
 N1346 N 0.74939 0.75061 0.47883
 C1347 C 0.73944 0.74421 0.47053
 C1348 C 0.76755 0.76915 0.47485
 C1349 C 0.77218 0.77033 0.48911
 C1350 C 0.78517 0.77621 0.49333
 C1351 C 0.78528 0.77600 0.50798
 C1352 C 0.77233 0.77004 0.51229
 N1353 N 0.76438 0.76670 0.50073
 C1354 C 0.76784 0.76856 0.52660
 C1355 C 0.75604 0.76002 0.53078
 C1356 C 0.75000 0.75992 0.54428
 C1357 C 0.73961 0.74953 0.54423
 C1358 C 0.73964 0.74362 0.53071
 N1359 N 0.74971 0.75003 0.52250
 C1360 C 0.73121 0.73180 0.52647
 C1361 C 0.72988 0.72740 0.51214
 C1362 C 0.72429 0.71435 0.50780
 C1363 C 0.72424 0.71449 0.49315
 C1364 C 0.72980 0.72763 0.48894
 N1365 N 0.73312 0.73546 0.50059
 C1366 C 0.73108 0.73228 0.47465
 H1367 H 0.73292 0.74732 0.44800
 H1368 H 0.75292 0.76731 0.44809
 H1369 H 0.73599 0.74623 0.50067
 H1370 H 0.79366 0.78029 0.48656
 H1371 H 0.79388 0.77987 0.51469
 H1372 H 0.75284 0.76660 0.55326
 H1373 H 0.73285 0.74661 0.55317
 H1374 H 0.72054 0.70589 0.48638
 H1375 H 0.75365 0.76360 0.50077
 H1376 H 0.72061 0.70564 0.51450
 C1377 C 1.04530 0.25559 0.24586
 C1378 C 1.04514 0.24576 0.25672
 C1379 C 1.03082 0.24275 0.25953
 N1380 N 1.02226 0.25051 0.25080
 C1381 C 1.03106 0.25838 0.24242
 C1382 C 1.02608 0.23254 0.26966
 C1383 C 1.01150 0.22890 0.27215
 C1384 C 1.00713 0.21734 0.28041
 C1385 C 0.99237 0.21709 0.27999
 C1386 C 0.98805 0.22851 0.27149
 N1387 N 0.99978 0.23581 0.26694
 C1388 C 0.97351 0.23170 0.26821
 C1389 C 0.96902 0.24167 0.25773
 C1390 C 0.95479 0.24452 0.25434
 C1391 C 0.95494 0.25437 0.24350
 C1392 C 0.96926 0.25734 0.24065
 N1393 N 0.97782 0.24953 0.24934
 C1394 C 0.97401 0.26755 0.23052
 C1395 C 0.98859 0.27114 0.22798
 C1396 C 0.99297 0.28266 0.21968
 C1397 C 1.00773 0.28288 0.22008
 C1398 C 1.01204 0.27149 0.22861
 N1399 N 1.00030 0.26423 0.23319
 C1400 C 1.02657 0.26832 0.23191
 H1401 H 1.05484 0.26015 0.24107
 H1402 H 1.05455 0.24123 0.26184
 H1403 H 1.00033 0.25456 0.23865
 H1404 H 1.01388 0.20969 0.28598
 H1405 H 0.98560 0.20920 0.28515
 H1406 H 0.94525 0.23996 0.25915
 H1407 H 0.94553 0.25894 0.23842
 H1408 H 1.01450 0.29075 0.21488
 H1409 H 0.99975 0.24550 0.26153
 H1410 H 0.98622 0.29030 0.21409
 C1411 C 0.45440 0.24557 0.75446
 C1412 C 0.45459 0.25651 0.74468
 C1413 C 0.46893 0.25949 0.74194
 N1414 N 0.47745 0.25077 0.74978
 C1415 C 0.46862 0.24224 0.75746
 C1416 C 0.47375 0.26985 0.73199
 C1417 C 0.48838 0.27259 0.72869
 C1418 C 0.49289 0.28132 0.71758
 C1419 C 0.50766 0.28098 0.71754
 C1420 C 0.51184 0.27206 0.72864
 N1421 N 0.50002 0.26718 0.73553
 C1422 C 0.52635 0.26869 0.73189
 C1423 C 0.53079 0.25805 0.74173
 C1424 C 0.54501 0.25464 0.74463
 C1425 C 0.54482 0.24371 0.75439
 C1426 C 0.53049 0.24079 0.75724
 N1427 N 0.52196 0.24956 0.74946
 C1428 C 0.52568 0.23053 0.76729
 C1429 C 0.51106 0.22781 0.77061
 C1430 C 0.50656 0.21919 0.78180
 C1431 C 0.49179 0.21952 0.78185
 C1432 C 0.48759 0.22834 0.77067
 N1433 N 0.49941 0.23313 0.76371
 C1434 C 0.47307 0.23167 0.76738
 H1435 H 0.44484 0.24067 0.75887
 H1436 H 0.44520 0.26158 0.74005
 H1437 H 0.49949 0.23885 0.75425
 H1438 H 0.48624 0.28719 0.71011
 H1439 H 0.51452 0.28653 0.71003
 H1440 H 0.55458 0.25949 0.74018
 H1441 H 0.55421 0.23858 0.75896
 H1442 H 0.48494 0.21405 0.78943
 H1443 H 0.49993 0.26135 0.74492
 H1444 H 0.51322 0.21340 0.78933
 C1445 C -0.04453 0.25101 0.76101
 C1446 C -0.04455 0.24049 0.75084
 C1447 C -0.03088 0.24027 0.74492
 N1448 N -0.02251 0.25026 0.75117
 C1449 C -0.03083 0.25681 0.76104
 C1450 C -0.02667 0.23172 0.73321
 C1451 C -0.01223 0.23037 0.72862
 C1452 C -0.00797 0.22465 0.71565
 C1453 C 0.00682 0.22463 0.71554
 C1454 C 0.01120 0.23034 0.72844
 N1455 N -0.00048 0.23373 0.73639
 C1456 C 0.02568 0.23167 0.73282
 C1457 C 0.02994 0.24022 0.74446
 C1458 C 0.04360 0.24025 0.75035
 C1459 C 0.04362 0.25073 0.76056
 C1460 C 0.02997 0.25676 0.76057
 N1461 N 0.02163 0.25033 0.75071
 C1462 C 0.02576 0.26865 0.76890
 C1463 C 0.01130 0.27321 0.77027
 C1464 C 0.00698 0.28623 0.77600
 C1465 C -0.00782 0.28620 0.77616
 C1466 C -0.01212 0.27319 0.77049
 N1467 N -0.00040 0.26529 0.76702
 C1468 C -0.02654 0.26864 0.76934
 H1469 H -0.05360 0.25413 0.76757
 H1470 H -0.05364 0.23386 0.74801
 H1471 H -0.00038 0.25455 0.76409
 H1472 H -0.01481 0.22088 0.70714
 H1473 H 0.01358 0.22084 0.70694
 H1474 H 0.05263 0.23347 0.74753
 H1475 H 0.05268 0.25363 0.76716
 H1476 H -0.01464 0.29477 0.78007
 H1477 H -0.00042 0.23672 0.74705
 H1478 H 0.01378 0.29483 0.77973
 C1479 C 0.54409 0.23960 0.24936
 C1480 C 0.54419 0.25007 0.25958
 C1481 C 0.53053 0.25608 0.25971
 N1482 N 0.52212 0.24966 0.24990
 C1483 C 0.53038 0.23957 0.24357
 C1484 C 0.52634 0.26793 0.26812
 C1485 C 0.51188 0.27240 0.26960
 C1486 C 0.50751 0.28538 0.27539
 C1487 C 0.49272 0.28523 0.27570
 C1488 C 0.48847 0.27221 0.27002
 N1489 N 0.50021 0.26441 0.26642
 C1490 C 0.47409 0.26753 0.26900
 C1491 C 0.46978 0.25571 0.26070
 C1492 C 0.45611 0.24984 0.26079
 C1493 C 0.45600 0.23943 0.25051
 C1494 C 0.46960 0.23932 0.24445
 N1495 N 0.47800 0.24930 0.25068
 C1496 C 0.47372 0.23090 0.23264
 C1497 C 0.48813 0.22960 0.22796
 C1498 C 0.49232 0.22397 0.21494
 C1499 C 0.50711 0.22402 0.21473
 C1500 C 0.51155 0.22970 0.22763
 N1501 N 0.49992 0.23298 0.23567
 C1502 C 0.52605 0.23107 0.23192
 H1503 H 0.55311 0.23285 0.24645
 H1504 H 0.55330 0.25298 0.26612
 H1505 H 0.50006 0.23592 0.24634
 H1506 H 0.51428 0.29402 0.27909
 H1507 H 0.48587 0.29373 0.27972
 H1508 H 0.44710 0.25286 0.26748
 H1509 H 0.44689 0.23282 0.24771
 H1510 H 0.51383 0.22030 0.20607
 H1511 H 0.50027 0.25368 0.26346
 H1512 H 0.48544 0.22021 0.20645
 C1513 C 1.04507 0.74585 0.75643
 C1514 C 1.04522 0.75572 0.74561
 C1515 C 1.03098 0.75858 0.74224
 N1516 N 1.02218 0.75072 0.75062
 C1517 C 1.03074 0.74289 0.75929
 C1518 C 1.02648 0.76858 0.73179
 C1519 C 1.01195 0.77182 0.72856
 C1520 C 1.00765 0.78327 0.72010
 C1521 C 0.99289 0.78309 0.71975
 C1522 C 0.98850 0.77153 0.72800
 N1523 N 1.00021 0.76456 0.73314
 C1524 C 0.97393 0.76796 0.73057
 C1525 C 0.96918 0.75771 0.74064
 C1526 C 0.95485 0.75477 0.74352
 C1527 C 0.95470 0.74486 0.75430
 C1528 C 0.96894 0.74196 0.75763
 N1529 N 0.97774 0.74984 0.74927
 C1530 C 0.97344 0.73193 0.76805
 C1531 C 0.98798 0.72870 0.77129
 C1532 C 0.99228 0.71724 0.77973
 C1533 C 1.00704 0.71746 0.78013
 C1534 C 1.01142 0.72904 0.77190
 N1535 N 0.99971 0.73599 0.76675
 C1536 C 1.02600 0.73265 0.76938
 H1537 H 1.05447 0.74127 0.76149
 H1538 H 1.05476 0.76027 0.74081
 H1539 H 0.99968 0.74571 0.76137
 H1540 H 1.01444 0.79114 0.71492
 H1541 H 0.98615 0.79078 0.71422
 H1542 H 0.94545 0.75939 0.73849
 H1543 H 0.94516 0.74030 0.75910
 H1544 H 1.01379 0.70978 0.78566
 H1545 H 1.00023 0.75486 0.73854
 H1546 H 0.98550 0.70934 0.78488
 C1547 C 0.54514 0.75522 0.24494
 C1548 C 0.54511 0.74544 0.25584
 C1549 C 0.53083 0.74244 0.25883
 N1550 N 0.52216 0.75015 0.25016
 C1551 C 0.53086 0.75799 0.24167
 C1552 C 0.52619 0.73236 0.26912
 C1553 C 0.51164 0.72884 0.27187
 C1554 C 0.50732 0.71731 0.28018
 C1555 C 0.49256 0.71722 0.28006
 C1556 C 0.48818 0.72872 0.27170
 N1557 N 0.49989 0.73589 0.26693
 C1558 C 0.47361 0.73207 0.26874
 C1559 C 0.46900 0.74221 0.25846
 C1560 C 0.45473 0.74516 0.25533
 C1561 C 0.45475 0.75506 0.24453
 C1562 C 0.46904 0.75795 0.24144
 N1563 N 0.47770 0.75006 0.24996
 C1564 C 0.47369 0.76805 0.23116
 C1565 C 0.48825 0.77144 0.22829
 C1566 C 0.49260 0.78289 0.21988
 C1567 C 0.50737 0.78286 0.21989
 C1568 C 0.51171 0.77141 0.22833
 N1569 N 0.49998 0.76435 0.23322
 C1570 C 0.52626 0.76801 0.23128
 H1571 H 0.55462 0.75984 0.24008
 H1572 H 0.55457 0.74098 0.26091
 H1573 H 0.49999 0.75469 0.23868
 H1574 H 0.51411 0.70957 0.28558
 H1575 H 0.48581 0.70938 0.28534
 H1576 H 0.44524 0.74062 0.26025
 H1577 H 0.44529 0.75966 0.23960
 H1578 H 0.51414 0.79059 0.21449
 H1579 H 0.49987 0.74561 0.26156
 H1580 H 0.48584 0.79065 0.21448
 C1581 C -0.04425 0.75002 0.24021
 C1582 C -0.04430 0.76045 0.25048
 C1583 C -0.03064 0.76053 0.25637
 N1584 N -0.02227 0.75049 0.25008
 C1585 C -0.03057 0.74407 0.24018
 C1586 C -0.02642 0.76908 0.26803
 C1587 C -0.01196 0.77054 0.27240
 C1588 C -0.00760 0.77648 0.28521
 C1589 C 0.00720 0.77665 0.28503
 C1590 C 0.01145 0.77076 0.27214
 N1591 N -0.00029 0.76716 0.26447
 C1592 C 0.02584 0.76954 0.26748
 C1593 C 0.03010 0.76106 0.25578
 C1594 C 0.04376 0.76102 0.24986
 C1595 C 0.04380 0.75061 0.23957
 C1596 C 0.03018 0.74458 0.23962
 N1597 N 0.02183 0.75098 0.24955
 C1598 C 0.02603 0.73264 0.23138
 C1599 C 0.01163 0.72796 0.23029
 C1600 C 0.00742 0.71479 0.22491
 C1601 C -0.00738 0.71467 0.22504
 C1602 C -0.01179 0.72777 0.23051
 N1603 N -0.00015 0.73584 0.23361
 C1604 C -0.02627 0.73222 0.23183
 H1605 H -0.05330 0.74709 0.23359
 H1606 H -0.05338 0.76714 0.25333
 H1607 H -0.00026 0.74663 0.23636
 H1608 H -0.01437 0.78036 0.29376
 H1609 H 0.01405 0.78069 0.29341
 H1610 H 0.05279 0.76770 0.25275
 H1611 H 0.05287 0.74771 0.23293
 H1612 H -0.01412 0.70594 0.22150
 H1613 H -0.00035 0.76406 0.25385
 H1614 H 0.01429 0.70616 0.22125
 C1615 C 0.45587 0.73980 0.75027
 C1616 C 0.45604 0.75029 0.76048
 C1617 C 0.46977 0.75604 0.76036
 N1618 N 0.47795 0.74950 0.75039
 C1619 C 0.46948 0.73955 0.74422
 C1620 C 0.47417 0.76787 0.76860
 C1621 C 0.48859 0.77246 0.76956
 C1622 C 0.49293 0.78549 0.77517
 C1623 C 0.50773 0.78552 0.77486
 C1624 C 0.51200 0.77249 0.76913
 N1625 N 0.50027 0.76457 0.76599
 C1626 C 0.52643 0.76790 0.76769
 C1627 C 0.53055 0.75596 0.75937
 C1628 C 0.54415 0.74983 0.75932
 C1629 C 0.54396 0.73922 0.74924
 C1630 C 0.53026 0.73925 0.74343
 N1631 N 0.52208 0.74950 0.74962
 C1632 C 0.52585 0.73062 0.73190
 C1633 C 0.51136 0.72944 0.72755
 C1634 C 0.50689 0.72377 0.71466
 C1635 C 0.49210 0.72388 0.71483
 C1636 C 0.48794 0.72960 0.72782
 N1637 N 0.49975 0.73290 0.73555
 C1638 C 0.47354 0.73102 0.73248
 H1639 H 0.44673 0.73321 0.74752
 H1640 H 0.44705 0.75343 0.76712
 H1641 H 0.49989 0.73585 0.74621
 H1642 H 0.48615 0.79406 0.77914
 H1643 H 0.51457 0.79413 0.77853
 H1644 H 0.55327 0.75273 0.76584
 H1645 H 0.55292 0.73234 0.74644
 H1646 H 0.48521 0.72015 0.70634
 H1647 H 0.50025 0.75382 0.76309
 H1648 H 0.51359 0.71993 0.70603
 C1649 C 0.44233 0.29201 0.27564
 C1650 C 0.44005 0.28995 0.29024
 C1651 C 0.44928 0.28099 0.29802
 C1652 C 0.46063 0.27395 0.29117
 C1653 C 0.39499 0.31381 0.31449
 C1654 C 0.45363 0.28494 0.26878
 C1655 C 0.42795 0.29665 0.29710
 C1656 C 0.41765 0.30215 0.30268
 C1657 C 0.40546 0.30848 0.30908
 C1658 C 0.46277 0.27579 0.27649
 H1659 H 0.43526 0.29889 0.26949
 H1660 H 0.44758 0.27925 0.30930
 H1661 H 0.46753 0.26684 0.29722
 H1662 H 0.45515 0.28644 0.25744
 C1663 C 0.44935 0.78139 0.79757
 C1664 C 0.44022 0.79046 0.78980
 C1665 C 0.44261 0.79261 0.77522
 C1666 C 0.45390 0.78550 0.76838
 C1667 C 0.39507 0.81418 0.81411
 C1668 C 0.46069 0.77431 0.79074
 C1669 C 0.42809 0.79716 0.79664
 C1670 C 0.41777 0.80262 0.80223
 C1671 C 0.40556 0.80889 0.80866
 C1672 C 0.46292 0.77623 0.77608
 H1673 H 0.44757 0.77958 0.80883
 H1674 H 0.43562 0.79958 0.76909
 H1675 H 0.45547 0.78705 0.75705
 H1676 H 0.46749 0.76711 0.79679
 C1677 C -0.05124 0.28295 0.79812
 C1678 C -0.06011 0.29222 0.79028
 C1679 C -0.05775 0.29401 0.77564
 C1680 C -0.04670 0.28645 0.76886
 C1681 C -0.10458 0.31729 0.81455
 C1682 C -0.04014 0.27543 0.79135
 C1683 C -0.07194 0.29946 0.79712
 C1684 C -0.08204 0.30531 0.80274
 C1685 C -0.09410 0.31190 0.80918
 C1686 C -0.03787 0.27708 0.77667
 H1687 H -0.05301 0.28138 0.80942
 H1688 H -0.06454 0.30111 0.76944
 H1689 H -0.04510 0.28782 0.75752
 H1690 H -0.03349 0.26816 0.79751
 C1691 C -0.04985 0.79839 0.28373
 C1692 C -0.06035 0.79030 0.29079
 C1693 C -0.05945 0.77531 0.29084
 C1694 C -0.04823 0.76841 0.28367
 C1695 C -0.10524 0.81465 0.31490
 C1696 C -0.03861 0.79150 0.27654
 C1697 C -0.07234 0.79729 0.29759
 C1698 C -0.08257 0.80293 0.30314
 C1699 C -0.09474 0.80933 0.30952
 C1700 C -0.03783 0.77646 0.27634
 H1701 H -0.05046 0.81000 0.28361
 H1702 H -0.06753 0.76895 0.29626
 H1703 H -0.04775 0.75680 0.28364
 H1704 H -0.03068 0.79785 0.27092
 C1705 C 0.55549 0.70554 0.27784
 C1706 C 0.56025 0.71061 0.29103
 C1707 C 0.55347 0.72245 0.29733
 C1708 C 0.54209 0.72932 0.29035
 C1709 C 0.60533 0.68658 0.31511
 C1710 C 0.54413 0.71241 0.27084
 C1711 C 0.57241 0.70395 0.29785
 C1712 C 0.58272 0.69843 0.30339
 C1713 C 0.59488 0.69201 0.30974
 C1714 C 0.53747 0.72440 0.27702
 H1715 H 0.56069 0.69642 0.27285
 H1716 H 0.55710 0.72650 0.30751
 H1717 H 0.53709 0.73863 0.29517
 H1718 H 0.54071 0.70857 0.26052
 C1719 C 0.55423 0.22221 0.79477
 C1720 C 0.55954 0.20905 0.78983
 C1721 C 0.55334 0.20262 0.77785
 C1722 C 0.54201 0.20943 0.77072
 C1723 C 0.60485 0.18586 0.81439
 C1724 C 0.54292 0.22902 0.78764
 C1725 C 0.57171 0.20246 0.79672
 C1726 C 0.58206 0.19713 0.80239
 C1727 C 0.59431 0.19103 0.80892
 C1728 C 0.53685 0.22272 0.77551
 H1729 H 0.55897 0.22731 0.80398
 H1730 H 0.55740 0.19248 0.77390
 H1731 H 0.53748 0.20450 0.76131
 H1732 H 0.53909 0.23933 0.79139
 C1733 C 1.05346 0.72227 0.79726
 C1734 C 1.05991 0.71027 0.79091
 C1735 C 1.05483 0.70525 0.77781
 C1736 C 1.04351 0.71233 0.77096
 C1737 C 1.10503 0.68585 0.81451
 C1738 C 1.04213 0.72936 0.79042
 C1739 C 1.07204 0.70342 0.79756
 C1740 C 1.08236 0.69778 0.80297
 C1741 C 1.09456 0.69129 0.80920
 C1742 C 1.03720 0.72449 0.77718
 H1743 H 1.05733 0.72628 0.80736
 H1744 H 1.05975 0.69600 0.77278
 H1745 H 1.03984 0.70852 0.76071
 H1746 H 1.03739 0.73878 0.79528
 C1747 C 1.05506 0.20537 0.27835
 C1748 C 1.06003 0.21046 0.29147
 C1749 C 1.05344 0.22242 0.29775
 C1750 C 1.04209 0.22940 0.29082
 C1751 C 1.10541 0.18654 0.31516
 C1752 C 1.04374 0.21235 0.27141
 C1753 C 1.07222 0.20375 0.29819
 C1754 C 1.08259 0.19824 0.30364
 C1755 C 1.09486 0.19188 0.30989
 C1756 C 1.03728 0.22447 0.27756
 H1757 H 1.06010 0.19616 0.27337
 H1758 H 1.05722 0.22649 0.30786
 H1759 H 1.03726 0.23880 0.29563
 H1760 H 1.04018 0.20849 0.26114
 C1761 C 0.55617 0.27714 0.70575
 C1762 C 0.56044 0.29075 0.71037
 C1763 C 0.55324 0.29733 0.72173
 C1764 C 0.54191 0.29026 0.72856
 C1765 C 0.60530 0.31498 0.68622
 C1766 C 0.54486 0.27006 0.71257
 C1767 C 0.57251 0.29771 0.70373
 C1768 C 0.58277 0.30332 0.69820
 C1769 C 0.59489 0.30967 0.69175
 C1770 C 0.53776 0.27654 0.72408
 H1771 H 0.56170 0.27195 0.69699
 H1772 H 0.55648 0.30784 0.72542
 H1773 H 0.53653 0.29534 0.73746
 H1774 H 0.54177 0.25946 0.70904
 C1775 C 0.55409 0.77786 0.20358
 C1776 C 0.56038 0.78997 0.20977
 C1777 C 0.55509 0.79522 0.22273
 C1778 C 0.54372 0.78828 0.22959
 C1779 C 0.60541 0.81422 0.18595
 C1780 C 0.54270 0.77091 0.21042
 C1781 C 0.57253 0.79674 0.20309
 C1782 C 0.58283 0.80233 0.19763
 C1783 C 0.59498 0.80879 0.19132
 C1784 C 0.53755 0.77603 0.22351
 H1785 H 0.55813 0.77367 0.19358
 H1786 H 0.55990 0.80455 0.22764
 H1787 H 0.53989 0.79227 0.23974
 H1788 H 0.53810 0.76140 0.20568
 C1789 C 1.05334 0.27906 0.20346
 C1790 C 1.06049 0.29043 0.21010
 C1791 C 1.05619 0.29489 0.22370
 C1792 C 1.04494 0.28788 0.23071
 C1793 C 1.10526 0.31440 0.18545
 C1794 C 1.04208 0.27205 0.21046
 C1795 C 1.07252 0.29719 0.20318
 C1796 C 1.08275 0.30271 0.19750
 C1797 C 1.09485 0.30905 0.19096
 C1798 C 1.03792 0.27634 0.22417
 H1799 H 1.05659 0.27549 0.19295
 H1800 H 1.06166 0.30365 0.22894
 H1801 H 1.04183 0.29128 0.24130
 H1802 H 1.03677 0.26314 0.20532
 C1803 C 1.05321 0.77939 0.70334
 C1804 C 1.06033 0.79077 0.70999
 C1805 C 1.05603 0.79521 0.72359
 C1806 C 1.04481 0.78817 0.73061
 C1807 C 1.10513 0.81482 0.68552
 C1808 C 1.04198 0.77234 0.71034
 C1809 C 1.07235 0.79756 0.70309
 C1810 C 1.08258 0.80310 0.69745
 C1811 C 1.09470 0.80947 0.69098
 C1812 C 1.03782 0.77661 0.72406
 H1813 H 1.05647 0.77584 0.69284
 H1814 H 1.06148 0.80399 0.72884
 H1815 H 1.04170 0.79155 0.74121
 H1816 H 1.03669 0.76342 0.70520
 C1817 C 0.45028 0.70196 0.71637
 C1818 C 0.43951 0.71015 0.70979
 C1819 C 0.44012 0.72514 0.71027
 C1820 C 0.45135 0.73192 0.71743
 C1821 C 0.39499 0.68571 0.68548
 C1822 C 0.46151 0.70873 0.72358
 C1823 C 0.42758 0.70323 0.70293
 C1824 C 0.41741 0.69759 0.69734
 C1825 C 0.40536 0.69114 0.69093
 C1826 C 0.46203 0.72377 0.72427
 H1827 H 0.44990 0.69035 0.71608
 H1828 H 0.43184 0.73158 0.70523
 H1829 H 0.45164 0.74353 0.71779
 H1830 H 0.46967 0.70228 0.72878
 C1831 C 0.45057 0.20179 0.21641
 C1832 C 0.43975 0.20996 0.20988
 C1833 C 0.44028 0.22495 0.21042
 C1834 C 0.45149 0.23176 0.21760
 C1835 C 0.39569 0.18516 0.18504
 C1836 C 0.46177 0.20860 0.22363
 C1837 C 0.42791 0.20299 0.20290
 C1838 C 0.41785 0.19727 0.19718
 C1839 C 0.40594 0.19069 0.19061
 C1840 C 0.46223 0.22363 0.22438
 H1841 H 0.45026 0.19019 0.21606
 H1842 H 0.43196 0.23138 0.20541
 H1843 H 0.45170 0.24336 0.21803
 H1844 H 0.46997 0.20217 0.22881
 C1845 C -0.04927 0.71604 0.20275
 C1846 C -0.05998 0.70922 0.21077
 C1847 C -0.05934 0.70944 0.22566
 C1848 C -0.04819 0.71667 0.23252
 C1849 C -0.10460 0.68563 0.18578
 C1850 C -0.03811 0.72329 0.20960
 C1851 C -0.07193 0.70248 0.20376
 C1852 C -0.08211 0.69704 0.19799
 C1853 C -0.09419 0.69084 0.19135
 C1854 C -0.03759 0.72379 0.22453
 H1855 H -0.04968 0.71595 0.19122
 H1856 H -0.06757 0.70421 0.23197
 H1857 H -0.04792 0.71692 0.24405
 H1858 H -0.03003 0.72874 0.20329
 C1859 C -0.04965 0.20251 0.71692
 C1860 C -0.06044 0.21064 0.71029
 C1861 C -0.05992 0.22563 0.71077
 C1862 C -0.04878 0.23248 0.71801
 C1863 C -0.10463 0.18595 0.68561
 C1864 C -0.03851 0.20936 0.72421
 C1865 C -0.07228 0.20365 0.70334
 C1866 C -0.08236 0.19796 0.69765
 C1867 C -0.09432 0.19143 0.69111
 C1868 C -0.03809 0.22440 0.72492
 H1869 H -0.04994 0.19090 0.71661
 H1870 H -0.06821 0.23203 0.70570
 H1871 H -0.04859 0.24409 0.71841
 H1872 H -0.03034 0.20296 0.72947
 C1873 C 0.27481 0.44047 0.28971
 C1874 C 0.28984 0.43980 0.29022
 C1875 C 0.29806 0.45052 0.28366
 C1876 C 0.29125 0.46176 0.27640
 C1877 C 0.31428 0.39522 0.31470
 C1878 C 0.26800 0.45170 0.28249
 C1879 C 0.29677 0.42785 0.29711
 C1880 C 0.30241 0.41767 0.30275
 C1881 C 0.30887 0.40561 0.30923
 C1882 C 0.27617 0.46232 0.27564
 H1883 H 0.26834 0.43223 0.29473
 H1884 H 0.30970 0.45009 0.28398
 H1885 H 0.29770 0.46986 0.27117
 H1886 H 0.25637 0.45200 0.28202
 C1887 C 0.27556 -0.06045 0.78978
 C1888 C 0.29060 -0.06107 0.79029
 C1889 C 0.29876 -0.05025 0.78382
 C1890 C 0.29191 -0.03897 0.77666
 C1891 C 0.31518 -0.10570 0.81460
 C1892 C 0.26871 -0.04917 0.78268
 C1893 C 0.29759 -0.07303 0.79711
 C1894 C 0.30326 -0.08322 0.80270
 C1895 C 0.30975 -0.09530 0.80914
 C1896 C 0.27683 -0.03844 0.77593
 H1897 H 0.26914 -0.06876 0.79474
 H1898 H 0.31040 -0.05063 0.78415
 H1899 H 0.29833 -0.03079 0.77151
 H1900 H 0.25707 -0.04890 0.78225
 C1901 C 0.77594 0.44086 0.79033
 C1902 C 0.79098 0.44066 0.79106
 C1903 C 0.79892 0.45164 0.78458
 C1904 C 0.79184 0.46265 0.77721
 C1905 C 0.81512 0.39566 0.81510
 C1906 C 0.76887 0.45187 0.78302
 C1907 C 0.79816 0.42886 0.79798
 C1908 C 0.80382 0.41866 0.80359
 C1909 C 0.81008 0.40639 0.80991
 C1910 C 0.77677 0.46276 0.77627
 H1911 H 0.76969 0.43240 0.79526
 H1912 H 0.81056 0.45159 0.78504
 H1913 H 0.79811 0.47096 0.77206
 H1914 H 0.75723 0.45179 0.78245
 C1915 C 0.79809 -0.04974 0.28430
 C1916 C 0.78980 -0.06043 0.29084
 C1917 C 0.77478 -0.05968 0.29026
 C1918 C 0.76805 -0.04842 0.28301
 C1919 C 0.81384 -0.10524 0.31538
 C1920 C 0.79136 -0.03848 0.27701
 C1921 C 0.79665 -0.07242 0.29777
 C1922 C 0.80219 -0.08265 0.30343
 C1923 C 0.80852 -0.09478 0.30993
 C1924 C 0.77629 -0.03783 0.27619
 H1925 H 0.80972 -0.05022 0.28468
 H1926 H 0.76826 -0.06790 0.29525
 H1927 H 0.75642 -0.04807 0.28251
 H1928 H 0.79788 -0.03040 0.27180
 C1929 C 0.27537 0.55871 0.70934
 C1930 C 0.29040 0.55952 0.70930
 C1931 C 0.29854 0.54894 0.71623
 C1932 C 0.29165 0.53769 0.72336
 C1933 C 0.31478 0.60434 0.68534
 C1934 C 0.26848 0.54748 0.71644
 C1935 C 0.29739 0.57151 0.70257
 C1936 C 0.30304 0.58174 0.69707
 C1937 C 0.30944 0.59389 0.69074
 C1938 C 0.27657 0.53699 0.72363
 H1939 H 0.26898 0.56685 0.70403
 H1940 H 0.31017 0.54949 0.71629
 H1941 H 0.29804 0.52969 0.72887
 H1942 H 0.25684 0.54706 0.71652
 C1943 C 0.29801 1.04929 0.21596
 C1944 C 0.28984 1.05992 0.20915
 C1945 C 0.27481 1.05912 0.20929
 C1946 C 0.26796 1.04788 0.21642
 C1947 C 0.31421 1.10491 0.18547
 C1948 C 0.29116 1.03803 0.22312
 C1949 C 0.29681 1.07194 0.20244
 C1950 C 0.30245 1.08220 0.19699
 C1951 C 0.30887 1.09440 0.19075
 C1952 C 0.27608 1.03737 0.22354
 H1953 H 0.30965 1.04982 0.21594
 H1954 H 0.26838 1.06729 0.20406
 H1955 H 0.25632 1.04751 0.21662
 H1956 H 0.29758 1.03002 0.22858
 C1957 C 0.77679 0.55571 0.20541
 C1958 C 0.79049 0.56014 0.20970
 C1959 C 0.79742 0.55308 0.22097
 C1960 C 0.79058 0.54180 0.22807
 C1961 C 0.81434 0.60517 0.18555
 C1962 C 0.76993 0.54444 0.21251
 C1963 C 0.79721 0.57224 0.20289
 C1964 C 0.80270 0.58253 0.19733
 C1965 C 0.80902 0.59470 0.19094
 C1966 C 0.77674 0.53753 0.22396
 H1967 H 0.77132 0.56111 0.19673
 H1968 H 0.80801 0.55644 0.22439
 H1969 H 0.79592 0.53657 0.23693
 H1970 H 0.75924 0.54126 0.20927
 C1971 C 0.77507 1.05952 0.70996
 C1972 C 0.79011 1.06018 0.70987
 C1973 C 0.79815 1.04949 0.71676
 C1974 C 0.79117 1.03834 0.72393
 C1975 C 0.81499 1.10462 0.68572
 C1976 C 0.76808 1.04838 0.71711
 C1977 C 0.79721 1.07207 0.70310
 C1978 C 0.80298 1.08221 0.69755
 C1979 C 0.80954 1.09425 0.69116
 C1980 C 0.77608 1.03781 0.72428
 H1981 H 0.76874 1.06773 0.70467
 H1982 H 0.80980 1.04990 0.71676
 H1983 H 0.79748 1.03027 0.72943
 H1984 H 0.75644 1.04811 0.71725
 C1985 C 0.70274 0.55324 0.27909
 C1986 C 0.70967 0.56009 0.29042
 C1987 C 0.72336 0.55552 0.29469
 C1988 C 0.73021 0.54429 0.28751
 C1989 C 0.68585 0.60494 0.31496
 C1990 C 0.70958 0.54199 0.27191
 C1991 C 0.70296 0.57215 0.29732
 C1992 C 0.69747 0.58240 0.30297
 C1993 C 0.69116 0.59451 0.30948
 C1994 C 0.72340 0.53757 0.27600
 H1995 H 0.69216 0.55672 0.27568
 H1996 H 0.72883 0.56077 0.30342
 H1997 H 0.74090 0.54098 0.29073
 H1998 H 0.70424 0.53692 0.26301
 C1999 C 0.70879 1.05979 0.77516
 C2000 C 0.70876 1.06049 0.79006
 C2001 C 0.71568 1.04979 0.79802
 C2002 C 0.72284 1.03857 0.79111
 C2003 C 0.68521 1.10531 0.81482
 C2004 C 0.71593 1.04858 0.76825
 C2005 C 0.70207 1.07247 0.79709
 C2006 C 0.69663 1.08269 0.80281
 C2007 C 0.69043 1.09484 0.80935
 C2008 C 0.72314 1.03799 0.77617
 H2009 H 0.70349 1.06802 0.76890
 H2010 H 0.71574 1.05025 0.80955
 H2011 H 0.72837 1.03049 0.79737
 H2012 H 0.71604 1.04827 0.75672
 C2013 C 0.20962 0.55904 0.77493
 C2014 C 0.20961 0.55969 0.78983
 C2015 C 0.21657 0.54896 0.79773
 C2016 C 0.22370 0.53776 0.79075
 C2017 C 0.18570 0.60429 0.81474
 C2018 C 0.21673 0.54785 0.76795
 C2019 C 0.20286 0.57161 0.79692
 C2020 C 0.19735 0.58179 0.80268
 C2021 C 0.19103 0.59388 0.80924
 C2022 C 0.22395 0.53721 0.77581
 H2023 H 0.20429 0.56729 0.76871
 H2024 H 0.21666 0.54937 0.80926
 H2025 H 0.22924 0.52965 0.79697
 H2026 H 0.21680 0.54757 0.75642
 C2027 C 0.20959 1.05969 0.27515
 C2028 C 0.20963 1.06035 0.29005
 C2029 C 0.21653 1.04959 0.29795
 C2030 C 0.22358 1.03834 0.29097
 C2031 C 0.18612 1.10512 0.31497
 C2032 C 0.21662 1.04846 0.26817
 C2033 C 0.20299 1.07233 0.29714
 C2034 C 0.19757 1.08254 0.30291
 C2035 C 0.19136 1.09467 0.30948
 C2036 C 0.22380 1.03780 0.27603
 H2037 H 0.20431 1.06797 0.26894
 H2038 H 0.21664 1.05001 0.30948
 H2039 H 0.22909 1.03021 0.29718
 H2040 H 0.21667 1.04818 0.25664
 C2041 C 0.71956 0.44892 0.70230
 C2042 C 0.71054 0.43974 0.71003
 C2043 C 0.70838 0.44199 0.72461
 C2044 C 0.71538 0.45324 0.73150
 C2045 C 0.68673 0.39503 0.68571
 C2046 C 0.72653 0.46021 0.70917
 C2047 C 0.70387 0.42773 0.70315
 C2048 C 0.69840 0.41750 0.69754
 C2049 C 0.69209 0.40541 0.69112
 C2050 C 0.72457 0.46233 0.72383
 H2051 H 0.72137 0.44725 0.69103
 H2052 H 0.70143 0.43497 0.73071
 H2053 H 0.71376 0.45475 0.74282
 H2054 H 0.73363 0.46711 0.70314
 C2055 C 0.71916 -0.05103 0.20235
 C2056 C 0.71017 -0.06017 0.21016
 C2057 C 0.70806 -0.05779 0.22474
 C2058 C 0.71510 -0.04651 0.23152
 C2059 C 0.68636 -0.10503 0.18595
 C2060 C 0.72617 -0.03969 0.20911
 C2061 C 0.70348 -0.07225 0.20337
 C2062 C 0.69800 -0.08251 0.19781
 C2063 C 0.69169 -0.09463 0.19139
 C2064 C 0.72428 -0.03746 0.22377
 H2065 H 0.72094 -0.05279 0.19108
 H2066 H 0.70115 -0.06478 0.23091
 H2067 H 0.71356 -0.04494 0.24285
 H2068 H 0.73330 -0.03288 0.20301
 C2069 C 0.20787 0.44228 0.22418
 C2070 C 0.21000 0.43996 0.20960
 C2071 C 0.21899 0.44915 0.20183
 C2072 C 0.22596 0.46048 0.20866
 C2073 C 0.18627 0.39506 0.18540
 C2074 C 0.21487 0.45356 0.23102
 C2075 C 0.20334 0.42789 0.20276
 C2076 C 0.19787 0.41763 0.19719
 C2077 C 0.19158 0.40549 0.19080
 C2078 C 0.22403 0.46265 0.22331
 H2079 H 0.20095 0.43526 0.23032
 H2080 H 0.22079 0.44744 0.19057
 H2081 H 0.23307 0.46735 0.20259
 H2082 H 0.21330 0.45509 0.24234
 C2083 C 0.21931 -0.05089 0.70228
 C2084 C 0.21028 -0.06005 0.71003
 C2085 C 0.20818 -0.05779 0.72462
 C2086 C 0.21527 -0.04658 0.73149
 C2087 C 0.18638 -0.10479 0.68570
 C2088 C 0.22636 -0.03964 0.70913
 C2089 C 0.20356 -0.07207 0.70316
 C2090 C 0.19805 -0.08229 0.69756
 C2091 C 0.19172 -0.09439 0.69113
 C2092 C 0.22448 -0.03752 0.72380
 H2093 H 0.22108 -0.05257 0.69100
 H2094 H 0.20124 -0.06479 0.73074
 H2095 H 0.21374 -0.04510 0.74283
 H2096 H 0.23351 -0.03279 0.70308
 C2097 C 0.29797 0.28383 0.45115
 C2098 C 0.28971 0.29040 0.44050
 C2099 C 0.27469 0.28995 0.44124
 C2100 C 0.26792 0.28276 0.45245
 C2101 C 0.31407 0.31432 0.39583
 C2102 C 0.29121 0.27659 0.46237
 C2103 C 0.29661 0.29719 0.42854
 C2104 C 0.30223 0.30271 0.41834
 C2105 C 0.30866 0.30902 0.40625
 C2106 C 0.27614 0.27587 0.46300
 H2107 H 0.30960 0.28411 0.45067
 H2108 H 0.26820 0.29498 0.43304
 H2109 H 0.25629 0.28234 0.45279
 H2110 H 0.29772 0.27132 0.47041
 C2111 C 0.29855 0.78339 -0.04936
 C2112 C 0.29048 0.79043 -0.05987
 C2113 C 0.27544 0.79050 -0.05905
 C2114 C 0.26848 0.78336 -0.04792
 C2115 C 0.31522 0.81424 -0.10442
 C2116 C 0.29159 0.77623 -0.03821
 C2117 C 0.29754 0.79716 -0.07178
 C2118 C 0.30326 0.80264 -0.08195
 C2119 C 0.30978 0.80893 -0.09402
 C2120 C 0.27651 0.77604 -0.03751
 H2121 H 0.31019 0.78326 -0.04991
 H2122 H 0.26909 0.79589 -0.06712
 H2123 H 0.25684 0.78332 -0.04751
 H2124 H 0.29793 0.77061 -0.03028
 C2125 C 0.78054 0.29879 -0.05122
 C2126 C 0.78970 0.29103 -0.06023
 C2127 C 0.79210 0.27640 -0.05772
 C2128 C 0.78514 0.26951 -0.04643
 C2129 C 0.81312 0.31516 -0.10534
 C2130 C 0.77362 0.29191 -0.03988
 C2131 C 0.79627 0.29789 -0.07234
 C2132 C 0.80166 0.30346 -0.08265
 C2133 C 0.80787 0.30982 -0.09485
 C2134 C 0.77577 0.27720 -0.03753
 H2135 H 0.77854 0.31009 -0.05307
 H2136 H 0.79915 0.27027 -0.06460
 H2137 H 0.78689 0.25814 -0.04478
 H2138 H 0.76634 0.29796 -0.03317
 C2139 C 0.78090 0.79811 0.44990
 C2140 C 0.79004 0.79022 0.44097
 C2141 C 0.79226 0.77558 0.44352
 C2142 C 0.78517 0.76879 0.45477
 C2143 C 0.81377 0.81430 0.39605
 C2144 C 0.77384 0.79133 0.46121
 C2145 C 0.79674 0.79700 0.42890
 C2146 C 0.80220 0.80255 0.41863
 C2147 C 0.80848 0.80892 0.40649
 C2148 C 0.77584 0.77660 0.46360
 H2149 H 0.77904 0.80942 0.44800
 H2150 H 0.79929 0.76935 0.43669
 H2151 H 0.78679 0.75740 0.45647
 H2152 H 0.76659 0.79748 0.46786
 C2153 C 0.71627 0.29814 0.54916
 C2154 C 0.70927 0.29009 0.55969
 C2155 C 0.70927 0.27509 0.55890
 C2156 C 0.71643 0.26816 0.54777
 C2157 C 0.68547 0.31487 0.60417
 C2158 C 0.72345 0.29122 0.53802
 C2159 C 0.70252 0.29713 0.57159
 C2160 C 0.69703 0.30286 0.58173
 C2161 C 0.69075 0.30940 0.59378
 C2162 C 0.72371 0.27618 0.53735
 H2163 H 0.71635 0.30975 0.54969
 H2164 H 0.70390 0.26875 0.56699
 H2165 H 0.71651 0.25655 0.54738
 H2166 H 0.72904 0.29754 0.53007
 C2167 C 0.71637 0.79851 1.04891
 C2168 C 0.70938 0.79044 1.05944
 C2169 C 0.70939 0.77545 1.05863
 C2170 C 0.71657 0.76854 1.04750
 C2171 C 0.68559 0.81502 1.10405
 C2172 C 0.72356 0.79160 1.03776
 C2173 C 0.70265 0.79745 1.07137
 C2174 C 0.69716 0.80314 1.08154
 C2175 C 0.69088 0.80962 1.09363
 C2176 C 0.72384 0.77656 1.03707
 H2177 H 0.71644 0.81012 1.04945
 H2178 H 0.70403 0.76910 1.06672
 H2179 H 0.71666 0.75693 1.04710
 H2180 H 0.72915 0.79794 1.02982
 C2181 C 0.21678 0.29797 1.04893
 C2182 C 0.20976 0.28992 1.05945
 C2183 C 0.20969 0.27493 1.05863
 C2184 C 0.21682 0.26799 1.04748
 C2185 C 0.18596 0.31471 1.10392
 C2186 C 0.22393 0.29104 1.03776
 C2187 C 0.20303 0.29696 1.07136
 C2188 C 0.19756 0.30270 1.08151
 C2189 C 0.19127 0.30924 1.09355
 C2190 C 0.22412 0.27600 1.03706
 H2191 H 0.21691 0.30958 1.04948
 H2192 H 0.20430 0.26859 1.06671
 H2193 H 0.21684 0.25638 1.04706
 H2194 H 0.22954 0.29736 1.02982
 C2195 C 0.20934 0.77547 0.55847
 C2196 C 0.20940 0.79046 0.55932
 C2197 C 0.21644 0.79852 0.54881
 C2198 C 0.22361 0.79161 0.53765
 C2199 C 0.18577 0.81510 0.60396
 C2200 C 0.21649 0.76855 0.54733
 C2201 C 0.20270 0.79748 0.57125
 C2202 C 0.19725 0.80318 0.58144
 C2203 C 0.19103 0.80968 0.59354
 C2204 C 0.22383 0.77656 0.53694
 H2205 H 0.20393 0.76912 0.56653
 H2206 H 0.21656 0.81013 0.54938
 H2207 H 0.22923 0.79794 0.52973
 H2208 H 0.21653 0.75694 0.54690
 C2209 C 0.27484 0.70926 0.55864
 C2210 C 0.28987 0.70916 0.55949
 C2211 C 0.29804 0.71608 0.54898
 C2212 C 0.29118 0.72328 0.53779
 C2213 C 0.31438 0.68519 0.60408
 C2214 C 0.26798 0.71644 0.54747
 C2215 C 0.29684 0.70237 0.57142
 C2216 C 0.30250 0.69684 0.58159
 C2217 C 0.30897 0.69050 0.59367
 C2218 C 0.27610 0.72364 0.53706
 H2219 H 0.26843 0.70396 0.56672
 H2220 H 0.30967 0.71609 0.54956
 H2221 H 0.29758 0.72880 0.52986
 H2222 H 0.25634 0.71661 0.54704
 C2223 C 0.29797 0.21503 1.04876
 C2224 C 0.28979 0.20814 1.05927
 C2225 C 0.27476 0.20831 1.05845
 C2226 C 0.26791 0.21555 1.04731
 C2227 C 0.31405 0.18495 1.10437
 C2228 C 0.29112 0.22229 1.03760
 C2229 C 0.29674 0.20144 1.07126
 C2230 C 0.30237 0.19606 1.08153
 C2231 C 0.30875 0.18999 1.09378
 C2232 C 0.27604 0.22274 1.03691
 H2233 H 0.30960 0.21500 1.04932
 H2234 H 0.26833 0.20304 1.06654
 H2235 H 0.25627 0.21579 1.04691
 H2236 H 0.29753 0.22781 1.02967
 C2237 C 0.77547 0.70958 1.05869
 C2238 C 0.79051 0.70956 1.05940
 C2239 C 0.79853 0.71652 1.04882
 C2240 C 0.79153 0.72366 1.03768
 C2241 C 0.81528 0.68547 1.10378
 C2242 C 0.76846 0.71671 1.04757
 C2243 C 0.79761 0.70278 1.07126
 C2244 C 0.80335 0.69724 1.08138
 C2245 C 0.80986 0.69086 1.09341
 C2246 C 0.77644 0.72392 1.03708
 H2247 H 0.76916 0.70426 1.06683
 H2248 H 0.81018 0.71659 1.04929
 H2249 H 0.79783 0.72921 1.02969
 H2250 H 0.75682 0.71680 1.04725
 C2251 C 0.77504 0.20907 0.55881
 C2252 C 0.79008 0.20901 0.55962
 C2253 C 0.79819 0.21594 0.54908
 C2254 C 0.79127 0.22312 0.53791
 C2255 C 0.81475 0.18511 0.60417
 C2256 C 0.76813 0.21623 0.54767
 C2257 C 0.79710 0.20224 0.57153
 C2258 C 0.80280 0.19674 0.58170
 C2259 C 0.80930 0.19043 0.59377
 C2260 C 0.77619 0.22345 0.53723
 H2261 H 0.76867 0.20375 0.56691
 H2262 H 0.80982 0.21598 0.54962
 H2263 H 0.79763 0.22867 0.52996
 H2264 H 0.75648 0.21636 0.54728
 C2265 C 0.72543 0.70996 0.44148
 C2266 C 0.71040 0.70947 0.44075
 C2267 C 0.70211 0.71595 0.45144
 C2268 C 0.70882 0.72312 0.46267
 C2269 C 0.68626 0.68559 0.39611
 C2270 C 0.73214 0.71709 0.45271
 C2271 C 0.70356 0.70273 0.42878
 C2272 C 0.69800 0.69723 0.41858
 C2273 C 0.69163 0.69091 0.40650
 C2274 C 0.72389 0.72387 0.46329
 H2275 H 0.73195 0.70502 0.43327
 H2276 H 0.69047 0.71564 0.45097
 H2277 H 0.70229 0.72831 0.47072
 H2278 H 0.74378 0.71754 0.45304
 C2279 C 0.72544 0.21019 -0.05973
 C2280 C 0.71041 0.20950 -0.06023
 C2281 C 0.70220 0.21590 -0.04944
 C2282 C 0.70899 0.22318 -0.03833
 C2283 C 0.68585 0.18526 -0.10444
 C2284 C 0.73224 0.21741 -0.04862
 C2285 C 0.70347 0.20262 -0.07206
 C2286 C 0.69780 0.19703 -0.08215
 C2287 C 0.69131 0.19062 -0.09412
 C2288 C 0.72406 0.22412 -0.03793
 H2289 H 0.73190 0.20529 -0.06802
 H2290 H 0.69056 0.21544 -0.04973
 H2291 H 0.70252 0.22829 -0.03018
 H2292 H 0.74387 0.21799 -0.04845
 C2293 C 0.20944 0.72499 -0.05917
 C2294 C 0.20938 0.70999 -0.05989
 C2295 C 0.21629 0.70191 -0.04932
 C2296 C 0.22346 0.70881 -0.03819
 C2297 C 0.18562 0.68519 -0.10424
 C2298 C 0.21659 0.73189 -0.04807
 C2299 C 0.20265 0.70296 -0.07176
 C2300 C 0.19718 0.69722 -0.08188
 C2301 C 0.19091 0.69066 -0.09389
 C2302 C 0.22379 0.72385 -0.03760
 H2303 H 0.20413 0.73134 -0.06730
 H2304 H 0.21632 0.69030 -0.04979
 H2305 H 0.22898 0.70246 -0.03020
 H2306 H 0.21671 0.74351 -0.04773
 C2307 C 0.21904 0.20180 0.44993
 C2308 C 0.20995 0.20970 0.44095
 C2309 C 0.20773 0.22434 0.44343
 C2310 C 0.21477 0.23112 0.45467
 C2311 C 0.18630 0.18572 0.39613
 C2312 C 0.22604 0.20856 0.46121
 C2313 C 0.20330 0.20293 0.42890
 C2314 C 0.19786 0.19740 0.41866
 C2315 C 0.19161 0.19106 0.40654
 C2316 C 0.22404 0.22329 0.46355
 H2317 H 0.22090 0.19048 0.44807
 H2318 H 0.20074 0.23058 0.43656
 H2319 H 0.21317 0.24251 0.45631
 H2320 H 0.23326 0.20241 0.46790
 C2321 C 0.27617 0.44033 0.70966
 C2322 C 0.29122 0.44010 0.70902
 C2323 C 0.29912 0.45098 0.71564
 C2324 C 0.29201 0.46193 0.72302
 C2325 C 0.31633 0.39605 0.68426
 C2326 C 0.26905 0.45128 0.71699
 C2327 C 0.29848 0.42846 0.70193
 C2328 C 0.30432 0.41847 0.69617
 C2329 C 0.31091 0.40650 0.68963
 C2330 C 0.27692 0.46210 0.72385
 H2331 H 0.26994 0.43196 0.70462
 H2332 H 0.31077 0.45090 0.71524
 H2333 H 0.29825 0.47017 0.72824
 H2334 H 0.25742 0.45126 0.71747
 C2335 C 0.29762 0.95054 0.21564
 C2336 C 0.28931 0.93992 0.20911
 C2337 C 0.27428 0.94067 0.20978
 C2338 C 0.26759 0.95187 0.21711
 C2339 C 0.31369 0.89540 0.18452
 C2340 C 0.29093 0.96174 0.22302
 C2341 C 0.29615 0.92798 0.20212
 C2342 C 0.30177 0.91782 0.19644
 C2343 C 0.30824 0.90577 0.18996
 C2344 C 0.27587 0.96240 0.22392
 H2345 H 0.30926 0.95005 0.21519
 H2346 H 0.26774 0.93251 0.20478
 H2347 H 0.25596 0.95224 0.21767
 H2348 H 0.29747 0.96977 0.22821
 C2349 C 0.79708 0.44691 0.22044
 C2350 C 0.79007 0.44009 0.20914
 C2351 C 0.77634 0.44467 0.20498
 C2352 C 0.76955 0.45588 0.21224
 C2353 C 0.81403 0.39533 0.18458
 C2354 C 0.79029 0.45813 0.22770
 C2355 C 0.79676 0.42807 0.20215
 C2356 C 0.80227 0.41785 0.19648
 C2357 C 0.80865 0.40575 0.19001
 C2358 C 0.77644 0.46257 0.22371
 H2359 H 0.80768 0.44342 0.22376
 H2360 H 0.77082 0.43945 0.19627
 H2361 H 0.75884 0.45920 0.20909
 H2362 H 0.79569 0.46318 0.23658
 C2363 C 0.79756 0.95107 0.71606
 C2364 C 0.78928 0.94040 0.70956
 C2365 C 0.77425 0.94112 0.71022
 C2366 C 0.76752 0.95232 0.71752
 C2367 C 0.81361 0.89577 0.68519
 C2368 C 0.79084 0.96227 0.72341
 C2369 C 0.79615 0.92846 0.70264
 C2370 C 0.80176 0.91827 0.69701
 C2371 C 0.80820 0.90619 0.69058
 C2372 C 0.77577 0.96289 0.72431
 H2373 H 0.80920 0.95061 0.71562
 H2374 H 0.76774 0.93292 0.70525
 H2375 H 0.75589 0.95265 0.71808
 H2376 H 0.79735 0.97033 0.72859
 C2377 C 0.71444 0.54857 0.70249
 C2378 C 0.70747 0.55916 0.71052
 C2379 C 0.70782 0.55852 0.72542
 C2380 C 0.71534 0.54750 0.73226
 C2381 C 0.68424 0.60449 0.68630
 C2382 C 0.72198 0.53753 0.70933
 C2383 C 0.70058 0.57109 0.70356
 C2384 C 0.69514 0.58139 0.69793
 C2385 C 0.68912 0.59374 0.69157
 C2386 C 0.72262 0.53703 0.72427
 H2387 H 0.71425 0.54898 0.69096
 H2388 H 0.70249 0.56668 0.73173
 H2389 H 0.71567 0.54724 0.74379
 H2390 H 0.72753 0.52953 0.70301
 C2391 C 0.71620 0.04917 0.20227
 C2392 C 0.70919 0.05981 0.21022
 C2393 C 0.70918 0.05905 0.22511
 C2394 C 0.71636 0.04786 0.23204
 C2395 C 0.68570 0.10467 0.18527
 C2396 C 0.72340 0.03797 0.20920
 C2397 C 0.70249 0.07180 0.20316
 C2398 C 0.69707 0.08204 0.19740
 C2399 C 0.69089 0.09419 0.19080
 C2400 C 0.72366 0.03734 0.22413
 H2401 H 0.71629 0.04967 0.19074
 H2402 H 0.70380 0.06722 0.23136
 H2403 H 0.71643 0.04751 0.24358
 H2404 H 0.72900 0.02995 0.20295
 C2405 C 0.21606 0.54920 0.20179
 C2406 C 0.20898 0.55986 0.20964
 C2407 C 0.20885 0.55916 0.22454
 C2408 C 0.21597 0.54799 0.23157
 C2409 C 0.18511 0.60439 0.18443
 C2410 C 0.22319 0.53801 0.20882
 C2411 C 0.20224 0.57178 0.20248
 C2412 C 0.19675 0.58194 0.19665
 C2413 C 0.19043 0.59399 0.19000
 C2414 C 0.22333 0.53743 0.22376
 H2415 H 0.21624 0.54965 0.19026
 H2416 H 0.20341 0.56735 0.23072
 H2417 H 0.21594 0.54768 0.24311
 H2418 H 0.22884 0.52997 0.20265
 C2419 C 0.21635 0.04915 0.70299
 C2420 C 0.20934 0.05974 0.71100
 C2421 C 0.20943 0.05896 0.72589
 C2422 C 0.21668 0.04776 0.73276
 C2423 C 0.18530 0.10439 0.68614
 C2424 C 0.22362 0.03795 0.70985
 C2425 C 0.20251 0.07170 0.70399
 C2426 C 0.19697 0.08189 0.69826
 C2427 C 0.19063 0.09399 0.69168
 C2428 C 0.22396 0.03727 0.72479
 H2429 H 0.21637 0.04966 0.69146
 H2430 H 0.20405 0.06709 0.73219
 H2431 H 0.21680 0.04737 0.74429
 H2432 H 0.22919 0.02995 0.70356
 C2433 C 0.27435 0.55883 0.29052
 C2434 C 0.28938 0.55963 0.29070
 C2435 C 0.29759 0.54909 0.28381
 C2436 C 0.29078 0.53793 0.27654
 C2437 C 0.31406 0.60411 0.31474
 C2438 C 0.26754 0.54769 0.28327
 C2439 C 0.29634 0.57155 0.29752
 C2440 C 0.30204 0.58170 0.30306
 C2441 C 0.30858 0.59374 0.30939
 C2442 C 0.27571 0.53725 0.27610
 H2443 H 0.26789 0.56692 0.29580
 H2444 H 0.30923 0.54962 0.28387
 H2445 H 0.29723 0.52998 0.27106
 H2446 H 0.25590 0.54729 0.28306
 C2447 C 0.27465 0.05799 0.79167
 C2448 C 0.28967 0.05897 0.79175
 C2449 C 0.29796 0.04851 0.78484
 C2450 C 0.29124 0.03730 0.77758
 C2451 C 0.31390 0.10400 0.81516
 C2452 C 0.26793 0.04680 0.78443
 C2453 C 0.29651 0.07103 0.79843
 C2454 C 0.30212 0.08129 0.80385
 C2455 C 0.30855 0.09346 0.81002
 C2456 C 0.27617 0.03649 0.77717
 H2457 H 0.26814 0.06603 0.79696
 H2458 H 0.30960 0.04918 0.78483
 H2459 H 0.29774 0.02943 0.77202
 H2460 H 0.25630 0.04630 0.78424
 C2461 C 0.77445 0.55930 0.79022
 C2462 C 0.78949 0.56005 0.79033
 C2463 C 0.79763 0.54947 0.78344
 C2464 C 0.79076 0.53830 0.77626
 C2465 C 0.81437 0.60427 0.81461
 C2466 C 0.76757 0.54813 0.78307
 C2467 C 0.79651 0.57192 0.79716
 C2468 C 0.80227 0.58201 0.80274
 C2469 C 0.80886 0.59397 0.80917
 C2470 C 0.77568 0.53764 0.77592
 H2471 H 0.76804 0.56743 0.79551
 H2472 H 0.80927 0.54996 0.78345
 H2473 H 0.79716 0.53030 0.77078
 H2474 H 0.75593 0.54776 0.78293
 C2475 C 0.77489 0.05872 0.29068
 C2476 C 0.78993 0.05950 0.29083
 C2477 C 0.79810 0.04895 0.28392
 C2478 C 0.79126 0.03779 0.27668
 C2479 C 0.81447 0.10399 0.31497
 C2480 C 0.76805 0.04758 0.28346
 C2481 C 0.79689 0.07141 0.29765
 C2482 C 0.80257 0.08156 0.30321
 C2483 C 0.80906 0.09360 0.30958
 C2484 C 0.77619 0.03713 0.27628
 H2485 H 0.76846 0.06682 0.29599
 H2486 H 0.80974 0.04946 0.28396
 H2487 H 0.79769 0.02983 0.27118
 H2488 H 0.75641 0.04719 0.28328
 C2489 C 0.70259 0.44713 0.27906
 C2490 C 0.70953 0.44011 0.29034
 C2491 C 0.72326 0.44453 0.29458
 C2492 C 0.73011 0.45575 0.28741
 C2493 C 0.68563 0.39525 0.31471
 C2494 C 0.70943 0.45836 0.27189
 C2495 C 0.70282 0.42806 0.29723
 C2496 C 0.69731 0.41781 0.30285
 C2497 C 0.69098 0.40568 0.30929
 C2498 C 0.72329 0.46263 0.27594
 H2499 H 0.69198 0.44377 0.27568
 H2500 H 0.72874 0.43916 0.30327
 H2501 H 0.74083 0.45894 0.29061
 H2502 H 0.70408 0.46356 0.26302
 C2503 C 0.71828 0.94948 0.79795
 C2504 C 0.70929 0.94041 0.79012
 C2505 C 0.70721 0.94290 0.77556
 C2506 C 0.71428 0.95422 0.76879
 C2507 C 0.68556 0.89532 0.81423
 C2508 C 0.72531 0.96085 0.79121
 C2509 C 0.70260 0.92828 0.79689
 C2510 C 0.69714 0.91797 0.80243
 C2511 C 0.69086 0.90579 0.80882
 C2512 C 0.72346 0.96319 0.77657
 H2513 H 0.72004 0.94763 0.80921
 H2514 H 0.70030 0.93597 0.76937
 H2515 H 0.71277 0.95588 0.75748
 H2516 H 0.73245 0.96761 0.79732
 C2517 C 0.21896 0.44893 0.79755
 C2518 C 0.20989 0.43986 0.78981
 C2519 C 0.20778 0.44224 0.77524
 C2520 C 0.21491 0.45346 0.76836
 C2521 C 0.18608 0.39492 0.81411
 C2522 C 0.22605 0.46020 0.79069
 C2523 C 0.20315 0.42781 0.79667
 C2524 C 0.19766 0.41755 0.80227
 C2525 C 0.19137 0.40539 0.80870
 C2526 C 0.22418 0.46242 0.77603
 H2527 H 0.22072 0.44718 0.80882
 H2528 H 0.20078 0.43533 0.76913
 H2529 H 0.21336 0.45504 0.75704
 H2530 H 0.23323 0.46698 0.79674
 C2531 C 0.20750 0.94274 0.27549
 C2532 C 0.20963 0.94025 0.29005
 C2533 C 0.21866 0.94930 0.29785
 C2534 C 0.22570 0.96066 0.29108
 C2535 C 0.18593 0.89508 0.31402
 C2536 C 0.21457 0.95404 0.26870
 C2537 C 0.20296 0.92812 0.29682
 C2538 C 0.19750 0.91779 0.30234
 C2539 C 0.19122 0.90558 0.30868
 C2540 C 0.22380 0.96299 0.27644
 H2541 H 0.20057 0.93581 0.26933
 H2542 H 0.22046 0.94745 0.30910
 H2543 H 0.23287 0.96741 0.29716
 H2544 H 0.21303 0.95569 0.25739
 C2545 C 0.44668 0.29841 0.72162
 C2546 C 0.44055 0.29234 0.70943
 C2547 C 0.44562 0.27914 0.70436
 C2548 C 0.45662 0.27193 0.71157
 C2549 C 0.39507 0.31549 0.68521
 C2550 C 0.45771 0.29121 0.72883
 C2551 C 0.42856 0.29924 0.70251
 C2552 C 0.41826 0.30468 0.69686
 C2553 C 0.40588 0.31066 0.69047
 C2554 C 0.46264 0.27788 0.72390
 H2555 H 0.44280 0.30858 0.72569
 H2556 H 0.44092 0.27431 0.69498
 H2557 H 0.46030 0.26162 0.70769
 H2558 H 0.46222 0.29588 0.73838
 C2559 C 0.44420 0.79477 0.22266
 C2560 C 0.43989 0.79016 0.20914
 C2561 C 0.44703 0.77866 0.20260
 C2562 C 0.45828 0.77166 0.20965
 C2563 C 0.39499 0.81439 0.18492
 C2564 C 0.45543 0.78776 0.22973
 C2565 C 0.42784 0.79693 0.20224
 C2566 C 0.41758 0.80252 0.19666
 C2567 C 0.40544 0.80897 0.19029
 C2568 C 0.46244 0.77610 0.22330
 H2569 H 0.43873 0.80362 0.22783
 H2570 H 0.44375 0.77499 0.19216
 H2571 H 0.46358 0.76263 0.20462
 H2572 H 0.45853 0.79125 0.24028
 C2573 C 0.94520 0.29495 0.22190
 C2574 C 0.94015 0.28988 0.20880
 C2575 C 0.94661 0.27785 0.20253
 C2576 C 0.95790 0.27077 0.20944
 C2577 C 0.89499 0.31406 0.18493
 C2578 C 0.95648 0.28787 0.22882
 C2579 C 0.92802 0.29670 0.20208
 C2580 C 0.91770 0.30228 0.19660
 C2581 C 0.90549 0.30868 0.19029
 C2582 C 0.96280 0.27568 0.22267
 H2583 H 0.94028 0.30422 0.22687
 H2584 H 0.94276 0.27380 0.19243
 H2585 H 0.96264 0.26132 0.20462
 H2586 H 0.96013 0.29172 0.23906
 C2587 C 0.94642 0.77845 0.70277
 C2588 C 0.94003 0.79046 0.70914
 C2589 C 0.94516 0.79546 0.72223
 C2590 C 0.95647 0.78834 0.72904
 C2591 C 0.89473 0.81468 0.68565
 C2592 C 0.95775 0.77132 0.70958
 C2593 C 0.92785 0.79731 0.70254
 C2594 C 0.91750 0.80291 0.69715
 C2595 C 0.90526 0.80932 0.69094
 C2596 C 0.96272 0.77616 0.72280
 H2597 H 0.94250 0.77445 0.69268
 H2598 H 0.94027 0.80471 0.72727
 H2599 H 0.96018 0.79213 0.73929
 H2600 H 0.96243 0.76189 0.70469
 C2601 C 0.54953 0.28382 0.29722
 C2602 C 0.56017 0.29075 0.28920
 C2603 C 0.55945 0.29065 0.27431
 C2604 C 0.54828 0.28345 0.26744
 C2605 C 0.60469 0.31461 0.31413
 C2606 C 0.53834 0.27661 0.29036
 C2607 C 0.57210 0.29754 0.29620
 C2608 C 0.58226 0.30305 0.30195
 C2609 C 0.59431 0.30933 0.30856
 C2610 C 0.53774 0.27625 0.27542
 H2611 H 0.54999 0.28382 0.30874
 H2612 H 0.56763 0.29597 0.26801
 H2613 H 0.54795 0.28331 0.25591
 H2614 H 0.53031 0.27109 0.29666
 C2615 C 0.55960 0.79055 0.77393
 C2616 C 0.56025 0.79071 0.78883
 C2617 C 0.54958 0.78379 0.79682
 C2618 C 0.53843 0.77656 0.78994
 C2619 C 0.60451 0.81483 0.81399
 C2620 C 0.54845 0.78333 0.76704
 C2621 C 0.57212 0.79757 0.79587
 C2622 C 0.58222 0.80313 0.80167
 C2623 C 0.59419 0.80949 0.80836
 C2624 C 0.53787 0.77616 0.77500
 H2625 H 0.56779 0.79587 0.76764
 H2626 H 0.54999 0.78383 0.80835
 H2627 H 0.53036 0.77107 0.79623
 H2628 H 0.54815 0.78317 0.75551
 C2629 C 0.05894 0.29128 0.77498
 C2630 C 0.05973 0.29136 0.78987
 C2631 C 0.04908 0.28449 0.79793
 C2632 C 0.03783 0.27734 0.79111
 C2633 C 0.10463 0.31485 0.81446
 C2634 C 0.04770 0.28415 0.76816
 C2635 C 0.07173 0.29806 0.79682
 C2636 C 0.08197 0.30349 0.80250
 C2637 C 0.09413 0.30967 0.80900
 C2638 C 0.03716 0.27699 0.77618
 H2639 H 0.06712 0.29656 0.76865
 H2640 H 0.04958 0.28449 0.80945
 H2641 H 0.02979 0.27185 0.79744
 H2642 H 0.04733 0.28401 0.75663
 C2643 C 0.05103 0.79845 0.28051
 C2644 C 0.06001 0.79057 0.28963
 C2645 C 0.05743 0.77596 0.29189
 C2646 C 0.04609 0.76918 0.28490
 C2647 C 0.10508 0.81435 0.31361
 C2648 C 0.03964 0.79168 0.27355
 C2649 C 0.07213 0.79734 0.29631
 C2650 C 0.08243 0.80283 0.30182
 C2651 C 0.09461 0.80909 0.30820
 C2652 C 0.03720 0.77698 0.27562
 H2653 H 0.05296 0.80974 0.27861
 H2654 H 0.06430 0.76974 0.29890
 H2655 H 0.04436 0.75782 0.28657
 H2656 H 0.03293 0.79782 0.26633
 C2657 C 0.54844 0.70069 0.71611
 C2658 C 0.55924 0.70851 0.70919
 C2659 C 0.55879 0.72352 0.70923
 C2660 C 0.54774 0.73071 0.71637
 C2661 C 0.60457 0.68423 0.68596
 C2662 C 0.53738 0.70788 0.72329
 C2663 C 0.57115 0.70126 0.70256
 C2664 C 0.58144 0.69555 0.69719
 C2665 C 0.59381 0.68927 0.69108
 C2666 C 0.53707 0.72294 0.72361
 H2667 H 0.54870 0.68907 0.71614
 H2668 H 0.56710 0.72967 0.70392
 H2669 H 0.54761 0.74233 0.71646
 H2670 H 0.52921 0.70173 0.72879
 C2671 C 0.54942 0.20194 0.21576
 C2672 C 0.55990 0.21012 0.20877
 C2673 C 0.55897 0.22511 0.20888
 C2674 C 0.54776 0.23191 0.21615
 C2675 C 0.60476 0.18577 0.18456
 C2676 C 0.53819 0.20873 0.22306
 C2677 C 0.57190 0.20321 0.20191
 C2678 C 0.58214 0.19759 0.19632
 C2679 C 0.59429 0.19116 0.18993
 C2680 C 0.53739 0.22377 0.22344
 H2681 H 0.55006 0.19033 0.21575
 H2682 H 0.56703 0.23154 0.20352
 H2683 H 0.54727 0.24352 0.21632
 H2684 H 0.53029 0.20231 0.22864
 C2685 C 0.04912 0.71625 0.20231
 C2686 C 0.06012 0.70988 0.21033
 C2687 C 0.05964 0.71044 0.22522
 C2688 C 0.04835 0.71754 0.23207
 C2689 C 0.10520 0.68641 0.18568
 C2690 C 0.03782 0.72341 0.20916
 C2691 C 0.07218 0.70321 0.20334
 C2692 C 0.08247 0.69779 0.19765
 C2693 C 0.09468 0.69160 0.19114
 C2694 C 0.03747 0.72426 0.22408
 H2695 H 0.04939 0.71588 0.19079
 H2696 H 0.06809 0.70556 0.23154
 H2697 H 0.04821 0.71805 0.24360
 H2698 H 0.02952 0.72852 0.20284
 C2699 C 0.05878 0.22528 0.71009
 C2700 C 0.05954 0.21028 0.70999
 C2701 C 0.04891 0.20224 0.71693
 C2702 C 0.03770 0.20918 0.72414
 C2703 C 0.10409 0.18538 0.68567
 C2704 C 0.04759 0.23223 0.71727
 C2705 C 0.07147 0.20321 0.70315
 C2706 C 0.08164 0.19745 0.69756
 C2707 C 0.09370 0.19088 0.69113
 C2708 C 0.03706 0.22423 0.72448
 H2709 H 0.06694 0.23161 0.70476
 H2710 H 0.04940 0.19063 0.71694
 H2711 H 0.02967 0.20286 0.72965
 H2712 H 0.04723 0.24384 0.71740
 C2713 C 0.44395 0.70551 0.27666
 C2714 C 0.43977 0.70972 0.29036
 C2715 C 0.44704 0.72089 0.29721
 C2716 C 0.45831 0.72796 0.29028
 C2717 C 0.39489 0.68522 0.31426
 C2718 C 0.45520 0.71258 0.26972
 C2719 C 0.42771 0.70288 0.29716
 C2720 C 0.41746 0.69723 0.30265
 C2721 C 0.40533 0.69070 0.30893
 C2722 C 0.46234 0.72393 0.27645
 H2723 H 0.43838 0.69691 0.27126
 H2724 H 0.44387 0.72426 0.30780
 H2725 H 0.46372 0.73674 0.29556
 H2726 H 0.45820 0.70940 0.25903
 C2727 C 0.44337 0.22320 0.79372
 C2728 C 0.43932 0.20944 0.78934
 C2729 C 0.44661 0.20279 0.77807
 C2730 C 0.45776 0.20996 0.77105
 C2731 C 0.39529 0.18433 0.81418
 C2732 C 0.45451 0.23038 0.78671
 C2733 C 0.42745 0.20232 0.79620
 C2734 C 0.41741 0.19650 0.80191
 C2735 C 0.40555 0.18984 0.80857
 C2736 C 0.46168 0.22384 0.77526
 H2737 H 0.43779 0.22844 0.80241
 H2738 H 0.44355 0.19216 0.77458
 H2739 H 0.46321 0.20482 0.76222
 H2740 H 0.45743 0.24109 0.79005
 C2741 C 0.94385 0.70533 0.77618
 C2742 C 0.93960 0.70970 0.78982
 C2743 C 0.94676 0.72103 0.79652
 C2744 C 0.95799 0.72808 0.78952
 C2745 C 0.89498 0.68540 0.81437
 C2746 C 0.95507 0.71238 0.76917
 C2747 C 0.92760 0.70288 0.79673
 C2748 C 0.91741 0.69728 0.80238
 C2749 C 0.90535 0.69083 0.80889
 C2750 C 0.96211 0.72388 0.77577
 H2751 H 0.93836 0.69659 0.77090
 H2752 H 0.94354 0.72452 0.80705
 H2753 H 0.96333 0.73697 0.79469
 H2754 H 0.95813 0.70906 0.75854
 C2755 C 0.94390 0.20510 0.27637
 C2756 C 0.93963 0.20950 0.28999
 C2757 C 0.94680 0.22084 0.29668
 C2758 C 0.95804 0.22788 0.28968
 C2759 C 0.89490 0.18530 0.31451
 C2760 C 0.95514 0.21214 0.26936
 C2761 C 0.92761 0.20270 0.29690
 C2762 C 0.91739 0.19712 0.30255
 C2763 C 0.90530 0.19070 0.30904
 C2764 C 0.96217 0.22365 0.27593
 H2765 H 0.93842 0.19636 0.27110
 H2766 H 0.94356 0.22435 0.30720
 H2767 H 0.96336 0.23677 0.29485
 H2768 H 0.95822 0.20879 0.25874
 C2769 C 0.27516 0.29050 0.55898
 C2770 C 0.29020 0.29053 0.55973
 C2771 C 0.29829 0.28364 0.54915
 C2772 C 0.29136 0.27650 0.53802
 C2773 C 0.31477 0.31421 0.60430
 C2774 C 0.26823 0.28339 0.54787
 C2775 C 0.29724 0.29723 0.57163
 C2776 C 0.30292 0.30270 0.58180
 C2777 C 0.30937 0.30896 0.59388
 C2778 C 0.27627 0.27618 0.53741
 H2779 H 0.26879 0.29579 0.56710
 H2780 H 0.30993 0.28360 0.54962
 H2781 H 0.29772 0.27099 0.53004
 H2782 H 0.25658 0.28328 0.54753
 C2783 C 0.27496 0.79049 0.05838
 C2784 C 0.28999 0.79041 0.05924
 C2785 C 0.29811 0.78337 0.04877
 C2786 C 0.29120 0.77624 0.03762
 C2787 C 0.31446 0.81457 0.10356
 C2788 C 0.26805 0.78338 0.04725
 C2789 C 0.29699 0.79719 0.07110
 C2790 C 0.30265 0.80275 0.08121
 C2791 C 0.30909 0.80916 0.09322
 C2792 C 0.27612 0.77608 0.03688
 H2793 H 0.26858 0.79589 0.06642
 H2794 H 0.30974 0.78322 0.04935
 H2795 H 0.29758 0.77062 0.02973
 H2796 H 0.25641 0.78338 0.04681
 C2797 C 0.79075 0.27479 0.05830
 C2798 C 0.79061 0.28977 0.05923
 C2799 C 0.78353 0.29791 0.04879
 C2800 C 0.77641 0.29107 0.03761
 C2801 C 0.81420 0.31435 0.10375
 C2802 C 0.78364 0.26794 0.04713
 C2803 C 0.79728 0.29673 0.07116
 C2804 C 0.80270 0.30241 0.08133
 C2805 C 0.80893 0.30891 0.09338
 C2806 C 0.77628 0.27603 0.03680
 H2807 H 0.79618 0.26839 0.06632
 H2808 H 0.78334 0.30951 0.04943
 H2809 H 0.77076 0.29745 0.02975
 H2810 H 0.78368 0.25633 0.04664
 C2811 C 0.79063 0.77498 0.55937
 C2812 C 0.79058 0.78998 0.56007
 C2813 C 0.78353 0.79800 0.54954
 C2814 C 0.77634 0.79104 0.53847
 C2815 C 0.81444 0.81506 0.60417
 C2816 C 0.78346 0.76802 0.54831
 C2817 C 0.79734 0.79708 0.57186
 C2818 C 0.80284 0.80289 0.58192
 C2819 C 0.80913 0.80952 0.59386
 C2820 C 0.77614 0.77600 0.53787
 H2821 H 0.79604 0.76868 0.56746
 H2822 H 0.78341 0.80961 0.54999
 H2823 H 0.77073 0.79735 0.53051
 H2824 H 0.78343 0.75640 0.54798
 C2825 C 0.27486 0.70900 0.44120
 C2826 C 0.28989 0.70897 0.44029
 C2827 C 0.29803 0.71595 0.45072
 C2828 C 0.29114 0.72315 0.46188
 C2829 C 0.31429 0.68484 0.39574
 C2830 C 0.26797 0.71619 0.45234
 C2831 C 0.29687 0.70216 0.42838
 C2832 C 0.30251 0.69660 0.41821
 C2833 C 0.30892 0.69022 0.40614
 C2834 C 0.27606 0.72345 0.46267
 H2835 H 0.26846 0.70365 0.43318
 H2836 H 0.30967 0.71601 0.45010
 H2837 H 0.29753 0.72873 0.46975
 H2838 H 0.25633 0.71629 0.45281
 C2839 C 0.27468 0.20845 0.94108
 C2840 C 0.28971 0.20825 0.94022
 C2841 C 0.29788 0.21514 0.95069
 C2842 C 0.29103 0.22239 0.96184
 C2843 C 0.31389 0.18458 0.89534
 C2844 C 0.26783 0.21568 0.95221
 C2845 C 0.29665 0.20146 0.92829
 C2846 C 0.30225 0.19597 0.91807
 C2847 C 0.30859 0.18975 0.90588
 C2848 C 0.27595 0.22285 0.96256
 H2849 H 0.26825 0.20318 0.93303
 H2850 H 0.30952 0.21509 0.95010
 H2851 H 0.29745 0.22787 0.96974
 H2852 H 0.25618 0.21590 0.95265
 C2853 C 0.77471 0.70899 0.94123
 C2854 C 0.78974 0.70890 0.94033
 C2855 C 0.79789 0.71585 0.95076
 C2856 C 0.79103 0.72307 0.96193
 C2857 C 0.81422 0.68474 0.89586
 C2858 C 0.76784 0.71618 0.95238
 C2859 C 0.79671 0.70208 0.92843
 C2860 C 0.80236 0.69651 0.91828
 C2861 C 0.80881 0.69011 0.90624
 C2862 C 0.77595 0.72341 0.96271
 H2863 H 0.76829 0.70366 0.93321
 H2864 H 0.80953 0.71587 0.95015
 H2865 H 0.79743 0.72863 0.96979
 H2866 H 0.75620 0.71633 0.95284
 C2867 C 0.77451 0.20896 0.44133
 C2868 C 0.78954 0.20885 0.44041
 C2869 C 0.79772 0.21575 0.45086
 C2870 C 0.79087 0.22295 0.46205
 C2871 C 0.81395 0.18483 0.39585
 C2872 C 0.76766 0.21613 0.45250
 C2873 C 0.79648 0.20207 0.42848
 C2874 C 0.80211 0.19654 0.41830
 C2875 C 0.80854 0.19018 0.40623
 C2876 C 0.77580 0.22331 0.46285
 H2877 H 0.76808 0.20367 0.43329
 H2878 H 0.80935 0.21575 0.45024
 H2879 H 0.79729 0.22846 0.46993
 H2880 H 0.75602 0.21630 0.45298
 C2881 C 0.71580 0.29793 0.45097
 C2882 C 0.70870 0.28980 0.44063
 C2883 C 0.70867 0.27481 0.44162
 C2884 C 0.71592 0.26796 0.45275
 C2885 C 0.68492 0.31427 0.39593
 C2886 C 0.72307 0.29108 0.46213
 C2887 C 0.70192 0.29674 0.42868
 C2888 C 0.69643 0.30239 0.41849
 C2889 C 0.69017 0.30885 0.40638
 C2890 C 0.72332 0.27604 0.46298
 H2891 H 0.71591 0.30953 0.45029
 H2892 H 0.70322 0.26842 0.43367
 H2893 H 0.71598 0.25635 0.45328
 H2894 H 0.72874 0.29746 0.46993
 C2895 C 0.71597 0.79810 0.95066
 C2896 C 0.70892 0.78998 0.94026
 C2897 C 0.70892 0.77499 0.94123
 C2898 C 0.71614 0.76813 0.95238
 C2899 C 0.68497 0.81453 0.89566
 C2900 C 0.72322 0.79124 0.96182
 C2901 C 0.70213 0.79694 0.92833
 C2902 C 0.69660 0.80261 0.91815
 C2903 C 0.69029 0.80909 0.90607
 C2904 C 0.72348 0.77620 0.96265
 H2905 H 0.71606 0.80970 0.95000
 H2906 H 0.70351 0.76860 0.93325
 H2907 H 0.71621 0.75652 0.95289
 H2908 H 0.72885 0.79761 0.96966
 C2909 C 0.21630 0.29785 0.95077
 C2910 C 0.20920 0.28981 0.94035
 C2911 C 0.20913 0.27482 0.94124
 C2912 C 0.21633 0.26788 0.95235
 C2913 C 0.18510 0.31470 0.89602
 C2914 C 0.22352 0.29091 0.96190
 C2915 C 0.20239 0.29687 0.92848
 C2916 C 0.19683 0.30262 0.91836
 C2917 C 0.19046 0.30919 0.90637
 C2918 C 0.22371 0.27587 0.96266
 H2919 H 0.21643 0.30946 0.95017
 H2920 H 0.20368 0.26850 0.93324
 H2921 H 0.21634 0.25626 0.95281
 H2922 H 0.22918 0.29722 0.96976
 C2923 C 0.21599 0.79816 0.45064
 C2924 C 0.20899 0.79005 0.44021
 C2925 C 0.20907 0.77506 0.44109
 C2926 C 0.21632 0.76819 0.45222
 C2927 C 0.18490 0.81471 0.39575
 C2928 C 0.22326 0.79129 0.46178
 C2929 C 0.20214 0.79705 0.42832
 C2930 C 0.19658 0.80274 0.41818
 C2931 C 0.19023 0.80926 0.40614
 C2932 C 0.22360 0.77625 0.46254
 H2933 H 0.21600 0.80977 0.45005
 H2934 H 0.20370 0.76868 0.43308
 H2935 H 0.21645 0.75657 0.45268
 H2936 H 0.22884 0.79765 0.46966
 C2937 C 0.70198 0.71561 0.54959
 C2938 C 0.71015 0.70866 0.56007
 C2939 C 0.72519 0.70880 0.55924
 C2940 C 0.73203 0.71607 0.54812
 C2941 C 0.68541 0.68474 0.60454
 C2942 C 0.70882 0.72288 0.53845
 C2943 C 0.70316 0.70182 0.57196
 C2944 C 0.69743 0.69628 0.58208
 C2945 C 0.69086 0.68999 0.59412
 C2946 C 0.72390 0.72330 0.53774
 H2947 H 0.69034 0.71557 0.55015
 H2948 H 0.73162 0.70348 0.56730
 H2949 H 0.74368 0.71627 0.54771
 H2950 H 0.70239 0.72844 0.53055
 C2951 C 0.72546 0.20868 0.05787
 C2952 C 0.71042 0.20854 0.05871
 C2953 C 0.70224 0.21552 0.04825
 C2954 C 0.70907 0.22284 0.03714
 C2955 C 0.68575 0.18472 0.10327
 C2956 C 0.73230 0.21599 0.04677
 C2957 C 0.70346 0.20173 0.07062
 C2958 C 0.69776 0.19623 0.08079
 C2959 C 0.69123 0.18997 0.09286
 C2960 C 0.72415 0.22327 0.03643
 H2961 H 0.73190 0.20333 0.06591
 H2962 H 0.69060 0.21549 0.04882
 H2963 H 0.70264 0.22842 0.02926
 H2964 H 0.74394 0.21620 0.04636
 C2965 C 0.20848 0.72562 0.05815
 C2966 C 0.20832 0.71063 0.05907
 C2967 C 0.21532 0.70241 0.04867
 C2968 C 0.22268 0.70917 0.03753
 C2969 C 0.18488 0.68641 0.10402
 C2970 C 0.21581 0.73238 0.04703
 C2971 C 0.20153 0.70375 0.07103
 C2972 C 0.19608 0.69815 0.08127
 C2973 C 0.18995 0.69175 0.09346
 C2974 C 0.22311 0.72420 0.03675
 H2975 H 0.20312 0.73207 0.06616
 H2976 H 0.21528 0.69081 0.04930
 H2977 H 0.22827 0.70272 0.02969
 H2978 H 0.21602 0.74399 0.04655
 C2979 C 0.21628 0.20188 0.54969
 C2980 C 0.20922 0.20993 0.56019
 C2981 C 0.20913 0.22492 0.55935
 C2982 C 0.21627 0.23187 0.54821
 C2983 C 0.18528 0.18513 0.60462
 C2984 C 0.22344 0.20882 0.53854
 C2985 C 0.20248 0.20287 0.57209
 C2986 C 0.19697 0.19714 0.58222
 C2987 C 0.19064 0.19060 0.59425
 C2988 C 0.22360 0.22386 0.53782
 H2989 H 0.21643 0.19027 0.55025
 H2990 H 0.20371 0.23125 0.56742
 H2991 H 0.21628 0.24348 0.54779
 H2992 H 0.22907 0.20250 0.53062
   
