data_POSCAR
  _audit_creation_date              2014-09-24
  _audit_creation_method            'ToBaCCo'
  _symmetry_space_group_name_H-M    'P1'
  _symmetry_Int_Tables_number       1
  _symmetry_cell_setting            triclinic
  loop_
  _symmetry_equiv_pos_as_xyz
 x,y,z
_cell_length_a 41.2580
_cell_length_b 42.1816
_cell_length_c 49.8692
_cell_angle_alpha 89.939500
_cell_angle_beta 89.973600
_cell_angle_gamma 90.038800
loop_
  _atom_site_label
  _atom_site_type_symbol
  _atom_site_fract_x
  _atom_site_fract_y
  _atom_site_fract_z
Zr1 Zr 0.24820 0.24834 0.29679
 O2 O 0.27292 0.27288 0.32767
 O3 O 0.21660 0.21942 0.31895
 O4 O 0.21679 0.27826 0.31861
 O5 O 0.30847 0.19272 0.28673
 O6 O 0.19056 0.30650 0.28624
 O7 O 0.27932 0.21835 0.31893
 O8 O 0.18693 0.19458 0.28666
 O9 O 0.20579 0.25004 0.27378
 O10 O 0.24777 0.20707 0.27362
 O11 O 0.25149 0.29043 0.27426
 O12 O 0.29183 0.24917 0.27464
 Zr13 Zr 0.25151 0.25123 0.20312
 Zr14 Zr 0.21025 0.29058 0.24981
 Zr15 Zr 0.28944 0.20888 0.25006
 Zr16 Zr 0.20664 0.20968 0.24972
 O17 O 0.34068 0.21126 0.24936
 O18 O 0.15614 0.21887 0.24854
 O19 O 0.24827 0.20867 0.22535
 O20 O 0.20828 0.25023 0.22550
 O21 O 0.25198 0.29279 0.22602
 O22 O 0.29355 0.24947 0.22647
 C23 C 0.19396 0.20047 0.31134
 C24 C 0.30149 0.19874 0.31138
 C25 C 0.19618 0.29936 0.31090
 O26 O 0.15914 0.28796 0.24709
 O27 O 0.19521 0.31068 0.21325
 O28 O 0.22303 0.28371 0.18105
 C29 C 0.20256 0.30500 0.18862
 O30 O 0.31460 0.30647 0.28628
 Zr31 Zr 0.29305 0.28984 0.25023
 O32 O 0.28288 0.28041 0.18100
 O33 O 0.21553 0.34039 0.25242
 O34 O 0.28633 0.33966 0.25120
 O35 O 0.34390 0.28262 0.24904
 O36 O 0.30976 0.30806 0.21333
 C37 C 0.30351 0.30142 0.18865
 O38 O 0.22517 0.22820 0.17233
 O39 O 0.28405 0.15899 0.25083
 O40 O 0.28087 0.21958 0.18113
 O41 O 0.30520 0.18959 0.21342
 O42 O 0.21134 0.15964 0.25117
 O43 O 0.18862 0.18928 0.21373
 C44 C 0.29983 0.19701 0.18876
 H45 H 0.24753 0.18747 0.28455
 H46 H 0.18909 0.25057 0.21360
 H47 H 0.31366 0.24868 0.21566
 H48 H 0.25215 0.30926 0.28609
 H49 H 0.14482 0.19889 0.25321
 H50 H 0.15093 0.31000 0.24804
 H51 H 0.19345 0.34955 0.25136
 H52 H 0.30737 0.34963 0.24658
 H53 H 0.18971 0.15077 0.25551
 H54 H 0.30618 0.14992 0.25162
 H55 H 0.34868 0.18913 0.24863
 H56 H 0.35412 0.30329 0.24474
 H57 H 0.16986 0.17548 0.21792
 H58 H 0.23383 0.23601 0.15497
 H59 H 0.26441 0.26486 0.34503
 H60 H 0.32965 0.32409 0.28212
 Zr61 Zr 0.75193 0.75178 0.29662
 O62 O 0.72740 0.72724 0.32766
 O63 O 0.78345 0.78092 0.31859
 O64 O 0.78349 0.72205 0.31849
 O65 O 0.69132 0.80704 0.28643
 O66 O 0.80983 0.69385 0.28619
 O67 O 0.72066 0.78167 0.31869
 O68 O 0.81291 0.80583 0.28615
 O69 O 0.79431 0.75022 0.27353
 O70 O 0.75209 0.79298 0.27328
 O71 O 0.74884 0.70961 0.27425
 O72 O 0.70827 0.75064 0.27455
 Zr73 Zr 0.74848 0.74855 0.20295
 Zr74 Zr 0.79003 0.70958 0.24972
 Zr75 Zr 0.71040 0.79086 0.24980
 Zr76 Zr 0.79320 0.79051 0.24931
 O77 O 0.65918 0.78821 0.24919
 O78 O 0.84375 0.78158 0.24806
 O79 O 0.75153 0.79120 0.22502
 O80 O 0.79173 0.74988 0.22525
 O81 O 0.74828 0.70707 0.22602
 O82 O 0.70647 0.75018 0.22638
 C83 C 0.80598 0.79997 0.31086
 C84 C 0.69836 0.80114 0.31110
 C85 C 0.80417 0.70102 0.31083
 O86 O 0.84113 0.71248 0.24694
 O87 O 0.80519 0.68950 0.21321
 O88 O 0.77716 0.71620 0.18096
 C89 C 0.79780 0.69507 0.18856
 O90 O 0.68585 0.69325 0.28646
 Zr91 Zr 0.70724 0.70989 0.25030
 O92 O 0.71720 0.71913 0.18101
 O93 O 0.78503 0.65976 0.25250
 O94 O 0.71424 0.66011 0.25145
 O95 O 0.65635 0.71685 0.24918
 O96 O 0.69053 0.69146 0.21351
 C97 C 0.69669 0.69805 0.18879
 O98 O 0.77461 0.77162 0.17200
 O99 O 0.71551 0.84078 0.25037
 O100 O 0.71893 0.78001 0.18090
 O101 O 0.69451 0.80997 0.21313
 O102 O 0.78820 0.84052 0.25056
 O103 O 0.81104 0.81089 0.21321
 C104 C 0.69989 0.80252 0.18849
 H105 H 0.75225 0.81261 0.28413
 H106 H 0.81091 0.74960 0.21332
 H107 H 0.68634 0.75084 0.21560
 H108 H 0.74828 0.69081 0.28615
 H109 H 0.85497 0.80164 0.25262
 H110 H 0.84947 0.69049 0.24797
 H111 H 0.80716 0.65071 0.25144
 H112 H 0.69325 0.65001 0.24692
 H113 H 0.80979 0.84953 0.25483
 H114 H 0.69333 0.84974 0.25116
 H115 H 0.65105 0.81029 0.24838
 H116 H 0.64622 0.69612 0.24500
 H117 H 0.82972 0.82482 0.21731
 H118 H 0.76597 0.76371 0.15469
 H119 H 0.73589 0.73536 0.34496
 H120 H 0.67087 0.67554 0.28239
 Zr121 Zr 0.75191 0.24798 -0.29673
 O122 O 0.72743 0.27239 -0.32784
 O123 O 0.78341 0.21875 -0.31863
 O124 O 0.78351 0.27763 -0.31870
 O125 O 0.69122 0.19277 -0.28635
 O126 O 0.80987 0.30594 -0.28647
 O127 O 0.72060 0.21801 -0.31870
 O128 O 0.81281 0.19397 -0.28612
 O129 O 0.79428 0.24965 -0.27366
 O130 O 0.75201 0.20689 -0.27327
 O131 O 0.74885 0.29025 -0.27448
 O132 O 0.70824 0.24922 -0.27464
 Zr133 Zr 0.74842 0.25161 -0.20307
 Zr134 Zr 0.79003 0.29038 -0.24996
 Zr135 Zr 0.71032 0.20911 -0.24978
 Zr136 Zr 0.79311 0.20947 -0.24932
 O137 O 0.65909 0.21175 -0.24916
 O138 O 0.84367 0.21842 -0.24813
 O139 O 0.75142 0.20888 -0.22501
 O140 O 0.79168 0.25020 -0.22538
 O141 O 0.74826 0.29300 -0.22626
 O142 O 0.70641 0.24988 -0.22647
 C143 C 0.80590 0.19973 -0.31085
 C144 C 0.69827 0.19857 -0.31104
 C145 C 0.80421 0.29869 -0.31109
 O146 O 0.84111 0.28751 -0.24717
 O147 O 0.80516 0.31066 -0.21353
 O148 O 0.77708 0.28410 -0.18119
 C149 C 0.79773 0.30522 -0.18887
 O150 O 0.68588 0.30657 -0.28670
 Zr151 Zr 0.70723 0.29007 -0.25051
 O152 O 0.71715 0.28110 -0.18120
 O153 O 0.78510 0.34019 -0.25292
 O154 O 0.71430 0.33985 -0.25181
 O155 O 0.65634 0.28309 -0.24936
 O156 O 0.69053 0.30865 -0.21376
 C157 C 0.69667 0.30216 -0.18903
 O158 O 0.77452 0.22870 -0.17206
 O159 O 0.71536 0.15918 -0.25021
 O160 O 0.71882 0.22024 -0.18092
 O161 O 0.69440 0.19015 -0.21305
 O162 O 0.78805 0.15945 -0.25040
 O163 O 0.81092 0.18924 -0.21316
 C164 C 0.69976 0.19771 -0.18844
 H165 H 0.75215 0.18721 -0.28406
 H166 H 0.81085 0.25053 -0.21344
 H167 H 0.68628 0.24926 -0.21569
 H168 H 0.74832 0.30900 -0.28643
 H169 H 0.85487 0.19834 -0.25263
 H170 H 0.84948 0.30950 -0.24828
 H171 H 0.80724 0.34925 -0.25189
 H172 H 0.69332 0.34996 -0.24730
 H173 H 0.80962 0.15042 -0.25465
 H174 H 0.69317 0.15022 -0.25095
 H175 H 0.65094 0.18967 -0.24827
 H176 H 0.64623 0.30383 -0.24522
 H177 H 0.82959 0.17531 -0.21723
 H178 H 0.76587 0.23668 -0.15477
 H179 H 0.73593 0.26419 -0.34512
 H180 H 0.67091 0.32428 -0.28268
 Zr181 Zr 0.24741 0.75302 -0.29682
 O182 O 0.27185 0.72869 -0.32796
 O183 O 0.21602 0.78241 -0.31872
 O184 O 0.21577 0.72343 -0.31882
 O185 O 0.30818 0.80803 -0.28639
 O186 O 0.18925 0.69515 -0.28659
 O187 O 0.27892 0.78302 -0.31873
 O188 O 0.18673 0.80719 -0.28630
 O189 O 0.20497 0.75140 -0.27379
 O190 O 0.24738 0.79404 -0.27336
 O191 O 0.25027 0.71069 -0.27455
 O192 O 0.29101 0.75155 -0.27469
 Zr193 Zr 0.25064 0.74908 -0.20311
 Zr194 Zr 0.20903 0.71061 -0.25006
 Zr195 Zr 0.28899 0.79160 -0.24982
 Zr196 Zr 0.20623 0.79151 -0.24946
 O197 O 0.34020 0.78876 -0.24919
 O198 O 0.15564 0.78269 -0.24837
 O199 O 0.24783 0.79187 -0.22508
 O200 O 0.20745 0.75073 -0.22548
 O201 O 0.25071 0.70775 -0.22630
 O202 O 0.29270 0.75076 -0.22649
 C203 C 0.19353 0.80160 -0.31112
 C204 C 0.30133 0.80249 -0.31119
 C205 C 0.19499 0.70241 -0.31121
 O206 O 0.15794 0.71364 -0.24736
 O207 O 0.19366 0.69035 -0.21363
 O208 O 0.22168 0.71663 -0.18128
 C209 C 0.20085 0.69556 -0.18885
 O210 O 0.31319 0.69413 -0.28670
 Zr211 Zr 0.29181 0.71064 -0.25054
 O212 O 0.28176 0.71939 -0.18123
 O213 O 0.21381 0.66079 -0.25297
 O214 O 0.28458 0.66089 -0.25186
 O215 O 0.34272 0.71749 -0.24934
 O216 O 0.30839 0.69190 -0.21378
 C217 C 0.30221 0.69832 -0.18905
 O218 O 0.22459 0.77197 -0.17208
 O219 O 0.28414 0.84154 -0.25021
 O220 O 0.28030 0.78036 -0.18094
 O221 O 0.30490 0.81042 -0.21308
 O222 O 0.21148 0.84152 -0.25048
 O223 O 0.18831 0.81172 -0.21335
 C224 C 0.29945 0.80286 -0.18846
 H225 H 0.24734 0.81375 -0.28415
 H226 H 0.18824 0.75043 -0.21358
 H227 H 0.31281 0.75129 -0.21568
 H228 H 0.25076 0.69196 -0.28650
 H229 H 0.14451 0.80280 -0.25293
 H230 H 0.14951 0.69168 -0.24846
 H231 H 0.19164 0.65181 -0.25195
 H232 H 0.30550 0.65069 -0.24732
 H233 H 0.18997 0.85063 -0.25482
 H234 H 0.30636 0.85043 -0.25097
 H235 H 0.34844 0.81081 -0.24829
 H236 H 0.35277 0.69672 -0.24519
 H237 H 0.16968 0.82569 -0.21747
 H238 H 0.23318 0.76388 -0.15480
 H239 H 0.26341 0.73700 -0.34522
 H240 H 0.32813 0.67640 -0.28265
 Zr241 Zr 1.25216 1.25211 0.79691
 O242 O 1.22717 1.22781 0.82783
 O243 O 1.28396 1.28088 0.81888
 O244 O 1.28369 1.22250 0.81896
 O245 O 1.19245 1.30816 0.78664
 O246 O 1.30954 1.19371 0.78678
 O247 O 1.22166 1.28269 0.81892
 O248 O 1.31381 1.30536 0.78645
 O249 O 1.29453 1.25002 0.77388
 O250 O 1.25285 1.29324 0.77349
 O251 O 1.24852 1.20990 0.77469
 O252 O 1.20848 1.25147 0.77484
 Zr253 Zr 1.24872 1.24881 0.70328
 Zr254 Zr 1.28973 1.20936 0.75023
 Zr255 Zr 1.21114 1.29159 0.75002
 Zr256 Zr 1.29395 1.29026 0.74960
 O257 O 1.15989 1.28941 0.74940
 O258 O 1.34439 1.28072 0.74837
 O259 O 1.25231 1.29143 0.72530
 O260 O 1.29195 1.24959 0.72567
 O261 O 1.24801 1.20735 0.72642
 O262 O 1.20669 1.25094 0.72662
 C263 C 1.30674 1.29961 0.81115
 C264 C 1.19971 1.30248 0.81129
 C265 C 1.30427 1.20133 0.81140
 O266 O 1.34086 1.21149 0.74739
 O267 O 1.30470 1.18911 0.71380
 O268 O 1.27734 1.21633 0.68144
 C269 C 1.29770 1.19501 0.68914
 O270 O 1.18523 1.19444 0.78679
 Zr271 Zr 1.20696 1.21069 0.75064
 O272 O 1.21716 1.21963 0.68135
 O273 O 1.28400 1.15963 0.75316
 O274 O 1.21332 1.16082 0.75194
 O275 O 1.15617 1.21824 0.74938
 O276 O 1.19018 1.19227 0.71386
 C277 C 1.19647 1.19871 0.68914
 O278 O 1.27511 1.27139 0.67221
 O279 O 1.21672 1.34147 0.75056
 O280 O 1.21989 1.28092 0.68116
 O281 O 1.19562 1.31102 0.71336
 O282 O 1.28963 1.34034 0.75080
 O283 O 1.31205 1.31032 0.71345
 C284 C 1.20120 1.30374 0.68871
 H285 H 1.25330 1.31292 0.78428
 H286 H 1.31116 1.24909 0.71378
 H287 H 1.18662 1.25185 0.71578
 H288 H 1.24778 1.19117 0.78667
 H289 H 1.35585 1.30065 0.75292
 H290 H 1.34889 1.18939 0.74852
 H291 H 1.30601 1.15029 0.75217
 H292 H 1.19221 1.15096 0.74741
 H293 H 1.31134 1.34906 0.75506
 H294 H 1.19463 1.35064 0.75135
 H295 H 1.15199 1.31157 0.74861
 H296 H 1.14580 1.19762 0.74521
 H297 H 1.33089 1.32404 0.71753
 H298 H 1.26633 1.26353 0.65492
 H299 H 1.23569 1.23582 0.84515
 H300 H 1.17004 1.17690 0.78274
 Zr301 Zr 0.74794 0.74803 0.79705
 O302 O 0.77302 0.77239 0.82782
 O303 O 0.71609 0.71943 0.81919
 O304 O 0.71649 0.77777 0.81902
 O305 O 0.80752 0.69182 0.78694
 O306 O 0.69066 0.80650 0.78674
 O307 O 0.77841 0.71748 0.81915
 O308 O 0.68611 0.69494 0.78691
 O309 O 0.70555 0.75010 0.77407
 O310 O 0.74713 0.70679 0.77382
 O311 O 0.75163 0.79014 0.77464
 O312 O 0.79159 0.74848 0.77491
 Zr313 Zr 0.75127 0.75093 0.70341
 Zr314 Zr 0.71040 0.79066 0.75023
 Zr315 Zr 0.78883 0.70826 0.75027
 Zr316 Zr 0.70602 0.70976 0.74997
 O317 O 0.84007 0.71031 0.74958
 O318 O 0.65560 0.71937 0.74871
 O319 O 0.74763 0.70840 0.72561
 O320 O 0.70807 0.75033 0.72586
 O321 O 0.75210 0.79248 0.72635
 O322 O 0.79333 0.74881 0.72670
 C323 C 0.69321 0.70078 0.81158
 C324 C 0.80032 0.69763 0.81158
 C325 C 0.69594 0.79896 0.81139
 O326 O 0.65926 0.78861 0.74750
 O327 O 0.69542 0.81075 0.71373
 O328 O 0.72268 0.78335 0.68146
 C329 C 0.70236 0.80472 0.68909
 O330 O 0.81496 0.80551 0.78658
 Zr331 Zr 0.79316 0.78916 0.75053
 O332 O 0.78287 0.77995 0.68130
 O333 O 0.71624 0.84039 0.75290
 O334 O 0.78691 0.83904 0.75158
 O335 O 0.84394 0.78152 0.74926
 O336 O 0.80996 0.80735 0.71365
 C337 C 0.80364 0.80082 0.68897
 O338 O 0.72483 0.72825 0.67249
 O339 O 0.78311 0.65840 0.75104
 O340 O 0.78007 0.71872 0.68138
 O341 O 0.80432 0.68869 0.71367
 O342 O 0.71022 0.65968 0.75147
 O343 O 0.68789 0.68957 0.71394
 C344 C 0.79875 0.69591 0.68900
 H345 H 0.74665 0.68716 0.78471
 H346 H 0.68885 0.75081 0.71400
 H347 H 0.81339 0.74782 0.71584
 H348 H 0.75242 0.80891 0.78653
 H349 H 0.64411 0.69947 0.75337
 H350 H 0.65128 0.81074 0.74853
 H351 H 0.69425 0.84976 0.75191
 H352 H 0.80803 0.84884 0.74698
 H353 H 0.68849 0.65104 0.75579
 H354 H 0.80517 0.64917 0.75184
 H355 H 0.84792 0.68812 0.74889
 H356 H 0.85434 0.80211 0.74498
 H357 H 0.66905 0.67586 0.71811
 H358 H 0.73359 0.73602 0.65515
 H359 H 0.76449 0.76448 0.84519
 H360 H 0.83014 0.82304 0.78243
 Zr361 Zr 1.25222 0.74793 0.20306
 O362 O 1.22733 0.77239 0.17221
 O363 O 1.28391 0.71914 0.18101
 O364 O 1.28387 0.77747 0.18106
 O365 O 1.19228 0.69199 0.21320
 O366 O 1.30983 0.80615 0.21326
 O367 O 1.22164 0.71750 0.18099
 O368 O 1.31367 0.69451 0.21338
 O369 O 1.29458 0.74986 0.22607
 O370 O 1.25274 0.70672 0.22638
 O371 O 1.24873 0.79009 0.22535
 O372 O 1.20852 0.74861 0.22513
 Zr373 Zr 1.24875 0.75098 0.29665
 Zr374 Zr 1.28994 0.79047 0.24980
 Zr375 Zr 1.21100 0.70841 0.24986
 Zr376 Zr 1.29384 0.70955 0.25026
 O377 O 1.15977 0.71070 0.25051
 O378 O 1.34431 0.71896 0.25150
 O379 O 1.25217 0.70841 0.27456
 O380 O 1.29199 0.75016 0.27427
 O381 O 1.24820 0.79251 0.27362
 O382 O 1.20671 0.74900 0.27334
 C383 C 1.30663 0.70035 0.18869
 C384 C 1.19961 0.69774 0.18856
 C385 C 1.30453 0.79857 0.18864
 O386 O 1.34106 0.78822 0.25262
 O387 O 1.30495 0.81057 0.28628
 O388 O 1.27742 0.78332 0.31856
 C389 C 1.29788 0.80462 0.31092
 O390 O 1.18551 0.80573 0.21330
 Zr391 Zr 1.20715 0.78933 0.24941
 O392 O 1.21729 0.78015 0.31867
 O393 O 1.28441 0.84022 0.24696
 O394 O 1.21369 0.83918 0.24821
 O395 O 1.15632 0.78191 0.25068
 O396 O 1.19042 0.80767 0.28625
 C397 C 1.19668 0.80114 0.31095
 O398 O 1.27505 0.72824 0.32765
 O399 O 1.21638 0.65852 0.24921
 O400 O 1.21981 0.71890 0.31872
 O401 O 1.19543 0.68891 0.28650
 O402 O 1.28935 0.65948 0.24895
 O403 O 1.31181 0.68935 0.28637
 C404 C 1.20106 0.69613 0.31115
 H405 H 1.25312 0.68708 0.21555
 H406 H 1.31119 0.75058 0.28616
 H407 H 1.18663 0.74811 0.28419
 H408 H 1.24807 0.80885 0.21341
 H409 H 1.35569 0.69901 0.24692
 H410 H 1.34916 0.81031 0.25152
 H411 H 1.30645 0.84950 0.24796
 H412 H 1.19263 0.84908 0.25278
 H413 H 1.31104 0.65073 0.24469
 H414 H 1.19426 0.64940 0.24842
 H415 H 1.15179 0.68856 0.25127
 H416 H 1.14604 0.80254 0.25489
 H417 H 1.33061 0.67561 0.28227
 H418 H 1.26631 0.73606 0.34497
 H419 H 1.23583 0.76442 0.15486
 H420 H 1.17039 0.82330 0.21739
 Zr421 Zr 0.74821 1.25196 0.20291
 O422 O 0.77302 1.22765 0.17196
 O423 O 0.71658 1.28099 0.18096
 O424 O 0.71651 1.22252 0.18086
 O425 O 0.80836 1.30765 0.21323
 O426 O 0.69047 1.19377 0.21305
 O427 O 0.77898 1.28246 0.18092
 O428 O 0.68693 1.30553 0.21342
 O429 O 0.70583 1.25002 0.22596
 O430 O 0.74781 1.29302 0.22636
 O431 O 0.75155 1.20967 0.22514
 O432 O 0.79187 1.25100 0.22500
 Zr433 Zr 0.75161 1.24833 0.29659
 Zr434 Zr 0.71034 1.20926 0.24962
 Zr435 Zr 0.78951 1.29106 0.24984
 Zr436 Zr 0.70669 1.29017 0.25026
 O437 O 0.84074 1.28860 0.25047
 O438 O 0.65619 1.28090 0.25147
 O439 O 0.74834 1.29103 0.27457
 O440 O 0.70840 1.24943 0.27419
 O441 O 0.75205 1.20694 0.27343
 O442 O 0.79366 1.25033 0.27323
 C443 C 0.69393 1.29982 0.18871
 C444 C 0.80109 1.30209 0.18856
 C445 C 0.69581 1.20140 0.18843
 O446 O 0.65922 1.21168 0.25241
 O447 O 0.69516 1.18899 0.28605
 O448 O 0.72274 1.21592 0.31842
 C449 C 0.70220 1.19474 0.31072
 O450 O 0.81472 1.19384 0.21306
 Zr451 Zr 0.79311 1.21014 0.24920
 O452 O 0.78301 1.21893 0.31850
 O453 O 0.71573 1.15950 0.24670
 O454 O 0.78639 1.16032 0.24791
 O455 O 0.84396 1.21746 0.25043
 O456 O 0.80982 1.19155 0.28598
 C457 C 0.80359 1.19795 0.31071
 O458 O 0.72540 1.27095 0.32767
 O459 O 0.78427 1.34097 0.24932
 O460 O 0.78067 1.28026 0.31871
 O461 O 0.80514 1.31031 0.28651
 O462 O 0.71138 1.34023 0.24909
 O463 O 0.68872 1.31022 0.28641
 C464 C 0.79951 1.30300 0.31116
 H465 H 0.74750 1.31273 0.21558
 H466 H 0.68918 1.24900 0.28608
 H467 H 0.81374 1.25110 0.28408
 H468 H 0.75217 1.19097 0.21317
 H469 H 0.64487 1.30091 0.24694
 H470 H 0.65103 1.18963 0.25127
 H471 H 0.69366 1.15028 0.24768
 H472 H 0.80742 1.15033 0.25245
 H473 H 0.68974 1.34910 0.24484
 H474 H 0.80641 1.35004 0.24854
 H475 H 0.84880 1.31071 0.25129
 H476 H 0.85419 1.19679 0.25462
 H477 H 0.66998 1.32406 0.28233
 H478 H 0.73412 1.26299 0.34496
 H479 H 0.76455 1.23577 0.15465
 H480 H 0.82980 1.17623 0.21713
 N481 N 0.55780 1.03337 0.02901
 N482 N 0.58012 1.05480 0.03487
 N483 N 0.53490 0.96674 0.04725
 N484 N 0.54128 0.94569 0.06608
 N485 N 0.55777 0.96675 0.02894
 N486 N 0.58042 0.94577 0.03494
 N487 N 0.53477 1.03341 0.04720
 N488 N 0.54066 1.05490 0.06573
 C489 C 0.56884 1.06834 0.05771
 C490 C 0.56954 0.93250 0.05802
 N491 N 0.44217 0.96665 0.02909
 N492 N 0.41995 0.94509 0.03491
 N493 N 0.46504 1.03328 0.04726
 N494 N 0.45858 1.05419 0.06614
 N495 N 0.44215 1.03326 0.02897
 N496 N 0.41941 1.05411 0.03507
 N497 N 0.46520 0.96662 0.04725
 N498 N 0.45943 0.94500 0.06574
 Mn499 Mn 0.49998 1.00001 0.04744
 C500 C 0.43132 0.93149 0.05771
 C501 C 0.43026 1.06731 0.05816
 N502 N 0.55774 0.96669 -0.02910
 N503 N 0.58008 0.94533 -0.03501
 N504 N 0.53486 1.03331 -0.04730
 N505 N 0.54116 1.05449 -0.06605
 N506 N 0.55773 1.03331 -0.02901
 N507 N 0.58031 1.05442 -0.03494
 N508 N 0.53471 0.96665 -0.04727
 N509 N 0.54062 0.94522 -0.06584
 Mn510 Mn 0.55812 1.00003 -0.00004
 C511 C 0.56880 0.93182 -0.05786
 C512 C 0.56938 1.06776 -0.05796
 N513 N 0.44213 1.03335 -0.02907
 N514 N 0.41986 1.05481 -0.03492
 N515 N 0.46496 0.96671 -0.04726
 N516 N 0.45850 0.94572 -0.06608
 N517 N 0.44209 0.96672 -0.02894
 N518 N 0.41937 0.94580 -0.03495
 N519 N 0.46515 1.03339 -0.04727
 N520 N 0.45930 1.05492 -0.06581
 Mn521 Mn 0.44178 1.00000 0.00002
 Mn522 Mn 0.49992 1.00001 -0.04747
 Cl523 Cl 0.49995 1.00001 -0.00002
 C524 C 0.43117 1.06837 -0.05777
 C525 C 0.43020 0.93255 -0.05803
 N526 N 1.03403 0.53438 0.54729
 N527 N 1.05499 0.54132 0.56637
 N528 N 0.96584 0.55639 0.52908
 N529 N 0.94432 0.57847 0.53510
 N530 N 0.96584 0.53396 0.54737
 N531 N 0.94422 0.54007 0.56615
 N532 N 1.03387 0.55663 0.52885
 N533 N 1.05461 0.57935 0.53501
 C534 C 1.06799 0.56923 0.55829
 C535 C 0.93068 0.56772 0.55812
 N536 N 0.96576 0.53415 0.45272
 N537 N 0.94471 0.54090 0.43365
 N538 N 1.03380 0.55659 0.47091
 N539 N 1.05542 0.57867 0.46501
 N540 N 1.03393 0.53418 0.45265
 N541 N 1.05573 0.54028 0.43401
 N542 N 0.96579 0.55640 0.47112
 N543 N 0.94487 0.57894 0.46494
 Mn544 Mn 0.99982 0.55680 0.49998
 C545 C 0.93152 0.56870 0.44169
 C546 C 1.06923 0.56792 0.44209
 N547 N 0.96617 0.46566 0.54739
 N548 N 0.94502 0.45890 0.56639
 N549 N 1.03425 0.44363 0.52898
 N550 N 1.05580 0.42154 0.53491
 N551 N 1.03435 0.46603 0.54725
 N552 N 1.05608 0.45991 0.56593
 N553 N 0.96623 0.44343 0.52897
 N554 N 0.94524 0.42090 0.53507
 Mn555 Mn 1.00010 0.50000 0.54753
 C556 C 0.93183 0.43112 0.55830
 C557 C 1.06957 0.43227 0.55786
 N558 N 1.03400 0.46590 0.45260
 N559 N 1.05502 0.45919 0.43349
 N560 N 0.96603 0.44340 0.47103
 N561 N 0.94466 0.42114 0.46506
 N562 N 0.96581 0.46584 0.45275
 N563 N 0.94419 0.45956 0.43402
 N564 N 1.03406 0.44363 0.47102
 N565 N 1.05500 0.42113 0.46482
 Mn566 Mn 0.99987 0.50002 0.45247
 Mn567 Mn 1.00014 0.44323 0.50001
 Cl568 Cl 0.99998 0.50001 0.50000
 C569 C 1.06827 0.43141 0.44153
 C570 C 0.93087 0.43179 0.44207
 N571 N 0.96673 0.55711 0.02867
 N572 N 0.94513 0.57916 0.03469
 N573 N 1.03479 0.53459 0.04679
 N574 N 1.05631 0.54083 0.06559
 N575 N 1.03483 0.55697 0.02846
 N576 N 1.05628 0.57913 0.03444
 N577 N 0.96662 0.53460 0.04688
 N578 N 0.94489 0.54059 0.06559
 C579 C 0.93137 0.56827 0.05764
 C580 C 1.06983 0.56848 0.05750
 N581 N 1.03463 0.44390 0.02864
 N582 N 1.05621 0.42182 0.03464
 N583 N 0.96655 0.46632 0.04692
 N584 N 0.94525 0.45987 0.06588
 N585 N 0.96652 0.44398 0.02860
 N586 N 0.94527 0.42167 0.03474
 N587 N 1.03475 0.46636 0.04685
 N588 N 1.05648 0.46030 0.06554
 Mn589 Mn 1.00068 0.50047 0.04705
 C590 C 1.06998 0.43264 0.05758
 C591 C 0.93183 0.43216 0.05789
 N592 N 1.03486 0.55717 -0.02963
 N593 N 1.05617 0.57943 -0.03589
 N594 N 0.96666 0.53477 -0.04768
 N595 N 0.94493 0.54095 -0.06633
 N596 N 0.96674 0.55711 -0.02936
 N597 N 0.94515 0.57918 -0.03519
 N598 N 1.03486 0.53470 -0.04784
 N599 N 1.05625 0.54097 -0.06679
 Mn600 Mn 1.00079 0.55742 -0.00046
 C601 C 1.06969 0.56875 -0.05899
 C602 C 0.93141 0.56853 -0.05816
 N603 N 0.96646 0.44405 -0.02946
 N604 N 0.94481 0.42202 -0.03545
 N605 N 1.03463 0.46639 -0.04772
 N606 N 1.05619 0.46011 -0.06650
 N607 N 1.03455 0.44403 -0.02938
 N608 N 1.05597 0.42185 -0.03532
 N609 N 0.96645 0.46652 -0.04770
 N610 N 0.94472 0.46052 -0.06641
 Mn611 Mn 1.00054 0.44366 -0.00040
 Mn612 Mn 1.00065 0.50059 -0.04793
 Cl613 Cl 1.00067 0.50054 -0.00044
 C614 C 0.93111 0.43287 -0.05841
 C615 C 1.06961 0.43245 -0.05837
 N616 N 0.55727 1.03277 0.52935
 N617 N 0.57988 1.05382 0.53537
 N618 N 0.53455 0.96607 0.54760
 N619 N 0.54138 0.94536 0.56659
 N620 N 0.55735 0.96621 0.52921
 N621 N 0.58036 0.94568 0.53533
 N622 N 0.53435 1.03275 0.54763
 N623 N 0.54062 1.05388 0.56639
 C624 C 0.56890 1.06714 0.55838
 C625 C 0.56981 0.93250 0.55854
 N626 N 0.44167 0.96591 0.52952
 N627 N 0.41883 0.94516 0.53578
 N628 N 0.46451 1.03251 0.54774
 N629 N 0.45775 1.05318 0.56675
 N630 N 0.44169 1.03248 0.52939
 N631 N 0.41873 1.05305 0.53556
 N632 N 0.46466 0.96580 0.54773
 N633 N 0.45818 0.94489 0.56667
 Mn634 Mn 0.49952 0.99928 0.54787
 C635 C 0.42972 0.93187 0.55885
 C636 C 0.42934 1.06613 0.55875
 N637 N 0.55735 0.96626 0.47121
 N638 N 0.58003 0.94531 0.46513
 N639 N 0.53447 1.03286 0.45297
 N640 N 0.54139 1.05332 0.43379
 N641 N 0.55730 1.03284 0.47131
 N642 N 0.58043 1.05320 0.46495
 N643 N 0.53438 0.96616 0.45300
 N644 N 0.54067 0.94506 0.43422
 Mn645 Mn 0.55763 0.99952 0.50028
 C646 C 0.56903 0.93194 0.44215
 C647 C 0.56991 1.06618 0.44166
 N648 N 0.44166 1.03266 0.47137
 N649 N 0.41906 1.05372 0.46539
 N650 N 0.46456 0.96615 0.45308
 N651 N 0.45781 0.94552 0.43404
 N652 N 0.44174 0.96610 0.47145
 N653 N 0.41878 0.94552 0.46526
 N654 N 0.46463 1.03282 0.45313
 N655 N 0.45840 1.05409 0.43444
 Mn656 Mn 0.44138 0.99928 0.50043
 Mn657 Mn 0.49950 0.99950 0.45286
 Cl658 Cl 0.49951 0.99939 0.50036
 C659 C 0.43009 1.06723 0.44244
 C660 C 0.42940 0.93251 0.44203
 N661 N 1.05821 1.03272 0.52930
 N662 N 1.08054 1.05409 0.53517
 N663 N 1.03504 0.96610 0.54744
 N664 N 1.04076 0.94456 0.56599
 N665 N 1.05816 0.96617 0.52935
 N666 N 1.08043 0.94476 0.53530
 N667 N 1.03518 1.03272 0.54748
 N668 N 1.04106 1.05417 0.56603
 C669 C 1.06923 1.06757 0.55799
 C670 C 1.06895 0.93117 0.55807
 N671 N 0.94256 0.96628 0.52909
 N672 N 0.92026 0.94481 0.53482
 N673 N 0.96565 1.03280 0.54737
 N674 N 0.96002 1.05448 0.56578
 N675 N 0.94263 1.03283 0.52920
 N676 N 0.92052 1.05445 0.53495
 N677 N 0.96550 0.96619 0.54732
 N678 N 0.95961 0.94457 0.56577
 Mn679 Mn 1.00034 0.99945 0.54761
 C680 C 0.93151 0.93117 0.55761
 C681 C 0.93198 1.06804 0.55770
 N682 N 1.05826 0.96631 0.47134
 N683 N 1.08062 0.94499 0.46546
 N684 N 1.03525 1.03295 0.45320
 N685 N 1.04073 1.05492 0.43497
 N686 N 1.05829 1.03287 0.47134
 N687 N 1.08028 1.05471 0.46576
 N688 N 1.03530 0.96634 0.45312
 N689 N 1.04125 0.94496 0.43453
 Mn690 Mn 1.05863 0.99951 0.50033
 C691 C 1.06938 0.93157 0.44258
 C692 C 1.06871 1.06853 0.44314
 N693 N 0.94271 1.03291 0.47121
 N694 N 0.92024 1.05407 0.46519
 N695 N 0.96577 0.96633 0.45305
 N696 N 0.96018 0.94465 0.43463
 N697 N 0.94267 0.96635 0.47115
 N698 N 0.92052 0.94476 0.46535
 N699 N 0.96573 1.03294 0.45303
 N700 N 0.95971 1.05421 0.43433
 Mn701 Mn 0.94225 0.99960 0.50017
 Mn702 Mn 1.00052 0.99964 0.45289
 Cl703 Cl 1.00044 0.99955 0.50025
 C704 C 0.93147 1.06749 0.44228
 C705 C 0.93206 0.93113 0.44265
 N706 N 0.55754 0.53326 0.02890
 N707 N 0.57987 0.55463 0.03474
 N708 N 0.53443 0.46662 0.04696
 N709 N 0.53993 0.44475 0.06525
 N710 N 0.55749 0.46672 0.02883
 N711 N 0.57953 0.44499 0.03448
 N712 N 0.53456 0.53322 0.04711
 N713 N 0.54046 0.55465 0.06567
 C714 C 0.56860 0.56807 0.05759
 C715 C 0.56796 0.43121 0.05713
 N716 N 0.44199 0.46677 0.02872
 N717 N 0.41977 0.44522 0.03439
 N718 N 0.46508 0.53326 0.04702
 N719 N 0.45974 0.55524 0.06522
 N720 N 0.44204 0.53330 0.02888
 N721 N 0.42018 0.55523 0.03443
 N722 N 0.46495 0.46667 0.04692
 N723 N 0.45915 0.44497 0.06531
 Mn724 Mn 0.49975 0.49995 0.04722
 C725 C 0.43108 0.43153 0.05713
 C726 C 0.43184 0.56897 0.05704
 N727 N 0.55755 0.46701 -0.02911
 N728 N 0.57988 0.44567 -0.03496
 N729 N 0.53448 0.53366 -0.04712
 N730 N 0.53975 0.55590 -0.06515
 N731 N 0.55751 0.53354 -0.02898
 N732 N 0.57931 0.55562 -0.03436
 N733 N 0.53461 0.46707 -0.04733
 N734 N 0.54055 0.44569 -0.06592
 Mn735 Mn 0.55793 0.50013 -0.00010
 C736 C 0.56866 0.43227 -0.05784
 C737 C 0.56762 0.56961 -0.05686
 N738 N 0.44200 0.53347 -0.02905
 N739 N 0.41952 0.55466 -0.03496
 N740 N 0.46513 0.46698 -0.04732
 N741 N 0.45982 0.44500 -0.06552
 N742 N 0.44206 0.46694 -0.02919
 N743 N 0.42021 0.44499 -0.03475
 N744 N 0.46498 0.53358 -0.04725
 N745 N 0.45892 0.55493 -0.06589
 Mn746 Mn 0.44161 0.50012 -0.00016
 Mn747 Mn 0.49981 0.50033 -0.04748
 Cl748 Cl 0.49977 0.50013 -0.00013
 C749 C 0.43070 0.56817 -0.05785
 C750 C 0.43190 0.43125 -0.05734
 C751 C 0.35430 1.14533 0.12938
 C752 C 0.35636 1.13742 0.15668
 C753 C 0.33826 1.15385 0.17573
 C754 C 0.31754 1.17870 0.16802
 C755 C 0.31494 1.18627 0.14060
 C756 C 0.33309 1.16966 0.12145
 C757 C 0.37450 1.12805 0.10957
 C758 C 0.36140 1.11754 0.08512
 C759 C 0.37986 1.09865 0.06780
 C760 C 0.41171 1.09005 0.07464
 C761 C 0.42520 1.10177 0.09849
 C762 C 0.40683 1.12057 0.11573
 H763 H 0.34080 1.14715 0.19659
 H764 H 0.29924 1.20528 0.13397
 H765 H 0.36888 1.08996 0.04951
 H766 H 0.44979 1.09580 0.10417
 H767 H 0.33109 1.17630 0.10054
 H768 H 0.33652 1.12287 0.07990
 H769 H 0.37196 1.11834 0.16335
 H770 H 0.41780 1.12889 0.13415
 C771 C 0.84875 0.64014 0.62934
 C772 C 0.85363 0.63477 0.65685
 C773 C 0.83726 0.65274 0.67599
 C774 C 0.81558 0.67677 0.66824
 C775 C 0.81068 0.68231 0.64070
 C776 C 0.82712 0.66419 0.62145
 C777 C 0.86687 0.62096 0.60928
 C778 C 0.88017 0.63507 0.58617
 C779 C 0.89996 0.61749 0.56885
 C780 C 0.90692 0.58555 0.57440
 C781 C 0.89253 0.57113 0.59682
 C782 C 0.87264 0.58857 0.61397
 H783 H 0.84190 0.64786 0.69697
 H784 H 0.79417 0.70062 0.63400
 H785 H 0.91075 0.62920 0.55170
 H786 H 0.89716 0.54645 0.60143
 H787 H 0.82268 0.66878 0.60040
 H788 H 0.87638 0.66000 0.58206
 H789 H 0.87063 0.61697 0.66367
 H790 H 0.86216 0.57677 0.63121
 C791 C 0.64526 0.85403 0.12907
 C792 C 0.66655 0.82977 0.12116
 C793 C 0.68474 0.81320 0.14032
 C794 C 0.68208 0.82074 0.16773
 C795 C 0.66126 0.84550 0.17541
 C796 C 0.64313 0.86189 0.15636
 C797 C 0.62509 0.87132 0.10925
 C798 C 0.59273 0.87875 0.11539
 C799 C 0.57442 0.89768 0.09819
 C800 C 0.58800 0.90959 0.07442
 C801 C 0.61985 0.90101 0.06757
 C802 C 0.63826 0.88199 0.08485
 H803 H 0.70051 0.79424 0.13370
 H804 H 0.65869 0.85218 0.19627
 H805 H 0.54982 0.90362 0.10387
 H806 H 0.63089 0.90984 0.04932
 H807 H 0.62747 0.88092 0.16301
 H808 H 0.58172 0.87030 0.13377
 H809 H 0.66860 0.82317 0.10025
 H810 H 0.66316 0.87671 0.07965
 C811 C 1.15142 0.35960 0.62895
 C812 C 1.17299 0.33551 0.62110
 C813 C 1.18934 0.31733 0.64038
 C814 C 1.18441 0.32287 0.66791
 C815 C 1.16277 0.34695 0.67562
 C816 C 1.14649 0.36496 0.65645
 C817 C 1.13340 0.37885 0.60887
 C818 C 1.12777 0.41127 0.61352
 C819 C 1.10789 0.42877 0.59640
 C820 C 1.09337 0.41440 0.57406
 C821 C 1.10023 0.38244 0.56853
 C822 C 1.12001 0.36479 0.58582
 H823 H 1.20583 0.29899 0.63372
 H824 H 1.15811 0.35183 0.69659
 H825 H 1.10334 0.45347 0.60098
 H826 H 1.08934 0.37077 0.55143
 H827 H 1.12952 0.38281 0.66324
 H828 H 1.13833 0.42303 0.63072
 H829 H 1.17745 0.33091 0.60006
 H830 H 1.12370 0.33985 0.58175
 C831 C 0.64500 1.14647 -0.12890
 C832 C 0.66634 1.17073 -0.12105
 C833 C 0.68458 1.18722 -0.14025
 C834 C 0.68192 1.17958 -0.16763
 C835 C 0.66104 1.15482 -0.17526
 C836 C 0.64286 1.13852 -0.15617
 C837 C 0.62481 1.12922 -0.10905
 C838 C 0.59243 1.12184 -0.11514
 C839 C 0.57414 1.10283 -0.09797
 C840 C 0.58777 1.09082 -0.07427
 C841 C 0.61963 1.09940 -0.06745
 C842 C 0.63802 1.11849 -0.08470
 H843 H 0.70039 1.20617 -0.13368
 H844 H 0.65846 1.14807 -0.19610
 H845 H 0.54953 1.09689 -0.10362
 H846 H 0.63069 1.09049 -0.04926
 H847 H 0.62716 1.11948 -0.16277
 H848 H 0.58140 1.13034 -0.13349
 H849 H 0.66839 1.17737 -0.10015
 H850 H 0.66294 1.12375 -0.07955
 C851 C 1.15130 0.64034 0.37098
 C852 C 1.14634 0.63491 0.34350
 C853 C 1.16262 0.65291 0.32428
 C854 C 1.18426 0.67701 0.33196
 C855 C 1.18923 0.68259 0.35947
 C856 C 1.17288 0.66445 0.37879
 C857 C 1.13326 0.62115 0.39109
 C858 C 1.11979 0.63531 0.41407
 C859 C 1.09996 0.61771 0.43138
 C860 C 1.09313 0.58573 0.42593
 C861 C 1.10775 0.57126 0.40368
 C862 C 1.12769 0.58871 0.38654
 H863 H 1.15795 0.64799 0.30333
 H864 H 1.20573 0.70096 0.36610
 H865 H 1.08898 0.62945 0.44842
 H866 H 1.10323 0.54654 0.39916
 H867 H 1.17735 0.66908 0.39981
 H868 H 1.12345 0.66028 0.41806
 H869 H 1.12936 0.61704 0.33675
 H870 H 1.13832 0.57690 0.36939
 C871 C 0.35423 0.85417 -0.12900
 C872 C 0.33288 0.82991 -0.12109
 C873 C 0.31465 0.81338 -0.14026
 C874 C 0.31731 0.82099 -0.16767
 C875 C 0.33819 0.84576 -0.17534
 C876 C 0.35636 0.86209 -0.15629
 C877 C 0.37446 0.87144 -0.10919
 C878 C 0.40681 0.87890 -0.11536
 C879 C 0.42518 0.89782 -0.09820
 C880 C 0.41166 0.90968 -0.07441
 C881 C 0.37981 0.90107 -0.06752
 C882 C 0.36135 0.88206 -0.08477
 H883 H 0.29883 0.79443 -0.13364
 H884 H 0.34078 0.85250 -0.19620
 H885 H 0.44977 0.90378 -0.10391
 H886 H 0.36881 0.90986 -0.04927
 H887 H 0.37205 0.88113 -0.16295
 H888 H 0.41780 0.87050 -0.13376
 H889 H 0.33081 0.82327 -0.10018
 H890 H 0.33646 0.87676 -0.07954
 C891 C 0.84946 0.35871 0.37091
 C892 C 0.82786 0.33460 0.37877
 C893 C 0.81147 0.31646 0.35950
 C894 C 0.81641 0.32204 0.33197
 C895 C 0.83811 0.34610 0.32424
 C896 C 0.85442 0.36409 0.34340
 C897 C 0.86743 0.37803 0.39097
 C898 C 0.87299 0.41046 0.38627
 C899 C 0.89275 0.42806 0.40341
 C900 C 0.90723 0.41376 0.42583
 C901 C 0.90046 0.38177 0.43139
 C902 C 0.88079 0.36403 0.41409
 H903 H 0.79494 0.29813 0.36617
 H904 H 0.84279 0.35101 0.30327
 H905 H 0.89723 0.45277 0.39879
 H906 H 0.91132 0.37016 0.44855
 H907 H 0.87142 0.38194 0.33660
 H908 H 0.86245 0.42217 0.36903
 H909 H 0.82337 0.32999 0.39981
 H910 H 0.87714 0.33908 0.41821
 C911 C 1.15261 0.36081 0.12883
 C912 C 1.17524 0.33765 0.12099
 C913 C 1.19176 0.31962 0.14029
 C914 C 1.18588 0.32428 0.16781
 C915 C 1.16325 0.34749 0.17551
 C916 C 1.14686 0.36542 0.15632
 C917 C 1.13438 0.37988 0.10873
 C918 C 1.12787 0.41207 0.11364
 C919 C 1.10783 0.42935 0.09647
 C920 C 1.09393 0.41497 0.07385
 C921 C 1.10162 0.38324 0.06811
 C922 C 1.12164 0.36583 0.08542
 H923 H 1.20904 0.30199 0.13363
 H924 H 1.15788 0.35173 0.19645
 H925 H 1.10266 0.45387 0.10125
 H926 H 1.09125 0.37156 0.05079
 H927 H 1.12914 0.38258 0.16307
 H928 H 1.13788 0.42382 0.13107
 H929 H 1.18036 0.33368 0.09997
 H930 H 1.12604 0.34104 0.08114
 C931 C 0.64782 0.85640 0.62978
 C932 C 0.66976 0.83274 0.62177
 C933 C 0.68813 0.81630 0.64089
 C934 C 0.68494 0.82332 0.66835
 C935 C 0.66364 0.84765 0.67613
 C936 C 0.64538 0.86395 0.65711
 C937 C 0.62716 0.87325 0.61002
 C938 C 0.59465 0.87996 0.61624
 C939 C 0.57576 0.89829 0.59899
 C940 C 0.58889 0.91024 0.57508
 C941 C 0.62093 0.90239 0.56817
 C942 C 0.63992 0.88402 0.58551
 H943 H 0.70432 0.79771 0.63421
 H944 H 0.66071 0.85397 0.69703
 H945 H 0.55105 0.90369 0.60471
 H946 H 0.63164 0.91130 0.54982
 H947 H 0.62927 0.88258 0.66385
 H948 H 0.58392 0.87139 0.63470
 H949 H 0.67210 0.82641 0.60083
 H950 H 0.66491 0.87930 0.58023
 C951 C 1.15169 0.64124 -0.13078
 C952 C 1.17465 0.66408 -0.12296
 C953 C 1.19133 0.68213 -0.14221
 C954 C 1.18534 0.67795 -0.16992
 C955 C 1.16219 0.65489 -0.17745
 C956 C 1.14572 0.63698 -0.15825
 C957 C 1.13342 0.62204 -0.11069
 C958 C 1.12651 0.58996 -0.11582
 C959 C 1.10666 0.57254 -0.09854
 C960 C 1.09331 0.58664 -0.07556
 C961 C 1.10131 0.61828 -0.06966
 C962 C 1.12116 0.63583 -0.08708
 H963 H 1.20885 0.69939 -0.13522
 H964 H 1.15636 0.65057 -0.19832
 H965 H 1.10125 0.54811 -0.10349
 H966 H 1.09138 0.62977 -0.05208
 H967 H 1.12774 0.62007 -0.16501
 H968 H 1.13612 0.57837 -0.13348
 H969 H 1.17997 0.66777 -0.10194
 H970 H 1.12586 0.66051 -0.08260
 C971 C 0.64772 1.14246 0.36994
 C972 C 0.66981 1.16600 0.37800
 C973 C 0.68810 1.18267 0.35891
 C974 C 0.68470 1.17602 0.33140
 C975 C 0.66322 1.15185 0.32355
 C976 C 0.64504 1.13531 0.34254
 C977 C 0.62718 1.12533 0.38972
 C978 C 0.59468 1.11844 0.38361
 C979 C 0.57586 1.10009 0.40095
 C980 C 0.58904 1.08827 0.42489
 C981 C 0.62110 1.09620 0.43165
 C982 C 0.64002 1.11459 0.41422
 H983 H 0.70441 1.20112 0.36567
 H984 H 0.66012 1.14580 0.30260
 H985 H 0.55113 1.09462 0.39531
 H986 H 0.63187 1.08741 0.45000
 H987 H 0.62884 1.11679 0.33571
 H988 H 0.58385 1.12696 0.36518
 H989 H 0.67234 1.17208 0.39898
 H990 H 0.66501 1.11941 0.41944
 C991 C 0.84829 0.63964 0.12887
 C992 C 0.85395 0.63499 0.15637
 C993 C 0.83737 0.65279 0.17553
 C994 C 0.81465 0.67589 0.16780
 C995 C 0.80885 0.68059 0.14026
 C996 C 0.82556 0.66270 0.12099
 C997 C 0.86671 0.62071 0.10881
 C998 C 0.87943 0.63486 0.08549
 C999 C 0.89955 0.61756 0.06819
 C1000 C 0.90736 0.58585 0.07393
 C1001 C 0.89350 0.57137 0.09656
 C1002 C 0.87336 0.58854 0.11372
 H1003 H 0.84268 0.64852 0.19649
 H1004 H 0.79150 0.69815 0.13356
 H1005 H 0.90989 0.62932 0.05087
 H1006 H 0.89876 0.54686 0.10136
 H1007 H 0.82051 0.66670 0.09996
 H1008 H 0.87491 0.65963 0.08120
 H1009 H 0.87173 0.61791 0.16316
 H1010 H 0.86338 0.57670 0.13115
 C1011 C 0.35192 1.14282 0.62996
 C1012 C 0.35446 1.13547 0.65735
 C1013 C 0.33634 1.15196 0.67632
 C1014 C 0.31505 1.17628 0.66847
 C1015 C 0.31176 1.18311 0.64097
 C1016 C 0.33000 1.16649 0.62189
 C1017 C 0.37242 1.12575 0.61023
 C1018 C 0.35952 1.11494 0.58580
 C1019 C 0.37836 1.09643 0.56848
 C1020 C 0.41038 1.08846 0.57531
 C1021 C 0.42365 1.10041 0.59914
 C1022 C 0.40491 1.11889 0.61637
 H1023 H 0.33934 1.14578 0.69726
 H1024 H 0.29559 1.20169 0.63422
 H1025 H 0.36754 1.08752 0.55019
 H1026 H 0.44836 1.09492 0.60480
 H1027 H 0.32758 1.17268 0.60091
 H1028 H 0.33453 1.11976 0.58058
 H1029 H 0.37055 1.11684 0.66415
 H1030 H 0.41575 1.12748 0.63476
 C1031 C 0.84807 0.36113 -0.12941
 C1032 C 0.82527 0.33815 -0.12144
 C1033 C 0.80861 0.32009 -0.14063
 C1034 C 0.81454 0.32455 -0.16818
 C1035 C 0.83733 0.34759 -0.17601
 C1036 C 0.85385 0.36554 -0.15693
 C1037 C 0.86647 0.38020 -0.10943
 C1038 C 0.87326 0.41232 -0.11451
 C1039 C 0.89339 0.42958 -0.09741
 C1040 C 0.90710 0.41524 -0.07467
 C1041 C 0.89916 0.38359 -0.06877
 C1042 C 0.87904 0.36621 -0.08601
 H1043 H 0.79121 0.30259 -0.13387
 H1044 H 0.84273 0.35167 -0.19699
 H1045 H 0.89877 0.45404 -0.10233
 H1046 H 0.90938 0.37195 -0.05136
 H1047 H 0.87170 0.38256 -0.16379
 H1048 H 0.86339 0.42403 -0.13203
 H1049 H 0.82013 0.33432 -0.10040
 H1050 H 0.87443 0.34148 -0.08159
 C1051 C 0.35205 0.85637 0.37038
 C1052 C 0.32991 0.83281 0.37833
 C1053 C 0.31170 0.81633 0.35915
 C1054 C 0.31524 0.82320 0.33167
 C1055 C 0.33676 0.84741 0.32394
 C1056 C 0.35486 0.86376 0.34302
 C1057 C 0.37250 0.87328 0.39024
 C1058 C 0.40509 0.87996 0.38426
 C1059 C 0.42382 0.89829 0.40161
 C1060 C 0.41045 0.91026 0.42541
 C1061 C 0.37832 0.90245 0.43208
 C1062 C 0.35949 0.88409 0.41463
 H1063 H 0.29534 0.79784 0.36580
 H1064 H 0.33996 0.85361 0.30303
 H1065 H 0.44861 0.90366 0.39607
 H1066 H 0.36742 0.91137 0.45033
 H1067 H 0.37113 0.88231 0.33632
 H1068 H 0.41602 0.87136 0.36591
 H1069 H 0.32728 0.82658 0.39929
 H1070 H 0.33443 0.87939 0.41973
 C1071 C 1.13889 1.15111 0.37178
 C1072 C 1.16321 1.17269 0.37925
 C1073 C 1.18101 1.18895 0.35969
 C1074 C 1.17489 1.18386 0.33226
 C1075 C 1.15049 1.16231 0.32490
 C1076 C 1.13278 1.14613 0.34439
 C1077 C 1.12026 1.13309 0.39218
 C1078 C 1.08703 1.12746 0.38839
 C1079 C 1.07009 1.10743 0.40567
 C1080 C 1.08594 1.09276 0.42726
 C1081 C 1.11871 1.09972 0.43205
 C1082 C 1.13578 1.11969 0.41460
 H1083 H 1.19960 1.20543 0.36608
 H1084 H 1.14517 1.15764 0.30401
 H1085 H 1.04472 1.10280 0.40171
 H1086 H 1.13147 1.08869 0.44858
 H1087 H 1.11465 1.12919 0.33796
 H1088 H 1.07423 1.13803 0.37167
 H1089 H 1.16830 1.17715 0.40021
 H1090 H 1.16141 1.12349 0.41797
 C1091 C 0.63755 0.65244 -0.12789
 C1092 C 0.66200 0.67388 -0.12047
 C1093 C 0.67999 0.68983 -0.14008
 C1094 C 0.67391 0.68453 -0.16748
 C1095 C 0.64933 0.66316 -0.17479
 C1096 C 0.63143 0.64730 -0.15525
 C1097 C 0.61890 0.63459 -0.10744
 C1098 C 0.58564 0.62908 -0.11117
 C1099 C 0.56875 0.60896 -0.09395
 C1100 C 0.58469 0.59410 -0.07251
 C1101 C 0.61747 0.60100 -0.06773
 C1102 C 0.63449 0.62106 -0.08511
 H1103 H 0.69870 0.70621 -0.13374
 H1104 H 0.64405 0.65838 -0.19567
 H1105 H 0.54336 0.60436 -0.09788
 H1106 H 0.63028 0.58982 -0.05131
 H1107 H 0.61318 0.63045 -0.16161
 H1108 H 0.57282 0.63976 -0.12783
 H1109 H 0.66708 0.67845 -0.09952
 H1110 H 0.66015 0.62477 -0.08181
 C1111 C 0.86110 1.14990 0.62914
 C1112 C 0.86679 1.14478 0.65658
 C1113 C 0.84902 1.16107 0.67593
 C1114 C 0.82497 1.18290 0.66837
 C1115 C 0.81923 1.18809 0.64089
 C1116 C 0.83709 1.17171 0.62148
 C1117 C 0.87990 1.13189 0.60887
 C1118 C 0.86466 1.11886 0.58617
 C1119 C 0.88189 1.09908 0.56871
 C1120 C 0.91457 1.09194 0.57376
 C1121 C 0.93013 1.10617 0.59568
 C1122 C 0.91304 1.12600 0.61298
 H1123 H 0.85403 1.15631 0.69687
 H1124 H 0.80092 1.20478 0.63436
 H1125 H 0.86934 1.08839 0.55194
 H1126 H 0.95542 1.10139 0.59986
 H1127 H 0.83233 1.17631 0.60048
 H1128 H 0.83912 1.12284 0.58255
 H1129 H 0.88466 1.12767 0.66316
 H1130 H 0.92565 1.13627 0.62992
 C1131 C 0.36194 0.65146 0.12832
 C1132 C 0.36792 0.64627 0.15570
 C1133 C 0.35014 0.66231 0.17519
 C1134 C 0.32580 0.68390 0.16780
 C1135 C 0.31984 0.68921 0.14037
 C1136 C 0.33770 0.67310 0.12082
 C1137 C 0.38054 0.63353 0.10792
 C1138 C 0.36500 0.62025 0.08547
 C1139 C 0.38201 0.60029 0.06804
 C1140 C 0.41473 0.59323 0.07288
 C1141 C 0.43062 0.60779 0.09448
 C1142 C 0.41375 0.62781 0.11175
 H1143 H 0.35533 0.65749 0.19608
 H1144 H 0.30131 0.70575 0.13398
 H1145 H 0.36922 0.58934 0.05150
 H1146 H 0.45597 0.60307 0.09847
 H1147 H 0.33273 0.67772 0.09986
 H1148 H 0.33939 0.62412 0.08209
 H1149 H 0.38599 0.62928 0.16213
 H1150 H 0.42655 0.63829 0.12850
 C1151 C 1.14004 0.85006 0.63021
 C1152 C 1.16441 0.82862 0.62271
 C1153 C 1.18223 0.81228 0.64219
 C1154 C 1.17619 0.81704 0.66983
 C1155 C 1.15156 0.83865 0.67708
 C1156 C 1.13391 0.85488 0.65759
 C1157 C 1.12126 0.86798 0.60981
 C1158 C 1.08801 0.87352 0.61368
 C1159 C 1.07087 0.89315 0.59622
 C1160 C 1.08650 0.90751 0.57435
 C1161 C 1.11931 0.90075 0.56956
 C1162 C 1.13659 0.88118 0.58719
 H1163 H 1.20075 0.79594 0.63542
 H1164 H 1.14586 0.84343 0.69790
 H1165 H 1.04548 0.89764 0.60021
 H1166 H 1.13192 0.91155 0.55283
 H1167 H 1.11572 0.87172 0.66406
 H1168 H 1.07532 0.86310 0.63054
 H1169 H 1.16951 0.82424 0.60174
 H1170 H 1.16222 0.87748 0.58374
 C1171 C 0.63856 0.34915 0.12853
 C1172 C 0.66273 0.32749 0.12095
 C1173 C 0.68064 0.31126 0.14043
 C1174 C 0.67478 0.31647 0.16789
 C1175 C 0.65054 0.33811 0.17536
 C1176 C 0.63272 0.35426 0.15594
 C1177 C 0.61981 0.36709 0.10819
 C1178 C 0.58662 0.37279 0.11217
 C1179 C 0.56958 0.39268 0.09488
 C1180 C 0.58527 0.40714 0.07309
 C1181 C 0.61800 0.40015 0.06814
 C1182 C 0.63517 0.38031 0.08560
 H1183 H 0.69909 0.29469 0.13396
 H1184 H 0.64543 0.34287 0.19628
 H1185 H 0.54424 0.39735 0.09897
 H1186 H 0.63064 0.41102 0.05147
 H1187 H 0.61471 0.37126 0.16244
 H1188 H 0.57394 0.36236 0.12903
 H1189 H 0.66760 0.32291 0.09997
 H1190 H 0.66076 0.37646 0.08209
 C1191 C 0.86120 0.84949 0.37102
 C1192 C 0.83711 0.82770 0.37862
 C1193 C 0.81924 0.81141 0.35915
 C1194 C 0.82505 0.81669 0.33169
 C1195 C 0.84920 0.83849 0.32420
 C1196 C 0.86698 0.85469 0.34360
 C1197 C 0.87999 0.86742 0.39135
 C1198 C 0.91316 0.87325 0.38731
 C1199 C 0.93025 0.89302 0.40465
 C1200 C 0.91464 0.90726 0.42655
 C1201 C 0.88193 0.90017 0.43153
 C1202 C 0.86471 0.88044 0.41403
 H1203 H 0.80085 0.79475 0.36564
 H1204 H 0.85427 0.84331 0.30328
 H1205 H 0.95557 0.89777 0.40052
 H1206 H 0.86934 0.91086 0.44830
 H1207 H 0.88493 0.87178 0.33708
 H1208 H 0.92580 0.86297 0.37038
 H1209 H 0.83228 0.82305 0.39960
 H1210 H 0.83913 0.87650 0.41760
 C1211 C 0.36208 0.34861 -0.12857
 C1212 C 0.33784 0.32695 -0.12104
 C1213 C 0.31997 0.31080 -0.14056
 C1214 C 0.32594 0.31608 -0.16800
 C1215 C 0.35029 0.33768 -0.17542
 C1216 C 0.36808 0.35376 -0.15596
 C1217 C 0.38067 0.36659 -0.10819
 C1218 C 0.41387 0.37237 -0.11204
 C1219 C 0.43073 0.39242 -0.09478
 C1220 C 0.41482 0.40696 -0.07318
 C1221 C 0.38209 0.39985 -0.06833
 C1222 C 0.36510 0.37986 -0.08575
 H1223 H 0.30144 0.29426 -0.13413
 H1224 H 0.35548 0.34248 -0.19633
 H1225 H 0.45608 0.39718 -0.09878
 H1226 H 0.36929 0.41079 -0.05179
 H1227 H 0.38615 0.37076 -0.16241
 H1228 H 0.42670 0.36190 -0.12878
 H1229 H 0.33286 0.32235 -0.10007
 H1230 H 0.33949 0.37596 -0.08236
 C1231 C 1.14908 0.35772 -0.12933
 C1232 C 1.17310 0.33602 -0.12141
 C1233 C 1.18943 0.31772 -0.14057
 C1234 C 1.18190 0.32070 -0.16798
 C1235 C 1.15747 0.34206 -0.17570
 C1236 C 1.14130 0.36028 -0.15665
 C1237 C 1.13176 0.37767 -0.10947
 C1238 C 1.12477 0.40949 -0.11547
 C1239 C 1.10556 0.42757 -0.09830
 C1240 C 1.09298 0.41427 -0.07469
 C1241 C 1.10121 0.38295 -0.06793
 C1242 C 1.12046 0.36478 -0.08519
 H1243 H 1.20815 0.30154 -0.13393
 H1244 H 1.15081 0.34491 -0.19657
 H1245 H 1.09990 0.45176 -0.10388
 H1246 H 1.09185 0.37214 -0.04981
 H1247 H 1.12242 0.37627 -0.16333
 H1248 H 1.13373 0.42028 -0.13375
 H1249 H 1.17964 0.33363 -0.10048
 H1250 H 1.12537 0.34029 -0.08010
 C1251 C 0.64286 0.85169 0.37080
 C1252 C 0.63775 0.85686 0.34329
 C1253 C 0.65573 0.84044 0.32414
 C1254 C 0.67951 0.81839 0.33189
 C1255 C 0.68489 0.81331 0.35943
 C1256 C 0.66677 0.82983 0.37869
 C1257 C 0.62335 0.86956 0.39085
 C1258 C 0.63773 0.88221 0.41407
 C1259 C 0.61981 0.90161 0.43142
 C1260 C 0.58725 0.90875 0.42580
 C1261 C 0.57257 0.89502 0.40324
 C1262 C 0.59034 0.87557 0.38605
 H1263 H 0.65098 0.84523 0.30317
 H1264 H 0.70302 0.79652 0.36613
 H1265 H 0.63174 0.91189 0.44869
 H1266 H 0.54741 0.89979 0.39855
 H1267 H 0.67118 0.82521 0.39973
 H1268 H 0.66314 0.87817 0.41827
 H1269 H 0.62006 0.87403 0.33648
 H1270 H 0.57831 0.86560 0.36870
 C1271 C 0.85115 0.64269 -0.12892
 C1272 C 0.82721 0.66448 -0.12103
 C1273 C 0.81079 0.68266 -0.14023
 C1274 C 0.81816 0.67949 -0.16766
 C1275 C 0.84252 0.65804 -0.17535
 C1276 C 0.85877 0.63993 -0.15626
 C1277 C 0.86858 0.62288 -0.10902
 C1278 C 0.87549 0.59101 -0.11485
 C1279 C 0.89492 0.57307 -0.09774
 C1280 C 0.90779 0.58655 -0.07434
 C1281 C 0.89961 0.61792 -0.06772
 C1282 C 0.88014 0.63595 -0.08493
 H1283 H 0.79214 0.69893 -0.13362
 H1284 H 0.84906 0.65504 -0.19623
 H1285 H 0.90053 0.54884 -0.10320
 H1286 H 0.90919 0.62886 -0.04976
 H1287 H 0.87759 0.62387 -0.16291
 H1288 H 0.86634 0.58009 -0.13298
 H1289 H 0.82080 0.66702 -0.10009
 H1290 H 0.87530 0.66048 -0.07998
 C1291 C 0.35668 1.14800 0.37120
 C1292 C 0.33274 1.16984 0.37904
 C1293 C 0.31473 1.18644 0.35974
 C1294 C 0.32025 1.18144 0.33221
 C1295 C 0.34406 1.15941 0.32451
 C1296 C 0.36194 1.14292 0.34370
 C1297 C 0.37607 1.13006 0.39128
 C1298 C 0.40912 1.12411 0.38657
 C1299 C 0.42679 1.10454 0.40374
 C1300 C 0.41197 1.09060 0.42618
 C1301 C 0.37938 1.09770 0.43174
 C1302 C 0.36156 1.11723 0.41441
 H1303 H 0.29657 1.20321 0.36640
 H1304 H 0.34892 1.15469 0.30355
 H1305 H 0.45198 1.09981 0.39912
 H1306 H 0.36735 1.08726 0.44892
 H1307 H 0.37966 1.12577 0.33693
 H1308 H 0.42125 1.13423 0.36930
 H1309 H 0.32822 1.17439 0.40008
 H1310 H 0.33612 1.12122 0.41853
 C1311 C 1.14902 0.64289 0.12891
 C1312 C 1.17306 0.66466 0.12110
 C1313 C 1.18937 0.68283 0.14036
 C1314 C 1.18180 0.67965 0.16776
 C1315 C 1.15734 0.65822 0.17536
 C1316 C 1.14119 0.64012 0.15621
 C1317 C 1.13177 0.62305 0.10893
 C1318 C 1.12482 0.59117 0.11475
 C1319 C 1.10569 0.57317 0.09747
 C1320 C 1.09315 0.58660 0.07390
 C1321 C 1.10136 0.61799 0.06732
 C1322 C 1.12053 0.63609 0.08470
 H1323 H 1.20811 0.69907 0.13381
 H1324 H 1.15066 0.65522 0.19622
 H1325 H 1.10005 0.54892 0.10292
 H1326 H 1.09203 0.62890 0.04924
 H1327 H 1.12230 0.62406 0.16279
 H1328 H 1.13373 0.58027 0.13299
 H1329 H 1.17965 0.66720 0.10019
 H1330 H 1.12541 0.66063 0.07974
 C1331 C 0.64270 1.14777 0.62947
 C1332 C 0.66655 1.16970 0.62149
 C1333 C 0.68470 1.18630 0.64068
 C1334 C 0.67941 1.18123 0.66824
 C1335 C 0.65569 1.15911 0.67608
 C1336 C 0.63768 1.14261 0.65699
 C1337 C 0.62318 1.12981 0.60949
 C1338 C 0.59020 1.12365 0.61439
 C1339 C 0.57243 1.10412 0.59726
 C1340 C 0.58709 1.09043 0.57467
 C1341 C 0.61961 1.09771 0.56894
 C1342 C 0.63752 1.11719 0.58623
 H1343 H 0.70277 1.20314 0.63392
 H1344 H 0.65101 1.15433 0.69707
 H1345 H 0.54730 1.09923 0.60203
 H1346 H 0.63152 1.08747 0.55165
 H1347 H 0.62005 1.12539 0.66386
 H1348 H 0.57820 1.13359 0.63176
 H1349 H 0.67088 1.17431 0.60043
 H1350 H 0.66291 1.12134 0.58195
 C1351 C 0.85244 0.35717 0.12922
 C1352 C 0.82825 0.33564 0.12127
 C1353 C 0.81168 0.31741 0.14040
 C1354 C 0.81912 0.32027 0.16784
 C1355 C 0.84373 0.34146 0.17559
 C1356 C 0.86013 0.35961 0.15656
 C1357 C 0.86995 0.37713 0.10937
 C1358 C 0.87724 0.40888 0.11543
 C1359 C 0.89641 0.42700 0.09818
 C1360 C 0.90867 0.41385 0.07441
 C1361 C 0.90021 0.38258 0.06765
 C1362 C 0.88100 0.36437 0.08498
 H1363 H 0.79285 0.30137 0.13373
 H1364 H 0.85034 0.34421 0.19647
 H1365 H 0.90224 0.45113 0.10380
 H1366 H 0.90932 0.37186 0.04942
 H1367 H 0.87912 0.37545 0.16329
 H1368 H 0.86850 0.41960 0.13378
 H1369 H 0.82173 0.33335 0.10033
 H1370 H 0.87588 0.33994 0.07983
 C1371 C 0.35544 0.85192 0.63067
 C1372 C 0.33108 0.83051 0.62286
 C1373 C 0.31293 0.81391 0.64212
 C1374 C 0.31862 0.81834 0.66984
 C1375 C 0.34306 0.84010 0.67737
 C1376 C 0.36099 0.85656 0.65815
 C1377 C 0.37498 0.86984 0.61056
 C1378 C 0.40809 0.87563 0.61519
 C1379 C 0.42596 0.89499 0.59791
 C1380 C 0.41129 0.90888 0.57539
 C1381 C 0.37861 0.90201 0.56994
 C1382 C 0.36060 0.88272 0.58739
 H1383 H 0.29451 0.79757 0.63514
 H1384 H 0.34851 0.84477 0.69825
 H1385 H 0.45119 0.89955 0.60248
 H1386 H 0.36668 0.91241 0.55272
 H1387 H 0.37903 0.87339 0.66493
 H1388 H 0.42017 0.86549 0.63246
 H1389 H 0.32631 0.82626 0.60182
 H1390 H 0.33513 0.87890 0.58328
 C1391 C 0.35947 1.15072 -0.12879
 C1392 C 0.33656 1.17359 -0.12097
 C1393 C 0.31868 1.19028 -0.14029
 C1394 C 0.32323 1.18425 -0.16780
 C1395 C 0.34612 1.16128 -0.17546
 C1396 C 0.36392 1.14477 -0.15625
 C1397 C 0.37854 1.13253 -0.10869
 C1398 C 0.41134 1.12567 -0.11359
 C1399 C 0.42860 1.10572 -0.09645
 C1400 C 0.41356 1.09223 -0.07390
 C1401 C 0.38125 1.10025 -0.06816
 C1402 C 0.36386 1.12023 -0.08542
 H1403 H 0.30129 1.20782 -0.13366
 H1404 H 0.35025 1.15583 -0.19640
 H1405 H 0.45360 1.10028 -0.10123
 H1406 H 0.36908 1.09020 -0.05088
 H1407 H 0.38090 1.12687 -0.16294
 H1408 H 0.42356 1.13533 -0.13100
 H1409 H 0.33273 1.17881 -0.09995
 H1410 H 0.33859 1.12497 -0.08118
 C1411 C 0.85497 0.64579 0.37015
 C1412 C 0.83156 0.66808 0.37813
 C1413 C 0.81538 0.68657 0.35900
 C1414 C 0.82238 0.68314 0.33154
 C1415 C 0.84638 0.66135 0.32375
 C1416 C 0.86245 0.64298 0.34278
 C1417 C 0.87179 0.62534 0.38999
 C1418 C 0.87814 0.59340 0.38393
 C1419 C 0.89660 0.57473 0.40124
 C1420 C 0.90900 0.58752 0.42508
 C1421 C 0.90145 0.61900 0.43185
 C1422 C 0.88300 0.63777 0.41443
 H1423 H 0.79703 0.70312 0.36569
 H1424 H 0.85268 0.65821 0.30284
 H1425 H 0.90177 0.55046 0.39564
 H1426 H 0.91071 0.62944 0.45013
 H1427 H 0.88092 0.62659 0.33604
 H1428 H 0.86921 0.58294 0.36553
 H1429 H 0.82525 0.67070 0.39909
 H1430 H 0.87861 0.66232 0.41960
 C1431 C 0.64058 1.15076 0.12865
 C1432 C 0.66360 1.17357 0.12081
 C1433 C 0.68147 1.19028 0.14010
 C1434 C 0.67680 1.18436 0.16763
 C1435 C 0.65380 1.16146 0.17532
 C1436 C 0.63600 1.14492 0.15613
 C1437 C 0.62152 1.13252 0.10858
 C1438 C 0.58869 1.12567 0.11344
 C1439 C 0.57143 1.10569 0.09633
 C1440 C 0.58648 1.09219 0.07383
 C1441 C 0.61882 1.10019 0.06811
 C1442 C 0.63621 1.12019 0.08536
 H1443 H 0.69896 1.20776 0.13346
 H1444 H 0.64957 1.15608 0.19627
 H1445 H 0.54642 1.10027 0.10110
 H1446 H 0.63100 1.09013 0.05087
 H1447 H 0.61895 1.12708 0.16286
 H1448 H 0.57645 1.13535 0.13081
 H1449 H 0.66753 1.17871 0.09978
 H1450 H 0.66150 1.12492 0.08112
 C1451 C 1.14419 0.64706 0.62956
 C1452 C 1.16774 0.66926 0.62153
 C1453 C 1.18390 0.68783 0.64061
 C1454 C 1.17674 0.68458 0.66807
 C1455 C 1.15256 0.66294 0.67588
 C1456 C 1.13652 0.64449 0.65690
 C1457 C 1.12746 0.62643 0.60980
 C1458 C 1.12104 0.59454 0.61610
 C1459 C 1.10267 0.57570 0.59886
 C1460 C 1.09039 0.58826 0.57487
 C1461 C 1.09800 0.61969 0.56790
 C1462 C 1.11637 0.63863 0.58522
 H1463 H 1.20239 0.70426 0.63390
 H1464 H 1.14611 0.65994 0.69678
 H1465 H 1.09747 0.55146 0.60464
 H1466 H 1.08884 0.62996 0.54949
 H1467 H 1.11794 0.62820 0.66368
 H1468 H 1.12987 0.58425 0.63461
 H1469 H 1.17419 0.67171 0.60058
 H1470 H 1.12082 0.66313 0.57987
 C1471 C 0.64076 0.84976 -0.12891
 C1472 C 0.66357 0.82680 -0.12105
 C1473 C 0.68145 0.81008 -0.14032
 C1474 C 0.67701 0.81613 -0.16785
 C1475 C 0.65424 0.83920 -0.17556
 C1476 C 0.63643 0.85576 -0.15639
 C1477 C 0.62164 0.86794 -0.10886
 C1478 C 0.58887 0.87488 -0.11382
 C1479 C 0.57155 0.89475 -0.09668
 C1480 C 0.58649 0.90808 -0.07405
 C1481 C 0.61877 0.90001 -0.06826
 C1482 C 0.63622 0.88011 -0.08553
 H1483 H 0.69875 0.79246 -0.13365
 H1484 H 0.65019 0.84468 -0.19651
 H1485 H 0.54658 0.90024 -0.10150
 H1486 H 0.63087 0.90994 -0.05093
 H1487 H 0.61954 0.87372 -0.16313
 H1488 H 0.57672 0.86533 -0.13128
 H1489 H 0.66731 0.82154 -0.10002
 H1490 H 0.66147 0.87531 -0.08123
 C1491 C 1.14525 0.35463 0.37008
 C1492 C 1.16864 0.33234 0.37813
 C1493 C 1.18489 0.31386 0.35904
 C1494 C 1.17799 0.31731 0.33156
 C1495 C 1.15404 0.33913 0.32371
 C1496 C 1.13789 0.35748 0.34270
 C1497 C 1.12829 0.37500 0.38989
 C1498 C 1.12182 0.40693 0.38379
 C1499 C 1.10325 0.42551 0.40107
 C1500 C 1.09085 0.41266 0.42492
 C1501 C 1.09850 0.38120 0.43171
 C1502 C 1.11705 0.36251 0.41433
 H1503 H 1.20320 0.29729 0.36578
 H1504 H 1.14781 0.34229 0.30279
 H1505 H 1.09801 0.44978 0.39545
 H1506 H 1.08924 0.37070 0.45000
 H1507 H 1.11944 0.37387 0.33590
 H1508 H 1.13076 0.41745 0.36540
 H1509 H 1.17487 0.32968 0.39910
 H1510 H 1.12152 0.33797 0.41953
 C1511 C 0.35982 0.84902 0.12876
 C1512 C 0.33685 0.82618 0.12098
 C1513 C 0.31894 0.80955 0.14033
 C1514 C 0.32355 0.81559 0.16783
 C1515 C 0.34651 0.83851 0.17546
 C1516 C 0.36435 0.85498 0.15621
 C1517 C 0.37886 0.86719 0.10862
 C1518 C 0.41169 0.87399 0.11341
 C1519 C 0.42891 0.89398 0.09626
 C1520 C 0.41379 0.90754 0.07380
 C1521 C 0.38144 0.89955 0.06814
 C1522 C 0.36410 0.87954 0.08543
 H1523 H 0.30149 0.79203 0.13374
 H1524 H 0.35068 0.84397 0.19639
 H1525 H 0.45393 0.89940 0.10096
 H1526 H 0.36922 0.90967 0.05094
 H1527 H 0.38138 0.87286 0.16286
 H1528 H 0.42395 0.86428 0.13077
 H1529 H 0.33297 0.82096 0.09997
 H1530 H 0.33879 0.87484 0.08127
 C1531 C 0.85500 0.35393 0.62958
 C1532 C 0.83151 0.33170 0.62160
 C1533 C 0.81534 0.31317 0.64074
 C1534 C 0.82245 0.31652 0.66818
 C1535 C 0.84655 0.33823 0.67595
 C1536 C 0.86261 0.35662 0.65691
 C1537 C 0.87180 0.37443 0.60976
 C1538 C 0.87815 0.40636 0.61588
 C1539 C 0.89669 0.42506 0.59863
 C1540 C 0.90918 0.41230 0.57481
 C1541 C 0.90158 0.38085 0.56797
 C1542 C 0.88305 0.36205 0.58531
 H1543 H 0.79691 0.29669 0.63407
 H1544 H 0.85294 0.34129 0.69685
 H1545 H 0.90189 0.44932 0.60428
 H1546 H 0.91090 0.37044 0.54968
 H1547 H 0.88116 0.37297 0.66364
 H1548 H 0.86918 0.41677 0.63428
 H1549 H 0.82512 0.32916 0.60066
 H1550 H 0.87864 0.33751 0.58012
 C1551 C 1.14200 1.14779 0.62941
 C1552 C 1.13748 1.14165 0.65684
 C1553 C 1.15528 1.15804 0.67609
 C1554 C 1.17817 1.18103 0.66842
 C1555 C 1.18299 1.18700 0.64093
 C1556 C 1.16511 1.17048 0.62161
 C1557 C 1.12268 1.13015 0.60928
 C1558 C 1.13723 1.11793 0.58597
 C1559 C 1.11952 1.09854 0.56854
 C1560 C 1.08705 1.09105 0.57419
 C1561 C 1.07215 1.10450 0.59677
 C1562 C 1.08974 1.12389 0.61408
 H1563 H 1.15101 1.15264 0.69703
 H1564 H 1.20043 1.20455 0.63432
 H1565 H 1.13156 1.08846 0.55123
 H1566 H 1.04704 1.09943 0.60145
 H1567 H 1.16899 1.17579 0.60060
 H1568 H 1.16261 1.12225 0.58182
 H1569 H 1.12034 1.12382 0.66347
 H1570 H 1.07768 1.13357 0.63154
 C1571 C 0.64193 0.64760 0.12904
 C1572 C 0.66490 0.67042 0.12126
 C1573 C 0.68293 0.68674 0.14060
 C1574 C 0.67839 0.68043 0.16806
 C1575 C 0.65567 0.65727 0.17570
 C1576 C 0.63772 0.64107 0.15643
 C1577 C 0.62243 0.63020 0.10890
 C1578 C 0.58952 0.62395 0.11384
 C1579 C 0.57178 0.60473 0.09652
 C1580 C 0.58651 0.59146 0.07379
 C1581 C 0.61893 0.59898 0.06799
 C1582 C 0.63678 0.61820 0.08544
 H1583 H 0.70023 0.70444 0.13402
 H1584 H 0.65163 0.65161 0.19662
 H1585 H 0.54670 0.59963 0.10130
 H1586 H 0.63083 0.58904 0.05056
 H1587 H 0.62069 0.62312 0.16301
 H1588 H 0.57763 0.63348 0.13144
 H1589 H 0.66855 0.67600 0.10028
 H1590 H 0.66214 0.62254 0.08118
 C1591 C 1.14231 0.85185 0.37088
 C1592 C 1.16542 0.82916 0.37859
 C1593 C 1.18328 0.81272 0.35921
 C1594 C 1.17843 0.81877 0.33173
 C1595 C 1.15555 0.84177 0.32415
 C1596 C 1.13777 0.85809 0.34347
 C1597 C 1.12297 0.86937 0.39108
 C1598 C 1.13749 0.88154 0.41441
 C1599 C 1.11974 0.90079 0.43193
 C1600 C 1.08726 0.90819 0.42632
 C1601 C 1.07239 0.89479 0.40371
 C1602 C 1.09002 0.87553 0.38633
 H1603 H 1.20071 0.79517 0.36575
 H1604 H 1.15126 0.84723 0.30323
 H1605 H 1.13176 0.91084 0.44925
 H1606 H 1.04727 0.89979 0.39907
 H1607 H 1.12063 0.87591 0.33691
 H1608 H 1.16289 0.87727 0.41853
 H1609 H 1.16932 0.82379 0.39958
 H1610 H 1.07798 0.86589 0.36885
 C1611 C 0.64199 0.35280 -0.12934
 C1612 C 0.63781 0.35928 -0.15674
 C1613 C 0.65574 0.34302 -0.17599
 C1614 C 0.67840 0.31985 -0.16833
 C1615 C 0.68291 0.31360 -0.14085
 C1616 C 0.66491 0.32997 -0.12154
 C1617 C 0.62250 0.37023 -0.10921
 C1618 C 0.63684 0.38222 -0.08574
 C1619 C 0.61898 0.40142 -0.06828
 C1620 C 0.58657 0.40893 -0.07407
 C1621 C 0.57187 0.39568 -0.09682
 C1622 C 0.58961 0.37649 -0.11416
 H1623 H 0.65173 0.34863 -0.19692
 H1624 H 0.70016 0.29590 -0.13425
 H1625 H 0.63086 0.41134 -0.05084
 H1626 H 0.54680 0.40078 -0.10160
 H1627 H 0.66852 0.32443 -0.10054
 H1628 H 0.66218 0.37787 -0.08148
 H1629 H 0.62083 0.37723 -0.16334
 H1630 H 0.57772 0.36697 -0.13176
 C1631 C 0.85809 1.14691 0.37045
 C1632 C 0.83510 1.16968 0.37824
 C1633 C 0.81718 1.18620 0.35892
 C1634 C 0.82185 1.18017 0.33143
 C1635 C 0.84458 1.15708 0.32377
 C1636 C 0.86242 1.14067 0.34302
 C1637 C 0.87753 1.12935 0.39059
 C1638 C 0.91043 1.12306 0.38567
 C1639 C 0.92816 1.10389 0.40308
 C1640 C 0.91346 1.09068 0.42588
 C1641 C 0.88102 1.09816 0.43161
 C1642 C 0.86317 1.11733 0.41408
 H1643 H 0.79987 1.20383 0.36553
 H1644 H 0.84872 1.15163 0.30283
 H1645 H 0.95325 1.09882 0.39832
 H1646 H 0.86912 1.08827 0.44908
 H1647 H 0.87945 1.12279 0.33640
 H1648 H 0.92236 1.13258 0.36806
 H1649 H 0.83136 1.17507 0.39924
 H1650 H 0.83782 1.12168 0.41833
 C1651 C 0.35687 0.64739 -0.12941
 C1652 C 0.33395 0.67019 -0.12157
 C1653 C 0.31593 0.68664 -0.14087
 C1654 C 0.32044 0.68049 -0.16836
 C1655 C 0.34308 0.65733 -0.17604
 C1656 C 0.36101 0.64100 -0.15683
 C1657 C 0.37645 0.62994 -0.10931
 C1658 C 0.40934 0.62374 -0.11434
 C1659 C 0.42720 0.60461 -0.09699
 C1660 C 0.41262 0.59138 -0.07415
 C1661 C 0.38020 0.59881 -0.06830
 C1662 C 0.36223 0.61794 -0.08577
 H1663 H 0.29870 0.70433 -0.13424
 H1664 H 0.34709 0.65179 -0.19698
 H1665 H 0.45227 0.59957 -0.10184
 H1666 H 0.36841 0.58890 -0.05079
 H1667 H 0.37800 0.62307 -0.16346
 H1668 H 0.42116 0.63325 -0.13200
 H1669 H 0.33036 0.67568 -0.10058
 H1670 H 0.33690 0.62224 -0.08143
 C1671 C 0.85844 0.85109 0.62897
 C1672 C 0.83516 0.82855 0.62129
 C1673 C 0.81715 0.81225 0.64070
 C1674 C 0.82202 0.81831 0.66815
 C1675 C 0.84508 0.84116 0.67570
 C1676 C 0.86300 0.85734 0.65637
 C1677 C 0.87786 0.86854 0.60876
 C1678 C 0.91085 0.87454 0.61350
 C1679 C 0.92852 0.89391 0.59620
 C1680 C 0.91365 0.90759 0.57370
 C1681 C 0.88114 0.90030 0.56807
 C1682 C 0.86335 0.88093 0.58550
 H1683 H 0.79959 0.79479 0.63419
 H1684 H 0.84938 0.84662 0.69661
 H1685 H 0.95367 0.89883 0.60084
 H1686 H 0.86913 0.91055 0.55082
 H1687 H 0.88027 0.87507 0.66289
 H1688 H 0.92287 0.86472 0.63093
 H1689 H 0.83124 0.82319 0.60031
 H1690 H 0.83792 0.87679 0.58141
 C1691 C 0.35818 0.35153 0.12854
 C1692 C 0.33492 0.32895 0.12092
 C1693 C 0.31693 0.31272 0.14038
 C1694 C 0.32182 0.31890 0.16781
 C1695 C 0.34485 0.34179 0.17530
 C1696 C 0.36276 0.35790 0.15591
 C1697 C 0.37758 0.36888 0.10829
 C1698 C 0.41059 0.37481 0.11296
 C1699 C 0.42823 0.39417 0.09563
 C1700 C 0.41329 0.40788 0.07318
 C1701 C 0.38077 0.40062 0.06759
 C1702 C 0.36301 0.38127 0.08505
 H1703 H 0.29938 0.29523 0.13392
 H1704 H 0.34917 0.34732 0.19619
 H1705 H 0.45340 0.39907 0.10023
 H1706 H 0.36872 0.41090 0.05037
 H1707 H 0.38004 0.37566 0.16238
 H1708 H 0.42263 0.36499 0.13038
 H1709 H 0.33099 0.32351 0.09995
 H1710 H 0.33757 0.37716 0.08101
   
