data_POSCAR
  _audit_creation_date              2014-09-24
  _audit_creation_method            'ToBaCCo'
  _symmetry_space_group_name_H-M    'P1'
  _symmetry_Int_Tables_number       1
  _symmetry_cell_setting            triclinic
  loop_
  _symmetry_equiv_pos_as_xyz
 x,y,z
_cell_length_a 65.9896
_cell_length_b 69.0840
_cell_length_c 68.7950
_cell_angle_alpha 89.885800
_cell_angle_beta 90.088300
_cell_angle_gamma 90.119800
loop_
  _atom_site_label
  _atom_site_type_symbol
  _atom_site_fract_x
  _atom_site_fract_y
  _atom_site_fract_z
C1 C 0.35307 0.32486 0.34664
 C2 C 0.34541 0.34147 0.33752
 C3 C 0.32722 0.35002 0.34364
 C4 C 0.31755 0.34273 0.36035
 C5 C 0.32542 0.32652 0.37027
 C6 C 0.34287 0.31745 0.36292
 H7 H 0.35357 0.34775 0.32540
 H8 H 0.30378 0.34950 0.36543
 H9 H 0.34815 0.30415 0.36953
 C10 C 0.37297 0.83961 -0.18131
 C11 C 0.36388 0.85617 -0.18945
 C12 C 0.34794 0.86623 -0.18022
 C13 C 0.34290 0.86061 -0.16103
 C14 C 0.35261 0.84485 -0.15198
 C15 C 0.36692 0.83413 -0.16249
 H16 H 0.37021 0.86204 -0.20266
 H17 H 0.33117 0.86801 -0.15308
 H18 H 0.37258 0.82094 -0.15603
 C19 C 0.84909 0.34142 -0.15942
 C20 C 0.83841 0.35818 -0.16484
 C21 C 0.82295 0.36592 -0.15298
 C22 C 0.81853 0.35623 -0.13545
 C23 C 0.82921 0.33964 -0.12962
 C24 C 0.84451 0.33234 -0.14169
 H25 H 0.84256 0.36525 -0.17828
 H26 H 0.80579 0.36075 -0.12671
 H27 H 0.85300 0.31970 -0.13720
 C28 C 0.88354 0.83169 0.32161
 C29 C 0.87486 0.82452 0.33876
 C30 C 0.85743 0.83312 0.34674
 C31 C 0.84865 0.84911 0.33715
 C32 C 0.85719 0.85676 0.31992
 C33 C 0.87516 0.84821 0.31295
 H34 H 0.88147 0.81197 0.34569
 H35 H 0.83440 0.85460 0.34252
 H36 H 0.88313 0.85457 0.30079
 C37 C 0.66982 0.68816 0.33372
 C38 C 0.67690 0.67087 0.32544
 C39 C 0.69372 0.66109 0.33334
 C40 C 0.70332 0.66888 0.34986
 C41 C 0.69696 0.68651 0.35797
 C42 C 0.68011 0.69596 0.34980
 H43 H 0.66965 0.66540 0.31243
 H44 H 0.71572 0.66110 0.35656
 H45 H 0.67501 0.70952 0.35589
 C46 C 0.63065 0.16085 -0.17872
 C47 C 0.63786 0.14313 -0.18584
 C48 C 0.65640 0.13506 -0.17927
 C49 C 0.66708 0.14515 -0.16451
 C50 C 0.65979 0.16271 -0.15697
 C51 C 0.64165 0.17038 -0.16421
 H52 H 0.62838 0.13550 -0.19610
 H53 H 0.68172 0.14023 -0.15951
 H54 H 0.63619 0.18405 -0.15864
 C55 C 0.17810 0.67046 -0.15021
 C56 C 0.18373 0.65205 -0.15708
 C57 C 0.19926 0.64126 -0.14781
 C58 C 0.20825 0.64922 -0.13094
 C59 C 0.20298 0.66762 -0.12408
 C60 C 0.18784 0.67802 -0.13376
 H61 H 0.17685 0.64692 -0.17040
 H62 H 0.21907 0.64091 -0.12259
 H63 H 0.18377 0.69229 -0.12864
 C64 C 0.11257 0.16881 0.32410
 C65 C 0.11743 0.15069 0.31633
 C66 C 0.13431 0.14028 0.32286
 C67 C 0.14495 0.14711 0.33922
 C68 C 0.13949 0.16472 0.34819
 C69 C 0.12349 0.17565 0.34018
 H70 H 0.10840 0.14498 0.30449
 H71 H 0.15773 0.13895 0.34465
 H72 H 0.12012 0.18988 0.34587
 C73 C 0.64822 0.34825 0.65521
 C74 C 0.65856 0.36319 0.66507
 C75 C 0.67696 0.37061 0.65798
 C76 C 0.68525 0.36273 0.64103
 C77 C 0.67591 0.34718 0.63149
 C78 C 0.65715 0.34035 0.63838
 H79 H 0.65265 0.36872 0.67862
 H80 H 0.69911 0.36878 0.63518
 H81 H 0.64969 0.32870 0.63071
 C82 C 0.65769 0.82283 1.17340
 C83 C 0.66351 0.81380 1.15590
 C84 C 0.67813 0.82206 1.14362
 C85 C 0.68728 0.83960 1.14897
 C86 C 0.68268 0.84881 1.16669
 C87 C 0.66754 0.84034 1.17851
 H88 H 0.65758 0.79970 1.15217
 H89 H 0.69755 0.84633 1.13875
 H90 H 0.66348 0.84733 1.19189
 C91 C 0.14065 0.34413 1.15635
 C92 C 0.14989 0.33793 1.13885
 C93 C 0.16889 0.34508 1.13293
 C94 C 0.17846 0.35918 1.14432
 C95 C 0.17031 0.36504 1.16213
 C96 C 0.15149 0.35753 1.16800
 H97 H 0.14241 0.32766 1.12950
 H98 H 0.19254 0.36554 1.13935
 H99 H 0.14607 0.36138 1.18228
 C100 C 0.15281 0.82980 0.67429
 C101 C 0.16177 0.82520 0.65636
 C102 C 0.17576 0.83764 0.64747
 C103 C 0.18082 0.85525 0.65639
 C104 C 0.17191 0.86070 0.67421
 C105 C 0.15829 0.84754 0.68305
 H106 H 0.15772 0.81202 0.64885
 H107 H 0.19097 0.86493 0.64875
 H108 H 0.15324 0.85040 0.69767
 C109 C 0.35350 0.65592 0.69964
 C110 C 0.33992 0.64086 0.70395
 C111 C 0.32168 0.63885 0.69345
 C112 C 0.31711 0.65226 0.67865
 C113 C 0.33042 0.66759 0.67446
 C114 C 0.34848 0.66927 0.68504
 H115 H 0.34360 0.63070 0.71542
 H116 H 0.30323 0.65078 0.67036
 H117 H 0.35880 0.68104 0.68178
 C118 C 0.32888 0.17324 1.15349
 C119 C 0.32244 0.15686 1.16388
 C120 C 0.30315 0.14854 1.16111
 C121 C 0.29116 0.15577 1.14567
 C122 C 0.29778 0.17153 1.13422
 C123 C 0.31645 0.18044 1.13860
 H124 H 0.33296 0.15026 1.17394
 H125 H 0.27639 0.14968 1.14275
 H126 H 0.32103 0.19329 1.13070
 C127 C 0.88276 0.66509 1.17781
 C128 C 0.87689 0.67032 1.15889
 C129 C 0.86047 0.66132 1.14962
 C130 C 0.84983 0.64676 1.15959
 C131 C 0.85556 0.64085 1.17845
 C132 C 0.87233 0.65003 1.18732
 H133 H 0.88493 0.68184 1.15149
 H134 H 0.83683 0.64025 1.15264
 H135 H 0.87706 0.64584 1.20178
 C136 C 0.81741 0.15207 0.65218
 C137 C 0.80818 0.13576 0.66080
 C138 C 0.78968 0.12798 0.65407
 C139 C 0.77991 0.13756 0.63858
 C140 C 0.78824 0.15433 0.63011
 C141 C 0.80692 0.16148 0.63701
 H142 H 0.81469 0.13004 0.67401
 H143 H 0.76621 0.13160 0.63234
 H144 H 0.81340 0.17411 0.63009
 C145 C 0.30896 0.34159 0.67220
 C146 C 0.32705 0.33112 0.67453
 C147 C 0.33184 0.31563 0.66211
 C148 C 0.31815 0.31068 0.64722
 C149 C 0.29992 0.32092 0.64462
 C150 C 0.29555 0.33638 0.65718
 H151 H 0.33737 0.33498 0.68613
 H152 H 0.32165 0.29872 0.63768
 H153 H 0.28157 0.34433 0.65533
 C154 C 0.35226 0.88010 0.17869
 C155 C 0.34182 0.87176 0.16300
 C156 C 0.34978 0.85599 0.15281
 C157 C 0.36853 0.84827 0.15850
 C158 C 0.37911 0.85600 0.17452
 C159 C 0.37098 0.87212 0.18429
 H160 H 0.32713 0.87730 0.15881
 H161 H 0.37461 0.83596 0.15074
 H162 H 0.37900 0.87814 0.19660
 C163 C 0.81013 0.36314 0.15563
 C164 C 0.79949 0.35517 0.13981
 C165 C 0.80791 0.34002 0.12875
 C166 C 0.82751 0.33345 0.13352
 C167 C 0.83856 0.34153 0.14898
 C168 C 0.82961 0.35627 0.15999
 H169 H 0.78453 0.36060 0.13638
 H170 H 0.83418 0.32178 0.12533
 H171 H 0.83776 0.36237 0.17220
 C172 C 0.84851 0.84815 0.68643
 C173 C 0.84332 0.84558 0.66671
 C174 C 0.85358 0.83203 0.65500
 C175 C 0.86919 0.82095 0.66344
 C176 C 0.87482 0.82341 0.68298
 C177 C 0.86453 0.83716 0.69422
 H178 H 0.83116 0.85403 0.66051
 H179 H 0.87695 0.81021 0.65482
 H180 H 0.86890 0.83911 0.70924
 C181 C 0.70031 0.66194 0.66762
 C182 C 0.68378 0.67161 0.67592
 C183 C 0.67522 0.68792 0.66696
 C184 C 0.68426 0.69535 0.65004
 C185 C 0.70123 0.68629 0.64171
 C186 C 0.70870 0.66924 0.65032
 H187 H 0.67776 0.66665 0.68969
 H188 H 0.67814 0.70830 0.64345
 H189 H 0.72103 0.66155 0.64345
 C190 C 0.66506 0.13909 0.17514
 C191 C 0.67628 0.14469 0.15872
 C192 C 0.67033 0.16048 0.14721
 C193 C 0.65270 0.17067 0.15221
 C194 C 0.64128 0.16552 0.16871
 C195 C 0.64761 0.14965 0.18003
 H196 H 0.68989 0.13683 0.15498
 H197 H 0.64802 0.18283 0.14337
 H198 H 0.63909 0.14561 0.19283
 C199 C 0.21025 0.64776 0.16648
 C200 C 0.21849 0.65487 0.14903
 C201 C 0.21076 0.67172 0.14031
 C202 C 0.19413 0.68105 0.14890
 C203 C 0.18594 0.67452 0.16658
 C204 C 0.19430 0.65795 0.17532
 H205 H 0.23106 0.64740 0.14231
 H206 H 0.18746 0.69342 0.14164
 H207 H 0.18875 0.65319 0.18934
 C208 C 0.13647 0.12555 0.66113
 C209 C 0.11785 0.13319 0.66723
 C210 C 0.10893 0.14901 0.65759
 C211 C 0.11956 0.15790 0.64223
 C212 C 0.13848 0.15075 0.63611
 C213 C 0.14635 0.13415 0.64524
 H214 H 0.11049 0.12714 0.67991
 H215 H 0.11314 0.17047 0.63515
 H216 H 0.16025 0.12783 0.63991
 C217 C 0.32721 0.64550 0.34305
 C218 C 0.34582 0.65019 0.33435
 C219 C 0.35831 0.66489 0.34204
 C220 C 0.35157 0.67524 0.35846
 C221 C 0.33271 0.67102 0.36699
 C222 C 0.32099 0.65584 0.35946
 H223 H 0.35026 0.64273 0.32122
 H224 H 0.36081 0.68671 0.36450
 H225 H 0.30692 0.65194 0.36658
 C226 C 0.33786 0.15361 0.82818
 C227 C 0.35137 0.16511 0.81738
 C228 C 0.35811 0.18312 0.82432
 C229 C 0.35043 0.18992 0.84207
 C230 C 0.33634 0.17899 0.85284
 C231 C 0.33030 0.16073 0.84586
 H232 H 0.35637 0.16009 0.80329
 H233 H 0.35534 0.20384 0.84753
 H234 H 0.32005 0.15190 0.85439
 C235 C 0.86347 0.61166 0.85804
 C236 C 0.88048 0.62007 0.84911
 C237 C 0.89082 0.63559 0.85774
 C238 C 0.88381 0.64281 0.87556
 C239 C 0.86651 0.63500 0.88457
 C240 C 0.85653 0.61927 0.87578
 H241 H 0.88515 0.61504 0.83492
 H242 H 0.89155 0.65493 0.88224
 H243 H 0.84343 0.61290 0.88281
 C244 C 0.82887 0.15111 0.32168
 C245 C 0.82517 0.15851 0.34033
 C246 C 0.83373 0.17609 0.34641
 C247 C 0.84732 0.18566 0.33401
 C248 C 0.85175 0.17830 0.31543
 C249 C 0.84240 0.16098 0.30936
 H250 H 0.81523 0.15066 0.35008
 H251 H 0.85408 0.19917 0.33863
 H252 H 0.84492 0.15568 0.29476
 C253 C 0.66388 0.35631 0.30800
 C254 C 0.64692 0.34990 0.29733
 C255 C 0.63655 0.33293 0.30263
 C256 C 0.64353 0.32216 0.31861
 C257 C 0.66051 0.32807 0.32938
 C258 C 0.67046 0.34531 0.32409
 H259 H 0.64180 0.35805 0.28481
 H260 H 0.63574 0.30895 0.32263
 H261 H 0.68348 0.35004 0.33242
 C262 C 0.65977 0.85600 0.86191
 C263 C 0.64367 0.84512 0.85405
 C264 C 0.63740 0.82768 0.86266
 C265 C 0.64731 0.82125 0.87948
 C266 C 0.66323 0.83192 0.88775
 C267 C 0.66960 0.84919 0.87879
 H268 H 0.63614 0.85016 0.84101
 H269 H 0.64306 0.80752 0.88593
 H270 H 0.68185 0.85747 0.88520
 C271 C 0.11740 0.36204 0.83152
 C272 C 0.10062 0.35402 0.82192
 C273 C 0.09118 0.33713 0.82881
 C274 C 0.09916 0.32784 0.84532
 C275 C 0.11616 0.33543 0.85510
 C276 C 0.12496 0.35274 0.84822
 H277 H 0.09524 0.36062 0.80860
 H278 H 0.09221 0.31458 0.85044
 H279 H 0.13760 0.35910 0.85598
 C280 C 0.19057 0.85894 0.35794
 C281 C 0.17757 0.84570 0.34849
 C282 C 0.17212 0.82806 0.35735
 C283 C 0.17938 0.82406 0.37611
 C284 C 0.19243 0.83694 0.38570
 C285 C 0.19821 0.85415 0.37643
 H286 H 0.17166 0.84910 0.33422
 H287 H 0.17495 0.81079 0.38337
 H288 H 0.20859 0.86384 0.38380
 O289 O 0.25924 0.99023 0.24196
 O290 O 0.22689 1.01931 0.27339
 O291 O 0.23439 0.98237 0.26997
 O292 O 0.24748 1.02615 0.24129
 O293 O 0.22241 1.01953 0.22107
 O294 O 0.20999 0.97619 0.24883
 O295 O 0.20102 1.01430 0.25366
 O296 O 0.23387 0.98501 0.22163
 Cu297 Cu 0.24444 1.00518 0.25870
 Cu298 Cu 0.21377 0.99864 0.23504
 C299 C 0.25229 0.98258 0.22659
 C300 C 0.20849 1.02186 0.26895
 C301 C 0.22025 0.97148 0.26368
 C302 C 0.23736 1.02999 0.22593
 O303 O 0.23617 0.50615 0.78287
 O304 O 0.25801 0.46717 0.75224
 O305 O 0.26525 0.50299 0.75618
 O306 O 0.23572 0.46696 0.78240
 O307 O 0.21019 0.47078 0.76204
 O308 O 0.23951 0.50921 0.73660
 O309 O 0.23400 0.47302 0.73063
 O310 O 0.21114 0.50947 0.76185
 Cu311 Cu 0.25078 0.48588 0.77089
 Cu312 Cu 0.22106 0.49055 0.74618
 C313 C 0.21994 0.51459 0.77737
 C314 C 0.24973 0.46383 0.73582
 C315 C 0.25772 0.51227 0.74203
 C316 C 0.21825 0.46214 0.77650
 O317 O 0.73236 0.01636 0.24629
 O318 O 0.75906 -0.01855 0.27757
 O319 O 0.76211 0.01867 0.27061
 O320 O 0.73014 -0.02092 0.25163
 O321 O 0.75251 -0.02603 0.22842
 O322 O 0.78440 0.01334 0.24737
 O323 O 0.78109 -0.02379 0.25408
 O324 O 0.75436 0.01104 0.22276
 Cu325 Cu 0.74374 -0.00064 0.26393
 Cu326 Cu 0.77037 -0.00685 0.23587
 C327 C 0.73880 0.01970 0.22922
 C328 C 0.77453 -0.02731 0.27109
 C329 C 0.77860 0.02293 0.26206
 C330 C 0.73590 -0.03024 0.23670
 O331 O 0.74181 0.48526 0.78109
 O332 O 0.71724 0.52884 0.76010
 O333 O 0.71265 0.49290 0.75517
 O334 O 0.74088 0.52363 0.78889
 O335 O 0.76708 0.52410 0.76896
 O336 O 0.73814 0.49395 0.73440
 O337 O 0.74293 0.53132 0.73974
 O338 O 0.76620 0.48774 0.75930
 Cu339 Cu 0.72619 0.50692 0.77369
 Cu340 Cu 0.75604 0.50966 0.74847
 C341 C 0.75792 0.47880 0.77324
 C342 C 0.72619 0.53752 0.74618
 C343 C 0.72051 0.48807 0.73911
 C344 C 0.75865 0.52925 0.78476
 O345 O 0.24010 0.47744 0.24460
 O346 O 0.27337 0.51205 0.26926
 O347 O 0.26575 0.47538 0.27298
 O348 O 0.24632 0.51480 0.24197
 O349 O 0.22136 0.51946 0.26278
 O350 O 0.24238 0.48194 0.29490
 O351 O 0.24879 0.51905 0.28981
 O352 O 0.21602 0.48247 0.26624
 Cu353 Cu 0.25876 0.49432 0.25503
 Cu354 Cu 0.22974 0.50125 0.28065
 C355 C 0.22255 0.47382 0.25120
 C356 C 0.26670 0.52171 0.28352
 C357 C 0.25749 0.47207 0.28934
 C358 C 0.23040 0.52378 0.24709
 O359 O 0.77783 0.96880 0.75974
 O360 O 0.75354 1.00696 0.78918
 O361 O 0.75644 0.96905 0.79120
 O362 O 0.77573 1.00618 0.75784
 O363 O 0.74779 1.00445 0.74023
 O364 O 0.72867 0.96644 0.77348
 O365 O 0.72594 1.00444 0.77121
 O366 O 0.75043 0.96723 0.74129
 Cu367 Cu 0.76857 0.98801 0.77638
 Cu368 Cu 0.73529 0.98522 0.75493
 C369 C 0.76837 0.96187 0.74523
 C370 C 0.73570 1.01249 0.78490
 C371 C 0.73943 0.96114 0.78790
 C372 C 0.76524 1.01165 0.74335
 O373 O 0.73484 0.53172 0.20981
 O374 O 0.70239 0.49542 0.23418
 O375 O 0.70691 0.53295 0.23709
 O376 O 0.72822 0.49515 0.20580
 O377 O 0.75230 0.48972 0.22745
 O378 O 0.73118 0.52817 0.25868
 O379 O 0.72665 0.49039 0.25572
 O380 O 0.75868 0.52681 0.23183
 Cu381 Cu 0.71560 0.51447 0.21967
 Cu382 Cu 0.74456 0.50831 0.24565
 C383 C 0.75240 0.53527 0.21660
 C384 C 0.70930 0.48633 0.24885
 C385 C 0.71542 0.53717 0.25309
 C386 C 0.74379 0.48588 0.21129
 O387 O 0.24889 -0.01013 0.77825
 O388 O 0.22365 0.02427 0.74503
 O389 O 0.22866 -0.01322 0.74570
 O390 O 0.24460 0.02752 0.77691
 O391 O 0.27334 0.02930 0.76067
 O392 O 0.25636 -0.00966 0.72815
 O393 O 0.25227 0.02795 0.72887
 O394 O 0.27650 -0.00835 0.76023
 Cu395 Cu 0.23361 0.00681 0.76319
 Cu396 Cu 0.26744 0.01013 0.74280
 C397 C 0.26687 -0.01546 0.77453
 C398 C 0.23378 0.03228 0.73154
 C399 C 0.23981 -0.01841 0.73158
 C400 C 0.26179 0.03536 0.77408
 O401 O 0.25442 0.25072 1.00075
 O402 O 0.22813 0.27795 0.96284
 O403 O 0.22569 0.27802 1.00197
 O404 O 0.25093 0.24860 0.96440
 O405 O 0.22474 0.22867 0.96468
 O406 O 0.19913 0.25859 1.00100
 O407 O 0.20182 0.25820 0.96431
 O408 O 0.22805 0.23126 1.00379
 Cu409 Cu 0.24182 0.26623 0.98295
 Cu410 Cu 0.21138 0.24183 0.98412
 C411 C 0.24594 0.23629 1.00870
 C412 C 0.21082 0.27269 0.95671
 C413 C 0.20798 0.27344 1.00769
 C414 C 0.24193 0.23358 0.95802
 O415 O 0.26351 0.76785 0.53884
 O416 O 0.28704 0.74011 0.49924
 O417 O 0.28195 0.73447 0.53643
 O418 O 0.26602 0.77136 0.50178
 O419 O 0.29522 0.78671 0.50488
 O420 O 0.30999 0.75090 0.54255
 O421 O 0.31624 0.75467 0.50498
 O422 O 0.29199 0.78422 0.54273
 Cu423 Cu 0.27183 0.75177 0.51869
 Cu424 Cu 0.30631 0.77065 0.52424
 C425 C 0.27367 0.78102 0.54734
 C426 C 0.30567 0.74274 0.49530
 C427 C 0.29836 0.73653 0.54577
 C428 C 0.27775 0.78514 0.49713
 O429 O 0.27823 0.80529 0.02106
 O430 O 0.24534 0.77437 -0.00935
 O431 O 0.25281 0.77816 0.02750
 O432 O 0.26883 0.80389 -0.01639
 O433 O 0.29451 0.78381 -0.01995
 O434 O 0.27752 0.75695 0.02379
 O435 O 0.27095 0.75432 -0.01344
 O436 O 0.30344 0.78469 0.01707
 Cu437 Cu 0.25886 0.79261 0.00591
 Cu438 Cu 0.28916 0.76793 0.00145
 C439 C 0.29624 0.79984 0.02474
 C440 C 0.25267 0.75899 -0.01663
 C441 C 0.26238 0.76332 0.03325
 C442 C 0.28419 0.79822 -0.02583
 O443 O 0.18249 0.25177 0.47904
 O444 O 0.21464 0.27370 0.51746
 O445 O 0.20958 0.27741 0.47847
 O446 O 0.18254 0.24932 0.51541
 O447 O 0.20596 0.22655 0.51419
 O448 O 0.23304 0.25472 0.47656
 O449 O 0.23696 0.25030 0.51370
 O450 O 0.20499 0.22835 0.47616
 Cu451 Cu 0.19573 0.26569 0.49858
 Cu452 Cu 0.22246 0.23760 0.49495
 C453 C 0.18851 0.23626 0.47095
 C454 C 0.23146 0.26582 0.52186
 C455 C 0.22563 0.27076 0.47088
 C456 C 0.18931 0.23303 0.52086
 O457 O 0.76253 0.71123 0.98762
 O458 O 0.74470 0.74484 1.02534
 O459 O 0.74460 0.74513 0.98787
 O460 O 0.76320 0.71215 1.02591
 O461 O 0.79289 0.72693 1.02538
 O462 O 0.77450 0.75947 0.98670
 O463 O 0.77430 0.75975 1.02482
 O464 O 0.79243 0.72558 0.98767
 Cu465 Cu 0.75084 0.72673 1.00653
 Cu466 Cu 0.78650 0.74443 1.00594
 C467 C 0.78057 0.71252 0.98134
 C468 C 0.75651 0.75790 1.03170
 C469 C 0.75624 0.75809 0.98098
 C470 C 0.78105 0.71428 1.03254
 O471 O 0.73468 0.27897 0.46546
 O472 O 0.75855 0.24720 0.50147
 O473 O 0.75740 0.24818 0.46372
 O474 O 0.73337 0.27628 0.50317
 O475 O 0.70611 0.25786 0.50070
 O476 O 0.73121 0.22827 0.46401
 O477 O 0.73130 0.22862 0.50207
 O478 O 0.70882 0.25875 0.46298
 Cu479 Cu 0.74867 0.26459 0.48361
 Cu480 Cu 0.71671 0.24141 0.48246
 C481 C 0.71797 0.27413 0.45772
 C482 C 0.74906 0.23266 0.50811
 C483 C 0.74821 0.23336 0.45712
 C484 C 0.71538 0.27202 0.50832
 O485 O 0.77418 0.22788 -0.02443
 O486 O 0.74291 0.20804 0.01526
 O487 O 0.74558 0.20224 -0.02238
 O488 O 0.77180 0.23398 0.01260
 O489 O 0.74738 0.25562 0.00977
 O490 O 0.72441 0.22607 -0.02897
 O491 O 0.71900 0.22935 0.00860
 O492 O 0.75261 0.25216 -0.02724
 Cu493 Cu 0.76083 0.21564 -0.00410
 Cu494 Cu 0.73343 0.24300 -0.00993
 C495 C 0.76890 0.24377 -0.03222
 C496 C 0.72549 0.21513 0.01849
 C497 C 0.73100 0.20913 -0.03226
 C498 C 0.76403 0.25014 0.01722
 O499 O 0.78799 0.79006 0.48118
 O500 O 0.75946 0.76319 0.51811
 O501 O 0.75978 0.76380 0.48044
 O502 O 0.78557 0.79097 0.51973
 O503 O 0.75990 0.81138 0.52027
 O504 O 0.73502 0.78526 0.48066
 O505 O 0.73464 0.78456 0.51680
 O506 O 0.76429 0.81249 0.48072
 Cu507 Cu 0.77583 0.77500 0.49983
 Cu508 Cu 0.74680 0.80120 0.49891
 C509 C 0.78081 0.80561 0.47426
 C510 C 0.74220 0.76906 0.52367
 C511 C 0.74271 0.76973 0.47419
 C512 C 0.77638 0.80518 0.52746
 O513 O 1.00829 0.26761 0.20094
 O514 O 0.96909 0.24042 0.22760
 O515 O 1.00835 0.24223 0.22878
 O516 O 0.96855 0.26619 0.20008
 O517 O 0.96898 0.24207 0.17909
 O518 O 1.01074 0.21962 0.20626
 O519 O 0.97171 0.21640 0.20663
 O520 O 1.00896 0.24473 0.17864
 Cu521 Cu 0.98838 0.25655 0.21644
 Cu522 Cu 0.99018 0.22847 0.19032
 C523 C 1.01563 0.26061 0.18541
 C524 C 0.96397 0.22362 0.22187
 C525 C 1.01654 0.22696 0.22224
 C526 C 0.96148 0.25788 0.18508
 O527 O 0.47778 0.25186 0.69461
 O528 O 0.51840 0.22145 0.71528
 O529 O 0.47969 0.22312 0.71925
 O530 O 0.51789 0.24969 0.69089
 O531 O 0.52209 0.27015 0.71517
 O532 O 0.48189 0.24493 0.74260
 O533 O 0.52097 0.24160 0.74005
 O534 O 0.48263 0.27338 0.71784
 Cu535 Cu 0.49794 0.23464 0.70240
 Cu536 Cu 0.50226 0.25969 0.73124
 C537 C 0.47316 0.26772 0.70280
 C538 C 0.52636 0.22620 0.73141
 C539 C 0.47431 0.22944 0.73577
 C540 C 0.52712 0.26394 0.69849
 O541 O -0.05630 0.26535 0.73958
 O542 O -0.01716 0.24646 0.70650
 O543 O -0.05736 0.24730 0.70620
 O544 O -0.01742 0.26467 0.73936
 O545 O -0.01759 0.23651 0.75460
 O546 O -0.05774 0.21930 0.72165
 O547 O -0.01816 0.21835 0.72174
 O548 O -0.05703 0.23728 0.75494
 Cu549 Cu -0.03709 0.25867 0.72114
 Cu550 Cu -0.03777 0.22502 0.73968
 C551 C -0.06306 0.25464 0.75314
 C552 C -0.01060 0.22932 0.70880
 C553 C -0.06460 0.23039 0.70845
 C554 C -0.01073 0.25361 0.75266
 O555 O 0.46511 0.26364 0.24133
 O556 O 0.50368 0.23198 0.21967
 O557 O 0.46362 0.23391 0.21868
 O558 O 0.50454 0.26208 0.24247
 O559 O 0.50286 0.24250 0.26782
 O560 O 0.46176 0.21542 0.24480
 O561 O 0.50136 0.21229 0.24488
 O562 O 0.46411 0.24486 0.26734
 Cu563 Cu 0.48453 0.24972 0.22785
 Cu564 Cu 0.48253 0.22666 0.25866
 C565 C 0.45804 0.25966 0.25804
 C566 C 0.50917 0.21678 0.22863
 C567 C 0.45512 0.22036 0.22820
 C568 C 0.51038 0.25720 0.25941
 O569 O 1.03861 0.77342 0.77742
 O570 O 1.00154 0.74566 0.80487
 O571 O 1.04212 0.74177 0.79976
 O572 O 1.00103 0.77245 0.77996
 O573 O 0.99789 0.75200 0.75552
 O574 O 1.03802 0.72119 0.77558
 O575 O 0.99907 0.72428 0.78115
 O576 O 1.03726 0.75231 0.75338
 Cu577 Cu 1.02180 0.75964 0.79326
 Cu578 Cu 1.01785 0.73533 0.76401
 C579 C 1.04389 0.76810 0.76058
 C580 C 0.99349 0.73063 0.79765
 C581 C 1.04700 0.72623 0.79104
 C582 C 0.99257 0.76742 0.76410
 O583 O 0.52919 0.76409 0.24588
 O584 O 0.48887 0.74807 0.27884
 O585 O 0.52845 0.74264 0.27641
 O586 O 0.49013 0.76855 0.24703
 O587 O 0.48495 0.74199 0.22994
 O588 O 0.52374 0.71653 0.25850
 O589 O 0.48456 0.72149 0.26158
 O590 O 0.52426 0.73834 0.22750
 Cu591 Cu 0.50954 0.75839 0.26393
 Cu592 Cu 0.50393 0.72695 0.24264
 C593 C 0.53369 0.75402 0.23111
 C594 C 0.47962 0.73223 0.27579
 C595 C 0.53298 0.72529 0.27209
 C596 C 0.48088 0.75957 0.23354
 O597 O 0.01368 0.75720 0.26611
 O598 O 0.05429 0.73179 0.23982
 O599 O 0.01464 0.72866 0.24222
 O600 O 0.05237 0.76153 0.26325
 O601 O 0.05734 0.74116 0.28754
 O602 O 0.01773 0.70887 0.26727
 O603 O 0.05705 0.71112 0.26419
 O604 O 0.01826 0.73797 0.29140
 Cu605 Cu 0.03350 0.74669 0.25026
 Cu606 Cu 0.03809 0.72274 0.28005
 C607 C 0.00915 0.75202 0.28330
 C608 C 0.06242 0.71694 0.24746
 C609 C 0.00924 0.71351 0.25132
 C610 C 0.06113 0.75716 0.27907
 O611 O 0.53544 0.73855 0.77896
 O612 O 0.49592 0.70861 0.75552
 O613 O 0.53559 0.71020 0.75395
 O614 O 0.49641 0.73634 0.78121
 O615 O 0.49350 0.75712 0.75696
 O616 O 0.53434 0.73234 0.73077
 O617 O 0.49511 0.72942 0.73112
 O618 O 0.53278 0.76002 0.75526
 Cu619 Cu 0.51603 0.72119 0.76977
 Cu620 Cu 0.51352 0.74684 0.74111
 C621 C 0.54081 0.75439 0.77104
 C622 C 0.48898 0.71392 0.73912
 C623 C 0.54206 0.71713 0.73800
 C624 C 0.48829 0.75124 0.77375
 C625 C 0.37424 0.31418 0.31830
 C626 C 0.39083 0.30430 0.31046
 C627 C 0.40430 0.29432 0.32291
 C628 C 0.40128 0.29495 0.34306
 C629 C 0.38493 0.30517 0.35080
 C630 C 0.37107 0.31472 0.33853
 C631 C 0.42044 0.28377 0.31500
 C632 C 0.42341 0.28332 0.29482
 C633 C 0.41034 0.29388 0.28243
 C634 C 0.39404 0.30417 0.29032
 C635 C 0.41368 0.29385 0.26232
 C636 C 0.42959 0.28314 0.25447
 C637 C 0.44223 0.27207 0.26657
 C638 C 0.43916 0.27234 0.28677
 H639 H 0.36357 0.32108 0.30854
 H640 H 0.41158 0.28756 0.35285
 H641 H 0.38318 0.30562 0.36644
 H642 H 0.43060 0.27585 0.32453
 H643 H 0.38384 0.31203 0.28078
 H644 H 0.40388 0.30197 0.25264
 H645 H 0.43166 0.28310 0.23885
 H646 H 0.44899 0.26398 0.29622
 C647 C 0.40192 0.81682 0.81764
 C648 C 0.41613 0.80602 0.80709
 C649 C 0.41660 0.80736 0.78662
 C650 C 0.40259 0.81911 0.77701
 C651 C 0.38824 0.82952 0.78752
 C652 C 0.38764 0.82880 0.80809
 C653 C 0.43101 0.79687 0.77605
 C654 C 0.44480 0.78481 0.78571
 C655 C 0.44408 0.78312 0.80619
 C656 C 0.42988 0.79387 0.81676
 C657 C 0.45756 0.77065 0.81574
 C658 C 0.47171 0.76006 0.80512
 C659 C 0.47282 0.76195 0.78481
 C660 C 0.45929 0.77436 0.77518
 H661 H 0.40270 0.81624 0.83333
 H662 H 0.40253 0.82006 0.76128
 H663 H 0.37716 0.83754 0.77918
 H664 H 0.43144 0.79805 0.76033
 H665 H 0.42946 0.79269 0.83249
 H666 H 0.45716 0.76911 0.83141
 H667 H 0.48205 0.75061 0.81286
 H668 H 0.45991 0.77578 0.75950
 C669 C -0.13418 0.31308 0.82433
 C670 C -0.12022 0.30536 0.81105
 C671 C -0.10722 0.31791 0.80062
 C672 C -0.10808 0.33789 0.80395
 C673 C -0.12193 0.34544 0.81724
 C674 C -0.13530 0.33319 0.82739
 C675 C -0.09363 0.31032 0.78697
 C676 C -0.09273 0.29030 0.78372
 C677 C -0.10545 0.27769 0.79441
 C678 C -0.11920 0.28531 0.80793
 C679 C -0.10414 0.25766 0.79143
 C680 C -0.09035 0.25016 0.77803
 C681 C -0.07785 0.26258 0.76713
 C682 C -0.07920 0.28268 0.77002
 H683 H -0.14451 0.30347 0.83190
 H684 H -0.09810 0.34770 0.79622
 H685 H -0.12218 0.36094 0.81958
 H686 H -0.08376 0.31998 0.77889
 H687 H -0.12907 0.27564 0.81601
 H688 H -0.11372 0.24777 0.79954
 H689 H -0.08957 0.23463 0.77605
 H690 H -0.06944 0.29237 0.76187
 C691 C -0.08409 0.81205 0.32252
 C692 C -0.06844 0.80212 0.31291
 C693 C -0.06794 0.80187 0.29236
 C694 C -0.08322 0.81112 0.28176
 C695 C -0.09888 0.82058 0.29136
 C696 C -0.09945 0.82141 0.31182
 C697 C -0.05230 0.79225 0.28265
 C698 C -0.03728 0.78250 0.29318
 C699 C -0.03792 0.78232 0.31373
 C700 C -0.05338 0.79231 0.32349
 C701 C -0.02313 0.77202 0.32412
 C702 C -0.00789 0.76200 0.31424
 C703 C -0.00699 0.76241 0.29384
 C704 C -0.02174 0.77275 0.28342
 H705 H -0.08419 0.81258 0.33825
 H706 H -0.08319 0.81085 0.26601
 H707 H -0.11076 0.82706 0.28266
 H708 H -0.05191 0.79221 0.26688
 H709 H -0.05380 0.79229 0.33925
 H710 H -0.02340 0.77163 0.33986
 H711 H 0.00334 0.75413 0.32258
 H712 H -0.02131 0.77296 0.26766
 C713 C 0.63468 0.68762 0.31946
 C714 C 0.61743 0.69714 0.31223
 C715 C 0.61719 0.71758 0.31113
 C716 C 0.63426 0.72812 0.31708
 C717 C 0.65139 0.71855 0.32414
 C718 C 0.65178 0.69823 0.32554
 C719 C 0.59998 0.72715 0.30398
 C720 C 0.58309 0.71654 0.29759
 C721 C 0.58339 0.69609 0.29852
 C722 C 0.60047 0.68653 0.30601
 C723 C 0.56674 0.68551 0.29158
 C724 C 0.55015 0.69506 0.28336
 C725 C 0.54970 0.71537 0.28234
 C726 C 0.56610 0.72605 0.28980
 H727 H 0.63467 0.67197 0.32064
 H728 H 0.63440 0.74379 0.31621
 H729 H 0.66444 0.72709 0.32838
 H730 H 0.59983 0.74284 0.30315
 H731 H 0.60066 0.67084 0.30673
 H732 H 0.56672 0.66983 0.29213
 H733 H 0.53769 0.68655 0.27767
 H734 H 0.56601 0.74171 0.28879
 C735 C 0.60849 0.16959 0.79281
 C736 C 0.59218 0.17986 0.78470
 C737 C 0.57930 0.19075 0.79690
 C738 C 0.58249 0.19059 0.81704
 C739 C 0.59868 0.18026 0.82500
 C740 C 0.61212 0.16999 0.81298
 C741 C 0.56365 0.20186 0.78876
 C742 C 0.56062 0.20214 0.76857
 C743 C 0.57306 0.19073 0.75643
 C744 C 0.58881 0.17974 0.76455
 C745 C 0.56963 0.19064 0.73631
 C746 C 0.55420 0.20194 0.72825
 C747 C 0.54215 0.21376 0.74012
 C748 C 0.54540 0.21373 0.76031
 H749 H 0.61879 0.16190 0.78333
 H750 H 0.57262 0.19866 0.82662
 H751 H 0.60082 0.18050 0.84060
 H752 H 0.55397 0.21044 0.79811
 H753 H 0.59856 0.17125 0.75519
 H754 H 0.57893 0.18190 0.72679
 H755 H 0.55196 0.20174 0.71265
 H756 H 0.53600 0.22264 0.76960
 C757 C 1.14419 0.67409 0.83319
 C758 C 1.12866 0.68588 0.82565
 C759 C 1.13147 0.70617 0.82466
 C760 C 1.14998 0.71425 0.83042
 C761 C 1.16534 0.70247 0.83774
 C762 C 1.16247 0.68237 0.83973
 C763 C 1.11571 0.71811 0.81809
 C764 C 1.09722 0.71004 0.81215
 C765 C 1.09462 0.68970 0.81242
 C766 C 1.11027 0.67776 0.81936
 C767 C 1.07641 0.68165 0.80567
 C768 C 1.06097 0.69361 0.79867
 C769 C 1.06324 0.71382 0.79882
 C770 C 1.08135 0.72199 0.80570
 H771 H 1.14177 0.65863 0.83462
 H772 H 1.15251 0.72973 0.82947
 H773 H 1.17946 0.70919 0.84212
 H774 H 1.11784 0.73368 0.81761
 H775 H 1.10813 0.66220 0.81986
 H776 H 1.07417 0.66610 0.80563
 H777 H 1.04710 0.68709 0.79333
 H778 H 1.08327 0.73758 0.80551
 C779 C 1.09651 0.18094 0.29362
 C780 C 1.08151 0.19113 0.28363
 C781 C 1.06734 0.20235 0.29404
 C782 C 1.06857 0.20309 0.31442
 C783 C 1.08337 0.19242 0.32436
 C784 C 1.09729 0.18101 0.31403
 C785 C 1.05209 0.21233 0.28390
 C786 C 1.05061 0.21074 0.26357
 C787 C 1.06475 0.19928 0.25332
 C788 C 1.08026 0.18982 0.26337
 C789 C 1.06299 0.19717 0.23315
 C790 C 1.04721 0.20613 0.22317
 C791 C 1.03315 0.21767 0.23310
 C792 C 1.03503 0.22011 0.25332
 H793 H 1.10754 0.17271 0.28541
 H794 H 1.05785 0.21161 0.32268
 H795 H 1.08366 0.19274 0.34009
 H796 H 1.04119 0.22098 0.29183
 H797 H 1.09109 0.18106 0.25546
 H798 H 1.07368 0.18839 0.22513
 H799 H 1.04611 0.20418 0.20758
 H800 H 1.02412 0.22888 0.26109
 C801 C 0.62279 0.32117 0.66002
 C802 C 0.60432 0.31406 0.66727
 C803 C 0.59156 0.32633 0.67816
 C804 C 0.59706 0.34574 0.68084
 C805 C 0.61514 0.35287 0.67303
 C806 C 0.62847 0.34066 0.66280
 C807 C 0.57356 0.31900 0.68623
 C808 C 0.56793 0.29964 0.68314
 C809 C 0.58025 0.28764 0.67145
 C810 C 0.59847 0.29484 0.66382
 C811 C 0.57423 0.26854 0.66774
 C812 C 0.55645 0.26120 0.67592
 C813 C 0.54456 0.27269 0.68826
 C814 C 0.55029 0.29200 0.69169
 H815 H 0.63281 0.31130 0.65254
 H816 H 0.58732 0.35545 0.68888
 H817 H 0.61856 0.36807 0.67498
 H818 H 0.56399 0.32834 0.69491
 H819 H 0.60808 0.28549 0.65518
 H820 H 0.58339 0.25920 0.65869
 H821 H 0.55239 0.24625 0.67316
 H822 H 0.54110 0.30100 0.70108
 C823 C 0.62734 0.80205 0.17800
 C824 C 0.61208 0.79428 0.18996
 C825 C 0.61166 0.79904 0.20989
 C826 C 0.62676 0.81094 0.21766
 C827 C 0.64201 0.81841 0.20580
 C828 C 0.64253 0.81446 0.18563
 C829 C 0.59614 0.79188 0.22179
 C830 C 0.58106 0.77984 0.21405
 C831 C 0.58167 0.77459 0.19422
 C832 C 0.59711 0.78196 0.18224
 C833 C 0.56676 0.76210 0.18674
 C834 C 0.55129 0.75507 0.19877
 C835 C 0.55030 0.76069 0.21835
 C836 C 0.56534 0.77301 0.22589
 H837 H 0.62660 0.79899 0.16259
 H838 H 0.62687 0.81441 0.23302
 H839 H 0.65374 0.82674 0.21291
 H840 H 0.59576 0.79574 0.23706
 H841 H 0.59746 0.77812 0.16696
 H842 H 0.56704 0.75781 0.17161
 H843 H 0.53987 0.74556 0.19268
 H844 H 0.56488 0.77720 0.24107
 C845 C 1.11360 0.31904 0.15523
 C846 C 1.09471 0.31185 0.16130
 C847 C 1.08324 0.32221 0.17506
 C848 C 1.09053 0.33990 0.18202
 C849 C 1.10915 0.34718 0.17569
 C850 C 1.12133 0.33683 0.16234
 C851 C 1.06477 0.31463 0.18179
 C852 C 1.05762 0.29678 0.17487
 C853 C 1.06881 0.28669 0.16062
 C854 C 1.08729 0.29425 0.15397
 C855 C 1.06152 0.26900 0.15353
 C856 C 1.04371 0.26098 0.16100
 C857 C 1.03287 0.27046 0.17575
 C858 C 1.03973 0.28861 0.18233
 H859 H 1.12243 0.31003 0.14564
 H860 H 1.08175 0.34823 0.19235
 H861 H 1.11347 0.36131 0.18098
 H862 H 1.05614 0.32248 0.19261
 H863 H 1.09600 0.28633 0.14326
 H864 H 1.06983 0.26114 0.14251
 H865 H 1.03881 0.24699 0.15566
 H866 H 1.03149 0.29613 0.19364
 C867 C 1.12418 0.82396 0.69661
 C868 C 1.11063 0.81140 0.70597
 C869 C 1.11110 0.79138 0.70195
 C870 C 1.12528 0.78427 0.68868
 C871 C 1.13898 0.79680 0.67961
 C872 C 1.13880 0.81694 0.68340
 C873 C 1.09753 0.77882 0.71139
 C874 C 1.08375 0.78605 0.72508
 C875 C 1.08349 0.80613 0.72917
 C876 C 1.09672 0.81866 0.71944
 C877 C 1.07018 0.81337 0.74317
 C878 C 1.05739 0.80086 0.75325
 C879 C 1.05740 0.78090 0.74932
 C880 C 1.07045 0.77356 0.73501
 H881 H 1.12268 0.83931 0.69932
 H882 H 1.12602 0.76892 0.68555
 H883 H 1.15022 0.79031 0.67027
 H884 H 1.09788 0.76344 0.70828
 H885 H 1.09643 0.83404 0.72260
 H886 H 1.06981 0.82870 0.74648
 H887 H 1.04733 0.80685 0.76411
 H888 H 1.07061 0.75817 0.73200
 C889 C 0.39047 0.66360 0.69997
 C890 C 0.40809 0.66914 0.70984
 C891 C 0.40865 0.66851 0.73037
 C892 C 0.39164 0.66173 0.74059
 C893 C 0.37387 0.65674 0.73061
 C894 C 0.37297 0.65819 0.71024
 C895 C 0.42582 0.67545 0.74028
 C896 C 0.44201 0.68370 0.72988
 C897 C 0.44142 0.68403 0.70931
 C898 C 0.42470 0.67634 0.69945
 C899 C 0.45713 0.69287 0.69889
 C900 C 0.47285 0.70214 0.70872
 C901 C 0.47343 0.70228 0.72912
 C902 C 0.45831 0.69252 0.73967
 H903 H 0.39008 0.66433 0.68422
 H904 H 0.39179 0.66107 0.75633
 H905 H 0.36058 0.65261 0.73885
 H906 H 0.42617 0.67525 0.75604
 H907 H 0.42417 0.67688 0.68369
 H908 H 0.45690 0.69321 0.68314
 H909 H 0.48447 0.70948 0.70037
 H910 H 0.45861 0.69276 0.75542
 C911 C 0.35472 0.18257 0.17851
 C912 C 0.37355 0.19009 0.18400
 C913 C 0.38602 0.19924 0.17007
 C914 C 0.37943 0.20026 0.15067
 C915 C 0.36086 0.19197 0.14513
 C916 C 0.34835 0.18289 0.15899
 C917 C 0.40482 0.20703 0.17583
 C918 C 0.41142 0.20523 0.19522
 C919 C 0.39904 0.19542 0.20885
 C920 C 0.38013 0.18822 0.20323
 C921 C 0.40570 0.19294 0.22798
 C922 C 0.42429 0.20045 0.23382
 C923 C 0.43655 0.21086 0.22075
 C924 C 0.43009 0.21310 0.20134
 H925 H 0.34507 0.17630 0.18961
 H926 H 0.38879 0.20712 0.13971
 H927 H 0.35654 0.19237 0.12996
 H928 H 0.41434 0.21432 0.16524
 H929 H 0.37060 0.18092 0.21382
 H930 H 0.39642 0.18533 0.23852
 H931 H 0.42877 0.19859 0.24886
 H932 H 0.43944 0.22104 0.19112
 C933 C -0.08622 0.66696 0.19947
 C934 C -0.07036 0.67770 0.20798
 C935 C -0.06912 0.69788 0.20459
 C936 C -0.08394 0.70706 0.19335
 C937 C -0.09968 0.69638 0.18515
 C938 C -0.10085 0.67619 0.18774
 C939 C -0.05306 0.70863 0.21240
 C940 C -0.03827 0.69958 0.22382
 C941 C -0.03967 0.67954 0.22777
 C942 C -0.05565 0.66867 0.21970
 C943 C -0.02504 0.67080 0.23976
 C944 C -0.00917 0.68180 0.24764
 C945 C -0.00746 0.70163 0.24334
 C946 C -0.02211 0.71039 0.23142
 H947 H -0.08691 0.65143 0.20162
 H948 H -0.08334 0.72255 0.19085
 H949 H -0.11102 0.70400 0.17673
 H950 H -0.05207 0.72406 0.20958
 H951 H -0.05662 0.65324 0.22252
 H952 H -0.02590 0.65548 0.24307
 H953 H 0.00193 0.67477 0.25685
 H954 H -0.02111 0.72575 0.22828
 C955 C -0.15745 0.17837 0.65784
 C956 C -0.13914 0.18477 0.66622
 C957 C -0.12635 0.17136 0.67573
 C958 C -0.13161 0.15180 0.67613
 C959 C -0.14975 0.14554 0.66790
 C960 C -0.16341 0.15869 0.65909
 C961 C -0.10866 0.17771 0.68503
 C962 C -0.10357 0.19738 0.68514
 C963 C -0.11593 0.21084 0.67518
 C964 C -0.13364 0.20445 0.66574
 C965 C -0.11054 0.23050 0.67520
 C966 C -0.09344 0.23681 0.68548
 C967 C -0.08150 0.22360 0.69601
 C968 C -0.08652 0.20383 0.69547
 H969 H -0.16746 0.18905 0.65148
 H970 H -0.12175 0.14127 0.68299
 H971 H -0.15275 0.13014 0.66820
 H972 H -0.09908 0.16736 0.69256
 H973 H -0.14330 0.21482 0.65837
 H974 H -0.11974 0.24104 0.66756
 H975 H -0.08990 0.25213 0.68566
 H976 H -0.07734 0.19346 0.70339
 C977 C 0.30784 0.38145 0.34041
 C978 C 0.29958 0.39630 0.32884
 C979 C 0.30181 0.39558 0.30840
 C980 C 0.31168 0.37989 0.29983
 C981 C 0.31954 0.36510 0.31135
 C982 C 0.31806 0.36580 0.33176
 C983 C 0.29412 0.41052 0.29677
 C984 C 0.28390 0.42610 0.30524
 C985 C 0.28114 0.42668 0.32561
 C986 C 0.28916 0.41185 0.33732
 C987 C 0.27034 0.44208 0.33387
 C988 C 0.26243 0.45676 0.32207
 C989 C 0.26551 0.45647 0.30186
 C990 C 0.27629 0.44108 0.29356
 H991 H 0.30658 0.38225 0.35609
 H992 H 0.31326 0.37899 0.28418
 H993 H 0.32670 0.35298 0.30418
 H994 H 0.29603 0.40999 0.28112
 H995 H 0.28723 0.41238 0.35296
 H996 H 0.26797 0.44274 0.34944
 H997 H 0.25416 0.46850 0.32877
 H998 H 0.27851 0.44060 0.27795
 C999 C 0.32628 -0.10414 0.81944
 C1000 C 0.31646 -0.08928 0.80901
 C1001 C 0.31815 -0.08856 0.78856
 C1002 C 0.32872 -0.10300 0.77879
 C1003 C 0.33791 -0.11792 0.78908
 C1004 C 0.33753 -0.11865 0.80967
 C1005 C 0.30909 -0.07354 0.77806
 C1006 C 0.29782 -0.05937 0.78764
 C1007 C 0.29534 -0.06030 0.80803
 C1008 C 0.30495 -0.07511 0.81866
 C1009 C 0.28316 -0.04647 0.81731
 C1010 C 0.27359 -0.03191 0.80647
 C1011 C 0.27658 -0.03067 0.78630
 C1012 C 0.28875 -0.04442 0.77702
 H1013 H 0.32556 -0.10374 0.83513
 H1014 H 0.32964 -0.10293 0.76306
 H1015 H 0.34476 -0.12921 0.78046
 H1016 H 0.31068 -0.07296 0.76236
 H1017 H 0.30331 -0.07570 0.83433
 H1018 H 0.28091 -0.04701 0.83290
 H1019 H 0.26415 -0.02144 0.81384
 H1020 H 0.29078 -0.04372 0.76138
 C1021 C 0.80973 0.38789 0.82162
 C1022 C 0.79889 0.40444 0.81606
 C1023 C 0.78963 0.41613 0.83030
 C1024 C 0.79152 0.41111 0.84992
 C1025 C 0.80252 0.39473 0.85541
 C1026 C 0.81187 0.38271 0.84139
 C1027 C 0.77881 0.43273 0.82471
 C1028 C 0.77747 0.43794 0.80502
 C1029 C 0.78691 0.42621 0.79082
 C1030 C 0.79731 0.40946 0.79640
 C1031 C 0.78613 0.43159 0.77122
 C1032 C 0.77649 0.44865 0.76573
 C1033 C 0.76707 0.46045 0.77964
 C1034 C 0.76726 0.45488 0.79928
 H1035 H 0.81577 0.37879 0.81025
 H1036 H 0.78473 0.42002 0.86109
 H1037 H 0.80425 0.39209 0.87082
 H1038 H 0.77171 0.44172 0.83566
 H1039 H 0.80449 0.40053 0.78545
 H1040 H 0.79328 0.42279 0.76018
 H1041 H 0.77635 0.45264 0.75049
 H1042 H 0.76015 0.46404 0.81006
 C1043 C 0.83474 -0.11444 0.31837
 C1044 C 0.82559 -0.09946 0.30759
 C1045 C 0.82948 -0.09781 0.28747
 C1046 C 0.84213 -0.11117 0.27839
 C1047 C 0.85100 -0.12604 0.28905
 C1048 C 0.84777 -0.12796 0.30931
 C1049 C 0.82056 -0.08294 0.27661
 C1050 C 0.80755 -0.06972 0.28554
 C1051 C 0.80342 -0.07131 0.30563
 C1052 C 0.81260 -0.08610 0.31659
 C1053 C 0.79003 -0.05818 0.31433
 C1054 C 0.78069 -0.04376 0.30317
 C1055 C 0.78480 -0.04207 0.28318
 C1056 C 0.79839 -0.05506 0.27453
 H1057 H 0.83214 -0.11496 0.33389
 H1058 H 0.84497 -0.11029 0.26290
 H1059 H 0.85974 -0.13648 0.28093
 H1060 H 0.82363 -0.08176 0.26116
 H1061 H 0.80947 -0.08732 0.33202
 H1062 H 0.78664 -0.05917 0.32970
 H1063 H 0.77027 -0.03392 0.31018
 H1064 H 0.80155 -0.05404 0.25910
 C1065 C 0.31501 0.60411 0.70200
 C1066 C 0.30181 0.58897 0.70702
 C1067 C 0.28069 0.59230 0.70772
 C1068 C 0.27316 0.61073 0.70317
 C1069 C 0.28644 0.62580 0.69837
 C1070 C 0.30749 0.62269 0.69790
 C1071 C 0.26752 0.57728 0.71332
 C1072 C 0.27529 0.55911 0.71865
 C1073 C 0.29644 0.55584 0.71781
 C1074 C 0.30950 0.57068 0.71175
 C1075 C 0.30431 0.53794 0.72362
 C1076 C 0.29149 0.52365 0.73095
 C1077 C 0.27051 0.52678 0.73217
 C1078 C 0.26238 0.54438 0.72552
 H1079 H 0.33117 0.60142 0.70136
 H1080 H 0.25703 0.61359 0.70365
 H1081 H 0.28025 0.64001 0.69542
 H1082 H 0.25134 0.57989 0.71402
 H1083 H 0.32571 0.56814 0.71126
 H1084 H 0.32047 0.53520 0.72305
 H1085 H 0.29802 0.51014 0.73594
 H1086 H 0.24622 0.54694 0.72666
 C1087 C 0.28134 1.12000 0.16822
 C1088 C 0.27504 1.10523 0.18099
 C1089 C 0.28361 1.10391 0.19978
 C1090 C 0.29796 1.11755 0.20567
 C1091 C 0.30407 1.13222 0.19304
 C1092 C 0.29623 1.13365 0.17389
 C1093 C 0.27774 1.08897 0.21243
 C1094 C 0.26332 1.07527 0.20656
 C1095 C 0.25448 1.07673 0.18787
 C1096 C 0.26043 1.09163 0.17519
 C1097 C 0.23987 1.06317 0.18212
 C1098 C 0.23421 1.04822 0.19465
 C1099 C 0.24311 1.04641 0.21318
 C1100 C 0.25765 1.06008 0.21907
 H1101 H 0.27515 1.12015 0.15365
 H1102 H 0.30440 1.11699 0.22016
 H1103 H 0.31452 1.14283 0.19881
 H1104 H 0.28447 1.08797 0.22679
 H1105 H 0.25373 1.09261 0.16081
 H1106 H 0.23289 1.06407 0.16788
 H1107 H 0.22300 1.03788 0.18968
 H1108 H 0.26456 1.05891 0.23333
 C1109 C 0.83239 0.61161 0.17869
 C1110 C 0.81912 0.59891 0.18830
 C1111 C 0.81765 0.59944 0.20876
 C1112 C 0.82907 0.61304 0.21919
 C1113 C 0.84145 0.62631 0.20944
 C1114 C 0.84331 0.62587 0.18903
 C1115 C 0.80452 0.58662 0.21841
 C1116 C 0.79222 0.57384 0.20777
 C1117 C 0.79313 0.57387 0.18723
 C1118 C 0.80689 0.58609 0.17765
 C1119 C 0.78009 0.56181 0.17659
 C1120 C 0.76638 0.54970 0.18620
 C1121 C 0.76587 0.54907 0.20657
 C1122 C 0.77885 0.56116 0.21731
 H1123 H 0.83392 0.61041 0.16308
 H1124 H 0.82796 0.61380 0.23489
 H1125 H 0.84909 0.63724 0.21798
 H1126 H 0.80359 0.58685 0.23415
 H1127 H 0.80774 0.58593 0.16191
 H1128 H 0.78047 0.56177 0.16084
 H1129 H 0.75655 0.54039 0.17771
 H1130 H 0.77834 0.56086 0.23306
 C1131 C 0.79373 1.09791 0.67309
 C1132 C 0.78553 1.08244 0.68367
 C1133 C 0.76440 1.07940 0.68383
 C1134 C 0.75186 1.09184 0.67313
 C1135 C 0.76010 1.10756 0.66295
 C1136 C 0.78120 1.11122 0.66309
 C1137 C 0.75618 1.06420 0.69495
 C1138 C 0.76890 1.05234 0.70624
 C1139 C 0.79008 1.05549 0.70599
 C1140 C 0.79827 1.07029 0.69449
 C1141 C 0.80278 1.04404 0.71757
 C1142 C 0.79459 1.02980 0.72961
 C1143 C 0.77359 1.02650 0.73008
 C1144 C 0.76080 1.03766 0.71813
 H1145 H 0.81007 1.09925 0.67258
 H1146 H 0.73558 1.08974 0.67308
 H1147 H 0.74960 1.11731 0.65590
 H1148 H 0.73992 1.06188 0.69515
 H1149 H 0.81452 1.07270 0.69440
 H1150 H 0.81904 1.04629 0.71753
 H1151 H 0.80476 1.02130 0.73857
 H1152 H 0.74456 1.03529 0.71848
 C1153 C 0.68857 0.62983 0.31495
 C1154 C 0.69626 0.61336 0.30556
 C1155 C 0.71735 0.60980 0.30567
 C1156 C 0.73039 0.62288 0.31492
 C1157 C 0.72269 0.63945 0.32381
 C1158 C 0.70171 0.64315 0.32404
 C1159 C 0.72511 0.59341 0.29625
 C1160 C 0.71211 0.58081 0.28622
 C1161 C 0.69104 0.58454 0.28583
 C1162 C 0.68322 0.60060 0.29576
 C1163 C 0.67818 0.57236 0.27515
 C1164 C 0.68615 0.55686 0.26464
 C1165 C 0.70702 0.55295 0.26503
 C1166 C 0.71991 0.56483 0.27611
 H1167 H 0.67235 0.63223 0.31516
 H1168 H 0.74662 0.62049 0.31498
 H1169 H 0.73331 0.64957 0.33020
 H1170 H 0.74130 0.59070 0.29639
 H1171 H 0.66705 0.60340 0.29548
 H1172 H 0.66202 0.57503 0.27462
 H1173 H 0.67597 0.54786 0.25620
 H1174 H 0.73608 0.56205 0.27624
 C1175 C 0.67867 1.10599 0.82213
 C1176 C 0.68663 1.08920 0.81345
 C1177 C 0.67985 1.08358 0.79483
 C1178 C 0.66555 1.09487 0.78508
 C1179 C 0.65801 1.11169 0.79355
 C1180 C 0.66422 1.11768 0.81232
 C1181 C 0.68764 1.06689 0.78607
 C1182 C 0.70252 1.05588 0.79551
 C1183 C 0.70960 1.06154 0.81405
 C1184 C 0.70142 1.07803 0.82303
 C1185 C 0.72497 1.05074 0.82310
 C1186 C 0.73342 1.03468 0.81375
 C1187 C 0.72636 1.02891 0.79537
 C1188 C 0.71073 1.03951 0.78645
 H1189 H 0.68350 1.10941 0.83675
 H1190 H 0.66044 1.09091 0.77064
 H1191 H 0.64794 1.12029 0.78467
 H1192 H 0.68235 1.06263 0.77176
 H1193 H 0.70680 1.08235 0.83728
 H1194 H 0.73065 1.05488 0.83729
 H1195 H 0.74547 1.02676 0.82090
 H1196 H 0.70534 1.03537 0.77215
 C1197 C 0.19364 0.61124 0.83314
 C1198 C 0.20085 0.59364 0.82557
 C1199 C 0.22099 0.58782 0.82933
 C1200 C 0.23354 0.59958 0.84065
 C1201 C 0.22635 0.61700 0.84812
 C1202 C 0.20625 0.62328 0.84461
 C1203 C 0.22840 0.57047 0.82150
 C1204 C 0.21596 0.55888 0.80976
 C1205 C 0.19571 0.56459 0.80615
 C1206 C 0.18825 0.58182 0.81418
 C1207 C 0.18338 0.55316 0.79420
 C1208 C 0.19118 0.53660 0.78538
 C1209 C 0.21140 0.53096 0.78853
 C1210 C 0.22360 0.54197 0.80111
 H1211 H 0.17798 0.61509 0.83053
 H1212 H 0.24910 0.59545 0.84350
 H1213 H 0.23712 0.62588 0.85593
 H1214 H 0.24393 0.56616 0.82429
 H1215 H 0.17276 0.58621 0.81128
 H1216 H 0.16782 0.55725 0.79131
 H1217 H 0.18142 0.52832 0.77581
 H1218 H 0.23925 0.53786 0.80352
 C1219 C 0.15095 1.10736 0.31997
 C1220 C 0.15844 1.09213 0.30849
 C1221 C 0.15614 1.09284 0.28804
 C1222 C 0.14672 1.10876 0.27939
 C1223 C 0.13983 1.12401 0.29079
 C1224 C 0.14164 1.12350 0.31121
 C1225 C 0.16382 1.07792 0.27645
 C1226 C 0.17455 1.06262 0.28491
 C1227 C 0.17711 1.06193 0.30534
 C1228 C 0.16866 1.07647 0.31703
 C1229 C 0.18875 1.04710 0.31363
 C1230 C 0.19847 1.03362 0.30175
 C1231 C 0.19611 1.03435 0.28147
 C1232 C 0.18365 1.04853 0.27316
 H1233 H 0.15247 1.10667 0.33564
 H1234 H 0.14509 1.10966 0.26374
 H1235 H 0.13344 1.13644 0.28343
 H1236 H 0.16208 1.07859 0.26078
 H1237 H 0.17066 1.07595 0.33268
 H1238 H 0.19096 1.04634 0.32922
 H1239 H 0.20812 1.02278 0.30836
 H1240 H 0.18214 1.04934 0.25747
 C1241 C 0.67737 0.40178 0.67685
 C1242 C 0.68790 0.41669 0.68638
 C1243 C 0.70931 0.41623 0.68726
 C1244 C 0.71980 0.40076 0.67892
 C1245 C 0.70923 0.38587 0.66972
 C1246 C 0.68794 0.38627 0.66841
 C1247 C 0.71991 0.43109 0.69669
 C1248 C 0.70938 0.44617 0.70571
 C1249 C 0.68795 0.44654 0.70509
 C1250 C 0.67735 0.43195 0.69518
 C1251 C 0.67748 0.46124 0.71485
 C1252 C 0.68811 0.47509 0.72559
 C1253 C 0.70938 0.47479 0.72625
 C1254 C 0.71995 0.46054 0.71594
 H1255 H 0.66099 0.40236 0.67583
 H1256 H 0.73619 0.40008 0.67964
 H1257 H 0.71776 0.37392 0.66374
 H1258 H 0.73634 0.43070 0.69734
 H1259 H 0.66092 0.43226 0.69466
 H1260 H 0.66107 0.46173 0.71460
 H1261 H 0.67973 0.48597 0.73353
 H1262 H 0.73635 0.46004 0.71673
 C1263 C 0.68508 -0.12097 0.18616
 C1264 C 0.69634 -0.10509 0.19300
 C1265 C 0.71616 -0.10189 0.18601
 C1266 C 0.72437 -0.11455 0.17232
 C1267 C 0.71329 -0.13051 0.16585
 C1268 C 0.69343 -0.13425 0.17269
 C1269 C 0.72758 -0.08622 0.19296
 C1270 C 0.71952 -0.07383 0.20708
 C1271 C 0.69969 -0.07699 0.21416
 C1272 C 0.68815 -0.09250 0.20694
 C1273 C 0.69186 -0.06470 0.22849
 C1274 C 0.70360 -0.04951 0.23586
 C1275 C 0.72333 -0.04622 0.22888
 C1276 C 0.73112 -0.05844 0.21438
 H1277 H 0.66962 -0.12247 0.19115
 H1278 H 0.73964 -0.11238 0.16693
 H1279 H 0.72099 -0.14036 0.15619
 H1280 H 0.74282 -0.08383 0.18757
 H1281 H 0.67294 -0.09494 0.21239
 H1282 H 0.67669 -0.06692 0.23411
 H1283 H 0.69721 -0.04030 0.24698
 H1284 H 0.74634 -0.05614 0.20892
 C1285 C 0.17247 0.39263 0.18613
 C1286 C 0.18393 0.40538 0.19771
 C1287 C 0.20531 0.40389 0.19789
 C1288 C 0.21482 0.38939 0.18710
 C1289 C 0.20336 0.37665 0.17589
 C1290 C 0.18212 0.37830 0.17494
 C1291 C 0.21691 0.41696 0.20876
 C1292 C 0.20745 0.43145 0.21965
 C1293 C 0.18608 0.43266 0.22006
 C1294 C 0.17442 0.41967 0.20898
 C1295 C 0.17679 0.44695 0.23146
 C1296 C 0.18860 0.46011 0.24205
 C1297 C 0.20985 0.45934 0.24115
 C1298 C 0.21914 0.44485 0.23004
 H1299 H 0.15614 0.39414 0.18555
 H1300 H 0.23117 0.38789 0.18731
 H1301 H 0.21121 0.36541 0.16797
 H1302 H 0.23331 0.41593 0.20864
 H1303 H 0.15803 0.42074 0.20905
 H1304 H 0.16043 0.44804 0.23208
 H1305 H 0.18114 0.47117 0.25054
 H1306 H 0.23554 0.44399 0.22947
 C1307 C 0.19515 -0.11159 0.68008
 C1308 C 0.19987 -0.09430 0.68991
 C1309 C 0.18583 -0.08633 0.70312
 C1310 C 0.16716 -0.09546 0.70595
 C1311 C 0.16254 -0.11258 0.69620
 C1312 C 0.17652 -0.12129 0.68333
 C1313 C 0.19071 -0.06947 0.71346
 C1314 C 0.20956 -0.06046 0.71084
 C1315 C 0.22352 -0.06820 0.69738
 C1316 C 0.21860 -0.08505 0.68699
 C1317 C 0.24230 -0.05907 0.69471
 C1318 C 0.24737 -0.04266 0.70554
 C1319 C 0.23379 -0.03507 0.71930
 C1320 C 0.21478 -0.04399 0.72171
 H1321 H 0.20657 -0.11783 0.67075
 H1322 H 0.15606 -0.08936 0.71578
 H1323 H 0.14758 -0.11859 0.69849
 H1324 H 0.17994 -0.06351 0.72372
 H1325 H 0.22941 -0.09107 0.67681
 H1326 H 0.25317 -0.06474 0.68441
 H1327 H 0.26212 -0.03612 0.70337
 H1328 H 0.20412 -0.03827 0.73219
 C1329 C 0.29402 0.31850 0.38971
 C1330 C 0.28462 0.30988 0.40589
 C1331 C 0.29659 0.30077 0.42030
 C1332 C 0.31772 0.30117 0.41875
 C1333 C 0.32696 0.31008 0.40285
 C1334 C 0.31528 0.31847 0.38790
 C1335 C 0.28726 0.29130 0.43597
 C1336 C 0.26610 0.29111 0.43763
 C1337 C 0.25413 0.30092 0.42368
 C1338 C 0.26345 0.31007 0.40779
 C1339 C 0.23301 0.30134 0.42583
 C1340 C 0.22381 0.29190 0.44150
 C1341 C 0.23553 0.28154 0.45501
 C1342 C 0.25669 0.28123 0.45303
 H1343 H 0.28471 0.32473 0.37834
 H1344 H 0.32714 0.29453 0.42982
 H1345 H 0.34335 0.31030 0.40224
 H1346 H 0.29647 0.28403 0.44682
 H1347 H 0.25424 0.31728 0.39691
 H1348 H 0.22360 0.30890 0.41538
 H1349 H 0.20746 0.29227 0.44279
 H1350 H 0.26582 0.27345 0.46358
 C1351 C 0.32774 0.83942 -0.12457
 C1352 C 0.32324 0.83244 -0.10584
 C1353 C 0.33888 0.82469 -0.09411
 C1354 C 0.35885 0.82483 -0.10092
 C1355 C 0.36324 0.83202 -0.11940
 C1356 C 0.34774 0.83895 -0.13165
 C1357 C 0.33432 0.81670 -0.07587
 C1358 C 0.31432 0.81657 -0.06905
 C1359 C 0.29879 0.82504 -0.08041
 C1360 C 0.30331 0.83279 -0.09878
 C1361 C 0.27892 0.82544 -0.07327
 C1362 C 0.27440 0.81719 -0.05524
 C1363 C 0.28957 0.80809 -0.04417
 C1364 C 0.30956 0.80793 -0.05111
 H1365 H 0.31558 0.84460 -0.13379
 H1366 H 0.37107 0.81922 -0.09202
 H1367 H 0.37886 0.83197 -0.12420
 H1368 H 0.34630 0.81045 -0.06707
 H1369 H 0.29131 0.83895 -0.10762
 H1370 H 0.26685 0.83199 -0.08170
 H1371 H 0.25886 0.81743 -0.05020
 H1372 H 0.32138 0.80111 -0.04256
 C1373 C 0.82237 0.30922 -0.11054
 C1374 C 0.81432 0.29988 -0.09412
 C1375 C 0.80718 0.31104 -0.07834
 C1376 C 0.80926 0.33120 -0.07874
 C1377 C 0.81739 0.34035 -0.09503
 C1378 C 0.82341 0.32956 -0.11135
 C1379 C 0.79757 0.30195 -0.06265
 C1380 C 0.79505 0.28182 -0.06248
 C1381 C 0.80314 0.27051 -0.07771
 C1382 C 0.81267 0.27962 -0.09349
 C1383 C 0.80112 0.25028 -0.07706
 C1384 C 0.79060 0.24144 -0.06179
 C1385 C 0.78165 0.25273 -0.04723
 C1386 C 0.78417 0.27287 -0.04749
 H1387 H 0.82687 0.30069 -0.12300
 H1388 H 0.80417 0.33993 -0.06663
 H1389 H 0.81855 0.35599 -0.09504
 H1390 H 0.79163 0.31058 -0.05080
 H1391 H 0.81840 0.27101 -0.10544
 H1392 H 0.80739 0.24136 -0.08850
 H1393 H 0.78880 0.22585 -0.06174
 H1394 H 0.77749 0.28157 -0.03606
 C1395 C 0.83833 0.83664 0.37839
 C1396 C 0.82929 0.82858 0.39506
 C1397 C 0.83014 0.80835 0.39811
 C1398 C 0.83946 0.79651 0.38430
 C1399 C 0.84798 0.80456 0.36760
 C1400 C 0.84780 0.82471 0.36449
 C1401 C 0.82148 0.80020 0.41481
 C1402 C 0.81148 0.81192 0.42832
 C1403 C 0.81010 0.83209 0.42514
 C1404 C 0.81928 0.84035 0.40865
 C1405 C 0.79928 0.84355 0.43839
 C1406 C 0.78975 0.83506 0.45448
 C1407 C 0.79138 0.81507 0.45786
 C1408 C 0.80244 0.80364 0.44478
 H1409 H 0.83812 0.85220 0.37635
 H1410 H 0.83998 0.78095 0.38630
 H1411 H 0.85451 0.79486 0.35699
 H1412 H 0.82229 0.78468 0.41715
 H1413 H 0.81838 0.85585 0.40625
 H1414 H 0.79794 0.85903 0.43614
 H1415 H 0.78121 0.84410 0.46435
 H1416 H 0.80343 0.78813 0.44707
 C1417 C 0.67544 0.33046 0.59892
 C1418 C 0.68552 0.32118 0.58358
 C1419 C 0.70688 0.31946 0.58400
 C1420 C 0.71775 0.32676 0.59985
 C1421 C 0.70761 0.33560 0.61520
 C1422 C 0.68639 0.33770 0.61490
 C1423 C 0.71702 0.31024 0.56873
 C1424 C 0.70605 0.30224 0.55324
 C1425 C 0.68466 0.30367 0.55295
 C1426 C 0.67456 0.31336 0.56797
 C1427 C 0.67369 0.29507 0.53780
 C1428 C 0.68378 0.28487 0.52325
 C1429 C 0.70502 0.28347 0.52336
 C1430 C 0.71611 0.29243 0.53826
 H1431 H 0.65913 0.33209 0.59834
 H1432 H 0.73410 0.32539 0.60051
 H1433 H 0.71646 0.34055 0.62750
 H1434 H 0.73340 0.30898 0.56907
 H1435 H 0.65817 0.31450 0.56770
 H1436 H 0.65731 0.29596 0.53736
 H1437 H 0.67496 0.27810 0.51184
 H1438 H 0.73249 0.29120 0.53853
 C1439 C 0.70474 0.81227 1.11940
 C1440 C 0.71079 0.80248 1.10253
 C1441 C 0.69632 0.79203 1.09157
 C1442 C 0.67598 0.79196 1.09742
 C1443 C 0.67005 0.80193 1.11412
 C1444 C 0.68435 0.81204 1.12542
 C1445 C 0.70244 0.78168 1.07508
 C1446 C 0.72285 0.78172 1.06935
 C1447 C 0.73722 0.79258 1.08003
 C1448 C 0.73111 0.80285 1.09657
 C1449 C 0.75754 0.79279 1.07410
 C1450 C 0.76369 0.78196 1.05803
 C1451 C 0.74966 0.77064 1.04766
 C1452 C 0.72917 0.77081 1.05329
 H1453 H 0.71605 0.81972 1.12806
 H1454 H 0.66466 0.78416 1.08911
 H1455 H 0.65419 0.80178 1.11814
 H1456 H 0.69138 0.77346 1.06682
 H1457 H 0.74220 0.81099 1.10489
 H1458 H 0.76874 0.80112 1.08205
 H1459 H 0.77955 0.78208 1.05402
 H1460 H 0.71816 0.76224 1.04533
 C1461 C 0.16850 0.33098 1.09899
 C1462 C 0.17852 0.32228 1.08326
 C1463 C 0.19984 0.32029 1.08368
 C1464 C 0.21074 0.32677 1.09986
 C1465 C 0.20063 0.33483 1.11568
 C1466 C 0.17941 0.33710 1.11550
 C1467 C 0.20991 0.31143 1.06814
 C1468 C 0.19888 0.30387 1.05247
 C1469 C 0.17751 0.30555 1.05216
 C1470 C 0.16750 0.31508 1.06737
 C1471 C 0.16647 0.29720 1.03689
 C1472 C 0.17645 0.28689 1.02232
 C1473 C 0.19766 0.28524 1.02248
 C1474 C 0.20883 0.29406 1.03741
 H1475 H 0.15222 0.33282 1.09837
 H1476 H 0.22706 0.32518 1.10052
 H1477 H 0.20951 0.33885 1.12829
 H1478 H 0.22627 0.30994 1.06850
 H1479 H 0.15113 0.31638 1.06710
 H1480 H 0.15009 0.29827 1.03644
 H1481 H 0.16759 0.28019 1.01089
 H1482 H 0.22519 0.29259 1.03773
 C1483 C 0.20645 0.83222 0.62681
 C1484 C 0.21567 0.82379 0.61051
 C1485 C 0.20350 0.81507 0.59599
 C1486 C 0.18236 0.81556 0.59765
 C1487 C 0.17334 0.82376 0.61399
 C1488 C 0.18528 0.83171 0.62892
 C1489 C 0.21263 0.80550 0.58036
 C1490 C 0.23379 0.80437 0.57911
 C1491 C 0.24599 0.81360 0.59326
 C1492 C 0.23685 0.82330 0.60885
 C1493 C 0.26715 0.81266 0.59176
 C1494 C 0.27614 0.80234 0.57661
 C1495 C 0.26413 0.79262 0.56283
 C1496 C 0.24293 0.79386 0.56407
 H1497 H 0.21575 0.83823 0.63833
 H1498 H 0.17281 0.80911 0.58658
 H1499 H 0.15698 0.82348 0.61521
 H1500 H 0.20327 0.79855 0.56942
 H1501 H 0.24621 0.83008 0.61990
 H1502 H 0.27674 0.81972 0.60240
 H1503 H 0.29252 0.80161 0.57592
 H1504 H 0.23355 0.78661 0.55337
 C1505 C 0.31936 0.67536 0.64044
 C1506 C 0.31713 0.68856 0.62504
 C1507 C 0.32160 0.70838 0.62801
 C1508 C 0.32778 0.71472 0.64641
 C1509 C 0.32997 0.70151 0.66163
 C1510 C 0.32608 0.68170 0.65874
 C1511 C 0.31988 0.72154 0.61256
 C1512 C 0.31342 0.71521 0.59422
 C1513 C 0.30861 0.69545 0.59132
 C1514 C 0.31069 0.68222 0.60668
 C1515 C 0.30144 0.68930 0.57316
 C1516 C 0.29857 0.70268 0.55818
 C1517 C 0.30338 0.72229 0.56092
 C1518 C 0.31116 0.72844 0.57886
 H1519 H 0.31650 0.66009 0.63802
 H1520 H 0.33110 0.72986 0.64900
 H1521 H 0.33490 0.70677 0.67568
 H1522 H 0.32338 0.73671 0.61486
 H1523 H 0.30713 0.66706 0.60441
 H1524 H 0.29761 0.67424 0.57069
 H1525 H 0.29245 0.69774 0.54443
 H1526 H 0.31450 0.74365 0.58113
 C1527 C 0.29426 0.18522 1.10051
 C1528 C 0.28257 0.19276 1.08522
 C1529 C 0.26127 0.19385 1.08707
 C1530 C 0.25208 0.18740 1.10428
 C1531 C 0.26386 0.18014 1.11957
 C1532 C 0.28509 0.17900 1.11790
 C1533 C 0.24959 0.20163 1.07183
 C1534 C 0.25901 0.20870 1.05493
 C1535 C 0.28036 0.20766 1.05322
 C1536 C 0.29194 0.19949 1.06823
 C1537 C 0.28989 0.21521 1.03669
 C1538 C 0.27850 0.22419 1.02218
 C1539 C 0.25732 0.22542 1.02366
 C1540 C 0.24756 0.21731 1.03992
 H1541 H 0.31056 0.18418 1.09886
 H1542 H 0.23579 0.18821 1.10603
 H1543 H 0.25635 0.17576 1.13284
 H1544 H 0.23326 0.20251 1.07328
 H1545 H 0.30829 0.19874 1.06685
 H1546 H 0.30622 0.21454 1.03516
 H1547 H 0.28631 0.23028 1.00973
 H1548 H 0.23124 0.21841 1.04126
 C1549 C 0.83326 0.66862 1.12492
 C1550 C 0.82708 0.67564 1.10670
 C1551 C 0.84173 0.68231 1.09329
 C1552 C 0.86235 0.68105 1.09800
 C1553 C 0.86839 0.67372 1.11603
 C1554 C 0.85396 0.66777 1.12987
 C1555 C 0.83555 0.69042 1.07554
 C1556 C 0.81487 0.69182 1.07098
 C1557 C 0.80026 0.68435 1.08402
 C1558 C 0.80644 0.67639 1.10183
 C1559 C 0.77964 0.68536 1.07921
 C1560 C 0.77348 0.69433 1.06198
 C1561 C 0.78782 0.70262 1.04936
 C1562 C 0.80855 0.70098 1.05379
 H1563 H 0.82185 0.66440 1.13541
 H1564 H 0.87380 0.68585 1.08780
 H1565 H 0.88445 0.67279 1.11914
 H1566 H 0.84679 0.69592 1.06544
 H1567 H 0.79519 0.67104 1.11200
 H1568 H 0.76824 0.67957 1.08896
 H1569 H 0.75743 0.69544 1.05890
 H1570 H 0.81974 0.70718 1.04406
 C1571 C 0.78835 0.17198 0.59802
 C1572 C 0.77824 0.18149 0.58278
 C1573 C 0.75688 0.18298 0.58304
 C1574 C 0.74603 0.17506 0.59866
 C1575 C 0.75622 0.16586 0.61391
 C1576 C 0.77748 0.16419 0.61379
 C1577 C 0.74675 0.19254 0.56783
 C1578 C 0.75776 0.20100 0.55255
 C1579 C 0.77916 0.19964 0.55246
 C1580 C 0.78922 0.18971 0.56741
 C1581 C 0.79024 0.20857 0.53757
 C1582 C 0.78029 0.21908 0.52311
 C1583 C 0.75905 0.22054 0.52299
 C1584 C 0.74780 0.21119 0.53760
 H1585 H 0.80469 0.17055 0.59749
 H1586 H 0.72966 0.17615 0.59918
 H1587 H 0.74744 0.16026 0.62596
 H1588 H 0.73036 0.19367 0.56805
 H1589 H 0.80562 0.18869 0.56726
 H1590 H 0.80663 0.20770 0.53729
 H1591 H 0.78924 0.22612 0.51195
 H1592 H 0.73143 0.21244 0.53772
 C1593 C 0.69806 0.70625 0.38875
 C1594 C 0.70885 0.71581 0.40349
 C1595 C 0.73015 0.71401 0.40453
 C1596 C 0.74030 0.70280 0.39068
 C1597 C 0.72951 0.69375 0.37573
 C1598 C 0.70827 0.69540 0.37451
 C1599 C 0.74099 0.72372 0.41915
 C1600 C 0.73082 0.73562 0.43245
 C1601 C 0.70952 0.73760 0.43121
 C1602 C 0.69866 0.72747 0.41695
 C1603 C 0.69944 0.74994 0.44409
 C1604 C 0.71033 0.76040 0.45795
 C1605 C 0.73147 0.75845 0.45946
 C1606 C 0.74163 0.74586 0.44676
 H1607 H 0.68169 0.70741 0.38834
 H1608 H 0.75664 0.70135 0.39115
 H1609 H 0.73792 0.68585 0.36485
 H1610 H 0.75734 0.72230 0.41995
 H1611 H 0.68232 0.72899 0.41606
 H1612 H 0.68314 0.75167 0.44331
 H1613 H 0.70216 0.76992 0.46766
 H1614 H 0.75796 0.74440 0.44772
 C1615 C 0.67962 0.16390 -0.12566
 C1616 C 0.68874 0.17447 -0.11052
 C1617 C 0.68947 0.19492 -0.11161
 C1618 C 0.68172 0.20439 -0.12800
 C1619 C 0.67276 0.19381 -0.14296
 C1620 C 0.67120 0.17353 -0.14180
 C1621 C 0.69773 0.20562 -0.09624
 C1622 C 0.70550 0.19619 -0.07980
 C1623 C 0.70536 0.17574 -0.07887
 C1624 C 0.69686 0.16500 -0.09419
 C1625 C 0.71376 0.16641 -0.06261
 C1626 C 0.72218 0.17725 -0.04744
 C1627 C 0.72194 0.19757 -0.04809
 C1628 C 0.71352 0.20694 -0.06432
 H1629 H 0.67847 0.14828 -0.12457
 H1630 H 0.68239 0.22003 -0.12917
 H1631 H 0.66685 0.20155 -0.15544
 H1632 H 0.69805 0.22131 -0.09703
 H1633 H 0.69650 0.14932 -0.09337
 H1634 H 0.71390 0.15076 -0.06168
 H1635 H 0.72868 0.16975 -0.03508
 H1636 H 0.71359 0.22262 -0.06507
 C1637 C 0.20422 0.68904 -0.09447
 C1638 C 0.21523 0.69918 -0.08029
 C1639 C 0.23636 0.69626 -0.07861
 C1640 C 0.24608 0.68322 -0.09103
 C1641 C 0.23513 0.67363 -0.10546
 C1642 C 0.21413 0.67654 -0.10751
 C1643 C 0.24754 0.70681 -0.06493
 C1644 C 0.23798 0.72066 -0.05328
 C1645 C 0.21687 0.72364 -0.05491
 C1646 C 0.20555 0.71266 -0.06822
 C1647 C 0.20754 0.73789 -0.04351
 C1648 C 0.21910 0.74933 -0.03091
 C1649 C 0.24012 0.74652 -0.02930
 C1650 C 0.24938 0.73194 -0.04038
 H1651 H 0.18800 0.69119 -0.09557
 H1652 H 0.26228 0.68089 -0.08998
 H1653 H 0.24330 0.66441 -0.11544
 H1654 H 0.26377 0.70461 -0.06373
 H1655 H 0.18936 0.71501 -0.06957
 H1656 H 0.19137 0.74039 -0.04458
 H1657 H 0.21160 0.76043 -0.02248
 H1658 H 0.26560 0.72969 -0.03937
 C1659 C 0.14132 0.18318 0.37973
 C1660 C 0.15232 0.19108 0.39531
 C1661 C 0.17337 0.18765 0.39677
 C1662 C 0.18309 0.17664 0.38248
 C1663 C 0.17213 0.16923 0.36677
 C1664 C 0.15111 0.17233 0.36519
 C1665 C 0.18442 0.19545 0.41233
 C1666 C 0.17478 0.20705 0.42623
 C1667 C 0.15380 0.21081 0.42461
 C1668 C 0.14264 0.20260 0.40930
 C1669 C 0.14438 0.22291 0.43823
 C1670 C 0.15567 0.23129 0.45326
 C1671 C 0.17647 0.22742 0.45514
 C1672 C 0.18590 0.21517 0.44160
 H1673 H 0.12510 0.18552 0.37896
 H1674 H 0.19926 0.17402 0.38327
 H1675 H 0.18030 0.16140 0.35567
 H1676 H 0.20057 0.19272 0.41346
 H1677 H 0.12652 0.20541 0.40811
 H1678 H 0.12833 0.22601 0.43717
 H1679 H 0.14809 0.24065 0.46353
 H1680 H 0.20200 0.21228 0.44278
 C1681 C 0.29432 0.37458 0.67848
 C1682 C 0.28866 0.38952 0.69114
 C1683 C 0.29294 0.38795 0.71122
 C1684 C 0.30283 0.37142 0.71826
 C1685 C 0.30815 0.35646 0.70559
 C1686 C 0.30388 0.35781 0.68558
 C1687 C 0.28699 0.40278 0.72394
 C1688 C 0.27644 0.41897 0.71687
 C1689 C 0.27211 0.42043 0.69676
 C1690 C 0.27845 0.40585 0.68402
 C1691 C 0.26115 0.43631 0.68973
 C1692 C 0.25414 0.45043 0.70249
 C1693 C 0.25824 0.44917 0.72251
 C1694 C 0.26970 0.43352 0.72960
 H1695 H 0.29123 0.37602 0.66306
 H1696 H 0.30617 0.36991 0.73361
 H1697 H 0.31522 0.34363 0.71157
 H1698 H 0.29024 0.40155 0.73935
 H1699 H 0.27508 0.40701 0.66862
 H1700 H 0.25771 0.43765 0.67437
 H1701 H 0.24544 0.46240 0.69668
 H1702 H 0.27279 0.43235 0.74504
 C1703 C 0.32982 0.90947 0.18032
 C1704 C 0.31837 0.92279 0.19098
 C1705 C 0.32084 0.92390 0.21135
 C1706 C 0.33463 0.91158 0.22068
 C1707 C 0.34522 0.89768 0.21006
 C1708 C 0.34276 0.89625 0.18978
 C1709 C 0.30904 0.93685 0.22212
 C1710 C 0.29415 0.94805 0.21287
 C1711 C 0.29138 0.94667 0.19253
 C1712 C 0.30386 0.93439 0.18165
 C1713 C 0.27582 0.95722 0.18352
 C1714 C 0.26293 0.96883 0.19459
 C1715 C 0.26578 0.97047 0.21473
 C1716 C 0.28157 0.96020 0.22375
 H1717 H 0.32811 0.90908 0.16466
 H1718 H 0.33661 0.91216 0.23630
 H1719 H 0.35473 0.88761 0.21793
 H1720 H 0.31096 0.93774 0.23775
 H1721 H 0.30176 0.93333 0.16605
 H1722 H 0.27342 0.95625 0.16796
 H1723 H 0.25087 0.97670 0.18740
 H1724 H 0.28366 0.96121 0.23936
 C1725 C 0.79056 0.39413 0.15966
 C1726 C 0.78318 0.40916 0.17142
 C1727 C 0.78628 0.40848 0.19177
 C1728 C 0.79625 0.39261 0.20005
 C1729 C 0.80348 0.37773 0.18830
 C1730 C 0.80102 0.37844 0.16799
 C1731 C 0.77947 0.42369 0.20352
 C1732 C 0.76939 0.43953 0.19525
 C1733 C 0.76590 0.44007 0.17496
 C1734 C 0.77292 0.42495 0.16316
 C1735 C 0.75533 0.45570 0.16683
 C1736 C 0.74820 0.47060 0.17868
 C1737 C 0.75183 0.47032 0.19881
 C1738 C 0.76257 0.45478 0.20700
 H1739 H 0.78865 0.39490 0.14403
 H1740 H 0.79858 0.39175 0.21563
 H1741 H 0.81109 0.36562 0.19514
 H1742 H 0.78200 0.42318 0.21910
 H1743 H 0.77039 0.42546 0.14759
 H1744 H 0.75245 0.45633 0.15133
 H1745 H 0.73995 0.48245 0.17207
 H1746 H 0.76519 0.45433 0.22255
 C1747 C 0.82867 0.87912 0.69147
 C1748 C 0.81816 0.89207 0.70355
 C1749 C 0.81667 0.88825 0.72369
 C1750 C 0.82486 0.87115 0.73126
 C1751 C 0.83465 0.85805 0.71908
 C1752 C 0.83713 0.86197 0.69909
 C1753 C 0.80691 0.90149 0.73594
 C1754 C 0.79800 0.91824 0.72823
 C1755 C 0.79865 0.92164 0.70794
 C1756 C 0.80904 0.90872 0.69579
 C1757 C 0.78880 0.93787 0.70015
 C1758 C 0.77853 0.95068 0.71234
 C1759 C 0.77846 0.94778 0.73253
 C1760 C 0.78827 0.93158 0.74044
 H1761 H 0.83045 0.88263 0.67622
 H1762 H 0.82350 0.86780 0.74660
 H1763 H 0.84016 0.84472 0.72543
 H1764 H 0.80608 0.89867 0.75144
 H1765 H 0.80982 0.91153 0.68029
 H1766 H 0.78898 0.94063 0.68464
 H1767 H 0.77103 0.96315 0.70606
 H1768 H 0.78799 0.92922 0.75603
 C1769 C 0.69636 0.63150 0.68747
 C1770 C 0.70457 0.61556 0.69734
 C1771 C 0.72566 0.61215 0.69655
 C1772 C 0.73820 0.62491 0.68623
 C1773 C 0.72997 0.64101 0.67685
 C1774 C 0.70897 0.64451 0.67728
 C1775 C 0.73391 0.59611 0.70617
 C1776 C 0.72139 0.58360 0.71684
 C1777 C 0.70036 0.58721 0.71805
 C1778 C 0.69204 0.60309 0.70813
 C1779 C 0.68804 0.57484 0.72915
 C1780 C 0.69645 0.55888 0.73875
 C1781 C 0.71725 0.55494 0.73717
 C1782 C 0.72963 0.56747 0.72629
 H1783 H 0.68011 0.63371 0.68770
 H1784 H 0.75442 0.62258 0.68563
 H1785 H 0.74016 0.65092 0.66955
 H1786 H 0.75008 0.59340 0.70541
 H1787 H 0.67587 0.60580 0.70890
 H1788 H 0.67190 0.57745 0.73033
 H1789 H 0.68663 0.54939 0.74703
 H1790 H 0.74575 0.56468 0.72516
 C1791 C 0.68141 0.10645 0.17885
 C1792 C 0.68965 0.09167 0.19039
 C1793 C 0.68788 0.09262 0.21083
 C1794 C 0.67797 0.10838 0.21936
 C1795 C 0.67033 0.12332 0.20779
 C1796 C 0.67207 0.12262 0.18742
 C1797 C 0.69642 0.07803 0.22242
 C1798 C 0.70722 0.06281 0.21384
 C1799 C 0.70918 0.06200 0.19339
 C1800 C 0.70010 0.07625 0.18178
 C1801 C 0.72056 0.04713 0.18490
 C1802 C 0.73018 0.03336 0.19657
 C1803 C 0.72824 0.03398 0.21689
 C1804 C 0.71652 0.04864 0.22542
 H1805 H 0.68253 0.10543 0.16317
 H1806 H 0.67658 0.10939 0.23502
 H1807 H 0.66356 0.13568 0.21488
 H1808 H 0.69506 0.07875 0.23812
 H1809 H 0.70161 0.07562 0.16609
 H1810 H 0.72227 0.04632 0.16926
 H1811 H 0.73908 0.02214 0.18969
 H1812 H 0.71512 0.04935 0.24110
 C1813 C 0.20511 0.61677 0.18498
 C1814 C 0.21259 0.60016 0.19426
 C1815 C 0.23359 0.59618 0.19390
 C1816 C 0.24674 0.60899 0.18432
 C1817 C 0.23920 0.62570 0.17541
 C1818 C 0.21833 0.62982 0.17567
 C1819 C 0.24111 0.57966 0.20336
 C1820 C 0.22793 0.56733 0.21358
 C1821 C 0.20695 0.57147 0.21407
 C1822 C 0.19939 0.58768 0.20418
 C1823 C 0.19389 0.55954 0.22480
 C1824 C 0.20157 0.54391 0.23533
 C1825 C 0.22236 0.53964 0.23496
 C1826 C 0.23546 0.55123 0.22378
 H1827 H 0.18895 0.61953 0.18503
 H1828 H 0.26289 0.60624 0.18399
 H1829 H 0.24981 0.63558 0.16863
 H1830 H 0.25722 0.57661 0.20309
 H1831 H 0.18329 0.59081 0.20457
 H1832 H 0.17778 0.56253 0.22535
 H1833 H 0.19123 0.53512 0.24382
 H1834 H 0.25156 0.54815 0.22363
 C1835 C 0.16713 0.10809 0.67402
 C1836 C 0.17613 0.09283 0.68435
 C1837 C 0.16383 0.07843 0.69298
 C1838 C 0.14276 0.07924 0.69061
 C1839 C 0.13391 0.09429 0.67999
 C1840 C 0.14594 0.10902 0.67174
 C1841 C 0.17280 0.06353 0.70389
 C1842 C 0.19394 0.06272 0.70604
 C1843 C 0.20625 0.07681 0.69687
 C1844 C 0.19727 0.09186 0.68623
 C1845 C 0.22737 0.07569 0.69857
 C1846 C 0.23626 0.06091 0.70948
 C1847 C 0.22419 0.04715 0.71912
 C1848 C 0.20299 0.04809 0.71727
 H1849 H 0.17667 0.11943 0.66810
 H1850 H 0.13309 0.06821 0.69695
 H1851 H 0.11762 0.09432 0.67817
 H1852 H 0.16334 0.05262 0.71073
 H1853 H 0.20672 0.10280 0.67943
 H1854 H 0.23702 0.08631 0.69155
 H1855 H 0.25262 0.06052 0.71075
 H1856 H 0.19357 0.03743 0.72451
 C1857 C 0.32235 0.61262 0.32811
 C1858 C 0.30974 0.59775 0.32119
 C1859 C 0.28846 0.60023 0.32127
 C1860 C 0.28019 0.61764 0.32792
 C1861 C 0.29282 0.63241 0.33461
 C1862 C 0.31400 0.63001 0.33500
 C1863 C 0.27579 0.58532 0.31464
 C1864 C 0.28412 0.56806 0.30759
 C1865 C 0.30541 0.56569 0.30720
 C1866 C 0.31807 0.58046 0.31418
 C1867 C 0.31369 0.54867 0.29955
 C1868 C 0.30103 0.53428 0.29205
 C1869 C 0.27988 0.53646 0.29249
 C1870 C 0.27149 0.55328 0.30053
 H1871 H 0.33862 0.61051 0.32846
 H1872 H 0.26394 0.61986 0.32791
 H1873 H 0.28599 0.64579 0.33945
 H1874 H 0.25948 0.58722 0.31478
 H1875 H 0.33439 0.57859 0.31397
 H1876 H 0.32996 0.54663 0.29907
 H1877 H 0.30779 0.52140 0.28590
 H1878 H 0.25518 0.55516 0.30064
 C1879 C 0.31176 0.12753 0.82232
 C1880 C 0.30602 0.10972 0.81410
 C1881 C 0.32060 0.09843 0.80424
 C1882 C 0.34073 0.10479 0.80330
 C1883 C 0.34631 0.12244 0.81154
 C1884 C 0.33187 0.13419 0.82079
 C1885 C 0.31481 0.08113 0.79517
 C1886 C 0.29458 0.07495 0.79576
 C1887 C 0.28007 0.08587 0.80609
 C1888 C 0.28587 0.10320 0.81521
 C1889 C 0.25991 0.07941 0.80681
 C1890 C 0.25407 0.06263 0.79691
 C1891 C 0.26826 0.05206 0.78604
 C1892 C 0.28859 0.05818 0.78580
 H1893 H 0.30044 0.13646 0.82933
 H1894 H 0.35213 0.09621 0.79600
 H1895 H 0.36200 0.12695 0.81056
 H1896 H 0.32597 0.07267 0.78737
 H1897 H 0.27468 0.11174 0.82288
 H1898 H 0.24859 0.08752 0.81474
 H1899 H 0.23832 0.05822 0.79732
 H1900 H 0.29971 0.05007 0.77760
 C1901 C 0.83123 0.59520 0.84760
 C1902 C 0.82098 0.58134 0.83636
 C1903 C 0.83216 0.56776 0.82539
 C1904 C 0.85335 0.56775 0.82650
 C1905 C 0.86342 0.58151 0.83778
 C1906 C 0.85253 0.59568 0.84806
 C1907 C 0.82203 0.55465 0.81322
 C1908 C 0.80083 0.55484 0.81198
 C1909 C 0.78960 0.56791 0.82352
 C1910 C 0.79975 0.58114 0.83556
 C1911 C 0.76839 0.56767 0.82268
 C1912 C 0.75838 0.55480 0.81031
 C1913 C 0.76941 0.54220 0.79833
 C1914 C 0.79066 0.54223 0.79928
 H1915 H 0.82262 0.60609 0.85532
 H1916 H 0.86216 0.55730 0.81840
 H1917 H 0.87982 0.58126 0.83822
 H1918 H 0.83065 0.54447 0.80457
 H1919 H 0.79113 0.59140 0.84412
 H1920 H 0.75954 0.57749 0.83150
 H1921 H 0.74198 0.55500 0.80978
 H1922 H 0.79924 0.53237 0.79025
 C1923 C 0.82674 0.11932 0.30372
 C1924 C 0.81570 0.10289 0.29782
 C1925 C 0.79510 0.10099 0.30319
 C1926 C 0.78580 0.11557 0.31404
 C1927 C 0.79679 0.13184 0.31974
 C1928 C 0.81740 0.13384 0.31488
 C1929 C 0.78404 0.08458 0.29759
 C1930 C 0.79319 0.07007 0.28648
 C1931 C 0.81370 0.07199 0.28086
 C1932 C 0.82488 0.08834 0.28667
 C1933 C 0.82261 0.05759 0.26937
 C1934 C 0.81125 0.04155 0.26336
 C1935 C 0.79088 0.03949 0.26898
 C1936 C 0.78202 0.05378 0.28070
 H1937 H 0.84261 0.12066 0.29991
 H1938 H 0.76998 0.11442 0.31811
 H1939 H 0.78905 0.14299 0.32789
 H1940 H 0.76826 0.08317 0.30179
 H1941 H 0.84064 0.08977 0.28243
 H1942 H 0.83829 0.05881 0.26487
 H1943 H 0.81842 0.03073 0.25433
 H1944 H 0.76625 0.05246 0.28494
 C1945 C 0.66455 0.39020 0.29418
 C1946 C 0.67513 0.40670 0.28782
 C1947 C 0.69644 0.40749 0.28980
 C1948 C 0.70680 0.39173 0.29788
 C1949 C 0.69623 0.37521 0.30376
 C1950 C 0.67499 0.37419 0.30204
 C1951 C 0.70711 0.42387 0.28340
 C1952 C 0.69681 0.43929 0.27455
 C1953 C 0.67553 0.43844 0.27229
 C1954 C 0.66478 0.42227 0.27920
 C1955 C 0.66543 0.45363 0.26280
 C1956 C 0.67635 0.46934 0.25531
 C1957 C 0.69748 0.47034 0.25759
 C1958 C 0.70757 0.45535 0.26747
 H1959 H 0.64818 0.38986 0.29300
 H1960 H 0.72315 0.39203 0.29935
 H1961 H 0.70481 0.36305 0.30931
 H1962 H 0.72346 0.42445 0.28496
 H1963 H 0.64845 0.42162 0.27750
 H1964 H 0.64914 0.45320 0.26087
 H1965 H 0.66828 0.48072 0.24773
 H1966 H 0.72391 0.45584 0.26904
 C1967 C 0.68710 0.87853 0.84994
 C1968 C 0.69332 0.89464 0.83893
 C1969 C 0.67866 0.90652 0.82982
 C1970 C 0.65804 0.90251 0.83247
 C1971 C 0.65198 0.88655 0.84351
 C1972 C 0.66639 0.87412 0.85200
 C1973 C 0.68483 0.92204 0.81801
 C1974 C 0.70550 0.92598 0.81532
 C1975 C 0.72014 0.91448 0.82497
 C1976 C 0.71398 0.89885 0.83660
 C1977 C 0.74076 0.91875 0.82271
 C1978 C 0.74687 0.93411 0.81088
 C1979 C 0.73252 0.94533 0.80081
 C1980 C 0.71180 0.94119 0.80311
 H1981 H 0.69840 0.86906 0.85628
 H1982 H 0.64659 0.91159 0.82582
 H1983 H 0.63592 0.88381 0.84523
 H1984 H 0.67356 0.93095 0.81082
 H1985 H 0.72525 0.88988 0.84373
 H1986 H 0.75219 0.91017 0.83005
 H1987 H 0.76293 0.93700 0.80930
 H1988 H 0.70062 0.94989 0.79555
 C1989 C 0.14859 0.38142 0.82346
 C1990 C 0.15805 0.39741 0.81466
 C1991 C 0.14617 0.41192 0.80568
 C1992 C 0.12500 0.41045 0.80617
 C1993 C 0.11569 0.39456 0.81507
 C1994 C 0.12735 0.37971 0.82354
 C1995 C 0.15563 0.42754 0.79623
 C1996 C 0.17685 0.42895 0.79583
 C1997 C 0.18867 0.41467 0.80529
 C1998 C 0.17922 0.39896 0.81451
 C1999 C 0.20981 0.41629 0.80536
 C2000 C 0.21922 0.43186 0.79612
 C2001 C 0.20773 0.44598 0.78636
 C2002 C 0.18649 0.44442 0.78619
 H2003 H 0.15782 0.37003 0.82971
 H2004 H 0.11562 0.42151 0.79955
 H2005 H 0.09930 0.39386 0.81524
 H2006 H 0.14651 0.43855 0.78917
 H2007 H 0.18834 0.38792 0.82154
 H2008 H 0.21908 0.40552 0.81259
 H2009 H 0.23561 0.43271 0.79638
 H2010 H 0.17751 0.45533 0.77884
 C2011 C 0.19794 0.87939 0.32834
 C2012 C 0.20259 0.89723 0.31962
 C2013 C 0.20614 0.91368 0.33134
 C2014 C 0.20443 0.91210 0.35156
 C2015 C 0.19918 0.89444 0.36011
 C2016 C 0.19603 0.87780 0.34867
 C2017 C 0.21110 0.93147 0.32265
 C2018 C 0.21190 0.93316 0.30234
 C2019 C 0.20771 0.91680 0.29062
 C2020 C 0.20345 0.89890 0.29933
 C2021 C 0.20757 0.91868 0.27035
 C2022 C 0.21143 0.93660 0.26173
 C2023 C 0.21604 0.95281 0.27319
 C2024 C 0.21646 0.95101 0.29351
 H2025 H 0.19594 0.86676 0.31923
 H2026 H 0.20684 0.92461 0.36077
 H2027 H 0.19731 0.89396 0.37572
 H2028 H 0.21401 0.94404 0.33167
 H2029 H 0.20044 0.88635 0.29031
 H2030 H 0.20428 0.90634 0.26116
 H2031 H 0.21114 0.93774 0.24602
 H2032 H 0.21980 0.96357 0.30239
 C2033 C 0.36895 0.31374 0.67077
 C2034 C 0.38671 0.30308 0.67422
 C2035 C 0.38667 0.28281 0.67142
 C2036 C 0.36885 0.27357 0.66529
 C2037 C 0.35115 0.28423 0.66224
 C2038 C 0.35093 0.30442 0.66496
 C2039 C 0.40429 0.27206 0.67514
 C2040 C 0.42182 0.28124 0.68217
 C2041 C 0.42181 0.30151 0.68511
 C2042 C 0.40438 0.31233 0.68082
 C2043 C 0.43908 0.31055 0.69281
 C2044 C 0.45597 0.29957 0.69814
 C2045 C 0.45612 0.27944 0.69537
 C2046 C 0.43913 0.27040 0.68698
 H2047 H 0.36919 0.32931 0.67265
 H2048 H 0.36850 0.25803 0.66318
 H2049 H 0.33750 0.27654 0.65813
 H2050 H 0.40421 0.25650 0.67304
 H2051 H 0.40440 0.32786 0.68312
 H2052 H 0.43933 0.32605 0.69520
 H2053 H 0.46890 0.30681 0.70460
 H2054 H 0.43901 0.25482 0.68509
 C2055 C 0.39921 0.82615 0.18257
 C2056 C 0.41586 0.81703 0.19137
 C2057 C 0.43136 0.82833 0.19992
 C2058 C 0.43030 0.84857 0.19885
 C2059 C 0.41372 0.85754 0.18995
 C2060 C 0.39779 0.84648 0.18205
 C2061 C 0.44748 0.81924 0.20964
 C2062 C 0.44833 0.79896 0.21084
 C2063 C 0.43315 0.78769 0.20171
 C2064 C 0.41700 0.79678 0.19211
 C2065 C 0.43424 0.76745 0.20251
 C2066 C 0.45003 0.75842 0.21253
 C2067 C 0.46488 0.76943 0.22217
 C2068 C 0.46401 0.78975 0.22117
 H2069 H 0.38698 0.81737 0.17680
 H2070 H 0.44215 0.85747 0.20512
 H2071 H 0.41329 0.87320 0.18944
 H2072 H 0.45921 0.82792 0.21646
 H2073 H 0.40520 0.78810 0.18541
 H2074 H 0.42280 0.75860 0.19552
 H2075 H 0.45034 0.74276 0.21311
 H2076 H 0.47550 0.79837 0.22839
 C2077 C 0.86409 0.31456 0.15172
 C2078 C 0.88326 0.30759 0.15701
 C2079 C 0.89765 0.32031 0.16531
 C2080 C 0.89296 0.33997 0.16730
 C2081 C 0.87402 0.34690 0.16152
 C2082 C 0.85918 0.33425 0.15403
 C2083 C 0.91638 0.31315 0.17171
 C2084 C 0.92098 0.29345 0.16967
 C2085 C 0.90698 0.28091 0.16049
 C2086 C 0.88815 0.28803 0.15435
 C2087 C 0.91189 0.26135 0.15795
 C2088 C 0.93016 0.25409 0.16512
 C2089 C 0.94369 0.26621 0.17516
 C2090 C 0.93918 0.28598 0.17708
 H2091 H 0.85287 0.30445 0.14630
 H2092 H 0.90392 0.34999 0.17335
 H2093 H 0.87103 0.36222 0.16296
 H2094 H 0.92724 0.32283 0.17849
 H2095 H 0.87723 0.27831 0.14770
 H2096 H 0.90141 0.25158 0.15078
 H2097 H 0.93331 0.23880 0.16354
 H2098 H 0.94965 0.29545 0.18467
 C2099 C 0.90443 0.81902 0.70581
 C2100 C 0.91925 0.80738 0.71466
 C2101 C 0.92114 0.78777 0.70914
 C2102 C 0.90800 0.78007 0.69512
 C2103 C 0.89304 0.79163 0.68668
 C2104 C 0.89107 0.81125 0.69183
 C2105 C 0.93604 0.77613 0.71780
 C2106 C 0.94889 0.78376 0.73214
 C2107 C 0.94678 0.80328 0.73793
 C2108 C 0.93209 0.81501 0.72904
 C2109 C 0.95939 0.81070 0.75257
 C2110 C 0.97405 0.79896 0.76131
 C2111 C 0.97653 0.77965 0.75540
 C2112 C 0.96382 0.77215 0.74080
 H2113 H 0.90339 0.83416 0.70978
 H2114 H 0.90913 0.76502 0.69085
 H2115 H 0.88275 0.78506 0.67634
 H2116 H 0.93756 0.76112 0.71345
 H2117 H 0.93055 0.83002 0.73341
 H2118 H 0.95793 0.82560 0.75726
 H2119 H 0.98368 0.80509 0.77248
 H2120 H 0.96548 0.75723 0.73622
 C2121 C 0.60228 0.31734 0.30121
 C2122 C 0.58636 0.30876 0.29085
 C2123 C 0.58624 0.30945 0.27032
 C2124 C 0.60208 0.31890 0.26055
 C2125 C 0.61822 0.32698 0.27100
 C2126 C 0.61865 0.32601 0.29143
 C2127 C 0.57058 0.30027 0.25995
 C2128 C 0.55541 0.28995 0.26990
 C2129 C 0.55570 0.28929 0.29047
 C2130 C 0.57094 0.29895 0.30078
 C2131 C 0.54100 0.27857 0.30045
 C2132 C 0.52634 0.26824 0.29021
 C2133 C 0.52584 0.26871 0.26979
 C2134 C 0.54024 0.27985 0.25968
 H2135 H 0.60213 0.31687 0.31696
 H2136 H 0.60229 0.31957 0.24481
 H2137 H 0.63068 0.33342 0.26306
 H2138 H 0.57050 0.30071 0.24419
 H2139 H 0.57115 0.29834 0.31654
 H2140 H 0.54104 0.27792 0.31619
 H2141 H 0.51528 0.25990 0.29831
 H2142 H 0.54001 0.28019 0.24392
 C2143 C 0.61913 0.81428 0.83355
 C2144 C 0.60400 0.80268 0.82521
 C2145 C 0.59061 0.79214 0.83730
 C2146 C 0.59229 0.79379 0.85753
 C2147 C 0.60720 0.80561 0.86572
 C2148 C 0.62093 0.81583 0.85386
 C2149 C 0.57579 0.78015 0.82898
 C2150 C 0.57393 0.77887 0.80871
 C2151 C 0.58699 0.78984 0.79665
 C2152 C 0.60208 0.80149 0.80496
 C2153 C 0.58468 0.78908 0.77642
 C2154 C 0.56952 0.77761 0.76819
 C2155 C 0.55671 0.76640 0.78001
 C2156 C 0.55906 0.76697 0.80028
 H2157 H 0.62975 0.82179 0.82418
 H2158 H 0.58204 0.78597 0.86703
 H2159 H 0.60793 0.80680 0.88140
 H2160 H 0.56564 0.77192 0.83826
 H2161 H 0.61221 0.80973 0.79569
 H2162 H 0.59450 0.79744 0.76697
 H2163 H 0.56797 0.77730 0.75251
 H2164 H 0.54905 0.75850 0.80946
 C2165 C 0.07095 0.30909 0.81556
 C2166 C 0.05467 0.30181 0.80458
 C2167 C 0.04060 0.31479 0.79616
 C2168 C 0.04263 0.33470 0.79937
 C2169 C 0.05873 0.34179 0.81041
 C2170 C 0.07328 0.32916 0.81833
 C2171 C 0.02484 0.30770 0.78448
 C2172 C 0.02284 0.28778 0.78120
 C2173 C 0.03649 0.27471 0.79010
 C2174 C 0.05239 0.28182 0.80166
 C2175 C 0.03405 0.25475 0.78714
 C2176 C 0.01843 0.24784 0.77525
 C2177 C 0.00521 0.26078 0.76590
 C2178 C 0.00745 0.28074 0.76905
 H2179 H 0.08210 0.29917 0.82143
 H2180 H 0.03184 0.34481 0.79321
 H2181 H 0.05986 0.35726 0.81269
 H2182 H 0.01424 0.31771 0.77782
 H2183 H 0.06304 0.27182 0.80825
 H2184 H 0.04428 0.24451 0.79392
 H2185 H 0.01696 0.23238 0.77302
 H2186 H -0.00287 0.29081 0.76209
 C2187 C 0.14285 0.81976 0.33516
 C2188 C 0.13016 0.80613 0.32608
 C2189 C 0.13326 0.78614 0.32933
 C2190 C 0.14940 0.78010 0.34108
 C2191 C 0.16217 0.79371 0.34976
 C2192 C 0.15891 0.81370 0.34720
 C2193 C 0.12020 0.77250 0.32080
 C2194 C 0.10426 0.77858 0.30876
 C2195 C 0.10157 0.79856 0.30501
 C2196 C 0.11438 0.81220 0.31384
 C2197 C 0.08606 0.80460 0.29248
 C2198 C 0.07324 0.79102 0.28384
 C2199 C 0.07542 0.77116 0.28782
 C2200 C 0.09099 0.76502 0.30034
 H2201 H 0.13993 0.83505 0.33312
 H2202 H 0.15218 0.76483 0.34353
 H2203 H 0.17472 0.78850 0.35846
 H2204 H 0.12247 0.75718 0.32351
 H2205 H 0.11211 0.82752 0.31114
 H2206 H 0.08384 0.81983 0.28937
 H2207 H 0.06129 0.79610 0.27431
 H2208 H 0.09288 0.74972 0.30334
 C2209 C 0.64171 0.68543 0.68395
 C2210 C 0.62444 0.69379 0.69222
 C2211 C 0.62180 0.71407 0.69136
 C2212 C 0.63666 0.72564 0.68257
 C2213 C 0.65408 0.71723 0.67479
 C2214 C 0.65678 0.69703 0.67533
 C2215 C 0.60446 0.72246 0.69950
 C2216 C 0.59005 0.71087 0.70896
 C2217 C 0.59292 0.69062 0.71021
 C2218 C 0.60995 0.68218 0.70156
 C2219 C 0.57887 0.67921 0.72039
 C2220 C 0.56225 0.68781 0.72946
 C2221 C 0.55915 0.70785 0.72802
 C2222 C 0.57300 0.71927 0.71758
 H2223 H 0.64332 0.66982 0.68419
 H2224 H 0.63496 0.74123 0.68194
 H2225 H 0.66554 0.72661 0.66860
 H2226 H 0.60237 0.73801 0.69875
 H2227 H 0.61211 0.66663 0.70241
 H2228 H 0.58091 0.66369 0.72158
 H2229 H 0.55172 0.67880 0.73749
 H2230 H 0.57084 0.73481 0.71672
 C2231 C 0.60634 0.16818 0.18335
 C2232 C 0.58972 0.17923 0.18953
 C2233 C 0.58955 0.19942 0.18618
 C2234 C 0.60611 0.20825 0.17704
 C2235 C 0.62283 0.19726 0.17144
 C2236 C 0.62318 0.17709 0.17443
 C2237 C 0.57302 0.21053 0.19233
 C2238 C 0.55692 0.20181 0.20236
 C2239 C 0.55724 0.18167 0.20609
 C2240 C 0.57347 0.17045 0.19935
 C2241 C 0.54151 0.17319 0.21686
 C2242 C 0.52579 0.18459 0.22415
 C2243 C 0.52526 0.20455 0.22032
 C2244 C 0.54074 0.21303 0.20919
 H2245 H 0.60612 0.15265 0.18553
 H2246 H 0.60632 0.22375 0.17455
 H2247 H 0.63567 0.20471 0.16511
 H2248 H 0.57288 0.22602 0.18968
 H2249 H 0.57368 0.15499 0.20213
 H2250 H 0.54156 0.15780 0.21994
 H2251 H 0.51399 0.17780 0.23272
 H2252 H 0.54058 0.22850 0.20645
 C2253 C 0.15419 0.67527 0.18700
 C2254 C 0.13851 0.68538 0.19629
 C2255 C 0.13712 0.70569 0.19418
 C2256 C 0.15168 0.71558 0.18317
 C2257 C 0.16754 0.70549 0.17439
 C2258 C 0.16896 0.68521 0.17605
 C2259 C 0.12135 0.71581 0.20327
 C2260 C 0.10726 0.70594 0.21492
 C2261 C 0.10897 0.68568 0.21744
 C2262 C 0.12437 0.67549 0.20787
 C2263 C 0.09538 0.67595 0.22970
 C2264 C 0.08033 0.68621 0.23952
 C2265 C 0.07828 0.70627 0.23688
 C2266 C 0.09169 0.71605 0.22440
 H2267 H 0.15476 0.65965 0.18826
 H2268 H 0.15099 0.73117 0.18157
 H2269 H 0.17886 0.71370 0.16654
 H2270 H 0.12022 0.73138 0.20152
 H2271 H 0.12556 0.65994 0.20970
 H2272 H 0.09652 0.66046 0.23188
 H2273 H 0.07011 0.67841 0.24905
 H2274 H 0.09034 0.73158 0.22250
 C2275 C 0.08406 0.17612 0.66387
 C2276 C 0.06527 0.18273 0.67083
 C2277 C 0.05100 0.16929 0.67816
 C2278 C 0.05535 0.14948 0.67767
 C2279 C 0.07390 0.14301 0.67050
 C2280 C 0.08868 0.15620 0.66392
 C2281 C 0.03273 0.17584 0.68615
 C2282 C 0.02846 0.19570 0.68686
 C2283 C 0.04232 0.20913 0.67882
 C2284 C 0.06067 0.20258 0.67090
 C2285 C 0.03775 0.22895 0.67923
 C2286 C 0.02001 0.23545 0.68819
 C2287 C 0.00662 0.22227 0.69704
 C2288 C 0.01078 0.20235 0.69596
 H2289 H 0.09524 0.18655 0.65900
 H2290 H 0.04446 0.13896 0.68296
 H2291 H 0.07668 0.12758 0.67019
 H2292 H 0.02199 0.16551 0.69211
 H2293 H 0.07148 0.21292 0.66509
 H2294 H 0.04810 0.23945 0.67301
 H2295 H 0.01718 0.25087 0.68887
 H2296 H 0.00047 0.19204 0.70259
 C2297 C 0.38507 0.68892 0.33155
 C2298 C 0.40313 0.69348 0.32173
 C2299 C 0.41418 0.67870 0.31235
 C2300 C 0.40740 0.65951 0.31360
 C2301 C 0.38962 0.65504 0.32367
 C2302 C 0.37800 0.66968 0.33246
 C2303 C 0.43171 0.68334 0.30176
 C2304 C 0.43849 0.70257 0.30060
 C2305 C 0.42785 0.71725 0.31060
 C2306 C 0.41018 0.71264 0.32097
 C2307 C 0.43494 0.73636 0.30990
 C2308 C 0.45215 0.74101 0.29906
 C2309 C 0.46246 0.72670 0.28848
 C2310 C 0.45562 0.70743 0.28946
 H2311 H 0.37630 0.70048 0.33800
 H2312 H 0.41582 0.64794 0.30674
 H2313 H 0.38498 0.64003 0.32452
 H2314 H 0.43997 0.67201 0.29430
 H2315 H 0.40186 0.72398 0.32835
 H2316 H 0.42705 0.74777 0.31757
 H2317 H 0.45706 0.75598 0.29850
 H2318 H 0.46355 0.69625 0.28148
 C2319 C 0.38841 0.18526 0.80224
 C2320 C 0.40256 0.19592 0.79141
 C2321 C 0.40213 0.21636 0.79187
 C2322 C 0.38716 0.22577 0.80275
 C2323 C 0.37275 0.21504 0.81307
 C2324 C 0.37325 0.19465 0.81308
 C2325 C 0.41656 0.22704 0.78135
 C2326 C 0.43106 0.21750 0.76996
 C2327 C 0.43103 0.19704 0.76904
 C2328 C 0.41700 0.18639 0.78000
 C2329 C 0.44495 0.18754 0.75704
 C2330 C 0.45880 0.19819 0.74603
 C2331 C 0.45930 0.21847 0.74719
 C2332 C 0.44545 0.22808 0.75927
 H2333 H 0.38938 0.16961 0.80231
 H2334 H 0.38645 0.24143 0.80310
 H2335 H 0.36107 0.22278 0.82084
 H2336 H 0.41636 0.24273 0.78187
 H2337 H 0.41716 0.17070 0.77944
 H2338 H 0.44506 0.17189 0.75608
 H2339 H 0.46941 0.19054 0.73683
 H2340 H 0.44563 0.24375 0.76002
 C2341 C 0.91094 0.66502 0.84826
 C2342 C 0.92692 0.67390 0.83822
 C2343 C 0.94025 0.66257 0.82692
 C2344 C 0.93767 0.64244 0.82634
 C2345 C 0.92192 0.63365 0.83667
 C2346 C 0.90824 0.64484 0.84757
 C2347 C 0.95587 0.67154 0.81639
 C2348 C 0.95855 0.69167 0.81735
 C2349 C 0.94555 0.70289 0.82915
 C2350 C 0.92970 0.69397 0.83932
 C2351 C 0.94864 0.72289 0.83066
 C2352 C 0.96443 0.73175 0.82055
 C2353 C 0.97716 0.72085 0.80845
 C2354 C 0.97411 0.70079 0.80682
 H2355 H 0.90037 0.67394 0.85626
 H2356 H 0.94785 0.63348 0.81792
 H2357 H 0.92048 0.61805 0.83614
 H2358 H 0.96596 0.66287 0.80755
 H2359 H 0.91961 0.70264 0.84817
 H2360 H 0.93888 0.73167 0.83971
 H2361 H 0.96651 0.74725 0.82194
 H2362 H 0.98404 0.69230 0.79765
 C2363 C 0.87939 0.17954 0.29021
 C2364 C 0.89294 0.19002 0.27844
 C2365 C 0.89267 0.21049 0.27879
 C2366 C 0.87851 0.22012 0.29038
 C2367 C 0.86498 0.20962 0.30185
 C2368 C 0.86547 0.18925 0.30221
 C2369 C 0.90662 0.22105 0.26765
 C2370 C 0.92074 0.21143 0.25596
 C2371 C 0.92068 0.19097 0.25514
 C2372 C 0.90686 0.18039 0.26648
 C2373 C 0.93450 0.18147 0.24300
 C2374 C 0.94838 0.19211 0.23195
 C2375 C 0.94889 0.21241 0.23307
 C2376 C 0.93496 0.22198 0.24509
 H2377 H 0.88001 0.16386 0.29036
 H2378 H 0.87792 0.23579 0.29061
 H2379 H 0.85406 0.21752 0.31046
 H2380 H 0.90653 0.23674 0.26812
 H2381 H 0.90698 0.16469 0.26603
 H2382 H 0.93462 0.16581 0.24210
 H2383 H 0.95898 0.18444 0.22278
 H2384 H 0.93508 0.23765 0.24587
 C2385 C 0.29242 0.30879 0.61083
 C2386 C 0.27878 0.30287 0.59631
 C2387 C 0.25768 0.30386 0.59968
 C2388 C 0.25062 0.31064 0.61763
 C2389 C 0.26430 0.31615 0.63215
 C2390 C 0.28536 0.31530 0.62897
 C2391 C 0.24403 0.29780 0.58520
 C2392 C 0.25124 0.29025 0.56758
 C2393 C 0.27239 0.28906 0.56438
 C2394 C 0.28598 0.29564 0.57861
 C2395 C 0.27967 0.28090 0.54715
 C2396 C 0.26620 0.27357 0.53337
 C2397 C 0.24517 0.27469 0.53629
 C2398 C 0.23771 0.28337 0.55329
 H2399 H 0.30855 0.30833 0.60795
 H2400 H 0.23451 0.31139 0.62055
 H2401 H 0.25833 0.32074 0.64604
 H2402 H 0.22784 0.29858 0.58780
 H2403 H 0.30217 0.29472 0.57607
 H2404 H 0.29582 0.27984 0.54449
 H2405 H 0.27222 0.26700 0.52032
 H2406 H 0.22150 0.28406 0.55571
 C2407 C 0.34707 0.84288 0.11881
 C2408 C 0.33529 0.83630 0.10310
 C2409 C 0.31407 0.83425 0.10532
 C2410 C 0.30506 0.83835 0.12324
 C2411 C 0.31685 0.84480 0.13875
 C2412 C 0.33787 0.84745 0.13664
 C2413 C 0.30216 0.82807 0.08966
 C2414 C 0.31118 0.82346 0.07186
 C2415 C 0.33243 0.82512 0.06965
 C2416 C 0.34433 0.83179 0.08521
 C2417 C 0.34142 0.81961 0.05205
 C2418 C 0.32956 0.81193 0.03705
 C2419 C 0.30847 0.81030 0.03919
 C2420 C 0.29932 0.81649 0.05647
 H2421 H 0.36325 0.84494 0.11703
 H2422 H 0.28887 0.83666 0.12524
 H2423 H 0.30946 0.84785 0.15245
 H2424 H 0.28589 0.82656 0.09141
 H2425 H 0.36060 0.83317 0.08350
 H2426 H 0.35768 0.82068 0.05010
 H2427 H 0.33686 0.80701 0.02387
 H2428 H 0.28310 0.81478 0.05834
 C2429 C 0.80621 0.32161 0.09710
 C2430 C 0.79562 0.31021 0.08363
 C2431 C 0.77435 0.30843 0.08501
 C2432 C 0.76411 0.31788 0.10009
 C2433 C 0.77489 0.32842 0.11405
 C2434 C 0.79613 0.33030 0.11290
 C2435 C 0.76377 0.29686 0.07162
 C2436 C 0.77433 0.28638 0.05741
 C2437 C 0.79571 0.28773 0.05646
 C2438 C 0.80615 0.29999 0.06925
 C2439 C 0.80636 0.27653 0.04295
 C2440 C 0.79598 0.26401 0.03051
 C2441 C 0.77475 0.26289 0.03099
 C2442 C 0.76395 0.27423 0.04436
 H2443 H 0.82242 0.32332 0.09541
 H2444 H 0.74781 0.31657 0.10148
 H2445 H 0.76656 0.33452 0.12609
 H2446 H 0.74741 0.29562 0.07258
 H2447 H 0.82252 0.30110 0.06840
 H2448 H 0.82274 0.27730 0.04212
 H2449 H 0.80452 0.25546 0.02021
 H2450 H 0.74756 0.27326 0.04489
 C2451 C 0.82752 0.83122 0.62794
 C2452 C 0.82192 0.82738 0.60860
 C2453 C 0.83655 0.82056 0.59530
 C2454 C 0.85674 0.81876 0.60129
 C2455 C 0.86232 0.82315 0.62039
 C2456 C 0.84775 0.82894 0.63416
 C2457 C 0.83071 0.81548 0.57632
 C2458 C 0.81046 0.81749 0.57036
 C2459 C 0.79609 0.82534 0.58338
 C2460 C 0.80185 0.83003 0.60244
 C2461 C 0.77606 0.82805 0.57724
 C2462 C 0.77009 0.82239 0.55864
 C2463 C 0.78392 0.81362 0.54588
 C2464 C 0.80422 0.81146 0.55174
 H2465 H 0.81591 0.83543 0.63818
 H2466 H 0.86826 0.81392 0.59120
 H2467 H 0.87815 0.82192 0.62431
 H2468 H 0.84186 0.80979 0.56629
 H2469 H 0.79067 0.83559 0.61253
 H2470 H 0.76490 0.83421 0.58696
 H2471 H 0.75434 0.82413 0.55454
 H2472 H 0.81504 0.80481 0.54198
 C2473 C 0.33705 0.68823 0.39907
 C2474 C 0.32874 0.69811 0.41504
 C2475 C 0.30778 0.70237 0.41529
 C2476 C 0.29560 0.69723 0.39946
 C2477 C 0.30396 0.68755 0.38366
 C2478 C 0.32463 0.68261 0.38341
 C2479 C 0.29922 0.71163 0.43138
 C2480 C 0.31136 0.71694 0.44721
 C2481 C 0.33241 0.71316 0.44687
 C2482 C 0.34096 0.70363 0.43083
 C2483 C 0.34452 0.71909 0.46256
 C2484 C 0.33585 0.72871 0.47837
 C2485 C 0.31489 0.73220 0.47892
 C2486 C 0.30273 0.72617 0.46331
 H2487 H 0.35299 0.68448 0.39907
 H2488 H 0.27957 0.70060 0.39933
 H2489 H 0.29415 0.68382 0.37159
 H2490 H 0.28311 0.71472 0.43158
 H2491 H 0.35707 0.70054 0.43064
 H2492 H 0.36069 0.71641 0.46254
 H2493 H 0.34551 0.73330 0.49025
 H2494 H 0.28659 0.72909 0.46348
 C2495 C 0.30696 0.18466 0.87532
 C2496 C 0.29839 0.19359 0.89168
 C2497 C 0.31069 0.20501 0.90401
 C2498 C 0.33146 0.20676 0.90016
 C2499 C 0.33987 0.19778 0.88391
 C2500 C 0.32769 0.18696 0.87110
 C2501 C 0.30202 0.21476 0.91979
 C2502 C 0.28117 0.21320 0.92345
 C2503 C 0.26897 0.20129 0.91150
 C2504 C 0.27764 0.19159 0.89566
 C2505 C 0.24821 0.19947 0.91545
 C2506 C 0.23954 0.20965 0.93086
 C2507 C 0.25141 0.22199 0.94246
 C2508 C 0.27229 0.22356 0.93876
 H2509 H 0.29733 0.17650 0.86552
 H2510 H 0.34116 0.21527 0.90958
 H2511 H 0.35596 0.19943 0.88129
 H2512 H 0.31143 0.22375 0.92906
 H2513 H 0.26820 0.18270 0.88632
 H2514 H 0.23865 0.19033 0.90651
 H2515 H 0.22342 0.20820 0.93342
 H2516 H 0.28163 0.23288 0.94775
 C2517 C 0.83744 0.64741 0.90457
 C2518 C 0.82999 0.65827 0.92026
 C2519 C 0.84367 0.66599 0.93408
 C2520 C 0.86441 0.66204 0.93245
 C2521 C 0.87168 0.65122 0.91684
 C2522 C 0.85838 0.64420 0.90247
 C2523 C 0.83648 0.67786 0.94907
 C2524 C 0.81576 0.68210 0.95047
 C2525 C 0.80196 0.67381 0.93710
 C2526 C 0.80917 0.66200 0.92204
 C2527 C 0.78119 0.67771 0.93889
 C2528 C 0.77420 0.68998 0.95355
 C2529 C 0.78787 0.69881 0.96647
 C2530 C 0.80865 0.69468 0.96492
 H2531 H 0.82701 0.64222 0.89355
 H2532 H 0.87507 0.66763 0.94304
 H2533 H 0.88782 0.64862 0.91582
 H2534 H 0.84705 0.68404 0.95945
 H2535 H 0.79862 0.65594 0.91157
 H2536 H 0.77038 0.67139 0.92886
 H2537 H 0.75812 0.69294 0.95449
 H2538 H 0.81927 0.70122 0.97500
 C2539 C 0.80654 0.18387 0.37045
 C2540 C 0.79951 0.19328 0.38711
 C2541 C 0.81295 0.20459 0.39839
 C2542 C 0.83342 0.20578 0.39301
 C2543 C 0.84039 0.19615 0.37643
 C2544 C 0.82698 0.18524 0.36486
 C2545 C 0.80563 0.21464 0.41466
 C2546 C 0.78506 0.21334 0.41981
 C2547 C 0.77185 0.20154 0.40873
 C2548 C 0.77912 0.19170 0.39244
 C2549 C 0.75146 0.19986 0.41400
 C2550 C 0.74406 0.20997 0.42995
 C2551 C 0.75682 0.22213 0.44086
 C2552 C 0.77740 0.22372 0.43576
 H2553 H 0.79586 0.17594 0.36150
 H2554 H 0.84401 0.21425 0.40154
 H2555 H 0.85627 0.19728 0.37266
 H2556 H 0.81585 0.22353 0.42320
 H2557 H 0.76888 0.18287 0.38384
 H2558 H 0.74119 0.19082 0.40570
 H2559 H 0.72814 0.20855 0.43352
 H2560 H 0.78739 0.23296 0.44416
 C2561 C 0.67523 0.32454 0.36309
 C2562 C 0.68155 0.31299 0.37882
 C2563 C 0.68014 0.29260 0.37752
 C2564 C 0.67295 0.28410 0.36039
 C2565 C 0.66702 0.29564 0.34473
 C2566 C 0.66780 0.31598 0.34593
 C2567 C 0.68609 0.28101 0.39328
 C2568 C 0.69392 0.28950 0.41020
 C2569 C 0.69580 0.30988 0.41135
 C2570 C 0.68933 0.32150 0.39577
 C2571 C 0.70445 0.31827 0.42796
 C2572 C 0.71149 0.30659 0.44312
 C2573 C 0.70946 0.28638 0.44219
 C2574 C 0.70039 0.27791 0.42580
 H2575 H 0.67581 0.34016 0.36435
 H2576 H 0.67201 0.26850 0.35905
 H2577 H 0.66191 0.28857 0.33157
 H2578 H 0.68488 0.26538 0.39228
 H2579 H 0.69064 0.33713 0.39674
 H2580 H 0.70611 0.33384 0.42906
 H2581 H 0.71850 0.31334 0.45564
 H2582 H 0.69913 0.26228 0.42489
 C2583 C 0.69420 0.82193 0.90655
 C2584 C 0.70294 0.81167 0.92214
 C2585 C 0.69036 0.80418 0.93702
 C2586 C 0.66949 0.80771 0.93655
 C2587 C 0.66093 0.81767 0.92095
 C2588 C 0.67307 0.82440 0.90558
 C2589 C 0.69867 0.79273 0.95182
 C2590 C 0.71941 0.78850 0.95193
 C2591 C 0.73221 0.79653 0.93755
 C2592 C 0.72390 0.80811 0.92273
 C2593 C 0.75306 0.79252 0.93808
 C2594 C 0.76103 0.78032 0.95246
 C2595 C 0.74823 0.77173 0.96632
 C2596 C 0.72746 0.77607 0.96607
 H2597 H 0.70363 0.82701 0.89470
 H2598 H 0.65968 0.80223 0.94793
 H2599 H 0.64465 0.81963 0.92057
 H2600 H 0.68891 0.78671 0.96299
 H2601 H 0.73363 0.81394 0.91145
 H2602 H 0.76315 0.79864 0.92728
 H2603 H 0.77711 0.77723 0.95245
 H2604 H 0.71754 0.76974 0.97692
 C2605 C 0.14618 0.32451 0.87487
 C2606 C 0.15470 0.31439 0.89060
 C2607 C 0.14198 0.30433 0.90371
 C2608 C 0.12092 0.30494 0.90106
 C2609 C 0.11254 0.31526 0.88551
 C2610 C 0.12504 0.32505 0.87213
 C2611 C 0.15052 0.29386 0.91921
 C2612 C 0.17162 0.29356 0.92193
 C2613 C 0.18426 0.30400 0.90902
 C2614 C 0.17575 0.31418 0.89337
 C2615 C 0.20526 0.30415 0.91199
 C2616 C 0.21372 0.29408 0.92760
 C2617 C 0.20142 0.28339 0.94038
 C2618 C 0.18032 0.28312 0.93742
 H2619 H 0.15611 0.33168 0.86457
 H2620 H 0.11091 0.29746 0.91106
 H2621 H 0.09621 0.31568 0.88406
 H2622 H 0.14076 0.28602 0.92918
 H2623 H 0.18551 0.32203 0.88340
 H2624 H 0.21515 0.31212 0.90227
 H2625 H 0.23001 0.29445 0.92952
 H2626 H 0.17068 0.27505 0.94730
 C2627 C 0.22071 0.83378 0.40996
 C2628 C 0.22805 0.82719 0.42797
 C2629 C 0.21435 0.81924 0.44165
 C2630 C 0.19360 0.81860 0.43743
 C2631 C 0.18650 0.82492 0.41944
 C2632 C 0.19998 0.83216 0.40540
 C2633 C 0.22164 0.81134 0.45902
 C2634 C 0.24250 0.81075 0.46270
 C2635 C 0.25625 0.81925 0.44946
 C2636 C 0.24890 0.82765 0.43222
 C2637 C 0.27715 0.81844 0.45337
 C2638 C 0.28435 0.80827 0.46962
 C2639 C 0.27072 0.79886 0.48214
 C2640 C 0.24981 0.80083 0.47897
 H2641 H 0.23121 0.83928 0.39916
 H2642 H 0.18293 0.81269 0.44784
 H2643 H 0.17044 0.82389 0.41634
 H2644 H 0.21114 0.80486 0.46928
 H2645 H 0.25943 0.83381 0.42181
 H2646 H 0.28793 0.82500 0.44348
 H2647 H 0.30054 0.80694 0.47183
 H2648 H 0.23917 0.79381 0.48873
 C2649 C 0.70066 0.70548 0.61042
 C2650 C 0.71073 0.71513 0.59527
 C2651 C 0.73203 0.71374 0.59373
 C2652 C 0.74290 0.70291 0.60742
 C2653 C 0.73285 0.69387 0.62280
 C2654 C 0.71163 0.69505 0.62457
 C2655 C 0.74220 0.72351 0.57877
 C2656 C 0.73141 0.73515 0.56566
 C2657 C 0.71013 0.73682 0.56734
 C2658 C 0.69988 0.72655 0.58196
 C2659 C 0.69954 0.74902 0.55457
 C2660 C 0.70995 0.75960 0.54039
 C2661 C 0.73106 0.75785 0.53850
 C2662 C 0.74166 0.74546 0.55111
 H2663 H 0.68429 0.70628 0.61124
 H2664 H 0.75925 0.70182 0.60653
 H2665 H 0.74185 0.68640 0.63360
 H2666 H 0.75855 0.72238 0.57758
 H2667 H 0.68355 0.72780 0.58324
 H2668 H 0.68324 0.75055 0.55569
 H2669 H 0.70148 0.76904 0.53078
 H2670 H 0.75798 0.74418 0.54991
 C2671 C 0.67374 0.17345 0.11312
 C2672 C 0.68564 0.17949 0.09733
 C2673 C 0.70699 0.17825 0.09850
 C2674 C 0.71608 0.17129 0.11553
 C2675 C 0.70417 0.16568 0.13131
 C2676 C 0.68288 0.16657 0.13029
 C2677 C 0.71894 0.18420 0.08275
 C2678 C 0.70985 0.19186 0.06600
 C2679 C 0.68850 0.19342 0.06493
 C2680 C 0.67652 0.18698 0.08049
 C2681 C 0.67952 0.20172 0.04843
 C2682 C 0.69157 0.20868 0.03327
 C2683 C 0.71277 0.20705 0.03415
 C2684 C 0.72180 0.19839 0.05047
 H2685 H 0.65737 0.17402 0.11198
 H2686 H 0.73243 0.17042 0.11675
 H2687 H 0.71170 0.16089 0.14445
 H2688 H 0.73532 0.18318 0.08366
 H2689 H 0.66015 0.18811 0.07963
 H2690 H 0.66320 0.20310 0.04738
 H2691 H 0.68432 0.21531 0.02079
 H2692 H 0.73817 0.19733 0.05135
 C2693 C 0.22253 0.70028 0.12091
 C2694 C 0.23129 0.70854 0.10432
 C2695 C 0.23849 0.69653 0.08924
 C2696 C 0.23670 0.67636 0.09109
 C2697 C 0.22767 0.66822 0.10761
 C2698 C 0.22042 0.68010 0.12266
 C2699 C 0.24712 0.70489 0.07254
 C2700 C 0.24818 0.72513 0.07059
 C2701 C 0.24076 0.73704 0.08571
 C2702 C 0.23264 0.72868 0.10254
 C2703 C 0.24118 0.75719 0.08364
 C2704 C 0.24844 0.76554 0.06657
 C2705 C 0.25583 0.75394 0.05144
 C2706 C 0.25604 0.73371 0.05362
 H2707 H 0.21743 0.70962 0.13255
 H2708 H 0.24206 0.66689 0.07967
 H2709 H 0.22610 0.65264 0.10847
 H2710 H 0.25265 0.69570 0.06094
 H2711 H 0.22699 0.73788 0.11408
 H2712 H 0.23555 0.76650 0.09508
 H2713 H 0.24830 0.78117 0.06518
 H2714 H 0.26158 0.72472 0.04188
 C2715 C 0.14089 0.17035 0.60508
 C2716 C 0.15236 0.18020 0.59097
 C2717 C 0.17375 0.18008 0.59209
 C2718 C 0.18330 0.17051 0.60751
 C2719 C 0.17181 0.16120 0.62176
 C2720 C 0.15048 0.16080 0.62069
 C2721 C 0.18528 0.18976 0.57794
 C2722 C 0.17567 0.20008 0.56299
 C2723 C 0.15425 0.20062 0.56215
 C2724 C 0.14274 0.19042 0.57593
 C2725 C 0.14467 0.21162 0.54769
 C2726 C 0.15618 0.22218 0.53434
 C2727 C 0.17744 0.22152 0.53488
 C2728 C 0.18714 0.21025 0.54911
 H2729 H 0.12453 0.17008 0.60381
 H2730 H 0.19968 0.17047 0.60874
 H2731 H 0.17974 0.15455 0.63382
 H2732 H 0.20169 0.18954 0.57878
 H2733 H 0.12632 0.19074 0.57517
 H2734 H 0.12829 0.21228 0.54686
 H2735 H 0.14845 0.23075 0.52342
 H2736 H 0.20355 0.20990 0.54972
   
