data_POSCAR
  _audit_creation_date              2014-09-24
  _audit_creation_method            'ToBaCCo'
  _symmetry_space_group_name_H-M    'P1'
  _symmetry_Int_Tables_number       1
  _symmetry_cell_setting            triclinic
  loop_
  _symmetry_equiv_pos_as_xyz
 x,y,z
_cell_length_a 73.1983
_cell_length_b 73.9457
_cell_length_c 77.0466
_cell_angle_alpha 90.673800
_cell_angle_beta 90.826000
_cell_angle_gamma 89.480100
loop_
  _atom_site_label
  _atom_site_type_symbol
  _atom_site_fract_x
  _atom_site_fract_y
  _atom_site_fract_z
C1 C 0.41882 0.01058 0.26919
 H2 H 0.42001 0.02123 0.25978
 C3 C 0.42956 0.01099 0.28441
 H4 H 0.43886 0.02210 0.28666
 C5 C 0.40476 -0.01644 0.27802
 H6 H 0.39485 -0.02693 0.27583
 C7 C 0.41522 -0.01661 0.29326
 H8 H 0.41348 -0.02759 0.30224
 N9 N 0.40688 -0.00315 0.26617
 C10 C 0.39801 -0.00741 0.21011
 H11 H 0.38328 -0.00845 0.20999
 C12 C 0.40751 -0.00852 0.19457
 H13 H 0.39995 -0.01031 0.18250
 C14 C 0.42567 -0.00366 0.22606
 H15 H 0.43272 -0.00201 0.23837
 C16 C 0.43573 -0.00454 0.21074
 H17 H 0.45048 -0.00359 0.21141
 Zn18 Zn 0.39233 -0.00373 0.24544
 N19 N 0.40712 -0.00494 0.22543
 C20 C 0.38017 0.02992 0.23190
 N21 N 0.37767 0.01772 0.24472
 C22 C 0.36542 0.02099 0.25751
 C23 C 0.35484 0.03686 0.25751
 C24 C 0.37003 0.04602 0.23150
 C25 C 0.38682 -0.04109 0.24521
 C26 C 0.37741 -0.05734 0.24650
 C27 C 0.34911 -0.04039 0.24622
 C28 C 0.35918 -0.02442 0.24527
 N29 N 0.37772 -0.02501 0.24521
 H30 H 0.39031 0.02739 0.22210
 H31 H 0.36384 0.01124 0.26773
 H32 H 0.34494 0.03894 0.26765
 H33 H 0.37264 0.05566 0.22138
 H34 H 0.40159 -0.04124 0.24464
 H35 H 0.38550 -0.06963 0.24610
 H36 H 0.33447 -0.03888 0.24719
 H37 H 0.35210 -0.01155 0.24491
 C38 C 0.42662 -0.00708 0.19475
 C39 C 0.42780 -0.00276 0.29671
 C40 C 0.35807 -0.05746 0.24732
 C41 C 0.35711 0.04973 0.24441
 C42 C 0.08154 0.01399 0.73142
 H43 H 0.08033 0.02498 0.74073
 C44 C 0.07093 0.01414 0.71612
 H45 H 0.06169 0.02537 0.71371
 C46 C 0.09550 -0.01366 0.72293
 H47 H 0.10525 -0.02439 0.72535
 C48 C 0.08520 -0.01407 0.70758
 H49 H 0.08694 -0.02538 0.69870
 N50 N 0.09340 0.00009 0.73464
 C51 C 0.10157 -0.00419 0.79082
 H52 H 0.11620 -0.00646 0.79108
 C53 C 0.09202 -0.00317 0.80634
 H54 H 0.09940 -0.00504 0.81848
 C55 C 0.07436 0.00113 0.77461
 H56 H 0.06754 0.00297 0.76223
 C57 C 0.06425 0.00233 0.78987
 H58 H 0.04976 0.00529 0.78902
 Zn59 Zn 0.10780 -0.00019 0.75552
 N60 N 0.09277 -0.00156 0.77539
 C61 C 0.11854 0.03317 0.77075
 N62 N 0.12152 0.02168 0.75712
 C63 C 0.13362 0.02590 0.74458
 C64 C 0.14373 0.04188 0.74582
 C65 C 0.12822 0.04929 0.77243
 C66 C 0.11510 -0.03743 0.75603
 C67 C 0.12521 -0.05342 0.75407
 C68 C 0.15253 -0.03563 0.75175
 C69 C 0.14185 -0.01993 0.75368
 N70 N 0.12340 -0.02107 0.75528
 H71 H 0.10847 0.03002 0.78032
 H72 H 0.13552 0.01678 0.73367
 H73 H 0.15359 0.04472 0.73591
 H74 H 0.12533 0.05825 0.78327
 H75 H 0.10045 -0.03801 0.75756
 H76 H 0.11824 -0.06626 0.75439
 H77 H 0.16709 -0.03440 0.74986
 H78 H 0.14832 -0.00688 0.75346
 C79 C 0.07317 0.00062 0.80606
 C80 C 0.07273 -0.00004 0.70392
 C81 C 0.14415 -0.05267 0.75154
 C82 C 0.14116 0.05383 0.75996
 C83 C 0.57103 0.50157 0.23163
 H84 H 0.56402 0.50105 0.24386
 C85 C 0.56093 0.50257 0.21607
 H86 H 0.54615 0.50307 0.21642
 C87 C 0.59878 0.50144 0.21614
 H88 H 0.61355 0.50085 0.21629
 C89 C 0.58928 0.50266 0.20040
 H90 H 0.59684 0.50297 0.18842
 N91 N 0.58963 0.50132 0.23136
 C92 C 0.59208 0.48528 0.28320
 H93 H 0.60093 0.47398 0.28005
 C94 C 0.58327 0.48576 0.29916
 H95 H 0.58518 0.47458 0.30797
 C96 C 0.57942 0.51384 0.27591
 H97 H 0.57839 0.52495 0.26692
 C98 C 0.57032 0.51486 0.29174
 H99 H 0.56235 0.52683 0.29485
 Zn100 Zn 0.60450 0.50007 0.25169
 N101 N 0.59018 0.49929 0.27202
 C102 C 0.63079 0.52285 0.26763
 N103 N 0.61931 0.52110 0.25367
 C104 C 0.61743 0.53460 0.24191
 C105 C 0.62755 0.55044 0.24376
 C106 C 0.64114 0.53854 0.27003
 C107 C 0.60986 0.46296 0.24658
 C108 C 0.61939 0.44679 0.24366
 C109 C 0.64768 0.46318 0.24635
 C110 C 0.63758 0.47910 0.24921
 N111 N 0.61900 0.47869 0.24934
 H112 H 0.63180 0.51208 0.27699
 H113 H 0.60780 0.53334 0.23124
 H114 H 0.62561 0.56109 0.23437
 H115 H 0.65031 0.53961 0.28113
 H116 H 0.59508 0.46304 0.24653
 H117 H 0.61179 0.43442 0.24169
 H118 H 0.66244 0.46383 0.24603
 H119 H 0.64462 0.49178 0.25100
 C120 C 0.57250 0.50085 0.30377
 C121 C 0.57012 0.50343 0.20023
 C122 C 0.63858 0.44673 0.24343
 C123 C 0.63962 0.55261 0.25796
 C124 C 0.90332 0.51715 0.78006
 H125 H 0.89418 0.52806 0.77648
 C126 C 0.91324 0.51838 0.79560
 H127 H 0.91188 0.53079 0.80303
 C128 C 0.91641 0.48851 0.77392
 H129 H 0.91734 0.47677 0.76545
 C130 C 0.92655 0.48908 0.78947
 H131 H 0.93478 0.47735 0.79268
 N132 N 0.90500 0.50238 0.76957
 C133 C 0.89638 0.50125 0.71345
 H134 H 0.88162 0.50063 0.71295
 C135 C 0.90617 0.50238 0.69811
 H136 H 0.89881 0.50261 0.68583
 C137 C 0.92377 0.50234 0.73019
 H138 H 0.93053 0.50255 0.74274
 C139 C 0.93413 0.50361 0.71511
 H140 H 0.94886 0.50444 0.71619
 Zn141 Zn 0.89040 0.50053 0.74906
 N142 N 0.90524 0.50103 0.72907
 C143 C 0.88220 0.53705 0.74419
 N144 N 0.87432 0.52087 0.74746
 C145 C 0.85589 0.51951 0.74903
 C146 C 0.84471 0.53494 0.74781
 C147 C 0.87156 0.55275 0.74281
 C148 C 0.87918 0.46572 0.73715
 C149 C 0.86988 0.44933 0.73782
 C150 C 0.85713 0.45882 0.76520
 C151 C 0.86663 0.47512 0.76396
 N152 N 0.87723 0.47837 0.74997
 H153 H 0.89686 0.53775 0.74282
 H154 H 0.84980 0.50650 0.75126
 H155 H 0.83008 0.53360 0.74912
 H156 H 0.87823 0.56552 0.74061
 H157 H 0.88807 0.46821 0.72639
 H158 H 0.87172 0.43947 0.72748
 H159 H 0.84853 0.45663 0.77628
 H160 H 0.86554 0.48523 0.77417
 C161 C 0.92532 0.50352 0.69879
 C162 C 0.92493 0.50408 0.80092
 C163 C 0.85857 0.44572 0.75193
 C164 C 0.85255 0.55188 0.74473
 C165 C 0.22980 0.38377 0.98255
 H166 H 0.24005 0.38263 0.97261
 C167 C 0.21401 0.39415 0.97956
 H168 H 0.21236 0.40121 0.96740
 C169 C 0.21944 0.37577 1.01038
 H170 H 0.22137 0.36827 1.02222
 C171 C 0.20353 0.38609 1.00799
 H172 H 0.19341 0.38644 1.01811
 N173 N 0.23226 0.37487 0.99778
 C174 C 0.29084 0.36473 1.00506
 H175 H 0.29059 0.35025 1.00687
 C176 C 0.30728 0.37404 1.00690
 H177 H 0.31970 0.36656 1.00987
 C178 C 0.27485 0.39199 0.99902
 H179 H 0.26213 0.39898 0.99627
 C180 C 0.29105 0.40183 1.00062
 H181 H 0.29062 0.41636 0.99905
 Zn182 Zn 0.25335 0.35980 1.00028
 N183 N 0.27505 0.37375 1.00116
 C184 C 0.26772 0.34430 0.96957
 N185 N 0.25358 0.34387 0.98080
 C186 C 0.23855 0.33367 0.97734
 C187 C 0.23710 0.32378 0.96178
 C188 C 0.26683 0.33468 0.95391
 C189 C 0.25455 0.35709 1.03612
 C190 C 0.25531 0.34891 1.05231
 C191 C 0.25258 0.31978 1.03804
 C192 C 0.25190 0.32857 1.02203
 N193 N 0.25275 0.34693 1.02140
 H194 H 0.27942 0.35269 0.97239
 H195 H 0.22735 0.33382 0.98635
 H196 H 0.22471 0.31636 0.95890
 H197 H 0.27806 0.33553 0.94496
 H198 H 0.25562 0.37164 1.03521
 H199 H 0.25705 0.35732 1.06380
 H200 H 0.25165 0.30518 1.03834
 H201 H 0.25085 0.32071 1.01015
 C202 C 0.30755 0.39286 1.00470
 C203 C 0.20060 0.39543 0.99240
 C204 C 0.25426 0.32999 1.05348
 C205 C 0.25117 0.32461 0.94964
 C206 C 0.76789 0.10915 0.99735
 H207 H 0.75489 0.10245 0.99818
 C208 C 0.78397 0.09881 0.99702
 H209 H 0.78269 0.08426 0.99729
 C210 C 0.78471 0.13609 0.99475
 H211 H 0.78485 0.15069 0.99393
 C212 C 0.80112 0.12630 0.99415
 H213 H 0.81366 0.13386 0.99344
 N214 N 0.76853 0.12746 0.99641
 C215 C 0.71405 0.12716 0.98171
 H216 H 0.71679 0.13560 0.97071
 C217 C 0.69830 0.11658 0.98166
 H218 H 0.68909 0.11703 0.97056
 C219 C 0.72229 0.11689 1.00977
 H220 H 0.73168 0.11720 1.02074
 C221 C 0.70668 0.10615 1.01029
 H222 H 0.70435 0.09800 1.02161
 Zn223 Zn 0.74686 0.14188 0.99634
 N224 N 0.72576 0.12702 0.99558
 C225 C 0.75117 0.14823 0.96115
 N226 N 0.74775 0.15678 0.97648
 C227 C 0.74622 0.17512 0.97747
 C228 C 0.74781 0.18557 0.96253
 C229 C 0.75304 0.15812 0.94598
 C230 C 0.75880 0.15418 1.02949
 C231 C 0.75688 0.16276 1.04560
 C232 C 0.72801 0.17527 1.03572
 C233 C 0.73042 0.16633 1.01980
 N234 N 0.74557 0.15595 1.01703
 H235 H 0.75271 0.13367 0.96079
 H236 H 0.74385 0.18172 0.98983
 H237 H 0.74622 0.20010 0.96354
 H238 H 0.75617 0.15095 0.93405
 H239 H 0.77058 0.14563 1.02719
 H240 H 0.76741 0.16094 1.05546
 H241 H 0.71562 0.18303 1.03790
 H242 H 0.71993 0.16721 1.00980
 C243 C 0.69444 0.10585 0.99608
 C244 C 0.80112 0.10725 0.99540
 C245 C 0.74119 0.17321 1.04898
 C246 C 0.75126 0.17707 0.94647
 C247 C 0.26708 0.61643 0.48976
 H248 H 0.25707 0.61588 0.47930
 C249 C 0.28296 0.60581 0.48885
 H250 H 0.28493 0.59689 0.47778
 C251 C 0.27674 0.62895 0.51676
 H252 H 0.27455 0.63833 0.52739
 C253 C 0.29273 0.61846 0.51645
 H254 H 0.30262 0.61984 0.52696
 N255 N 0.26425 0.62771 0.50356
 C256 C 0.20531 0.63855 0.50190
 H257 H 0.20544 0.65310 0.50061
 C258 C 0.18867 0.62948 0.50238
 H259 H 0.17602 0.63713 0.50137
 C260 C 0.22167 0.61097 0.50508
 H261 H 0.23457 0.60384 0.50629
 C262 C 0.20529 0.60137 0.50592
 H263 H 0.20571 0.58683 0.50747
 Zn264 Zn 0.24323 0.64301 0.50273
 N265 N 0.22138 0.62922 0.50295
 C266 C 0.23231 0.65386 0.46882
 N267 N 0.24482 0.65634 0.48184
 C268 C 0.25972 0.66690 0.47959
 C269 C 0.26259 0.67530 0.46368
 C270 C 0.23468 0.66194 0.45273
 C271 C 0.24073 0.65045 0.53811
 C272 C 0.23903 0.66078 0.55328
 C273 C 0.24063 0.68783 0.53613
 C274 C 0.24237 0.67694 0.52124
 N275 N 0.24245 0.65859 0.52250
 H276 H 0.22081 0.64508 0.47063
 H277 H 0.26968 0.66834 0.49001
 H278 H 0.27482 0.68317 0.46197
 H279 H 0.22468 0.65959 0.44248
 H280 H 0.24059 0.63584 0.53873
 H281 H 0.23796 0.65393 0.56556
 H282 H 0.24027 0.70239 0.53484
 H283 H 0.24328 0.68317 0.50867
 C284 C 0.18851 0.61064 0.50440
 C285 C 0.29607 0.60676 0.50232
 C286 C 0.23882 0.67975 0.55245
 C287 C 0.25015 0.67257 0.44988
 C288 C 0.72551 0.88348 0.48236
 H289 H 0.73539 0.88144 0.47220
 C290 C 0.71015 0.89445 0.47941
 H291 H 0.70843 0.90103 0.46701
 C292 C 0.71569 0.87714 0.51080
 H293 H 0.71766 0.87005 0.52286
 C294 C 0.70022 0.88812 0.50846
 H295 H 0.69044 0.88939 0.51882
 N296 N 0.72800 0.87508 0.49784
 C297 C 0.78638 0.86258 0.50219
 H298 H 0.78591 0.84799 0.50297
 C299 C 0.80303 0.87147 0.50436
 H300 H 0.81538 0.86355 0.50637
 C301 C 0.77070 0.89053 0.49901
 H302 H 0.75800 0.89793 0.49747
 C303 C 0.78707 0.89998 0.50114
 H304 H 0.78673 0.91462 0.50111
 Zn305 Zn 0.74841 0.85914 0.50003
 N306 N 0.77064 0.87215 0.49966
 C307 C 0.75995 0.84120 0.46911
 N308 N 0.74675 0.84232 0.48132
 C309 C 0.73118 0.83251 0.47977
 C310 C 0.72837 0.82101 0.46547
 C311 C 0.75769 0.82989 0.45457
 C312 C 0.75116 0.85796 0.53590
 C313 C 0.75284 0.85042 0.55235
 C314 C 0.74881 0.82082 0.53936
 C315 C 0.74727 0.82895 0.52308
 N316 N 0.74837 0.84725 0.52169
 H317 H 0.77202 0.84945 0.47034
 H318 H 0.72077 0.83387 0.48954
 H319 H 0.71588 0.81331 0.46452
 H320 H 0.76813 0.82962 0.44476
 H321 H 0.75244 0.87242 0.53438
 H322 H 0.75546 0.85926 0.56340
 H323 H 0.74773 0.80627 0.54026
 H324 H 0.74548 0.82062 0.51158
 C325 C 0.80352 0.89046 0.50409
 C326 C 0.69722 0.89686 0.49255
 C327 C 0.75166 0.83160 0.55429
 C328 C 0.74165 0.81971 0.45252
 C329 C 0.00803 0.26487 0.40011
 H330 H 0.01982 0.25607 0.40101
 C331 C 0.00645 0.27949 0.41163
 H332 H 0.01713 0.28176 0.42125
 C333 C -0.01930 0.27363 0.38552
 H334 H -0.02894 0.27184 0.37494
 C335 C -0.02151 0.28826 0.39684
 H336 H -0.03318 0.29720 0.39510
 N337 N -0.00459 0.26238 0.38719
 C338 C -0.00831 0.20826 0.37808
 H339 H -0.02047 0.21032 0.37031
 C340 C -0.00549 0.19158 0.38585
 H341 H -0.01562 0.18124 0.38353
 C342 C 0.02011 0.21872 0.38894
 H343 H 0.03021 0.22927 0.38978
 C344 C 0.02365 0.20210 0.39679
 H345 H 0.03618 0.20060 0.40426
 Zn346 Zn -0.00037 0.24442 0.36998
 N347 N 0.00411 0.22165 0.38019
 C348 C 0.02833 0.23786 0.34739
 N349 N 0.02035 0.25073 0.35753
 C350 C 0.02724 0.26770 0.35902
 C351 C 0.04302 0.27221 0.35021
 C352 C 0.04409 0.24179 0.33833
 C353 C -0.03741 0.23977 0.36150
 C354 C -0.05274 0.23824 0.35072
 C355 C -0.03360 0.24365 0.32603
 C356 C -0.01860 0.24510 0.33733
 N357 N -0.02074 0.24299 0.35469
 H358 H 0.02251 0.22447 0.34652
 H359 H 0.02051 0.27775 0.36703
 H360 H 0.04837 0.28578 0.35148
 H361 H 0.05053 0.23126 0.33061
 H362 H -0.03876 0.23835 0.37539
 H363 H -0.06592 0.23588 0.35643
 H364 H -0.03164 0.24507 0.31221
 H365 H -0.00527 0.24780 0.33218
 C366 C 0.01051 0.18828 0.39577
 C367 C -0.00827 0.29163 0.40980
 C368 C -0.05091 0.24007 0.33272
 C369 C 0.05167 0.25913 0.33978
 C370 C 0.00139 0.73722 0.10265
 H371 H -0.00073 0.75008 0.09643
 C372 C 0.00276 0.72159 0.09248
 H373 H 0.00120 0.72251 0.07852
 C374 C 0.00616 0.72029 0.12829
 H375 H 0.00760 0.72001 0.14228
 C376 C 0.00755 0.70432 0.11864
 H377 H 0.01011 0.69169 0.12525
 N378 N 0.00258 0.73621 0.12024
 C379 C 0.00993 0.79089 0.12159
 H380 H 0.02133 0.79003 0.13060
 C381 C 0.00831 0.80571 0.11072
 H382 H 0.01851 0.81622 0.11156
 C383 C -0.01761 0.77869 0.11011
 H384 H -0.02760 0.76800 0.11001
 C385 C -0.01968 0.79320 0.09884
 H386 H -0.03123 0.79352 0.08992
 Zn387 Zn 0.00021 0.75691 0.13441
 N388 N -0.00268 0.77755 0.12075
 C389 C 0.03751 0.75760 0.13902
 N390 N 0.02161 0.75822 0.14788
 C391 C 0.02136 0.75818 0.16551
 C392 C 0.03773 0.75734 0.17498
 C393 C 0.05413 0.75677 0.14793
 C394 C -0.03029 0.73988 0.14874
 C395 C -0.04597 0.73900 0.15865
 C396 C -0.04133 0.77013 0.16743
 C397 C -0.02548 0.77020 0.15761
 N398 N -0.02036 0.75525 0.14849
 H399 H 0.03719 0.75742 0.12497
 H400 H 0.00850 0.75830 0.17222
 H401 H 0.03739 0.75685 0.18901
 H402 H 0.06668 0.75630 0.14066
 H403 H -0.02638 0.72832 0.14093
 H404 H -0.05374 0.72667 0.15762
 H405 H -0.04445 0.78222 0.17487
 H406 H -0.01728 0.78228 0.15712
 C407 C -0.00641 0.80678 0.09886
 C408 C 0.00556 0.70487 0.10052
 C409 C -0.05210 0.75434 0.16816
 C410 C 0.05435 0.75638 0.16613
 C411 C 0.49853 0.22204 0.60301
 H412 H 0.51150 0.22848 0.60081
 C413 C 0.49418 0.20605 0.59430
 H414 H 0.50396 0.20006 0.58547
 C415 C 0.47015 0.22194 0.61751
 H416 H 0.46091 0.22817 0.62665
 C417 C 0.46526 0.20584 0.60913
 H418 H 0.45216 0.19983 0.61171
 N419 N 0.48640 0.22982 0.61404
 C420 C 0.49868 0.28664 0.61320
 H421 H 0.50004 0.28921 0.62701
 C422 C 0.50060 0.30070 0.60158
 H423 H 0.50327 0.31420 0.60653
 C424 C 0.49296 0.26593 0.59005
 H425 H 0.48973 0.25240 0.58565
 C426 C 0.49470 0.27964 0.57793
 H427 H 0.49309 0.27653 0.56423
 Zn428 Zn 0.49331 0.25182 0.62427
 N429 N 0.49529 0.26962 0.60728
 C430 C 0.53046 0.25848 0.63107
 N431 N 0.51596 0.24827 0.63557
 C432 C 0.51763 0.23506 0.64765
 C433 C 0.53433 0.23215 0.65621
 C434 C 0.54726 0.25618 0.63940
 C435 C 0.45919 0.26485 0.63254
 C436 C 0.44492 0.27069 0.64298
 C437 C 0.46476 0.26718 0.66813
 C438 C 0.47871 0.26145 0.65715
 N439 N 0.47551 0.26000 0.63977
 H440 H 0.52909 0.26842 0.62100
 H441 H 0.50594 0.22690 0.65070
 H442 H 0.53548 0.22185 0.66605
 H443 H 0.55865 0.26454 0.63580
 H444 H 0.45718 0.26377 0.61863
 H445 H 0.43177 0.27373 0.63704
 H446 H 0.46729 0.26790 0.68200
 H447 H 0.49196 0.25796 0.66254
 C448 C 0.49878 0.29722 0.58370
 C449 C 0.47726 0.19791 0.59717
 C450 C 0.44754 0.27162 0.66104
 C451 C 0.54926 0.24303 0.65224
 C452 C 0.51938 0.76880 0.89218
 H453 H 0.53309 0.76503 0.88842
 C454 C 0.51677 0.78213 0.90480
 H455 H 0.52856 0.78867 0.91066
 C456 C 0.48737 0.76571 0.88818
 H457 H 0.47597 0.75942 0.88150
 C458 C 0.48412 0.77909 0.90069
 H459 H 0.47020 0.78297 0.90364
 N460 N 0.50479 0.76093 0.88412
 C461 C 0.51893 0.70725 0.86611
 H462 H 0.51286 0.70742 0.85323
 C463 C 0.52408 0.69080 0.87346
 H464 H 0.52187 0.67839 0.86617
 C465 C 0.52733 0.72299 0.89194
 H466 H 0.52811 0.73538 0.89937
 C467 C 0.53278 0.70691 0.89972
 H468 H 0.53791 0.70723 0.91297
 Zn469 Zn 0.50931 0.74393 0.86625
 N470 N 0.52022 0.72287 0.87553
 C471 C 0.53357 0.74323 0.83851
 N472 N 0.52477 0.75431 0.84988
 C473 C 0.52755 0.77248 0.85011
 C474 C 0.54060 0.78001 0.83942
 C475 C 0.54664 0.75018 0.82754
 C476 C 0.47608 0.72583 0.86388
 C477 C 0.45923 0.72112 0.85658
 C478 C 0.46562 0.74031 0.83223
 C479 C 0.48242 0.74451 0.83992
 N480 N 0.48718 0.73740 0.85553
 H481 H 0.53097 0.72889 0.83840
 H482 H 0.51996 0.78113 0.85886
 H483 H 0.54314 0.79440 0.84015
 H484 H 0.55424 0.74098 0.81925
 H485 H 0.48029 0.72040 0.87630
 H486 H 0.45059 0.71184 0.86338
 H487 H 0.46179 0.74664 0.82010
 H488 H 0.49147 0.75379 0.83364
 C489 C 0.53056 0.69049 0.89068
 C490 C 0.49896 0.78756 0.90904
 C491 C 0.45372 0.72856 0.84063
 C492 C 0.55063 0.76872 0.82827
 C493 C -0.23399 0.65604 0.96963
 H494 H -0.22415 0.64544 0.97220
 C495 C -0.23404 0.66447 0.95350
 H496 H -0.22410 0.66026 0.94397
 C497 C -0.25868 0.67448 0.97882
 H498 H -0.26821 0.67843 0.98879
 C499 C -0.25926 0.68325 0.96281
 H500 H -0.26956 0.69358 0.96051
 N501 N -0.24662 0.66067 0.98172
 C502 C -0.26528 0.65910 1.03316
 H503 H -0.27398 0.64752 1.03106
 C504 C -0.26746 0.66982 1.04802
 H505 H -0.27769 0.66571 1.05711
 C506 C -0.24059 0.67697 1.02424
 H507 H -0.23013 0.67963 1.01485
 C508 C -0.24219 0.68804 1.03903
 H509 H -0.23309 0.69942 1.04032
 Zn510 Zn -0.24873 0.64679 1.00238
 N511 N -0.25192 0.66270 1.02170
 C512 C -0.21582 0.63591 1.01976
 N513 N -0.22719 0.63225 1.00605
 C514 C -0.22338 0.61842 0.99482
 C515 C -0.20755 0.60789 0.99699
 C516 C -0.19974 0.62585 1.02230
 C517 C -0.28587 0.63961 0.99493
 C518 C -0.30158 0.62928 0.99238
 C519 C -0.28432 0.60277 1.00078
 C520 C -0.26887 0.61363 1.00311
 N521 N -0.26981 0.63170 0.99995
 H522 H -0.21903 0.64681 1.02867
 H523 H -0.23267 0.61556 0.98411
 H524 H -0.20502 0.59686 0.98796
 H525 H -0.19070 0.62947 1.03300
 H526 H -0.28659 0.65400 0.99292
 H527 H -0.31418 0.63594 0.98847
 H528 H -0.28321 0.58839 1.00312
 H529 H -0.25618 0.60756 1.00750
 C530 C -0.25574 0.68458 1.05144
 C531 C -0.24717 0.67789 0.94969
 C532 C -0.30094 0.61056 0.99518
 C533 C -0.19531 0.61165 1.01078
 C534 C -0.24027 0.34790 0.53100
 H535 H -0.23039 0.35857 0.53009
 C536 C -0.24047 0.33771 0.54525
 H537 H -0.23097 0.34102 0.55564
 C538 C -0.26500 0.33184 0.51792
 H539 H -0.27438 0.32943 0.50721
 C540 C -0.26577 0.32025 0.53335
 H541 H -0.27556 0.30941 0.53301
 N542 N -0.25329 0.34493 0.51715
 C543 C -0.27026 0.34991 0.46489
 H544 H -0.27904 0.36158 0.46683
 C545 C -0.27077 0.34055 0.44905
 H546 H -0.28027 0.34493 0.43901
 C547 C -0.24674 0.33049 0.47535
 H548 H -0.23704 0.32702 0.48553
 C549 C -0.24676 0.32078 0.45968
 H550 H -0.23697 0.30988 0.45791
 Zn551 Zn -0.25460 0.36008 0.49730
 N552 N -0.25802 0.34506 0.47746
 C553 C -0.22292 0.37044 0.47948
 N554 N -0.23242 0.37331 0.49435
 C555 C -0.22638 0.38540 0.50656
 C556 C -0.20993 0.39461 0.50431
 C557 C -0.20650 0.37933 0.47670
 C558 C -0.29154 0.36906 0.50319
 C559 C -0.30690 0.38018 0.50524
 C560 C -0.28821 0.40599 0.49921
 C561 C -0.27314 0.39432 0.49748
 N562 N -0.27501 0.37620 0.49954
 H563 H -0.22803 0.36128 0.46960
 H564 H -0.23431 0.38790 0.51809
 H565 H -0.20519 0.40384 0.51437
 H566 H -0.19935 0.37684 0.46470
 H567 H -0.29294 0.35462 0.50438
 H568 H -0.31979 0.37369 0.50755
 H569 H -0.28590 0.42033 0.49798
 H570 H -0.25995 0.39981 0.49446
 C571 C -0.25851 0.32613 0.44609
 C572 C -0.25418 0.32296 0.54694
 C573 C -0.30558 0.39909 0.50328
 C574 C -0.19964 0.39147 0.48926
 C575 C 0.26186 -0.17175 0.02735
 H576 H 0.27245 -0.17379 0.01791
 C577 C 0.26138 -0.18243 0.04128
 H578 H 0.27136 -0.19325 0.04231
 C579 C 0.23594 -0.15472 0.03649
 H580 H 0.22636 -0.14367 0.03508
 C581 C 0.23465 -0.16631 0.05185
 H582 H 0.22422 -0.16286 0.06114
 N583 N 0.24847 -0.15760 0.02493
 C584 C 0.26338 -0.16730 -0.01975
 H585 H 0.27480 -0.16773 -0.01074
 C586 C 0.26468 -0.17640 -0.03571
 H587 H 0.27701 -0.18395 -0.03868
 C588 C 0.23431 -0.15548 -0.02764
 H589 H 0.22272 -0.14689 -0.02480
 C590 C 0.23507 -0.16428 -0.04375
 H591 H 0.22383 -0.16263 -0.05290
 Zn592 Zn 0.24873 -0.14264 0.00473
 N593 N 0.24839 -0.15702 -0.01600
 C594 C 0.28238 -0.12853 0.01802
 N595 N 0.27050 -0.12888 0.00429
 C596 C 0.27413 -0.11995 -0.01059
 C597 C 0.29028 -0.11019 -0.01212
 C598 C 0.29868 -0.11887 0.01707
 C599 C 0.21094 -0.13413 0.00557
 C600 C 0.19542 -0.12312 0.00700
 C601 C 0.21489 -0.09698 0.00684
 C602 C 0.23007 -0.10856 0.00567
 N603 N 0.22789 -0.12679 0.00511
 H604 H 0.27928 -0.13581 0.02969
 H605 H 0.26447 -0.12051 -0.02134
 H606 H 0.29281 -0.10305 -0.02402
 H607 H 0.30807 -0.11892 0.02806
 H608 H 0.20950 -0.14868 0.00510
 H609 H 0.18226 -0.12964 0.00692
 H610 H 0.21740 -0.08263 0.00791
 H611 H 0.24363 -0.10291 0.00557
 C612 C 0.25054 -0.17466 -0.04808
 C613 C 0.24680 -0.17989 0.05449
 C614 C 0.19707 -0.10411 0.00774
 C615 C 0.30285 -0.10956 0.00182
 C616 C 0.26102 1.16527 0.47629
 H617 H 0.27174 1.16692 0.48598
 C618 C 0.26129 1.17541 0.46105
 H619 H 0.27234 1.18476 0.45905
 C620 C 0.23392 1.15068 0.46685
 H621 H 0.22339 1.14087 0.46889
 C622 C 0.23367 1.16048 0.45151
 H623 H 0.22265 1.15830 0.44222
 N624 N 0.24728 1.15339 0.47904
 C625 C 0.24152 1.14726 0.53497
 H626 H 0.23996 1.13273 0.53521
 C627 C 0.24051 1.15731 0.55035
 H628 H 0.23820 1.15041 0.56243
 C629 C 0.24676 1.17380 0.51891
 H630 H 0.24903 1.18021 0.50663
 C631 C 0.24607 1.18439 0.53408
 H632 H 0.24777 1.19889 0.53333
 Zn633 Zn 0.24658 1.13996 0.50000
 N634 N 0.24474 1.15554 0.51967
 C635 C 0.28010 1.12924 0.51564
 N636 N 0.26843 1.12587 0.50211
 C637 C 0.27235 1.11287 0.49006
 C638 C 0.28808 1.10210 0.49183
 C639 C 0.29610 1.11902 0.51776
 C640 C 0.20894 1.13374 0.49944
 C641 C 0.19275 1.12399 0.49766
 C642 C 0.21057 1.09636 0.49732
 C643 C 0.22645 1.10666 0.49904
 N644 N 0.22540 1.12505 0.49959
 H645 H 0.27714 1.13999 0.52481
 H646 H 0.26306 1.11064 0.47920
 H647 H 0.29051 1.09143 0.48239
 H648 H 0.30523 1.12226 0.52849
 H649 H 0.20843 1.14836 0.50020
 H650 H 0.17982 1.13123 0.49732
 H651 H 0.21173 1.08178 0.49633
 H652 H 0.23957 1.09991 0.49962
 C653 C 0.24290 1.17612 0.55005
 C654 C 0.24744 1.17307 0.44841
 C655 C 0.19343 1.10504 0.49627
 C656 C 0.30022 1.10503 0.50591
 C657 C 0.13772 0.47493 0.26599
 H658 H 0.13773 0.48435 0.27684
 C659 C 0.14809 0.45895 0.26692
 H660 H 0.15627 0.45630 0.27845
 C661 C 0.12689 0.46689 0.23786
 H662 H 0.11826 0.46975 0.22672
 C663 C 0.13712 0.45085 0.23820
 H664 H 0.13628 0.44161 0.22722
 N665 N 0.12742 0.47863 0.25159
 C666 C 0.11725 0.53712 0.25425
 H667 H 0.10248 0.53706 0.25463
 C668 C 0.12652 0.55354 0.25430
 H669 H 0.11880 0.56609 0.25483
 C670 C 0.14518 0.52079 0.25245
 H671 H 0.15234 0.50798 0.25143
 C672 C 0.15500 0.53697 0.25213
 H673 H 0.16974 0.53650 0.25119
 Zn674 Zn 0.11238 0.49980 0.25169
 N675 N 0.12662 0.52117 0.25352
 C676 C 0.09821 0.50950 0.28462
 N677 N 0.09641 0.49796 0.27082
 C678 C 0.08432 0.48409 0.27106
 C679 C 0.07329 0.48153 0.28550
 C680 C 0.08763 0.50730 0.29936
 C681 C 0.10982 0.50434 0.21630
 C682 C 0.10197 0.50650 0.19989
 C683 C 0.07222 0.50361 0.21256
 C684 C 0.08077 0.50155 0.22883
 N685 N 0.09928 0.50169 0.23034
 H686 H 0.10824 0.52011 0.28445
 H687 H 0.08347 0.47481 0.26012
 H688 H 0.06395 0.47026 0.28559
 H689 H 0.08938 0.51652 0.31027
 H690 H 0.12451 0.50500 0.21795
 H691 H 0.11128 0.50949 0.18960
 H692 H 0.05752 0.50254 0.21216
 H693 H 0.07254 0.49983 0.24021
 C694 C 0.14563 0.55361 0.25310
 C695 C 0.14789 0.44665 0.25288
 C696 C 0.08272 0.50598 0.19741
 C697 C 0.07506 0.49310 0.29998
 C698 C -0.13872 1.02327 0.26962
 H699 H -0.13755 1.01358 0.27999
 C700 C -0.14909 1.03909 0.27195
 H701 H -0.15612 1.04132 0.28407
 C702 C -0.13067 1.03227 0.24136
 H703 H -0.12308 1.02987 0.22964
 C704 C -0.14097 1.04818 0.24310
 H705 H -0.14121 1.05778 0.23260
 N706 N -0.12976 1.02015 0.25451
 C707 C -0.11792 0.96208 0.25062
 H708 H -0.10329 0.96274 0.24897
 C709 C -0.12675 0.94546 0.24915
 H710 H -0.11875 0.93334 0.24666
 C711 C -0.14606 0.97721 0.25556
 H712 H -0.15358 0.98968 0.25763
 C713 C -0.15545 0.96080 0.25433
 H714 H -0.17017 0.96080 0.25556
 Zn715 Zn -0.11418 0.99943 0.25292
 N716 N -0.12761 0.97754 0.25367
 C717 C -0.09729 0.98814 0.28438
 N718 N -0.09732 1.00090 0.27183
 C719 C -0.08653 1.01574 0.27329
 C720 C -0.07509 1.01817 0.28781
 C721 C -0.08617 0.99008 0.29917
 C722 C -0.11290 0.99636 0.21709
 C723 C -0.10541 0.99480 0.20061
 C724 C -0.07541 0.99813 0.21357
 C725 C -0.08356 0.99965 0.22987
 N726 N -0.10203 0.99890 0.23130
 H727 H -0.10631 0.97669 0.28323
 H728 H -0.08705 1.02586 0.26326
 H729 H -0.06656 1.03003 0.28863
 H730 H -0.08689 0.98003 0.30922
 H731 H -0.12752 0.99526 0.21864
 H732 H -0.11472 0.99203 0.18991
 H733 H -0.06074 0.99944 0.21303
 H734 H -0.07508 1.00131 0.24136
 C735 C -0.14579 0.94466 0.25085
 C736 C -0.15027 1.05185 0.25860
 C737 C -0.08630 0.99574 0.19841
 C738 C -0.07492 1.00532 0.30113
 C739 C 0.36552 0.52479 -0.22911
 H740 H 0.36762 0.51550 -0.21850
 C741 C 0.35566 0.54085 -0.22644
 H742 H 0.34994 0.54366 -0.21380
 C743 C 0.37073 0.53248 -0.25836
 H744 H 0.37699 0.52942 -0.27068
 C745 C 0.36086 0.54863 -0.25629
 H746 H 0.35962 0.55779 -0.26711
 N747 N 0.37284 0.52090 -0.24487
 C748 C 0.38284 0.46155 -0.24905
 H749 H 0.39729 0.46153 -0.25181
 C750 C 0.37359 0.44602 -0.24941
 H751 H 0.38108 0.43363 -0.25198
 C752 C 0.35647 0.47882 -0.24139
 H753 H 0.34972 0.49160 -0.23885
 C754 C 0.34576 0.46195 -0.24127
 H755 H 0.33130 0.46326 -0.23881
 Zn756 Zn 0.38779 0.49978 -0.24691
 N757 N 0.37377 0.47836 -0.24503
 C758 C 0.40681 0.48801 -0.21663
 N759 N 0.40559 0.50113 -0.22882
 C760 C 0.41599 0.51625 -0.22760
 C761 C 0.42821 0.51865 -0.21367
 C762 C 0.41880 0.48988 -0.20246
 C763 C 0.38786 0.49552 -0.28288
 C764 C 0.39503 0.49366 -0.29949
 C765 C 0.42523 0.49816 -0.28726
 C766 C 0.41746 0.49983 -0.27081
 N767 N 0.39904 0.49867 -0.26896
 H768 H 0.39813 0.47629 -0.21761
 H769 H 0.41455 0.52661 -0.23733
 H770 H 0.43638 0.53078 -0.21298
 H771 H 0.41913 0.47952 -0.19265
 H772 H 0.37331 0.49426 -0.28101
 H773 H 0.38583 0.49087 -0.31029
 H774 H 0.43987 0.49947 -0.28849
 H775 H 0.42619 0.50196 -0.25956
 C776 C 0.35368 0.44588 -0.24539
 C777 C 0.35327 0.55307 -0.24012
 C778 C 0.41397 0.49508 -0.30191
 C779 C 0.42963 0.50544 -0.20074
 C780 C 0.63813 -0.02126 -0.23797
 H781 H 0.63821 -0.01179 -0.22715
 C782 C 0.64816 -0.03651 -0.23715
 H783 H 0.65661 -0.03871 -0.22573
 C784 C 0.62691 -0.02842 -0.26636
 H785 H 0.61804 -0.02578 -0.27737
 C786 C 0.63806 -0.04515 -0.26623
 H787 H 0.63663 -0.05411 -0.27734
 N788 N 0.62707 -0.01740 -0.25307
 C789 C 0.61341 0.04039 -0.25073
 H790 H 0.59874 0.03929 -0.24970
 C791 C 0.62139 0.05742 -0.25142
 H792 H 0.61240 0.06910 -0.25115
 C793 C 0.64221 0.02604 -0.25369
 H794 H 0.65021 0.01372 -0.25474
 C795 C 0.65079 0.04286 -0.25487
 H796 H 0.66547 0.04303 -0.25619
 Zn797 Zn 0.61088 0.00293 -0.25234
 N798 N 0.62383 0.02513 -0.25165
 C799 C 0.59882 0.01253 -0.21874
 N800 N 0.59652 0.00055 -0.23211
 C801 C 0.58559 -0.01413 -0.23050
 C802 C 0.57655 -0.01723 -0.21492
 C803 C 0.59016 0.00988 -0.20297
 C804 C 0.60590 0.00753 -0.28746
 C805 C 0.59704 0.00895 -0.30349
 C806 C 0.56840 0.00308 -0.28952
 C807 C 0.57789 0.00183 -0.27361
 N808 N 0.59637 0.00379 -0.27295
 H809 H 0.60795 0.02380 -0.21999
 H810 H 0.58435 -0.02373 -0.24114
 H811 H 0.56832 -0.02923 -0.21368
 H812 H 0.59243 0.01944 -0.19242
 H813 H 0.62052 0.00943 -0.28652
 H814 H 0.60499 0.01210 -0.31478
 H815 H 0.55376 0.00113 -0.28991
 H816 H 0.57048 -0.00071 -0.26187
 C817 C 0.64042 0.05906 -0.25364
 C818 C 0.64827 -0.04959 -0.25209
 C819 C 0.57806 0.00651 -0.30477
 C820 C 0.57910 -0.00531 -0.20079
 C821 C 0.02693 0.25968 0.86174
 H822 H 0.01852 0.27169 0.86030
 C823 C 0.04257 0.25751 0.85191
 H824 H 0.04588 0.26779 0.84260
 C825 C 0.03250 0.23167 0.87562
 H826 H 0.02866 0.22187 0.88517
 C827 C 0.04850 0.22907 0.86622
 H828 H 0.05689 0.21722 0.86866
 N829 N 0.02212 0.24679 0.87315
 C830 C -0.03498 0.25982 0.87986
 H831 H -0.03515 0.26135 0.89384
 C832 C -0.05106 0.26185 0.87021
 H833 H -0.06369 0.26481 0.87685
 C834 C -0.01835 0.25313 0.85434
 H835 H -0.00567 0.24927 0.84827
 C836 C -0.03413 0.25500 0.84417
 H837 H -0.03339 0.25296 0.83026
 Zn838 Zn 0.00139 0.25202 0.88627
 N839 N -0.01907 0.25567 0.87182
 C840 C -0.00227 0.28873 0.89531
 N841 N 0.00662 0.27303 0.89910
 C842 C 0.02038 0.27241 0.91114
 C843 C 0.02534 0.28799 0.92035
 C844 C 0.00242 0.30464 0.90400
 C845 C -0.00823 0.21689 0.89266
 C846 C -0.01333 0.20202 0.90229
 C847 C -0.01093 0.22045 0.92837
 C848 C -0.00589 0.23500 0.91820
 N849 N -0.00436 0.23285 0.90073
 H850 H -0.01272 0.28903 0.88528
 H851 H 0.02753 0.25978 0.91351
 H852 H 0.03627 0.28740 0.92995
 H853 H -0.00480 0.31707 0.90090
 H854 H -0.00725 0.21575 0.87869
 H855 H -0.01583 0.18926 0.89569
 H856 H -0.01205 0.22229 0.94228
 H857 H -0.00342 0.24801 0.92426
 C858 C -0.05074 0.25934 0.85215
 C859 C 0.05374 0.24216 0.85424
 C860 C -0.01462 0.20370 0.92039
 C861 C 0.01636 0.30434 0.91666
 C862 C 0.47844 0.24077 0.14189
 H863 H 0.49190 0.24172 0.14763
 C864 C 0.46363 0.23761 0.15257
 H865 H 0.46593 0.23583 0.16637
 C866 C 0.45881 0.24248 0.11722
 H867 H 0.45693 0.24517 0.10356
 C868 C 0.44364 0.23929 0.12740
 H869 H 0.43016 0.23930 0.12141
 N870 N 0.47584 0.24285 0.12450
 C871 C 0.52460 0.26975 0.12162
 H872 H 0.51886 0.27982 0.11305
 C873 C 0.54024 0.27381 0.13140
 H874 H 0.54621 0.28710 0.13047
 C875 C 0.52403 0.24019 0.13317
 H876 H 0.51775 0.22702 0.13357
 C877 C 0.53963 0.24366 0.14316
 H878 H 0.54536 0.23303 0.15117
 Zn879 Zn 0.49548 0.24763 0.10968
 N880 N 0.51671 0.25323 0.12283
 C881 C 0.48314 0.28278 0.10411
 N882 N 0.48879 0.26739 0.09595
 C883 C 0.49016 0.26636 0.07840
 C884 C 0.48660 0.28156 0.06837
 C885 C 0.47971 0.29838 0.09462
 C886 C 0.48626 0.21952 0.08635
 C887 C 0.48937 0.20444 0.07579
 C888 C 0.52150 0.20603 0.08327
 C889 C 0.51778 0.22117 0.09361
 N890 N 0.50032 0.22740 0.09522
 H891 H 0.48209 0.28310 0.11811
 H892 H 0.49455 0.25392 0.07220
 H893 H 0.48805 0.28059 0.05442
 H894 H 0.47632 0.31079 0.10149
 H895 H 0.47257 0.22484 0.08746
 H896 H 0.47793 0.19805 0.06919
 H897 H 0.53542 0.20111 0.08224
 H898 H 0.52889 0.22796 0.10026
 C899 C 0.54786 0.26069 0.14240
 C900 C 0.44599 0.23677 0.14530
 C901 C 0.50715 0.19742 0.07433
 C902 C 0.48185 0.29800 0.07652
 C903 C -0.02336 0.75726 0.64563
 H904 H -0.01635 0.77008 0.64591
 C905 C -0.03755 0.75464 0.65595
 H906 H -0.04195 0.76582 0.66408
 C907 C -0.02592 0.72790 0.63274
 H908 H -0.02176 0.71780 0.62334
 C909 C -0.04162 0.72433 0.64391
 H910 H -0.04767 0.71108 0.64292
 N911 N -0.01757 0.74332 0.63380
 C912 C 0.03662 0.76215 0.62257
 H913 H 0.03515 0.76401 0.60871
 C914 C 0.05301 0.76640 0.63095
 H915 H 0.06399 0.77190 0.62344
 C916 C 0.02380 0.75283 0.64906
 H917 H 0.01248 0.74715 0.65593
 C918 C 0.04011 0.75652 0.65793
 H919 H 0.04117 0.75350 0.67162
 Zn920 Zn 0.00149 0.74925 0.61892
 N921 N 0.02242 0.75568 0.63170
 C922 C -0.00019 0.78562 0.60953
 N923 N -0.00673 0.76891 0.60554
 C924 C -0.01970 0.76645 0.59293
 C925 C -0.02574 0.78104 0.58295
 C926 C -0.00608 0.80057 0.60015
 C927 C 0.01372 0.71429 0.61388
 C928 C 0.01832 0.69849 0.60491
 C929 C 0.01295 0.71423 0.57795
 C930 C 0.00839 0.72974 0.58748
 N931 N 0.00828 0.72927 0.60511
 H932 H 0.00946 0.78743 0.62011
 H933 H -0.02518 0.75311 0.59049
 H934 H -0.03575 0.77894 0.57265
 H935 H -0.00049 0.81374 0.60328
 H936 H 0.01394 0.71449 0.62793
 H937 H 0.02167 0.68643 0.61217
 H938 H 0.01265 0.71467 0.56391
 H939 H 0.00489 0.74205 0.58076
 C940 C 0.05504 0.76332 0.64883
 C941 C -0.04764 0.73717 0.65515
 C942 C 0.01759 0.69824 0.58670
 C943 C -0.01883 0.79831 0.58658
 C944 C 0.52248 0.73587 0.36503
 H945 H 0.50892 0.73705 0.35947
 C946 C 0.53691 0.73062 0.35445
 H947 H 0.53436 0.72808 0.34076
 C948 C 0.54231 0.73731 0.38958
 H949 H 0.54437 0.73992 0.40325
 C950 C 0.55713 0.73208 0.37949
 H951 H 0.57057 0.73114 0.38548
 N952 N 0.52553 0.73972 0.38213
 C953 C 0.46988 0.74504 0.38519
 H954 H 0.46906 0.73650 0.39641
 C955 C 0.45477 0.74666 0.37417
 H956 H 0.44241 0.73938 0.37701
 C957 C 0.48687 0.76474 0.36762
 H958 H 0.49963 0.77134 0.36493
 C959 C 0.47194 0.76693 0.35633
 H960 H 0.47317 0.77532 0.34499
 Zn961 Zn 0.50634 0.74892 0.39586
 N962 N 0.48565 0.75373 0.38160
 C963 C 0.50774 0.78647 0.40274
 N964 N 0.51411 0.76999 0.40775
 C965 C 0.52610 0.76829 0.42133
 C966 C 0.53232 0.78357 0.43030
 C967 C 0.51379 0.80208 0.41117
 C968 C 0.49957 0.71403 0.40578
 C969 C 0.49357 0.70027 0.41633
 C970 C 0.48876 0.72231 0.43932
 C971 C 0.49473 0.73575 0.42822
 N972 N 0.50003 0.73132 0.41185
 H973 H 0.49793 0.78761 0.39224
 H974 H 0.53056 0.75503 0.42545
 H975 H 0.54178 0.78206 0.44114
 H976 H 0.50849 0.81510 0.40709
 H977 H 0.50360 0.71101 0.39260
 H978 H 0.49340 0.68651 0.41135
 H979 H 0.48446 0.72591 0.45231
 H980 H 0.49476 0.74971 0.43253
 C981 C 0.45582 0.75749 0.35943
 C982 C 0.55458 0.72916 0.36160
 C983 C 0.48798 0.70438 0.43328
 C984 C 0.52626 0.80070 0.42508
 Zr985 Zr 0.01383 -0.01216 1.02850
 O986 O 0.02973 -0.00437 1.05047
 O987 O 0.01151 -0.04003 1.03203
 O988 O -0.00046 -0.01559 1.05195
 O989 O 0.05051 -0.01396 1.00066
 O990 O -0.02820 -0.00244 1.04643
 O991 O 0.04080 -0.02262 1.02728
 O992 O -0.00709 -0.04919 1.00965
 O993 O -0.01309 -0.01716 1.02028
 O994 O 0.01527 -0.02193 1.00297
 O995 O -0.00001 0.01279 1.03082
 O996 O 0.02760 0.00794 1.01464
 Zr997 Zr -0.01279 0.01845 0.98164
 Zr998 Zr -0.02647 0.00794 1.02128
 Zr999 Zr 0.02756 -0.00159 0.98889
 Zr1000 Zr -0.01147 -0.02593 0.99451
 O1001 O 0.05073 0.01501 0.98621
 O1002 O -0.03743 -0.03674 1.00015
 O1003 O 0.00114 -0.00654 0.97906
 O1004 O -0.02625 -0.00161 0.99560
 O1005 O -0.01436 0.02843 1.00711
 O1006 O 0.01406 0.02332 0.99001
 C1007 C 0.00245 -0.05210 1.02352
 C1008 C 0.05299 -0.02174 1.01538
 C1009 C -0.01677 -0.01080 1.05638
 O1010 O -0.05049 -0.00766 1.02253
 O1011 O -0.04844 0.02273 1.01052
 O1012 O -0.03912 0.03030 0.98347
 C1013 C -0.05089 0.03047 0.99578
 O1014 O 0.03008 0.03422 1.03776
 Zr1015 Zr 0.01250 0.03223 1.01563
 O1016 O -0.01085 0.04643 0.97832
 O1017 O -0.03361 0.02906 1.03874
 O1018 O -0.00017 0.05006 1.03367
 O1019 O 0.03703 0.04514 1.00863
 O1020 O 0.00484 0.05596 1.00246
 C1021 C -0.00408 0.05886 0.98823
 O1022 O -0.02972 0.01100 0.96026
 O1023 O 0.03569 -0.02359 0.97286
 O1024 O 0.00074 0.02007 0.95758
 O1025 O 0.02840 0.00655 0.96292
 O1026 O 0.00147 -0.04557 0.97848
 O1027 O -0.02587 -0.02841 0.97046
 C1028 C 0.01675 0.01458 0.95293
 H1029 H 0.02234 -0.03336 1.00191
 H1030 H -0.03878 -0.00352 0.99097
 H1031 H 0.02028 0.03234 0.98283
 H1032 H -0.00010 0.01708 1.04304
 H1033 H -0.03728 -0.04964 0.99653
 H1034 H -0.05864 -0.00145 1.03090
 H1035 H -0.04606 0.02644 1.04288
 H1036 H 0.00636 0.06173 1.03334
 H1037 H -0.00577 -0.05681 0.97904
 H1038 H 0.04813 -0.02088 0.96878
 H1039 H 0.05896 0.00872 0.97796
 H1040 H 0.03621 0.05787 1.01272
 H1041 H -0.03081 -0.04079 0.96924
 H1042 H -0.03230 0.02213 0.95354
 H1043 H 0.03247 -0.01548 1.05714
 H1044 H 0.03273 0.04710 1.04027
 Zr1045 Zr 0.50895 0.48536 0.52514
 O1046 O 0.52483 0.49434 0.54670
 O1047 O 0.50840 0.45743 0.52907
 O1048 O 0.49542 0.48152 0.54896
 O1049 O 0.54503 0.48519 0.49654
 O1050 O 0.46689 0.49300 0.54376
 O1051 O 0.53643 0.47645 0.52349
 O1052 O 0.49061 0.44679 0.50673
 O1053 O 0.48221 0.47871 0.51757
 O1054 O 0.51036 0.47533 0.49970
 O1055 O 0.49384 0.50957 0.52737
 O1056 O 0.52123 0.50598 0.51068
 Zr1057 Zr 0.47956 0.51374 0.47834
 Zr1058 Zr 0.46752 0.50309 0.51847
 Zr1059 Zr 0.52112 0.49606 0.48507
 Zr1060 Zr 0.48373 0.46969 0.49187
 O1061 O 0.54303 0.51406 0.48149
 O1062 O 0.45888 0.45738 0.49883
 O1063 O 0.49482 0.48951 0.47588
 O1064 O 0.46761 0.49319 0.49292
 O1065 O 0.47808 0.52396 0.50373
 O1066 O 0.50626 0.52024 0.48604
 C1067 C 0.50048 0.44460 0.52053
 C1068 C 0.54827 0.47778 0.51133
 C1069 C 0.47898 0.48550 0.55365
 O1070 O 0.44431 0.48640 0.52025
 O1071 O 0.44477 0.51703 0.50819
 O1072 O 0.45265 0.52426 0.48063
 C1073 C 0.44143 0.52440 0.49342
 O1074 O 0.52305 0.53271 0.53309
 Zr1075 Zr 0.50482 0.52944 0.51159
 O1076 O 0.47961 0.54173 0.47462
 O1077 O 0.45971 0.52393 0.53600
 O1078 O 0.49191 0.54674 0.52993
 O1079 O 0.52812 0.54379 0.50354
 O1080 O 0.49487 0.55245 0.49853
 C1081 C 0.48546 0.55466 0.48446
 O1082 O 0.46264 0.50489 0.45746
 O1083 O 0.53042 0.47429 0.46934
 O1084 O 0.49248 0.51588 0.45397
 O1085 O 0.52059 0.50323 0.45882
 O1086 O 0.49717 0.45089 0.47531
 O1087 O 0.46845 0.46592 0.46846
 C1088 C 0.50846 0.51066 0.44891
 H1089 H 0.51809 0.46434 0.49858
 H1090 H 0.45509 0.49055 0.48863
 H1091 H 0.51172 0.52947 0.47855
 H1092 H 0.49380 0.51404 0.53953
 H1093 H 0.45972 0.44444 0.49544
 H1094 H 0.43607 0.49229 0.52874
 H1095 H 0.44750 0.52076 0.54038
 H1096 H 0.49773 0.55876 0.52925
 H1097 H 0.49076 0.43919 0.47617
 H1098 H 0.54253 0.47773 0.46490
 H1099 H 0.55140 0.50812 0.47315
 H1100 H 0.52653 0.55653 0.50742
 H1101 H 0.46409 0.45329 0.46772
 H1102 H 0.45921 0.51573 0.45063
 H1103 H 0.52839 0.48348 0.55345
 H1104 H 0.52520 0.54576 0.53524
 Zr1105 Zr 0.48346 1.01649 0.52010
 O1106 O 0.46775 1.00502 0.53996
 O1107 O 0.48089 1.04417 0.52555
 O1108 O 0.49542 1.02091 0.54501
 O1109 O 0.44904 1.01385 0.48900
 O1110 O 0.52533 1.01327 0.54110
 O1111 O 0.45528 1.02264 0.51691
 O1112 O 0.49778 1.05738 0.50463
 O1113 O 0.50948 1.02638 0.51457
 O1114 O 0.48192 1.02701 0.49504
 O1115 O 0.50131 0.99412 0.52226
 O1116 O 0.47438 0.99495 0.50398
 Zr1117 Zr 0.51781 0.99306 0.47408
 Zr1118 Zr 0.52695 1.00386 0.51539
 Zr1119 Zr 0.47429 1.00556 0.47886
 Zr1120 Zr 0.50790 1.03590 0.48920
 O1121 O 0.45450 0.98546 0.47365
 O1122 O 0.53079 1.05081 0.49829
 O1123 O 0.49987 1.01541 0.47162
 O1124 O 0.52667 1.01441 0.49031
 O1125 O 0.51957 0.98233 0.49907
 O1126 O 0.49188 0.98326 0.47982
 C1127 C 0.48750 1.05805 0.51805
 C1128 C 0.44430 1.02060 0.50376
 C1129 C 0.51203 1.01882 0.55056
 O1130 O 0.54785 1.02312 0.51937
 O1131 O 0.55152 0.99285 0.50602
 O1132 O 0.54546 0.98516 0.47779
 C1133 C 0.55612 0.98600 0.49126
 O1134 O 0.47515 0.96738 0.52516
 Zr1135 Zr 0.49349 0.97352 0.50496
 O1136 O 0.52099 0.96544 0.46884
 O1137 O 0.53659 0.98367 0.53257
 O1138 O 0.50791 0.95739 0.52327
 O1139 O 0.47238 0.95675 0.49494
 O1140 O 0.50654 0.95221 0.49136
 C1141 C 0.51641 0.95158 0.47764
 O1142 O 0.53443 1.00454 0.45492
 O1143 O 0.46353 1.02640 0.46302
 O1144 O 0.50620 0.99007 0.44883
 O1145 O 0.47634 0.99825 0.45261
 O1146 O 0.49299 1.05358 0.47265
 O1147 O 0.52343 1.04207 0.46697
 C1148 C 0.48969 0.99268 0.44323
 H1149 H 0.47308 1.03714 0.49385
 H1150 H 0.53894 1.01856 0.48697
 H1151 H 0.48779 0.97362 0.47167
 H1152 H 0.50143 0.98932 0.53420
 H1153 H 0.52851 1.06367 0.49543
 H1154 H 0.55643 1.01799 0.52812
 H1155 H 0.54814 0.98814 0.53786
 H1156 H 0.50375 0.94476 0.52164
 H1157 H 0.49795 1.06590 0.47446
 H1158 H 0.45202 1.02182 0.45775
 H1159 H 0.44584 0.99054 0.46494
 H1160 H 0.47543 0.94417 0.49828
 H1161 H 0.52634 1.05512 0.46710
 H1162 H 0.53936 0.99440 0.44781
 H1163 H 0.46273 1.01517 0.54700
 H1164 H 0.47471 0.95411 0.52667
 Zr1165 Zr -0.01166 0.51968 1.02246
 O1166 O -0.02949 0.50851 1.04080
 O1167 O -0.01074 0.54682 1.03041
 O1168 O -0.00024 0.52077 1.04792
 O1169 O -0.04467 0.52376 0.99022
 O1170 O 0.02861 0.50963 1.04425
 O1171 O -0.03889 0.52923 1.01895
 O1172 O 0.00946 0.55931 1.01187
 O1173 O 0.01572 0.52646 1.01866
 O1174 O -0.01054 0.53267 0.99854
 O1175 O 0.00301 0.49507 1.02320
 O1176 O -0.02257 0.50111 1.00410
 Zr1177 Zr 0.02179 0.49615 0.97575
 Zr1178 Zr 0.03007 0.50193 1.01806
 Zr1179 Zr -0.01993 0.51396 0.98016
 Zr1180 Zr 0.01674 0.53846 0.99436
 O1181 O -0.04154 0.49710 0.97160
 O1182 O 0.04124 0.54928 1.00503
 O1183 O 0.00712 0.52086 0.97476
 O1184 O 0.03244 0.51467 0.99411
 O1185 O 0.02085 0.48304 0.99965
 O1186 O -0.00556 0.48951 0.97967
 C1187 C -0.00132 0.56012 1.02492
 C1188 C -0.04946 0.52943 1.00536
 C1189 C 0.01585 0.51645 1.05366
 O1190 O 0.05320 0.51773 1.02451
 O1191 O 0.05363 0.48909 1.00860
 O1192 O 0.04832 0.48492 0.97962
 C1193 C 0.05837 0.48344 0.99346
 O1194 O -0.02651 0.47182 1.02275
 Zr1195 Zr -0.00654 0.47735 1.00381
 O1196 O 0.02155 0.46893 0.96819
 O1197 O 0.03592 0.47915 1.03364
 O1198 O 0.00480 0.45785 1.02093
 O1199 O -0.02932 0.46463 0.99169
 O1200 O 0.00399 0.45581 0.98866
 C1201 C 0.01444 0.45512 0.97535
 O1202 O 0.04052 0.50710 0.95811
 O1203 O -0.02752 0.53768 0.96661
 O1204 O 0.01098 0.49653 0.95006
 O1205 O -0.01687 0.51012 0.95338
 O1206 O 0.00469 0.55945 0.97942
 O1207 O 0.03381 0.54470 0.97320
 C1208 C -0.00420 0.50309 0.94400
 H1209 H -0.01800 0.54390 0.99814
 H1210 H 0.04531 0.51753 0.99159
 H1211 H -0.01050 0.48136 0.97049
 H1212 H 0.00194 0.48930 1.03467
 H1213 H 0.04084 0.56253 1.00328
 H1214 H 0.06056 0.51078 1.03307
 H1215 H 0.04768 0.48156 1.03972
 H1216 H -0.00091 0.44607 1.01803
 H1217 H 0.01099 0.57083 0.98267
 H1218 H -0.03916 0.53507 0.96038
 H1219 H -0.04895 0.50420 0.96319
 H1220 H -0.02823 0.45150 0.99397
 H1221 H 0.03793 0.55738 0.97433
 H1222 H 0.04448 0.49706 0.95033
 H1223 H -0.03353 0.51855 1.04854
 H1224 H -0.02871 0.45864 1.02306
 Zr1225 Zr -0.01759 0.48311 0.47252
 O1226 O -0.03385 0.49267 0.45156
 O1227 O -0.01497 0.45562 0.46627
 O1228 O -0.00360 0.48099 0.44863
 O1229 O -0.05366 0.48070 0.50083
 O1230 O 0.02431 0.49299 0.45513
 O1231 O -0.04467 0.47311 0.47343
 O1232 O 0.00361 0.44446 0.48767
 O1233 O 0.00959 0.47749 0.47967
 O1234 O -0.01821 0.47136 0.49705
 O1235 O -0.00416 0.50814 0.47226
 O1236 O -0.03108 0.50209 0.48866
 Zr1237 Zr 0.01005 0.51003 0.52165
 Zr1238 Zr 0.02258 0.50257 0.48076
 Zr1239 Zr -0.03012 0.49058 0.51338
 Zr1240 Zr 0.00883 0.46667 0.50448
 O1241 O -0.05288 0.50723 0.51947
 O1242 O 0.03449 0.45620 0.49654
 O1243 O -0.00340 0.48488 0.52202
 O1244 O 0.02326 0.49105 0.50543
 O1245 O 0.01066 0.52190 0.49713
 O1246 O -0.01709 0.51550 0.51443
 C1247 C -0.00599 0.44273 0.47361
 C1248 C -0.05666 0.47408 0.48556
 C1249 C 0.01288 0.48527 0.44468
 O1250 O 0.04732 0.48780 0.47829
 O1251 O 0.04399 0.51769 0.49186
 O1252 O 0.03624 0.52194 0.52017
 C1253 C 0.04705 0.52398 0.50725
 O1254 O -0.03451 0.53033 0.46816
 Zr1255 Zr -0.01644 0.52635 0.48964
 O1256 O 0.00769 0.53770 0.52768
 O1257 O 0.02847 0.52437 0.46424
 O1258 O -0.00434 0.54555 0.47321
 O1259 O -0.04111 0.53839 0.49837
 O1260 O -0.00900 0.54891 0.50496
 C1261 C 0.00026 0.55079 0.51918
 O1262 O 0.02778 0.50098 0.54176
 O1263 O -0.03826 0.46703 0.52648
 O1264 O -0.00280 0.50955 0.54621
 O1265 O -0.02950 0.49494 0.54025
 O1266 O -0.00345 0.44636 0.51950
 O1267 O 0.02453 0.46198 0.52743
 C1268 C -0.01796 0.50231 0.55083
 H1269 H -0.02528 0.46001 0.49717
 H1270 H 0.03597 0.48883 0.50949
 H1271 H -0.02324 0.52380 0.52272
 H1272 H -0.00439 0.51327 0.46044
 H1273 H 0.03459 0.44304 0.49884
 H1274 H 0.05499 0.49451 0.47009
 H1275 H 0.04092 0.52220 0.45974
 H1276 H -0.01096 0.55718 0.47481
 H1277 H 0.00351 0.43497 0.51757
 H1278 H -0.05053 0.46958 0.53126
 H1279 H -0.06076 0.50015 0.52718
 H1280 H -0.04063 0.55145 0.49567
 H1281 H 0.02941 0.44945 0.52720
 H1282 H 0.03035 0.51155 0.54945
 H1283 H -0.03672 0.48208 0.44401
 H1284 H -0.03736 0.54338 0.46704
 Zr1285 Zr 0.48670 -0.02259 -0.02721
 O1286 O 0.46876 -0.01274 -0.04679
 O1287 O 0.48850 -0.05008 -0.03377
 O1288 O 0.49862 -0.02433 -0.05212
 O1289 O 0.45338 -0.02648 0.00388
 O1290 O 0.52676 -0.01192 -0.04778
 O1291 O 0.45985 -0.03265 -0.02445
 O1292 O 0.50877 -0.06140 -0.01386
 O1293 O 0.51437 -0.02830 -0.02219
 O1294 O 0.48814 -0.03459 -0.00277
 O1295 O 0.50004 0.00245 -0.02821
 O1296 O 0.47450 -0.00383 -0.00991
 Zr1297 Zr 0.51812 0.00373 0.01996
 Zr1298 Zr 0.52739 -0.00321 -0.02180
 Zr1299 Zr 0.47750 -0.01565 0.01459
 Zr1300 Zr 0.51565 -0.03936 0.00255
 O1301 O 0.45503 0.00083 0.02187
 O1302 O 0.54044 -0.04977 -0.00758
 O1303 O 0.50482 -0.02143 0.02118
 O1304 O 0.53006 -0.01501 0.00265
 O1305 O 0.51681 0.01592 -0.00441
 O1306 O 0.49051 0.00928 0.01482
 C1307 C 0.49786 -0.06308 -0.02704
 C1308 C 0.44910 -0.03272 -0.01129
 C1309 C 0.51451 -0.01956 -0.05743
 O1310 O 0.55158 -0.01822 -0.02661
 O1311 O 0.54993 0.01124 -0.01192
 O1312 O 0.54391 0.01588 0.01674
 C1313 C 0.55399 0.01763 0.00326
 O1314 O 0.46927 0.02452 -0.02975
 Zr1315 Zr 0.48920 0.02046 -0.00981
 O1316 O 0.51636 0.03123 0.02655
 O1317 O 0.53212 0.01907 -0.03808
 O1318 O 0.49970 0.03979 -0.02707
 O1319 O 0.46554 0.03269 0.00095
 O1320 O 0.49823 0.04285 0.00505
 C1321 C 0.50853 0.04448 0.01865
 O1322 O 0.53731 -0.00583 0.03860
 O1323 O 0.47081 -0.03914 0.02853
 O1324 O 0.50720 0.00356 0.04530
 O1325 O 0.48012 -0.01106 0.04139
 O1326 O 0.50488 -0.05986 0.01838
 O1327 O 0.53333 -0.04427 0.02415
 C1328 C 0.49240 -0.00346 0.05103
 H1329 H 0.48117 -0.04597 -0.00215
 H1330 H 0.54305 -0.01727 0.00577
 H1331 H 0.48506 0.01754 0.02357
 H1332 H 0.49882 0.00775 -0.03991
 H1333 H 0.54069 -0.06297 -0.00548
 H1334 H 0.55862 -0.01133 -0.03516
 H1335 H 0.54413 0.01694 -0.04355
 H1336 H 0.49327 0.05142 -0.02481
 H1337 H 0.51171 -0.07120 0.01583
 H1338 H 0.45897 -0.03667 0.03423
 H1339 H 0.44787 -0.00622 0.03022
 H1340 H 0.46591 0.04575 -0.00176
 H1341 H 0.53833 -0.05673 0.02331
 H1342 H 0.54061 0.00461 0.04620
 H1343 H 0.46528 -0.02323 -0.05425
 H1344 H 0.46633 0.03758 -0.03060
 Zr1345 Zr 0.52156 0.51255 -0.02457
 O1346 O 0.54135 0.50084 -0.04114
 O1347 O 0.52024 0.53913 -0.03350
 O1348 O 0.51213 0.51175 -0.05070
 O1349 O 0.55174 0.51981 0.00971
 O1350 O 0.48460 0.49758 -0.04916
 O1351 O 0.54792 0.52316 -0.01952
 O1352 O 0.49802 0.55220 -0.01702
 O1353 O 0.49355 0.51841 -0.02330
 O1354 O 0.51774 0.52706 -0.00143
 O1355 O 0.50852 0.48731 -0.02527
 O1356 O 0.53199 0.49580 -0.00465
 Zr1357 Zr 0.48566 0.49086 0.02036
 Zr1358 Zr 0.48067 0.49327 -0.02261
 Zr1359 Zr 0.52659 0.51009 0.01841
 Zr1360 Zr 0.48985 0.53201 0.00028
 O1361 O 0.54826 0.49477 0.02949
 O1362 O 0.46604 0.54114 -0.01309
 O1363 O 0.49874 0.51621 0.02134
 O1364 O 0.47559 0.50761 0.00043
 O1365 O 0.48941 0.47616 -0.00271
 O1366 O 0.51363 0.48512 0.01890
 C1367 C 0.51007 0.55260 -0.02903
 C1368 C 0.55743 0.52446 -0.00532
 C1369 C 0.49755 0.50492 -0.05761
 O1370 O 0.45785 0.50801 -0.03219
 O1371 O 0.45668 0.48084 -0.01425
 O1372 O 0.46001 0.47878 0.01514
 C1373 C 0.45102 0.47623 0.00080
 O1374 O 0.53939 0.46559 -0.02148
 Zr1375 Zr 0.51744 0.47144 -0.00448
 O1376 O 0.48632 0.46402 0.02875
 O1377 O 0.47703 0.46877 -0.03666
 O1378 O 0.50896 0.45025 -0.02146
 O1379 O 0.53982 0.46063 0.00993
 O1380 O 0.50688 0.45058 0.01068
 C1381 C 0.49499 0.45013 0.02281
 O1382 O 0.46508 0.50235 0.03620
 O1383 O 0.53171 0.53505 0.03123
 O1384 O 0.49429 0.49314 0.04667
 O1385 O 0.52138 0.50800 0.04501
 O1386 O 0.49912 0.55427 0.01552
 O1387 O 0.47027 0.53893 0.01942
 C1388 C 0.50844 0.50081 0.05362
 H1389 H 0.52459 0.53854 -0.00092
 H1390 H 0.46239 0.51020 0.00182
 H1391 H 0.51817 0.47777 0.02875
 H1392 H 0.51103 0.48073 -0.03625
 H1393 H 0.46559 0.55450 -0.01194
 H1394 H 0.45152 0.50004 -0.04073
 H1395 H 0.46576 0.47021 -0.04381
 H1396 H 0.51513 0.43899 -0.01758
 H1397 H 0.49254 0.56520 0.01136
 H1398 H 0.54293 0.53335 0.03841
 H1399 H 0.55454 0.50278 0.03802
 H1400 H 0.53973 0.44733 0.00818
 H1401 H 0.46550 0.55129 0.01729
 H1402 H 0.46094 0.49272 0.04405
 H1403 H 0.54551 0.51052 -0.04894
 H1404 H 0.54246 0.45253 -0.02100
 Zr1405 Zr 0.01451 1.00931 0.47869
 O1406 O 0.03159 0.99762 0.45957
 O1407 O 0.01379 1.03656 0.47139
 O1408 O 0.00223 1.01037 0.45360
 O1409 O 0.04904 1.01207 0.50968
 O1410 O -0.02606 0.99846 0.45759
 O1411 O 0.04185 1.01819 0.48142
 O1412 O -0.00552 1.04959 0.49094
 O1413 O -0.01255 1.01708 0.48359
 O1414 O 0.01473 1.02222 0.50298
 O1415 O -0.00053 0.98515 0.47808
 O1416 O 0.02580 0.99022 0.49615
 Zr1417 Zr -0.01734 0.98705 0.52617
 Zr1418 Zr -0.02724 0.99299 0.48421
 Zr1419 Zr 0.02459 1.00308 0.52049
 Zr1420 Zr -0.01222 1.02901 0.50830
 O1421 O 0.04650 0.98553 0.52723
 O1422 O -0.03699 1.04078 0.49909
 O1423 O -0.00203 1.01111 0.52717
 O1424 O -0.02836 1.00586 0.50854
 O1425 O -0.01771 0.97384 0.50197
 O1426 O 0.00962 0.97924 0.52104
 C1427 C 0.00475 1.05012 0.47755
 C1428 C 0.05306 1.01780 0.49451
 C1429 C -0.01349 1.00488 0.44800
 O1430 O -0.04947 1.01034 0.47805
 O1431 O -0.05100 0.98196 0.49449
 O1432 O -0.04423 0.97691 0.52305
 C1433 C -0.05506 0.97631 0.50967
 O1434 O 0.02845 0.96059 0.47699
 Zr1435 Zr 0.00933 0.96702 0.49667
 O1436 O -0.01760 0.95982 0.53305
 O1437 O -0.03488 0.96991 0.46940
 O1438 O -0.00308 0.94801 0.47948
 O1439 O 0.03224 0.95345 0.50777
 O1440 O -0.00128 0.94588 0.51168
 C1441 C -0.01129 0.94566 0.52531
 O1442 O -0.03501 0.99873 0.54479
 O1443 O 0.03278 1.02637 0.53469
 O1444 O -0.00539 0.98708 0.55148
 O1445 O 0.02326 0.99802 0.54714
 O1446 O 0.00083 1.04972 0.52302
 O1447 O -0.02802 1.03562 0.53045
 C1448 C 0.01072 0.99173 0.55684
 H1449 H 0.02236 1.03320 0.50337
 H1450 H -0.04102 1.00929 0.51160
 H1451 H 0.01472 0.97078 0.52976
 H1452 H 0.00011 0.97915 0.46655
 H1453 H -0.03628 1.05400 0.50127
 H1454 H -0.05754 1.00353 0.46991
 H1455 H -0.04672 0.97280 0.46362
 H1456 H 0.00240 0.93599 0.48196
 H1457 H -0.00562 1.06124 0.52042
 H1458 H 0.04473 1.02343 0.54022
 H1459 H 0.05448 0.99225 0.53551
 H1460 H 0.03068 0.94035 0.50541
 H1461 H -0.03205 1.04842 0.52987
 H1462 H -0.03886 0.98885 0.55249
 H1463 H 0.03542 1.00752 0.45187
 H1464 H 0.03033 0.94732 0.47637
 Zr1465 Zr 0.72985 0.26547 0.22425
 O1466 O 0.73980 0.28184 0.20415
 O1467 O 0.70173 0.26552 0.21889
 O1468 O 0.72600 0.25320 0.19948
 O1469 O 0.73050 0.29987 0.25502
 O1470 O 0.73651 0.22439 0.20342
 O1471 O 0.72152 0.29285 0.22729
 O1472 O 0.69016 0.24733 0.23966
 O1473 O 0.72234 0.23893 0.22990
 O1474 O 0.71925 0.26610 0.24930
 O1475 O 0.75393 0.24990 0.22204
 O1476 O 0.75080 0.27630 0.24028
 Zr1477 Zr 0.75695 0.23356 0.27024
 Zr1478 Zr 0.74655 0.22372 0.22902
 Zr1479 Zr 0.74029 0.27542 0.26542
 Zr1480 Zr 0.71276 0.23962 0.25525
 O1481 O 0.75888 0.29646 0.27126
 O1482 O 0.69981 0.21558 0.24651
 O1483 O 0.73284 0.24925 0.27270
 O1484 O 0.73608 0.22305 0.25412
 O1485 O 0.76776 0.23283 0.24523
 O1486 O 0.76428 0.26010 0.26446
 C1487 C 0.68846 0.25744 0.22622
 C1488 C 0.72332 0.30400 0.24022
 C1489 C 0.72939 0.23696 0.19402
 O1490 O 0.72906 0.20137 0.22508
 O1491 O 0.75954 0.20031 0.23843
 O1492 O 0.76686 0.20674 0.26666
 C1493 C 0.76662 0.19611 0.25324
 O1494 O 0.77860 0.27765 0.21866
 Zr1495 Zr 0.77407 0.25945 0.23928
 O1496 O 0.78513 0.23313 0.27540
 O1497 O 0.76762 0.21614 0.21180
 O1498 O 0.79163 0.24622 0.22143
 O1499 O 0.78855 0.28231 0.24879
 O1500 O 0.79686 0.24955 0.25339
 C1501 C 0.79855 0.23976 0.26704
 O1502 O 0.74726 0.21612 0.28960
 O1503 O 0.71818 0.28446 0.28078
 O1504 O 0.75884 0.24521 0.29548
 O1505 O 0.74721 0.27366 0.29182
 O1506 O 0.69381 0.25296 0.27169
 O1507 O 0.70810 0.22385 0.27763
 C1508 C 0.75414 0.26103 0.30124
 H1509 H 0.70833 0.27400 0.25039
 H1510 H 0.73297 0.21059 0.25750
 H1511 H 0.77355 0.26507 0.27265
 H1512 H 0.75865 0.25019 0.21007
 H1513 H 0.68670 0.21664 0.24946
 H1514 H 0.73489 0.19340 0.21629
 H1515 H 0.76414 0.20434 0.20655
 H1516 H 0.80396 0.25149 0.22298
 H1517 H 0.68181 0.24706 0.26989
 H1518 H 0.72185 0.29616 0.28611
 H1519 H 0.75290 0.30454 0.27987
 H1520 H 0.80150 0.28071 0.24548
 H1521 H 0.69515 0.22009 0.27772
 H1522 H 0.75799 0.21225 0.29669
 H1523 H 0.72907 0.28590 0.19716
 H1524 H 0.79190 0.27909 0.21705
 Zr1525 Zr 0.76933 0.73889 0.72742
 O1526 O 0.76075 0.72260 0.70607
 O1527 O 0.79748 0.74028 0.72340
 O1528 O 0.77265 0.75197 0.70333
 O1529 O 0.77041 0.70364 0.75665
 O1530 O 0.76037 0.77999 0.70808
 O1531 O 0.77880 0.71187 0.72948
 O1532 O 0.80779 0.75860 0.74537
 O1533 O 0.77529 0.76565 0.73453
 O1534 O 0.77958 0.73816 0.75287
 O1535 O 0.74447 0.75314 0.72490
 O1536 O 0.74891 0.72642 0.74211
 Zr1537 Zr 0.73981 0.76798 0.77368
 Zr1538 Zr 0.75025 0.77950 0.73337
 Zr1539 Zr 0.75894 0.72724 0.76773
 Zr1540 Zr 0.78451 0.76480 0.76025
 O1541 O 0.74145 0.70511 0.77179
 O1542 O 0.79619 0.78969 0.75303
 O1543 O 0.76476 0.75362 0.77642
 O1544 O 0.76029 0.78006 0.75893
 O1545 O 0.72945 0.76872 0.74823
 O1546 O 0.73409 0.74123 0.76643
 C1547 C 0.81023 0.74876 0.73167
 C1548 C 0.77772 0.70029 0.74183
 C1549 C 0.76819 0.76805 0.69838
 O1550 O 0.76650 0.80286 0.73116
 O1551 O 0.73570 0.80186 0.74323
 O1552 O 0.72875 0.79444 0.77097
 C1553 C 0.72834 0.80534 0.75798
 O1554 O 0.72206 0.72350 0.71959
 Zr1555 Zr 0.72477 0.74194 0.74082
 O1556 O 0.71143 0.76722 0.77720
 O1557 O 0.72894 0.78637 0.71573
 O1558 O 0.70688 0.75393 0.72227
 O1559 O 0.71106 0.71852 0.74919
 O1560 O 0.70124 0.75110 0.75366
 C1561 C 0.69861 0.76065 0.76747
 O1562 O 0.74817 0.78522 0.79439
 O1563 O 0.78129 0.71901 0.78359
 O1564 O 0.73805 0.75549 0.79825
 O1565 O 0.75170 0.72798 0.79397
 O1566 O 0.80387 0.75212 0.77697
 O1567 O 0.78799 0.78033 0.78344
 C1568 C 0.74381 0.73992 0.80362
 H1569 H 0.79089 0.73081 0.75406
 H1570 H 0.76264 0.79258 0.76300
 H1571 H 0.72492 0.73567 0.77399
 H1572 H 0.73992 0.75286 0.71274
 H1573 H 0.80929 0.78927 0.75644
 H1574 H 0.76033 0.81072 0.72251
 H1575 H 0.73181 0.79845 0.71109
 H1576 H 0.69495 0.74777 0.72297
 H1577 H 0.81555 0.75869 0.77595
 H1578 H 0.77822 0.70699 0.78824
 H1579 H 0.74774 0.69713 0.78027
 H1580 H 0.69817 0.71957 0.74519
 H1581 H 0.80069 0.78479 0.78421
 H1582 H 0.73710 0.78839 0.80110
 H1583 H 0.77182 0.71928 0.69942
 H1584 H 0.70896 0.72096 0.71742
 Zr1585 Zr 0.23415 0.23436 0.77233
 O1586 O 0.24342 0.21566 0.79117
 O1587 O 0.20663 0.23749 0.77873
 O1588 O 0.23319 0.24560 0.79779
 O1589 O 0.22812 0.20269 0.73945
 O1590 O 0.24730 0.27277 0.79503
 O1591 O 0.22277 0.20831 0.76809
 O1592 O 0.19636 0.25951 0.76043
 O1593 O 0.22981 0.26213 0.76861
 O1594 O 0.22175 0.23715 0.74788
 O1595 O 0.26011 0.24629 0.77434
 O1596 O 0.25224 0.22190 0.75464
 Zr1597 Zr 0.26184 0.26544 0.72713
 Zr1598 Zr 0.25575 0.27377 0.76921
 Zr1599 Zr 0.24015 0.22624 0.73018
 Zr1600 Zr 0.21835 0.26472 0.74386
 O1601 O 0.25550 0.20344 0.72183
 O1602 O 0.20946 0.28986 0.75440
 O1603 O 0.23571 0.25369 0.72492
 O1604 O 0.24367 0.27766 0.74476
 O1605 O 0.27434 0.26284 0.75158
 O1606 O 0.26604 0.23776 0.73093
 C1607 C 0.19424 0.24838 0.77296
 C1608 C 0.22192 0.19818 0.75431
 C1609 C 0.23890 0.26090 0.80392
 O1610 O 0.24170 0.29810 0.77536
 O1611 O 0.27068 0.29602 0.76055
 O1612 O 0.27499 0.29046 0.73172
 C1613 C 0.27694 0.30022 0.74561
 O1614 O 0.28059 0.21461 0.77455
 Zr1615 Zr 0.27750 0.23515 0.75565
 O1616 O 0.28961 0.26273 0.72125
 O1617 O 0.27891 0.27692 0.78568
 O1618 O 0.29774 0.24381 0.77382
 O1619 O 0.28851 0.21154 0.74374
 O1620 O 0.30051 0.24336 0.74181
 C1621 C 0.30264 0.25409 0.72898
 O1622 O 0.25309 0.28522 0.70909
 O1623 O 0.21588 0.22128 0.71568
 O1624 O 0.26094 0.25530 0.70126
 O1625 O 0.24444 0.22944 0.70358
 O1626 O 0.19657 0.25521 0.72787
 O1627 O 0.21396 0.28248 0.72269
 C1628 C 0.25276 0.24135 0.69469
 H1629 H 0.20986 0.23091 0.74688
 H1630 H 0.24193 0.29067 0.74224
 H1631 H 0.27402 0.23222 0.72202
 H1632 H 0.26554 0.24449 0.78605
 H1633 H 0.19613 0.29091 0.75212
 H1634 H 0.24913 0.30450 0.78432
 H1635 H 0.27737 0.28865 0.79187
 H1636 H 0.30906 0.23681 0.77145
 H1637 H 0.18557 0.26251 0.73075
 H1638 H 0.21766 0.20966 0.70935
 H1639 H 0.24788 0.19700 0.71306
 H1640 H 0.30172 0.21106 0.74674
 H1641 H 0.20154 0.28783 0.72336
 H1642 H 0.26376 0.28815 0.70187
 H1643 H 0.23274 0.21255 0.79831
 H1644 H 0.29359 0.21084 0.77539
 Zr1645 Zr 0.27592 0.75865 0.27416
 O1646 O 0.26715 0.77751 0.29325
 O1647 O 0.30335 0.75480 0.28133
 O1648 O 0.27608 0.74730 0.29936
 O1649 O 0.28260 0.79075 0.24257
 O1650 O 0.26102 0.72068 0.29534
 O1651 O 0.28797 0.78436 0.27111
 O1652 O 0.31326 0.73276 0.26266
 O1653 O 0.27933 0.73078 0.26991
 O1654 O 0.28856 0.75562 0.25011
 O1655 O 0.24949 0.74774 0.27481
 O1656 O 0.25855 0.77178 0.25606
 Zr1657 Zr 0.24777 0.72875 0.22704
 Zr1658 Zr 0.25291 0.72017 0.26915
 Zr1659 Zr 0.27084 0.76721 0.23194
 Zr1660 Zr 0.29103 0.72795 0.24552
 O1661 O 0.25635 0.79029 0.22305
 O1662 O 0.29903 0.70270 0.25613
 O1663 O 0.27435 0.73961 0.22617
 O1664 O 0.26523 0.71590 0.24511
 O1665 O 0.23495 0.73175 0.25102
 O1666 O 0.24459 0.75657 0.23142
 C1667 C 0.31563 0.74388 0.27546
 C1668 C 0.28866 0.79487 0.25786
 C1669 C 0.26965 0.73224 0.30489
 O1670 O 0.26580 0.69519 0.27495
 O1671 O 0.23672 0.69892 0.25945
 O1672 O 0.23395 0.70399 0.23040
 C1673 C 0.23089 0.69468 0.24412
 O1674 O 0.22989 0.77980 0.27526
 Zr1675 Zr 0.23280 0.75950 0.25570
 O1676 O 0.22030 0.73275 0.21983
 O1677 O 0.22961 0.71790 0.28490
 O1678 O 0.21185 0.75105 0.27243
 O1679 O 0.22315 0.78385 0.24438
 O1680 O 0.20992 0.75279 0.24019
 C1681 C 0.20762 0.74238 0.22685
 O1682 O 0.25618 0.70886 0.20876
 O1683 O 0.29572 0.77166 0.21903
 O1684 O 0.24915 0.73915 0.20158
 O1685 O 0.26722 0.76399 0.20502
 O1686 O 0.31310 0.73661 0.23024
 O1687 O 0.29501 0.70973 0.22434
 C1688 C 0.25810 0.75264 0.19563
 H1689 H 0.30062 0.76156 0.24973
 H1690 H 0.26652 0.70285 0.24236
 H1691 H 0.23699 0.76249 0.22235
 H1692 H 0.24396 0.74971 0.28634
 H1693 H 0.31233 0.70120 0.25432
 H1694 H 0.25803 0.68907 0.28348
 H1695 H 0.23055 0.70604 0.29072
 H1696 H 0.20079 0.75838 0.26976
 H1697 H 0.32387 0.72899 0.23327
 H1698 H 0.29438 0.78331 0.21290
 H1699 H 0.26443 0.79651 0.21486
 H1700 H 0.20991 0.78486 0.24674
 H1701 H 0.30724 0.70399 0.22540
 H1702 H 0.24553 0.70634 0.20102
 H1703 H 0.27787 0.78021 0.30085
 H1704 H 0.21694 0.78371 0.27581
 Zr1705 Zr 0.23844 0.76886 0.72846
 O1706 O 0.24908 0.78452 0.70818
 O1707 O 0.21034 0.77016 0.72329
 O1708 O 0.23369 0.75654 0.70386
 O1709 O 0.24120 0.80365 0.75874
 O1710 O 0.24153 0.72699 0.70831
 O1711 O 0.23123 0.79654 0.73133
 O1712 O 0.19787 0.75353 0.74480
 O1713 O 0.22937 0.74295 0.73464
 O1714 O 0.22827 0.77051 0.75365
 O1715 O 0.26146 0.75182 0.72610
 O1716 O 0.26024 0.77874 0.74400
 Zr1717 Zr 0.26427 0.73626 0.77455
 Zr1718 Zr 0.25255 0.72628 0.73361
 Zr1719 Zr 0.25007 0.77891 0.76930
 Zr1720 Zr 0.22026 0.74462 0.76013
 O1721 O 0.27005 0.79887 0.77437
 O1722 O 0.20574 0.72130 0.75187
 O1723 O 0.24118 0.75338 0.77711
 O1724 O 0.24253 0.72669 0.75891
 O1725 O 0.27454 0.73442 0.74937
 O1726 O 0.27310 0.76218 0.76824
 C1727 C 0.19669 0.76320 0.73103
 C1728 C 0.23366 0.80778 0.74410
 C1729 C 0.23537 0.73992 0.69879
 O1730 O 0.23388 0.70476 0.73054
 O1731 O 0.26450 0.70241 0.74315
 O1732 O 0.27280 0.70896 0.77113
 C1733 C 0.27173 0.69815 0.75787
 O1734 O 0.28759 0.77818 0.72206
 Zr1735 Zr 0.28242 0.76046 0.74291
 O1736 O 0.29242 0.73444 0.77949
 O1737 O 0.27268 0.71734 0.71595
 O1738 O 0.29878 0.74609 0.72481
 O1739 O 0.29868 0.78229 0.75200
 O1740 O 0.30477 0.74903 0.75661
 C1741 C 0.30608 0.73968 0.77058
 O1742 O 0.25388 0.71962 0.79422
 O1743 O 0.22889 0.78958 0.78493
 O1744 O 0.26709 0.74815 0.79962
 O1745 O 0.25716 0.77715 0.79568
 O1746 O 0.20242 0.75928 0.77670
 O1747 O 0.21504 0.72953 0.78281
 C1748 C 0.26331 0.76426 0.80525
 H1749 H 0.21780 0.77898 0.75481
 H1750 H 0.23877 0.71449 0.76256
 H1751 H 0.28278 0.76671 0.77624
 H1752 H 0.26596 0.75161 0.71404
 H1753 H 0.19277 0.72319 0.75498
 H1754 H 0.23901 0.69638 0.72170
 H1755 H 0.26841 0.70567 0.71098
 H1756 H 0.31143 0.75065 0.72607
 H1757 H 0.19007 0.75405 0.77519
 H1758 H 0.23340 0.80109 0.79005
 H1759 H 0.26477 0.80741 0.78298
 H1760 H 0.31141 0.77977 0.74841
 H1761 H 0.20192 0.72643 0.78308
 H1762 H 0.26449 0.71527 0.80122
 H1763 H 0.23852 0.78903 0.70120
 H1764 H 0.30092 0.77886 0.72021
 Zr1765 Zr 0.26666 0.23386 0.22584
 O1766 O 0.25738 0.21772 0.20466
 O1767 O 0.29462 0.23548 0.22099
 O1768 O 0.26930 0.24724 0.20181
 O1769 O 0.26936 0.19863 0.25496
 O1770 O 0.25697 0.27514 0.20713
 O1771 O 0.27645 0.20682 0.22745
 O1772 O 0.30558 0.25366 0.24277
 O1773 O 0.27274 0.26058 0.23304
 O1774 O 0.27774 0.23297 0.25099
 O1775 O 0.24171 0.24813 0.22415
 O1776 O 0.24672 0.22125 0.24099
 Zr1777 Zr 0.23865 0.26245 0.27323
 Zr1778 Zr 0.24769 0.27442 0.23272
 Zr1779 Zr 0.25762 0.22186 0.26631
 Zr1780 Zr 0.28283 0.25953 0.25848
 O1781 O 0.24062 0.19930 0.27013
 O1782 O 0.29416 0.28457 0.25119
 O1783 O 0.26369 0.24812 0.27517
 O1784 O 0.25857 0.27475 0.25798
 O1785 O 0.22738 0.26350 0.24812
 O1786 O 0.23276 0.23580 0.26579
 C1787 C 0.30757 0.24400 0.22889
 C1788 C 0.27620 0.19532 0.23994
 C1789 C 0.26463 0.26337 0.19713
 O1790 O 0.26386 0.29778 0.23016
 O1791 O 0.23360 0.29674 0.24330
 O1792 O 0.22738 0.28887 0.27109
 C1793 C 0.22669 0.30000 0.25829
 O1794 O 0.21891 0.21889 0.21901
 Zr1795 Zr 0.22252 0.23680 0.24054
 O1796 O 0.21054 0.26128 0.27784
 O1797 O 0.22579 0.28150 0.21582
 O1798 O 0.20400 0.24944 0.22298
 O1799 O 0.20929 0.21302 0.24870
 O1800 O 0.19944 0.24523 0.25461
 C1801 C 0.19738 0.25443 0.26875
 O1802 O 0.24774 0.27948 0.29382
 O1803 O 0.28028 0.21399 0.28194
 O1804 O 0.23747 0.24963 0.29768
 O1805 O 0.25029 0.22185 0.29250
 O1806 O 0.30286 0.24677 0.27441
 O1807 O 0.28700 0.27476 0.28174
 C1808 C 0.24265 0.23368 0.30244
 H1809 H 0.28914 0.22571 0.25182
 H1810 H 0.26102 0.28723 0.26210
 H1811 H 0.22384 0.23002 0.27346
 H1812 H 0.23678 0.24798 0.21212
 H1813 H 0.30735 0.28417 0.25422
 H1814 H 0.25739 0.30574 0.22179
 H1815 H 0.22850 0.29363 0.21122
 H1816 H 0.19205 0.24339 0.22401
 H1817 H 0.31443 0.25344 0.27311
 H1818 H 0.27753 0.20185 0.28648
 H1819 H 0.24712 0.19129 0.27845
 H1820 H 0.19626 0.21407 0.24515
 H1821 H 0.29968 0.27931 0.28217
 H1822 H 0.23692 0.28256 0.30092
 H1823 H 0.26822 0.21453 0.19762
 H1824 H 0.20571 0.21673 0.21703
 Zr1825 Zr 0.73199 0.73216 0.27483
 O1826 O 0.74233 0.71189 0.29160
 O1827 O 0.70487 0.73440 0.28283
 O1828 O 0.73251 0.74104 0.30110
 O1829 O 0.72410 0.70331 0.23993
 O1830 O 0.74821 0.76759 0.30034
 O1831 O 0.72062 0.70649 0.26918
 O1832 O 0.69313 0.75726 0.26638
 O1833 O 0.72739 0.76014 0.27380
 O1834 O 0.71816 0.73697 0.25137
 O1835 O 0.75804 0.74388 0.27642
 O1836 O 0.74895 0.72142 0.25523
 Zr1837 Zr 0.75692 0.76740 0.23107
 Zr1838 Zr 0.75340 0.77172 0.27398
 Zr1839 Zr 0.73544 0.72781 0.23187
 Zr1840 Zr 0.71451 0.76479 0.24992
 O1841 O 0.75014 0.70581 0.22093
 O1842 O 0.70599 0.78845 0.26349
 O1843 O 0.73071 0.75568 0.22919
 O1844 O 0.73982 0.77774 0.25063
 O1845 O 0.77093 0.76263 0.25448
 O1846 O 0.76127 0.73943 0.23232
 C1847 C 0.69182 0.74509 0.27811
 C1848 C 0.71907 0.69746 0.25479
 C1849 C 0.73997 0.75499 0.30839
 O1850 O 0.73923 0.79472 0.28356
 O1851 O 0.76706 0.79513 0.26633
 O1852 O 0.76988 0.79230 0.23699
 C1853 C 0.77227 0.80090 0.25152
 O1854 O 0.77870 0.71262 0.27309
 Zr1855 Zr 0.77423 0.73463 0.25599
 O1856 O 0.78429 0.76553 0.22350
 O1857 O 0.77795 0.77404 0.28865
 O1858 O 0.79564 0.74212 0.27340
 O1859 O 0.78424 0.71190 0.24190
 O1860 O 0.79612 0.74369 0.24113
 C1861 C 0.79754 0.75564 0.22924
 O1862 O 0.74678 0.78841 0.21506
 O1863 O 0.71037 0.72424 0.21827
 O1864 O 0.75520 0.75922 0.20462
 O1865 O 0.73859 0.73327 0.20541
 O1866 O 0.69217 0.75693 0.23378
 O1867 O 0.70894 0.78491 0.23103
 C1868 C 0.74695 0.74574 0.19724
 H1869 H 0.70629 0.73070 0.25043
 H1870 H 0.73782 0.79092 0.24937
 H1871 H 0.76873 0.73467 0.22265
 H1872 H 0.76427 0.74093 0.28754
 H1873 H 0.69256 0.78954 0.26200
 H1874 H 0.74731 0.80047 0.29242
 H1875 H 0.77680 0.78512 0.29593
 H1876 H 0.80682 0.73550 0.26978
 H1877 H 0.68125 0.76376 0.23773
 H1878 H 0.71171 0.71315 0.21102
 H1879 H 0.74198 0.70012 0.21210
 H1880 H 0.79761 0.71116 0.24405
 H1881 H 0.69659 0.79009 0.23289
 H1882 H 0.75696 0.79214 0.20756
 H1883 H 0.73211 0.70810 0.29901
 H1884 H 0.79180 0.70916 0.27312
 Zr1885 Zr 0.76638 0.26344 0.77075
 O1886 O 0.75749 0.28151 0.79048
 O1887 O 0.79348 0.25849 0.77838
 O1888 O 0.76599 0.25075 0.79536
 O1889 O 0.77533 0.29635 0.74057
 O1890 O 0.75041 0.22472 0.78973
 O1891 O 0.77908 0.28907 0.76909
 O1892 O 0.80339 0.23718 0.75898
 O1893 O 0.76914 0.23571 0.76537
 O1894 O 0.77960 0.26108 0.74692
 O1895 O 0.73965 0.25320 0.77034
 O1896 O 0.74987 0.27778 0.75279
 Zr1897 Zr 0.73875 0.23624 0.72178
 Zr1898 Zr 0.74248 0.22583 0.76358
 Zr1899 Zr 0.76269 0.27386 0.72885
 Zr1900 Zr 0.78147 0.23357 0.74124
 O1901 O 0.74910 0.29782 0.72088
 O1902 O 0.78852 0.20775 0.75113
 O1903 O 0.76562 0.24646 0.72201
 O1904 O 0.75537 0.22223 0.73972
 O1905 O 0.72533 0.23861 0.74553
 O1906 O 0.73617 0.26394 0.72722
 C1907 C 0.80568 0.24761 0.77233
 C1908 C 0.78088 0.29988 0.75616
 C1909 C 0.75936 0.23541 0.79992
 O1910 O 0.75430 0.20013 0.76846
 O1911 O 0.72580 0.20558 0.75277
 O1912 O 0.72456 0.21146 0.72378
 C1913 C 0.72066 0.20187 0.73711
 O1914 O 0.72084 0.28566 0.77161
 Zr1915 Zr 0.72381 0.26620 0.75130
 O1916 O 0.71145 0.24099 0.71435
 O1917 O 0.71886 0.22368 0.77891
 O1918 O 0.70213 0.25750 0.76706
 O1919 O 0.71524 0.29133 0.74082
 O1920 O 0.70121 0.26096 0.73489
 C1921 C 0.69893 0.25087 0.72133
 O1922 O 0.74704 0.21703 0.70280
 O1923 O 0.78791 0.27804 0.71644
 O1924 O 0.74125 0.24764 0.69679
 O1925 O 0.75951 0.27205 0.70181
 O1926 O 0.80413 0.24229 0.72677
 O1927 O 0.78557 0.21610 0.71951
 C1928 C 0.75063 0.26123 0.69167
 H1929 H 0.79182 0.26670 0.74705
 H1930 H 0.75642 0.20926 0.73651
 H1931 H 0.72899 0.27043 0.71821
 H1932 H 0.73391 0.25477 0.78182
 H1933 H 0.80183 0.20597 0.74957
 H1934 H 0.74616 0.19391 0.77660
 H1935 H 0.71930 0.21156 0.78425
 H1936 H 0.69134 0.26523 0.76442
 H1937 H 0.81464 0.23431 0.72975
 H1938 H 0.78710 0.29002 0.71083
 H1939 H 0.75751 0.30417 0.71310
 H1940 H 0.70196 0.29265 0.74291
 H1941 H 0.79761 0.20998 0.72068
 H1942 H 0.73651 0.21512 0.69475
 H1943 H 0.76808 0.28364 0.79839
 H1944 H 0.70796 0.28983 0.77203
 C1945 C 0.45701 1.00264 0.31385
 C1946 C 0.46713 1.00189 0.32944
 C1947 C 0.45905 0.99574 0.34463
 C1948 C 0.44056 0.99073 0.34410
 C1949 C 0.43047 0.99160 0.32865
 C1950 C 0.43858 0.99732 0.31326
 N1951 N 0.46949 0.99497 0.36055
 N1952 N 0.46281 0.98753 0.37382
 C1953 C 0.47154 0.98687 0.39055
 C1954 C 0.46179 0.97926 0.40404
 C1955 C 0.46837 0.98032 0.42105
 C1956 C 0.48502 0.98884 0.42490
 C1957 C 0.49547 0.99552 0.41126
 C1958 C 0.48868 0.99468 0.39410
 H1959 H 0.46371 1.00701 0.30220
 H1960 H 0.48132 1.00592 0.32965
 H1961 H 0.43382 0.98623 0.35567
 H1962 H 0.41620 0.98786 0.32882
 H1963 H 0.44861 0.97319 0.40144
 H1964 H 0.46009 0.97504 0.43135
 H1965 H 0.50828 1.00228 0.41399
 H1966 H 0.49644 1.00063 0.38381
 C1967 C -0.07223 0.51590 0.83095
 C1968 C -0.06330 0.51660 0.84702
 C1969 C -0.04771 0.50614 0.85021
 C1970 C -0.04095 0.49484 0.83702
 C1971 C -0.04983 0.49413 0.82075
 C1972 C -0.06572 0.50472 0.81731
 N1973 N -0.03947 0.50732 0.86714
 N1974 N -0.02574 0.49800 0.87229
 C1975 C -0.01897 0.50021 0.88979
 C1976 C -0.00532 0.48859 0.89637
 C1977 C 0.00020 0.48980 0.91391
 C1978 C -0.00796 0.50263 0.92505
 C1979 C -0.02103 0.51470 0.91814
 C1980 C -0.02645 0.51353 0.90080
 H1981 H -0.08474 0.52367 0.82975
 H1982 H -0.06876 0.52519 0.85722
 H1983 H -0.02880 0.48668 0.83922
 H1984 H -0.04373 0.48568 0.81083
 H1985 H 0.00064 0.47829 0.88805
 H1986 H 0.01031 0.48032 0.91887
 H1987 H -0.02741 0.52494 0.92627
 H1988 H -0.03682 0.52287 0.89612
 C1989 C 0.04521 -0.00265 0.82458
 C1990 C 0.03612 -0.00000 0.84032
 C1991 C 0.04479 0.00884 0.85430
 C1992 C 0.06261 0.01533 0.85223
 C1993 C 0.07165 0.01275 0.83655
 C1994 C 0.06318 0.00355 0.82258
 N1995 N 0.03570 0.01044 0.87065
 N1996 N 0.04396 0.01682 0.88400
 C1997 C 0.03601 0.01808 0.90085
 C1998 C 0.04753 0.02203 0.91499
 C1999 C 0.04098 0.02156 0.93187
 C2000 C 0.02261 0.01751 0.93494
 C2001 C 0.01072 0.01453 0.92072
 C2002 C 0.01743 0.01461 0.90373
 H2003 H 0.03832 -0.00987 0.81412
 H2004 H 0.02242 -0.00514 0.84173
 H2005 H 0.06963 0.02231 0.86276
 H2006 H 0.08529 0.01810 0.83535
 H2007 H 0.06184 0.02477 0.91293
 H2008 H 0.05040 0.02397 0.94261
 H2009 H -0.00347 0.01125 0.92279
 H2010 H 0.00827 0.01160 0.89295
 C2011 C 0.57532 0.49721 0.33596
 C2012 C 0.56846 0.49900 0.35269
 C2013 C 0.55092 0.50601 0.35540
 C2014 C 0.54017 0.51132 0.34105
 C2015 C 0.54708 0.50962 0.32419
 C2016 C 0.56474 0.50247 0.32148
 N2017 N 0.54469 0.50748 0.37290
 N2018 N 0.52878 0.51286 0.37721
 C2019 C 0.52386 0.51369 0.39521
 C2020 C 0.50574 0.51741 0.39991
 C2021 C 0.50062 0.51704 0.41743
 C2022 C 0.51361 0.51295 0.43048
 C2023 C 0.53188 0.50992 0.42567
 C2024 C 0.53692 0.51026 0.40832
 H2025 H 0.58907 0.49200 0.33438
 H2026 H 0.57690 0.49494 0.36366
 H2027 H 0.52655 0.51678 0.34286
 H2028 H 0.53859 0.51373 0.31329
 H2029 H 0.49551 0.52016 0.38998
 H2030 H 0.48645 0.51945 0.42068
 H2031 H 0.54235 0.50693 0.43531
 H2032 H 0.55105 0.50755 0.40517
 C2033 C 0.56598 0.51838 0.17157
 C2034 C 0.55755 0.51978 0.15530
 C2035 C 0.54315 0.50837 0.15054
 C2036 C 0.53678 0.49581 0.16255
 C2037 C 0.54513 0.49452 0.17902
 C2038 C 0.56006 0.50558 0.18352
 N2039 N 0.53613 0.50944 0.13314
 N2040 N 0.52388 0.49911 0.12672
 C2041 C 0.51846 0.50068 0.10879
 C2042 C 0.50598 0.48844 0.10136
 C2043 C 0.50199 0.48879 0.08347
 C2044 C 0.51058 0.50136 0.07278
 C2045 C 0.52249 0.51404 0.08047
 C2046 C 0.52635 0.51374 0.09820
 H2047 H 0.57728 0.52723 0.17478
 H2048 H 0.56254 0.52953 0.14616
 H2049 H 0.52566 0.48684 0.15911
 H2050 H 0.54037 0.48450 0.18799
 H2051 H 0.49976 0.47830 0.10933
 H2052 H 0.49277 0.47885 0.07791
 H2053 H 0.52916 0.52406 0.07268
 H2054 H 0.53593 0.52347 0.10353
 C2055 C 0.04363 1.00530 0.68654
 C2056 C 0.03365 1.00433 0.67086
 C2057 C 0.04191 0.99779 0.65570
 C2058 C 0.06042 0.99253 0.65639
 C2059 C 0.07036 0.99356 0.67194
 C2060 C 0.06209 0.99976 0.68728
 N2061 N 0.03159 0.99681 0.63969
 N2062 N 0.03875 0.98980 0.62620
 C2063 C 0.03009 0.98875 0.60944
 C2064 C 0.04048 0.98196 0.59574
 C2065 C 0.03366 0.98226 0.57880
 C2066 C 0.01610 0.98916 0.57519
 C2067 C 0.00515 0.99512 0.58900
 C2068 C 0.01218 0.99507 0.60611
 H2069 H 0.03681 1.01004 0.69814
 H2070 H 0.01944 1.00852 0.67055
 H2071 H 0.06729 0.98765 0.64488
 H2072 H 0.08463 0.98958 0.67191
 H2073 H 0.05425 0.97701 0.59816
 H2074 H 0.04233 0.97751 0.56839
 H2075 H -0.00838 1.00062 0.58647
 H2076 H 0.00390 1.00035 0.61657
 C2077 C -0.04955 0.51651 0.68076
 C2078 C -0.04043 0.51787 0.66493
 C2079 C -0.04566 0.50711 0.65064
 C2080 C -0.05997 0.49472 0.65252
 C2081 C -0.06909 0.49343 0.66822
 C2082 C -0.06416 0.50443 0.68247
 N2083 N -0.03681 0.50914 0.63424
 N2084 N -0.04169 0.49934 0.62133
 C2085 C -0.03445 0.50032 0.60422
 C2086 C -0.04180 0.48866 0.59168
 C2087 C -0.03617 0.48934 0.57457
 C2088 C -0.02289 0.50178 0.56945
 C2089 C -0.01506 0.51331 0.58215
 C2090 C -0.02089 0.51266 0.59949
 H2091 H -0.04551 0.52524 0.69151
 H2092 H -0.02946 0.52748 0.66373
 H2093 H -0.06431 0.48614 0.64179
 H2094 H -0.08007 0.48379 0.66921
 H2095 H -0.05220 0.47909 0.59519
 H2096 H -0.04236 0.48004 0.56531
 H2097 H -0.00478 0.52299 0.57863
 H2098 H -0.01502 0.52183 0.60906
 C2099 C 0.43199 -0.02188 0.16593
 C2100 C 0.44062 -0.02275 0.14992
 C2101 C 0.45416 -0.01036 0.14585
 C2102 C 0.45944 0.00275 0.15824
 C2103 C 0.45086 0.00357 0.17440
 C2104 C 0.43681 -0.00857 0.17827
 N2105 N 0.46150 -0.01111 0.12873
 N2106 N 0.47343 -0.00032 0.12305
 C2107 C 0.47924 -0.00179 0.10534
 C2108 C 0.49220 0.01020 0.09891
 C2109 C 0.49704 0.00953 0.08131
 C2110 C 0.48878 -0.00308 0.06992
 C2111 C 0.47617 -0.01533 0.07660
 C2112 C 0.47150 -0.01473 0.09403
 H2113 H 0.42143 -0.03158 0.16863
 H2114 H 0.43648 -0.03293 0.14048
 H2115 H 0.46989 0.01249 0.15532
 H2116 H 0.45477 0.01402 0.18366
 H2117 H 0.49830 0.02026 0.10745
 H2118 H 0.50680 0.01913 0.07654
 H2119 H 0.46971 -0.02539 0.06829
 H2120 H 0.46152 -0.02424 0.09856
 C2121 C 0.33748 0.39882 0.02011
 C2122 C 0.35404 0.40805 0.02172
 C2123 C 0.35849 0.42150 0.00991
 C2124 C 0.34594 0.42584 -0.00345
 C2125 C 0.32931 0.41671 -0.00499
 C2126 C 0.32495 0.40299 0.00668
 N2127 N 0.37587 0.43027 0.01150
 N2128 N 0.38121 0.44139 0.00019
 C2129 C 0.39854 0.45026 0.00115
 C2130 C 0.40371 0.46076 -0.01288
 C2131 C 0.42067 0.46922 -0.01286
 C2132 C 0.43284 0.46752 0.00134
 C2133 C 0.42752 0.45722 0.01564
 C2134 C 0.41052 0.44855 0.01550
 H2135 H 0.33441 0.38848 0.02944
 H2136 H 0.36353 0.40459 0.03210
 H2137 H 0.34901 0.43619 -0.01276
 H2138 H 0.32004 0.42012 -0.01555
 H2139 H 0.39461 0.46221 -0.02399
 H2140 H 0.42423 0.47715 -0.02404
 H2141 H 0.43660 0.45559 0.02674
 H2142 H 0.40679 0.44051 0.02653
 C2143 C -0.16623 0.89402 0.51975
 C2144 C -0.14987 0.90328 0.52281
 C2145 C -0.14596 0.91892 0.51358
 C2146 C -0.15873 0.92526 0.50119
 C2147 C -0.17507 0.91602 0.49811
 C2148 C -0.17903 0.90026 0.50732
 N2149 N -0.12886 0.92788 0.51662
 N2150 N -0.12488 0.94221 0.50856
 C2151 C -0.10780 0.95138 0.51058
 C2152 C -0.10457 0.96609 0.49989
 C2153 C -0.08763 0.97454 0.50016
 C2154 C -0.07352 0.96856 0.51133
 C2155 C -0.07697 0.95428 0.52270
 C2156 C -0.09400 0.94564 0.52225
 H2157 H -0.16895 0.88211 0.52728
 H2158 H -0.14019 0.89822 0.53239
 H2159 H -0.15603 0.93727 0.49378
 H2160 H -0.18449 0.92108 0.48831
 H2161 H -0.11509 0.97068 0.49089
 H2162 H -0.08544 0.98558 0.49133
 H2163 H -0.06630 0.94934 0.53135
 H2164 H -0.09623 0.93429 0.53069
 C2165 C -0.18103 0.07985 1.00308
 C2166 C -0.16468 0.06994 1.00315
 C2167 C -0.14917 0.07659 0.99512
 C2168 C -0.15016 0.09343 0.98697
 C2169 C -0.16645 0.10353 0.98704
 C2170 C -0.18230 0.09697 0.99512
 N2171 N -0.13257 0.06616 0.99596
 N2172 N -0.11826 0.07019 0.98766
 C2173 C -0.10171 0.05971 0.98932
 C2174 C -0.08692 0.06336 0.97859
 C2175 C -0.07046 0.05363 0.98034
 C2176 C -0.06849 0.04023 0.99306
 C2177 C -0.08344 0.03654 1.00371
 C2178 C -0.09988 0.04610 1.00181
 H2179 H -0.19234 0.07428 1.01006
 H2180 H -0.16404 0.05705 1.00966
 H2181 H -0.13833 0.09884 0.98063
 H2182 H -0.16660 0.11620 0.98018
 H2183 H -0.08811 0.07384 0.96893
 H2184 H -0.05918 0.05686 0.97201
 H2185 H -0.08244 0.02626 1.01358
 H2186 H -0.11105 0.04301 1.01030
 C2187 C 0.32000 0.58721 0.51659
 C2188 C 0.33622 0.57711 0.51608
 C2189 C 0.34606 0.57544 0.50070
 C2190 C 0.33934 0.58388 0.48563
 C2191 C 0.32299 0.59391 0.48608
 C2192 C 0.31319 0.59577 0.50161
 N2193 N 0.36278 0.56517 0.50094
 N2194 N 0.37340 0.56373 0.48802
 C2195 C 0.39005 0.55331 0.48911
 C2196 C 0.40233 0.55332 0.47530
 C2197 C 0.41895 0.54374 0.47643
 C2198 C 0.42351 0.53389 0.49144
 C2199 C 0.41094 0.53369 0.50511
 C2200 C 0.39447 0.54327 0.50398
 H2201 H 0.31268 0.58819 0.52868
 H2202 H 0.34122 0.57062 0.52777
 H2203 H 0.34671 0.58278 0.47357
 H2204 H 0.31818 0.60048 0.47437
 H2205 H 0.39913 0.56099 0.46374
 H2206 H 0.42830 0.54425 0.46569
 H2207 H 0.41387 0.52626 0.51687
 H2208 H 0.38524 0.54292 0.51482
 C2209 C 0.15747 0.60439 0.49180
 C2210 C 0.14088 0.59517 0.49171
 C2211 C 0.13721 0.58245 0.50448
 C2212 C 0.15052 0.57886 0.51736
 C2213 C 0.16731 0.58787 0.51728
 C2214 C 0.17090 0.60080 0.50453
 N2215 N 0.12016 0.57304 0.50354
 N2216 N 0.11397 0.56356 0.51582
 C2217 C 0.09706 0.55397 0.51376
 C2218 C 0.08860 0.54660 0.52826
 C2219 C 0.07214 0.53707 0.52637
 C2220 C 0.06412 0.53446 0.50984
 C2221 C 0.07270 0.54189 0.49536
 C2222 C 0.08888 0.55160 0.49730
 H2223 H 0.15992 0.61414 0.48174
 H2224 H 0.13081 0.59796 0.48164
 H2225 H 0.14803 0.56897 0.52727
 H2226 H 0.17742 0.58492 0.52728
 H2227 H 0.09473 0.54829 0.54104
 H2228 H 0.06589 0.53150 0.53776
 H2229 H 0.06686 0.54029 0.48245
 H2230 H 0.09511 0.55706 0.48585
 C2231 C 0.67204 0.08506 -0.01883
 C2232 C 0.65640 0.07435 -0.01875
 C2233 C 0.64613 0.07276 -0.00368
 C2234 C 0.65176 0.08201 0.01148
 C2235 C 0.66747 0.09272 0.01145
 C2236 C 0.67778 0.09441 -0.00374
 N2237 N 0.63007 0.06177 -0.00429
 N2238 N 0.61964 0.05970 0.00863
 C2239 C 0.60359 0.04868 0.00736
 C2240 C 0.59208 0.04733 0.02166
 C2241 C 0.57608 0.03705 0.02054
 C2242 C 0.57132 0.02789 0.00502
 C2243 C 0.58309 0.02911 -0.00922
 C2244 C 0.59900 0.03937 -0.00807
 H2245 H 0.67978 0.08583 -0.03066
 H2246 H 0.65224 0.06725 -0.03051
 H2247 H 0.64402 0.08103 0.02330
 H2248 H 0.67139 0.09989 0.02323
 H2249 H 0.59542 0.05443 0.03365
 H2250 H 0.56733 0.03648 0.03173
 H2251 H 0.57996 0.02226 -0.02138
 H2252 H 0.60764 0.04010 -0.01932
 C2253 C 0.67064 0.90695 0.47386
 C2254 C 0.65465 0.91718 0.47133
 C2255 C 0.64836 0.92891 0.48438
 C2256 C 0.65837 0.93032 0.50006
 C2257 C 0.67426 0.91999 0.50266
 C2258 C 0.68056 0.90814 0.48961
 N2259 N 0.63162 0.93883 0.48167
 N2260 N 0.62607 0.95053 0.49269
 C2261 C 0.60912 0.96027 0.49094
 C2262 C 0.60462 0.97292 0.50382
 C2263 C 0.58769 0.98173 0.50350
 C2264 C 0.57480 0.97808 0.49021
 C2265 C 0.57958 0.96580 0.47689
 C2266 C 0.59662 0.95691 0.47726
 H2267 H 0.67504 0.89780 0.46364
 H2268 H 0.64706 0.91588 0.45922
 H2269 H 0.65382 0.93925 0.51039
 H2270 H 0.68169 0.92135 0.51485
 H2271 H 0.61413 0.97563 0.51441
 H2272 H 0.58456 0.99115 0.51393
 H2273 H 0.56994 0.96258 0.46654
 H2274 H 0.59981 0.94714 0.46715
 C2275 C 0.17420 0.40579 0.97350
 C2276 C 0.15792 0.41565 0.97111
 C2277 C 0.15083 0.42629 0.98463
 C2278 C 0.16033 0.42698 1.00063
 C2279 C 0.17650 0.41706 1.00307
 C2280 C 0.18361 0.40629 0.98957
 N2281 N 0.13390 0.43598 0.98205
 N2282 N 0.12769 0.44647 0.99383
 C2283 C 0.11071 0.45622 0.99251
 C2284 C 0.10583 0.46742 1.00642
 C2285 C 0.08908 0.47650 1.00641
 C2286 C 0.07667 0.47461 0.99238
 C2287 C 0.08175 0.46369 0.97811
 C2288 C 0.09867 0.45449 0.97818
 H2289 H 0.17922 0.39749 0.96290
 H2290 H 0.15076 0.41492 0.95873
 H2291 H 0.15521 0.43507 1.01133
 H2292 H 0.18352 0.41791 1.01551
 H2293 H 0.11499 0.46889 1.01751
 H2294 H 0.08578 0.48488 1.01758
 H2295 H 0.07249 0.46189 0.96715
 H2296 H 0.10218 0.44586 0.96727
 C2297 C -0.00342 0.30903 0.43773
 C2298 C -0.00294 0.32543 0.44696
 C2299 C -0.00794 0.34156 0.43879
 C2300 C -0.01370 0.34114 0.42132
 C2301 C -0.01412 0.32485 0.41211
 C2302 C -0.00890 0.30862 0.42016
 N2303 N -0.00660 0.35831 0.44817
 N2304 N -0.01133 0.37311 0.44108
 C2305 C -0.00987 0.39025 0.44966
 C2306 C -0.01641 0.40553 0.44101
 C2307 C -0.01509 0.42258 0.44878
 C2308 C -0.00707 0.42463 0.46538
 C2309 C -0.00039 0.40921 0.47402
 C2310 C -0.00182 0.39211 0.46623
 H2311 H 0.00056 0.29671 0.44430
 H2312 H 0.00150 0.32560 0.46043
 H2313 H -0.01756 0.35343 0.41466
 H2314 H -0.01800 0.32509 0.39850
 H2315 H -0.02256 0.40420 0.42820
 H2316 H -0.02031 0.43416 0.44173
 H2317 H 0.00581 0.41033 0.48683
 H2318 H 0.00339 0.38042 0.47309
 C2319 C 0.50687 -0.19491 -0.06397
 C2320 C 0.50610 -0.17891 -0.05422
 C2321 C 0.49470 -0.16468 -0.05953
 C2322 C 0.48319 -0.16699 -0.07412
 C2323 C 0.48386 -0.18301 -0.08381
 C2324 C 0.49611 -0.19689 -0.07911
 N2325 N 0.49621 -0.14758 -0.05087
 N2326 N 0.48795 -0.13361 -0.05655
 C2327 C 0.49024 -0.11622 -0.04863
 C2328 C 0.48088 -0.10145 -0.05572
 C2329 C 0.48344 -0.08412 -0.04881
 C2330 C 0.49549 -0.08134 -0.03465
 C2331 C 0.50484 -0.09627 -0.02754
 C2332 C 0.50224 -0.11358 -0.03447
 H2333 H 0.51628 -0.20552 -0.06000
 H2334 H 0.51498 -0.17726 -0.04296
 H2335 H 0.47421 -0.15618 -0.07843
 H2336 H 0.47555 -0.18412 -0.09551
 H2337 H 0.47168 -0.10336 -0.06671
 H2338 H 0.47597 -0.07295 -0.05456
 H2339 H 0.51416 -0.09463 -0.01660
 H2340 H 0.50970 -0.12483 -0.02884
 C2341 C -0.02455 -0.16994 1.08235
 C2342 C -0.02533 -0.15496 1.07148
 C2343 C -0.00928 -0.14786 1.06482
 C2344 C 0.00753 -0.15639 1.06839
 C2345 C 0.00832 -0.17145 1.07904
 C2346 C -0.00763 -0.17810 1.08650
 N2347 N -0.01012 -0.13131 1.05550
 N2348 N 0.00423 -0.12214 1.05321
 C2349 C 0.00388 -0.10521 1.04457
 C2350 C 0.01901 -0.09395 1.04645
 C2351 C 0.01860 -0.07666 1.03946
 C2352 C 0.00314 -0.07061 1.03016
 C2353 C -0.01178 -0.08221 1.02768
 C2354 C -0.01150 -0.09938 1.03500
 H2355 H -0.03706 -0.17472 1.08796
 H2356 H -0.03836 -0.14844 1.06881
 H2357 H 0.02010 -0.15127 1.06317
 H2358 H 0.02148 -0.17777 1.08158
 H2359 H 0.03092 -0.09839 1.05379
 H2360 H 0.03034 -0.06800 1.04138
 H2361 H -0.02385 -0.07779 1.02055
 H2362 H -0.02330 -0.10798 1.03336
 C2363 C 0.48803 0.31446 0.55767
 C2364 C 0.48859 0.32991 0.54745
 C2365 C 0.50178 0.34312 0.55077
 C2366 C 0.51515 0.34026 0.56373
 C2367 C 0.51463 0.32486 0.57390
 C2368 C 0.50073 0.31212 0.57133
 N2369 N 0.50034 0.36003 0.54208
 N2370 N 0.51030 0.37329 0.54665
 C2371 C 0.50835 0.39072 0.53912
 C2372 C 0.51891 0.40484 0.54587
 C2373 C 0.51638 0.42238 0.53983
 C2374 C 0.50322 0.42602 0.52683
 C2375 C 0.49287 0.41169 0.51981
 C2376 C 0.49537 0.39416 0.52595
 H2377 H 0.47715 0.30484 0.55548
 H2378 H 0.47822 0.33202 0.53749
 H2379 H 0.52561 0.35020 0.56642
 H2380 H 0.52479 0.32314 0.58412
 H2381 H 0.52890 0.40228 0.55607
 H2382 H 0.52470 0.43308 0.54538
 H2383 H 0.48267 0.41405 0.50975
 H2384 H 0.48702 0.38340 0.52059
 C2385 C 0.46513 1.16637 0.59644
 C2386 C 0.46265 1.14987 0.58774
 C2387 C 0.46739 1.14802 0.57027
 C2388 C 0.47367 1.16311 0.56128
 C2389 C 0.47616 1.17954 0.56993
 C2390 C 0.47242 1.18116 0.58770
 N2391 N 0.46747 1.13045 0.56241
 N2392 N 0.47378 1.12794 0.54727
 C2393 C 0.47550 1.11040 0.53957
 C2394 C 0.48399 1.10879 0.52351
 C2395 C 0.48771 1.09178 0.51638
 C2396 C 0.48289 1.07606 0.52526
 C2397 C 0.47382 1.07774 0.54118
 C2398 C 0.47020 1.09479 0.54832
 H2399 H 0.46219 1.16732 0.61016
 H2400 H 0.45783 1.13831 0.59479
 H2401 H 0.47729 1.16206 0.54773
 H2402 H 0.48145 1.19087 0.56285
 H2403 H 0.48818 1.12078 0.51672
 H2404 H 0.49457 1.09096 0.50403
 H2405 H 0.46987 1.06590 0.54831
 H2406 H 0.46364 1.09576 0.56081
 C2407 C 0.01515 0.68703 1.07435
 C2408 C 0.01485 0.67117 1.06438
 C2409 C 0.00514 0.65618 1.06996
 C2410 C -0.00420 0.65708 1.08574
 C2411 C -0.00386 0.67288 1.09575
 C2412 C 0.00577 0.68801 1.09012
 N2413 N 0.00505 0.64015 1.05947
 N2414 N -0.00406 0.62634 1.06362
 C2415 C -0.00391 0.61020 1.05331
 C2416 C -0.01386 0.59534 1.05881
 C2417 C -0.01334 0.57910 1.04942
 C2418 C -0.00278 0.57754 1.03435
 C2419 C 0.00691 0.59266 1.02869
 C2420 C 0.00635 0.60885 1.03809
 H2421 H 0.02279 0.69848 1.06982
 H2422 H 0.02215 0.67055 1.05225
 H2423 H -0.01180 0.64562 1.09032
 H2424 H -0.01141 0.67339 1.10774
 H2425 H -0.02182 0.59628 1.07053
 H2426 H -0.02096 0.56772 1.05413
 H2427 H 0.01513 0.59195 1.01713
 H2428 H 0.01412 0.62022 1.03358
 C2429 C 0.54000 0.65775 -0.10824
 C2430 C 0.53983 0.64103 -0.09994
 C2431 C 0.53205 0.63952 -0.08354
 C2432 C 0.52516 0.65504 -0.07515
 C2433 C 0.52540 0.67168 -0.08334
 C2434 C 0.53253 0.67317 -0.10008
 N2435 N 0.53034 0.62209 -0.07595
 N2436 N 0.52092 0.62011 -0.06238
 C2437 C 0.51844 0.60303 -0.05440
 C2438 C 0.50701 0.60218 -0.04008
 C2439 C 0.50409 0.58575 -0.03195
 C2440 C 0.51268 0.56987 -0.03802
 C2441 C 0.52415 0.57077 -0.05249
 C2442 C 0.52698 0.58724 -0.06066
 H2443 H 0.54566 0.65858 -0.12111
 H2444 H 0.54522 0.62915 -0.10650
 H2445 H 0.51913 0.65426 -0.06243
 H2446 H 0.51924 0.68323 -0.07684
 H2447 H 0.50036 0.61432 -0.03522
 H2448 H 0.49524 0.58555 -0.02081
 H2449 H 0.53095 0.55878 -0.05751
 H2450 H 0.53585 0.58763 -0.07177
 C2451 C 0.03051 1.16463 0.40848
 C2452 C 0.03257 1.14838 0.41746
 C2453 C 0.01724 1.13918 0.42317
 C2454 C -0.00025 1.14614 0.41946
 C2455 C -0.00238 1.16211 0.41031
 C2456 C 0.01293 1.17178 0.40467
 N2457 N 0.01945 1.12290 0.43282
 N2458 N 0.00620 1.11699 0.44154
 C2459 C 0.00691 1.10053 0.45096
 C2460 C -0.00733 1.09698 0.46224
 C2461 C -0.00780 1.08073 0.47111
 C2462 C 0.00591 1.06757 0.46861
 C2463 C 0.02032 1.07117 0.45730
 C2464 C 0.02089 1.08764 0.44859
 H2465 H 0.04274 1.17115 0.40406
 H2466 H 0.04614 1.14304 0.42012
 H2467 H -0.01235 1.13926 0.42373
 H2468 H -0.01617 1.16719 0.40847
 H2469 H -0.01821 1.10683 0.46403
 H2470 H -0.01914 1.07831 0.47963
 H2471 H 0.03109 1.06128 0.45520
 H2472 H 0.03196 1.09015 0.43980
 C2473 C 0.75331 0.67374 0.91737
 C2474 C 0.75140 0.68031 0.90054
 C2475 C 0.74720 0.69851 0.89767
 C2476 C 0.74488 0.71024 0.91198
 C2477 C 0.74678 0.70365 0.92894
 C2478 C 0.75110 0.68530 0.93182
 N2479 N 0.74565 0.70446 0.88007
 N2480 N 0.74188 0.72061 0.87559
 C2481 C 0.74098 0.72531 0.85753
 C2482 C 0.73786 0.74332 0.85265
 C2483 C 0.73810 0.74819 0.83507
 C2484 C 0.74155 0.73506 0.82212
 C2485 C 0.74405 0.71694 0.82711
 C2486 C 0.74376 0.71213 0.84453
 H2487 H 0.75623 0.65948 0.91905
 H2488 H 0.75317 0.67113 0.88962
 H2489 H 0.74167 0.72440 0.91005
 H2490 H 0.74507 0.71294 0.93978
 H2491 H 0.73563 0.75364 0.86250
 H2492 H 0.73615 0.76225 0.83167
 H2493 H 0.74656 0.70640 0.81753
 H2494 H 0.74606 0.69810 0.84782
 C2495 C 0.25184 0.20181 0.43162
 C2496 C 0.25087 0.21145 0.41605
 C2497 C 0.24538 0.20283 0.40056
 C2498 C 0.24113 0.18432 0.40082
 C2499 C 0.24213 0.17472 0.41627
 C2500 C 0.24732 0.18334 0.43191
 N2501 N 0.24448 0.21281 0.38467
 N2502 N 0.23889 0.20520 0.37070
 C2503 C 0.23812 0.21370 0.35411
 C2504 C 0.23351 0.20293 0.33973
 C2505 C 0.23427 0.20983 0.32304
 C2506 C 0.23943 0.22781 0.32037
 C2507 C 0.24313 0.23903 0.33483
 C2508 C 0.24265 0.23196 0.35168
 H2509 H 0.25576 0.20886 0.44347
 H2510 H 0.25428 0.22567 0.41607
 H2511 H 0.23707 0.17721 0.38905
 H2512 H 0.23893 0.16045 0.41595
 H2513 H 0.22994 0.18889 0.34146
 H2514 H 0.23125 0.20094 0.31211
 H2515 H 0.24725 0.25291 0.33304
 H2516 H 0.24621 0.24053 0.36268
 C2517 C 0.74244 0.32911 0.41383
 C2518 C 0.74495 0.32186 0.39725
 C2519 C 0.74827 0.30338 0.39486
 C2520 C 0.74896 0.29201 0.40934
 C2521 C 0.74648 0.29927 0.42605
 C2522 C 0.74320 0.31794 0.42846
 N2523 N 0.75087 0.29684 0.37751
 N2524 N 0.75365 0.28033 0.37335
 C2525 C 0.75583 0.27530 0.35543
 C2526 C 0.75623 0.25700 0.35041
 C2527 C 0.75658 0.25207 0.33274
 C2528 C 0.75649 0.26547 0.31992
 C2529 C 0.75707 0.28374 0.32513
 C2530 C 0.75675 0.28859 0.34261
 H2531 H 0.74037 0.34356 0.41521
 H2532 H 0.74446 0.33074 0.38617
 H2533 H 0.75147 0.27764 0.40774
 H2534 H 0.74707 0.29032 0.43707
 H2535 H 0.75563 0.24658 0.36014
 H2536 H 0.75613 0.23789 0.32910
 H2537 H 0.75729 0.29441 0.31562
 H2538 H 0.75674 0.30283 0.34605
 C2539 C 0.24756 0.82828 0.91972
 C2540 C 0.24985 0.82162 0.90288
 C2541 C 0.25701 0.80427 0.90000
 C2542 C 0.26195 0.79351 0.91426
 C2543 C 0.25980 0.80026 0.93122
 C2544 C 0.25252 0.81772 0.93410
 N2545 N 0.25914 0.79829 0.88240
 N2546 N 0.26418 0.78243 0.87783
 C2547 C 0.26580 0.77789 0.85972
 C2548 C 0.26781 0.75978 0.85437
 C2549 C 0.26775 0.75516 0.83662
 C2550 C 0.26573 0.76868 0.82399
 C2551 C 0.26463 0.78686 0.82951
 C2552 C 0.26463 0.79140 0.84709
 H2553 H 0.24225 0.84189 0.92147
 H2554 H 0.24608 0.83005 0.89198
 H2555 H 0.26755 0.78006 0.91229
 H2556 H 0.26370 0.79182 0.94207
 H2557 H 0.26882 0.74921 0.86395
 H2558 H 0.26864 0.74104 0.83281
 H2559 H 0.26332 0.79769 0.82022
 H2560 H 0.26335 0.80552 0.85078
 C2561 C 0.22938 0.80633 0.07822
 C2562 C 0.22883 0.79614 0.09337
 C2563 C 0.24476 0.78846 0.10034
 C2564 C 0.26127 0.79048 0.09154
 C2565 C 0.26186 0.80045 0.07622
 C2566 C 0.24599 0.80899 0.06943
 N2567 N 0.24400 0.77963 0.11680
 N2568 N 0.25844 0.77504 0.12509
 C2569 C 0.25814 0.76716 0.14199
 C2570 C 0.27440 0.76669 0.15171
 C2571 C 0.27440 0.76127 0.16899
 C2572 C 0.25816 0.75577 0.17676
 C2573 C 0.24198 0.75518 0.16675
 C2574 C 0.24191 0.76106 0.14949
 H2575 H 0.21656 0.81172 0.07330
 H2576 H 0.21596 0.79455 0.09993
 H2577 H 0.27383 0.78468 0.09668
 H2578 H 0.27506 0.80222 0.07041
 H2579 H 0.28697 0.77133 0.14609
 H2580 H 0.28705 0.76179 0.17645
 H2581 H 0.22928 0.75111 0.17254
 H2582 H 0.22917 0.76125 0.14217
 C2583 C 0.72867 0.30366 0.56715
 C2584 C 0.72770 0.29421 0.58274
 C2585 C 0.74282 0.29319 0.59396
 C2586 C 0.75917 0.30144 0.58918
 C2587 C 0.76022 0.31091 0.57365
 C2588 C 0.74493 0.31248 0.56233
 N2589 N 0.74109 0.28450 0.61042
 N2590 N 0.75436 0.28417 0.62126
 C2591 C 0.75333 0.27655 0.63822
 C2592 C 0.76828 0.27884 0.64945
 C2593 C 0.76746 0.27329 0.66662
 C2594 C 0.75166 0.26509 0.67292
 C2595 C 0.73688 0.26197 0.66145
 C2596 C 0.73764 0.26782 0.64418
 H2597 H 0.71624 0.30472 0.55948
 H2598 H 0.71495 0.28804 0.58631
 H2599 H 0.77117 0.30071 0.59752
 H2600 H 0.77331 0.31653 0.57048
 H2601 H 0.78045 0.28549 0.64499
 H2602 H 0.77914 0.27571 0.67511
 H2603 H 0.72454 0.25572 0.66601
 H2604 H 0.72591 0.26589 0.63566
 C2605 C 0.22814 0.18350 0.57831
 C2606 C 0.22790 0.19250 0.59431
 C2607 C 0.24152 0.20490 0.59882
 C2608 C 0.25520 0.20872 0.58683
 C2609 C 0.25537 0.19980 0.57066
 C2610 C 0.24201 0.18684 0.56641
 N2611 N 0.24140 0.21249 0.61599
 N2612 N 0.25350 0.22314 0.62217
 C2613 C 0.25256 0.22921 0.63993
 C2614 C 0.26631 0.24024 0.64711
 C2615 C 0.26626 0.24490 0.66486
 C2616 C 0.25250 0.23837 0.67564
 C2617 C 0.23844 0.22788 0.66819
 C2618 C 0.23844 0.22340 0.65062
 H2619 H 0.21755 0.17376 0.57530
 H2620 H 0.21727 0.18948 0.60345
 H2621 H 0.26588 0.21826 0.59008
 H2622 H 0.26627 0.20255 0.56173
 H2623 H 0.27730 0.24485 0.63905
 H2624 H 0.27724 0.25301 0.67026
 H2625 H 0.22747 0.22286 0.67605
 H2626 H 0.22754 0.21499 0.64550
 C2627 C 0.72610 0.69589 0.07619
 C2628 C 0.72489 0.70492 0.09215
 C2629 C 0.74005 0.71359 0.09947
 C2630 C 0.75646 0.71369 0.09029
 C2631 C 0.75776 0.70465 0.07424
 C2632 C 0.74269 0.69511 0.06701
 N2633 N 0.73854 0.72099 0.11667
 N2634 N 0.75124 0.72959 0.12455
 C2635 C 0.74917 0.73547 0.14227
 C2636 C 0.76303 0.74551 0.15055
 C2637 C 0.76200 0.74979 0.16833
 C2638 C 0.74718 0.74381 0.17809
 C2639 C 0.73303 0.73435 0.16958
 C2640 C 0.73395 0.73030 0.15189
 H2641 H 0.71374 0.68982 0.07106
 H2642 H 0.71209 0.70490 0.09902
 H2643 H 0.76842 0.72024 0.09578
 H2644 H 0.77098 0.70436 0.06818
 H2645 H 0.77486 0.74957 0.14334
 H2646 H 0.77314 0.75701 0.17458
 H2647 H 0.72137 0.72968 0.17671
 H2648 H 0.72302 0.72257 0.14589
 C2649 C 0.15150 0.58475 0.26494
 C2650 C 0.16046 0.60135 0.26450
 C2651 C 0.17338 0.60474 0.25175
 C2652 C 0.17752 0.59111 0.23952
 C2653 C 0.16877 0.57432 0.24013
 C2654 C 0.15556 0.57104 0.25278
 N2655 N 0.18229 0.62195 0.25191
 N2656 N 0.19187 0.62760 0.23943
 C2657 C 0.20096 0.64475 0.24049
 C2658 C 0.20903 0.65187 0.22568
 C2659 C 0.21837 0.66838 0.22660
 C2660 C 0.22003 0.67785 0.24248
 C2661 C 0.21175 0.67070 0.25724
 C2662 C 0.20225 0.65442 0.25625
 H2663 H 0.14148 0.58254 0.27489
 H2664 H 0.15723 0.61168 0.27408
 H2665 H 0.18757 0.59337 0.22962
 H2666 H 0.17207 0.56402 0.23054
 H2667 H 0.20816 0.64459 0.21343
 H2668 H 0.22465 0.67348 0.21502
 H2669 H 0.21265 0.67768 0.26966
 H2670 H 0.19619 0.64926 0.26791
 C2671 C 0.64069 0.09169 0.75348
 C2672 C 0.64857 0.10876 0.75235
 C2673 C 0.66433 0.11128 0.74273
 C2674 C 0.67247 0.09632 0.73443
 C2675 C 0.66485 0.07905 0.73584
 C2676 C 0.64864 0.07640 0.74526
 N2677 N 0.67213 0.12900 0.74238
 N2678 N 0.68403 0.13377 0.73147
 C2679 C 0.69197 0.15148 0.73230
 C2680 C 0.70251 0.15760 0.71851
 C2681 C 0.71119 0.17445 0.71957
 C2682 C 0.70976 0.18522 0.73465
 C2683 C 0.69887 0.17919 0.74827
 C2684 C 0.68997 0.16260 0.74707
 H2685 H 0.62876 0.09052 0.76149
 H2686 H 0.64234 0.12014 0.75908
 H2687 H 0.68479 0.09794 0.72702
 H2688 H 0.67137 0.06801 0.72891
 H2689 H 0.70419 0.14919 0.70703
 H2690 H 0.71960 0.17870 0.70894
 H2691 H 0.69745 0.18723 0.76003
 H2692 H 0.68196 0.15824 0.75794
 C2693 C 0.84010 0.07894 0.27656
 C2694 C 0.83082 0.09551 0.27832
 C2695 C 0.82039 0.10246 0.26450
 C2696 C 0.81925 0.09247 0.24887
 C2697 C 0.82859 0.07598 0.24706
 C2698 C 0.83922 0.06905 0.26084
 N2699 N 0.81142 0.11974 0.26641
 N2700 N 0.80132 0.12609 0.25430
 C2701 C 0.79230 0.14337 0.25510
 C2702 C 0.78130 0.14842 0.24100
 C2703 C 0.77279 0.16536 0.24065
 C2704 C 0.77509 0.17779 0.25448
 C2705 C 0.78594 0.17260 0.26888
 C2706 C 0.79451 0.15550 0.26919
 H2707 H 0.84833 0.07407 0.28735
 H2708 H 0.83188 0.10304 0.29042
 H2709 H 0.81128 0.09746 0.23796
 H2710 H 0.82744 0.06861 0.23488
 H2711 H 0.77948 0.13922 0.23008
 H2712 H 0.76451 0.16874 0.22936
 H2713 H 0.78805 0.18184 0.27971
 H2714 H 0.80301 0.15187 0.28025
 C2715 C 0.34584 0.58090 0.77772
 C2716 C 0.33682 0.59756 0.77986
 C2717 C 0.32494 0.60408 0.76692
 C2718 C 0.32212 0.59360 0.75176
 C2719 C 0.33120 0.57702 0.74956
 C2720 C 0.34323 0.57049 0.76248
 N2721 N 0.31623 0.62144 0.76919
 N2722 N 0.30472 0.62740 0.75806
 C2723 C 0.29596 0.64479 0.75928
 C2724 C 0.28347 0.64956 0.74622
 C2725 C 0.27532 0.66667 0.74612
 C2726 C 0.27949 0.67954 0.75917
 C2727 C 0.29172 0.67460 0.77262
 C2728 C 0.29995 0.65734 0.77266
 H2729 H 0.35516 0.57634 0.78782
 H2730 H 0.33920 0.60548 0.79157
 H2731 H 0.31302 0.59828 0.74153
 H2732 H 0.32873 0.56925 0.73778
 H2733 H 0.28026 0.64002 0.73587
 H2734 H 0.26590 0.66988 0.73561
 H2735 H 0.29529 0.68420 0.78281
 H2736 H 0.30961 0.65394 0.78291
 C2737 C 0.32755 0.42730 0.76377
 C2738 C 0.31789 0.41107 0.76325
 C2739 C 0.32368 0.39658 0.75284
 C2740 C 0.33947 0.39847 0.74294
 C2741 C 0.34934 0.41461 0.74359
 C2742 C 0.34359 0.42946 0.75399
 N2743 N 0.31350 0.38009 0.75292
 N2744 N 0.31651 0.36694 0.74249
 C2745 C 0.30632 0.35045 0.74323
 C2746 C 0.30838 0.33729 0.73013
 C2747 C 0.29870 0.32102 0.73068
 C2748 C 0.28695 0.31755 0.74453
 C2749 C 0.28497 0.33080 0.75765
 C2750 C 0.29446 0.34708 0.75697
 H2751 H 0.32270 0.43779 0.77250
 H2752 H 0.30583 0.40973 0.77111
 H2753 H 0.34422 0.38745 0.73475
 H2754 H 0.36110 0.41550 0.73533
 H2755 H 0.31751 0.33965 0.71947
 H2756 H 0.30060 0.31107 0.72042
 H2757 H 0.27599 0.32863 0.76847
 H2758 H 0.29264 0.35696 0.76730
 C2759 C 0.84943 0.91492 0.23534
 C2760 C 0.84058 0.89829 0.23343
 C2761 C 0.82683 0.89342 0.24486
 C2762 C 0.82179 0.90563 0.25815
 C2763 C 0.83051 0.92235 0.25997
 C2764 C 0.84454 0.92712 0.24868
 N2765 N 0.81840 0.87602 0.24290
 N2766 N 0.80718 0.87024 0.25398
 C2767 C 0.79856 0.85292 0.25263
 C2768 C 0.78799 0.84729 0.26648
 C2769 C 0.77955 0.83045 0.26602
 C2770 C 0.78133 0.81882 0.25153
 C2771 C 0.79178 0.82456 0.23745
 C2772 C 0.80043 0.84146 0.23803
 H2773 H 0.86001 0.91830 0.22628
 H2774 H 0.84458 0.88908 0.22310
 H2775 H 0.81118 0.90225 0.26716
 H2776 H 0.82653 0.93139 0.27044
 H2777 H 0.78640 0.85599 0.27778
 H2778 H 0.77151 0.82660 0.27705
 H2779 H 0.79344 0.81593 0.22612
 H2780 H 0.80852 0.84555 0.22712
 C2781 C 0.66426 0.92490 0.73333
 C2782 C 0.67380 0.90847 0.73404
 C2783 C 0.67774 0.90031 0.74992
 C2784 C 0.67231 0.90901 0.76530
 C2785 C 0.66291 0.92564 0.76468
 C2786 C 0.65843 0.93385 0.74864
 N2787 N 0.68732 0.88328 0.74979
 N2788 N 0.69027 0.87373 0.76323
 C2789 C 0.70003 0.85678 0.76202
 C2790 C 0.70159 0.84557 0.77654
 C2791 C 0.71079 0.82883 0.77542
 C2792 C 0.71871 0.82310 0.75972
 C2793 C 0.71720 0.83453 0.74525
 C2794 C 0.70797 0.85108 0.74637
 H2795 H 0.66212 0.93074 0.72066
 H2796 H 0.67814 0.90202 0.72208
 H2797 H 0.67523 0.90294 0.77777
 H2798 H 0.65850 0.93149 0.77686
 H2799 H 0.69555 0.84974 0.78871
 H2800 H 0.71167 0.82040 0.78681
 H2801 H 0.72305 0.83066 0.73291
 H2802 H 0.70706 0.85942 0.73493
 C2803 C 0.16803 0.42335 0.23864
 C2804 C 0.17773 0.40699 0.23884
 C2805 C 0.17830 0.39635 0.25374
 C2806 C 0.16921 0.40245 0.26868
 C2807 C 0.15954 0.41893 0.26854
 C2808 C 0.15871 0.42950 0.25344
 N2809 N 0.18804 0.37944 0.25307
 N2810 N 0.18886 0.36828 0.26554
 C2811 C 0.19872 0.35144 0.26390
 C2812 C 0.19878 0.33903 0.27754
 C2813 C 0.20797 0.32234 0.27594
 C2814 C 0.21729 0.31780 0.26061
 C2815 C 0.21731 0.33042 0.24706
 C2816 C 0.20816 0.34699 0.24867
 H2817 H 0.16789 0.43126 0.22690
 H2818 H 0.18474 0.40249 0.22726
 H2819 H 0.16946 0.39445 0.28036
 H2820 H 0.15239 0.42322 0.28010
 H2821 H 0.19157 0.34224 0.28937
 H2822 H 0.20763 0.31296 0.28661
 H2823 H 0.22433 0.32751 0.23506
 H2824 H 0.20841 0.35627 0.23791
 C2825 C 0.07709 0.22323 0.83851
 C2826 C 0.09318 0.22173 0.82902
 C2827 C 0.10316 0.23717 0.82520
 C2828 C 0.09726 0.25413 0.83140
 C2829 C 0.08142 0.25562 0.84108
 C2830 C 0.07098 0.24024 0.84453
 N2831 N 0.11933 0.23548 0.81515
 N2832 N 0.12630 0.24926 0.80818
 C2833 C 0.14287 0.24831 0.79871
 C2834 C 0.14808 0.26336 0.78922
 C2835 C 0.16462 0.26325 0.78047
 C2836 C 0.17633 0.24812 0.78138
 C2837 C 0.17099 0.23295 0.79082
 C2838 C 0.15431 0.23299 0.79934
 H2839 H 0.06929 0.21115 0.84084
 H2840 H 0.09768 0.20858 0.82435
 H2841 H 0.10498 0.26621 0.82888
 H2842 H 0.07743 0.26884 0.84596
 H2843 H 0.13934 0.27525 0.78874
 H2844 H 0.16844 0.27515 0.77337
 H2845 H 0.17972 0.22107 0.79165
 H2846 H 0.15055 0.22125 0.80670
 C2847 C 0.58523 0.71526 0.35552
 C2848 C 0.60119 0.71456 0.34581
 C2849 C 0.60266 0.72498 0.33087
 C2850 C 0.58767 0.73542 0.32518
 C2851 C 0.57171 0.73606 0.33481
 C2852 C 0.57050 0.72633 0.35029
 N2853 N 0.61985 0.72576 0.32238
 N2854 N 0.62249 0.73668 0.31007
 C2855 C 0.63982 0.73824 0.30199
 C2856 C 0.64181 0.75092 0.28887
 C2857 C 0.65873 0.75328 0.28114
 C2858 C 0.67396 0.74291 0.28647
 C2859 C 0.67186 0.73012 0.29966
 C2860 C 0.65494 0.72781 0.30737
 H2861 H 0.58455 0.70750 0.36732
 H2862 H 0.61266 0.70642 0.35026
 H2863 H 0.58848 0.74355 0.31363
 H2864 H 0.56066 0.74487 0.33058
 H2865 H 0.63022 0.75908 0.28471
 H2866 H 0.65985 0.76319 0.27099
 H2867 H 0.68328 0.72188 0.30407
 H2868 H 0.65371 0.71796 0.31756
 C2869 C 0.57921 0.27375 0.14547
 C2870 C 0.59545 0.27612 0.15490
 C2871 C 0.59728 0.26929 0.17169
 C2872 C 0.58245 0.26058 0.17926
 C2873 C 0.56621 0.25824 0.16988
 C2874 C 0.56455 0.26450 0.15278
 N2875 N 0.61464 0.27027 0.18032
 N2876 N 0.61745 0.26303 0.19501
 C2877 C 0.63504 0.26302 0.20327
 C2878 C 0.63741 0.25371 0.21882
 C2879 C 0.65473 0.25212 0.22648
 C2880 C 0.66997 0.25989 0.21864
 C2881 C 0.66742 0.26968 0.20324
 C2882 C 0.65010 0.27121 0.19559
 H2883 H 0.57835 0.27858 0.13227
 H2884 H 0.60684 0.28279 0.14894
 H2885 H 0.58353 0.25527 0.19227
 H2886 H 0.55501 0.25135 0.17592
 H2887 H 0.62587 0.24733 0.22481
 H2888 H 0.65619 0.24457 0.23839
 H2889 H 0.67884 0.27589 0.19689
 H2890 H 0.64856 0.27848 0.18354
 C2891 C 0.08927 0.76277 0.64891
 C2892 C 0.10607 0.76473 0.65741
 C2893 C 0.10683 0.76981 0.67490
 C2894 C 0.09061 0.77363 0.68377
 C2895 C 0.07376 0.77202 0.67519
 C2896 C 0.07289 0.76629 0.65772
 N2897 N 0.12422 0.77022 0.68344
 N2898 N 0.12596 0.77066 0.69988
 C2899 C 0.14364 0.77042 0.70794
 C2900 C 0.14531 0.76595 0.72547
 C2901 C 0.16258 0.76380 0.73315
 C2902 C 0.17840 0.76642 0.72339
 C2903 C 0.17663 0.77164 0.70597
 C2904 C 0.15941 0.77353 0.69828
 H2905 H 0.08917 0.75796 0.63559
 H2906 H 0.11853 0.76167 0.65052
 H2907 H 0.09097 0.77775 0.69730
 H2908 H 0.06145 0.77520 0.68227
 H2909 H 0.13322 0.76354 0.73302
 H2910 H 0.16356 0.75991 0.74665
 H2911 H 0.18856 0.77375 0.69812
 H2912 H 0.15843 0.77711 0.68471
 C2913 C 0.92267 0.72252 0.66011
 C2914 C 0.90647 0.72148 0.66934
 C2915 C 0.90371 0.73238 0.68398
 C2916 C 0.91768 0.74385 0.68985
 C2917 C 0.93392 0.74493 0.68070
 C2918 C 0.93661 0.73466 0.66535
 N2919 N 0.88622 0.73238 0.69195
 N2920 N 0.88238 0.74287 0.70461
 C2921 C 0.86451 0.74348 0.71182
 C2922 C 0.86100 0.75541 0.72561
 C2923 C 0.84339 0.75707 0.73222
 C2924 C 0.82899 0.74683 0.72503
 C2925 C 0.83267 0.73467 0.71131
 C2926 C 0.85026 0.73300 0.70478
 H2927 H 0.92353 0.71459 0.64827
 H2928 H 0.89570 0.71264 0.66467
 H2929 H 0.91594 0.75221 0.70134
 H2930 H 0.94439 0.75372 0.68597
 H2931 H 0.87189 0.76360 0.73108
 H2932 H 0.84102 0.76653 0.74281
 H2933 H 0.82195 0.72649 0.70554
 H2934 H 0.85264 0.72371 0.69407
 C2935 C 0.41578 0.22264 0.15084
 C2936 C 0.40005 0.22115 0.16069
 C2937 C 0.39824 0.23111 0.17611
 C2938 C 0.41260 0.24218 0.18197
 C2939 C 0.42838 0.24362 0.17217
 C2940 C 0.42997 0.23410 0.15637
 N2941 N 0.38127 0.23057 0.18497
 N2942 N 0.37821 0.24015 0.19844
 C2943 C 0.36080 0.24014 0.20656
 C2944 C 0.35790 0.25137 0.22100
 C2945 C 0.34065 0.25253 0.22847
 C2946 C 0.32602 0.24244 0.22150
 C2947 C 0.32913 0.23090 0.20719
 C2948 C 0.34634 0.22976 0.19979
 H2949 H 0.41679 0.21499 0.13881
 H2950 H 0.38903 0.21258 0.15609
 H2951 H 0.41145 0.25002 0.19386
 H2952 H 0.43905 0.25268 0.17663
 H2953 H 0.36896 0.25947 0.22628
 H2954 H 0.33872 0.26151 0.23951
 H2955 H 0.31822 0.22285 0.20156
 H2956 H 0.34825 0.22097 0.18862
 C2957 C 0.43295 0.77477 0.34163
 C2958 C 0.41738 0.77515 0.33091
 C2959 C 0.40928 0.75898 0.32531
 C2960 C 0.41706 0.74237 0.33029
 C2961 C 0.43241 0.74198 0.34115
 C2962 C 0.44032 0.75816 0.34707
 N2963 N 0.39261 0.75965 0.31547
 N2964 N 0.38577 0.74545 0.30868
 C2965 C 0.36852 0.74563 0.29982
 C2966 C 0.36307 0.73020 0.29053
 C2967 C 0.34590 0.72964 0.28242
 C2968 C 0.33384 0.74446 0.28380
 C2969 C 0.33937 0.75995 0.29315
 C2970 C 0.35663 0.76058 0.30102
 H2971 H 0.43886 0.78739 0.34612
 H2972 H 0.41143 0.78802 0.32718
 H2973 H 0.41101 0.72969 0.32616
 H2974 H 0.43803 0.72904 0.34509
 H2975 H 0.37212 0.71857 0.28965
 H2976 H 0.34196 0.71752 0.27534
 H2977 H 0.33041 0.77163 0.29429
 H2978 H 0.36054 0.77260 0.30826
 C2979 C 0.91904 0.27383 0.84537
 C2980 C 0.90234 0.27396 0.83643
 C2981 C 0.89850 0.26064 0.82393
 C2982 C 0.91170 0.24735 0.82007
 C2983 C 0.92841 0.24721 0.82898
 C2984 C 0.93213 0.26032 0.84185
 N2985 N 0.88090 0.26054 0.81576
 N2986 N 0.87636 0.24852 0.80463
 C2987 C 0.85857 0.24833 0.79684
 C2988 C 0.85460 0.23538 0.78400
 C2989 C 0.83733 0.23496 0.77610
 C2990 C 0.82375 0.24749 0.78105
 C2991 C 0.82776 0.26034 0.79411
 C2992 C 0.84502 0.26078 0.80192
 H2993 H 0.92168 0.28420 0.85510
 H2994 H 0.89224 0.28428 0.83943
 H2995 H 0.90899 0.23690 0.81044
 H2996 H 0.93817 0.23652 0.82618
 H2997 H 0.86496 0.22568 0.78006
 H2998 H 0.83467 0.22488 0.76610
 H2999 H 0.81764 0.27022 0.79820
 H3000 H 0.84777 0.27087 0.81189
 C3001 C 0.57748 1.00015 0.66326
 C3002 C 0.56975 1.00211 0.64675
 C3003 C 0.55304 1.01111 0.64447
 C3004 C 0.54380 1.01788 0.65907
 C3005 C 0.55163 1.01603 0.67572
 C3006 C 0.56874 1.00740 0.67794
 N3007 N 0.54645 1.01360 0.62708
 N3008 N 0.53075 1.01991 0.62294
 C3009 C 0.52595 1.02203 0.60492
 C3010 C 0.50756 1.02325 0.59963
 C3011 C 0.50281 1.02318 0.58188
 C3012 C 0.51647 1.02205 0.56922
 C3013 C 0.53489 1.02209 0.57469
 C3014 C 0.53956 1.02201 0.59226
 H3015 H 0.59042 0.99305 0.66450
 H3016 H 0.57692 0.99674 0.63560
 H3017 H 0.53086 1.02493 0.65756
 H3018 H 0.54461 1.02184 0.68676
 H3019 H 0.49690 1.02343 0.60923
 H3020 H 0.48850 1.02320 0.57811
 H3021 H 0.54582 1.02150 0.56537
 H3022 H 0.55388 1.02145 0.59595
 C3023 C 0.08527 0.50518 1.16591
 C3024 C 0.07760 0.50742 1.14943
 C3025 C 0.05926 0.51210 1.14730
 C3026 C 0.04840 0.51442 1.16198
 C3027 C 0.05603 0.51226 1.17867
 C3028 C 0.07485 0.50776 1.18116
 N3029 N 0.05238 0.51425 1.12996
 N3030 N 0.03578 0.51759 1.12586
 C3031 C 0.03060 0.51926 1.10787
 C3032 C 0.01208 0.51990 1.10286
 C3033 C 0.00701 0.51981 1.08518
 C3034 C 0.02047 0.51903 1.07232
 C3035 C 0.03897 0.51933 1.07749
 C3036 C 0.04396 0.51944 1.09497
 H3037 H 0.09929 0.50054 1.16624
 H3038 H 0.08602 0.50527 1.13813
 H3039 H 0.03411 0.51812 1.16059
 H3040 H 0.04709 0.51507 1.18940
 H3041 H 0.00160 0.51987 1.11263
 H3042 H -0.00734 0.51961 1.08160
 H3043 H 0.04972 0.51905 1.06797
 H3044 H 0.05836 0.51924 1.09837
 C3045 C -0.08895 -0.00169 1.16651
 C3046 C -0.08158 -0.00349 1.14999
 C3047 C -0.06358 -0.00930 1.14782
 C3048 C -0.05280 -0.01323 1.16251
 C3049 C -0.06013 -0.01146 1.17918
 C3050 C -0.07849 -0.00577 1.18157
 N3051 N -0.05680 -0.01075 1.13051
 N3052 N -0.04053 -0.01546 1.12676
 C3053 C -0.03485 -0.01617 1.10898
 C3054 C -0.01642 -0.01923 1.10504
 C3055 C -0.01047 -0.01835 1.08782
 C3056 C -0.02294 -0.01436 1.07429
 C3057 C -0.04153 -0.01217 1.07827
 C3058 C -0.04741 -0.01305 1.09536
 H3059 H -0.10273 0.00362 1.16725
 H3060 H -0.08995 -0.00015 1.13874
 H3061 H -0.03880 -0.01780 1.16111
 H3062 H -0.05146 -0.01531 1.19002
 H3063 H -0.00657 -0.02174 1.11538
 H3064 H 0.00394 -0.02008 1.08520
 H3065 H -0.05158 -0.00927 1.06820
 H3066 H -0.06176 -0.01084 1.09793
 C3067 C 0.41211 0.50049 0.66600
 C3068 C 0.41899 0.49860 0.64928
 C3069 C 0.43569 0.48981 0.64646
 C3070 C 0.44560 0.48289 0.66069
 C3071 C 0.43866 0.48467 0.67751
 C3072 C 0.42175 0.49343 0.68035
 N3073 N 0.44196 0.48816 0.62898
 N3074 N 0.45752 0.48176 0.62478
 C3075 C 0.46262 0.48075 0.60685
 C3076 C 0.48085 0.47731 0.60238
 C3077 C 0.48625 0.47801 0.58497
 C3078 C 0.47340 0.48208 0.57178
 C3079 C 0.45498 0.48453 0.57632
 C3080 C 0.44967 0.48392 0.59359
 H3081 H 0.39928 0.50765 0.66768
 H3082 H 0.41128 0.50408 0.63841
 H3083 H 0.45854 0.47600 0.65879
 H3084 H 0.44635 0.47889 0.68822
 H3085 H 0.49099 0.47473 0.61244
 H3086 H 0.50054 0.47605 0.58194
 H3087 H 0.44462 0.48748 0.56655
 H3088 H 0.43544 0.48635 0.59658
 C3089 C 0.44333 0.52534 -0.17728
 C3090 C 0.45355 0.52759 -0.16191
 C3091 C 0.46222 0.51276 -0.15411
 C3092 C 0.46109 0.49567 -0.16224
 C3093 C 0.45097 0.49342 -0.17763
 C3094 C 0.44167 0.50815 -0.18519
 N3095 N 0.47094 0.51509 -0.13744
 N3096 N 0.47706 0.50160 -0.12897
 C3097 C 0.48475 0.50307 -0.11181
 C3098 C 0.48758 0.48716 -0.10250
 C3099 C 0.49263 0.48789 -0.08499
 C3100 C 0.49540 0.50459 -0.07659
 C3101 C 0.49364 0.52060 -0.08610
 C3102 C 0.48816 0.51987 -0.10364
 H3103 H 0.43618 0.53694 -0.18259
 H3104 H 0.45420 0.54081 -0.15576
 H3105 H 0.46774 0.48398 -0.15655
 H3106 H 0.45029 0.48007 -0.18353
 H3107 H 0.48498 0.47416 -0.10862
 H3108 H 0.49381 0.47541 -0.07780
 H3109 H 0.49552 0.53361 -0.07975
 H3110 H 0.48607 0.53236 -0.11063
 C3111 C -0.06144 1.02542 0.32466
 C3112 C -0.05216 1.02772 0.34056
 C3113 C -0.04517 1.01274 0.34948
 C3114 C -0.04685 0.99544 0.34188
 C3115 C -0.05593 0.99314 0.32594
 C3116 C -0.06372 1.00804 0.31728
 N3117 N -0.03752 1.01516 0.36662
 N3118 N -0.03473 1.00163 0.37640
 C3119 C -0.02795 1.00293 0.39390
 C3120 C -0.02965 0.98778 0.40437
 C3121 C -0.02464 0.98858 0.42186
 C3122 C -0.01737 1.00447 0.42917
 C3123 C -0.01487 1.01956 0.41857
 C3124 C -0.02038 1.01889 0.40100
 H3125 H -0.06741 1.03720 0.31850
 H3126 H -0.05103 1.04113 0.34625
 H3127 H -0.04140 0.98363 0.34840
 H3128 H -0.05700 0.97963 0.32049
 H3129 H -0.03541 0.97543 0.39904
 H3130 H -0.02656 0.97674 0.42976
 H3131 H -0.00930 1.03195 0.42399
 H3132 H -0.01889 1.03075 0.39306
 C3133 C 0.04583 0.48619 0.31541
 C3134 C 0.03617 0.48356 0.33076
 C3135 C 0.04520 0.48424 0.34691
 C3136 C 0.06409 0.48765 0.34750
 C3137 C 0.07366 0.49050 0.33225
 C3138 C 0.06466 0.48987 0.31604
 N3139 N 0.03509 0.48204 0.36259
 N3140 N 0.04347 0.48047 0.37709
 C3141 C 0.03473 0.47930 0.39354
 C3142 C 0.04592 0.47762 0.40826
 C3143 C 0.03855 0.47867 0.42479
 C3144 C 0.01969 0.48138 0.42701
 C3145 C 0.00820 0.48204 0.41222
 C3146 C 0.01570 0.48112 0.39552
 H3147 H 0.03856 0.48571 0.30307
 H3148 H 0.02163 0.48102 0.33007
 H3149 H 0.07145 0.48834 0.35977
 H3150 H 0.08819 0.49307 0.33313
 H3151 H 0.06057 0.47617 0.40690
 H3152 H 0.04775 0.47791 0.43591
 H3153 H -0.00637 0.48418 0.41358
 H3154 H 0.00679 0.48245 0.38426
 C3155 C 0.58260 -0.00729 -0.16858
 C3156 C 0.57568 -0.01057 -0.15217
 C3157 C 0.55752 -0.01574 -0.15020
 C3158 C 0.54627 -0.01794 -0.16500
 C3159 C 0.55327 -0.01480 -0.18158
 C3160 C 0.57147 -0.00922 -0.18348
 N3161 N 0.55109 -0.01816 -0.13291
 N3162 N 0.53465 -0.02166 -0.12904
 C3163 C 0.52962 -0.02323 -0.11115
 C3164 C 0.51117 -0.02458 -0.10664
 C3165 C 0.50606 -0.02426 -0.08911
 C3166 C 0.51941 -0.02251 -0.07588
 C3167 C 0.53791 -0.02209 -0.08051
 C3168 C 0.54295 -0.02245 -0.09787
 H3169 H 0.59675 -0.00333 -0.16964
 H3170 H 0.58449 -0.00889 -0.14085
 H3171 H 0.53217 -0.02194 -0.16376
 H3172 H 0.54440 -0.01638 -0.19285
 H3173 H 0.50072 -0.02527 -0.11671
 H3174 H 0.49170 -0.02461 -0.08595
 H3175 H 0.54859 -0.02102 -0.07069
 H3176 H 0.55732 -0.02163 -0.10087
 C3177 C 0.67052 0.60267 -0.02176
 C3178 C 0.65449 0.59268 -0.02402
 C3179 C 0.64996 0.57929 -0.01218
 C3180 C 0.66191 0.57576 0.00187
 C3181 C 0.67800 0.58569 0.00410
 C3182 C 0.68241 0.59940 -0.00759
 N3183 N 0.63296 0.56992 -0.01440
 N3184 N 0.62770 0.55830 -0.00352
 C3185 C 0.61055 0.54912 -0.00507
 C3186 C 0.60540 0.53783 0.00839
 C3187 C 0.58835 0.52953 0.00805
 C3188 C 0.57606 0.53221 -0.00592
 C3189 C 0.58147 0.54311 -0.01977
 C3190 C 0.59856 0.55159 -0.01931
 H3191 H 0.67364 0.61295 -0.03113
 H3192 H 0.64546 0.59554 -0.03491
 H3193 H 0.65873 0.56550 0.01123
 H3194 H 0.68675 0.58295 0.01523
 H3195 H 0.61451 0.53579 0.01941
 H3196 H 0.58471 0.52115 0.01888
 H3197 H 0.57230 0.54550 -0.03067
 H3198 H 0.60226 0.56024 -0.02991
 C3199 C 0.16253 1.10084 0.48215
 C3200 C 0.14643 1.09104 0.47959
 C3201 C 0.14380 1.07477 0.48825
 C3202 C 0.15765 1.06827 0.49946
 C3203 C 0.17379 1.07802 0.50199
 C3204 C 0.17638 1.09449 0.49346
 N3205 N 0.12679 1.06546 0.48591
 N3206 N 0.12332 1.05105 0.49407
 C3207 C 0.10620 1.04184 0.49249
 C3208 C 0.10292 1.02751 0.50366
 C3209 C 0.08585 1.01925 0.50379
 C3210 C 0.07172 1.02503 0.49253
 C3211 C 0.07528 1.03886 0.48069
 C3212 C 0.09237 1.04731 0.48075
 H3213 H 0.16421 1.11332 0.47517
 H3214 H 0.13590 1.09622 0.47092
 H3215 H 0.15594 1.05575 0.50637
 H3216 H 0.18411 1.07284 0.51089
 H3217 H 0.11346 1.02313 0.51272
 H3218 H 0.08358 1.00858 0.51300
 H3219 H 0.06462 1.04367 0.47196
 H3220 H 0.09463 1.05834 0.47194
 C3221 C 0.18146 -0.07465 1.00334
 C3222 C 0.16595 -0.06355 1.00466
 C3223 C 0.15007 -0.06987 1.01230
 C3224 C 0.14983 -0.08756 1.01864
 C3225 C 0.16522 -0.09881 1.01714
 C3226 C 0.18142 -0.09263 1.00941
 N3227 N 0.13422 -0.05832 1.01277
 N3228 N 0.11994 -0.06221 1.02118
 C3229 C 0.10388 -0.05091 1.02075
 C3230 C 0.08913 -0.05501 1.03137
 C3231 C 0.07279 -0.04503 1.03025
 C3232 C 0.07088 -0.03090 1.01828
 C3233 C 0.08591 -0.02652 1.00799
 C3234 C 0.10225 -0.03636 1.00926
 H3235 H 0.19311 -0.06921 0.99677
 H3236 H 0.16624 -0.04999 0.99953
 H3237 H 0.13770 -0.09276 1.02463
 H3238 H 0.16444 -0.11215 1.02266
 H3239 H 0.09017 -0.06620 1.04027
 H3240 H 0.06144 -0.04881 1.03828
 H3241 H 0.08492 -0.01569 0.99867
 H3242 H 0.11342 -0.03290 1.00089
 C3243 C 0.67762 0.42750 0.49668
 C3244 C 0.66191 0.43835 0.49784
 C3245 C 0.64702 0.43290 0.50759
 C3246 C 0.64808 0.41642 0.51638
 C3247 C 0.66368 0.40542 0.51512
 C3248 C 0.67879 0.41060 0.50508
 N3249 N 0.63078 0.44393 0.50771
 N3250 N 0.61718 0.44055 0.51725
 C3251 C 0.60064 0.45113 0.51661
 C3252 C 0.58656 0.44732 0.52810
 C3253 C 0.56975 0.45648 0.52692
 C3254 C 0.56667 0.46954 0.51403
 C3255 C 0.58103 0.47367 0.50282
 C3256 C 0.59785 0.46462 0.50412
 H3257 H 0.68837 0.43211 0.48838
 H3258 H 0.66121 0.45097 0.49086
 H3259 H 0.63678 0.41192 0.52410
 H3260 H 0.66391 0.39308 0.52251
 H3261 H 0.58848 0.43694 0.53777
 H3262 H 0.55896 0.45288 0.53568
 H3263 H 0.57918 0.48368 0.49278
 H3264 H 0.60848 0.46783 0.49507
 C3265 C -0.16723 0.39137 0.47870
 C3266 C -0.15059 0.39998 0.47596
 C3267 C -0.14815 0.41803 0.48103
 C3268 C -0.16270 0.42744 0.48891
 C3269 C -0.17937 0.41885 0.49164
 C3270 C -0.18187 0.40068 0.48657
 N3271 N -0.13071 0.42629 0.47852
 N3272 N -0.12755 0.44247 0.48344
 C3273 C -0.11009 0.45090 0.48179
 C3274 C -0.10740 0.46765 0.48996
 C3275 C -0.09015 0.47553 0.49039
 C3276 C -0.07523 0.46693 0.48237
 C3277 C -0.07809 0.45059 0.47328
 C3278 C -0.09541 0.44251 0.47311
 H3279 H -0.16854 0.37730 0.47488
 H3280 H -0.13949 0.39251 0.47001
 H3281 H -0.16119 0.44142 0.49298
 H3282 H -0.19039 0.42650 0.49752
 H3283 H -0.11857 0.47429 0.49663
 H3284 H -0.08833 0.48816 0.49746
 H3285 H -0.06678 0.44362 0.46714
 H3286 H -0.09719 0.42956 0.46664
 C3287 C 0.32662 -0.08889 0.01472
 C3288 C 0.34282 -0.07913 0.01355
 C3289 C 0.35291 -0.07947 -0.00174
 C3290 C 0.34652 -0.08969 -0.01604
 C3291 C 0.33024 -0.09942 -0.01492
 C3292 C 0.32012 -0.09918 0.00051
 N3293 N 0.36959 -0.06946 -0.00217
 N3294 N 0.38013 -0.06927 -0.01520
 C3295 C 0.39682 -0.05916 -0.01471
 C3296 C 0.40892 -0.06037 -0.02864
 C3297 C 0.42575 -0.05139 -0.02791
 C3298 C 0.43072 -0.04101 -0.01318
 C3299 C 0.41823 -0.03944 0.00052
 C3300 C 0.40154 -0.04839 -0.00022
 H3301 H 0.31906 -0.08819 0.02669
 H3302 H 0.34758 -0.07128 0.02465
 H3303 H 0.35411 -0.09020 -0.02799
 H3304 H 0.32570 -0.10736 -0.02604
 H3305 H 0.40547 -0.06859 -0.03992
 H3306 H 0.43503 -0.05294 -0.03866
 H3307 H 0.42146 -0.03151 0.01204
 H3308 H 0.39245 -0.04708 0.01069
 C3309 C 0.32401 1.08977 0.52495
 C3310 C 0.34009 1.07961 0.52711
 C3311 C 0.34945 1.07287 0.51268
 C3312 C 0.34255 1.07655 0.49595
 C3313 C 0.32663 1.08694 0.49375
 C3314 C 0.31711 1.09372 0.50822
 N3315 N 0.36610 1.06277 0.51525
 N3316 N 0.37325 1.05371 0.50290
 C3317 C 0.39027 1.04409 0.50455
 C3318 C 0.39580 1.03311 0.49069
 C3319 C 0.41296 1.02477 0.49091
 C3320 C 0.42516 1.02738 0.50501
 C3321 C 0.41932 1.03790 0.51928
 C3322 C 0.40197 1.04618 0.51907
 H3323 H 0.31692 1.09439 0.53643
 H3324 H 0.34521 1.07687 0.54008
 H3325 H 0.34964 1.07167 0.48456
 H3326 H 0.32204 1.08995 0.48068
 H3327 H 0.38691 1.03138 0.47945
 H3328 H 0.41687 1.01674 0.47970
 H3329 H 0.42836 1.04026 0.53031
 H3330 H 0.39798 1.05467 0.52994
 C3331 C -0.17045 0.59750 1.02949
 C3332 C -0.15392 0.58792 1.03134
 C3333 C -0.14460 0.58156 1.01672
 C3334 C -0.15201 0.58503 1.00014
 C3335 C -0.16839 0.59474 0.99826
 C3336 C -0.17790 0.60110 1.01290
 N3337 N -0.12761 0.57186 1.01889
 N3338 N -0.12010 0.56389 1.00607
 C3339 C -0.10294 0.55442 1.00707
 C3340 C -0.09709 0.54508 0.99229
 C3341 C -0.08004 0.53654 0.99205
 C3342 C -0.06824 0.53723 1.00665
 C3343 C -0.07431 0.54628 1.02174
 C3344 C -0.09156 0.55482 1.02196
 H3345 H -0.17746 0.60191 1.04109
 H3346 H -0.14843 0.58535 1.04421
 H3347 H -0.14503 0.58044 0.98858
 H3348 H -0.17340 0.59755 0.98527
 H3349 H -0.10571 0.54465 0.98075
 H3350 H -0.07599 0.52968 0.98020
 H3351 H -0.06558 0.54713 1.03318
 H3352 H -0.09581 0.56202 1.03355
 C3353 C 0.03321 0.66816 0.58258
 C3354 C 0.03381 0.65097 0.57487
 C3355 C 0.02142 0.64641 0.56158
 C3356 C 0.00894 0.65950 0.55547
 C3357 C 0.00831 0.67663 0.56316
 C3358 C 0.02014 0.68100 0.57706
 N3359 N 0.02086 0.62817 0.55528
 N3360 N 0.00905 0.62333 0.54393
 C3361 C 0.00742 0.60510 0.53789
 C3362 C -0.00547 0.60131 0.52487
 C3363 C -0.00790 0.58363 0.51890
 C3364 C 0.00252 0.56938 0.52599
 C3365 C 0.01544 0.57321 0.53919
 C3366 C 0.01791 0.59098 0.54508
 H3367 H 0.04266 0.67126 0.59311
 H3368 H 0.04353 0.64101 0.57962
 H3369 H -0.00077 0.65631 0.54518
 H3370 H -0.00206 0.68613 0.55877
 H3371 H -0.01369 0.61211 0.51935
 H3372 H -0.01798 0.58116 0.50875
 H3373 H 0.02376 0.56255 0.54482
 H3374 H 0.02790 0.59365 0.55527
 C3375 C 0.50168 0.17794 0.04809
 C3376 C 0.50304 0.16126 0.03955
 C3377 C 0.51302 0.14710 0.04706
 C3378 C 0.52245 0.15000 0.06284
 C3379 C 0.52119 0.16670 0.07135
 C3380 C 0.51041 0.18065 0.06425
 N3381 N 0.51211 0.12959 0.03915
 N3382 N 0.51936 0.11574 0.04614
 C3383 C 0.51729 0.09812 0.03863
 C3384 C 0.52530 0.08329 0.04698
 C3385 C 0.52252 0.06580 0.04052
 C3386 C 0.51159 0.06292 0.02558
 C3387 C 0.50377 0.07792 0.01712
 C3388 C 0.50659 0.09535 0.02358
 H3389 H 0.49347 0.18858 0.04227
 H3390 H 0.49575 0.15913 0.02738
 H3391 H 0.53026 0.13921 0.06887
 H3392 H 0.52793 0.16843 0.08386
 H3393 H 0.53351 0.08530 0.05863
 H3394 H 0.52883 0.05455 0.04728
 H3395 H 0.49536 0.07622 0.00555
 H3396 H 0.50020 0.10662 0.01693
 C3397 C -0.03192 0.17517 0.92504
 C3398 C -0.03398 0.15884 0.93364
 C3399 C -0.02301 0.15483 0.94810
 C3400 C -0.01063 0.16776 0.95455
 C3401 C -0.00856 0.18409 0.94599
 C3402 C -0.01880 0.18770 0.93086
 N3403 N -0.02330 0.13697 0.95487
 N3404 N -0.01259 0.13217 0.96713
 C3405 C -0.01165 0.11395 0.97295
 C3406 C 0.00031 0.10970 0.98661
 C3407 C 0.00273 0.09179 0.99167
 C3408 C -0.00676 0.07782 0.98300
 C3409 C -0.01899 0.08219 0.96943
 C3410 C -0.02145 0.10012 0.96445
 H3411 H -0.04018 0.17778 0.91355
 H3412 H -0.04357 0.14896 0.92859
 H3413 H -0.00199 0.16494 0.96574
 H3414 H 0.00174 0.19344 0.95067
 H3415 H 0.00802 0.12027 0.99314
 H3416 H 0.01223 0.08888 1.00220
 H3417 H -0.02663 0.07177 0.96260
 H3418 H -0.03072 0.10311 0.95377
 C3419 C 0.48926 0.68784 0.46134
 C3420 C 0.48628 0.67203 0.47060
 C3421 C 0.47595 0.65805 0.46316
 C3422 C 0.46726 0.66061 0.44699
 C3423 C 0.47022 0.67635 0.43775
 C3424 C 0.48189 0.68971 0.44453
 N3425 N 0.47670 0.64063 0.47090
 N3426 N 0.47009 0.62685 0.46315
 C3427 C 0.47259 0.60901 0.46965
 C3428 C 0.46567 0.59447 0.45995
 C3429 C 0.46977 0.57675 0.46476
 C3430 C 0.48093 0.57336 0.47940
 C3431 C 0.48745 0.58805 0.48938
 C3432 C 0.48333 0.60573 0.48454
 H3433 H 0.49831 0.69799 0.46680
 H3434 H 0.49305 0.67016 0.48305
 H3435 H 0.45906 0.65005 0.44105
 H3436 H 0.46411 0.67770 0.42494
 H3437 H 0.45749 0.59689 0.44837
 H3438 H 0.46435 0.56574 0.45691
 H3439 H 0.49596 0.58593 0.50080
 H3440 H 0.48892 0.61681 0.49217
 C3441 C 0.53070 0.81828 0.45264
 C3442 C 0.53310 0.83486 0.46119
 C3443 C 0.53699 0.85036 0.45175
 C3444 C 0.53970 0.84894 0.43377
 C3445 C 0.53719 0.83245 0.42521
 C3446 C 0.53205 0.81715 0.43450
 N3447 N 0.53561 0.86762 0.46015
 N3448 N 0.53793 0.88216 0.45187
 C3449 C 0.53435 0.89950 0.45944
 C3450 C 0.53757 0.91489 0.44964
 C3451 C 0.53200 0.93189 0.45566
 C3452 C 0.52295 0.93370 0.47158
 C3453 C 0.52022 0.91824 0.48163
 C3454 C 0.52590 0.90127 0.47563
 H3455 H 0.52666 0.80664 0.46003
 H3456 H 0.53089 0.83584 0.47504
 H3457 H 0.54277 0.86074 0.42619
 H3458 H 0.53853 0.83178 0.41123
 H3459 H 0.54394 0.91362 0.43708
 H3460 H 0.53443 0.94354 0.44764
 H3461 H 0.51347 0.91919 0.49403
 H3462 H 0.52316 0.88951 0.48337
 C3463 C 0.02202 0.32175 0.94412
 C3464 C 0.02438 0.33826 0.95281
 C3465 C 0.02630 0.35419 0.94341
 C3466 C 0.02667 0.35339 0.92519
 C3467 C 0.02412 0.33697 0.91652
 C3468 C 0.02133 0.32113 0.92591
 N3469 N 0.02599 0.37114 0.95245
 N3470 N 0.02790 0.38594 0.94447
 C3471 C 0.02581 0.40305 0.95296
 C3472 C 0.02950 0.41871 0.94372
 C3473 C 0.02602 0.43570 0.95106
 C3474 C 0.01855 0.43720 0.96774
 C3475 C 0.01511 0.42142 0.97709
 C3476 C 0.01877 0.40447 0.96978
 H3477 H 0.01982 0.30965 0.95157
 H3478 H 0.02401 0.33876 0.96686
 H3479 H 0.02814 0.36553 0.91764
 H3480 H 0.02384 0.33670 0.90245
 H3481 H 0.03478 0.41773 0.93068
 H3482 H 0.02882 0.44761 0.94354
 H3483 H 0.00952 0.42216 0.99002
 H3484 H 0.01569 0.39249 0.97710
 C3485 C 0.49367 0.31795 0.05335
 C3486 C 0.49459 0.33473 0.04543
 C3487 C 0.48308 0.34886 0.05063
 C3488 C 0.46983 0.34585 0.06325
 C3489 C 0.46874 0.32897 0.07109
 C3490 C 0.48099 0.31499 0.06655
 N3491 N 0.48609 0.36637 0.04375
 N3492 N 0.47785 0.38048 0.04921
 C3493 C 0.48211 0.39784 0.04248
 C3494 C 0.47269 0.41315 0.04853
 C3495 C 0.47699 0.43028 0.04237
 C3496 C 0.49086 0.43227 0.03008
 C3497 C 0.50033 0.41683 0.02416
 C3498 C 0.49600 0.39981 0.03028
 H3499 H 0.50352 0.30763 0.04973
 H3500 H 0.50487 0.33699 0.03574
 H3501 H 0.46069 0.35662 0.06735
 H3502 H 0.45862 0.32700 0.08099
 H3503 H 0.46203 0.41179 0.05800
 H3504 H 0.46937 0.44190 0.04712
 H3505 H 0.51106 0.41783 0.01470
 H3506 H 0.50358 0.38819 0.02548
 C3507 C -0.02217 0.81353 0.55796
 C3508 C -0.02379 0.82946 0.54844
 C3509 C -0.02761 0.84590 0.55687
 C3510 C -0.03099 0.84611 0.57479
 C3511 C -0.02922 0.83029 0.58430
 C3512 C -0.02420 0.81402 0.57605
 N3513 N -0.02593 0.86238 0.54754
 N3514 N -0.02855 0.87761 0.55497
 C3515 C -0.02525 0.89437 0.54665
 C3516 C -0.02956 0.91040 0.55550
 C3517 C -0.02508 0.92706 0.54854
 C3518 C -0.01603 0.92795 0.53258
 C3519 C -0.01191 0.91179 0.52360
 C3520 C -0.01652 0.89511 0.53056
 H3521 H -0.01820 0.80111 0.55140
 H3522 H -0.02113 0.82916 0.53465
 H3523 H -0.03406 0.85863 0.58160
 H3524 H -0.03099 0.83087 0.59823
 H3525 H -0.03614 0.90994 0.56798
 H3526 H -0.02852 0.93923 0.55579
 H3527 H -0.00508 0.91201 0.51123
 H3528 H -0.01292 0.88283 0.52358
 C3529 C 0.24621 0.32947 0.08497
 C3530 C 0.24766 0.32203 0.10148
 C3531 C 0.25770 0.30613 0.10422
 C3532 C 0.26614 0.29746 0.09009
 C3533 C 0.26477 0.30497 0.07346
 C3534 C 0.25496 0.32121 0.07078
 N3535 N 0.25933 0.29962 0.12161
 N3536 N 0.26702 0.28475 0.12584
 C3537 C 0.26809 0.27967 0.14378
 C3538 C 0.27275 0.26188 0.14834
 C3539 C 0.27237 0.25652 0.16578
 C3540 C 0.26742 0.26898 0.17890
 C3541 C 0.26365 0.28700 0.17424
 C3542 C 0.26393 0.29225 0.15696
 H3543 H 0.23823 0.34175 0.08334
 H3544 H 0.24102 0.32876 0.11227
 H3545 H 0.27401 0.28515 0.09194
 H3546 H 0.27179 0.29835 0.06284
 H3547 H 0.27612 0.25204 0.13834
 H3548 H 0.27536 0.24256 0.16891
 H3549 H 0.25999 0.29707 0.18393
 H3550 H 0.26056 0.30615 0.15390
 C3551 C 0.74625 0.83241 0.58635
 C3552 C 0.74889 0.82550 0.60297
 C3553 C 0.75873 0.80945 0.60548
 C3554 C 0.76580 0.80011 0.59105
 C3555 C 0.76327 0.80709 0.57433
 C3556 C 0.75361 0.82346 0.57182
 N3557 N 0.76145 0.80335 0.62290
 N3558 N 0.76887 0.78830 0.62695
 C3559 C 0.77099 0.78351 0.64488
 C3560 C 0.77466 0.76552 0.64948
 C3561 C 0.77474 0.76042 0.66699
 C3562 C 0.77126 0.77334 0.68013
 C3563 C 0.76876 0.79154 0.67543
 C3564 C 0.76857 0.79654 0.65806
 H3565 H 0.73842 0.84481 0.58490
 H3566 H 0.74327 0.83274 0.61400
 H3567 H 0.77350 0.78767 0.59273
 H3568 H 0.76927 0.79995 0.56344
 H3569 H 0.77668 0.75533 0.63947
 H3570 H 0.77672 0.74631 0.67017
 H3571 H 0.76630 0.80194 0.68515
 H3572 H 0.76606 0.81059 0.65494
 C3573 C 0.24636 0.70704 0.57112
 C3574 C 0.24494 0.71685 0.58673
 C3575 C 0.23380 0.71073 0.60004
 C3576 C 0.22359 0.69491 0.59730
 C3577 C 0.22492 0.68516 0.58172
 C3578 C 0.23657 0.69090 0.56854
 N3579 N 0.23385 0.72009 0.61648
 N3580 N 0.22563 0.71370 0.62948
 C3581 C 0.22610 0.72190 0.64643
 C3582 C 0.21987 0.71182 0.66036
 C3583 C 0.22216 0.71815 0.67737
 C3584 C 0.23035 0.73495 0.68075
 C3585 C 0.23558 0.74564 0.66673
 C3586 C 0.23366 0.73907 0.64964
 H3587 H 0.25555 0.71179 0.56132
 H3588 H 0.25294 0.72898 0.58866
 H3589 H 0.21477 0.68992 0.60730
 H3590 H 0.21686 0.67305 0.58004
 H3591 H 0.21401 0.69860 0.65805
 H3592 H 0.21799 0.70967 0.68795
 H3593 H 0.24207 0.75857 0.66905
 H3594 H 0.23850 0.74713 0.63903
 C3595 C 0.74156 0.16996 0.08120
 C3596 C 0.73859 0.17673 0.09790
 C3597 C 0.73223 0.19442 0.10044
 C3598 C 0.72861 0.20536 0.08598
 C3599 C 0.73141 0.19851 0.06915
 C3600 C 0.73808 0.18076 0.06664
 N3601 N 0.72991 0.20072 0.11792
 N3602 N 0.72570 0.21691 0.12215
 C3603 C 0.72417 0.22195 0.14014
 C3604 C 0.72318 0.24026 0.14506
 C3605 C 0.72391 0.24534 0.16268
 C3606 C 0.72562 0.23211 0.17559
 C3607 C 0.72547 0.21376 0.17057
 C3608 C 0.72478 0.20874 0.15310
 H3609 H 0.74639 0.15615 0.07967
 H3610 H 0.74137 0.16817 0.10896
 H3611 H 0.72367 0.21910 0.08768
 H3612 H 0.72864 0.20713 0.05814
 H3613 H 0.72260 0.25060 0.13523
 H3614 H 0.72397 0.25958 0.16614
 H3615 H 0.72650 0.20318 0.18015
 H3616 H 0.72527 0.19449 0.14974
 C3617 C 0.76147 0.20482 0.93040
 C3618 C 0.76378 0.21427 0.91491
 C3619 C 0.75797 0.20674 0.89903
 C3620 C 0.74921 0.18989 0.89892
 C3621 C 0.74670 0.18058 0.91433
 C3622 C 0.75307 0.18773 0.93026
 N3623 N 0.76112 0.21608 0.88311
 N3624 N 0.75984 0.20753 0.86872
 C3625 C 0.76193 0.21531 0.85196
 C3626 C 0.76134 0.20358 0.83767
 C3627 C 0.76138 0.21026 0.82089
 C3628 C 0.76194 0.22898 0.81794
 C3629 C 0.76346 0.24086 0.83229
 C3630 C 0.76338 0.23405 0.84929
 H3631 H 0.76667 0.21069 0.94240
 H3632 H 0.77049 0.22726 0.91524
 H3633 H 0.74426 0.18388 0.88689
 H3634 H 0.73971 0.16775 0.91372
 H3635 H 0.76030 0.18914 0.83958
 H3636 H 0.76048 0.20070 0.81016
 H3637 H 0.76390 0.25533 0.83039
 H3638 H 0.76386 0.24336 0.86024
 C3639 C 0.25078 0.66852 0.41762
 C3640 C 0.25427 0.67480 0.40101
 C3641 C 0.26079 0.69229 0.39860
 C3642 C 0.26399 0.70353 0.41314
 C3643 C 0.26060 0.69719 0.42989
 C3644 C 0.25382 0.67963 0.43228
 N3645 N 0.26372 0.69803 0.38117
 N3646 N 0.26882 0.71380 0.37698
 C3647 C 0.27094 0.71822 0.35899
 C3648 C 0.27428 0.73612 0.35414
 C3649 C 0.27471 0.74079 0.33650
 C3650 C 0.27175 0.72756 0.32351
 C3651 C 0.26928 0.70952 0.32851
 C3652 C 0.26888 0.70492 0.34597
 H3653 H 0.24593 0.65483 0.41900
 H3654 H 0.25181 0.66600 0.38990
 H3655 H 0.26903 0.71712 0.41156
 H3656 H 0.26303 0.70606 0.44095
 H3657 H 0.27599 0.74654 0.36400
 H3658 H 0.27664 0.75480 0.33306
 H3659 H 0.26721 0.69891 0.31889
 H3660 H 0.26651 0.69094 0.34925
 C3661 C 0.72111 0.80768 0.42863
 C3662 C 0.71845 0.79806 0.41305
 C3663 C 0.73308 0.78906 0.40513
 C3664 C 0.75038 0.78934 0.41331
 C3665 C 0.75305 0.79889 0.42890
 C3666 C 0.73851 0.80843 0.43662
 N3667 N 0.73036 0.78081 0.38834
 N3668 N 0.74364 0.77393 0.37999
 C3669 C 0.74182 0.76665 0.36274
 C3670 C 0.75777 0.76245 0.35373
 C3671 C 0.75694 0.75773 0.33617
 C3672 C 0.74006 0.75670 0.32740
 C3673 C 0.72390 0.75986 0.33658
 C3674 C 0.72476 0.76497 0.35419
 H3675 H 0.70966 0.81504 0.43409
 H3676 H 0.70507 0.79806 0.40687
 H3677 H 0.76193 0.78245 0.40751
 H3678 H 0.76654 0.79892 0.43484
 H3679 H 0.77096 0.76373 0.36015
 H3680 H 0.76954 0.75548 0.32923
 H3681 H 0.71077 0.75935 0.32993
 H3682 H 0.71224 0.76815 0.36092
 C3683 C 0.25392 0.32655 0.91746
 C3684 C 0.25151 0.31949 0.90075
 C3685 C 0.24418 0.30228 0.89812
 C3686 C 0.23914 0.29206 0.91252
 C3687 C 0.24142 0.29921 0.92938
 C3688 C 0.24894 0.31652 0.93200
 N3689 N 0.24206 0.29591 0.88061
 N3690 N 0.23677 0.28014 0.87615
 C3691 C 0.23535 0.27537 0.85804
 C3692 C 0.23290 0.25728 0.85282
 C3693 C 0.23325 0.25240 0.83512
 C3694 C 0.23609 0.26561 0.82247
 C3695 C 0.23758 0.28380 0.82779
 C3696 C 0.23723 0.28861 0.84528
 H3697 H 0.25938 0.34005 0.91899
 H3698 H 0.25534 0.32751 0.88973
 H3699 H 0.23341 0.27872 0.91075
 H3700 H 0.23747 0.29119 0.94036
 H3701 H 0.23132 0.24691 0.86247
 H3702 H 0.23201 0.23829 0.83141
 H3703 H 0.23946 0.29440 0.81842
 H3704 H 0.23885 0.30272 0.84883
 C3705 C 0.83990 0.42153 0.73728
 C3706 C 0.83049 0.40519 0.73749
 C3707 C 0.82916 0.39536 0.75281
 C3708 C 0.83722 0.40223 0.76816
 C3709 C 0.84661 0.41872 0.76800
 C3710 C 0.84819 0.42848 0.75249
 N3711 N 0.81965 0.37848 0.75211
 N3712 N 0.81801 0.36789 0.76492
 C3713 C 0.80835 0.35109 0.76294
 C3714 C 0.80726 0.33916 0.77692
 C3715 C 0.79822 0.32253 0.77496
 C3716 C 0.79011 0.31759 0.75893
 C3717 C 0.79111 0.32977 0.74506
 C3718 C 0.80008 0.34624 0.74702
 H3719 H 0.84058 0.42881 0.72520
 H3720 H 0.82427 0.40008 0.72560
 H3721 H 0.83636 0.39487 0.78017
 H3722 H 0.85295 0.42366 0.77990
 H3723 H 0.81355 0.34268 0.78929
 H3724 H 0.79774 0.31351 0.78591
 H3725 H 0.78502 0.32659 0.73251
 H3726 H 0.80061 0.35513 0.73598
 C3727 C 0.32981 0.92538 0.24443
 C3728 C 0.32034 0.90915 0.24603
 C3729 C 0.32898 0.89378 0.25270
 C3730 C 0.34741 0.89475 0.25772
 C3731 C 0.35709 0.91085 0.25586
 C3732 C 0.34858 0.92670 0.24913
 N3733 N 0.31896 0.87723 0.25350
 N3734 N 0.32466 0.86346 0.26186
 C3735 C 0.31476 0.84677 0.26161
 C3736 C 0.31984 0.83293 0.27306
 C3737 C 0.31097 0.81618 0.27238
 C3738 C 0.29710 0.81293 0.25995
 C3739 C 0.29189 0.82694 0.24866
 C3740 C 0.30051 0.84370 0.24955
 H3741 H 0.32237 0.93643 0.23850
 H3742 H 0.30616 0.90850 0.24186
 H3743 H 0.35441 0.88302 0.26296
 H3744 H 0.37105 0.91077 0.26059
 H3745 H 0.33083 0.83507 0.28239
 H3746 H 0.31535 0.80561 0.28116
 H3747 H 0.28119 0.82490 0.23900
 H3748 H 0.29634 0.85410 0.24051
 C3749 C 0.14776 0.91667 0.73746
 C3750 C 0.15775 0.90078 0.73433
 C3751 C 0.17507 0.89827 0.74188
 C3752 C 0.18242 0.91205 0.75254
 C3753 C 0.17246 0.92802 0.75562
 C3754 C 0.15494 0.93048 0.74821
 N3755 N 0.18460 0.88146 0.73894
 N3756 N 0.20001 0.87794 0.74608
 C3757 C 0.20932 0.86093 0.74377
 C3758 C 0.22487 0.85735 0.75395
 C3759 C 0.23328 0.84032 0.75345
 C3760 C 0.22643 0.82652 0.74251
 C3761 C 0.21136 0.83040 0.73159
 C3762 C 0.20279 0.84744 0.73229
 H3763 H 0.13445 0.91823 0.73131
 H3764 H 0.15192 0.89030 0.72609
 H3765 H 0.19576 0.91044 0.75859
 H3766 H 0.17832 0.93831 0.76406
 H3767 H 0.23010 0.86762 0.76281
 H3768 H 0.24489 0.83779 0.76199
 H3769 H 0.20567 0.82002 0.72313
 H3770 H 0.19082 0.84991 0.72421
 C3771 C 0.64253 0.41686 0.22780
 C3772 C 0.65195 0.40055 0.22503
 C3773 C 0.66795 0.39660 0.23445
 C3774 C 0.67460 0.40940 0.24659
 C3775 C 0.66520 0.42574 0.24935
 C3776 C 0.64895 0.42962 0.24010
 N3777 N 0.67681 0.37937 0.23193
 N3778 N 0.69113 0.37492 0.24049
 C3779 C 0.69991 0.35757 0.23881
 C3780 C 0.71460 0.35359 0.24994
 C3781 C 0.72260 0.33638 0.24989
 C3782 C 0.71615 0.32275 0.23854
 C3783 C 0.70189 0.32697 0.22679
 C3784 C 0.69374 0.34424 0.22698
 H3785 H 0.63023 0.41952 0.22024
 H3786 H 0.64667 0.39086 0.21562
 H3787 H 0.68690 0.40669 0.25411
 H3788 H 0.67043 0.43515 0.25904
 H3789 H 0.71953 0.36374 0.25907
 H3790 H 0.73363 0.33364 0.25904
 H3791 H 0.69655 0.31673 0.21796
 H3792 H 0.68240 0.34702 0.21820
 C3793 C 0.65249 0.57782 0.27663
 C3794 C 0.66182 0.59422 0.27847
 C3795 C 0.66916 0.60263 0.26397
 C3796 C 0.66723 0.59426 0.24757
 C3797 C 0.65788 0.57794 0.24571
 C3798 C 0.65026 0.56957 0.26018
 N3799 N 0.67815 0.61973 0.26608
 N3800 N 0.68512 0.62765 0.25320
 C3801 C 0.69394 0.64487 0.25438
 C3802 C 0.70124 0.65197 0.23929
 C3803 C 0.70952 0.66889 0.23954
 C3804 C 0.71069 0.67920 0.25500
 C3805 C 0.70348 0.67197 0.27027
 C3806 C 0.69516 0.65491 0.26997
 H3807 H 0.64663 0.57183 0.28801
 H3808 H 0.66315 0.60050 0.29118
 H3809 H 0.67281 0.60039 0.23613
 H3810 H 0.65665 0.57182 0.23291
 H3811 H 0.70038 0.64437 0.22721
 H3812 H 0.71490 0.67390 0.22752
 H3813 H 0.70412 0.67953 0.28238
 H3814 H 0.68957 0.64969 0.28182
 C3815 C 0.15707 0.07778 0.77809
 C3816 C 0.16639 0.09418 0.77972
 C3817 C 0.17061 0.10413 0.76500
 C3818 C 0.16535 0.09741 0.74852
 C3819 C 0.15592 0.08108 0.74688
 C3820 C 0.15161 0.07103 0.76165
 N3821 N 0.18010 0.12098 0.76701
 N3822 N 0.18557 0.12956 0.75386
 C3823 C 0.19492 0.14650 0.75487
 C3824 C 0.20154 0.15357 0.73950
 C3825 C 0.21044 0.17014 0.73952
 C3826 C 0.21287 0.18024 0.75499
 C3827 C 0.20623 0.17311 0.77054
 C3828 C 0.19736 0.15630 0.77050
 H3829 H 0.15428 0.07030 0.78974
 H3830 H 0.17040 0.09912 0.79248
 H3831 H 0.16834 0.10485 0.73690
 H3832 H 0.15171 0.07652 0.73405
 H3833 H 0.19973 0.14618 0.72739
 H3834 H 0.21525 0.17508 0.72724
 H3835 H 0.20782 0.18053 0.78267
 H3836 H 0.19227 0.15109 0.78256
 C3837 C 0.34198 0.07573 0.26022
 C3838 C 0.33225 0.09209 0.26033
 C3839 C 0.32694 0.10032 0.24478
 C3840 C 0.33134 0.09185 0.22895
 C3841 C 0.34095 0.07535 0.22880
 C3842 C 0.34647 0.06709 0.24446
 N3843 N 0.31710 0.11716 0.24560
 N3844 N 0.31325 0.12674 0.23236
 C3845 C 0.30330 0.14351 0.23405
 C3846 C 0.30161 0.15512 0.21984
 C3847 C 0.29258 0.17188 0.22150
 C3848 C 0.28491 0.17722 0.23744
 C3849 C 0.28630 0.16527 0.25152
 C3850 C 0.29541 0.14869 0.24987
 H3851 H 0.34626 0.07006 0.27252
 H3852 H 0.32898 0.09850 0.27262
 H3853 H 0.32726 0.09789 0.21675
 H3854 H 0.34388 0.06899 0.21642
 H3855 H 0.30758 0.15131 0.20753
 H3856 H 0.29179 0.18072 0.21040
 H3857 H 0.28061 0.16881 0.26401
 H3858 H 0.29637 0.13998 0.26105
 C3859 C 0.82679 0.57147 0.75566
 C3860 C 0.81670 0.58764 0.75555
 C3861 C 0.82060 0.60124 0.74371
 C3862 C 0.83464 0.59837 0.73170
 C3863 C 0.84480 0.58222 0.73184
 C3864 C 0.84111 0.56863 0.74392
 N3865 N 0.81056 0.61799 0.74462
 N3866 N 0.81293 0.63088 0.73408
 C3867 C 0.80320 0.64778 0.73563
 C3868 C 0.80596 0.66129 0.72336
 C3869 C 0.79736 0.67822 0.72505
 C3870 C 0.78589 0.68198 0.73918
 C3871 C 0.78291 0.66824 0.75130
 C3872 C 0.79143 0.65133 0.74953
 H3873 H 0.82373 0.56141 0.76526
 H3874 H 0.80597 0.58970 0.76492
 H3875 H 0.83792 0.60866 0.72240
 H3876 H 0.85558 0.58037 0.72248
 H3877 H 0.81502 0.65877 0.71259
 H3878 H 0.80003 0.68849 0.71552
 H3879 H 0.77414 0.67059 0.76231
 H3880 H 0.78905 0.64116 0.75921
 C3881 C 0.92457 0.73744 0.18280
 C3882 C 0.90777 0.73694 0.19099
 C3883 C 0.89769 0.75275 0.19361
 C3884 C 0.90489 0.76937 0.18872
 C3885 C 0.92190 0.77004 0.18081
 C3886 C 0.93198 0.75398 0.17717
 N3887 N 0.87999 0.75141 0.20093
 N3888 N 0.86852 0.76442 0.20089
 C3889 C 0.85087 0.76229 0.20821
 C3890 C 0.83754 0.77574 0.20578
 C3891 C 0.82003 0.77359 0.21243
 C3892 C 0.81576 0.75799 0.22176
 C3893 C 0.82926 0.74462 0.22426
 C3894 C 0.84661 0.74671 0.21752
 H3895 H 0.93191 0.72474 0.18160
 H3896 H 0.90241 0.72408 0.19507
 H3897 H 0.89724 0.78180 0.19073
 H3898 H 0.92625 0.78315 0.17651
 H3899 H 0.84070 0.78780 0.19862
 H3900 H 0.80992 0.78418 0.21042
 H3901 H 0.82640 0.73243 0.23135
 H3902 H 0.85669 0.73612 0.21959
 C3903 C 0.41867 0.28857 0.66770
 C3904 C 0.40215 0.28975 0.67649
 C3905 C 0.39853 0.27780 0.68991
 C3906 C 0.41214 0.26552 0.69537
 C3907 C 0.42866 0.26437 0.68665
 C3908 C 0.43179 0.27543 0.67233
 N3909 N 0.38042 0.27703 0.69649
 N3910 N 0.37587 0.26481 0.70701
 C3911 C 0.35756 0.26287 0.71273
 C3912 C 0.35379 0.24919 0.72445
 C3913 C 0.33592 0.24620 0.72961
 C3914 C 0.32146 0.25687 0.72301
 C3915 C 0.32531 0.27065 0.71123
 C3916 C 0.34323 0.27365 0.70613
 H3917 H 0.42088 0.29742 0.65684
 H3918 H 0.39177 0.29931 0.67223
 H3919 H 0.40967 0.25619 0.70579
 H3920 H 0.43846 0.25402 0.69040
 H3921 H 0.36475 0.24073 0.72949
 H3922 H 0.33344 0.23550 0.73874
 H3923 H 0.31451 0.27920 0.70602
 H3924 H 0.34586 0.28425 0.69694
 C3925 C 0.42009 0.72397 0.84412
 C3926 C 0.40251 0.72238 0.83706
 C3927 C 0.39981 0.72195 0.81908
 C3928 C 0.41498 0.72217 0.80812
 C3929 C 0.43258 0.72355 0.81516
 C3930 C 0.43530 0.72494 0.83322
 N3931 N 0.38157 0.72274 0.81229
 N3932 N 0.37826 0.72560 0.79631
 C3933 C 0.36004 0.72752 0.78969
 C3934 C 0.35741 0.73345 0.77268
 C3935 C 0.33984 0.73720 0.76635
 C3936 C 0.32459 0.73489 0.77696
 C3937 C 0.32724 0.72829 0.79386
 C3938 C 0.34483 0.72472 0.80021
 H3939 H 0.42166 0.72523 0.85807
 H3940 H 0.39089 0.72229 0.84560
 H3941 H 0.41320 0.72168 0.79415
 H3942 H 0.44404 0.72386 0.80644
 H3943 H 0.36905 0.73567 0.76448
 H3944 H 0.33824 0.74210 0.75322
 H3945 H 0.31578 0.72631 0.80234
 H3946 H 0.34656 0.72010 0.81342
 C3947 C 0.93022 0.25058 0.30732
 C3948 C 0.91415 0.25004 0.29735
 C3949 C 0.90055 0.23756 0.30105
 C3950 C 0.90345 0.22505 0.31441
 C3951 C 0.91951 0.22552 0.32433
 C3952 C 0.93288 0.23855 0.32114
 N3953 N 0.88346 0.23866 0.29193
 N3954 N 0.86995 0.22900 0.29605
 C3955 C 0.85252 0.23080 0.28767
 C3956 C 0.83783 0.22102 0.29398
 C3957 C 0.82027 0.22369 0.28711
 C3958 C 0.81721 0.23619 0.27373
 C3959 C 0.83215 0.24556 0.26706
 C3960 C 0.84965 0.24293 0.27400
 H3961 H 0.94022 0.26084 0.30466
 H3962 H 0.91200 0.25977 0.28711
 H3963 H 0.89317 0.21519 0.31743
 H3964 H 0.92137 0.21585 0.33467
 H3965 H 0.83992 0.21164 0.30452
 H3966 H 0.80910 0.21613 0.29243
 H3967 H 0.83027 0.25524 0.25673
 H3968 H 0.86084 0.25063 0.26891
 C3969 C 0.08280 0.27281 0.33963
 C3970 C 0.09967 0.27521 0.33180
 C3971 C 0.10282 0.26812 0.31520
 C3972 C 0.08866 0.25922 0.30614
 C3973 C 0.07181 0.25683 0.31394
 C3974 C 0.06885 0.26326 0.33089
 N3975 N 0.12081 0.26891 0.30833
 N3976 N 0.12465 0.26149 0.29386
 C3977 C 0.14277 0.26108 0.28729
 C3978 C 0.14595 0.25194 0.27165
 C3979 C 0.16368 0.24995 0.26551
 C3980 C 0.17856 0.25712 0.27499
 C3981 C 0.17525 0.26670 0.29052
 C3982 C 0.15749 0.26865 0.29665
 H3983 H 0.08092 0.27778 0.35277
 H3984 H 0.11052 0.28203 0.33890
 H3985 H 0.09075 0.25371 0.29324
 H3986 H 0.06118 0.24969 0.30683
 H3987 H 0.13468 0.24602 0.26439
 H3988 H 0.16571 0.24258 0.25345
 H3989 H 0.18639 0.27248 0.29808
 H3990 H 0.15531 0.27576 0.30881
 C3991 C 0.57929 0.78673 0.82754
 C3992 C 0.59620 0.79005 0.82012
 C3993 C 0.60053 0.78234 0.80404
 C3994 C 0.58719 0.77256 0.79469
 C3995 C 0.57029 0.76925 0.80207
 C3996 C 0.56651 0.77564 0.81887
 N3997 N 0.61910 0.78248 0.79858
 N3998 N 0.62416 0.77319 0.78550
 C3999 C 0.64283 0.77146 0.78066
 C4000 C 0.64700 0.76056 0.76633
 C4001 C 0.66511 0.75704 0.76209
 C4002 C 0.67945 0.76440 0.77220
 C4003 C 0.67522 0.77563 0.78647
 C4004 C 0.65701 0.77912 0.79070
 H4005 H 0.57677 0.79172 0.84057
 H4006 H 0.60639 0.79759 0.82743
 H4007 H 0.59015 0.76662 0.78212
 H4008 H 0.56053 0.76093 0.79501
 H4009 H 0.63614 0.75448 0.75863
 H4010 H 0.66784 0.74842 0.75096
 H4011 H 0.68593 0.78163 0.79442
 H4012 H 0.65404 0.78751 0.80194
 C4013 C 0.57542 0.22421 0.66338
 C4014 C 0.59272 0.22292 0.67124
 C4015 C 0.60141 0.23847 0.67762
 C4016 C 0.59256 0.25534 0.67626
 C4017 C 0.57545 0.25666 0.66827
 C4018 C 0.56682 0.24116 0.66162
 N4019 N 0.61939 0.23706 0.68499
 N4020 N 0.62684 0.25068 0.69227
 C4021 C 0.64495 0.25025 0.69933
 C4022 C 0.65083 0.26502 0.70930
 C4023 C 0.66843 0.26524 0.71639
 C4024 C 0.68054 0.25073 0.71335
 C4025 C 0.67470 0.23599 0.70308
 C4026 C 0.65694 0.23568 0.69618
 H4027 H 0.56899 0.21211 0.65823
 H4028 H 0.59943 0.20986 0.67222
 H4029 H 0.59897 0.26757 0.68109
 H4030 H 0.56896 0.26984 0.66719
 H4031 H 0.64168 0.27634 0.71168
 H4032 H 0.67260 0.27682 0.72417
 H4033 H 0.68374 0.22459 0.70063
 H4034 H 0.65264 0.22419 0.68837
 C4035 C 0.07539 0.76463 0.19085
 C4036 C 0.09227 0.76316 0.19940
 C4037 C 0.10579 0.75151 0.19297
 C4038 C 0.10219 0.74100 0.17804
 C4039 C 0.08535 0.74244 0.16950
 C4040 C 0.07187 0.75443 0.17569
 N4041 N 0.12323 0.75098 0.20147
 N4042 N 0.13629 0.74123 0.19579
 C4043 C 0.15386 0.74116 0.20405
 C4044 C 0.16788 0.73062 0.19690
 C4045 C 0.18540 0.73085 0.20433
 C4046 C 0.18909 0.74169 0.21907
 C4047 C 0.17486 0.75208 0.22631
 C4048 C 0.15742 0.75183 0.21887
 H4049 H 0.06527 0.77405 0.19582
 H4050 H 0.09496 0.77133 0.21090
 H4051 H 0.11241 0.73182 0.17289
 H4052 H 0.08286 0.73416 0.15804
 H4053 H 0.16525 0.72236 0.18545
 H4054 H 0.19603 0.72266 0.19846
 H4055 H 0.17718 0.76055 0.23768
 H4056 H 0.14678 0.76009 0.22463
   
