data_POSCAR
  _audit_creation_date              2014-09-24
  _audit_creation_method            'ToBaCCo'
  _symmetry_space_group_name_H-M    'P1'
  _symmetry_Int_Tables_number       1
  _symmetry_cell_setting            triclinic
  loop_
  _symmetry_equiv_pos_as_xyz
 x,y,z
_cell_length_a 77.3082
_cell_length_b 77.3734
_cell_length_c 76.8904
_cell_angle_alpha 90.044400
_cell_angle_beta 90.038700
_cell_angle_gamma 89.865000
loop_
  _atom_site_label
  _atom_site_type_symbol
  _atom_site_fract_x
  _atom_site_fract_y
  _atom_site_fract_z
C1 C 0.35798 0.33241 0.34369
 C2 C 0.34529 0.33243 0.35670
 C3 C 0.33279 0.34523 0.35699
 C4 C 0.33275 0.35813 0.34419
 C5 C 0.34531 0.35817 0.33139
 C6 C 0.35804 0.34521 0.33114
 C7 C 0.37128 0.32121 0.33985
 N8 N 0.37945 0.32688 0.32529
 C9 C 0.37143 0.34159 0.31990
 C10 C 0.34168 0.37175 0.32042
 N11 N 0.32718 0.37991 0.32620
 C12 C 0.32167 0.37165 0.34077
 C13 C 0.32189 0.34170 0.37067
 N14 N 0.32745 0.32704 0.37868
 C15 C 0.34177 0.32129 0.37017
 H16 H 0.37471 0.30974 0.34714
 H17 H 0.37475 0.34887 0.30837
 H18 H 0.34876 0.37508 0.30875
 H19 H 0.31036 0.37512 0.34830
 H20 H 0.31049 0.34902 0.37424
 H21 H 0.34912 0.30984 0.37352
 C22 C 0.35718 0.83261 -0.15530
 C23 C 0.34387 0.83222 -0.14293
 C24 C 0.33099 0.84462 -0.14329
 C25 C 0.33131 0.85765 -0.15595
 C26 C 0.34457 0.85821 -0.16793
 C27 C 0.35762 0.84556 -0.16761
 C28 C 0.37081 0.82168 -0.15865
 N29 N 0.37970 0.82759 -0.17277
 C30 C 0.37163 0.84236 -0.17818
 C31 C 0.34127 0.87191 -0.17885
 N32 N 0.32616 0.87969 -0.17396
 C33 C 0.32009 0.87089 -0.15984
 C34 C 0.31953 0.84075 -0.13019
 N35 N 0.32520 0.82634 -0.12181
 C36 C 0.34009 0.82103 -0.12958
 H37 H 0.37390 0.81031 -0.15108
 H38 H 0.37501 0.84993 -0.18948
 H39 H 0.34908 0.87531 -0.18998
 H40 H 0.30848 0.87383 -0.15260
 H41 H 0.30799 0.84800 -0.12691
 H42 H 0.34747 0.80967 -0.12600
 C43 C 0.85795 0.33116 -0.15615
 C44 C 0.84490 0.33077 -0.14350
 C45 C 0.83240 0.34356 -0.14316
 C46 C 0.83272 0.35685 -0.15554
 C47 C 0.84569 0.35736 -0.16784
 C48 C 0.85844 0.34440 -0.16814
 C49 C 0.87127 0.32003 -0.16002
 N50 N 0.88005 0.32613 -0.17414
 C51 C 0.87217 0.34117 -0.17905
 C52 C 0.84241 0.37132 -0.17842
 N53 N 0.82757 0.37930 -0.17302
 C54 C 0.82170 0.37039 -0.15890
 C55 C 0.82122 0.33971 -0.12980
 N56 N 0.82663 0.32487 -0.12203
 C57 C 0.84110 0.31930 -0.13039
 H58 H 0.87428 0.30845 -0.15277
 H59 H 0.87553 0.34898 -0.19019
 H60 H 0.84998 0.37474 -0.18972
 H61 H 0.81030 0.37342 -0.15134
 H62 H 0.80980 0.34701 -0.12624
 H63 H 0.84842 0.30782 -0.12710
 C64 C 0.85642 0.83107 0.34542
 C65 C 0.84312 0.83054 0.35779
 C66 C 0.83061 0.84334 0.35802
 C67 C 0.83119 0.85677 0.34579
 C68 C 0.84440 0.85740 0.33377
 C69 C 0.85715 0.84444 0.33359
 C70 C 0.86984 0.82000 0.34170
 N71 N 0.87890 0.82625 0.32784
 C72 C 0.87111 0.84134 0.32294
 C73 C 0.84135 0.87148 0.32328
 N74 N 0.82641 0.87942 0.32846
 C75 C 0.82024 0.87036 0.34236
 C76 C 0.81918 0.83936 0.37111
 N77 N 0.82444 0.82445 0.37885
 C78 C 0.83906 0.81895 0.37071
 H79 H 0.87271 0.80833 0.34889
 H80 H 0.87469 0.84928 0.31195
 H81 H 0.84915 0.87501 0.31218
 H82 H 0.80870 0.87331 0.34971
 H83 H 0.80770 0.84664 0.37454
 H84 H 0.84633 0.80745 0.37403
 C85 C 0.64088 0.66619 0.34420
 C86 C 0.65372 0.66609 0.35708
 C87 C 0.66651 0.65358 0.35683
 C88 C 0.66658 0.64093 0.34377
 C89 C 0.65384 0.64094 0.33113
 C90 C 0.64090 0.65368 0.33133
 C91 C 0.62744 0.67733 0.34069
 N92 N 0.61927 0.67191 0.32601
 C93 C 0.62741 0.65740 0.32024
 C94 C 0.65755 0.62763 0.31982
 N95 N 0.67225 0.61961 0.32526
 C96 C 0.67783 0.62769 0.33992
 C97 C 0.67764 0.65708 0.37034
 N98 N 0.67190 0.67141 0.37883
 C99 C 0.65725 0.67698 0.37078
 H100 H 0.62396 0.68863 0.34823
 H101 H 0.62416 0.65040 0.30850
 H102 H 0.65035 0.62438 0.30819
 H103 H 0.68929 0.62425 0.34726
 H104 H 0.68909 0.64974 0.37370
 H105 H 0.64995 0.68841 0.37431
 C106 C 0.64288 0.16635 -0.15519
 C107 C 0.65619 0.16668 -0.14281
 C108 C 0.66905 0.15425 -0.14320
 C109 C 0.66870 0.14126 -0.15591
 C110 C 0.65543 0.14075 -0.16791
 C111 C 0.64240 0.15343 -0.16756
 C112 C 0.62929 0.17733 -0.15851
 N113 N 0.62038 0.17149 -0.17267
 C114 C 0.62841 0.15670 -0.17813
 C115 C 0.65870 0.12707 -0.17888
 N116 N 0.67380 0.11925 -0.17401
 C117 C 0.67989 0.12800 -0.15985
 C118 C 0.68053 0.15808 -0.13007
 N119 N 0.67490 0.17249 -0.12166
 C120 C 0.66001 0.17784 -0.12942
 H121 H 0.62624 0.18869 -0.15090
 H122 H 0.62500 0.14917 -0.18947
 H123 H 0.65088 0.12372 -0.19004
 H124 H 0.69150 0.12502 -0.15262
 H125 H 0.69206 0.15081 -0.12682
 H126 H 0.65266 0.18922 -0.12582
 C127 C 0.14209 0.66821 -0.15581
 C128 C 0.15518 0.66856 -0.14318
 C129 C 0.16765 0.65574 -0.14291
 C130 C 0.16727 0.64248 -0.15534
 C131 C 0.15426 0.64201 -0.16762
 C132 C 0.14153 0.65499 -0.16784
 C133 C 0.12878 0.67938 -0.15962
 N134 N 0.11994 0.67333 -0.17374
 C135 C 0.12777 0.65827 -0.17872
 C136 C 0.15748 0.62807 -0.17826
 N137 N 0.17233 0.62006 -0.17293
 C138 C 0.17827 0.62893 -0.15879
 C139 C 0.17889 0.65955 -0.12957
 N140 N 0.17353 0.67438 -0.12173
 C141 C 0.15904 0.67999 -0.13004
 H142 H 0.12581 0.69096 -0.15233
 H143 H 0.12436 0.65049 -0.18988
 H144 H 0.14987 0.62470 -0.18956
 H145 H 0.18969 0.62587 -0.15127
 H146 H 0.19031 0.65222 -0.12605
 H147 H 0.15175 0.69147 -0.12670
 C148 C 0.14285 0.16840 0.34558
 C149 C 0.15621 0.16889 0.35792
 C150 C 0.16903 0.15642 0.35768
 C151 C 0.16860 0.14323 0.34517
 C152 C 0.15530 0.14258 0.33323
 C153 C 0.14231 0.15529 0.33342
 C154 C 0.12927 0.17936 0.34212
 N155 N 0.12032 0.17331 0.32808
 C156 C 0.12830 0.15843 0.32283
 C157 C 0.15851 0.12874 0.32245
 N158 N 0.17360 0.12095 0.32739
 C159 C 0.17975 0.12989 0.34140
 C160 C 0.18055 0.16041 0.37071
 N161 N 0.17499 0.17496 0.37892
 C162 C 0.16010 0.18024 0.37113
 H163 H 0.12626 0.19084 0.34955
 H164 H 0.12486 0.15072 0.31162
 H165 H 0.15065 0.12524 0.31136
 H166 H 0.19138 0.12699 0.34864
 H167 H 0.19207 0.15315 0.37404
 H168 H 0.15279 0.19169 0.37458
 C169 C 0.64174 0.33208 0.65728
 C170 C 0.65435 0.33216 0.64419
 C171 C 0.66681 0.34494 0.64394
 C172 C 0.66689 0.35775 0.65684
 C173 C 0.65441 0.35772 0.66972
 C174 C 0.64172 0.34479 0.66994
 C175 C 0.62851 0.32087 0.66110
 N176 N 0.62041 0.32644 0.67577
 C177 C 0.62842 0.34111 0.68123
 C178 C 0.65807 0.37123 0.68079
 N179 N 0.67251 0.37939 0.67498
 C180 C 0.67795 0.37122 0.66030
 C181 C 0.67764 0.34147 0.63016
 N182 N 0.67208 0.32687 0.62208
 C183 C 0.65782 0.32110 0.63061
 H184 H 0.62506 0.30945 0.65373
 H185 H 0.62514 0.34832 0.69285
 H186 H 0.65106 0.37450 0.69252
 H187 H 0.68920 0.37472 0.65272
 H188 H 0.68901 0.34879 0.62660
 H189 H 0.65049 0.30968 0.62723
 C190 C 0.64344 0.83234 1.15635
 C191 C 0.65651 0.83220 1.14372
 C192 C 0.66920 0.84476 1.14392
 C193 C 0.66892 0.85769 1.15670
 C194 C 0.65592 0.85794 1.16905
 C195 C 0.64306 0.84516 1.16883
 C196 C 0.62999 0.82129 1.15979
 N197 N 0.62123 0.82703 1.17409
 C198 C 0.62925 0.84177 1.17958
 C199 C 0.65929 0.87152 1.18012
 N200 N 0.67406 0.87945 1.17484
 C201 C 0.67999 0.87105 1.16048
 C202 C 0.68048 0.84109 1.13059
 N203 N 0.67492 0.82665 1.12223
 C204 C 0.66025 0.82113 1.13021
 H205 H 0.62686 0.81001 1.15211
 H206 H 0.62594 0.84924 1.19099
 H207 H 0.65184 0.87500 1.19152
 H208 H 0.69157 0.87435 1.15332
 H209 H 0.69187 0.84847 1.12719
 H210 H 0.65302 0.80968 1.12671
 C211 C 0.14254 0.33139 1.15679
 C212 C 0.15529 0.33127 1.14383
 C213 C 0.16755 0.34423 1.14331
 C214 C 0.16729 0.35742 1.15581
 C215 C 0.15464 0.35761 1.16852
 C216 C 0.14212 0.34450 1.16896
 C217 C 0.12943 0.32012 1.16080
 N218 N 0.12084 0.32601 1.17514
 C219 C 0.12864 0.34106 1.18009
 C220 C 0.15801 0.37145 1.17925
 N221 N 0.17246 0.37960 1.17342
 C222 C 0.17816 0.37110 1.15903
 C223 C 0.17852 0.34058 1.12970
 N224 N 0.17322 0.32570 1.12195
 C225 C 0.15902 0.31992 1.13057
 H226 H 0.12639 0.30861 1.15344
 H227 H 0.12536 0.34875 1.19137
 H228 H 0.15084 0.37493 1.19083
 H229 H 0.18949 0.37449 1.15153
 H230 H 0.18976 0.34802 1.12598
 H231 H 0.15185 0.30834 1.12739
 C232 C 0.14277 0.83156 0.65522
 C233 C 0.15584 0.83126 0.64260
 C234 C 0.16843 0.84391 0.64256
 C235 C 0.16816 0.85699 0.65520
 C236 C 0.15519 0.85739 0.66752
 C237 C 0.14239 0.84456 0.66757
 C238 C 0.12936 0.82050 0.65884
 N239 N 0.12082 0.82642 0.67310
 C240 C 0.12870 0.84119 0.67849
 C241 C 0.15850 0.87118 0.67833
 N242 N 0.17333 0.87916 0.67304
 C243 C 0.17921 0.87041 0.65879
 C244 C 0.17967 0.84013 0.62922
 N245 N 0.17423 0.82545 0.62118
 C246 C 0.15966 0.81994 0.62934
 H247 H 0.12614 0.80891 0.65164
 H248 H 0.12511 0.84863 0.68985
 H249 H 0.15091 0.87449 0.68966
 H250 H 0.19059 0.87350 0.65127
 H251 H 0.19120 0.84731 0.62588
 H252 H 0.15230 0.80856 0.62586
 C253 C 0.35736 0.66786 0.65690
 C254 C 0.34464 0.66785 0.64389
 C255 C 0.33216 0.65510 0.64365
 C256 C 0.33215 0.64223 0.65648
 C257 C 0.34473 0.64220 0.66929
 C258 C 0.35745 0.65511 0.66948
 C259 C 0.37064 0.67904 0.66069
 N260 N 0.37884 0.67340 0.67527
 C261 C 0.37085 0.65872 0.68071
 C262 C 0.34115 0.62866 0.68030
 N263 N 0.32665 0.62053 0.67455
 C264 C 0.32111 0.62877 0.65995
 C265 C 0.32123 0.65863 0.62996
 N266 N 0.32676 0.67325 0.62191
 C267 C 0.34109 0.67896 0.63039
 H268 H 0.37404 0.69047 0.65335
 H269 H 0.37420 0.65147 0.69227
 H270 H 0.34825 0.62534 0.69197
 H271 H 0.30979 0.62530 0.65243
 H272 H 0.30982 0.65134 0.62643
 H273 H 0.34842 0.69037 0.62701
 C274 C 0.35737 0.16745 1.15498
 C275 C 0.34410 0.16775 1.14255
 C276 C 0.33114 0.15548 1.14309
 C277 C 0.33134 0.14269 1.15600
 C278 C 0.34452 0.14224 1.16810
 C279 C 0.35762 0.15477 1.16764
 C280 C 0.37105 0.17832 1.15819
 N281 N 0.37963 0.17258 1.17251
 C282 C 0.37152 0.15812 1.17832
 C283 C 0.34113 0.12874 1.17921
 N284 N 0.32606 0.12095 1.17430
 C285 C 0.32008 0.12958 1.16002
 C286 C 0.31970 0.15926 1.12991
 N287 N 0.32543 0.17350 1.12133
 C288 C 0.34036 0.17877 1.12902
 H289 H 0.37439 0.18968 1.15071
 H290 H 0.37506 0.15092 1.18986
 H291 H 0.34888 0.12544 1.19044
 H292 H 0.30853 0.12657 1.15271
 H293 H 0.30809 0.15211 1.12678
 H294 H 0.34777 0.19003 1.12531
 C295 C 0.85839 0.66860 1.15587
 C296 C 0.84571 0.66869 1.14284
 C297 C 0.83328 0.65588 1.14241
 C298 C 0.83331 0.64287 1.15508
 C299 C 0.84586 0.64273 1.16792
 C300 C 0.85852 0.65569 1.16830
 C301 C 0.87162 0.67979 1.15983
 N302 N 0.87981 0.67400 1.17436
 C303 C 0.87187 0.65923 1.17960
 C304 C 0.84228 0.62905 1.17876
 N305 N 0.82782 0.62095 1.17288
 C306 C 0.82229 0.62933 1.15836
 C307 C 0.82235 0.65954 1.12877
 N308 N 0.82780 0.67428 1.12092
 C309 C 0.84210 0.67996 1.12948
 H310 H 0.87498 0.69133 1.15265
 H311 H 0.87523 0.65186 1.19108
 H312 H 0.84935 0.62562 1.19042
 H313 H 0.81100 0.62593 1.15078
 H314 H 0.81097 0.65224 1.12514
 H315 H 0.84936 0.69146 1.12626
 C316 C 0.85625 0.16881 0.65521
 C317 C 0.84325 0.16908 0.64249
 C318 C 0.83091 0.15620 0.64209
 C319 C 0.83134 0.14292 0.65448
 C320 C 0.84424 0.14259 0.66696
 C321 C 0.85684 0.15562 0.66726
 C322 C 0.86949 0.18000 0.65906
 N323 N 0.87832 0.17397 0.67320
 C324 C 0.87054 0.15894 0.67818
 C325 C 0.84100 0.12870 0.67764
 N326 N 0.82640 0.12066 0.67201
 C327 C 0.82047 0.12928 0.65780
 C328 C 0.81968 0.15999 0.62873
 N329 N 0.82490 0.17490 0.62101
 C330 C 0.83931 0.18054 0.62940
 H331 H 0.87244 0.19154 0.65174
 H332 H 0.87399 0.15117 0.68934
 H333 H 0.84838 0.12511 0.68906
 H334 H 0.80897 0.12600 0.65048
 H335 H 0.80832 0.15264 0.62516
 H336 H 0.84648 0.19211 0.62618
 C337 C 0.33320 0.35819 0.65665
 C338 C 0.33321 0.34524 0.64387
 C339 C 0.34570 0.33244 0.64418
 C340 C 0.35840 0.33245 0.65719
 C341 C 0.35849 0.34528 0.66972
 C342 C 0.34576 0.35825 0.66946
 C343 C 0.32212 0.37170 0.66005
 N344 N 0.32763 0.37999 0.67462
 C345 C 0.34214 0.37186 0.68043
 C346 C 0.37187 0.34165 0.68098
 N347 N 0.37985 0.32690 0.67562
 C348 C 0.37167 0.32122 0.66105
 C349 C 0.34213 0.32124 0.63075
 N350 N 0.32779 0.32696 0.62225
 C351 C 0.32227 0.34167 0.63022
 H352 H 0.31080 0.37514 0.65251
 H353 H 0.34921 0.37521 0.69210
 H354 H 0.37521 0.34894 0.69252
 H355 H 0.37507 0.30973 0.65377
 H356 H 0.34945 0.30977 0.62743
 H357 H 0.31085 0.34897 0.62667
 C358 C 0.33227 0.85911 0.15497
 C359 C 0.33212 0.84631 0.14206
 C360 C 0.34495 0.83384 0.14169
 C361 C 0.35806 0.83395 0.15430
 C362 C 0.35826 0.84661 0.16701
 C363 C 0.34527 0.85930 0.16733
 C364 C 0.32107 0.87238 0.15888
 N365 N 0.32694 0.88067 0.17331
 C366 C 0.34177 0.87275 0.17854
 C367 C 0.37199 0.84308 0.17786
 N368 N 0.38007 0.82853 0.17209
 C369 C 0.37162 0.82291 0.15765
 C370 C 0.34120 0.82279 0.12819
 N371 N 0.32638 0.82821 0.12037
 C372 C 0.32074 0.84260 0.12881
 H373 H 0.30946 0.87571 0.15174
 H374 H 0.34921 0.87616 0.18997
 H375 H 0.37545 0.85023 0.18944
 H376 H 0.37498 0.81153 0.15018
 H377 H 0.34849 0.81135 0.12464
 H378 H 0.30919 0.84986 0.12559
 C379 C 0.83395 0.35793 0.15397
 C380 C 0.83392 0.34481 0.14138
 C381 C 0.84641 0.33201 0.14182
 C382 C 0.85917 0.33221 0.15478
 C383 C 0.85929 0.34522 0.16713
 C384 C 0.84657 0.35817 0.16673
 C385 C 0.82286 0.37146 0.15725
 N386 N 0.82842 0.37994 0.17170
 C387 C 0.84296 0.37190 0.17754
 C388 C 0.87269 0.34175 0.17841
 N389 N 0.88066 0.32693 0.17324
 C390 C 0.87244 0.32103 0.15878
 C391 C 0.84277 0.32060 0.12859
 N392 N 0.82838 0.32619 0.12008
 C393 C 0.82290 0.34102 0.12785
 H394 H 0.81149 0.37479 0.14973
 H395 H 0.85007 0.37540 0.18915
 H396 H 0.87605 0.34920 0.18984
 H397 H 0.87581 0.30942 0.15167
 H398 H 0.85006 0.30907 0.12542
 H399 H 0.81146 0.34826 0.12425
 C400 C 0.83231 0.85723 0.65352
 C401 C 0.83210 0.84410 0.64094
 C402 C 0.84460 0.83131 0.64120
 C403 C 0.85754 0.83151 0.65398
 C404 C 0.85783 0.84452 0.66632
 C405 C 0.84510 0.85748 0.66609
 C406 C 0.82128 0.87078 0.65694
 N407 N 0.82705 0.87928 0.67129
 C408 C 0.84166 0.87123 0.67694
 C409 C 0.87140 0.84107 0.67740
 N410 N 0.87930 0.82625 0.67212
 C411 C 0.87088 0.82035 0.65778
 C412 C 0.84078 0.81991 0.62801
 N413 N 0.82629 0.82550 0.61970
 C414 C 0.82091 0.84032 0.62755
 H415 H 0.80982 0.87412 0.64957
 H416 H 0.84894 0.87473 0.68844
 H417 H 0.87492 0.84853 0.68877
 H418 H 0.87416 0.80874 0.65063
 H419 H 0.84805 0.80838 0.62474
 H420 H 0.80942 0.84757 0.62410
 C421 C 0.66706 0.64145 0.65696
 C422 C 0.66708 0.65417 0.64400
 C423 C 0.65428 0.66667 0.64374
 C424 C 0.64135 0.66668 0.65652
 C425 C 0.64129 0.65409 0.66928
 C426 C 0.65424 0.64135 0.66949
 C427 C 0.67828 0.62816 0.66076
 N428 N 0.67259 0.61995 0.67529
 C429 C 0.65786 0.62794 0.68070
 C430 C 0.62770 0.65771 0.68027
 N431 N 0.61957 0.67224 0.67453
 C432 C 0.62786 0.67777 0.65998
 C433 C 0.65786 0.67763 0.63013
 N434 N 0.67255 0.67210 0.62213
 C435 C 0.67826 0.65775 0.63058
 H436 H 0.68976 0.62476 0.65347
 H437 H 0.65057 0.62459 0.69222
 H438 H 0.62435 0.65062 0.69191
 H439 H 0.62442 0.68911 0.65249
 H440 H 0.65055 0.68905 0.62661
 H441 H 0.68973 0.65042 0.62723
 C442 C 0.66892 0.14180 0.15594
 C443 C 0.66907 0.15453 0.14298
 C444 C 0.65627 0.16702 0.14259
 C445 C 0.64319 0.16702 0.15521
 C446 C 0.64299 0.15443 0.16797
 C447 C 0.65595 0.14170 0.16832
 C448 C 0.68008 0.12849 0.15987
 N449 N 0.67421 0.12028 0.17432
 C450 C 0.65942 0.12828 0.17955
 C451 C 0.62926 0.15802 0.17878
 N452 N 0.62118 0.17253 0.17295
 C453 C 0.62963 0.17808 0.15850
 C454 C 0.65998 0.17797 0.12900
 N455 N 0.67475 0.17244 0.12116
 C456 C 0.68039 0.15810 0.12967
 H457 H 0.69164 0.12509 0.15271
 H458 H 0.65199 0.12493 0.19098
 H459 H 0.62578 0.15091 0.19037
 H460 H 0.62626 0.18941 0.15097
 H461 H 0.65269 0.18938 0.12539
 H462 H 0.69190 0.15078 0.12644
 C463 C 0.16726 0.64301 0.15554
 C464 C 0.16735 0.65607 0.14290
 C465 C 0.15490 0.66891 0.14326
 C466 C 0.14213 0.66883 0.15619
 C467 C 0.14195 0.65589 0.16859
 C468 C 0.15463 0.64288 0.16827
 C469 C 0.17827 0.62942 0.15887
 N470 N 0.17265 0.62102 0.17332
 C471 C 0.15814 0.62916 0.17911
 C472 C 0.12851 0.65942 0.17978
 N473 N 0.12057 0.67423 0.17452
 C474 C 0.12885 0.68003 0.16007
 C475 C 0.15855 0.68019 0.12995
 N476 N 0.17290 0.67448 0.12147
 C477 C 0.17835 0.65971 0.12933
 H478 H 0.18961 0.62599 0.15137
 H479 H 0.15099 0.62573 0.19070
 H480 H 0.12509 0.65202 0.19121
 H481 H 0.12550 0.69159 0.15289
 H482 H 0.15127 0.69171 0.12669
 H483 H 0.18975 0.65238 0.12576
 C484 C 0.16797 0.14222 0.65436
 C485 C 0.16819 0.15516 0.64161
 C486 C 0.15538 0.16765 0.64132
 C487 C 0.14221 0.16743 0.65385
 C488 C 0.14195 0.15463 0.66640
 C489 C 0.15492 0.14192 0.66665
 C490 C 0.17912 0.12888 0.65817
 N491 N 0.17317 0.12045 0.67246
 C492 C 0.15834 0.12835 0.67770
 C493 C 0.12816 0.15805 0.67720
 N494 N 0.12010 0.17265 0.67156
 C495 C 0.12863 0.17843 0.65725
 C496 C 0.15918 0.17882 0.62795
 N497 N 0.17403 0.17345 0.62014
 C498 C 0.17962 0.15897 0.62845
 H499 H 0.19075 0.12561 0.65104
 H500 H 0.15084 0.12482 0.68904
 H501 H 0.12463 0.15076 0.68867
 H502 H 0.12529 0.18988 0.64988
 H503 H 0.15192 0.19029 0.62449
 H504 H 0.19116 0.15172 0.62520
 C505 C 0.33279 0.64239 0.34335
 C506 C 0.33280 0.65534 0.35612
 C507 C 0.34523 0.66814 0.35578
 C508 C 0.35789 0.66811 0.34274
 C509 C 0.35799 0.65527 0.33021
 C510 C 0.34532 0.64231 0.33051
 C511 C 0.32177 0.62888 0.33999
 N512 N 0.32727 0.62056 0.32542
 C513 C 0.34172 0.62869 0.31958
 C514 C 0.37133 0.65887 0.31894
 N515 N 0.37928 0.67361 0.32429
 C516 C 0.37112 0.67931 0.33886
 C517 C 0.34168 0.67933 0.36923
 N518 N 0.32741 0.67361 0.37777
 C519 C 0.32191 0.65892 0.36981
 H520 H 0.31049 0.62543 0.34755
 H521 H 0.34878 0.62531 0.30790
 H522 H 0.37468 0.65155 0.30741
 H523 H 0.37450 0.69080 0.34613
 H524 H 0.34898 0.69079 0.37254
 H525 H 0.31054 0.65161 0.37340
 C526 C 0.33147 0.14146 0.84434
 C527 C 0.33131 0.15424 0.85727
 C528 C 0.34412 0.16667 0.85766
 C529 C 0.35721 0.16654 0.84505
 C530 C 0.35741 0.15390 0.83232
 C531 C 0.34445 0.14125 0.83198
 C532 C 0.32030 0.12821 0.84043
 N533 N 0.32617 0.11992 0.82599
 C534 C 0.34098 0.12781 0.82076
 C535 C 0.37114 0.15739 0.82150
 N536 N 0.37922 0.17189 0.82730
 C537 C 0.37077 0.17753 0.84173
 C538 C 0.34040 0.17770 0.87120
 N539 N 0.32560 0.17230 0.87903
 C540 C 0.31996 0.15795 0.87055
 H541 H 0.30872 0.12489 0.84757
 H542 H 0.34842 0.12438 0.80934
 H543 H 0.37462 0.15023 0.80991
 H544 H 0.37413 0.18888 0.84923
 H545 H 0.34768 0.18909 0.87478
 H546 H 0.30844 0.15070 0.87378
 C547 C 0.83287 0.64221 0.84483
 C548 C 0.83277 0.65532 0.85744
 C549 C 0.84520 0.66812 0.85704
 C550 C 0.85796 0.66794 0.84410
 C551 C 0.85816 0.65495 0.83174
 C552 C 0.84550 0.64199 0.83210
 C553 C 0.82187 0.62866 0.84153
 N554 N 0.82749 0.62019 0.82709
 C555 C 0.84199 0.62825 0.82128
 C556 C 0.87158 0.65841 0.82052
 N557 N 0.87948 0.67322 0.82574
 C558 C 0.87121 0.67910 0.84018
 C559 C 0.84153 0.67948 0.87031
 N560 N 0.82719 0.67387 0.87880
 C561 C 0.82176 0.65907 0.87100
 H562 H 0.81053 0.62530 0.84904
 H563 H 0.84913 0.62476 0.80969
 H564 H 0.87500 0.65096 0.80910
 H565 H 0.87453 0.69068 0.84733
 H566 H 0.84879 0.69099 0.87352
 H567 H 0.81037 0.65180 0.87459
 C568 C 0.83223 0.14299 0.34566
 C569 C 0.83201 0.15613 0.35823
 C570 C 0.84445 0.16893 0.35792
 C571 C 0.85735 0.16870 0.34511
 C572 C 0.85765 0.15568 0.33278
 C573 C 0.84498 0.14273 0.33305
 C574 C 0.82126 0.12942 0.34230
 N575 N 0.82703 0.12090 0.32795
 C576 C 0.84158 0.12894 0.32226
 C577 C 0.87119 0.15909 0.32169
 N578 N 0.87906 0.17390 0.32695
 C579 C 0.87065 0.17984 0.34129
 C580 C 0.84066 0.18032 0.37113
 N581 N 0.82624 0.17473 0.37950
 C582 C 0.82088 0.15992 0.37167
 H583 H 0.80985 0.12609 0.34971
 H584 H 0.84884 0.12541 0.31076
 H585 H 0.87472 0.15160 0.31033
 H586 H 0.87392 0.19143 0.34844
 H587 H 0.84790 0.19183 0.37439
 H588 H 0.80945 0.15266 0.37517
 C589 C 0.66752 0.35848 0.34260
 C590 C 0.66752 0.34586 0.35567
 C591 C 0.65473 0.33341 0.35599
 C592 C 0.64182 0.33335 0.34317
 C593 C 0.64178 0.34584 0.33030
 C594 C 0.65473 0.35852 0.33003
 C595 C 0.67873 0.37169 0.33873
 N596 N 0.67307 0.37980 0.32411
 C597 C 0.65835 0.37182 0.31873
 C598 C 0.62820 0.34219 0.31931
 N599 N 0.62007 0.32775 0.32514
 C600 C 0.62833 0.32230 0.33976
 C601 C 0.65828 0.32257 0.36972
 N602 N 0.67294 0.32811 0.37772
 C603 C 0.67867 0.34236 0.36917
 H604 H 0.69020 0.37511 0.34603
 H605 H 0.65108 0.37511 0.30715
 H606 H 0.62486 0.34921 0.30760
 H607 H 0.62488 0.31104 0.34734
 H608 H 0.65097 0.31120 0.37330
 H609 H 0.69012 0.34968 0.37250
 C610 C 0.66845 0.85806 0.84382
 C611 C 0.66856 0.84535 0.85681
 C612 C 0.65575 0.83293 0.85717
 C613 C 0.64271 0.83297 0.84448
 C614 C 0.64256 0.84555 0.83170
 C615 C 0.65552 0.85820 0.83138
 C616 C 0.67963 0.87130 0.83992
 N617 N 0.67382 0.87951 0.82542
 C618 C 0.65904 0.87158 0.82014
 C619 C 0.62887 0.84200 0.82083
 N620 N 0.62076 0.82754 0.82664
 C621 C 0.62916 0.82197 0.84114
 C622 C 0.65940 0.82199 0.87080
 N623 N 0.67415 0.82744 0.87869
 C624 C 0.67983 0.84174 0.87018
 H625 H 0.69118 0.87466 0.84712
 H626 H 0.65164 0.87495 0.80867
 H627 H 0.62543 0.84911 0.80920
 H628 H 0.62576 0.81067 0.84867
 H629 H 0.65210 0.81062 0.87438
 H630 H 0.69133 0.84901 0.87345
 C631 C 0.16698 0.35739 0.84399
 C632 C 0.16703 0.34436 0.85666
 C633 C 0.15461 0.33154 0.85624
 C634 C 0.14191 0.33164 0.84323
 C635 C 0.14176 0.34455 0.83081
 C636 C 0.15441 0.35752 0.83118
 C637 C 0.17797 0.37094 0.84071
 N638 N 0.17240 0.37933 0.82621
 C639 C 0.15795 0.37122 0.82034
 C640 C 0.12838 0.34103 0.81953
 N641 N 0.12046 0.32625 0.82477
 C642 C 0.12868 0.32045 0.83928
 C643 C 0.15822 0.32028 0.86960
 N644 N 0.17251 0.32597 0.87817
 C645 C 0.17797 0.34071 0.87031
 H646 H 0.18927 0.37436 0.84828
 H647 H 0.15084 0.37465 0.80871
 H648 H 0.12500 0.34842 0.80807
 H649 H 0.12532 0.30891 0.84646
 H650 H 0.15094 0.30879 0.87284
 H651 H 0.18933 0.34802 0.87395
 C652 C 0.16841 0.85828 0.34494
 C653 C 0.16861 0.84544 0.35779
 C654 C 0.15583 0.83298 0.35810
 C655 C 0.14272 0.83313 0.34549
 C656 C 0.14247 0.84583 0.33284
 C657 C 0.15541 0.85851 0.33257
 C658 C 0.17954 0.87157 0.34111
 N659 N 0.17364 0.87991 0.32672
 C660 C 0.15884 0.87201 0.32144
 C661 C 0.12873 0.84236 0.32200
 N662 N 0.12069 0.82782 0.32772
 C663 C 0.12918 0.82213 0.34211
 C664 C 0.15959 0.82191 0.37159
 N665 N 0.17438 0.82732 0.37946
 C666 C 0.17997 0.84172 0.37106
 H667 H 0.19112 0.87488 0.34828
 H668 H 0.15139 0.87548 0.31004
 H669 H 0.12521 0.84957 0.31047
 H670 H 0.12584 0.81075 0.34956
 H671 H 0.15234 0.81048 0.37509
 H672 H 0.19147 0.84899 0.37433
 O673 O 0.24755 1.01743 0.27290
 O674 O 0.27204 0.98410 0.24907
 O675 O 0.27179 1.01790 0.24945
 O676 O 0.24787 0.98386 0.27256
 O677 O 0.22795 0.98404 0.25200
 O678 O 0.25222 1.01764 0.22855
 O679 O 0.25212 0.98407 0.22851
 O680 O 0.22798 1.01784 0.25200
 Cu681 Cu 0.26181 1.00082 0.26305
 Cu682 Cu 0.23806 1.00091 0.23821
 C683 C 0.23363 1.02342 0.26647
 C684 C 0.26621 0.97829 0.23476
 C685 C 0.26610 1.02360 0.23504
 C686 C 0.23383 0.97810 0.26624
 O687 O 0.22750 0.48328 0.75199
 O688 O 0.25169 0.51702 0.72868
 O689 O 0.25184 0.48341 0.72864
 O690 O 0.22740 0.51707 0.75203
 O691 O 0.24694 0.51683 0.77295
 O692 O 0.27157 0.48344 0.74938
 O693 O 0.27129 0.51720 0.74954
 O694 O 0.24725 0.48326 0.77271
 Cu695 Cu 0.23762 0.50019 0.73827
 Cu696 Cu 0.26125 0.50019 0.76321
 C697 C 0.23327 0.47744 0.76631
 C698 C 0.26559 0.52294 0.73514
 C699 C 0.26588 0.47763 0.73502
 C700 C 0.23300 0.52271 0.76649
 O701 O 0.77261 0.01666 0.25340
 O702 O 0.74849 -0.01698 0.22979
 O703 O 0.74857 0.01663 0.22973
 O704 O 0.77255 -0.01712 0.25340
 O705 O 0.75277 -0.01676 0.27407
 O706 O 0.72861 0.01676 0.25021
 O707 O 0.72865 -0.01701 0.25039
 O708 O 0.75264 0.01682 0.27387
 Cu709 Cu 0.76257 -0.00021 0.23954
 Cu710 Cu 0.73865 -0.00005 0.26418
 C711 C 0.76671 0.02256 0.26764
 C712 C 0.73448 -0.02281 0.23608
 C713 C 0.73451 0.02252 0.23592
 C714 C 0.76676 -0.02273 0.26778
 O715 O 0.77226 0.51627 0.75267
 O716 O 0.74790 0.48268 0.72924
 O717 O 0.74789 0.51630 0.72934
 O718 O 0.77228 0.48250 0.75253
 O719 O 0.75279 0.48274 0.77349
 O720 O 0.72820 0.51628 0.75009
 O721 O 0.72836 0.48250 0.75013
 O722 O 0.75256 0.51631 0.77341
 Cu723 Cu 0.76206 0.49944 0.73887
 Cu724 Cu 0.73849 0.49944 0.76384
 C725 C 0.76654 0.52211 0.76701
 C726 C 0.73400 0.47678 0.73570
 C727 C 0.73390 0.52211 0.73575
 C728 C 0.76671 0.47683 0.76698
 O729 O 0.25186 0.48339 0.27160
 O730 O 0.22772 0.51713 0.24804
 O731 O 0.22764 0.48338 0.24808
 O732 O 0.25195 0.51701 0.27153
 O733 O 0.27171 0.51694 0.25085
 O734 O 0.24741 0.48332 0.22741
 O735 O 0.24748 0.51693 0.22737
 O736 O 0.27163 0.48318 0.25093
 Cu737 Cu 0.23780 0.50024 0.26187
 Cu738 Cu 0.26155 0.50007 0.23708
 C739 C 0.26585 0.47747 0.26528
 C740 C 0.23350 0.52286 0.23370
 C741 C 0.23339 0.47755 0.23375
 C742 C 0.26596 0.52278 0.26518
 O743 O 0.72824 0.98291 0.74978
 O744 O 0.75223 1.01661 0.72620
 O745 O 0.75225 0.98300 0.72610
 O746 O 0.72819 1.01670 0.74981
 O747 O 0.74799 1.01640 0.77048
 O748 O 0.77223 0.98295 0.74658
 O749 O 0.77209 1.01671 0.74682
 O750 O 0.74824 0.98283 0.77025
 Cu751 Cu 0.73821 0.99981 0.73593
 Cu752 Cu 0.76215 0.99973 0.76057
 C753 C 0.73418 0.97704 0.76402
 C754 C 0.76623 1.02249 0.73250
 C755 C 0.76634 0.97718 0.73229
 C756 C 0.73398 1.02233 0.76420
 O757 O 0.77243 0.48327 0.24654
 O758 O 0.74800 0.51678 0.27013
 O759 O 0.74813 0.48316 0.26991
 O760 O 0.77232 0.51701 0.24678
 O761 O 0.75264 0.51704 0.22600
 O762 O 0.72843 0.48319 0.24915
 O763 O 0.72831 0.51695 0.24936
 O764 O 0.75274 0.48342 0.22577
 Cu765 Cu 0.76221 0.50005 0.26041
 Cu766 Cu 0.73854 0.50016 0.23550
 C767 C 0.76674 0.47756 0.23214
 C768 C 0.73401 0.52265 0.26377
 C769 C 0.73417 0.47734 0.26347
 C770 C 0.76659 0.52287 0.23245
 O771 O 0.24725 -0.01723 0.72692
 O772 O 0.27161 0.01624 0.75056
 O773 O 0.27150 -0.01756 0.75040
 O774 O 0.24747 0.01635 0.72701
 O775 O 0.22754 0.01632 0.74753
 O776 O 0.25194 -0.01713 0.77127
 O777 O 0.25169 0.01643 0.77108
 O778 O 0.22769 -0.01749 0.74781
 Cu779 Cu 0.26146 -0.00056 0.73667
 Cu780 Cu 0.23771 -0.00046 0.76147
 C781 C 0.23336 -0.02316 0.73338
 C782 C 0.26575 0.02216 0.76481
 C783 C 0.26585 -0.02313 0.76485
 C784 C 0.23340 0.02216 0.73327
 O785 O 0.25077 0.22774 0.98287
 O786 O 0.22705 0.25168 1.01672
 O787 O 0.22700 0.25162 0.98284
 O788 O 0.25083 0.22786 1.01674
 O789 O 0.27100 0.24797 1.01672
 O790 O 0.24721 0.27170 0.98275
 O791 O 0.24725 0.27176 1.01671
 O792 O 0.27094 0.24786 0.98278
 Cu793 Cu 0.23689 0.23772 0.99979
 Cu794 Cu 0.26112 0.26184 0.99973
 C795 C 0.26489 0.23373 0.97698
 C796 C 0.23314 0.26576 1.02260
 C797 C 0.23306 0.26569 0.97692
 C798 C 0.26495 0.23389 1.02260
 O799 O 0.24933 0.77147 0.48308
 O800 O 0.27308 0.74723 0.51669
 O801 O 0.27307 0.74754 0.48283
 O802 O 0.24941 0.77110 0.51698
 O803 O 0.22902 0.75121 0.51657
 O804 O 0.25288 0.72745 0.48268
 O805 O 0.25272 0.72730 0.51665
 O806 O 0.22920 0.75132 0.48269
 Cu807 Cu 0.26325 0.76134 0.49990
 Cu808 Cu 0.23894 0.73730 0.49963
 C809 C 0.23525 0.76550 0.47705
 C810 C 0.26690 0.73318 0.52253
 C811 C 0.26701 0.73348 0.47687
 C812 C 0.23518 0.76517 0.52266
 O813 O 0.27140 0.75221 -0.01686
 O814 O 0.24775 0.72862 0.01719
 O815 O 0.24775 0.72848 -0.01677
 O816 O 0.27145 0.75240 0.01708
 O817 O 0.25123 0.77256 0.01695
 O818 O 0.22748 0.74859 -0.01682
 O819 O 0.22749 0.74875 0.01706
 O820 O 0.25118 0.77237 -0.01691
 Cu821 Cu 0.26161 0.73840 0.00018
 Cu822 Cu 0.23732 0.76258 0.00008
 C823 C 0.26530 0.76628 -0.02279
 C824 C 0.23359 0.73467 0.02300
 C825 C 0.23361 0.73449 -0.02267
 C826 C 0.26538 0.76656 0.02284
 O827 O 0.27334 0.25316 0.48356
 O828 O 0.24947 0.22925 0.51720
 O829 O 0.24956 0.22944 0.48334
 O830 O 0.27327 0.25299 0.51743
 O831 O 0.25306 0.27317 0.51753
 O832 O 0.22940 0.24966 0.48336
 O833 O 0.22930 0.24946 0.51730
 O834 O 0.25314 0.27334 0.48358
 Cu835 Cu 0.26343 0.23919 0.50038
 Cu836 Cu 0.23921 0.26343 0.50046
 C837 C 0.26728 0.26729 0.47772
 C838 C 0.23533 0.23528 0.52306
 C839 C 0.23547 0.23556 0.47744
 C840 C 0.26719 0.26708 0.52337
 O841 O 0.74871 0.77274 0.98309
 O842 O 0.77269 0.74886 1.01679
 O843 O 0.77251 0.74889 0.98293
 O844 O 0.74884 0.77263 1.01698
 O845 O 0.72872 0.75247 1.01703
 O846 O 0.75234 0.72879 0.98292
 O847 O 0.75252 0.72874 1.01685
 O848 O 0.72858 0.75259 0.98307
 Cu849 Cu 0.76270 0.76280 0.99994
 Cu850 Cu 0.73851 0.73863 0.99997
 C851 C 0.73459 0.76672 0.97724
 C852 C 0.76668 0.73475 1.02265
 C853 C 0.76645 0.73480 0.97705
 C854 C 0.73477 0.76656 1.02291
 O855 O 0.72624 0.25355 0.51650
 O856 O 0.75032 0.22972 0.48281
 O857 O 0.75001 0.22972 0.51676
 O858 O 0.72658 0.25352 0.48259
 O859 O 0.74665 0.27372 0.48297
 O860 O 0.77030 0.24971 0.51682
 O861 O 0.77046 0.24986 0.48298
 O862 O 0.74655 0.27352 0.51690
 Cu863 Cu 0.73626 0.23961 0.49965
 Cu864 Cu 0.76050 0.26373 0.49993
 C865 C 0.73233 0.26755 0.52257
 C866 C 0.76448 0.23575 0.47706
 C867 C 0.76415 0.23566 0.52267
 C868 C 0.73262 0.26767 0.47690
 O869 O 0.75283 0.27087 0.01680
 O870 O 0.72900 0.24703 -0.01701
 O871 O 0.72912 0.24712 0.01694
 O872 O 0.75264 0.27077 -0.01713
 O873 O 0.77291 0.25065 -0.01714
 O874 O 0.74932 0.22695 0.01687
 O875 O 0.74922 0.22686 -0.01700
 O876 O 0.77309 0.25074 0.01673
 Cu877 Cu 0.73887 0.26096 -0.00008
 Cu878 Cu 0.76316 0.23678 -0.00013
 C879 C 0.76702 0.26487 0.02259
 C880 C 0.73508 0.23291 -0.02287
 C881 C 0.73521 0.23301 0.02279
 C882 C 0.76676 0.26472 -0.02304
 O883 O 0.72594 0.74622 0.48334
 O884 O 0.74997 0.77017 0.51694
 O885 O 0.74963 0.76994 0.48300
 O886 O 0.72623 0.74645 0.51728
 O887 O 0.74642 0.72626 0.51721
 O888 O 0.76987 0.74979 0.48298
 O889 O 0.77020 0.75002 0.51684
 O890 O 0.74613 0.72603 0.48334
 Cu891 Cu 0.73591 0.76022 0.50015
 Cu892 Cu 0.76018 0.73600 0.50009
 C893 C 0.73197 0.73205 0.47753
 C894 C 0.76418 0.76417 0.52268
 C895 C 0.76372 0.76385 0.47707
 C896 C 0.73234 0.73236 0.52316
 O897 O 1.01760 0.27169 0.25009
 O898 O 0.98335 0.24790 0.27305
 O899 O 1.01694 0.24747 0.27354
 O900 O 0.98377 0.27204 0.24955
 O901 O 0.98377 0.25213 0.22900
 O902 O 1.01739 0.22792 0.25263
 O903 O 0.98357 0.22800 0.25250
 O904 O 1.01737 0.25215 0.22919
 Cu905 Cu 1.00041 0.26178 0.26361
 Cu906 Cu 1.00054 0.23805 0.23878
 C907 C 1.02334 0.26600 0.23570
 C908 C 0.97758 0.23389 0.26672
 C909 C 1.02292 0.23354 0.26714
 C910 C 0.97799 0.26622 0.23522
 O911 O 0.51717 0.27082 0.75082
 O912 O 0.48324 0.24668 0.77391
 O913 O 0.51684 0.24634 0.77406
 O914 O 0.48336 0.27106 0.75066
 O915 O 0.48332 0.25142 0.72985
 O916 O 0.51705 0.22692 0.75304
 O917 O 0.48325 0.22704 0.75311
 O918 O 0.51697 0.25134 0.72986
 Cu919 Cu 0.50017 0.26071 0.76444
 Cu920 Cu 0.50014 0.23721 0.73938
 C921 C 0.52291 0.26520 0.73639
 C922 C 0.47741 0.23274 0.76746
 C923 C 0.52273 0.23244 0.76751
 C924 C 0.47753 0.26541 0.73629
 O925 O 0.01676 0.25172 0.77027
 O926 O -0.01749 0.22783 0.74733
 O927 O 0.01635 0.22754 0.74677
 O928 O -0.01682 0.25210 0.77074
 O929 O -0.01733 0.27162 0.74985
 O930 O 0.01628 0.24739 0.72620
 O931 O -0.01733 0.24735 0.72642
 O932 O 0.01650 0.27158 0.74971
 Cu933 Cu -0.00029 0.23779 0.76083
 Cu934 Cu -0.00049 0.26148 0.73598
 C935 C 0.02250 0.26573 0.76393
 C936 C -0.02328 0.23351 0.73295
 C937 C 0.02209 0.23333 0.73243
 C938 C -0.02283 0.26601 0.76435
 O939 O 0.51689 0.25217 0.27079
 O940 O 0.48340 0.22779 0.24722
 O941 O 0.51717 0.22793 0.24733
 O942 O 0.48324 0.25201 0.27069
 O943 O 0.48310 0.27174 0.25001
 O944 O 0.51703 0.24765 0.22664
 O945 O 0.48338 0.24752 0.22653
 O946 O 0.51688 0.27189 0.25010
 Cu947 Cu 0.50019 0.23798 0.26107
 Cu948 Cu 0.50009 0.26169 0.23626
 C949 C 0.52267 0.26617 0.26446
 C950 C 0.47761 0.23351 0.23286
 C951 C 0.52295 0.23369 0.23301
 C952 C 0.47731 0.26597 0.26433
 O953 O 1.01704 0.72777 0.75059
 O954 O 0.98326 0.75182 0.72698
 O955 O 1.01691 0.75191 0.72711
 O956 O 0.98323 0.72773 0.75055
 O957 O 0.98308 0.74763 0.77110
 O958 O 1.01694 0.77165 0.74782
 O959 O 0.98315 0.77171 0.74755
 O960 O 1.01668 0.74747 0.77136
 Cu961 Cu 1.00012 0.73781 0.73676
 Cu962 Cu 0.99996 0.76162 0.76151
 C963 C 1.02265 0.73351 0.76501
 C964 C 0.97738 0.76585 0.73323
 C965 C 1.02276 0.76588 0.73349
 C966 C 0.97732 0.73359 0.76481
 O967 O 0.48352 0.75306 0.22644
 O968 O 0.51700 0.72858 0.25003
 O969 O 0.48320 0.72874 0.24975
 O970 O 0.51713 0.75297 0.22670
 O971 O 0.51726 0.77244 0.24768
 O972 O 0.48307 0.74843 0.27050
 O973 O 0.51670 0.74811 0.27094
 O974 O 0.48344 0.77276 0.24719
 Cu975 Cu 0.50023 0.73885 0.23616
 Cu976 Cu 0.50010 0.76242 0.26115
 C977 C 0.47772 0.76709 0.23279
 C978 C 0.52260 0.73416 0.26452
 C979 C 0.47726 0.73449 0.26403
 C980 C 0.52305 0.76681 0.23329
 O981 O 0.01684 0.75306 0.27361
 O982 O -0.01690 0.72894 0.25012
 O983 O 0.01690 0.72896 0.25003
 O984 O -0.01678 0.75308 0.27373
 O985 O -0.01713 0.77279 0.25301
 O986 O 0.01678 0.74884 0.22949
 O987 O -0.01686 0.74870 0.22946
 O988 O 0.01668 0.77295 0.25308
 Cu989 Cu 0.00002 0.73901 0.26392
 Cu990 Cu -0.00014 0.76282 0.23921
 C991 C 0.02257 0.76712 0.26735
 C992 C -0.02270 0.73472 0.23578
 C993 C 0.02268 0.73482 0.23574
 C994 C -0.02278 0.76702 0.26738
 O995 O 0.51673 0.75267 0.77309
 O996 O 0.48265 0.72863 0.75004
 O997 O 0.51645 0.72835 0.74974
 O998 O 0.48314 0.75304 0.77339
 O999 O 0.48284 0.77252 0.75246
 O1000 O 0.51638 0.74802 0.72899
 O1001 O 0.48275 0.74817 0.72917
 O1002 O 0.51664 0.77236 0.75236
 Cu1003 Cu 0.49974 0.73869 0.76363
 Cu1004 Cu 0.49965 0.76225 0.73867
 C1005 C 0.52255 0.76662 0.76667
 C1006 C 0.47683 0.73431 0.73567
 C1007 C 0.52219 0.73401 0.73535
 C1008 C 0.47723 0.76696 0.76693
 C1009 C 0.42168 0.30175 0.29989
 C1010 C 0.41986 0.31983 0.29914
 C1011 C 0.40602 0.32806 0.30744
 C1012 C 0.39374 0.31843 0.31675
 C1013 C 0.39558 0.30037 0.31752
 C1014 C 0.40935 0.29213 0.30916
 C1015 C 0.43629 0.29291 0.29096
 C1016 C 0.44453 0.27864 0.29871
 C1017 C 0.45792 0.26999 0.29012
 C1018 C 0.46345 0.27545 0.27361
 C1019 C 0.45539 0.28986 0.26595
 C1020 C 0.44194 0.29847 0.27452
 H1021 H 0.40508 0.34201 0.30681
 H1022 H 0.38616 0.29256 0.32432
 H1023 H 0.46393 0.25900 0.29643
 H1024 H 0.45930 0.29436 0.25322
 H1025 H 0.41016 0.27817 0.30972
 H1026 H 0.44070 0.27420 0.31148
 H1027 H 0.42927 0.32764 0.29233
 H1028 H 0.43572 0.30927 0.26809
 C1029 C 0.42220 0.80329 0.80290
 C1030 C 0.41804 0.82058 0.79918
 C1031 C 0.40400 0.82868 0.80727
 C1032 C 0.39374 0.81979 0.81953
 C1033 C 0.39823 0.80251 0.82341
 C1034 C 0.41213 0.79440 0.81514
 C1035 C 0.43677 0.79443 0.79384
 C1036 C 0.44694 0.78207 0.80256
 C1037 C 0.46011 0.77321 0.79385
 C1038 C 0.46360 0.77667 0.77627
 C1039 C 0.45372 0.78927 0.76762
 C1040 C 0.44039 0.79797 0.77626
 H1041 H 0.40158 0.84206 0.80408
 H1042 H 0.39071 0.79482 0.83234
 H1043 H 0.46762 0.76369 0.80091
 H1044 H 0.45603 0.79213 0.75403
 H1045 H 0.41468 0.78094 0.81806
 H1046 H 0.44478 0.77926 0.81617
 H1047 H 0.42576 0.82798 0.79012
 H1048 H 0.43266 0.80717 0.76903
 C1049 C -0.07784 0.30193 0.80074
 C1050 C -0.08793 0.29287 0.81285
 C1051 C -0.10173 0.30093 0.82134
 C1052 C -0.10610 0.31832 0.81782
 C1053 C -0.09586 0.32734 0.80564
 C1054 C -0.08192 0.31929 0.79733
 C1055 C -0.06330 0.29317 0.79156
 C1056 C -0.05968 0.29691 0.77403
 C1057 C -0.04635 0.28831 0.76528
 C1058 C -0.03646 0.27563 0.77379
 C1059 C -0.03995 0.27196 0.79132
 C1060 C -0.05313 0.28070 0.80014
 H1061 H -0.10925 0.29314 0.83017
 H1062 H -0.09819 0.34080 0.80271
 H1063 H -0.04403 0.29134 0.75173
 H1064 H -0.03244 0.26236 0.79828
 H1065 H -0.07419 0.32679 0.78836
 H1066 H -0.06740 0.30621 0.76692
 H1067 H -0.08544 0.27936 0.81553
 H1068 H -0.05529 0.27773 0.81371
 C1069 C -0.07848 0.80237 0.30328
 C1070 C -0.08880 0.79318 0.31509
 C1071 C -0.10276 0.80113 0.32340
 C1072 C -0.10708 0.81855 0.32000
 C1073 C -0.09661 0.82772 0.30814
 C1074 C -0.08251 0.81978 0.30001
 C1075 C -0.06378 0.79373 0.29424
 C1076 C -0.05987 0.79771 0.27683
 C1077 C -0.04637 0.78925 0.26820
 C1078 C -0.03660 0.77647 0.27672
 C1079 C -0.04039 0.77257 0.29414
 C1080 C -0.05374 0.78117 0.30283
 H1081 H -0.11044 0.79322 0.33199
 H1082 H -0.09889 0.84121 0.30533
 H1083 H -0.04383 0.79246 0.25474
 H1084 H -0.03298 0.76289 0.30109
 H1085 H -0.07462 0.82739 0.29128
 H1086 H -0.06749 0.80709 0.26970
 H1087 H -0.08634 0.77963 0.31765
 H1088 H -0.05614 0.77802 0.31633
 C1089 C 0.57731 0.69753 0.30064
 C1090 C 0.57910 0.67947 0.29959
 C1091 C 0.59281 0.67106 0.30793
 C1092 C 0.60500 0.68052 0.31758
 C1093 C 0.60318 0.69855 0.31870
 C1094 C 0.58953 0.70696 0.31030
 C1095 C 0.56291 0.70657 0.29157
 C1096 C 0.55460 0.72078 0.29938
 C1097 C 0.54144 0.72964 0.29065
 C1098 C 0.53622 0.72446 0.27394
 C1099 C 0.54434 0.71011 0.26622
 C1100 C 0.55756 0.70129 0.27492
 H1101 H 0.59376 0.65714 0.30703
 H1102 H 0.61252 0.70623 0.32576
 H1103 H 0.53538 0.74057 0.29701
 H1104 H 0.54065 0.70583 0.25333
 H1105 H 0.58874 0.72091 0.31110
 H1106 H 0.55821 0.72500 0.31231
 H1107 H 0.56977 0.67180 0.29248
 H1108 H 0.56384 0.69055 0.26844
 C1109 C 0.57790 0.19597 0.80312
 C1110 C 0.58202 0.17869 0.79931
 C1111 C 0.59607 0.17053 0.80734
 C1112 C 0.60636 0.17935 0.81965
 C1113 C 0.60191 0.19663 0.82362
 C1114 C 0.58802 0.20480 0.81540
 C1115 C 0.56331 0.20488 0.79415
 C1116 C 0.55318 0.21721 0.80297
 C1117 C 0.53997 0.22611 0.79434
 C1118 C 0.53641 0.22271 0.77676
 C1119 C 0.54626 0.21016 0.76800
 C1120 C 0.55963 0.20142 0.77656
 H1121 H 0.59845 0.15716 0.80409
 H1122 H 0.60946 0.20427 0.83258
 H1123 H 0.53249 0.23560 0.80147
 H1124 H 0.54389 0.20734 0.75441
 H1125 H 0.58550 0.21824 0.81839
 H1126 H 0.55539 0.21997 0.81659
 H1127 H 0.57427 0.17134 0.79022
 H1128 H 0.56732 0.19224 0.76926
 C1129 C 1.07782 0.69766 0.80127
 C1130 C 1.08799 0.70668 0.81336
 C1131 C 1.10179 0.69858 0.82181
 C1132 C 1.10609 0.68118 0.81827
 C1133 C 1.09577 0.67218 0.80611
 C1134 C 1.08182 0.68027 0.79784
 C1135 C 1.06328 0.70646 0.79211
 C1136 C 1.05956 0.70266 0.77461
 C1137 C 1.04620 0.71124 0.76590
 C1138 C 1.03637 0.72397 0.77441
 C1139 C 1.03997 0.72772 0.79192
 C1140 C 1.05319 0.71899 0.80070
 H1141 H 1.10938 0.70636 0.83062
 H1142 H 1.09804 0.65871 0.80317
 H1143 H 1.04380 0.70815 0.75237
 H1144 H 1.03251 0.73736 0.79887
 H1145 H 1.07403 0.67279 0.78890
 H1146 H 1.06723 0.69331 0.76748
 H1147 H 1.08556 0.72021 0.81605
 H1148 H 1.05543 0.72201 0.81426
 C1149 C 1.07788 0.19748 0.30348
 C1150 C 1.08197 0.18013 0.29994
 C1151 C 1.09599 0.17208 0.30812
 C1152 C 1.10630 0.18107 0.32029
 C1153 C 1.10187 0.19841 0.32400
 C1154 C 1.08799 0.20648 0.31564
 C1155 C 1.06334 0.20628 0.29432
 C1156 C 1.05319 0.21874 0.30293
 C1157 C 1.04002 0.22753 0.29413
 C1158 C 1.03654 0.22391 0.27657
 C1159 C 1.04642 0.21123 0.26803
 C1160 C 1.05973 0.20259 0.27677
 H1161 H 1.09835 0.15865 0.30507
 H1162 H 1.10941 0.20617 0.33286
 H1163 H 1.03252 0.23712 0.30110
 H1164 H 1.04410 0.20823 0.25447
 H1165 H 1.08548 0.21997 0.31843
 H1166 H 1.05535 0.22168 0.31652
 H1167 H 1.07422 0.17267 0.29094
 H1168 H 1.06745 0.19330 0.26963
 C1169 C 0.57837 0.30119 0.70112
 C1170 C 0.58015 0.31925 0.70206
 C1171 C 0.59393 0.32753 0.69378
 C1172 C 0.60619 0.31795 0.68432
 C1173 C 0.60441 0.29991 0.68337
 C1174 C 0.59069 0.29163 0.69170
 C1175 C 0.56380 0.29230 0.70999
 C1176 C 0.55556 0.27814 0.70209
 C1177 C 0.54222 0.26944 0.71061
 C1178 C 0.53673 0.27474 0.72720
 C1179 C 0.54479 0.28904 0.73501
 C1180 C 0.55819 0.29771 0.72651
 H1181 H 0.59485 0.34147 0.69455
 H1182 H 0.61381 0.29214 0.67645
 H1183 H 0.53621 0.25854 0.70418
 H1184 H 0.54091 0.29341 0.74781
 H1185 H 0.58990 0.27767 0.69100
 H1186 H 0.55936 0.27383 0.68924
 H1187 H 0.57075 0.32702 0.70900
 H1188 H 0.56441 0.30842 0.73306
 C1189 C 0.57879 0.80266 0.19824
 C1190 C 0.58890 0.79382 0.18594
 C1191 C 0.60281 0.80194 0.17776
 C1192 C 0.60728 0.81917 0.18181
 C1193 C 0.59702 0.82799 0.19418
 C1194 C 0.58296 0.81989 0.20215
 C1195 C 0.56412 0.79385 0.20710
 C1196 C 0.56034 0.79731 0.22466
 C1197 C 0.54683 0.78873 0.23308
 C1198 C 0.53693 0.77634 0.22420
 C1199 C 0.54061 0.77291 0.20665
 C1200 C 0.55396 0.78165 0.19817
 H1201 H 0.61034 0.79430 0.16876
 H1202 H 0.59943 0.84133 0.19750
 H1203 H 0.54437 0.79156 0.24665
 H1204 H 0.53310 0.76354 0.19943
 H1205 H 0.57523 0.82725 0.21127
 H1206 H 0.56805 0.80637 0.23205
 H1207 H 0.58635 0.78041 0.18287
 H1208 H 0.55625 0.77890 0.18455
 C1209 C 1.07893 0.30161 0.20018
 C1210 C 1.08908 0.29263 0.18801
 C1211 C 1.10284 0.30074 0.17959
 C1212 C 1.10712 0.31811 0.18323
 C1213 C 1.09689 0.32703 0.19554
 C1214 C 1.08297 0.31894 0.20378
 C1215 C 1.06432 0.29285 0.20918
 C1216 C 1.06052 0.29653 0.22669
 C1217 C 1.04705 0.28801 0.23523
 C1218 C 1.03719 0.27547 0.22651
 C1219 C 1.04088 0.27184 0.20901
 C1220 C 1.05421 0.28050 0.20041
 H1221 H 1.11038 0.29302 0.17067
 H1222 H 1.09917 0.34046 0.19860
 H1223 H 1.04457 0.29100 0.24876
 H1224 H 1.03341 0.26235 0.20190
 H1225 H 1.07522 0.32639 0.21281
 H1226 H 1.06819 0.30573 0.23396
 H1227 H 1.08663 0.27915 0.18520
 H1228 H 1.05650 0.27759 0.18683
 C1229 C 1.07833 0.80157 0.69811
 C1230 C 1.08004 0.81965 0.69870
 C1231 C 1.09395 0.82781 0.69051
 C1232 C 1.10642 0.81807 0.68148
 C1233 C 1.10469 0.80001 0.68087
 C1234 C 1.09084 0.79186 0.68910
 C1235 C 1.06369 0.79280 0.70695
 C1236 C 1.05561 0.77845 0.69923
 C1237 C 1.04224 0.76981 0.70778
 C1238 C 1.03657 0.77537 0.72422
 C1239 C 1.04445 0.78988 0.73184
 C1240 C 1.05787 0.79848 0.72331
 H1241 H 1.09482 0.84176 0.69102
 H1242 H 1.11425 0.79212 0.67431
 H1243 H 1.03638 0.75875 0.70150
 H1244 H 1.04041 0.79446 0.74452
 H1245 H 1.09012 0.77789 0.68869
 H1246 H 1.05958 0.77392 0.68652
 H1247 H 1.07049 0.82753 0.70531
 H1248 H 1.06396 0.80935 0.72971
 C1249 C 0.42110 0.69850 0.70050
 C1250 C 0.40873 0.70811 0.69119
 C1251 C 0.39494 0.69988 0.68290
 C1252 C 0.39313 0.68184 0.68377
 C1253 C 0.40544 0.67221 0.69312
 C1254 C 0.41930 0.68044 0.70136
 C1255 C 0.43573 0.70734 0.70934
 C1256 C 0.44144 0.70187 0.72581
 C1257 C 0.45491 0.71049 0.73428
 C1258 C 0.46294 0.72481 0.72650
 C1259 C 0.45736 0.73016 0.70996
 C1260 C 0.44395 0.72151 0.70146
 H1261 H 0.38551 0.70769 0.67608
 H1262 H 0.40451 0.65827 0.69383
 H1263 H 0.45886 0.70608 0.74705
 H1264 H 0.46334 0.74108 0.70355
 H1265 H 0.42873 0.67263 0.70821
 H1266 H 0.43525 0.69114 0.73233
 H1267 H 0.40954 0.72207 0.69056
 H1268 H 0.44007 0.72587 0.68866
 C1269 C 0.42234 0.19750 0.19717
 C1270 C 0.42048 0.17944 0.19804
 C1271 C 0.40653 0.17126 0.18991
 C1272 C 0.39417 0.18094 0.18067
 C1273 C 0.39609 0.19897 0.17972
 C1274 C 0.40997 0.20715 0.18790
 C1275 C 0.43695 0.20632 0.20607
 C1276 C 0.44515 0.22055 0.19830
 C1277 C 0.45844 0.22927 0.20692
 C1278 C 0.46391 0.22391 0.22350
 C1279 C 0.45592 0.20951 0.23117
 C1280 C 0.44257 0.20083 0.22257
 H1281 H 0.40551 0.15734 0.19068
 H1282 H 0.38662 0.20682 0.17298
 H1283 H 0.46440 0.24024 0.20060
 H1284 H 0.45980 0.20509 0.24396
 H1285 H 0.41081 0.22110 0.18726
 H1286 H 0.44134 0.22493 0.18548
 H1287 H 0.42991 0.17161 0.20486
 H1288 H 0.43639 0.19006 0.22902
 C1289 C -0.07810 0.69899 0.20001
 C1290 C -0.09049 0.70866 0.19078
 C1291 C -0.10422 0.70046 0.18236
 C1292 C -0.10596 0.68241 0.18301
 C1293 C -0.09363 0.67272 0.19228
 C1294 C -0.07983 0.68091 0.20066
 C1295 C -0.06353 0.70779 0.20898
 C1296 C -0.05784 0.70217 0.22541
 C1297 C -0.04445 0.71077 0.23403
 C1298 C -0.03647 0.72522 0.22643
 C1299 C -0.04202 0.73072 0.20993
 C1300 C -0.05535 0.72208 0.20129
 H1301 H -0.11367 0.70831 0.17560
 H1302 H -0.09451 0.65877 0.19282
 H1303 H -0.04052 0.70624 0.24676
 H1304 H -0.03608 0.74173 0.20366
 H1305 H -0.07038 0.67306 0.20744
 H1306 H -0.06400 0.69134 0.23179
 H1307 H -0.08974 0.72262 0.19031
 H1308 H -0.05921 0.72656 0.18852
 C1309 C -0.07926 0.19807 0.69777
 C1310 C -0.08332 0.18075 0.70131
 C1311 C -0.09739 0.17275 0.69322
 C1312 C -0.10778 0.18177 0.68112
 C1313 C -0.10348 0.19914 0.67751
 C1314 C -0.08955 0.20715 0.68579
 C1315 C -0.06452 0.20675 0.70665
 C1316 C -0.05447 0.21910 0.69784
 C1317 C -0.04105 0.22772 0.70636
 C1318 C -0.03719 0.22404 0.72382
 C1319 C -0.04697 0.21148 0.73256
 C1320 C -0.06054 0.20301 0.72411
 H1321 H -0.09969 0.15931 0.69623
 H1322 H -0.11113 0.20694 0.66876
 H1323 H -0.03363 0.23723 0.69923
 H1324 H -0.04437 0.20845 0.74606
 H1325 H -0.08709 0.22064 0.68303
 H1326 H -0.05690 0.22206 0.68430
 H1327 H -0.07546 0.17323 0.71019
 H1328 H -0.06815 0.19380 0.73140
 C1329 C 0.30190 0.42223 0.30114
 C1330 C 0.31998 0.42036 0.30021
 C1331 C 0.32827 0.40653 0.30845
 C1332 C 0.31869 0.39430 0.31789
 C1333 C 0.30064 0.39623 0.31891
 C1334 C 0.29235 0.40999 0.31061
 C1335 C 0.29299 0.43675 0.29215
 C1336 C 0.27875 0.44505 0.29990
 C1337 C 0.27003 0.45834 0.29123
 C1338 C 0.27539 0.46370 0.27464
 C1339 C 0.28977 0.45558 0.26697
 C1340 C 0.29845 0.44223 0.27561
 H1341 H 0.34221 0.40551 0.30763
 H1342 H 0.29287 0.38686 0.32582
 H1343 H 0.25906 0.46440 0.29755
 H1344 H 0.29419 0.45937 0.25417
 H1345 H 0.27838 0.41085 0.31132
 H1346 H 0.27438 0.44135 0.31274
 H1347 H 0.32775 0.42970 0.29326
 H1348 H 0.30922 0.43596 0.26916
 C1349 C 0.30176 -0.07830 0.80098
 C1350 C 0.31917 -0.08230 0.79757
 C1351 C 0.32727 -0.09621 0.80585
 C1352 C 0.31828 -0.10650 0.81801
 C1353 C 0.30085 -0.10223 0.82151
 C1354 C 0.29273 -0.08846 0.81304
 C1355 C 0.29296 -0.06376 0.79185
 C1356 C 0.28046 -0.05366 0.80046
 C1357 C 0.27172 -0.04044 0.79171
 C1358 C 0.27542 -0.03685 0.77421
 C1359 C 0.28813 -0.04668 0.76566
 C1360 C 0.29673 -0.06005 0.77434
 H1361 H 0.34075 -0.09848 0.80292
 H1362 H 0.29307 -0.10980 0.83031
 H1363 H 0.26210 -0.03298 0.79870
 H1364 H 0.29118 -0.04429 0.75213
 H1365 H 0.27920 -0.08603 0.81572
 H1366 H 0.27747 -0.05589 0.81402
 H1367 H 0.32665 -0.07452 0.78863
 H1368 H 0.30605 -0.06772 0.76720
 C1369 C 0.80308 0.42169 0.80268
 C1370 C 0.82040 0.41761 0.79896
 C1371 C 0.82856 0.40360 0.80702
 C1372 C 0.81970 0.39329 0.81927
 C1373 C 0.80239 0.39770 0.82315
 C1374 C 0.79421 0.41156 0.81490
 C1375 C 0.79418 0.43625 0.79367
 C1376 C 0.78179 0.44636 0.80244
 C1377 C 0.77292 0.45956 0.79380
 C1378 C 0.77639 0.46313 0.77624
 C1379 C 0.78899 0.45330 0.76753
 C1380 C 0.79771 0.43994 0.77612
 H1381 H 0.84196 0.40124 0.80384
 H1382 H 0.79472 0.39015 0.83207
 H1383 H 0.76339 0.46704 0.80089
 H1384 H 0.79187 0.45568 0.75396
 H1385 H 0.78074 0.41406 0.81782
 H1386 H 0.77898 0.44415 0.81605
 H1387 H 0.82778 0.42537 0.78992
 H1388 H 0.80693 0.43226 0.76885
 C1389 C 0.80244 -0.07798 0.30402
 C1390 C 0.81982 -0.08204 0.30062
 C1391 C 0.82781 -0.09612 0.30875
 C1392 C 0.81871 -0.10651 0.32073
 C1393 C 0.80133 -0.10211 0.32431
 C1394 C 0.79333 -0.08818 0.31600
 C1395 C 0.79371 -0.06339 0.29490
 C1396 C 0.78116 -0.05330 0.30346
 C1397 C 0.77246 -0.04007 0.29468
 C1398 C 0.77627 -0.03645 0.27720
 C1399 C 0.78903 -0.04627 0.26871
 C1400 C 0.79758 -0.05965 0.27742
 H1401 H 0.84128 -0.09845 0.30581
 H1402 H 0.79349 -0.10971 0.33302
 H1403 H 0.76280 -0.03261 0.30161
 H1404 H 0.79217 -0.04385 0.25521
 H1405 H 0.77980 -0.08568 0.31868
 H1406 H 0.77808 -0.05556 0.31699
 H1407 H 0.82738 -0.07423 0.29178
 H1408 H 0.80693 -0.06731 0.27031
 C1409 C 0.30150 0.57827 0.69961
 C1410 C 0.31957 0.58014 0.70061
 C1411 C 0.32782 0.59396 0.69238
 C1412 C 0.31820 0.60618 0.68289
 C1413 C 0.30016 0.60427 0.68183
 C1414 C 0.29191 0.59052 0.69012
 C1415 C 0.29264 0.56374 0.70854
 C1416 C 0.27849 0.55543 0.70068
 C1417 C 0.26980 0.54213 0.70926
 C1418 C 0.27511 0.53674 0.72589
 C1419 C 0.28940 0.54486 0.73366
 C1420 C 0.29805 0.55823 0.72510
 H1421 H 0.34175 0.59497 0.69323
 H1422 H 0.29237 0.61363 0.67489
 H1423 H 0.25891 0.53606 0.70286
 H1424 H 0.29378 0.54105 0.74649
 H1425 H 0.27795 0.58966 0.68937
 H1426 H 0.27417 0.55915 0.68781
 H1427 H 0.32737 0.57079 0.70759
 H1428 H 0.30875 0.56450 0.73162
 C1429 C 0.30174 1.07904 0.19937
 C1430 C 0.31909 1.08308 0.20291
 C1431 C 0.32716 1.09699 0.19466
 C1432 C 0.31818 1.10723 0.18240
 C1433 C 0.30079 1.10295 0.17881
 C1434 C 0.29271 1.08918 0.18724
 C1435 C 0.29299 1.06445 0.20840
 C1436 C 0.28061 1.05434 0.19966
 C1437 C 0.27194 1.04105 0.20830
 C1438 C 0.27560 1.03739 0.22580
 C1439 C 0.28819 1.04723 0.23448
 C1440 C 0.29671 1.06067 0.22591
 H1441 H 0.34061 1.09928 0.19767
 H1442 H 0.29302 1.11049 0.16993
 H1443 H 0.26242 1.03358 0.20122
 H1444 H 0.29120 1.04478 0.24801
 H1445 H 0.27920 1.08674 0.18448
 H1446 H 0.27767 1.05662 0.18609
 H1447 H 0.32657 1.07533 0.21191
 H1448 H 0.30594 1.06834 0.23314
 C1449 C 0.80263 0.57840 0.19739
 C1450 C 0.82070 0.58025 0.19843
 C1451 C 0.82896 0.59417 0.19038
 C1452 C 0.81936 0.60650 0.18103
 C1453 C 0.80132 0.60461 0.17992
 C1454 C 0.79305 0.59076 0.18803
 C1455 C 0.79374 0.56379 0.20616
 C1456 C 0.77956 0.55559 0.19824
 C1457 C 0.77084 0.54223 0.20671
 C1458 C 0.77615 0.53669 0.22328
 C1459 C 0.79048 0.54470 0.23112
 C1460 C 0.79915 0.55812 0.22267
 H1461 H 0.84289 0.59516 0.19127
 H1462 H 0.79354 0.61406 0.17309
 H1463 H 0.75992 0.53626 0.20027
 H1464 H 0.79485 0.54078 0.24390
 H1465 H 0.77910 0.58992 0.18726
 H1466 H 0.77525 0.55944 0.18541
 H1467 H 0.82848 0.57082 0.20531
 H1468 H 0.80987 0.56430 0.22924
 C1469 C 0.80174 1.07797 0.69682
 C1470 C 0.81982 1.07980 0.69747
 C1471 C 0.82792 1.09375 0.68929
 C1472 C 0.81813 1.10613 0.68023
 C1473 C 0.80006 1.10426 0.67951
 C1474 C 0.79197 1.09037 0.68773
 C1475 C 0.79302 1.06334 0.70573
 C1476 C 0.77870 1.05517 0.69806
 C1477 C 0.77010 1.04182 0.70668
 C1478 C 0.77568 1.03628 0.72316
 C1479 C 0.79016 1.04425 0.73074
 C1480 C 0.79872 1.05765 0.72213
 H1481 H 0.84187 1.09473 0.68988
 H1482 H 0.79213 1.11375 0.67292
 H1483 H 0.75906 1.03588 0.70044
 H1484 H 0.79475 1.04032 0.74345
 H1485 H 0.77800 1.08955 0.68726
 H1486 H 0.77415 1.05903 0.68531
 H1487 H 0.82775 1.07033 0.70414
 H1488 H 0.80957 1.06382 0.72851
 C1489 C 0.69770 0.57771 0.29965
 C1490 C 0.70723 0.59001 0.30909
 C1491 C 0.69888 0.60367 0.31751
 C1492 C 0.68081 0.60542 0.31665
 C1493 C 0.67126 0.59318 0.30718
 C1494 C 0.67961 0.57944 0.29881
 C1495 C 0.70667 0.56323 0.29064
 C1496 C 0.70120 0.55769 0.27411
 C1497 C 0.70994 0.54438 0.26547
 C1498 C 0.72438 0.53635 0.27313
 C1499 C 0.72973 0.54176 0.28973
 C1500 C 0.72096 0.55501 0.29840
 H1501 H 0.70663 0.61307 0.32443
 H1502 H 0.65731 0.59407 0.30648
 H1503 H 0.70553 0.54056 0.25266
 H1504 H 0.74074 0.53577 0.29605
 H1505 H 0.67187 0.57005 0.29187
 H1506 H 0.69039 0.56389 0.26768
 H1507 H 0.72120 0.58926 0.30972
 H1508 H 0.72532 0.55875 0.31124
 C1509 C 0.69814 1.07732 0.80071
 C1510 C 0.70720 1.08745 0.81281
 C1511 C 0.69909 1.10119 0.82135
 C1512 C 0.68166 1.10547 0.81789
 C1513 C 0.67263 1.09521 0.80571
 C1514 C 0.68072 1.08132 0.79735
 C1515 C 0.70693 1.06283 0.79148
 C1516 C 0.70308 1.05915 0.77398
 C1517 C 0.71166 1.04582 0.76520
 C1518 C 0.72444 1.03600 0.77366
 C1519 C 0.72823 1.03956 0.79116
 C1520 C 0.71950 1.05273 0.80000
 H1521 H 0.70689 1.10874 0.83018
 H1522 H 0.65914 1.09747 0.80282
 H1523 H 0.70853 1.04345 0.75168
 H1524 H 0.73791 1.03210 0.79807
 H1525 H 0.67321 1.07356 0.78839
 H1526 H 0.69370 1.06681 0.76690
 H1527 H 0.72074 1.08503 0.81545
 H1528 H 0.72256 1.05493 0.81356
 C1529 C 0.19670 0.57773 0.80251
 C1530 C 0.20562 0.58781 0.81476
 C1531 C 0.19749 0.60165 0.82310
 C1532 C 0.18016 0.60609 0.81928
 C1533 C 0.17126 0.59583 0.80700
 C1534 C 0.17938 0.58184 0.79885
 C1535 C 0.20557 0.56319 0.79342
 C1536 C 0.20198 0.55955 0.77585
 C1537 C 0.21067 0.54622 0.76719
 C1538 C 0.22331 0.53636 0.77583
 C1539 C 0.22683 0.53988 0.79340
 C1540 C 0.21798 0.55305 0.80212
 H1541 H 0.20519 0.60917 0.83203
 H1542 H 0.15784 0.59821 0.80386
 H1543 H 0.20776 0.54388 0.75362
 H1544 H 0.23638 0.53239 0.80044
 H1545 H 0.17196 0.57412 0.78978
 H1546 H 0.19273 0.56724 0.76864
 H1547 H 0.21910 0.58530 0.81764
 H1548 H 0.22084 0.55523 0.81573
 C1549 C 0.19780 1.07867 0.30257
 C1550 C 0.20690 1.08891 0.31455
 C1551 C 0.19884 1.10276 0.32294
 C1552 C 0.18141 1.10704 0.31946
 C1553 C 0.17234 1.09666 0.30741
 C1554 C 0.18039 1.08267 0.29919
 C1555 C 0.20655 1.06408 0.29347
 C1556 C 0.20271 1.06029 0.27598
 C1557 C 0.21129 1.04690 0.26731
 C1558 C 0.22405 1.03712 0.27585
 C1559 C 0.22781 1.04078 0.29333
 C1560 C 0.21909 1.05403 0.30207
 H1561 H 0.20667 1.11039 0.33167
 H1562 H 0.15885 1.09892 0.30451
 H1563 H 0.20818 1.04445 0.25380
 H1564 H 0.23747 1.03336 0.30031
 H1565 H 0.17285 1.07484 0.29032
 H1566 H 0.19335 1.06792 0.26885
 H1567 H 0.22044 1.08648 0.31719
 H1568 H 0.22214 1.05632 0.31562
 C1569 C 0.69783 0.42159 0.70008
 C1570 C 0.67978 0.41972 0.70116
 C1571 C 0.67147 0.40592 0.69292
 C1572 C 0.68102 0.39373 0.68334
 C1573 C 0.69905 0.39563 0.68219
 C1574 C 0.70736 0.40936 0.69049
 C1575 C 0.70676 0.43610 0.70902
 C1576 C 0.72088 0.44440 0.70114
 C1577 C 0.72963 0.45768 0.70975
 C1578 C 0.72442 0.46303 0.72641
 C1579 C 0.71015 0.45491 0.73421
 C1580 C 0.70144 0.44157 0.72562
 H1581 H 0.65754 0.40491 0.69384
 H1582 H 0.70680 0.38629 0.67517
 H1583 H 0.74050 0.46374 0.70333
 H1584 H 0.70584 0.45869 0.74706
 H1585 H 0.72131 0.41021 0.68966
 H1586 H 0.72513 0.44071 0.68825
 H1587 H 0.67202 0.42905 0.70822
 H1588 H 0.69077 0.43530 0.73216
 C1589 C 0.69888 -0.07825 0.20027
 C1590 C 0.68078 -0.08000 0.20083
 C1591 C 0.67264 -0.09385 0.19250
 C1592 C 0.68240 -0.10622 0.18337
 C1593 C 0.70048 -0.10445 0.18279
 C1594 C 0.70862 -0.09067 0.19117
 C1595 C 0.70763 -0.06366 0.20924
 C1596 C 0.72198 -0.05552 0.20160
 C1597 C 0.73059 -0.04218 0.21025
 C1598 C 0.72501 -0.03660 0.22672
 C1599 C 0.71050 -0.04454 0.23426
 C1600 C 0.70193 -0.05793 0.22563
 H1601 H 0.65868 -0.09474 0.19299
 H1602 H 0.70838 -0.11393 0.17615
 H1603 H 0.74165 -0.03627 0.20403
 H1604 H 0.70591 -0.04058 0.24696
 H1605 H 0.72259 -0.08991 0.19077
 H1606 H 0.72653 -0.05941 0.18887
 H1607 H 0.67289 -0.07052 0.20752
 H1608 H 0.69106 -0.06407 0.23197
 C1609 C 0.19740 0.42224 0.19813
 C1610 C 0.17934 0.42035 0.19905
 C1611 C 0.17115 0.40642 0.19091
 C1612 C 0.18082 0.39411 0.18160
 C1613 C 0.19886 0.39605 0.18061
 C1614 C 0.20706 0.40992 0.18881
 C1615 C 0.20623 0.43684 0.20703
 C1616 C 0.22044 0.44506 0.19923
 C1617 C 0.22916 0.45836 0.20784
 C1618 C 0.22381 0.46382 0.22442
 C1619 C 0.20943 0.45580 0.23212
 C1620 C 0.20076 0.44244 0.22354
 H1621 H 0.15721 0.40538 0.19171
 H1622 H 0.20672 0.38663 0.17382
 H1623 H 0.24011 0.46434 0.20149
 H1624 H 0.20502 0.45967 0.24492
 H1625 H 0.22101 0.41078 0.18813
 H1626 H 0.22481 0.44127 0.18640
 H1627 H 0.17150 0.42975 0.20591
 H1628 H 0.19001 0.43624 0.23002
 C1629 C 0.19756 -0.07853 0.69762
 C1630 C 0.18028 -0.08268 0.70133
 C1631 C 0.17222 -0.09669 0.69320
 C1632 C 0.18114 -0.10692 0.68089
 C1633 C 0.19843 -0.10248 0.67705
 C1634 C 0.20651 -0.08862 0.68537
 C1635 C 0.20634 -0.06394 0.70665
 C1636 C 0.21863 -0.05377 0.69789
 C1637 C 0.22735 -0.04051 0.70655
 C1638 C 0.22381 -0.03692 0.72410
 C1639 C 0.21131 -0.04682 0.73279
 C1640 C 0.20275 -0.06024 0.72420
 H1641 H 0.15883 -0.09907 0.69636
 H1642 H 0.20615 -0.10999 0.66810
 H1643 H 0.23681 -0.03299 0.69947
 H1644 H 0.20839 -0.04443 0.74636
 H1645 H 0.21996 -0.08608 0.68246
 H1646 H 0.22148 -0.05599 0.68429
 H1647 H 0.17284 -0.07496 0.71040
 H1648 H 0.19360 -0.06796 0.73146
 C1649 C 0.30288 0.30242 0.42172
 C1650 C 0.31192 0.29264 0.40925
 C1651 C 0.32006 0.30071 0.39524
 C1652 C 0.31929 0.31875 0.39329
 C1653 C 0.31029 0.32855 0.40576
 C1654 C 0.30222 0.32049 0.41983
 C1655 C 0.29400 0.29377 0.43648
 C1656 C 0.27774 0.29959 0.44222
 C1657 C 0.26917 0.29115 0.45577
 C1658 C 0.27665 0.27665 0.46384
 C1659 C 0.29299 0.27094 0.45824
 C1660 C 0.30158 0.27942 0.44474
 H1661 H 0.32664 0.29279 0.38570
 H1662 H 0.30969 0.34249 0.40475
 H1663 H 0.25656 0.29583 0.45973
 H1664 H 0.29915 0.25987 0.46425
 H1665 H 0.29561 0.32843 0.42935
 H1666 H 0.27142 0.31044 0.43598
 H1667 H 0.31241 0.27868 0.41013
 H1668 H 0.31422 0.27478 0.44084
 C1669 C 0.30033 0.80157 -0.07905
 C1670 C 0.31842 0.80103 -0.08077
 C1671 C 0.32656 0.80913 -0.09478
 C1672 C 0.31681 0.81804 -0.10734
 C1673 C 0.29873 0.81867 -0.10558
 C1674 C 0.29058 0.81049 -0.09163
 C1675 C 0.29162 0.79273 -0.06430
 C1676 C 0.27719 0.80029 -0.05614
 C1677 C 0.26874 0.79178 -0.04257
 C1678 C 0.27457 0.77554 -0.03680
 C1679 C 0.28912 0.76808 -0.04480
 C1680 C 0.29752 0.77656 -0.05842
 H1681 H 0.34053 0.80865 -0.09564
 H1682 H 0.29085 0.82519 -0.11519
 H1683 H 0.25762 0.79792 -0.03661
 H1684 H 0.29388 0.75555 -0.04072
 H1685 H 0.27660 0.81090 -0.09087
 H1686 H 0.27249 0.81286 -0.06016
 H1687 H 0.32633 0.79452 -0.07116
 H1688 H 0.30844 0.77027 -0.06458
 C1689 C 0.80196 0.29988 -0.07928
 C1690 C 0.81098 0.29019 -0.09183
 C1691 C 0.81912 0.29839 -0.10578
 C1692 C 0.81836 0.31644 -0.10756
 C1693 C 0.80936 0.32613 -0.09502
 C1694 C 0.80129 0.31796 -0.08101
 C1695 C 0.79314 0.29113 -0.06455
 C1696 C 0.77690 0.29693 -0.05870
 C1697 C 0.76845 0.28849 -0.04509
 C1698 C 0.77599 0.27401 -0.03705
 C1699 C 0.79229 0.26829 -0.04279
 C1700 C 0.80078 0.27677 -0.05635
 H1701 H 0.82572 0.29055 -0.11538
 H1702 H 0.80878 0.34008 -0.09589
 H1703 H 0.75587 0.29318 -0.04103
 H1704 H 0.79850 0.25723 -0.03680
 H1705 H 0.79470 0.32582 -0.07142
 H1706 H 0.77055 0.30779 -0.06489
 H1707 H 0.81149 0.27623 -0.09106
 H1708 H 0.81339 0.27215 -0.06034
 C1709 C 0.79916 0.79915 0.42106
 C1710 C 0.80836 0.78955 0.40855
 C1711 C 0.81668 0.79784 0.39477
 C1712 C 0.81593 0.81591 0.39311
 C1713 C 0.80673 0.82551 0.40558
 C1714 C 0.79848 0.81723 0.41942
 C1715 C 0.79023 0.79030 0.43566
 C1716 C 0.77394 0.79605 0.44141
 C1717 C 0.76542 0.78758 0.45496
 C1718 C 0.77296 0.77312 0.46303
 C1719 C 0.78929 0.76742 0.45737
 C1720 C 0.79784 0.77594 0.44387
 H1721 H 0.82343 0.79008 0.38522
 H1722 H 0.80616 0.83946 0.40479
 H1723 H 0.75282 0.79224 0.45896
 H1724 H 0.79549 0.75637 0.46338
 H1725 H 0.79176 0.82503 0.42897
 H1726 H 0.76760 0.80691 0.43521
 H1727 H 0.80888 0.77559 0.40925
 H1728 H 0.81049 0.77135 0.43995
 C1729 C 0.69659 0.30245 0.57878
 C1730 C 0.69722 0.32050 0.58080
 C1731 C 0.68915 0.32850 0.59495
 C1732 C 0.68020 0.31865 0.60736
 C1733 C 0.67945 0.30063 0.60527
 C1734 C 0.68758 0.29262 0.59118
 C1735 C 0.70549 0.29386 0.56397
 C1736 C 0.69794 0.27959 0.55557
 C1737 C 0.70657 0.27116 0.54202
 C1738 C 0.72292 0.27685 0.53650
 C1739 C 0.73036 0.29127 0.54471
 C1740 C 0.72176 0.29965 0.55831
 H1741 H 0.68973 0.34243 0.59607
 H1742 H 0.67291 0.29266 0.61476
 H1743 H 0.70044 0.26015 0.53591
 H1744 H 0.74298 0.29593 0.54082
 H1745 H 0.68711 0.27867 0.59019
 H1746 H 0.68530 0.27498 0.55942
 H1747 H 0.70380 0.32848 0.57134
 H1748 H 0.72805 0.31044 0.56464
 C1749 C 0.69972 0.80201 1.07923
 C1750 C 0.68165 0.80130 1.08114
 C1751 C 0.67353 0.80938 1.09521
 C1752 C 0.68328 0.81843 1.10765
 C1753 C 0.70132 0.81924 1.10570
 C1754 C 0.70946 0.81109 1.09168
 C1755 C 0.70842 0.79314 1.06446
 C1756 C 0.72270 0.80073 1.05615
 C1757 C 0.73117 0.79218 1.04257
 C1758 C 0.72549 0.77586 1.03693
 C1759 C 0.71108 0.76836 1.04508
 C1760 C 0.70267 0.77688 1.05870
 H1761 H 0.65958 0.80876 1.09622
 H1762 H 0.70921 0.82588 1.11521
 H1763 H 0.74218 0.79835 1.03651
 H1764 H 0.70644 0.75577 1.04110
 H1765 H 0.72342 0.81163 1.09079
 H1766 H 0.72729 0.81336 1.06007
 H1767 H 0.67374 0.79466 1.07163
 H1768 H 0.69187 0.77056 1.06498
 C1769 C 0.19781 0.30092 1.07891
 C1770 C 0.19823 0.31901 1.08065
 C1771 C 0.19017 0.32712 1.09474
 C1772 C 0.18143 0.31735 1.10736
 C1773 C 0.18093 0.29929 1.10558
 C1774 C 0.18905 0.29116 1.09155
 C1775 C 0.20662 0.29223 1.06411
 C1776 C 0.19911 0.27779 1.05598
 C1777 C 0.20763 0.26931 1.04240
 C1778 C 0.22384 0.27510 1.03658
 C1779 C 0.23125 0.28968 1.04453
 C1780 C 0.22276 0.29813 1.05815
 H1781 H 0.19056 0.34107 1.09562
 H1782 H 0.17455 0.29139 1.11524
 H1783 H 0.20153 0.25817 1.03650
 H1784 H 0.24376 0.29443 1.04040
 H1785 H 0.18875 0.27719 1.09078
 H1786 H 0.18657 0.27309 1.06006
 H1787 H 0.20462 0.32692 1.07100
 H1788 H 0.22901 0.30906 1.06428
 C1789 C 0.19936 0.80045 0.57859
 C1790 C 0.19007 0.79080 0.59092
 C1791 C 0.18177 0.79900 0.60480
 C1792 C 0.18264 0.81703 0.60675
 C1793 C 0.19191 0.82669 0.59444
 C1794 C 0.20015 0.81851 0.58050
 C1795 C 0.20835 0.79168 0.56394
 C1796 C 0.22473 0.79729 0.55841
 C1797 C 0.23335 0.78882 0.54488
 C1798 C 0.22581 0.77448 0.53662
 C1799 C 0.20938 0.76894 0.54204
 C1800 C 0.20074 0.77747 0.55551
 H1801 H 0.17496 0.79117 0.61422
 H1802 H 0.19259 0.84063 0.59545
 H1803 H 0.24603 0.79336 0.54107
 H1804 H 0.20318 0.75800 0.53587
 H1805 H 0.20696 0.82635 0.57108
 H1806 H 0.23108 0.80804 0.56478
 H1807 H 0.18947 0.77685 0.59002
 H1808 H 0.18802 0.77299 0.55926
 C1809 C 0.30219 0.69788 0.57877
 C1810 C 0.31124 0.70764 0.59122
 C1811 C 0.31936 0.69957 0.60528
 C1812 C 0.31856 0.68154 0.60728
 C1813 C 0.30952 0.67176 0.59485
 C1814 C 0.30146 0.67983 0.58073
 C1815 C 0.29339 0.70655 0.56394
 C1816 C 0.27710 0.70087 0.55817
 C1817 C 0.26861 0.70936 0.54456
 C1818 C 0.27618 0.72375 0.53646
 C1819 C 0.29255 0.72930 0.54209
 C1820 C 0.30107 0.72078 0.55564
 H1821 H 0.32596 0.70748 0.61479
 H1822 H 0.30890 0.65783 0.59591
 H1823 H 0.25598 0.70480 0.54057
 H1824 H 0.29879 0.74029 0.53606
 H1825 H 0.29483 0.67190 0.57124
 H1826 H 0.27072 0.69010 0.56442
 H1827 H 0.31177 0.72159 0.59030
 H1828 H 0.31373 0.72530 0.55957
 C1829 C 0.30034 0.19831 1.07861
 C1830 C 0.31845 0.19871 1.08022
 C1831 C 0.32666 0.19057 1.09420
 C1832 C 0.31697 0.18178 1.10685
 C1833 C 0.29888 0.18128 1.10519
 C1834 C 0.29065 0.18948 1.09126
 C1835 C 0.29154 0.20721 1.06392
 C1836 C 0.27704 0.19976 1.05584
 C1837 C 0.26850 0.20835 1.04234
 C1838 C 0.27430 0.22455 1.03655
 C1839 C 0.28893 0.23191 1.04447
 C1840 C 0.29743 0.22335 1.05802
 H1841 H 0.34063 0.19095 1.09499
 H1842 H 0.29104 0.17485 1.11486
 H1843 H 0.25732 0.20229 1.03645
 H1844 H 0.29369 0.24441 1.04037
 H1845 H 0.27667 0.18919 1.09058
 H1846 H 0.27234 0.18722 1.05988
 H1847 H 0.32631 0.20515 1.07056
 H1848 H 0.30842 0.22956 1.06411
 C1849 C 0.80283 0.69930 1.07825
 C1850 C 0.81188 0.70897 1.09077
 C1851 C 0.82017 0.70077 1.10466
 C1852 C 0.81954 0.68271 1.10641
 C1853 C 0.81055 0.67302 1.09387
 C1854 C 0.80232 0.68121 1.07993
 C1855 C 0.79379 0.70808 1.06364
 C1856 C 0.77752 0.70228 1.05794
 C1857 C 0.76882 0.71080 1.04450
 C1858 C 0.77615 0.72537 1.03649
 C1859 C 0.79249 0.73108 1.04206
 C1860 C 0.80121 0.72251 1.05546
 H1861 H 0.82675 0.70861 1.11425
 H1862 H 0.81005 0.65907 1.09473
 H1863 H 0.75622 0.70612 1.04056
 H1864 H 0.79854 0.74220 1.03610
 H1865 H 0.79571 0.67336 1.07036
 H1866 H 0.77132 0.69136 1.06412
 H1867 H 0.81227 0.72294 1.09004
 H1868 H 0.81385 0.72714 1.05933
 C1869 C 0.79971 0.20011 0.57858
 C1870 C 0.79917 0.18202 0.58020
 C1871 C 0.80742 0.17376 0.59410
 C1872 C 0.81645 0.18339 0.60665
 C1873 C 0.81705 0.20147 0.60500
 C1874 C 0.80875 0.20973 0.59115
 C1875 C 0.79078 0.20894 0.56394
 C1876 C 0.79834 0.22333 0.55580
 C1877 C 0.78975 0.23191 0.54233
 C1878 C 0.77345 0.22626 0.53662
 C1879 C 0.76598 0.21175 0.54459
 C1880 C 0.77453 0.20321 0.55811
 H1881 H 0.80695 0.15981 0.59488
 H1882 H 0.82366 0.20926 0.61460
 H1883 H 0.79591 0.24300 0.53639
 H1884 H 0.75339 0.20711 0.54054
 H1885 H 0.80914 0.22370 0.59048
 H1886 H 0.81096 0.22791 0.55977
 H1887 H 0.79256 0.17420 0.57060
 H1888 H 0.76824 0.19231 0.56425
 C1889 C 0.69661 0.69614 0.42178
 C1890 C 0.70637 0.68703 0.40936
 C1891 C 0.69827 0.67883 0.39538
 C1892 C 0.68021 0.67961 0.39343
 C1893 C 0.67043 0.68868 0.40586
 C1894 C 0.67853 0.69682 0.41990
 C1895 C 0.70531 0.70510 0.43649
 C1896 C 0.69953 0.72141 0.44213
 C1897 C 0.70803 0.73005 0.45561
 C1898 C 0.72255 0.72261 0.46371
 C1899 C 0.72821 0.70623 0.45821
 C1900 C 0.71967 0.69755 0.44479
 H1901 H 0.70618 0.67220 0.38587
 H1902 H 0.65648 0.68929 0.40484
 H1903 H 0.70338 0.74269 0.45950
 H1904 H 0.73929 0.70010 0.46426
 H1905 H 0.67061 0.70349 0.42938
 H1906 H 0.68867 0.72769 0.43586
 H1907 H 0.72034 0.68653 0.41023
 H1908 H 0.72427 0.68489 0.44096
 C1909 C 0.69987 0.19730 -0.07891
 C1910 C 0.70958 0.18832 -0.09147
 C1911 C 0.70140 0.18012 -0.10541
 C1912 C 0.68332 0.18078 -0.10717
 C1913 C 0.67360 0.18973 -0.09462
 C1914 C 0.68177 0.19786 -0.08062
 C1915 C 0.70861 0.20621 -0.06420
 C1916 C 0.70274 0.22242 -0.05839
 C1917 C 0.71118 0.23098 -0.04482
 C1918 C 0.72575 0.22356 -0.03680
 C1919 C 0.73154 0.20728 -0.04250
 C1920 C 0.72305 0.19869 -0.05602
 H1921 H 0.70925 0.17355 -0.11502
 H1922 H 0.65963 0.19023 -0.09548
 H1923 H 0.70644 0.24354 -0.04079
 H1924 H 0.74268 0.20117 -0.03654
 H1925 H 0.67389 0.20441 -0.07102
 H1926 H 0.69181 0.22869 -0.06457
 H1927 H 0.72356 0.18790 -0.09071
 H1928 H 0.72774 0.18610 -0.05999
 C1929 C 0.19831 0.69928 -0.07891
 C1930 C 0.19898 0.68120 -0.08071
 C1931 C 0.19088 0.67305 -0.09475
 C1932 C 0.18186 0.68278 -0.10725
 C1933 C 0.18112 0.70083 -0.10542
 C1934 C 0.18928 0.70899 -0.09144
 C1935 C 0.20714 0.70801 -0.06415
 C1936 C 0.19951 0.72236 -0.05592
 C1937 C 0.20802 0.73085 -0.04236
 C1938 C 0.22433 0.72514 -0.03664
 C1939 C 0.23186 0.71065 -0.04469
 C1940 C 0.22338 0.70220 -0.05830
 H1941 H 0.19144 0.65911 -0.09567
 H1942 H 0.17450 0.70869 -0.11498
 H1943 H 0.20182 0.74192 -0.03637
 H1944 H 0.24445 0.70598 -0.04064
 H1945 H 0.18879 0.72295 -0.09063
 H1946 H 0.18688 0.72698 -0.05991
 H1947 H 0.20558 0.67332 -0.07115
 H1948 H 0.22973 0.69134 -0.06450
 C1949 C 0.20016 0.20010 0.42136
 C1950 C 0.18206 0.20078 0.41964
 C1951 C 0.17383 0.19256 0.40574
 C1952 C 0.18348 0.18341 0.39327
 C1953 C 0.20156 0.18267 0.39502
 C1954 C 0.20981 0.19095 0.40887
 C1955 C 0.20897 0.20902 0.43602
 C1956 C 0.22333 0.20141 0.44426
 C1957 C 0.23185 0.20997 0.45778
 C1958 C 0.22616 0.22629 0.46344
 C1959 C 0.21168 0.23382 0.45535
 C1960 C 0.20321 0.22530 0.44178
 H1961 H 0.15987 0.19314 0.40488
 H1962 H 0.20937 0.17596 0.38548
 H1963 H 0.24291 0.20378 0.46380
 H1964 H 0.20703 0.24642 0.45934
 H1965 H 0.22378 0.19044 0.40963
 H1966 H 0.22793 0.18877 0.44034
 H1967 H 0.17423 0.20747 0.42919
 H1968 H 0.19234 0.23163 0.43555
 C1969 C 0.30226 0.42238 0.69949
 C1970 C 0.32033 0.42052 0.70052
 C1971 C 0.32866 0.40666 0.69235
 C1972 C 0.31911 0.39439 0.68291
 C1973 C 0.30106 0.39628 0.68183
 C1974 C 0.29273 0.41008 0.69005
 C1975 C 0.29330 0.43695 0.70838
 C1976 C 0.27908 0.44518 0.70052
 C1977 C 0.27027 0.45847 0.70911
 C1978 C 0.27554 0.46391 0.72572
 C1979 C 0.28993 0.45588 0.73349
 C1980 C 0.29869 0.44252 0.72493
 H1981 H 0.34259 0.40565 0.69322
 H1982 H 0.29331 0.38688 0.67493
 H1983 H 0.25931 0.46446 0.70272
 H1984 H 0.29427 0.45972 0.74631
 H1985 H 0.27877 0.41092 0.68929
 H1986 H 0.27478 0.44141 0.68767
 H1987 H 0.32808 0.42991 0.70746
 H1988 H 0.30944 0.43631 0.73145
 C1989 C 0.30198 0.92289 0.19889
 C1990 C 0.32008 0.92114 0.19943
 C1991 C 0.32827 0.90731 0.19107
 C1992 C 0.31855 0.89496 0.18191
 C1993 C 0.30046 0.89673 0.18135
 C1994 C 0.29228 0.91049 0.18976
 C1995 C 0.29319 0.93748 0.20787
 C1996 C 0.27880 0.94564 0.20024
 C1997 C 0.27016 0.95898 0.20890
 C1998 C 0.27574 0.96453 0.22538
 C1999 C 0.29029 0.95658 0.23291
 C2000 C 0.29890 0.94318 0.22426
 H2001 H 0.34223 0.90641 0.19154
 H2002 H 0.29259 0.88726 0.17468
 H2003 H 0.25906 0.96491 0.20269
 H2004 H 0.29488 0.96052 0.24561
 H2005 H 0.27830 0.91126 0.18937
 H2006 H 0.27425 0.94177 0.18750
 H2007 H 0.32795 0.93060 0.20613
 H2008 H 0.30981 0.93703 0.23060
 C2009 C 0.80305 0.42241 0.19642
 C2010 C 0.79351 0.41004 0.18708
 C2011 C 0.80184 0.39623 0.17888
 C2012 C 0.81990 0.39439 0.17988
 C2013 C 0.82946 0.40675 0.18919
 C2014 C 0.82114 0.42063 0.19733
 C2015 C 0.79410 0.43694 0.20535
 C2016 C 0.79956 0.44253 0.22187
 C2017 C 0.79081 0.45585 0.23048
 C2018 C 0.77637 0.46385 0.22279
 C2019 C 0.77102 0.45840 0.20620
 C2020 C 0.77981 0.44513 0.19757
 H2021 H 0.79408 0.38676 0.17208
 H2022 H 0.84340 0.40580 0.18998
 H2023 H 0.79522 0.45971 0.24327
 H2024 H 0.76001 0.46437 0.19988
 H2025 H 0.82889 0.43007 0.20419
 H2026 H 0.81037 0.43634 0.22833
 H2027 H 0.77954 0.41083 0.18640
 H2028 H 0.77545 0.44134 0.18474
 C2029 C 0.80211 0.92186 0.69627
 C2030 C 0.79242 0.90950 0.68708
 C2031 C 0.80060 0.89564 0.67880
 C2032 C 0.81867 0.89376 0.67957
 C2033 C 0.82838 0.90611 0.68873
 C2034 C 0.82020 0.92003 0.69695
 C2035 C 0.79331 0.93644 0.70527
 C2036 C 0.79898 0.94207 0.72170
 C2037 C 0.79037 0.95543 0.73038
 C2038 C 0.77585 0.96344 0.72285
 C2039 C 0.77029 0.95795 0.70635
 C2040 C 0.77894 0.94464 0.69764
 H2041 H 0.79274 0.88618 0.67212
 H2042 H 0.84233 0.90513 0.68935
 H2043 H 0.79495 0.95931 0.74311
 H2044 H 0.75921 0.96392 0.70014
 H2045 H 0.82806 0.92947 0.70369
 H2046 H 0.80986 0.93588 0.72804
 H2047 H 0.77845 0.91032 0.68657
 H2048 H 0.77441 0.94083 0.68488
 C2049 C 0.69779 0.57768 0.70050
 C2050 C 0.67970 0.57948 0.70128
 C2051 C 0.67144 0.59334 0.69305
 C2052 C 0.68107 0.60566 0.68379
 C2053 C 0.69914 0.60385 0.68301
 C2054 C 0.70740 0.59006 0.69129
 C2055 C 0.70668 0.56305 0.70933
 C2056 C 0.72095 0.55488 0.70150
 C2057 C 0.72968 0.54150 0.71002
 C2058 C 0.72429 0.53591 0.72653
 C2059 C 0.70985 0.54388 0.73425
 C2060 C 0.70116 0.55732 0.72576
 H2061 H 0.65749 0.59427 0.69370
 H2062 H 0.70694 0.61330 0.67626
 H2063 H 0.74069 0.53557 0.70366
 H2064 H 0.70541 0.53992 0.74699
 H2065 H 0.72137 0.58926 0.69072
 H2066 H 0.72535 0.55877 0.68873
 H2067 H 0.67190 0.57003 0.70806
 H2068 H 0.69035 0.56347 0.73224
 C2069 C 0.69902 0.07800 0.19992
 C2070 C 0.70877 0.09033 0.19078
 C2071 C 0.70063 0.10412 0.18235
 C2072 C 0.68256 0.10597 0.18292
 C2073 C 0.67279 0.09369 0.19209
 C2074 C 0.68093 0.07984 0.20047
 C2075 C 0.70776 0.06340 0.20894
 C2076 C 0.70201 0.05777 0.22533
 C2077 C 0.71055 0.04435 0.23400
 C2078 C 0.72507 0.03631 0.22650
 C2079 C 0.73069 0.04180 0.21004
 C2080 C 0.72212 0.05516 0.20135
 H2081 H 0.70853 0.11353 0.17567
 H2082 H 0.65883 0.09465 0.19256
 H2083 H 0.70593 0.04046 0.24669
 H2084 H 0.74177 0.03580 0.20386
 H2085 H 0.67302 0.07043 0.20717
 H2086 H 0.69114 0.06399 0.23164
 H2087 H 0.72274 0.08950 0.19038
 H2088 H 0.72669 0.05897 0.18861
 C2089 C 0.19766 0.57836 0.19806
 C2090 C 0.20731 0.59065 0.18875
 C2091 C 0.19909 0.60453 0.18055
 C2092 C 0.18105 0.60651 0.18152
 C2093 C 0.17138 0.59423 0.19079
 C2094 C 0.17959 0.58029 0.19893
 C2095 C 0.20649 0.56375 0.20697
 C2096 C 0.20096 0.55817 0.22345
 C2097 C 0.20959 0.54476 0.23204
 C2098 C 0.22398 0.53666 0.22437
 C2099 C 0.22940 0.54210 0.20782
 C2100 C 0.22073 0.55546 0.19921
 H2101 H 0.20693 0.61393 0.17377
 H2102 H 0.15745 0.59529 0.19156
 H2103 H 0.20513 0.54091 0.24480
 H2104 H 0.24038 0.53606 0.20150
 H2105 H 0.17176 0.57091 0.20576
 H2106 H 0.19019 0.56442 0.22990
 H2107 H 0.22127 0.58975 0.18810
 H2108 H 0.22515 0.55923 0.18640
 C2109 C 0.19790 0.07790 0.69768
 C2110 C 0.20768 0.09035 0.68874
 C2111 C 0.19957 0.10422 0.68043
 C2112 C 0.18149 0.10604 0.68092
 C2113 C 0.17169 0.09363 0.68988
 C2114 C 0.17980 0.07970 0.69815
 C2115 C 0.20661 0.06321 0.70658
 C2116 C 0.20082 0.05741 0.72289
 C2117 C 0.20936 0.04393 0.73146
 C2118 C 0.22392 0.03599 0.72394
 C2119 C 0.22958 0.04165 0.70754
 C2120 C 0.22101 0.05507 0.69895
 H2121 H 0.20750 0.11372 0.67391
 H2122 H 0.15773 0.09456 0.69029
 H2123 H 0.20471 0.03991 0.74410
 H2124 H 0.24069 0.03574 0.70134
 H2125 H 0.17188 0.07021 0.70470
 H2126 H 0.18990 0.06354 0.72922
 H2127 H 0.22166 0.08955 0.68842
 H2128 H 0.22562 0.05902 0.68628
 C2129 C 0.30206 0.57811 0.30065
 C2130 C 0.32013 0.57996 0.29963
 C2131 C 0.32840 0.59385 0.30777
 C2132 C 0.31881 0.60614 0.31717
 C2133 C 0.30077 0.60425 0.31826
 C2134 C 0.29249 0.59044 0.31006
 C2135 C 0.29316 0.56354 0.29177
 C2136 C 0.27896 0.55534 0.29962
 C2137 C 0.27022 0.54203 0.29105
 C2138 C 0.27554 0.53654 0.27446
 C2139 C 0.28989 0.54455 0.26671
 C2140 C 0.29858 0.55792 0.27525
 H2141 H 0.34233 0.59484 0.30690
 H2142 H 0.29299 0.61368 0.32513
 H2143 H 0.25928 0.53606 0.29743
 H2144 H 0.29427 0.54067 0.25391
 H2145 H 0.27854 0.58961 0.31082
 H2146 H 0.27463 0.55914 0.31245
 H2147 H 0.32791 0.57056 0.29272
 H2148 H 0.30932 0.56411 0.26874
 C2149 C 0.30134 0.07769 0.80047
 C2150 C 0.29160 0.09012 0.80957
 C2151 C 0.29974 0.10389 0.81796
 C2152 C 0.31782 0.10563 0.81740
 C2153 C 0.32758 0.09326 0.80826
 C2154 C 0.31943 0.07942 0.79992
 C2155 C 0.29259 0.06308 0.79153
 C2156 C 0.29830 0.05731 0.77516
 C2157 C 0.28974 0.04388 0.76657
 C2158 C 0.27524 0.03596 0.77413
 C2159 C 0.26965 0.04159 0.79058
 C2160 C 0.27824 0.05495 0.79919
 H2161 H 0.29185 0.11337 0.82461
 H2162 H 0.34154 0.09414 0.80779
 H2163 H 0.29433 0.03989 0.75388
 H2164 H 0.25859 0.03569 0.79682
 H2165 H 0.32733 0.06994 0.79324
 H2166 H 0.30917 0.06343 0.76880
 H2167 H 0.27762 0.08937 0.80996
 H2168 H 0.27370 0.05887 0.81191
 C2169 C 0.80247 0.57758 0.80242
 C2170 C 0.79283 0.58994 0.81172
 C2171 C 0.80104 0.60380 0.81990
 C2172 C 0.81909 0.60570 0.81891
 C2173 C 0.82875 0.59336 0.80963
 C2174 C 0.82053 0.57943 0.80151
 C2175 C 0.79363 0.56296 0.79357
 C2176 C 0.79911 0.55730 0.77708
 C2177 C 0.79046 0.54390 0.76855
 C2178 C 0.77610 0.53589 0.77628
 C2179 C 0.77073 0.54142 0.79284
 C2180 C 0.77942 0.55476 0.80140
 H2181 H 0.79321 0.61325 0.82667
 H2182 H 0.84268 0.59435 0.80885
 H2183 H 0.79488 0.53999 0.75577
 H2184 H 0.75978 0.53544 0.79921
 H2185 H 0.82836 0.57000 0.79469
 H2186 H 0.80986 0.56349 0.77058
 H2187 H 0.77887 0.58910 0.81240
 H2188 H 0.77505 0.55860 0.81421
 C2189 C 0.80227 0.07816 0.30323
 C2190 C 0.82035 0.08002 0.30250
 C2191 C 0.82847 0.09399 0.31063
 C2192 C 0.81871 0.10637 0.31975
 C2193 C 0.80066 0.10447 0.32056
 C2194 C 0.79254 0.09057 0.31236
 C2195 C 0.79353 0.06351 0.29434
 C2196 C 0.77923 0.05534 0.30204
 C2197 C 0.77063 0.04197 0.29344
 C2198 C 0.77618 0.03637 0.27697
 C2199 C 0.79064 0.04434 0.26937
 C2200 C 0.79919 0.05777 0.27794
 H2201 H 0.84241 0.09499 0.30999
 H2202 H 0.79276 0.11395 0.32720
 H2203 H 0.75960 0.03603 0.29971
 H2204 H 0.79520 0.04037 0.25666
 H2205 H 0.77857 0.08973 0.31290
 H2206 H 0.77472 0.05924 0.31478
 H2207 H 0.82825 0.07055 0.29580
 H2208 H 0.81002 0.06393 0.27154
 C2209 C 0.69826 0.42183 0.29872
 C2210 C 0.68018 0.42008 0.29789
 C2211 C 0.67192 0.40630 0.30617
 C2212 C 0.68154 0.39400 0.31553
 C2213 C 0.69961 0.39574 0.31635
 C2214 C 0.70787 0.40946 0.30802
 C2215 C 0.70713 0.43640 0.28986
 C2216 C 0.72138 0.44457 0.29770
 C2217 C 0.73006 0.45792 0.28919
 C2218 C 0.72465 0.46350 0.27267
 C2219 C 0.71026 0.45552 0.26491
 C2220 C 0.70162 0.44211 0.27340
 H2221 H 0.65796 0.40541 0.30550
 H2222 H 0.70742 0.38631 0.32318
 H2223 H 0.74103 0.46387 0.29557
 H2224 H 0.70581 0.45948 0.25216
 H2225 H 0.72184 0.41021 0.30862
 H2226 H 0.72577 0.44070 0.31049
 H2227 H 0.67237 0.42952 0.29105
 H2228 H 0.69083 0.43595 0.26690
 C2229 C 0.69870 0.92161 0.79983
 C2230 C 0.68061 0.91988 0.79924
 C2231 C 0.67245 0.90609 0.80761
 C2232 C 0.68219 0.89376 0.81682
 C2233 C 0.70026 0.89551 0.81744
 C2234 C 0.70842 0.90924 0.80901
 C2235 C 0.70746 0.93616 0.79084
 C2236 C 0.72181 0.94433 0.79847
 C2237 C 0.73039 0.95767 0.78982
 C2238 C 0.72476 0.96323 0.77336
 C2239 C 0.71026 0.95525 0.76582
 C2240 C 0.70173 0.94185 0.77444
 H2241 H 0.65849 0.90521 0.80710
 H2242 H 0.70814 0.88606 0.82416
 H2243 H 0.74145 0.96361 0.79604
 H2244 H 0.70565 0.95919 0.75312
 H2245 H 0.72240 0.90998 0.80944
 H2246 H 0.72638 0.94047 0.81121
 H2247 H 0.67272 0.92932 0.79250
 H2248 H 0.69086 0.93569 0.76810
 C2249 C 0.19744 0.42190 0.80159
 C2250 C 0.17937 0.42003 0.80060
 C2251 C 0.17116 0.40611 0.80871
 C2252 C 0.18081 0.39381 0.81804
 C2253 C 0.19885 0.39573 0.81910
 C2254 C 0.20706 0.40958 0.81094
 C2255 C 0.20627 0.43651 0.79275
 C2256 C 0.22045 0.44475 0.80062
 C2257 C 0.22912 0.45811 0.79209
 C2258 C 0.22376 0.46361 0.77553
 C2259 C 0.20942 0.45556 0.76775
 C2260 C 0.20080 0.44214 0.77625
 H2261 H 0.15723 0.40509 0.80786
 H2262 H 0.20667 0.38631 0.82592
 H2263 H 0.24005 0.46412 0.79849
 H2264 H 0.20501 0.45946 0.75497
 H2265 H 0.22102 0.41045 0.81167
 H2266 H 0.22482 0.44094 0.81344
 H2267 H 0.17155 0.42943 0.79374
 H2268 H 0.19007 0.43593 0.76972
 C2269 C 0.19838 0.92232 0.30150
 C2270 C 0.18028 0.92056 0.30094
 C2271 C 0.17217 0.90666 0.30918
 C2272 C 0.18196 0.89425 0.31822
 C2273 C 0.20003 0.89601 0.31879
 C2274 C 0.20815 0.90985 0.31050
 C2275 C 0.20709 0.93700 0.29267
 C2276 C 0.22144 0.94509 0.30038
 C2277 C 0.23001 0.95852 0.29187
 C2278 C 0.22438 0.96424 0.27547
 C2279 C 0.20987 0.95634 0.26786
 C2280 C 0.20134 0.94285 0.27635
 H2281 H 0.15821 0.90577 0.30871
 H2282 H 0.20795 0.88650 0.32537
 H2283 H 0.24107 0.96440 0.29815
 H2284 H 0.20524 0.96041 0.25520
 H2285 H 0.22212 0.91061 0.31089
 H2286 H 0.22602 0.94110 0.31307
 H2287 H 0.17236 0.93007 0.29434
 H2288 H 0.19046 0.93676 0.26995
 C2289 C 0.42204 0.30164 0.70097
 C2290 C 0.42027 0.31971 0.70177
 C2291 C 0.40644 0.32800 0.69350
 C2292 C 0.39411 0.31841 0.68418
 C2293 C 0.39587 0.30035 0.68339
 C2294 C 0.40964 0.29206 0.69171
 C2295 C 0.43665 0.29273 0.70982
 C2296 C 0.44481 0.27845 0.70198
 C2297 C 0.45817 0.26970 0.71051
 C2298 C 0.46375 0.27506 0.72705
 C2299 C 0.45580 0.28949 0.73479
 C2300 C 0.44238 0.29822 0.72628
 H2301 H 0.40554 0.34195 0.69415
 H2302 H 0.38642 0.29257 0.67659
 H2303 H 0.46409 0.25870 0.70414
 H2304 H 0.45976 0.29391 0.74755
 H2305 H 0.41041 0.27810 0.69112
 H2306 H 0.44093 0.27408 0.68919
 H2307 H 0.42973 0.32749 0.70859
 H2308 H 0.43624 0.30903 0.73277
 C2309 C 0.42257 0.80334 0.19697
 C2310 C 0.41023 0.79376 0.18763
 C2311 C 0.39640 0.80203 0.17939
 C2312 C 0.39453 0.82007 0.18034
 C2313 C 0.40685 0.82967 0.18966
 C2314 C 0.42074 0.82141 0.19785
 C2315 C 0.43713 0.79444 0.20592
 C2316 C 0.44270 0.79991 0.22244
 C2317 C 0.45602 0.79118 0.23108
 C2318 C 0.46404 0.77675 0.22341
 C2319 C 0.45863 0.77141 0.20681
 C2320 C 0.44536 0.78017 0.19815
 H2321 H 0.38696 0.79424 0.17258
 H2322 H 0.40587 0.84361 0.19042
 H2323 H 0.45986 0.79559 0.24388
 H2324 H 0.46461 0.76041 0.20049
 H2325 H 0.43016 0.82919 0.20471
 H2326 H 0.43648 0.81071 0.22889
 H2327 H 0.41105 0.77980 0.18698
 H2328 H 0.44159 0.77581 0.18532
 C2329 C 0.92277 0.30202 0.19907
 C2330 C 0.91040 0.29231 0.18990
 C2331 C 0.89667 0.30048 0.18141
 C2332 C 0.89491 0.31855 0.18193
 C2333 C 0.90722 0.32828 0.19114
 C2334 C 0.92102 0.32011 0.19959
 C2335 C 0.93733 0.29324 0.20813
 C2336 C 0.94297 0.29894 0.22454
 C2337 C 0.95632 0.29033 0.23325
 C2338 C 0.96430 0.27577 0.22577
 C2339 C 0.95881 0.27020 0.20926
 C2340 C 0.94552 0.27885 0.20054
 H2341 H 0.88723 0.29261 0.17470
 H2342 H 0.90633 0.34223 0.19159
 H2343 H 0.96021 0.29491 0.24598
 H2344 H 0.96476 0.25911 0.20308
 H2345 H 0.93045 0.32797 0.20633
 H2346 H 0.93679 0.30985 0.23084
 H2347 H 0.91116 0.27834 0.18953
 H2348 H 0.94171 0.27431 0.18778
 C2349 C 0.92178 0.80142 0.69742
 C2350 C 0.92002 0.81950 0.69793
 C2351 C 0.90611 0.82765 0.68964
 C2352 C 0.89370 0.81790 0.68060
 C2353 C 0.89549 0.79983 0.68005
 C2354 C 0.90933 0.79169 0.68839
 C2355 C 0.93642 0.79267 0.70638
 C2356 C 0.94458 0.77827 0.69877
 C2357 C 0.95797 0.76968 0.70742
 C2358 C 0.96357 0.77532 0.72385
 C2359 C 0.95562 0.78987 0.73136
 C2360 C 0.94217 0.79843 0.72273
 H2361 H 0.90520 0.84160 0.69009
 H2362 H 0.88598 0.79194 0.67346
 H2363 H 0.96389 0.75857 0.70122
 H2364 H 0.95959 0.79451 0.74403
 H2365 H 0.91011 0.77772 0.68802
 H2366 H 0.94066 0.77368 0.68606
 H2367 H 0.92951 0.82739 0.70456
 H2368 H 0.93603 0.80934 0.72905
 C2369 C 0.57778 0.30241 0.30018
 C2370 C 0.59008 0.29290 0.30968
 C2371 C 0.60384 0.30121 0.31795
 C2372 C 0.60570 0.31924 0.31684
 C2373 C 0.59343 0.32878 0.30735
 C2374 C 0.57960 0.32047 0.29915
 C2375 C 0.56327 0.29347 0.29123
 C2376 C 0.55773 0.29885 0.27467
 C2377 C 0.54441 0.29013 0.26607
 C2378 C 0.53638 0.27578 0.27380
 C2379 C 0.54179 0.27051 0.29042
 C2380 C 0.55505 0.27928 0.29905
 H2381 H 0.61325 0.29347 0.32489
 H2382 H 0.59440 0.34270 0.30646
 H2383 H 0.54059 0.29448 0.25325
 H2384 H 0.53580 0.25957 0.29678
 H2385 H 0.57021 0.32821 0.29216
 H2386 H 0.56394 0.30958 0.26818
 H2387 H 0.58928 0.27895 0.31046
 H2388 H 0.55879 0.27498 0.31192
 C2389 C 0.57819 0.80248 0.80191
 C2390 C 0.59054 0.79287 0.81126
 C2391 C 0.60439 0.80110 0.81945
 C2392 C 0.60630 0.81912 0.81842
 C2393 C 0.59398 0.82875 0.80908
 C2394 C 0.58006 0.82053 0.80095
 C2395 C 0.56356 0.79364 0.79307
 C2396 C 0.55790 0.79908 0.77657
 C2397 C 0.54445 0.79045 0.76808
 C2398 C 0.53641 0.77613 0.77586
 C2399 C 0.54195 0.77080 0.79243
 C2400 C 0.55533 0.77948 0.80095
 H2401 H 0.61383 0.79329 0.82627
 H2402 H 0.59498 0.84267 0.80826
 H2403 H 0.54052 0.79484 0.75530
 H2404 H 0.53595 0.75990 0.79883
 H2405 H 0.57063 0.82834 0.79408
 H2406 H 0.56410 0.80979 0.77004
 H2407 H 0.58969 0.77893 0.81197
 H2408 H 0.55917 0.77514 0.81377
 C2409 C 0.07827 0.30132 0.79925
 C2410 C 0.09070 0.29163 0.80839
 C2411 C 0.10447 0.29981 0.81677
 C2412 C 0.10620 0.31787 0.81616
 C2413 C 0.09384 0.32758 0.80695
 C2414 C 0.08000 0.31940 0.79862
 C2415 C 0.06362 0.29255 0.79037
 C2416 C 0.05781 0.29819 0.77400
 C2417 C 0.04433 0.28963 0.76549
 C2418 C 0.03639 0.27519 0.77314
 C2419 C 0.04208 0.26965 0.78959
 C2420 C 0.05550 0.27825 0.79811
 H2421 H 0.11395 0.29195 0.82347
 H2422 H 0.09471 0.34152 0.80644
 H2423 H 0.04029 0.29418 0.75280
 H2424 H 0.03617 0.25864 0.79589
 H2425 H 0.07051 0.32726 0.79191
 H2426 H 0.06393 0.30902 0.76758
 H2427 H 0.08995 0.27767 0.80884
 H2428 H 0.05945 0.27376 0.81085
 C2429 C 0.07805 0.80290 0.30295
 C2430 C 0.09045 0.79323 0.31216
 C2431 C 0.10432 0.80142 0.32037
 C2432 C 0.10619 0.81945 0.31950
 C2433 C 0.09381 0.82914 0.31030
 C2434 C 0.07987 0.82096 0.30215
 C2435 C 0.06342 0.79410 0.29406
 C2436 C 0.05772 0.79969 0.27762
 C2437 C 0.04431 0.79108 0.26905
 C2438 C 0.03635 0.77664 0.27668
 C2439 C 0.04191 0.77117 0.29319
 C2440 C 0.05526 0.77983 0.30179
 H2441 H 0.11381 0.79357 0.32708
 H2442 H 0.09478 0.84307 0.30960
 H2443 H 0.04036 0.79557 0.25631
 H2444 H 0.03597 0.76017 0.29948
 H2445 H 0.07040 0.82881 0.29540
 H2446 H 0.06387 0.81049 0.27119
 H2447 H 0.08964 0.77928 0.31275
 H2448 H 0.05913 0.77537 0.31456
 C2449 C 0.57728 0.69761 0.69959
 C2450 C 0.58957 0.70713 0.69015
 C2451 C 0.60333 0.69880 0.68186
 C2452 C 0.60520 0.68076 0.68287
 C2453 C 0.59294 0.67122 0.69231
 C2454 C 0.57911 0.67955 0.70054
 C2455 C 0.56276 0.70657 0.70854
 C2456 C 0.55723 0.70118 0.72509
 C2457 C 0.54392 0.70994 0.73370
 C2458 C 0.53587 0.72434 0.72600
 C2459 C 0.54125 0.72961 0.70938
 C2460 C 0.55451 0.72080 0.70074
 H2461 H 0.61273 0.70654 0.67497
 H2462 H 0.59392 0.65729 0.69312
 H2463 H 0.54011 0.70559 0.74652
 H2464 H 0.53525 0.74057 0.70303
 H2465 H 0.56973 0.67181 0.70748
 H2466 H 0.56346 0.69041 0.73156
 H2467 H 0.58875 0.72108 0.68943
 H2468 H 0.55824 0.72510 0.68788
 C2469 C 0.57854 0.19774 0.19757
 C2470 C 0.59090 0.20731 0.18828
 C2471 C 0.60477 0.19903 0.18011
 C2472 C 0.60668 0.18100 0.18111
 C2473 C 0.59433 0.17141 0.19037
 C2474 C 0.58040 0.17967 0.19848
 C2475 C 0.56393 0.20663 0.20644
 C2476 C 0.55829 0.20114 0.22292
 C2477 C 0.54486 0.20979 0.23145
 C2478 C 0.53681 0.22418 0.22374
 C2479 C 0.54232 0.22957 0.20721
 C2480 C 0.55570 0.22087 0.19864
 H2481 H 0.61423 0.20681 0.17334
 H2482 H 0.59534 0.15748 0.19116
 H2483 H 0.54096 0.20535 0.24421
 H2484 H 0.53632 0.24054 0.20086
 H2485 H 0.57096 0.17190 0.20530
 H2486 H 0.56451 0.19037 0.22940
 H2487 H 0.59006 0.22126 0.18760
 H2488 H 0.55953 0.22526 0.18585
 C2489 C 0.07827 0.69920 0.19996
 C2490 C 0.09067 0.70888 0.19084
 C2491 C 0.10446 0.70069 0.18247
 C2492 C 0.10625 0.68263 0.18306
 C2493 C 0.09389 0.67293 0.19221
 C2494 C 0.08004 0.68112 0.20053
 C2495 C 0.06366 0.70799 0.20893
 C2496 C 0.05795 0.70229 0.22530
 C2497 C 0.04451 0.71086 0.23392
 C2498 C 0.03651 0.72537 0.22638
 C2499 C 0.04209 0.73096 0.20994
 C2500 C 0.05547 0.72236 0.20130
 H2501 H 0.11393 0.70855 0.17580
 H2502 H 0.09480 0.65898 0.19270
 H2503 H 0.04056 0.70625 0.24660
 H2504 H 0.03613 0.74203 0.20372
 H2505 H 0.07057 0.67326 0.20722
 H2506 H 0.06412 0.69141 0.23164
 H2507 H 0.08989 0.72285 0.19043
 H2508 H 0.05934 0.72690 0.18857
 C2509 C 0.07742 0.19751 0.69647
 C2510 C 0.08977 0.20720 0.68729
 C2511 C 0.10365 0.19904 0.67903
 C2512 C 0.10557 0.18100 0.67980
 C2513 C 0.09323 0.17128 0.68895
 C2514 C 0.07929 0.17944 0.69716
 C2515 C 0.06280 0.20628 0.70544
 C2516 C 0.05720 0.20065 0.72188
 C2517 C 0.04382 0.20928 0.73055
 C2518 C 0.03579 0.22376 0.72300
 C2519 C 0.04124 0.22926 0.70647
 C2520 C 0.05456 0.22060 0.69779
 H2521 H 0.11310 0.20691 0.67236
 H2522 H 0.09425 0.15734 0.68957
 H2523 H 0.03997 0.20475 0.74329
 H2524 H 0.03525 0.24030 0.70025
 H2525 H 0.06986 0.17157 0.70389
 H2526 H 0.06341 0.18981 0.72824
 H2527 H 0.08891 0.22116 0.68678
 H2528 H 0.05835 0.22508 0.68501
 C2529 C 0.42146 0.69870 0.29900
 C2530 C 0.40904 0.70833 0.30822
 C2531 C 0.39527 0.70010 0.31651
 C2532 C 0.39353 0.68205 0.31573
 C2533 C 0.40587 0.67240 0.30644
 C2534 C 0.41971 0.68063 0.29820
 C2535 C 0.43611 0.70754 0.29021
 C2536 C 0.44191 0.70200 0.27379
 C2537 C 0.45540 0.71061 0.26537
 C2538 C 0.46335 0.72499 0.27315
 C2539 C 0.45767 0.73042 0.28964
 C2540 C 0.44425 0.72177 0.29808
 H2541 H 0.38580 0.70792 0.32328
 H2542 H 0.40499 0.65846 0.30580
 H2543 H 0.45943 0.70614 0.25265
 H2544 H 0.46359 0.74139 0.29604
 H2545 H 0.42919 0.67281 0.29142
 H2546 H 0.43578 0.69122 0.26727
 H2547 H 0.40980 0.72229 0.30880
 H2548 H 0.44030 0.72618 0.31084
 C2549 C 0.42184 0.19687 0.80266
 C2550 C 0.40947 0.20651 0.81194
 C2551 C 0.39560 0.19831 0.82010
 C2552 C 0.39370 0.18028 0.81911
 C2553 C 0.40605 0.17062 0.80983
 C2554 C 0.41998 0.17882 0.80173
 C2555 C 0.43647 0.20569 0.79385
 C2556 C 0.44215 0.20022 0.77736
 C2557 C 0.45558 0.20886 0.76888
 C2558 C 0.46360 0.22320 0.77666
 C2559 C 0.45806 0.22855 0.79322
 C2560 C 0.44469 0.21988 0.80173
 H2561 H 0.38614 0.20614 0.82687
 H2562 H 0.40505 0.15670 0.80904
 H2563 H 0.45950 0.20445 0.75610
 H2564 H 0.46404 0.23948 0.79963
 H2565 H 0.42942 0.17099 0.79491
 H2566 H 0.43595 0.18949 0.77083
 H2567 H 0.41031 0.22046 0.81263
 H2568 H 0.44084 0.22424 0.81454
 C2569 C 0.92172 0.69804 0.80029
 C2570 C 0.92000 0.67996 0.79972
 C2571 C 0.90615 0.67182 0.80804
 C2572 C 0.89377 0.68156 0.81716
 C2573 C 0.89549 0.69963 0.81772
 C2574 C 0.90927 0.70777 0.80936
 C2575 C 0.93635 0.70679 0.79140
 C2576 C 0.94446 0.72113 0.79909
 C2577 C 0.95785 0.72972 0.79052
 C2578 C 0.96350 0.72413 0.77408
 C2579 C 0.95558 0.70963 0.76649
 C2580 C 0.94214 0.70107 0.77504
 H2581 H 0.90529 0.65787 0.80756
 H2582 H 0.88599 0.70752 0.82436
 H2583 H 0.96374 0.74078 0.79679
 H2584 H 0.95960 0.70503 0.75381
 H2585 H 0.91001 0.72174 0.80976
 H2586 H 0.94053 0.72567 0.81181
 H2587 H 0.92950 0.67207 0.79306
 H2588 H 0.93603 0.69020 0.76865
 C2589 C 0.92159 0.19857 0.30182
 C2590 C 0.90909 0.20834 0.31077
 C2591 C 0.89521 0.20026 0.31903
 C2592 C 0.89345 0.18220 0.31849
 C2593 C 0.90589 0.17240 0.30950
 C2594 C 0.91983 0.18049 0.30128
 C2595 C 0.93631 0.20726 0.29303
 C2596 C 0.94222 0.20149 0.27673
 C2597 C 0.95575 0.20999 0.26827
 C2598 C 0.96365 0.22448 0.27590
 C2599 C 0.95788 0.23013 0.29227
 C2600 C 0.94440 0.22159 0.30075
 H2601 H 0.88568 0.20818 0.32557
 H2602 H 0.90500 0.15845 0.30905
 H2603 H 0.95986 0.20535 0.25563
 H2604 H 0.96376 0.24118 0.29856
 H2605 H 0.92937 0.17256 0.29472
 H2606 H 0.93613 0.19062 0.27032
 H2607 H 0.90986 0.22231 0.31115
 H2608 H 0.94037 0.22618 0.31343
 C2609 C 0.30297 0.30217 0.57939
 C2610 C 0.30231 0.32024 0.58123
 C2611 C 0.31048 0.32836 0.59524
 C2612 C 0.31955 0.31862 0.60769
 C2613 C 0.32032 0.30057 0.60579
 C2614 C 0.31209 0.29244 0.59183
 C2615 C 0.29400 0.29346 0.56470
 C2616 C 0.30155 0.27912 0.55639
 C2617 C 0.29291 0.27064 0.54290
 C2618 C 0.27655 0.27635 0.53734
 C2619 C 0.26909 0.29082 0.54549
 C2620 C 0.27769 0.29925 0.55903
 H2621 H 0.30988 0.34230 0.59622
 H2622 H 0.32696 0.29268 0.61531
 H2623 H 0.29906 0.25958 0.53683
 H2624 H 0.25646 0.29550 0.54157
 H2625 H 0.31258 0.27848 0.59098
 H2626 H 0.31422 0.27450 0.56025
 H2627 H 0.29564 0.32814 0.57173
 H2628 H 0.27140 0.31010 0.56531
 C2629 C 0.30104 0.80292 0.07811
 C2630 C 0.31916 0.80239 0.07967
 C2631 C 0.32746 0.81071 0.09348
 C2632 C 0.31784 0.81982 0.10600
 C2633 C 0.29975 0.82047 0.10438
 C2634 C 0.29145 0.81209 0.09062
 C2635 C 0.29216 0.79379 0.06363
 C2636 C 0.27763 0.80118 0.05549
 C2637 C 0.26901 0.79239 0.04218
 C2638 C 0.27476 0.77605 0.03665
 C2639 C 0.28940 0.76874 0.04464
 C2640 C 0.29798 0.77749 0.05800
 H2641 H 0.34143 0.81020 0.09424
 H2642 H 0.29197 0.82715 0.11397
 H2643 H 0.25783 0.79843 0.03622
 H2644 H 0.29412 0.75613 0.04073
 H2645 H 0.27746 0.81250 0.08999
 H2646 H 0.27298 0.81383 0.05932
 H2647 H 0.32696 0.79569 0.07009
 H2648 H 0.30897 0.77132 0.06416
 C2649 C 0.80324 0.30072 0.07782
 C2650 C 0.81241 0.29118 0.09038
 C2651 C 0.82075 0.29953 0.10413
 C2652 C 0.82005 0.31761 0.10571
 C2653 C 0.81093 0.32717 0.09315
 C2654 C 0.80265 0.31883 0.07934
 C2655 C 0.79415 0.29179 0.06335
 C2656 C 0.77782 0.29755 0.05769
 C2657 C 0.76911 0.28892 0.04434
 C2658 C 0.77648 0.27430 0.03638
 C2659 C 0.79285 0.26862 0.04194
 C2660 C 0.80160 0.27728 0.05524
 H2661 H 0.82743 0.29180 0.11375
 H2662 H 0.81039 0.34113 0.09389
 H2663 H 0.75648 0.29359 0.04041
 H2664 H 0.79893 0.25745 0.03601
 H2665 H 0.79595 0.32658 0.06974
 H2666 H 0.77161 0.30852 0.06382
 H2667 H 0.81285 0.27721 0.08978
 H2668 H 0.81427 0.27268 0.05910
 C2669 C 0.80073 0.80006 0.57767
 C2670 C 0.80010 0.81816 0.57925
 C2671 C 0.80850 0.82649 0.59299
 C2672 C 0.81779 0.81693 0.60542
 C2673 C 0.81852 0.79886 0.60379
 C2674 C 0.81006 0.79052 0.59010
 C2675 C 0.79155 0.79114 0.56325
 C2676 C 0.79898 0.77668 0.55504
 C2677 C 0.79016 0.76801 0.54180
 C2678 C 0.77372 0.77363 0.53640
 C2679 C 0.76636 0.78822 0.54444
 C2680 C 0.77516 0.79684 0.55774
 H2681 H 0.80792 0.84045 0.59376
 H2682 H 0.82533 0.79112 0.61331
 H2683 H 0.79623 0.75687 0.53580
 H2684 H 0.75368 0.79284 0.54063
 H2685 H 0.81054 0.77655 0.58946
 H2686 H 0.81171 0.77212 0.55877
 H2687 H 0.79327 0.82592 0.56974
 H2688 H 0.76895 0.80778 0.56395
 C2689 C 0.30272 0.69836 0.42077
 C2690 C 0.30214 0.68029 0.41891
 C2691 C 0.31026 0.67218 0.40486
 C2692 C 0.31922 0.68194 0.39238
 C2693 C 0.31992 0.69999 0.39430
 C2694 C 0.31173 0.70811 0.40830
 C2695 C 0.29379 0.70706 0.43550
 C2696 C 0.30132 0.72140 0.44379
 C2697 C 0.29270 0.72988 0.45731
 C2698 C 0.27638 0.72418 0.46290
 C2699 C 0.26895 0.70971 0.45478
 C2700 C 0.27754 0.70127 0.44122
 H2701 H 0.30972 0.65824 0.40387
 H2702 H 0.32647 0.70788 0.38476
 H2703 H 0.29882 0.74094 0.46336
 H2704 H 0.25635 0.70504 0.45873
 H2705 H 0.31217 0.72207 0.40916
 H2706 H 0.31395 0.72602 0.43990
 H2707 H 0.29556 0.67239 0.42844
 H2708 H 0.27127 0.69042 0.43496
 C2709 C 0.30040 0.19749 0.92147
 C2710 C 0.29077 0.18838 0.90895
 C2711 C 0.29903 0.18003 0.89514
 C2712 C 0.31711 0.18065 0.89345
 C2713 C 0.32676 0.18970 0.90598
 C2714 C 0.31851 0.19799 0.91985
 C2715 C 0.29156 0.20658 0.93601
 C2716 C 0.29736 0.22285 0.94168
 C2717 C 0.28883 0.23157 0.95510
 C2718 C 0.27425 0.22426 0.96312
 C2719 C 0.26852 0.20794 0.95756
 C2720 C 0.27710 0.19919 0.94418
 H2721 H 0.29122 0.17340 0.88555
 H2722 H 0.34073 0.19018 0.90517
 H2723 H 0.29353 0.24416 0.95904
 H2724 H 0.25738 0.20191 0.96353
 H2725 H 0.32633 0.20464 0.92941
 H2726 H 0.30831 0.22902 0.93551
 H2727 H 0.27679 0.18800 0.90963
 H2728 H 0.27246 0.18656 0.94033
 C2729 C 0.80223 0.69917 0.92132
 C2730 C 0.81126 0.70876 0.90875
 C2731 C 0.81952 0.70046 0.89490
 C2732 C 0.81888 0.68239 0.89324
 C2733 C 0.80988 0.67279 0.90580
 C2734 C 0.80169 0.68107 0.91971
 C2735 C 0.79325 0.70805 0.93591
 C2736 C 0.77700 0.70229 0.94169
 C2737 C 0.76839 0.71086 0.95516
 C2738 C 0.77580 0.72543 0.96313
 C2739 C 0.79209 0.73112 0.95746
 C2740 C 0.80074 0.72250 0.94403
 H2741 H 0.82611 0.70823 0.88527
 H2742 H 0.80938 0.65883 0.90501
 H2743 H 0.75582 0.70619 0.95917
 H2744 H 0.79820 0.74224 0.96339
 H2745 H 0.79509 0.67329 0.92932
 H2746 H 0.77076 0.69135 0.93556
 H2747 H 0.81167 0.72273 0.90941
 H2748 H 0.81335 0.72711 0.94009
 C2749 C 0.80086 0.20008 0.42174
 C2750 C 0.80031 0.18198 0.42013
 C2751 C 0.80865 0.17368 0.40632
 C2752 C 0.81780 0.18327 0.39385
 C2753 C 0.81846 0.20134 0.39552
 C2754 C 0.81006 0.20965 0.40928
 C2755 C 0.79172 0.20897 0.43623
 C2756 C 0.79913 0.22342 0.44444
 C2757 C 0.79034 0.23204 0.45776
 C2758 C 0.77397 0.22636 0.46324
 C2759 C 0.76665 0.21180 0.45519
 C2760 C 0.77540 0.20323 0.44181
 H2761 H 0.80813 0.15973 0.40552
 H2762 H 0.82517 0.20910 0.38597
 H2763 H 0.79639 0.24315 0.46377
 H2764 H 0.75402 0.20715 0.45905
 H2765 H 0.81048 0.22362 0.40995
 H2766 H 0.81179 0.22800 0.44065
 H2767 H 0.79359 0.17420 0.42966
 H2768 H 0.76922 0.19230 0.43561
 C2769 C 0.69763 0.30351 0.42081
 C2770 C 0.70740 0.31253 0.40837
 C2771 C 0.69931 0.32069 0.39434
 C2772 C 0.68125 0.31996 0.39237
 C2773 C 0.67146 0.31101 0.40482
 C2774 C 0.67955 0.30291 0.41890
 C2775 C 0.70630 0.29456 0.43554
 C2776 C 0.70049 0.27830 0.44120
 C2777 C 0.70890 0.26968 0.45476
 C2778 C 0.72337 0.27708 0.46293
 C2779 C 0.72909 0.29340 0.45740
 C2780 C 0.72063 0.30205 0.44388
 H2781 H 0.70723 0.32724 0.38482
 H2782 H 0.65751 0.31045 0.40379
 H2783 H 0.70421 0.25709 0.45866
 H2784 H 0.74014 0.29950 0.46349
 H2785 H 0.67161 0.29633 0.42841
 H2786 H 0.68965 0.27206 0.43489
 H2787 H 0.72137 0.31298 0.40927
 H2788 H 0.72527 0.31468 0.44003
 C2789 C 0.69913 0.80260 0.92146
 C2790 C 0.70883 0.81161 0.90896
 C2791 C 0.70064 0.81985 0.89503
 C2792 C 0.68256 0.81920 0.89323
 C2793 C 0.67285 0.81023 0.90573
 C2794 C 0.68104 0.80206 0.91971
 C2795 C 0.70791 0.79362 0.93613
 C2796 C 0.70211 0.77739 0.94185
 C2797 C 0.71062 0.76875 0.95534
 C2798 C 0.72519 0.77613 0.96337
 C2799 C 0.73089 0.79243 0.95777
 C2800 C 0.72233 0.80109 0.94433
 H2801 H 0.70849 0.82641 0.88546
 H2802 H 0.65889 0.80972 0.90483
 H2803 H 0.70595 0.75618 0.95930
 H2804 H 0.74201 0.79851 0.96375
 H2805 H 0.67316 0.79547 0.92927
 H2806 H 0.69119 0.77116 0.93566
 H2807 H 0.72280 0.81202 0.90973
 H2808 H 0.72696 0.81370 0.94044
 C2809 C 0.19728 0.30102 0.92100
 C2810 C 0.18828 0.29133 0.90845
 C2811 C 0.18008 0.29951 0.89450
 C2812 C 0.18073 0.31756 0.89272
 C2813 C 0.18969 0.32727 0.90527
 C2814 C 0.19783 0.31910 0.91927
 C2815 C 0.20623 0.29226 0.93568
 C2816 C 0.22247 0.29805 0.94147
 C2817 C 0.23108 0.28956 0.95499
 C2818 C 0.22368 0.27503 0.96300
 C2819 C 0.20738 0.26932 0.95734
 C2820 C 0.19874 0.27786 0.94386
 H2821 H 0.17353 0.29166 0.88490
 H2822 H 0.19020 0.34122 0.90438
 H2823 H 0.24366 0.29425 0.95899
 H2824 H 0.20128 0.25823 0.96330
 H2825 H 0.20440 0.32696 0.92886
 H2826 H 0.22872 0.30895 0.93529
 H2827 H 0.18787 0.27736 0.90921
 H2828 H 0.18612 0.27323 0.93992
 C2829 C 0.19968 0.80204 0.42178
 C2830 C 0.18157 0.80146 0.42012
 C2831 C 0.17329 0.80978 0.40629
 C2832 C 0.18290 0.81895 0.39385
 C2833 C 0.20098 0.81965 0.39558
 C2834 C 0.20927 0.81127 0.40936
 C2835 C 0.20855 0.79287 0.43626
 C2836 C 0.22298 0.80025 0.44453
 C2837 C 0.23158 0.79143 0.45784
 C2838 C 0.22590 0.77504 0.46324
 C2839 C 0.21136 0.76774 0.45511
 C2840 C 0.20281 0.77653 0.44175
 H2841 H 0.15933 0.80923 0.40545
 H2842 H 0.20876 0.82637 0.38606
 H2843 H 0.24268 0.79745 0.46391
 H2844 H 0.20671 0.75511 0.45890
 H2845 H 0.22325 0.81172 0.41007
 H2846 H 0.22757 0.81293 0.44081
 H2847 H 0.17377 0.79472 0.42962
 H2848 H 0.19190 0.77037 0.43549
 C2849 C 0.69732 0.69684 0.57929
 C2850 C 0.67924 0.69751 0.58113
 C2851 C 0.67112 0.68938 0.59514
 C2852 C 0.68089 0.68033 0.60759
 C2853 C 0.69895 0.67956 0.60570
 C2854 C 0.70707 0.68776 0.59174
 C2855 C 0.70602 0.70575 0.56458
 C2856 C 0.72037 0.69818 0.55630
 C2857 C 0.72884 0.70675 0.54278
 C2858 C 0.72310 0.72307 0.53717
 C2859 C 0.70863 0.73056 0.54530
 C2860 C 0.70021 0.72202 0.55887
 H2861 H 0.65717 0.68997 0.59611
 H2862 H 0.70685 0.67294 0.61522
 H2863 H 0.73989 0.70059 0.53673
 H2864 H 0.70393 0.74316 0.54134
 H2865 H 0.72105 0.68726 0.59090
 H2866 H 0.72501 0.68554 0.56019
 H2867 H 0.67132 0.70415 0.57161
 H2868 H 0.68936 0.72832 0.56513
 C2869 C 0.69986 0.19723 0.07854
 C2870 C 0.68175 0.19784 0.08020
 C2871 C 0.67353 0.18968 0.09413
 C2872 C 0.68320 0.18066 0.10667
 C2873 C 0.70128 0.17993 0.10494
 C2874 C 0.70952 0.18816 0.09107
 C2875 C 0.70866 0.20620 0.06393
 C2876 C 0.72311 0.19870 0.05576
 C2877 C 0.73166 0.20734 0.04233
 C2878 C 0.72591 0.22366 0.03671
 C2879 C 0.71134 0.23107 0.04473
 C2880 C 0.70284 0.22247 0.05821
 H2881 H 0.65957 0.19025 0.09497
 H2882 H 0.70911 0.17332 0.11454
 H2883 H 0.74278 0.20123 0.03635
 H2884 H 0.70663 0.24366 0.04076
 H2885 H 0.72350 0.18770 0.09036
 H2886 H 0.72776 0.18608 0.05966
 H2887 H 0.67390 0.20447 0.07062
 H2888 H 0.69191 0.22872 0.06439
 C2889 C 0.19781 0.69943 0.07882
 C2890 C 0.19839 0.68134 0.08052
 C2891 C 0.19020 0.67317 0.09447
 C2892 C 0.18118 0.68289 0.10699
 C2893 C 0.18051 0.70095 0.10523
 C2894 C 0.18875 0.70913 0.09134
 C2895 C 0.20678 0.70819 0.06418
 C2896 C 0.19927 0.72261 0.05599
 C2897 C 0.20791 0.73112 0.04254
 C2898 C 0.22423 0.72537 0.03692
 C2899 C 0.23166 0.71082 0.04496
 C2900 C 0.22305 0.70235 0.05845
 H2901 H 0.19073 0.65922 0.09534
 H2902 H 0.17391 0.70880 0.11481
 H2903 H 0.20179 0.74224 0.03656
 H2904 H 0.24425 0.70611 0.04098
 H2905 H 0.18832 0.72309 0.09060
 H2906 H 0.18664 0.72726 0.05989
 H2907 H 0.20500 0.67347 0.07095
 H2908 H 0.22930 0.69143 0.06464
 C2909 C 0.19949 0.19893 0.57814
 C2910 C 0.18138 0.19954 0.57968
 C2911 C 0.17304 0.19118 0.59342
 C2912 C 0.18261 0.18193 0.60587
 C2913 C 0.20070 0.18121 0.60428
 C2914 C 0.20905 0.18964 0.59060
 C2915 C 0.20843 0.20807 0.56371
 C2916 C 0.22291 0.20063 0.55554
 C2917 C 0.23157 0.20941 0.54228
 C2918 C 0.22590 0.22580 0.53682
 C2919 C 0.21130 0.23316 0.54484
 C2920 C 0.20269 0.22441 0.55815
 H2921 H 0.15907 0.19174 0.59416
 H2922 H 0.20844 0.17443 0.61382
 H2923 H 0.24271 0.20333 0.53631
 H2924 H 0.20665 0.24581 0.54099
 H2925 H 0.22303 0.18917 0.58998
 H2926 H 0.22750 0.18794 0.55931
 H2927 H 0.17362 0.20634 0.57015
 H2928 H 0.19173 0.23062 0.56433
   
