data_POSCAR
  _audit_creation_date              2014-09-24
  _audit_creation_method            'ToBaCCo'
  _symmetry_space_group_name_H-M    'P1'
  _symmetry_Int_Tables_number       1
  _symmetry_cell_setting            triclinic
  loop_
  _symmetry_equiv_pos_as_xyz
 x,y,z
_cell_length_a 54.1888
_cell_length_b 54.1630
_cell_length_c 54.2062
_cell_angle_alpha 89.987300
_cell_angle_beta 89.991300
_cell_angle_gamma 89.945400
loop_
  _atom_site_label
  _atom_site_type_symbol
  _atom_site_fract_x
  _atom_site_fract_y
  _atom_site_fract_z
O1 O 0.27055 1.02428 0.47622
 O2 O 0.27041 0.97625 0.52428
 O3 O 0.27044 0.97620 0.47623
 O4 O 0.27048 1.02434 0.52426
 O5 O 0.22982 1.02445 0.52423
 O6 O 0.22975 0.97632 0.47620
 O7 O 0.22971 0.97637 0.52425
 O8 O 0.22985 1.02441 0.47619
 Cu9 Cu 0.27454 1.00026 0.50025
 Cu10 Cu 0.22571 1.00040 0.50022
 C11 C 0.25023 1.03258 0.46796
 C12 C 0.25004 0.96808 0.53250
 C13 C 0.25008 0.96801 0.46798
 C14 C 0.25016 1.03269 0.53253
 O15 O 0.72940 -0.02430 0.47643
 O16 O 0.72958 0.02375 0.52444
 O17 O 0.72950 0.02378 0.47640
 O18 O 0.72950 -0.02432 0.52447
 O19 O 0.77016 -0.02444 0.52440
 O20 O 0.77020 0.02366 0.47633
 O21 O 0.77028 0.02363 0.52437
 O22 O 0.77010 -0.02442 0.47636
 Cu23 Cu 0.72542 -0.00026 0.50044
 Cu24 Cu 0.77426 -0.00041 0.50036
 C25 C 0.74972 -0.03259 0.46817
 C26 C 0.74996 0.03193 0.53263
 C27 C 0.74985 0.03196 0.46812
 C28 C 0.74983 -0.03267 0.53272
 O29 O 0.27039 0.47532 0.97634
 O30 O 0.27038 0.52339 1.02432
 O31 O 0.27036 0.47532 1.02438
 O32 O 0.27039 0.52339 0.97629
 O33 O 0.22969 0.52343 0.97629
 O34 O 0.22970 0.47537 1.02437
 O35 O 0.22968 0.52343 1.02431
 O36 O 0.22969 0.47536 0.97634
 Cu37 Cu 0.27445 0.49935 1.00033
 Cu38 Cu 0.22562 0.49940 1.00033
 C39 C 0.25004 0.46711 0.96812
 C40 C 0.25003 0.53165 1.03253
 C41 C 0.25003 0.46706 1.03267
 C42 C 0.25004 0.53165 0.96805
 O43 O 0.47648 0.27016 1.02428
 O44 O 0.52449 0.27020 0.97624
 O45 O 0.47644 0.27014 0.97624
 O46 O 0.52455 0.27019 1.02429
 O47 O 0.52463 0.22952 1.02432
 O48 O 0.47653 0.22943 0.97626
 O49 O 0.52458 0.22948 0.97627
 O50 O 0.47657 0.22944 1.02430
 Cu51 Cu 0.50049 0.27425 1.00026
 Cu52 Cu 0.50059 0.22540 1.00029
 C53 C 0.46829 0.24980 1.03252
 C54 C 0.53276 0.24985 0.96801
 C55 C 0.46823 0.24977 0.96801
 C56 C 0.53288 0.24987 1.03259
 O57 O 0.47651 0.72967 -0.02437
 O58 O 0.52450 0.72985 0.02366
 O59 O 0.47645 0.72972 0.02367
 O60 O 0.52456 0.72981 -0.02438
 O61 O 0.52442 0.77049 -0.02443
 O62 O 0.47630 0.77043 0.02362
 O63 O 0.52435 0.77057 0.02361
 O64 O 0.47637 0.77039 -0.02442
 Cu65 Cu 0.50052 0.72569 -0.00035
 Cu66 Cu 0.50035 0.77454 -0.00041
 C67 C 0.46821 0.75000 -0.03262
 C68 C 0.53265 0.75024 0.03187
 C69 C 0.46812 0.75006 0.03188
 C70 C 0.53279 0.75016 -0.03269
 O71 O 1.02435 0.47638 0.27018
 O72 O 0.97630 0.52444 0.27024
 O73 O 0.97629 0.47636 0.27021
 O74 O 1.02436 0.52445 0.27019
 O75 O 1.02435 0.52448 0.22955
 O76 O 0.97628 0.47639 0.22952
 O77 O 0.97629 0.52447 0.22955
 O78 O 1.02434 0.47641 0.22950
 Cu79 Cu 1.00033 0.50040 0.27427
 Cu80 Cu 1.00031 0.50044 0.22546
 C81 C 1.03259 0.46816 0.24983
 C82 C 0.96806 0.53270 0.24990
 C83 C 0.96804 0.46813 0.24986
 C84 C 1.03265 0.53276 0.24987
 O85 O -0.02443 0.47633 0.72947
 O86 O 0.02354 0.52438 0.72960
 O87 O 0.02362 0.47631 0.72954
 O88 O -0.02452 0.52441 0.72956
 O89 O -0.02458 0.52435 0.77020
 O90 O 0.02356 0.47624 0.77022
 O91 O 0.02348 0.52432 0.77029
 O92 O -0.02449 0.47627 0.77016
 Cu93 Cu -0.00044 0.50036 0.72547
 Cu94 Cu -0.00051 0.50029 0.77429
 C95 C -0.03268 0.46806 0.74980
 C96 C 0.03174 0.53258 0.74996
 C97 C 0.03185 0.46803 0.74988
 C98 C -0.03285 0.53268 0.74988
 O99 O 0.47544 0.97639 0.27028
 O100 O 0.52346 1.02441 0.27030
 O101 O 0.47542 1.02446 0.27028
 O102 O 0.52348 0.97635 0.27029
 O103 O 0.52349 0.97637 0.22960
 O104 O 0.47543 1.02448 0.22964
 O105 O 0.52347 1.02443 0.22962
 O106 O 0.47546 0.97642 0.22959
 Cu107 Cu 0.49945 1.00040 0.27436
 Cu108 Cu 0.49946 1.00043 0.22554
 C109 C 0.46722 0.96817 0.24993
 C110 C 0.53170 1.03265 0.24996
 C111 C 0.46714 1.03276 0.24996
 C112 C 0.53172 0.96811 0.24994
 O113 O 1.02415 0.27039 0.52380
 O114 O 0.97609 0.27035 0.47582
 O115 O 0.97611 0.27034 0.52385
 O116 O 1.02413 0.27043 0.47578
 O117 O 1.02422 0.22971 0.47576
 O118 O 0.97620 0.22962 0.52384
 O119 O 0.97618 0.22963 0.47581
 O120 O 1.02424 0.22967 0.52378
 Cu121 Cu 1.00011 0.27446 0.49981
 Cu122 Cu 1.00022 0.22557 0.49979
 C123 C 1.03243 0.25003 0.53201
 C124 C 0.96789 0.24999 0.46759
 C125 C 0.96793 0.24996 0.53209
 C126 C 1.03241 0.25008 0.46753
 O127 O -0.02410 0.72968 0.52396
 O128 O 0.02396 0.72964 0.47599
 O129 O 0.02392 0.72968 0.52401
 O130 O -0.02407 0.72963 0.47594
 O131 O -0.02412 0.77035 0.47589
 O132 O 0.02388 0.77040 0.52396
 O133 O 0.02392 0.77036 0.47594
 O134 O -0.02415 0.77040 0.52391
 Cu135 Cu -0.00007 0.72557 0.49998
 Cu136 Cu -0.00012 0.77446 0.49992
 C137 C -0.03236 0.75004 0.53216
 C138 C 0.03217 0.74999 0.46774
 C139 C 0.03213 0.75005 0.53222
 C140 C -0.03233 0.74998 0.46768
 O141 O 0.72956 0.47612 1.02399
 O142 O 0.72955 0.52416 0.97600
 O143 O 0.72951 0.47611 0.97597
 O144 O 0.72961 0.52418 1.02401
 O145 O 0.77031 0.52410 1.02396
 O146 O 0.77021 0.47604 0.97592
 O147 O 0.77025 0.52409 0.97594
 O148 O 0.77026 0.47604 1.02394
 Cu149 Cu 0.72548 0.50014 1.00000
 Cu150 Cu 0.77434 0.50006 0.99994
 C151 C 0.74991 0.46785 1.03219
 C152 C 0.74990 0.53236 0.96774
 C153 C 0.74985 0.46784 0.96771
 C154 C 0.74997 0.53238 1.03221
 O155 O 0.47562 1.02445 0.72965
 O156 O 0.52369 0.97642 0.72969
 O157 O 0.47566 0.97639 0.72965
 O158 O 0.52365 1.02447 0.72970
 O159 O 0.52360 1.02446 0.77039
 O160 O 0.47561 0.97638 0.77033
 O161 O 0.52364 0.97640 0.77037
 O162 O 0.47556 1.02444 0.77030
 Cu163 Cu 0.49966 1.00043 0.72560
 Cu164 Cu 0.49960 1.00042 0.77443
 C165 C 0.46730 1.03273 0.74997
 C166 C 0.53191 0.96818 0.75004
 C167 C 0.46741 0.96814 0.74998
 C168 C 0.53186 1.03270 0.75006
 C169 C 0.25059 0.23201 0.26856
 C170 C 0.23250 0.25076 0.26883
 C171 C 0.23222 0.26889 0.25013
 C172 C 0.25003 0.26828 0.23115
 C173 C 0.26812 0.24952 0.23088
 C174 C 0.26842 0.23139 0.24958
 C175 C 0.74922 0.76802 0.26897
 C176 C 0.73112 0.76836 0.25026
 C177 C 0.73176 0.75057 0.23125
 C178 C 0.75050 0.73247 0.23095
 C179 C 0.76860 0.73215 0.24965
 C180 C 0.76797 0.74994 0.26866
 C181 C 0.75069 0.23100 0.73215
 C182 C 0.73198 0.23130 0.75025
 C183 C 0.73140 0.25029 0.76805
 C184 C 0.74949 0.26901 0.76771
 C185 C 0.76818 0.26872 0.74959
 C186 C 0.76879 0.24971 0.73180
 C187 C 0.24990 0.76836 0.73174
 C188 C 0.23145 0.74994 0.73176
 C189 C 0.23147 0.73147 0.75020
 C190 C 0.24995 0.73141 0.76860
 C191 C 0.26840 0.74983 0.76856
 C192 C 0.26838 0.76831 0.75014
 C193 C 0.23174 0.24981 0.73141
 C194 C 0.25020 0.23133 0.73139
 C195 C 0.26863 0.23130 0.74985
 C196 C 0.26861 0.24972 0.76833
 C197 C 0.25014 0.26818 0.76833
 C198 C 0.23170 0.26824 0.74988
 C199 C 0.76833 0.75017 0.73155
 C200 C 0.74988 0.76866 0.73155
 C201 C 0.73145 0.76867 0.75001
 C202 C 0.73145 0.75022 0.76847
 C203 C 0.74990 0.73175 0.76844
 C204 C 0.76835 0.73171 0.74999
 C205 C 0.23152 0.74985 0.26838
 C206 C 0.23151 0.73139 0.24994
 C207 C 0.24996 0.73140 0.23150
 C208 C 0.26840 0.74985 0.23147
 C209 C 0.26838 0.76831 0.24991
 C210 C 0.24995 0.76831 0.26838
 C211 C 0.76840 0.24998 0.26837
 C212 C 0.74994 0.23155 0.26840
 C213 C 0.73149 0.23157 0.24995
 C214 C 0.73150 0.25000 0.23147
 C215 C 0.74998 0.26842 0.23148
 C216 C 0.76843 0.26843 0.24992
 C217 C 0.22802 0.07951 0.42100
 C218 C 0.25039 0.08858 0.41184
 C219 C 0.27271 0.07936 0.42102
 C220 C 0.27268 0.06114 0.43929
 C221 C 0.25028 0.05189 0.44862
 C222 C 0.22794 0.06129 0.43927
 C223 C 0.25045 0.10734 0.39304
 C224 C 0.25050 0.12306 0.37730
 C225 C 0.25055 0.14147 0.35889
 C226 C 0.25058 0.15721 0.34317
 C227 C 0.25061 0.17601 0.32441
 C228 C 0.25918 0.19977 0.32989
 C229 C 0.25919 0.21804 0.31169
 C230 C 0.25057 0.21267 0.28789
 C231 C 0.24204 0.18885 0.28243
 C232 C 0.24206 0.17058 0.30064
 H233 H 0.21064 0.08653 0.41402
 H234 H 0.29013 0.08626 0.41405
 H235 H 0.29019 0.05430 0.44608
 H236 H 0.21039 0.05457 0.44605
 H237 H 0.26587 0.20415 0.34821
 H238 H 0.26598 0.23632 0.31607
 H239 H 0.23536 0.18450 0.26411
 H240 H 0.23541 0.15226 0.29620
 C241 C 0.77189 0.92044 0.42125
 C242 C 0.74951 0.91137 0.41213
 C243 C 0.72720 0.92060 0.42131
 C244 C 0.72724 0.93884 0.43956
 C245 C 0.74965 0.94809 0.44886
 C246 C 0.77198 0.93868 0.43949
 C247 C 0.74944 0.89261 0.39335
 C248 C 0.74939 0.87688 0.37763
 C249 C 0.74934 0.85848 0.35923
 C250 C 0.74931 0.84274 0.34352
 C251 C 0.74927 0.82395 0.32478
 C252 C 0.73640 0.80186 0.32862
 C253 C 0.73637 0.78359 0.31042
 C254 C 0.74920 0.78732 0.28827
 C255 C 0.76206 0.80944 0.28445
 C256 C 0.76209 0.82770 0.30265
 H257 H 0.78926 0.91342 0.41426
 H258 H 0.70977 0.91370 0.41437
 H259 H 0.70974 0.94568 0.44636
 H260 H 0.78954 0.94540 0.44625
 H261 H 0.72642 0.79877 0.34566
 H262 H 0.72638 0.76657 0.31355
 H263 H 0.77203 0.81248 0.26739
 H264 H 0.77210 0.84472 0.29950
 C265 C 0.72778 0.07888 0.57955
 C266 C 0.75016 0.08797 0.58866
 C267 C 0.77247 0.07876 0.57947
 C268 C 0.77243 0.06052 0.56123
 C269 C 0.75003 0.05125 0.55194
 C270 C 0.72769 0.06064 0.56131
 C271 C 0.75022 0.10674 0.60744
 C272 C 0.75028 0.12245 0.62317
 C273 C 0.75036 0.14083 0.64160
 C274 C 0.75043 0.15652 0.65735
 C275 C 0.75052 0.17525 0.67616
 C276 C 0.76351 0.17139 0.69816
 C277 C 0.76359 0.18957 0.71645
 C278 C 0.75067 0.21171 0.71283
 C279 C 0.73767 0.21555 0.69080
 C280 C 0.73760 0.19736 0.67251
 H281 H 0.71041 0.08589 0.58655
 H282 H 0.78990 0.08567 0.58640
 H283 H 0.78994 0.05369 0.55441
 H284 H 0.71014 0.05391 0.55457
 H285 H 0.77356 0.15435 0.70117
 H286 H 0.77369 0.18643 0.73341
 H287 H 0.72763 0.23260 0.68783
 H288 H 0.72749 0.20053 0.65556
 C289 C 0.22757 0.92121 0.57937
 C290 C 0.24989 0.91199 0.58854
 C291 C 0.27226 0.92110 0.57941
 C292 C 0.27234 0.93936 0.56118
 C293 C 0.24999 0.94875 0.55182
 C294 C 0.22759 0.93947 0.56113
 C295 C 0.24985 0.89319 0.60730
 C296 C 0.24982 0.87744 0.62301
 C297 C 0.24981 0.85900 0.64139
 C298 C 0.24981 0.84325 0.65709
 C299 C 0.24982 0.82444 0.67584
 C300 C 0.24462 0.83064 0.70038
 C301 C 0.24462 0.81237 0.71859
 C302 C 0.24987 0.78777 0.71240
 C303 C 0.25509 0.78163 0.68779
 C304 C 0.25504 0.79990 0.66958
 H305 H 0.21015 0.91428 0.58631
 H306 H 0.28965 0.91409 0.58639
 H307 H 0.28988 0.94610 0.55441
 H308 H 0.21008 0.94630 0.55433
 H309 H 0.24055 0.84957 0.70541
 H310 H 0.24048 0.81735 0.73749
 H311 H 0.25925 0.76272 0.68276
 H312 H 0.25910 0.79491 0.65066
 C313 C 0.42125 0.27211 0.07928
 C314 C 0.41213 0.24975 0.08841
 C315 C 0.42136 0.22740 0.07932
 C316 C 0.43966 0.22739 0.06113
 C317 C 0.44895 0.24978 0.05181
 C318 C 0.43955 0.27215 0.06109
 C319 C 0.39328 0.24973 0.10710
 C320 C 0.37748 0.24971 0.12274
 C321 C 0.35897 0.24967 0.14104
 C322 C 0.34316 0.24965 0.15667
 C323 C 0.32427 0.24963 0.17531
 C324 C 0.30220 0.23678 0.17135
 C325 C 0.28385 0.23674 0.18947
 C326 C 0.28748 0.24954 0.21165
 C327 C 0.30958 0.26239 0.21558
 C328 C 0.32792 0.26243 0.19746
 H329 H 0.41422 0.28951 0.08620
 H330 H 0.41442 0.20998 0.08627
 H331 H 0.44650 0.20986 0.05438
 H332 H 0.44630 0.28970 0.05431
 H333 H 0.29919 0.22682 0.15429
 H334 H 0.26685 0.22675 0.18626
 H335 H 0.31255 0.27234 0.23266
 H336 H 0.34493 0.27243 0.20070
 C337 C 0.42136 0.72748 0.92059
 C338 C 0.41213 0.74981 0.91143
 C339 C 0.42122 0.77219 0.92052
 C340 C 0.43949 0.77228 0.93873
 C341 C 0.44889 0.74993 0.94808
 C342 C 0.43962 0.72752 0.93880
 C343 C 0.39332 0.74975 0.89271
 C344 C 0.37755 0.74972 0.87704
 C345 C 0.35910 0.74970 0.85870
 C346 C 0.34333 0.74969 0.84304
 C347 C 0.32451 0.74970 0.82434
 C348 C 0.30001 0.75498 0.83064
 C349 C 0.28172 0.75504 0.81247
 C350 C 0.28781 0.74978 0.78786
 C351 C 0.31239 0.74447 0.78163
 C352 C 0.33067 0.74445 0.79980
 H353 H 0.41443 0.71005 0.91367
 H354 H 0.41420 0.78958 0.91355
 H355 H 0.44622 0.78985 0.94547
 H356 H 0.44646 0.71000 0.94560
 H357 H 0.29505 0.75907 0.84957
 H358 H 0.26284 0.75924 0.81752
 H359 H 0.31733 0.74030 0.76272
 H360 H 0.34957 0.74034 0.79474
 C361 C 0.57954 0.72807 0.07883
 C362 C 0.58858 0.75046 0.08797
 C363 C 0.57936 0.77278 0.07879
 C364 C 0.56116 0.77274 0.06052
 C365 C 0.55194 0.75032 0.05120
 C366 C 0.56134 0.72797 0.06056
 C367 C 0.60731 0.75053 0.10677
 C368 C 0.62301 0.75058 0.12251
 C369 C 0.64138 0.75063 0.14092
 C370 C 0.65709 0.75066 0.15665
 C371 C 0.67585 0.75067 0.17540
 C372 C 0.67044 0.74196 0.19912
 C373 C 0.68869 0.74191 0.21733
 C374 C 0.71246 0.75058 0.21192
 C375 C 0.71781 0.75938 0.18818
 C376 C 0.69957 0.75939 0.16997
 H377 H 0.58656 0.71069 0.08582
 H378 H 0.58624 0.79022 0.08574
 H379 H 0.55432 0.79025 0.05371
 H380 H 0.55464 0.71041 0.05379
 H381 H 0.65215 0.73520 0.20352
 H382 H 0.68436 0.73511 0.23562
 H383 H 0.73606 0.76627 0.18385
 H384 H 0.70393 0.76620 0.15169
 C385 C 0.57948 0.27224 0.92100
 C386 C 0.58863 0.24989 0.91182
 C387 C 0.57955 0.22753 0.92101
 C388 C 0.56138 0.22749 0.93931
 C389 C 0.55204 0.24986 0.94866
 C390 C 0.56130 0.27225 0.93930
 C391 C 0.60732 0.24991 0.89298
 C392 C 0.62297 0.24993 0.87718
 C393 C 0.64129 0.24997 0.85870
 C394 C 0.65694 0.25002 0.84291
 C395 C 0.67564 0.25008 0.82408
 C396 C 0.69548 0.23354 0.82547
 C397 C 0.71367 0.23363 0.80720
 C398 C 0.71214 0.25027 0.78743
 C399 C 0.69221 0.26675 0.78604
 C400 C 0.67404 0.26668 0.80433
 H401 H 0.58638 0.28966 0.91401
 H402 H 0.58652 0.21013 0.91402
 H403 H 0.55464 0.20994 0.94612
 H404 H 0.55451 0.28979 0.94610
 H405 H 0.69688 0.22062 0.84066
 H406 H 0.72896 0.22080 0.80843
 H407 H 0.69075 0.27957 0.77076
 H408 H 0.65875 0.27952 0.80306
 C409 C 0.07956 0.42131 0.22745
 C410 C 0.08872 0.41214 0.24977
 C411 C 0.07955 0.42126 0.27212
 C412 C 0.06127 0.43949 0.27217
 C413 C 0.05193 0.44884 0.24981
 C414 C 0.06128 0.43954 0.22744
 C415 C 0.10754 0.39339 0.24976
 C416 C 0.12330 0.37768 0.24976
 C417 C 0.14174 0.35929 0.24978
 C418 C 0.15750 0.34358 0.24981
 C419 C 0.17630 0.32483 0.24987
 C420 C 0.19627 0.32658 0.26618
 C421 C 0.21452 0.30834 0.26627
 C422 C 0.21288 0.28821 0.25009
 C423 C 0.19290 0.28653 0.23374
 C424 C 0.17467 0.30478 0.23363
 H425 H 0.08654 0.41437 0.21004
 H426 H 0.08653 0.41428 0.28951
 H427 H 0.05448 0.44625 0.28970
 H428 H 0.05449 0.44634 0.20992
 H429 H 0.19772 0.34203 0.27879
 H430 H 0.22996 0.30991 0.27886
 H431 H 0.19148 0.27108 0.22113
 H432 H 0.15931 0.30327 0.22093
 C433 C 0.92058 0.42114 0.72733
 C434 C 0.91141 0.41194 0.74964
 C435 C 0.92049 0.42108 0.77200
 C436 C 0.93869 0.43935 0.77208
 C437 C 0.94804 0.44872 0.74974
 C438 C 0.93878 0.43941 0.72735
 C439 C 0.89268 0.39314 0.74958
 C440 C 0.87699 0.37740 0.74955
 C441 C 0.85861 0.35899 0.74951
 C442 C 0.84289 0.34327 0.74949
 C443 C 0.82412 0.32452 0.74948
 C444 C 0.80049 0.32991 0.74050
 C445 C 0.78223 0.31171 0.74051
 C446 C 0.78749 0.28803 0.74957
 C447 C 0.81118 0.28266 0.75850
 C448 C 0.82944 0.30086 0.75846
 H449 H 0.91366 0.41418 0.70991
 H450 H 0.91351 0.41408 0.78938
 H451 H 0.94542 0.44612 0.78962
 H452 H 0.94558 0.44623 0.70984
 H453 H 0.79620 0.34814 0.73348
 H454 H 0.76405 0.31600 0.73342
 H455 H 0.81545 0.26442 0.76551
 H456 H 0.84767 0.29650 0.76542
 C457 C 0.07863 0.57937 0.77241
 C458 C 0.08781 0.58854 0.75010
 C459 C 0.07867 0.57945 0.72774
 C460 C 0.06040 0.56124 0.72767
 C461 C 0.05105 0.55189 0.75001
 C462 C 0.06037 0.56116 0.77240
 C463 C 0.10662 0.60726 0.75013
 C464 C 0.12238 0.62293 0.75016
 C465 C 0.14084 0.64126 0.75018
 C466 C 0.15660 0.65693 0.75021
 C467 C 0.17541 0.67564 0.75024
 C468 C 0.19992 0.66935 0.74495
 C469 C 0.21819 0.68753 0.74493
 C470 C 0.21208 0.71215 0.75023
 C471 C 0.18750 0.71838 0.75555
 C472 C 0.16924 0.70019 0.75553
 H473 H 0.08559 0.58629 0.78982
 H474 H 0.08566 0.58643 0.71036
 H475 H 0.05363 0.55451 0.71013
 H476 H 0.05356 0.55436 0.78991
 H477 H 0.20488 0.65041 0.74083
 H478 H 0.23707 0.68249 0.74072
 H479 H 0.18255 0.73729 0.75975
 H480 H 0.15033 0.70525 0.75965
 C481 C 0.92116 0.57966 0.22761
 C482 C 0.91202 0.58881 0.24995
 C483 C 0.92118 0.57964 0.27228
 C484 C 0.93942 0.56137 0.27229
 C485 C 0.94874 0.55204 0.24992
 C486 C 0.93940 0.56139 0.22756
 C487 C 0.89324 0.60760 0.24996
 C488 C 0.87752 0.62334 0.24996
 C489 C 0.85910 0.64176 0.24994
 C490 C 0.84337 0.65749 0.24990
 C491 C 0.82459 0.67627 0.24985
 C492 C 0.80459 0.67463 0.26614
 C493 C 0.78632 0.69285 0.26605
 C494 C 0.78793 0.71282 0.24966
 C495 C 0.80801 0.71446 0.23342
 C496 C 0.82627 0.69622 0.23349
 H497 H 0.91419 0.58663 0.21021
 H498 H 0.91422 0.58660 0.28968
 H499 H 0.94622 0.55458 0.28981
 H500 H 0.94618 0.55461 0.21003
 H501 H 0.80313 0.65928 0.27888
 H502 H 0.77091 0.69142 0.27870
 H503 H 0.80953 0.72989 0.22080
 H504 H 0.84168 0.69769 0.22085
 C505 C 0.07930 0.27239 0.57888
 C506 C 0.08849 0.25004 0.58800
 C507 C 0.07939 0.22768 0.57884
 C508 C 0.06114 0.22766 0.56062
 C509 C 0.05176 0.25004 0.55131
 C510 C 0.06105 0.27242 0.56065
 C511 C 0.10727 0.25003 0.60677
 C512 C 0.12299 0.25001 0.62248
 C513 C 0.14139 0.24998 0.64088
 C514 C 0.15710 0.24995 0.65661
 C515 C 0.17584 0.24992 0.67540
 C516 C 0.17638 0.23111 0.69313
 C517 C 0.19457 0.23108 0.71139
 C518 C 0.21240 0.24985 0.71203
 C519 C 0.21181 0.26865 0.69423
 C520 C 0.19358 0.26870 0.67599
 H521 H 0.08623 0.28980 0.58585
 H522 H 0.08639 0.21027 0.58579
 H523 H 0.05439 0.21012 0.55383
 H524 H 0.05423 0.28996 0.55389
 H525 H 0.16273 0.21651 0.69284
 H526 H 0.19476 0.21650 0.72507
 H527 H 0.22551 0.28321 0.69446
 H528 H 0.19334 0.28332 0.66236
 C529 C 0.92069 0.77242 0.57898
 C530 C 0.91157 0.75006 0.58815
 C531 C 0.92076 0.72771 0.57903
 C532 C 0.93901 0.72767 0.56080
 C533 C 0.94831 0.75005 0.55146
 C534 C 0.93894 0.77244 0.56075
 C535 C 0.89280 0.75006 0.60691
 C536 C 0.87708 0.75006 0.62263
 C537 C 0.85869 0.75006 0.64104
 C538 C 0.84298 0.75007 0.65677
 C539 C 0.82423 0.75010 0.67555
 C540 C 0.80647 0.73135 0.67611
 C541 C 0.78823 0.73138 0.69434
 C542 C 0.78767 0.75015 0.71217
 C543 C 0.80552 0.76890 0.71156
 C544 C 0.82372 0.76888 0.69330
 H545 H 0.91370 0.78983 0.58592
 H546 H 0.91382 0.71030 0.58601
 H547 H 0.94582 0.71013 0.55405
 H548 H 0.94570 0.78997 0.55396
 H549 H 0.80670 0.71674 0.66246
 H550 H 0.77452 0.71684 0.69455
 H551 H 0.80534 0.78345 0.72526
 H552 H 0.83738 0.78346 0.69303
 C553 C 0.07908 0.77229 0.42088
 C554 C 0.08824 0.74992 0.41175
 C555 C 0.07910 0.72758 0.42091
 C556 C 0.06084 0.72757 0.43914
 C557 C 0.05150 0.74997 0.44844
 C558 C 0.06083 0.77234 0.43910
 C559 C 0.10702 0.74989 0.39299
 C560 C 0.12274 0.74986 0.37727
 C561 C 0.14113 0.74984 0.35887
 C562 C 0.15684 0.74983 0.34314
 C563 C 0.17560 0.74984 0.32437
 C564 C 0.19337 0.73106 0.32381
 C565 C 0.21161 0.73107 0.30558
 C566 C 0.21217 0.74985 0.28775
 C567 C 0.19431 0.76862 0.28836
 C568 C 0.17611 0.76862 0.30661
 H569 H 0.08605 0.78969 0.41390
 H570 H 0.08607 0.71016 0.41397
 H571 H 0.05406 0.71004 0.44593
 H572 H 0.05404 0.78989 0.44587
 H573 H 0.19314 0.71645 0.33746
 H574 H 0.22532 0.71651 0.30537
 H575 H 0.19448 0.78318 0.27466
 H576 H 0.16244 0.78323 0.30688
 C577 C 0.92092 0.27229 0.42076
 C578 C 0.91180 0.24992 0.41163
 C579 C 0.92100 0.22758 0.42078
 C580 C 0.93926 0.22757 0.43900
 C581 C 0.94856 0.24997 0.44830
 C582 C 0.93918 0.27234 0.43897
 C583 C 0.89300 0.24990 0.39289
 C584 C 0.87727 0.24988 0.37719
 C585 C 0.85886 0.24988 0.35880
 C586 C 0.84313 0.24989 0.34308
 C587 C 0.82436 0.24992 0.32432
 C588 C 0.79983 0.25519 0.33055
 C589 C 0.78160 0.25523 0.31232
 C590 C 0.78776 0.24996 0.28773
 C591 C 0.81236 0.24467 0.28157
 C592 C 0.83059 0.24467 0.29980
 H593 H 0.91392 0.28969 0.41379
 H594 H 0.91406 0.21016 0.41384
 H595 H 0.94608 0.21004 0.44578
 H596 H 0.94594 0.28988 0.44573
 H597 H 0.79482 0.25928 0.34946
 H598 H 0.76270 0.25942 0.31732
 H599 H 0.81736 0.24050 0.26268
 H600 H 0.84951 0.24057 0.29479
 C601 C 0.27238 0.42022 0.92121
 C602 C 0.25003 0.41112 0.91205
 C603 C 0.22769 0.42029 0.92120
 C604 C 0.22766 0.43851 0.93946
 C605 C 0.25004 0.44779 0.94880
 C606 C 0.27241 0.43844 0.93947
 C607 C 0.25002 0.39239 0.89324
 C608 C 0.25002 0.37671 0.87748
 C609 C 0.25001 0.35837 0.85902
 C610 C 0.25002 0.34270 0.84325
 C611 C 0.25005 0.32400 0.82443
 C612 C 0.23129 0.30624 0.82382
 C613 C 0.23132 0.28804 0.80556
 C614 C 0.25010 0.28750 0.78773
 C615 C 0.26885 0.30535 0.78839
 C616 C 0.26883 0.32351 0.80668
 H617 H 0.28978 0.41324 0.91424
 H618 H 0.21029 0.41336 0.91423
 H619 H 0.21013 0.44531 0.94625
 H620 H 0.28994 0.44519 0.94626
 H621 H 0.21668 0.30645 0.83747
 H622 H 0.21679 0.27433 0.80531
 H623 H 0.28341 0.30519 0.77470
 H624 H 0.28341 0.33718 0.80699
 C625 C 0.77226 0.42090 0.07903
 C626 C 0.74991 0.41177 0.08817
 C627 C 0.72757 0.42095 0.07904
 C628 C 0.72754 0.43921 0.06081
 C629 C 0.74991 0.44852 0.05149
 C630 C 0.77229 0.43916 0.06080
 C631 C 0.74990 0.39298 0.10692
 C632 C 0.74990 0.37725 0.12263
 C633 C 0.74992 0.35884 0.14102
 C634 C 0.74994 0.34312 0.15674
 C635 C 0.74997 0.32436 0.17551
 C636 C 0.75523 0.29982 0.16930
 C637 C 0.75526 0.28159 0.18753
 C638 C 0.74999 0.28778 0.21211
 C639 C 0.74471 0.31239 0.21826
 C640 C 0.74473 0.33062 0.20002
 H641 H 0.78966 0.41391 0.08598
 H642 H 0.71016 0.41400 0.08600
 H643 H 0.71001 0.44602 0.05404
 H644 H 0.78982 0.44593 0.05402
 H645 H 0.75932 0.29480 0.15038
 H646 H 0.75944 0.26268 0.18255
 H647 H 0.74054 0.31740 0.23715
 H648 H 0.74063 0.34955 0.20501
 C649 C 0.77221 0.57922 0.92085
 C650 C 0.74986 0.58841 0.91174
 C651 C 0.72752 0.57929 0.92091
 C652 C 0.72751 0.56104 0.93915
 C653 C 0.74989 0.55168 0.94844
 C654 C 0.77226 0.56097 0.93908
 C655 C 0.74984 0.60718 0.89298
 C656 C 0.74984 0.62290 0.87726
 C657 C 0.74985 0.64130 0.85886
 C658 C 0.74987 0.65702 0.84314
 C659 C 0.74989 0.67578 0.82438
 C660 C 0.73113 0.67633 0.80662
 C661 C 0.73114 0.69455 0.78837
 C662 C 0.74990 0.71238 0.78779
 C663 C 0.76866 0.71178 0.80563
 C664 C 0.76866 0.69353 0.82384
 H665 H 0.78961 0.58616 0.91386
 H666 H 0.71012 0.58629 0.91398
 H667 H 0.70998 0.55428 0.94595
 H668 H 0.78979 0.55416 0.94584
 H669 H 0.71653 0.66268 0.80687
 H670 H 0.71660 0.69476 0.77467
 H671 H 0.78320 0.72548 0.80543
 H672 H 0.78324 0.69326 0.83751
 C673 C 0.27235 0.57861 0.07932
 C674 C 0.25000 0.58779 0.08846
 C675 C 0.22766 0.57862 0.07934
 C676 C 0.22764 0.56035 0.06113
 C677 C 0.25002 0.55099 0.05182
 C678 C 0.27239 0.56033 0.06112
 C679 C 0.24998 0.60660 0.10718
 C680 C 0.24997 0.62237 0.12285
 C681 C 0.24997 0.64082 0.14120
 C682 C 0.24997 0.65658 0.15688
 C683 C 0.24998 0.67538 0.17560
 C684 C 0.23121 0.69316 0.17613
 C685 C 0.23121 0.71143 0.19432
 C686 C 0.24998 0.71203 0.21215
 C687 C 0.26875 0.69417 0.21157
 C688 C 0.26876 0.67593 0.19334
 H689 H 0.28975 0.58558 0.08627
 H690 H 0.21025 0.58561 0.08629
 H691 H 0.21011 0.55356 0.05437
 H692 H 0.28992 0.55353 0.05435
 H693 H 0.21661 0.69291 0.16248
 H694 H 0.21666 0.72515 0.19451
 H695 H 0.28330 0.69437 0.22527
 H696 H 0.28336 0.66225 0.19310
 C697 C 0.42128 0.07872 0.72758
 C698 C 0.41208 0.08786 0.74988
 C699 C 0.42121 0.07872 0.77222
 C700 C 0.43947 0.06048 0.77230
 C701 C 0.44893 0.05107 0.74994
 C702 C 0.43954 0.06048 0.72755
 C703 C 0.39329 0.10663 0.74985
 C704 C 0.37755 0.12236 0.74982
 C705 C 0.35913 0.14078 0.74980
 C706 C 0.34340 0.15651 0.74980
 C707 C 0.32462 0.17529 0.74982
 C708 C 0.30684 0.17581 0.76856
 C709 C 0.28858 0.19404 0.76857
 C710 C 0.28800 0.21192 0.74984
 C711 C 0.30586 0.21135 0.73110
 C712 C 0.32409 0.19309 0.73108
 H713 H 0.41432 0.08569 0.71017
 H714 H 0.41420 0.08569 0.78960
 H715 H 0.44614 0.05380 0.78992
 H716 H 0.44626 0.05380 0.70996
 H717 H 0.30709 0.16212 0.78314
 H718 H 0.27486 0.19422 0.78310
 H719 H 0.30567 0.22509 0.71657
 H720 H 0.33776 0.19286 0.71650
 C721 C 0.42043 0.92123 0.22755
 C722 C 0.41129 0.91205 0.24988
 C723 C 0.42040 0.92121 0.27223
 C724 C 0.43860 0.93948 0.27227
 C725 C 0.44793 0.94884 0.24991
 C726 C 0.43863 0.93951 0.22754
 C727 C 0.39258 0.89323 0.24986
 C728 C 0.37691 0.87746 0.24984
 C729 C 0.35858 0.85899 0.24983
 C730 C 0.34291 0.84321 0.24983
 C731 C 0.32421 0.82439 0.24985
 C732 C 0.32373 0.80662 0.26861
 C733 C 0.30556 0.78833 0.26862
 C734 C 0.28771 0.78770 0.24988
 C735 C 0.28824 0.80555 0.23112
 C736 C 0.30644 0.82381 0.23110
 H737 H 0.41350 0.91426 0.21015
 H738 H 0.41344 0.91422 0.28962
 H739 H 0.44536 0.94627 0.28980
 H740 H 0.44541 0.94631 0.21002
 H741 H 0.33739 0.80690 0.28319
 H742 H 0.30541 0.77462 0.28317
 H743 H 0.27453 0.80533 0.21659
 H744 H 0.30665 0.83748 0.21650
 C745 C 0.57864 0.07948 0.22764
 C746 C 0.58782 0.08859 0.24997
 C747 C 0.57866 0.07944 0.27231
 C748 C 0.56039 0.06123 0.27234
 C749 C 0.55104 0.05194 0.24997
 C750 C 0.56037 0.06128 0.22761
 C751 C 0.60663 0.10731 0.24997
 C752 C 0.62240 0.12298 0.24998
 C753 C 0.64086 0.14132 0.24998
 C754 C 0.65663 0.15700 0.24999
 C755 C 0.67543 0.17572 0.25000
 C756 C 0.69996 0.16942 0.24480
 C757 C 0.71823 0.18761 0.24477
 C758 C 0.71210 0.21224 0.24998
 C759 C 0.68750 0.21848 0.25520
 C760 C 0.66924 0.20029 0.25518
 H761 H 0.58561 0.08644 0.21024
 H762 H 0.58565 0.08637 0.28971
 H763 H 0.55361 0.05445 0.28986
 H764 H 0.55357 0.05453 0.21008
 H765 H 0.70494 0.15047 0.24076
 H766 H 0.73712 0.18255 0.24063
 H767 H 0.68253 0.23741 0.25932
 H768 H 0.65033 0.20536 0.25923
 C769 C 0.57884 0.92127 0.77239
 C770 C 0.58803 0.91214 0.75006
 C771 C 0.57889 0.92131 0.72772
 C772 C 0.56062 0.93955 0.72769
 C773 C 0.55125 0.94886 0.75005
 C774 C 0.56057 0.93951 0.77241
 C775 C 0.60682 0.89337 0.75006
 C776 C 0.62257 0.87765 0.75004
 C777 C 0.64099 0.85924 0.75003
 C778 C 0.65672 0.84350 0.75002
 C779 C 0.67548 0.82471 0.75003
 C780 C 0.67601 0.80693 0.73128
 C781 C 0.69423 0.78865 0.73128
 C782 C 0.71209 0.78806 0.75002
 C783 C 0.71151 0.80592 0.76876
 C784 C 0.69326 0.82416 0.76877
 H785 H 0.58579 0.91429 0.78979
 H786 H 0.58588 0.91436 0.71032
 H787 H 0.55385 0.94635 0.71016
 H788 H 0.55375 0.94627 0.78994
 H789 H 0.66234 0.80718 0.71670
 H790 H 0.69441 0.77493 0.71675
 H791 H 0.72523 0.80572 0.78329
 H792 H 0.69302 0.83784 0.78335
 C793 C 0.77212 0.92122 0.57873
 C794 C 0.74978 0.91214 0.58794
 C795 C 0.72747 0.92137 0.57881
 C796 C 0.72743 0.93962 0.56055
 C797 C 0.74981 0.94896 0.55109
 C798 C 0.77218 0.93947 0.56047
 C799 C 0.74976 0.89335 0.60674
 C800 C 0.74975 0.87762 0.62250
 C801 C 0.74976 0.85920 0.64094
 C802 C 0.74978 0.84347 0.65669
 C803 C 0.74981 0.82468 0.67549
 C804 C 0.74464 0.80012 0.66930
 C805 C 0.74464 0.78187 0.68755
 C806 C 0.74986 0.78804 0.71215
 C807 C 0.75506 0.81267 0.71827
 C808 C 0.75501 0.83091 0.70002
 H809 H 0.78951 0.91420 0.58567
 H810 H 0.71006 0.91447 0.58581
 H811 H 0.70982 0.94636 0.55389
 H812 H 0.78980 0.94609 0.55376
 H813 H 0.74058 0.79508 0.65039
 H814 H 0.74051 0.76296 0.68256
 H815 H 0.75921 0.81770 0.73716
 H816 H 0.75905 0.84985 0.70502
 C817 C 0.27233 0.42103 0.07873
 C818 C 0.25000 0.41190 0.08789
 C819 C 0.22768 0.42108 0.07872
 C820 C 0.22764 0.43932 0.06046
 C821 C 0.25002 0.44871 0.05104
 C822 C 0.27239 0.43927 0.06046
 C823 C 0.24998 0.39312 0.10669
 C824 C 0.24998 0.37737 0.12242
 C825 C 0.24997 0.35893 0.14083
 C826 C 0.24997 0.34317 0.15655
 C827 C 0.24998 0.32435 0.17530
 C828 C 0.24111 0.30067 0.16991
 C829 C 0.24112 0.28238 0.18811
 C830 C 0.25005 0.28763 0.21181
 C831 C 0.25887 0.31136 0.21719
 C832 C 0.25883 0.32966 0.19899
 H833 H 0.28972 0.41404 0.08570
 H834 H 0.21027 0.41414 0.08569
 H835 H 0.21002 0.44602 0.05377
 H836 H 0.29001 0.44593 0.05378
 H837 H 0.23418 0.29636 0.15166
 H838 H 0.23410 0.26417 0.18379
 H839 H 0.26578 0.31564 0.23544
 H840 H 0.26571 0.34791 0.20337
 C841 C 0.22787 0.07882 0.57852
 C842 C 0.25020 0.08792 0.58770
 C843 C 0.27252 0.07869 0.57857
 C844 C 0.27255 0.06043 0.56032
 C845 C 0.25017 0.05107 0.55088
 C846 C 0.22781 0.06056 0.56028
 C847 C 0.25021 0.10672 0.60650
 C848 C 0.25021 0.12246 0.62225
 C849 C 0.25022 0.14087 0.64069
 C850 C 0.25022 0.15659 0.65645
 C851 C 0.25023 0.17536 0.67527
 C852 C 0.25540 0.19994 0.66910
 C853 C 0.25542 0.21816 0.68736
 C854 C 0.25023 0.21196 0.71197
 C855 C 0.24504 0.18732 0.71808
 C856 C 0.24507 0.16910 0.69981
 H857 H 0.21048 0.08584 0.58547
 H858 H 0.28993 0.08560 0.58555
 H859 H 0.29016 0.05369 0.55366
 H860 H 0.21019 0.05393 0.55358
 H861 H 0.25943 0.20499 0.65018
 H862 H 0.25953 0.23708 0.68238
 H863 H 0.24092 0.18227 0.73697
 H864 H 0.24104 0.15016 0.70480
 C865 C 0.27235 0.92097 0.42108
 C866 C 0.24999 0.91186 0.41192
 C867 C 0.22767 0.92110 0.42108
 C868 C 0.22767 0.93936 0.43932
 C869 C 0.25005 0.94865 0.44866
 C870 C 0.27240 0.93924 0.43932
 C871 C 0.24996 0.89305 0.39313
 C872 C 0.24993 0.87731 0.37739
 C873 C 0.24992 0.85888 0.35896
 C874 C 0.24992 0.84315 0.34321
 C875 C 0.24993 0.82435 0.32442
 C876 C 0.25513 0.79979 0.33062
 C877 C 0.25516 0.78154 0.31238
 C878 C 0.24994 0.78771 0.28777
 C879 C 0.24472 0.81235 0.28163
 C880 C 0.24474 0.83059 0.29988
 H881 H 0.28974 0.91396 0.41413
 H882 H 0.21025 0.91419 0.41412
 H883 H 0.21015 0.94620 0.44609
 H884 H 0.28995 0.94597 0.44610
 H885 H 0.25918 0.79475 0.34954
 H886 H 0.25930 0.76262 0.31738
 H887 H 0.24058 0.81737 0.26274
 H888 H 0.24068 0.84953 0.29486
 C889 C 0.77220 0.07886 0.42116
 C890 C 0.74986 0.08807 0.41201
 C891 C 0.72752 0.07894 0.42120
 C892 C 0.72749 0.06069 0.43946
 C893 C 0.74986 0.05131 0.44878
 C894 C 0.77222 0.06061 0.43941
 C895 C 0.74985 0.10686 0.39321
 C896 C 0.74984 0.12259 0.37746
 C897 C 0.74983 0.14102 0.35902
 C898 C 0.74984 0.15675 0.34327
 C899 C 0.74987 0.17554 0.32447
 C900 C 0.73110 0.19333 0.32386
 C901 C 0.73112 0.21158 0.30563
 C902 C 0.74991 0.21217 0.28781
 C903 C 0.76868 0.19430 0.28847
 C904 C 0.76867 0.17608 0.30674
 H905 H 0.78960 0.08579 0.41418
 H906 H 0.71011 0.08593 0.41426
 H907 H 0.70996 0.05394 0.44626
 H908 H 0.78976 0.05379 0.44618
 H909 H 0.71647 0.19310 0.33749
 H910 H 0.71657 0.22529 0.30540
 H911 H 0.78325 0.19447 0.27479
 H912 H 0.78327 0.16241 0.30702
 C913 C 0.57875 0.77254 0.92124
 C914 C 0.58800 0.75022 0.91212
 C915 C 0.57891 0.72787 0.92132
 C916 C 0.56066 0.72781 0.93957
 C917 C 0.55116 0.75018 0.94895
 C918 C 0.56050 0.77258 0.93949
 C919 C 0.60679 0.75024 0.89332
 C920 C 0.62252 0.75024 0.87757
 C921 C 0.64094 0.75024 0.85912
 C922 C 0.65667 0.75025 0.84337
 C923 C 0.67545 0.75026 0.82455
 C924 C 0.70001 0.75540 0.83075
 C925 C 0.71824 0.75542 0.81249
 C926 C 0.71207 0.75025 0.78788
 C927 C 0.68744 0.74508 0.78175
 C928 C 0.66921 0.74511 0.80001
 H929 H 0.58566 0.78996 0.91425
 H930 H 0.58594 0.71047 0.91439
 H931 H 0.55404 0.71018 0.94628
 H932 H 0.55376 0.79019 0.94614
 H933 H 0.70505 0.75942 0.84966
 H934 H 0.73715 0.75951 0.81749
 H935 H 0.68241 0.74097 0.76286
 H936 H 0.65028 0.74109 0.79501
 C937 C 0.07932 0.27255 0.42069
 C938 C 0.08856 0.25022 0.41155
 C939 C 0.07944 0.22784 0.42068
 C940 C 0.06116 0.22777 0.43889
 C941 C 0.05175 0.25013 0.44822
 C942 C 0.06104 0.27253 0.43890
 C943 C 0.10740 0.25027 0.39283
 C944 C 0.12319 0.25032 0.37716
 C945 C 0.14168 0.25039 0.35882
 C946 C 0.15748 0.25046 0.34316
 C947 C 0.17635 0.25056 0.32447
 C948 C 0.19821 0.26383 0.32821
 C949 C 0.21654 0.26392 0.31007
 C950 C 0.21312 0.25074 0.28808
 C951 C 0.19124 0.23746 0.28437
 C952 C 0.17290 0.23737 0.30251
 H953 H 0.08625 0.28997 0.41376
 H954 H 0.08647 0.21045 0.41373
 H955 H 0.05442 0.21021 0.44565
 H956 H 0.05420 0.29005 0.44568
 H957 H 0.20106 0.27409 0.34513
 H958 H 0.23338 0.27422 0.31313
 H959 H 0.18842 0.22720 0.26745
 H960 H 0.15607 0.22704 0.29943
 C961 C 0.57887 0.27226 0.07862
 C962 C 0.58808 0.24994 0.08780
 C963 C 0.57896 0.22759 0.07864
 C964 C 0.56071 0.22752 0.06039
 C965 C 0.55125 0.24989 0.05095
 C966 C 0.56063 0.27229 0.06037
 C967 C 0.60687 0.24996 0.10661
 C968 C 0.62260 0.24997 0.12236
 C969 C 0.64100 0.24998 0.14082
 C970 C 0.65673 0.24998 0.15657
 C971 C 0.67551 0.25000 0.17538
 C972 C 0.69324 0.23116 0.17604
 C973 C 0.71148 0.23117 0.19428
 C974 C 0.71213 0.25000 0.21206
 C975 C 0.69432 0.26883 0.21135
 C976 C 0.67611 0.26883 0.19308
 H977 H 0.58580 0.28968 0.08558
 H978 H 0.58595 0.21019 0.08561
 H979 H 0.55407 0.20989 0.05371
 H980 H 0.55392 0.28990 0.05367
 H981 H 0.69297 0.21651 0.16245
 H982 H 0.72514 0.21657 0.19454
 H983 H 0.69452 0.28344 0.22500
 H984 H 0.66249 0.28348 0.19276
 C985 C 0.42123 0.27203 0.92108
 C986 C 0.41211 0.24967 0.91193
 C987 C 0.42133 0.22734 0.92111
 C988 C 0.43959 0.22734 0.93935
 C989 C 0.44888 0.24974 0.94868
 C990 C 0.43948 0.27210 0.93932
 C991 C 0.39331 0.24963 0.89313
 C992 C 0.37757 0.24961 0.87739
 C993 C 0.35914 0.24961 0.85896
 C994 C 0.34341 0.24961 0.84321
 C995 C 0.32462 0.24963 0.82441
 C996 C 0.30006 0.24447 0.83060
 C997 C 0.28183 0.24447 0.81235
 C998 C 0.28800 0.24968 0.78774
 C999 C 0.31262 0.25487 0.78161
 C1000 C 0.33085 0.25482 0.79987
 H1001 H 0.41423 0.28944 0.91412
 H1002 H 0.41442 0.20991 0.91417
 H1003 H 0.44641 0.20982 0.94614
 H1004 H 0.44622 0.28965 0.94609
 H1005 H 0.29503 0.24042 0.84951
 H1006 H 0.26292 0.24035 0.81735
 H1007 H 0.31765 0.25901 0.76272
 H1008 H 0.34978 0.25885 0.79486
 C1009 C 0.42107 0.77231 0.07876
 C1010 C 0.41197 0.74995 0.08794
 C1011 C 0.42122 0.72762 0.07879
 C1012 C 0.43949 0.72763 0.06056
 C1013 C 0.44876 0.75002 0.05121
 C1014 C 0.43934 0.77238 0.06053
 C1015 C 0.39315 0.74990 0.10672
 C1016 C 0.37740 0.74987 0.12245
 C1017 C 0.35896 0.74985 0.14088
 C1018 C 0.34322 0.74985 0.15661
 C1019 C 0.32443 0.74986 0.17541
 C1020 C 0.33067 0.74471 0.19996
 C1021 C 0.31243 0.74468 0.21821
 C1022 C 0.28779 0.74985 0.21207
 C1023 C 0.28163 0.75503 0.18745
 C1024 C 0.29987 0.75500 0.16920
 H1025 H 0.41404 0.78971 0.08570
 H1026 H 0.41432 0.71019 0.08575
 H1027 H 0.44634 0.71010 0.05379
 H1028 H 0.44606 0.78993 0.05374
 H1029 H 0.34960 0.74069 0.20498
 H1030 H 0.31745 0.74058 0.23711
 H1031 H 0.26271 0.75913 0.18244
 H1032 H 0.29483 0.75902 0.15028
 C1033 C 0.92111 0.57878 0.72755
 C1034 C 0.91190 0.58792 0.74986
 C1035 C 0.92104 0.57872 0.77218
 C1036 C 0.93930 0.56045 0.77224
 C1037 C 0.94877 0.55105 0.74987
 C1038 C 0.93938 0.56051 0.72750
 C1039 C 0.89309 0.60674 0.74985
 C1040 C 0.87735 0.62250 0.74985
 C1041 C 0.85891 0.64096 0.74986
 C1042 C 0.84317 0.65673 0.74988
 C1043 C 0.82438 0.67556 0.74993
 C1044 C 0.83061 0.70012 0.75508
 C1045 C 0.81237 0.71840 0.75513
 C1046 C 0.78774 0.71228 0.74998
 C1047 C 0.78157 0.68765 0.74481
 C1048 C 0.79981 0.66937 0.74480
 H1049 H 0.91417 0.58577 0.71015
 H1050 H 0.91404 0.58566 0.78957
 H1051 H 0.94596 0.55374 0.78985
 H1052 H 0.94609 0.55385 0.70990
 H1053 H 0.84954 0.70512 0.75908
 H1054 H 0.81740 0.73731 0.75923
 H1055 H 0.76266 0.68266 0.74072
 H1056 H 0.79478 0.65045 0.74078
 C1057 C 0.42109 0.07881 0.22765
 C1058 C 0.41192 0.08795 0.24998
 C1059 C 0.42108 0.07878 0.27229
 C1060 C 0.43934 0.06053 0.27234
 C1061 C 0.44877 0.05113 0.24997
 C1062 C 0.43936 0.06056 0.22760
 C1063 C 0.39312 0.10674 0.24998
 C1064 C 0.37736 0.12247 0.24997
 C1065 C 0.35892 0.14088 0.24994
 C1066 C 0.34317 0.15661 0.24990
 C1067 C 0.32437 0.17540 0.24983
 C1068 C 0.32580 0.19525 0.26633
 C1069 C 0.30756 0.21352 0.26623
 C1070 C 0.28778 0.21205 0.24962
 C1071 C 0.28634 0.19211 0.23318
 C1072 C 0.30459 0.17387 0.23326
 H1073 H 0.41413 0.08579 0.21026
 H1074 H 0.41409 0.08574 0.28969
 H1075 H 0.44602 0.05383 0.28995
 H1076 H 0.44605 0.05389 0.20999
 H1077 H 0.34100 0.19660 0.27924
 H1078 H 0.30884 0.22881 0.27904
 H1079 H 0.27105 0.19070 0.22039
 H1080 H 0.30328 0.15857 0.22045
 C1081 C 0.07869 0.57878 0.22755
 C1082 C 0.08787 0.58793 0.24986
 C1083 C 0.07871 0.57876 0.27218
 C1084 C 0.06045 0.56052 0.27223
 C1085 C 0.05101 0.55112 0.24987
 C1086 C 0.06043 0.56055 0.22750
 C1087 C 0.10669 0.60671 0.24985
 C1088 C 0.12245 0.62243 0.24986
 C1089 C 0.14091 0.64084 0.24987
 C1090 C 0.15666 0.65656 0.24989
 C1091 C 0.17546 0.67536 0.24992
 C1092 C 0.16924 0.69994 0.24479
 C1093 C 0.18748 0.71818 0.24477
 C1094 C 0.21211 0.71199 0.24994
 C1095 C 0.21826 0.68735 0.25510
 C1096 C 0.20002 0.66911 0.25506
 H1097 H 0.08566 0.58575 0.21015
 H1098 H 0.08568 0.58571 0.28958
 H1099 H 0.05377 0.55384 0.28984
 H1100 H 0.05374 0.55388 0.20989
 H1101 H 0.15031 0.70499 0.24077
 H1102 H 0.18246 0.73710 0.24068
 H1103 H 0.23717 0.68231 0.25920
 H1104 H 0.20504 0.65016 0.25907
 C1105 C 0.92111 0.42120 0.22752
 C1106 C 0.91196 0.41200 0.24985
 C1107 C 0.92115 0.42114 0.27218
 C1108 C 0.93939 0.43940 0.27221
 C1109 C 0.94871 0.44878 0.24986
 C1110 C 0.93935 0.43946 0.22750
 C1111 C 0.89317 0.39319 0.24984
 C1112 C 0.87744 0.37744 0.24982
 C1113 C 0.85902 0.35899 0.24982
 C1114 C 0.84329 0.34325 0.24983
 C1115 C 0.82449 0.32445 0.24986
 C1116 C 0.80676 0.32387 0.26866
 C1117 C 0.78850 0.30565 0.26868
 C1118 C 0.78784 0.28781 0.24990
 C1119 C 0.80566 0.28844 0.23111
 C1120 C 0.82388 0.30670 0.23108
 H1121 H 0.91415 0.41427 0.21012
 H1122 H 0.91421 0.41415 0.28958
 H1123 H 0.94618 0.44615 0.28974
 H1124 H 0.94612 0.44627 0.20998
 H1125 H 0.80704 0.33751 0.28327
 H1126 H 0.77483 0.30545 0.28325
 H1127 H 0.80543 0.27476 0.21655
 H1128 H 0.83751 0.30695 0.21645
 C1129 C 0.07883 0.42105 0.77220
 C1130 C 0.08802 0.41190 0.74987
 C1131 C 0.07886 0.42109 0.72754
 C1132 C 0.06059 0.43935 0.72752
 C1133 C 0.05121 0.44868 0.74988
 C1134 C 0.06055 0.43931 0.77223
 C1135 C 0.10685 0.39309 0.74986
 C1136 C 0.12260 0.37734 0.74985
 C1137 C 0.14106 0.35890 0.74984
 C1138 C 0.15681 0.34315 0.74985
 C1139 C 0.17563 0.32434 0.74988
 C1140 C 0.20019 0.33056 0.74478
 C1141 C 0.21845 0.31230 0.74476
 C1142 C 0.21230 0.28765 0.74989
 C1143 C 0.18767 0.28150 0.75502
 C1144 C 0.16941 0.29976 0.75499
 H1145 H 0.08578 0.41407 0.78960
 H1146 H 0.08584 0.41415 0.71014
 H1147 H 0.05381 0.44615 0.70999
 H1148 H 0.05375 0.44607 0.78976
 H1149 H 0.20521 0.34950 0.74079
 H1150 H 0.23736 0.31731 0.74069
 H1151 H 0.18265 0.26258 0.75909
 H1152 H 0.15048 0.29474 0.75897
 C1153 C 0.92081 0.72756 0.42081
 C1154 C 0.91162 0.74990 0.41164
 C1155 C 0.92074 0.77227 0.42077
 C1156 C 0.93899 0.77232 0.43900
 C1157 C 0.94836 0.74996 0.44836
 C1158 C 0.93906 0.72756 0.43905
 C1159 C 0.89282 0.74987 0.39289
 C1160 C 0.87707 0.74985 0.37719
 C1161 C 0.85862 0.74984 0.35882
 C1162 C 0.84286 0.74984 0.34314
 C1163 C 0.82403 0.74985 0.32442
 C1164 C 0.80039 0.74093 0.32983
 C1165 C 0.78210 0.74094 0.31166
 C1166 C 0.78732 0.74995 0.28797
 C1167 C 0.81102 0.75883 0.28257
 C1168 C 0.82931 0.75878 0.30075
 H1169 H 0.91388 0.71014 0.41387
 H1170 H 0.91374 0.78967 0.41380
 H1171 H 0.94574 0.78987 0.44577
 H1172 H 0.94587 0.71003 0.44584
 H1173 H 0.79612 0.73394 0.34807
 H1174 H 0.76391 0.73388 0.31598
 H1175 H 0.81526 0.76579 0.26433
 H1176 H 0.84754 0.76570 0.29635
 C1177 C 0.92114 0.22754 0.57906
 C1178 C 0.91196 0.24988 0.58825
 C1179 C 0.92106 0.27224 0.57908
 C1180 C 0.93927 0.27230 0.56081
 C1181 C 0.94863 0.24993 0.55144
 C1182 C 0.93935 0.22754 0.56078
 C1183 C 0.89322 0.24985 0.60707
 C1184 C 0.87753 0.24984 0.62284
 C1185 C 0.85915 0.24984 0.64129
 C1186 C 0.84345 0.24984 0.65705
 C1187 C 0.82470 0.24982 0.67586
 C1188 C 0.80476 0.26623 0.67431
 C1189 C 0.78653 0.26618 0.69255
 C1190 C 0.78811 0.24970 0.71245
 C1191 C 0.80813 0.23335 0.71401
 C1192 C 0.82635 0.23339 0.69575
 H1193 H 0.91422 0.21011 0.58602
 H1194 H 0.91409 0.28964 0.58607
 H1195 H 0.94601 0.28985 0.55402
 H1196 H 0.94614 0.21001 0.55397
 H1197 H 0.80332 0.27903 0.65902
 H1198 H 0.77116 0.27891 0.69118
 H1199 H 0.80964 0.22066 0.72938
 H1200 H 0.84171 0.22064 0.69715
 C1201 C 0.07894 0.77244 0.57915
 C1202 C 0.08809 0.75009 0.58835
 C1203 C 0.07896 0.72773 0.57921
 C1204 C 0.06075 0.72769 0.56095
 C1205 C 0.05142 0.75007 0.55157
 C1206 C 0.06073 0.77246 0.56088
 C1207 C 0.10684 0.75010 0.60716
 C1208 C 0.12254 0.75010 0.62290
 C1209 C 0.14094 0.75008 0.64133
 C1210 C 0.15666 0.75006 0.65705
 C1211 C 0.17543 0.75003 0.67582
 C1212 C 0.17599 0.76879 0.69359
 C1213 C 0.19421 0.76875 0.71183
 C1214 C 0.21206 0.74996 0.71241
 C1215 C 0.21145 0.73121 0.69456
 C1216 C 0.19320 0.73124 0.67636
 H1217 H 0.08588 0.78986 0.58610
 H1218 H 0.08592 0.71033 0.58621
 H1219 H 0.05399 0.71015 0.55418
 H1220 H 0.05395 0.78999 0.55407
 H1221 H 0.16233 0.78341 0.69336
 H1222 H 0.19441 0.78330 0.72554
 H1223 H 0.22516 0.71664 0.69474
 H1224 H 0.19295 0.71664 0.66269
 C1225 C 0.77240 0.57934 0.07900
 C1226 C 0.75008 0.58858 0.08816
 C1227 C 0.72772 0.57944 0.07904
 C1228 C 0.72766 0.56115 0.06085
 C1229 C 0.75001 0.55174 0.05151
 C1230 C 0.77240 0.56105 0.06080
 C1231 C 0.75011 0.60742 0.10688
 C1232 C 0.75015 0.62321 0.12255
 C1233 C 0.75020 0.64171 0.14089
 C1234 C 0.75026 0.65750 0.15655
 C1235 C 0.75034 0.67636 0.17525
 C1236 C 0.73728 0.67282 0.19727
 C1237 C 0.73734 0.69114 0.21543
 C1238 C 0.75049 0.71310 0.21168
 C1239 C 0.76355 0.71662 0.18963
 C1240 C 0.76348 0.69831 0.17147
 H1241 H 0.78982 0.58629 0.08593
 H1242 H 0.71033 0.58646 0.08600
 H1243 H 0.71011 0.55439 0.05409
 H1244 H 0.78991 0.55422 0.05402
 H1245 H 0.72705 0.65593 0.20038
 H1246 H 0.72719 0.68825 0.23240
 H1247 H 0.77375 0.73353 0.18654
 H1248 H 0.77364 0.70124 0.15451
 C1249 C 0.27238 0.57857 0.92112
 C1250 C 0.25004 0.58774 0.91195
 C1251 C 0.22770 0.57858 0.92111
 C1252 C 0.22767 0.56033 0.93936
 C1253 C 0.25004 0.55098 0.94871
 C1254 C 0.27241 0.56031 0.93937
 C1255 C 0.25003 0.60654 0.89316
 C1256 C 0.25001 0.62228 0.87743
 C1257 C 0.24999 0.64073 0.85903
 C1258 C 0.24998 0.65649 0.84331
 C1259 C 0.24998 0.67531 0.82456
 C1260 C 0.23123 0.69312 0.82405
 C1261 C 0.23123 0.71141 0.80584
 C1262 C 0.24996 0.71200 0.78797
 C1263 C 0.26871 0.69411 0.78854
 C1264 C 0.26873 0.67585 0.80677
 H1265 H 0.28978 0.58552 0.91416
 H1266 H 0.21029 0.58555 0.91415
 H1267 H 0.21014 0.55355 0.94614
 H1268 H 0.28994 0.55352 0.94616
 H1269 H 0.21665 0.69288 0.83772
 H1270 H 0.21669 0.72514 0.80568
 H1271 H 0.28324 0.69429 0.77482
 H1272 H 0.28331 0.66216 0.80698
 C1273 C 0.77210 0.42096 0.92070
 C1274 C 0.74975 0.41185 0.91156
 C1275 C 0.72742 0.42102 0.92077
 C1276 C 0.72743 0.43923 0.93905
 C1277 C 0.74981 0.44852 0.94836
 C1278 C 0.77216 0.43917 0.93898
 C1279 C 0.74971 0.39311 0.89273
 C1280 C 0.74968 0.37743 0.87695
 C1281 C 0.74965 0.35908 0.85846
 C1282 C 0.74963 0.34342 0.84267
 C1283 C 0.74961 0.32473 0.82380
 C1284 C 0.76233 0.30250 0.82753
 C1285 C 0.76229 0.28434 0.80921
 C1286 C 0.74953 0.28830 0.78706
 C1287 C 0.73682 0.31055 0.78335
 C1288 C 0.73686 0.32871 0.80167
 H1289 H 0.78949 0.41398 0.91370
 H1290 H 0.71001 0.41410 0.91382
 H1291 H 0.70991 0.44603 0.94586
 H1292 H 0.78971 0.44592 0.94574
 H1293 H 0.77225 0.29923 0.84457
 H1294 H 0.77216 0.26721 0.81224
 H1295 H 0.72690 0.31379 0.76631
 H1296 H 0.72696 0.34583 0.79860
 C1297 C 0.57860 0.92111 0.22760
 C1298 C 0.58775 0.91193 0.24993
 C1299 C 0.57860 0.92110 0.27227
 C1300 C 0.56037 0.93939 0.27230
 C1301 C 0.55104 0.94875 0.24994
 C1302 C 0.56037 0.93940 0.22758
 C1303 C 0.60652 0.89311 0.24993
 C1304 C 0.62224 0.87734 0.24994
 C1305 C 0.64064 0.85889 0.24997
 C1306 C 0.65637 0.84313 0.25001
 C1307 C 0.67515 0.82433 0.25007
 C1308 C 0.67358 0.80449 0.26657
 C1309 C 0.69182 0.78623 0.26664
 C1310 C 0.71179 0.78773 0.25024
 C1311 C 0.71329 0.80758 0.23370
 C1312 C 0.69503 0.82582 0.23362
 H1313 H 0.58556 0.91414 0.21020
 H1314 H 0.58556 0.91412 0.28967
 H1315 H 0.55359 0.94618 0.28983
 H1316 H 0.55359 0.94620 0.21005
 H1317 H 0.65826 0.80313 0.27934
 H1318 H 0.69037 0.77089 0.27938
 H1319 H 0.72861 0.80891 0.22093
 H1320 H 0.69641 0.84108 0.22076
 C1321 C 0.57878 0.07952 0.77246
 C1322 C 0.58800 0.08865 0.75014
 C1323 C 0.57886 0.07952 0.72779
 C1324 C 0.56058 0.06132 0.72774
 C1325 C 0.55119 0.05201 0.75009
 C1326 C 0.56050 0.06132 0.77246
 C1327 C 0.60684 0.10736 0.75017
 C1328 C 0.62263 0.12302 0.75019
 C1329 C 0.64113 0.14134 0.75022
 C1330 C 0.65694 0.15698 0.75024
 C1331 C 0.67581 0.17565 0.75026
 C1332 C 0.69950 0.17010 0.75900
 C1333 C 0.71783 0.18824 0.75901
 C1334 C 0.71260 0.21202 0.75021
 C1335 C 0.68885 0.21755 0.74151
 C1336 C 0.67052 0.19942 0.74153
 H1337 H 0.58573 0.08645 0.78987
 H1338 H 0.58587 0.08647 0.71041
 H1339 H 0.55382 0.05456 0.71020
 H1340 H 0.55368 0.05455 0.78998
 H1341 H 0.70377 0.15179 0.76583
 H1342 H 0.73605 0.18381 0.76593
 H1343 H 0.68460 0.23587 0.73471
 H1344 H 0.65226 0.20392 0.73475
 C1345 C 0.42063 0.92116 0.72761
 C1346 C 0.41149 0.91197 0.74994
 C1347 C 0.42061 0.92113 0.77228
 C1348 C 0.43881 0.93942 0.77232
 C1349 C 0.44813 0.94879 0.74997
 C1350 C 0.43883 0.93944 0.72760
 C1351 C 0.39277 0.89313 0.74994
 C1352 C 0.37709 0.87736 0.74995
 C1353 C 0.35874 0.85890 0.74997
 C1354 C 0.34305 0.84314 0.75000
 C1355 C 0.32432 0.82433 0.75005
 C1356 C 0.30660 0.82376 0.76886
 C1357 C 0.28837 0.80552 0.76889
 C1358 C 0.28776 0.78768 0.75013
 C1359 C 0.30556 0.78830 0.73133
 C1360 C 0.32376 0.80657 0.73129
 H1361 H 0.41370 0.91419 0.71021
 H1362 H 0.41366 0.91414 0.78968
 H1363 H 0.44556 0.94621 0.78985
 H1364 H 0.44560 0.94625 0.71008
 H1365 H 0.30686 0.83741 0.78346
 H1366 H 0.27470 0.80531 0.78346
 H1367 H 0.30535 0.77460 0.71678
 H1368 H 0.33738 0.80684 0.71666
   
