data_POSCAR
  _audit_creation_date              2014-09-24
  _audit_creation_method            'ToBaCCo'
  _symmetry_space_group_name_H-M    'P1'
  _symmetry_Int_Tables_number       1
  _symmetry_cell_setting            triclinic
  loop_
  _symmetry_equiv_pos_as_xyz
 x,y,z
_cell_length_a 56.9200
_cell_length_b 56.8027
_cell_length_c 40.1772
_cell_angle_alpha 89.794200
_cell_angle_beta 90.442700
_cell_angle_gamma 90.120400
loop_
  _atom_site_label
  _atom_site_type_symbol
  _atom_site_fract_x
  _atom_site_fract_y
  _atom_site_fract_z
Zr1 Zr -0.04293 0.00391 0.00036
 O2 O -0.07124 -0.01452 -0.02214
 O3 O -0.06055 0.02650 0.03299
 O4 O -0.06108 -0.01758 0.03485
 O5 O -0.03614 0.04423 -0.06376
 O6 O -0.03190 -0.03867 0.06028
 O7 O -0.06332 0.02568 -0.03124
 O8 O -0.03073 0.04627 0.05904
 O9 O -0.02104 0.00365 0.04253
 O10 O -0.02207 0.03422 -0.00274
 O11 O -0.02371 -0.02759 -0.00261
 O12 O -0.02548 0.00194 -0.04584
 Zr13 Zr 0.03872 0.00073 -0.00893
 Zr14 Zr -0.00064 -0.02681 0.03826
 Zr15 Zr -0.00337 0.03159 -0.04701
 Zr16 Zr 0.00049 0.03328 0.03808
 O17 O -0.00575 0.02789 -0.09931
 O18 O 0.00308 0.02780 0.09021
 O19 O 0.01990 0.03261 -0.00623
 O20 O 0.02115 0.00289 0.03680
 O21 O 0.01821 -0.02978 -0.00600
 O22 O 0.01671 0.00110 -0.05081
 C23 C -0.05261 0.04177 0.05381
 C24 C -0.05738 0.04014 -0.05451
 C25 C -0.05363 -0.03336 0.05552
 O26 O 0.00297 -0.02322 0.09044
 O27 O 0.03189 -0.04098 0.05342
 O28 O 0.05865 -0.02374 0.01895
 C29 C 0.05288 -0.03805 0.04245
 O30 O -0.03732 -0.04035 -0.06636
 Zr31 Zr -0.00458 -0.02851 -0.04682
 O32 O 0.05643 -0.02156 -0.04176
 O33 O -0.00258 -0.06394 0.03503
 O34 O -0.00657 -0.06531 -0.03814
 O35 O -0.00475 -0.02469 -0.09935
 O36 O 0.02679 -0.04380 -0.06392
 C37 C 0.04863 -0.03856 -0.05980
 O38 O 0.06723 0.01726 0.01594
 O39 O -0.00270 0.06877 -0.04396
 O40 O 0.05707 0.02438 -0.03989
 O41 O 0.02820 0.04481 -0.06715
 O42 O 0.00013 0.07030 0.03106
 O43 O 0.03306 0.04818 0.05353
 C44 C 0.04991 0.04014 -0.06073
 H45 H -0.03129 0.04898 -0.00263
 H46 H 0.03241 0.00306 0.05570
 H47 H 0.02546 0.00101 -0.07201
 H48 H -0.03422 -0.04148 -0.00191
 H49 H -0.00025 0.04304 0.10112
 H50 H 0.00251 -0.03933 0.09998
 H51 H -0.00107 -0.07014 0.05804
 H52 H -0.00372 -0.07328 -0.05964
 H53 H -0.00232 0.07762 0.05312
 H54 H -0.00441 0.07485 -0.06700
 H55 H -0.00517 0.04399 -0.10883
 H56 H -0.00168 -0.04043 -0.10893
 H57 H 0.03047 0.05863 0.07283
 H58 H 0.08190 0.01108 0.00608
 H59 H -0.08598 -0.00816 -0.01273
 H60 H -0.03465 -0.05355 -0.08190
 Zr61 Zr 0.53873 0.50075 0.49114
 O62 O 0.56719 0.51736 0.51598
 O63 O 0.55648 0.47836 0.45850
 O64 O 0.55861 0.47637 0.51924
 O65 O 0.52831 0.54466 0.43261
 O66 O 0.53180 0.45925 0.55375
 O67 O 0.55713 0.52428 0.46007
 O68 O 0.52688 0.45606 0.43638
 O69 O 0.51821 0.47024 0.49420
 O70 O 0.51678 0.50099 0.44918
 O71 O 0.52108 0.50307 0.53679
 O72 O 0.51990 0.53265 0.49356
 Zr73 Zr 0.45707 0.50397 0.50014
 Zr74 Zr 0.49929 0.47337 0.53838
 Zr75 Zr 0.49670 0.53149 0.45270
 Zr76 Zr 0.49548 0.47139 0.45330
 O77 O 0.49734 0.56868 0.45552
 O78 O 0.49350 0.43461 0.46222
 O79 O 0.47459 0.50185 0.45401
 O80 O 0.47629 0.47246 0.49744
 O81 O 0.47888 0.50385 0.54238
 O82 O 0.47792 0.53427 0.49689
 C83 C 0.54871 0.46132 0.44052
 C84 C 0.55001 0.53998 0.43912
 C85 C 0.55281 0.46214 0.54282
 O86 O 0.49736 0.43623 0.53540
 O87 O 0.46800 0.46160 0.56039
 O88 O 0.43886 0.48259 0.53471
 C89 C 0.44628 0.46689 0.55552
 O90 O 0.53296 0.54843 0.55323
 Zr91 Zr 0.50042 0.53346 0.53779
 O92 O 0.43938 0.52666 0.53256
 O93 O 0.50282 0.47715 0.59055
 O94 O 0.50294 0.52818 0.58996
 O95 O 0.50006 0.57046 0.53051
 O96 O 0.46917 0.54652 0.55857
 C97 C 0.44729 0.54200 0.55331
 O98 O 0.42879 0.48545 0.47768
 O99 O 0.49443 0.52763 0.40042
 O100 O 0.43673 0.52560 0.46829
 O101 O 0.46395 0.54404 0.43573
 O102 O 0.49538 0.47503 0.40075
 O103 O 0.46277 0.45948 0.43375
 C104 C 0.44269 0.53996 0.44492
 H105 H 0.52556 0.50082 0.42801
 H106 H 0.46577 0.45856 0.49821
 H107 H 0.46869 0.54902 0.49687
 H108 H 0.53231 0.50331 0.55572
 H109 H 0.49638 0.42657 0.44079
 H110 H 0.49882 0.43011 0.55845
 H111 H 0.50235 0.46107 0.60019
 H112 H 0.49959 0.54345 0.60075
 H113 H 0.49845 0.45926 0.39128
 H114 H 0.49503 0.54370 0.39080
 H115 H 0.49567 0.57468 0.43243
 H116 H 0.49757 0.57786 0.55250
 H117 H 0.46546 0.44622 0.41833
 H118 H 0.41403 0.49184 0.48701
 H119 H 0.58188 0.51115 0.50622
 H120 H 0.53034 0.55895 0.57244
 Zr121 Zr 0.54190 -0.00181 0.49063
 O122 O 0.56768 0.01538 0.46150
 O123 O 0.56277 -0.02303 0.52182
 O124 O 0.56270 0.02172 0.51888
 O125 O 0.52992 -0.04585 0.43352
 O126 O 0.53595 0.04247 0.54899
 O127 O 0.55954 -0.02515 0.45860
 O128 O 0.53624 -0.03965 0.55725
 O129 O 0.52415 0.00094 0.53596
 O130 O 0.52148 -0.03226 0.49522
 O131 O 0.52216 0.02937 0.48709
 O132 O 0.52033 -0.00266 0.44765
 Zr133 Zr 0.45983 0.00052 0.49454
 Zr134 Zr 0.50298 0.03092 0.53133
 Zr135 Zr 0.49883 -0.03236 0.45428
 Zr136 Zr 0.50290 -0.02887 0.53921
 O137 O 0.49556 -0.03192 0.40180
 O138 O 0.50457 -0.01999 0.59039
 O139 O 0.47945 -0.03094 0.49849
 O140 O 0.48164 0.00116 0.53718
 O141 O 0.48013 0.03115 0.49030
 O142 O 0.47803 -0.00227 0.44972
 C143 C 0.55730 -0.03622 0.54667
 C144 C 0.55179 -0.04104 0.43849
 C145 C 0.55709 0.03738 0.54051
 O146 O 0.50234 0.03082 0.58399
 O147 O 0.47180 0.04699 0.54763
 O148 O 0.44213 0.02543 0.52417
 C149 C 0.44991 0.04229 0.54265
 O150 O 0.52964 0.03790 0.42002
 Zr151 Zr 0.49907 0.02758 0.44642
 O152 O 0.43902 0.02178 0.46314
 O153 O 0.50590 0.06761 0.52305
 O154 O 0.50186 0.06474 0.44985
 O155 O 0.49391 0.02085 0.39498
 O156 O 0.46628 0.04229 0.43336
 C157 C 0.44503 0.03775 0.44204
 O158 O 0.43425 -0.01587 0.52488
 O159 O 0.49960 -0.06924 0.46195
 O160 O 0.43895 -0.02380 0.46756
 O161 O 0.46605 -0.04757 0.44304
 O162 O 0.50366 -0.06616 0.53704
 O163 O 0.47240 -0.04327 0.56179
 C164 C 0.44480 -0.04169 0.44981
 H165 H 0.53086 -0.04690 0.49565
 H166 H 0.47219 0.00212 0.55772
 H167 H 0.46740 -0.00337 0.43017
 H168 H 0.53254 0.04325 0.48453
 H169 H 0.50927 -0.03436 0.60281
 H170 H 0.50392 0.04743 0.59116
 H171 H 0.50605 0.07517 0.54524
 H172 H 0.49703 0.07143 0.42803
 H173 H 0.50858 -0.07200 0.55930
 H174 H 0.49897 -0.07667 0.43967
 H175 H 0.49432 -0.04856 0.39467
 H176 H 0.48995 0.03605 0.38416
 H177 H 0.47705 -0.05265 0.58158
 H178 H 0.41865 -0.01019 0.51719
 H179 H 0.58328 0.00962 0.46914
 H180 H 0.52545 0.05002 0.40323
 Zr181 Zr -0.04018 0.50046 -0.00927
 O182 O -0.06590 0.48392 0.02066
 O183 O -0.06086 0.52175 -0.04080
 O184 O -0.05806 0.52526 0.02038
 O185 O -0.03363 0.45264 -0.06103
 O186 O -0.02850 0.54676 0.04424
 O187 O -0.06090 0.47626 -0.03677
 O188 O -0.03352 0.54246 -0.07001
 O189 O -0.01991 0.53114 -0.01309
 O190 O -0.02175 0.49785 -0.05391
 O191 O -0.01857 0.50100 0.03358
 O192 O -0.02055 0.46901 -0.00531
 Zr193 Zr 0.04192 0.49825 -0.01242
 Zr194 Zr 0.00278 0.53079 0.02814
 Zr195 Zr -0.00093 0.46780 -0.04931
 Zr196 Zr -0.00076 0.52775 -0.05680
 O197 O -0.00022 0.43088 -0.04189
 O198 O 0.00198 0.56490 -0.05306
 O199 O 0.02055 0.49753 -0.05558
 O200 O 0.02216 0.52942 -0.01593
 O201 O 0.02396 0.50083 0.03277
 O202 O 0.02152 0.46776 -0.00819
 C203 C -0.05489 0.53789 -0.06172
 C204 C -0.05500 0.45842 -0.05469
 C205 C -0.05036 0.54206 0.03905
 O206 O 0.00568 0.56752 0.02015
 O207 O 0.03566 0.54236 0.04615
 O208 O 0.06255 0.52171 0.01616
 C209 C 0.05684 0.53732 0.03782
 O210 O -0.02785 0.45649 0.05789
 Zr211 Zr 0.00272 0.47099 0.03564
 O212 O 0.06267 0.47693 0.01880
 O213 O 0.00190 0.53051 0.08079
 O214 O 0.00415 0.47970 0.08689
 O215 O 0.00352 0.43370 0.03320
 O216 O 0.03600 0.46018 0.05390
 C217 C 0.05710 0.46365 0.04352
 O218 O 0.06784 0.51556 -0.04114
 O219 O -0.00388 0.46838 -0.10183
 O220 O 0.05971 0.47507 -0.04452
 O221 O 0.03026 0.45434 -0.06978
 O222 O -0.00569 0.52123 -0.10833
 O223 O 0.02991 0.53820 -0.08288
 C224 C 0.05217 0.45909 -0.06471
 H225 H -0.03227 0.49682 -0.07359
 H226 H 0.03253 0.54332 -0.01831
 H227 H 0.03092 0.45313 -0.00777
 H228 H -0.02811 0.50188 0.05403
 H229 H -0.00279 0.57166 -0.07485
 H230 H 0.00570 0.57500 0.04239
 H231 H 0.00342 0.54709 0.08808
 H232 H 0.00882 0.46531 0.09926
 H233 H -0.00964 0.53647 -0.11906
 H234 H -0.00510 0.45176 -0.10907
 H235 H -0.00073 0.42353 -0.06422
 H236 H 0.00837 0.42779 0.05545
 H237 H 0.02578 0.55040 -0.09958
 H238 H 0.08340 0.50976 -0.03341
 H239 H -0.08147 0.48960 0.01282
 H240 H -0.02327 0.44702 0.07763
 Zr241 Zr 0.04031 0.50422 0.50225
 O242 O 0.06785 0.48692 0.52821
 O243 O 0.05881 0.52479 0.46800
 O244 O 0.05840 0.48082 0.47076
 O245 O 0.03404 0.54784 0.56133
 O246 O 0.02916 0.45809 0.44851
 O247 O 0.06082 0.52829 0.52970
 O248 O 0.02995 0.54182 0.43640
 O249 O 0.01897 0.50105 0.45985
 O250 O 0.02011 0.53487 0.50003
 O251 O 0.02061 0.47336 0.50981
 O252 O 0.02250 0.50583 0.54814
 Zr253 Zr -0.04150 0.50298 0.51007
 Zr254 Zr -0.00205 0.47140 0.46867
 Zr255 Zr 0.00105 0.53570 0.54403
 Zr256 Zr -0.00190 0.53117 0.45892
 O257 O 0.00141 0.53608 0.59670
 O258 O -0.00418 0.52167 0.40801
 O259 O -0.02178 0.53410 0.50272
 O260 O -0.02325 0.50138 0.46473
 O261 O -0.02151 0.47211 0.51255
 O262 O -0.01981 0.50603 0.55212
 C263 C 0.05165 0.53815 0.44416
 C264 C 0.05518 0.54346 0.55195
 C265 C 0.05089 0.46384 0.45230
 O266 O -0.00628 0.47083 0.41632
 O267 O -0.03456 0.45559 0.45735
 O268 O -0.06195 0.47803 0.48363
 C269 C -0.05586 0.46070 0.46497
 O270 O 0.03316 0.46527 0.57576
 Zr271 Zr 0.00092 0.47598 0.55340
 O272 O -0.06001 0.48238 0.54464
 O273 O 0.00030 0.43473 0.47765
 O274 O 0.00255 0.43874 0.55053
 O275 O 0.00035 0.48371 0.60500
 O276 O -0.03090 0.46222 0.57170
 C277 C -0.05264 0.46683 0.56558
 O278 O -0.06911 0.51932 0.48303
 O279 O 0.00250 0.57247 0.53549
 O280 O -0.05963 0.52799 0.53897
 O281 O -0.03038 0.55160 0.55931
 O282 O -0.00075 0.56848 0.45992
 O283 O -0.03396 0.54535 0.44031
 C284 C -0.05214 0.54594 0.55551
 H285 H 0.02959 0.54942 0.49801
 H286 H -0.03426 0.50022 0.44561
 H287 H -0.02882 0.50753 0.57298
 H288 H 0.03097 0.45942 0.51138
 H289 H -0.00039 0.53589 0.39470
 H290 H -0.00577 0.45408 0.40956
 H291 H -0.00143 0.42682 0.45581
 H292 H -0.00073 0.43239 0.57303
 H293 H 0.00223 0.57401 0.43690
 H294 H 0.00388 0.58005 0.55760
 H295 H 0.00137 0.55283 0.60347
 H296 H -0.00319 0.46883 0.61691
 H297 H -0.03088 0.55431 0.41960
 H298 H -0.08411 0.51400 0.49305
 H299 H 0.08284 0.49233 0.51830
 H300 H 0.03001 0.45342 0.59331
 Zr301 Zr 0.45856 0.00290 0.01003
 O302 O 0.43097 0.01923 -0.01707
 O303 O 0.44002 -0.01776 0.04449
 O304 O 0.43818 -0.02204 -0.01652
 O305 O 0.46956 0.05149 0.05939
 O306 O 0.46563 -0.04442 -0.04278
 O307 O 0.44035 0.02788 0.03891
 O308 O 0.46911 -0.03793 0.07160
 O309 O 0.47858 -0.02795 0.01253
 O310 O 0.48018 0.00594 0.05216
 O311 O 0.47689 0.00135 -0.03525
 O312 O 0.47826 0.03404 0.00280
 Zr313 Zr 0.54037 0.00423 0.00248
 Zr314 Zr 0.49811 -0.02862 -0.03130
 Zr315 Zr 0.50103 0.03564 0.04419
 Zr316 Zr 0.50094 -0.02409 0.05346
 O317 O 0.50243 0.07241 0.03573
 O318 O 0.50264 -0.06132 0.05055
 O319 O 0.52250 0.00579 0.04831
 O320 O 0.52070 -0.02666 0.00993
 O321 O 0.51912 0.00107 -0.04000
 O322 O 0.52015 0.03486 0.00025
 C323 C 0.44737 -0.03334 0.06541
 C324 C 0.44780 0.04582 0.05551
 C325 C 0.44432 -0.03935 -0.03520
 O326 O 0.50045 -0.06529 -0.02236
 O327 O 0.52939 -0.04191 -0.05132
 O328 O 0.55854 -0.01913 -0.02896
 C329 C 0.55110 -0.03613 -0.04743
 O330 O 0.46617 0.04531 -0.05966
 Zr331 Zr 0.49821 0.03117 -0.04095
 O332 O 0.55891 0.02486 -0.03166
 O333 O 0.49400 -0.02914 -0.08367
 O334 O 0.49606 0.02170 -0.09188
 O335 O 0.49929 0.06848 -0.03989
 O336 O 0.53009 0.04191 -0.06331
 C337 C 0.55179 0.03827 -0.05546
 O338 O 0.56789 -0.01306 0.02851
 O339 O 0.50130 0.03596 0.09685
 O340 O 0.56082 0.02829 0.03001
 O341 O 0.53397 0.04781 0.06158
 O342 O 0.50025 -0.01640 0.10506
 O343 O 0.53316 -0.03476 0.07591
 C344 C 0.55513 0.04346 0.05225
 H345 H 0.47112 0.00741 0.07299
 H346 H 0.53108 -0.04059 0.01152
 H347 H 0.52961 0.04943 -0.00172
 H348 H 0.46591 0.00020 -0.05441
 H349 H 0.49933 -0.06770 0.07303
 H350 H 0.49877 -0.07318 -0.04422
 H351 H 0.49454 -0.04588 -0.09045
 H352 H 0.49985 0.03593 -0.10515
 H353 H 0.49671 -0.03130 0.11694
 H354 H 0.50124 0.05271 0.10367
 H355 H 0.50377 0.07998 0.05785
 H356 H 0.50230 0.07403 -0.06289
 H357 H 0.53000 -0.04662 0.09345
 H358 H 0.58289 -0.00762 0.01866
 H359 H 0.41597 0.01389 -0.00711
 H360 H 0.46926 0.05428 -0.08036
 Zr361 Zr 0.45937 0.49725 0.00162
 O362 O 0.43374 0.51608 0.02861
 O363 O 0.43836 0.47525 -0.02837
 O364 O 0.43883 0.51917 -0.02967
 O365 O 0.47072 0.45628 0.06367
 O366 O 0.46610 0.54041 -0.05842
 O367 O 0.44138 0.47563 0.03578
 O368 O 0.46525 0.45519 -0.05908
 O369 O 0.47740 0.49780 -0.04360
 O370 O 0.47957 0.46654 0.00073
 O371 O 0.47950 0.52834 0.00266
 O372 O 0.48085 0.49831 0.04481
 Zr373 Zr 0.54146 0.49875 -0.00208
 Zr374 Zr 0.49875 0.52785 -0.04151
 Zr375 Zr 0.50210 0.46827 0.04178
 Zr376 Zr 0.49838 0.46771 -0.04334
 O377 O 0.50449 0.47113 0.09419
 O378 O 0.49600 0.47396 -0.09532
 O379 O 0.52160 0.46732 -0.00240
 O380 O 0.51973 0.49772 -0.04462
 O381 O 0.52160 0.52970 -0.00061
 O382 O 0.52329 0.49823 0.04301
 C383 C 0.44408 0.45992 -0.05034
 C384 C 0.44892 0.46099 0.05795
 C385 C 0.44482 0.53517 -0.05080
 O386 O 0.49838 0.52516 -0.09401
 O387 O 0.53001 0.54269 -0.05961
 O388 O 0.55949 0.52220 -0.03390
 C389 C 0.55183 0.53825 -0.05394
 O390 O 0.47231 0.54123 0.06799
 Zr391 Zr 0.50259 0.52826 0.04348
 O392 O 0.56241 0.52151 0.02651
 O393 O 0.49721 0.56494 -0.03705
 O394 O 0.50175 0.56519 0.03560
 O395 O 0.50600 0.52319 0.09562
 O396 O 0.53580 0.54176 0.05756
 C397 C 0.55684 0.53723 0.04799
 O398 O 0.56697 0.48118 -0.03091
 O399 O 0.50159 0.43115 0.03758
 O400 O 0.56188 0.47496 0.02645
 O401 O 0.53482 0.45450 0.05685
 O402 O 0.49812 0.43060 -0.03730
 O403 O 0.52895 0.45269 -0.06460
 C404 C 0.55602 0.45917 0.04800
 H405 H 0.47007 0.45195 0.00186
 H406 H 0.52913 0.49772 -0.06525
 H407 H 0.53385 0.49794 0.06270
 H408 H 0.46933 0.54242 0.00394
 H409 H 0.49141 0.45892 -0.10600
 H410 H 0.49738 0.54143 -0.10284
 H411 H 0.49709 0.57151 -0.05994
 H412 H 0.50684 0.57280 0.05661
 H413 H 0.49354 0.42360 -0.05897
 H414 H 0.50167 0.42476 0.06057
 H415 H 0.50543 0.45487 0.10313
 H416 H 0.51052 0.53853 0.10549
 H417 H 0.52436 0.44268 -0.08371
 H418 H 0.58262 0.48696 -0.02356
 H419 H 0.41810 0.51011 0.02148
 H420 H 0.47690 0.55433 0.08291
 Zr421 Zr 0.04145 -0.00098 0.49809
 O422 O 0.06704 -0.01850 0.46935
 O423 O 0.06230 0.02192 0.52661
 O424 O 0.05938 0.02247 0.46615
 O425 O 0.03497 -0.04515 0.55719
 O426 O 0.02982 0.04276 0.44033
 O427 O 0.06195 -0.02466 0.52670
 O428 O 0.03560 0.04212 0.55755
 O429 O 0.02146 0.02988 0.49942
 O430 O 0.02328 -0.00148 0.54318
 O431 O 0.01973 -0.00220 0.45556
 O432 O 0.02172 -0.03249 0.49791
 Zr433 Zr -0.04065 -0.00282 0.50176
 Zr434 Zr -0.00138 0.02784 0.45853
 Zr435 Zr 0.00220 -0.03153 0.54207
 Zr436 Zr 0.00245 0.02846 0.54351
 O437 O 0.00182 -0.06866 0.53805
 O438 O 0.00147 0.06537 0.53547
 O439 O -0.01918 -0.00157 0.54496
 O440 O -0.02063 0.02836 0.50268
 O441 O -0.02261 -0.00229 0.45655
 O442 O -0.02031 -0.03345 0.50102
 C443 C 0.05667 0.03765 0.54802
 C444 C 0.05615 -0.04043 0.54831
 C445 C 0.05166 0.03842 0.44601
 O446 O -0.00305 0.06494 0.46283
 O447 O -0.03406 0.04026 0.44157
 O448 O -0.06127 0.01899 0.47040
 C449 C -0.05533 0.03498 0.44923
 O450 O 0.02913 -0.04723 0.43578
 Zr451 Zr -0.00150 -0.03230 0.45696
 O452 O -0.06156 -0.02498 0.47187
 O453 O -0.00175 0.02503 0.40604
 O454 O -0.00390 -0.02617 0.40495
 O455 O -0.00160 -0.06939 0.46318
 O456 O -0.03457 -0.04499 0.44125
 C457 C -0.05576 -0.04034 0.44996
 O458 O -0.06637 0.01595 0.52866
 O459 O 0.00457 -0.02854 0.59447
 O460 O -0.05855 -0.02442 0.53603
 O461 O -0.02914 -0.04359 0.56401
 O462 O 0.00586 0.02351 0.59567
 O463 O -0.02788 0.04137 0.56795
 C464 C -0.05095 -0.03898 0.55828
 H465 H 0.03383 -0.00169 0.56288
 H466 H -0.03086 0.04239 0.50391
 H467 H -0.02976 -0.04807 0.50222
 H468 H 0.02913 -0.00221 0.43492
 H469 H 0.00653 0.07305 0.55644
 H470 H -0.00320 0.07146 0.43991
 H471 H -0.00282 0.04129 0.39713
 H472 H -0.00841 -0.04125 0.39433
 H473 H 0.01033 0.03888 0.60548
 H474 H 0.00558 -0.04477 0.60348
 H475 H 0.00193 -0.07499 0.56106
 H476 H -0.00615 -0.07646 0.44154
 H477 H -0.02334 0.05451 0.58282
 H478 H -0.08198 0.00990 0.52154
 H479 H 0.08268 -0.01264 0.47670
 H480 H 0.02459 -0.05731 0.41671
 Zr481 Zr 0.75278 0.20966 0.25271
 O482 O 0.73395 0.18172 0.27531
 O483 O 0.77602 0.19124 0.22195
 O484 O 0.73180 0.19081 0.21858
 O485 O 0.79073 0.21763 0.31942
 O486 O 0.71297 0.21927 0.18831
 O487 O 0.77356 0.18982 0.28624
 O488 O 0.79690 0.22049 0.19656
 O489 O 0.75397 0.23058 0.20967
 O490 O 0.78298 0.23046 0.25695
 O491 O 0.72131 0.22900 0.25253
 O492 O 0.74935 0.22805 0.29800
 Zr493 Zr 0.74950 0.29164 0.25879
 Zr494 Zr 0.72351 0.25116 0.21082
 Zr495 Zr 0.77896 0.25008 0.30020
 Zr496 Zr 0.78337 0.25226 0.21537
 O497 O 0.77368 0.24958 0.35226
 O498 O 0.77956 0.25374 0.16286
 O499 O 0.78131 0.27261 0.25884
 O500 O 0.75309 0.27305 0.21386
 O501 O 0.71916 0.27100 0.25420
 O502 O 0.74850 0.27037 0.30130
 C503 C 0.79202 0.19870 0.20207
 C504 C 0.78707 0.19618 0.31046
 C505 C 0.71746 0.19763 0.19559
 O506 O 0.72884 0.25419 0.15893
 O507 O 0.70979 0.28351 0.19383
 O508 O 0.72617 0.31104 0.22827
 C509 C 0.71251 0.30478 0.20415
 O510 O 0.70660 0.21662 0.31567
 Zr511 Zr 0.71900 0.24906 0.29589
 O512 O 0.72596 0.31007 0.28892
 O513 O 0.68641 0.24887 0.21135
 O514 O 0.68258 0.24684 0.28476
 O515 O 0.72102 0.25011 0.34860
 O516 O 0.70314 0.28080 0.31059
 C517 C 0.70842 0.30259 0.30596
 O518 O 0.76733 0.31948 0.23444
 O519 O 0.81615 0.24988 0.30003
 O520 O 0.77139 0.31075 0.29189
 O521 O 0.79247 0.28203 0.31842
 O522 O 0.82004 0.25206 0.22520
 O523 O 0.79887 0.28445 0.19956
 C524 C 0.78741 0.30372 0.31247
 H525 H 0.79765 0.22116 0.25822
 H526 H 0.75392 0.28396 0.19463
 H527 H 0.74776 0.27957 0.32214
 H528 H 0.70743 0.21851 0.25122
 H529 H 0.79507 0.25006 0.15314
 H530 H 0.71312 0.25339 0.14822
 H531 H 0.68103 0.24999 0.18788
 H532 H 0.67395 0.25004 0.30559
 H533 H 0.82810 0.24891 0.20390
 H534 H 0.82142 0.24896 0.32357
 H535 H 0.78946 0.25035 0.36277
 H536 H 0.70497 0.25328 0.35687
 H537 H 0.81000 0.28132 0.18129
 H538 H 0.76079 0.33443 0.24303
 H539 H 0.74049 0.16672 0.26682
 H540 H 0.69300 0.21958 0.33026
 Zr541 Zr 0.74785 0.79480 0.75654
 O542 O 0.76419 0.82118 0.78583
 O543 O 0.72782 0.81511 0.72316
 O544 O 0.77205 0.81500 0.72859
 O545 O 0.70142 0.78394 0.80967
 O546 O 0.79616 0.78733 0.70603
 O547 O 0.72352 0.81311 0.78613
 O548 O 0.71292 0.78795 0.68690
 O549 O 0.75285 0.77607 0.71236
 O550 O 0.71765 0.77431 0.74964
 O551 O 0.77857 0.77497 0.76441
 O552 O 0.74475 0.77397 0.80002
 Zr553 Zr 0.74994 0.71247 0.75576
 Zr554 Zr 0.78232 0.75482 0.72126
 Zr555 Zr 0.71543 0.75235 0.79111
 Zr556 Zr 0.72314 0.75488 0.70672
 O557 O 0.71317 0.75002 0.84356
 O558 O 0.73457 0.75597 0.65663
 O559 O 0.71891 0.73213 0.74780
 O560 O 0.75285 0.73354 0.71271
 O561 O 0.78033 0.73271 0.76278
 O562 O 0.74503 0.73151 0.79958
 C563 C 0.71567 0.80921 0.69738
 C564 C 0.70676 0.80573 0.80488
 C565 C 0.78994 0.80874 0.71124
 O566 O 0.78486 0.75424 0.66876
 O567 O 0.79863 0.72325 0.70705
 O568 O 0.77587 0.69405 0.72908
 C569 C 0.79350 0.70145 0.71203
 O570 O 0.78351 0.78363 0.83216
 Zr571 Zr 0.77464 0.75259 0.80545
 O572 O 0.76970 0.69216 0.78970
 O573 O 0.81850 0.75667 0.73359
 O574 O 0.81181 0.75547 0.80608
 O575 O 0.76523 0.74823 0.85608
 O576 O 0.78873 0.71995 0.82077
 C577 C 0.78468 0.69852 0.81210
 O578 O 0.73485 0.68632 0.72477
 O579 O 0.67909 0.75320 0.77956
 O580 O 0.72449 0.69216 0.78093
 O581 O 0.69958 0.71975 0.80189
 O582 O 0.68589 0.75539 0.70507
 O583 O 0.71012 0.72397 0.68325
 C584 C 0.70583 0.69834 0.79659
 H585 H 0.70309 0.78371 0.74754
 H586 H 0.75480 0.72376 0.69258
 H587 H 0.74295 0.72121 0.81928
 H588 H 0.79229 0.78539 0.76821
 H589 H 0.72089 0.76045 0.64262
 H590 H 0.80180 0.75531 0.66345
 H591 H 0.82724 0.75650 0.71235
 H592 H 0.81734 0.75095 0.82866
 H593 H 0.68110 0.75992 0.68216
 H594 H 0.67060 0.75310 0.80101
 H595 H 0.69624 0.74901 0.84892
 H596 H 0.77977 0.74430 0.86862
 H597 H 0.70173 0.72834 0.66245
 H598 H 0.74005 0.67080 0.73349
 H599 H 0.75876 0.83664 0.77715
 H600 H 0.79465 0.77969 0.85038
 Zr601 Zr 0.25172 0.29082 0.74825
 O602 O 0.23506 0.31797 0.72063
 O603 O 0.27096 0.31016 0.78378
 O604 O 0.22723 0.30953 0.77728
 O605 O 0.29790 0.28290 0.69379
 O606 O 0.20355 0.28078 0.79852
 O607 O 0.27582 0.31072 0.71994
 O608 O 0.28787 0.28157 0.81599
 O609 O 0.24745 0.27029 0.79120
 O610 O 0.28224 0.27061 0.75317
 O611 O 0.22120 0.27070 0.73954
 O612 O 0.25466 0.27173 0.70336
 Zr613 Zr 0.25063 0.20858 0.74359
 Zr614 Zr 0.21809 0.24901 0.78157
 Zr615 Zr 0.28436 0.25035 0.71021
 Zr616 Zr 0.27743 0.24931 0.79467
 O617 O 0.28618 0.25025 0.65764
 O618 O 0.26668 0.24854 0.84508
 O619 O 0.28154 0.22834 0.75209
 O620 O 0.24788 0.22786 0.78802
 O621 O 0.21993 0.22850 0.73849
 O622 O 0.25497 0.22930 0.70096
 C623 C 0.28405 0.30322 0.80816
 C624 C 0.29246 0.30439 0.70035
 C625 C 0.20947 0.30246 0.79438
 O626 O 0.21626 0.24748 0.83411
 O627 O 0.20330 0.21659 0.79611
 O628 O 0.22445 0.18885 0.76831
 C629 C 0.20787 0.19519 0.78803
 O630 O 0.21451 0.28174 0.67309
 Zr631 Zr 0.22502 0.24995 0.69691
 O632 O 0.23066 0.18932 0.70925
 O633 O 0.18178 0.24967 0.76994
 O634 O 0.18778 0.25086 0.69754
 O635 O 0.23445 0.24904 0.64597
 O636 O 0.21259 0.21756 0.67770
 C637 C 0.21647 0.19600 0.68609
 O638 O 0.26600 0.18156 0.77290
 O639 O 0.32078 0.25127 0.72122
 O640 O 0.27616 0.18961 0.71662
 O641 O 0.30041 0.21844 0.69681
 O642 O 0.31469 0.25008 0.79550
 O643 O 0.29091 0.21770 0.81582
 C644 C 0.29456 0.19671 0.70087
 H645 H 0.29667 0.28020 0.75572
 H646 H 0.24636 0.21728 0.80752
 H647 H 0.25707 0.21984 0.68055
 H648 H 0.20728 0.28094 0.73659
 H649 H 0.28054 0.25266 0.85899
 H650 H 0.19938 0.24783 0.83991
 H651 H 0.17330 0.24882 0.79136
 H652 H 0.18213 0.24710 0.67478
 H653 H 0.31976 0.25369 0.81859
 H654 H 0.32908 0.25215 0.69965
 H655 H 0.30307 0.24970 0.65194
 H656 H 0.22005 0.24526 0.63301
 H657 H 0.29938 0.22135 0.83679
 H658 H 0.26087 0.16634 0.76321
 H659 H 0.24026 0.33318 0.73029
 H660 H 0.20297 0.27816 0.65524
 Zr661 Zr 0.24567 0.70907 0.24552
 O662 O 0.26485 0.68248 0.22091
 O663 O 0.22228 0.68925 0.27435
 O664 O 0.26632 0.68927 0.27944
 O665 O 0.20704 0.71828 0.17972
 O666 O 0.28688 0.71736 0.30794
 O667 O 0.22414 0.69003 0.21242
 O668 O 0.20336 0.71705 0.30500
 O669 O 0.24520 0.72852 0.28965
 O670 O 0.21522 0.72953 0.24334
 O671 O 0.27693 0.72883 0.24531
 O672 O 0.24817 0.72890 0.20106
 Zr673 Zr 0.24785 0.79119 0.24417
 Zr674 Zr 0.27538 0.74962 0.28812
 Zr675 Zr 0.21829 0.75048 0.20087
 Zr676 Zr 0.21539 0.74973 0.28633
 O677 O 0.22279 0.75152 0.14866
 O678 O 0.22016 0.75028 0.33871
 O679 O 0.21634 0.77147 0.24382
 O680 O 0.24546 0.77098 0.28799
 O681 O 0.27856 0.77103 0.24599
 O682 O 0.24841 0.77147 0.20026
 C683 C 0.20745 0.69561 0.29651
 C684 C 0.21065 0.69669 0.18834
 C685 C 0.28168 0.69583 0.30126
 O686 O 0.27128 0.75125 0.34034
 O687 O 0.29007 0.78142 0.30496
 O688 O 0.27085 0.81019 0.27583
 C689 C 0.28616 0.80310 0.29744
 O690 O 0.29071 0.71917 0.18060
 Zr691 Zr 0.27821 0.75049 0.20315
 O692 O 0.27063 0.81114 0.21433
 O693 O 0.31246 0.74747 0.28608
 O694 O 0.31482 0.74833 0.21290
 O695 O 0.27510 0.75356 0.15067
 O696 O 0.29352 0.78308 0.19025
 C697 C 0.28806 0.80461 0.19640
 O698 O 0.23014 0.81795 0.27059
 O699 O 0.18115 0.74991 0.20248
 O700 O 0.22451 0.81068 0.21384
 O701 O 0.20488 0.78285 0.18348
 O702 O 0.17851 0.74839 0.27863
 O703 O 0.19962 0.78130 0.30338
 C704 C 0.20920 0.80429 0.19188
 H705 H 0.20059 0.72011 0.24208
 H706 H 0.24500 0.78118 0.30791
 H707 H 0.24875 0.78145 0.18002
 H708 H 0.29085 0.71841 0.24555
 H709 H 0.20488 0.74616 0.34888
 H710 H 0.28726 0.75032 0.35022
 H711 H 0.31838 0.74805 0.30933
 H712 H 0.32307 0.75264 0.19211
 H713 H 0.17121 0.74476 0.30038
 H714 H 0.17552 0.74936 0.17910
 H715 H 0.20686 0.75214 0.13859
 H716 H 0.29088 0.75757 0.14203
 H717 H 0.18901 0.77766 0.32213
 H718 H 0.23620 0.83331 0.26244
 H719 H 0.25861 0.66709 0.22860
 H720 H 0.30392 0.72303 0.16563
 Zr721 Zr 0.24946 0.79171 0.75872
 O722 O 0.26726 0.81956 0.73436
 O723 O 0.22594 0.81012 0.78891
 O724 O 0.22611 0.81112 0.72826
 O725 O 0.29251 0.78208 0.81823
 O726 O 0.20966 0.78361 0.69385
 O727 O 0.27138 0.81081 0.79178
 O728 O 0.20314 0.78085 0.81059
 O729 O 0.21911 0.77106 0.75419
 O730 O 0.24851 0.77042 0.80122
 O731 O 0.25299 0.77314 0.71376
 O732 O 0.28126 0.77268 0.75867
 Zr733 Zr 0.25273 0.70973 0.75257
 Zr734 Zr 0.22340 0.75124 0.71078
 Zr735 Zr 0.27897 0.75013 0.80002
 Zr736 Zr 0.21901 0.74911 0.79587
 O737 O 0.31616 0.74994 0.79976
 O738 O 0.18257 0.74688 0.78483
 O739 O 0.24935 0.72810 0.79788
 O740 O 0.22127 0.72907 0.75248
 O741 O 0.25386 0.73067 0.70955
 O742 O 0.28294 0.73054 0.75675
 C743 C 0.20841 0.80265 0.80596
 C744 C 0.28745 0.80377 0.81231
 C745 C 0.21241 0.80488 0.70417
 O746 O 0.18631 0.74895 0.71141
 O747 O 0.21284 0.71936 0.68826
 O748 O 0.23172 0.69089 0.71847
 C749 C 0.21735 0.69772 0.69551
 O750 O 0.29875 0.78455 0.69937
 Zr751 Zr 0.28327 0.75235 0.71518
 O752 O 0.27593 0.69133 0.72172
 O753 O 0.22866 0.75429 0.65888
 O754 O 0.27940 0.75387 0.66268
 O755 O 0.31995 0.75214 0.72491
 O756 O 0.29676 0.72060 0.69629
 C757 C 0.29190 0.69880 0.70180
 O758 O 0.23394 0.68178 0.77521
 O759 O 0.27375 0.74962 0.85209
 O760 O 0.27357 0.68988 0.78602
 O761 O 0.29077 0.71768 0.81919
 O762 O 0.22108 0.75017 0.84857
 O763 O 0.20665 0.71666 0.81567
 C764 C 0.28712 0.69624 0.81021
 H765 H 0.24779 0.77963 0.82206
 H766 H 0.20738 0.71858 0.75120
 H767 H 0.29760 0.72123 0.75796
 H768 H 0.25379 0.78406 0.69454
 H769 H 0.17397 0.75006 0.80569
 H770 H 0.18090 0.75008 0.68795
 H771 H 0.21292 0.75350 0.64821
 H772 H 0.29489 0.75019 0.65292
 H773 H 0.20505 0.75333 0.85688
 H774 H 0.28954 0.75039 0.86257
 H775 H 0.32145 0.74901 0.82329
 H776 H 0.32798 0.74901 0.70358
 H777 H 0.19306 0.71962 0.83031
 H778 H 0.24047 0.66679 0.76668
 H779 H 0.26073 0.83450 0.74298
 H780 H 0.30986 0.78143 0.68107
 Zr781 Zr 0.24918 0.21248 0.25423
 O782 O 0.23429 0.18625 0.22318
 O783 O 0.26879 0.19227 0.28848
 O784 O 0.27528 0.19403 0.22792
 O785 O 0.19850 0.21977 0.29967
 O786 O 0.29816 0.22322 0.20610
 O787 O 0.22363 0.19218 0.27922
 O788 O 0.28722 0.22014 0.32011
 O789 O 0.27950 0.23276 0.26160
 O790 O 0.24394 0.23161 0.29790
 O791 O 0.25234 0.23347 0.21115
 O792 O 0.21817 0.23208 0.24577
 Zr793 Zr 0.24697 0.29480 0.25466
 Zr794 Zr 0.28173 0.25480 0.22001
 Zr795 Zr 0.21435 0.25237 0.28894
 Zr796 Zr 0.27347 0.25274 0.30410
 O797 O 0.17810 0.25316 0.27684
 O798 O 0.31065 0.25543 0.30511
 O799 O 0.24358 0.27406 0.29816
 O800 O 0.27766 0.27503 0.26302
 O801 O 0.25229 0.27599 0.21063
 O802 O 0.21683 0.27427 0.24744
 C803 C 0.28337 0.19869 0.31136
 C804 C 0.20487 0.19836 0.29462
 C805 C 0.29301 0.20142 0.21106
 O806 O 0.31782 0.25672 0.23281
 O807 O 0.29562 0.28730 0.20483
 O808 O 0.27131 0.31498 0.22693
 C809 C 0.28933 0.30870 0.20985
 O810 O 0.20983 0.22381 0.18109
 Zr811 Zr 0.22264 0.25477 0.20468
 O812 O 0.22710 0.31503 0.22098
 O813 O 0.28461 0.25412 0.16755
 O814 O 0.23441 0.25582 0.15475
 O815 O 0.18540 0.25518 0.20255
 O816 O 0.21246 0.28780 0.18464
 C817 C 0.21510 0.30907 0.19509
 O818 O 0.26311 0.32128 0.28401
 O819 O 0.21169 0.25013 0.34135
 O820 O 0.22248 0.31313 0.28397
 O821 O 0.20023 0.28398 0.30726
 O822 O 0.26365 0.24873 0.35463
 O823 O 0.28228 0.28386 0.33066
 C824 C 0.20563 0.30577 0.30255
 H825 H 0.24173 0.22137 0.31762
 H826 H 0.29134 0.28547 0.26696
 H827 H 0.20227 0.28365 0.24514
 H828 H 0.25443 0.22366 0.19108
 H829 H 0.31603 0.25098 0.32779
 H830 H 0.32670 0.25651 0.21168
 H831 H 0.30159 0.25521 0.16246
 H832 H 0.22081 0.26027 0.14054
 H833 H 0.27809 0.24486 0.36745
 H834 H 0.19472 0.24912 0.34647
 H835 H 0.16946 0.25310 0.29816
 H836 H 0.18074 0.25968 0.17957
 H837 H 0.29340 0.27997 0.34894
 H838 H 0.25770 0.33671 0.27520
 H839 H 0.23946 0.17075 0.23203
 H840 H 0.20158 0.22815 0.16017
 Zr841 Zr 0.75142 0.70767 0.24322
 O842 O 0.76701 0.68060 0.27218
 O843 O 0.73126 0.68849 0.20903
 O844 O 0.72539 0.68785 0.26813
 O845 O 0.80085 0.71770 0.19576
 O846 O 0.70443 0.71550 0.29637
 O847 O 0.77677 0.68879 0.21576
 O848 O 0.71297 0.71680 0.17785
 O849 O 0.72068 0.72758 0.23865
 O850 O 0.75545 0.72852 0.20064
 O851 O 0.74897 0.72682 0.28779
 O852 O 0.78237 0.72745 0.25140
 Zr853 Zr 0.75246 0.78991 0.24831
 Zr854 Zr 0.71913 0.74796 0.28187
 Zr855 Zr 0.78489 0.74957 0.20961
 Zr856 Zr 0.72546 0.74915 0.19712
 O857 O 0.82138 0.75047 0.22014
 O858 O 0.68823 0.74998 0.19827
 O859 O 0.75512 0.77093 0.20327
 O860 O 0.72191 0.76977 0.23992
 O861 O 0.74852 0.76925 0.29120
 O862 O 0.78303 0.76972 0.25270
 C863 C 0.71693 0.69523 0.18607
 C864 C 0.79503 0.69596 0.19977
 C865 C 0.70893 0.69413 0.28808
 O866 O 0.68274 0.74870 0.27077
 O867 O 0.70475 0.77965 0.29934
 O868 O 0.72808 0.80852 0.27766
 C869 C 0.71053 0.80137 0.29512
 O870 O 0.79221 0.71665 0.31494
 Zr871 Zr 0.77854 0.74830 0.29416
 O872 O 0.77186 0.80917 0.28374
 O873 O 0.71767 0.74620 0.33443
 O874 O 0.76814 0.74736 0.34471
 O875 O 0.81580 0.74912 0.29447
 O876 O 0.78907 0.78052 0.31553
 C877 C 0.78512 0.80219 0.30790
 O878 O 0.73563 0.81710 0.22100
 O879 O 0.78636 0.74965 0.15701
 O880 O 0.77638 0.80991 0.21982
 O881 O 0.79830 0.78218 0.19321
 O882 O 0.73454 0.74843 0.14604
 O883 O 0.71474 0.78100 0.17365
 C884 C 0.79291 0.80364 0.19998
 H885 H 0.75743 0.71913 0.18014
 H886 H 0.70796 0.77999 0.23723
 H887 H 0.79747 0.77932 0.25513
 H888 H 0.74759 0.71619 0.30725
 H889 H 0.68243 0.74628 0.17557
 H890 H 0.67441 0.74777 0.29231
 H891 H 0.70083 0.74654 0.34048
 H892 H 0.78208 0.75147 0.35845
 H893 H 0.72006 0.74467 0.13325
 H894 H 0.80321 0.74912 0.15107
 H895 H 0.82953 0.75142 0.19847
 H896 H 0.82102 0.75269 0.31750
 H897 H 0.70307 0.77745 0.15594
 H898 H 0.74087 0.83230 0.23067
 H899 H 0.76183 0.66540 0.26248
 H900 H 0.80084 0.72026 0.33581
 Zr901 Zr 0.74780 0.29194 0.74557
 O902 O 0.73007 0.31870 0.77198
 O903 O 0.77053 0.31190 0.71563
 O904 O 0.77079 0.31103 0.77714
 O905 O 0.70473 0.28346 0.68507
 O906 O 0.79039 0.28234 0.80589
 O907 O 0.72439 0.31137 0.71527
 O908 O 0.79338 0.28384 0.69149
 O909 O 0.77855 0.27184 0.74729
 O910 O 0.74830 0.27218 0.70171
 O911 O 0.74558 0.27179 0.78947
 O912 O 0.71633 0.27217 0.74542
 Zr913 Zr 0.74576 0.20984 0.74714
 Zr914 Zr 0.77553 0.25048 0.78949
 Zr915 Zr 0.71822 0.25114 0.70251
 Zr916 Zr 0.77814 0.25124 0.70450
 O917 O 0.68108 0.25051 0.70430
 O918 O 0.81477 0.24913 0.71408
 O919 O 0.74812 0.22961 0.70261
 O920 O 0.77700 0.22963 0.74673
 O921 O 0.74538 0.22934 0.79122
 O922 O 0.71528 0.23025 0.74505
 C923 C 0.78793 0.30536 0.69765
 C924 C 0.70905 0.30492 0.69338
 C925 C 0.78634 0.30400 0.79843
 O926 O 0.81261 0.24823 0.78730
 O927 O 0.78707 0.21825 0.80942
 O928 O 0.76647 0.19012 0.78105
 C929 C 0.78185 0.19671 0.80282
 O930 O 0.69979 0.28206 0.80511
 Zr931 Zr 0.71553 0.25048 0.78800
 O932 O 0.72245 0.19001 0.77606
 O933 O 0.77158 0.25233 0.84172
 O934 O 0.72045 0.25104 0.84036
 O935 O 0.67863 0.24913 0.78051
 O936 O 0.70354 0.21780 0.80673
 C937 C 0.70763 0.19637 0.79823
 O938 O 0.76497 0.18325 0.72254
 O939 O 0.72259 0.25213 0.65027
 O940 O 0.72423 0.19072 0.71414
 O941 O 0.70698 0.21889 0.68147
 O942 O 0.77491 0.25427 0.65203
 O943 O 0.79061 0.21992 0.68195
 C944 C 0.71068 0.19732 0.69010
 H945 H 0.74859 0.28214 0.68145
 H946 H 0.79093 0.21923 0.74694
 H947 H 0.70067 0.22080 0.74386
 H948 H 0.74516 0.28201 0.80936
 H949 H 0.82297 0.25343 0.69324
 H950 H 0.81858 0.24890 0.81053
 H951 H 0.78759 0.25141 0.85150
 H952 H 0.70520 0.24691 0.85061
 H953 H 0.79067 0.25828 0.64332
 H954 H 0.70663 0.25270 0.64028
 H955 H 0.67539 0.24992 0.68094
 H956 H 0.67139 0.24552 0.80230
 H957 H 0.80379 0.22377 0.66692
 H958 H 0.75876 0.16786 0.73029
 H959 H 0.73608 0.33407 0.76378
 H960 H 0.68926 0.27842 0.82396
 C961 C 0.09997 0.41757 0.88939
 N962 N 0.10717 0.43602 0.90836
 N963 N 0.09152 0.44991 0.92308
 C964 C 0.06805 0.44600 0.91920
 N965 N 0.06096 0.42777 0.89971
 N966 N 0.07658 0.41379 0.88526
 C967 C 0.11697 0.40119 0.87473
 N968 N 0.10961 0.37987 0.86359
 N969 N 0.12483 0.36454 0.85116
 C970 C 0.14800 0.36999 0.84907
 N971 N 0.15541 0.39140 0.85995
 N972 N 0.14017 0.40668 0.87274
 C973 C 0.16454 0.35265 0.83558
 N974 N 0.18635 0.35903 0.82530
 N975 N 0.20086 0.34312 0.81233
 C976 C 0.19414 0.32022 0.80957
 N977 N 0.17243 0.31389 0.82013
 N978 N 0.15789 0.32979 0.83274
 C979 C 0.39060 0.58141 0.40029
 N980 N 0.41369 0.58677 0.39692
 N981 N 0.43016 0.57315 0.41049
 C982 C 0.42421 0.55374 0.42828
 N983 N 0.40108 0.54825 0.43165
 N984 N 0.38455 0.56179 0.41772
 C985 C 0.37283 0.59752 0.38666
 N986 N 0.35030 0.59054 0.38094
 N987 N 0.33456 0.60562 0.36839
 C988 C 0.34079 0.62825 0.36163
 N989 N 0.36324 0.63514 0.36759
 N990 N 0.37898 0.62005 0.37967
 C991 C 0.32401 0.64536 0.34790
 N992 N 0.32900 0.66864 0.35016
 N993 N 0.31497 0.68455 0.33613
 C994 C 0.29547 0.67785 0.31901
 N995 N 0.29029 0.65452 0.31684
 N996 N 0.30428 0.63853 0.33124
 C997 C 0.89972 0.92194 0.61185
 N998 N 0.92299 0.91701 0.61415
 N999 N 0.93866 0.92983 0.59762
 C1000 C 0.93166 0.94799 0.57794
 N1001 N 0.90837 0.95306 0.57573
 N1002 N 0.89267 0.94030 0.59248
 C1003 C 0.88266 0.90660 0.62855
 N1004 N 0.85958 0.91248 0.63068
 N1005 N 0.84424 0.89778 0.64482
 C1006 C 0.85147 0.87664 0.65701
 N1007 N 0.87453 0.87088 0.65490
 N1008 N 0.88983 0.88560 0.64109
 C1009 C 0.83490 0.85951 0.67102
 N1010 N 0.84160 0.83674 0.67422
 N1011 N 0.82704 0.82076 0.68675
 C1012 C 0.80524 0.82690 0.69689
 N1013 N 0.79844 0.84975 0.69389
 N1014 N 0.81300 0.86578 0.68096
 C1015 C 0.60850 0.08485 0.09372
 N1016 N 0.58908 0.07940 0.11163
 N1017 N 0.57210 0.06609 0.09852
 C1018 C 0.57413 0.05740 0.06725
 N1019 N 0.59367 0.06262 0.04949
 N1020 N 0.61048 0.07626 0.06239
 C1021 C 0.62670 0.10030 0.10773
 N1022 N 0.63975 0.11436 0.08761
 N1023 N 0.65559 0.12913 0.10049
 C1024 C 0.65921 0.13005 0.13390
 N1025 N 0.64636 0.11578 0.15395
 N1026 N 0.63027 0.10130 0.14112
 C1027 C 0.67593 0.14688 0.14843
 N1028 N 0.68590 0.14249 0.17859
 N1029 N 0.69991 0.15836 0.19291
 C1030 C 0.70422 0.17933 0.17781
 N1031 N 0.69430 0.18372 0.14757
 N1032 N 0.68057 0.16767 0.13300
 C1033 C 0.89295 0.07854 0.40805
 N1034 N 0.91602 0.08437 0.40654
 N1035 N 0.93234 0.07004 0.41890
 C1036 C 0.92626 0.04939 0.43357
 N1037 N 0.90315 0.04343 0.43507
 N1038 N 0.88675 0.05771 0.42230
 C1039 C 0.87538 0.09533 0.39565
 N1040 N 0.85335 0.08844 0.38669
 N1041 N 0.83797 0.10409 0.37465
 C1042 C 0.84403 0.12716 0.37167
 N1043 N 0.86595 0.13397 0.38097
 N1044 N 0.88135 0.11835 0.39255
 C1045 C 0.82778 0.14470 0.35776
 N1046 N 0.83223 0.16792 0.36241
 N1047 N 0.81874 0.18421 0.34811
 C1048 C 0.80038 0.17792 0.32833
 N1049 N 0.79577 0.15465 0.32379
 N1050 N 0.80918 0.13830 0.33840
 C1051 C 0.39769 0.42383 0.60440
 N1052 N 0.42107 0.41940 0.60614
 N1053 N 0.43640 0.43363 0.59140
 C1054 C 0.42901 0.45284 0.57413
 N1055 N 0.40559 0.45746 0.57252
 N1056 N 0.39020 0.44325 0.58755
 C1057 C 0.38111 0.40689 0.61903
 N1058 N 0.35813 0.41232 0.62376
 N1059 N 0.34341 0.39644 0.63665
 C1060 C 0.35112 0.37452 0.64487
 N1061 N 0.37404 0.36916 0.64001
 N1062 N 0.38875 0.38506 0.62750
 C1063 C 0.33522 0.35654 0.65852
 N1064 N 0.34186 0.33361 0.65864
 N1065 N 0.32800 0.31708 0.67151
 C1066 C 0.30703 0.32283 0.68505
 N1067 N 0.30033 0.34580 0.68501
 N1068 N 0.31413 0.36235 0.67179
 C1069 C 0.59995 0.92032 0.90601
 N1070 N 0.60706 0.94091 0.92004
 N1071 N 0.59156 0.95508 0.93458
 C1072 C 0.56840 0.94923 0.93531
 N1073 N 0.56135 0.92879 0.92096
 N1074 N 0.57682 0.91459 0.90671
 C1075 C 0.61677 0.90387 0.89127
 N1076 N 0.60989 0.88153 0.88437
 N1077 N 0.62485 0.86622 0.87134
 C1078 C 0.64724 0.87269 0.86442
 N1079 N 0.65417 0.89510 0.87115
 N1080 N 0.63921 0.91041 0.88451
 C1081 C 0.66337 0.85550 0.84984
 N1082 N 0.68400 0.86229 0.83592
 N1083 N 0.69802 0.84647 0.82178
 C1084 C 0.69200 0.82330 0.82136
 N1085 N 0.67149 0.81657 0.83553
 N1086 N 0.65742 0.83236 0.84939
 C1087 C 0.10886 0.57905 0.08186
 N1088 N 0.08929 0.57297 0.09897
 N1089 N 0.07290 0.55934 0.08508
 C1090 C 0.07569 0.55091 0.05380
 N1091 N 0.09544 0.55668 0.03683
 N1092 N 0.11167 0.57066 0.05053
 C1093 C 0.12611 0.59522 0.09668
 N1094 N 0.13900 0.60991 0.07726
 N1095 N 0.15356 0.62560 0.09098
 C1096 C 0.15598 0.62691 0.12458
 N1097 N 0.14332 0.61200 0.14393
 N1098 N 0.12850 0.59659 0.13025
 C1099 C 0.17136 0.64459 0.14004
 N1100 N 0.18010 0.64097 0.17115
 N1101 N 0.19313 0.65739 0.18604
 C1102 C 0.19763 0.67820 0.17060
 N1103 N 0.18887 0.68187 0.13947
 N1104 N 0.17611 0.66527 0.12435
 C1105 C 0.39785 0.92326 0.11112
 N1106 N 0.42114 0.91860 0.11371
 N1107 N 0.43687 0.93290 0.09995
 C1108 C 0.42989 0.95233 0.08287
 N1109 N 0.40656 0.95715 0.08043
 N1110 N 0.39080 0.94290 0.09445
 C1111 C 0.38079 0.90642 0.12445
 N1112 N 0.35774 0.91209 0.12763
 N1113 N 0.34240 0.89625 0.13900
 C1114 C 0.34958 0.87416 0.14715
 N1115 N 0.37259 0.86856 0.14390
 N1116 N 0.38792 0.88442 0.13289
 C1117 C 0.33300 0.85632 0.15901
 N1118 N 0.33934 0.83332 0.15921
 N1119 N 0.32475 0.81689 0.17055
 C1120 C 0.30333 0.82285 0.18238
 N1121 N 0.29692 0.84588 0.18222
 N1122 N 0.31147 0.86233 0.17053
 C1123 C 0.59766 0.41720 0.39608
 N1124 N 0.60466 0.43788 0.40982
 N1125 N 0.58903 0.45221 0.42362
 C1126 C 0.56588 0.44640 0.42389
 N1127 N 0.55890 0.42585 0.40982
 N1128 N 0.57452 0.41148 0.39625
 C1129 C 0.61472 0.40070 0.38247
 N1130 N 0.60809 0.37829 0.37561
 N1131 N 0.62353 0.36289 0.36402
 C1132 C 0.64613 0.36938 0.35867
 N1133 N 0.65279 0.39185 0.36532
 N1134 N 0.63735 0.40724 0.37720
 C1135 C 0.66285 0.35220 0.34591
 N1136 N 0.68401 0.35905 0.33384
 N1137 N 0.69876 0.34323 0.32136
 C1138 C 0.69290 0.32005 0.32084
 N1139 N 0.67184 0.31324 0.33319
 N1140 N 0.65705 0.32904 0.34540
 C1141 C 0.89465 0.58042 0.89951
 N1142 N 0.91765 0.58411 0.89265
 N1143 N 0.93407 0.56974 0.90472
 C1144 C 0.92823 0.55126 0.92456
 N1145 N 0.90511 0.54744 0.93122
 N1146 N 0.88861 0.56169 0.91877
 C1147 C 0.87703 0.59733 0.88759
 N1148 N 0.85398 0.59138 0.88455
 N1149 N 0.83830 0.60711 0.87361
 C1150 C 0.84512 0.62940 0.86587
 N1151 N 0.86811 0.63530 0.86916
 N1152 N 0.88378 0.61954 0.87961
 C1153 C 0.82830 0.64706 0.85383
 N1154 N 0.83376 0.67025 0.85619
 N1155 N 0.81940 0.68655 0.84377
 C1156 C 0.79912 0.68030 0.82818
 N1157 N 0.79354 0.65708 0.82586
 N1158 N 0.80782 0.64073 0.83868
 C1159 C 0.10972 0.08003 0.58769
 N1160 N 0.09055 0.07450 0.60602
 N1161 N 0.07368 0.06082 0.59346
 C1162 C 0.07563 0.05185 0.56236
 N1163 N 0.09495 0.05712 0.54417
 N1164 N 0.11164 0.07114 0.55653
 C1165 C 0.12764 0.09594 0.60110
 N1166 N 0.14026 0.11008 0.58056
 N1167 N 0.15569 0.12544 0.59301
 C1168 C 0.15927 0.12688 0.62638
 N1169 N 0.14688 0.11252 0.64684
 N1170 N 0.13119 0.09745 0.63444
 C1171 C 0.17552 0.14423 0.64048
 N1172 N 0.18531 0.14051 0.67091
 N1173 N 0.19898 0.15680 0.68484
 C1174 C 0.20309 0.17755 0.66907
 N1175 N 0.19332 0.18131 0.63858
 N1176 N 0.17991 0.16483 0.62440
 C1177 C 0.09945 0.42033 0.40510
 N1178 N 0.10669 0.44083 0.41926
 N1179 N 0.09128 0.45499 0.43403
 C1180 C 0.06810 0.44921 0.43487
 N1181 N 0.06094 0.42885 0.42041
 N1182 N 0.07631 0.41467 0.40591
 C1183 C 0.11615 0.40390 0.39004
 N1184 N 0.10914 0.38164 0.38288
 N1185 N 0.12398 0.36634 0.36955
 C1186 C 0.14638 0.37275 0.36261
 N1187 N 0.15345 0.39507 0.36960
 N1188 N 0.13861 0.41037 0.38325
 C1189 C 0.16239 0.35555 0.34776
 N1190 N 0.18307 0.36230 0.33397
 N1191 N 0.19702 0.34648 0.31969
 C1192 C 0.19086 0.32335 0.31899
 N1193 N 0.17029 0.31666 0.33303
 N1194 N 0.15630 0.33246 0.34703
 C1195 C 0.39316 0.57875 0.90789
 N1196 N 0.41623 0.58461 0.90652
 N1197 N 0.43253 0.57028 0.91893
 C1198 C 0.42644 0.54962 0.93353
 N1199 N 0.40332 0.54363 0.93491
 N1200 N 0.38695 0.55790 0.92208
 C1201 C 0.37559 0.59551 0.89541
 N1202 N 0.35357 0.58859 0.88642
 N1203 N 0.33818 0.60421 0.87434
 C1204 C 0.34423 0.62729 0.87132
 N1205 N 0.36613 0.63413 0.88063
 N1206 N 0.38154 0.61853 0.89226
 C1207 C 0.32795 0.64480 0.85741
 N1208 N 0.33237 0.66803 0.86205
 N1209 N 0.31884 0.68430 0.84778
 C1210 C 0.30047 0.67798 0.82803
 N1211 N 0.29589 0.65471 0.82349
 N1212 N 0.30934 0.63838 0.83808
 C1213 C 0.60923 0.07918 0.58413
 N1214 N 0.58978 0.07299 0.60144
 N1215 N 0.57337 0.05933 0.58767
 C1216 C 0.57601 0.05098 0.55633
 N1217 N 0.59564 0.05685 0.53915
 N1218 N 0.61190 0.07086 0.55273
 C1219 C 0.62647 0.09541 0.59883
 N1220 N 0.63918 0.11022 0.57934
 N1221 N 0.65370 0.12598 0.59298
 C1222 C 0.65626 0.12724 0.62656
 N1223 N 0.64379 0.11222 0.64597
 N1224 N 0.62902 0.09673 0.63238
 C1225 C 0.67158 0.14502 0.64195
 N1226 N 0.68041 0.14143 0.67301
 N1227 N 0.69337 0.15793 0.68785
 C1228 C 0.69770 0.17877 0.67242
 N1229 N 0.68884 0.18241 0.64134
 N1230 N 0.67614 0.16574 0.62627
 C1231 C 0.89786 0.92340 0.10423
 N1232 N 0.92124 0.91894 0.10582
 N1233 N 0.93654 0.93323 0.09114
 C1234 C 0.92913 0.95252 0.07407
 N1235 N 0.90572 0.95717 0.07262
 N1236 N 0.89035 0.94290 0.08759
 C1237 C 0.88130 0.90641 0.11879
 N1238 N 0.85835 0.91185 0.12375
 N1239 N 0.84365 0.89592 0.13659
 C1240 C 0.85136 0.87395 0.14452
 N1241 N 0.87425 0.86858 0.13943
 N1242 N 0.88894 0.88452 0.12698
 C1243 C 0.83549 0.85593 0.15813
 N1244 N 0.84209 0.83299 0.15796
 N1245 N 0.82828 0.81642 0.17082
 C1246 C 0.80740 0.82214 0.18466
 N1247 N 0.80073 0.84511 0.18490
 N1248 N 0.81449 0.86171 0.17169
 C1249 C 0.89055 0.08194 0.90151
 N1250 N 0.91364 0.08727 0.89810
 N1251 N 0.93010 0.07353 0.91146
 C1252 C 0.92413 0.05404 0.92907
 N1253 N 0.90100 0.04859 0.93247
 N1254 N 0.88447 0.06225 0.91875
 C1255 C 0.87280 0.09816 0.88807
 N1256 N 0.85025 0.09124 0.88230
 N1257 N 0.83454 0.10640 0.86985
 C1258 C 0.84082 0.12903 0.86326
 N1259 N 0.86328 0.13587 0.86929
 N1260 N 0.87898 0.12071 0.88127
 C1261 C 0.82408 0.14619 0.84955
 N1262 N 0.82914 0.16946 0.85175
 N1263 N 0.81515 0.18540 0.83770
 C1264 C 0.79562 0.17874 0.82061
 N1265 N 0.79038 0.15542 0.81850
 N1266 N 0.80432 0.13940 0.83291
 C1267 C 0.10857 0.58483 0.59343
 N1268 N 0.08918 0.57933 0.61136
 N1269 N 0.07219 0.56603 0.59824
 C1270 C 0.07420 0.55738 0.56695
 N1271 N 0.09372 0.56265 0.54916
 N1272 N 0.11053 0.57628 0.56207
 C1273 C 0.12676 0.60029 0.60745
 N1274 N 0.13977 0.61441 0.58736
 N1275 N 0.15557 0.62921 0.60027
 C1276 C 0.15921 0.63009 0.63368
 N1277 N 0.14641 0.61575 0.65370
 N1278 N 0.13034 0.60125 0.64084
 C1279 C 0.17590 0.64694 0.64825
 N1280 N 0.18588 0.64254 0.67840
 N1281 N 0.19986 0.65842 0.69275
 C1282 C 0.20412 0.67942 0.67771
 N1283 N 0.19418 0.68382 0.64748
 N1284 N 0.18048 0.66776 0.63287
 C1285 C 0.60086 0.91573 0.39154
 N1286 N 0.60797 0.93574 0.40710
 N1287 N 0.59236 0.94979 0.42165
 C1288 C 0.56907 0.94443 0.42087
 N1289 N 0.56201 0.92456 0.40499
 N1290 N 0.57759 0.91046 0.39071
 C1291 C 0.61792 0.89938 0.37692
 N1292 N 0.61105 0.87731 0.36842
 N1293 N 0.62634 0.86209 0.35587
 C1294 C 0.64907 0.86839 0.35105
 N1295 N 0.65598 0.89054 0.35933
 N1296 N 0.64070 0.90574 0.37220
 C1297 C 0.66567 0.85121 0.33729
 N1298 N 0.68695 0.85794 0.32534
 N1299 N 0.70146 0.84214 0.31210
 C1300 C 0.69528 0.81903 0.31068
 N1301 N 0.67412 0.81237 0.32290
 N1302 N 0.65958 0.82814 0.33583
 C1303 C 0.39945 0.42192 0.11126
 N1304 N 0.42271 0.41695 0.11363
 N1305 N 0.43843 0.42977 0.09719
 C1306 C 0.43148 0.44797 0.07754
 N1307 N 0.40820 0.45308 0.07526
 N1308 N 0.39245 0.44031 0.09191
 C1309 C 0.38234 0.40657 0.12784
 N1310 N 0.35925 0.41245 0.12982
 N1311 N 0.34386 0.39775 0.14385
 C1312 C 0.35106 0.37660 0.15608
 N1313 N 0.37412 0.37085 0.15413
 N1314 N 0.38947 0.38557 0.14042
 C1315 C 0.33444 0.35947 0.16997
 N1316 N 0.34115 0.33671 0.17329
 N1317 N 0.32655 0.32073 0.18571
 C1318 C 0.30469 0.32687 0.19562
 N1319 N 0.29788 0.34970 0.19249
 N1320 N 0.31248 0.36573 0.17967
 C1321 C 0.61004 0.57939 0.08770
 N1322 N 0.59088 0.57386 0.10607
 N1323 N 0.57397 0.56024 0.09350
 C1324 C 0.57585 0.55133 0.06236
 N1325 N 0.59516 0.55661 0.04413
 N1326 N 0.61189 0.57056 0.05650
 C1327 C 0.62799 0.59526 0.10110
 N1328 N 0.64055 0.60946 0.08057
 N1329 N 0.65599 0.62481 0.09302
 C1330 C 0.65964 0.62618 0.12638
 N1331 N 0.64730 0.61176 0.14683
 N1332 N 0.63160 0.59671 0.13443
 C1333 C 0.67589 0.64352 0.14047
 N1334 N 0.68577 0.63974 0.17083
 N1335 N 0.69946 0.65602 0.18476
 C1336 C 0.70349 0.67681 0.16906
 N1337 N 0.69363 0.68063 0.13865
 N1338 N 0.68020 0.66417 0.12447
 C1339 C 0.09755 0.91734 0.89568
 N1340 N 0.10457 0.93800 0.90944
 N1341 N 0.08894 0.95234 0.92325
 C1342 C 0.06578 0.94655 0.92349
 N1343 N 0.05879 0.92602 0.90939
 N1344 N 0.07441 0.91164 0.89582
 C1345 C 0.11462 0.90082 0.88211
 N1346 N 0.10799 0.87841 0.87526
 N1347 N 0.12345 0.86299 0.86374
 C1348 C 0.14605 0.86947 0.85845
 N1349 N 0.15271 0.89195 0.86508
 N1350 N 0.13726 0.90735 0.87689
 C1351 C 0.16279 0.85227 0.84576
 N1352 N 0.18397 0.85911 0.83374
 N1353 N 0.19873 0.84329 0.82131
 C1354 C 0.19288 0.82010 0.82082
 N1355 N 0.17180 0.81330 0.83314
 N1356 N 0.15700 0.82911 0.84529
 C1357 C 0.39306 0.08197 0.40292
 N1358 N 0.41613 0.08777 0.40095
 N1359 N 0.43257 0.07333 0.41275
 C1360 C 0.42660 0.05261 0.42732
 N1361 N 0.40349 0.04672 0.42933
 N1362 N 0.38699 0.06110 0.41713
 C1363 C 0.37527 0.09866 0.39091
 N1364 N 0.35300 0.09168 0.38342
 N1365 N 0.33725 0.10719 0.37203
 C1366 C 0.34319 0.13023 0.36822
 N1367 N 0.36537 0.13714 0.37599
 N1368 N 0.38113 0.12164 0.38694
 C1369 C 0.32638 0.14762 0.35531
 N1370 N 0.33087 0.17089 0.35941
 N1371 N 0.31668 0.18702 0.34619
 C1372 C 0.29753 0.18054 0.32811
 N1373 N 0.29290 0.15723 0.32410
 N1374 N 0.30702 0.14103 0.33764
 C1375 C 0.89782 0.42369 0.61173
 N1376 N 0.92111 0.41896 0.61423
 N1377 N 0.93684 0.43318 0.60032
 C1378 C 0.92988 0.45259 0.58318
 N1379 N 0.90656 0.45746 0.58082
 N1380 N 0.89079 0.44330 0.59500
 C1381 C 0.88075 0.40692 0.62522
 N1382 N 0.85771 0.41265 0.62844
 N1383 N 0.84236 0.39687 0.63993
 C1384 C 0.84950 0.37478 0.64816
 N1385 N 0.87249 0.36913 0.64486
 N1386 N 0.88784 0.38492 0.63374
 C1387 C 0.83289 0.35699 0.66010
 N1388 N 0.83919 0.33398 0.66030
 N1389 N 0.82459 0.31758 0.67169
 C1390 C 0.80320 0.32358 0.68358
 N1391 N 0.79683 0.34662 0.68341
 N1392 N 0.81139 0.36305 0.67167
 C1393 C 0.90147 0.58543 0.08788
 N1394 N 0.89401 0.56545 0.07251
 N1395 N 0.90923 0.55162 0.05672
 C1396 C 0.93246 0.55721 0.05591
 N1397 N 0.93984 0.57714 0.07136
 N1398 N 0.92465 0.59101 0.08690
 C1399 C 0.88499 0.60112 0.10515
 N1400 N 0.89234 0.62265 0.11544
 N1401 N 0.87775 0.63714 0.13099
 C1402 C 0.85525 0.63062 0.13717
 N1403 N 0.84784 0.60901 0.12704
 N1404 N 0.86244 0.59454 0.11122
 C1405 C 0.83935 0.64714 0.15396
 N1406 N 0.81796 0.64025 0.16535
 N1407 N 0.80383 0.65560 0.18038
 C1408 C 0.81055 0.67842 0.18435
 N1409 N 0.83189 0.68521 0.17291
 N1410 N 0.84604 0.66988 0.15817
 C1411 C 0.60486 0.42055 0.58711
 N1412 N 0.58575 0.42731 0.60462
 N1413 N 0.56923 0.44066 0.59049
 C1414 C 0.57140 0.44803 0.55849
 N1415 N 0.59066 0.44152 0.54106
 N1416 N 0.60701 0.42785 0.55505
 C1417 C 0.62236 0.40487 0.60234
 N1418 N 0.63518 0.39007 0.58326
 N1419 N 0.65007 0.37485 0.59731
 C1420 C 0.65293 0.37415 0.63088
 N1421 N 0.64036 0.38919 0.64991
 N1422 N 0.62521 0.40416 0.63590
 C1423 C 0.66847 0.35669 0.64649
 N1424 N 0.67771 0.36045 0.67728
 N1425 N 0.69108 0.34415 0.69196
 C1426 C 0.69535 0.32336 0.67659
 N1427 N 0.68606 0.31959 0.64585
 N1428 N 0.67299 0.33603 0.63096
 C1429 C 0.09940 0.08188 0.39626
 N1430 N 0.10723 0.06282 0.41360
 N1431 N 0.09212 0.04877 0.42942
 C1432 C 0.06868 0.05325 0.42827
 N1433 N 0.06094 0.07220 0.41074
 N1434 N 0.07600 0.08627 0.39516
 C1435 C 0.11567 0.09817 0.37971
 N1436 N 0.10760 0.11913 0.36817
 N1437 N 0.12206 0.13441 0.35373
 C1438 C 0.14514 0.12926 0.34997
 N1439 N 0.15327 0.10819 0.36128
 N1440 N 0.13879 0.09292 0.37601
 C1441 C 0.16086 0.14675 0.33488
 N1442 N 0.18296 0.14107 0.32523
 N1443 N 0.19700 0.15736 0.31188
 C1444 C 0.18946 0.17990 0.30800
 N1445 N 0.16740 0.18549 0.31769
 N1446 N 0.15334 0.16921 0.33071
 C1447 C 0.39315 0.91617 0.92373
 N1448 N 0.41601 0.90959 0.92554
 N1449 N 0.43212 0.92384 0.93869
 C1450 C 0.42600 0.94517 0.95092
 N1451 N 0.40307 0.95179 0.94939
 N1452 N 0.38692 0.93756 0.93587
 C1453 C 0.37584 0.90006 0.90872
 N1454 N 0.35425 0.90756 0.89865
 N1455 N 0.33922 0.89271 0.88395
 C1456 C 0.34523 0.86983 0.87909
 N1457 N 0.36672 0.86240 0.88943
 N1458 N 0.38175 0.87724 0.90379
 C1459 C 0.32926 0.85306 0.86261
 N1460 N 0.33441 0.82977 0.86346
 N1461 N 0.32081 0.81426 0.84777
 C1462 C 0.30158 0.82137 0.83034
 N1463 N 0.29631 0.84471 0.82946
 N1464 N 0.30989 0.86029 0.84542
 C1465 C 0.10855 0.91947 0.59468
 N1466 N 0.08833 0.92460 0.61074
 N1467 N 0.07175 0.93748 0.59590
 C1468 C 0.07491 0.94603 0.56466
 N1469 N 0.09528 0.94118 0.54871
 N1470 N 0.11173 0.92795 0.56337
 C1471 C 0.12614 0.90420 0.61064
 N1472 N 0.14056 0.89061 0.59206
 N1473 N 0.15540 0.87559 0.60666
 C1474 C 0.15660 0.87388 0.64036
 N1475 N 0.14242 0.88772 0.65892
 N1476 N 0.12734 0.90247 0.64432
 C1477 C 0.17206 0.85653 0.65648
 N1478 N 0.17935 0.85949 0.68846
 N1479 N 0.19262 0.84326 0.70348
 C1480 C 0.19875 0.82330 0.68722
 N1481 N 0.19140 0.82032 0.65528
 N1482 N 0.17843 0.83671 0.64010
 C1483 C 0.60093 0.58043 0.39056
 N1484 N 0.60548 0.57065 0.42080
 N1485 N 0.58941 0.55738 0.43592
 C1486 C 0.56803 0.55373 0.42162
 N1487 N 0.56343 0.56357 0.39140
 N1488 N 0.57965 0.57654 0.37604
 C1489 C 0.61834 0.59585 0.37466
 N1490 N 0.61868 0.59871 0.34107
 N1491 N 0.63412 0.61328 0.32695
 C1492 C 0.64952 0.62576 0.34595
 N1493 N 0.64910 0.62294 0.37951
 N1494 N 0.63395 0.60811 0.39357
 C1495 C 0.66555 0.64300 0.33086
 N1496 N 0.67203 0.66246 0.34813
 N1497 N 0.68592 0.67863 0.33440
 C1498 C 0.69421 0.67575 0.30311
 N1499 N 0.68798 0.65614 0.28589
 N1500 N 0.67372 0.64013 0.29943
 C1501 C 0.39952 0.08985 0.10245
 N1502 N 0.39234 0.06893 0.08954
 N1503 N 0.40758 0.05484 0.07431
 C1504 C 0.43055 0.06115 0.07164
 N1505 N 0.43763 0.08202 0.08464
 N1506 N 0.42242 0.09613 0.09962
 C1507 C 0.38306 0.10579 0.11908
 N1508 N 0.39002 0.12795 0.12693
 N1509 N 0.37544 0.14268 0.14201
 C1510 C 0.35338 0.13578 0.15010
 N1511 N 0.34637 0.11355 0.14240
 N1512 N 0.36094 0.09882 0.12707
 C1513 C 0.33752 0.15246 0.16641
 N1514 N 0.31669 0.14537 0.17943
 N1515 N 0.30252 0.16085 0.19405
 C1516 C 0.30864 0.18395 0.19597
 N1517 N 0.32944 0.19095 0.18292
 N1518 N 0.34363 0.17550 0.16856
 C1519 C 0.89472 0.41644 0.90448
 N1520 N 0.91783 0.41132 0.90141
 N1521 N 0.93416 0.42525 0.91466
 C1522 C 0.92811 0.44480 0.93196
 N1523 N 0.90488 0.44995 0.93518
 N1524 N 0.88848 0.43608 0.92152
 C1525 C 0.87718 0.40039 0.88992
 N1526 N 0.85477 0.40734 0.88331
 N1527 N 0.83948 0.39250 0.86912
 C1528 C 0.84604 0.37018 0.86140
 N1529 N 0.86835 0.36330 0.86830
 N1530 N 0.88364 0.37814 0.88207
 C1531 C 0.82968 0.35337 0.84584
 N1532 N 0.83497 0.33011 0.84621
 N1533 N 0.82093 0.31455 0.83142
 C1534 C 0.80112 0.32162 0.81531
 N1535 N 0.79575 0.34494 0.81482
 N1536 N 0.80975 0.36055 0.82997
 C1537 C 0.60231 0.07922 0.89681
 N1538 N 0.60657 0.06986 0.92734
 N1539 N 0.59069 0.05611 0.94187
 C1540 C 0.56984 0.05149 0.92663
 N1541 N 0.56555 0.06082 0.89603
 N1542 N 0.58161 0.07431 0.88124
 C1543 C 0.61924 0.09552 0.88203
 N1544 N 0.62044 0.09841 0.84855
 N1545 N 0.63556 0.11373 0.83544
 C1546 C 0.64968 0.12695 0.85539
 N1547 N 0.64838 0.12413 0.88886
 N1548 N 0.63356 0.10854 0.90193
 C1549 C 0.66553 0.14452 0.84111
 N1550 N 0.67123 0.16422 0.85843
 N1551 N 0.68487 0.18072 0.84494
 C1552 C 0.69363 0.17784 0.81391
 N1553 N 0.68817 0.15799 0.79677
 N1554 N 0.67422 0.14169 0.81004
 C1555 C 0.39891 0.58469 0.60171
 N1556 N 0.39157 0.56484 0.58597
 N1557 N 0.40700 0.55090 0.57095
 C1558 C 0.43027 0.55623 0.57146
 N1559 N 0.43757 0.57589 0.58759
 N1560 N 0.42216 0.58990 0.60233
 C1561 C 0.38213 0.60103 0.61647
 N1562 N 0.38907 0.62324 0.62397
 N1563 N 0.37397 0.63855 0.63664
 C1564 C 0.35142 0.63216 0.64255
 N1565 N 0.34444 0.60987 0.63528
 N1566 N 0.35953 0.59458 0.62224
 C1567 C 0.33516 0.64929 0.65668
 N1568 N 0.31468 0.64238 0.67085
 N1569 N 0.30060 0.65816 0.68492
 C1570 C 0.30645 0.68136 0.68494
 N1571 N 0.32678 0.68821 0.67042
 N1572 N 0.34092 0.67246 0.65667
 C1573 C 0.11008 0.42392 0.08910
 N1574 N 0.09044 0.42975 0.10617
 N1575 N 0.07366 0.44271 0.09186
 C1576 C 0.07611 0.45065 0.06016
 N1577 N 0.09591 0.44509 0.04327
 N1578 N 0.11252 0.43183 0.05741
 C1579 C 0.12785 0.40843 0.10418
 N1580 N 0.14171 0.39482 0.08477
 N1581 N 0.15699 0.37983 0.09847
 C1582 C 0.15920 0.37819 0.13206
 N1583 N 0.14555 0.39202 0.15144
 N1584 N 0.13003 0.40675 0.13776
 C1585 C 0.17523 0.36101 0.14736
 N1586 N 0.18305 0.36406 0.17904
 N1587 N 0.19648 0.34784 0.19372
 C1588 C 0.20235 0.32782 0.17743
 N1589 N 0.19457 0.32477 0.14570
 N1590 N 0.18141 0.34117 0.13083
 C1591 C 0.89180 0.91663 0.40968
 N1592 N 0.91477 0.91048 0.40811
 N1593 N 0.93137 0.92459 0.42024
 C1594 C 0.92566 0.94530 0.43474
 N1595 N 0.90266 0.95155 0.43635
 N1596 N 0.88600 0.93751 0.42379
 C1597 C 0.87387 0.90026 0.39730
 N1598 N 0.85211 0.90771 0.38800
 N1599 N 0.83639 0.89248 0.37580
 C1600 C 0.84183 0.86929 0.37302
 N1601 N 0.86347 0.86191 0.38270
 N1602 N 0.87922 0.87712 0.39444
 C1603 C 0.82532 0.85226 0.35856
 N1604 N 0.82923 0.82892 0.36292
 N1605 N 0.81576 0.81307 0.34767
 C1606 C 0.79797 0.81995 0.32724
 N1607 N 0.79383 0.84334 0.32309
 N1608 N 0.80723 0.85925 0.33863
 C1609 C 0.89968 0.58998 0.60263
 N1610 N 0.89248 0.56903 0.58980
 N1611 N 0.90770 0.55494 0.57451
 C1612 C 0.93064 0.56128 0.57170
 N1613 N 0.93775 0.58217 0.58461
 N1614 N 0.92256 0.59627 0.59965
 C1615 C 0.88326 0.60590 0.61934
 N1616 N 0.89021 0.62808 0.62709
 N1617 N 0.87567 0.64280 0.64225
 C1618 C 0.85365 0.63587 0.65053
 N1619 N 0.84665 0.61363 0.64293
 N1620 N 0.86118 0.59891 0.62751
 C1621 C 0.83783 0.65254 0.66694
 N1622 N 0.81707 0.64543 0.68017
 N1623 N 0.80295 0.66089 0.69491
 C1624 C 0.80905 0.68400 0.69675
 N1625 N 0.82977 0.69102 0.68349
 N1626 N 0.84392 0.67559 0.66901
 C1627 C 0.60839 0.41903 0.09443
 N1628 N 0.58812 0.42409 0.11041
 N1629 N 0.57154 0.43696 0.09555
 C1630 C 0.57475 0.44557 0.06435
 N1631 N 0.59516 0.44079 0.04847
 N1632 N 0.61162 0.42757 0.06316
 C1633 C 0.62600 0.40381 0.11043
 N1634 N 0.64052 0.39031 0.09188
 N1635 N 0.65541 0.37535 0.10652
 C1636 C 0.65655 0.37362 0.14022
 N1637 N 0.64227 0.38738 0.15875
 N1638 N 0.62714 0.40206 0.14412
 C1639 C 0.67206 0.35633 0.15637
 N1640 N 0.67930 0.35930 0.18838
 N1641 N 0.69261 0.34311 0.20342
 C1642 C 0.69883 0.32319 0.18717
 N1643 N 0.69155 0.32020 0.15520
 N1644 N 0.67854 0.33655 0.14000
 C1645 C 0.39318 0.91462 0.40820
 N1646 N 0.41575 0.90734 0.41148
 N1647 N 0.43198 0.92135 0.42485
 C1648 C 0.42627 0.94313 0.43585
 N1649 N 0.40363 0.95046 0.43285
 N1650 N 0.38736 0.93647 0.41911
 C1651 C 0.37576 0.89875 0.39296
 N1652 N 0.35466 0.90668 0.38152
 N1653 N 0.33956 0.89197 0.36666
 C1654 C 0.34501 0.86883 0.36299
 N1655 N 0.36600 0.86099 0.37468
 N1656 N 0.38111 0.87567 0.38920
 C1657 C 0.32891 0.85220 0.34652
 N1658 N 0.33328 0.82878 0.34865
 N1659 N 0.31944 0.81334 0.33323
 C1660 C 0.30076 0.82066 0.31480
 N1661 N 0.29630 0.84412 0.31257
 N1662 N 0.31011 0.85964 0.32827
 C1663 C 0.10057 0.08089 0.89071
 N1664 N 0.10518 0.07117 0.92098
 N1665 N 0.08920 0.05779 0.93609
 C1666 C 0.06786 0.05396 0.92176
 N1667 N 0.06321 0.06374 0.89152
 N1668 N 0.07934 0.07682 0.87616
 C1669 C 0.11785 0.09645 0.87481
 N1670 N 0.11826 0.09919 0.84121
 N1671 N 0.13356 0.11389 0.82705
 C1672 C 0.14875 0.12663 0.84605
 N1673 N 0.14827 0.12393 0.87962
 N1674 N 0.13325 0.10897 0.89372
 C1675 C 0.16464 0.14397 0.83090
 N1676 N 0.17082 0.16361 0.84799
 N1677 N 0.18462 0.17983 0.83422
 C1678 C 0.19313 0.17684 0.80306
 N1679 N 0.18719 0.15705 0.78602
 N1680 N 0.17301 0.14099 0.79961
 C1681 C 0.10499 0.92021 0.08633
 N1682 N 0.08592 0.92694 0.10395
 N1683 N 0.06938 0.94033 0.08994
 C1684 C 0.07149 0.94779 0.05797
 N1685 N 0.09071 0.94131 0.04044
 N1686 N 0.10709 0.92759 0.05430
 C1687 C 0.12251 0.90449 0.10142
 N1688 N 0.13528 0.88971 0.08224
 N1689 N 0.15018 0.87445 0.09617
 C1690 C 0.15310 0.87369 0.12973
 N1691 N 0.14058 0.88870 0.14886
 N1692 N 0.12542 0.90370 0.13497
 C1693 C 0.16865 0.85618 0.14522
 N1694 N 0.17793 0.85988 0.17600
 N1695 N 0.19129 0.84354 0.19060
 C1696 C 0.19553 0.82277 0.17516
 N1697 N 0.18621 0.81907 0.14441
 N1698 N 0.17315 0.83555 0.12960
 C1699 C 0.89294 0.41618 0.42409
 N1700 N 0.91579 0.40956 0.42599
 N1701 N 0.93190 0.42383 0.43909
 C1702 C 0.92581 0.44520 0.45119
 N1703 N 0.90289 0.45185 0.44957
 N1704 N 0.88673 0.43762 0.43610
 C1705 C 0.87563 0.40006 0.40911
 N1706 N 0.85407 0.40757 0.39889
 N1707 N 0.83906 0.39271 0.38417
 C1708 C 0.84505 0.36981 0.37945
 N1709 N 0.86649 0.36237 0.38994
 N1710 N 0.88151 0.37721 0.40432
 C1711 C 0.82911 0.35303 0.36293
 N1712 N 0.83424 0.32974 0.36385
 N1713 N 0.82068 0.31422 0.34811
 C1714 C 0.80150 0.32133 0.33056
 N1715 N 0.79625 0.34467 0.32959
 N1716 N 0.80979 0.36026 0.34561
 C1717 C 0.40175 0.08579 0.59125
 N1718 N 0.39430 0.06578 0.57594
 N1719 N 0.40953 0.05191 0.56027
 C1720 C 0.43276 0.05748 0.55951
 N1721 N 0.44014 0.07743 0.57490
 N1722 N 0.42494 0.09134 0.59034
 C1723 C 0.38521 0.10153 0.60831
 N1724 N 0.39252 0.12308 0.61857
 N1725 N 0.37783 0.13762 0.63385
 C1726 C 0.35528 0.13114 0.63977
 N1727 N 0.34792 0.10951 0.62967
 N1728 N 0.36261 0.09498 0.61413
 C1729 C 0.33926 0.14773 0.65621
 N1730 N 0.31777 0.14088 0.66728
 N1731 N 0.30352 0.15628 0.68194
 C1732 C 0.31020 0.17911 0.68584
 N1733 N 0.33165 0.18586 0.67472
 N1734 N 0.34591 0.17048 0.66035
 C1735 C 0.59981 0.58175 0.89684
 N1736 N 0.60754 0.56256 0.91399
 N1737 N 0.59235 0.54849 0.92962
 C1738 C 0.56893 0.55307 0.92845
 N1739 N 0.56130 0.57215 0.91111
 N1740 N 0.57643 0.58624 0.89572
 C1741 C 0.61619 0.59806 0.88055
 N1742 N 0.60824 0.61916 0.86932
 N1743 N 0.62279 0.63447 0.85513
 C1744 C 0.64584 0.62921 0.85132
 N1745 N 0.65385 0.60802 0.86230
 N1746 N 0.63928 0.59272 0.87679
 C1747 C 0.66166 0.64673 0.83647
 N1748 N 0.68370 0.64098 0.82661
 N1749 N 0.69780 0.65728 0.81343
 C1750 C 0.69039 0.67990 0.80992
 N1751 N 0.66840 0.68555 0.81983
 N1752 N 0.65428 0.66927 0.83269
 C1753 C 0.39136 0.41726 0.90936
 N1754 N 0.41427 0.41095 0.90779
 N1755 N 0.43098 0.42495 0.91991
 C1756 C 0.42541 0.44569 0.93440
 N1757 N 0.40246 0.45211 0.93599
 N1758 N 0.38570 0.43819 0.92344
 C1759 C 0.37330 0.40100 0.89707
 N1760 N 0.35162 0.40860 0.88765
 N1761 N 0.33577 0.39345 0.87555
 C1762 C 0.34101 0.37020 0.87301
 N1763 N 0.36258 0.36268 0.88281
 N1764 N 0.37845 0.37780 0.89443
 C1765 C 0.32438 0.35325 0.85867
 N1766 N 0.32804 0.32990 0.86338
 N1767 N 0.31451 0.31409 0.84820
 C1768 C 0.29689 0.32099 0.82749
 N1769 N 0.29299 0.34440 0.82299
 N1770 N 0.30645 0.36028 0.83847
 C1771 C 0.89906 0.08443 0.10240
 N1772 N 0.89170 0.06463 0.08657
 N1773 N 0.90711 0.05069 0.07150
 C1774 C 0.93040 0.05597 0.07206
 N1775 N 0.93772 0.07558 0.08830
 N1776 N 0.92233 0.08959 0.10308
 C1777 C 0.88230 0.10078 0.11716
 N1778 N 0.88928 0.12297 0.12474
 N1779 N 0.87418 0.13831 0.13737
 C1780 C 0.85160 0.13196 0.14315
 N1781 N 0.84459 0.10970 0.13580
 N1782 N 0.85967 0.09439 0.12281
 C1783 C 0.83534 0.14912 0.15720
 N1784 N 0.81480 0.14225 0.17125
 N1785 N 0.80071 0.15805 0.18524
 C1786 C 0.80659 0.18125 0.18529
 N1787 N 0.82698 0.18806 0.17089
 N1788 N 0.84113 0.17229 0.15722
 C1789 C 0.61046 0.92417 0.59207
 N1790 N 0.59086 0.93001 0.60924
 N1791 N 0.57403 0.94294 0.59498
 C1792 C 0.57638 0.95082 0.56324
 N1793 N 0.59613 0.94526 0.54626
 N1794 N 0.61279 0.93204 0.56033
 C1795 C 0.62827 0.90871 0.60707
 N1796 N 0.64209 0.89511 0.58759
 N1797 N 0.65740 0.88011 0.60121
 C1798 C 0.65968 0.87846 0.63479
 N1799 N 0.64608 0.89228 0.65425
 N1800 N 0.63053 0.90701 0.64064
 C1801 C 0.67573 0.86124 0.64999
 N1802 N 0.68362 0.86425 0.68165
 N1803 N 0.69706 0.84800 0.69623
 C1804 C 0.70288 0.82800 0.67986
 N1805 N 0.69504 0.82499 0.64815
 N1806 N 0.68186 0.84143 0.63338
 C1807 C 0.10218 0.57880 0.39594
 N1808 N 0.10650 0.56949 0.42648
 N1809 N 0.09062 0.55585 0.44118
 C1810 C 0.06970 0.55128 0.42609
 N1811 N 0.06534 0.56056 0.39548
 N1812 N 0.08142 0.57394 0.38052
 C1813 C 0.11913 0.59501 0.38099
 N1814 N 0.12021 0.59786 0.34748
 N1815 N 0.13533 0.61311 0.33423
 C1816 C 0.14958 0.62630 0.35405
 N1817 N 0.14840 0.62351 0.38753
 N1818 N 0.13357 0.60799 0.40075
 C1819 C 0.16540 0.64383 0.33964
 N1820 N 0.17120 0.66353 0.35692
 N1821 N 0.18482 0.68000 0.34333
 C1822 C 0.19346 0.67711 0.31225
 N1823 N 0.18791 0.65727 0.29514
 N1824 N 0.17398 0.64099 0.30851
   
