data_POSCAR
  _audit_creation_date              2014-09-24
  _audit_creation_method            'ToBaCCo'
  _symmetry_space_group_name_H-M    'P1'
  _symmetry_Int_Tables_number       1
  _symmetry_cell_setting            triclinic
  loop_
  _symmetry_equiv_pos_as_xyz
 x,y,z
_cell_length_a 36.4873
_cell_length_b 36.5448
_cell_length_c 36.2054
_cell_angle_alpha 89.745600
_cell_angle_beta 89.683600
_cell_angle_gamma 89.838100
loop_
  _atom_site_label
  _atom_site_type_symbol
  _atom_site_fract_x
  _atom_site_fract_y
  _atom_site_fract_z
C1 C 0.36196 0.36824 0.31693
 N2 N 0.37994 0.33769 0.32913
 C3 C 0.36824 0.31900 0.35948
 N4 N 0.33780 0.33134 0.37782
 C5 C 0.31933 0.36161 0.36628
 N6 N 0.33182 0.37980 0.33573
 C7 C 0.35949 0.86639 0.81841
 N8 N 0.37732 0.83585 0.83088
 C9 C 0.36528 0.81747 0.86127
 N10 N 0.33473 0.82986 0.87924
 C11 C 0.31642 0.86007 0.86739
 N12 N 0.32917 0.87812 0.83681
 C13 C 0.86281 0.36625 0.81638
 N14 N 0.83247 0.37782 0.83470
 C15 C 0.81945 0.35934 0.86477
 N16 N 0.83737 0.32872 0.87624
 C17 C 0.86802 0.31637 0.85822
 N18 N 0.88036 0.33539 0.82834
 C19 C 0.85973 0.86812 0.31757
 N20 N 0.87734 0.83733 0.32990
 C21 C 0.86504 0.81865 0.36004
 N22 N 0.83451 0.83106 0.37800
 C23 C 0.81658 0.86153 0.36638
 N24 N 0.82944 0.87981 0.33607
 C25 C 0.63832 0.64241 0.31251
 N26 N 0.62503 0.67192 0.33099
 C27 C 0.64186 0.68458 0.36196
 N28 N 0.67280 0.66761 0.37390
 C29 C 0.68689 0.63813 0.35564
 N30 N 0.66935 0.62570 0.32522
 C31 C 0.63774 0.14165 0.81415
 N32 N 0.66894 0.12524 0.82683
 C33 C 0.68652 0.13806 0.85706
 N34 N 0.67237 0.16759 0.87510
 C35 C 0.64130 0.18423 0.86317
 N36 N 0.62436 0.17121 0.83244
 C37 C 0.13850 0.64295 0.81139
 N38 N 0.12481 0.67232 0.82975
 C39 C 0.14126 0.68528 0.86085
 N40 N 0.17229 0.66857 0.87301
 C41 C 0.18671 0.63913 0.85495
 N42 N 0.16953 0.62649 0.82440
 C43 C 0.14075 0.14430 0.31219
 N44 N 0.12654 0.17304 0.33101
 C45 C 0.14340 0.18656 0.36152
 N46 N 0.17516 0.17075 0.37289
 C47 C 0.19013 0.14170 0.35449
 N48 N 0.17262 0.12871 0.32417
 C49 C 0.63754 0.35596 0.68843
 N50 N 0.66707 0.37423 0.67444
 C51 C 0.68424 0.36269 0.64325
 N52 N 0.67168 0.33200 0.62600
 C53 C 0.64206 0.31349 0.63926
 N54 N 0.62525 0.32588 0.67059
 C55 C 0.64080 0.85665 0.18539
 N56 N 0.67005 0.87501 0.17091
 C57 C 0.68660 0.86372 0.13927
 N58 N 0.67351 0.83331 0.12204
 C59 C 0.64444 0.81461 0.13591
 N60 N 0.62825 0.82651 0.16771
 C61 C 0.14003 0.35722 0.18967
 N62 N 0.16902 0.37579 0.17467
 C63 C 0.18519 0.36471 0.14275
 N64 N 0.17200 0.33427 0.12566
 C65 C 0.14325 0.31532 0.13988
 N66 N 0.12742 0.32703 0.17199
 C67 C 0.14009 0.85745 0.68757
 N68 N 0.12728 0.82741 0.66989
 C69 C 0.14353 0.81492 0.63823
 N70 N 0.17301 0.83322 0.62445
 C71 C 0.18598 0.86377 0.64144
 N72 N 0.16944 0.87546 0.67287
 C73 C 0.36151 0.64079 0.68418
 N74 N 0.37397 0.67192 0.66794
 C75 C 0.35670 0.68657 0.63810
 N76 N 0.32668 0.66952 0.62452
 C77 C 0.31350 0.63831 0.64049
 N78 N 0.33106 0.62433 0.67041
 C79 C 0.36305 0.14049 0.18485
 N80 N 0.37530 0.17206 0.16934
 C81 C 0.35772 0.18775 0.14018
 N82 N 0.32742 0.17111 0.12652
 C83 C 0.31437 0.13944 0.14175
 N84 N 0.33236 0.12454 0.17092
 C85 C 0.86368 0.63979 0.18625
 N86 N 0.83310 0.62366 0.17255
 C87 C 0.81490 0.63866 0.14359
 N88 N 0.82756 0.67042 0.12832
 C89 C 0.85796 0.68710 0.14173
 N90 N 0.87576 0.67143 0.17077
 C91 C 0.86254 0.13789 0.68646
 N92 N 0.83180 0.12193 0.67271
 C93 C 0.81350 0.13707 0.64391
 N94 N 0.82619 0.16879 0.62870
 C95 C 0.85673 0.18523 0.64198
 N96 N 0.87467 0.16955 0.67091
 C97 C 0.36185 0.35707 0.68630
 N98 N 0.37523 0.32802 0.66727
 C99 C 0.35801 0.31532 0.63655
 N100 N 0.32682 0.33233 0.62524
 C101 C 0.31273 0.36160 0.64396
 N102 N 0.33051 0.37366 0.67443
 C103 C 0.36158 0.85674 0.18520
 N104 N 0.37499 0.82768 0.16621
 C105 C 0.35751 0.81468 0.13576
 N106 N 0.32606 0.83134 0.12470
 C107 C 0.31199 0.86064 0.14329
 N108 N 0.33002 0.87306 0.17349
 C109 C 0.86159 0.35560 0.18650
 N110 N 0.82999 0.37196 0.17484
 C111 C 0.81224 0.35983 0.14439
 N112 N 0.82647 0.33082 0.12547
 C113 C 0.85792 0.31414 0.13653
 N114 N 0.87518 0.32682 0.16721
 C115 C 0.86057 0.85574 0.68675
 N116 N 0.82880 0.87175 0.67517
 C117 C 0.81123 0.85960 0.64463
 N118 N 0.82587 0.83094 0.62546
 C119 C 0.85752 0.81468 0.63647
 N120 N 0.87458 0.82727 0.66729
 C121 C 0.63676 0.63242 0.68304
 N122 N 0.61905 0.66298 0.67049
 C123 C 0.63130 0.68129 0.64014
 N124 N 0.66193 0.66880 0.62234
 C125 C 0.67996 0.63853 0.63436
 N126 N 0.66711 0.62059 0.66485
 C127 C 0.63880 0.13469 0.18239
 N128 N 0.66917 0.12247 0.16432
 C129 C 0.68217 0.14006 0.13360
 N130 N 0.66431 0.17026 0.12121
 C131 C 0.63374 0.18327 0.13875
 N132 N 0.62134 0.16527 0.16926
 C133 C 0.13757 0.63499 0.18509
 N134 N 0.12041 0.66569 0.17195
 C135 C 0.13314 0.68361 0.14152
 N136 N 0.16372 0.67036 0.12408
 C137 C 0.18131 0.63998 0.13657
 N138 N 0.16786 0.62257 0.16717
 C139 C 0.13982 0.13447 0.68218
 N140 N 0.12256 0.16535 0.66943
 C141 C 0.13522 0.18376 0.63926
 N142 N 0.16574 0.17081 0.62163
 C143 C 0.18333 0.14031 0.63361
 N144 N 0.17016 0.12235 0.66403
 C145 C 0.36194 0.64506 0.31082
 N146 N 0.37398 0.67511 0.32897
 C147 C 0.35732 0.68672 0.36059
 N148 N 0.32806 0.66780 0.37389
 C149 C 0.31536 0.63742 0.35625
 N150 N 0.33256 0.62640 0.32481
 C151 C 0.36007 0.14422 0.81352
 N152 N 0.37189 0.17437 0.83171
 C153 C 0.35526 0.18567 0.86354
 N154 N 0.32639 0.16634 0.87698
 C155 C 0.31397 0.13592 0.85931
 N156 N 0.33102 0.12523 0.82768
 C157 C 0.86131 0.64335 0.81176
 N158 N 0.87356 0.67335 0.82981
 C159 C 0.85744 0.68460 0.86188
 N160 N 0.82862 0.66534 0.87565
 C161 C 0.81592 0.63500 0.85800
 N162 N 0.83240 0.62436 0.82612
 C163 C 0.86115 0.14375 0.31335
 N164 N 0.83193 0.12503 0.32743
 C165 C 0.81502 0.13571 0.35911
 N166 N 0.82781 0.16590 0.37696
 C167 C 0.85692 0.18500 0.36357
 N168 N 0.87336 0.17368 0.33166
 C169 C 0.63830 0.35813 0.31492
 N170 N 0.66890 0.37453 0.32838
 C171 C 0.68712 0.36000 0.35757
 N172 N 0.67456 0.32850 0.37328
 C173 C 0.64420 0.31157 0.36024
 N174 N 0.62626 0.32671 0.33097
 C175 C 0.63560 0.85885 0.81520
 N176 N 0.62360 0.82738 0.83110
 C177 C 0.64189 0.81192 0.85989
 N178 N 0.67261 0.82840 0.87264
 C179 C 0.68518 0.85998 0.85704
 N180 N 0.66655 0.87493 0.82831
 C181 C 0.13676 0.35833 0.81416
 N182 N 0.16700 0.37514 0.82791
 C183 C 0.18531 0.36086 0.85714
 N184 N 0.17315 0.32913 0.87275
 C185 C 0.14313 0.31174 0.85951
 N186 N 0.12515 0.32666 0.83016
 C187 C 0.13710 0.85896 0.31344
 N188 N 0.12545 0.82756 0.32993
 C189 C 0.14384 0.81267 0.35903
 N190 N 0.17433 0.82983 0.37151
 C191 C 0.18653 0.86133 0.35540
 N192 N 0.16779 0.87557 0.32645
 O193 O 1.12433 1.03907 1.18243
 O194 O 1.16446 1.03805 1.22725
 C195 C 1.13631 1.05185 1.21249
 C196 C 1.11923 1.08398 1.23030
 C197 C 1.13444 1.09760 1.26291
 H198 H 1.15688 1.08298 1.27577
 O199 O 0.86314 0.97480 1.18474
 O200 O 0.81979 0.97678 1.22759
 C201 C 0.84941 0.96292 1.21498
 C202 C 0.86827 0.93190 1.23403
 C203 C 0.85491 0.91582 1.26993
 H204 H 0.83093 0.92763 1.28306
 O205 O 1.03737 1.18695 1.12309
 O206 O 1.03669 1.23090 1.16423
 C207 C 1.05030 1.21661 1.13554
 C208 C 1.08253 1.23428 1.11826
 C209 C 1.09628 1.26662 1.13342
 H210 H 1.08149 1.27954 1.15589
 O211 O 0.95528 0.82231 1.13378
 O212 O 0.95503 0.77910 1.17632
 C213 C 0.94269 0.79241 1.14644
 C214 C 0.91284 0.77316 1.12705
 C215 C 0.89990 0.73738 1.14118
 H216 H 0.91449 0.72531 1.16421
 O217 O 1.18449 1.12551 1.03754
 O218 O 1.22877 1.16616 1.03659
 C219 C 1.21430 1.13777 1.05041
 C220 C 1.23220 1.12017 1.08246
 C221 C 1.26640 1.13608 1.09713
 H222 H 1.27833 1.15906 1.08244
 O223 O 0.81727 0.87851 1.03602
 O224 O 0.77262 0.83859 1.03679
 C225 C 0.78690 0.86753 1.04890
 C226 C 0.76784 0.88648 1.07935
 C227 C 0.73346 0.87039 1.09370
 H228 H 0.72197 0.84748 1.07888
 O229 O 0.96409 1.14302 1.17780
 O230 O 0.96360 1.18722 1.21923
 C231 C 0.95120 1.15691 1.20739
 C232 C 0.92096 1.13734 1.22703
 C233 C 0.90584 1.15019 1.26330
 H234 H 0.91757 1.17429 1.27587
 O235 O 1.02812 0.86862 1.18530
 O236 O 1.02727 0.82587 1.22856
 C237 C 1.04071 0.85516 1.21513
 C238 C 1.07184 0.87362 1.23346
 C239 C 1.08896 0.85786 1.26739
 H240 H 1.07778 0.83287 1.27900
 O241 O 1.17902 0.96506 1.14025
 O242 O 1.21976 0.96463 1.18520
 C243 C 1.20806 0.95197 1.15469
 C244 C 1.22708 0.92111 1.13563
 C245 C 1.26284 0.90582 1.14890
 H246 H 1.27555 0.91797 1.17286
 O247 O 0.81939 1.04415 1.12538
 O248 O 0.77698 1.04671 1.16836
 C249 C 0.78957 1.05725 1.13758
 C250 C 0.76917 1.08571 1.11726
 C251 C 0.73527 1.09755 1.13099
 H252 H 0.72374 1.08399 1.15501
 O253 O 0.86687 1.18630 1.02681
 O254 O 0.82309 1.22817 1.02571
 C255 C 0.85283 1.21578 1.03923
 C256 C 0.87147 1.23466 1.07023
 C257 C 0.85578 1.26825 1.08788
 H258 H 0.83045 1.27953 1.07722
 O259 O 1.12399 0.81892 1.04356
 O260 O 1.16635 0.77645 1.04664
 C261 C 1.13589 0.78926 1.05718
 C262 C 1.11562 0.76925 1.08626
 C263 C 1.13022 0.73375 1.09923
 H264 H 1.15360 0.72251 1.08456
 O265 O 0.86753 1.04639 1.17832
 O266 O 0.82667 1.04556 1.22313
 C267 C 0.85577 1.05838 1.20904
 C268 C 0.87488 1.08822 1.22849
 C269 C 0.86224 1.09964 1.26129
 H270 H 0.83945 1.08541 1.27408
 O271 O 1.12425 0.96675 1.18632
 O272 O 1.16654 0.96447 1.22922
 C273 C 1.13686 0.95288 1.21589
 C274 C 1.11846 0.92195 1.23463
 C275 C 1.13307 0.90782 1.26552
 H276 H 1.15686 0.92066 1.27757
 O277 O 1.02674 0.81480 1.13930
 O278 O 1.02388 0.77334 1.18391
 C279 C 1.03806 0.78492 1.15383
 C280 C 1.06889 0.76524 1.13524
 C281 C 1.08332 0.73321 1.14776
 H282 H 1.07157 0.71999 1.17188
 O283 O 0.96480 1.18779 1.12193
 O284 O 0.96491 1.23151 1.16329
 C285 C 0.95206 1.21772 1.13417
 C286 C 0.92087 1.23637 1.11612
 C287 C 0.90682 1.26685 1.13117
 H288 H 0.92007 1.27877 1.15493
 O289 O 0.81571 1.13766 1.02633
 O290 O 0.77306 1.18068 1.02367
 C291 C 0.78555 1.15131 1.03798
 C292 C 0.76639 1.13268 1.06928
 C293 C 0.73251 1.14504 1.08413
 H294 H 0.71894 1.16849 1.07190
 O295 O 1.17759 0.86620 1.04533
 O296 O 1.22173 0.82519 1.04510
 C297 C 1.20803 0.85449 1.05756
 C298 C 1.22766 0.87392 1.08725
 C299 C 1.26008 0.86115 1.09900
 H300 H 1.27239 0.83789 1.08522
 O301 O 0.95710 0.87555 1.18172
 O302 O 0.95491 0.83382 1.22518
 C303 C 0.94418 0.86395 1.21212
 C304 C 0.91563 0.88399 1.23285
 C305 C 0.90430 0.87091 1.26563
 H306 H 0.91806 0.84740 1.27754
 O307 O 1.03521 1.14218 1.17880
 O308 O 1.03535 1.18664 1.21995
 C309 C 1.04749 1.15595 1.20853
 C310 C 1.07679 1.13577 1.22876
 C311 C 1.09274 1.14932 1.26150
 H312 H 1.08298 1.17486 1.27305
 O313 O 0.81315 0.97371 1.13458
 O314 O 0.77117 0.97495 1.17881
 C315 C 0.78364 0.96140 1.14893
 C316 C 0.76499 0.93050 1.13032
 C317 C 0.73418 0.91467 1.14394
 H318 H 0.72170 0.92504 1.16903
 O319 O 1.18237 1.03623 1.14051
 O320 O 1.22371 1.03424 1.18488
 C321 C 1.21248 1.04727 1.15427
 C322 C 1.23317 1.07633 1.13421
 C323 C 1.26462 1.09089 1.14717
 H324 H 1.27642 1.08033 1.17246
 O325 O 0.85839 0.82018 1.03833
 O326 O 0.81439 0.77882 1.03761
 C327 C 0.84436 0.79064 1.05073
 C328 C 0.86337 0.77098 1.08117
 C329 C 0.85138 0.73863 1.09480
 H330 H 0.82754 0.72574 1.08286
 O331 O 1.14080 1.18171 1.03473
 O332 O 1.18570 1.22217 1.03400
 C333 C 1.15487 1.21134 1.04655
 C334 C 1.13474 1.23207 1.07577
 C335 C 1.14847 1.26460 1.09168
 H336 H 1.17423 1.27580 1.08193
 Cu337 Cu 1.14844 1.00186 1.15757
 Cu338 Cu 1.19532 1.00138 1.21197
 Cu339 Cu 0.84542 1.00921 1.15143
 Cu340 Cu 0.79429 1.01371 1.20222
 Cu341 Cu 1.00039 1.16038 1.14625
 Cu342 Cu 1.00008 1.21395 1.19448
 Cu343 Cu 0.99227 0.84942 1.15518
 Cu344 Cu 0.98791 0.80070 1.20820
 C345 C 1.09031 1.10289 1.21367
 H346 H 1.07905 1.09242 1.18820
 C347 C 1.12197 1.13026 1.27867
 C348 C 0.89731 0.91625 1.21701
 H349 H 0.90728 0.92643 1.19068
 C350 C 0.87208 0.88628 1.28513
 C351 C 1.10156 1.21752 1.08931
 H352 H 1.09094 1.19226 1.07813
 C353 C 1.12924 1.28200 1.12092
 C354 C 0.89571 0.78861 1.09825
 H355 H 0.90468 0.81504 1.08805
 C356 C 0.87050 0.72054 1.12655
 C357 C 1.21689 1.09163 1.09990
 H358 H 1.19157 1.08026 1.08957
 C359 C 1.28235 1.12275 1.12788
 C360 C 0.78243 0.91526 1.09646
 H361 H 0.80802 0.92658 1.08640
 C362 C 0.71750 0.88240 1.12493
 C363 C 0.90591 1.10768 1.21107
 H364 H 0.91579 1.09796 1.18459
 C365 C 0.87757 1.13225 1.27985
 C366 C 1.08613 0.90423 1.21832
 H367 H 1.07463 0.91594 1.19339
 C368 C 1.11858 0.87391 1.28273
 C369 C 1.21093 0.90559 1.10613
 H370 H 1.18480 0.91555 1.09616
 C371 C 1.27885 0.87702 1.13143
 C372 C 0.78415 1.10280 1.08620
 H373 H 0.81055 1.09350 1.07604
 C374 C 0.71670 1.12731 1.11532
 C375 C 0.90258 1.22008 1.08398
 H376 H 0.91439 1.19550 1.07219
 C377 C 0.87245 1.28367 1.11738
 C378 C 1.08616 0.78360 1.10283
 H379 H 1.07583 0.80987 1.09355
 C380 C 1.11605 0.71625 1.12881
 O381 O 1.13043 0.95546 0.82271
 O382 O 1.17324 0.95269 0.77992
 C383 C 1.14307 0.94158 0.79325
 C384 C 1.12376 0.91159 0.77424
 C385 C 1.13785 0.89910 0.73812
 H386 H 1.16029 0.91432 0.72586
 O387 O 0.87741 1.03241 0.81584
 O388 O 0.83738 1.03267 0.77076
 C389 C 0.86610 1.04517 0.78530
 C390 C 0.88470 1.07595 0.76663
 C391 C 0.86823 1.09126 0.73259
 H392 H 0.84481 1.07733 0.72102
 O393 O 0.97329 1.18333 0.86109
 O394 O 0.97538 1.22485 0.81654
 C395 C 0.96148 1.21305 0.84672
 C396 C 0.93043 1.23234 0.86560
 C397 C 0.91488 1.26827 0.85249
 H398 H 0.92716 1.28149 0.82863
 O399 O 1.03549 0.81288 0.87835
 O400 O 1.03561 0.76848 0.83772
 C401 C 1.04839 0.78284 0.86657
 C402 C 1.07965 0.76456 0.88471
 C403 C 1.09520 0.73130 0.86750
 H404 H 1.08104 0.72003 0.84395
 O405 O 1.18297 0.86214 0.97310
 O406 O 1.22548 0.81900 0.97560
 C407 C 1.21305 0.84852 0.96136
 C408 C 1.23223 0.86748 0.93015
 C409 C 1.26821 0.85455 0.91453
 H410 H 1.28122 0.83072 0.92668
 O411 O 0.82290 1.13171 0.95435
 O412 O 0.77858 1.17254 0.95448
 C413 C 0.79250 1.14327 0.94205
 C414 C 0.77318 1.12361 0.91237
 C415 C 0.73919 1.13658 0.90025
 H416 H 0.72678 1.15964 0.91429
 O417 O 1.04304 1.12321 0.81884
 O418 O 1.04535 1.16477 0.77518
 C419 C 1.05613 1.13473 0.78851
 C420 C 1.08487 1.11474 0.76810
 C421 C 1.09760 1.12990 0.73240
 H422 H 1.08290 1.15323 0.72130
 O423 O 0.96519 0.85739 0.82090
 O424 O 0.96481 0.81227 0.78049
 C425 C 0.95284 0.84321 0.79142
 C426 C 0.92373 0.86336 0.77094
 C427 C 0.90815 0.85000 0.73792
 H428 H 0.91792 0.82447 0.72634
 O429 O 1.18512 1.02762 0.86634
 O430 O 1.22856 1.02481 0.82372
 C431 C 1.21530 1.03915 0.85293
 C432 C 1.23403 1.07001 0.87181
 C433 C 1.26811 1.08738 0.85652
 H434 H 1.27985 1.07673 0.83120
 O435 O 0.81954 0.96276 0.86100
 O436 O 0.77981 0.96269 0.81517
 C437 C 0.79035 0.95057 0.84641
 C438 C 0.76977 0.92130 0.86621
 C439 C 0.73677 0.90655 0.85250
 H440 H 0.72525 0.91731 0.82717
 O441 O 1.14003 1.17798 0.96304
 O442 O 1.18460 1.21870 0.96185
 C443 C 1.15420 1.20694 0.94957
 C444 C 1.13504 1.22611 0.91881
 C445 C 1.14823 1.26193 0.90389
 H446 H 1.17199 1.27441 0.91641
 O447 O 0.86014 0.81843 0.96653
 O448 O 0.81486 0.77837 0.96744
 C449 C 0.84582 0.78893 0.95484
 C450 C 0.86586 0.76806 0.92569
 C451 C 0.85215 0.73539 0.91008
 H452 H 0.82641 0.72420 0.91991
 O453 O 0.87591 0.96012 0.81721
 O454 O 0.83621 0.96116 0.77190
 C455 C 0.86424 0.94741 0.78693
 C456 C 0.88157 0.91538 0.76915
 C457 C 0.86686 0.90204 0.73623
 H458 H 0.84476 0.91696 0.72312
 O459 O 1.13819 1.02645 0.81336
 O460 O 1.18142 1.02299 0.77053
 C461 C 1.15209 1.03754 0.78287
 C462 C 1.13359 1.06850 0.76337
 C463 C 1.14603 1.08356 0.73126
 H464 H 1.17005 1.07224 0.71777
 O465 O 0.96294 0.81333 0.87720
 O466 O 0.96374 0.76860 0.83690
 C467 C 0.95012 0.78336 0.86536
 C468 C 0.91800 0.76577 0.88306
 C469 C 0.90436 0.73321 0.86837
 H470 H 0.91923 0.72013 0.84606
 O471 O 1.04498 1.17788 0.86489
 O472 O 1.04444 1.22116 0.82241
 C473 C 1.05712 1.20798 0.85217
 C474 C 1.08690 1.22748 0.87138
 C475 C 1.09878 1.25990 0.85866
 H476 H 1.08523 1.27244 0.83524
 O477 O 0.81450 0.87295 0.96345
 O478 O 0.77113 0.83124 0.96302
 C479 C 0.78524 0.86007 0.94977
 C480 C 0.76780 0.87756 0.91741
 C481 C 0.73500 0.86341 0.90359
 H482 H 0.72192 0.84091 0.91802
 O483 O 1.18519 1.12294 0.96465
 O484 O 1.22936 1.16349 0.96443
 C485 C 1.21550 1.13450 0.95195
 C486 C 1.23475 1.11596 0.92123
 C487 C 1.26582 1.13046 0.90777
 H488 H 1.27772 1.15391 0.92132
 O489 O 1.03624 0.85641 0.82152
 O490 O 1.03645 0.81150 0.78086
 C491 C 1.04893 0.84200 0.79211
 C492 C 1.07906 0.86130 0.77212
 C493 C 1.09284 0.84964 0.73938
 H494 H 1.08141 0.82565 0.72633
 O495 O 0.97229 1.13113 0.81309
 O496 O 0.97317 1.17416 0.77010
 C497 C 0.95985 1.14474 0.78323
 C498 C 0.92905 1.12624 0.76458
 C499 C 0.91329 1.14037 0.73397
 H500 H 0.92382 1.16541 0.72188
 O501 O 0.82086 1.03384 0.85962
 O502 O 0.78084 1.03427 0.81403
 C503 C 0.79198 1.04680 0.84478
 C504 C 0.77247 1.07738 0.86376
 C505 C 0.73844 1.09137 0.85141
 H506 H 0.72542 1.07934 0.82757
 O507 O 1.18130 0.95665 0.87330
 O508 O 1.22414 0.95410 0.83067
 C509 C 1.21130 0.94356 0.86134
 C510 C 1.23166 0.91501 0.88179
 C511 C 1.26445 0.90401 0.86914
 H512 H 1.27657 0.91796 0.84565
 O513 O 1.13412 0.81103 0.97244
 O514 O 1.17799 0.76925 0.97431
 C515 C 1.14845 0.78150 0.96032
 C516 C 1.13030 0.76254 0.92911
 C517 C 1.14466 0.73244 0.91267
 H518 H 1.16992 0.72063 0.92291
 O519 O 0.87442 1.18116 0.95542
 O520 O 0.83163 1.22325 0.95295
 C521 C 0.86214 1.21086 0.94216
 C522 C 0.88213 1.23138 0.91324
 C523 C 0.86932 1.26392 0.90198
 H524 H 0.84576 1.27569 0.91588
 Cu525 Cu 1.15422 0.99214 0.84812
 Cu526 Cu 1.20588 0.98688 0.79755
 Cu527 Cu 0.85241 0.99727 0.84322
 Cu528 Cu 0.80586 0.99766 0.78800
 Cu529 Cu 1.15793 1.14800 1.00021
 Cu530 Cu 1.21196 1.19539 0.99878
 Cu531 Cu 1.15036 0.84407 1.00801
 Cu532 Cu 1.20054 0.79316 1.01317
 Cu533 Cu 0.84928 1.15462 0.99127
 Cu534 Cu 0.79882 1.20553 0.98664
 Cu535 Cu 0.84237 0.85153 1.00090
 Cu536 Cu 0.78796 0.80506 1.00265
 Cu537 Cu 1.00790 1.14978 0.84433
 Cu538 Cu 1.01203 1.19851 0.79134
 Cu539 Cu 0.99993 0.83965 0.85357
 Cu540 Cu 1.00019 0.78520 0.80624
 C541 C 1.09555 0.89394 0.78997
 H542 H 1.08554 0.90266 0.81675
 C543 C 1.12411 0.86945 0.72113
 C544 C 0.91381 1.09241 0.78145
 H545 H 0.92553 1.08180 0.80677
 C546 C 0.88077 1.12236 0.71707
 C547 C 0.91438 1.21553 0.89473
 H548 H 0.92419 1.18928 0.90463
 C549 C 0.88538 1.28354 0.86991
 C550 C 1.09613 0.77898 0.91413
 H551 H 1.08516 0.80372 0.92636
 C552 C 1.12642 0.71584 0.87970
 C553 C 1.21545 0.89640 0.91407
 H554 H 1.18910 0.90609 0.92395
 C555 C 1.28374 0.87196 0.88505
 C556 C 0.78936 1.09382 0.89439
 H557 H 0.81584 1.08413 0.90371
 C558 C 0.72155 1.12120 0.86976
 C559 C 1.10141 1.08528 0.78221
 H560 H 1.09222 1.07459 0.80862
 C561 C 1.12712 1.11645 0.71464
 C562 C 0.91013 0.89622 0.78607
 H563 H 0.92102 0.90651 0.81177
 C564 C 0.87929 0.86934 0.72049
 C565 C 1.21869 1.08404 0.90270
 H566 H 1.19372 1.07262 0.91418
 C567 C 1.28329 1.11671 0.87350
 C568 C 0.78471 0.90663 0.89887
 H569 H 0.81030 0.91715 0.90945
 C570 C 0.71921 0.87732 0.87118
 C571 C 1.10564 1.21032 0.90317
 H572 H 1.09573 1.18413 0.91308
 C573 C 1.13100 1.27837 0.87510
 C574 C 0.89896 0.78270 0.91188
 H575 H 0.90950 0.80812 0.92276
 C576 C 0.87139 0.71786 0.88097
 O577 O 0.96469 0.35606 0.32211
 O578 O 0.96611 0.31181 0.28073
 C579 C 0.95335 0.34235 0.29195
 C580 C 0.92467 0.36275 0.27098
 C581 C 0.90914 0.34946 0.23786
 H582 H 0.91863 0.32375 0.22647
 O583 O 1.04194 0.62479 0.32273
 O584 O 1.04410 0.66594 0.27869
 C585 C 1.05494 0.63604 0.29225
 C586 C 1.08352 0.61593 0.27173
 C587 C 1.09579 0.63096 0.23575
 H588 H 1.08112 0.65431 0.22468
 O589 O 0.82127 0.46253 0.36117
 O590 O 0.78139 0.46203 0.31551
 C591 C 0.79204 0.45026 0.34682
 C592 C 0.77135 0.42141 0.36697
 C593 C 0.73856 0.40649 0.35310
 H594 H 0.72740 0.41677 0.32740
 O595 O 1.18663 0.52814 0.36580
 O596 O 1.22876 0.52572 0.32176
 C597 C 1.21625 0.54011 0.35132
 C598 C 1.23505 0.57158 0.36941
 C599 C 1.26912 0.58890 0.35378
 H600 H 1.28100 0.57778 0.32874
 O601 O 0.85872 0.31874 0.46855
 O602 O 0.81363 0.27841 0.46916
 C603 C 0.84459 0.28913 0.45673
 C604 C 0.86486 0.26833 0.42771
 C605 C 0.85126 0.23569 0.41188
 H606 H 0.82540 0.22454 0.42142
 O607 O 1.14123 0.67866 0.46231
 O608 O 1.18585 0.71938 0.46161
 C609 C 1.15533 0.70785 0.44929
 C610 C 1.13579 0.72748 0.41905
 C611 C 1.14924 0.76301 0.40362
 H612 H 1.17357 0.77510 0.41541
 O613 O 0.87798 0.53245 0.31524
 O614 O 0.83788 0.53223 0.27019
 C615 C 0.86644 0.54515 0.28478
 C616 C 0.88460 0.57646 0.26657
 C617 C 0.86941 0.59114 0.23424
 H618 H 0.84610 0.57778 0.22182
 O619 O 1.12987 0.45539 0.32494
 O620 O 1.17201 0.45261 0.28170
 C621 C 1.14215 0.44138 0.29541
 C622 C 1.12306 0.41118 0.27651
 C623 C 1.13743 0.39867 0.24043
 H624 H 1.15981 0.41400 0.22819
 O625 O 1.03496 0.31195 0.38014
 O626 O 1.03746 0.26906 0.33790
 C627 C 1.04926 0.28286 0.36747
 C628 C 1.08102 0.26519 0.38540
 C629 C 1.09666 0.23184 0.36849
 H630 H 1.08222 0.22006 0.34537
 O631 O 0.97179 0.68539 0.36410
 O632 O 0.97388 0.72623 0.31890
 C633 C 0.95988 0.71480 0.34918
 C634 C 0.92852 0.73411 0.36749
 C635 C 0.91403 0.76803 0.35485
 H636 H 0.92642 0.78160 0.33126
 O637 O 0.82153 0.62876 0.45537
 O638 O 0.77953 0.67168 0.45239
 C639 C 0.79235 0.64146 0.44141
 C640 C 0.77313 0.62228 0.41141
 C641 C 0.73935 0.63572 0.39912
 H642 H 0.72702 0.65873 0.41330
 O643 O 1.18600 0.36380 0.47244
 O644 O 1.22853 0.32071 0.47499
 C645 C 1.21614 0.35022 0.46074
 C646 C 1.23545 0.36922 0.42956
 C647 C 1.27131 0.35614 0.41370
 H648 H 1.28427 0.33221 0.42569
 O649 O 0.97132 0.63239 0.31669
 O650 O 0.97215 0.67486 0.27312
 C651 C 0.95903 0.64545 0.28651
 C652 C 0.92875 0.62638 0.26753
 C653 C 0.91275 0.64107 0.23531
 H654 H 0.92315 0.66641 0.22376
 O655 O 1.03574 0.35582 0.32355
 O656 O 1.03586 0.31093 0.28282
 C657 C 1.04842 0.34142 0.29410
 C658 C 1.07864 0.36071 0.27420
 C659 C 1.09271 0.34899 0.24156
 H660 H 1.08146 0.32493 0.22850
 O661 O 1.18338 0.45682 0.37268
 O662 O 1.22718 0.45734 0.33083
 C663 C 1.21418 0.44538 0.36099
 C664 C 1.23494 0.41698 0.38132
 C665 C 1.26753 0.40580 0.36839
 H666 H 1.27937 0.41964 0.34469
 O667 O 0.82109 0.53339 0.35838
 O668 O 0.78108 0.53337 0.31278
 C669 C 0.79210 0.54608 0.34348
 C670 C 0.77244 0.57656 0.36244
 C671 C 0.73860 0.59096 0.34987
 H672 H 0.72571 0.57926 0.32580
 O673 O 0.87099 0.68034 0.45555
 O674 O 0.83039 0.72479 0.45568
 C675 C 0.85997 0.71116 0.44362
 C676 C 0.88050 0.73146 0.41479
 C677 C 0.86724 0.76535 0.40268
 H678 H 0.84343 0.77687 0.41632
 O679 O 1.13651 0.31315 0.47174
 O680 O 1.18047 0.27145 0.47368
 C681 C 1.15082 0.28357 0.45979
 C682 C 1.13243 0.26430 0.42898
 C683 C 1.14686 0.23417 0.41273
 H684 H 1.17239 0.22274 0.42274
 O685 O 1.13713 0.52643 0.31524
 O686 O 1.18056 0.52496 0.27247
 C687 C 1.15088 0.53853 0.28510
 C688 C 1.13206 0.56962 0.26635
 C689 C 1.14402 0.58454 0.23410
 H690 H 1.16774 0.57304 0.22021
 O691 O 0.87714 0.46007 0.31667
 O692 O 0.83741 0.46064 0.27140
 C693 C 0.86555 0.44719 0.28644
 C694 C 0.88302 0.41519 0.26874
 C695 C 0.86848 0.40198 0.23571
 H696 H 0.84664 0.41712 0.22240
 O697 O 1.04387 0.68025 0.36772
 O698 O 1.04309 0.72307 0.32479
 C699 C 1.05604 0.71015 0.35453
 C700 C 1.08636 0.72953 0.37300
 C701 C 1.09852 0.76163 0.35973
 H702 H 1.08463 0.77420 0.33654
 O703 O 0.96229 0.31369 0.37989
 O704 O 0.96349 0.26882 0.33993
 C705 C 0.94963 0.28365 0.36819
 C706 C 0.91742 0.26603 0.38564
 C707 C 0.90388 0.23349 0.37074
 H708 H 0.91894 0.22043 0.34855
 O709 O 1.18747 0.62439 0.46319
 O710 O 1.23025 0.66646 0.46082
 C711 C 1.21690 0.63688 0.44915
 C712 C 1.23572 0.61844 0.41806
 C713 C 1.26665 0.63291 0.40425
 H714 H 1.27848 0.65660 0.41747
 O715 O 0.81461 0.37453 0.46563
 O716 O 0.77173 0.33240 0.46449
 C717 C 0.78571 0.36141 0.45154
 C718 C 0.76863 0.37865 0.41890
 C719 C 0.73599 0.36435 0.40493
 H720 H 0.72265 0.34212 0.41957
 Cu721 Cu 0.99931 0.33907 0.35554
 Cu722 Cu 0.99977 0.28470 0.30864
 Cu723 Cu 1.00668 0.65174 0.34783
 Cu724 Cu 1.01072 0.69978 0.29423
 Cu725 Cu 0.85340 0.49717 0.34262
 Cu726 Cu 0.80674 0.49678 0.28746
 Cu727 Cu 1.15486 0.49221 0.34913
 Cu728 Cu 1.20479 0.48735 0.29729
 C729 C 0.91127 0.39580 0.28591
 H730 H 0.92201 0.40605 0.31168
 C731 C 0.88055 0.36908 0.22018
 C732 C 1.10024 0.58650 0.28574
 H733 H 1.09150 0.57588 0.31234
 C734 C 1.12502 0.61735 0.21771
 C735 C 0.78587 0.40736 0.40008
 H736 H 0.81137 0.41800 0.41076
 C737 C 0.72074 0.37766 0.37204
 C738 C 1.21976 0.58612 0.40011
 H739 H 1.19489 0.57481 0.41189
 C740 C 1.28431 0.61856 0.37033
 C741 C 0.89811 0.28295 0.41427
 H742 H 0.90857 0.30834 0.42530
 C743 C 0.87076 0.21818 0.38292
 C744 C 1.10562 0.71224 0.40434
 H745 H 1.09544 0.68631 0.41464
 C746 C 1.13154 0.77961 0.37520
 C747 C 0.91446 0.59396 0.28284
 H748 H 0.92588 0.58285 0.30808
 C749 C 0.88271 0.62364 0.21864
 C750 C 1.09488 0.39345 0.29210
 H751 H 1.08470 0.40223 0.31880
 C752 C 1.12399 0.36894 0.22338
 C753 C 1.09783 0.28021 0.41434
 H754 H 1.08683 0.30503 0.42638
 C755 C 1.12830 0.21696 0.38035
 C756 C 0.91131 0.71640 0.39758
 H757 H 0.92113 0.69000 0.40707
 C758 C 0.88306 0.78392 0.37263
 C759 C 0.78915 0.59253 0.39340
 H760 H 0.81545 0.58258 0.40295
 C761 C 0.72177 0.62080 0.36836
 C762 C 1.21884 0.39833 0.41368
 H763 H 1.19262 0.40815 0.42378
 C764 C 1.28678 0.37357 0.38418
 O765 O 1.02947 0.36715 0.68443
 O766 O 1.02856 0.32467 0.72797
 C767 C 1.04190 0.35394 0.71451
 C768 C 1.07260 0.37269 0.73323
 C769 C 1.08946 0.35698 0.76731
 H770 H 1.07840 0.33182 0.77863
 O771 O 0.96488 0.64419 0.67560
 O772 O 0.96388 0.68915 0.71620
 C773 C 0.95176 0.65855 0.70482
 C774 C 0.92166 0.63901 0.72451
 C775 C 0.90748 0.65083 0.75894
 H776 H 0.91888 0.67480 0.77203
 O777 O 0.81801 0.54407 0.62699
 O778 O 0.77413 0.54389 0.66882
 C779 C 0.78734 0.55578 0.63868
 C780 C 0.76693 0.58429 0.61824
 C781 C 0.73295 0.59601 0.63171
 H782 H 0.72128 0.58219 0.65551
 O783 O 1.17871 0.46493 0.64114
 O784 O 1.21925 0.46531 0.68629
 C785 C 1.20790 0.45236 0.65573
 C786 C 1.22755 0.42190 0.63654
 C787 C 1.26331 0.40661 0.64992
 H788 H 1.27559 0.41828 0.67435
 O789 O 1.12675 0.32026 0.54274
 O790 O 1.16936 0.27804 0.54601
 C791 C 1.13873 0.29061 0.55637
 C792 C 1.11829 0.27025 0.58513
 C793 C 1.13276 0.23459 0.59778
 H794 H 1.15630 0.22362 0.58319
 O795 O 0.86490 0.68487 0.52733
 O796 O 0.82200 0.72761 0.52459
 C797 C 0.85136 0.71499 0.53877
 C798 C 0.87029 0.73454 0.56915
 C799 C 0.85532 0.76622 0.58591
 H800 H 0.82956 0.77729 0.57613
 O801 O 0.86417 0.47444 0.68389
 O802 O 0.82081 0.47555 0.72671
 C803 C 0.85056 0.46220 0.71398
 C804 C 0.86963 0.43126 0.73267
 C805 C 0.85736 0.41605 0.76664
 H806 H 0.83354 0.42750 0.78037
 O807 O 1.12270 0.53879 0.68177
 O808 O 1.16263 0.53880 0.72672
 C809 C 1.13447 0.55216 0.71164
 C810 C 1.11719 0.58440 0.72906
 C811 C 1.13303 0.59853 0.76368
 H812 H 1.15490 0.58289 0.77637
 O813 O 0.95637 0.32007 0.63363
 O814 O 0.95655 0.27714 0.67649
 C815 C 0.94381 0.29028 0.64672
 C816 C 0.91336 0.27125 0.62797
 C817 C 0.90078 0.23746 0.64132
 H818 H 0.91477 0.22469 0.66434
 O819 O 1.03852 0.68714 0.62089
 O820 O 1.03765 0.73173 0.66133
 C821 C 1.05150 0.71689 0.63303
 C822 C 1.08392 0.73423 0.61584
 C823 C 1.09856 0.76807 0.63234
 H824 H 1.08317 0.78033 0.65479
 O825 O 0.81515 0.37804 0.53848
 O826 O 0.77077 0.33787 0.53853
 C827 C 0.78480 0.36665 0.55112
 C828 C 0.76567 0.38501 0.58188
 C829 C 0.73359 0.36936 0.59623
 H830 H 0.72214 0.34562 0.58280
 O831 O 1.18408 0.62424 0.53618
 O832 O 1.22875 0.66428 0.53525
 C833 C 1.21401 0.63603 0.54900
 C834 C 1.23176 0.61834 0.58101
 C835 C 1.26614 0.63403 0.59543
 H836 H 1.27843 0.65654 0.58028
 O837 O 1.03562 0.64381 0.67786
 O838 O 1.03519 0.68896 0.71827
 C839 C 1.04729 0.65796 0.70766
 C840 C 1.07582 0.63764 0.72880
 C841 C 1.09052 0.65025 0.76060
 H842 H 1.08082 0.67579 0.77222
 O843 O 0.95890 0.37563 0.67843
 O844 O 0.95665 0.33446 0.72243
 C845 C 0.94596 0.36446 0.70893
 C846 C 0.91746 0.38468 0.72943
 C847 C 0.90594 0.37095 0.76367
 H848 H 0.92006 0.34756 0.77536
 O849 O 1.18115 0.53584 0.64039
 O850 O 1.22235 0.53462 0.68491
 C851 C 1.21121 0.54707 0.65405
 C852 C 1.23208 0.57559 0.63358
 C853 C 1.26358 0.59009 0.64645
 H854 H 1.27518 0.57992 0.67200
 O855 O 0.81320 0.47309 0.63488
 O856 O 0.77105 0.47574 0.67889
 C857 C 0.78345 0.46138 0.64934
 C858 C 0.76449 0.43024 0.63117
 C859 C 0.73247 0.41357 0.64589
 H860 H 0.72027 0.42413 0.67102
 O861 O 1.14335 0.68292 0.53382
 O862 O 1.18767 0.72401 0.53161
 C863 C 1.15717 0.71303 0.54479
 C864 C 1.13702 0.73408 0.57369
 C865 C 1.15007 0.76526 0.58892
 H866 H 1.17580 0.77660 0.57923
 O867 O 0.85836 0.32135 0.54012
 O868 O 0.81468 0.27963 0.53920
 C869 C 0.84466 0.29160 0.55231
 C870 C 0.86411 0.27172 0.58239
 C871 C 0.85164 0.23784 0.59635
 H872 H 0.82759 0.22531 0.58445
 O873 O 1.12397 0.46639 0.68711
 O874 O 1.16598 0.46502 0.73038
 C875 C 1.13659 0.45287 0.71685
 C876 C 1.11851 0.42163 0.73537
 C877 C 1.13300 0.40747 0.76633
 H878 H 1.15655 0.42049 0.77867
 O879 O 0.87037 0.54544 0.67559
 O880 O 0.82816 0.54805 0.71880
 C881 C 0.85802 0.55928 0.70516
 C882 C 0.87704 0.58937 0.72413
 C883 C 0.86391 0.60094 0.75852
 H884 H 0.84151 0.58615 0.77135
 O885 O 0.96578 0.68800 0.61923
 O886 O 0.96552 0.73262 0.65960
 C887 C 0.95274 0.71807 0.63083
 C888 C 0.92108 0.73593 0.61278
 C889 C 0.90628 0.76771 0.62846
 H890 H 0.92008 0.78006 0.65166
 O891 O 1.02828 0.31432 0.63702
 O892 O 1.02585 0.27342 0.68217
 C893 C 1.03988 0.28479 0.65191
 C894 C 1.07100 0.26541 0.63352
 C895 C 1.08535 0.23327 0.64582
 H896 H 1.07334 0.21969 0.66960
 O897 O 1.17956 0.36824 0.54478
 O898 O 1.22400 0.32757 0.54438
 C899 C 1.20999 0.35663 0.55706
 C900 C 1.22920 0.37577 0.58715
 C901 C 1.26157 0.36305 0.59896
 H902 H 1.27426 0.34023 0.58478
 O903 O 0.81340 0.63636 0.52703
 O904 O 0.77172 0.68032 0.52536
 C905 C 0.78371 0.65051 0.53922
 C906 C 0.76457 0.63184 0.57060
 C907 C 0.73059 0.64406 0.58529
 H908 H 0.71706 0.66758 0.57315
 Cu909 Cu 0.99382 0.34826 0.65339
 Cu910 Cu 0.98947 0.30016 0.70700
 Cu911 Cu 1.00135 0.66118 0.64426
 Cu912 Cu 1.00045 0.71575 0.69151
 Cu913 Cu 0.84147 0.35230 0.50307
 Cu914 Cu 0.78735 0.30548 0.50425
 Cu915 Cu 1.15293 0.34595 0.50728
 Cu916 Cu 1.20329 0.29519 0.51252
 Cu917 Cu 0.84702 0.65305 0.49189
 Cu918 Cu 0.79672 0.70391 0.48686
 Cu919 Cu 1.15930 0.64850 0.49907
 Cu920 Cu 1.21344 0.69518 0.49806
 Cu921 Cu 0.84582 0.50868 0.65081
 Cu922 Cu 0.79585 0.51348 0.70280
 Cu923 Cu 1.14753 0.50146 0.65785
 Cu924 Cu 1.19414 0.50221 0.71247
 C925 C 1.08662 0.40358 0.71851
 H926 H 1.07522 0.41528 0.69354
 C927 C 1.11864 0.37330 0.78319
 C928 C 0.90611 0.60811 0.70755
 H929 H 0.91589 0.59912 0.68077
 C930 C 0.87832 0.63165 0.77618
 C931 C 0.78222 0.60181 0.58747
 H932 H 0.80871 0.59267 0.57745
 C933 C 0.71456 0.62600 0.61616
 C934 C 1.21195 0.40683 0.60650
 H935 H 1.18587 0.41675 0.59633
 C936 C 1.27975 0.37826 0.63200
 C937 C 1.08862 0.28428 0.60157
 H938 H 1.07833 0.31064 0.59251
 C939 C 1.11826 0.21661 0.62696
 C940 C 0.90325 0.71980 0.58296
 H941 H 0.91461 0.69500 0.57121
 C942 C 0.87322 0.78284 0.61605
 C943 C 0.89979 0.41510 0.71444
 H944 H 0.90888 0.42533 0.68780
 C945 C 0.87563 0.38544 0.78225
 C946 C 1.08990 0.60283 0.71287
 H947 H 1.07884 0.59291 0.68709
 C948 C 1.12122 0.62987 0.77912
 C949 C 0.89518 0.28789 0.59833
 H950 H 0.90469 0.31420 0.58835
 C951 C 0.86995 0.22043 0.62594
 C952 C 1.10202 0.71851 0.58785
 H953 H 1.09168 0.69333 0.57622
 C954 C 1.13004 0.78331 0.62038
 C955 C 0.78058 0.41554 0.59905
 H956 H 0.80556 0.42716 0.58780
 C957 C 0.71688 0.38267 0.62835
 C958 C 1.21603 0.59036 0.59895
 H959 H 1.19051 0.57924 0.58885
 C960 C 1.28167 0.62134 0.62664
 O961 O 0.62187 1.03822 0.68413
 O962 O 0.66163 1.03776 0.72940
 C963 C 0.63352 1.05121 0.71428
 C964 C 0.61603 1.08313 0.73201
 C965 C 0.63198 1.09718 0.76658
 H966 H 0.65410 1.08169 0.77900
 O967 O 0.36320 0.97472 0.68535
 O968 O 0.31928 0.97681 0.72761
 C969 C 0.34895 0.96279 0.71533
 C970 C 0.36727 0.93140 0.73432
 C971 C 0.35464 0.91627 0.76827
 H972 H 0.33116 0.92828 0.78211
 O973 O 0.53773 1.18488 0.62268
 O974 O 0.53729 1.22922 0.66326
 C975 C 0.55091 1.21452 0.63478
 C976 C 0.58321 1.23201 0.61735
 C977 C 0.59750 1.26619 0.63345
 H978 H 0.58189 1.27849 0.65572
 O979 O 0.45454 0.82230 0.63216
 O980 O 0.45435 0.77850 0.67404
 C981 C 0.44209 0.79214 0.64432
 C982 C 0.41240 0.77299 0.62466
 C983 C 0.40024 0.73892 0.63748
 H984 H 0.41416 0.72617 0.66055
 O985 O 0.68458 1.12447 0.53729
 O986 O 0.72906 1.16488 0.53657
 C987 C 0.71432 1.13661 0.55036
 C988 C 0.73159 1.11911 0.58278
 C989 C 0.76439 1.13320 0.59665
 H990 H 0.77782 1.15540 0.58206
 O991 O 0.31560 0.87966 0.53515
 O992 O 0.27109 0.83955 0.53513
 C993 C 0.28534 0.86818 0.54795
 C994 C 0.26666 0.88626 0.57919
 C995 C 0.23465 0.87054 0.59366
 H996 H 0.22291 0.84701 0.58009
 O997 O 0.46365 1.14318 0.67820
 O998 O 0.46353 1.18757 0.71944
 C999 C 0.45085 1.15727 0.70775
 C1000 C 0.42048 1.13783 0.72747
 C1001 C 0.40502 1.15081 0.76360
 H1002 H 0.41653 1.17505 0.77610
 O1003 O 0.52673 0.86766 0.68559
 O1004 O 0.52540 0.82432 0.72827
 C1005 C 0.53887 0.85388 0.71550
 C1006 C 0.56945 0.87250 0.73457
 C1007 C 0.58573 0.85762 0.76661
 H1008 H 0.57535 0.83229 0.77818
 O1009 O 0.67733 0.96456 0.64256
 O1010 O 0.71725 0.96426 0.68823
 C1011 C 0.70614 0.95161 0.65753
 C1012 C 0.72547 0.92089 0.63864
 C1013 C 0.75935 0.90645 0.65102
 H1014 H 0.77251 0.91829 0.67487
 O1015 O 0.32055 1.04446 0.62532
 O1016 O 0.27772 1.04691 0.66786
 C1017 C 0.29061 1.05755 0.63725
 C1018 C 0.27029 1.08609 0.61691
 C1019 C 0.23636 1.09782 0.63068
 H1020 H 0.22480 1.08414 0.65461
 O1021 O 0.36712 1.18662 0.52707
 O1022 O 0.32405 1.22920 0.52487
 C1023 C 0.35328 1.21638 0.53917
 C1024 C 0.37157 1.23523 0.57057
 C1025 C 0.35594 1.26910 0.58794
 H1026 H 0.33093 1.28066 0.57683
 O1027 O 0.62532 0.81882 0.54416
 O1028 O 0.66582 0.77428 0.54415
 C1029 C 0.63619 0.78798 0.55604
 C1030 C 0.61554 0.76785 0.58479
 C1031 C 0.62861 0.73390 0.59681
 H1032 H 0.65211 0.72204 0.58288
 O1033 O 0.36803 1.04644 0.67888
 O1034 O 0.32668 1.04555 0.72322
 C1035 C 0.35590 1.05843 0.70945
 C1036 C 0.37471 1.08840 0.72899
 C1037 C 0.36176 1.09992 0.76163
 H1038 H 0.33895 1.08562 0.77431
 O1039 O 0.62081 0.96590 0.68609
 O1040 O 0.66072 0.96618 0.73126
 C1041 C 0.63217 0.95332 0.71668
 C1042 C 0.61391 0.92218 0.73512
 C1043 C 0.62932 0.90741 0.76729
 H1044 H 0.65281 0.92068 0.77946
 O1045 O 0.52608 0.81560 0.63738
 O1046 O 0.52311 0.77362 0.68146
 C1047 C 0.53740 0.78558 0.65156
 C1048 C 0.56824 0.76598 0.63278
 C1049 C 0.58262 0.73203 0.64541
 H1050 H 0.57054 0.71876 0.66933
 O1051 O 0.46513 1.18882 0.62298
 O1052 O 0.46321 1.23136 0.66564
 C1053 C 0.45136 1.21812 0.63580
 C1054 C 0.42024 1.23663 0.61741
 C1055 C 0.40626 1.26730 0.63209
 H1056 H 0.41936 1.27925 0.65591
 O1057 O 0.31592 1.13806 0.52549
 O1058 O 0.27409 1.18191 0.52419
 C1059 C 0.28620 1.15205 0.53778
 C1060 C 0.26733 1.13329 0.56914
 C1061 C 0.23350 1.14555 0.58412
 H1062 H 0.21986 1.16903 0.57201
 O1063 O 0.67597 0.86906 0.54558
 O1064 O 0.71783 0.82599 0.54846
 C1065 C 0.70505 0.85614 0.55961
 C1066 C 0.72430 0.87507 0.58979
 C1067 C 0.75809 0.86151 0.60195
 H1068 H 0.77028 0.83845 0.58774
 O1069 O 0.45602 0.87542 0.68011
 O1070 O 0.45320 0.83327 0.72318
 C1071 C 0.44269 0.86358 0.71024
 C1072 C 0.41407 0.88370 0.73083
 C1073 C 0.40204 0.86981 0.76485
 H1074 H 0.41554 0.84589 0.77621
 O1075 O 0.53467 1.14304 0.68095
 O1076 O 0.53303 1.18685 0.72282
 C1077 C 0.54572 1.15641 0.71140
 C1078 C 0.57419 1.13594 0.73237
 C1079 C 0.58907 1.14856 0.76407
 H1080 H 0.57938 1.17405 0.77580
 O1081 O 0.31433 0.97395 0.63406
 O1082 O 0.27182 0.97510 0.67777
 C1083 C 0.28463 0.96162 0.64800
 C1084 C 0.26605 0.93075 0.62921
 C1085 C 0.23416 0.91407 0.64385
 H1086 H 0.22216 0.92436 0.66920
 O1087 O 0.67845 1.03546 0.64046
 O1088 O 0.71824 1.03570 0.68624
 C1089 C 0.70776 1.04754 0.65487
 C1090 C 0.72869 1.07630 0.63470
 C1091 C 0.76167 1.09097 0.64845
 H1092 H 0.77282 1.08057 0.67410
 O1093 O 0.35829 0.82272 0.53621
 O1094 O 0.31445 0.78114 0.53525
 C1095 C 0.34447 0.79299 0.54835
 C1096 C 0.36382 0.77310 0.57845
 C1097 C 0.35159 0.73896 0.59206
 H1098 H 0.32777 0.72623 0.57991
 O1099 O 0.64215 1.18167 0.53441
 O1100 O 0.68743 1.22175 0.53368
 C1101 C 0.65645 1.21123 0.54613
 C1102 C 0.63633 1.23213 0.57518
 C1103 C 0.64915 1.26352 0.59020
 H1104 H 0.67473 1.27508 0.58038
 Cu1105 Cu 0.64562 1.00104 0.65852
 Cu1106 Cu 0.69213 1.00114 0.71381
 Cu1107 Cu 0.34625 1.00935 0.65167
 Cu1108 Cu 0.29447 1.01382 0.70179
 Cu1109 Cu 0.50035 1.16033 0.64706
 Cu1110 Cu 0.50033 1.21412 0.69452
 Cu1111 Cu 0.49141 0.84942 0.65403
 Cu1112 Cu 0.48653 0.79998 0.70631
 C1113 C 0.58840 1.10133 0.71615
 H1114 H 0.57719 1.09145 0.69043
 C1115 C 0.62011 1.12840 0.78219
 C1116 C 0.39715 0.91468 0.71615
 H1117 H 0.40664 0.92497 0.68968
 C1118 C 0.37222 0.88510 0.78380
 C1119 C 0.60150 1.21625 0.58952
 H1120 H 0.59145 1.19082 0.57819
 C1121 C 0.62892 1.28164 0.62147
 C1122 C 0.39443 0.78962 0.59493
 H1123 H 0.40369 0.81617 0.58537
 C1124 C 0.36981 0.72164 0.62177
 C1125 C 0.71420 1.09051 0.60166
 H1126 H 0.68858 1.08008 0.59107
 C1127 C 0.77966 1.11973 0.62947
 C1128 C 0.28193 0.91649 0.59676
 H1129 H 0.30689 0.92823 0.58561
 C1130 C 0.21838 0.88354 0.62612
 C1131 C 0.40571 1.10795 0.71166
 H1132 H 0.41581 1.09807 0.68533
 C1133 C 0.37677 1.13273 0.78012
 C1134 C 0.58381 0.90489 0.71920
 H1135 H 0.57226 0.91618 0.69410
 C1136 C 0.61608 0.87495 0.78301
 C1137 C 0.70848 0.90489 0.60784
 H1138 H 0.68219 0.91495 0.59839
 C1139 C 0.77597 0.87654 0.63248
 C1140 C 0.28523 1.10337 0.58592
 H1141 H 0.31164 1.09418 0.57572
 C1142 C 0.21778 1.12765 0.61521
 C1143 C 0.40229 1.22037 0.58497
 H1144 H 0.41403 1.19563 0.57348
 C1145 C 0.37232 1.28449 0.61769
 C1146 C 0.58514 0.78334 0.60234
 H1147 H 0.57545 0.80980 0.59290
 C1148 C 0.61318 0.71578 0.62728
 O1149 O 0.63160 0.95533 0.32122
 O1150 O 0.67298 0.95533 0.27689
 C1151 C 0.64368 0.94279 0.29087
 C1152 C 0.62474 0.91254 0.27186
 C1153 C 0.63819 0.90024 0.23784
 H1154 H 0.66090 0.91461 0.22507
 O1155 O 0.37849 1.03435 0.31339
 O1156 O 0.33885 1.03436 0.26798
 C1157 C 0.36733 1.04707 0.28280
 C1158 C 0.38568 1.07817 0.26448
 C1159 C 0.36913 1.09362 0.23058
 H1160 H 0.34600 1.07947 0.21870
 O1161 O 0.47279 1.18527 0.36163
 O1162 O 0.47548 1.22708 0.31741
 C1163 C 0.46136 1.21525 0.34748
 C1164 C 0.43062 1.23488 0.36662
 C1165 C 0.41507 1.27083 0.35350
 H1166 H 0.42689 1.28371 0.32924
 O1167 O 0.53582 0.81354 0.37761
 O1168 O 0.53577 0.76920 0.33692
 C1169 C 0.54857 0.78341 0.36583
 C1170 C 0.57971 0.76495 0.38412
 C1171 C 0.59443 0.73317 0.36834
 H1172 H 0.58119 0.72150 0.34446
 O1173 O 0.68351 0.86313 0.47386
 O1174 O 0.72519 0.81916 0.47537
 C1175 C 0.71319 0.84906 0.46170
 C1176 C 0.73219 0.86787 0.43045
 C1177 C 0.76614 0.85574 0.41564
 H1178 H 0.77975 0.83220 0.42767
 O1179 O 0.32443 1.13145 0.45372
 O1180 O 0.28226 1.17422 0.45102
 C1181 C 0.29529 1.14420 0.43967
 C1182 C 0.27620 1.12523 0.40932
 C1183 C 0.24070 1.13988 0.39623
 H1184 H 0.22897 1.16280 0.41108
 O1185 O 0.54226 1.12473 0.31939
 O1186 O 0.54533 1.16658 0.27605
 C1187 C 0.55570 1.13631 0.28924
 C1188 C 0.58434 1.11604 0.26887
 C1189 C 0.59691 1.13083 0.23296
 H1190 H 0.58222 1.15411 0.22175
 O1191 O 0.46582 0.85853 0.31987
 O1192 O 0.46557 0.81346 0.27939
 C1193 C 0.45362 0.84442 0.29026
 C1194 C 0.42473 0.86465 0.26949
 C1195 C 0.40918 0.85113 0.23649
 H1196 H 0.41875 0.82541 0.22519
 O1197 O 0.68571 1.02773 0.36539
 O1198 O 0.72836 1.02624 0.32188
 C1199 C 0.71556 1.03984 0.35162
 C1200 C 0.73438 1.07048 0.37070
 C1201 C 0.76862 1.08774 0.35567
 H1202 H 0.78027 1.07730 0.33021
 O1203 O 0.32027 0.96501 0.35825
 O1204 O 0.28084 0.96451 0.31216
 C1205 C 0.29117 0.95271 0.34361
 C1206 C 0.27051 0.92368 0.36374
 C1207 C 0.23771 0.90842 0.35007
 H1208 H 0.22633 0.91853 0.32440
 O1209 O 0.64069 1.17739 0.46296
 O1210 O 0.68554 1.21784 0.46183
 C1211 C 0.65498 1.20634 0.44965
 C1212 C 0.63570 1.22588 0.41926
 C1213 C 0.64914 1.26161 0.40441
 H1214 H 0.67327 1.27367 0.41663
 O1215 O 0.35915 0.82103 0.46467
 O1216 O 0.31411 0.78068 0.46528
 C1217 C 0.34506 0.79142 0.45289
 C1218 C 0.36532 0.77050 0.42400
 C1219 C 0.35167 0.73778 0.40842
 H1220 H 0.32579 0.72672 0.41802
 O1221 O 0.37696 0.96202 0.31485
 O1222 O 0.33763 0.96277 0.26921
 C1223 C 0.36554 0.94913 0.28455
 C1224 C 0.38295 0.91695 0.26708
 C1225 C 0.36839 0.90351 0.23414
 H1226 H 0.34649 0.91851 0.22079
 O1227 O 0.63704 1.02698 0.31375
 O1228 O 0.68093 1.02420 0.27151
 C1229 C 0.65130 1.03847 0.28360
 C1230 C 0.63290 1.06956 0.26419
 C1231 C 0.64520 1.08433 0.23192
 H1232 H 0.66904 1.07276 0.21832
 O1233 O 0.46322 0.81500 0.37665
 O1234 O 0.46390 0.77047 0.33618
 C1235 C 0.45025 0.78520 0.36463
 C1236 C 0.41792 0.76779 0.38207
 C1237 C 0.40435 0.73518 0.36740
 H1238 H 0.41946 0.72193 0.34536
 O1239 O 0.54449 1.17900 0.36577
 O1240 O 0.54442 1.22267 0.32376
 C1241 C 0.55692 1.20909 0.35338
 C1242 C 0.58694 1.22815 0.37258
 C1243 C 0.59903 1.26052 0.35993
 H1244 H 0.58533 1.27341 0.33679
 O1245 O 0.31475 0.87674 0.46220
 O1246 O 0.27190 0.83461 0.46103
 C1247 C 0.28578 0.86369 0.44819
 C1248 C 0.26839 0.88097 0.41577
 C1249 C 0.23575 0.86646 0.40211
 H1250 H 0.22264 0.84423 0.41695
 O1251 O 0.68600 1.12254 0.46424
 O1252 O 0.73049 1.16269 0.46433
 C1253 C 0.71642 1.13396 0.45163
 C1254 C 0.73556 1.11566 0.42075
 C1255 C 0.76678 1.13010 0.40750
 H1256 H 0.77891 1.15326 0.42134
 O1257 O 0.53685 0.85784 0.32137
 O1258 O 0.53721 0.81304 0.28059
 C1259 C 0.54967 0.84352 0.29198
 C1260 C 0.57986 0.86290 0.27206
 C1261 C 0.59428 0.85050 0.23796
 H1262 H 0.58291 0.82632 0.22523
 O1263 O 0.47181 1.13389 0.31249
 O1264 O 0.47345 1.17717 0.26973
 C1265 C 0.45983 1.14770 0.28250
 C1266 C 0.42931 1.12914 0.26334
 C1267 C 0.41352 1.14336 0.23277
 H1268 H 0.42377 1.16869 0.22105
 O1269 O 0.32132 1.03602 0.35607
 O1270 O 0.28172 1.03615 0.31009
 C1271 C 0.29262 1.04893 0.34083
 C1272 C 0.27325 1.07978 0.35946
 C1273 C 0.24115 1.09400 0.34722
 H1274 H 0.22808 1.08238 0.32320
 O1275 O 0.67934 0.95733 0.37439
 O1276 O 0.72219 0.95444 0.33189
 C1277 C 0.70923 0.94401 0.36254
 C1278 C 0.72945 0.91543 0.38299
 C1279 C 0.76352 0.90388 0.36949
 H1280 H 0.77523 0.91785 0.34580
 O1281 O 0.63337 0.81355 0.47250
 O1282 O 0.67615 0.77069 0.47537
 C1283 C 0.64712 0.78357 0.46081
 C1284 C 0.62891 0.76465 0.42954
 C1285 C 0.64378 0.73287 0.41284
 H1286 H 0.66886 0.72103 0.42347
 O1287 O 0.37386 1.18304 0.45513
 O1288 O 0.33317 1.22737 0.45603
 C1289 C 0.36277 1.21401 0.44377
 C1290 C 0.38304 1.23463 0.41511
 C1291 C 0.37044 1.26727 0.40397
 H1292 H 0.34716 1.27925 0.41817
 Cu1293 Cu 0.65371 0.99250 0.34787
 Cu1294 Cu 0.70550 0.98740 0.29781
 Cu1295 Cu 0.35319 0.99934 0.34046
 Cu1296 Cu 0.30713 0.99932 0.28478
 Cu1297 Cu 0.65866 1.14746 0.49995
 Cu1298 Cu 0.71307 1.19438 0.49860
 Cu1299 Cu 0.65021 0.84566 0.50847
 Cu1300 Cu 0.70043 0.79457 0.51349
 Cu1301 Cu 0.34966 1.15527 0.49085
 Cu1302 Cu 0.29924 1.20604 0.48628
 Cu1303 Cu 0.34170 0.85418 0.49942
 Cu1304 Cu 0.28749 0.80735 0.50036
 Cu1305 Cu 0.50716 1.15160 0.34463
 Cu1306 Cu 0.51224 1.20077 0.29214
 Cu1307 Cu 0.50039 0.84087 0.35298
 Cu1308 Cu 0.50065 0.78656 0.30556
 C1309 C 0.59539 0.89409 0.28852
 H1310 H 0.58536 0.90353 0.31504
 C1311 C 0.62369 0.86923 0.22062
 C1312 C 0.41445 1.09489 0.27967
 H1313 H 0.42615 1.08413 0.30494
 C1314 C 0.38129 1.12504 0.21549
 C1315 C 0.41485 1.21839 0.39611
 H1316 H 0.42464 1.19214 0.40603
 C1317 C 0.38596 1.28641 0.37134
 C1318 C 0.59677 0.78023 0.41482
 H1319 H 0.58541 0.80501 0.42662
 C1320 C 0.62658 0.71701 0.38182
 C1321 C 0.71431 0.89787 0.41371
 H1322 H 0.68779 0.90694 0.42374
 C1323 C 0.78203 0.87391 0.38481
 C1324 C 0.29116 1.09645 0.39213
 H1325 H 0.31737 1.08597 0.40136
 C1326 C 0.22353 1.12587 0.36661
 C1327 C 0.60090 1.08663 0.28314
 H1328 H 0.59189 1.07620 0.30972
 C1329 C 0.62628 1.11710 0.21514
 C1330 C 0.41127 0.89771 0.28432
 H1331 H 0.42207 0.90808 0.31002
 C1332 C 0.38055 0.87055 0.21875
 C1333 C 0.71918 1.08420 0.40178
 H1334 H 0.69413 1.07283 0.41313
 C1335 C 0.78412 1.11668 0.37306
 C1336 C 0.28530 0.90974 0.39681
 H1337 H 0.31080 0.92049 0.40737
 C1338 C 0.22020 0.87946 0.36929
 C1339 C 0.60588 1.21054 0.40395
 H1340 H 0.59577 1.18441 0.41381
 C1341 C 0.63174 1.27841 0.37596
 C1342 C 0.39860 0.78496 0.41053
 H1343 H 0.40908 0.81041 0.42141
 C1344 C 0.37118 0.72002 0.37967
 O1345 O 0.62220 0.53898 1.18240
 O1346 O 0.66186 0.53857 1.22762
 C1347 C 0.63377 0.55204 1.21251
 C1348 C 0.61642 0.58412 1.23017
 C1349 C 0.63228 0.59803 1.26486
 H1350 H 0.65408 0.58223 1.27747
 O1351 O 0.36370 0.47509 1.18455
 O1352 O 0.32039 0.47614 1.22743
 C1353 C 0.35010 0.46271 1.21459
 C1354 C 0.36920 0.43158 1.23314
 C1355 C 0.35637 0.41562 1.26922
 H1356 H 0.33251 0.42740 1.28262
 O1357 O 0.53853 0.68655 1.12011
 O1358 O 0.53783 0.73091 1.16066
 C1359 C 0.55145 0.71629 1.13216
 C1360 C 0.58368 0.73369 1.11475
 C1361 C 0.59730 0.76626 1.12941
 H1362 H 0.58226 0.77961 1.15145
 O1363 O 0.45600 0.32240 1.13255
 O1364 O 0.45573 0.27853 1.17434
 C1365 C 0.44324 0.29238 1.14482
 C1366 C 0.41295 0.27363 1.12560
 C1367 C 0.40012 0.23766 1.13938
 H1368 H 0.41517 0.22506 1.16181
 O1369 O 0.68688 0.62401 1.03608
 O1370 O 0.72969 0.66628 1.03652
 C1371 C 0.71587 0.63730 1.04981
 C1372 C 0.73318 0.62014 1.08239
 C1373 C 0.76573 0.63463 1.09640
 H1374 H 0.77884 0.65711 1.08196
 O1375 O 0.31442 0.38012 1.03764
 O1376 O 0.26958 0.34042 1.03834
 C1377 C 0.28405 0.36916 1.05060
 C1378 C 0.26528 0.38797 1.08132
 C1379 C 0.23131 0.37164 1.09638
 H1380 H 0.21979 0.34856 1.08185
 O1381 O 0.46529 0.64427 1.17573
 O1382 O 0.46488 0.68870 1.21697
 C1383 C 0.45247 0.65831 1.20526
 C1384 C 0.42231 0.63876 1.22490
 C1385 C 0.40699 0.65161 1.26109
 H1386 H 0.41849 0.67585 1.27360
 O1387 O 0.52918 0.36730 1.18527
 O1388 O 0.52776 0.32399 1.22798
 C1389 C 0.54145 0.35343 1.21509
 C1390 C 0.57244 0.37180 1.23392
 C1391 C 0.58865 0.35690 1.26601
 H1392 H 0.57796 0.33178 1.27778
 O1393 O 0.67860 0.46544 1.14147
 O1394 O 0.71884 0.46571 1.18688
 C1395 C 0.70764 0.45277 1.15629
 C1396 C 0.72704 0.42198 1.13747
 C1397 C 0.76070 0.40727 1.15020
 H1398 H 0.77373 0.41901 1.17418
 O1399 O 0.31806 0.54512 1.12781
 O1400 O 0.27415 0.54520 1.16958
 C1401 C 0.28743 0.55698 1.13944
 C1402 C 0.26705 0.58545 1.11893
 C1403 C 0.23144 0.59810 1.13363
 H1404 H 0.22028 0.58363 1.15730
 O1405 O 0.36424 0.68438 1.02866
 O1406 O 0.32213 0.72786 1.02567
 C1407 C 0.35119 0.71474 1.04002
 C1408 C 0.37026 0.73411 1.07049
 C1409 C 0.35479 0.76803 1.08778
 H1410 H 0.32930 0.77912 1.07729
 O1411 O 0.62689 0.32012 1.04314
 O1412 O 0.66685 0.27512 1.04349
 C1413 C 0.63734 0.28918 1.05519
 C1414 C 0.61647 0.26909 1.08383
 C1415 C 0.63056 0.23328 1.09641
 H1416 H 0.65370 0.22185 1.08153
 O1417 O 0.36988 0.54615 1.17718
 O1418 O 0.32754 0.54859 1.22025
 C1419 C 0.35750 0.55975 1.20687
 C1420 C 0.37656 0.58954 1.22621
 C1421 C 0.36383 0.60081 1.25905
 H1422 H 0.34123 0.58636 1.27194
 O1423 O 0.62303 0.46651 1.18643
 O1424 O 0.66484 0.46479 1.22989
 C1425 C 0.63553 0.45269 1.21608
 C1426 C 0.61745 0.42116 1.23423
 C1427 C 0.63282 0.40624 1.26635
 H1428 H 0.65641 0.41939 1.27847
 O1429 O 0.52777 0.31490 1.13738
 O1430 O 0.52462 0.27302 1.18155
 C1431 C 0.53895 0.28486 1.15163
 C1432 C 0.56977 0.26520 1.13293
 C1433 C 0.58398 0.23297 1.14523
 H1434 H 0.57214 0.21965 1.16926
 O1435 O 0.46594 0.68958 1.12055
 O1436 O 0.46382 0.73206 1.16323
 C1437 C 0.45189 0.71867 1.13353
 C1438 C 0.42026 0.73671 1.11568
 C1439 C 0.40635 0.76740 1.13040
 H1440 H 0.41999 0.77985 1.15365
 O1441 O 0.31156 0.63721 1.02810
 O1442 O 0.27068 0.68192 1.02600
 C1443 C 0.28210 0.65200 1.04010
 C1444 C 0.26280 0.63385 1.07165
 C1445 C 0.23075 0.64613 1.08627
 H1446 H 0.21733 0.66981 1.07431
 O1447 O 0.67789 0.37014 1.04415
 O1448 O 0.71928 0.32663 1.04752
 C1449 C 0.70675 0.35701 1.05844
 C1450 C 0.72594 0.37598 1.08869
 C1451 C 0.75948 0.36219 1.10124
 H1452 H 0.77157 0.33897 1.08720
 O1453 O 0.45835 0.37562 1.18038
 O1454 O 0.45564 0.33336 1.22331
 C1455 C 0.44521 0.36378 1.21059
 C1456 C 0.41677 0.38386 1.23150
 C1457 C 0.40593 0.37094 1.26449
 H1458 H 0.42000 0.34762 1.27638
 O1459 O 0.53608 0.64477 1.17851
 O1460 O 0.53423 0.68861 1.22036
 C1461 C 0.54700 0.65816 1.20900
 C1462 C 0.57528 0.63753 1.23015
 C1463 C 0.59007 0.64998 1.26198
 H1464 H 0.58056 0.67556 1.27366
 O1465 O 0.31230 0.47426 1.13598
 O1466 O 0.27014 0.47723 1.18001
 C1467 C 0.28243 0.46285 1.15043
 C1468 C 0.26313 0.43210 1.13219
 C1469 C 0.23265 0.41610 1.14648
 H1470 H 0.22070 0.42637 1.17187
 O1471 O 0.68006 0.53655 1.14032
 O1472 O 0.72113 0.53527 1.18492
 C1473 C 0.70998 0.54796 1.15414
 C1474 C 0.73080 0.57687 1.13398
 C1475 C 0.76359 0.59189 1.14783
 H1476 H 0.77485 0.58147 1.17343
 O1477 O 0.35654 0.32250 1.03926
 O1478 O 0.31242 0.28123 1.03852
 C1479 C 0.34264 0.29283 1.05138
 C1480 C 0.36226 0.27259 1.08103
 C1481 C 0.35054 0.23998 1.09421
 H1482 H 0.32639 0.22741 1.08256
 O1483 O 0.64247 0.67956 1.03296
 O1484 O 0.68735 0.72009 1.03155
 C1485 C 0.65652 0.70940 1.04425
 C1486 C 0.63629 0.73063 1.07292
 C1487 C 0.64998 0.76335 1.08840
 H1488 H 0.67592 0.77427 1.07879
 Cu1489 Cu 0.64692 0.50185 1.15787
 Cu1490 Cu 0.69334 0.50235 1.21269
 Cu1491 Cu 0.34538 0.50959 1.15186
 Cu1492 Cu 0.29534 0.51449 1.20379
 Cu1493 Cu 0.50162 0.66164 1.14453
 Cu1494 Cu 0.50123 0.71553 1.19194
 Cu1495 Cu 0.49340 0.34918 1.15407
 Cu1496 Cu 0.48843 0.29980 1.20639
 C1497 C 0.58919 0.60271 1.21406
 H1498 H 0.57811 0.59297 1.18822
 C1499 C 0.62073 0.62943 1.28036
 C1500 C 0.39806 0.41597 1.21573
 H1501 H 0.40762 0.42611 1.18923
 C1502 C 0.37385 0.38626 1.28430
 C1503 C 0.60294 0.71639 1.08634
 H1504 H 0.59236 0.69095 1.07551
 C1505 C 0.63048 0.78126 1.11709
 C1506 C 0.39514 0.28977 1.09762
 H1507 H 0.40394 0.31639 1.08780
 C1508 C 0.37028 0.22125 1.12517
 C1509 C 0.71618 0.59113 1.10102
 H1510 H 0.69075 0.58038 1.09029
 C1511 C 0.78120 0.62107 1.12908
 C1512 C 0.27992 0.41692 1.09801
 H1513 H 0.30518 0.42845 1.08734
 C1514 C 0.21577 0.38363 1.12786
 C1515 C 0.40747 0.60903 1.20889
 H1516 H 0.41739 0.59929 1.18244
 C1517 C 0.37876 0.63353 1.27756
 C1518 C 0.58711 0.40405 1.21842
 H1519 H 0.57554 0.41543 1.19338
 C1520 C 0.61918 0.37401 1.28232
 C1521 C 0.71023 0.40603 1.10652
 H1522 H 0.68410 0.41627 1.09680
 C1523 C 0.77723 0.37714 1.13192
 C1524 C 0.28138 0.60198 1.08919
 H1525 H 0.30779 0.59303 1.07876
 C1526 C 0.21391 0.62735 1.11932
 C1527 C 0.40156 0.71979 1.08408
 H1528 H 0.41323 0.69503 1.07255
 C1529 C 0.37180 0.78393 1.11685
 C1530 C 0.58728 0.28372 1.10070
 H1531 H 0.57735 0.31028 1.09180
 C1532 C 0.61652 0.21587 1.12611
 O1533 O 0.62872 0.45407 0.82437
 O1534 O 0.67084 0.45141 0.78108
 C1535 C 0.64089 0.44037 0.79467
 C1536 C 0.62156 0.41060 0.77555
 C1537 C 0.63465 0.39894 0.74118
 H1538 H 0.65721 0.41352 0.72839
 O1539 O 0.37612 0.53336 0.81339
 O1540 O 0.33397 0.53523 0.77026
 C1541 C 0.36341 0.54720 0.78387
 C1542 C 0.38148 0.57855 0.76561
 C1543 C 0.36629 0.59325 0.73333
 H1544 H 0.34275 0.58006 0.72116
 O1545 O 0.47081 0.68340 0.86390
 O1546 O 0.47356 0.72524 0.81969
 C1547 C 0.45940 0.71334 0.84968
 C1548 C 0.42852 0.73284 0.86847
 C1549 C 0.41412 0.76681 0.85589
 H1550 H 0.42621 0.78016 0.83203
 O1551 O 0.53308 0.31103 0.88019
 O1552 O 0.53532 0.26847 0.83752
 C1553 C 0.54719 0.28197 0.86722
 C1554 C 0.57885 0.26419 0.88515
 C1555 C 0.59353 0.23233 0.86962
 H1556 H 0.57989 0.22008 0.84627
 O1557 O 0.68616 0.36283 0.97241
 O1558 O 0.72721 0.31830 0.97439
 C1559 C 0.71568 0.34823 0.96037
 C1560 C 0.73496 0.36655 0.92885
 C1561 C 0.76882 0.35404 0.91405
 H1562 H 0.78230 0.33053 0.92627
 O1563 O 0.32022 0.62911 0.95642
 O1564 O 0.27892 0.67270 0.95297
 C1565 C 0.29141 0.64225 0.94210
 C1566 C 0.27235 0.62323 0.91179
 C1567 C 0.23883 0.63692 0.89902
 H1568 H 0.22652 0.66011 0.91294
 O1569 O 0.54025 0.62308 0.82109
 O1570 O 0.54301 0.66512 0.77791
 C1571 C 0.55353 0.63483 0.79093
 C1572 C 0.58225 0.61480 0.77045
 C1573 C 0.59387 0.62853 0.73622
 H1574 H 0.57983 0.65197 0.72452
 O1575 O 0.46320 0.35622 0.82284
 O1576 O 0.46469 0.31248 0.78091
 C1577 C 0.45212 0.34294 0.79240
 C1578 C 0.42399 0.36371 0.77129
 C1579 C 0.40877 0.35065 0.73799
 H1580 H 0.41815 0.32488 0.72664
 O1581 O 0.68634 0.52554 0.86574
 O1582 O 0.72838 0.52301 0.82162
 C1583 C 0.71615 0.53714 0.85137
 C1584 C 0.73545 0.56783 0.86988
 C1585 C 0.76756 0.58432 0.85520
 H1586 H 0.77946 0.57404 0.82981
 O1587 O 0.31971 0.46328 0.85975
 O1588 O 0.27843 0.46443 0.81533
 C1589 C 0.28976 0.45184 0.84608
 C1590 C 0.26903 0.42310 0.86645
 C1591 C 0.23629 0.40795 0.85264
 H1592 H 0.22511 0.41804 0.82687
 O1593 O 0.64177 0.67580 0.96157
 O1594 O 0.68524 0.71773 0.96174
 C1595 C 0.65518 0.70553 0.94909
 C1596 C 0.63531 0.72530 0.91931
 C1597 C 0.64757 0.75929 0.90541
 H1598 H 0.67175 0.77181 0.91703
 O1599 O 0.35673 0.32002 0.96781
 O1600 O 0.31127 0.28014 0.96868
 C1601 C 0.34232 0.29049 0.95618
 C1602 C 0.36256 0.26935 0.92736
 C1603 C 0.34898 0.23667 0.91156
 H1604 H 0.32299 0.22566 0.92089
 O1605 O 0.37707 0.46109 0.81698
 O1606 O 0.33725 0.46172 0.77192
 C1607 C 0.36547 0.44830 0.78676
 C1608 C 0.38292 0.41644 0.76887
 C1609 C 0.36859 0.40349 0.73561
 H1610 H 0.34697 0.41883 0.72217
 O1611 O 0.63567 0.52498 0.81628
 O1612 O 0.67892 0.52378 0.77334
 C1613 C 0.64924 0.53723 0.78615
 C1614 C 0.63015 0.56820 0.76741
 C1615 C 0.64233 0.58322 0.73333
 H1616 H 0.66605 0.57160 0.71957
 O1617 O 0.46059 0.31386 0.88059
 O1618 O 0.46140 0.26943 0.84011
 C1619 C 0.44774 0.28406 0.86857
 C1620 C 0.41549 0.26657 0.88588
 C1621 C 0.40208 0.23402 0.87105
 H1622 H 0.41740 0.22075 0.84915
 O1623 O 0.54263 0.67706 0.86778
 O1624 O 0.54259 0.72085 0.82589
 C1625 C 0.55520 0.70711 0.85539
 C1626 C 0.58557 0.72593 0.87437
 C1627 C 0.59786 0.75988 0.86122
 H1628 H 0.58356 0.77281 0.83849
 O1629 O 0.31290 0.37599 0.96486
 O1630 O 0.26952 0.33434 0.96425
 C1631 C 0.28373 0.36314 0.95106
 C1632 C 0.26655 0.38039 0.91847
 C1633 C 0.23397 0.36591 0.90457
 H1634 H 0.22076 0.34363 0.91924
 O1635 O 0.68577 0.61976 0.96336
 O1636 O 0.73006 0.66009 0.96264
 C1637 C 0.71604 0.63110 0.95046
 C1638 C 0.73501 0.61247 0.91975
 C1639 C 0.76729 0.62775 0.90555
 H1640 H 0.77911 0.65113 0.91928
 O1641 O 0.53396 0.35595 0.82467
 O1642 O 0.53399 0.31147 0.78347
 C1643 C 0.54655 0.34184 0.79506
 C1644 C 0.57660 0.36129 0.77520
 C1645 C 0.59080 0.34929 0.74083
 H1646 H 0.57937 0.32526 0.72787
 O1647 O 0.46963 0.63212 0.81476
 O1648 O 0.47107 0.67545 0.77207
 C1649 C 0.45743 0.64601 0.78489
 C1650 C 0.42658 0.62767 0.76590
 C1651 C 0.41063 0.64242 0.73361
 H1652 H 0.42150 0.66740 0.72171
 O1653 O 0.32068 0.53432 0.85853
 O1654 O 0.28019 0.53391 0.81331
 C1655 C 0.29147 0.54682 0.84389
 C1656 C 0.27186 0.57735 0.86287
 C1657 C 0.23825 0.59191 0.84997
 H1658 H 0.22552 0.58021 0.82581
 O1659 O 0.68162 0.45446 0.87250
 O1660 O 0.72542 0.45466 0.83059
 C1661 C 0.71223 0.44263 0.86067
 C1662 C 0.73257 0.41389 0.88094
 C1663 C 0.76639 0.40186 0.86734
 H1664 H 0.77794 0.41551 0.84339
 O1665 O 0.63431 0.31478 0.97152
 O1666 O 0.67657 0.27146 0.97481
 C1667 C 0.64761 0.28448 0.96024
 C1668 C 0.62892 0.26512 0.92957
 C1669 C 0.64371 0.23320 0.91314
 H1670 H 0.66909 0.22174 0.92345
 O1671 O 0.37081 0.67958 0.95697
 O1672 O 0.33100 0.72469 0.95697
 C1673 C 0.36039 0.71060 0.94508
 C1674 C 0.38114 0.73070 0.91635
 C1675 C 0.36812 0.76474 0.90443
 H1676 H 0.34464 0.77658 0.91838
 Cu1677 Cu 0.65373 0.49033 0.84927
 Cu1678 Cu 0.70356 0.48560 0.79718
 Cu1679 Cu 0.35250 0.49803 0.84196
 Cu1680 Cu 0.30577 0.49752 0.78736
 Cu1681 Cu 0.65952 0.64561 0.99874
 Cu1682 Cu 0.71342 0.69280 0.99661
 Cu1683 Cu 0.65212 0.34659 1.00719
 Cu1684 Cu 0.70157 0.29490 1.01276
 Cu1685 Cu 0.34587 0.65292 0.99315
 Cu1686 Cu 0.29660 0.70474 0.98766
 Cu1687 Cu 0.33992 0.35373 1.00223
 Cu1688 Cu 0.28525 0.30748 1.00392
 Cu1689 Cu 0.50519 0.64977 0.84669
 Cu1690 Cu 0.51006 0.69909 0.79434
 Cu1691 Cu 0.49762 0.33892 0.85628
 Cu1692 Cu 0.49773 0.28499 0.80876
 C1693 C 0.59231 0.39212 0.79210
 H1694 H 0.58258 0.40121 0.81886
 C1695 C 0.62014 0.36823 0.72362
 C1696 C 0.41177 0.59560 0.78148
 H1697 H 0.42317 0.58433 0.80665
 C1698 C 0.38016 0.62527 0.71720
 C1699 C 0.41156 0.71529 0.89880
 H1700 H 0.42122 0.68879 0.90816
 C1701 C 0.38353 0.78297 0.87402
 C1702 C 0.59636 0.28016 0.91527
 H1703 H 0.58504 0.30503 0.92690
 C1704 C 0.62606 0.21674 0.88274
 C1705 C 0.71741 0.39661 0.91189
 H1706 H 0.69105 0.40601 0.92201
 C1707 C 0.78480 0.37188 0.88301
 C1708 C 0.28834 0.59327 0.89400
 H1709 H 0.31446 0.58310 0.90384
 C1710 C 0.22145 0.62192 0.86815
 C1711 C 0.59995 0.58439 0.78554
 H1712 H 0.59086 0.57418 0.81217
 C1713 C 0.62407 0.61378 0.71756
 C1714 C 0.41081 0.39679 0.78621
 H1715 H 0.42139 0.40682 0.81216
 C1716 C 0.38058 0.37052 0.72008
 C1717 C 0.71964 0.58234 0.90226
 H1718 H 0.69449 0.57096 0.91338
 C1719 C 0.78358 0.61476 0.87308
 C1720 C 0.28364 0.40915 0.89959
 H1721 H 0.30910 0.41992 0.91024
 C1722 C 0.21867 0.37900 0.87165
 C1723 C 0.60412 0.70908 0.90363
 H1724 H 0.59483 0.68263 0.91348
 C1725 C 0.62887 0.77681 0.87618
 C1726 C 0.39599 0.28371 0.91419
 H1727 H 0.40649 0.30913 0.92513
 C1728 C 0.36879 0.21893 0.88291
   
