data_POSCAR
  _audit_creation_date              2014-09-24
  _audit_creation_method            'ToBaCCo'
  _symmetry_space_group_name_H-M    'P1'
  _symmetry_Int_Tables_number       1
  _symmetry_cell_setting            triclinic
  loop_
  _symmetry_equiv_pos_as_xyz
 x,y,z
_cell_length_a 61.6080
_cell_length_b 61.6486
_cell_length_c 61.6369
_cell_angle_alpha 90.009300
_cell_angle_beta 90.014300
_cell_angle_gamma 89.999300
loop_
  _atom_site_label
  _atom_site_type_symbol
  _atom_site_fract_x
  _atom_site_fract_y
  _atom_site_fract_z
C1 C 0.23482 1.06222 -0.01145
 C2 C 0.23479 1.06236 0.01080
 C3 C 0.24574 1.04381 0.01744
 N4 N 0.25197 1.03214 -0.00007
 C5 C 0.24549 1.04348 -0.01768
 C6 C 0.25086 1.03806 0.03914
 C7 C 0.25612 1.01620 0.04426
 C8 C 0.26784 1.00924 0.06224
 C9 C 0.26758 0.98694 0.06194
 C10 C 0.25605 0.98087 0.04364
 N11 N 0.24942 0.99873 0.03276
 C12 C 0.25038 0.95940 0.03813
 C13 C 0.24520 0.95364 0.01662
 C14 C 0.23440 0.93497 0.01038
 C15 C 0.23436 0.93483 -0.01186
 C16 C 0.24544 0.95330 -0.01850
 N17 N 0.25175 0.96494 -0.00099
 C18 C 0.25059 0.95903 -0.04019
 C19 C 0.25601 0.98084 -0.04530
 C20 C 0.26778 0.98773 -0.06326
 C21 C 0.26768 1.01003 -0.06296
 C22 C 0.25617 1.01618 -0.04468
 N23 N 0.24943 0.99836 -0.03380
 C24 C 0.25061 1.03768 -0.03919
 H25 H 0.22751 1.07436 -0.02180
 H26 H 0.22710 1.07457 0.02078
 H27 H 0.23885 0.99826 -0.02059
 H28 H 0.27601 1.01906 0.07427
 H29 H 0.27517 0.97643 0.07378
 H30 H 0.22702 0.92288 0.02074
 H31 H 0.22659 0.92267 -0.02184
 H32 H 0.27533 1.02049 -0.07480
 H33 H 0.23886 0.99889 0.01953
 H34 H 0.27589 0.97786 -0.07529
 C35 C 0.76032 0.49128 0.56812
 C36 C 0.75975 0.51350 0.56769
 C37 C 0.75334 0.51939 0.54696
 N38 N 0.75030 0.50148 0.53465
 C39 C 0.75471 0.48425 0.54749
 C40 C 0.74887 0.54081 0.54004
 C41 C 0.74512 0.54604 0.51803
 C42 C 0.73502 0.56480 0.51079
 C43 C 0.73601 0.56448 0.48851
 C44 C 0.74673 0.54556 0.48274
 N45 N 0.75208 0.53432 0.50083
 C46 C 0.75260 0.53973 0.46134
 C47 C 0.75816 0.51825 0.45572
 C48 C 0.76795 0.51196 0.43647
 C49 C 0.76891 0.48974 0.43681
 C50 C 0.75969 0.48319 0.45625
 N51 N 0.75320 0.50065 0.46782
 C52 C 0.75599 0.46145 0.46246
 C53 C 0.75071 0.45557 0.48402
 C54 C 0.74254 0.43560 0.49032
 C55 C 0.74151 0.43575 0.51259
 C56 C 0.74869 0.45599 0.51938
 N57 N 0.75433 0.46793 0.50182
 C58 C 0.75175 0.46236 0.54126
 H59 H 0.76421 0.48161 0.58221
 H60 H 0.76350 0.52400 0.58124
 H61 H 0.76261 0.48263 0.50209
 H62 H 0.72767 0.57743 0.52052
 H63 H 0.72955 0.57682 0.47783
 H64 H 0.77389 0.52226 0.42357
 H65 H 0.77573 0.47960 0.42420
 H66 H 0.73632 0.42222 0.52244
 H67 H 0.76214 0.52077 0.50148
 H68 H 0.73797 0.42213 0.48004
 C69 C 0.76640 1.01226 1.06477
 C70 C 0.76601 0.99005 1.06487
 C71 C 0.75407 0.98370 1.04688
 N72 N 0.74747 1.00135 1.03558
 C73 C 0.75468 1.01886 1.04673
 C74 C 0.74868 0.96206 1.04127
 C75 C 0.74380 0.95678 1.01938
 C76 C 0.73211 0.93883 1.01232
 C77 C 0.73318 0.93872 0.99004
 C78 C 0.74517 0.95674 0.98406
 N79 N 0.75128 0.96787 1.00198
 C80 C 0.75138 0.96194 0.96264
 C81 C 0.75686 0.98334 0.95673
 C82 C 0.76666 0.98956 0.93748
 C83 C 0.76684 1.01184 0.93737
 C84 C 0.75714 1.01840 0.95657
 N85 N 0.75121 1.00097 0.96843
 C86 C 0.75205 1.03995 0.96229
 C87 C 0.74615 1.04549 0.98372
 C88 C 0.73467 1.06388 0.98964
 C89 C 0.73384 1.06404 1.01193
 C90 C 0.74511 1.04586 1.01906
 N91 N 0.75213 1.03440 1.00170
 C92 C 0.74998 1.04064 1.04095
 H93 H 0.77502 1.02228 1.07632
 H94 H 0.77427 0.97984 1.07651
 H95 H 0.76251 1.02103 1.00217
 H96 H 0.72347 0.92707 1.02206
 H97 H 0.72578 0.92680 0.97948
 H98 H 0.77300 0.97921 0.92480
 H99 H 0.77333 1.02197 0.92459
 H100 H 0.72562 1.07612 1.02164
 H101 H 0.76200 0.98096 1.00241
 H102 H 0.72747 1.07587 0.97903
 C103 C 0.23456 0.43329 0.48833
 C104 C 0.23410 0.43339 0.51059
 C105 C 0.24269 0.45313 0.51712
 N106 N 0.24826 0.46511 0.49962
 C107 C 0.24339 0.45297 0.48201
 C108 C 0.24677 0.45936 0.53879
 C109 C 0.25140 0.48110 0.54444
 C110 C 0.26113 0.48774 0.56361
 C111 C 0.26106 0.51006 0.56349
 C112 C 0.25126 0.51643 0.54426
 N113 N 0.24559 0.49868 0.53266
 C114 C 0.24642 0.53808 0.53841
 C115 C 0.24190 0.54400 0.51675
 C116 C 0.23279 0.56349 0.51019
 C117 C 0.23290 0.56338 0.48793
 C118 C 0.24209 0.54384 0.48165
 N119 N 0.24748 0.53198 0.49929
 C120 C 0.24687 0.53771 0.46011
 C121 C 0.25218 0.51610 0.45461
 C122 C 0.26256 0.50969 0.43571
 C123 C 0.26300 0.48739 0.43583
 C124 C 0.25283 0.48078 0.45479
 N125 N 0.24647 0.49839 0.46624
 C126 C 0.24824 0.45905 0.46047
 H127 H 0.22889 0.42025 0.47804
 H128 H 0.22800 0.42044 0.52074
 H129 H 0.23656 0.49829 0.47993
 H130 H 0.26765 0.47762 0.57638
 H131 H 0.26751 0.52036 0.57616
 H132 H 0.22659 0.57640 0.52033
 H133 H 0.22679 0.57620 0.47762
 H134 H 0.26999 0.47724 0.42333
 H135 H 0.23606 0.49855 0.51869
 H136 H 0.26916 0.51998 0.42310
 C137 C 1.06409 0.23185 -0.00999
 C138 C 1.06421 0.23249 0.01223
 C139 C 1.04655 0.24500 0.01843
 N140 N 1.03544 0.25169 0.00070
 C141 C 1.04638 0.24401 -0.01671
 C142 C 1.04105 0.25085 0.03998
 C143 C 1.01929 0.25642 0.04506
 C144 C 1.01239 0.26838 0.06289
 C145 C 0.99007 0.26794 0.06277
 C146 C 0.98394 0.25604 0.04473
 N147 N 1.00178 0.24942 0.03380
 C148 C 0.96250 0.25003 0.03947
 C149 C 0.95675 0.24439 0.01808
 C150 C 0.93809 0.23346 0.01201
 C151 C 0.93795 0.23309 -0.01024
 C152 C 0.95642 0.24409 -0.01703
 N153 N 0.96805 0.25067 0.00037
 C154 C 0.96203 0.24928 -0.03871
 C155 C 0.98381 0.25478 -0.04382
 C156 C 0.99046 0.26745 -0.06120
 C157 C 1.01276 0.26741 -0.06110
 C158 C 1.01920 0.25476 -0.04364
 N159 N 1.00145 0.24760 -0.03284
 C160 C 1.04085 0.24897 -0.03846
 H161 H 1.07545 0.22288 -0.01991
 H162 H 1.07564 0.22408 0.02255
 H163 H 1.00144 0.23658 -0.01999
 H164 H 1.02225 0.27675 0.07474
 H165 H 0.97958 0.27559 0.07459
 H166 H 0.92597 0.22627 0.02248
 H167 H 0.92576 0.22524 -0.02013
 H168 H 1.02298 0.27611 -0.07241
 H169 H 1.00197 0.23862 0.02076
 H170 H 0.98040 0.27625 -0.07258
 C171 C 0.48559 0.76571 0.56392
 C172 C 0.50782 0.76679 0.56439
 C173 C 0.51511 0.75773 0.54514
 N174 N 0.49811 0.75122 0.53291
 C175 C 0.48005 0.75601 0.54440
 C176 C 0.53709 0.75426 0.53967
 C177 C 0.54374 0.74907 0.51830
 C178 C 0.56399 0.74107 0.51267
 C179 C 0.56463 0.74016 0.49041
 C180 C 0.54458 0.74726 0.48294
 N181 N 0.53198 0.75271 0.50010
 C182 C 0.53901 0.75051 0.46088
 C183 C 0.51734 0.75344 0.45386
 C184 C 0.51105 0.75924 0.43304
 C185 C 0.48881 0.75869 0.43266
 C186 C 0.48217 0.75211 0.45310
 N187 N 0.49963 0.74893 0.46602
 C188 C 0.46048 0.74771 0.45923
 C189 C 0.45449 0.74365 0.48100
 C190 C 0.43546 0.73351 0.48743
 C191 C 0.43499 0.73418 0.50972
 C192 C 0.45371 0.74479 0.51631
 N193 N 0.46561 0.75036 0.49870
 C194 C 0.45879 0.75037 0.53797
 H195 H 0.47480 0.77153 0.57648
 H196 H 0.51746 0.77361 0.57739
 H197 H 0.47919 0.76041 0.49866
 H198 H 0.57713 0.73655 0.52340
 H199 H 0.57854 0.73512 0.48100
 H200 H 0.52124 0.76325 0.41935
 H201 H 0.47881 0.76260 0.41878
 H202 H 0.42226 0.72761 0.51986
 H203 H 0.51726 0.76093 0.49936
 H204 H 0.42316 0.72633 0.47715
 C205 C 0.06175 0.73237 0.01115
 C206 C 0.06198 0.73163 -0.01109
 C207 C 0.04367 0.74274 -0.01815
 N208 N 0.03202 0.74969 -0.00091
 C209 C 0.04317 0.74357 0.01695
 C210 C 0.03824 0.74772 -0.03994
 C211 C 0.01664 0.75380 -0.04518
 C212 C 0.01045 0.76667 -0.06258
 C213 C -0.01184 0.76733 -0.06257
 C214 C -0.01875 0.75483 -0.04517
 N215 N -0.00126 0.74713 -0.03431
 C216 C -0.04060 0.74966 -0.04011
 C217 C -0.04630 0.74435 -0.01850
 C218 C -0.06421 0.73230 -0.01214
 C219 C -0.06442 0.73244 0.01009
 C220 C -0.04665 0.74460 0.01666
 N221 N -0.03535 0.75153 -0.00087
 C222 C -0.04120 0.74998 0.03835
 C223 C -0.01949 0.75559 0.04357
 C224 C -0.01273 0.76751 0.06148
 C225 C 0.00959 0.76724 0.06144
 C226 C 0.01586 0.75543 0.04339
 N227 N -0.00190 0.74874 0.03236
 C228 C 0.03736 0.74951 0.03823
 H229 H 0.07374 0.72523 0.02181
 H230 H 0.07413 0.72347 -0.02076
 H231 H -0.00200 0.73799 0.01929
 H232 H 0.02083 0.77517 -0.07389
 H233 H -0.02172 0.77639 -0.07390
 H234 H -0.07563 0.72372 -0.02234
 H235 H -0.07601 0.72393 0.02014
 H236 H 0.01998 0.77492 0.07334
 H237 H -0.00161 0.73609 -0.02146
 H238 H -0.02272 0.77575 0.07333
 C239 C 0.56757 0.25956 0.51377
 C240 C 0.56808 0.25946 0.49154
 C241 C 0.54781 0.25257 0.48464
 N242 N 0.53489 0.24868 0.50193
 C243 C 0.54686 0.25312 0.51980
 C244 C 0.54191 0.24878 0.46278
 C245 C 0.52028 0.24456 0.45623
 C246 C 0.51436 0.23638 0.43613
 C247 C 0.49209 0.23650 0.43536
 C248 C 0.48487 0.24438 0.45518
 N249 N 0.50221 0.24932 0.46777
 C250 C 0.46291 0.24862 0.46053
 C251 C 0.45583 0.25217 0.48208
 C252 C 0.43501 0.25830 0.48807
 C253 C 0.43450 0.25836 0.51029
 C254 C 0.45489 0.25187 0.51724
 N255 N 0.46787 0.24807 0.49997
 C256 C 0.46084 0.24831 0.53911
 C257 C 0.48254 0.24453 0.54569
 C258 C 0.48860 0.23659 0.56584
 C259 C 0.51086 0.23714 0.56662
 C260 C 0.51795 0.24501 0.54674
 N261 N 0.50052 0.24955 0.53412
 C262 C 0.53983 0.24964 0.54137
 H263 H 0.58112 0.26367 0.52412
 H264 H 0.58192 0.26387 0.48169
 H265 H 0.50081 0.25810 0.51959
 H266 H 0.52494 0.23107 0.42317
 H267 H 0.48255 0.23157 0.42151
 H268 H 0.42138 0.26210 0.47770
 H269 H 0.42059 0.26261 0.52011
 H270 H 0.52048 0.23247 0.58051
 H271 H 0.50177 0.25796 0.48225
 H272 H 0.47812 0.23117 0.57884
 C273 C 1.06489 -0.01130 0.23595
 C274 C 1.06484 0.01092 0.23622
 C275 C 1.04669 0.01720 0.24795
 N276 N 1.03545 -0.00049 0.25454
 C277 C 1.04679 -0.01796 0.24755
 C278 C 1.04087 0.03885 0.25314
 C279 C 1.01887 0.04404 0.25762
 C280 C 1.01152 0.06208 0.26898
 C281 C 0.98925 0.06204 0.26758
 C282 C 0.98355 0.04383 0.25572
 N283 N 1.00164 0.03275 0.25002
 C284 C 0.96224 0.03839 0.24930
 C285 C 0.95654 0.01687 0.24409
 C286 C 0.93743 0.01034 0.23417
 C287 C 0.93747 -0.01193 0.23440
 C288 C 0.95661 -0.01819 0.24441
 N289 N 0.96830 -0.00058 0.25017
 C290 C 0.96243 -0.03959 0.24995
 C291 C 0.98387 -0.04490 0.25604
 C292 C 0.98988 -0.06308 0.26779
 C293 C 1.01218 -0.06308 0.26868
 C294 C 1.01921 -0.04501 0.25720
 N295 N 1.00180 -0.03376 0.24998
 C296 C 1.04108 -0.03974 0.25228
 H297 H 1.07659 -0.02126 0.22747
 H298 H 1.07648 0.02117 0.22802
 H299 H 1.00223 -0.02055 0.23941
 H300 H 1.02106 0.07401 0.27762
 H301 H 0.97850 0.07397 0.27467
 H302 H 0.92475 0.02049 0.22752
 H303 H 0.92483 -0.02227 0.22795
 H304 H 1.02196 -0.07501 0.27705
 H305 H 1.00230 0.01952 0.23948
 H306 H 0.97932 -0.07506 0.27510
 C307 C 0.48708 0.56520 0.73610
 C308 C 0.50932 0.56537 0.73717
 C309 C 0.51543 0.54601 0.74682
 N310 N 0.49771 0.53401 0.75162
 C311 C 0.48035 0.54574 0.74514
 C312 C 0.53688 0.54016 0.75238
 C313 C 0.54253 0.51869 0.75810
 C314 C 0.56142 0.51269 0.76878
 C315 C 0.56159 0.49041 0.76956
 C316 C 0.54277 0.48339 0.75940
 N317 N 0.53115 0.50072 0.75260
 C318 C 0.53742 0.46145 0.75541
 C319 C 0.51594 0.45469 0.75090
 C320 C 0.50992 0.43406 0.74432
 C321 C 0.48768 0.43379 0.74367
 C322 C 0.48077 0.45443 0.74941
 N323 N 0.49810 0.46710 0.75398
 C324 C 0.45890 0.46081 0.75227
 C325 C 0.45269 0.48270 0.75553
 C326 C 0.43244 0.48957 0.76263
 C327 C 0.43244 0.51184 0.76177
 C328 C 0.45252 0.51806 0.75376
 N329 N 0.46479 0.50022 0.75011
 C330 C 0.45854 0.53962 0.74861
 H331 H 0.47707 0.57792 0.72932
 H332 H 0.51974 0.57824 0.73135
 H333 H 0.47954 0.49992 0.74189
 H334 H 0.57385 0.52323 0.77531
 H335 H 0.57417 0.48053 0.77680
 H336 H 0.52034 0.42047 0.74049
 H337 H 0.47791 0.41980 0.73963
 H338 H 0.41900 0.52217 0.76631
 H339 H 0.51761 0.50025 0.74251
 H340 H 0.41880 0.47978 0.76766
 C341 C 1.01037 1.06376 0.72971
 C342 C 0.98812 1.06409 0.72979
 C343 C 0.98151 1.04574 0.74089
 N344 N 0.99891 1.03419 0.74762
 C345 C 1.01664 1.04533 0.74108
 C346 C 0.95981 1.04043 0.74585
 C347 C 0.95372 1.01917 0.75187
 C348 C 0.93410 1.01339 0.76123
 C349 C 0.93360 0.99111 0.76192
 C350 C 0.95312 0.98385 0.75331
 N351 N 0.96529 1.00111 0.74733
 C352 C 0.95840 0.96202 0.74870
 C353 C 0.97985 0.95547 0.74389
 C354 C 0.98579 0.93564 0.73514
 C355 C 1.00801 0.93533 0.73455
 C356 C 1.01507 0.95467 0.74371
 N357 N 0.99777 0.96704 0.74914
 C358 C 1.03692 0.96042 0.74830
 C359 C 1.04236 0.98226 0.75316
 C360 C 1.05981 0.98881 0.76582
 C361 C 1.06016 1.01106 0.76538
 C362 C 1.04295 1.01764 0.75242
 N363 N 1.03183 0.99996 0.74549
 C364 C 1.03818 1.03940 0.74655
 H365 H 1.02062 1.07559 0.72178
 H366 H 0.97800 1.07628 0.72222
 H367 H 1.01906 0.99992 0.73436
 H368 H 0.92122 1.02403 0.76663
 H369 H 0.92007 0.98156 0.76764
 H370 H 0.97542 0.92265 0.72958
 H371 H 1.01761 0.92229 0.72783
 H372 H 1.07156 1.02116 0.77410
 H373 H 0.97942 1.00053 0.73807
 H374 H 1.07090 0.97866 0.77488
 C375 C 0.43654 0.48641 0.23289
 C376 C 0.43608 0.50863 0.23190
 C377 C 0.45536 0.51586 0.24095
 N378 N 0.46760 0.49884 0.24737
 C379 C 0.45608 0.48081 0.24253
 C380 C 0.46087 0.53781 0.24451
 C381 C 0.48224 0.54442 0.24975
 C382 C 0.48787 0.56462 0.25787
 C383 C 0.51014 0.56525 0.25882
 C384 C 0.51761 0.54524 0.25163
 N385 N 0.50045 0.53268 0.24609
 C386 C 0.53969 0.53969 0.24840
 C387 C 0.54670 0.51804 0.24535
 C388 C 0.56754 0.51178 0.23956
 C389 C 0.56790 0.48955 0.23998
 C390 C 0.54743 0.48289 0.24649
 N391 N 0.53451 0.50033 0.24975
 C392 C 0.54128 0.46121 0.25079
 C393 C 0.51950 0.45521 0.25480
 C394 C 0.51305 0.43616 0.26489
 C395 C 0.49075 0.43570 0.26419
 C396 C 0.48418 0.45445 0.25364
 N397 N 0.50180 0.46634 0.24812
 C398 C 0.46251 0.45954 0.24806
 H399 H 0.42395 0.47565 0.22705
 H400 H 0.42306 0.51830 0.22516
 H401 H 0.50186 0.47995 0.23812
 H402 H 0.47714 0.57773 0.26244
 H403 H 0.51955 0.57912 0.26394
 H404 H 0.58125 0.52198 0.23562
 H405 H 0.58179 0.47957 0.23605
 H406 H 0.48060 0.42296 0.27072
 H407 H 0.50119 0.51801 0.23779
 H408 H 0.52333 0.42384 0.27204
 O409 O 0.25149 0.19169 0.22006
 O410 O 0.27546 0.18539 0.24996
 O411 O 0.19555 0.21879 0.25150
 O412 O 0.18803 0.24713 0.27256
 O413 O 0.22168 0.24865 0.19362
 O414 O 0.25198 0.27175 0.18701
 O415 O 0.25381 0.27838 0.30573
 O416 O 0.22855 0.25028 0.31218
 O417 O 0.30866 0.24772 0.27898
 O418 O 0.31507 0.22399 0.24812
 O419 O 0.28260 0.30390 0.25043
 O420 O 0.25175 0.31085 0.22563
 O421 O 0.25317 0.30430 0.27949
 O422 O 0.22860 0.31090 0.24845
 O423 O 0.30850 0.27763 0.24969
 O424 O 0.31422 0.24623 0.22464
 O425 O 0.28296 0.25014 0.30536
 O426 O 0.25310 0.22431 0.31244
 O427 O 0.25191 0.21761 0.19375
 O428 O 0.27593 0.24770 0.18721
 O429 O 0.19576 0.24870 0.21992
 O430 O 0.19134 0.27434 0.25012
 O431 O 0.22138 0.19238 0.25122
 O432 O 0.25194 0.18608 0.27445
 Zr433 Zr 0.25094 0.20937 0.24930
 O434 O 0.27176 0.22785 0.26910
 Zr435 Zr 0.21325 0.24788 0.24929
 O436 O 0.23227 0.26792 0.26949
 Zr437 Zr 0.25110 0.24715 0.21088
 O438 O 0.27166 0.26743 0.22915
 Zr439 Zr 0.25333 0.24901 0.28846
 O440 O 0.23224 0.22873 0.27039
 Zr441 Zr 0.29092 0.24835 0.24981
 O442 O 0.27203 0.22784 0.22976
 Zr443 Zr 0.25304 0.28683 0.25015
 O444 O 0.23229 0.26846 0.22980
 O445 O 0.23080 0.22737 0.22913
 O446 O 0.27359 0.26903 0.27025
 C447 C 0.25208 0.19776 0.20012
 C448 C 0.20156 0.19883 0.25208
 C449 C 0.20183 0.24922 0.19998
 C450 C 0.25359 0.29823 0.29942
 C451 C 0.30275 0.24902 0.29891
 C452 C 0.30245 0.29756 0.25009
 H453 H 0.28080 0.21796 0.27788
 H454 H 0.28058 0.27628 0.21919
 H455 H 0.22132 0.21808 0.22009
 H456 H 0.22268 0.27689 0.27869
 H457 H 0.21727 0.23975 0.30767
 H458 H 0.19310 0.25533 0.28539
 H459 H 0.31171 0.25843 0.21453
 H460 H 0.28724 0.23744 0.19219
 H461 H 0.26528 0.21428 0.30957
 H462 H 0.24256 0.19169 0.28622
 H463 H 0.26337 0.30771 0.21502
 H464 H 0.24269 0.28367 0.19244
 H465 H 0.28687 0.19022 0.23975
 H466 H 0.31127 0.21262 0.25877
 H467 H 0.19562 0.28436 0.23832
 H468 H 0.21805 0.30801 0.26020
 O469 O 0.75007 0.80716 0.22100
 O470 O 0.72693 0.81338 0.25163
 O471 O 0.80699 0.77979 0.25081
 O472 O 0.81453 0.75145 0.27219
 O473 O 0.77942 0.75057 0.19375
 O474 O 0.74879 0.72723 0.18779
 O475 O 0.75092 0.71986 0.30618
 O476 O 0.77597 0.74914 0.31173
 O477 O 0.69461 0.75144 0.28131
 O478 O 0.68767 0.77527 0.25054
 O479 O 0.71949 0.69500 0.24982
 O480 O 0.75056 0.68823 0.22570
 O481 O 0.74853 0.69418 0.27979
 O482 O 0.77331 0.68754 0.24880
 O483 O 0.69381 0.72135 0.25271
 O484 O 0.68729 0.75243 0.22735
 O485 O 0.72090 0.74782 0.30695
 O486 O 0.74699 0.77289 0.31402
 O487 O 0.74923 0.78136 0.19459
 O488 O 0.72501 0.75161 0.18850
 O489 O 0.80586 0.74981 0.21954
 O490 O 0.81107 0.72451 0.24974
 O491 O 0.78127 0.80628 0.25102
 O492 O 0.75030 0.81327 0.27497
 Zr493 Zr 0.75150 0.78947 0.25023
 O494 O 0.73135 0.77085 0.27057
 Zr495 Zr 0.78901 0.75085 0.24925
 O496 O 0.77045 0.73055 0.26957
 Zr497 Zr 0.75034 0.75184 0.21165
 O498 O 0.73008 0.73160 0.23026
 Zr499 Zr 0.75002 0.74937 0.28922
 O500 O 0.77064 0.77004 0.27094
 Zr501 Zr 0.71150 0.75056 0.25168
 O502 O 0.72991 0.77108 0.23116
 Zr503 Zr 0.74913 0.71189 0.25055
 O504 O 0.76955 0.73039 0.22999
 O505 O 0.77107 0.77148 0.22954
 O506 O 0.72923 0.72955 0.27140
 C507 C 0.74911 0.80118 0.20104
 C508 C 0.80108 0.79977 0.25142
 C509 C 0.79939 0.74968 0.19971
 C510 C 0.74974 0.70009 0.29975
 C511 C 0.70099 0.74955 0.30105
 C512 C 0.69972 0.70142 0.25127
 H513 H 0.72284 0.78067 0.28000
 H514 H 0.72088 0.72291 0.22041
 H515 H 0.78035 0.78074 0.22027
 H516 H 0.78025 0.72146 0.27843
 H517 H 0.78549 0.76155 0.30804
 H518 H 0.80919 0.74407 0.28539
 H519 H 0.68939 0.74011 0.21729
 H520 H 0.71355 0.76131 0.19420
 H521 H 0.75504 0.78580 0.30903
 H522 H 0.76289 0.81081 0.28464
 H523 H 0.73926 0.69183 0.21488
 H524 H 0.75905 0.71575 0.19238
 H525 H 0.71538 0.80872 0.24147
 H526 H 0.69172 0.78640 0.26137
 H527 H 0.80618 0.71414 0.23849
 H528 H 0.78388 0.69021 0.26058
 O529 O 0.75003 0.19583 0.78220
 O530 O 0.72573 0.18985 0.75261
 O531 O 0.80615 0.22225 0.74997
 O532 O 0.81344 0.25052 0.72854
 O533 O 0.78131 0.25234 0.80818
 O534 O 0.75124 0.27571 0.81537
 O535 O 0.74754 0.28306 0.69697
 O536 O 0.77301 0.25435 0.69033
 O537 O 0.69302 0.25286 0.72416
 O538 O 0.68685 0.22880 0.75475
 O539 O 0.72012 0.30846 0.75272
 O540 O 0.75150 0.31474 0.77737
 O541 O 0.74962 0.30880 0.72333
 O542 O 0.77415 0.31497 0.75412
 O543 O 0.69397 0.28244 0.75397
 O544 O 0.68819 0.25084 0.77854
 O545 O 0.71840 0.25516 0.69746
 O546 O 0.74423 0.22961 0.68973
 O547 O 0.75112 0.22164 0.80859
 O548 O 0.72715 0.25166 0.81551
 O549 O 0.80682 0.25199 0.78147
 O550 O 0.81120 0.27749 0.75116
 O551 O 0.78005 0.19615 0.75081
 O552 O 0.74780 0.18978 0.72818
 Zr553 Zr 0.75062 0.21346 0.75290
 O554 O 0.72991 0.23241 0.73343
 Zr555 Zr 0.78878 0.25148 0.75240
 O556 O 0.76974 0.27203 0.73275
 Zr557 Zr 0.75159 0.25114 0.79145
 O558 O 0.73097 0.27172 0.77363
 Zr559 Zr 0.74814 0.25357 0.71400
 O560 O 0.76922 0.23261 0.73145
 Zr561 Zr 0.71119 0.25298 0.75311
 O562 O 0.73011 0.23217 0.77283
 Zr563 Zr 0.74952 0.29108 0.75253
 O564 O 0.77041 0.27227 0.77234
 O565 O 0.77130 0.23115 0.77279
 O566 O 0.72842 0.27369 0.73264
 C567 C 0.75024 0.20183 0.80218
 C568 C 0.79992 0.20237 0.74955
 C569 C 0.80106 0.25258 0.80152
 C570 C 0.74847 0.30285 0.70339
 C571 C 0.69869 0.25421 0.70416
 C572 C 0.70021 0.30231 0.75355
 H573 H 0.72086 0.22274 0.72436
 H574 H 0.72230 0.28058 0.78379
 H575 H 0.78082 0.22174 0.78167
 H576 H 0.77932 0.28093 0.72347
 H577 H 0.78294 0.24216 0.69362
 H578 H 0.80783 0.25819 0.71562
 H579 H 0.69122 0.26268 0.78894
 H580 H 0.71575 0.24142 0.81070
 H581 H 0.75385 0.21744 0.69371
 H582 H 0.76006 0.19192 0.71804
 H583 H 0.73967 0.31193 0.78784
 H584 H 0.76071 0.28749 0.80993
 H585 H 0.71450 0.19489 0.76293
 H586 H 0.69044 0.21756 0.74387
 H587 H 0.80732 0.28759 0.76303
 H588 H 0.78484 0.31173 0.74259
 O589 O 0.24814 0.80616 0.77840
 O590 O 0.27158 0.81232 0.74812
 O591 O 0.19109 0.78030 0.74787
 O592 O 0.18284 0.75244 0.72631
 O593 O 0.21760 0.74956 0.80480
 O594 O 0.24759 0.72577 0.81069
 O595 O 0.24806 0.72027 0.69192
 O596 O 0.22242 0.74851 0.68625
 O597 O 0.30313 0.74855 0.71799
 O598 O 0.31034 0.77328 0.74871
 O599 O 0.27676 0.69372 0.74658
 O600 O 0.24618 0.68705 0.77170
 O601 O 0.24701 0.69416 0.71796
 O602 O 0.22263 0.68769 0.74926
 O603 O 0.30303 0.71961 0.74759
 O604 O 0.30989 0.75080 0.77208
 O605 O 0.27699 0.74947 0.69195
 O606 O 0.24710 0.77431 0.68555
 O607 O 0.24836 0.78001 0.80449
 O608 O 0.27196 0.74948 0.81040
 O609 O 0.19130 0.74989 0.77887
 O610 O 0.18596 0.72481 0.74850
 O611 O 0.21734 0.80630 0.74805
 O612 O 0.24750 0.81232 0.72411
 Zr613 Zr 0.24665 0.78878 0.74904
 O614 O 0.26682 0.77016 0.72873
 Zr615 Zr 0.20834 0.75089 0.74926
 O616 O 0.22671 0.73074 0.72858
 Zr617 Zr 0.24679 0.75065 0.78711
 O618 O 0.26673 0.73021 0.76834
 Zr619 Zr 0.24771 0.74954 0.70944
 O620 O 0.22726 0.76998 0.72805
 Zr621 Zr 0.28594 0.74912 0.74750
 O622 O 0.26773 0.76975 0.76806
 Zr623 Zr 0.24749 0.71132 0.74744
 O624 O 0.22735 0.72982 0.76827
 O625 O 0.22655 0.77090 0.76935
 O626 O 0.26794 0.72898 0.72712
 C627 C 0.24886 0.79991 0.79829
 C628 C 0.19740 0.80017 0.74752
 C629 C 0.19765 0.74921 0.79872
 C630 C 0.24755 0.70037 0.69809
 C631 C 0.29689 0.74892 0.69811
 C632 C 0.29670 0.69978 0.74695
 H633 H 0.27587 0.77998 0.71988
 H634 H 0.27566 0.72115 0.77810
 H635 H 0.21739 0.78024 0.77867
 H636 H 0.21688 0.72198 0.71942
 H637 H 0.21135 0.75916 0.69097
 H638 H 0.18735 0.74387 0.71352
 H639 H 0.30696 0.73904 0.78260
 H640 H 0.28333 0.75966 0.80539
 H641 H 0.25827 0.78520 0.68928
 H642 H 0.23722 0.80739 0.71280
 H643 H 0.25790 0.69000 0.78227
 H644 H 0.23792 0.71411 0.80533
 H645 H 0.28333 0.80688 0.75763
 H646 H 0.30722 0.78401 0.73719
 H647 H 0.19036 0.71451 0.76001
 H648 H 0.21208 0.69073 0.73754
 O649 O 0.24853 0.30479 0.72001
 O650 O 0.22515 0.31078 0.75033
 O651 O 0.30573 0.27878 0.74988
 O652 O 0.31374 0.25098 0.77194
 O653 O 0.27921 0.24786 0.69326
 O654 O 0.24885 0.22473 0.68709
 O655 O 0.24964 0.21840 0.80593
 O656 O 0.27451 0.24694 0.81176
 O657 O 0.19370 0.24718 0.78012
 O658 O 0.18657 0.27180 0.74929
 O659 O 0.22005 0.19213 0.75033
 O660 O 0.25111 0.18576 0.72581
 O661 O 0.24905 0.19240 0.77975
 O662 O 0.27410 0.18600 0.74885
 O663 O 0.19378 0.21802 0.75075
 O664 O 0.18680 0.24905 0.72614
 O665 O 0.21992 0.24699 0.80611
 O666 O 0.24963 0.27237 0.81263
 O667 O 0.24895 0.27882 0.69373
 O668 O 0.22472 0.24867 0.68775
 O669 O 0.30551 0.24884 0.71918
 O670 O 0.31092 0.22339 0.74911
 O671 O 0.27943 0.30472 0.75104
 O672 O 0.24894 0.31072 0.77429
 Zr673 Zr 0.25009 0.28725 0.74930
 O674 O 0.23000 0.26846 0.76951
 Zr675 Zr 0.28845 0.24940 0.74875
 O676 O 0.27012 0.22906 0.76927
 Zr677 Zr 0.25001 0.24934 0.71094
 O678 O 0.23007 0.22879 0.72959
 Zr679 Zr 0.24919 0.24773 0.78859
 O680 O 0.26955 0.26833 0.77010
 Zr681 Zr 0.21087 0.24754 0.75061
 O682 O 0.22906 0.26830 0.73015
 Zr683 Zr 0.24931 0.20974 0.75033
 O684 O 0.26945 0.22840 0.72963
 O685 O 0.27020 0.26954 0.72884
 O686 O 0.22891 0.22728 0.77082
 C687 C 0.24818 0.29868 0.70007
 C688 C 0.29938 0.29860 0.75100
 C689 C 0.29916 0.24790 0.69935
 C690 C 0.24935 0.19853 0.79966
 C691 C 0.19999 0.24696 0.79998
 C692 C 0.20010 0.19818 0.75056
 H693 H 0.22094 0.27820 0.77845
 H694 H 0.22116 0.21979 0.71976
 H695 H 0.27937 0.27895 0.71960
 H696 H 0.27998 0.22024 0.77834
 H697 H 0.28556 0.25757 0.80694
 H698 H 0.30945 0.24181 0.78439
 H699 H 0.18987 0.23745 0.71549
 H700 H 0.21348 0.25891 0.69293
 H701 H 0.23791 0.28283 0.80940
 H702 H 0.25874 0.30550 0.78590
 H703 H 0.23945 0.18873 0.71518
 H704 H 0.25852 0.21298 0.69222
 H705 H 0.21345 0.30545 0.74070
 H706 H 0.18966 0.28249 0.76085
 H707 H 0.30626 0.21301 0.73778
 H708 H 0.28453 0.18901 0.76068
 O709 O 0.74715 0.69607 0.71983
 O710 O 0.77172 0.68928 0.74914
 O711 O 0.69131 0.72143 0.75308
 O712 O 0.68350 0.74948 0.77440
 O713 O 0.71657 0.75371 0.69540
 O714 O 0.74674 0.77695 0.68912
 O715 O 0.74916 0.78049 0.80790
 O716 O 0.72383 0.75143 0.81330
 O717 O 0.80415 0.75218 0.78006
 O718 O 0.81067 0.72823 0.74932
 O719 O 0.77729 0.80767 0.75346
 O720 O 0.74622 0.81482 0.72856
 O721 O 0.74796 0.80701 0.78229
 O722 O 0.72322 0.81414 0.75162
 O723 O 0.80342 0.78178 0.75049
 O724 O 0.80934 0.75047 0.72563
 O725 O 0.77857 0.75201 0.80667
 O726 O 0.75254 0.72685 0.81341
 O727 O 0.74703 0.72266 0.69421
 O728 O 0.77075 0.75307 0.68838
 O729 O 0.69084 0.75197 0.72185
 O730 O 0.68634 0.77685 0.75291
 O731 O 0.71735 0.69541 0.75042
 O732 O 0.74924 0.68841 0.77363
 Zr733 Zr 0.74676 0.71281 0.74959
 O734 O 0.76733 0.73109 0.76983
 Zr735 Zr 0.70863 0.75077 0.75107
 O736 O 0.72752 0.77063 0.77155
 Zr737 Zr 0.74616 0.75167 0.71227
 O738 O 0.76662 0.77168 0.73092
 Zr739 Zr 0.74893 0.75154 0.78986
 O740 O 0.72799 0.73120 0.77154
 Zr741 Zr 0.78622 0.75230 0.75098
 O742 O 0.76747 0.73211 0.73045
 Zr743 Zr 0.74791 0.79029 0.75255
 O744 O 0.72720 0.77215 0.73195
 O745 O 0.72625 0.73114 0.73012
 O746 O 0.76881 0.77226 0.77205
 C747 C 0.74739 0.70265 0.70005
 C748 C 0.69752 0.70155 0.75229
 C749 C 0.69676 0.75354 0.70191
 C750 C 0.74865 0.80048 0.80206
 C751 C 0.79835 0.75214 0.80008
 C752 C 0.79717 0.80159 0.75202
 H753 H 0.77631 0.72114 0.77864
 H754 H 0.77535 0.78085 0.72110
 H755 H 0.71677 0.72206 0.72086
 H756 H 0.71787 0.77924 0.78104
 H757 H 0.71397 0.73933 0.80950
 H758 H 0.68924 0.75603 0.78786
 H759 H 0.80639 0.76250 0.71544
 H760 H 0.78209 0.74259 0.69283
 H761 H 0.74333 0.71463 0.80867
 H762 H 0.73663 0.69002 0.78344
 H763 H 0.75828 0.81249 0.71824
 H764 H 0.73757 0.78873 0.69504
 H765 H 0.78302 0.69477 0.73912
 H766 H 0.80697 0.71677 0.75991
 H767 H 0.69025 0.78718 0.74125
 H768 H 0.71265 0.81070 0.76320
 O769 O 0.24797 0.69173 0.27850
 O770 O 0.22438 0.68571 0.24825
 O771 O 0.30500 0.71736 0.24579
 O772 O 0.31332 0.74608 0.22563
 O773 O 0.27972 0.74834 0.30438
 O774 O 0.24957 0.77188 0.31092
 O775 O 0.24898 0.77813 0.19239
 O776 O 0.27353 0.74832 0.18662
 O777 O 0.19280 0.74907 0.21892
 O778 O 0.18615 0.72461 0.24967
 O779 O 0.21973 0.80424 0.24839
 O780 O 0.25124 0.81044 0.27262
 O781 O 0.24844 0.80407 0.21863
 O782 O 0.27375 0.81040 0.24910
 O783 O 0.19337 0.77841 0.24823
 O784 O 0.18677 0.74733 0.27302
 O785 O 0.21862 0.75028 0.19259
 O786 O 0.24416 0.72505 0.18519
 O787 O 0.24929 0.71775 0.30467
 O788 O 0.22544 0.74790 0.31097
 O789 O 0.30560 0.74685 0.27807
 O790 O 0.31047 0.77269 0.24781
 O791 O 0.27884 0.69142 0.24832
 O792 O 0.24750 0.68509 0.22452
 Zr793 Zr 0.24953 0.70903 0.24906
 O794 O 0.22934 0.72794 0.22900
 Zr795 Zr 0.28797 0.74675 0.24874
 O796 O 0.26940 0.76729 0.22865
 Zr797 Zr 0.25021 0.74707 0.28725
 O798 O 0.22998 0.76759 0.26892
 Zr799 Zr 0.24808 0.74876 0.20968
 O800 O 0.26862 0.72780 0.22770
 Zr801 Zr 0.21044 0.74886 0.24817
 O802 O 0.22886 0.72812 0.26845
 Zr803 Zr 0.24898 0.78662 0.24797
 O804 O 0.26946 0.76786 0.26824
 O805 O 0.27005 0.72675 0.26908
 O806 O 0.22818 0.76921 0.22779
 C807 C 0.24812 0.69790 0.29842
 C808 C 0.29870 0.69750 0.24635
 C809 C 0.29958 0.74795 0.29801
 C810 C 0.24873 0.79798 0.19870
 C811 C 0.19878 0.74991 0.19898
 C812 C 0.19977 0.79824 0.24838
 H813 H 0.22038 0.71827 0.21985
 H814 H 0.22122 0.77659 0.27889
 H815 H 0.27934 0.71732 0.27819
 H816 H 0.27921 0.77604 0.21946
 H817 H 0.28289 0.73575 0.19021
 H818 H 0.30755 0.75260 0.21216
 H819 H 0.18991 0.75904 0.28353
 H820 H 0.21393 0.73790 0.30592
 H821 H 0.25189 0.71198 0.19026
 H822 H 0.26011 0.68710 0.21478
 H823 H 0.23954 0.80765 0.28324
 H824 H 0.25949 0.78339 0.30575
 H825 H 0.21294 0.69096 0.25822
 H826 H 0.18930 0.71381 0.23822
 H827 H 0.30641 0.78283 0.25959
 H828 H 0.28426 0.80711 0.23743
 O829 O 0.75362 0.30645 0.28213
 O830 O 0.77698 0.31290 0.25181
 O831 O 0.69660 0.28083 0.25062
 O832 O 0.68794 0.25262 0.23007
 O833 O 0.72315 0.24951 0.30813
 O834 O 0.75327 0.22587 0.31383
 O835 O 0.75306 0.22131 0.19495
 O836 O 0.72761 0.24980 0.18965
 O837 O 0.80850 0.24970 0.22111
 O838 O 0.81575 0.27383 0.25220
 O839 O 0.78214 0.19427 0.25017
 O840 O 0.75137 0.18736 0.27441
 O841 O 0.75280 0.19498 0.22079
 O842 O 0.72794 0.18835 0.25193
 O843 O 0.80844 0.22014 0.24976
 O844 O 0.81538 0.25083 0.27519
 O845 O 0.78229 0.25040 0.19513
 O846 O 0.75255 0.27529 0.18891
 O847 O 0.75419 0.28014 0.30804
 O848 O 0.77755 0.24950 0.31365
 O849 O 0.69681 0.25088 0.28225
 O850 O 0.69161 0.22522 0.25192
 O851 O 0.72274 0.30688 0.25224
 O852 O 0.75268 0.31306 0.22788
 Zr853 Zr 0.75206 0.28934 0.25264
 O854 O 0.77219 0.27089 0.23212
 Zr855 Zr 0.71381 0.25145 0.25262
 O856 O 0.73212 0.23147 0.23174
 Zr857 Zr 0.75234 0.25091 0.29042
 O858 O 0.77222 0.23063 0.27142
 Zr859 Zr 0.75305 0.25043 0.21271
 O860 O 0.73265 0.27072 0.23152
 Zr861 Zr 0.79137 0.24967 0.25064
 O862 O 0.77321 0.27015 0.27143
 Zr863 Zr 0.75291 0.21190 0.25044
 O864 O 0.73284 0.23025 0.27147
 O865 O 0.73204 0.27131 0.27286
 O866 O 0.77330 0.22970 0.23017
 C867 C 0.75458 0.30008 0.30195
 C868 C 0.70284 0.30072 0.25102
 C869 C 0.70318 0.24971 0.30208
 C870 C 0.75291 0.20136 0.20096
 C871 C 0.80222 0.25004 0.20125
 C872 C 0.80209 0.20031 0.24979
 H873 H 0.78122 0.28080 0.22334
 H874 H 0.78116 0.22148 0.28108
 H875 H 0.72292 0.28062 0.28225
 H876 H 0.72226 0.22279 0.22253
 H877 H 0.71664 0.26048 0.19454
 H878 H 0.69270 0.24477 0.21692
 H879 H 0.81275 0.23862 0.28526
 H880 H 0.78911 0.25937 0.30846
 H881 H 0.76344 0.28635 0.19296
 H882 H 0.74222 0.30825 0.21667
 H883 H 0.76260 0.19055 0.28541
 H884 H 0.74339 0.21435 0.30858
 H885 H 0.78870 0.30747 0.26136
 H886 H 0.81253 0.28480 0.24094
 H887 H 0.69586 0.21515 0.26369
 H888 H 0.71758 0.19138 0.24006
 C889 C 0.25189 0.08509 0.08720
 N890 N 0.24902 0.06390 0.09235
 N891 N 0.24867 0.04880 0.07689
 C892 C 0.25119 0.05417 0.05562
 N893 N 0.25409 0.07547 0.05064
 N894 N 0.25442 0.09060 0.06606
 C895 C 0.25221 0.10181 0.10417
 N896 N 0.25424 0.12308 0.09883
 N897 N 0.25443 0.13829 0.11417
 C898 C 0.25264 0.13280 0.13542
 N899 N 0.25063 0.11153 0.14077
 N900 N 0.25041 0.09631 0.12542
 C901 C 0.25271 0.14963 0.15229
 N902 N 0.25157 0.14420 0.17361
 N903 N 0.25149 0.15952 0.18886
 C904 C 0.25250 0.18083 0.18335
 N905 N 0.25365 0.18624 0.16204
 N906 N 0.25377 0.17093 0.14679
 C907 C 0.74615 0.59045 0.58670
 N908 N 0.75650 0.59363 0.56753
 N909 N 0.75724 0.57792 0.55270
 C910 C 0.74759 0.55846 0.55644
 N911 N 0.73698 0.55542 0.57552
 N912 N 0.73636 0.57108 0.59040
 C913 C 0.74597 0.60746 0.60337
 N914 N 0.73906 0.60297 0.62379
 N915 N 0.73934 0.61822 0.63910
 C916 C 0.74642 0.63857 0.63451
 N917 N 0.75321 0.64310 0.61406
 N918 N 0.75307 0.62780 0.59878
 C919 C 0.74683 0.65528 0.65148
 N920 N 0.75059 0.67639 0.64644
 N921 N 0.75082 0.69151 0.66189
 C922 C 0.74747 0.68604 0.68297
 N923 N 0.74381 0.66491 0.68800
 N924 N 0.74343 0.64983 0.67254
 C925 C 0.74758 0.91441 0.08872
 N926 N 0.74549 0.93563 0.09411
 N927 N 0.74578 0.95091 0.07884
 C928 C 0.74823 0.94571 0.05752
 N929 N 0.75031 0.92437 0.05228
 N930 N 0.74998 0.90905 0.06752
 C931 C 0.74738 0.89754 0.10554
 N932 N 0.74871 0.87626 0.10004
 N933 N 0.74866 0.86094 0.11529
 C934 C 0.74733 0.86635 0.13660
 N935 N 0.74599 0.88764 0.14210
 N936 N 0.74600 0.90295 0.12685
 C937 C 0.74751 0.84945 0.15339
 N938 N 0.74724 0.85481 0.17476
 N939 N 0.74766 0.83945 0.18996
 C940 C 0.74832 0.81816 0.18434
 N941 N 0.74853 0.81281 0.16297
 N942 N 0.74815 0.82817 0.14778
 C943 C 0.24697 0.41160 0.58746
 N944 N 0.25599 0.40758 0.56778
 N945 N 0.25602 0.42276 0.55240
 C946 C 0.24690 0.44249 0.55604
 N947 N 0.23789 0.44648 0.57577
 N948 N 0.23798 0.43135 0.59120
 C949 C 0.24690 0.39480 0.60434
 N950 N 0.24060 0.39954 0.62491
 N951 N 0.24061 0.38426 0.64021
 C952 C 0.24679 0.36366 0.63545
 N953 N 0.25302 0.35892 0.61486
 N954 N 0.25313 0.37422 0.59961
 C955 C 0.24686 0.34678 0.65226
 N956 N 0.25030 0.32571 0.64688
 N957 N 0.25053 0.31038 0.66210
 C958 C 0.24745 0.31556 0.68328
 N959 N 0.24403 0.33665 0.68867
 N960 N 0.24366 0.35197 0.67343
 C961 C 0.75124 0.08835 0.91427
 N962 N 0.74379 0.06811 0.90987
 N963 N 0.74404 0.05277 0.92509
 C964 C 0.75188 0.05703 0.94525
 N965 N 0.75933 0.07731 0.94962
 N966 N 0.75899 0.09268 0.93443
 C967 C 0.75091 0.10529 0.89752
 N968 N 0.75613 0.12609 0.90253
 N969 N 0.75580 0.14146 0.88734
 C970 C 0.75033 0.13658 0.86657
 N971 N 0.74516 0.11577 0.86154
 N972 N 0.74539 0.10041 0.87676
 C973 C 0.75011 0.15352 0.84982
 N974 N 0.74704 0.14834 0.82863
 N975 N 0.74704 0.16372 0.81343
 C976 C 0.74999 0.18485 0.81890
 N977 N 0.75298 0.19003 0.84011
 N978 N 0.75308 0.17465 0.85528
 C979 C 0.24709 0.58536 0.41137
 N980 N 0.23853 0.56544 0.40750
 N981 N 0.23844 0.55034 0.42296
 C982 C 0.24699 0.55454 0.44284
 N983 N 0.25567 0.57445 0.44662
 N984 N 0.25565 0.58958 0.43121
 C985 C 0.24702 0.60210 0.39444
 N986 N 0.25308 0.62274 0.39916
 N987 N 0.25297 0.63800 0.38386
 C988 C 0.24690 0.63314 0.36325
 N989 N 0.24089 0.61249 0.35850
 N990 N 0.24089 0.59726 0.37384
 C991 C 0.24694 0.64996 0.34639
 N992 N 0.24359 0.64472 0.32525
 N993 N 0.24391 0.65999 0.30996
 C994 C 0.24745 0.68107 0.31526
 N995 N 0.25070 0.68632 0.33641
 N996 N 0.25050 0.67104 0.35168
 C997 C 0.25111 0.91207 0.91167
 N998 N 0.24843 0.93330 0.90657
 N999 N 0.24825 0.94838 0.92205
 C1000 C 0.25076 0.94294 0.94330
 N1001 N 0.25347 0.92160 0.94824
 N1002 N 0.25362 0.90649 0.93280
 C1003 C 0.25119 0.89539 0.89466
 N1004 N 0.25299 0.87408 0.89993
 N1005 N 0.25292 0.85891 0.88453
 C1006 C 0.25109 0.86449 0.86331
 N1007 N 0.24933 0.88580 0.85803
 N1008 N 0.24937 0.90098 0.87343
 C1009 C 0.25081 0.84773 0.84638
 N1010 N 0.24959 0.85330 0.82510
 N1011 N 0.24911 0.83807 0.80976
 C1012 C 0.24981 0.81672 0.81515
 N1013 N 0.25105 0.81117 0.83643
 N1014 N 0.25157 0.82640 0.85176
 C1015 C 0.75755 0.41304 0.41447
 N1016 N 0.76703 0.40964 0.43406
 N1017 N 0.76670 0.42503 0.44925
 C1018 C 0.75673 0.44433 0.44547
 N1019 N 0.74723 0.44766 0.42587
 N1020 N 0.74769 0.43234 0.41064
 C1021 C 0.75774 0.39613 0.39771
 N1022 N 0.75098 0.40068 0.37725
 N1023 N 0.75092 0.38536 0.36202
 C1024 C 0.75749 0.36488 0.36671
 N1025 N 0.76423 0.36029 0.38718
 N1026 N 0.76442 0.37566 0.40240
 C1027 C 0.75708 0.34799 0.34992
 N1028 N 0.76032 0.32683 0.35511
 N1029 N 0.75956 0.31153 0.33984
 C1030 C 0.75568 0.31687 0.31882
 N1031 N 0.75255 0.33804 0.31364
 N1032 N 0.75317 0.35331 0.32891
 C1033 C 0.08852 0.25147 0.08765
 N1034 N 0.06725 0.24967 0.09304
 N1035 N 0.05200 0.24949 0.07771
 C1036 C 0.05729 0.25112 0.05635
 N1037 N 0.07867 0.25295 0.05111
 N1038 N 0.09395 0.25310 0.06640
 C1039 C 0.10538 0.25151 0.10449
 N1040 N 0.12669 0.25263 0.09897
 N1041 N 0.14202 0.25251 0.11422
 C1042 C 0.13661 0.25130 0.13553
 N1043 N 0.11530 0.25022 0.14105
 N1044 N 0.09997 0.25031 0.12580
 C1045 C 0.15354 0.25099 0.15231
 N1046 N 0.14817 0.25018 0.17365
 N1047 N 0.16355 0.24972 0.18885
 C1048 C 0.18486 0.25003 0.18325
 N1049 N 0.19023 0.25086 0.16190
 N1050 N 0.17485 0.25135 0.14671
 C1051 C 0.58413 0.75658 0.58899
 N1052 N 0.56489 0.74641 0.59230
 N1053 N 0.54998 0.74572 0.57666
 C1054 C 0.55368 0.75529 0.55716
 N1055 N 0.57291 0.76558 0.55392
 N1056 N 0.58788 0.76615 0.56951
 C1057 C 0.60073 0.75692 0.60608
 N1058 N 0.62112 0.76406 0.60178
 N1059 N 0.63630 0.76393 0.61718
 C1060 C 0.63161 0.75678 0.63748
 N1061 N 0.61118 0.74977 0.64182
 N1062 N 0.59603 0.74977 0.62638
 C1063 C 0.64844 0.75631 0.65433
 N1064 N 0.64327 0.75177 0.67526
 N1065 N 0.65862 0.75107 0.69048
 C1066 C 0.67973 0.75474 0.68528
 N1067 N 0.68489 0.75926 0.66435
 N1068 N 0.66952 0.76010 0.64917
 C1069 C 0.08540 0.74732 0.91210
 N1070 N 0.09100 0.74926 0.93328
 N1071 N 0.07583 0.74937 0.94867
 C1072 C 0.05442 0.74750 0.94363
 N1073 N 0.04896 0.74557 0.92232
 N1074 N 0.06409 0.74549 0.90688
 C1075 C 0.10214 0.74729 0.89513
 N1076 N 0.09656 0.74610 0.87386
 N1077 N 0.11177 0.74619 0.85849
 C1078 C 0.13312 0.74744 0.86385
 N1079 N 0.13869 0.74859 0.88512
 N1080 N 0.12348 0.74853 0.90048
 C1081 C 0.14989 0.74768 0.84692
 N1082 N 0.17125 0.74841 0.85231
 N1083 N 0.18647 0.74879 0.83696
 C1084 C 0.18089 0.74849 0.81565
 N1085 N 0.15953 0.74775 0.81026
 N1086 N 0.14431 0.74733 0.82561
 C1087 C 0.59051 0.24867 0.41496
 N1088 N 0.59341 0.23773 0.43385
 N1089 N 0.57800 0.23772 0.44901
 C1090 C 0.55918 0.24880 0.44593
 N1091 N 0.55634 0.25979 0.42704
 N1092 N 0.57168 0.25966 0.41182
 C1093 C 0.60739 0.24860 0.39816
 N1094 N 0.60312 0.25644 0.37803
 N1095 N 0.61839 0.25635 0.36274
 C1096 C 0.63854 0.24856 0.36705
 N1097 N 0.64285 0.24078 0.38721
 N1098 N 0.62752 0.24073 0.40247
 C1099 C 0.65536 0.24863 0.35019
 N1100 N 0.67639 0.24434 0.35523
 N1101 N 0.69165 0.24466 0.33991
 C1102 C 0.68641 0.24913 0.31898
 N1103 N 0.66537 0.25332 0.31395
 N1104 N 0.65014 0.25315 0.32928
 C1105 C 0.91148 0.74932 0.08616
 N1106 N 0.93278 0.74753 0.09144
 N1107 N 0.94797 0.74775 0.07606
 C1108 C 0.94259 0.74980 0.05475
 N1109 N 0.92118 0.75163 0.04963
 N1110 N 0.90596 0.75138 0.06497
 C1111 C 0.89471 0.74905 0.10309
 N1112 N 0.87337 0.75038 0.09775
 N1113 N 0.85815 0.75018 0.11310
 C1114 C 0.86372 0.74865 0.13436
 N1115 N 0.88506 0.74732 0.13970
 N1116 N 0.90028 0.74750 0.12434
 C1117 C 0.84697 0.74862 0.15132
 N1118 N 0.85260 0.74776 0.17259
 N1119 N 0.83744 0.74798 0.18799
 C1120 C 0.81607 0.74903 0.18269
 N1121 N 0.81043 0.74983 0.16140
 N1122 N 0.82560 0.74964 0.14600
 C1123 C 0.41217 0.24765 0.58684
 N1124 N 0.40948 0.23657 0.56800
 N1125 N 0.42493 0.23672 0.55288
 C1126 C 0.44356 0.24811 0.55594
 N1127 N 0.44618 0.25923 0.57479
 N1128 N 0.43081 0.25895 0.58998
 C1129 C 0.39523 0.24743 0.60358
 N1130 N 0.39937 0.25531 0.62372
 N1131 N 0.38405 0.25510 0.63896
 C1132 C 0.36398 0.24714 0.63457
 N1133 N 0.35981 0.23932 0.61440
 N1134 N 0.37519 0.23938 0.59920
 C1135 C 0.34711 0.24708 0.65137
 N1136 N 0.32610 0.24278 0.64625
 N1137 N 0.31079 0.24301 0.66152
 C1138 C 0.31597 0.24739 0.68249
 N1139 N 0.33699 0.25158 0.68760
 N1140 N 0.35226 0.25151 0.67232
 C1141 C 0.91479 0.25100 0.91342
 N1142 N 0.90931 0.25281 0.93464
 N1143 N 0.92450 0.25224 0.95000
 C1144 C 0.94583 0.24978 0.94488
 N1145 N 0.95118 0.24797 0.92353
 N1146 N 0.93602 0.24857 0.90813
 C1147 C 0.89798 0.25162 0.89654
 N1148 N 0.90336 0.25034 0.87522
 N1149 N 0.88802 0.25083 0.85996
 C1150 C 0.86676 0.25261 0.86550
 N1151 N 0.86140 0.25390 0.88682
 N1152 N 0.87672 0.25343 0.90205
 C1153 C 0.84978 0.25292 0.84878
 N1154 N 0.82853 0.25389 0.85452
 N1155 N 0.81305 0.25390 0.83944
 C1156 C 0.81823 0.25299 0.81805
 N1157 N 0.83949 0.25208 0.81229
 N1158 N 0.85498 0.25204 0.82739
 C1159 C 0.41202 0.74645 0.41124
 N1160 N 0.40851 0.75652 0.43050
 N1161 N 0.42387 0.75683 0.44571
 C1162 C 0.44330 0.74700 0.44229
 N1163 N 0.44669 0.73669 0.42310
 N1164 N 0.43138 0.73650 0.40783
 C1165 C 0.39525 0.74657 0.39430
 N1166 N 0.39982 0.73956 0.37392
 N1167 N 0.38467 0.73998 0.35850
 C1168 C 0.36436 0.74731 0.36292
 N1169 N 0.35978 0.75424 0.38332
 N1170 N 0.37496 0.75395 0.39871
 C1171 C 0.34760 0.74770 0.34598
 N1172 N 0.32661 0.75197 0.35113
 N1173 N 0.31134 0.75213 0.33582
 C1174 C 0.31652 0.74818 0.31478
 N1175 N 0.33754 0.74401 0.30961
 N1176 N 0.35279 0.74373 0.32494
 C1177 C 0.08820 0.08662 0.25471
 N1178 N 0.09359 0.06543 0.25705
 N1179 N 0.07835 0.05012 0.25662
 C1180 C 0.05706 0.05526 0.25377
 N1181 N 0.05181 0.07657 0.25146
 N1182 N 0.06702 0.09193 0.25193
 C1183 C 0.10505 0.10348 0.25497
 N1184 N 0.09965 0.12476 0.25327
 N1185 N 0.11498 0.14002 0.25328
 C1186 C 0.13626 0.13453 0.25496
 N1187 N 0.14165 0.11325 0.25668
 N1188 N 0.12632 0.09800 0.25670
 C1189 C 0.15320 0.15129 0.25462
 N1190 N 0.17450 0.14567 0.25514
 N1191 N 0.18990 0.16083 0.25446
 C1192 C 0.18456 0.18217 0.25329
 N1193 N 0.16325 0.18779 0.25285
 N1194 N 0.14785 0.17262 0.25349
 C1195 C 0.58514 0.58833 0.75343
 N1196 N 0.56513 0.59233 0.76173
 N1197 N 0.54986 0.57704 0.76146
 C1198 C 0.55395 0.55720 0.75276
 N1199 N 0.57398 0.55324 0.74444
 N1200 N 0.58930 0.56849 0.74481
 C1201 C 0.60196 0.60520 0.75367
 N1202 N 0.62259 0.60054 0.74749
 N1203 N 0.63784 0.61586 0.74763
 C1204 C 0.63300 0.63642 0.75385
 N1205 N 0.61236 0.64110 0.75999
 N1206 N 0.59713 0.62575 0.75995
 C1207 C 0.64978 0.65334 0.75374
 N1208 N 0.64450 0.67441 0.75745
 N1209 N 0.65971 0.68978 0.75705
 C1210 C 0.68076 0.68462 0.75306
 N1211 N 0.68604 0.66354 0.74945
 N1212 N 0.67082 0.64820 0.74974
 C1213 C 0.91234 0.08937 0.74428
 N1214 N 0.93240 0.09343 0.75242
 N1215 N 0.94744 0.07792 0.75285
 C1216 C 0.94305 0.05778 0.74507
 N1217 N 0.92301 0.05379 0.73677
 N1218 N 0.90792 0.06927 0.73645
 C1219 C 0.89563 0.10635 0.74427
 N1220 N 0.87474 0.10156 0.73912
 N1221 N 0.85951 0.11690 0.73956
 C1222 C 0.86464 0.13760 0.74505
 N1223 N 0.88554 0.14241 0.75009
 N1224 N 0.90075 0.12705 0.74977
 C1225 C 0.84782 0.15446 0.74584
 N1226 N 0.85331 0.17557 0.74889
 N1227 N 0.83805 0.19085 0.74990
 C1228 C 0.81674 0.18556 0.74801
 N1229 N 0.81125 0.16445 0.74498
 N1230 N 0.82652 0.14918 0.74385
 C1231 C 0.41166 0.58497 0.24248
 N1232 N 0.40831 0.56571 0.25259
 N1233 N 0.42390 0.55075 0.25316
 C1234 C 0.44339 0.55442 0.24354
 N1235 N 0.44667 0.57367 0.23331
 N1236 N 0.43112 0.58869 0.23285
 C1237 C 0.39461 0.60162 0.24229
 N1238 N 0.39893 0.62200 0.23515
 N1239 N 0.38356 0.63721 0.23541
 C1240 C 0.36329 0.63255 0.24271
 N1241 N 0.35896 0.61214 0.24974
 N1242 N 0.37435 0.59697 0.24959
 C1243 C 0.34644 0.64938 0.24330
 N1244 N 0.32557 0.64418 0.24809
 N1245 N 0.31032 0.65949 0.24890
 C1246 C 0.31542 0.68057 0.24507
 N1247 N 0.33629 0.68577 0.24030
 N1248 N 0.35152 0.67044 0.23937
 C1249 C 0.08500 0.91337 0.74916
 N1250 N 0.09009 0.93451 0.74583
 N1251 N 0.07462 0.94962 0.74567
 C1252 C 0.05341 0.94429 0.74882
 N1253 N 0.04854 0.92307 0.75239
 N1254 N 0.06395 0.90794 0.75251
 C1255 C 0.10189 0.89656 0.74887
 N1256 N 0.09647 0.87531 0.75087
 N1257 N 0.11170 0.85999 0.75038
 C1258 C 0.13293 0.86535 0.74790
 N1259 N 0.13836 0.88661 0.74594
 N1260 N 0.12311 0.90194 0.74638
 C1261 C 0.14969 0.84842 0.74746
 N1262 N 0.17103 0.85377 0.74624
 N1263 N 0.18623 0.83839 0.74610
 C1264 C 0.18064 0.81710 0.74710
 N1265 N 0.15929 0.81177 0.74824
 N1266 N 0.14410 0.82715 0.74843
 C1267 C 0.58929 0.41279 0.25204
 N1268 N 0.59268 0.43211 0.26205
 N1269 N 0.57740 0.44740 0.26186
 C1270 C 0.55823 0.44404 0.25149
 N1271 N 0.55484 0.42464 0.24159
 N1272 N 0.57005 0.40929 0.24190
 C1273 C 0.60625 0.39604 0.25193
 N1274 N 0.60189 0.37577 0.24450
 N1275 N 0.61730 0.36062 0.24423
 C1276 C 0.63769 0.36523 0.25123
 N1277 N 0.64206 0.38551 0.25861
 N1278 N 0.62661 0.40063 0.25901
 C1279 C 0.65468 0.34853 0.25088
 N1280 N 0.67569 0.35379 0.25495
 N1281 N 0.69107 0.33860 0.25476
 C1282 C 0.68600 0.31757 0.25061
 N1283 N 0.66498 0.31231 0.24656
 N1284 N 0.64962 0.32752 0.24661
 C1285 C 0.91452 0.91191 0.25142
 N1286 N 0.91005 0.93227 0.25848
 N1287 N 0.92524 0.94763 0.25804
 C1288 C 0.94546 0.94327 0.25039
 N1289 N 0.94990 0.92286 0.24334
 N1290 N 0.93473 0.90746 0.24387
 C1291 C 0.89771 0.89503 0.25186
 N1292 N 0.90266 0.87413 0.24695
 N1293 N 0.88735 0.85886 0.24727
 C1294 C 0.86654 0.86394 0.25242
 N1295 N 0.86160 0.88484 0.25731
 N1296 N 0.87692 0.90009 0.25708
 C1297 C 0.84959 0.84720 0.25248
 N1298 N 0.82842 0.85273 0.25509
 N1299 N 0.81299 0.83760 0.25483
 C1300 C 0.81816 0.81637 0.25208
 N1301 N 0.83934 0.81083 0.24957
 N1302 N 0.85477 0.82597 0.24972
 C1303 C 0.41097 0.41242 0.75232
 N1304 N 0.41400 0.42517 0.77002
 N1305 N 0.42928 0.44047 0.77005
 C1306 C 0.44186 0.44380 0.75227
 N1307 N 0.43870 0.43113 0.73452
 N1308 N 0.42363 0.41563 0.73460
 C1309 C 0.39434 0.39540 0.75236
 N1310 N 0.39575 0.37838 0.73846
 N1311 N 0.38074 0.36283 0.73857
 C1312 C 0.36361 0.36389 0.75239
 N1313 N 0.36212 0.38099 0.76620
 N1314 N 0.37729 0.39639 0.76629
 C1315 C 0.34698 0.34687 0.75231
 N1316 N 0.32678 0.35087 0.76016
 N1317 N 0.31158 0.33550 0.75973
 C1318 C 0.31613 0.31549 0.75172
 N1319 N 0.33639 0.31145 0.74404
 N1320 N 0.35149 0.32691 0.74420
 C1321 C 0.08788 0.24779 0.91347
 N1322 N 0.06653 0.24638 0.90830
 N1323 N 0.05143 0.24675 0.92376
 C1324 C 0.05697 0.24856 0.94506
 N1325 N 0.07843 0.25002 0.95007
 N1326 N 0.09355 0.24962 0.93465
 C1327 C 0.10458 0.24739 0.89648
 N1328 N 0.12595 0.24829 0.90178
 N1329 N 0.14112 0.24799 0.88640
 C1330 C 0.13548 0.24680 0.86514
 N1331 N 0.11411 0.24589 0.85983
 N1332 N 0.09893 0.24617 0.87522
 C1333 C 0.15223 0.24663 0.84819
 N1334 N 0.14663 0.24614 0.82689
 N1335 N 0.16184 0.24619 0.81153
 C1336 C 0.18322 0.24670 0.81690
 N1337 N 0.18881 0.24715 0.83821
 N1338 N 0.17360 0.24712 0.85357
 C1339 C 0.58829 0.75034 0.41385
 N1340 N 0.57566 0.76813 0.41680
 N1341 N 0.56017 0.76825 0.43187
 C1342 C 0.55655 0.75048 0.44437
 N1343 N 0.56911 0.73263 0.44131
 N1344 N 0.58480 0.73261 0.42643
 C1345 C 0.60529 0.75022 0.39718
 N1346 N 0.62199 0.73588 0.39824
 N1347 N 0.63741 0.73582 0.38308
 C1348 C 0.63653 0.74991 0.36618
 N1349 N 0.61977 0.76416 0.36506
 N1350 N 0.60451 0.76441 0.38037
 C1351 C 0.65332 0.74971 0.34929
 N1352 N 0.64926 0.75844 0.32949
 N1353 N 0.66442 0.75822 0.31408
 C1354 C 0.68428 0.74953 0.31801
 N1355 N 0.68839 0.74091 0.33787
 N1356 N 0.67313 0.74087 0.35319
 C1357 C 0.91212 0.75109 0.91203
 N1358 N 0.90663 0.75264 0.93328
 N1359 N 0.92185 0.75221 0.94861
 C1360 C 0.94322 0.75016 0.94346
 N1361 N 0.94858 0.74862 0.92209
 N1362 N 0.93338 0.74909 0.90670
 C1363 C 0.89527 0.75149 0.89517
 N1364 N 0.90065 0.75043 0.87383
 N1365 N 0.88530 0.75071 0.85859
 C1366 C 0.86401 0.75204 0.86414
 N1367 N 0.85864 0.75311 0.88548
 N1368 N 0.87399 0.75285 0.90070
 C1369 C 0.84701 0.75220 0.84742
 N1370 N 0.82575 0.75283 0.85315
 N1371 N 0.81027 0.75283 0.83806
 C1372 C 0.81548 0.75224 0.81666
 N1373 N 0.83676 0.75165 0.81092
 N1374 N 0.85224 0.75162 0.82603
 C1375 C 0.41596 0.24935 0.41118
 N1376 N 0.41953 0.26722 0.42352
 N1377 N 0.43462 0.26705 0.43900
 C1378 C 0.44650 0.24891 0.44290
 N1379 N 0.44281 0.23099 0.43063
 N1380 N 0.42793 0.23125 0.41494
 C1381 C 0.39927 0.24952 0.39420
 N1382 N 0.40005 0.23511 0.37756
 N1383 N 0.38485 0.23526 0.36218
 C1384 C 0.36816 0.24962 0.36306
 N1385 N 0.36732 0.26395 0.37977
 N1386 N 0.38268 0.26399 0.39499
 C1387 C 0.35122 0.24957 0.34633
 N1388 N 0.33137 0.25815 0.35050
 N1389 N 0.31588 0.25787 0.33542
 C1390 C 0.31979 0.24926 0.31552
 N1391 N 0.33970 0.24082 0.31130
 N1392 N 0.35510 0.24084 0.32648
 C1393 C 0.08530 0.75078 0.08676
 N1394 N 0.06487 0.74393 0.09137
 N1395 N 0.04967 0.74351 0.07598
 C1396 C 0.05429 0.75001 0.05543
 N1397 N 0.07473 0.75695 0.05090
 N1398 N 0.08994 0.75728 0.06625
 C1399 C 0.10214 0.75103 0.10363
 N1400 N 0.12302 0.75585 0.09852
 N1401 N 0.13837 0.75588 0.11376
 C1402 C 0.13338 0.75117 0.13468
 N1403 N 0.11248 0.74642 0.13982
 N1404 N 0.09715 0.74630 0.12456
 C1405 C 0.15034 0.75105 0.15143
 N1406 N 0.14514 0.74815 0.17264
 N1407 N 0.16056 0.74790 0.18780
 C1408 C 0.18175 0.75044 0.18230
 N1409 N 0.18694 0.75333 0.16109
 N1410 N 0.17152 0.75367 0.14594
 C1411 C 0.58627 0.25211 0.59116
 N1412 N 0.57479 0.23369 0.58749
 N1413 N 0.56013 0.23285 0.57162
 C1414 C 0.55618 0.25050 0.55904
 N1415 N 0.56760 0.26896 0.56281
 N1416 N 0.58248 0.26971 0.57848
 C1417 C 0.60266 0.25294 0.60841
 N1418 N 0.61893 0.26777 0.60768
 N1419 N 0.63405 0.26827 0.62313
 C1420 C 0.63326 0.25418 0.64003
 N1421 N 0.61688 0.23947 0.64086
 N1422 N 0.60193 0.23877 0.62525
 C1423 C 0.65007 0.25456 0.65688
 N1424 N 0.64625 0.24589 0.67676
 N1425 N 0.66165 0.24604 0.69196
 C1426 C 0.68150 0.25461 0.68770
 N1427 N 0.68533 0.26320 0.66779
 N1428 N 0.66985 0.26332 0.65270
 C1429 C 0.91466 0.25030 0.08808
 N1430 N 0.93516 0.24358 0.09256
 N1431 N 0.95032 0.24348 0.07715
 C1432 C 0.94559 0.25017 0.05668
 N1433 N 0.92508 0.25699 0.05227
 N1434 N 0.90990 0.25700 0.06765
 C1435 C 0.89789 0.25026 0.10500
 N1436 N 0.87694 0.25492 0.10002
 N1437 N 0.86169 0.25480 0.11534
 C1438 C 0.86686 0.25010 0.13623
 N1439 N 0.88782 0.24549 0.14123
 N1440 N 0.90306 0.24552 0.12589
 C1441 C 0.85006 0.25004 0.15313
 N1442 N 0.85549 0.24743 0.17431
 N1443 N 0.84025 0.24746 0.18965
 C1444 C 0.81901 0.25001 0.18434
 N1445 N 0.81357 0.25255 0.16315
 N1446 N 0.82882 0.25261 0.14782
 C1447 C 0.40975 0.74872 0.58534
 N1448 N 0.40579 0.75731 0.56545
 N1449 N 0.42132 0.75783 0.55041
 C1450 C 0.44137 0.74967 0.55466
 N1451 N 0.44523 0.74094 0.57453
 N1452 N 0.42975 0.74054 0.58959
 C1453 C 0.39278 0.74845 0.60206
 N1454 N 0.39757 0.74246 0.62271
 N1455 N 0.38227 0.74243 0.63798
 C1456 C 0.36158 0.74828 0.63313
 N1457 N 0.35677 0.75419 0.61246
 N1458 N 0.37210 0.75433 0.59721
 C1459 C 0.34475 0.74834 0.65000
 N1460 N 0.32362 0.75171 0.64475
 N1461 N 0.30836 0.75181 0.66007
 C1462 C 0.31370 0.74868 0.68122
 N1463 N 0.33484 0.74535 0.68647
 N1464 N 0.35008 0.74513 0.67113
 C1465 C 0.25051 0.08562 0.91232
 N1466 N 0.24345 0.06524 0.90791
 N1467 N 0.24346 0.05005 0.92329
 C1468 C 0.25063 0.05463 0.94363
 N1469 N 0.25780 0.07502 0.94796
 N1470 N 0.25769 0.09024 0.93262
 C1471 C 0.25033 0.10244 0.89544
 N1472 N 0.25519 0.12333 0.90044
 N1473 N 0.25493 0.13863 0.88518
 C1474 C 0.24990 0.13358 0.86434
 N1475 N 0.24509 0.11267 0.85932
 N1476 N 0.24525 0.09739 0.87461
 C1477 C 0.24969 0.15045 0.84752
 N1478 N 0.24692 0.14513 0.82632
 N1479 N 0.24684 0.16044 0.81107
 C1480 C 0.24942 0.18164 0.81646
 N1481 N 0.25213 0.18696 0.83767
 N1482 N 0.25231 0.17164 0.85291
 C1483 C 0.75162 0.58751 0.41272
 N1484 N 0.76015 0.59187 0.43256
 N1485 N 0.76052 0.57671 0.44795
 C1486 C 0.75228 0.55662 0.44413
 N1487 N 0.74368 0.55232 0.42429
 N1488 N 0.74341 0.56745 0.40886
 C1489 C 0.75127 0.60422 0.39575
 N1490 N 0.74498 0.59927 0.37522
 N1491 N 0.74473 0.61445 0.35983
 C1492 C 0.75065 0.63516 0.36445
 N1493 N 0.75689 0.64011 0.38499
 N1494 N 0.75724 0.62492 0.40035
 C1495 C 0.75033 0.65196 0.34756
 N1496 N 0.75395 0.67304 0.35279
 N1497 N 0.75369 0.68834 0.33755
 C1498 C 0.74990 0.68313 0.31648
 N1499 N 0.74632 0.66203 0.31123
 N1500 N 0.74648 0.64673 0.32651
 C1501 C 0.75067 0.08866 0.08804
 N1502 N 0.75312 0.09380 0.06679
 N1503 N 0.75287 0.07836 0.05166
 C1504 C 0.75013 0.05713 0.05706
 N1505 N 0.74762 0.05217 0.07842
 N1506 N 0.74791 0.06756 0.09358
 C1507 C 0.75108 0.10560 0.10480
 N1508 N 0.74949 0.10024 0.12611
 N1509 N 0.74991 0.11555 0.14136
 C1510 C 0.75190 0.13678 0.13587
 N1511 N 0.75347 0.14215 0.11456
 N1512 N 0.75309 0.12683 0.09931
 C1513 C 0.75229 0.15361 0.15274
 N1514 N 0.75341 0.17494 0.14734
 N1515 N 0.75364 0.19017 0.16269
 C1516 C 0.75279 0.18462 0.18399
 N1517 N 0.75172 0.16329 0.18938
 N1518 N 0.75145 0.14808 0.17404
 C1519 C 0.24715 0.58657 0.58633
 N1520 N 0.25590 0.59030 0.56648
 N1521 N 0.25575 0.57489 0.55134
 C1522 C 0.24672 0.55520 0.55540
 N1523 N 0.23797 0.55150 0.57529
 N1524 N 0.23823 0.56687 0.59049
 C1525 C 0.24729 0.60359 0.60300
 N1526 N 0.24106 0.59911 0.62364
 N1527 N 0.24119 0.61455 0.63876
 C1528 C 0.24744 0.63507 0.63376
 N1529 N 0.25361 0.63957 0.61310
 N1530 N 0.25359 0.62410 0.59801
 C1531 C 0.24750 0.65209 0.65043
 N1532 N 0.25101 0.67315 0.64499
 N1533 N 0.25097 0.68857 0.66015
 C1534 C 0.24752 0.68347 0.68130
 N1535 N 0.24408 0.66240 0.68673
 N1536 N 0.24400 0.64701 0.67157
 C1537 C 0.75023 0.91310 0.91505
 N1538 N 0.75775 0.90883 0.93531
 N1539 N 0.75816 0.92433 0.95038
 C1540 C 0.75102 0.94468 0.94578
 N1541 N 0.74337 0.94886 0.92554
 N1542 N 0.74305 0.93340 0.91045
 C1543 C 0.74992 0.89612 0.89834
 N1544 N 0.74455 0.90105 0.87756
 N1545 N 0.74436 0.88572 0.86232
 C1546 C 0.74944 0.86489 0.86731
 N1547 N 0.75476 0.85994 0.88811
 N1548 N 0.75504 0.87529 0.90334
 C1549 C 0.74924 0.84807 0.85044
 N1550 N 0.75214 0.82685 0.85561
 N1551 N 0.75190 0.81165 0.84023
 C1552 C 0.74883 0.81713 0.81911
 N1553 N 0.74598 0.83835 0.81395
 N1554 N 0.74613 0.85353 0.82933
 C1555 C 0.25074 0.41111 0.41205
 N1556 N 0.24158 0.43070 0.40794
 N1557 N 0.24072 0.44587 0.42332
 C1558 C 0.24908 0.44206 0.44335
 N1559 N 0.25833 0.42246 0.44739
 N1560 N 0.25907 0.40725 0.43206
 C1561 C 0.25155 0.39433 0.39515
 N1562 N 0.25804 0.37386 0.40001
 N1563 N 0.25860 0.35859 0.38472
 C1564 C 0.25282 0.36327 0.36399
 N1565 N 0.24642 0.38377 0.35911
 N1566 N 0.24574 0.39901 0.37442
 C1567 C 0.25330 0.34641 0.34717
 N1568 N 0.25007 0.35159 0.32601
 N1569 N 0.25032 0.33626 0.31077
 C1570 C 0.25368 0.31517 0.31616
 N1571 N 0.25689 0.30999 0.33733
 N1572 N 0.25676 0.32534 0.35255
 C1573 C 0.25018 0.91131 0.08648
 N1574 N 0.24319 0.93171 0.09095
 N1575 N 0.24325 0.94695 0.07563
 C1576 C 0.25038 0.94241 0.05527
 N1577 N 0.25747 0.92201 0.05087
 N1578 N 0.25732 0.90674 0.06616
 C1579 C 0.24994 0.89443 0.10328
 N1580 N 0.25472 0.87354 0.09820
 N1581 N 0.25442 0.85818 0.11340
 C1582 C 0.24941 0.86317 0.13426
 N1583 N 0.24468 0.88407 0.13936
 N1584 N 0.24489 0.89941 0.12414
 C1585 C 0.24916 0.84623 0.15101
 N1586 N 0.24641 0.85148 0.17223
 N1587 N 0.24630 0.83611 0.18743
 C1588 C 0.24883 0.81492 0.18195
 N1589 N 0.25151 0.80968 0.16073
 N1590 N 0.25172 0.82505 0.14554
 C1591 C 0.75025 0.41494 0.59012
 N1592 N 0.76823 0.42729 0.58705
 N1593 N 0.76877 0.44220 0.57141
 C1594 C 0.75126 0.44549 0.55843
 N1595 N 0.73323 0.43324 0.56163
 N1596 N 0.73279 0.41813 0.57707
 C1597 C 0.74971 0.39840 0.60722
 N1598 N 0.73542 0.38168 0.60614
 N1599 N 0.73508 0.36652 0.62155
 C1600 C 0.74882 0.36771 0.63873
 N1601 N 0.76300 0.38453 0.63989
 N1602 N 0.76353 0.39953 0.62434
 C1603 C 0.74850 0.35097 0.65564
 N1604 N 0.75676 0.35506 0.67565
 N1605 N 0.75654 0.33980 0.69096
 C1606 C 0.74831 0.31982 0.68671
 N1607 N 0.74014 0.31570 0.66667
 N1608 N 0.74009 0.33105 0.65146
 C1609 C 0.08669 0.08597 0.74818
 N1610 N 0.06553 0.09173 0.74994
 N1611 N 0.04998 0.07675 0.74939
 C1612 C 0.05482 0.05535 0.74702
 N1613 N 0.07612 0.04972 0.74528
 N1614 N 0.09172 0.06468 0.74585
 C1615 C 0.10379 0.10257 0.74876
 N1616 N 0.12506 0.09693 0.74754
 N1617 N 0.14050 0.11207 0.74803
 C1618 C 0.13522 0.13339 0.74974
 N1619 N 0.11395 0.13901 0.75097
 N1620 N 0.09852 0.12388 0.75051
 C1621 C 0.15215 0.15016 0.75013
 N1622 N 0.14668 0.17146 0.75114
 N1623 N 0.16197 0.18674 0.75132
 C1624 C 0.18331 0.18127 0.75054
 N1625 N 0.18879 0.15996 0.74958
 N1626 N 0.17348 0.14467 0.74936
 C1627 C 0.58677 0.58891 0.24912
 N1628 N 0.57410 0.58531 0.26676
 N1629 N 0.55920 0.56964 0.26657
 C1630 C 0.55622 0.55720 0.24863
 N1631 N 0.56882 0.56092 0.23094
 N1632 N 0.58391 0.57639 0.23123
 C1633 C 0.60345 0.60589 0.24944
 N1634 N 0.62042 0.60512 0.23542
 N1635 N 0.63574 0.62036 0.23585
 C1636 C 0.63450 0.63708 0.25013
 N1637 N 0.61744 0.63795 0.26405
 N1638 N 0.60227 0.62255 0.26381
 C1639 C 0.65140 0.65384 0.25054
 N1640 N 0.64740 0.67367 0.25926
 N1641 N 0.66275 0.68890 0.25941
 C1642 C 0.68273 0.68474 0.25111
 N1643 N 0.68677 0.66487 0.24254
 N1644 N 0.67134 0.64974 0.24213
 C1645 C 0.08807 0.91213 0.25140
 N1646 N 0.09370 0.93322 0.25414
 N1647 N 0.07858 0.94866 0.25449
 C1648 C 0.05718 0.94375 0.25208
 N1649 N 0.05170 0.92254 0.24937
 N1650 N 0.06679 0.90707 0.24905
 C1651 C 0.10474 0.89511 0.25090
 N1652 N 0.09906 0.87393 0.24890
 N1653 N 0.11419 0.85849 0.24842
 C1654 C 0.13556 0.86368 0.24988
 N1655 N 0.14124 0.88487 0.25187
 N1656 N 0.12611 0.90030 0.25238
 C1657 C 0.15224 0.84668 0.24938
 N1658 N 0.17363 0.85193 0.25010
 N1659 N 0.18877 0.83650 0.24972
 C1660 C 0.18308 0.81525 0.24864
 N1661 N 0.16168 0.81000 0.24791
 N1662 N 0.14655 0.82543 0.24825
 C1663 C 0.58705 0.41471 0.75722
 N1664 N 0.59016 0.43400 0.74707
 N1665 N 0.57444 0.44883 0.74661
 C1666 C 0.55504 0.44499 0.75635
 N1667 N 0.55206 0.42578 0.76675
 N1668 N 0.56773 0.41089 0.76709
 C1669 C 0.60413 0.39809 0.75714
 N1670 N 0.59985 0.37764 0.76408
 N1671 N 0.61520 0.36243 0.76357
 C1672 C 0.63543 0.36715 0.75622
 N1673 N 0.63974 0.38763 0.74939
 N1674 N 0.62435 0.40281 0.74977
 C1675 C 0.65229 0.35032 0.75552
 N1676 N 0.67324 0.35558 0.75114
 N1677 N 0.68853 0.34029 0.75054
 C1678 C 0.68339 0.31918 0.75415
 N1679 N 0.66242 0.31392 0.75845
 N1680 N 0.64717 0.32922 0.75919
 C1681 C 0.91433 0.08693 0.24904
 N1682 N 0.93469 0.09123 0.24181
 N1683 N 0.94985 0.07582 0.24183
 C1684 C 0.94526 0.05554 0.24916
 N1685 N 0.92491 0.05133 0.25651
 N1686 N 0.90972 0.06670 0.25639
 C1687 C 0.89756 0.10386 0.24895
 N1688 N 0.87668 0.09896 0.25398
 N1689 N 0.86145 0.11430 0.25390
 C1690 C 0.86656 0.13512 0.24887
 N1691 N 0.88745 0.14003 0.24388
 N1692 N 0.90267 0.12467 0.24386
 C1693 C 0.84979 0.15205 0.24896
 N1694 N 0.85525 0.17322 0.24634
 N1695 N 0.84005 0.18860 0.24661
 C1696 C 0.81882 0.18335 0.24940
 N1697 N 0.81336 0.16216 0.25193
 N1698 N 0.82857 0.14680 0.25176
 C1699 C 0.41009 0.58757 0.74652
 N1700 N 0.42929 0.59142 0.75661
 N1701 N 0.44463 0.57622 0.75723
 C1702 C 0.44144 0.55663 0.74765
 N1703 N 0.42226 0.55284 0.73745
 N1704 N 0.40684 0.56800 0.73695
 C1705 C 0.39311 0.60428 0.74616
 N1706 N 0.37276 0.59954 0.73916
 N1707 N 0.35732 0.61468 0.73915
 C1708 C 0.36172 0.63515 0.74601
 N1709 N 0.38210 0.63990 0.75290
 N1710 N 0.39749 0.62473 0.75305
 C1711 C 0.34477 0.65189 0.74610
 N1712 N 0.34995 0.67292 0.75006
 N1713 N 0.33462 0.68816 0.75025
 C1714 C 0.31353 0.68291 0.74663
 N1715 N 0.30833 0.66186 0.74271
 N1716 N 0.32369 0.64663 0.74239
 C1717 C 0.90936 0.91478 0.74975
 N1718 N 0.91377 0.92671 0.76772
 N1719 N 0.92937 0.94168 0.76740
 C1720 C 0.94093 0.94546 0.74903
 N1721 N 0.93633 0.93366 0.73101
 N1722 N 0.92094 0.91849 0.73140
 C1723 C 0.89252 0.89796 0.75019
 N1724 N 0.89293 0.88141 0.73567
 N1725 N 0.87781 0.86597 0.73619
 C1726 C 0.86158 0.86670 0.75106
 N1727 N 0.86108 0.88334 0.76549
 N1728 N 0.87637 0.89862 0.76515
 C1729 C 0.84488 0.84975 0.75150
 N1730 N 0.82519 0.85361 0.76061
 N1731 N 0.80994 0.83828 0.76071
 C1732 C 0.81394 0.81846 0.75198
 N1733 N 0.83369 0.81455 0.74303
 N1734 N 0.84883 0.82997 0.74267
 C1735 C 0.41520 0.41044 0.24965
 N1736 N 0.41091 0.43041 0.25786
 N1737 N 0.42595 0.44592 0.25745
 C1738 C 0.44582 0.44212 0.24869
 N1739 N 0.45010 0.42211 0.24049
 N1740 N 0.43509 0.40655 0.24100
 C1741 C 0.39851 0.39344 0.24997
 N1742 N 0.40340 0.37277 0.24411
 N1743 N 0.38819 0.35740 0.24433
 C1744 C 0.36751 0.36217 0.25029
 N1745 N 0.36263 0.38284 0.25611
 N1746 N 0.37786 0.39818 0.25600
 C1747 C 0.35065 0.34533 0.25032
 N1748 N 0.32952 0.35068 0.25356
 N1749 N 0.31418 0.33546 0.25344
 C1750 C 0.31940 0.31431 0.25020
 N1751 N 0.34055 0.30894 0.24705
 N1752 N 0.35589 0.32419 0.24704
   
