data_POSCAR
  _audit_creation_date              2014-09-24
  _audit_creation_method            'ToBaCCo'
  _symmetry_space_group_name_H-M    'P1'
  _symmetry_Int_Tables_number       1
  _symmetry_cell_setting            triclinic
  loop_
  _symmetry_equiv_pos_as_xyz
 x,y,z
_cell_length_a 91.2816
_cell_length_b 91.2413
_cell_length_c 92.5107
_cell_angle_alpha 89.951300
_cell_angle_beta 89.959500
_cell_angle_gamma 89.925000
loop_
  _atom_site_label
  _atom_site_type_symbol
  _atom_site_fract_x
  _atom_site_fract_y
  _atom_site_fract_z
N1 N 0.35627 0.31507 0.32599
 N2 N 0.35549 0.32521 0.31589
 C3 C 0.36674 0.32341 0.30660
 C4 C 0.37485 0.31152 0.31117
 C5 C 0.36798 0.30647 0.32346
 H6 H 0.36894 0.33025 0.29731
 H7 H 0.37132 0.29729 0.33010
 Cu8 Cu 0.34002 0.33992 0.31602
 Cu9 Cu 0.34224 0.31395 0.34180
 Cu10 Cu 0.31496 0.34036 0.34278
 N11 N 0.32487 0.35493 0.31703
 N12 N 0.31510 0.35502 0.32749
 C13 C 0.30610 0.36659 0.32574
 C14 C 0.31051 0.37409 0.31356
 C15 C 0.32242 0.36649 0.30826
 H16 H 0.29712 0.36942 0.33285
 H17 H 0.32885 0.36926 0.29882
 N18 N 0.31665 0.32464 0.35728
 N19 N 0.32706 0.31458 0.35693
 C20 C 0.32537 0.30550 0.36830
 C21 C 0.31336 0.31011 0.37608
 C22 C 0.30806 0.32222 0.36890
 H23 H 0.33235 0.29625 0.37078
 H24 H 0.29869 0.32879 0.37196
 H25 H 0.32496 0.32388 0.33105
 H26 H 0.33713 0.33608 0.34192
 N27 N 0.35636 0.81492 -0.17375
 N28 N 0.35615 0.82537 -0.18357
 C29 C 0.36745 0.82336 -0.19275
 C30 C 0.37501 0.81104 -0.18837
 C31 C 0.36777 0.80592 -0.17633
 H32 H 0.37006 0.83036 -0.20184
 H33 H 0.37065 0.79646 -0.16986
 Cu34 Cu 0.34127 0.84068 -0.18316
 Cu35 Cu 0.34200 0.81383 -0.15824
 Cu36 Cu 0.31505 0.84063 -0.15761
 N37 N 0.32592 0.85553 -0.18282
 N38 N 0.31570 0.85543 -0.17277
 C39 C 0.30663 0.86689 -0.17483
 C40 C 0.31148 0.87448 -0.18678
 C41 C 0.32370 0.86708 -0.19165
 H42 H 0.29731 0.86955 -0.16809
 H43 H 0.33048 0.86994 -0.20082
 N44 N 0.31623 0.82478 -0.14320
 N45 N 0.32652 0.81458 -0.14343
 C46 C 0.32452 0.80547 -0.13212
 C47 C 0.31245 0.81021 -0.12453
 C48 C 0.30742 0.82243 -0.13174
 H49 H 0.33137 0.79616 -0.12952
 H50 H 0.29812 0.82913 -0.12876
 H51 H 0.32545 0.82435 -0.16934
 H52 H 0.33725 0.83596 -0.15750
 N53 N 0.85640 0.31596 -0.17441
 N54 N 0.85621 0.32640 -0.18424
 C55 C 0.86755 0.32441 -0.19338
 C56 C 0.87514 0.31214 -0.18897
 C57 C 0.86786 0.30701 -0.17694
 H58 H 0.87014 0.33136 -0.20250
 H59 H 0.87072 0.29754 -0.17049
 Cu60 Cu 0.84122 0.34157 -0.18408
 Cu61 Cu 0.84182 0.31483 -0.15905
 Cu62 Cu 0.81472 0.34151 -0.15883
 N63 N 0.82580 0.35632 -0.18399
 N64 N 0.81546 0.35623 -0.17406
 C65 C 0.80635 0.36763 -0.17631
 C66 C 0.81129 0.37516 -0.18827
 C67 C 0.82360 0.36778 -0.19293
 H68 H 0.79697 0.37032 -0.16967
 H69 H 0.83047 0.37065 -0.20203
 N70 N 0.81581 0.32572 -0.14433
 N71 N 0.82614 0.31555 -0.14440
 C72 C 0.82400 0.30648 -0.13308
 C73 C 0.81180 0.31122 -0.12565
 C74 C 0.80685 0.32339 -0.13298
 H75 H 0.83083 0.29718 -0.13037
 H76 H 0.79748 0.33006 -0.13017
 H77 H 0.82531 0.32525 -0.17037
 H78 H 0.83692 0.33695 -0.15845
 N79 N 0.85551 0.81590 0.32531
 N80 N 0.85498 0.82610 0.31526
 C81 C 0.86641 0.82433 0.30619
 C82 C 0.87439 0.81239 0.31083
 C83 C 0.86725 0.80727 0.32295
 H84 H 0.86881 0.83122 0.29697
 H85 H 0.87040 0.79802 0.32958
 Cu86 Cu 0.83956 0.84083 0.31502
 Cu87 Cu 0.84113 0.81478 0.34083
 Cu88 Cu 0.81400 0.84137 0.34125
 N89 N 0.82447 0.85590 0.31572
 N90 N 0.81447 0.85601 0.32598
 C91 C 0.80556 0.86762 0.32407
 C92 C 0.81029 0.87511 0.31201
 C93 C 0.82228 0.86749 0.30693
 H94 H 0.79643 0.87047 0.33099
 H95 H 0.82895 0.87026 0.29766
 N96 N 0.81528 0.82567 0.35579
 N97 N 0.82560 0.81551 0.35564
 C98 C 0.82360 0.80648 0.36702
 C99 C 0.81149 0.81125 0.37457
 C100 C 0.80646 0.82338 0.36725
 H101 H 0.83047 0.79720 0.36969
 H102 H 0.79712 0.83007 0.37014
 H103 H 0.82418 0.82473 0.32970
 H104 H 0.83621 0.83681 0.34085
 N105 N 0.64344 0.68548 0.32622
 N106 N 0.64326 0.67510 0.31636
 C107 C 0.63191 0.67743 0.30733
 C108 C 0.62467 0.68987 0.31185
 C109 C 0.63219 0.69474 0.32383
 H110 H 0.62903 0.67057 0.29825
 H111 H 0.62960 0.70422 0.33036
 Cu112 Cu 0.65774 0.65944 0.31638
 Cu113 Cu 0.65810 0.68607 0.34151
 Cu114 Cu 0.68438 0.65859 0.34144
 N115 N 0.67273 0.64428 0.31632
 N116 N 0.68311 0.64399 0.32616
 C117 C 0.69189 0.63238 0.32375
 C118 C 0.68670 0.62510 0.31176
 C119 C 0.67457 0.63286 0.30727
 H120 H 0.70128 0.62939 0.33025
 H121 H 0.66762 0.63031 0.29815
 N122 N 0.68384 0.67430 0.35601
 N123 N 0.67384 0.68478 0.35605
 C124 C 0.67626 0.69367 0.36743
 C125 C 0.68832 0.68848 0.37479
 C126 C 0.69288 0.67624 0.36735
 H127 H 0.66970 0.70312 0.37026
 H128 H 0.70202 0.66922 0.37011
 H129 H 0.67420 0.67526 0.32999
 H130 H 0.66232 0.66385 0.34198
 N131 N 0.64402 0.18408 -0.17431
 N132 N 0.64393 0.17368 -0.18416
 C133 C 0.63264 0.17597 -0.19326
 C134 C 0.62535 0.18840 -0.18881
 C135 C 0.63277 0.19331 -0.17679
 H136 H 0.62985 0.16910 -0.20237
 H137 H 0.63013 0.20281 -0.17030
 Cu138 Cu 0.65845 0.15809 -0.18410
 Cu139 Cu 0.65867 0.18477 -0.15903
 Cu140 Cu 0.68503 0.15736 -0.15896
 N141 N 0.67350 0.14301 -0.18412
 N142 N 0.68385 0.14273 -0.17423
 C143 C 0.69268 0.13115 -0.17665
 C144 C 0.68755 0.12392 -0.18869
 C145 C 0.67541 0.13164 -0.19322
 H146 H 0.70204 0.12817 -0.17010
 H147 H 0.66849 0.12910 -0.20237
 N148 N 0.68442 0.17314 -0.14441
 N149 N 0.67439 0.18359 -0.14444
 C150 C 0.67678 0.19257 -0.13312
 C151 C 0.68884 0.18749 -0.12571
 C152 C 0.69344 0.17519 -0.13306
 H153 H 0.67020 0.20203 -0.13038
 H154 H 0.70260 0.16822 -0.13025
 H155 H 0.67485 0.17393 -0.17037
 H156 H 0.66295 0.16251 -0.15846
 N157 N 0.14399 0.68509 -0.17466
 N158 N 0.14488 0.67488 -0.18466
 C159 C 0.13376 0.67663 -0.19408
 C160 C 0.12561 0.68855 -0.18971
 C161 C 0.13231 0.69368 -0.17738
 H162 H 0.13166 0.66974 -0.20335
 H163 H 0.12890 0.70291 -0.17086
 Cu164 Cu 0.16032 0.66016 -0.18434
 Cu165 Cu 0.15790 0.68635 -0.15877
 Cu166 Cu 0.18506 0.65984 -0.15737
 N167 N 0.17538 0.64511 -0.18306
 N168 N 0.18503 0.64505 -0.17251
 C169 C 0.19403 0.63345 -0.17412
 C170 C 0.18974 0.62593 -0.18630
 C171 C 0.17789 0.63351 -0.19173
 H172 H 0.20295 0.63066 -0.16694
 H173 H 0.17155 0.63072 -0.20121
 N174 N 0.18334 0.67569 -0.14304
 N175 N 0.17298 0.68580 -0.14356
 C176 C 0.17464 0.69497 -0.13227
 C177 C 0.18659 0.69037 -0.12439
 C178 C 0.19187 0.67816 -0.13141
 H179 H 0.16768 0.70426 -0.12989
 H180 H 0.20117 0.67156 -0.12823
 H181 H 0.17516 0.67635 -0.16934
 H182 H 0.16283 0.66430 -0.15845
 N183 N 0.14297 0.18620 0.32640
 N184 N 0.14310 0.17584 0.31653
 C185 C 0.13191 0.17806 0.30728
 C186 C 0.12446 0.19041 0.31168
 C187 C 0.13168 0.19535 0.32381
 H188 H 0.12929 0.17119 0.29812
 H189 H 0.12887 0.20481 0.33029
 Cu190 Cu 0.15778 0.16038 0.31680
 Cu191 Cu 0.15737 0.18700 0.34191
 Cu192 Cu 0.18393 0.15977 0.34237
 N193 N 0.17285 0.14531 0.31705
 N194 N 0.18304 0.14511 0.32710
 C195 C 0.19194 0.13354 0.32487
 C196 C 0.18703 0.12621 0.31279
 C197 C 0.17494 0.13389 0.30805
 H198 H 0.20122 0.13064 0.33155
 H199 H 0.16818 0.13128 0.29881
 N200 N 0.18299 0.17556 0.35688
 N201 N 0.17287 0.18593 0.35670
 C202 C 0.17507 0.19498 0.36800
 C203 C 0.18710 0.19003 0.37554
 C204 C 0.19189 0.17774 0.36829
 H205 H 0.16841 0.20443 0.37061
 H206 H 0.20110 0.17089 0.37119
 H207 H 0.17387 0.17636 0.33072
 H208 H 0.16187 0.16483 0.34247
 N209 N 0.64518 0.31576 0.67354
 N210 N 0.64545 0.32566 0.68387
 C211 C 0.63397 0.32346 0.69277
 C212 C 0.62622 0.31158 0.68770
 C213 C 0.63355 0.30692 0.67552
 H214 H 0.63135 0.33004 0.70214
 H215 H 0.63058 0.29787 0.66857
 Cu216 Cu 0.66059 0.34061 0.68455
 Cu217 Cu 0.65975 0.31523 0.65819
 Cu218 Cu 0.68647 0.34217 0.65867
 N219 N 0.67547 0.35584 0.68445
 N220 N 0.68555 0.35640 0.67430
 C221 C 0.69431 0.36800 0.67669
 C222 C 0.68941 0.37501 0.68896
 C223 C 0.67747 0.36711 0.69365
 H224 H 0.70348 0.37117 0.66997
 H225 H 0.67072 0.36947 0.70297
 N226 N 0.68558 0.32679 0.64376
 N227 N 0.67541 0.31651 0.64360
 C228 C 0.67773 0.30767 0.63217
 C229 C 0.68990 0.31266 0.62489
 C230 C 0.69465 0.32475 0.63243
 H231 H 0.67108 0.29831 0.62930
 H232 H 0.70399 0.33154 0.62982
 H233 H 0.67642 0.32520 0.66965
 H234 H 0.66433 0.33742 0.65866
 N235 N 0.64470 0.81624 1.17298
 N236 N 0.64475 0.82645 1.18302
 C237 C 0.63331 0.82427 1.19198
 C238 C 0.62579 0.81210 1.18725
 C239 C 0.63322 0.80724 1.17519
 H240 H 0.63056 0.83106 1.20116
 H241 H 0.63041 0.79797 1.16847
 Cu242 Cu 0.65953 0.84178 1.18316
 Cu243 Cu 0.65935 0.81555 1.15767
 Cu244 Cu 0.68608 0.84254 1.15797
 N245 N 0.67471 0.85673 1.18335
 N246 N 0.68504 0.85698 1.17344
 C247 C 0.69396 0.86845 1.17592
 C248 C 0.68892 0.87567 1.18801
 C249 C 0.67672 0.86803 1.19251
 H250 H 0.70334 0.87138 1.16937
 H251 H 0.66983 0.87059 1.20168
 N252 N 0.68527 0.82698 1.14324
 N253 N 0.67509 0.81670 1.14312
 C254 C 0.67741 0.80782 1.13171
 C255 C 0.68958 0.81279 1.12441
 C256 C 0.69433 0.82491 1.13191
 H257 H 0.67073 0.79849 1.12884
 H258 H 0.70364 0.83172 1.12926
 H259 H 0.67573 0.82591 1.16921
 H260 H 0.66399 0.83771 1.15747
 N261 N 0.14430 0.31629 1.17279
 N262 N 0.14435 0.32659 1.18275
 C263 C 0.13293 0.32448 1.19174
 C264 C 0.12543 0.31226 1.18713
 C265 C 0.13284 0.30730 1.17510
 H266 H 0.13021 0.33132 1.20090
 H267 H 0.13006 0.29793 1.16851
 Cu268 Cu 0.15922 0.34184 1.18286
 Cu269 Cu 0.15901 0.31538 1.15756
 Cu270 Cu 0.18602 0.34208 1.15792
 N271 N 0.17457 0.35662 1.18306
 N272 N 0.18503 0.35664 1.17327
 C273 C 0.19411 0.36797 1.17581
 C274 C 0.18903 0.37534 1.18781
 C275 C 0.17664 0.36794 1.19217
 H276 H 0.20364 0.37068 1.16940
 H277 H 0.16969 0.37063 1.20126
 N278 N 0.18515 0.32644 1.14326
 N279 N 0.17483 0.31630 1.14309
 C280 C 0.17711 0.30736 1.13171
 C281 C 0.18941 0.31215 1.12450
 C282 C 0.19427 0.32421 1.13201
 H283 H 0.17032 0.29812 1.12882
 H284 H 0.20367 0.33090 1.12939
 H285 H 0.17540 0.32564 1.16922
 H286 H 0.16390 0.33747 1.15727
 N287 N 0.14485 0.81567 0.67334
 N288 N 0.14520 0.82566 0.68358
 C289 C 0.13377 0.82354 0.69258
 C290 C 0.12597 0.81162 0.68765
 C291 C 0.13322 0.80686 0.67546
 H292 H 0.13127 0.83015 0.70195
 H293 H 0.13023 0.79771 0.66865
 Cu294 Cu 0.16051 0.84048 0.68414
 Cu295 Cu 0.15944 0.81484 0.65801
 Cu296 Cu 0.18653 0.84141 0.65839
 N297 N 0.17555 0.85559 0.68391
 N298 N 0.18573 0.85584 0.67384
 C299 C 0.19462 0.86737 0.67611
 C300 C 0.18970 0.87467 0.68821
 C301 C 0.17762 0.86699 0.69294
 H302 H 0.20390 0.87030 0.66943
 H303 H 0.17083 0.86958 0.70218
 N304 N 0.18552 0.82592 0.64362
 N305 N 0.17517 0.81581 0.64346
 C306 C 0.17734 0.80694 0.63202
 C307 C 0.18959 0.81174 0.62474
 C308 C 0.19454 0.82374 0.63229
 H309 H 0.17051 0.79773 0.62911
 H310 H 0.20395 0.83042 0.62964
 H311 H 0.17615 0.82464 0.66949
 H312 H 0.16430 0.83693 0.65831
 N313 N 0.35476 0.68440 0.67369
 N314 N 0.35445 0.67454 0.68408
 C315 C 0.36587 0.67683 0.69303
 C316 C 0.37363 0.68871 0.68791
 C317 C 0.36636 0.69328 0.67567
 H318 H 0.36843 0.67032 0.70247
 H319 H 0.36934 0.70231 0.66868
 Cu320 Cu 0.33932 0.65954 0.68473
 Cu321 Cu 0.34021 0.68493 0.65834
 Cu322 Cu 0.31341 0.65806 0.65890
 N323 N 0.32444 0.64428 0.68463
 N324 N 0.31435 0.64377 0.67449
 C325 C 0.30559 0.63215 0.67686
 C326 C 0.31049 0.62508 0.68910
 C327 C 0.32243 0.63297 0.69380
 H328 H 0.29642 0.62902 0.67015
 H329 H 0.32917 0.63057 0.70313
 N330 N 0.31430 0.67346 0.64401
 N331 N 0.32455 0.68367 0.64377
 C332 C 0.32230 0.69244 0.63225
 C333 C 0.31011 0.68748 0.62503
 C334 C 0.30526 0.67548 0.63267
 H335 H 0.32905 0.70170 0.62928
 H336 H 0.29591 0.66871 0.63008
 H337 H 0.32356 0.67495 0.66982
 H338 H 0.33559 0.66271 0.65880
 N339 N 0.35566 0.18542 1.17312
 N340 N 0.35567 0.17580 1.18372
 C341 C 0.36725 0.17840 1.19238
 C342 C 0.37476 0.19025 1.18686
 C343 C 0.36719 0.19447 1.17467
 H344 H 0.37009 0.17212 1.20189
 H345 H 0.36994 0.20336 1.16742
 Cu346 Cu 0.34073 0.16065 1.18504
 Cu347 Cu 0.34085 0.18538 1.15800
 Cu348 Cu 0.31449 0.15814 1.15960
 N349 N 0.32609 0.14517 1.18550
 N350 N 0.31585 0.14426 1.17554
 C351 C 0.30730 0.13258 1.17833
 C352 C 0.31250 0.12589 1.19067
 C353 C 0.32441 0.13406 1.19497
 H354 H 0.29807 0.12915 1.17185
 H355 H 0.33134 0.13199 1.20423
 N356 N 0.31492 0.17318 1.14431
 N357 N 0.32498 0.18356 1.14371
 C358 C 0.32243 0.19205 1.13205
 C359 C 0.31023 0.18672 1.12508
 C360 C 0.30570 0.17480 1.13304
 H361 H 0.32896 0.20136 1.12881
 H362 H 0.29643 0.16781 1.13074
 H363 H 0.32450 0.17550 1.17001
 H364 H 0.33658 0.16316 1.15915
 N365 N 0.85540 0.68465 1.17399
 N366 N 0.85515 0.67483 1.18441
 C367 C 0.86662 0.67714 1.19329
 C368 C 0.87432 0.68902 1.18813
 C369 C 0.86699 0.69355 1.17589
 H370 H 0.86925 0.67065 1.20273
 H371 H 0.86991 0.70258 1.16888
 Cu372 Cu 0.84003 0.65985 1.18528
 Cu373 Cu 0.84082 0.68500 1.15864
 Cu374 Cu 0.81414 0.65803 1.15944
 N375 N 0.82520 0.64455 1.18531
 N376 N 0.81509 0.64391 1.17520
 C377 C 0.80638 0.63228 1.17769
 C378 C 0.81134 0.62535 1.18999
 C379 C 0.82327 0.63331 1.19458
 H380 H 0.79721 0.62905 1.17103
 H381 H 0.83006 0.63101 1.20388
 N382 N 0.81499 0.67327 1.14437
 N383 N 0.82515 0.68356 1.14407
 C384 C 0.82286 0.69224 1.13249
 C385 C 0.81071 0.68712 1.12526
 C386 C 0.80596 0.67513 1.13299
 H387 H 0.82952 0.70154 1.12948
 H388 H 0.79666 0.66826 1.13046
 H389 H 0.82416 0.67512 1.17027
 H390 H 0.83628 0.66282 1.15938
 N391 N 0.85580 0.18306 0.67380
 N392 N 0.85572 0.17278 0.68378
 C393 C 0.86720 0.17481 0.69270
 C394 C 0.87477 0.18696 0.68800
 C395 C 0.86733 0.19197 0.67602
 H396 H 0.86992 0.16795 0.70186
 H397 H 0.87013 0.20133 0.66939
 Cu398 Cu 0.84076 0.15763 0.68395
 Cu399 Cu 0.84107 0.18399 0.65860
 Cu400 Cu 0.81404 0.15727 0.65896
 N401 N 0.82549 0.14279 0.68416
 N402 N 0.81505 0.14271 0.67435
 C403 C 0.80607 0.13128 0.67687
 C404 C 0.81119 0.12392 0.68887
 C405 C 0.82349 0.13143 0.69326
 H406 H 0.79659 0.12850 0.67043
 H407 H 0.83045 0.12874 0.70233
 N408 N 0.81494 0.17295 0.64429
 N409 N 0.82525 0.18310 0.64415
 C410 C 0.82303 0.19205 0.63277
 C411 C 0.81078 0.18728 0.62551
 C412 C 0.80588 0.17519 0.63301
 H413 H 0.82984 0.20129 0.62989
 H414 H 0.79649 0.16850 0.63035
 H415 H 0.82461 0.17369 0.67016
 H416 H 0.83618 0.16184 0.65830
 N417 N 0.31496 0.35585 0.67461
 N418 N 0.32522 0.35498 0.68455
 C419 C 0.32356 0.36615 0.69394
 C420 C 0.31164 0.37433 0.68959
 C421 C 0.30641 0.36757 0.67733
 H422 H 0.33051 0.36827 0.70316
 H423 H 0.29716 0.37098 0.67083
 Cu424 Cu 0.33989 0.33947 0.68415
 Cu425 Cu 0.31359 0.34189 0.65876
 Cu426 Cu 0.34002 0.31463 0.65728
 N427 N 0.35482 0.32425 0.68297
 N428 N 0.35481 0.31459 0.67242
 C429 C 0.36633 0.30550 0.67403
 C430 C 0.37388 0.30973 0.68621
 C431 C 0.36638 0.32162 0.69167
 H432 H 0.36908 0.29657 0.66684
 H433 H 0.36920 0.32792 0.70116
 N434 N 0.32416 0.31644 0.64297
 N435 N 0.31404 0.32679 0.64355
 C436 C 0.30479 0.32511 0.63232
 C437 C 0.30937 0.31319 0.62440
 C438 C 0.32162 0.30792 0.63135
 H439 H 0.29547 0.33205 0.63002
 H440 H 0.32819 0.29861 0.62813
 H441 H 0.32366 0.32454 0.66925
 H442 H 0.33568 0.33683 0.65829
 N443 N 0.31420 0.85701 0.17312
 N444 N 0.32461 0.85681 0.18296
 C445 C 0.32254 0.86808 0.19215
 C446 C 0.31024 0.87564 0.18775
 C447 C 0.30519 0.86841 0.17569
 H448 H 0.32947 0.87066 0.20127
 H449 H 0.29574 0.87128 0.16922
 Cu450 Cu 0.33993 0.84195 0.18263
 Cu451 Cu 0.31322 0.84265 0.15762
 Cu452 Cu 0.34007 0.81575 0.15708
 N453 N 0.35476 0.82660 0.18237
 N454 N 0.35475 0.81640 0.17233
 C455 C 0.36616 0.80730 0.17451
 C456 C 0.37363 0.81207 0.18654
 C457 C 0.36619 0.82431 0.19132
 H458 H 0.36888 0.79798 0.16780
 H459 H 0.36896 0.83105 0.20053
 N460 N 0.32431 0.81694 0.14260
 N461 N 0.31407 0.82719 0.14281
 C462 C 0.30504 0.82520 0.13147
 C463 C 0.30988 0.81318 0.12386
 C464 C 0.32206 0.80817 0.13110
 H465 H 0.29571 0.83202 0.12885
 H466 H 0.32881 0.79890 0.12813
 H467 H 0.32373 0.82602 0.16882
 H468 H 0.33534 0.83786 0.15699
 N469 N 0.81359 0.35594 0.17166
 N470 N 0.82392 0.35601 0.18158
 C471 C 0.82163 0.36738 0.19060
 C472 C 0.80927 0.37471 0.18602
 C473 C 0.80440 0.36725 0.17401
 H474 H 0.82845 0.37019 0.19973
 H475 H 0.79497 0.36991 0.16745
 Cu476 Cu 0.83944 0.34137 0.18158
 Cu477 Cu 0.81293 0.34136 0.15632
 Cu478 Cu 0.84018 0.31485 0.15641
 N479 N 0.85450 0.32625 0.18166
 N480 N 0.85471 0.31591 0.17176
 C481 C 0.86624 0.30701 0.17413
 C482 C 0.87356 0.31208 0.18614
 C483 C 0.86591 0.32426 0.19070
 H484 H 0.86915 0.29764 0.16758
 H485 H 0.86853 0.33118 0.19982
 N486 N 0.82454 0.31558 0.14176
 N487 N 0.81415 0.32568 0.14173
 C488 C 0.80527 0.32337 0.13032
 C489 C 0.81036 0.31129 0.12295
 C490 C 0.82254 0.30659 0.13039
 H491 H 0.79588 0.33002 0.12750
 H492 H 0.82947 0.29739 0.12763
 H493 H 0.82353 0.32508 0.16783
 H494 H 0.83509 0.33693 0.15597
 N495 N 0.81419 0.85491 0.67233
 N496 N 0.82404 0.85471 0.68270
 C497 C 0.82160 0.86609 0.69167
 C498 C 0.80962 0.87371 0.68660
 C499 C 0.80514 0.86641 0.67435
 H500 H 0.82811 0.86873 0.70108
 H501 H 0.79610 0.86934 0.66736
 Cu502 Cu 0.83932 0.83982 0.68332
 Cu503 Cu 0.81402 0.84047 0.65683
 Cu504 Cu 0.84155 0.81427 0.65721
 N505 N 0.85490 0.82523 0.68314
 N506 N 0.85571 0.81528 0.67289
 C507 C 0.86750 0.80673 0.67521
 C508 C 0.87437 0.81162 0.68755
 C509 C 0.86618 0.82334 0.69235
 H510 H 0.87089 0.79770 0.66841
 H511 H 0.86836 0.83003 0.70175
 N512 N 0.82625 0.81499 0.64225
 N513 N 0.81573 0.82495 0.64210
 C514 C 0.80706 0.82258 0.63055
 C515 C 0.81241 0.81059 0.62320
 C516 C 0.82454 0.80602 0.63081
 H517 H 0.79759 0.82909 0.62765
 H518 H 0.83158 0.79686 0.62817
 H519 H 0.82430 0.82391 0.66819
 H520 H 0.83627 0.83637 0.65736
 N521 N 0.68551 0.64463 0.67215
 N522 N 0.67539 0.64428 0.68228
 C523 C 0.67800 0.63280 0.69109
 C524 C 0.69035 0.62567 0.68615
 C525 C 0.69488 0.63339 0.67415
 H526 H 0.67139 0.62975 0.70032
 H527 H 0.70420 0.63094 0.66734
 Cu528 Cu 0.65969 0.65873 0.68276
 Cu529 Cu 0.68567 0.65944 0.65699
 Cu530 Cu 0.65811 0.68561 0.65791
 N531 N 0.64442 0.67362 0.68329
 N532 N 0.64389 0.68412 0.67354
 C533 C 0.63228 0.69282 0.67627
 C534 C 0.62525 0.68746 0.68834
 C535 C 0.63316 0.67531 0.69258
 H536 H 0.62913 0.70225 0.66990
 H537 H 0.63079 0.66821 0.70165
 N538 N 0.67350 0.68526 0.64295
 N539 N 0.68399 0.67528 0.64260
 C540 C 0.69263 0.67783 0.63105
 C541 C 0.68729 0.68995 0.62391
 C542 C 0.67520 0.69443 0.63165
 H543 H 0.70204 0.67132 0.62798
 H544 H 0.66814 0.70361 0.62914
 H545 H 0.67503 0.67547 0.66888
 H546 H 0.66339 0.66363 0.65710
 N547 N 0.68558 0.14453 0.17307
 N548 N 0.67558 0.14513 0.18330
 C549 C 0.67773 0.13395 0.19259
 C550 C 0.68966 0.12603 0.18786
 C551 C 0.69442 0.13296 0.17549
 H552 H 0.67108 0.13165 0.20200
 H553 H 0.70355 0.12976 0.16871
 Cu554 Cu 0.66064 0.16033 0.18342
 Cu555 Cu 0.68624 0.15864 0.15729
 Cu556 Cu 0.65936 0.18553 0.15688
 N557 N 0.64546 0.17528 0.18286
 N558 N 0.64502 0.18512 0.17246
 C559 C 0.63344 0.19403 0.17460
 C560 C 0.62634 0.18949 0.18696
 C561 C 0.63416 0.17760 0.19196
 H562 H 0.63038 0.20307 0.16766
 H563 H 0.63173 0.17111 0.20145
 N564 N 0.67484 0.18412 0.14207
 N565 N 0.68508 0.17388 0.14223
 C566 C 0.69394 0.17577 0.13072
 C567 C 0.68899 0.18773 0.12305
 C568 C 0.67691 0.19280 0.13045
 H569 H 0.70326 0.16896 0.12806
 H570 H 0.67015 0.20208 0.12754
 H571 H 0.67620 0.17567 0.16821
 H572 H 0.66406 0.16335 0.15745
 N573 N 0.18436 0.64390 0.17469
 N574 N 0.17379 0.64452 0.18435
 C575 C 0.17536 0.63334 0.19373
 C576 C 0.18753 0.62538 0.18969
 C577 C 0.19302 0.63231 0.17760
 H578 H 0.16817 0.63104 0.20274
 H579 H 0.20250 0.62907 0.17134
 Cu580 Cu 0.15888 0.65974 0.18353
 Cu581 Cu 0.18592 0.65798 0.15889
 Cu582 Cu 0.15962 0.68542 0.15752
 N583 N 0.14432 0.67531 0.18280
 N584 N 0.14470 0.68536 0.17259
 C585 C 0.13343 0.69470 0.17446
 C586 C 0.12566 0.69021 0.18644
 C587 C 0.13278 0.67792 0.19150
 H588 H 0.13100 0.70399 0.16759
 H589 H 0.12970 0.67135 0.20075
 N590 N 0.17556 0.68368 0.14325
 N591 N 0.18560 0.67324 0.14376
 C592 C 0.19483 0.67491 0.13250
 C593 C 0.19035 0.68693 0.12464
 C594 C 0.17815 0.69226 0.13166
 H595 H 0.20407 0.66788 0.13011
 H596 H 0.17163 0.70162 0.12848
 H597 H 0.17560 0.67494 0.16954
 H598 H 0.16390 0.66311 0.15785
 N599 N 0.18525 0.14352 0.67489
 N600 N 0.17504 0.14446 0.68490
 C601 C 0.17673 0.13334 0.69435
 C602 C 0.18860 0.12512 0.68998
 C603 C 0.19379 0.13180 0.67764
 H604 H 0.16982 0.13128 0.70363
 H605 H 0.20300 0.12834 0.67112
 Cu606 Cu 0.16043 0.16000 0.68456
 Cu607 Cu 0.18654 0.15739 0.65895
 Cu608 Cu 0.16022 0.18477 0.65759
 N609 N 0.14552 0.17522 0.68337
 N610 N 0.14552 0.18490 0.67283
 C611 C 0.13401 0.19400 0.67449
 C612 C 0.12647 0.18972 0.68669
 C613 C 0.13397 0.17781 0.69209
 H614 H 0.13125 0.20294 0.66731
 H615 H 0.13113 0.17145 0.70156
 N616 N 0.17598 0.18286 0.64316
 N617 N 0.18602 0.17244 0.64367
 C618 C 0.19517 0.17402 0.63233
 C619 C 0.19061 0.18597 0.62441
 C620 C 0.17847 0.19134 0.63148
 H621 H 0.20442 0.16700 0.62995
 H622 H 0.17195 0.20071 0.62831
 H623 H 0.17663 0.17475 0.66943
 H624 H 0.16447 0.16248 0.65864
 N625 N 0.31616 0.64469 0.32629
 N626 N 0.32643 0.64510 0.31632
 C627 C 0.32456 0.63376 0.30719
 C628 C 0.31251 0.62593 0.31171
 C629 C 0.30739 0.63309 0.32382
 H630 H 0.33145 0.63127 0.29801
 H631 H 0.29809 0.63000 0.33039
 Cu632 Cu 0.34133 0.66030 0.31628
 Cu633 Cu 0.31508 0.65903 0.34187
 Cu634 Cu 0.34161 0.68616 0.34213
 N635 N 0.35605 0.67567 0.31656
 N636 N 0.35609 0.68575 0.32671
 C637 C 0.36742 0.69491 0.32450
 C638 C 0.37480 0.69028 0.31234
 C639 C 0.36740 0.67809 0.30753
 H640 H 0.37018 0.70417 0.33126
 H641 H 0.37015 0.67146 0.29823
 N642 N 0.32608 0.68481 0.35681
 N643 N 0.31591 0.67452 0.35673
 C644 C 0.30702 0.67648 0.36822
 C645 C 0.31191 0.68853 0.37576
 C646 C 0.32396 0.69356 0.36834
 H647 H 0.29777 0.66962 0.37095
 H648 H 0.33071 0.70285 0.37119
 H649 H 0.32514 0.67574 0.33069
 H650 H 0.33714 0.66384 0.34207
 N651 N 0.31657 0.14399 0.82716
 N652 N 0.32687 0.14415 0.81720
 C653 C 0.32478 0.13281 0.80811
 C654 C 0.31258 0.12524 0.81269
 C655 C 0.30760 0.13254 0.82477
 H656 H 0.33160 0.13019 0.79892
 H657 H 0.29822 0.12969 0.83134
 Cu658 Cu 0.34205 0.15909 0.81714
 Cu659 Cu 0.31558 0.15858 0.84249
 Cu660 Cu 0.34223 0.18561 0.84231
 N661 N 0.35676 0.17451 0.81702
 N662 N 0.35678 0.18483 0.82695
 C663 C 0.36811 0.19395 0.82454
 C664 C 0.37549 0.18907 0.81248
 C665 C 0.36808 0.17676 0.80792
 H666 H 0.37084 0.20335 0.83111
 H667 H 0.37081 0.16994 0.79875
 N668 N 0.32664 0.18460 0.85698
 N669 N 0.31647 0.17431 0.85707
 C670 C 0.30756 0.17649 0.86851
 C671 C 0.31242 0.18868 0.87585
 C672 C 0.32448 0.19358 0.86834
 H673 H 0.29832 0.16968 0.87137
 H674 H 0.33123 0.20291 0.87106
 H675 H 0.32584 0.17498 0.83099
 H676 H 0.33768 0.16336 0.84282
 N677 N 0.81554 0.64515 0.82746
 N678 N 0.82527 0.64534 0.81697
 C679 C 0.82280 0.63389 0.80810
 C680 C 0.81092 0.62625 0.81337
 C681 C 0.80654 0.63362 0.82563
 H682 H 0.82919 0.63123 0.79861
 H683 H 0.79756 0.63075 0.83272
 Cu684 Cu 0.84032 0.66039 0.81602
 Cu685 Cu 0.81538 0.65973 0.84279
 Cu686 Cu 0.84249 0.68627 0.84187
 N687 N 0.85567 0.67516 0.81587
 N688 N 0.85648 0.68523 0.82600
 C689 C 0.86815 0.69386 0.82343
 C690 C 0.87494 0.68889 0.81106
 C691 C 0.86683 0.67704 0.80650
 H692 H 0.87152 0.70299 0.83010
 H693 H 0.86898 0.67027 0.79715
 N694 N 0.82733 0.68549 0.85702
 N695 N 0.81698 0.67538 0.85735
 C696 C 0.80835 0.67773 0.86894
 C697 C 0.81355 0.68984 0.87615
 C698 C 0.82555 0.69454 0.86841
 H699 H 0.79900 0.67113 0.87196
 H700 H 0.83245 0.70381 0.87092
 H701 H 0.82530 0.67638 0.83114
 H702 H 0.83759 0.66419 0.84193
 N703 N 0.81649 0.14431 0.32716
 N704 N 0.82674 0.14468 0.31716
 C705 C 0.82468 0.13346 0.30792
 C706 C 0.81254 0.12575 0.31244
 C707 C 0.80757 0.13284 0.32464
 H708 H 0.83149 0.13102 0.29866
 H709 H 0.79823 0.12985 0.33120
 Cu710 Cu 0.84184 0.15970 0.31725
 Cu711 Cu 0.81551 0.15864 0.34273
 Cu712 Cu 0.84200 0.18584 0.34283
 N713 N 0.85643 0.17523 0.31728
 N714 N 0.85645 0.18540 0.32735
 C715 C 0.86771 0.19462 0.32501
 C716 C 0.87505 0.18994 0.31284
 C717 C 0.86769 0.17765 0.30816
 H718 H 0.87043 0.20394 0.33170
 H719 H 0.87041 0.17097 0.29889
 N720 N 0.82650 0.18448 0.35758
 N721 N 0.81639 0.17413 0.35756
 C722 C 0.80749 0.17611 0.36903
 C723 C 0.81229 0.18823 0.37652
 C724 C 0.82431 0.19330 0.36905
 H725 H 0.79826 0.16924 0.37181
 H726 H 0.83098 0.20266 0.37185
 H727 H 0.82555 0.17532 0.33138
 H728 H 0.83752 0.16360 0.34299
 N729 N 0.68524 0.35470 0.32787
 N730 N 0.67547 0.35450 0.31741
 C731 C 0.67782 0.36601 0.30858
 C732 C 0.68965 0.37372 0.31382
 C733 C 0.69413 0.36632 0.32603
 H734 H 0.67139 0.36866 0.29911
 H735 H 0.70311 0.36924 0.33309
 Cu736 Cu 0.66053 0.33936 0.31644
 Cu737 Cu 0.68553 0.34006 0.34318
 Cu738 Cu 0.65859 0.31336 0.34219
 N739 N 0.64527 0.32449 0.31628
 N740 N 0.64458 0.31435 0.32637
 C741 C 0.63298 0.30563 0.32381
 C742 C 0.62611 0.31062 0.31150
 C743 C 0.63410 0.32258 0.30696
 H744 H 0.62971 0.29643 0.33045
 H745 H 0.63186 0.32939 0.29765
 N746 N 0.67371 0.31416 0.35733
 N747 N 0.68399 0.32433 0.35771
 C748 C 0.69254 0.32203 0.36937
 C749 C 0.68734 0.30988 0.37657
 C750 C 0.67545 0.30512 0.36874
 H751 H 0.70180 0.32871 0.37247
 H752 H 0.66856 0.29583 0.37123
 H753 H 0.67573 0.32349 0.33150
 H754 H 0.66336 0.33554 0.34236
 N755 N 0.68496 0.85374 0.82806
 N756 N 0.67523 0.85382 0.81757
 C757 C 0.67781 0.86538 0.80886
 C758 C 0.68976 0.87282 0.81421
 C759 C 0.69406 0.86523 0.82638
 H760 H 0.67143 0.86827 0.79943
 H761 H 0.70305 0.86792 0.83351
 Cu762 Cu 0.65998 0.83898 0.81644
 Cu763 Cu 0.68490 0.83895 0.84324
 Cu764 Cu 0.65747 0.81273 0.84190
 N765 N 0.64444 0.82442 0.81608
 N766 N 0.64354 0.81416 0.82605
 C767 C 0.63179 0.80569 0.82335
 C768 C 0.62505 0.81095 0.81108
 C769 C 0.63326 0.82282 0.80671
 H770 H 0.62834 0.79647 0.82987
 H771 H 0.63116 0.82979 0.79748
 N772 N 0.67257 0.81310 0.85709
 N773 N 0.68301 0.82310 0.85761
 C774 C 0.69148 0.82054 0.86927
 C775 C 0.68607 0.80840 0.87631
 C776 C 0.67412 0.80391 0.86841
 H777 H 0.70083 0.82703 0.87246
 H778 H 0.66707 0.79471 0.87080
 H779 H 0.67483 0.82268 0.83138
 H780 H 0.66265 0.83483 0.84234
 N781 N 0.18367 0.35509 0.82714
 N782 N 0.17334 0.35476 0.81723
 C783 C 0.17521 0.36614 0.80812
 C784 C 0.18731 0.37392 0.81263
 C785 C 0.19245 0.36669 0.82469
 H786 H 0.16829 0.36867 0.79896
 H787 H 0.20180 0.36968 0.83121
 Cu788 Cu 0.15839 0.33958 0.81732
 Cu789 Cu 0.18492 0.34056 0.84252
 Cu790 Cu 0.15865 0.31316 0.84266
 N791 N 0.14393 0.32392 0.81735
 N792 N 0.14406 0.31365 0.82734
 C793 C 0.13283 0.30439 0.82504
 C794 C 0.12534 0.30914 0.81298
 C795 C 0.13260 0.32151 0.80832
 H796 H 0.13023 0.29499 0.83168
 H797 H 0.12974 0.32828 0.79914
 N798 N 0.17430 0.31447 0.85725
 N799 N 0.18434 0.32489 0.85718
 C800 C 0.19338 0.32287 0.86852
 C801 C 0.18876 0.31065 0.87597
 C802 C 0.17669 0.30555 0.86862
 H803 H 0.20258 0.32980 0.87124
 H804 H 0.17011 0.29613 0.87145
 H805 H 0.17486 0.32393 0.83119
 H806 H 0.16290 0.33546 0.84301
 N807 N 0.18475 0.85541 0.32711
 N808 N 0.17492 0.85498 0.31673
 C809 C 0.17707 0.86644 0.30777
 C810 C 0.18884 0.87434 0.31287
 C811 C 0.19349 0.86711 0.32512
 H812 H 0.17054 0.86894 0.29833
 H813 H 0.20248 0.87020 0.33208
 Cu814 Cu 0.16014 0.83963 0.31601
 Cu815 Cu 0.18539 0.84091 0.34254
 Cu816 Cu 0.15876 0.81390 0.34209
 N817 N 0.14499 0.82463 0.31626
 N818 N 0.14453 0.81460 0.32647
 C819 C 0.13296 0.80576 0.32419
 C820 C 0.12587 0.81055 0.31192
 C821 C 0.13370 0.82251 0.30712
 H822 H 0.12987 0.79662 0.33099
 H823 H 0.13125 0.82921 0.29777
 N824 N 0.17409 0.81498 0.35701
 N825 N 0.18425 0.82527 0.35719
 C826 C 0.19302 0.82311 0.36871
 C827 C 0.18809 0.81091 0.37601
 C828 C 0.17613 0.80599 0.36839
 H829 H 0.20226 0.82990 0.37163
 H830 H 0.16940 0.79661 0.37102
 H831 H 0.17570 0.82408 0.33106
 H832 H 0.16330 0.83612 0.34192
 C833 C 0.24435 1.00066 0.25701
 C834 C 0.25494 1.00066 0.24662
 C835 C 0.26159 1.01448 0.24126
 C836 C 0.26050 0.98684 0.24012
 C837 C 0.23864 0.98682 0.26333
 C838 C 0.23793 1.01450 0.26262
 C839 C 0.26149 1.01759 0.22639
 C840 C 0.26763 1.03059 0.22119
 C841 C 0.27402 1.04057 0.23078
 C842 C 0.27433 1.03746 0.24561
 C843 C 0.26821 1.02444 0.25082
 C844 C 0.25093 0.97681 0.23352
 C845 C 0.25637 0.96384 0.22751
 C846 C 0.27142 0.96083 0.22792
 C847 C 0.28101 0.97089 0.23427
 C848 C 0.27559 0.98385 0.24029
 C849 C 0.24811 0.97657 0.26978
 C850 C 0.24256 0.96355 0.27559
 C851 C 0.22749 0.96073 0.27512
 C852 C 0.21798 0.97102 0.26894
 C853 C 0.22352 0.98402 0.26312
 C854 C 0.23812 1.01733 0.27754
 C855 C 0.23223 1.03036 0.28296
 C856 C 0.22599 1.04063 0.27356
 C857 C 0.22560 1.03781 0.25868
 C858 C 0.23148 1.02477 0.25323
 H859 H 0.25651 1.01002 0.21884
 H860 H 0.26737 1.03287 0.20970
 H861 H 0.27930 1.04507 0.25312
 H862 H 0.26863 1.02210 0.26230
 H863 H 0.23929 0.97905 0.23303
 H864 H 0.24886 0.95617 0.22253
 H865 H 0.28315 0.99148 0.24525
 H866 H 0.25977 0.97867 0.27031
 H867 H 0.25001 0.95571 0.28043
 H868 H 0.20630 0.96896 0.26857
 H869 H 0.21603 0.99183 0.25829
 H870 H 0.24300 1.00953 0.28494
 H871 H 0.23257 1.03242 0.29449
 H872 H 0.22075 1.04567 0.25131
 H873 H 0.23100 1.02268 0.24172
 H874 H 0.29268 0.96871 0.23459
 C875 C 0.24502 0.49956 0.75767
 C876 C 0.25547 0.49962 0.74714
 C877 C 0.26105 0.51348 0.74078
 C878 C 0.26189 0.48581 0.74143
 C879 C 0.23849 0.48570 0.76307
 C880 C 0.23953 0.51335 0.76430
 C881 C 0.25146 0.52373 0.73449
 C882 C 0.25689 0.53676 0.72862
 C883 C 0.27197 0.53960 0.72884
 C884 C 0.28158 0.52934 0.73490
 C885 C 0.27616 0.51632 0.74079
 C886 C 0.26160 0.48302 0.72651
 C887 C 0.26752 0.47004 0.72100
 C888 C 0.27389 0.45976 0.73033
 C889 C 0.27438 0.46255 0.74520
 C890 C 0.26848 0.47555 0.75073
 C891 C 0.23880 0.48254 0.77792
 C892 C 0.23278 0.46951 0.78316
 C893 C 0.22629 0.45954 0.77361
 C894 C 0.22580 0.46269 0.75880
 C895 C 0.23180 0.47575 0.75355
 C896 C 0.24920 0.52341 0.77072
 C897 C 0.24386 0.53643 0.77673
 C898 C 0.22882 0.53945 0.77650
 C899 C 0.21912 0.52933 0.77038
 C900 C 0.22444 0.51633 0.76436
 H901 H 0.23979 0.52161 0.73413
 H902 H 0.24937 0.54460 0.72388
 H903 H 0.29327 0.53141 0.73509
 H904 H 0.28373 0.50852 0.74550
 H905 H 0.25664 0.49082 0.71915
 H906 H 0.26711 0.46800 0.70946
 H907 H 0.26906 0.47763 0.76224
 H908 H 0.24385 0.49011 0.78542
 H909 H 0.23320 0.46719 0.79464
 H910 H 0.22076 0.45509 0.75132
 H911 H 0.23122 0.47812 0.74209
 H912 H 0.26085 0.52117 0.77104
 H913 H 0.25146 0.54414 0.78152
 H914 H 0.20746 0.53154 0.77019
 H915 H 0.21681 0.50868 0.75955
 H916 H 0.27934 0.45471 0.75252
 C917 C 0.74499 0.00071 0.24570
 C918 C 0.75519 0.00071 0.25640
 C919 C 0.76082 -0.01301 0.26297
 C920 C 0.76130 0.01462 0.26194
 C921 C 0.73911 0.01463 0.23990
 C922 C 0.73921 -0.01300 0.23929
 C923 C 0.75127 -0.02333 0.26915
 C924 C 0.75677 -0.03634 0.27503
 C925 C 0.77187 -0.03909 0.27490
 C926 C 0.78145 -0.02873 0.26899
 C927 C 0.77596 -0.01573 0.26310
 C928 C 0.75766 0.01942 0.27588
 C929 C 0.76341 0.03253 0.28119
 C930 C 0.77297 0.04087 0.27267
 C931 C 0.77667 0.03608 0.25876
 C932 C 0.77082 0.02302 0.25340
 C933 C 0.74289 0.01915 0.22591
 C934 C 0.73738 0.03228 0.22035
 C935 C 0.72792 0.04092 0.22868
 C936 C 0.72408 0.03643 0.24266
 C937 C 0.72968 0.02334 0.24827
 C938 C 0.74866 -0.02347 0.23316
 C939 C 0.74301 -0.03642 0.22731
 C940 C 0.72788 -0.03895 0.22742
 C941 C 0.71842 -0.02845 0.23330
 C942 C 0.72404 -0.01552 0.23915
 H943 H 0.73958 -0.02132 0.26938
 H944 H 0.74927 -0.04425 0.27965
 H945 H 0.79314 -0.03072 0.26887
 H946 H 0.78351 -0.00791 0.25842
 H947 H 0.75028 0.01306 0.28256
 H948 H 0.76043 0.03615 0.29195
 H949 H 0.77379 0.01937 0.24265
 H950 H 0.75021 0.01256 0.21937
 H951 H 0.74045 0.03568 0.20955
 H952 H 0.71673 0.04299 0.24918
 H953 H 0.72661 0.01992 0.25906
 H954 H 0.76037 -0.02160 0.23291
 H955 H 0.75042 -0.04443 0.22270
 H956 H 0.70670 -0.03028 0.23340
 H957 H 0.71658 -0.00756 0.24375
 H958 H 0.78411 0.04239 0.25210
 C959 C 0.74541 0.50071 0.74536
 C960 C 0.75544 0.50067 0.75631
 C961 C 0.76168 0.48681 0.76215
 C962 C 0.76079 0.51448 0.76299
 C963 C 0.74023 0.51456 0.73857
 C964 C 0.73907 0.48690 0.73956
 C965 C 0.76144 0.48419 0.77711
 C966 C 0.76713 0.47117 0.78276
 C967 C 0.77320 0.46065 0.77353
 C968 C 0.77370 0.46327 0.75864
 C969 C 0.76810 0.47633 0.75298
 C970 C 0.75099 0.52491 0.76864
 C971 C 0.75626 0.53790 0.77475
 C972 C 0.77137 0.54047 0.77544
 C973 C 0.78117 0.52998 0.77012
 C974 C 0.77592 0.51704 0.76397
 C975 C 0.75017 0.52483 0.73287
 C976 C 0.74505 0.53778 0.72651
 C977 C 0.72998 0.54049 0.72562
 C978 C 0.72004 0.53019 0.73104
 C979 C 0.72513 0.51729 0.73744
 C980 C 0.73927 0.48428 0.72460
 C981 C 0.73351 0.47130 0.71899
 C982 C 0.72743 0.46081 0.72825
 C983 C 0.72698 0.46344 0.74314
 C984 C 0.73264 0.47647 0.74876
 H985 H 0.75669 0.49216 0.78439
 H986 H 0.76677 0.46931 0.79431
 H987 H 0.77842 0.45523 0.75140
 H988 H 0.76871 0.47825 0.74145
 H989 H 0.73929 0.52301 0.76829
 H990 H 0.74858 0.54591 0.77892
 H991 H 0.78366 0.50908 0.75981
 H992 H 0.76185 0.52280 0.73334
 H993 H 0.75284 0.54564 0.72229
 H994 H 0.70835 0.53215 0.73034
 H995 H 0.71728 0.50946 0.74163
 H996 H 0.74405 0.49221 0.71729
 H997 H 0.73385 0.46943 0.70745
 H998 H 0.72225 0.45543 0.75040
 H999 H 0.73206 0.47838 0.76029
 H1000 H 0.79288 0.53182 0.77066
 C1001 C 0.24383 0.50020 0.24721
 C1002 C 0.25446 0.50020 0.25754
 C1003 C 0.26005 0.48634 0.26397
 C1004 C 0.26118 0.51402 0.26282
 C1005 C 0.23726 0.51402 0.24169
 C1006 C 0.23831 0.48637 0.24074
 C1007 C 0.25047 0.47622 0.27044
 C1008 C 0.25589 0.46317 0.27632
 C1009 C 0.27094 0.46018 0.27591
 C1010 C 0.28055 0.47032 0.26966
 C1011 C 0.27514 0.48336 0.26377
 C1012 C 0.26129 0.51710 0.27768
 C1013 C 0.26752 0.53007 0.28279
 C1014 C 0.27383 0.54004 0.27311
 C1015 C 0.27396 0.53695 0.25829
 C1016 C 0.26772 0.52396 0.25316
 C1017 C 0.23726 0.51686 0.22677
 C1018 C 0.23112 0.52978 0.22139
 C1019 C 0.22481 0.53996 0.23085
 C1020 C 0.22462 0.53714 0.24574
 C1021 C 0.23078 0.52420 0.25114
 C1022 C 0.24792 0.47644 0.23402
 C1023 C 0.24257 0.46346 0.22797
 C1024 C 0.22756 0.46034 0.22850
 C1025 C 0.21791 0.47030 0.23499
 C1026 C 0.22325 0.48327 0.24103
 H1027 H 0.23882 0.47843 0.27093
 H1028 H 0.24836 0.45542 0.28118
 H1029 H 0.29222 0.46813 0.26931
 H1030 H 0.28271 0.49104 0.25889
 H1031 H 0.25639 0.50952 0.28530
 H1032 H 0.26740 0.53234 0.29429
 H1033 H 0.26800 0.52164 0.24168
 H1034 H 0.24216 0.50912 0.21932
 H1035 H 0.23132 0.53185 0.20986
 H1036 H 0.21971 0.54492 0.25314
 H1037 H 0.23046 0.52209 0.26267
 H1038 H 0.25953 0.47876 0.23343
 H1039 H 0.25012 0.45588 0.22288
 H1040 H 0.20627 0.46803 0.23541
 H1041 H 0.21566 0.49084 0.24607
 H1042 H 0.27890 0.54454 0.25071
 C1043 C 0.74414 0.99871 0.75640
 C1044 C 0.75453 0.99869 0.74582
 C1045 C 0.76094 1.01252 0.74019
 C1046 C 0.76001 0.98487 0.73929
 C1047 C 0.73876 0.98491 0.76307
 C1048 C 0.73764 1.01256 0.76187
 C1049 C 0.76022 1.01564 0.72535
 C1050 C 0.76611 1.02866 0.71992
 C1051 C 0.77290 1.03862 0.72926
 C1052 C 0.77386 1.03547 0.74405
 C1053 C 0.76794 1.02246 0.74950
 C1054 C 0.75035 0.97482 0.73285
 C1055 C 0.75571 0.96188 0.72670
 C1056 C 0.77077 0.95892 0.72684
 C1057 C 0.78045 0.96895 0.73312
 C1058 C 0.77510 0.98189 0.73926
 C1059 C 0.74854 0.97485 0.76938
 C1060 C 0.74330 0.96188 0.77557
 C1061 C 0.72825 0.95891 0.77562
 C1062 C 0.71845 0.96900 0.76956
 C1063 C 0.72367 0.98196 0.76337
 C1064 C 0.73811 1.01570 0.77672
 C1065 C 0.73206 1.02870 0.78202
 C1066 C 0.72539 1.03865 0.77256
 C1067 C 0.72471 1.03551 0.75776
 C1068 C 0.73076 1.02249 0.75243
 H1069 H 0.75491 1.00808 0.71800
 H1070 H 0.76535 1.03097 0.70846
 H1071 H 0.77920 1.04305 0.75136
 H1072 H 0.76881 1.02011 0.76095
 H1073 H 0.73870 0.97705 0.73254
 H1074 H 0.74813 0.95422 0.72181
 H1075 H 0.78272 0.98953 0.74411
 H1076 H 0.76020 0.97707 0.76953
 H1077 H 0.75098 0.95419 0.78031
 H1078 H 0.70677 0.96683 0.76959
 H1079 H 0.71595 0.98963 0.75866
 H1080 H 0.74330 1.00814 0.78416
 H1081 H 0.73264 1.03102 0.79349
 H1082 H 0.71951 1.04310 0.75035
 H1083 H 0.73005 1.02014 0.74098
 H1084 H 0.79212 0.96678 0.73328
 C1085 C 0.74378 0.49958 0.25582
 C1086 C 0.75426 0.49961 0.24531
 C1087 C 0.76083 0.51345 0.23989
 C1088 C 0.75973 0.48581 0.23873
 C1089 C 0.73835 0.48574 0.26234
 C1090 C 0.73728 0.51341 0.26139
 C1091 C 0.76067 0.51652 0.22501
 C1092 C 0.76672 0.52954 0.21977
 C1093 C 0.77309 0.53957 0.22932
 C1094 C 0.77351 0.53647 0.24415
 C1095 C 0.76747 0.52344 0.24941
 C1096 C 0.75005 0.47580 0.23226
 C1097 C 0.75539 0.46285 0.22610
 C1098 C 0.77044 0.45986 0.22624
 C1099 C 0.78014 0.46990 0.23248
 C1100 C 0.77482 0.48282 0.23865
 C1101 C 0.74807 0.47568 0.26873
 C1102 C 0.74279 0.46268 0.27480
 C1103 C 0.72775 0.45968 0.27468
 C1104 C 0.71800 0.46977 0.26853
 C1105 C 0.72326 0.48276 0.26244
 C1106 C 0.73752 0.51632 0.27628
 C1107 C 0.73154 0.52931 0.28167
 C1108 C 0.72516 0.53948 0.27224
 C1109 C 0.72473 0.53658 0.25738
 C1110 C 0.73069 0.52356 0.25198
 H1111 H 0.75569 0.50891 0.21750
 H1112 H 0.76640 0.53180 0.20827
 H1113 H 0.77848 0.54412 0.25162
 H1114 H 0.76796 0.52112 0.26088
 H1115 H 0.73840 0.47803 0.23197
 H1116 H 0.74779 0.45521 0.22121
 H1117 H 0.78246 0.49044 0.24350
 H1118 H 0.75971 0.47793 0.26902
 H1119 H 0.75042 0.45499 0.27961
 H1120 H 0.70633 0.46758 0.26842
 H1121 H 0.71559 0.49043 0.25767
 H1122 H 0.74250 0.50859 0.28371
 H1123 H 0.73191 0.53144 0.29319
 H1124 H 0.71977 0.54435 0.24999
 H1125 H 0.73018 0.52139 0.24048
 H1126 H 0.79181 0.46772 0.23261
 C1127 C 0.24485 -0.00032 0.74691
 C1128 C 0.25545 -0.00035 0.75728
 C1129 C 0.26114 -0.01421 0.76362
 C1130 C 0.26197 0.01348 0.76278
 C1131 C 0.23826 0.01353 0.74150
 C1132 C 0.23933 -0.01409 0.74033
 C1133 C 0.25160 -0.02463 0.76974
 C1134 C 0.25718 -0.03763 0.77560
 C1135 C 0.27232 -0.04025 0.77554
 C1136 C 0.28188 -0.02981 0.76968
 C1137 C 0.27632 -0.01683 0.76379
 C1138 C 0.26207 0.01630 0.77770
 C1139 C 0.26806 0.02930 0.78302
 C1140 C 0.27407 0.03960 0.77350
 C1141 C 0.27422 0.03677 0.75862
 C1142 C 0.26830 0.02372 0.75329
 C1143 C 0.23849 0.01660 0.72663
 C1144 C 0.23244 0.02961 0.72136
 C1145 C 0.22600 0.03965 0.73088
 C1146 C 0.22554 0.03659 0.74571
 C1147 C 0.23159 0.02355 0.75100
 C1148 C 0.24895 -0.02407 0.73367
 C1149 C 0.24356 -0.03700 0.72755
 C1150 C 0.22851 -0.04001 0.72793
 C1151 C 0.21887 -0.03000 0.73436
 C1152 C 0.22425 -0.01708 0.74048
 H1153 H 0.23987 -0.02267 0.76998
 H1154 H 0.24971 -0.04562 0.78019
 H1155 H 0.29362 -0.03171 0.76964
 H1156 H 0.28385 -0.00888 0.75921
 H1157 H 0.25735 0.00850 0.78520
 H1158 H 0.26799 0.03134 0.79456
 H1159 H 0.26865 0.02159 0.74178
 H1160 H 0.24353 0.00899 0.71913
 H1161 H 0.23283 0.03187 0.70986
 H1162 H 0.22052 0.04425 0.75317
 H1163 H 0.23108 0.02124 0.76248
 H1164 H 0.26059 -0.02182 0.73320
 H1165 H 0.25110 -0.04462 0.72251
 H1166 H 0.20721 -0.03218 0.73467
 H1167 H 0.21666 -0.00948 0.74549
 H1168 H 0.27892 0.04463 0.75116
 C1169 C 0.25619 0.24457 1.00046
 C1170 C 0.24580 0.25531 1.00042
 C1171 C 0.24014 0.26180 1.01405
 C1172 C 0.23948 0.26108 0.98676
 C1173 C 0.26277 0.23895 0.98685
 C1174 C 0.26143 0.23778 1.01412
 C1175 C 0.22502 0.26177 1.01681
 C1176 C 0.21953 0.26768 1.02965
 C1177 C 0.22910 0.27378 1.03982
 C1178 C 0.24418 0.27406 1.03704
 C1179 C 0.24969 0.26815 1.02418
 C1180 C 0.23287 0.25164 0.97668
 C1181 C 0.22703 0.25724 0.96384
 C1182 C 0.22761 0.27231 0.96102
 C1183 C 0.23396 0.28178 0.97112
 C1184 C 0.23981 0.27620 0.98395
 C1185 C 0.26956 0.24847 0.97695
 C1186 C 0.27552 0.24300 0.96409
 C1187 C 0.27486 0.22797 0.96109
 C1188 C 0.26834 0.21842 0.97104
 C1189 C 0.26238 0.22387 0.98387
 C1190 C 0.27647 0.23762 1.01727
 C1191 C 0.28155 0.23137 1.03012
 C1192 C 0.27166 0.22510 1.03990
 C1193 C 0.25667 0.22499 1.03673
 C1194 C 0.25157 0.23125 1.02387
 H1195 H 0.21749 0.25700 1.00910
 H1196 H 0.20785 0.26745 1.03168
 H1197 H 0.25167 0.27883 1.04479
 H1198 H 0.26136 0.26852 1.02213
 H1199 H 0.23222 0.23998 0.97878
 H1200 H 0.22205 0.24983 0.95613
 H1201 H 0.24476 0.28366 0.99163
 H1202 H 0.27022 0.26010 0.97917
 H1203 H 0.28062 0.25048 0.95651
 H1204 H 0.26781 0.20677 0.96884
 H1205 H 0.25726 0.21635 0.99140
 H1206 H 0.28425 0.24252 1.00986
 H1207 H 0.29318 0.23148 1.03246
 H1208 H 0.24893 0.22009 1.04418
 H1209 H 0.23995 0.23100 1.02150
 H1210 H 0.23440 0.29346 0.96906
 C1211 C 0.25545 0.74429 0.50023
 C1212 C 0.24463 0.75461 0.50026
 C1213 C 0.23892 0.76094 0.51395
 C1214 C 0.23800 0.76022 0.48667
 C1215 C 0.26214 0.73884 0.48661
 C1216 C 0.26108 0.73779 0.51388
 C1217 C 0.22382 0.76065 0.51683
 C1218 C 0.21832 0.76646 0.52970
 C1219 C 0.22784 0.77271 0.53980
 C1220 C 0.24288 0.77321 0.53693
 C1221 C 0.24839 0.76745 0.52404
 C1222 C 0.23205 0.75063 0.47634
 C1223 C 0.22604 0.75615 0.46353
 C1224 C 0.22575 0.77128 0.46102
 C1225 C 0.23138 0.78089 0.47141
 C1226 C 0.23743 0.77540 0.48417
 C1227 C 0.26815 0.74856 0.47639
 C1228 C 0.27417 0.74320 0.46353
 C1229 C 0.27443 0.72809 0.46086
 C1230 C 0.26878 0.71837 0.47114
 C1231 C 0.26270 0.72370 0.48396
 C1232 C 0.27614 0.73818 0.51688
 C1233 C 0.28155 0.73236 0.52979
 C1234 C 0.27197 0.72598 0.53978
 C1235 C 0.25697 0.72533 0.53676
 C1236 C 0.25155 0.73112 0.52384
 H1237 H 0.21633 0.75576 0.50917
 H1238 H 0.20666 0.76605 0.53178
 H1239 H 0.25034 0.77806 0.54465
 H1240 H 0.26003 0.76803 0.52193
 H1241 H 0.23209 0.73891 0.47818
 H1242 H 0.22164 0.74862 0.45559
 H1243 H 0.24184 0.78298 0.49205
 H1244 H 0.26811 0.76026 0.47836
 H1245 H 0.27860 0.75081 0.45567
 H1246 H 0.26899 0.70666 0.46920
 H1247 H 0.25825 0.71602 0.49173
 H1248 H 0.28367 0.74319 0.50931
 H1249 H 0.29318 0.73288 0.53199
 H1250 H 0.24947 0.72036 0.54439
 H1251 H 0.23994 0.73046 0.52162
 H1252 H 0.23115 0.79262 0.46960
 C1253 C 0.24459 0.74459 -0.00011
 C1254 C 0.25513 0.75515 -0.00016
 C1255 C 0.26163 0.76069 -0.01383
 C1256 C 0.26069 0.76171 0.01346
 C1257 C 0.23925 0.73787 0.01355
 C1258 C 0.23782 0.73926 -0.01372
 C1259 C 0.26812 0.75104 -0.02380
 C1260 C 0.27411 0.75640 -0.03667
 C1261 C 0.27379 0.77144 -0.03963
 C1262 C 0.26755 0.78113 -0.02964
 C1263 C 0.26155 0.77580 -0.01678
 C1264 C 0.27580 0.76176 0.01628
 C1265 C 0.28118 0.76784 0.02907
 C1266 C 0.27151 0.77403 0.03912
 C1267 C 0.25645 0.77420 0.03629
 C1268 C 0.25106 0.76815 0.02348
 C1269 C 0.22419 0.73784 0.01666
 C1270 C 0.21901 0.73168 0.02952
 C1271 C 0.22882 0.72536 0.03936
 C1272 C 0.24384 0.72515 0.03623
 C1273 C 0.24903 0.73131 0.02336
 C1274 C 0.23113 0.74905 -0.02344
 C1275 C 0.22485 0.74387 -0.03624
 C1276 C 0.22510 0.72886 -0.03937
 C1277 C 0.23157 0.71904 -0.02964
 C1278 C 0.23784 0.72420 -0.01685
 H1279 H 0.26853 0.73939 -0.02159
 H1280 H 0.27900 0.74882 -0.04429
 H1281 H 0.26728 0.79280 -0.03181
 H1282 H 0.25667 0.78341 -0.00919
 H1283 H 0.28341 0.75694 0.00865
 H1284 H 0.29286 0.76768 0.03114
 H1285 H 0.23940 0.76848 0.02137
 H1286 H 0.21647 0.74279 0.00921
 H1287 H 0.20737 0.73187 0.03181
 H1288 H 0.25151 0.72022 0.04373
 H1289 H 0.26066 0.73098 0.02104
 H1290 H 0.23076 0.76067 -0.02110
 H1291 H 0.21983 0.75155 -0.04368
 H1292 H 0.23181 0.70741 -0.03196
 H1293 H 0.24289 0.71648 -0.00947
 H1294 H 0.24889 0.77903 0.04397
 C1295 C 0.24522 0.24392 0.50007
 C1296 C 0.25558 0.25466 0.50015
 C1297 C 0.26221 0.26022 0.48654
 C1298 C 0.26083 0.26139 0.51382
 C1299 C 0.23981 0.23713 0.51367
 C1300 C 0.23871 0.23846 0.48637
 C1301 C 0.26904 0.25060 0.47675
 C1302 C 0.27520 0.25597 0.46395
 C1303 C 0.27470 0.27100 0.46089
 C1304 C 0.26810 0.28064 0.47070
 C1305 C 0.26194 0.27529 0.48348
 C1306 C 0.27591 0.26181 0.51679
 C1307 C 0.28102 0.26806 0.52961
 C1308 C 0.27112 0.27406 0.53955
 C1309 C 0.25608 0.27386 0.53657
 C1310 C 0.25095 0.26763 0.52374
 C1311 C 0.22471 0.23679 0.51655
 C1312 C 0.21947 0.23058 0.52935
 C1313 C 0.22926 0.22454 0.53937
 C1314 C 0.24432 0.22464 0.53648
 C1315 C 0.24958 0.23084 0.52365
 C1316 C 0.23200 0.24816 0.47657
 C1317 C 0.22597 0.24290 0.46369
 C1318 C 0.22650 0.22790 0.46053
 C1319 C 0.23300 0.21817 0.47033
 C1320 C 0.23902 0.22342 0.48321
 H1321 H 0.26960 0.23897 0.47904
 H1322 H 0.28034 0.24842 0.45647
 H1323 H 0.26768 0.29229 0.46844
 H1324 H 0.25680 0.28288 0.49093
 H1325 H 0.28370 0.25713 0.50925
 H1326 H 0.29268 0.26819 0.53179
 H1327 H 0.23931 0.26767 0.52152
 H1328 H 0.21700 0.24152 0.50896
 H1329 H 0.20779 0.23053 0.53147
 H1330 H 0.25199 0.21993 0.54413
 H1331 H 0.26125 0.23074 0.52151
 H1332 H 0.23141 0.25977 0.47893
 H1333 H 0.22089 0.25051 0.45622
 H1334 H 0.23344 0.20654 0.46800
 H1335 H 0.24408 0.21576 0.49065
 H1336 H 0.24833 0.27854 0.54416
 C1337 C 0.75528 0.74380 1.00062
 C1338 C 0.74452 0.75418 1.00054
 C1339 C 0.73898 0.76085 1.01413
 C1340 C 0.73778 0.75944 0.98686
 C1341 C 0.76202 0.73837 0.98702
 C1342 C 0.76086 0.73737 1.01431
 C1343 C 0.72391 0.76065 1.01718
 C1344 C 0.71857 0.76681 1.02997
 C1345 C 0.72823 0.77335 1.03978
 C1346 C 0.74324 0.77381 1.03670
 C1347 C 0.74859 0.76765 1.02390
 C1348 C 0.73147 0.74958 0.97700
 C1349 C 0.72520 0.75472 0.96417
 C1350 C 0.72504 0.76976 0.96115
 C1351 C 0.73113 0.77965 0.97102
 C1352 C 0.73743 0.77452 0.98383
 C1353 C 0.76833 0.74812 0.97702
 C1354 C 0.77449 0.74284 0.96420
 C1355 C 0.77453 0.72778 0.96131
 C1356 C 0.76850 0.71800 0.97134
 C1357 C 0.76232 0.72326 0.98415
 C1358 C 0.77594 0.73765 1.01729
 C1359 C 0.78134 0.73168 1.03015
 C1360 C 0.77174 0.72526 1.04011
 C1361 C 0.75671 0.72476 1.03713
 C1362 C 0.75130 0.73073 1.02427
 H1363 H 0.71631 0.75556 1.00973
 H1364 H 0.70693 0.76645 1.03222
 H1365 H 0.75079 0.77893 1.04417
 H1366 H 0.76021 0.76819 1.02160
 H1367 H 0.73139 0.73793 0.97927
 H1368 H 0.72046 0.74698 0.95663
 H1369 H 0.74217 0.78230 0.99132
 H1370 H 0.76847 0.75979 0.97916
 H1371 H 0.77922 0.75049 0.95654
 H1372 H 0.76852 0.70631 0.96923
 H1373 H 0.75759 0.71557 0.99176
 H1374 H 0.78350 0.74265 1.00973
 H1375 H 0.79299 0.73210 1.03233
 H1376 H 0.74920 0.71975 1.04473
 H1377 H 0.73966 0.73016 1.02205
 H1378 H 0.73105 0.79131 0.96880
 C1379 C 0.75566 0.24423 0.50088
 C1380 C 0.74473 0.25444 0.50083
 C1381 C 0.73914 0.26092 0.51449
 C1382 C 0.73793 0.25982 0.48722
 C1383 C 0.76231 0.23861 0.48731
 C1384 C 0.76142 0.23807 0.51462
 C1385 C 0.72417 0.26006 0.51782
 C1386 C 0.71882 0.26599 0.53070
 C1387 C 0.72836 0.27295 0.54033
 C1388 C 0.74327 0.27403 0.53697
 C1389 C 0.74863 0.26810 0.52409
 C1390 C 0.73200 0.25005 0.47703
 C1391 C 0.72580 0.25537 0.46423
 C1392 C 0.72531 0.27048 0.46158
 C1393 C 0.73094 0.28025 0.47181
 C1394 C 0.73716 0.27496 0.48458
 C1395 C 0.76806 0.24820 0.47685
 C1396 C 0.77400 0.24269 0.46401
 C1397 C 0.77443 0.22754 0.46160
 C1398 C 0.76904 0.21793 0.47212
 C1399 C 0.76305 0.22342 0.48492
 C1400 C 0.77643 0.23906 0.51775
 C1401 C 0.78194 0.23344 0.53071
 C1402 C 0.77254 0.22665 0.54061
 C1403 C 0.75760 0.22549 0.53748
 C1404 C 0.75206 0.23111 0.52453
 H1405 H 0.71668 0.25462 0.51053
 H1406 H 0.70726 0.26511 0.53317
 H1407 H 0.75073 0.27945 0.54430
 H1408 H 0.76017 0.26910 0.52160
 H1409 H 0.73220 0.23835 0.47899
 H1410 H 0.72141 0.24772 0.45641
 H1411 H 0.74156 0.28267 0.49233
 H1412 H 0.76790 0.25994 0.47861
 H1413 H 0.77823 0.25022 0.45597
 H1414 H 0.76939 0.20619 0.47040
 H1415 H 0.75880 0.21583 0.49289
 H1416 H 0.78382 0.24435 0.51024
 H1417 H 0.79353 0.23439 0.53301
 H1418 H 0.75023 0.22022 0.54504
 H1419 H 0.74050 0.23003 0.52222
 H1420 H 0.73058 0.29196 0.46989
 C1421 C 0.74533 0.24360 -0.00154
 C1422 C 0.75560 0.25433 -0.00160
 C1423 C 0.76125 0.26033 -0.01536
 C1424 C 0.76192 0.26030 0.01192
 C1425 C 0.73912 0.23764 0.01206
 C1426 C 0.73953 0.23763 -0.01523
 C1427 C 0.77430 0.25482 -0.02123
 C1428 C 0.77971 0.26043 -0.03424
 C1429 C 0.77218 0.27167 -0.04141
 C1430 C 0.75912 0.27718 -0.03557
 C1431 C 0.75364 0.27149 -0.02261
 C1432 C 0.76909 0.25107 0.02183
 C1433 C 0.77472 0.25677 0.03470
 C1434 C 0.77332 0.27174 0.03774
 C1435 C 0.76638 0.28101 0.02781
 C1436 C 0.76076 0.27533 0.01494
 C1437 C 0.73201 0.24687 0.02200
 C1438 C 0.72636 0.24116 0.03488
 C1439 C 0.72769 0.22618 0.03790
 C1440 C 0.73465 0.21692 0.02798
 C1441 C 0.74029 0.22261 0.01510
 C1442 C 0.72642 0.24315 -0.02096
 C1443 C 0.72090 0.23759 -0.03393
 C1444 C 0.72839 0.22640 -0.04122
 C1445 C 0.74149 0.22087 -0.03551
 C1446 C 0.74708 0.22650 -0.02258
 H1447 H 0.78022 0.24615 -0.01576
 H1448 H 0.78979 0.25606 -0.03867
 H1449 H 0.75322 0.28589 -0.04101
 H1450 H 0.74355 0.27583 -0.01817
 H1451 H 0.77029 0.23948 0.01960
 H1452 H 0.78014 0.24952 0.04228
 H1453 H 0.75527 0.28262 0.00745
 H1454 H 0.73085 0.25847 0.01977
 H1455 H 0.72095 0.24842 0.04246
 H1456 H 0.73575 0.20531 0.03021
 H1457 H 0.74576 0.21532 0.00760
 H1458 H 0.72055 0.25181 -0.01542
 H1459 H 0.71078 0.24199 -0.03826
 H1460 H 0.74736 0.21219 -0.04103
 H1461 H 0.75722 0.22216 -0.01827
 H1462 H 0.76525 0.29260 0.03005
 C1463 C 0.74457 0.74452 0.49918
 C1464 C 0.75535 0.75487 0.49910
 C1465 C 0.76110 0.76128 0.48543
 C1466 C 0.76202 0.76032 0.51272
 C1467 C 0.73787 0.73926 0.51290
 C1468 C 0.73888 0.73792 0.48561
 C1469 C 0.77628 0.76151 0.48292
 C1470 C 0.78188 0.76742 0.47013
 C1471 C 0.77240 0.77324 0.45973
 C1472 C 0.75727 0.77329 0.46225
 C1473 C 0.75165 0.76745 0.47508
 C1474 C 0.76830 0.75058 0.52276
 C1475 C 0.77441 0.75588 0.53559
 C1476 C 0.77446 0.77096 0.53842
 C1477 C 0.76847 0.78072 0.52834
 C1478 C 0.76233 0.77543 0.51554
 C1479 C 0.73176 0.74914 0.52290
 C1480 C 0.72563 0.74401 0.53581
 C1481 C 0.72539 0.72895 0.53877
 C1482 C 0.73121 0.71905 0.52874
 C1483 C 0.73737 0.72416 0.51586
 C1484 C 0.72372 0.73770 0.48302
 C1485 C 0.71819 0.73174 0.47024
 C1486 C 0.72774 0.72583 0.45993
 C1487 C 0.74285 0.72573 0.46255
 C1488 C 0.74839 0.73164 0.47536
 H1489 H 0.78377 0.75695 0.49080
 H1490 H 0.79361 0.76740 0.46834
 H1491 H 0.74984 0.77784 0.45430
 H1492 H 0.73994 0.76771 0.47693
 H1493 H 0.76843 0.73891 0.52066
 H1494 H 0.77909 0.74824 0.54329
 H1495 H 0.75764 0.78312 0.50789
 H1496 H 0.73175 0.76080 0.52070
 H1497 H 0.72110 0.75176 0.54347
 H1498 H 0.73103 0.70738 0.53090
 H1499 H 0.74192 0.71636 0.50826
 H1500 H 0.71618 0.74233 0.49083
 H1501 H 0.70649 0.73180 0.46837
 H1502 H 0.75033 0.72110 0.45469
 H1503 H 0.76009 0.73138 0.47727
 H1504 H 0.76849 0.79241 0.53040
 C1505 C 0.99936 0.25663 0.24317
 C1506 C 0.99938 0.24673 0.25420
 C1507 C 1.01327 0.24068 0.26004
 C1508 C 0.98565 0.24121 0.26089
 C1509 C 0.98558 0.26211 0.23653
 C1510 C 1.01323 0.26271 0.23732
 C1511 C 1.02313 0.23314 0.25105
 C1512 C 1.03619 0.22754 0.25668
 C1513 C 1.03947 0.22931 0.27135
 C1514 C 1.02962 0.23668 0.28038
 C1515 C 1.01655 0.24228 0.27477
 C1516 C 0.98327 0.22604 0.26183
 C1517 C 0.97043 0.22059 0.26800
 C1518 C 0.95983 0.23024 0.27340
 C1519 C 0.96220 0.24539 0.27273
 C1520 C 0.97510 0.25087 0.26658
 C1521 C 0.98316 0.27728 0.23552
 C1522 C 0.97019 0.28268 0.22953
 C1523 C 0.95952 0.27299 0.22441
 C1524 C 0.96198 0.25785 0.22509
 C1525 C 0.97500 0.25242 0.23103
 C1526 C 1.02309 0.27019 0.24633
 C1527 C 1.03616 0.27576 0.24072
 C1528 C 1.03946 0.27402 0.22605
 C1529 C 1.02961 0.26672 0.21699
 C1530 C 1.01653 0.26114 0.22259
 H1531 H 1.02067 0.23160 0.23972
 H1532 H 1.04370 0.22180 0.24960
 H1533 H 1.03203 0.23810 0.29175
 H1534 H 1.00905 0.24800 0.28187
 H1535 H 0.99131 0.21842 0.25761
 H1536 H 0.96873 0.20885 0.26852
 H1537 H 0.97684 0.26260 0.26624
 H1538 H 0.99124 0.28493 0.23955
 H1539 H 0.96844 0.29441 0.22898
 H1540 H 0.95384 0.25025 0.22106
 H1541 H 0.97680 0.24069 0.23139
 H1542 H 1.02064 0.27169 0.25767
 H1543 H 1.04367 0.28144 0.24781
 H1544 H 1.03204 0.26532 0.20562
 H1545 H 1.00905 0.25544 0.21548
 H1546 H 0.95411 0.25294 0.27696
 C1547 C 0.50018 0.25460 0.74241
 C1548 C 0.50019 0.24440 0.75322
 C1549 C 0.51403 0.23816 0.75913
 C1550 C 0.48636 0.23896 0.75980
 C1551 C 0.48635 0.25987 0.73568
 C1552 C 0.51398 0.26110 0.73676
 C1553 C 0.52472 0.23205 0.75000
 C1554 C 0.53774 0.22644 0.75575
 C1555 C 0.54010 0.22665 0.77070
 C1556 C 0.52935 0.23241 0.77987
 C1557 C 0.51639 0.23810 0.77413
 C1558 C 0.48379 0.22381 0.76062
 C1559 C 0.47089 0.21849 0.76681
 C1560 C 0.46045 0.22825 0.77234
 C1561 C 0.46302 0.24337 0.77174
 C1562 C 0.47596 0.24871 0.76559
 C1563 C 0.48352 0.27498 0.73489
 C1564 C 0.47054 0.28014 0.72871
 C1565 C 0.46027 0.27026 0.72317
 C1566 C 0.46311 0.25517 0.72366
 C1567 C 0.47614 0.25000 0.72980
 C1568 C 0.52436 0.26739 0.74611
 C1569 C 0.53740 0.27317 0.74063
 C1570 C 0.54009 0.27300 0.72574
 C1571 C 0.52965 0.26709 0.71634
 C1572 C 0.51667 0.26120 0.72181
 H1573 H 0.52302 0.23167 0.73844
 H1574 H 0.54596 0.22197 0.74855
 H1575 H 0.53101 0.23254 0.79146
 H1576 H 0.50825 0.24262 0.78139
 H1577 H 0.49172 0.21612 0.75633
 H1578 H 0.46905 0.20677 0.76729
 H1579 H 0.47788 0.26042 0.76536
 H1580 H 0.49130 0.28278 0.73923
 H1581 H 0.46848 0.29183 0.72833
 H1582 H 0.45527 0.24743 0.71934
 H1583 H 0.47826 0.23831 0.72999
 H1584 H 0.52240 0.26773 0.75764
 H1585 H 0.54538 0.27777 0.74799
 H1586 H 0.53158 0.26698 0.70480
 H1587 H 0.50878 0.25654 0.71440
 H1588 H 0.45505 0.25102 0.77606
 C1589 C 0.00017 0.24425 0.74361
 C1590 C 0.00016 0.25460 0.75422
 C1591 C -0.01368 0.26103 0.75985
 C1592 C 0.01397 0.26004 0.76078
 C1593 C 0.01399 0.23879 0.73702
 C1594 C -0.01365 0.23783 0.73801
 C1595 C -0.02379 0.26779 0.75052
 C1596 C -0.03679 0.27374 0.75599
 C1597 C -0.03973 0.27311 0.77084
 C1598 C -0.02960 0.26657 0.78020
 C1599 C -0.01662 0.26061 0.77474
 C1600 C 0.01687 0.27515 0.76102
 C1601 C 0.02980 0.28044 0.76716
 C1602 C 0.03994 0.27068 0.77322
 C1603 C 0.03704 0.25561 0.77318
 C1604 C 0.02409 0.25031 0.76705
 C1605 C 0.01690 0.22368 0.73676
 C1606 C 0.02986 0.21838 0.73064
 C1607 C 0.04001 0.22812 0.72462
 C1608 C 0.03709 0.24320 0.72465
 C1609 C 0.02411 0.24851 0.73076
 C1610 C -0.02371 0.23102 0.74736
 C1611 C -0.03670 0.22508 0.74191
 C1612 C -0.03968 0.22577 0.72708
 C1613 C -0.02961 0.23237 0.71771
 C1614 C -0.01664 0.23832 0.72313
 H1615 H -0.02158 0.26848 0.73903
 H1616 H -0.04451 0.27885 0.74865
 H1617 H -0.03175 0.26606 0.79171
 H1618 H -0.00892 0.25552 0.78212
 H1619 H 0.00917 0.28282 0.75630
 H1620 H 0.03190 0.29212 0.76716
 H1621 H 0.02194 0.23864 0.76722
 H1622 H 0.00919 0.21601 0.74145
 H1623 H 0.03198 0.20669 0.73065
 H1624 H 0.04484 0.25083 0.71996
 H1625 H 0.02194 0.26018 0.73059
 H1626 H -0.02148 0.23030 0.75883
 H1627 H -0.04439 0.21993 0.74926
 H1628 H -0.03179 0.23294 0.70621
 H1629 H -0.00899 0.24347 0.71575
 H1630 H 0.04478 0.24797 0.77791
 C1631 C 0.50061 0.24646 0.24250
 C1632 C 0.50056 0.25640 0.25348
 C1633 C 0.48679 0.26200 0.26003
 C1634 C 0.51444 0.26228 0.25941
 C1635 C 0.51453 0.24033 0.23685
 C1636 C 0.48691 0.24099 0.23576
 C1637 C 0.48441 0.27719 0.26085
 C1638 C 0.47144 0.28269 0.26677
 C1639 C 0.46075 0.27309 0.27203
 C1640 C 0.46317 0.25793 0.27152
 C1641 C 0.47616 0.25240 0.26562
 C1642 C 0.52411 0.27027 0.25062
 C1643 C 0.53720 0.27570 0.25631
 C1644 C 0.54073 0.27321 0.27083
 C1645 C 0.53108 0.26531 0.27964
 C1646 C 0.51797 0.25993 0.27398
 C1647 C 0.52388 0.23218 0.24584
 C1648 C 0.53697 0.22644 0.24040
 C1649 C 0.54081 0.22877 0.22593
 C1650 C 0.53149 0.23684 0.21692
 C1651 C 0.51838 0.24253 0.22233
 C1652 C 0.48445 0.22583 0.23490
 C1653 C 0.47153 0.22044 0.22883
 C1654 C 0.46097 0.23014 0.22345
 C1655 C 0.46346 0.24527 0.22401
 C1656 C 0.47641 0.25069 0.23005
 H1657 H 0.49251 0.28478 0.25672
 H1658 H 0.46973 0.29443 0.26719
 H1659 H 0.45501 0.25040 0.27565
 H1660 H 0.47793 0.24067 0.26538
 H1661 H 0.52148 0.27233 0.23940
 H1662 H 0.54455 0.28184 0.24941
 H1663 H 0.51064 0.25378 0.28090
 H1664 H 0.52098 0.23022 0.25702
 H1665 H 0.54406 0.22017 0.24745
 H1666 H 0.53436 0.23872 0.20571
 H1667 H 0.51130 0.24879 0.21526
 H1668 H 0.49244 0.21817 0.23913
 H1669 H 0.46975 0.20871 0.22840
 H1670 H 0.45538 0.25287 0.21981
 H1671 H 0.47823 0.26241 0.23033
 H1672 H 0.53371 0.26330 0.29088
 C1673 C 1.00018 0.75532 0.74350
 C1674 C 1.00018 0.74384 0.75279
 C1675 C 1.01405 0.73772 0.75843
 C1676 C 0.98636 0.73783 0.75867
 C1677 C 0.98635 0.76142 0.73771
 C1678 C 1.01402 0.76135 0.73772
 C1679 C 1.01959 0.72445 0.75307
 C1680 C 1.03272 0.71874 0.75848
 C1681 C 1.04042 0.72631 0.76923
 C1682 C 1.03497 0.73963 0.77451
 C1683 C 1.02183 0.74531 0.76914
 C1684 C 0.98166 0.72374 0.75479
 C1685 C 0.96862 0.71808 0.76042
 C1686 C 0.96018 0.72647 0.77000
 C1687 C 0.96480 0.74056 0.77386
 C1688 C 0.97784 0.74622 0.76823
 C1689 C 0.98147 0.77532 0.74203
 C1690 C 0.96841 0.78104 0.73651
 C1691 C 0.96015 0.77292 0.72659
 C1692 C 0.96497 0.75902 0.72228
 C1693 C 0.97802 0.75328 0.72781
 C1694 C 1.01952 0.77472 0.74286
 C1695 C 1.03258 0.78039 0.73729
 C1696 C 1.04026 0.77271 0.72658
 C1697 C 1.03485 0.75931 0.72150
 C1698 C 1.02177 0.75366 0.72704
 H1699 H 1.01386 0.71859 0.74464
 H1700 H 1.03686 0.70845 0.75429
 H1701 H 1.04085 0.74558 0.78281
 H1702 H 1.01771 0.75562 0.77331
 H1703 H 0.98798 0.71718 0.74730
 H1704 H 0.96513 0.70719 0.75732
 H1705 H 0.98135 0.75710 0.77136
 H1706 H 0.98765 0.78167 0.74979
 H1707 H 0.96475 0.79179 0.73996
 H1708 H 0.95867 0.75264 0.71461
 H1709 H 0.98168 0.74254 0.72437
 H1710 H 1.01378 0.78070 0.75123
 H1711 H 1.03670 0.79073 0.74133
 H1712 H 1.04072 0.75327 0.71324
 H1713 H 1.01766 0.74331 0.72301
 H1714 H 0.95836 0.74715 0.78126
 C1715 C 0.49956 0.75694 0.24364
 C1716 C 0.49960 0.74677 0.25447
 C1717 C 0.51343 0.74049 0.26033
 C1718 C 0.48578 0.74130 0.26106
 C1719 C 0.48570 0.76225 0.23699
 C1720 C 0.51336 0.76331 0.23781
 C1721 C 0.52398 0.73414 0.25118
 C1722 C 0.53695 0.72840 0.25690
 C1723 C 0.53941 0.72872 0.27184
 C1724 C 0.52882 0.73472 0.28103
 C1725 C 0.51589 0.74054 0.27532
 C1726 C 0.48319 0.72615 0.26177
 C1727 C 0.47028 0.72080 0.26791
 C1728 C 0.45984 0.73052 0.27347
 C1729 C 0.46242 0.74564 0.27301
 C1730 C 0.47538 0.75102 0.26692
 C1731 C 0.48287 0.77737 0.23631
 C1732 C 0.46986 0.78257 0.23024
 C1733 C 0.45955 0.77273 0.22469
 C1734 C 0.46240 0.75764 0.22507
 C1735 C 0.47546 0.75242 0.23111
 C1736 C 0.52386 0.76963 0.24700
 C1737 C 0.53688 0.77530 0.24132
 C1738 C 0.53944 0.77492 0.22641
 C1739 C 0.52887 0.76899 0.21718
 C1740 C 0.51589 0.76325 0.22283
 H1741 H 0.52217 0.73367 0.23963
 H1742 H 0.54503 0.72369 0.24969
 H1743 H 0.53055 0.73494 0.29260
 H1744 H 0.50785 0.74521 0.28259
 H1745 H 0.49112 0.71849 0.25744
 H1746 H 0.46843 0.70907 0.26827
 H1747 H 0.47731 0.76272 0.26677
 H1748 H 0.49068 0.78514 0.24065
 H1749 H 0.46780 0.79426 0.22992
 H1750 H 0.45454 0.74993 0.22073
 H1751 H 0.47757 0.74074 0.23123
 H1752 H 0.52201 0.77010 0.25854
 H1753 H 0.54496 0.77993 0.24856
 H1754 H 0.53068 0.76873 0.20561
 H1755 H 0.50790 0.75856 0.21554
 H1756 H 0.45444 0.75326 0.27735
 C1757 C 0.00004 0.74643 0.24307
 C1758 C 0.00010 0.75672 0.25374
 C1759 C -0.01370 0.76314 0.25945
 C1760 C 0.01396 0.76213 0.26023
 C1761 C 0.01382 0.74092 0.23646
 C1762 C -0.01382 0.74012 0.23745
 C1763 C -0.02385 0.76995 0.25018
 C1764 C -0.03688 0.77578 0.25571
 C1765 C -0.03982 0.77498 0.27055
 C1766 C -0.02964 0.76842 0.27985
 C1767 C -0.01663 0.76258 0.27434
 C1768 C 0.01688 0.77723 0.26042
 C1769 C 0.02990 0.78250 0.26638
 C1770 C 0.04010 0.77274 0.27232
 C1771 C 0.03717 0.75767 0.27236
 C1772 C 0.02413 0.75238 0.26641
 C1773 C 0.01667 0.72579 0.23625
 C1774 C 0.02964 0.72044 0.23018
 C1775 C 0.03985 0.73013 0.22418
 C1776 C 0.03697 0.74522 0.22414
 C1777 C 0.02399 0.75059 0.23020
 C1778 C -0.02390 0.73328 0.24676
 C1779 C -0.03693 0.72746 0.24129
 C1780 C -0.03994 0.72829 0.22646
 C1781 C -0.02985 0.73492 0.21712
 C1782 C -0.01683 0.74075 0.22258
 H1783 H -0.02167 0.77072 0.23870
 H1784 H -0.04464 0.78089 0.24842
 H1785 H -0.03178 0.76780 0.29136
 H1786 H -0.00892 0.75743 0.28166
 H1787 H 0.00913 0.78491 0.25579
 H1788 H 0.03203 0.79418 0.26633
 H1789 H 0.02196 0.74072 0.26661
 H1790 H 0.00894 0.71816 0.24095
 H1791 H 0.03173 0.70875 0.23022
 H1792 H 0.04476 0.75280 0.21945
 H1793 H 0.02187 0.76227 0.23001
 H1794 H -0.02164 0.73243 0.25822
 H1795 H -0.04464 0.72230 0.24860
 H1796 H -0.03205 0.73559 0.20564
 H1797 H -0.00916 0.74590 0.21523
 H1798 H 0.04496 0.75002 0.27700
 C1799 C 0.49957 0.74475 0.74374
 C1800 C 0.49956 0.75545 0.75401
 C1801 C 0.48573 0.76114 0.76039
 C1802 C 0.51339 0.76191 0.75955
 C1803 C 0.51341 0.73811 0.73837
 C1804 C 0.48576 0.73904 0.73741
 C1805 C 0.48282 0.77625 0.76011
 C1806 C 0.46986 0.78177 0.76605
 C1807 C 0.45972 0.77226 0.77243
 C1808 C 0.46264 0.75719 0.77293
 C1809 C 0.47561 0.75165 0.76700
 C1810 C 0.52362 0.76835 0.75013
 C1811 C 0.53668 0.77419 0.75553
 C1812 C 0.53956 0.77377 0.77039
 C1813 C 0.52932 0.76754 0.77984
 C1814 C 0.51629 0.76169 0.77446
 C1815 C 0.52345 0.73159 0.74794
 C1816 C 0.53648 0.72551 0.74271
 C1817 C 0.53953 0.72575 0.72787
 C1818 C 0.52945 0.73202 0.71828
 C1819 C 0.51643 0.73812 0.72349
 C1820 C 0.48287 0.72393 0.73782
 C1821 C 0.46989 0.71839 0.73201
 C1822 C 0.45970 0.72787 0.72564
 C1823 C 0.46260 0.74293 0.72499
 C1824 C 0.47560 0.74849 0.73079
 H1825 H 0.49053 0.78375 0.75515
 H1826 H 0.46774 0.79345 0.76564
 H1827 H 0.45490 0.74973 0.77791
 H1828 H 0.47779 0.74000 0.76759
 H1829 H 0.52149 0.76882 0.73862
 H1830 H 0.54451 0.77903 0.74813
 H1831 H 0.50853 0.75680 0.78189
 H1832 H 0.52118 0.73123 0.75943
 H1833 H 0.54417 0.72062 0.75022
 H1834 H 0.53168 0.73224 0.70677
 H1835 H 0.50879 0.74302 0.71594
 H1836 H 0.49060 0.71647 0.74281
 H1837 H 0.46779 0.70671 0.73253
 H1838 H 0.45482 0.75035 0.72001
 H1839 H 0.47774 0.76015 0.73013
 H1840 H 0.53144 0.76716 0.79135
 C1841 C 0.38796 0.30575 0.30472
 C1842 C 0.39900 0.30079 0.29947
 C1843 C 0.41197 0.29489 0.29351
 C1844 C 0.42308 0.28980 0.28854
 C1845 C 0.43613 0.28385 0.28280
 C1846 C 0.44732 0.27885 0.27791
 C1847 C 0.38734 0.80531 0.80560
 C1848 C 0.39831 0.80016 0.80039
 C1849 C 0.41120 0.79410 0.79442
 C1850 C 0.42224 0.78894 0.78938
 C1851 C 0.43523 0.78299 0.78350
 C1852 C 0.44637 0.77802 0.77847
 C1853 C -0.11190 0.30607 0.80453
 C1854 C -0.10100 0.30102 0.79909
 C1855 C -0.08818 0.29513 0.79280
 C1856 C -0.07719 0.29012 0.78753
 C1857 C -0.06423 0.28423 0.78152
 C1858 C -0.05310 0.27919 0.77654
 C1859 C -0.11247 0.80661 0.30443
 C1860 C -0.10144 0.80181 0.29905
 C1861 C -0.08849 0.79622 0.29276
 C1862 C -0.07741 0.79143 0.28745
 C1863 C -0.06440 0.78577 0.28136
 C1864 C -0.05323 0.78089 0.27632
 C1865 C 0.61171 0.69615 0.30558
 C1866 C 0.60077 0.70130 0.30031
 C1867 C 0.58791 0.70720 0.29415
 C1868 C 0.57687 0.71217 0.28892
 C1869 C 0.56389 0.71794 0.28287
 C1870 C 0.55276 0.72284 0.27778
 C1871 C 0.61245 0.19468 0.80479
 C1872 C 0.60156 0.19980 0.79942
 C1873 C 0.58872 0.20566 0.79317
 C1874 C 0.57768 0.21055 0.78788
 C1875 C 0.56468 0.21618 0.78178
 C1876 C 0.55350 0.22095 0.77666
 C1877 C 1.11264 0.69428 0.80354
 C1878 C 1.10172 0.69909 0.79795
 C1879 C 1.08888 0.70474 0.79153
 C1880 C 1.07786 0.70961 0.78617
 C1881 C 1.06491 0.71537 0.78007
 C1882 C 1.05378 0.72033 0.77503
 C1883 C 1.11160 0.19662 0.30517
 C1884 C 1.10074 0.20176 0.29975
 C1885 C 1.08795 0.20770 0.29348
 C1886 C 1.07697 0.21271 0.28822
 C1887 C 1.06401 0.21854 0.28220
 C1888 C 1.05286 0.22346 0.27718
 C1889 C 0.61304 0.30553 0.69369
 C1890 C 0.60195 0.30050 0.69870
 C1891 C 0.58893 0.29465 0.70453
 C1892 C 0.57778 0.28967 0.70947
 C1893 C 0.56470 0.28387 0.71521
 C1894 C 0.55350 0.27892 0.72006
 C1895 C 0.61262 0.80610 0.19334
 C1896 C 0.60152 0.80119 0.19847
 C1897 C 0.58847 0.79556 0.20447
 C1898 C 0.57728 0.79081 0.20958
 C1899 C 0.56414 0.78531 0.21552
 C1900 C 0.55290 0.78060 0.22054
 C1901 C 1.11234 0.30620 0.19334
 C1902 C 1.10131 0.30119 0.19851
 C1903 C 1.08833 0.29537 0.20450
 C1904 C 1.07720 0.29044 0.20954
 C1905 C 1.06411 0.28470 0.21535
 C1906 C 1.05289 0.27982 0.22025
 C1907 C 1.11289 0.80552 0.69385
 C1908 C 1.10188 0.80041 0.69899
 C1909 C 1.08895 0.79446 0.70495
 C1910 C 1.07786 0.78942 0.70999
 C1911 C 1.06482 0.78356 0.71583
 C1912 C 1.05365 0.77860 0.72076
 C1913 C 0.38678 0.69486 0.69389
 C1914 C 0.39785 0.70003 0.69880
 C1915 C 0.41087 0.70608 0.70448
 C1916 C 0.42201 0.71120 0.70930
 C1917 C 0.43509 0.71713 0.71494
 C1918 C 0.44629 0.72210 0.71978
 C1919 C 0.38794 0.19669 0.19245
 C1920 C 0.39903 0.20207 0.19710
 C1921 C 0.41206 0.20832 0.20252
 C1922 C 0.42321 0.21356 0.20718
 C1923 C 0.43632 0.21955 0.21271
 C1924 C 0.44754 0.22449 0.21753
 C1925 C -0.11256 0.69523 0.19412
 C1926 C -0.10154 0.70038 0.19916
 C1927 C -0.08860 0.70636 0.20506
 C1928 C -0.07752 0.71142 0.21007
 C1929 C -0.06450 0.71731 0.21588
 C1930 C -0.05333 0.72231 0.22077
 C1931 C -0.11213 0.19298 0.69419
 C1932 C -0.10111 0.19797 0.69939
 C1933 C -0.08818 0.20378 0.70545
 C1934 C -0.07713 0.20876 0.71059
 C1935 C -0.06415 0.21463 0.71649
 C1936 C -0.05302 0.21968 0.72141
 C1937 C 0.30417 0.38727 0.30779
 C1938 C 0.29886 0.39835 0.30298
 C1939 C 0.29268 0.41135 0.29736
 C1940 C 0.28747 0.42247 0.29253
 C1941 C 0.28152 0.43554 0.28682
 C1942 C 0.27659 0.44674 0.28188
 C1943 C 0.30561 -0.11305 0.80761
 C1944 C 0.30038 -0.10198 0.80269
 C1945 C 0.29427 -0.08900 0.79697
 C1946 C 0.28908 -0.07790 0.79209
 C1947 C 0.28309 -0.06485 0.78637
 C1948 C 0.27810 -0.05366 0.78146
 C1949 C 0.80548 0.38759 0.80599
 C1950 C 0.80038 0.39866 0.80093
 C1951 C 0.79449 0.41167 0.79507
 C1952 C 0.78952 0.42283 0.79009
 C1953 C 0.78380 0.43595 0.78429
 C1954 C 0.77896 0.44720 0.77937
 C1955 C 0.80454 -0.11233 0.30649
 C1956 C 0.79942 -0.10117 0.30167
 C1957 C 0.79344 -0.08808 0.29607
 C1958 C 0.78836 -0.07689 0.29129
 C1959 C 0.78249 -0.06376 0.28566
 C1960 C 0.77757 -0.05253 0.28079
 C1961 C 0.30449 0.61203 0.69545
 C1962 C 0.29942 0.60106 0.70070
 C1963 C 0.29346 0.58817 0.70674
 C1964 C 0.28839 0.57713 0.71185
 C1965 C 0.28253 0.56414 0.71777
 C1966 C 0.27763 0.55299 0.72281
 C1967 C 0.30682 1.11292 0.19746
 C1968 C 0.30198 1.10200 0.20303
 C1969 C 0.29623 1.08915 0.20938
 C1970 C 0.29126 1.07812 0.21461
 C1971 C 0.28536 1.06513 0.22051
 C1972 C 0.28024 1.05397 0.22533
 C1973 C 0.80548 0.61230 0.19647
 C1974 C 0.80058 0.60131 0.20184
 C1975 C 0.79486 0.58838 0.20801
 C1976 C 0.78995 0.57728 0.21316
 C1977 C 0.78416 0.56422 0.21902
 C1978 C 0.77916 0.55302 0.22383
 C1979 C 0.80514 1.11095 0.69535
 C1980 C 0.80017 1.10003 0.70079
 C1981 C 0.79442 1.08719 0.70714
 C1982 C 0.78954 1.07617 0.71248
 C1983 C 0.78382 1.06319 0.71857
 C1984 C 0.77888 1.05203 0.72357
 C1985 C 0.69256 0.61200 0.30539
 C1986 C 0.69746 0.60098 0.30008
 C1987 C 0.70321 0.58806 0.29391
 C1988 C 0.70816 0.57699 0.28873
 C1989 C 0.71400 0.56399 0.28280
 C1990 C 0.71905 0.55285 0.27788
 C1991 C 0.69311 1.11151 0.80530
 C1992 C 0.69800 1.10048 0.80000
 C1993 C 0.70370 1.08750 0.79389
 C1994 C 0.70859 1.07637 0.78879
 C1995 C 0.71435 1.06330 0.78295
 C1996 C 0.71933 1.05209 0.77810
 C1997 C 0.19609 0.61272 0.80800
 C1998 C 0.20137 0.60160 0.80326
 C1999 C 0.20747 0.58853 0.79772
 C2000 C 0.21259 0.57734 0.79296
 C2001 C 0.21844 0.56419 0.78734
 C2002 C 0.22327 0.55293 0.78246
 C2003 C 0.19309 1.11314 0.30654
 C2004 C 0.19814 1.10214 0.30130
 C2005 C 0.20401 1.08923 0.29519
 C2006 C 0.20903 1.07818 0.29005
 C2007 C 0.21491 1.06518 0.28414
 C2008 C 0.21995 1.05403 0.27923
 C2009 C 0.69532 0.38808 0.69532
 C2010 C 0.70026 0.39909 0.70057
 C2011 C 0.70605 0.41205 0.70661
 C2012 C 0.71097 0.42316 0.71168
 C2013 C 0.71671 0.43622 0.71752
 C2014 C 0.72160 0.44741 0.72245
 C2015 C 0.69494 -0.11131 0.19438
 C2016 C 0.70002 -0.10035 0.19962
 C2017 C 0.70598 -0.08747 0.20566
 C2018 C 0.71107 -0.07642 0.21072
 C2019 C 0.71701 -0.06344 0.21655
 C2020 C 0.72202 -0.05230 0.22150
 C2021 C 0.19521 0.38825 0.19427
 C2022 C 0.20036 0.39912 0.19963
 C2023 C 0.20635 0.41192 0.20584
 C2024 C 0.21139 0.42291 0.21107
 C2025 C 0.21718 0.43586 0.21714
 C2026 C 0.22199 0.44698 0.22231
 C2027 C 0.19579 -0.11226 0.69443
 C2028 C 0.20094 -0.10128 0.69957
 C2029 C 0.20698 -0.08841 0.70555
 C2030 C 0.21210 -0.07739 0.71063
 C2031 C 0.21800 -0.06444 0.71660
 C2032 C 0.22290 -0.05333 0.72173
 C2033 C 0.30762 0.30371 0.38909
 C2034 C 0.30276 0.29841 0.40002
 C2035 C 0.29699 0.29230 0.41283
 C2036 C 0.29200 0.28721 0.42380
 C2037 C 0.28607 0.28139 0.43667
 C2038 C 0.28093 0.27656 0.44769
 C2039 C 0.30650 0.80390 -0.11158
 C2040 C 0.30153 0.79867 -0.10067
 C2041 C 0.29573 0.79263 -0.08786
 C2042 C 0.29076 0.78757 -0.07687
 C2043 C 0.28491 0.78179 -0.06396
 C2044 C 0.27987 0.77699 -0.05289
 C2045 C 0.80561 0.30492 -0.11279
 C2046 C 0.80037 0.29972 -0.10198
 C2047 C 0.79423 0.29370 -0.08928
 C2048 C 0.78902 0.28861 -0.07841
 C2049 C 0.78301 0.28269 -0.06561
 C2050 C 0.77799 0.27766 -0.05462
 C2051 C 0.80551 0.80513 0.38761
 C2052 C 0.80042 0.80014 0.39858
 C2053 C 0.79440 0.79442 0.41146
 C2054 C 0.78926 0.78959 0.42248
 C2055 C 0.78327 0.78395 0.43541
 C2056 C 0.77824 0.77911 0.44648
 C2057 C 0.69623 0.30655 0.61202
 C2058 C 0.70144 0.30140 0.60118
 C2059 C 0.70741 0.29536 0.58844
 C2060 C 0.71238 0.29021 0.57750
 C2061 C 0.71807 0.28419 0.56463
 C2062 C 0.72281 0.27906 0.55358
 C2063 C 0.69587 0.80674 1.11150
 C2064 C 0.70109 0.80167 1.10062
 C2065 C 0.70711 0.79574 1.08785
 C2066 C 0.71215 0.79067 1.07689
 C2067 C 0.71790 0.78470 1.06402
 C2068 C 0.72269 0.77956 1.05299
 C2069 C 0.19571 0.30605 1.11160
 C2070 C 0.20100 0.30103 1.10074
 C2071 C 0.20718 0.29523 1.08797
 C2072 C 0.21239 0.29033 1.07702
 C2073 C 0.21839 0.28461 1.06414
 C2074 C 0.22337 0.27971 1.05308
 C2075 C 0.19572 0.80568 0.61176
 C2076 C 0.20080 0.80061 0.60083
 C2077 C 0.20666 0.79468 0.58800
 C2078 C 0.21161 0.78963 0.57700
 C2079 C 0.21732 0.78373 0.56409
 C2080 C 0.22215 0.77870 0.55303
 C2081 C 0.30390 0.69344 0.61203
 C2082 C 0.29878 0.69844 0.60109
 C2083 C 0.29290 0.70429 0.58823
 C2084 C 0.28796 0.70927 0.57719
 C2085 C 0.28231 0.71509 0.56422
 C2086 C 0.27756 0.72005 0.55310
 C2087 C 0.30374 0.19234 1.11206
 C2088 C 0.29842 0.19713 1.10110
 C2089 C 0.29236 0.20283 1.08823
 C2090 C 0.28733 0.20778 1.07722
 C2091 C 0.28164 0.21369 1.06428
 C2092 C 0.27698 0.21883 1.05319
 C2093 C 0.80443 0.69295 1.11223
 C2094 C 0.79919 0.69783 1.10128
 C2095 C 0.79313 0.70356 1.08842
 C2096 C 0.78805 0.70846 1.07741
 C2097 C 0.78222 0.71425 1.06447
 C2098 C 0.77736 0.71923 1.05339
 C2099 C 0.80463 0.19343 0.61256
 C2100 C 0.79957 0.19860 0.60165
 C2101 C 0.79373 0.20464 0.58884
 C2102 C 0.78881 0.20977 0.57786
 C2103 C 0.78310 0.21572 0.56496
 C2104 C 0.77827 0.22074 0.55389
 C2105 C 0.69458 0.69434 0.38780
 C2106 C 0.69982 0.69917 0.39875
 C2107 C 0.70593 0.70477 0.41162
 C2108 C 0.71109 0.70953 0.42264
 C2109 C 0.71703 0.71512 0.43559
 C2110 C 0.72199 0.71996 0.44667
 C2111 C 0.69515 0.19359 -0.11282
 C2112 C 0.70041 0.19870 -0.10199
 C2113 C 0.70650 0.20465 -0.08925
 C2114 C 0.71163 0.20969 -0.07832
 C2115 C 0.71756 0.21555 -0.06547
 C2116 C 0.72255 0.22051 -0.05444
 C2117 C 0.19223 0.69678 -0.11136
 C2118 C 0.19703 0.70206 -0.10041
 C2119 C 0.20274 0.70809 -0.08756
 C2120 C 0.20771 0.71310 -0.07656
 C2121 C 0.21363 0.71878 -0.06365
 C2122 C 0.21880 0.72348 -0.05259
 C2123 C 0.19319 0.19619 0.38850
 C2124 C 0.19827 0.20130 0.39941
 C2125 C 0.20421 0.20718 0.41224
 C2126 C 0.20928 0.21211 0.42324
 C2127 C 0.21523 0.21775 0.43617
 C2128 C 0.22035 0.22244 0.44725
 C2129 C 0.30598 0.38737 0.69629
 C2130 C 0.30120 0.39834 0.70182
 C2131 C 0.29555 0.41123 0.70818
 C2132 C 0.29067 0.42227 0.71349
 C2133 C 0.28490 0.43526 0.71955
 C2134 C 0.27992 0.44639 0.72457
 C2135 C 0.30413 0.88860 0.19418
 C2136 C 0.29899 0.89953 0.19948
 C2137 C 0.29298 0.91237 0.20557
 C2138 C 0.28788 0.92339 0.21072
 C2139 C 0.28199 0.93635 0.21670
 C2140 C 0.27708 0.94748 0.22179
 C2141 C 0.80297 0.38768 0.19226
 C2142 C 0.79773 0.39861 0.19746
 C2143 C 0.79169 0.41145 0.20353
 C2144 C 0.78661 0.42246 0.20870
 C2145 C 0.78081 0.43542 0.21476
 C2146 C 0.77599 0.44654 0.21997
 C2147 C 0.80333 0.88678 0.69268
 C2148 C 0.79812 0.89775 0.69782
 C2149 C 0.79209 0.91062 0.70388
 C2150 C 0.78702 0.92163 0.70909
 C2151 C 0.78120 0.93455 0.71523
 C2152 C 0.77636 0.94562 0.72050
 C2153 C 0.69694 0.61268 0.69206
 C2154 C 0.70241 0.60174 0.69701
 C2155 C 0.70869 0.58889 0.70284
 C2156 C 0.71392 0.57788 0.70789
 C2157 C 0.71981 0.56493 0.71392
 C2158 C 0.72461 0.55383 0.71919
 C2159 C 0.69568 0.11306 0.19435
 C2160 C 0.70067 0.10214 0.19981
 C2161 C 0.70647 0.08932 0.20616
 C2162 C 0.71139 0.07833 0.21151
 C2163 C 0.71714 0.06540 0.21767
 C2164 C 0.72204 0.05428 0.22278
 C2165 C 0.19307 0.61233 0.19646
 C2166 C 0.19770 0.60135 0.20210
 C2167 C 0.20316 0.58845 0.20861
 C2168 C 0.20790 0.57740 0.21403
 C2169 C 0.21361 0.56443 0.22017
 C2170 C 0.21863 0.55331 0.22519
 C2171 C 0.19424 0.11211 0.69675
 C2172 C 0.19896 0.10116 0.70238
 C2173 C 0.20449 0.08829 0.70886
 C2174 C 0.20927 0.07725 0.71426
 C2175 C 0.21496 0.06425 0.72035
 C2176 C 0.21992 0.05308 0.72531
 C2177 C 0.30669 0.61283 0.30531
 C2178 C 0.30182 0.60181 0.30000
 C2179 C 0.29608 0.58884 0.29391
 C2180 C 0.29113 0.57772 0.28885
 C2181 C 0.28523 0.56466 0.28313
 C2182 C 0.28009 0.55346 0.27845
 C2183 C 0.30651 0.11225 0.80633
 C2184 C 0.30150 0.10129 0.80102
 C2185 C 0.29570 0.08839 0.79488
 C2186 C 0.29078 0.07731 0.78974
 C2187 C 0.28501 0.06426 0.78389
 C2188 C 0.28006 0.05305 0.77905
 C2189 C 0.80456 0.61317 0.80748
 C2190 C 0.79922 0.60215 0.80260
 C2191 C 0.79301 0.58922 0.79694
 C2192 C 0.78778 0.57813 0.79211
 C2193 C 0.78181 0.56509 0.78642
 C2194 C 0.77691 0.55390 0.78148
 C2195 C 0.80647 0.11284 0.30591
 C2196 C 0.80137 0.10197 0.30050
 C2197 C 0.79539 0.08919 0.29428
 C2198 C 0.79027 0.07822 0.28909
 C2199 C 0.78426 0.06531 0.28319
 C2200 C 0.77911 0.05421 0.27831
 C2201 C 0.69584 0.38688 0.30789
 C2202 C 0.70097 0.39795 0.30289
 C2203 C 0.70689 0.41093 0.29700
 C2204 C 0.71185 0.42204 0.29194
 C2205 C 0.71754 0.43510 0.28598
 C2206 C 0.72227 0.44628 0.28086
 C2207 C 0.69614 0.88599 0.80848
 C2208 C 0.70138 0.89708 0.80363
 C2209 C 0.70739 0.91010 0.79789
 C2210 C 0.71239 0.92124 0.79292
 C2211 C 0.71810 0.93432 0.78700
 C2212 C 0.72281 0.94551 0.78186
 C2213 C 0.19323 0.38698 0.80622
 C2214 C 0.19821 0.39797 0.80091
 C2215 C 0.20406 0.41088 0.79480
 C2216 C 0.20909 0.42195 0.78970
 C2217 C 0.21503 0.43496 0.78389
 C2218 C 0.22014 0.44613 0.77909
 C2219 C 0.19486 0.88755 0.30687
 C2220 C 0.19994 0.89867 0.30194
 C2221 C 0.20589 0.91173 0.29624
 C2222 C 0.21095 0.92291 0.29142
 C2223 C 0.21682 0.93604 0.28579
 C2224 C 0.22175 0.94728 0.28096
 C2225 C 0.38707 0.30327 0.69183
 C2226 C 0.39817 0.29788 0.69649
 C2227 C 0.41122 0.29164 0.70194
 C2228 C 0.42239 0.28642 0.70663
 C2229 C 0.43552 0.28051 0.71223
 C2230 C 0.44678 0.27569 0.71713
 C2231 C 0.38669 0.80576 0.19260
 C2232 C 0.39768 0.80044 0.19757
 C2233 C 0.41062 0.79424 0.20329
 C2234 C 0.42173 0.78901 0.20813
 C2235 C 0.43481 0.78306 0.21381
 C2236 C 0.44605 0.77820 0.21871
 C2237 C 0.88667 0.30604 0.19235
 C2238 C 0.89770 0.30090 0.19741
 C2239 C 0.91067 0.29482 0.20320
 C2240 C 0.92178 0.28964 0.20805
 C2241 C 0.93485 0.28365 0.21369
 C2242 C 0.94606 0.27867 0.21853
 C2243 C 0.88751 0.80581 0.69391
 C2244 C 0.89855 0.80085 0.69913
 C2245 C 0.91152 0.79498 0.70512
 C2246 C 0.92261 0.78992 0.71014
 C2247 C 0.93563 0.78397 0.71592
 C2248 C 0.94679 0.77891 0.72081
 C2249 C 0.61312 0.30478 0.30494
 C2250 C 0.60218 0.29989 0.29950
 C2251 C 0.58932 0.29418 0.29321
 C2252 C 0.57829 0.28932 0.28792
 C2253 C 0.56530 0.28367 0.28184
 C2254 C 0.55414 0.27889 0.27676
 C2255 C 0.61201 0.80538 0.80439
 C2256 C 0.60104 0.80067 0.79885
 C2257 C 0.58815 0.79511 0.79246
 C2258 C 0.57711 0.79032 0.78712
 C2259 C 0.56413 0.78464 0.78104
 C2260 C 0.55298 0.77972 0.77605
 C2261 C 0.11237 0.30280 0.80684
 C2262 C 0.10142 0.29757 0.80172
 C2263 C 0.08852 0.29158 0.79575
 C2264 C 0.07745 0.28659 0.79065
 C2265 C 0.06444 0.28090 0.78463
 C2266 C 0.05329 0.27617 0.77945
 C2267 C 0.11280 0.80453 0.30567
 C2268 C 0.10180 0.79948 0.30049
 C2269 C 0.08886 0.79361 0.29448
 C2270 C 0.07777 0.78866 0.28939
 C2271 C 0.06472 0.78298 0.28346
 C2272 C 0.05352 0.77823 0.27840
 C2273 C 0.61220 0.69318 0.69494
 C2274 C 0.60121 0.69802 0.70038
 C2275 C 0.58828 0.70374 0.70659
 C2276 C 0.57719 0.70867 0.71176
 C2277 C 0.56415 0.71452 0.71761
 C2278 C 0.55296 0.71960 0.72241
 C2279 C 0.61331 0.19566 0.19320
 C2280 C 0.60235 0.20079 0.19840
 C2281 C 0.58945 0.20676 0.20445
 C2282 C 0.57840 0.21183 0.20953
 C2283 C 0.56539 0.21774 0.21538
 C2284 C 0.55422 0.22278 0.22026
 C2285 C 0.11259 0.69676 0.19224
 C2286 C 0.10159 0.70218 0.19707
 C2287 C 0.08864 0.70843 0.20270
 C2288 C 0.07753 0.71365 0.20753
 C2289 C 0.06447 0.71962 0.21322
 C2290 C 0.05327 0.72453 0.21816
 C2291 C 0.11324 0.19606 0.69235
 C2292 C 0.10210 0.20126 0.69712
 C2293 C 0.08901 0.20723 0.70276
 C2294 C 0.07781 0.21220 0.70763
 C2295 C 0.06467 0.21789 0.71344
 C2296 C 0.05344 0.22262 0.71849
 C2297 C 0.38775 0.69670 0.30621
 C2298 C 0.39865 0.70212 0.30116
 C2299 C 0.41146 0.70846 0.29535
 C2300 C 0.42245 0.71378 0.29040
 C2301 C 0.43538 0.71987 0.28459
 C2302 C 0.44649 0.72488 0.27957
 C2303 C 0.38843 0.19535 0.80620
 C2304 C 0.39934 0.20062 0.80101
 C2305 C 0.41216 0.20675 0.79500
 C2306 C 0.42315 0.21191 0.78987
 C2307 C 0.43607 0.21780 0.78383
 C2308 C 0.44715 0.22267 0.77863
 C2309 C 0.88797 0.69465 0.80447
 C2310 C 0.89893 0.69947 0.79898
 C2311 C 0.91180 0.70512 0.79262
 C2312 C 0.92282 0.70996 0.78728
 C2313 C 0.93578 0.71567 0.78113
 C2314 C 0.94688 0.72058 0.77599
 C2315 C 0.88795 0.19634 0.30659
 C2316 C 0.89882 0.20172 0.30145
 C2317 C 0.91161 0.20801 0.29551
 C2318 C 0.92257 0.21333 0.29049
 C2319 C 0.93546 0.21944 0.28461
 C2320 C 0.94653 0.22449 0.27955
 C2321 C 0.30289 0.30748 0.61143
 C2322 C 0.29761 0.30258 0.60052
 C2323 C 0.29162 0.29674 0.58771
 C2324 C 0.28667 0.29166 0.57673
 C2325 C 0.28106 0.28561 0.56383
 C2326 C 0.27644 0.28038 0.55279
 C2327 C 0.30368 0.80726 0.11086
 C2328 C 0.29855 0.80229 0.09992
 C2329 C 0.29261 0.79642 0.08711
 C2330 C 0.28762 0.79136 0.07615
 C2331 C 0.28189 0.78538 0.06330
 C2332 C 0.27710 0.78023 0.05229
 C2333 C 0.80445 0.30510 0.10993
 C2334 C 0.79959 0.29990 0.09898
 C2335 C 0.79398 0.29382 0.08610
 C2336 C 0.78924 0.28866 0.07507
 C2337 C 0.78372 0.28267 0.06212
 C2338 C 0.77900 0.27763 0.05103
 C2339 C 0.80661 0.80419 0.61023
 C2340 C 0.80179 0.79882 0.59933
 C2341 C 0.79615 0.79258 0.58654
 C2342 C 0.79130 0.78734 0.57559
 C2343 C 0.78556 0.78139 0.56271
 C2344 C 0.78056 0.77650 0.55167
 C2345 C 0.30592 0.69459 0.38882
 C2346 C 0.30108 0.69984 0.39978
 C2347 C 0.29553 0.70607 0.41262
 C2348 C 0.29082 0.71138 0.42360
 C2349 C 0.28524 0.71747 0.43650
 C2350 C 0.28039 0.72247 0.44757
 C2351 C 0.30644 0.19484 0.88887
 C2352 C 0.30156 0.20006 0.89983
 C2353 C 0.29595 0.20619 0.91270
 C2354 C 0.29119 0.21138 0.92373
 C2355 C 0.28560 0.21734 0.93669
 C2356 C 0.28076 0.22229 0.94779
 C2357 C 0.80772 0.69613 0.88917
 C2358 C 0.80275 0.70127 0.90013
 C2359 C 0.79688 0.70715 0.91300
 C2360 C 0.79183 0.71204 0.92402
 C2361 C 0.78586 0.71765 0.93697
 C2362 C 0.78073 0.72232 0.94805
 C2363 C 0.80622 0.19428 0.38954
 C2364 C 0.80126 0.19945 0.40049
 C2365 C 0.79557 0.20555 0.41334
 C2366 C 0.79077 0.21076 0.42433
 C2367 C 0.78515 0.21678 0.43725
 C2368 C 0.78031 0.22179 0.44832
 C2369 C 0.69303 0.30357 0.38965
 C2370 C 0.69780 0.29829 0.40062
 C2371 C 0.70342 0.29212 0.41348
 C2372 C 0.70828 0.28692 0.42446
 C2373 C 0.71407 0.28096 0.43733
 C2374 C 0.71913 0.27605 0.44836
 C2375 C 0.69168 0.80191 0.88933
 C2376 C 0.69649 0.79658 0.90027
 C2377 C 0.70227 0.79050 0.91309
 C2378 C 0.70732 0.78547 0.92405
 C2379 C 0.71338 0.77979 0.93692
 C2380 C 0.71865 0.77511 0.94795
 C2381 C 0.19497 0.30466 0.88895
 C2382 C 0.20008 0.29963 0.89988
 C2383 C 0.20597 0.29376 0.91275
 C2384 C 0.21095 0.28878 0.92377
 C2385 C 0.21673 0.28298 0.93671
 C2386 C 0.22167 0.27808 0.94778
 C2387 C 0.19402 0.80469 0.38902
 C2388 C 0.19889 0.79944 0.39997
 C2389 C 0.20451 0.79328 0.41282
 C2390 C 0.20930 0.78806 0.42381
 C2391 C 0.21492 0.78204 0.43672
 C2392 C 0.21980 0.77703 0.44778
 C2393 C 0.69300 0.69641 0.61091
 C2394 C 0.69780 0.70176 0.59997
 C2395 C 0.70347 0.70793 0.58714
 C2396 C 0.70837 0.71305 0.57613
 C2397 C 0.71418 0.71885 0.56319
 C2398 C 0.71923 0.72359 0.55209
 C2399 C 0.69508 0.19363 0.10997
 C2400 C 0.70016 0.19860 0.09898
 C2401 C 0.70607 0.20444 0.08610
 C2402 C 0.71108 0.20943 0.07509
 C2403 C 0.71690 0.21529 0.06218
 C2404 C 0.72183 0.22027 0.05113
 C2405 C 0.19681 0.69260 0.11161
 C2406 C 0.20207 0.69744 0.10064
 C2407 C 0.20808 0.70318 0.08775
 C2408 C 0.21306 0.70815 0.07672
 C2409 C 0.21873 0.71405 0.06375
 C2410 C 0.22342 0.71916 0.05265
 C2411 C 0.19705 0.19161 0.61138
 C2412 C 0.20232 0.19644 0.60042
 C2413 C 0.20834 0.20219 0.58757
 C2414 C 0.21336 0.20719 0.57657
 C2415 C 0.21907 0.21314 0.56366
 C2416 C 0.22381 0.21829 0.55260
   
