data_POSCAR
  _audit_creation_date              2014-09-24
  _audit_creation_method            'ToBaCCo'
  _symmetry_space_group_name_H-M    'P1'
  _symmetry_Int_Tables_number       1
  _symmetry_cell_setting            triclinic
  loop_
  _symmetry_equiv_pos_as_xyz
 x,y,z
_cell_length_a 55.4384
_cell_length_b 61.3857
_cell_length_c 51.1645
_cell_angle_alpha 90.602800
_cell_angle_beta 89.471800
_cell_angle_gamma 90.932400
loop_
  _atom_site_label
  _atom_site_type_symbol
  _atom_site_fract_x
  _atom_site_fract_y
  _atom_site_fract_z
N1 N 0.18160 0.21358 0.24434
 N2 N 0.18528 0.19268 0.24721
 C3 C 0.17165 0.18523 0.26721
 C4 C 0.15859 0.20244 0.27746
 C5 C 0.16547 0.22019 0.26238
 H6 H 0.17111 0.16848 0.27350
 H7 H 0.15923 0.23672 0.26421
 Cu8 Cu 0.20743 0.17713 0.22462
 Cu9 Cu 0.19712 0.23035 0.21669
 Cu10 Cu 0.24446 0.20566 0.18430
 N11 N 0.23689 0.16508 0.21059
 N12 N 0.25205 0.17639 0.19597
 C13 C 0.27146 0.16410 0.19052
 C14 C 0.26797 0.14401 0.20217
 C15 C 0.24588 0.14527 0.21472
 H16 H 0.28676 0.16926 0.17871
 H17 H 0.23728 0.13288 0.22664
 N18 N 0.23318 0.23506 0.17559
 N19 N 0.21507 0.24440 0.18800
 C20 C 0.21036 0.26346 0.17653
 C21 C 0.22620 0.26637 0.15571
 C22 C 0.24049 0.24798 0.15583
 H23 H 0.19583 0.27399 0.18238
 H24 H 0.25457 0.24383 0.14202
 H25 H 0.20780 0.20512 0.19147
 H26 H 0.22812 0.21181 0.21974
 N27 N 0.68611 0.72207 0.74405
 N28 N 0.69723 0.70875 0.75962
 C29 C 0.68413 0.70608 0.78161
 C30 C 0.66349 0.71836 0.77974
 C31 C 0.66543 0.72836 0.75559
 H32 H 0.68899 0.69544 0.79734
 H33 H 0.65238 0.73871 0.74654
 Cu34 Cu 0.72630 0.69432 0.74857
 Cu35 Cu 0.69840 0.72857 0.70914
 Cu36 Cu 0.75613 0.71012 0.69477
 N37 N 0.74946 0.67566 0.73144
 N38 N 0.76223 0.68208 0.71108
 C39 C 0.77730 0.66601 0.70384
 C40 C 0.77313 0.64853 0.72028
 C41 C 0.75539 0.65523 0.73749
 H42 H 0.78949 0.66662 0.68722
 H43 H 0.74732 0.64589 0.75321
 N44 N 0.73983 0.73228 0.67391
 N45 N 0.71774 0.73889 0.67906
 C46 C 0.71153 0.75364 0.66115
 C47 C 0.73055 0.75638 0.64369
 C48 C 0.74820 0.74252 0.65245
 H49 H 0.69434 0.76167 0.66081
 H50 H 0.76587 0.74004 0.64394
 H51 H 0.72141 0.70252 0.70252
 H52 H 0.73316 0.72648 0.72143
 N53 N 0.33785 0.79012 0.71663
 N54 N 0.33660 0.81088 0.72285
 C55 C 0.35491 0.81639 0.73872
 C56 C 0.36827 0.79798 0.74304
 C57 C 0.35691 0.78155 0.72872
 H58 H 0.35738 0.83226 0.74779
 H59 H 0.36184 0.76459 0.72755
 Cu60 Cu 0.30924 0.82790 0.71318
 Cu61 Cu 0.31369 0.77593 0.69452
 Cu62 Cu 0.26991 0.80946 0.66877
 N63 N 0.27699 0.83920 0.71146
 N64 N 0.26157 0.83285 0.69350
 C65 C 0.24118 0.84440 0.69647
 C66 C 0.24391 0.85836 0.71797
 C67 C 0.26699 0.85443 0.72683
 H68 H 0.22545 0.84230 0.68431
 H69 H 0.27635 0.86240 0.74279
 N70 N 0.27667 0.78006 0.65467
 N71 N 0.29303 0.76731 0.66481
 C72 C 0.29421 0.74884 0.65052
 C73 C 0.27775 0.74986 0.63041
 C74 C 0.26683 0.76990 0.63377
 H75 H 0.30646 0.73575 0.65432
 H76 H 0.25323 0.77685 0.62151
 H77 H 0.30710 0.80420 0.67471
 H78 H 0.28455 0.79647 0.70042
 N79 N 0.82918 0.26844 0.27170
 N80 N 0.82119 0.28562 0.28430
 C81 C 0.83627 0.29083 0.30387
 C82 C 0.85490 0.27597 0.30379
 C83 C 0.84959 0.26189 0.28301
 H84 H 0.83368 0.30452 0.31698
 H85 H 0.85981 0.24809 0.27616
 Cu86 Cu 0.79217 0.29987 0.27364
 Cu87 Cu 0.81222 0.25623 0.24162
 Cu88 Cu 0.77296 0.29208 0.21213
 N89 N 0.77133 0.32029 0.25722
 N90 N 0.76420 0.31784 0.23295
 C91 C 0.75108 0.33529 0.22648
 C92 C 0.75011 0.34938 0.24795
 C93 C 0.76324 0.33918 0.26700
 H94 H 0.74302 0.33755 0.20756
 H95 H 0.76739 0.34522 0.28637
 N96 N 0.78407 0.26476 0.19512
 N97 N 0.79876 0.25118 0.20659
 C98 C 0.80256 0.23399 0.19068
 C99 C 0.78957 0.23665 0.16800
 C100 C 0.77803 0.25639 0.17155
 H101 H 0.81368 0.22034 0.19554
 H102 H 0.76602 0.26406 0.15804
 H103 H 0.80545 0.28753 0.23078
 H104 H 0.77871 0.27158 0.24253
 N105 N 0.81209 0.73923 0.26626
 N106 N 0.81063 0.72078 0.25308
 C107 C 0.82878 0.72021 0.23536
 C108 C 0.84238 0.73938 0.23755
 C109 C 0.83112 0.75096 0.25748
 H110 H 0.83160 0.70695 0.22167
 H111 H 0.83619 0.76686 0.26502
 Cu112 Cu 0.78487 0.69935 0.25988
 Cu113 Cu 0.78897 0.74725 0.29333
 Cu114 Cu 0.73893 0.71377 0.29990
 N115 N 0.75508 0.68191 0.26251
 N116 N 0.73691 0.68846 0.27711
 C117 C 0.71855 0.67401 0.27514
 C118 C 0.72551 0.65728 0.25867
 C119 C 0.74892 0.66272 0.25103
 H120 H 0.70165 0.67512 0.28574
 H121 H 0.76046 0.65347 0.23804
 N122 N 0.74408 0.73993 0.32157
 N123 N 0.76342 0.75256 0.31950
 C124 C 0.76211 0.76859 0.33763
 C125 C 0.74087 0.76588 0.35188
 C126 C 0.72995 0.74751 0.34102
 H127 H 0.77579 0.78111 0.34041
 H128 H 0.71304 0.74003 0.34694
 H129 H 0.77629 0.71637 0.30222
 H130 H 0.76170 0.73057 0.27431
 N131 N 0.31304 0.20122 -0.23563
 N132 N 0.30947 0.18103 -0.24400
 C133 C 0.32609 0.17645 -0.26258
 C134 C 0.34112 0.19461 -0.26599
 C135 C 0.33208 0.20996 -0.24847
 H136 H 0.32727 0.16088 -0.27250
 H137 H 0.33888 0.22629 -0.24499
 Cu138 Cu 0.28378 0.16170 -0.22966
 Cu139 Cu 0.29362 0.21488 -0.20758
 Cu140 Cu 0.25214 0.18230 -0.17941
 N141 N 0.25334 0.14835 -0.21791
 N142 N 0.24100 0.15667 -0.19828
 C143 C 0.22100 0.14452 -0.19410
 C144 C 0.22073 0.12743 -0.21194
 C145 C 0.24166 0.13033 -0.22673
 H146 H 0.20786 0.14774 -0.17886
 H147 H 0.24785 0.12026 -0.24283
 N148 N 0.25655 0.21222 -0.16823
 N149 N 0.27255 0.22515 -0.17944
 C150 C 0.27191 0.24486 -0.16763
 C151 C 0.25446 0.24421 -0.14800
 C152 C 0.24511 0.22316 -0.14906
 H153 H 0.28348 0.25851 -0.17282
 H154 H 0.23136 0.21607 -0.13653
 H155 H 0.29288 0.18238 -0.19865
 H156 H 0.26938 0.19148 -0.22172
 N157 N 0.67545 0.30404 -0.23444
 N158 N 0.68259 0.32127 -0.24763
 C159 C 0.66714 0.32450 -0.26731
 C160 C 0.64923 0.30834 -0.26660
 C161 C 0.65526 0.29568 -0.24528
 H162 H 0.66904 0.33759 -0.28117
 H163 H 0.64572 0.28154 -0.23783
 Cu164 Cu 0.71140 0.33787 -0.23768
 Cu165 Cu 0.69234 0.29421 -0.20347
 Cu166 Cu 0.75039 0.31507 -0.19740
 N167 N 0.73871 0.35453 -0.22351
 N168 N 0.75363 0.34536 -0.20728
 C169 C 0.77100 0.35976 -0.20049
 C170 C 0.76690 0.37909 -0.21314
 C171 C 0.74630 0.37519 -0.22778
 H172 H 0.78591 0.35619 -0.18781
 H173 H 0.73756 0.38650 -0.24055
 N174 N 0.73874 0.28937 -0.17851
 N175 N 0.71639 0.28179 -0.17977
 C176 C 0.71368 0.26544 -0.16252
 C177 C 0.73539 0.26283 -0.14966
 C178 C 0.75082 0.27824 -0.16054
 H179 H 0.69695 0.25661 -0.15903
 H180 H 0.76933 0.28170 -0.15527
 H181 H 0.71462 0.32103 -0.19497
 H182 H 0.72332 0.30206 -0.22207
 N183 N 0.16559 0.75852 0.27131
 N184 N 0.16738 0.77755 0.25961
 C185 C 0.15048 0.77842 0.24092
 C186 C 0.13729 0.75900 0.24078
 C187 C 0.14753 0.74679 0.26034
 H188 H 0.14775 0.79237 0.22868
 H189 H 0.14189 0.73074 0.26665
 Cu190 Cu 0.19034 0.80080 0.27076
 Cu191 Cu 0.18619 0.75053 0.30096
 Cu192 Cu 0.21711 0.79232 0.32816
 N193 N 0.21395 0.82154 0.28546
 N194 N 0.22312 0.81864 0.30870
 C195 C 0.23822 0.83526 0.31453
 C196 C 0.23898 0.84951 0.29365
 C197 C 0.22320 0.84017 0.27548
 H198 H 0.24875 0.83612 0.33218
 H199 H 0.21864 0.84638 0.25650
 N200 N 0.22056 0.76285 0.34024
 N201 N 0.20860 0.74635 0.32977
 C202 C 0.21543 0.72784 0.34139
 C203 C 0.23282 0.73314 0.35987
 C204 C 0.23547 0.75553 0.35858
 H205 H 0.20879 0.71171 0.33624
 H206 H 0.24752 0.76582 0.36996
 H207 H 0.18045 0.78389 0.30429
 H208 H 0.20844 0.77496 0.28661
 N209 N 0.50589 0.41564 0.47535
 N210 N 0.48848 0.42011 0.49208
 C211 C 0.48655 0.40391 0.50955
 C212 C 0.50368 0.38839 0.50347
 C213 C 0.51563 0.39644 0.48159
 H214 H 0.47371 0.40352 0.52558
 H215 H 0.53008 0.38880 0.47072
 Cu216 Cu 0.46949 0.44634 0.48871
 Cu217 Cu 0.51368 0.43484 0.44615
 Cu218 Cu 0.49434 0.48791 0.45562
 N219 N 0.45332 0.47416 0.48628
 N220 N 0.46293 0.49031 0.47288
 C221 C 0.44823 0.50754 0.47429
 C222 C 0.42829 0.50190 0.48945
 C223 C 0.43221 0.48058 0.49677
 H224 H 0.45198 0.52310 0.46525
 H225 H 0.42042 0.47044 0.50861
 N226 N 0.52007 0.48003 0.43054
 N227 N 0.52652 0.45972 0.42600
 C228 C 0.54315 0.45949 0.40665
 C229 C 0.54749 0.48070 0.39871
 C230 C 0.53258 0.49329 0.41435
 H231 H 0.55169 0.44497 0.39913
 H232 H 0.53040 0.51074 0.41339
 H233 H 0.50827 0.45951 0.47173
 H234 H 0.48502 0.45688 0.44572
 N235 N -0.05708 -0.07044 0.99083
 N236 N -0.07547 -0.06463 1.00555
 C237 C -0.08058 -0.08069 1.02262
 C238 C -0.06451 -0.09752 1.01841
 C239 C -0.04988 -0.09032 0.99800
 H240 H -0.09477 -0.08005 1.03720
 H241 H -0.03509 -0.09888 0.98890
 Cu242 Cu -0.09075 -0.03654 1.00087
 Cu243 Cu -0.04361 -0.05178 0.96351
 Cu244 Cu -0.07029 -0.00165 0.95527
 N245 N -0.10541 -0.00814 0.99635
 N246 N -0.09735 0.00531 0.97833
 C247 C -0.11075 0.02339 0.97879
 C248 C -0.12823 0.02130 0.99818
 C249 C -0.12421 0.00103 1.00896
 H250 H -0.10791 0.03708 0.96595
 H251 H -0.13453 -0.00663 1.02445
 N252 N -0.04273 -0.01157 0.93384
 N253 N -0.03257 -0.03064 0.93693
 C254 C -0.01447 -0.03267 0.91934
 C255 C -0.01310 -0.01397 0.90434
 C256 C -0.03137 -0.00099 0.91422
 H257 H -0.00321 -0.04680 0.91756
 H258 H -0.03621 0.01497 0.90755
 H259 H -0.05371 -0.02265 0.98054
 H260 H -0.07486 -0.03512 0.95626
 N261 N 1.05287 0.58445 0.98016
 N262 N 1.07378 0.58152 0.99137
 C263 C 1.07790 0.59781 1.00864
 C264 C 1.05856 0.61187 1.00830
 C265 C 1.04302 0.60277 0.98989
 H266 H 1.09387 0.59922 1.02053
 H267 H 1.02575 0.60888 0.98401
 Cu268 Cu 1.09393 0.55681 0.98263
 Cu269 Cu 1.04030 0.56445 0.95348
 Cu270 Cu 1.07187 0.51689 0.94378
 N271 N 1.10891 0.52841 0.98040
 N272 N 1.09989 0.51270 0.96565
 C273 C 1.11390 0.49509 0.96731
 C274 C 1.13287 0.50002 0.98390
 C275 C 1.12910 0.52136 0.99184
 H276 H 1.11102 0.48009 0.95645
 H277 H 1.14027 0.53110 1.00482
 N278 N 1.04318 0.52411 0.92346
 N279 N 1.03081 0.54207 0.92732
 C280 C 1.01298 0.54271 0.90959
 C281 C 1.01444 0.52439 0.89364
 C282 C 1.03376 0.51300 0.90308
 H283 H 1.00062 0.55601 0.90753
 H284 H 1.04078 0.49793 0.89524
 H285 H 1.05654 0.53835 0.97063
 H286 H 1.07240 0.55076 0.94177
 N287 N 0.48765 0.07965 0.47993
 N288 N 0.50572 0.07614 0.49573
 C289 C 0.50756 0.09287 0.51288
 C290 C 0.48970 0.10771 0.50761
 C291 C 0.47737 0.09868 0.48656
 H292 H 0.52090 0.09416 0.52811
 H293 H 0.46242 0.10568 0.47636
 Cu294 Cu 0.52541 0.05024 0.49201
 Cu295 Cu 0.47964 0.05994 0.45094
 Cu296 Cu 0.51507 0.01425 0.44353
 N297 N 0.54431 0.02380 0.48843
 N298 N 0.54010 0.00994 0.46922
 C299 C 0.55554 -0.00663 0.47065
 C300 C 0.57043 -0.00310 0.49192
 C301 C 0.56269 0.01642 0.50282
 H302 H 0.55576 -0.02031 0.45720
 H303 H 0.57013 0.02477 0.51969
 N304 N 0.48888 0.02116 0.41950
 N305 N 0.47470 0.03807 0.42273
 C306 C 0.45851 0.03808 0.40318
 C307 C 0.46302 0.02050 0.38676
 C308 C 0.48235 0.01019 0.39773
 H309 H 0.44501 0.05035 0.40048
 H310 H 0.49101 -0.00429 0.39030
 H311 H 0.49281 0.03236 0.46788
 H312 H 0.51387 0.04801 0.44615
 N313 N -0.06603 0.08233 0.54824
 N314 N -0.08695 0.08010 0.53660
 C315 C -0.08791 0.09409 0.51668
 C316 C -0.06643 0.10597 0.51571
 C317 C -0.05296 0.09802 0.53619
 H318 H -0.10321 0.09536 0.50389
 H319 H -0.03508 0.10324 0.54206
 Cu320 Cu -0.11152 0.05962 0.54860
 Cu321 Cu -0.05797 0.06452 0.57820
 Cu322 Cu -0.09048 0.01578 0.57881
 N323 N -0.13179 0.03411 0.55447
 N324 N -0.12333 0.01694 0.56616
 C325 C -0.14012 0.00094 0.56578
 C326 C -0.16029 0.00841 0.55303
 C327 C -0.15434 0.02965 0.54623
 H328 H -0.13748 -0.01510 0.57369
 H329 H -0.16505 0.04063 0.53494
 N330 N -0.06051 0.02054 0.59847
 N331 N -0.04835 0.03920 0.59873
 C332 C -0.02929 0.03744 0.61463
 C333 C -0.02956 0.01666 0.62504
 C334 C -0.04966 0.00646 0.61432
 H335 H -0.01639 0.05044 0.61852
 H336 H -0.05603 -0.00999 0.61783
 H337 H -0.07416 0.04074 0.55730
 H338 H -0.09063 0.04822 0.58799
 N339 N 0.49501 0.56331 -0.01871
 N340 N 0.48005 0.55479 -0.03594
 C341 C 0.47805 0.56855 -0.05609
 C342 C 0.49229 0.58678 -0.05099
 C343 C 0.50279 0.58291 -0.02711
 H344 H 0.46611 0.56603 -0.07248
 H345 H 0.51481 0.59373 -0.01642
 Cu346 Cu 0.46229 0.52790 -0.02925
 Cu347 Cu 0.50248 0.54890 0.01382
 Cu348 Cu 0.46415 0.50657 0.03103
 N349 N 0.43797 0.50717 -0.01712
 N350 N 0.43863 0.49920 0.00657
 C351 C 0.41969 0.48560 0.01007
 C352 C 0.40630 0.48494 -0.01267
 C353 C 0.41849 0.49892 -0.02954
 H354 H 0.41593 0.47701 0.02801
 H355 H 0.41368 0.50281 -0.04936
 N356 N 0.49125 0.51635 0.05292
 N357 N 0.50641 0.53209 0.04599
 C358 C 0.52363 0.53424 0.06427
 C359 C 0.51891 0.51925 0.08374
 C360 C 0.49824 0.50822 0.07590
 H361 H 0.53840 0.54595 0.06359
 H362 H 0.48935 0.49485 0.08588
 H363 H 0.49026 0.51766 0.00475
 H364 H 0.46727 0.53782 0.01632
 N365 N 0.53051 -0.07402 0.00654
 N366 N 0.54914 -0.06750 -0.00755
 C367 C 0.55625 -0.08389 -0.02329
 C368 C 0.54115 -0.10170 -0.01900
 C369 C 0.52499 -0.09481 0.00009
 H370 H 0.57093 -0.08270 -0.03728
 H371 H 0.51016 -0.10411 0.00846
 Cu372 Cu 0.56209 -0.03817 -0.00464
 Cu373 Cu 0.51403 -0.05453 0.03089
 Cu374 Cu 0.53637 -0.00132 0.03485
 N375 N 0.57957 -0.01234 0.00698
 N376 N 0.56944 0.00232 0.02217
 C377 C 0.58520 0.01892 0.02616
 C378 C 0.60649 0.01426 0.01290
 C379 C 0.60217 -0.00577 0.00097
 H380 H 0.58139 0.03322 0.03790
 H381 H 0.61429 -0.01471 -0.01168
 N382 N 0.50761 -0.01157 0.05435
 N383 N 0.49985 -0.03202 0.05382
 C384 C 0.48062 -0.03402 0.06992
 C385 C 0.47594 -0.01386 0.08098
 C386 C 0.49340 0.00001 0.07064
 H387 H 0.47035 -0.04892 0.07293
 H388 H 0.49583 0.01717 0.07501
 H389 H 0.52231 -0.02650 0.01143
 H390 H 0.54332 -0.03377 0.03807
 N391 N 1.06610 0.40903 0.53142
 N392 N 1.08883 0.41030 0.52409
 C393 C 1.09440 0.39244 0.51003
 C394 C 1.07401 0.37912 0.50834
 C395 C 1.05639 0.39024 0.52228
 H396 H 1.11190 0.38974 0.50124
 H397 H 1.03769 0.38546 0.52490
 Cu398 Cu 1.10880 0.43564 0.53202
 Cu399 Cu 1.05057 0.43253 0.55079
 Cu400 Cu 1.08331 0.48092 0.55623
 N401 N 1.12544 0.46359 0.53098
 N402 N 1.11558 0.48121 0.54085
 C403 C 1.13104 0.49814 0.53796
 C404 C 1.15160 0.49076 0.52536
 C405 C 1.14737 0.46873 0.52113
 H406 H 1.12739 0.51469 0.54407
 H407 H 1.15939 0.45728 0.51179
 N408 N 1.05044 0.47712 0.57058
 N409 N 1.03832 0.45845 0.56933
 C410 C 1.01731 0.46055 0.58243
 C411 C 1.01604 0.48160 0.59214
 C412 C 1.03729 0.49168 0.58419
 H413 H 1.00393 0.44770 0.58485
 H414 H 1.04311 0.50814 0.58890
 H415 H 1.07154 0.45579 0.53204
 H416 H 1.08085 0.44827 0.56578
 Si417 Si 0.34106 -0.01267 0.23081
 Si418 Si 0.11760 -0.01740 0.74960
 Si419 Si 0.65524 0.49699 0.22567
 Si420 Si 0.88512 0.51155 0.74110
 Si421 Si 0.25893 0.37135 -0.00631
 Si422 Si 0.73682 0.14337 -0.00013
 Si423 Si 0.28454 0.61512 0.49771
 Si424 Si 0.71274 0.88247 0.50447
 Si425 Si 0.01257 0.23634 0.40762
 Si426 Si -0.00817 0.75410 0.10479
 Si427 Si 0.49594 0.25033 0.62862
 Si428 Si 0.49871 0.74992 0.88115
 C429 C 0.12556 0.21987 0.30343
 C430 C 0.10799 0.21948 0.32322
 C431 C 0.10514 0.20092 0.33912
 C432 C 0.12020 0.18306 0.33494
 C433 C 0.13770 0.18354 0.31504
 C434 C 0.14051 0.20193 0.29901
 C435 C 0.08719 0.20050 0.35870
 C436 C 0.07199 0.21839 0.36235
 C437 C 0.07507 0.23694 0.34634
 C438 C 0.09305 0.23739 0.32703
 C439 C 0.05988 0.25474 0.34959
 C440 C 0.04159 0.25416 0.36834
 C441 C 0.03837 0.23596 0.38438
 C442 C 0.05355 0.21804 0.38143
 H443 H 0.12719 0.23412 0.29124
 H444 H 0.11837 0.16867 0.34693
 H445 H 0.14901 0.16950 0.31231
 H446 H 0.08491 0.18624 0.37087
 H447 H 0.09526 0.25161 0.31477
 H448 H 0.06196 0.26902 0.33744
 H449 H 0.02981 0.26801 0.37027
 H450 H 0.05080 0.20383 0.39354
 C451 C 0.62531 0.73519 0.79622
 C452 C 0.60524 0.73538 0.81310
 C453 C 0.60269 0.71929 0.83255
 C454 C 0.62041 0.70346 0.83497
 C455 C 0.64032 0.70336 0.81806
 C456 C 0.64289 0.71909 0.79838
 C457 C 0.58241 0.71917 0.84911
 C458 C 0.56460 0.73493 0.84641
 C459 C 0.56730 0.75117 0.82716
 C460 C 0.58760 0.75132 0.81066
 C461 C 0.54961 0.76703 0.82475
 C462 C 0.52927 0.76663 0.84101
 C463 C 0.52614 0.75030 0.85976
 C464 C 0.54407 0.73466 0.86264
 H465 H 0.62713 0.74760 0.78141
 H466 H 0.61877 0.69101 0.84977
 H467 H 0.65341 0.69065 0.82018
 H468 H 0.58040 0.70675 0.86393
 H469 H 0.58959 0.76373 0.79581
 H470 H 0.55150 0.77974 0.81030
 H471 H 0.51615 0.77925 0.83888
 H472 H 0.54228 0.72236 0.87755
 C473 C 0.39273 0.77647 0.77415
 C474 C 0.41111 0.77518 0.79272
 C475 C 0.42585 0.79369 0.79808
 C476 C 0.42187 0.81319 0.78493
 C477 C 0.40330 0.81443 0.76681
 C478 C 0.38859 0.79615 0.76128
 C479 C 0.44428 0.79247 0.81653
 C480 C 0.44817 0.77297 0.82973
 C481 C 0.43324 0.75454 0.82469
 C482 C 0.41481 0.75574 0.80619
 C483 C 0.43707 0.73519 0.83824
 C484 C 0.45603 0.73389 0.85593
 C485 C 0.47157 0.75183 0.86013
 C486 C 0.46698 0.77154 0.84768
 H487 H 0.38126 0.76237 0.77028
 H488 H 0.43299 0.82752 0.78879
 H489 H 0.40050 0.82973 0.75703
 H490 H 0.45568 0.80663 0.82049
 H491 H 0.40342 0.74157 0.80224
 H492 H 0.42557 0.72100 0.83496
 H493 H 0.45848 0.71875 0.86597
 H494 H 0.47811 0.78580 0.85183
 C495 C -0.10819 0.25875 0.31877
 C496 C -0.08844 0.25820 0.33565
 C497 C -0.08533 0.27467 0.35487
 C498 C -0.10213 0.29137 0.35694
 C499 C -0.12186 0.29176 0.34019
 C500 C -0.12522 0.27550 0.32078
 C501 C -0.06557 0.27411 0.37178
 C502 C -0.04902 0.25711 0.36985
 C503 C -0.05226 0.24058 0.35065
 C504 C -0.07185 0.24129 0.33362
 C505 C -0.03590 0.22350 0.34883
 C506 C -0.01663 0.22266 0.36603
 C507 C -0.01337 0.23886 0.38526
 C508 C -0.02938 0.25625 0.38694
 H509 H -0.11016 0.24592 0.30427
 H510 H -0.10006 0.30413 0.37158
 H511 H -0.13429 0.30502 0.34259
 H512 H -0.06318 0.28677 0.38652
 H513 H -0.07426 0.22860 0.31891
 H514 H -0.03808 0.21072 0.33422
 H515 H -0.00427 0.20921 0.36444
 H516 H -0.02672 0.26898 0.40144
 C517 C -0.12558 0.73222 0.20333
 C518 C -0.10537 0.73894 0.18847
 C519 C -0.09544 0.76010 0.19211
 C520 C -0.10589 0.77417 0.21055
 C521 C -0.12598 0.76740 0.22522
 C522 C -0.13612 0.74638 0.22185
 C523 C -0.07529 0.76689 0.17726
 C524 C -0.06494 0.75277 0.15872
 C525 C -0.07489 0.73159 0.15512
 C526 C -0.09497 0.72481 0.17001
 C527 C -0.06454 0.71747 0.13668
 C528 C -0.04467 0.72427 0.12177
 C529 C -0.03485 0.74535 0.12486
 C530 C -0.04483 0.75946 0.14365
 H531 H -0.13295 0.71596 0.20042
 H532 H -0.09856 0.79046 0.21361
 H533 H -0.13352 0.77884 0.23912
 H534 H -0.06773 0.78314 0.18009
 H535 H -0.10253 0.70855 0.16717
 H536 H -0.07180 0.70113 0.13379
 H537 H -0.03702 0.71283 0.10795
 H538 H -0.03702 0.77561 0.14645
 C539 C 0.37548 0.21624 0.71726
 C540 C 0.39567 0.21861 0.70073
 C541 C 0.40199 0.20153 0.68342
 C542 C 0.38801 0.18231 0.68308
 C543 C 0.36797 0.18000 0.69971
 C544 C 0.36131 0.19692 0.71709
 C545 C 0.42214 0.20396 0.66677
 C546 C 0.43604 0.22331 0.66727
 C547 C 0.42974 0.24031 0.68480
 C548 C 0.40963 0.23786 0.70136
 C549 C 0.44366 0.25956 0.68548
 C550 C 0.46347 0.26209 0.66873
 C551 C 0.46960 0.24556 0.65089
 C552 C 0.45608 0.22601 0.65048
 H553 H 0.37116 0.22961 0.73032
 H554 H 0.39257 0.16902 0.66993
 H555 H 0.35775 0.16487 0.69869
 H556 H 0.42695 0.19087 0.65340
 H557 H 0.40483 0.25096 0.71473
 H558 H 0.43917 0.27269 0.69889
 H559 H 0.47391 0.27715 0.66949
 H560 H 0.46101 0.21295 0.63723
 C561 C 0.61383 0.28712 0.71852
 C562 C 0.59434 0.28406 0.70144
 C563 C 0.58997 0.29961 0.68196
 C564 C 0.60531 0.31786 0.67979
 C565 C 0.62484 0.32069 0.69665
 C566 C 0.62945 0.30543 0.71636
 C567 C 0.57046 0.29660 0.66490
 C568 C 0.55542 0.27805 0.66685
 C569 C 0.55997 0.26240 0.68623
 C570 C 0.57926 0.26557 0.70347
 C571 C 0.54517 0.24374 0.68799
 C572 C 0.52618 0.24050 0.67060
 C573 C 0.52156 0.25585 0.65125
 C574 C 0.53603 0.27477 0.64963
 H575 H 0.61681 0.27493 0.73321
 H576 H 0.60227 0.32995 0.66495
 H577 H 0.63611 0.33506 0.69415
 H578 H 0.56710 0.30859 0.64998
 H579 H 0.58264 0.25355 0.71835
 H580 H 0.54837 0.23159 0.70272
 H581 H 0.51508 0.22588 0.67221
 H582 H 0.53240 0.28687 0.63504
 C583 C 0.10585 0.76847 0.20771
 C584 C 0.08589 0.76293 0.19213
 C585 C 0.07597 0.74159 0.19286
 C586 C 0.08625 0.72616 0.20921
 C587 C 0.10615 0.73178 0.22464
 C588 C 0.11622 0.75299 0.22414
 C589 C 0.05603 0.73604 0.17720
 C590 C 0.04603 0.75154 0.16064
 C591 C 0.05603 0.77288 0.15999
 C592 C 0.07578 0.77845 0.17577
 C593 C 0.04619 0.78835 0.14343
 C594 C 0.02691 0.78270 0.12727
 C595 C 0.01711 0.76148 0.12730
 C596 C 0.02636 0.74607 0.14450
 H597 H 0.11312 0.78492 0.20703
 H598 H 0.07894 0.70970 0.21002
 H599 H 0.11365 0.71938 0.23687
 H600 H 0.04845 0.71964 0.17774
 H601 H 0.08339 0.79484 0.17518
 H602 H 0.05351 0.80482 0.14284
 H603 H 0.01978 0.79509 0.11478
 H604 H 0.01852 0.72978 0.14497
 C605 C 0.27404 0.10405 0.20394
 C606 C 0.28882 0.08597 0.20653
 C607 C 0.31414 0.08888 0.20762
 C608 C 0.32421 0.10990 0.20497
 C609 C 0.30927 0.12789 0.20214
 C610 C 0.28409 0.12512 0.20223
 C611 C 0.32882 0.07082 0.21173
 C612 C 0.31843 0.04993 0.21453
 C613 C 0.29314 0.04706 0.21249
 C614 C 0.27853 0.06508 0.20857
 C615 C 0.28276 0.02625 0.21496
 C616 C 0.29720 0.00839 0.21972
 C617 C 0.32228 0.01100 0.22205
 C618 C 0.33280 0.03186 0.21971
 H619 H 0.25461 0.10175 0.20353
 H620 H 0.34358 0.11246 0.20555
 H621 H 0.31735 0.14403 0.20085
 H622 H 0.34823 0.07304 0.21303
 H623 H 0.25910 0.06288 0.20750
 H624 H 0.26341 0.02381 0.21355
 H625 H 0.28849 -0.00732 0.22215
 H626 H 0.35206 0.03409 0.22239
 C627 C 0.80884 0.62418 0.71707
 C628 C 0.81887 0.60339 0.71937
 C629 C 0.80344 0.58501 0.72278
 C630 C 0.77842 0.58764 0.72387
 C631 C 0.76871 0.60837 0.72251
 C632 C 0.78377 0.62674 0.71928
 C633 C 0.81321 0.56434 0.72586
 C634 C 0.83824 0.56180 0.72646
 C635 C 0.85380 0.58007 0.72327
 C636 C 0.84401 0.60074 0.71933
 C637 C 0.87884 0.57736 0.72486
 C638 C 0.88826 0.55682 0.72988
 C639 C 0.87286 0.53863 0.73266
 C640 C 0.84787 0.54127 0.73102
 H641 H 0.82049 0.63842 0.71491
 H642 H 0.76638 0.57373 0.72651
 H643 H 0.74934 0.61011 0.72414
 H644 H 0.80132 0.55031 0.72855
 H645 H 0.85590 0.61481 0.71700
 H646 H 0.89108 0.59119 0.72278
 H647 H 0.90757 0.55519 0.73192
 H648 H 0.83571 0.52757 0.73408
 C649 C 0.78530 0.41214 0.76588
 C650 C 0.80199 0.42961 0.76613
 C651 C 0.81533 0.43430 0.78902
 C652 C 0.81168 0.42150 0.81126
 C653 C 0.79554 0.40383 0.81061
 C654 C 0.78239 0.39888 0.78791
 C655 C 0.83253 0.45132 0.78913
 C656 C 0.83705 0.46336 0.76643
 C657 C 0.82377 0.45861 0.74350
 C658 C 0.80612 0.44198 0.74361
 C659 C 0.82876 0.47026 0.72063
 C660 C 0.84697 0.48621 0.72034
 C661 C 0.86009 0.49110 0.74300
 C662 C 0.85506 0.47972 0.76606
 H663 H 0.77542 0.40827 0.74820
 H664 H 0.82171 0.42486 0.82898
 H665 H 0.79341 0.39393 0.82790
 H666 H 0.84279 0.45483 0.80667
 H667 H 0.79604 0.43831 0.72598
 H668 H 0.81888 0.46677 0.70285
 H669 H 0.85089 0.49473 0.70232
 H670 H 0.86544 0.48321 0.78349
 C671 C 0.25607 -0.12062 0.26725
 C672 C 0.27147 -0.10229 0.26489
 C673 C 0.28394 -0.09420 0.28702
 C674 C 0.28100 -0.10461 0.31102
 C675 C 0.26612 -0.12305 0.31313
 C676 C 0.25345 -0.13145 0.29134
 C677 C 0.29928 -0.07591 0.28483
 C678 C 0.30265 -0.06574 0.26065
 C679 C 0.29049 -0.07400 0.23836
 C680 C 0.27486 -0.09211 0.24065
 C681 C 0.29427 -0.06401 0.21412
 C682 C 0.30972 -0.04590 0.21205
 C683 C 0.32137 -0.03734 0.23419
 C684 C 0.31802 -0.04744 0.25841
 H685 H 0.24679 -0.12669 0.25007
 H686 H 0.29038 -0.09859 0.32820
 H687 H 0.26446 -0.13044 0.33216
 H688 H 0.30871 -0.06968 0.30190
 H689 H 0.26548 -0.09836 0.22357
 H690 H 0.28525 -0.07016 0.19679
 H691 H 0.31234 -0.03834 0.19318
 H692 H 0.32723 -0.04109 0.27550
 C693 C 0.20673 -0.12040 0.71492
 C694 C 0.19171 -0.10393 0.72491
 C695 C 0.19708 -0.09401 0.74929
 C696 C 0.21709 -0.10066 0.76331
 C697 C 0.23224 -0.11649 0.75302
 C698 C 0.22757 -0.12646 0.72856
 C699 C 0.18277 -0.07718 0.75908
 C700 C 0.16353 -0.06955 0.74446
 C701 C 0.15797 -0.07933 0.72007
 C702 C 0.17189 -0.09671 0.71059
 C703 C 0.13901 -0.07107 0.70529
 C704 C 0.12627 -0.05291 0.71427
 C705 C 0.13204 -0.04305 0.73832
 C706 C 0.15035 -0.05171 0.75352
 H707 H 0.20267 -0.12767 0.69606
 H708 H 0.22134 -0.09330 0.78209
 H709 H 0.24751 -0.12094 0.76467
 H710 H 0.18708 -0.06955 0.77773
 H711 H 0.16775 -0.10414 0.69180
 H712 H 0.13446 -0.07829 0.68653
 H713 H 0.11226 -0.04640 0.70218
 H714 H 0.15498 -0.04395 0.77199
 C715 C 0.72908 0.38145 0.22843
 C716 C 0.71847 0.40204 0.23106
 C717 C 0.71736 0.41227 0.25594
 C718 C 0.72664 0.40181 0.27769
 C719 C 0.73697 0.38138 0.27497
 C720 C 0.73848 0.37096 0.25037
 C721 C 0.70674 0.43269 0.25884
 C722 C 0.69676 0.44294 0.23727
 C723 C 0.69770 0.43280 0.21234
 C724 C 0.70877 0.41249 0.20933
 C725 C 0.68704 0.44298 0.19100
 C726 C 0.67499 0.46265 0.19453
 C727 C 0.67392 0.47262 0.21929
 C728 C 0.68518 0.46290 0.24047
 H729 H 0.73007 0.37374 0.20932
 H730 H 0.72579 0.40937 0.29691
 H731 H 0.74364 0.37381 0.29239
 H732 H 0.70587 0.44044 0.27798
 H733 H 0.70947 0.40468 0.19023
 H734 H 0.68748 0.43545 0.17176
 H735 H 0.66616 0.46977 0.17799
 H736 H 0.68411 0.47049 0.25967
 C737 C 0.72182 0.61722 0.24864
 C738 C 0.70750 0.59829 0.24514
 C739 C 0.68207 0.59990 0.24454
 C740 C 0.67140 0.62031 0.24744
 C741 C 0.68569 0.63892 0.25148
 C742 C 0.71095 0.63757 0.25228
 C743 C 0.66765 0.58109 0.24135
 C744 C 0.67827 0.56060 0.23902
 C745 C 0.70367 0.55890 0.23978
 C746 C 0.71813 0.57775 0.24273
 C747 C 0.71417 0.53833 0.23741
 C748 C 0.69968 0.51969 0.23399
 C749 C 0.67450 0.52130 0.23311
 C750 C 0.66387 0.54177 0.23572
 H751 H 0.74128 0.61602 0.24952
 H752 H 0.65196 0.62184 0.24700
 H753 H 0.67694 0.65444 0.25404
 H754 H 0.64817 0.58240 0.24084
 H755 H 0.73761 0.57643 0.24328
 H756 H 0.73359 0.53669 0.23789
 H757 H 0.70829 0.50410 0.23163
 H758 H 0.64442 0.54306 0.23466
 C759 C 0.20742 0.08994 0.77356
 C760 C 0.18993 0.07314 0.77231
 C761 C 0.16677 0.07636 0.78338
 C762 C 0.16152 0.09629 0.79553
 C763 C 0.17903 0.11285 0.79684
 C764 C 0.20215 0.10987 0.78595
 C765 C 0.14922 0.05967 0.78210
 C766 C 0.15450 0.03977 0.76981
 C767 C 0.17768 0.03651 0.75882
 C768 C 0.19526 0.05317 0.76019
 C769 C 0.18278 0.01673 0.74622
 C770 C 0.16501 0.00046 0.74417
 C771 C 0.14196 0.00348 0.75509
 C772 C 0.13681 0.02319 0.76792
 H773 H 0.22521 0.08733 0.76527
 H774 H 0.14385 0.09908 0.80405
 H775 H 0.17430 0.12808 0.80623
 H776 H 0.13144 0.06222 0.79051
 H777 H 0.21300 0.05065 0.75168
 H778 H 0.20037 0.01401 0.73748
 H779 H 0.16927 -0.01420 0.73334
 H780 H 0.11896 0.02587 0.77589
 C781 C 0.24284 0.28428 0.11524
 C782 C 0.24250 0.30073 0.09642
 C783 C 0.22551 0.31759 0.09859
 C784 C 0.20931 0.31778 0.11975
 C785 C 0.20975 0.30134 0.13841
 C786 C 0.22638 0.28429 0.13633
 C787 C 0.22499 0.33393 0.07961
 C788 C 0.24135 0.33366 0.05852
 C789 C 0.25846 0.31683 0.05652
 C790 C 0.25887 0.30048 0.07540
 C791 C 0.27501 0.31666 0.03570
 C792 C 0.27474 0.33303 0.01707
 C793 C 0.25781 0.34972 0.01879
 C794 C 0.24105 0.35000 0.03947
 H795 H 0.25589 0.27145 0.11321
 H796 H 0.19620 0.33061 0.12182
 H797 H 0.19686 0.30206 0.15436
 H798 H 0.21191 0.34684 0.08127
 H799 H 0.27196 0.28758 0.07375
 H800 H 0.28828 0.30394 0.03391
 H801 H 0.28791 0.33273 0.00131
 H802 H 0.22811 0.36300 0.04094
 C803 C 0.71498 0.78774 0.61790
 C804 C 0.71622 0.80163 0.59626
 C805 C 0.73434 0.79854 0.57702
 C806 C 0.75080 0.78164 0.57966
 C807 C 0.74951 0.76799 0.60129
 C808 C 0.73168 0.77088 0.62067
 C809 C 0.73592 0.81252 0.55558
 C810 C 0.71985 0.82977 0.55332
 C811 C 0.70164 0.83290 0.57244
 C812 C 0.69984 0.81870 0.59374
 C813 C 0.68582 0.85039 0.57006
 C814 C 0.68846 0.86498 0.54933
 C815 C 0.70681 0.86215 0.53065
 C816 C 0.72210 0.84426 0.53247
 H817 H 0.70124 0.79037 0.63272
 H818 H 0.76476 0.77904 0.56505
 H819 H 0.76245 0.75506 0.60266
 H820 H 0.74992 0.81019 0.54090
 H821 H 0.68594 0.82112 0.60849
 H822 H 0.67169 0.85301 0.58448
 H823 H 0.67640 0.87858 0.54824
 H824 H 0.73613 0.84179 0.51791
 C825 C 0.74380 0.79883 0.38143
 C826 C 0.73545 0.81134 0.40269
 C827 C 0.71488 0.80426 0.41698
 C828 C 0.70300 0.78487 0.40974
 C829 C 0.71143 0.77250 0.38862
 C830 C 0.73192 0.77927 0.37421
 C831 C 0.70657 0.81660 0.43833
 C832 C 0.71864 0.83591 0.44569
 C833 C 0.73920 0.84305 0.43140
 C834 C 0.74743 0.83075 0.40994
 C835 C 0.75126 0.86234 0.43891
 C836 C 0.74321 0.87429 0.46057
 C837 C 0.72299 0.86716 0.47495
 C838 C 0.71061 0.84811 0.46730
 H839 H 0.75950 0.80445 0.37057
 H840 H 0.68722 0.77919 0.42049
 H841 H 0.70185 0.75754 0.38385
 H842 H 0.69081 0.81112 0.44930
 H843 H 0.76323 0.83622 0.39902
 H844 H 0.76699 0.86810 0.42815
 H845 H 0.75283 0.88911 0.46600
 H846 H 0.69490 0.84266 0.47837
 C847 C 0.26290 0.28025 -0.12575
 C848 C 0.25784 0.29574 -0.10614
 C849 C 0.23756 0.29263 -0.08955
 C850 C 0.22233 0.27448 -0.09330
 C851 C 0.22755 0.25912 -0.11273
 C852 C 0.24809 0.26156 -0.12884
 C853 C 0.23313 0.30737 -0.06906
 C854 C 0.24888 0.32509 -0.06471
 C855 C 0.26884 0.32857 -0.08162
 C856 C 0.27311 0.31396 -0.10237
 C857 C 0.28469 0.34617 -0.07686
 C858 C 0.28125 0.35973 -0.05505
 C859 C 0.26170 0.35612 -0.03793
 C860 C 0.24549 0.33887 -0.04304
 H861 H 0.27879 0.28246 -0.13794
 H862 H 0.20660 0.27196 -0.08091
 H863 H 0.21548 0.24521 -0.11486
 H864 H 0.21778 0.30475 -0.05610
 H865 H 0.28865 0.31642 -0.11509
 H866 H 0.30015 0.34906 -0.08954
 H867 H 0.29441 0.37249 -0.05132
 H868 H 0.23100 0.33530 -0.02937
 C869 C 0.72537 0.23040 -0.12158
 C870 C 0.73044 0.21684 -0.10040
 C871 C 0.75109 0.22115 -0.08503
 C872 C 0.76636 0.23877 -0.09113
 C873 C 0.76124 0.25212 -0.11216
 C874 C 0.74072 0.24817 -0.12762
 C875 C 0.75615 0.20789 -0.06372
 C876 C 0.74082 0.19031 -0.05749
 C877 C 0.72024 0.18581 -0.07289
 C878 C 0.71517 0.19910 -0.09427
 C879 C 0.70501 0.16814 -0.06651
 C880 C 0.71003 0.15519 -0.04497
 C881 C 0.73034 0.15972 -0.02957
 C882 C 0.74571 0.17723 -0.03595
 H883 H 0.70959 0.22702 -0.13335
 H884 H 0.78222 0.24232 -0.07952
 H885 H 0.77330 0.26575 -0.11595
 H886 H 0.77195 0.21131 -0.05192
 H887 H 0.69934 0.19571 -0.10602
 H888 H 0.68918 0.16440 -0.07809
 H889 H 0.69799 0.14169 -0.04042
 H890 H 0.76138 0.18074 -0.02401
 C891 C 0.23664 0.69791 0.38392
 C892 C 0.24874 0.68474 0.40172
 C893 C 0.27095 0.69201 0.41239
 C894 C 0.28083 0.71213 0.40485
 C895 C 0.26854 0.72524 0.38748
 C896 C 0.24624 0.71843 0.37708
 C897 C 0.28268 0.67933 0.43087
 C898 C 0.27223 0.65966 0.43931
 C899 C 0.25012 0.65227 0.42852
 C900 C 0.23866 0.66472 0.40958
 C901 C 0.23949 0.63283 0.43744
 C902 C 0.25020 0.62122 0.45746
 C903 C 0.27194 0.62862 0.46852
 C904 C 0.28311 0.64764 0.45905
 H905 H 0.21942 0.69252 0.37614
 H906 H 0.29788 0.71791 0.41272
 H907 H 0.27660 0.74078 0.38222
 H908 H 0.29959 0.68504 0.43919
 H909 H 0.22160 0.65912 0.40150
 H910 H 0.22255 0.62691 0.42944
 H911 H 0.24110 0.60672 0.46452
 H912 H 0.29976 0.65353 0.46778
 C913 C 0.29092 0.71746 0.60395
 C914 C 0.28696 0.70161 0.58443
 C915 C 0.26526 0.70157 0.57015
 C916 C 0.24805 0.71756 0.57545
 C917 C 0.25218 0.73334 0.59488
 C918 C 0.27355 0.73338 0.60945
 C919 C 0.26108 0.68552 0.55092
 C920 C 0.27834 0.66951 0.54580
 C921 C 0.30019 0.66972 0.55987
 C922 C 0.30436 0.68577 0.57908
 C923 C 0.31744 0.65375 0.55458
 C924 C 0.31298 0.63754 0.53577
 C925 C 0.29119 0.63703 0.52211
 C926 C 0.27404 0.65316 0.52698
 H927 H 0.30767 0.71743 0.61468
 H928 H 0.23133 0.71779 0.56467
 H929 H 0.23844 0.74530 0.59873
 H930 H 0.24436 0.68540 0.54006
 H931 H 0.32106 0.68585 0.58997
 H932 H 0.33431 0.65371 0.56510
 H933 H 0.32647 0.62530 0.53219
 H934 H 0.25723 0.65282 0.51630
 C935 C 0.76950 0.22319 0.12685
 C936 C 0.76730 0.20807 0.10616
 C937 C 0.78370 0.19073 0.10391
 C938 C 0.80214 0.18895 0.12225
 C939 C 0.80416 0.20400 0.14281
 C940 C 0.78780 0.22120 0.14550
 C941 C 0.78130 0.17539 0.08350
 C942 C 0.76265 0.17713 0.06533
 C943 C 0.74638 0.19460 0.06750
 C944 C 0.74882 0.20994 0.08785
 C945 C 0.72789 0.19645 0.04924
 C946 C 0.72535 0.18105 0.02919
 C947 C 0.74107 0.16342 0.02712
 C948 C 0.75992 0.16166 0.04505
 H949 H 0.75663 0.23622 0.12861
 H950 H 0.81495 0.17584 0.12078
 H951 H 0.81867 0.20211 0.15655
 H952 H 0.79385 0.16205 0.08187
 H953 H 0.73625 0.22326 0.08950
 H954 H 0.71541 0.20984 0.05043
 H955 H 0.71116 0.18311 0.01508
 H956 H 0.77239 0.14834 0.04335
 C957 C 0.48999 0.35840 0.53337
 C958 C 0.49412 0.33905 0.54689
 C959 C 0.51667 0.32876 0.54450
 C960 C 0.53456 0.33788 0.52822
 C961 C 0.53026 0.35710 0.51469
 C962 C 0.50803 0.36768 0.51728
 C963 C 0.52099 0.30966 0.55856
 C964 C 0.50303 0.30077 0.57501
 C965 C 0.48035 0.31094 0.57697
 C966 C 0.47603 0.32994 0.56289
 C967 C 0.46234 0.30206 0.59320
 C968 C 0.46692 0.28366 0.60800
 C969 C 0.48960 0.27387 0.60701
 C970 C 0.50741 0.28210 0.58989
 H971 H 0.47263 0.36614 0.53529
 H972 H 0.55196 0.33022 0.52608
 H973 H 0.54453 0.36389 0.50254
 H974 H 0.53837 0.30188 0.55691
 H975 H 0.45868 0.33777 0.56462
 H976 H 0.44477 0.30948 0.59466
 H977 H 0.45259 0.27727 0.62030
 H978 H 0.52479 0.27430 0.58866
 C979 C -0.04325 0.86773 0.02881
 C980 C -0.04144 0.84823 0.04274
 C981 C -0.05963 0.84229 0.06095
 C982 C -0.07943 0.85593 0.06474
 C983 C -0.08107 0.87537 0.05087
 C984 C -0.06298 0.88158 0.03282
 C985 C -0.05761 0.82297 0.07523
 C986 C -0.03745 0.80963 0.07172
 C987 C -0.01934 0.81559 0.05334
 C988 C -0.02152 0.83474 0.03890
 C989 C 0.00089 0.80245 0.04996
 C990 C 0.00351 0.78387 0.06506
 C991 C -0.01407 0.77801 0.08368
 C992 C -0.03480 0.79068 0.08662
 H993 H -0.02902 0.87217 0.01516
 H994 H -0.09360 0.85164 0.07857
 H995 H -0.09660 0.88545 0.05433
 H996 H -0.07152 0.81848 0.08931
 H997 H -0.00753 0.83929 0.02493
 H998 H 0.01490 0.80674 0.03594
 H999 H 0.01959 0.77425 0.06255
 H1000 H -0.04856 0.78616 0.10078
 C1001 C 0.03526 0.64549 0.02036
 C1002 C 0.03186 0.66427 0.03582
 C1003 C 0.04869 0.66984 0.05547
 C1004 C 0.06869 0.65662 0.05919
 C1005 C 0.07191 0.63793 0.04382
 C1006 C 0.05522 0.63203 0.02430
 C1007 C 0.04513 0.68837 0.07127
 C1008 C 0.02475 0.70128 0.06789
 C1009 C 0.00799 0.69578 0.04809
 C1010 C 0.01173 0.67741 0.03210
 C1011 C -0.01245 0.70857 0.04488
 C1012 C -0.01662 0.72627 0.06157
 C1013 C -0.00042 0.73155 0.08164
 C1014 C 0.02057 0.71934 0.08434
 H1015 H 0.02224 0.64141 0.00540
 H1016 H 0.08179 0.66063 0.07416
 H1017 H 0.08745 0.62806 0.04752
 H1018 H 0.05799 0.69254 0.08644
 H1019 H -0.00120 0.67317 0.01702
 H1020 H -0.02544 0.70466 0.02977
 H1021 H -0.03283 0.73564 0.05914
 H1022 H 0.03338 0.72349 0.09946
 C1023 C 0.50301 0.13861 0.53695
 C1024 C 0.49877 0.15845 0.54998
 C1025 C 0.47633 0.16876 0.54728
 C1026 C 0.45861 0.15909 0.53135
 C1027 C 0.46300 0.13935 0.51839
 C1028 C 0.48517 0.12882 0.52114
 C1029 C 0.47192 0.18843 0.56067
 C1030 C 0.48966 0.19785 0.57685
 C1031 C 0.51219 0.18758 0.57929
 C1032 C 0.51663 0.16804 0.56579
 C1033 C 0.52990 0.19693 0.59544
 C1034 C 0.52516 0.21593 0.60964
 C1035 C 0.50265 0.22592 0.60798
 C1036 C 0.48517 0.21715 0.59101
 H1037 H 0.52032 0.13092 0.53906
 H1038 H 0.44129 0.16674 0.52903
 H1039 H 0.44884 0.13221 0.50649
 H1040 H 0.45464 0.19625 0.55873
 H1041 H 0.53388 0.16017 0.56782
 H1042 H 0.54733 0.18939 0.59735
 H1043 H 0.53916 0.22264 0.62204
 H1044 H 0.46789 0.22502 0.58942
 C1045 C -0.03636 0.13267 0.49627
 C1046 C -0.03052 0.14949 0.47873
 C1047 C -0.04840 0.15715 0.46173
 C1048 C -0.07162 0.14792 0.46237
 C1049 C -0.07728 0.13135 0.47984
 C1050 C -0.05985 0.12351 0.49704
 C1051 C -0.04298 0.17409 0.44450
 C1052 C -0.01994 0.18372 0.44413
 C1053 C -0.00186 0.17614 0.46090
 C1054 C -0.00723 0.15895 0.47805
 C1055 C 0.02107 0.18626 0.46050
 C1056 C 0.02579 0.20394 0.44399
 C1057 C 0.00778 0.21145 0.42745
 C1058 C -0.01498 0.20122 0.42758
 H1059 H -0.02263 0.12683 0.50923
 H1060 H -0.08550 0.15366 0.44948
 H1061 H -0.09554 0.12491 0.47989
 H1062 H -0.05681 0.17999 0.43160
 H1063 H 0.00655 0.15316 0.49107
 H1064 H 0.03517 0.18077 0.47327
 H1065 H 0.04333 0.21194 0.44440
 H1066 H -0.02926 0.20723 0.41547
 C1067 C 0.49658 0.62720 0.94622
 C1068 C 0.49708 0.64648 0.93177
 C1069 C 0.49566 0.64541 0.90419
 C1070 C 0.49334 0.62508 0.89162
 C1071 C 0.49221 0.60599 0.90624
 C1072 C 0.49395 0.60690 0.93358
 C1073 C 0.49627 0.66465 0.88968
 C1074 C 0.49760 0.68496 0.90244
 C1075 C 0.49850 0.68605 0.93004
 C1076 C 0.49853 0.66679 0.94451
 C1077 C 0.49925 0.70642 0.94269
 C1078 C 0.49897 0.72555 0.92815
 C1079 C 0.49816 0.72456 0.90078
 C1080 C 0.49783 0.70424 0.88802
 H1081 H 0.49752 0.62803 0.96737
 H1082 H 0.49213 0.62396 0.87052
 H1083 H 0.49021 0.59048 0.89616
 H1084 H 0.49534 0.66384 0.86852
 H1085 H 0.49937 0.66762 0.96568
 H1086 H 0.49996 0.70757 0.96382
 H1087 H 0.49962 0.74105 0.93838
 H1088 H 0.49777 0.70346 0.86684
 C1089 C 0.52082 0.86354 0.96625
 C1090 C 0.52079 0.84404 0.95166
 C1091 C 0.54187 0.83785 0.93788
 C1092 C 0.56263 0.85111 0.93914
 C1093 C 0.56243 0.87056 0.95348
 C1094 C 0.54152 0.87708 0.96698
 C1095 C 0.54179 0.81870 0.92277
 C1096 C 0.52082 0.80574 0.92100
 C1097 C 0.49975 0.81178 0.93491
 C1098 C 0.49991 0.83085 0.95026
 C1099 C 0.47882 0.79872 0.93298
 C1100 C 0.47869 0.78004 0.91711
 C1101 C 0.49943 0.77420 0.90304
 C1102 C 0.52052 0.78695 0.90523
 H1103 H 0.50450 0.86841 0.97639
 H1104 H 0.57896 0.84655 0.92879
 H1105 H 0.57873 0.88048 0.95396
 H1106 H 0.55794 0.81404 0.91210
 H1107 H 0.48372 0.83557 0.96081
 H1108 H 0.46253 0.80305 0.94353
 H1109 H 0.46232 0.77025 0.91563
 H1110 H 0.53669 0.78237 0.89463
 C1111 C 0.04971 0.34604 0.49435
 C1112 C 0.04693 0.32697 0.47918
 C1113 C 0.06611 0.32007 0.46285
 C1114 C 0.08775 0.33209 0.46219
 C1115 C 0.09033 0.35104 0.47722
 C1116 C 0.07134 0.35839 0.49330
 C1117 C 0.06331 0.30140 0.44716
 C1118 C 0.04150 0.28959 0.44739
 C1119 C 0.02235 0.29619 0.46393
 C1120 C 0.02521 0.31484 0.47982
 C1121 C 0.00065 0.28406 0.46411
 C1122 C -0.00217 0.26589 0.44758
 C1123 C 0.01651 0.25982 0.43051
 C1124 C 0.03850 0.27138 0.43100
 H1125 H 0.03492 0.35126 0.50673
 H1126 H 0.10262 0.32698 0.44981
 H1127 H 0.10722 0.36000 0.47582
 H1128 H 0.07800 0.29625 0.43450
 H1129 H 0.01048 0.32003 0.49239
 H1130 H -0.01416 0.28871 0.47683
 H1131 H -0.01905 0.25676 0.44785
 H1132 H 0.05337 0.26636 0.41862
 C1133 C 0.40075 0.53298 0.48045
 C1134 C 0.38062 0.54568 0.48687
 C1135 C 0.36723 0.54123 0.50992
 C1136 C 0.37401 0.52405 0.52595
 C1137 C 0.39379 0.51128 0.51920
 C1138 C 0.40739 0.51562 0.49647
 C1139 C 0.34716 0.55389 0.51648
 C1140 C 0.34002 0.57072 0.50005
 C1141 C 0.35319 0.57500 0.47681
 C1142 C 0.37352 0.56258 0.47048
 C1143 C 0.34564 0.59153 0.46015
 C1144 C 0.32515 0.60359 0.46637
 C1145 C 0.31214 0.59953 0.48947
 C1146 C 0.31972 0.58318 0.50634
 H1147 H 0.41091 0.53634 0.46271
 H1148 H 0.36394 0.52039 0.54366
 H1149 H 0.39862 0.49815 0.53200
 H1150 H 0.33696 0.55050 0.53421
 H1151 H 0.38366 0.56592 0.45269
 H1152 H 0.35544 0.59499 0.44222
 H1153 H 0.31956 0.61609 0.45308
 H1154 H 0.30963 0.57999 0.52418
 C1155 C 0.84664 0.05378 -0.01201
 C1156 C 0.82819 0.06841 -0.00573
 C1157 C 0.81555 0.06646 0.01826
 C1158 C 0.82164 0.04991 0.03557
 C1159 C 0.83992 0.03531 0.02909
 C1160 C 0.85259 0.03702 0.00524
 C1161 C 0.79685 0.08090 0.02439
 C1162 C 0.79042 0.09706 0.00663
 C1163 C 0.80311 0.09894 -0.01738
 C1164 C 0.82200 0.08474 -0.02331
 C1165 C 0.79638 0.11475 -0.03534
 C1166 C 0.77695 0.12829 -0.02990
 C1167 C 0.76415 0.12654 -0.00622
 C1168 C 0.77115 0.11106 0.01215
 H1169 H 0.85598 0.05526 -0.03060
 H1170 H 0.81218 0.04818 0.05408
 H1171 H 0.84419 0.02274 0.04290
 H1172 H 0.78709 0.07935 0.04276
 H1173 H 0.83164 0.08619 -0.04177
 H1174 H 0.80586 0.11637 -0.05386
 H1175 H 0.77183 0.13988 -0.04450
 H1176 H 0.76111 0.10947 0.03033
 C1177 C 0.62830 0.05026 0.01722
 C1178 C 0.64907 0.06340 0.01407
 C1179 C 0.67066 0.05407 0.00462
 C1180 C 0.67117 0.03175 -0.00125
 C1181 C 0.65040 0.01883 0.00177
 C1182 C 0.62871 0.02793 0.01082
 C1183 C 0.69130 0.06722 0.00090
 C1184 C 0.69060 0.08963 0.00634
 C1185 C 0.66905 0.09894 0.01594
 C1186 C 0.64846 0.08577 0.01985
 C1187 C 0.66837 0.12138 0.02111
 C1188 C 0.68875 0.13450 0.01661
 C1189 C 0.71020 0.12542 0.00711
 C1190 C 0.71101 0.10295 0.00195
 H1191 H 0.61173 0.05759 0.02405
 H1192 H 0.68758 0.02430 -0.00840
 H1193 H 0.65142 0.00165 -0.00298
 H1194 H 0.70782 0.06005 -0.00648
 H1195 H 0.63191 0.09296 0.02707
 H1196 H 0.65199 0.12883 0.02837
 H1197 H 0.68753 0.15179 0.02034
 H1198 H 0.72726 0.09583 -0.00603
 C1199 C 0.17921 0.52289 0.53156
 C1200 C 0.19910 0.53576 0.52388
 C1201 C 0.21301 0.52957 0.50179
 C1202 C 0.20714 0.51027 0.48823
 C1203 C 0.18742 0.49742 0.49619
 C1204 C 0.17311 0.50378 0.51766
 C1205 C 0.23233 0.54290 0.49347
 C1206 C 0.23792 0.56230 0.50701
 C1207 C 0.22441 0.56812 0.52954
 C1208 C 0.20511 0.55483 0.53783
 C1209 C 0.23021 0.58737 0.54322
 C1210 C 0.24872 0.60109 0.53423
 C1211 C 0.26158 0.59585 0.51135
 C1212 C 0.25649 0.57622 0.49811
 H1213 H 0.16853 0.52775 0.54842
 H1214 H 0.21765 0.50522 0.47133
 H1215 H 0.18304 0.48278 0.48513
 H1216 H 0.24279 0.53833 0.47631
 H1217 H 0.19456 0.55947 0.55491
 H1218 H 0.22020 0.59197 0.56065
 H1219 H 0.25255 0.61595 0.54500
 H1220 H 0.26659 0.57208 0.48055
 C1221 C 0.15160 0.46323 -0.01304
 C1222 C 0.17157 0.44998 -0.00883
 C1223 C 0.19388 0.45958 -0.00150
 C1224 C 0.19564 0.48222 0.00218
 C1225 C 0.17565 0.49529 -0.00195
 C1226 C 0.15356 0.48599 -0.00998
 C1227 C 0.21414 0.44648 0.00162
 C1228 C 0.21239 0.42388 -0.00259
 C1229 C 0.18992 0.41421 -0.00923
 C1230 C 0.16964 0.42730 -0.01225
 C1231 C 0.18819 0.39160 -0.01307
 C1232 C 0.20868 0.37878 -0.01127
 C1233 C 0.23125 0.38832 -0.00581
 C1234 C 0.23287 0.41083 -0.00078
 H1235 H 0.13459 0.45580 -0.01883
 H1236 H 0.21257 0.48985 0.00790
 H1237 H 0.17773 0.51275 0.00046
 H1238 H 0.23134 0.45390 0.00688
 H1239 H 0.15249 0.41989 -0.01767
 H1240 H 0.17105 0.38386 -0.01780
 H1241 H 0.20678 0.36143 -0.01440
 H1242 H 0.25001 0.41835 0.00420
 C1243 C 0.59949 0.96667 0.48363
 C1244 C 0.61836 0.95333 0.49137
 C1245 C 0.62850 0.95609 0.51644
 C1246 C 0.61951 0.97225 0.53332
 C1247 C 0.60070 0.98556 0.52540
 C1248 C 0.59045 0.98290 0.50050
 C1249 C 0.64754 0.94277 0.52408
 C1250 C 0.65667 0.92689 0.50681
 C1251 C 0.64644 0.92426 0.48171
 C1252 C 0.62731 0.93738 0.47423
 C1253 C 0.65573 0.90872 0.46429
 C1254 C 0.67524 0.89610 0.47140
 C1255 C 0.68564 0.89857 0.49616
 C1256 C 0.67610 0.91383 0.51395
 H1257 H 0.59214 0.96450 0.46423
 H1258 H 0.62703 0.97463 0.55262
 H1259 H 0.59407 0.99780 0.53891
 H1260 H 0.65539 0.94490 0.54330
 H1261 H 0.61955 0.93532 0.45496
 H1262 H 0.64811 0.90653 0.44499
 H1263 H 0.68222 0.88455 0.45727
 H1264 H 0.68423 0.91594 0.53302
 C1265 C 0.81789 0.97280 0.54699
 C1266 C 0.79768 0.96043 0.53936
 C1267 C 0.77682 0.97093 0.53056
 C1268 C 0.77658 0.99375 0.52969
 C1269 C 0.79692 1.00600 0.53721
 C1270 C 0.81779 0.99565 0.54586
 C1271 C 0.75669 0.95842 0.52261
 C1272 C 0.75733 0.93556 0.52325
 C1273 C 0.77830 0.92519 0.53210
 C1274 C 0.79827 0.93766 0.54016
 C1275 C 0.77913 0.90244 0.53251
 C1276 C 0.75938 0.89000 0.52424
 C1277 C 0.73838 0.90002 0.51565
 C1278 C 0.73745 0.92285 0.51500
 H1279 H 0.83385 0.96446 0.55324
 H1280 H 0.76075 1.00213 0.52304
 H1281 H 0.79624 1.02358 0.53628
 H1282 H 0.74066 0.96644 0.51580
 H1283 H 0.81434 0.92964 0.54686
 H1284 H 0.79513 0.89426 0.53906
 H1285 H 0.76074 0.87248 0.52438
 H1286 H 0.72158 0.93074 0.50777
 C1287 C 0.37684 0.45544 -0.00020
 C1288 C 0.35574 0.44312 -0.00443
 C1289 C 0.34137 0.44722 -0.02646
 C1290 C 0.34846 0.46367 -0.04387
 C1291 C 0.36957 0.47592 -0.03948
 C1292 C 0.38396 0.47196 -0.01759
 C1293 C 0.32027 0.43478 -0.03071
 C1294 C 0.31349 0.41824 -0.01323
 C1295 C 0.32793 0.41424 0.00880
 C1296 C 0.34890 0.42670 0.01307
 C1297 C 0.32120 0.39776 0.02625
 C1298 C 0.30050 0.38513 0.02179
 C1299 C 0.28624 0.38871 -0.00021
 C1300 C 0.29261 0.40551 -0.01748
 H1301 H 0.38776 0.45189 0.01660
 H1302 H 0.33768 0.46708 -0.06086
 H1303 H 0.37445 0.48859 -0.05317
 H1304 H 0.30923 0.43788 -0.04762
 H1305 H 0.35995 0.42358 0.02998
 H1306 H 0.33199 0.39458 0.04330
 H1307 H 0.29578 0.37259 0.03568
 H1308 H 0.28141 0.40851 -0.03428
 C1309 C 0.56928 0.47431 0.35633
 C1310 C 0.58455 0.48139 0.33599
 C1311 C 0.59513 0.50250 0.33707
 C1312 C 0.58983 0.51629 0.35832
 C1313 C 0.57422 0.50926 0.37826
 C1314 C 0.56394 0.48818 0.37754
 C1315 C 0.61066 0.50949 0.31685
 C1316 C 0.61536 0.49578 0.29531
 C1317 C 0.60429 0.47484 0.29406
 C1318 C 0.58918 0.46773 0.31447
 C1319 C 0.60844 0.46133 0.27232
 C1320 C 0.62343 0.46841 0.25200
 C1321 C 0.63478 0.48898 0.25316
 C1322 C 0.63081 0.50263 0.27490
 H1323 H 0.56117 0.45814 0.35537
 H1324 H 0.59769 0.53255 0.35948
 H1325 H 0.57045 0.52021 0.39446
 H1326 H 0.61891 0.52562 0.31778
 H1327 H 0.58089 0.45162 0.31351
 H1328 H 0.60003 0.44530 0.27098
 H1329 H 0.62628 0.45771 0.23533
 H1330 H 0.63954 0.51851 0.27592
 C1331 C 0.02112 -0.02431 0.87407
 C1332 C 0.03681 -0.01981 0.85300
 C1333 C 0.03537 0.00027 0.83990
 C1334 C 0.01836 0.01555 0.84821
 C1335 C 0.00280 0.01096 0.86915
 C1336 C 0.00385 -0.00903 0.88232
 C1337 C 0.05079 0.00470 0.81862
 C1338 C 0.06760 -0.01077 0.81016
 C1339 C 0.06909 -0.03084 0.82334
 C1340 C 0.05377 -0.03520 0.84470
 C1341 C 0.08564 -0.04639 0.81464
 C1342 C 0.10042 -0.04223 0.79295
 C1343 C 0.09920 -0.02234 0.77980
 C1344 C 0.08269 -0.00667 0.78848
 H1345 H 0.02236 -0.03980 0.88382
 H1346 H 0.01701 0.03105 0.83843
 H1347 H -0.01010 0.02317 0.87485
 H1348 H 0.04958 0.02009 0.80852
 H1349 H 0.05488 -0.05065 0.85469
 H1350 H 0.08692 -0.06191 0.82439
 H1351 H 0.11253 -0.05480 0.78643
 H1352 H 0.08108 0.00844 0.77794
 C1353 C 0.01031 0.01730 0.64781
 C1354 C 0.02655 0.00857 0.66560
 C1355 C 0.02003 -0.01035 0.67972
 C1356 C -0.00259 -0.02024 0.67569
 C1357 C -0.01864 -0.01148 0.65791
 C1358 C -0.01241 0.00738 0.64382
 C1359 C 0.03616 -0.01901 0.69768
 C1360 C 0.05873 -0.00896 0.70173
 C1361 C 0.06528 0.00991 0.68749
 C1362 C 0.04919 0.01852 0.66950
 C1363 C 0.08782 0.01995 0.69161
 C1364 C 0.10361 0.01158 0.70989
 C1365 C 0.09715 -0.00699 0.72425
 C1366 C 0.07480 -0.01733 0.71998
 H1367 H 0.01551 0.03170 0.63694
 H1368 H -0.00792 -0.03473 0.68636
 H1369 H -0.03605 -0.01940 0.65549
 H1370 H 0.03111 -0.03347 0.70857
 H1371 H 0.05422 0.03301 0.65866
 H1372 H 0.09316 0.03437 0.68082
 H1373 H 0.12085 0.01972 0.71271
 H1374 H 0.06982 -0.03169 0.73109
 C1375 C 0.55800 0.51995 0.10787
 C1376 C 0.57162 0.51537 0.13008
 C1377 C 0.56005 0.50646 0.15240
 C1378 C 0.53517 0.50215 0.15205
 C1379 C 0.52185 0.50639 0.12972
 C1380 C 0.53310 0.51530 0.10747
 C1381 C 0.57355 0.50177 0.17459
 C1382 C 0.59855 0.50551 0.17464
 C1383 C 0.61021 0.51421 0.15227
 C1384 C 0.59664 0.51925 0.13020
 C1385 C 0.63530 0.51759 0.15236
 C1386 C 0.64869 0.51228 0.17434
 C1387 C 0.63719 0.50365 0.19652
 C1388 C 0.61211 0.50048 0.19668
 H1389 H 0.56690 0.52658 0.09069
 H1390 H 0.52603 0.49532 0.16898
 H1391 H 0.50265 0.50285 0.12996
 H1392 H 0.56464 0.49499 0.19171
 H1393 H 0.60556 0.52596 0.11305
 H1394 H 0.64456 0.52424 0.13542
 H1395 H 0.66805 0.51494 0.17406
 H1396 H 0.60304 0.49401 0.21380
 C1397 C 0.44679 -0.02437 0.11641
 C1398 C 0.42818 -0.01933 0.13411
 C1399 C 0.41860 0.00189 0.13467
 C1400 C 0.42816 0.01779 0.11785
 C1401 C 0.44700 0.01273 0.10061
 C1402 C 0.45635 -0.00840 0.09960
 C1403 C 0.39980 0.00690 0.15215
 C1404 C 0.39084 -0.00889 0.16951
 C1405 C 0.40078 -0.02997 0.16930
 C1406 C 0.41918 -0.03513 0.15142
 C1407 C 0.39232 -0.04549 0.18722
 C1408 C 0.37436 -0.04011 0.20536
 C1409 C 0.36424 -0.01933 0.20554
 C1410 C 0.37234 -0.00383 0.18738
 H1411 H 0.45411 -0.04064 0.11606
 H1412 H 0.42111 0.03415 0.11807
 H1413 H 0.45398 0.02527 0.08775
 H1414 H 0.39237 0.02314 0.15247
 H1415 H 0.42669 -0.05134 0.15117
 H1416 H 0.39981 -0.06168 0.18745
 H1417 H 0.36845 -0.05222 0.21937
 H1418 H 0.36466 0.01221 0.18727
 C1419 C 0.98419 0.47747 0.62656
 C1420 C 0.96696 0.48632 0.64365
 C1421 C 0.96188 0.50880 0.64271
 C1422 C 0.97440 0.52207 0.62484
 C1423 C 0.99202 0.51322 0.60835
 C1424 C 0.99700 0.49087 0.60904
 C1425 C 0.94471 0.51768 0.65992
 C1426 C 0.93312 0.50448 0.67859
 C1427 C 0.93859 0.48207 0.67978
 C1428 C 0.95517 0.47308 0.66208
 C1429 C 0.92764 0.46905 0.69897
 C1430 C 0.91169 0.47818 0.71706
 C1431 C 0.90605 0.50033 0.71597
 C1432 C 0.91652 0.51339 0.69647
 H1433 H 0.98820 0.46027 0.62750
 H1434 H 0.97082 0.53935 0.62388
 H1435 H 1.00164 0.52381 0.59489
 H1436 H 0.94075 0.53491 0.65914
 H1437 H 0.95927 0.45589 0.66298
 H1438 H 0.93169 0.45189 0.70024
 H1439 H 0.90380 0.46789 0.73204
 H1440 H 0.91218 0.53046 0.69539
 C1441 C 0.97633 0.52619 0.86757
 C1442 C 0.96310 0.52129 0.84486
 C1443 C 0.97412 0.50956 0.82414
 C1444 C 0.99787 0.50250 0.82667
 C1445 C 1.01072 0.50712 0.84942
 C1446 C 1.00022 0.51913 0.86998
 C1447 C 0.96133 0.50514 0.80113
 C1448 C 0.93751 0.51206 0.79860
 C1449 C 0.92617 0.52327 0.81953
 C1450 C 0.93908 0.52791 0.84249
 C1451 C 0.90217 0.52980 0.81696
 C1452 C 0.88972 0.52562 0.79373
 C1453 C 0.90111 0.51500 0.77273
 C1454 C 0.92495 0.50813 0.77531
 H1455 H 0.96799 0.53528 0.88342
 H1456 H 1.00655 0.49346 0.81101
 H1457 H 1.02914 0.50167 0.85065
 H1458 H 0.96995 0.49638 0.78516
 H1459 H 0.93048 0.53673 0.85842
 H1460 H 0.89311 0.53832 0.83279
 H1461 H 0.87132 0.53105 0.79196
 H1462 H 0.93394 0.49998 0.75920
 C1463 C 0.42616 0.01819 0.35866
 C1464 C 0.41463 0.01160 0.33544
 C1465 C 0.42820 0.00166 0.31514
 C1466 C 0.45287 -0.00184 0.31854
 C1467 C 0.46403 0.00430 0.34186
 C1468 C 0.45086 0.01440 0.36208
 C1469 C 0.41692 -0.00476 0.29183
 C1470 C 0.39212 -0.00174 0.28863
 C1471 C 0.37839 0.00777 0.30907
 C1472 C 0.38976 0.01454 0.33227
 C1473 C 0.35349 0.01035 0.30591
 C1474 C 0.34237 0.00374 0.28266
 C1475 C 0.35598 -0.00537 0.26219
 C1476 C 0.38084 -0.00810 0.26526
 H1477 H 0.41583 0.02576 0.37428
 H1478 H 0.46351 -0.00946 0.30322
 H1479 H 0.48312 0.00138 0.34395
 H1480 H 0.42741 -0.01222 0.27623
 H1481 H 0.37926 0.02197 0.34787
 H1482 H 0.34263 0.01752 0.32137
 H1483 H 0.32315 0.00597 0.28053
 H1484 H 0.39147 -0.01512 0.24955
   
