data_POSCAR
  _audit_creation_date              2014-09-24
  _audit_creation_method            'ToBaCCo'
  _symmetry_space_group_name_H-M    'P1'
  _symmetry_Int_Tables_number       1
  _symmetry_cell_setting            triclinic
  loop_
  _symmetry_equiv_pos_as_xyz
 x,y,z
_cell_length_a 61.2103
_cell_length_b 61.2673
_cell_length_c 60.9268
_cell_angle_alpha 90.292000
_cell_angle_beta 90.477200
_cell_angle_gamma 90.015500
loop_
  _atom_site_label
  _atom_site_type_symbol
  _atom_site_fract_x
  _atom_site_fract_y
  _atom_site_fract_z
C1 C 0.14018 -0.02853 0.25442
 C2 C 0.13102 -0.00808 0.25937
 C3 C 0.12043 -0.00490 0.27948
 C4 C 0.11794 -0.02228 0.29405
 C5 C 0.12658 -0.04278 0.28869
 C6 C 0.13808 -0.04621 0.26902
 C7 C 0.13074 0.00947 0.24281
 C8 C 0.12126 0.00564 0.22206
 C9 C 0.11819 0.02284 0.20702
 C10 C 0.12577 0.04381 0.21302
 C11 C 0.13631 0.04752 0.23323
 C12 C 0.13845 0.03036 0.24820
 H13 H 0.14801 -0.03079 0.23869
 H14 H 0.11312 0.01078 0.28325
 H15 H 0.11482 -0.01046 0.21847
 H16 H 0.14607 0.03326 0.26408
 H17 H 0.12513 -0.05575 0.30060
 H18 H 0.12477 0.05714 0.20145
 C19 C 0.36363 -0.02953 0.74486
 C20 C 0.37282 -0.00932 0.73931
 C21 C 0.38288 -0.00681 0.71882
 C22 C 0.38451 -0.02457 0.70429
 C23 C 0.37546 -0.04472 0.71015
 C24 C 0.36476 -0.04725 0.73024
 C25 C 0.37266 0.00899 0.75516
 C26 C 0.38182 0.00640 0.77620
 C27 C 0.38350 0.02424 0.79090
 C28 C 0.37479 0.04451 0.78418
 C29 C 0.36483 0.04702 0.76353
 C30 C 0.36414 0.02927 0.74896
 H31 H 0.35565 -0.03146 0.76055
 H32 H 0.39022 0.00870 0.71459
 H33 H 0.38895 -0.00923 0.78035
 H34 H 0.35684 0.03118 0.73281
 H35 H 0.37631 -0.05838 0.69881
 H36 H 0.37444 0.05818 0.79549
 C37 C 0.86420 0.47138 0.24845
 C38 C 0.87313 0.49165 0.24268
 C39 C 0.88313 0.49409 0.22215
 C40 C 0.88496 0.47621 0.20780
 C41 C 0.87614 0.45601 0.21387
 C42 C 0.86552 0.45353 0.23400
 C43 C 0.87282 0.51009 0.25840
 C44 C 0.88211 0.50775 0.27942
 C45 C 0.88366 0.52570 0.29399
 C46 C 0.87481 0.54584 0.28716
 C47 C 0.86464 0.54808 0.26658
 C48 C 0.86398 0.53023 0.25214
 H49 H 0.85629 0.46949 0.26418
 H50 H 0.89027 0.50964 0.21776
 H51 H 0.88940 0.49221 0.28366
 H52 H 0.85648 0.53196 0.23606
 H53 H 0.87709 0.44228 0.20262
 H54 H 0.87443 0.55962 0.29835
 C55 C 0.63760 0.47146 0.75315
 C56 C 0.62821 0.49151 0.75903
 C57 C 0.61832 0.49385 0.77960
 C58 C 0.61697 0.47602 0.79386
 C59 C 0.62622 0.45597 0.78774
 C60 C 0.63694 0.45369 0.76758
 C61 C 0.62798 0.50978 0.74336
 C62 C 0.61805 0.50714 0.72267
 C63 C 0.61652 0.52480 0.70818
 C64 C 0.62563 0.54498 0.71426
 C65 C 0.63626 0.54762 0.73460
 C66 C 0.63711 0.53000 0.74923
 H67 H 0.64543 0.46973 0.73734
 H68 H 0.61087 0.50927 0.78411
 H69 H 0.61075 0.49160 0.71822
 H70 H 0.64496 0.53196 0.76513
 H71 H 0.62558 0.44233 0.79897
 H72 H 0.62499 0.55847 0.70283
 C73 C 0.24766 0.13217 1.02737
 C74 C 0.24134 0.12270 1.00731
 C75 C 0.22043 0.11353 1.00497
 C76 C 0.20605 0.11272 1.02298
 C77 C 0.21293 0.12227 1.04302
 C78 C 0.23342 0.13225 1.04521
 C79 C 0.25706 0.12207 0.98908
 C80 C 0.27753 0.11220 0.99225
 C81 C 0.29394 0.11372 0.97626
 C82 C 0.28923 0.12536 0.95690
 C83 C 0.26852 0.13451 0.95317
 C84 C 0.25237 0.13264 0.96924
 H85 H 0.26368 0.13957 1.02905
 H86 H 0.21611 0.10586 0.98948
 H87 H 0.28091 0.10430 1.00779
 H88 H 0.23658 0.14029 0.96675
 H89 H 0.20184 0.12329 1.05674
 H90 H 0.30124 0.12644 0.94399
 C91 C 0.75366 0.36374 1.03021
 C92 C 0.75769 0.37325 1.00969
 C93 C 0.77838 0.38193 1.00531
 C94 C 0.79518 0.38059 1.02090
 C95 C 0.79139 0.37012 1.04088
 C96 C 0.77060 0.36165 1.04600
 C97 C 0.74069 0.37353 0.99232
 C98 C 0.72029 0.38331 0.99601
 C99 C 0.70492 0.38560 0.97872
 C100 C 0.71031 0.37699 0.95790
 C101 C 0.73019 0.36626 0.95439
 C102 C 0.74538 0.36478 0.97159
 H103 H 0.73769 0.35676 1.03311
 H104 H 0.78141 0.38973 0.98969
 H105 H 0.71721 0.39042 1.01200
 H106 H 0.76097 0.35687 0.96881
 H107 H 0.80450 0.36992 1.05294
 H108 H 0.69852 0.37735 0.94455
 C109 C 0.25398 0.86477 0.52926
 C110 C 0.25800 0.87455 0.50894
 C111 C 0.27867 0.88341 0.50470
 C112 C 0.29578 0.88194 0.52027
 C113 C 0.29161 0.87113 0.54019
 C114 C 0.27080 0.86282 0.54488
 C115 C 0.24096 0.87453 0.49162
 C116 C 0.22033 0.88367 0.49557
 C117 C 0.20417 0.88348 0.47908
 C118 C 0.20877 0.87407 0.45859
 C119 C 0.22931 0.86486 0.45447
 C120 C 0.24533 0.86512 0.47106
 H121 H 0.23803 0.85789 0.53255
 H122 H 0.28151 0.89071 0.48882
 H123 H 0.21688 0.89094 0.51142
 H124 H 0.26122 0.85797 0.46798
 H125 H 0.30411 0.87023 0.55283
 H126 H 0.19634 0.87393 0.44581
 C127 C 0.74474 0.63458 0.52701
 C128 C 0.74054 0.62447 0.50672
 C129 C 0.72024 0.61458 0.50282
 C130 C 0.70419 0.61457 0.51917
 C131 C 0.70853 0.62487 0.53940
 C132 C 0.72876 0.63502 0.54339
 C133 C 0.75739 0.62469 0.48959
 C134 C 0.77784 0.61509 0.49364
 C135 C 0.79501 0.61716 0.47849
 C136 C 0.79111 0.62930 0.45926
 C137 C 0.77055 0.63843 0.45482
 C138 C 0.75362 0.63584 0.46989
 H139 H 0.76045 0.64229 0.52995
 H140 H 0.71699 0.60685 0.48708
 H141 H 0.78049 0.60687 0.50913
 H142 H 0.73788 0.64339 0.46680
 H143 H 0.69616 0.62503 0.55202
 H144 H 0.80366 0.63087 0.44694
 C145 C -0.03060 0.25265 0.13866
 C146 C -0.01049 0.25823 0.12935
 C147 C -0.00779 0.27891 0.11989
 C148 C -0.02538 0.29379 0.11861
 C149 C -0.04549 0.28764 0.12796
 C150 C -0.04809 0.26739 0.13825
 C151 C 0.00733 0.24197 0.12841
 C152 C 0.00366 0.22170 0.11820
 C153 C 0.02032 0.20582 0.11696
 C154 C 0.04086 0.21088 0.12641
 C155 C 0.04479 0.23121 0.13646
 C156 C 0.02794 0.24669 0.13742
 H157 H -0.03262 0.23679 0.14618
 H158 H 0.00766 0.28259 0.11219
 H159 H -0.01253 0.21828 0.11176
 H160 H 0.03086 0.26241 0.14515
 H161 H -0.05896 0.29907 0.12852
 H162 H 0.05424 0.19938 0.12539
 C163 C -0.02611 0.74413 0.36444
 C164 C -0.00573 0.73927 0.37402
 C165 C -0.00218 0.71861 0.38328
 C166 C -0.01910 0.70317 0.38355
 C167 C -0.03920 0.70806 0.37353
 C168 C -0.04277 0.72842 0.36376
 C169 C 0.01158 0.75605 0.37463
 C170 C 0.00725 0.77668 0.38374
 C171 C 0.02301 0.79326 0.38313
 C172 C 0.04310 0.78920 0.37303
 C173 C 0.04781 0.76854 0.36420
 C174 C 0.03209 0.75189 0.36532
 H175 H -0.02879 0.75995 0.35699
 H176 H 0.01332 0.71495 0.39116
 H177 H -0.00848 0.77987 0.39116
 H178 H 0.03544 0.73604 0.35811
 H179 H -0.05223 0.69607 0.37364
 H180 H 0.05531 0.80200 0.37248
 C181 C 0.47290 0.24770 0.86551
 C182 C 0.49308 0.24229 0.87515
 C183 C 0.49637 0.22131 0.88380
 C184 C 0.47928 0.20580 0.88361
 C185 C 0.45947 0.21145 0.87308
 C186 C 0.45626 0.23211 0.86393
 C187 C 0.51075 0.25869 0.87587
 C188 C 0.50718 0.27906 0.88590
 C189 C 0.52279 0.29592 0.88446
 C190 C 0.54208 0.29175 0.87267
 C191 C 0.54606 0.27127 0.86316
 C192 C 0.53048 0.25466 0.86504
 H193 H 0.47048 0.26373 0.85844
 H194 H 0.51181 0.21779 0.89182
 H195 H 0.49169 0.28195 0.89388
 H196 H 0.53320 0.23902 0.85712
 H197 H 0.44647 0.19957 0.87129
 H198 H 0.55472 0.30407 0.87160
 C199 C 0.46998 0.75444 0.64107
 C200 C 0.49048 0.75877 0.63183
 C201 C 0.49441 0.77914 0.62216
 C202 C 0.47780 0.79485 0.62115
 C203 C 0.45760 0.79056 0.63088
 C204 C 0.45363 0.77049 0.64105
 C205 C 0.50747 0.74169 0.63124
 C206 C 0.50303 0.72160 0.62103
 C207 C 0.51930 0.70556 0.61950
 C208 C 0.54008 0.70966 0.62853
 C209 C 0.54473 0.72971 0.63882
 C210 C 0.52833 0.74569 0.64009
 H211 H 0.46694 0.73877 0.64866
 H212 H 0.50996 0.78230 0.61440
 H213 H 0.48699 0.71858 0.61397
 H214 H 0.53183 0.76130 0.64781
 H215 H 0.44478 0.80277 0.63019
 H216 H 0.55270 0.69730 0.62736
 C217 C 0.86945 1.02829 0.75323
 C218 C 0.88011 1.00861 0.75772
 C219 C 0.88960 1.00522 0.77844
 C220 C 0.88852 1.02135 0.79504
 C221 C 0.87738 1.04100 0.79016
 C222 C 0.86783 1.04455 0.76940
 C223 C 0.88054 0.99115 0.74097
 C224 C 0.88975 0.99499 0.72034
 C225 C 0.88958 0.97870 0.70385
 C226 C 0.87981 0.95839 0.70879
 C227 C 0.87063 0.95439 0.72945
 C228 C 0.87114 0.97085 0.74547
 H229 H 0.86217 1.03082 0.73716
 H230 H 0.89706 0.98953 0.78165
 H231 H 0.89629 1.01106 0.71710
 H232 H 0.86408 0.96794 0.76145
 H233 H 0.87644 1.05396 0.80223
 H234 H 0.87975 0.94527 0.69685
 C235 C 0.36829 0.52914 0.25351
 C236 C 0.37791 0.50894 0.25820
 C237 C 0.38679 0.50516 0.27908
 C238 C 0.38628 0.52149 0.29531
 C239 C 0.37628 0.54161 0.29053
 C240 C 0.36713 0.54554 0.26966
 C241 C 0.37877 0.49175 0.24121
 C242 C 0.38900 0.49585 0.22119
 C243 C 0.39023 0.47954 0.20499
 C244 C 0.38060 0.45908 0.20889
 C245 C 0.37008 0.45482 0.22888
 C246 C 0.36946 0.47123 0.24504
 H247 H 0.36157 0.53200 0.23726
 H248 H 0.39418 0.48948 0.28265
 H249 H 0.39612 0.51177 0.21829
 H250 H 0.36169 0.46810 0.26063
 H251 H 0.37557 0.55417 0.30309
 H252 H 0.38131 0.44649 0.19637
 C253 C 0.63005 1.03124 0.24523
 C254 C 0.62130 1.01054 0.24071
 C255 C 0.61202 1.00617 0.22005
 C256 C 0.61142 1.02235 0.20387
 C257 C 0.62042 1.04298 0.20848
 C258 C 0.62986 1.04755 0.22912
 C259 C 0.62235 0.99324 0.25739
 C260 C 0.61284 0.99642 0.27799
 C261 C 0.61402 0.98017 0.29430
 C262 C 0.62532 0.96064 0.28927
 C263 C 0.63486 0.95731 0.26861
 C264 C 0.63318 0.97368 0.25273
 H265 H 0.63722 1.03455 0.26123
 H266 H 0.60541 0.99010 0.21656
 H267 H 0.60513 1.01198 0.28132
 H268 H 0.64037 0.97127 0.23671
 H269 H 0.62022 1.05545 0.19594
 H270 H 0.62629 0.94757 0.30110
 C271 C 0.13234 0.52921 0.74707
 C272 C 0.12312 0.50857 0.74340
 C273 C 0.11283 0.50392 0.72331
 C274 C 0.11148 0.51982 0.70688
 C275 C 0.12100 0.54040 0.71061
 C276 C 0.13155 0.54520 0.73066
 C277 C 0.12407 0.49178 0.76058
 C278 C 0.11477 0.49577 0.78115
 C279 C 0.11494 0.47955 0.79733
 C280 C 0.12483 0.45935 0.79279
 C281 C 0.13432 0.45522 0.77227
 C282 C 0.13378 0.47152 0.75620
 H283 H 0.14016 0.53276 0.76271
 H284 H 0.10578 0.48790 0.72055
 H285 H 0.10724 0.51144 0.78447
 H286 H 0.14077 0.46843 0.74019
 H287 H 0.12016 0.55270 0.69792
 H288 H 0.12504 0.44676 0.80523
 C289 C 0.74611 0.86940 -0.03036
 C290 C 0.74175 0.87971 -0.01036
 C291 C 0.72152 0.88975 -0.00709
 C292 C 0.70563 0.88991 -0.02385
 C293 C 0.71006 0.87922 -0.04384
 C294 C 0.73025 0.86873 -0.04712
 C295 C 0.75816 0.87939 0.00742
 C296 C 0.77871 0.88892 0.00442
 C297 C 0.79487 0.88817 0.02107
 C298 C 0.78973 0.87727 0.04079
 C299 C 0.76913 0.86767 0.04388
 C300 C 0.75339 0.86896 0.02715
 H301 H 0.76184 0.86164 -0.03274
 H302 H 0.71820 0.89745 0.00859
 H303 H 0.78213 0.89622 -0.01133
 H304 H 0.73742 0.86169 0.02938
 H305 H 0.69780 0.87898 -0.05677
 H306 H 0.80144 0.87661 0.05416
 C307 C 0.24411 0.36858 0.47062
 C308 C 0.23908 0.37838 0.49075
 C309 C 0.21827 0.38723 0.49399
 C310 C 0.20247 0.38659 0.47715
 C311 C 0.20763 0.37645 0.45706
 C312 C 0.22841 0.36725 0.45375
 C313 C 0.25559 0.37910 0.50848
 C314 C 0.27612 0.38843 0.50474
 C315 C 0.29210 0.38881 0.52138
 C316 C 0.28736 0.37952 0.54184
 C317 C 0.26688 0.36998 0.54574
 C318 C 0.25100 0.37000 0.52899
 H319 H 0.26027 0.36178 0.46819
 H320 H 0.21441 0.39465 0.50967
 H321 H 0.27967 0.39528 0.48879
 H322 H 0.23513 0.36275 0.53182
 H323 H 0.19547 0.37565 0.44407
 H324 H 0.29969 0.37959 0.55470
 C325 C 0.25309 0.63091 -0.02893
 C326 C 0.25798 0.62066 -0.00901
 C327 C 0.27870 0.61158 -0.00558
 C328 C 0.29458 0.61247 -0.02205
 C329 C 0.28955 0.62299 -0.04193
 C330 C 0.26888 0.63242 -0.04541
 C331 C 0.24156 0.62006 0.00849
 C332 C 0.22142 0.60983 0.00485
 C333 C 0.20520 0.60962 0.02122
 C334 C 0.20976 0.62061 0.04124
 C335 C 0.22994 0.63105 0.04491
 C336 C 0.24584 0.63040 0.02852
 H337 H 0.23703 0.63796 -0.03145
 H338 H 0.28246 0.60392 0.01000
 H339 H 0.21836 0.60269 -0.01117
 H340 H 0.26153 0.63824 0.03120
 H341 H 0.30179 0.62399 -0.05463
 H342 H 0.19796 0.62072 0.05435
 C343 C 0.75259 0.13126 0.47156
 C344 C 0.75760 0.12061 0.49119
 C345 C 0.77824 0.11121 0.49424
 C346 C 0.79423 0.11226 0.47771
 C347 C 0.78887 0.12340 0.45811
 C348 C 0.76819 0.13291 0.45499
 C349 C 0.74133 0.11985 0.50881
 C350 C 0.72117 0.10967 0.50518
 C351 C 0.70542 0.10907 0.52178
 C352 C 0.70989 0.11946 0.54199
 C353 C 0.73002 0.13004 0.54567
 C354 C 0.74577 0.12980 0.52906
 H355 H 0.73654 0.13843 0.46930
 H356 H 0.78182 0.10375 0.50993
 H357 H 0.71778 0.10220 0.48934
 H358 H 0.76146 0.13762 0.53172
 H359 H 0.80047 0.12433 0.44485
 H360 H 0.69769 0.11938 0.55478
 C361 C 1.02840 0.75156 0.87333
 C362 C 1.00889 0.75608 0.88423
 C363 C 1.00566 0.77663 0.89390
 C364 C 1.02177 0.79307 0.89267
 C365 C 1.04127 0.78815 0.88135
 C366 C 1.04465 0.76756 0.87166
 C367 C 0.99117 0.73977 0.88410
 C368 C 0.99421 0.71934 0.89391
 C369 C 0.97775 0.70317 0.89286
 C370 C 0.95816 0.70822 0.88142
 C371 C 0.95505 0.72867 0.87148
 C372 C 0.97159 0.74439 0.87312
 H373 H 1.03074 0.73567 0.86581
 H374 H 0.99004 0.77989 0.90144
 H375 H 1.00988 0.71599 0.90153
 H376 H 0.96939 0.76023 0.86555
 H377 H 1.05421 0.80011 0.88031
 H378 H 0.94494 0.69652 0.88049
 C379 C 0.52764 0.25248 0.37279
 C380 C 0.50778 0.25654 0.38333
 C381 C 0.50398 0.27701 0.39293
 C382 C 0.51991 0.29347 0.39213
 C383 C 0.53970 0.28925 0.38131
 C384 C 0.54363 0.26884 0.37143
 C385 C 0.49047 0.23982 0.38304
 C386 C 0.49415 0.21924 0.39230
 C387 C 0.47792 0.20303 0.39129
 C388 C 0.45800 0.20760 0.38050
 C389 C 0.45428 0.22811 0.37089
 C390 C 0.47053 0.24421 0.37256
 H391 H 0.53042 0.23667 0.36526
 H392 H 0.48844 0.28020 0.40072
 H393 H 0.50975 0.21582 0.40008
 H394 H 0.46784 0.26014 0.36536
 H395 H 0.55194 0.30198 0.38033
 H396 H 0.44551 0.19510 0.37935
 C397 C 1.02910 0.24516 0.63190
 C398 C 1.00881 0.24097 0.62208
 C399 C 1.00493 0.22087 0.61175
 C400 C 1.02124 0.20461 0.61091
 C401 C 1.04155 0.20910 0.62124
 C402 C 1.04554 0.22927 0.63170
 C403 C 0.99134 0.25747 0.62298
 C404 C 0.99409 0.27778 0.61292
 C405 C 0.97746 0.29375 0.61356
 C406 C 0.95804 0.28865 0.62492
 C407 C 0.95521 0.26830 0.63508
 C408 C 0.97193 0.25277 0.63391
 H409 H 1.03203 0.26081 0.63978
 H410 H 0.98877 0.21791 0.60501
 H411 H 1.00959 0.28112 0.60518
 H412 H 0.96986 0.23694 0.64149
 H413 H 1.05468 0.19730 0.62070
 H414 H 0.94465 0.30015 0.62545
 C415 C 0.52955 0.74844 0.13299
 C416 C 0.50924 0.74428 0.12305
 C417 C 0.50537 0.72411 0.11281
 C418 C 0.52179 0.70812 0.11207
 C419 C 0.54207 0.71243 0.12223
 C420 C 0.54604 0.73253 0.13281
 C421 C 0.49211 0.76117 0.12305
 C422 C 0.49595 0.78143 0.11323
 C423 C 0.47962 0.79750 0.11284
 C424 C 0.45940 0.79315 0.12273
 C425 C 0.45540 0.77291 0.13274
 C426 C 0.47184 0.75694 0.13267
 H427 H 0.53252 0.76412 0.14078
 H428 H 0.48959 0.72098 0.10524
 H429 H 0.51167 0.78464 0.10586
 H430 H 0.46890 0.74118 0.14009
 H431 H 0.55485 0.70020 0.12178
 H432 H 0.44675 0.80552 0.12261
 O433 O -0.01689 0.99133 0.94061
 O434 O 0.01841 1.00915 0.93915
 O435 O -0.00680 0.93892 0.98596
 O436 O 0.00532 0.93481 1.02053
 O437 O -0.06110 0.98371 0.99481
 O438 O -0.06334 1.02015 1.00919
 O439 O 0.04866 0.99633 1.04571
 O440 O 0.05266 0.96454 1.02541
 O441 O 0.04422 1.04731 0.99887
 O442 O 0.01938 1.05043 0.96352
 O443 O -0.00081 1.04463 1.04911
 O444 O -0.03429 1.02242 1.05588
 O445 O 0.01929 1.01127 1.06286
 O446 O -0.01812 0.99617 1.06738
 O447 O 0.00948 1.06207 1.01797
 O448 O -0.00310 1.06599 0.98249
 O449 O 0.06108 1.01789 1.01410
 O450 O 0.06359 0.98294 0.99271
 O451 O -0.04648 1.00452 0.95875
 O452 O -0.05292 1.03589 0.98101
 O453 O -0.04293 0.95385 1.00724
 O454 O -0.02014 0.94935 1.03970
 O455 O 0.00410 0.95666 0.95519
 O456 O 0.03732 0.97761 0.95228
 Zr457 Zr 0.00739 0.98928 0.96533
 O458 O 0.02854 1.00926 0.98416
 Zr459 Zr -0.01021 0.96375 1.00989
 O460 O 0.01005 0.98279 1.03051
 Zr461 Zr -0.03642 1.00751 0.99171
 O462 O -0.01717 1.02862 1.01118
 Zr463 Zr 0.03753 0.99311 1.01313
 O464 O 0.01847 0.97203 0.99320
 Zr465 Zr 0.01150 1.03707 0.99445
 O466 O -0.00919 1.01817 0.97393
 Zr467 Zr -0.00595 1.01194 1.03916
 O468 O -0.02741 0.99149 1.02082
 O469 O -0.02071 0.97926 0.98154
 O470 O 0.02212 1.02178 1.02306
 C471 C -0.03669 0.99842 0.94115
 C472 C -0.00081 0.93923 0.96572
 C473 C -0.06050 0.96388 1.00162
 C474 C 0.03917 1.00446 1.06263
 C475 C 0.06087 1.03772 1.00747
 C476 C 0.00474 1.06180 1.03844
 H477 H 0.04155 1.01308 0.97545
 H478 H -0.02589 1.04165 1.01501
 H479 H -0.03016 0.96979 0.97228
 H480 H 0.01436 0.97416 1.04351
 H481 H 0.04953 0.95275 1.01465
 H482 H 0.01821 0.93925 1.02936
 H483 H -0.01848 1.06591 0.98735
 H484 H -0.04321 1.04311 0.97034
 H485 H 0.07737 0.98438 1.00127
 H486 H 0.03464 0.97154 0.93738
 H487 H -0.04041 1.03502 1.04783
 H488 H -0.06311 1.01303 1.02374
 H489 H 0.01682 1.00099 0.92513
 H490 H 0.03447 1.04594 0.95994
 H491 H -0.03104 0.95929 1.04630
 H492 H -0.00922 0.98292 1.06987
 O493 O 0.54170 0.54797 0.49919
 O494 O 0.52110 0.54938 0.46480
 O495 O 0.49406 0.54556 0.54904
 O496 O 0.46364 0.52575 0.55622
 O497 O 0.54522 0.49816 0.54755
 O498 O 0.55028 0.46496 0.52622
 O499 O 0.43663 0.48405 0.49345
 O500 O 0.43361 0.51797 0.50964
 O501 O 0.48109 0.49130 0.44142
 O502 O 0.52072 0.50740 0.44102
 O503 O 0.48960 0.43938 0.48647
 O504 O 0.50421 0.43756 0.52485
 O505 O 0.45479 0.45421 0.50610
 O506 O 0.47639 0.44730 0.53856
 O507 O 0.50148 0.45685 0.45605
 O508 O 0.53200 0.47707 0.44791
 O509 O 0.45068 0.50253 0.45931
 O510 O 0.44855 0.53758 0.47932
 O511 O 0.55940 0.51731 0.51070
 O512 O 0.56253 0.48054 0.49856
 O513 O 0.51491 0.51135 0.56437
 O514 O 0.47875 0.49473 0.56672
 O515 O 0.50664 0.56255 0.51845
 O516 O 0.48914 0.56304 0.48274
 Zr517 Zr 0.50907 0.53738 0.49505
 O518 O 0.48895 0.51814 0.47448
 Zr519 Zr 0.49091 0.51249 0.53971
 O520 O 0.47030 0.49211 0.52089
 Zr521 Zr 0.53493 0.49362 0.51459
 O522 O 0.51628 0.47274 0.49431
 Zr523 Zr 0.46132 0.50781 0.49170
 O524 O 0.48007 0.52923 0.51166
 Zr525 Zr 0.50542 0.48937 0.46615
 O526 O 0.52655 0.50943 0.48512
 Zr527 Zr 0.48741 0.46420 0.51054
 O528 O 0.50731 0.48326 0.53195
 O529 O 0.51907 0.52206 0.52378
 O530 O 0.47700 0.47924 0.48169
 C531 C 0.55906 0.53741 0.50472
 C532 C 0.50033 0.56260 0.53852
 C533 C 0.53502 0.50544 0.56448
 C534 C 0.43730 0.46404 0.49974
 C535 C 0.46082 0.49683 0.44185
 C536 C 0.49561 0.43958 0.46628
 H537 H 0.48481 0.52678 0.46142
 H538 H 0.52519 0.45984 0.49049
 H539 H 0.52841 0.53169 0.53295
 H540 H 0.45730 0.48831 0.52958
 H541 H 0.43784 0.53158 0.51741
 H542 H 0.45042 0.51861 0.55012
 H543 H 0.54144 0.46891 0.45825
 H544 H 0.56271 0.48706 0.48373
 H545 H 0.43358 0.53475 0.47363
 H546 H 0.49731 0.57699 0.48381
 H547 H 0.51743 0.43477 0.51603
 H548 H 0.54061 0.45883 0.53759
 H549 H 0.52727 0.56418 0.46718
 H550 H 0.51004 0.51820 0.43545
 H551 H 0.48765 0.48129 0.56790
 H552 H 0.46593 0.45691 0.54624
 O553 O 0.50420 -0.04943 0.54561
 O554 O 0.53790 -0.02848 0.54875
 O555 O 0.45391 -0.00165 0.54348
 O556 O 0.44627 0.02879 0.52399
 O557 O 0.45667 -0.05198 0.49427
 O558 O 0.47820 -0.05649 0.46151
 O559 O 0.50926 0.05701 0.48435
 O560 O 0.49323 0.05931 0.51822
 O561 O 0.56132 0.01201 0.49132
 O562 O 0.56200 -0.02761 0.50697
 O563 O 0.51747 0.00513 0.43828
 O564 O 0.47976 -0.00926 0.43461
 O565 O 0.49717 0.03945 0.45360
 O566 O 0.46482 0.01740 0.44560
 O567 O 0.54735 -0.00780 0.45629
 O568 O 0.55535 -0.03854 0.47604
 O569 O 0.54359 0.04233 0.50327
 O570 O 0.52324 0.04377 0.53814
 O571 O 0.49150 -0.06628 0.51463
 O572 O 0.50613 -0.06874 0.47802
 O573 O 0.43883 -0.02180 0.50667
 O574 O 0.43687 0.01525 0.49221
 O575 O 0.48401 -0.01585 0.56042
 O576 O 0.51902 0.00307 0.56258
 Zr577 Zr 0.50781 -0.01658 0.53595
 O578 O 0.52836 0.00386 0.51767
 Zr579 Zr 0.46340 0.00208 0.51032
 O580 O 0.48234 0.02311 0.49092
 Zr581 Zr 0.48920 -0.04155 0.49094
 O582 O 0.50928 -0.02248 0.47085
 Zr583 Zr 0.51122 0.03175 0.50758
 O584 O 0.49113 0.01257 0.52809
 Zr585 Zr 0.53697 -0.01212 0.48859
 O586 O 0.51822 -0.03363 0.50782
 Zr587 Zr 0.49307 0.00661 0.46263
 O588 O 0.47178 -0.01374 0.48074
 O589 O 0.47943 -0.02618 0.51956
 O590 O 0.52155 0.01659 0.47874
 C591 C 0.49749 -0.06637 0.53492
 C592 C 0.46407 -0.00930 0.56041
 C593 C 0.43936 -0.04186 0.50041
 C594 C 0.50308 0.05677 0.46410
 C595 C 0.56094 0.03213 0.49740
 C596 C 0.53750 -0.00126 0.43887
 H597 H 0.54125 0.00778 0.52675
 H598 H 0.51329 -0.03113 0.45775
 H599 H 0.47005 -0.03566 0.52860
 H600 H 0.47361 0.03620 0.48728
 H601 H 0.48544 0.05485 0.53165
 H602 H 0.45312 0.04223 0.51837
 H603 H 0.54505 -0.04808 0.46788
 H604 H 0.52014 -0.06967 0.48620
 H605 H 0.52896 0.05873 0.53582
 H606 H 0.51769 -0.00530 0.57639
 H607 H 0.48826 -0.02276 0.43213
 H608 H 0.46722 -0.04652 0.45500
 H609 H 0.53535 -0.03478 0.56347
 H610 H 0.56741 -0.01707 0.51810
 H611 H 0.43600 0.00698 0.47823
 H612 H 0.45781 0.02880 0.45469
 O613 O 0.06114 0.51257 0.99413
 O614 O 0.06242 0.47722 1.01161
 O615 O 0.01628 0.50438 0.94100
 O616 O -0.01821 0.49263 0.93607
 O617 O 0.00760 0.55812 0.98685
 O618 O -0.00616 0.56012 1.02352
 O619 O -0.04369 0.44897 0.99802
 O620 O -0.02417 0.44505 0.96554
 O621 O 0.00353 0.45206 1.04886
 O622 O 0.03794 0.47666 1.05357
 O623 O -0.04689 0.49847 1.04629
 O624 O -0.05327 0.53200 1.02440
 O625 O -0.06106 0.47908 1.01124
 O626 O -0.06456 0.51684 0.99744
 O627 O -0.01661 0.48502 1.06332
 O628 O 0.01891 0.49951 1.06861
 O629 O -0.01245 0.43588 1.01913
 O630 O 0.00859 0.43331 0.98401
 O631 O 0.04376 0.54251 1.00776
 O632 O 0.02186 0.54875 1.03935
 O633 O -0.00494 0.54045 0.95638
 O634 O -0.03731 0.51796 0.95086
 O635 O 0.04668 0.49274 0.95918
 O636 O 0.04889 0.45887 0.97935
 Zr637 Zr 0.03636 0.48887 0.99160
 O638 O 0.01756 0.46789 1.01117
 Zr639 Zr -0.00767 0.50763 0.96564
 O640 O -0.02836 0.48754 0.98421
 Zr641 Zr 0.01077 0.53305 1.01036
 O642 O -0.00893 0.51393 1.03097
 Zr643 Zr -0.01138 0.45964 0.99449
 O644 O 0.00857 0.47851 0.97371
 Zr645 Zr 0.00745 0.48487 1.03917
 O646 O 0.02812 0.50531 1.02079
 Zr647 Zr -0.03689 0.50354 1.01357
 O648 O -0.01831 0.52479 0.99365
 O649 O 0.02060 0.51742 0.98183
 O650 O -0.02116 0.47507 1.02327
 C651 C 0.06100 0.53233 1.00139
 C652 C 0.03644 0.49828 0.94160
 C653 C 0.00063 0.55786 0.96685
 C654 C -0.06077 0.45900 1.00493
 C655 C -0.00554 0.43574 1.03908
 C656 C -0.03675 0.49078 1.06315
 H657 H 0.02615 0.45472 1.01489
 H658 H -0.01278 0.52246 1.04419
 H659 H 0.02983 0.52689 0.97259
 H660 H -0.04132 0.48354 0.97526
 H661 H -0.01346 0.44786 0.95379
 H662 H -0.02689 0.47970 0.94017
 H663 H 0.01270 0.51439 1.06935
 H664 H 0.03185 0.53838 1.04675
 H665 H -0.00011 0.41971 0.98518
 H666 H 0.06371 0.46133 0.97341
 H667 H -0.04508 0.53796 1.03715
 H668 H -0.02071 0.56027 1.01631
 H669 H 0.07632 0.47850 1.00347
 H670 H 0.04234 0.46225 1.04770
 H671 H -0.04361 0.52920 0.96066
 H672 H -0.06705 0.50834 0.98380
 O673 O 0.00373 0.43687 0.51565
 O674 O -0.01409 0.43695 0.47982
 O675 O 0.05762 0.48070 0.50782
 O676 O 0.06326 0.51518 0.49766
 O677 O 0.01253 0.48956 0.56218
 O678 O -0.02355 0.50449 0.56440
 O679 O 0.00203 0.54330 0.45379
 O680 O 0.03379 0.52262 0.44964
 O681 O -0.04988 0.49803 0.45563
 O682 O -0.05485 0.46272 0.47906
 O683 O -0.04538 0.54685 0.50306
 O684 O -0.02339 0.55177 0.53740
 O685 O -0.01141 0.55992 0.48429
 O686 O 0.00350 0.56271 0.52219
 O687 O -0.06405 0.51701 0.49081
 O688 O -0.06948 0.48133 0.50246
 O689 O -0.01980 0.51263 0.43965
 O690 O 0.01459 0.49069 0.43696
 O691 O -0.00904 0.45465 0.54581
 O692 O -0.03995 0.47718 0.55243
 O693 O 0.04318 0.50115 0.54501
 O694 O 0.04898 0.53404 0.52336
 O695 O 0.03899 0.45084 0.49553
 O696 O 0.01811 0.44943 0.46178
 Zr697 Zr 0.00670 0.46202 0.49217
 O698 O -0.01246 0.48197 0.47141
 Zr699 Zr 0.03366 0.50505 0.51207
 O700 O 0.01559 0.52666 0.49224
 Zr701 Zr -0.01104 0.48761 0.53689
 O702 O -0.03125 0.50817 0.51811
 Zr703 Zr 0.00474 0.51055 0.46376
 O704 O 0.02497 0.48954 0.48243
 Zr705 Zr -0.04007 0.49263 0.48849
 O706 O -0.02207 0.47101 0.50865
 Zr707 Zr -0.01327 0.53564 0.50840
 O708 O 0.00624 0.51622 0.52946
 O709 O 0.01704 0.47709 0.52119
 O710 O -0.02361 0.52085 0.47935
 C711 C -0.00338 0.43722 0.53551
 C712 C 0.05673 0.46076 0.50107
 C713 C 0.03265 0.49562 0.56226
 C714 C -0.00521 0.56011 0.46420
 C715 C -0.03987 0.50661 0.43932
 C716 C -0.06290 0.53719 0.49647
 H717 H -0.01648 0.47378 0.45794
 H718 H -0.04420 0.51220 0.52681
 H719 H 0.02614 0.46740 0.53046
 H720 H 0.02470 0.53943 0.48855
 H721 H 0.04523 0.51151 0.45235
 H722 H 0.05932 0.52401 0.48469
 H723 H -0.06951 0.48621 0.51795
 H724 H -0.04741 0.46713 0.54203
 H725 H 0.01367 0.49963 0.42346
 H726 H 0.02362 0.43437 0.46399
 H727 H -0.03652 0.54418 0.54285
 H728 H -0.01599 0.51877 0.56497
 H729 H -0.00648 0.42272 0.48103
 H730 H -0.04974 0.45899 0.46415
 H731 H 0.03944 0.54033 0.53481
 H732 H 0.01690 0.56505 0.51355
 O733 O 0.45534 1.04784 0.00012
 O734 O 0.47611 1.05042 0.03423
 O735 O 0.50426 1.04536 -0.04945
 O736 O 0.53338 1.02453 -0.05776
 O737 O 0.45212 0.99712 -0.04817
 O738 O 0.44711 0.96447 -0.02654
 O739 O 0.56069 0.98523 0.00603
 O740 O 0.56345 1.01895 -0.01007
 O741 O 0.51607 0.99247 0.05805
 O742 O 0.47641 1.00865 0.05829
 O743 O 0.50837 0.94001 0.01366
 O744 O 0.49372 0.93718 -0.02467
 O745 O 0.54315 0.95490 -0.00669
 O746 O 0.52117 0.94717 -0.03882
 O747 O 0.49592 0.95801 0.04371
 O748 O 0.46521 0.97807 0.05153
 O749 O 0.54644 1.00360 0.04013
 O750 O 0.54829 1.03861 0.02023
 O751 O 0.43759 1.01718 -0.01167
 O752 O 0.43489 0.98044 0.00118
 O753 O 0.48212 1.01113 -0.06488
 O754 O 0.51846 0.99373 -0.06708
 O755 O 0.48887 1.06207 -0.01983
 O756 O 0.50795 1.06371 0.01561
 Zr757 Zr 0.48795 1.03763 0.00411
 O758 O 0.50810 1.01897 0.02490
 Zr759 Zr 0.50635 1.01218 -0.04035
 O760 O 0.52706 0.99233 -0.02131
 Zr761 Zr 0.46230 0.99341 -0.01512
 O762 O 0.48119 0.97300 0.00526
 Zr763 Zr 0.53579 1.00863 0.00777
 O764 O 0.51702 1.02954 -0.01243
 Zr765 Zr 0.49180 0.99023 0.03331
 O766 O 0.47055 1.00981 0.01423
 Zr767 Zr 0.51022 0.96437 -0.01078
 O768 O 0.49011 0.98294 -0.03233
 O769 O 0.47808 1.02174 -0.02450
 O770 O 0.52037 0.98008 0.01794
 C771 C 0.43802 1.03739 -0.00577
 C772 C 0.49617 1.06209 -0.03954
 C773 C 0.46214 1.00473 -0.06498
 C774 C 0.56046 0.96520 -0.00038
 C775 C 0.53635 0.99796 0.05759
 C776 C 0.50217 0.94061 0.03381
 H777 H 0.51216 1.02784 0.03792
 H778 H 0.47239 0.96008 0.00918
 H779 H 0.46866 1.03113 -0.03373
 H780 H 0.54011 0.98855 -0.02999
 H781 H 0.55909 1.03241 -0.01789
 H782 H 0.54672 1.01887 -0.05053
 H783 H 0.45584 0.96972 0.04120
 H784 H 0.43443 0.98762 0.01576
 H785 H 0.56324 1.03595 0.02602
 H786 H 0.49978 1.07760 0.01411
 H787 H 0.48049 0.93452 -0.01587
 H788 H 0.45704 0.95798 -0.03753
 H789 H 0.47010 1.06522 0.03165
 H790 H 0.48712 1.01943 0.06396
 H791 H 0.50899 0.98069 -0.06862
 H792 H 0.53131 0.95685 -0.04672
 O793 O 0.44021 0.51855 0.00781
 O794 O 0.43816 0.48279 -0.00930
 O795 O 0.48659 0.51011 0.06016
 O796 O 0.52120 0.49931 0.06446
 O797 O 0.49428 0.56311 0.01329
 O798 O 0.50764 0.56429 -0.02344
 O799 O 0.54391 0.45291 0.00271
 O800 O 0.52544 0.45015 0.03539
 O801 O 0.49715 0.45619 -0.04758
 O802 O 0.46205 0.47982 -0.05173
 O803 O 0.54684 0.50189 -0.04649
 O804 O 0.55470 0.53503 -0.02494
 O805 O 0.56097 0.48204 -0.01272
 O806 O 0.56586 0.52004 0.00222
 O807 O 0.51603 0.48879 -0.06289
 O808 O 0.48004 0.50329 -0.06695
 O809 O 0.51009 0.43919 -0.01700
 O810 O 0.49136 0.43916 0.01904
 O811 O 0.45796 0.54773 -0.00658
 O812 O 0.47928 0.55273 -0.03884
 O813 O 0.50716 0.54626 0.04388
 O814 O 0.53999 0.52352 0.04833
 O815 O 0.45538 0.49874 0.04305
 O816 O 0.45164 0.46499 0.02295
 Zr817 Zr 0.46467 0.49445 0.01023
 O818 O 0.48274 0.47279 -0.00952
 Zr819 Zr 0.50971 0.51316 0.03483
 O820 O 0.52950 0.49210 0.01614
 Zr821 Zr 0.49063 0.53765 -0.00978
 O822 O 0.50961 0.51786 -0.03054
 Zr823 Zr 0.51178 0.46422 0.00673
 O824 O 0.49277 0.48411 0.02760
 Zr825 Zr 0.49264 0.48892 -0.03799
 O826 O 0.47261 0.51000 -0.01940
 Zr827 Zr 0.53766 0.50727 -0.01359
 O828 O 0.51995 0.52943 0.00634
 O829 O 0.48115 0.52293 0.01923
 O830 O 0.52128 0.47881 -0.02251
 C831 C 0.44061 0.53811 0.00019
 C832 C 0.46642 0.50409 0.06030
 C833 C 0.50131 0.56338 0.03323
 C834 C 0.56066 0.46230 -0.00565
 C835 C 0.50411 0.43929 -0.03726
 C836 C 0.53626 0.49430 -0.06318
 H837 H 0.47382 0.45971 -0.01290
 H838 H 0.51331 0.52610 -0.04391
 H839 H 0.47221 0.53261 0.02861
 H840 H 0.54260 0.48804 0.02480
 H841 H 0.51548 0.45384 0.04759
 H842 H 0.52907 0.48579 0.06049
 H843 H 0.48705 0.51774 -0.06850
 H844 H 0.46873 0.54248 -0.04572
 H845 H 0.49946 0.42517 0.01811
 H846 H 0.43694 0.46789 0.02904
 H847 H 0.54590 0.54157 -0.03689
 H848 H 0.52227 0.56449 -0.01640
 H849 H 0.42436 0.48461 -0.00107
 H850 H 0.45812 0.46533 -0.04585
 H851 H 0.54590 0.53469 0.03830
 H852 H 0.56908 0.51085 0.01515
 O853 O -0.01721 0.00865 0.55898
 O854 O 0.01783 -0.00979 0.56061
 O855 O -0.00724 0.06050 0.51337
 O856 O 0.00470 0.06455 0.47906
 O857 O -0.06189 0.01644 0.50462
 O858 O -0.06492 -0.01994 0.49043
 O859 O 0.04746 0.00085 0.45442
 O860 O 0.05176 0.03351 0.47330
 O861 O 0.04222 -0.04867 0.50081
 O862 O 0.01830 -0.05195 0.53580
 O863 O -0.00333 -0.04501 0.45049
 O864 O -0.03626 -0.02258 0.44345
 O865 O 0.01703 -0.01205 0.43698
 O866 O -0.02027 0.00384 0.43256
 O867 O 0.00785 -0.06260 0.48134
 O868 O -0.00564 -0.06617 0.51733
 O869 O 0.06036 -0.01888 0.48832
 O870 O 0.06235 0.01685 0.50740
 O871 O -0.04709 -0.00446 0.54075
 O872 O -0.05409 -0.03586 0.51861
 O873 O -0.04355 0.04598 0.49197
 O874 O -0.02084 0.04996 0.45949
 O875 O 0.00422 0.04304 0.54429
 O876 O 0.03706 0.02149 0.54759
 Zr877 Zr 0.00683 0.01022 0.53435
 O878 O 0.02735 -0.01023 0.51569
 Zr879 Zr -0.01094 0.03570 0.48956
 O880 O 0.00896 0.01638 0.46922
 Zr881 Zr -0.03752 -0.00764 0.50785
 O882 O -0.01890 -0.02901 0.48839
 Zr883 Zr 0.03650 0.00566 0.48677
 O884 O 0.01786 0.02714 0.50642
 Zr885 Zr 0.00983 -0.03784 0.50523
 O886 O -0.01018 -0.01853 0.52573
 Zr887 Zr -0.00776 -0.01240 0.46057
 O888 O -0.02875 0.00824 0.47874
 O889 O -0.02132 0.02045 0.51795
 O890 O 0.02043 -0.02272 0.47673
 C891 C -0.03707 0.00167 0.55836
 C892 C -0.00093 0.06036 0.53359
 C893 C -0.06116 0.03621 0.49767
 C894 C 0.03729 -0.00653 0.43736
 C895 C 0.05957 -0.03894 0.49424
 C896 C 0.00273 -0.06222 0.46086
 H897 H 0.04034 -0.01417 0.52460
 H898 H -0.02783 -0.04191 0.48443
 H899 H -0.03055 0.03007 0.52712
 H900 H 0.01331 0.02486 0.45620
 H901 H 0.04888 0.04578 0.48352
 H902 H 0.01741 0.06002 0.47023
 H903 H -0.02052 -0.06667 0.51089
 H904 H -0.04415 -0.04327 0.52909
 H905 H 0.07619 0.01549 0.49916
 H906 H 0.03460 0.02763 0.56245
 H907 H -0.04281 -0.03476 0.45172
 H908 H -0.06476 -0.01297 0.47581
 H909 H 0.01651 -0.00161 0.57462
 H910 H 0.03304 -0.04667 0.53997
 H911 H -0.03239 0.04046 0.45317
 H912 H -0.01081 0.01659 0.42973
 O913 O 0.68452 0.24419 0.26738
 O914 O 0.68432 0.26256 0.23220
 O915 O 0.72795 0.19052 0.25832
 O916 O 0.76231 0.18497 0.24741
 O917 O 0.73730 0.23456 0.31371
 O918 O 0.75220 0.27048 0.31713
 O919 O 0.79056 0.24736 0.20548
 O920 O 0.77016 0.21559 0.20032
 O921 O 0.74476 0.29872 0.20912
 O922 O 0.71038 0.30371 0.23343
 O923 O 0.79476 0.29325 0.25634
 O924 O 0.79984 0.27085 0.28980
 O925 O 0.80791 0.25844 0.23678
 O926 O 0.81019 0.24397 0.27441
 O927 O 0.76498 0.31208 0.24444
 O928 O 0.72963 0.31767 0.25682
 O929 O 0.75938 0.26910 0.19204
 O930 O 0.73786 0.23464 0.18848
 O931 O 0.70223 0.25622 0.29811
 O932 O 0.72493 0.28727 0.30541
 O933 O 0.74876 0.20425 0.29555
 O934 O 0.78156 0.19869 0.27355
 O935 O 0.69818 0.20946 0.24645
 O936 O 0.69696 0.23080 0.21307
 Zr937 Zr 0.70955 0.24169 0.24386
 O938 O 0.72941 0.26124 0.22379
 Zr939 Zr 0.75252 0.21430 0.26288
 O940 O 0.77409 0.23266 0.24357
 Zr941 Zr 0.73527 0.25854 0.28917
 O942 O 0.75598 0.27893 0.27103
 Zr943 Zr 0.75790 0.24419 0.21547
 O944 O 0.73696 0.22357 0.23350
 Zr945 Zr 0.74031 0.28841 0.24178
 O946 O 0.71862 0.27011 0.26128
 Zr947 Zr 0.78339 0.26110 0.26065
 O948 O 0.76386 0.24135 0.28113
 O949 O 0.72466 0.23083 0.27254
 O950 O 0.76851 0.27215 0.23196
 C951 C 0.68481 0.25067 0.28753
 C952 C 0.70792 0.19164 0.25174
 C953 C 0.74331 0.21446 0.31314
 C954 C 0.80777 0.25299 0.21636
 C955 C 0.75297 0.28904 0.19233
 C956 C 0.78517 0.31089 0.25023
 H957 H 0.72108 0.26550 0.21050
 H958 H 0.76013 0.29169 0.28013
 H959 H 0.71500 0.22160 0.28157
 H960 H 0.78677 0.22351 0.23958
 H961 H 0.75915 0.20400 0.20269
 H962 H 0.77116 0.18910 0.23460
 H963 H 0.73444 0.31722 0.27234
 H964 H 0.71464 0.29471 0.29530
 H965 H 0.74669 0.23580 0.17497
 H966 H 0.68194 0.22512 0.21508
 H967 H 0.79206 0.28364 0.29589
 H968 H 0.76659 0.26311 0.31731
 H969 H 0.67013 0.25481 0.23306
 H970 H 0.70585 0.29827 0.21877
 H971 H 0.78772 0.20772 0.28563
 H972 H 0.81222 0.23046 0.26571
 O973 O 0.75500 0.70361 0.70540
 O974 O 0.78960 0.70145 0.72569
 O975 O 0.70596 0.70859 0.75329
 O976 O 0.69870 0.72915 0.78302
 O977 O 0.70962 0.75547 0.70126
 O978 O 0.73189 0.78768 0.69626
 O979 O 0.76291 0.76792 0.81089
 O980 O 0.74605 0.73458 0.81381
 O981 O 0.81482 0.75880 0.76641
 O982 O 0.81513 0.74239 0.72685
 O983 O 0.77198 0.81212 0.75808
 O984 O 0.73497 0.81635 0.74357
 O985 O 0.75132 0.79817 0.79273
 O986 O 0.71885 0.80565 0.76961
 O987 O 0.80155 0.79347 0.74587
 O988 O 0.80892 0.77264 0.71503
 O989 O 0.79659 0.74827 0.79688
 O990 O 0.77552 0.71388 0.79871
 O991 O 0.74518 0.73466 0.68742
 O992 O 0.75923 0.77090 0.68440
 O993 O 0.69183 0.74444 0.73188
 O994 O 0.69032 0.76034 0.76866
 O995 O 0.73596 0.69029 0.74113
 O996 O 0.77157 0.68844 0.75787
 Zr997 Zr 0.75995 0.71449 0.73804
 O998 O 0.78105 0.73298 0.75832
 Zr999 Zr 0.71631 0.74139 0.75602
 O1000 O 0.73575 0.76092 0.77691
 Zr1001 Zr 0.74237 0.75875 0.71191
 O1002 O 0.76304 0.77898 0.73084
 Zr1003 Zr 0.76422 0.74410 0.78602
 O1004 O 0.74358 0.72356 0.76706
 Zr1005 Zr 0.79041 0.76133 0.74185
 O1006 O 0.77103 0.74184 0.72051
 Zr1007 Zr 0.74709 0.78834 0.75980
 O1008 O 0.72533 0.77011 0.73952
 O1009 O 0.73190 0.73087 0.72785
 O1010 O 0.77521 0.77220 0.77037
 C1011 C 0.74995 0.71422 0.68788
 C1012 C 0.71605 0.69102 0.74761
 C1013 C 0.69222 0.75007 0.71161
 C1014 C 0.75708 0.78808 0.81031
 C1015 C 0.81417 0.75343 0.78679
 C1016 C 0.79204 0.81111 0.75203
 H1017 H 0.79374 0.72388 0.76253
 H1018 H 0.76734 0.79170 0.72194
 H1019 H 0.72228 0.72158 0.71859
 H1020 H 0.72713 0.76505 0.78994
 H1021 H 0.73792 0.72122 0.80952
 H1022 H 0.70594 0.73474 0.79648
 H1023 H 0.79901 0.78141 0.70571
 H1024 H 0.77353 0.76337 0.68414
 H1025 H 0.78133 0.71649 0.81374
 H1026 H 0.77016 0.67454 0.74956
 H1027 H 0.74264 0.81753 0.72940
 H1028 H 0.72105 0.79456 0.70608
 H1029 H 0.78676 0.68677 0.71938
 H1030 H 0.81996 0.73124 0.73753
 H1031 H 0.68962 0.77386 0.75984
 H1032 H 0.71216 0.79757 0.78186
 O1033 O 0.24650 0.20357 0.79115
 O1034 O 0.21269 0.20160 0.76999
 O1035 O 0.29657 0.20818 0.74321
 O1036 O 0.30384 0.22910 0.71374
 O1037 O 0.29395 0.25552 0.79596
 O1038 O 0.27105 0.28697 0.80247
 O1039 O 0.24043 0.26961 0.68724
 O1040 O 0.25739 0.23612 0.68339
 O1041 O 0.18851 0.25986 0.73121
 O1042 O 0.18824 0.24269 0.77058
 O1043 O 0.23201 0.31265 0.74136
 O1044 O 0.26998 0.31537 0.75670
 O1045 O 0.25222 0.29932 0.70647
 O1046 O 0.28430 0.30655 0.72872
 O1047 O 0.20212 0.29410 0.75279
 O1048 O 0.19431 0.27323 0.78274
 O1049 O 0.20688 0.24994 0.70051
 O1050 O 0.22750 0.21541 0.69756
 O1051 O 0.25914 0.23356 0.80954
 O1052 O 0.24407 0.26941 0.81386
 O1053 O 0.31116 0.24260 0.76563
 O1054 O 0.31329 0.25993 0.72974
 O1055 O 0.26644 0.19019 0.75536
 O1056 O 0.23103 0.18908 0.73780
 Zr1057 Zr 0.24266 0.21464 0.75853
 O1058 O 0.22196 0.23373 0.73863
 Zr1059 Zr 0.28675 0.24115 0.74130
 O1060 O 0.26772 0.26148 0.72102
 Zr1061 Zr 0.26098 0.25826 0.78585
 O1062 O 0.24046 0.27899 0.76754
 Zr1063 Zr 0.23909 0.24519 0.71133
 O1064 O 0.25925 0.22393 0.72977
 Zr1065 Zr 0.21290 0.26183 0.75593
 O1066 O 0.23205 0.24186 0.77680
 Zr1067 Zr 0.25664 0.28867 0.73894
 O1068 O 0.27822 0.26977 0.75855
 O1069 O 0.27094 0.23047 0.76916
 O1070 O 0.22837 0.27305 0.72784
 C1071 C 0.25304 0.21348 0.80871
 C1072 C 0.28634 0.19073 0.74882
 C1073 C 0.31105 0.24887 0.78577
 C1074 C 0.24618 0.28978 0.68857
 C1075 C 0.18927 0.25494 0.71066
 C1076 C 0.21189 0.31173 0.74724
 H1077 H 0.20918 0.22485 0.73410
 H1078 H 0.23627 0.29158 0.77681
 H1079 H 0.28040 0.22092 0.77821
 H1080 H 0.27637 0.26583 0.70813
 H1081 H 0.26535 0.22260 0.68732
 H1082 H 0.29749 0.23611 0.70057
 H1083 H 0.20463 0.28039 0.79306
 H1084 H 0.22997 0.26149 0.81404
 H1085 H 0.22187 0.21845 0.68257
 H1086 H 0.23233 0.17499 0.74564
 H1087 H 0.26072 0.31791 0.76970
 H1088 H 0.28187 0.29418 0.79293
 H1089 H 0.21529 0.18674 0.77585
 H1090 H 0.18284 0.23218 0.75941
 H1091 H 0.31402 0.27326 0.73897
 H1092 H 0.29206 0.29757 0.71773
 O1093 O 0.20974 0.74635 0.29669
 O1094 O 0.23111 0.71302 0.29911
 O1095 O 0.25620 0.79738 0.29203
 O1096 O 0.28613 0.80475 0.27200
 O1097 O 0.20454 0.79280 0.24488
 O1098 O 0.19866 0.77045 0.21283
 O1099 O 0.31375 0.74128 0.23141
 O1100 O 0.31730 0.75788 0.26510
 O1101 O 0.26963 0.68898 0.23996
 O1102 O 0.23084 0.68781 0.25684
 O1103 O 0.26036 0.73225 0.18743
 O1104 O 0.24574 0.76900 0.18363
 O1105 O 0.29484 0.75290 0.20139
 O1106 O 0.27163 0.78542 0.19470
 O1107 O 0.24836 0.70231 0.20552
 O1108 O 0.21817 0.69442 0.22675
 O1109 O 0.30015 0.70715 0.25107
 O1110 O 0.30269 0.72825 0.28579
 O1111 O 0.19147 0.75822 0.26627
 O1112 O 0.18779 0.74262 0.22996
 O1113 O 0.23501 0.81126 0.25585
 O1114 O 0.27168 0.81325 0.24043
 O1115 O 0.24467 0.76717 0.31030
 O1116 O 0.26308 0.73209 0.31160
 Zr1117 Zr 0.24227 0.74297 0.28579
 O1118 O 0.26210 0.72231 0.26668
 Zr1119 Zr 0.25924 0.78705 0.25911
 O1120 O 0.27988 0.76807 0.23920
 Zr1121 Zr 0.21519 0.76035 0.24164
 O1122 O 0.23376 0.74035 0.22083
 Zr1123 Zr 0.28944 0.73952 0.25559
 O1124 O 0.27085 0.75983 0.27663
 Zr1125 Zr 0.24513 0.71302 0.23812
 O1126 O 0.22428 0.73180 0.25830
 Zr1127 Zr 0.26234 0.75682 0.21162
 O1128 O 0.24227 0.77800 0.23027
 O1129 O 0.23157 0.77088 0.26963
 O1130 O 0.27328 0.72867 0.22729
 C1131 C 0.19226 0.75250 0.28655
 C1132 C 0.25045 0.78734 0.30960
 C1133 C 0.21474 0.81039 0.25026
 C1134 C 0.31262 0.74720 0.21119
 C1135 C 0.28994 0.68963 0.24546
 C1136 C 0.25427 0.71218 0.18801
 H1137 H 0.26652 0.70960 0.27562
 H1138 H 0.22469 0.73610 0.20801
 H1139 H 0.22236 0.78032 0.27897
 H1140 H 0.29273 0.77687 0.23510
 H1141 H 0.31331 0.76592 0.27862
 H1142 H 0.29950 0.79784 0.26619
 H1143 H 0.20861 0.70438 0.21830
 H1144 H 0.18746 0.72880 0.23830
 H1145 H 0.31759 0.72255 0.28299
 H1146 H 0.25533 0.73357 0.32576
 H1147 H 0.23170 0.76109 0.18228
 H1148 H 0.20828 0.78119 0.20562
 H1149 H 0.22538 0.71572 0.31405
 H1150 H 0.24163 0.68325 0.26809
 H1151 H 0.26282 0.81394 0.22678
 H1152 H 0.28434 0.79183 0.20251
 O1153 O 0.18484 0.74226 0.76683
 O1154 O 0.18421 0.76051 0.73152
 O1155 O 0.22897 0.68917 0.75787
 O1156 O 0.26335 0.68402 0.74673
 O1157 O 0.23811 0.73375 0.81283
 O1158 O 0.25253 0.77000 0.81581
 O1159 O 0.29037 0.74583 0.70417
 O1160 O 0.27018 0.71407 0.69943
 O1161 O 0.24451 0.79717 0.70764
 O1162 O 0.20968 0.80176 0.73168
 O1163 O 0.29414 0.79291 0.75500
 O1164 O 0.29993 0.77042 0.78823
 O1165 O 0.30730 0.75957 0.73465
 O1166 O 0.31071 0.74377 0.77223
 O1167 O 0.26417 0.81115 0.74268
 O1168 O 0.22865 0.81625 0.75518
 O1169 O 0.25880 0.76737 0.69065
 O1170 O 0.23763 0.73263 0.68768
 O1171 O 0.20262 0.75478 0.79733
 O1172 O 0.22484 0.78620 0.80423
 O1173 O 0.24995 0.70348 0.79485
 O1174 O 0.28258 0.69826 0.77274
 O1175 O 0.19887 0.70762 0.74607
 O1176 O 0.19695 0.72867 0.71259
 Zr1177 Zr 0.20973 0.73997 0.74315
 O1178 O 0.22918 0.75957 0.72272
 Zr1179 Zr 0.25326 0.71332 0.76208
 O1180 O 0.27442 0.73182 0.74245
 Zr1181 Zr 0.23555 0.75754 0.78811
 O1182 O 0.25579 0.77810 0.76963
 Zr1183 Zr 0.25779 0.74273 0.71438
 O1184 O 0.23728 0.72206 0.73276
 Zr1185 Zr 0.23983 0.78707 0.74036
 O1186 O 0.21856 0.76866 0.76023
 Zr1187 Zr 0.28336 0.76058 0.75919
 O1188 O 0.26431 0.74071 0.78000
 O1189 O 0.22523 0.72955 0.77180
 O1190 O 0.26809 0.77102 0.73050
 C1191 C 0.18520 0.74888 0.78693
 C1192 C 0.20889 0.68997 0.75141
 C1193 C 0.24443 0.71374 0.81239
 C1194 C 0.30723 0.75331 0.71447
 C1195 C 0.25256 0.78737 0.69083
 C1196 C 0.28436 0.81032 0.74854
 H1197 H 0.22073 0.76360 0.70943
 H1198 H 0.25982 0.79100 0.77860
 H1199 H 0.21577 0.72025 0.78097
 H1200 H 0.28725 0.72290 0.73841
 H1201 H 0.25935 0.70238 0.70211
 H1202 H 0.27234 0.68818 0.73401
 H1203 H 0.23364 0.81607 0.77065
 H1204 H 0.21446 0.79346 0.79409
 H1205 H 0.24631 0.73378 0.67406
 H1206 H 0.18201 0.72288 0.71481
 H1207 H 0.29196 0.78301 0.79447
 H1208 H 0.26691 0.76261 0.81613
 H1209 H 0.17010 0.75265 0.73259
 H1210 H 0.20555 0.79649 0.71685
 H1211 H 0.28900 0.70785 0.78422
 H1212 H 0.31341 0.73086 0.76283
 O1213 O 0.25423 0.20394 0.20590
 O1214 O 0.28797 0.20097 0.22694
 O1215 O 0.20413 0.21003 0.25305
 O1216 O 0.19692 0.23077 0.28264
 O1217 O 0.20905 0.25621 0.20085
 O1218 O 0.23166 0.28799 0.19568
 O1219 O 0.26185 0.26872 0.31089
 O1220 O 0.24434 0.23582 0.31401
 O1221 O 0.31367 0.25880 0.26685
 O1222 O 0.31416 0.24212 0.22750
 O1223 O 0.27152 0.31254 0.25778
 O1224 O 0.23519 0.31754 0.24358
 O1225 O 0.25056 0.29900 0.29258
 O1226 O 0.21795 0.30639 0.26874
 O1227 O 0.30098 0.29352 0.24586
 O1228 O 0.30827 0.27215 0.21524
 O1229 O 0.29522 0.24836 0.29723
 O1230 O 0.27347 0.21441 0.29914
 O1231 O 0.24475 0.23484 0.18751
 O1232 O 0.25908 0.27103 0.18447
 O1233 O 0.19078 0.24590 0.23143
 O1234 O 0.18932 0.26207 0.26824
 O1235 O 0.23382 0.19112 0.24110
 O1236 O 0.26911 0.18893 0.25901
 Zr1237 Zr 0.25840 0.21488 0.23854
 O1238 O 0.27966 0.23328 0.25871
 Zr1239 Zr 0.21503 0.24260 0.25580
 O1240 O 0.23461 0.26190 0.27681
 Zr1241 Zr 0.24173 0.25917 0.21179
 O1242 O 0.26241 0.27931 0.23080
 Zr1243 Zr 0.26280 0.24475 0.28622
 O1244 O 0.24190 0.22442 0.26730
 Zr1245 Zr 0.28950 0.26143 0.24212
 O1246 O 0.27004 0.24193 0.22087
 Zr1247 Zr 0.24641 0.28906 0.25962
 O1248 O 0.22462 0.27105 0.23916
 O1249 O 0.23073 0.23159 0.22786
 O1250 O 0.27425 0.27264 0.27049
 C1251 C 0.24961 0.21443 0.18821
 C1252 C 0.21383 0.19226 0.24732
 C1253 C 0.19144 0.25125 0.21109
 C1254 C 0.25622 0.28893 0.31021
 C1255 C 0.31289 0.25337 0.28720
 C1256 C 0.29157 0.31131 0.25176
 H1257 H 0.29220 0.22403 0.26307
 H1258 H 0.26689 0.29193 0.22185
 H1259 H 0.22113 0.22239 0.21848
 H1260 H 0.22595 0.26621 0.28975
 H1261 H 0.23600 0.22257 0.30980
 H1262 H 0.20429 0.23604 0.29616
 H1263 H 0.29866 0.28135 0.20601
 H1264 H 0.27328 0.26329 0.18438
 H1265 H 0.27924 0.21701 0.31420
 H1266 H 0.26739 0.17491 0.25099
 H1267 H 0.24186 0.31778 0.22886
 H1268 H 0.22087 0.29514 0.20536
 H1269 H 0.28494 0.18617 0.22100
 H1270 H 0.31859 0.23084 0.23821
 H1271 H 0.18870 0.27542 0.25917
 H1272 H 0.21162 0.29903 0.28163
 O1273 O 0.74751 0.70794 0.29440
 O1274 O 0.71305 0.70587 0.27411
 O1275 O 0.79647 0.70869 0.24522
 O1276 O 0.80402 0.72794 0.21475
 O1277 O 0.79590 0.75855 0.29568
 O1278 O 0.77416 0.79127 0.30045
 O1279 O 0.74111 0.76816 0.18699
 O1280 O 0.75712 0.73405 0.18487
 O1281 O 0.68965 0.76261 0.23209
 O1282 O 0.68945 0.74748 0.27232
 O1283 O 0.73466 0.81452 0.23881
 O1284 O 0.77305 0.81694 0.25333
 O1285 O 0.75389 0.79865 0.20425
 O1286 O 0.78633 0.80645 0.22537
 O1287 O 0.70450 0.79753 0.25183
 O1288 O 0.69662 0.77830 0.28294
 O1289 O 0.70736 0.75043 0.20182
 O1290 O 0.72688 0.71511 0.20064
 O1291 O 0.76075 0.73876 0.31083
 O1292 O 0.74681 0.77524 0.31331
 O1293 O 0.81228 0.74352 0.26584
 O1294 O 0.81435 0.75925 0.22902
 O1295 O 0.76621 0.69211 0.25893
 O1296 O 0.73034 0.69099 0.24232
 Zr1297 Zr 0.74309 0.71735 0.26129
 O1298 O 0.72253 0.73584 0.24064
 Zr1299 Zr 0.78754 0.74175 0.24187
 O1300 O 0.76869 0.76135 0.22075
 Zr1301 Zr 0.76293 0.76197 0.28574
 O1302 O 0.74262 0.78216 0.26660
 Zr1303 Zr 0.73952 0.74527 0.21249
 O1304 O 0.75944 0.72459 0.23179
 Zr1305 Zr 0.71444 0.76513 0.25641
 O1306 O 0.73345 0.74585 0.27810
 Zr1307 Zr 0.75858 0.78978 0.23725
 O1308 O 0.78003 0.77149 0.25759
 O1309 O 0.77190 0.73303 0.27051
 O1310 O 0.72976 0.77431 0.22749
 C1311 C 0.75450 0.71873 0.31126
 C1312 C 0.78598 0.69182 0.25195
 C1313 C 0.81260 0.75065 0.28570
 C1314 C 0.74735 0.78822 0.18704
 C1315 C 0.69005 0.75659 0.21182
 C1316 C 0.71467 0.81455 0.24518
 H1317 H 0.70946 0.72709 0.23679
 H1318 H 0.73894 0.79534 0.27523
 H1319 H 0.78123 0.72369 0.27989
 H1320 H 0.77722 0.76474 0.20750
 H1321 H 0.76480 0.72059 0.18950
 H1322 H 0.79749 0.73423 0.20130
 H1323 H 0.70724 0.78597 0.29256
 H1324 H 0.73251 0.76775 0.31418
 H1325 H 0.72108 0.71746 0.18558
 H1326 H 0.73144 0.67735 0.25096
 H1327 H 0.76409 0.82046 0.26631
 H1328 H 0.78524 0.79741 0.29047
 H1329 H 0.71539 0.69133 0.28082
 H1330 H 0.68363 0.73656 0.26178
 H1331 H 0.81573 0.77286 0.23775
 H1332 H 0.79404 0.79641 0.21531
 O1333 O 0.70518 0.29321 0.74378
 O1334 O 0.70324 0.27193 0.70995
 O1335 O 0.70596 0.24646 0.79471
 O1336 O 0.72524 0.21647 0.80381
 O1337 O 0.75508 0.29671 0.79260
 O1338 O 0.78822 0.30063 0.77192
 O1339 O 0.76633 0.18667 0.74128
 O1340 O 0.73231 0.18473 0.75704
 O1341 O 0.76090 0.23039 0.68863
 O1342 O 0.74576 0.27006 0.68671
 O1343 O 0.81252 0.23812 0.73441
 O1344 O 0.81513 0.25278 0.77194
 O1345 O 0.79659 0.20412 0.75431
 O1346 O 0.80325 0.22680 0.78723
 O1347 O 0.79560 0.25013 0.70346
 O1348 O 0.77610 0.28108 0.69435
 O1349 O 0.74823 0.20064 0.70661
 O1350 O 0.71306 0.19987 0.72621
 O1351 O 0.73606 0.31050 0.75568
 O1352 O 0.77308 0.31224 0.74330
 O1353 O 0.74213 0.26699 0.81055
 O1354 O 0.75658 0.22985 0.81351
 O1355 O 0.68992 0.26004 0.76380
 O1356 O 0.68886 0.24069 0.72881
 Zr1357 Zr 0.71503 0.26039 0.74067
 O1358 O 0.73380 0.23949 0.72085
 Zr1359 Zr 0.73922 0.24259 0.78624
 O1360 O 0.75898 0.22096 0.76816
 Zr1361 Zr 0.75930 0.28556 0.76016
 O1362 O 0.77987 0.26588 0.74099
 Zr1363 Zr 0.74321 0.21191 0.73880
 O1364 O 0.72230 0.23158 0.75812
 Zr1365 Zr 0.76309 0.25503 0.71277
 O1366 O 0.74337 0.27701 0.73069
 Zr1367 Zr 0.78747 0.23707 0.75800
 O1368 O 0.76890 0.25808 0.77842
 O1369 O 0.73050 0.27061 0.76946
 O1370 O 0.77229 0.22663 0.72908
 C1371 C 0.71593 0.31042 0.74943
 C1372 C 0.68934 0.25380 0.78388
 C1373 C 0.74856 0.28696 0.81000
 C1374 C 0.78634 0.18686 0.74792
 C1375 C 0.75464 0.21036 0.68918
 C1376 C 0.81263 0.24391 0.71414
 H1377 H 0.72511 0.23537 0.70771
 H1378 H 0.79307 0.27434 0.73726
 H1379 H 0.72122 0.28038 0.77840
 H1380 H 0.76231 0.20799 0.77717
 H1381 H 0.71869 0.18933 0.76440
 H1382 H 0.73056 0.20281 0.79701
 H1383 H 0.78472 0.29028 0.70460
 H1384 H 0.76599 0.31258 0.72863
 H1385 H 0.71544 0.18476 0.72081
 H1386 H 0.67508 0.24916 0.72957
 H1387 H 0.81754 0.26644 0.76373
 H1388 H 0.79439 0.29083 0.78326
 H1389 H 0.68850 0.27830 0.71198
 H1390 H 0.73448 0.25968 0.68144
 H1391 H 0.77042 0.23815 0.81471
 H1392 H 0.79435 0.21503 0.79368
 C1393 C 0.08637 1.01273 1.14528
 C1394 C 0.08348 1.03243 1.15708
 C1395 C 0.09448 1.03583 1.17710
 C1396 C 0.10751 1.01934 1.18655
 C1397 C 0.10928 0.99929 1.17525
 C1398 C 0.09915 0.99614 1.15481
 C1399 C 0.07498 1.01017 1.12351
 C1400 C 0.07889 0.99254 1.10908
 C1401 C 0.06758 0.99086 1.08908
 C1402 C 0.05183 1.00644 1.08326
 C1403 C 0.04813 1.02421 1.09732
 C1404 C 0.05995 1.02649 1.11700
 C1405 C 0.06905 1.04839 1.14923
 C1406 C 0.05709 1.04520 1.12994
 H1407 H 0.06656 1.06336 1.15843
 H1408 H 0.04570 1.05777 1.12487
 H1409 H 0.09175 1.05099 1.18590
 H1410 H 0.11930 0.98620 1.18166
 H1411 H 0.07083 0.97712 1.07833
 H1412 H 0.03631 1.03655 1.09269
 H1413 H 0.10128 0.98052 1.14686
 H1414 H 0.09079 0.98008 1.11284
 C1415 C 0.58156 0.51840 0.64689
 C1416 C 0.59832 0.50340 0.65231
 C1417 C 0.60953 0.50533 0.67247
 C1418 C 0.60475 0.52250 0.68700
 C1419 C 0.58868 0.53772 0.68125
 C1420 C 0.57716 0.53572 0.66152
 C1421 C 0.56939 0.51534 0.62568
 C1422 C 0.55119 0.52815 0.61988
 C1423 C 0.54023 0.52466 0.60009
 C1424 C 0.54714 0.50847 0.58535
 C1425 C 0.56526 0.49553 0.59089
 C1426 C 0.57614 0.49857 0.61114
 C1427 C 0.60395 0.48683 0.63745
 C1428 C 0.59335 0.48469 0.61716
 H1429 H 0.61693 0.47546 0.64147
 H1430 H 0.59846 0.47174 0.60617
 H1431 H 0.62227 0.49376 0.67672
 H1432 H 0.58481 0.55111 0.69223
 H1433 H 0.52630 0.53489 0.59624
 H1434 H 0.57051 0.48277 0.57972
 H1435 H 0.56506 0.54801 0.65802
 H1436 H 0.54491 0.54077 0.63048
 C1437 C 0.41901 -0.01956 0.64320
 C1438 C 0.40264 -0.00413 0.64851
 C1439 C 0.39168 -0.00551 0.66867
 C1440 C 0.39637 -0.02249 0.68334
 C1441 C 0.41225 -0.03797 0.67782
 C1442 C 0.42348 -0.03654 0.65809
 C1443 C 0.43070 -0.01729 0.62182
 C1444 C 0.44822 -0.03090 0.61588
 C1445 C 0.45877 -0.02812 0.59596
 C1446 C 0.45214 -0.01184 0.58124
 C1447 C 0.43462 0.00181 0.58686
 C1448 C 0.42411 -0.00057 0.60721
 C1449 C 0.39712 0.01230 0.63353
 C1450 C 0.40742 0.01387 0.61322
 H1451 H 0.38447 0.02403 0.63748
 H1452 H 0.40242 0.02677 0.60216
 H1453 H 0.37915 0.00630 0.67275
 H1454 H 0.41611 -0.05119 0.68894
 H1455 H 0.47217 -0.03896 0.59199
 H1456 H 0.42955 0.01460 0.57569
 H1457 H 0.43542 -0.04904 0.65481
 H1458 H 0.45427 -0.04364 0.62643
 C1459 C -0.08122 0.48063 1.14625
 C1460 C -0.09751 0.49612 1.15162
 C1461 C -0.10821 0.49496 1.17194
 C1462 C -0.10330 0.47817 1.18676
 C1463 C -0.08741 0.46269 1.18123
 C1464 C -0.07646 0.46389 1.16133
 C1465 C -0.06986 0.48262 1.12465
 C1466 C -0.05256 0.46881 1.11849
 C1467 C -0.04217 0.47152 1.09845
 C1468 C -0.04879 0.48789 1.08385
 C1469 C -0.06622 0.50160 1.08961
 C1470 C -0.07654 0.49931 1.11005
 C1471 C -0.10321 0.51243 1.13657
 C1472 C -0.09312 0.51384 1.11615
 H1473 H -0.11578 0.52420 1.14058
 H1474 H -0.09820 0.52669 1.10507
 H1475 H -0.12073 0.50679 1.17603
 H1476 H -0.08336 0.44963 1.19248
 H1477 H -0.02884 0.46064 1.09434
 H1478 H -0.07126 0.51446 1.07850
 H1479 H -0.06450 0.45141 1.15807
 H1480 H -0.04653 0.45600 1.12896
 C1481 C -0.08487 0.52007 0.35643
 C1482 C -0.09651 0.50218 0.34742
 C1483 C -0.10650 0.50392 0.32661
 C1484 C -0.10605 0.52372 0.31486
 C1485 C -0.09516 0.54166 0.32455
 C1486 C -0.08466 0.53985 0.34484
 C1487 C -0.07349 0.51725 0.37810
 C1488 C -0.05932 0.53314 0.38707
 C1489 C -0.04865 0.52957 0.40703
 C1490 C -0.05211 0.51029 0.41876
 C1491 C -0.06629 0.49438 0.41016
 C1492 C -0.07652 0.49748 0.38964
 C1493 C -0.09850 0.48283 0.35942
 C1494 C -0.08912 0.48070 0.38027
 H1495 H -0.10769 0.46918 0.35271
 H1496 H -0.09132 0.46547 0.38896
 H1497 H -0.11555 0.49007 0.32018
 H1498 H -0.09380 0.55708 0.31608
 H1499 H -0.03764 0.54198 0.41337
 H1500 H -0.06859 0.47924 0.41899
 H1501 H -0.07658 0.55423 0.35119
 H1502 H -0.05582 0.54820 0.37873
 C1503 C 0.41584 1.01805 -0.14717
 C1504 C 0.40405 1.00024 -0.15611
 C1505 C 0.39367 1.00217 -0.17672
 C1506 C 0.39394 1.02208 -0.18832
 C1507 C 0.40494 1.03994 -0.17863
 C1508 C 0.41577 1.03796 -0.15854
 C1509 C 0.42768 1.01504 -0.12579
 C1510 C 0.44201 1.03089 -0.11704
 C1511 C 0.45300 1.02726 -0.09731
 C1512 C 0.44981 1.00795 -0.08556
 C1513 C 0.43553 0.99201 -0.09396
 C1514 C 0.42491 0.99519 -0.11431
 C1515 C 0.40233 0.98077 -0.14422
 C1516 C 0.41214 0.97848 -0.12357
 H1517 H 0.39304 0.96717 -0.15087
 H1518 H 0.41013 0.96318 -0.11496
 H1519 H 0.38454 0.98836 -0.18313
 H1520 H 0.40619 1.05544 -0.18697
 H1521 H 0.46401 1.03975 -0.09109
 H1522 H 0.43337 0.97687 -0.08509
 H1523 H 0.42390 1.05230 -0.15220
 H1524 H 0.44534 1.04600 -0.12537
 C1525 C 0.58200 0.48188 -0.14546
 C1526 C 0.60005 0.49566 -0.14963
 C1527 C 0.61123 0.49396 -0.16963
 C1528 C 0.60522 0.47803 -0.18516
 C1529 C 0.58799 0.46379 -0.18060
 C1530 C 0.57642 0.46571 -0.16107
 C1531 C 0.56986 0.48486 -0.12441
 C1532 C 0.55030 0.47372 -0.11993
 C1533 C 0.53949 0.47707 -0.10017
 C1534 C 0.54796 0.49134 -0.08416
 C1535 C 0.56735 0.50273 -0.08853
 C1536 C 0.57805 0.49995 -0.10870
 C1537 C 0.60701 0.51075 -0.13368
 C1538 C 0.59653 0.51252 -0.11348
 H1539 H 0.62098 0.52113 -0.13673
 H1540 H 0.60273 0.52423 -0.10158
 H1541 H 0.62488 0.50469 -0.17298
 H1542 H 0.58329 0.45129 -0.19236
 H1543 H 0.52441 0.46830 -0.09742
 H1544 H 0.57381 0.51415 -0.07647
 H1545 H 0.56335 0.45424 -0.15844
 H1546 H 0.54286 0.46263 -0.13157
 C1547 C 0.08240 -0.01654 0.35445
 C1548 C 0.09982 -0.00203 0.35006
 C1549 C 0.11099 -0.00344 0.33000
 C1550 C 0.10546 -0.01962 0.31456
 C1551 C 0.08842 -0.03412 0.31909
 C1552 C 0.07696 -0.03259 0.33868
 C1553 C 0.07071 -0.01441 0.37586
 C1554 C 0.05234 -0.02715 0.38104
 C1555 C 0.04184 -0.02451 0.40103
 C1556 C 0.04936 -0.00927 0.41659
 C1557 C 0.06774 0.00348 0.41174
 C1558 C 0.07823 0.00126 0.39134
 C1559 C 0.10624 0.01343 0.36589
 C1560 C 0.09585 0.01486 0.38618
 H1561 H 0.11967 0.02444 0.36263
 H1562 H 0.10157 0.02697 0.39791
 H1563 H 0.12441 0.00758 0.32665
 H1564 H 0.08396 -0.04673 0.30735
 H1565 H 0.02769 -0.03455 0.40432
 H1566 H 0.07349 0.01552 0.42354
 H1567 H 0.06416 -0.04436 0.34120
 H1568 H 0.04558 -0.03906 0.36982
 C1569 C 0.14370 1.08201 1.01863
 C1570 C 0.15249 1.09260 1.00013
 C1571 C 0.17332 1.10227 1.00140
 C1572 C 0.18532 1.10249 1.02129
 C1573 C 0.17597 1.09244 1.03973
 C1574 C 0.15565 1.08234 1.03843
 C1575 C 0.12193 1.07107 1.01643
 C1576 C 0.11305 1.05811 1.03317
 C1577 C 0.09305 1.04767 1.03016
 C1578 C 0.08120 1.05014 1.01058
 C1579 C 0.08962 1.06322 0.99385
 C1580 C 0.11017 1.07325 0.99643
 C1581 C 0.14023 1.09386 0.98063
 C1582 C 0.11937 1.08474 0.97896
 H1583 H 0.14678 1.10221 0.96649
 H1584 H 0.11050 1.08629 0.96357
 H1585 H 0.17958 1.11058 0.98711
 H1586 H 0.18470 1.09148 1.05522
 H1587 H 0.08680 1.03751 1.04320
 H1588 H 0.08065 1.06474 0.97851
 H1589 H 0.14959 1.07499 1.05322
 H1590 H 0.12146 1.05533 1.04851
 C1591 C 0.64304 0.58108 0.50914
 C1592 C 0.64328 0.60293 0.51680
 C1593 C 0.66327 0.61381 0.52006
 C1594 C 0.68308 0.60338 0.51528
 C1595 C 0.68275 0.58205 0.50691
 C1596 C 0.66304 0.57099 0.50391
 C1597 C 0.62148 0.56963 0.50700
 C1598 C 0.61973 0.54734 0.50152
 C1599 C 0.59940 0.53717 0.50053
 C1600 C 0.58023 0.54893 0.50466
 C1601 C 0.58166 0.57123 0.50978
 C1602 C 0.60216 0.58154 0.51142
 C1603 C 0.62360 0.61378 0.52106
 C1604 C 0.60347 0.60341 0.51812
 H1605 H 0.62375 0.63058 0.52670
 H1606 H 0.58872 0.61253 0.52162
 H1607 H 0.66344 0.63047 0.52614
 H1608 H 0.69788 0.57374 0.50307
 H1609 H 0.59868 0.51992 0.49655
 H1610 H 0.56690 0.58033 0.51336
 H1611 H 0.66388 0.55459 0.49746
 H1612 H 0.63385 0.53731 0.49840
 C1613 C 0.64334 0.41676 -0.01229
 C1614 C 0.65452 0.41855 -0.03241
 C1615 C 0.67463 0.40801 -0.03529
 C1616 C 0.68465 0.39631 -0.01805
 C1617 C 0.67395 0.39569 0.00233
 C1618 C 0.65353 0.40552 0.00510
 C1619 C 0.62146 0.42757 -0.01024
 C1620 C 0.60779 0.42472 0.00804
 C1621 C 0.58772 0.43555 0.00929
 C1622 C 0.58107 0.44973 -0.00745
 C1623 C 0.59426 0.45224 -0.02595
 C1624 C 0.61408 0.44092 -0.02769
 C1625 C 0.64586 0.43130 -0.04940
 C1626 C 0.62632 0.44266 -0.04690
 H1627 H 0.65455 0.43289 -0.06474
 H1628 H 0.62054 0.45267 -0.06037
 H1629 H 0.68295 0.40996 -0.05078
 H1630 H 0.68078 0.38674 0.01603
 H1631 H 0.57762 0.43328 0.02361
 H1632 H 0.58889 0.46279 -0.03918
 H1633 H 0.64607 0.40428 0.02103
 H1634 H 0.61222 0.41409 0.02142
 C1635 C 0.14124 -0.08659 0.48799
 C1636 C 0.16068 -0.07462 0.49209
 C1637 C 0.18111 -0.08477 0.48998
 C1638 C 0.18258 -0.10651 0.48295
 C1639 C 0.16340 -0.11828 0.47854
 C1640 C 0.14296 -0.10855 0.48117
 C1641 C 0.11975 -0.07508 0.49030
 C1642 C 0.09943 -0.08577 0.48803
 C1643 C 0.07988 -0.07411 0.48970
 C1644 C 0.08012 -0.05152 0.49342
 C1645 C 0.10023 -0.04083 0.49620
 C1646 C 0.11993 -0.05243 0.49502
 C1647 C 0.15965 -0.05243 0.49759
 C1648 C 0.13973 -0.04150 0.49867
 H1649 H 0.17451 -0.04324 0.50061
 H1650 H 0.13984 -0.02421 0.50253
 H1651 H 0.19596 -0.07552 0.49298
 H1652 H 0.16428 -0.13508 0.47299
 H1653 H 0.06453 -0.08272 0.48763
 H1654 H 0.10053 -0.02343 0.49955
 H1655 H 0.12877 -0.11833 0.47735
 H1656 H 0.09827 -0.10310 0.48503
 C1657 C 0.35803 -0.08907 0.50957
 C1658 C 0.33883 -0.07911 0.50135
 C1659 C 0.31846 -0.08928 0.50405
 C1660 C 0.31653 -0.10870 0.51621
 C1661 C 0.33573 -0.11807 0.52492
 C1662 C 0.35613 -0.10860 0.52145
 C1663 C 0.37946 -0.07781 0.50619
 C1664 C 0.39969 -0.08750 0.51153
 C1665 C 0.41914 -0.07595 0.50896
 C1666 C 0.41888 -0.05442 0.50134
 C1667 C 0.39895 -0.04485 0.49529
 C1668 C 0.37933 -0.05658 0.49714
 C1669 C 0.33995 -0.05858 0.49136
 C1670 C 0.35968 -0.04732 0.48981
 H1671 H 0.32523 -0.05079 0.48525
 H1672 H 0.35959 -0.03121 0.48255
 H1673 H 0.30395 -0.08110 0.49794
 H1674 H 0.33523 -0.13326 0.53391
 H1675 H 0.43442 -0.08366 0.51355
 H1676 H 0.39877 -0.02835 0.48892
 H1677 H 0.37015 -0.11658 0.52863
 H1678 H 0.40084 -0.10397 0.51761
 C1679 C -0.14242 0.41127 1.01144
 C1680 C -0.16196 0.42358 1.00996
 C1681 C -0.18227 0.41323 1.01217
 C1682 C -0.18344 0.39090 1.01680
 C1683 C -0.16414 0.37878 1.01876
 C1684 C -0.14385 0.38875 1.01594
 C1685 C -0.12106 0.42296 1.00898
 C1686 C -0.10081 0.41204 1.00844
 C1687 C -0.08133 0.42375 1.00671
 C1688 C -0.08149 0.44662 1.00579
 C1689 C -0.10161 0.45760 1.00575
 C1690 C -0.12131 0.44596 1.00696
 C1691 C -0.16110 0.44621 1.00702
 C1692 C -0.14121 0.45721 1.00595
 H1693 H -0.17605 0.45565 1.00604
 H1694 H -0.14141 0.47480 1.00414
 H1695 H -0.19722 0.42270 1.01115
 H1696 H -0.16481 0.36153 1.02253
 H1697 H -0.06605 0.41484 1.00642
 H1698 H -0.10195 0.47525 1.00452
 H1699 H -0.12953 0.37867 1.01783
 H1700 H -0.09964 0.39450 1.00918
 C1701 C -0.14328 0.58643 0.48817
 C1702 C -0.16262 0.57646 0.49574
 C1703 C -0.18280 0.58715 0.49341
 C1704 C -0.18441 0.60723 0.48232
 C1705 C -0.16506 0.61673 0.47439
 C1706 C -0.14485 0.60664 0.47744
 C1707 C -0.12207 0.57455 0.49104
 C1708 C -0.10168 0.58397 0.48610
 C1709 C -0.08245 0.57192 0.48834
 C1710 C -0.08311 0.55016 0.49521
 C1711 C -0.10321 0.54079 0.50074
 C1712 C -0.12258 0.55296 0.49919
 C1713 C -0.16186 0.55547 0.50474
 C1714 C -0.14234 0.54378 0.50596
 H1715 H -0.17669 0.54769 0.51037
 H1716 H -0.14271 0.52737 0.51251
 H1717 H -0.19743 0.57894 0.49893
 H1718 H -0.16527 0.63243 0.46634
 H1719 H -0.06705 0.57947 0.48420
 H1720 H -0.10370 0.52410 0.50658
 H1721 H -0.13072 0.61477 0.47088
 H1722 H -0.10021 0.60061 0.48063
 C1723 C 0.35615 1.08402 -0.01451
 C1724 C 0.33704 1.07360 -0.00700
 C1725 C 0.31666 1.08393 -0.00923
 C1726 C 0.31464 1.10392 -0.02045
 C1727 C 0.33370 1.11358 -0.02882
 C1728 C 0.35413 1.10397 -0.02566
 C1729 C 0.37764 1.07280 -0.01124
 C1730 C 0.39778 1.08313 -0.01515
 C1731 C 0.41735 1.07174 -0.01262
 C1732 C 0.41731 1.04968 -0.00666
 C1733 C 0.39741 1.03945 -0.00191
 C1734 C 0.37767 1.05106 -0.00352
 C1735 C 0.33828 1.05253 0.00181
 C1736 C 0.35807 1.04125 0.00288
 H1737 H 0.32362 1.04436 0.00731
 H1738 H 0.35807 1.02473 0.00917
 H1739 H 0.30219 1.07557 -0.00351
 H1740 H 0.33308 1.12911 -0.03719
 H1741 H 0.43255 1.08009 -0.01582
 H1742 H 0.39734 1.02258 0.00339
 H1743 H 0.36810 1.11218 -0.03247
 H1744 H 0.39875 1.10004 -0.01992
 C1745 C 0.01046 1.14517 1.08357
 C1746 C 0.02426 1.14633 1.10224
 C1747 C 0.02763 1.16638 1.11307
 C1748 C 0.01667 1.18548 1.10623
 C1749 C 0.00202 1.18378 1.08832
 C1750 C -0.00090 1.16406 1.07709
 C1751 C 0.00831 1.12376 1.07170
 C1752 C -0.00264 1.12159 1.05137
 C1753 C -0.00377 1.10139 1.04072
 C1754 C 0.00554 1.08280 1.05026
 C1755 C 0.01647 1.08470 1.07047
 C1756 C 0.01845 1.10513 1.08093
 C1757 C 0.03433 1.12739 1.11025
 C1758 C 0.03110 1.10717 1.10009
 H1759 H 0.04469 1.12816 1.12474
 H1760 H 0.03912 1.09301 1.10703
 H1761 H 0.03811 1.16675 1.12748
 H1762 H -0.00653 1.19793 1.08207
 H1763 H -0.01206 1.10023 1.02497
 H1764 H 0.02420 1.07046 1.07756
 H1765 H -0.01220 1.16396 1.06340
 H1766 H -0.01000 1.13535 1.04317
 C1767 C 0.50768 0.64561 0.58416
 C1768 C 0.51561 0.64513 0.60605
 C1769 C 0.51948 0.66474 0.61750
 C1770 C 0.51486 0.68488 0.60768
 C1771 C 0.50614 0.68530 0.58636
 C1772 C 0.50265 0.66596 0.57468
 C1773 C 0.50491 0.62441 0.57208
 C1774 C 0.49941 0.62328 0.54959
 C1775 C 0.49770 0.60317 0.53889
 C1776 C 0.50105 0.58367 0.55034
 C1777 C 0.50630 0.58454 0.57278
 C1778 C 0.50876 0.60473 0.58357
 C1779 C 0.51946 0.62511 0.61640
 C1780 C 0.51574 0.60534 0.60553
 H1781 H 0.52530 0.62471 0.63324
 H1782 H 0.51886 0.59029 0.61430
 H1783 H 0.52584 0.66437 0.63416
 H1784 H 0.50240 0.70072 0.57856
 H1785 H 0.49375 0.60287 0.52152
 H1786 H 0.50937 0.56952 0.58161
 H1787 H 0.49595 0.66733 0.55832
 H1788 H 0.49685 0.63770 0.53984
 C1789 C -0.01375 0.64300 0.41913
 C1790 C 0.00041 0.64711 0.40136
 C1791 C -0.00086 0.66708 0.39009
 C1792 C -0.01669 0.68259 0.39580
 C1793 C -0.03105 0.67822 0.41297
 C1794 C -0.02959 0.65877 0.42458
 C1795 C -0.01164 0.62180 0.43108
 C1796 C -0.02362 0.61715 0.45009
 C1797 C -0.02126 0.59721 0.46065
 C1798 C -0.00707 0.58117 0.45253
 C1799 C 0.00516 0.58565 0.43367
 C1800 C 0.00327 0.60600 0.42316
 C1801 C 0.01531 0.63107 0.39468
 C1802 C 0.01644 0.61083 0.40510
 H1803 H 0.02603 0.63409 0.38096
 H1804 H 0.02802 0.59887 0.39910
 H1805 H 0.00999 0.67034 0.37651
 H1806 H -0.04346 0.69000 0.41744
 H1807 H -0.03078 0.59433 0.47525
 H1808 H 0.01646 0.57352 0.42747
 H1809 H -0.04125 0.65631 0.43749
 H1810 H -0.03470 0.62876 0.45732
 C1811 C 0.48494 1.14419 -0.08470
 C1812 C 0.50352 1.15387 -0.09425
 C1813 C 0.50182 1.17445 -0.10433
 C1814 C 0.48149 1.18525 -0.10596
 C1815 C 0.46307 1.17500 -0.09685
 C1816 C 0.46474 1.15495 -0.08642
 C1817 C 0.48746 1.12274 -0.07333
 C1818 C 0.47037 1.11308 -0.06149
 C1819 C 0.47351 1.09333 -0.05082
 C1820 C 0.49359 1.08252 -0.05180
 C1821 C 0.51077 1.09174 -0.06367
 C1822 C 0.50798 1.11208 -0.07402
 C1823 C 0.52354 1.14273 -0.09402
 C1824 C 0.52563 1.12212 -0.08447
 H1825 H 0.53778 1.14995 -0.10155
 H1826 H 0.54141 1.11412 -0.08490
 H1827 H 0.51619 1.18143 -0.11182
 H1828 H 0.44723 1.18283 -0.09683
 H1829 H 0.46009 1.08635 -0.04179
 H1830 H 0.52644 1.08351 -0.06414
 H1831 H 0.44990 1.14821 -0.07990
 H1832 H 0.45456 1.12061 -0.05986
 C1833 C 0.51353 0.35791 -0.08504
 C1834 C 0.50557 0.33874 -0.07505
 C1835 C 0.50781 0.31844 -0.08564
 C1836 C 0.51925 0.31656 -0.10557
 C1837 C 0.52769 0.33573 -0.11496
 C1838 C 0.52471 0.35604 -0.10503
 C1839 C 0.51051 0.37929 -0.07343
 C1840 C 0.51561 0.39948 -0.08311
 C1841 C 0.51307 0.41891 -0.07139
 C1842 C 0.50574 0.41870 -0.04969
 C1843 C 0.50013 0.39878 -0.04002
 C1844 C 0.50194 0.37916 -0.05192
 C1845 C 0.49619 0.33984 -0.05416
 C1846 C 0.49491 0.35953 -0.04262
 H1847 H 0.49029 0.32515 -0.04634
 H1848 H 0.48804 0.35943 -0.02629
 H1849 H 0.50189 0.30393 -0.07750
 H1850 H 0.53606 0.33531 -0.13054
 H1851 H 0.51733 0.43416 -0.07916
 H1852 H 0.49397 0.39862 -0.02338
 H1853 H 0.53166 0.37002 -0.11309
 H1854 H 0.52138 0.40065 -0.09974
 C1855 C 0.01214 -0.14406 0.41337
 C1856 C 0.00947 -0.16352 0.42553
 C1857 C 0.01232 -0.18390 0.41532
 C1858 C 0.01869 -0.18524 0.39332
 C1859 C 0.02180 -0.16602 0.38140
 C1860 C 0.01842 -0.14566 0.39120
 C1861 C 0.00890 -0.12263 0.42491
 C1862 C 0.00958 -0.10241 0.41400
 C1863 C 0.00710 -0.08287 0.42563
 C1864 C 0.00413 -0.08296 0.44843
 C1865 C 0.00288 -0.10303 0.45935
 C1866 C 0.00488 -0.12278 0.44776
 C1867 C 0.00462 -0.16253 0.44793
 C1868 C 0.00275 -0.14260 0.45888
 H1869 H 0.00272 -0.17741 0.45727
 H1870 H -0.00057 -0.14272 0.47633
 H1871 H 0.01034 -0.19877 0.42468
 H1872 H 0.02683 -0.16679 0.36440
 H1873 H 0.00793 -0.06762 0.41679
 H1874 H 0.00013 -0.10330 0.47691
 H1875 H 0.02122 -0.13142 0.38128
 H1876 H 0.01193 -0.10130 0.39652
 C1877 C 0.48571 -0.14695 0.58299
 C1878 C 0.49966 -0.15085 0.60120
 C1879 C 0.49739 -0.17012 0.61344
 C1880 C 0.48073 -0.18505 0.60830
 C1881 C 0.46647 -0.18075 0.59079
 C1882 C 0.46893 -0.16203 0.57820
 C1883 C 0.48900 -0.12660 0.56993
 C1884 C 0.47746 -0.12244 0.55032
 C1885 C 0.48068 -0.10309 0.53894
 C1886 C 0.49534 -0.08723 0.54681
 C1887 C 0.50734 -0.09138 0.56608
 C1888 C 0.50458 -0.11114 0.57743
 C1889 C 0.51537 -0.13528 0.60734
 C1890 C 0.51747 -0.11565 0.59599
 H1891 H 0.52593 -0.13813 0.62140
 H1892 H 0.52958 -0.10396 0.60164
 H1893 H 0.50819 -0.17329 0.62726
 H1894 H 0.45345 -0.19210 0.58672
 H1895 H 0.47131 -0.10040 0.52404
 H1896 H 0.51901 -0.07940 0.57208
 H1897 H 0.45734 -0.15956 0.56503
 H1898 H 0.46600 -0.13396 0.54336
 C1899 C -0.01912 0.35474 1.08574
 C1900 C -0.00105 0.34572 1.09707
 C1901 C -0.00302 0.32541 1.10757
 C1902 C -0.02317 0.31419 1.10791
 C1903 C -0.04123 0.32391 1.09728
 C1904 C -0.03924 0.34370 1.08633
 C1905 C -0.01613 0.37585 1.07382
 C1906 C -0.03238 0.38475 1.06003
 C1907 C -0.02872 0.40421 1.04894
 C1908 C -0.00898 0.41550 1.05151
 C1909 C 0.00733 0.40696 1.06529
 C1910 C 0.00410 0.38693 1.07600
 C1911 C 0.01874 0.35723 1.09821
 C1912 C 0.02111 0.37759 1.08829
 H1913 H 0.03255 0.35052 1.10714
 H1914 H 0.03667 0.38591 1.08984
 H1915 H 0.01099 0.31897 1.11637
 H1916 H -0.05694 0.31581 1.09646
 H1917 H -0.04149 0.41059 1.03838
 H1918 H 0.02279 0.41549 1.06698
 H1919 H -0.05374 0.35007 1.07850
 H1920 H -0.04785 0.37676 1.05720
 C1921 C 0.76082 0.33237 0.10849
 C1922 C 0.78099 0.33014 0.09757
 C1923 C 0.78408 0.33997 0.07711
 C1924 C 0.76705 0.35141 0.06650
 C1925 C 0.74660 0.35238 0.07692
 C1926 C 0.74360 0.34325 0.09768
 C1927 C 0.75855 0.32235 0.13077
 C1928 C 0.74017 0.32570 0.14419
 C1929 C 0.73866 0.31546 0.16460
 C1930 C 0.75525 0.30141 0.17184
 C1931 C 0.77387 0.29852 0.15895
 C1932 C 0.77586 0.30922 0.13880
 C1933 C 0.79784 0.31768 0.10687
 C1934 C 0.79515 0.30704 0.12680
 H1935 H 0.81323 0.31577 0.09839
 H1936 H 0.80851 0.29722 0.13309
 H1937 H 0.79962 0.33771 0.06901
 H1938 H 0.73304 0.36114 0.06962
 H1939 H 0.72423 0.31799 0.17445
 H1940 H 0.78696 0.28806 0.16479
 H1941 H 0.72765 0.34476 0.10493
 H1942 H 0.72689 0.33621 0.13926
 C1943 C 0.26078 0.83238 0.60762
 C1944 C 0.27826 0.82583 0.59401
 C1945 C 0.28134 0.83583 0.57362
 C1946 C 0.26691 0.85197 0.56615
 C1947 C 0.24913 0.85793 0.57922
 C1948 C 0.24611 0.84836 0.59977
 C1949 C 0.25850 0.82169 0.62960
 C1950 C 0.24279 0.82812 0.64517
 C1951 C 0.24115 0.81731 0.66526
 C1952 C 0.25493 0.79971 0.67020
 C1953 C 0.27095 0.79354 0.65504
 C1954 C 0.27303 0.80453 0.63504
 C1955 C 0.29244 0.80916 0.60068
 C1956 C 0.28967 0.79852 0.62060
 H1957 H 0.30573 0.80406 0.59018
 H1958 H 0.30090 0.78550 0.62486
 H1959 H 0.29488 0.83089 0.56335
 H1960 H 0.23778 0.87034 0.57370
 H1961 H 0.22875 0.82244 0.67678
 H1962 H 0.28200 0.78025 0.65891
 H1963 H 0.23220 0.85360 0.60917
 H1964 H 0.23169 0.84147 0.64219
 C1965 C 0.74093 0.66947 0.60413
 C1966 C 0.73273 0.64787 0.60440
 C1967 C 0.72861 0.63672 0.58456
 C1968 C 0.73307 0.64662 0.56436
 C1969 C 0.74176 0.66777 0.56417
 C1970 C 0.74561 0.67910 0.58373
 C1971 C 0.74427 0.68115 0.62558
 C1972 C 0.75068 0.70320 0.62691
 C1973 C 0.75283 0.71362 0.64718
 C1974 C 0.74896 0.70235 0.66673
 C1975 C 0.74293 0.68027 0.66570
 C1976 C 0.74017 0.66973 0.64528
 C1977 C 0.72884 0.63751 0.62445
 C1978 C 0.73273 0.64811 0.64444
 H1979 H 0.72275 0.62090 0.62470
 H1980 H 0.72949 0.63936 0.65948
 H1981 H 0.72223 0.62021 0.58480
 H1982 H 0.74530 0.67572 0.54876
 H1983 H 0.75749 0.73069 0.64756
 H1984 H 0.73955 0.67154 0.68074
 H1985 H 0.75231 0.69531 0.58245
 H1986 H 0.75369 0.71288 0.61252
 C1987 C 0.24603 0.16753 0.10524
 C1988 C 0.23925 0.14545 0.10588
 C1989 C 0.23575 0.13381 0.08625
 C1990 C 0.23928 0.14373 0.06588
 C1991 C 0.24715 0.16519 0.06531
 C1992 C 0.25048 0.17698 0.08470
 C1993 C 0.24785 0.17991 0.12646
 C1994 C 0.25218 0.20248 0.12739
 C1995 C 0.25285 0.21349 0.14746
 C1996 C 0.24950 0.20232 0.16718
 C1997 C 0.24544 0.17978 0.16651
 C1998 C 0.24417 0.16862 0.14632
 C1999 C 0.23582 0.13521 0.12607
 C2000 C 0.23855 0.14646 0.14586
 H2001 H 0.23089 0.11823 0.12658
 H2002 H 0.23566 0.13780 0.16104
 H2003 H 0.23005 0.11706 0.08677
 H2004 H 0.25001 0.17313 0.04975
 H2005 H 0.25603 0.23089 0.14754
 H2006 H 0.24251 0.17107 0.18165
 H2007 H 0.25633 0.19350 0.08321
 H2008 H 0.25466 0.21205 0.11282
 C2009 C 0.25848 0.16742 0.89168
 C2010 C 0.27564 0.17376 0.90610
 C2011 C 0.27856 0.16308 0.92619
 C2012 C 0.26428 0.14647 0.93257
 C2013 C 0.24665 0.14085 0.91886
 C2014 C 0.24380 0.15111 0.89857
 C2015 C 0.25667 0.17858 0.86986
 C2016 C 0.24154 0.17225 0.85340
 C2017 C 0.24056 0.18329 0.83336
 C2018 C 0.25440 0.20105 0.82940
 C2019 C 0.26972 0.20720 0.84552
 C2020 C 0.27119 0.19596 0.86543
 C2021 C 0.28976 0.19076 0.90047
 C2022 C 0.28736 0.20186 0.88073
 H2023 H 0.30277 0.19571 0.91160
 H2024 H 0.29857 0.21507 0.87724
 H2025 H 0.29198 0.16771 0.93699
 H2026 H 0.23541 0.12810 0.92362
 H2027 H 0.22870 0.17818 0.82108
 H2028 H 0.28083 0.22061 0.84240
 H2029 H 0.23008 0.14606 0.88855
 H2030 H 0.23049 0.15874 0.85563
 C2031 C 0.76353 0.67488 0.39509
 C2032 C 0.74935 0.65716 0.39934
 C2033 C 0.75108 0.64578 0.41928
 C2034 C 0.76733 0.65135 0.43467
 C2035 C 0.78149 0.66869 0.43031
 C2036 C 0.77959 0.68041 0.41087
 C2037 C 0.76124 0.68661 0.37368
 C2038 C 0.77372 0.70517 0.36858
 C2039 C 0.77131 0.71540 0.34838
 C2040 C 0.75648 0.70744 0.33258
 C2041 C 0.74379 0.68904 0.33750
 C2042 C 0.74584 0.67879 0.35805
 C2043 C 0.73398 0.65059 0.38345
 C2044 C 0.73247 0.66098 0.36314
 H2045 H 0.72319 0.63696 0.38662
 H2046 H 0.72053 0.65507 0.35130
 H2047 H 0.74035 0.63210 0.42252
 H2048 H 0.79417 0.67313 0.44202
 H2049 H 0.78134 0.72955 0.34504
 H2050 H 0.73207 0.68295 0.32551
 H2051 H 0.79115 0.69343 0.40843
 H2052 H 0.78536 0.71220 0.37994
 C2053 C 0.24111 0.83492 0.39158
 C2054 C 0.24470 0.82310 0.41121
 C2055 C 0.24149 0.83322 0.43166
 C2056 C 0.23386 0.85474 0.43291
 C2057 C 0.22987 0.86630 0.41351
 C2058 C 0.23358 0.85662 0.39308
 C2059 C 0.24467 0.82348 0.37008
 C2060 C 0.24302 0.83411 0.34965
 C2061 C 0.24556 0.82247 0.33006
 C2062 C 0.24960 0.79995 0.33032
 C2063 C 0.25199 0.78936 0.35056
 C2064 C 0.24989 0.80097 0.37035
 C2065 C 0.25082 0.80110 0.41032
 C2066 C 0.25299 0.79017 0.39034
 H2067 H 0.25346 0.79202 0.42534
 H2068 H 0.25724 0.77300 0.39055
 H2069 H 0.24419 0.82411 0.44666
 H2070 H 0.22389 0.88294 0.41420
 H2071 H 0.24375 0.83103 0.31463
 H2072 H 0.25554 0.77203 0.35091
 H2073 H 0.23005 0.86625 0.37871
 H2074 H 0.23975 0.85136 0.34844
 C2075 C 0.74097 0.33546 0.89171
 C2076 C 0.74339 0.32349 0.91141
 C2077 C 0.74065 0.33388 0.93178
 C2078 C 0.73468 0.35593 0.93290
 C2079 C 0.73194 0.36772 0.91343
 C2080 C 0.73520 0.35771 0.89307
 C2081 C 0.74387 0.32367 0.87028
 C2082 C 0.74316 0.33427 0.84980
 C2083 C 0.74518 0.32239 0.83028
 C2084 C 0.74775 0.29966 0.83067
 C2085 C 0.74906 0.28902 0.85098
 C2086 C 0.74747 0.30084 0.87069
 C2087 C 0.74784 0.30108 0.91067
 C2088 C 0.74950 0.28994 0.89075
 H2089 H 0.74959 0.29190 0.92574
 H2090 H 0.75250 0.27251 0.89107
 H2091 H 0.74234 0.32461 0.94682
 H2092 H 0.72724 0.38476 0.91400
 H2093 H 0.74421 0.33099 0.81481
 H2094 H 0.75147 0.27149 0.85144
 H2095 H 0.73267 0.36754 0.87864
 H2096 H 0.74106 0.35169 0.84848
 C2097 C 0.83457 0.39161 0.24530
 C2098 C 0.82268 0.41131 0.24765
 C2099 C 0.83319 0.43149 0.24509
 C2100 C 0.85529 0.43239 0.23937
 C2101 C 0.86709 0.41293 0.23708
 C2102 C 0.85696 0.39278 0.24016
 C2103 C 0.82256 0.37039 0.24747
 C2104 C 0.83297 0.34988 0.24627
 C2105 C 0.82087 0.33059 0.24752
 C2106 C 0.79811 0.33125 0.24980
 C2107 C 0.78767 0.35156 0.25155
 C2108 C 0.79969 0.37103 0.25065
 C2109 C 0.80021 0.41077 0.25171
 C2110 C 0.78891 0.39107 0.25291
 H2111 H 0.79109 0.42583 0.25347
 H2112 H 0.77144 0.39154 0.25560
 H2113 H 0.82394 0.44653 0.24648
 H2114 H 0.88418 0.41335 0.23264
 H2115 H 0.82932 0.31511 0.24627
 H2116 H 0.77011 0.35224 0.25375
 H2117 H 0.86680 0.37837 0.23787
 H2118 H 0.85039 0.34835 0.24436
 C2119 C 0.33352 0.89104 0.74184
 C2120 C 0.32159 0.91077 0.74361
 C2121 C 0.33216 0.93090 0.74086
 C2122 C 0.35435 0.93168 0.73549
 C2123 C 0.36614 0.91219 0.73359
 C2124 C 0.35596 0.89210 0.73688
 C2125 C 0.32151 0.86988 0.74445
 C2126 C 0.33202 0.84940 0.74417
 C2127 C 0.31997 0.83014 0.74589
 C2128 C 0.29716 0.83076 0.74771
 C2129 C 0.28660 0.85107 0.74855
 C2130 C 0.29859 0.87055 0.74724
 C2131 C 0.29904 0.91029 0.74730
 C2132 C 0.28774 0.89062 0.74876
 H2133 H 0.28989 0.92539 0.74857
 H2134 H 0.27022 0.89113 0.75115
 H2135 H 0.32292 0.94597 0.74191
 H2136 H 0.38330 0.91253 0.72936
 H2137 H 0.32854 0.81468 0.74542
 H2138 H 0.26901 0.85174 0.75040
 H2139 H 0.36580 0.87764 0.73494
 H2140 H 0.34949 0.84787 0.74267
 C2141 C 0.16694 0.89162 0.25751
 C2142 C 0.17740 0.91085 0.25029
 C2143 C 0.16722 0.93124 0.25299
 C2144 C 0.14728 0.93310 0.26428
 C2145 C 0.13723 0.91382 0.27168
 C2146 C 0.14674 0.89346 0.26817
 C2147 C 0.17838 0.87022 0.25454
 C2148 C 0.16848 0.85002 0.25926
 C2149 C 0.18020 0.83061 0.25727
 C2150 C 0.20211 0.83085 0.25082
 C2151 C 0.21193 0.85076 0.24534
 C2152 C 0.20008 0.87035 0.24669
 C2153 C 0.19842 0.90972 0.24140
 C2154 C 0.20971 0.88997 0.24012
 H2155 H 0.20656 0.92443 0.23601
 H2156 H 0.22619 0.89006 0.23375
 H2157 H 0.17576 0.94579 0.24777
 H2158 H 0.12156 0.91427 0.27977
 H2159 H 0.17227 0.81538 0.26136
 H2160 H 0.22873 0.85095 0.23983
 H2161 H 0.13824 0.87943 0.27445
 H2162 H 0.15172 0.84884 0.26445
 C2163 C 0.67112 0.39365 0.75466
 C2164 C 0.64898 0.39323 0.76118
 C2165 C 0.63777 0.41286 0.76505
 C2166 C 0.64818 0.43302 0.76207
 C2167 C 0.66976 0.43340 0.75460
 C2168 C 0.68113 0.41401 0.75095
 C2169 C 0.68297 0.37239 0.75220
 C2170 C 0.70554 0.37115 0.74799
 C2171 C 0.71605 0.35100 0.74681
 C2172 C 0.70435 0.33155 0.74947
 C2173 C 0.68180 0.33252 0.75330
 C2174 C 0.67115 0.35276 0.75514
 C2175 C 0.63822 0.37326 0.76390
 C2176 C 0.64898 0.35345 0.76063
 H2177 H 0.62120 0.37292 0.76865
 H2178 H 0.63994 0.33844 0.76298
 H2179 H 0.62093 0.41250 0.77043
 H2180 H 0.67808 0.44880 0.75216
 H2181 H 0.73348 0.35064 0.74387
 H2182 H 0.67270 0.31756 0.75576
 H2183 H 0.69774 0.41537 0.74537
 H2184 H 0.71550 0.38552 0.74605
 C2185 C 0.67042 0.60805 0.74605
 C2186 C 0.64823 0.60827 0.73933
 C2187 C 0.63695 0.58852 0.73614
 C2188 C 0.64737 0.56847 0.73994
 C2189 C 0.66896 0.56835 0.74774
 C2190 C 0.68037 0.58785 0.75077
 C2191 C 0.68241 0.62934 0.74752
 C2192 C 0.70504 0.63060 0.75167
 C2193 C 0.71570 0.65068 0.75188
 C2194 C 0.70413 0.67009 0.74827
 C2195 C 0.68151 0.66914 0.74448
 C2196 C 0.67068 0.64889 0.74361
 C2197 C 0.63753 0.62816 0.73568
 C2198 C 0.64843 0.64804 0.73810
 H2199 H 0.62046 0.62835 0.73080
 H2200 H 0.63943 0.66297 0.73503
 H2201 H 0.62010 0.58870 0.73052
 H2202 H 0.67729 0.55306 0.75082
 H2203 H 0.73317 0.65102 0.75488
 H2204 H 0.67252 0.68406 0.74132
 H2205 H 0.69700 0.58668 0.75661
 H2206 H 0.71493 0.61629 0.75430
 C2207 C 0.16587 0.11055 0.24347
 C2208 C 0.17814 0.09119 0.24658
 C2209 C 0.16806 0.07072 0.24427
 C2210 C 0.14602 0.06914 0.23807
 C2211 C 0.13387 0.08826 0.23492
 C2212 C 0.14357 0.10874 0.23775
 C2213 C 0.17745 0.13207 0.24550
 C2214 C 0.16665 0.15234 0.24373
 C2215 C 0.17840 0.17189 0.24479
 C2216 C 0.20117 0.17172 0.24744
 C2217 C 0.21197 0.15168 0.24985
 C2218 C 0.20032 0.13197 0.24917
 C2219 C 0.20057 0.09230 0.25113
 C2220 C 0.21147 0.11224 0.25210
 H2221 H 0.20996 0.07748 0.25345
 H2222 H 0.22894 0.11220 0.25517
 H2223 H 0.17761 0.05595 0.24629
 H2224 H 0.11682 0.08733 0.23006
 H2225 H 0.16968 0.18718 0.24303
 H2226 H 0.22953 0.15140 0.25235
 H2227 H 0.13349 0.12287 0.23483
 H2228 H 0.14920 0.15345 0.24147
 C2229 C 0.33145 0.10758 0.75106
 C2230 C 0.35341 0.10772 0.75850
 C2231 C 0.36446 0.08793 0.76200
 C2232 C 0.35403 0.06790 0.75784
 C2233 C 0.33270 0.06785 0.74935
 C2234 C 0.32151 0.08739 0.74599
 C2235 C 0.31963 0.12892 0.74928
 C2236 C 0.29715 0.13028 0.74439
 C2237 C 0.28659 0.15041 0.74400
 C2238 C 0.29815 0.16976 0.74814
 C2239 C 0.32064 0.16871 0.75262
 C2240 C 0.33134 0.14843 0.75369
 C2241 C 0.36411 0.12757 0.76259
 C2242 C 0.35340 0.14750 0.75993
 H2243 H 0.38101 0.12771 0.76803
 H2244 H 0.36238 0.16240 0.76339
 H2245 H 0.38113 0.08806 0.76817
 H2246 H 0.32435 0.05259 0.74600
 H2247 H 0.26921 0.15084 0.74049
 H2248 H 0.32960 0.18360 0.75620
 H2249 H 0.30506 0.08627 0.73962
 H2250 H 0.28727 0.11600 0.74133
 C2251 C 0.83062 0.60836 0.25482
 C2252 C 0.85296 0.60861 0.26100
 C2253 C 0.86419 0.58888 0.26424
 C2254 C 0.85359 0.56881 0.26092
 C2255 C 0.83186 0.56861 0.25354
 C2256 C 0.82046 0.58811 0.25053
 C2257 C 0.81873 0.62969 0.25333
 C2258 C 0.79598 0.63103 0.24989
 C2259 C 0.78551 0.65123 0.24941
 C2260 C 0.79742 0.67062 0.25201
 C2261 C 0.82010 0.66953 0.25530
 C2262 C 0.83074 0.64924 0.25646
 C2263 C 0.86389 0.62850 0.26406
 C2264 C 0.85310 0.64839 0.26146
 H2265 H 0.88107 0.62871 0.26852
 H2266 H 0.86229 0.66333 0.26398
 H2267 H 0.88114 0.58909 0.26956
 H2268 H 0.82341 0.55328 0.25083
 H2269 H 0.76797 0.65168 0.24690
 H2270 H 0.82936 0.68446 0.25774
 H2271 H 0.80371 0.58693 0.24504
 H2272 H 0.78590 0.61670 0.24798
 C2273 C 0.89142 0.25633 0.17210
 C2274 C 0.89121 0.26257 0.14976
 C2275 C 0.91098 0.26571 0.13865
 C2276 C 0.93108 0.26222 0.14932
 C2277 C 0.93123 0.25488 0.17106
 C2278 C 0.91169 0.25200 0.18236
 C2279 C 0.87004 0.25475 0.18384
 C2280 C 0.86866 0.25106 0.20658
 C2281 C 0.84844 0.25043 0.21693
 C2282 C 0.82900 0.25315 0.20491
 C2283 C 0.83013 0.25664 0.18220
 C2284 C 0.85047 0.25794 0.17170
 C2285 C 0.87129 0.26569 0.13871
 C2286 C 0.85136 0.26305 0.14934
 H2287 H 0.87110 0.27021 0.12153
 H2288 H 0.83643 0.26559 0.14003
 H2289 H 0.91078 0.27099 0.12168
 H2290 H 0.94656 0.25204 0.17958
 H2291 H 0.84803 0.24773 0.23448
 H2292 H 0.81521 0.25907 0.17282
 H2293 H 0.91285 0.24652 0.19911
 H2294 H 0.88300 0.24905 0.21678
 C2295 C 0.39083 0.76059 0.67076
 C2296 C 0.40404 0.77866 0.67681
 C2297 C 0.42444 0.78170 0.66699
 C2298 C 0.43235 0.76660 0.65166
 C2299 C 0.41975 0.74822 0.64629
 C2300 C 0.39915 0.74527 0.65561
 C2301 C 0.36879 0.75842 0.68114
 C2302 C 0.35347 0.74226 0.67492
 C2303 C 0.33326 0.74081 0.68540
 C2304 C 0.32803 0.75521 0.70252
 C2305 C 0.34295 0.77162 0.70846
 C2306 C 0.36299 0.77357 0.69772
 C2307 C 0.39699 0.79346 0.69283
 C2308 C 0.37707 0.79075 0.70333
 H2309 H 0.40718 0.80720 0.69756
 H2310 H 0.37250 0.80247 0.71587
 H2311 H 0.43437 0.79572 0.67147
 H2312 H 0.42568 0.73635 0.63452
 H2313 H 0.32189 0.72814 0.68043
 H2314 H 0.33879 0.78314 0.72133
 H2315 H 0.39007 0.73088 0.65086
 H2316 H 0.35673 0.73070 0.66193
 C2317 C 0.39466 0.24301 0.83122
 C2318 C 0.40866 0.22587 0.82451
 C2319 C 0.42881 0.22275 0.83509
 C2320 C 0.43566 0.23676 0.85203
 C2321 C 0.42237 0.25437 0.85803
 C2322 C 0.40203 0.25745 0.84784
 C2323 C 0.37274 0.24502 0.82016
 C2324 C 0.35670 0.26017 0.82680
 C2325 C 0.33651 0.26127 0.81589
 C2326 C 0.33199 0.24754 0.79794
 C2327 C 0.34773 0.23223 0.79145
 C2328 C 0.36778 0.23063 0.80255
 C2329 C 0.40253 0.21192 0.80727
 C2330 C 0.38267 0.21447 0.79630
 H2331 H 0.41334 0.19892 0.80205
 H2332 H 0.37876 0.20336 0.78293
 H2333 H 0.43929 0.20933 0.83017
 H2334 H 0.42749 0.26540 0.87104
 H2335 H 0.32454 0.27312 0.82128
 H2336 H 0.34419 0.22119 0.77790
 H2337 H 0.39232 0.27115 0.85319
 H2338 H 0.35936 0.27114 0.84047
 C2339 C 0.89536 0.74073 0.33194
 C2340 C 0.90790 0.72210 0.32641
 C2341 C 0.92793 0.71822 0.33700
 C2342 C 0.93616 0.73298 0.35264
 C2343 C 0.92419 0.75184 0.35758
 C2344 C 0.90395 0.75566 0.34747
 C2345 C 0.87369 0.74386 0.32065
 C2346 C 0.85899 0.76074 0.32618
 C2347 C 0.83902 0.76289 0.31503
 C2348 C 0.83343 0.74852 0.29792
 C2349 C 0.84779 0.73152 0.29255
 C2350 C 0.86757 0.72886 0.30395
 C2351 C 0.90057 0.70757 0.31015
 C2352 C 0.88100 0.71107 0.29891
 H2353 H 0.91025 0.69340 0.30583
 H2354 H 0.87618 0.69950 0.28626
 H2355 H 0.93738 0.70383 0.33284
 H2356 H 0.93036 0.76347 0.36957
 H2357 H 0.82806 0.77601 0.31958
 H2358 H 0.84334 0.71998 0.27971
 H2359 H 0.89539 0.77040 0.35190
 H2360 H 0.86252 0.77227 0.33917
 C2361 C 0.10986 0.75901 0.33272
 C2362 C 0.09580 0.77624 0.32628
 C2363 C 0.07569 0.77919 0.33672
 C2364 C 0.06889 0.76482 0.35312
 C2365 C 0.08234 0.74725 0.35894
 C2366 C 0.10267 0.74441 0.34898
 C2367 C 0.13156 0.75694 0.32159
 C2368 C 0.14765 0.74169 0.32797
 C2369 C 0.16755 0.74040 0.31686
 C2370 C 0.17168 0.75402 0.29896
 C2371 C 0.15593 0.76947 0.29276
 C2372 C 0.13620 0.77130 0.30410
 C2373 C 0.10171 0.79026 0.30928
 C2374 C 0.12131 0.78762 0.29818
 H2375 H 0.09086 0.80334 0.30426
 H2376 H 0.12501 0.79873 0.28492
 H2377 H 0.06509 0.79254 0.33189
 H2378 H 0.07727 0.73593 0.37151
 H2379 H 0.17957 0.72847 0.32203
 H2380 H 0.15919 0.78042 0.27925
 H2381 H 0.11243 0.73066 0.35411
 H2382 H 0.14526 0.73077 0.34157
 C2383 C 0.60582 0.26386 0.82728
 C2384 C 0.60100 0.24946 0.84471
 C2385 C 0.58105 0.25133 0.85589
 C2386 C 0.56620 0.26789 0.85041
 C2387 C 0.57111 0.28224 0.83335
 C2388 C 0.59057 0.28023 0.82183
 C2389 C 0.62721 0.26141 0.81575
 C2390 C 0.63284 0.27411 0.79747
 C2391 C 0.65296 0.27143 0.78734
 C2392 C 0.66817 0.25615 0.79516
 C2393 C 0.66275 0.24329 0.81334
 C2394 C 0.64226 0.24559 0.82346
 C2395 C 0.61635 0.23374 0.85119
 C2396 C 0.63663 0.23203 0.84099
 H2397 H 0.61275 0.22279 0.86460
 H2398 H 0.64803 0.21979 0.84682
 H2399 H 0.57739 0.24044 0.86934
 H2400 H 0.55983 0.29516 0.82899
 H2401 H 0.65668 0.28160 0.77336
 H2402 H 0.67428 0.23124 0.81932
 H2403 H 0.59345 0.29194 0.80904
 H2404 H 0.62194 0.28609 0.79054
 C2405 C 0.60877 0.74108 0.66654
 C2406 C 0.58979 0.74478 0.67918
 C2407 C 0.56899 0.74157 0.66983
 C2408 C 0.56671 0.73394 0.64822
 C2409 C 0.58547 0.72989 0.63582
 C2410 C 0.60626 0.73352 0.64477
 C2411 C 0.63069 0.74462 0.67722
 C2412 C 0.65058 0.74270 0.66583
 C2413 C 0.67058 0.74519 0.67683
 C2414 C 0.67122 0.74946 0.69945
 C2415 C 0.65152 0.75217 0.71076
 C2416 C 0.63138 0.75006 0.69982
 C2417 C 0.59165 0.75106 0.70124
 C2418 C 0.61199 0.75332 0.71142
 H2419 H 0.57713 0.75380 0.71094
 H2420 H 0.61254 0.75772 0.72867
 H2421 H 0.55451 0.74436 0.67960
 H2422 H 0.58403 0.72399 0.61908
 H2423 H 0.68558 0.74312 0.66774
 H2424 H 0.65187 0.75589 0.72818
 H2425 H 0.62010 0.72999 0.63451
 H2426 H 0.65106 0.73918 0.64848
 C2427 C 0.10843 0.24339 0.16484
 C2428 C 0.08929 0.24669 0.17735
 C2429 C 0.06859 0.24344 0.16775
 C2430 C 0.06659 0.23613 0.14599
 C2431 C 0.08552 0.23266 0.13366
 C2432 C 0.10618 0.23636 0.14287
 C2433 C 0.13023 0.24669 0.17586
 C2434 C 0.15026 0.24492 0.16469
 C2435 C 0.17014 0.24708 0.17599
 C2436 C 0.17054 0.25090 0.19870
 C2437 C 0.15070 0.25347 0.20980
 C2438 C 0.13066 0.25165 0.19857
 C2439 C 0.09090 0.25253 0.19955
 C2440 C 0.11113 0.25465 0.21001
 H2441 H 0.07626 0.25499 0.20915
 H2442 H 0.11147 0.25869 0.22735
 H2443 H 0.05399 0.24579 0.17744
 H2444 H 0.08430 0.22703 0.11681
 H2445 H 0.18523 0.24514 0.16703
 H2446 H 0.15083 0.25683 0.22730
 H2447 H 0.12014 0.23321 0.13265
 H2448 H 0.15095 0.24174 0.14728
 C2449 C -0.08256 1.01081 0.85818
 C2450 C -0.07355 1.00097 0.83929
 C2451 C -0.08332 1.00423 0.81860
 C2452 C -0.10182 1.01781 0.81605
 C2453 C -0.11032 1.02786 0.83501
 C2454 C -0.10097 1.02435 0.85566
 C2455 C -0.07171 1.00684 0.87998
 C2456 C -0.08013 1.01491 0.89986
 C2457 C -0.06900 1.01159 0.91961
 C2458 C -0.04911 1.00017 0.92020
 C2459 C -0.04093 0.99142 0.90056
 C2460 C -0.05216 0.99451 0.88056
 C2461 C -0.05453 0.98834 0.84106
 C2462 C -0.04392 0.98540 0.86119
 H2463 H -0.04751 0.98086 0.82658
 H2464 H -0.02906 0.97580 0.86159
 H2465 H -0.07563 0.99699 0.80437
 H2466 H -0.12487 1.03785 0.83428
 H2467 H -0.07585 1.01846 0.93445
 H2468 H -0.02574 0.98232 0.90076
 H2469 H -0.10840 1.03254 0.86941
 H2470 H -0.09525 1.02390 0.90057
 C2471 C 0.41502 0.50895 0.35891
 C2472 C 0.42642 0.50352 0.33952
 C2473 C 0.41689 0.50756 0.31890
 C2474 C 0.39623 0.51737 0.31718
 C2475 C 0.38512 0.52308 0.33638
 C2476 C 0.39431 0.51889 0.35698
 C2477 C 0.42582 0.50441 0.38061
 C2478 C 0.41554 0.50844 0.40081
 C2479 C 0.42669 0.50515 0.42057
 C2480 C 0.44841 0.49772 0.42083
 C2481 C 0.45845 0.49267 0.40078
 C2482 C 0.44733 0.49590 0.38077
 C2483 C 0.44740 0.49444 0.34080
 C2484 C 0.45771 0.49092 0.36097
 H2485 H 0.45614 0.49032 0.32595
 H2486 H 0.47410 0.48424 0.36105
 H2487 H 0.42576 0.50345 0.30410
 H2488 H 0.36910 0.53056 0.33545
 H2489 H 0.41835 0.50899 0.43571
 H2490 H 0.47512 0.48670 0.40068
 H2491 H 0.38499 0.52373 0.37113
 H2492 H 0.39899 0.51435 0.40177
 C2493 C 0.58443 -0.01057 0.35685
 C2494 C 0.57531 -0.00076 0.33796
 C2495 C 0.58536 -0.00349 0.31747
 C2496 C 0.60418 -0.01663 0.31511
 C2497 C 0.61277 -0.02668 0.33406
 C2498 C 0.60318 -0.02364 0.35452
 C2499 C 0.57328 -0.00722 0.37842
 C2500 C 0.58188 -0.01516 0.39832
 C2501 C 0.57046 -0.01259 0.41782
 C2502 C 0.55008 -0.00205 0.41817
 C2503 C 0.54172 0.00670 0.39855
 C2504 C 0.55326 0.00437 0.37878
 C2505 C 0.55587 0.01124 0.33951
 C2506 C 0.54492 0.01348 0.35941
 H2507 H 0.54876 0.01869 0.32502
 H2508 H 0.52972 0.02255 0.35964
 H2509 H 0.57764 0.00373 0.30319
 H2510 H 0.62755 -0.03634 0.33346
 H2511 H 0.57752 -0.01936 0.43265
 H2512 H 0.52617 0.01517 0.39860
 H2513 H 0.61068 -0.03185 0.36826
 H2514 H 0.59738 -0.02348 0.39923
 C2515 C 0.08432 0.48979 0.86000
 C2516 C 0.07335 0.49575 0.84038
 C2517 C 0.08361 0.49280 0.82003
 C2518 C 0.10455 0.48355 0.81885
 C2519 C 0.11533 0.47761 0.83828
 C2520 C 0.10544 0.48073 0.85859
 C2521 C 0.07270 0.49286 0.88135
 C2522 C 0.08242 0.48793 0.90174
 C2523 C 0.07070 0.49015 0.92110
 C2524 C 0.04892 0.49738 0.92083
 C2525 C 0.03926 0.50300 0.90064
 C2526 C 0.05099 0.50086 0.88098
 C2527 C 0.05209 0.50416 0.84115
 C2528 C 0.04109 0.50650 0.86099
 H2529 H 0.04367 0.50870 0.82613
 H2530 H 0.02453 0.51277 0.86066
 H2531 H 0.07505 0.49714 0.80502
 H2532 H 0.13156 0.47059 0.83776
 H2533 H 0.07877 0.48587 0.93637
 H2534 H 0.02253 0.50880 0.90016
 H2535 H 0.11456 0.47569 0.87290
 H2536 H 0.09902 0.48222 0.90316
 C2537 C 0.07724 0.50586 0.64626
 C2538 C 0.09780 0.51648 0.64605
 C2539 C 0.10888 0.52097 0.66583
 C2540 C 0.09985 0.51495 0.68599
 C2541 C 0.07961 0.50423 0.68617
 C2542 C 0.06842 0.49974 0.66662
 C2543 C 0.06568 0.50189 0.62480
 C2544 C 0.04492 0.49199 0.62323
 C2545 C 0.03445 0.48951 0.60292
 C2546 C 0.04443 0.49668 0.58360
 C2547 C 0.06537 0.50600 0.58495
 C2548 C 0.07594 0.50878 0.60530
 C2549 C 0.10715 0.52264 0.62613
 C2550 C 0.09648 0.51883 0.60619
 H2551 H 0.12294 0.53066 0.62595
 H2552 H 0.10435 0.52407 0.59124
 H2553 H 0.12466 0.52900 0.66554
 H2554 H 0.07223 0.49959 0.70155
 H2555 H 0.01834 0.48220 0.60242
 H2556 H 0.07331 0.51168 0.57020
 H2557 H 0.05288 0.49158 0.66788
 H2558 H 0.03630 0.48634 0.63748
 C2559 C 0.58272 1.00909 0.14037
 C2560 C 0.57158 1.00322 0.15973
 C2561 C 0.58119 1.00726 0.18037
 C2562 C 0.60159 1.01761 0.18207
 C2563 C 0.61249 1.02361 0.16290
 C2564 C 0.60327 1.01937 0.14231
 C2565 C 0.57178 1.00478 0.11867
 C2566 C 0.58183 1.00930 0.09850
 C2567 C 0.57051 1.00632 0.07878
 C2568 C 0.54886 0.99871 0.07852
 C2569 C 0.53906 0.99314 0.09850
 C2570 C 0.55036 0.99605 0.11848
 C2571 C 0.55073 0.99384 0.15841
 C2572 C 0.54026 0.99055 0.13825
 H2573 H 0.54219 0.98936 0.17323
 H2574 H 0.52394 0.98366 0.13813
 H2575 H 0.57253 1.00288 0.19516
 H2576 H 0.62833 1.03148 0.16386
 H2577 H 0.57868 1.01053 0.06367
 H2578 H 0.52246 0.98697 0.09857
 H2579 H 0.61240 1.02452 0.12820
 H2580 H 0.59832 1.01537 0.09754
 C2581 C 0.42376 0.49291 0.14448
 C2582 C 0.40322 0.48224 0.14418
 C2583 C 0.39245 0.47777 0.16393
 C2584 C 0.40173 0.48395 0.18414
 C2585 C 0.42200 0.49464 0.18440
 C2586 C 0.43291 0.49905 0.16489
 C2587 C 0.43489 0.49702 0.12302
 C2588 C 0.45558 0.50701 0.12150
 C2589 C 0.46557 0.50974 0.10115
 C2590 C 0.45517 0.50275 0.08175
 C2591 C 0.43431 0.49328 0.08308
 C2592 C 0.42423 0.49024 0.10345
 C2593 C 0.39351 0.47610 0.12420
 C2594 C 0.40376 0.48007 0.10428
 H2595 H 0.37775 0.46803 0.12395
 H2596 H 0.39560 0.47489 0.08928
 H2597 H 0.37665 0.46977 0.16357
 H2598 H 0.42958 0.49941 0.19983
 H2599 H 0.48164 0.51714 0.10068
 H2600 H 0.42604 0.48771 0.06828
 H2601 H 0.44846 0.50724 0.16621
 H2602 H 0.46450 0.51256 0.13580
 C2603 C -0.08236 -0.01028 0.64092
 C2604 C -0.07371 0.00028 0.65975
 C2605 C -0.08333 -0.00298 0.68038
 C2606 C -0.10114 -0.01741 0.68291
 C2607 C -0.10929 -0.02809 0.66400
 C2608 C -0.10018 -0.02452 0.64343
 C2609 C -0.07168 -0.00637 0.61922
 C2610 C -0.07993 -0.01503 0.59939
 C2611 C -0.06892 -0.01183 0.57975
 C2612 C -0.04931 0.00007 0.57922
 C2613 C -0.04133 0.00945 0.59879
 C2614 C -0.05248 0.00651 0.61868
 C2615 C -0.05513 0.01353 0.65801
 C2616 C -0.04457 0.01632 0.63799
 H2617 H -0.04838 0.02155 0.67243
 H2618 H -0.03001 0.02638 0.63762
 H2619 H -0.07598 0.00486 0.69459
 H2620 H -0.12337 -0.03872 0.66473
 H2621 H -0.07564 -0.01918 0.56496
 H2622 H -0.02639 0.01895 0.59860
 H2623 H -0.10729 -0.03329 0.62975
 H2624 H -0.09483 -0.02440 0.59863
 C2625 C -0.14265 0.91773 1.01240
 C2626 C -0.16134 0.92641 1.00184
 C2627 C -0.18180 0.91640 1.00445
 C2628 C -0.18434 0.89798 1.01806
 C2629 C -0.16558 0.88977 1.02876
 C2630 C -0.14515 0.89937 1.02592
 C2631 C -0.12109 0.92882 1.00913
 C2632 C -0.10140 0.92074 1.01798
 C2633 C -0.08185 0.93198 1.01511
 C2634 C -0.08130 0.95164 1.00339
 C2635 C -0.10075 0.95958 0.99401
 C2636 C -0.12053 0.94823 0.99662
 C2637 C -0.15960 0.94534 0.98914
 C2638 C -0.13970 0.95615 0.98680
 H2639 H -0.17393 0.95210 0.98112
 H2640 H -0.13930 0.97090 0.97707
 H2641 H -0.19591 0.92383 0.99669
 H2642 H -0.16630 0.87527 1.03878
 H2643 H -0.06713 0.92535 1.02248
 H2644 H -0.10053 0.97459 0.98466
 H2645 H -0.13157 0.89214 1.03460
 H2646 H -0.10066 0.90578 1.02720
 C2647 C 0.35522 0.41769 0.50991
 C2648 C 0.33591 0.42864 0.50331
 C2649 C 0.31542 0.41901 0.50685
 C2650 C 0.31377 0.39872 0.51730
 C2651 C 0.33290 0.38799 0.52396
 C2652 C 0.35335 0.39726 0.52029
 C2653 C 0.37676 0.42865 0.50610
 C2654 C 0.39689 0.41889 0.51156
 C2655 C 0.41644 0.43019 0.50882
 C2656 C 0.41656 0.45153 0.50053
 C2657 C 0.39664 0.46108 0.49419
 C2658 C 0.37683 0.44982 0.49687
 C2659 C 0.33713 0.44928 0.49361
 C2660 C 0.35712 0.45972 0.49063
 H2661 H 0.32234 0.45767 0.48857
 H2662 H 0.35715 0.47584 0.48340
 H2663 H 0.30067 0.42756 0.50193
 H2664 H 0.33203 0.37222 0.53188
 H2665 H 0.43151 0.42224 0.51368
 H2666 H 0.39645 0.47746 0.48755
 H2667 H 0.36742 0.38824 0.52591
 H2668 H 0.39795 0.40263 0.51816
 C2669 C 0.35807 0.58372 -0.01117
 C2670 C 0.33889 0.57247 -0.00499
 C2671 C 0.31831 0.58198 -0.00851
 C2672 C 0.31640 0.60256 -0.01834
 C2673 C 0.33539 0.61363 -0.02455
 C2674 C 0.35595 0.60440 -0.02101
 C2675 C 0.37973 0.57287 -0.00734
 C2676 C 0.39975 0.58277 -0.01266
 C2677 C 0.41942 0.57166 -0.00966
 C2678 C 0.41976 0.55037 -0.00122
 C2679 C 0.39993 0.54063 0.00480
 C2680 C 0.38002 0.55167 0.00180
 C2681 C 0.34033 0.55170 0.00442
 C2682 C 0.36044 0.54149 0.00765
 H2683 H 0.32565 0.54310 0.00917
 H2684 H 0.36065 0.52530 0.01475
 H2685 H 0.30369 0.57316 -0.00394
 H2686 H 0.33435 0.62964 -0.03195
 H2687 H 0.43441 0.57972 -0.01434
 H2688 H 0.39990 0.52425 0.01145
 H2689 H 0.36991 0.61372 -0.02619
 H2690 H 0.40063 0.59900 -0.01935
 C2691 C -0.14321 0.08268 0.48661
 C2692 C -0.16181 0.07390 0.49692
 C2693 C -0.18230 0.08390 0.49420
 C2694 C -0.18494 0.10244 0.48076
 C2695 C -0.16628 0.11077 0.47029
 C2696 C -0.14581 0.10116 0.47322
 C2697 C -0.12163 0.07155 0.48997
 C2698 C -0.10200 0.07964 0.48129
 C2699 C -0.08245 0.06833 0.48423
 C2700 C -0.08186 0.04861 0.49586
 C2701 C -0.10124 0.04070 0.50509
 C2702 C -0.12100 0.05208 0.50239
 C2703 C -0.15999 0.05490 0.50952
 C2704 C -0.14008 0.04410 0.51200
 H2705 H -0.17427 0.04808 0.51736
 H2706 H -0.13962 0.02929 0.52164
 H2707 H -0.19634 0.07635 0.50174
 H2708 H -0.16708 0.12536 0.46040
 H2709 H -0.06778 0.07493 0.47698
 H2710 H -0.10098 0.02564 0.51436
 H2711 H -0.13229 0.10848 0.46475
 H2712 H -0.10132 0.09463 0.47213
 C2713 C 0.64466 0.07557 0.50870
 C2714 C 0.64468 0.09602 0.51966
 C2715 C 0.66452 0.10680 0.52412
 C2716 C 0.68446 0.09751 0.51780
 C2717 C 0.68437 0.07716 0.50716
 C2718 C 0.66481 0.06631 0.50266
 C2719 C 0.62318 0.06454 0.50431
 C2720 C 0.62142 0.04425 0.49343
 C2721 C 0.60117 0.03415 0.49064
 C2722 C 0.58204 0.04400 0.49846
 C2723 C 0.58351 0.06462 0.50859
 C2724 C 0.60386 0.07487 0.51163
 C2725 C 0.62494 0.10555 0.52612
 C2726 C 0.60499 0.09517 0.52226
 H2727 H 0.62493 0.12121 0.53447
 H2728 H 0.59020 0.10313 0.52780
 H2729 H 0.66441 0.12261 0.53219
 H2730 H 0.69957 0.06948 0.50242
 H2731 H 0.60058 0.01835 0.48260
 H2732 H 0.56889 0.07248 0.51470
 H2733 H 0.66592 0.05070 0.49453
 H2734 H 0.63547 0.03573 0.48717
 C2735 C 0.14473 0.57644 1.01001
 C2736 C 0.14571 0.59473 1.02422
 C2737 C 0.16566 0.60554 1.02800
 C2738 C 0.18499 0.59870 1.01753
 C2739 C 0.18364 0.58060 1.00318
 C2740 C 0.16396 0.56967 0.99952
 C2741 C 0.12322 0.56505 1.00680
 C2742 C 0.12075 0.54615 0.99372
 C2743 C 0.10051 0.53580 0.99176
 C2744 C 0.08214 0.54407 1.00260
 C2745 C 0.08434 0.56310 1.01537
 C2746 C 0.10470 0.57348 1.01771
 C2747 C 0.12673 0.60227 1.03449
 C2748 C 0.10666 0.59195 1.03121
 H2749 H 0.12740 0.61638 1.04528
 H2750 H 0.09249 0.59841 1.03959
 H2751 H 0.16570 0.61990 1.03842
 H2752 H 0.19800 0.57403 0.99530
 H2753 H 0.09931 0.52118 0.98175
 H2754 H 0.07032 0.56957 1.02400
 H2755 H 0.16428 0.55586 0.98849
 H2756 H 0.13423 0.53888 0.98509
 C2757 C 0.13908 0.41535 0.48804
 C2758 C 0.15835 0.42646 0.49462
 C2759 C 0.17888 0.41697 0.49100
 C2760 C 0.18067 0.39654 0.48066
 C2761 C 0.16160 0.38565 0.47392
 C2762 C 0.14107 0.39487 0.47756
 C2763 C 0.11747 0.42612 0.49221
 C2764 C 0.09733 0.41628 0.48674
 C2765 C 0.07770 0.42732 0.49017
 C2766 C 0.07753 0.44847 0.49917
 C2767 C 0.09750 0.45813 0.50530
 C2768 C 0.11734 0.44716 0.50193
 C2769 C 0.15706 0.44707 0.50458
 C2770 C 0.13702 0.45724 0.50804
 H2771 H 0.17182 0.45558 0.50961
 H2772 H 0.13694 0.47330 0.51558
 H2773 H 0.19355 0.42568 0.49594
 H2774 H 0.16256 0.36978 0.46606
 H2775 H 0.06260 0.41934 0.48536
 H2776 H 0.09768 0.47439 0.51242
 H2777 H 0.12703 0.38570 0.47200
 H2778 H 0.09633 0.40016 0.47963
 C2779 C 0.64459 0.92282 -0.01145
 C2780 C 0.64474 0.90236 -0.02238
 C2781 C 0.66466 0.89178 -0.02666
 C2782 C 0.68457 0.90132 -0.02022
 C2783 C 0.68434 0.92174 -0.00971
 C2784 C 0.66470 0.93237 -0.00537
 C2785 C 0.62302 0.93357 -0.00713
 C2786 C 0.62114 0.95375 0.00389
 C2787 C 0.60079 0.96358 0.00663
 C2788 C 0.58168 0.95356 -0.00139
 C2789 C 0.58330 0.93303 -0.01166
 C2790 C 0.60375 0.92304 -0.01462
 C2791 C 0.62504 0.89262 -0.02900
 C2792 C 0.60501 0.90278 -0.02529
 H2793 H 0.62512 0.87695 -0.03735
 H2794 H 0.59025 0.89466 -0.03096
 H2795 H 0.66464 0.87594 -0.03467
 H2796 H 0.69950 0.92963 -0.00491
 H2797 H 0.60010 0.97931 0.01479
 H2798 H 0.56871 0.92503 -0.01791
 H2799 H 0.66571 0.94804 0.00267
 H2800 H 0.63515 0.96238 0.01032
 C2801 C 0.01146 0.85611 0.92101
 C2802 C 0.00188 0.83743 0.93044
 C2803 C 0.00503 0.81675 0.92085
 C2804 C 0.01831 0.81402 0.90218
 C2805 C 0.02813 0.83279 0.89329
 C2806 C 0.02470 0.85341 0.90244
 C2807 C 0.00757 0.87791 0.93162
 C2808 C 0.01523 0.89759 0.92267
 C2809 C 0.01196 0.91737 0.93355
 C2810 C 0.00101 0.91819 0.95370
 C2811 C -0.00733 0.89874 0.96242
 C2812 C -0.00433 0.87871 0.95143
 C2813 C -0.01037 0.83940 0.94970
 C2814 C -0.01315 0.85954 0.96013
 H2815 H -0.01763 0.82508 0.95705
 H2816 H -0.02243 0.86011 0.97519
 H2817 H -0.00205 0.80267 0.92879
 H2818 H 0.03786 0.83192 0.87858
 H2819 H 0.01848 0.93206 0.92626
 H2820 H -0.01611 0.89914 0.97780
 H2821 H 0.03272 0.86699 0.89471
 H2822 H 0.02383 0.89812 0.90732
 C2823 C 0.50740 0.35680 0.42080
 C2824 C 0.50235 0.33755 0.43247
 C2825 C 0.50629 0.31698 0.42298
 C2826 C 0.51561 0.31521 0.40206
 C2827 C 0.52077 0.33430 0.39062
 C2828 C 0.51670 0.35481 0.39979
 C2829 C 0.50312 0.37844 0.43160
 C2830 C 0.50702 0.39849 0.42114
 C2831 C 0.50389 0.41819 0.43224
 C2832 C 0.49671 0.41856 0.45408
 C2833 C 0.49191 0.39867 0.46436
 C2834 C 0.49501 0.37870 0.45330
 C2835 C 0.49375 0.33893 0.45368
 C2836 C 0.49033 0.35904 0.46393
 H2837 H 0.48990 0.32420 0.46264
 H2838 H 0.48398 0.35920 0.48048
 H2839 H 0.50253 0.30230 0.43206
 H2840 H 0.52776 0.33336 0.37437
 H2841 H 0.50755 0.43320 0.42371
 H2842 H 0.48618 0.39865 0.48115
 H2843 H 0.52112 0.36883 0.39018
 H2844 H 0.51272 0.39938 0.40448
 C2845 C -0.01460 0.35552 0.58236
 C2846 C -0.00407 0.33679 0.57395
 C2847 C -0.00648 0.31654 0.58444
 C2848 C -0.01981 0.31429 0.60313
 C2849 C -0.03051 0.33308 0.61104
 C2850 C -0.02790 0.35328 0.60094
 C2851 C -0.01145 0.37686 0.57086
 C2852 C -0.02030 0.39657 0.57870
 C2853 C -0.01733 0.41595 0.56727
 C2854 C -0.00550 0.41637 0.54762
 C2855 C 0.00373 0.39687 0.53979
 C2856 C 0.00102 0.37722 0.55138
 C2857 C 0.00847 0.33828 0.55485
 C2858 C 0.01077 0.35799 0.54369
 H2859 H 0.01647 0.32391 0.54827
 H2860 H 0.02044 0.35819 0.52887
 H2861 H 0.00128 0.30238 0.57720
 H2862 H -0.04032 0.33262 0.62571
 H2863 H -0.02466 0.43067 0.57382
 H2864 H 0.01310 0.39697 0.52477
 H2865 H -0.03655 0.36689 0.60801
 H2866 H -0.02954 0.39748 0.59365
 C2867 C 0.49136 0.85960 0.08190
 C2868 C 0.49694 0.83992 0.07105
 C2869 C 0.49335 0.81976 0.08134
 C2870 C 0.48373 0.81881 0.10217
 C2871 C 0.47792 0.83831 0.11272
 C2872 C 0.48173 0.85843 0.10281
 C2873 C 0.49539 0.88078 0.07034
 C2874 C 0.49126 0.90119 0.08012
 C2875 C 0.49416 0.92042 0.06839
 C2876 C 0.50131 0.91998 0.04653
 C2877 C 0.50638 0.89973 0.03690
 C2878 C 0.50356 0.88021 0.04866
 C2879 C 0.50567 0.84047 0.04986
 C2880 C 0.50868 0.86015 0.03882
 H2881 H 0.50990 0.82541 0.04151
 H2882 H 0.51511 0.85964 0.02231
 H2883 H 0.49756 0.80472 0.07291
 H2884 H 0.47059 0.83799 0.12884
 H2885 H 0.49036 0.93572 0.07648
 H2886 H 0.51213 0.89909 0.02012
 H2887 H 0.47678 0.87281 0.11174
 H2888 H 0.48562 0.90274 0.09677
 C2889 C 0.51052 0.64743 0.07737
 C2890 C 0.52116 0.64752 0.09810
 C2891 C 0.52477 0.66730 0.10934
 C2892 C 0.51786 0.68718 0.10029
 C2893 C 0.50721 0.68703 0.07982
 C2894 C 0.50358 0.66749 0.06848
 C2895 C 0.50729 0.62598 0.06575
 C2896 C 0.49724 0.62414 0.04492
 C2897 C 0.49509 0.60385 0.03457
 C2898 C 0.50279 0.58478 0.04470
 C2899 C 0.51252 0.58642 0.06562
 C2900 C 0.51490 0.60677 0.07611
 C2901 C 0.52816 0.62789 0.10750
 C2902 C 0.52508 0.60797 0.09676
 H2903 H 0.53624 0.62793 0.12340
 H2904 H 0.53089 0.59326 0.10471
 H2905 H 0.53277 0.66721 0.12528
 H2906 H 0.50194 0.70216 0.07234
 H2907 H 0.48745 0.60315 0.01848
 H2908 H 0.51862 0.57188 0.07368
 H2909 H 0.49540 0.66851 0.05278
 H2910 H 0.49108 0.63815 0.03621
 C2911 C 0.00912 0.14422 0.57761
 C2912 C 0.02372 0.14510 0.59571
 C2913 C 0.02785 0.16504 0.60649
 C2914 C 0.01725 0.18443 0.59994
 C2915 C 0.00243 0.18317 0.58212
 C2916 C -0.00151 0.16351 0.57114
 C2917 C 0.00561 0.12273 0.56619
 C2918 C -0.00758 0.12038 0.54723
 C2919 C -0.00989 0.10011 0.53689
 C2920 C 0.00068 0.08158 0.54524
 C2921 C 0.01361 0.08369 0.56429
 C2922 C 0.01637 0.10407 0.57459
 C2923 C 0.03394 0.12603 0.60314
 C2924 C 0.03020 0.10594 0.59294
 H2925 H 0.04500 0.12662 0.61712
 H2926 H 0.03850 0.09168 0.59935
 H2927 H 0.03865 0.16505 0.62066
 H2928 H -0.00563 0.19756 0.57580
 H2929 H -0.01996 0.09898 0.52222
 H2930 H 0.02209 0.06956 0.57077
 H2931 H -0.01292 0.16386 0.55758
 H2932 H -0.01601 0.13400 0.53990
 C2933 C 0.49033 0.13961 0.41949
 C2934 C 0.49579 0.15885 0.43127
 C2935 C 0.49180 0.17942 0.42195
 C2936 C 0.48203 0.18124 0.40110
 C2937 C 0.47638 0.16217 0.38959
 C2938 C 0.48049 0.14163 0.39858
 C2939 C 0.49481 0.11796 0.43005
 C2940 C 0.49062 0.09790 0.41944
 C2941 C 0.49403 0.07820 0.43032
 C2942 C 0.50175 0.07781 0.45210
 C2943 C 0.50682 0.09771 0.46253
 C2944 C 0.50347 0.11768 0.45168
 C2945 C 0.50491 0.15745 0.45239
 C2946 C 0.50848 0.13734 0.46244
 H2947 H 0.50907 0.17217 0.46144
 H2948 H 0.51525 0.13718 0.47894
 H2949 H 0.49594 0.19409 0.43112
 H2950 H 0.46900 0.16313 0.37340
 H2951 H 0.49012 0.06319 0.42167
 H2952 H 0.51297 0.09774 0.47927
 H2953 H 0.47570 0.12761 0.38892
 H2954 H 0.48451 0.09702 0.40282
 C2955 C -0.01245 0.64055 0.92201
 C2956 C -0.00228 0.65926 0.93110
 C2957 C -0.00534 0.67980 0.92130
 C2958 C -0.01903 0.68237 0.90269
 C2959 C -0.02946 0.66359 0.89418
 C2960 C -0.02617 0.64311 0.90356
 C2961 C -0.00855 0.61890 0.93277
 C2962 C -0.01684 0.59918 0.92416
 C2963 C -0.01337 0.57953 0.93507
 C2964 C -0.00157 0.57885 0.95493
 C2965 C 0.00728 0.59835 0.96339
 C2966 C 0.00407 0.61826 0.95235
 C2967 C 0.01054 0.65746 0.95019
 C2968 C 0.01341 0.63747 0.96073
 H2969 H 0.01825 0.67181 0.95729
 H2970 H 0.02322 0.63704 0.97562
 H2971 H 0.00221 0.69390 0.92901
 H2972 H -0.03957 0.66430 0.87955
 H2973 H -0.02036 0.56482 0.92801
 H2974 H 0.01665 0.59806 0.97856
 H2975 H -0.03464 0.62951 0.89608
 H2976 H -0.02607 0.59851 0.90903
 C2977 C 0.25490 0.66773 0.89503
 C2978 C 0.26553 0.64721 0.89418
 C2979 C 0.26998 0.63575 0.91361
 C2980 C 0.26391 0.64436 0.93404
 C2981 C 0.25316 0.66455 0.93483
 C2982 C 0.24870 0.67612 0.91564
 C2983 C 0.25098 0.67971 0.87394
 C2984 C 0.24109 0.70048 0.87301
 C2985 C 0.23858 0.71130 0.85302
 C2986 C 0.24573 0.70169 0.83340
 C2987 C 0.25511 0.68077 0.83413
 C2988 C 0.25791 0.66985 0.85413
 C2989 C 0.27174 0.63827 0.87399
 C2990 C 0.26797 0.64932 0.85439
 H2991 H 0.27978 0.62252 0.87332
 H2992 H 0.27323 0.64176 0.83921
 H2993 H 0.27804 0.62001 0.91284
 H2994 H 0.24849 0.67163 0.95042
 H2995 H 0.23123 0.72738 0.85301
 H2996 H 0.26078 0.67311 0.81914
 H2997 H 0.24052 0.69160 0.91736
 H2998 H 0.23544 0.70881 0.88751
 C2999 C 0.75354 0.16818 0.39559
 C3000 C 0.76379 0.14747 0.39462
 C3001 C 0.76841 0.13601 0.41401
 C3002 C 0.76293 0.14483 0.43451
 C3003 C 0.75251 0.16518 0.43544
 C3004 C 0.74787 0.17674 0.41629
 C3005 C 0.74953 0.18017 0.37454
 C3006 C 0.74002 0.20112 0.37372
 C3007 C 0.73755 0.21200 0.35377
 C3008 C 0.74434 0.20228 0.33408
 C3009 C 0.75325 0.18116 0.33468
 C3010 C 0.75602 0.17017 0.35465
 C3011 C 0.76950 0.13835 0.37435
 C3012 C 0.76565 0.14944 0.35480
 H3013 H 0.77723 0.12245 0.37360
 H3014 H 0.77057 0.14176 0.33955
 H3015 H 0.77617 0.12013 0.41314
 H3016 H 0.74826 0.17237 0.45112
 H3017 H 0.73055 0.22824 0.35385
 H3018 H 0.75862 0.17339 0.31963
 H3019 H 0.73998 0.19236 0.41811
 H3020 H 0.73468 0.20956 0.38829
 C3021 C 0.24425 0.33372 0.39349
 C3022 C 0.23295 0.35389 0.39294
 C3023 C 0.22777 0.36474 0.41259
 C3024 C 0.23373 0.35583 0.43294
 C3025 C 0.24496 0.33588 0.43342
 C3026 C 0.25017 0.32495 0.41403
 C3027 C 0.24904 0.32240 0.37216
 C3028 C 0.25987 0.30213 0.37095
 C3029 C 0.26283 0.29167 0.35079
 C3030 C 0.25524 0.30116 0.33125
 C3031 C 0.24522 0.32178 0.33222
 C3032 C 0.24194 0.33233 0.35243
 C3033 C 0.22678 0.36304 0.37281
 C3034 C 0.23116 0.35249 0.35300
 H3035 H 0.21822 0.37851 0.37236
 H3036 H 0.22580 0.36014 0.33789
 H3037 H 0.21929 0.38027 0.41206
 H3038 H 0.24950 0.32853 0.44893
 H3039 H 0.27075 0.27586 0.35058
 H3040 H 0.23924 0.32935 0.31728
 H3041 H 0.25869 0.30964 0.41556
 H3042 H 0.26587 0.29386 0.38535
 C3043 C 0.74475 0.83359 0.89320
 C3044 C 0.73449 0.85430 0.89229
 C3045 C 0.72958 0.86562 0.91176
 C3046 C 0.73483 0.85665 0.93227
 C3047 C 0.74489 0.83610 0.93311
 C3048 C 0.74979 0.82469 0.91390
 C3049 C 0.74949 0.82192 0.87205
 C3050 C 0.75950 0.80121 0.87116
 C3051 C 0.76258 0.79057 0.85110
 C3052 C 0.75593 0.80031 0.83136
 C3053 C 0.74670 0.82131 0.83204
 C3054 C 0.74334 0.83206 0.85213
 C3055 C 0.72915 0.86357 0.87199
 C3056 C 0.73346 0.85269 0.85235
 H3057 H 0.72137 0.87944 0.87126
 H3058 H 0.72880 0.86048 0.83708
 H3059 H 0.72198 0.88158 0.91096
 H3060 H 0.74883 0.82869 0.94875
 H3061 H 0.76985 0.77445 0.85113
 H3062 H 0.74147 0.82911 0.81695
 H3063 H 0.75744 0.80895 0.91570
 H3064 H 0.76478 0.79275 0.88574
 C3065 C 0.75545 0.83328 0.10380
 C3066 C 0.76547 0.85412 0.10445
 C3067 C 0.76973 0.86530 0.08490
 C3068 C 0.76412 0.85607 0.06452
 C3069 C 0.75387 0.83561 0.06389
 C3070 C 0.74958 0.82432 0.08323
 C3071 C 0.75190 0.82158 0.12505
 C3072 C 0.74266 0.80052 0.12622
 C3073 C 0.74069 0.78992 0.14636
 C3074 C 0.74775 0.80004 0.16588
 C3075 C 0.75634 0.82128 0.16491
 C3076 C 0.75859 0.83198 0.14477
 C3077 C 0.77136 0.86364 0.12458
 C3078 C 0.76796 0.85283 0.14430
 H3079 H 0.77891 0.87964 0.12508
 H3080 H 0.77302 0.86082 0.15943
 H3081 H 0.77735 0.88127 0.08553
 H3082 H 0.74951 0.82810 0.04832
 H3083 H 0.73391 0.77359 0.14657
 H3084 H 0.76186 0.82938 0.17981
 H3085 H 0.74184 0.80858 0.08165
 H3086 H 0.73716 0.79180 0.11180
 C3087 C 0.25491 0.33918 0.60797
 C3088 C 0.24903 0.32854 0.58811
 C3089 C 0.25252 0.33888 0.56792
 C3090 C 0.26227 0.35960 0.56712
 C3091 C 0.26811 0.37010 0.58679
 C3092 C 0.26443 0.36012 0.60696
 C3093 C 0.25140 0.32737 0.62915
 C3094 C 0.25631 0.33670 0.64976
 C3095 C 0.25397 0.32465 0.66894
 C3096 C 0.24662 0.30293 0.66820
 C3097 C 0.24080 0.29376 0.64779
 C3098 C 0.24310 0.30580 0.62835
 C3099 C 0.24018 0.30745 0.58848
 C3100 C 0.23744 0.29626 0.60815
 H3101 H 0.23567 0.29930 0.57328
 H3102 H 0.23092 0.27982 0.60750
 H3103 H 0.24826 0.33052 0.55275
 H3104 H 0.27550 0.38616 0.58655
 H3105 H 0.25839 0.33233 0.68440
 H3106 H 0.23488 0.27710 0.64694
 H3107 H 0.26944 0.36898 0.62147
 H3108 H 0.26220 0.35321 0.65150
 C3109 C 0.74400 0.16469 0.60602
 C3110 C 0.73363 0.14403 0.60650
 C3111 C 0.72903 0.13279 0.58683
 C3112 C 0.73457 0.14187 0.56652
 C3113 C 0.74471 0.16240 0.56611
 C3114 C 0.74938 0.17367 0.58552
 C3115 C 0.74837 0.17629 0.62734
 C3116 C 0.75861 0.19688 0.62861
 C3117 C 0.76126 0.20755 0.64874
 C3118 C 0.75391 0.19797 0.66821
 C3119 C 0.74451 0.17705 0.66721
 C3120 C 0.74162 0.16625 0.64701
 C3121 C 0.72780 0.13477 0.62659
 C3122 C 0.73164 0.14567 0.64640
 H3123 H 0.71992 0.11893 0.62700
 H3124 H 0.72655 0.13792 0.66147
 H3125 H 0.72134 0.11686 0.58732
 H3126 H 0.74882 0.16993 0.55064
 H3127 H 0.76873 0.22357 0.64896
 H3128 H 0.73881 0.16937 0.68210
 H3129 H 0.75705 0.18942 0.58403
 H3130 H 0.76444 0.20522 0.61426
 C3131 C 0.24356 0.66625 0.10498
 C3132 C 0.23350 0.64544 0.10561
 C3133 C 0.22904 0.63403 0.08601
 C3134 C 0.23444 0.64306 0.06565
 C3135 C 0.24435 0.66368 0.06509
 C3136 C 0.24887 0.67515 0.08442
 C3137 C 0.24776 0.67804 0.12623
 C3138 C 0.25759 0.69883 0.12736
 C3139 C 0.26022 0.70957 0.14745
 C3140 C 0.25326 0.69988 0.16701
 C3141 C 0.24415 0.67884 0.16612
 C3142 C 0.24128 0.66795 0.14597
 C3143 C 0.22786 0.63619 0.12575
 C3144 C 0.23162 0.64722 0.14549
 H3145 H 0.22022 0.62024 0.12626
 H3146 H 0.22673 0.63945 0.16062
 H3147 H 0.22157 0.61800 0.08661
 H3148 H 0.24841 0.67112 0.04956
 H3149 H 0.26744 0.72571 0.14758
 H3150 H 0.23872 0.67108 0.18108
 H3151 H 0.25638 0.69096 0.08283
 H3152 H 0.26313 0.70725 0.11295
 C3153 C 0.16164 0.60816 0.74092
 C3154 C 0.17267 0.58884 0.74721
 C3155 C 0.16266 0.56843 0.74405
 C3156 C 0.14181 0.56684 0.73441
 C3157 C 0.13094 0.58598 0.72815
 C3158 C 0.14064 0.60637 0.73138
 C3159 C 0.17303 0.62961 0.74431
 C3160 C 0.16336 0.64975 0.73890
 C3161 C 0.17490 0.66922 0.74163
 C3162 C 0.19640 0.66925 0.74984
 C3163 C 0.20599 0.64929 0.75582
 C3164 C 0.19450 0.62958 0.75315
 C3165 C 0.19374 0.58996 0.75631
 C3166 C 0.20445 0.60987 0.75911
 H3167 H 0.20218 0.57517 0.76112
 H3168 H 0.22084 0.60982 0.76599
 H3169 H 0.17132 0.55368 0.74866
 H3170 H 0.11475 0.58518 0.72088
 H3171 H 0.16695 0.68432 0.73697
 H3172 H 0.22253 0.64902 0.76233
 H3173 H 0.13146 0.62045 0.72614
 H3174 H 0.14697 0.65089 0.73241
 C3175 C 0.65989 0.11032 0.24072
 C3176 C 0.67055 0.09093 0.24741
 C3177 C 0.66047 0.07059 0.24397
 C3178 C 0.63995 0.06914 0.23360
 C3179 C 0.62941 0.08836 0.22703
 C3180 C 0.63916 0.10869 0.23057
 C3181 C 0.67144 0.13168 0.24427
 C3182 C 0.66218 0.15189 0.23840
 C3183 C 0.67390 0.17125 0.24124
 C3184 C 0.69518 0.17107 0.25002
 C3185 C 0.70434 0.15106 0.25646
 C3186 C 0.69266 0.13147 0.25368
 C3187 C 0.69135 0.09189 0.25712
 C3188 C 0.70221 0.11170 0.26009
 H3189 H 0.69950 0.07704 0.26225
 H3190 H 0.71840 0.11152 0.26742
 H3191 H 0.66889 0.05578 0.24881
 H3192 H 0.61347 0.08766 0.21919
 H3193 H 0.66628 0.18640 0.23622
 H3194 H 0.72069 0.15063 0.26342
 H3195 H 0.63026 0.12283 0.22504
 H3196 H 0.64598 0.15317 0.23145
 C3197 C 0.83236 0.10414 0.75654
 C3198 C 0.85302 0.10477 0.76717
 C3199 C 0.86454 0.08535 0.77118
 C3200 C 0.85585 0.06510 0.76470
 C3201 C 0.83553 0.06453 0.75390
 C3202 C 0.82391 0.08373 0.74986
 C3203 C 0.82033 0.12525 0.75314
 C3204 C 0.79943 0.12642 0.74327
 C3205 C 0.78861 0.14641 0.74122
 C3206 C 0.79833 0.16580 0.74883
 C3207 C 0.81936 0.16482 0.75822
 C3208 C 0.83029 0.14482 0.76054
 C3209 C 0.86205 0.12475 0.77386
 C3210 C 0.85096 0.14433 0.77057
 H3211 H 0.87791 0.12525 0.78189
 H3212 H 0.85860 0.15933 0.77620
 H3213 H 0.88039 0.08599 0.77924
 H3214 H 0.82840 0.04909 0.74888
 H3215 H 0.77246 0.14660 0.73384
 H3216 H 0.82713 0.17962 0.76423
 H3217 H 0.80832 0.08219 0.74164
 H3218 H 0.79102 0.11210 0.73727
 C3219 C 0.33417 0.60625 0.25533
 C3220 C 0.35426 0.60628 0.26703
 C3221 C 0.36496 0.58650 0.27164
 C3222 C 0.35596 0.56651 0.26474
 C3223 C 0.33612 0.56656 0.25306
 C3224 C 0.32535 0.58608 0.24839
 C3225 C 0.32300 0.62767 0.25120
 C3226 C 0.30279 0.62935 0.24007
 C3227 C 0.29248 0.64953 0.23767
 C3228 C 0.30205 0.66866 0.24612
 C3229 C 0.32259 0.66726 0.25651
 C3230 C 0.33300 0.64699 0.25924
 C3231 C 0.36348 0.62603 0.27418
 C3232 C 0.35309 0.64593 0.27037
 H3233 H 0.37890 0.62610 0.28305
 H3234 H 0.36080 0.66071 0.27647
 H3235 H 0.38042 0.58667 0.28046
 H3236 H 0.32868 0.55135 0.24777
 H3237 H 0.27675 0.65005 0.22943
 H3238 H 0.33020 0.68187 0.26316
 H3239 H 0.31010 0.58495 0.23949
 H3240 H 0.29445 0.61529 0.23339
 C3241 C 0.33973 0.39232 0.24056
 C3242 C 0.32889 0.41192 0.24628
 C3243 C 0.33895 0.43216 0.24258
 C3244 C 0.35966 0.43332 0.23291
 C3245 C 0.37030 0.41390 0.22710
 C3246 C 0.36054 0.39367 0.23089
 C3247 C 0.32828 0.37104 0.24458
 C3248 C 0.33778 0.35063 0.23987
 C3249 C 0.32607 0.33134 0.24288
 C3250 C 0.30455 0.33177 0.25070
 C3251 C 0.29523 0.35200 0.25623
 C3252 C 0.30689 0.37153 0.25325
 C3253 C 0.30795 0.41125 0.25536
 C3254 C 0.29714 0.39151 0.25863
 H3255 H 0.29965 0.42625 0.25975
 H3256 H 0.28082 0.39191 0.26540
 H3257 H 0.33044 0.44710 0.24681
 H3258 H 0.38637 0.41435 0.21979
 H3259 H 0.33384 0.31604 0.23860
 H3260 H 0.27870 0.35264 0.26244
 H3261 H 0.36953 0.37935 0.22599
 H3262 H 0.35415 0.34917 0.23364
 C3263 C 0.84049 0.89206 0.74208
 C3264 C 0.82971 0.91168 0.74785
 C3265 C 0.83981 0.93191 0.74411
 C3266 C 0.86042 0.93298 0.73422
 C3267 C 0.87104 0.91354 0.72850
 C3268 C 0.86130 0.89335 0.73242
 C3269 C 0.82894 0.87082 0.74590
 C3270 C 0.83844 0.85043 0.74113
 C3271 C 0.82662 0.83117 0.74379
 C3272 C 0.80500 0.83159 0.75133
 C3273 C 0.79569 0.85179 0.75699
 C3274 C 0.80747 0.87131 0.75437
 C3275 C 0.80873 0.91102 0.75686
 C3276 C 0.79779 0.89130 0.75989
 H3277 H 0.80046 0.92603 0.76128
 H3278 H 0.78143 0.89172 0.76654
 H3279 H 0.83137 0.94690 0.74832
 H3280 H 0.88704 0.91397 0.72104
 H3281 H 0.83441 0.81589 0.73947
 H3282 H 0.77908 0.85241 0.76303
 H3283 H 0.87026 0.87902 0.72749
 H3284 H 0.85488 0.84893 0.73510
 C3285 C 0.66946 0.89755 0.25442
 C3286 C 0.64880 0.89700 0.26471
 C3287 C 0.63761 0.91650 0.26921
 C3288 C 0.64662 0.93673 0.26357
 C3289 C 0.66693 0.93725 0.25310
 C3290 C 0.67824 0.91797 0.24858
 C3291 C 0.68116 0.87635 0.25052
 C3292 C 0.70205 0.87507 0.24098
 C3293 C 0.71266 0.85499 0.23870
 C3294 C 0.70272 0.83563 0.24573
 C3295 C 0.68162 0.83671 0.25460
 C3296 C 0.67092 0.85679 0.25718
 C3297 C 0.63945 0.87703 0.27057
 C3298 C 0.65024 0.85737 0.26685
 H3299 H 0.62359 0.87660 0.27833
 H3300 H 0.64238 0.84238 0.27189
 H3301 H 0.62175 0.91593 0.27699
 H3302 H 0.67427 0.95269 0.24869
 H3303 H 0.72888 0.85471 0.23173
 H3304 H 0.67366 0.82194 0.26012
 H3305 H 0.69385 0.91946 0.24066
 H3306 H 0.71064 0.88937 0.23550
 C3307 C 0.16429 0.39289 0.75913
 C3308 C 0.17511 0.41247 0.75347
 C3309 C 0.16510 0.43272 0.75748
 C3310 C 0.14459 0.43383 0.76754
 C3311 C 0.13399 0.41444 0.77329
 C3312 C 0.14363 0.39423 0.76911
 C3313 C 0.17563 0.37162 0.75484
 C3314 C 0.16599 0.35128 0.75928
 C3315 C 0.17760 0.33197 0.75616
 C3316 C 0.19916 0.33230 0.74847
 C3317 C 0.20863 0.35246 0.74312
 C3318 C 0.19703 0.37204 0.74619
 C3319 C 0.19599 0.41175 0.74426
 C3320 C 0.20680 0.39198 0.74088
 H3321 H 0.20429 0.42673 0.73994
 H3322 H 0.22310 0.39234 0.73409
 H3323 H 0.17353 0.44768 0.75328
 H3324 H 0.11807 0.41491 0.78091
 H3325 H 0.16969 0.31672 0.76023
 H3326 H 0.22518 0.35300 0.73694
 H3327 H 0.13469 0.37994 0.77404
 H3328 H 0.14957 0.34985 0.76537
 C3329 C 0.10342 0.75596 0.83463
 C3330 C 0.10450 0.76592 0.85565
 C3331 C 0.08536 0.76940 0.86771
 C3332 C 0.06494 0.76304 0.85924
 C3333 C 0.06392 0.75277 0.83862
 C3334 C 0.08286 0.74927 0.82645
 C3335 C 0.12423 0.75321 0.82200
 C3336 C 0.12494 0.74415 0.80068
 C3337 C 0.14469 0.74253 0.78941
 C3338 C 0.16429 0.74979 0.79910
 C3339 C 0.16374 0.75853 0.82046
 C3340 C 0.14399 0.76040 0.83185
 C3341 C 0.12465 0.77250 0.86448
 C3342 C 0.14396 0.76973 0.85288
 H3343 H 0.12549 0.78002 0.88061
 H3344 H 0.15912 0.77521 0.86042
 H3345 H 0.08634 0.77703 0.88379
 H3346 H 0.04833 0.74785 0.83166
 H3347 H 0.14456 0.73568 0.77299
 H3348 H 0.17869 0.76428 0.82822
 H3349 H 0.08099 0.74147 0.81064
 H3350 H 0.11043 0.73843 0.79230
 C3351 C 0.60267 0.25821 0.33453
 C3352 C 0.60353 0.26852 0.35540
 C3353 C 0.58429 0.27182 0.36738
 C3354 C 0.56402 0.26488 0.35899
 C3355 C 0.56324 0.25441 0.33847
 C3356 C 0.58225 0.25111 0.32637
 C3357 C 0.62357 0.25548 0.32205
 C3358 C 0.62448 0.24604 0.30091
 C3359 C 0.64431 0.24431 0.28981
 C3360 C 0.66381 0.25183 0.29950
 C3361 C 0.66305 0.26103 0.32066
 C3362 C 0.64321 0.26302 0.33187
 C3363 C 0.62355 0.27551 0.36419
 C3364 C 0.64296 0.27275 0.35272
 H3365 H 0.62424 0.28331 0.38019
 H3366 H 0.65802 0.27852 0.36024
 H3367 H 0.58509 0.27967 0.38336
 H3368 H 0.54777 0.24909 0.33153
 H3369 H 0.64433 0.23712 0.27354
 H3370 H 0.67792 0.26703 0.32839
 H3371 H 0.58054 0.24308 0.31067
 H3372 H 0.61007 0.24006 0.29254
 C3373 C 0.60845 0.74541 0.16365
 C3374 C 0.58884 0.75023 0.17482
 C3375 C 0.56856 0.74627 0.16457
 C3376 C 0.56745 0.73703 0.14345
 C3377 C 0.58688 0.73201 0.13254
 C3378 C 0.60711 0.73618 0.14242
 C3379 C 0.62976 0.74972 0.17521
 C3380 C 0.65009 0.74628 0.16517
 C3381 C 0.66948 0.74927 0.17694
 C3382 C 0.66927 0.75583 0.19907
 C3383 C 0.64909 0.76031 0.20895
 C3384 C 0.62941 0.75738 0.19718
 C3385 C 0.58959 0.75853 0.19630
 C3386 C 0.60941 0.76180 0.20731
 H3387 H 0.57458 0.76219 0.20488
 H3388 H 0.60908 0.76784 0.22405
 H3389 H 0.55357 0.74988 0.17324
 H3390 H 0.58642 0.72501 0.11618
 H3391 H 0.68473 0.74597 0.16866
 H3392 H 0.64863 0.76562 0.22594
 H3393 H 0.62144 0.73182 0.13322
 H3394 H 0.65146 0.74109 0.14831
 C3395 C 0.10786 0.24272 0.66246
 C3396 C 0.08821 0.24717 0.67371
 C3397 C 0.06797 0.24296 0.66349
 C3398 C 0.06694 0.23385 0.64232
 C3399 C 0.08641 0.22916 0.63134
 C3400 C 0.10661 0.23357 0.64119
 C3401 C 0.12913 0.24733 0.67399
 C3402 C 0.14951 0.24429 0.66390
 C3403 C 0.16887 0.24756 0.67566
 C3404 C 0.16856 0.25399 0.69783
 C3405 C 0.14832 0.25808 0.70774
 C3406 C 0.12868 0.25488 0.69599
 C3407 C 0.08886 0.25538 0.69521
 C3408 C 0.10865 0.25892 0.70619
 H3409 H 0.07382 0.25875 0.70385
 H3410 H 0.10826 0.26488 0.72297
 H3411 H 0.05296 0.24632 0.67221
 H3412 H 0.08600 0.22226 0.61493
 H3413 H 0.18417 0.24451 0.66739
 H3414 H 0.14778 0.26329 0.72476
 H3415 H 0.12099 0.22948 0.63194
 H3416 H 0.15092 0.23918 0.64702
 C3417 C 0.89569 0.25364 0.66956
 C3418 C 0.89494 0.26322 0.64844
 C3419 C 0.91436 0.26793 0.63733
 C3420 C 0.93473 0.26316 0.64684
 C3421 C 0.93547 0.25337 0.66759
 C3422 C 0.91626 0.24869 0.67885
 C3423 C 0.87453 0.24953 0.68114
 C3424 C 0.87340 0.24072 0.70246
 C3425 C 0.85330 0.23827 0.71293
 C3426 C 0.83379 0.24439 0.70240
 C3427 C 0.83474 0.25247 0.68088
 C3428 C 0.85482 0.25524 0.67032
 C3429 C 0.87483 0.26815 0.63855
 C3430 C 0.85521 0.26419 0.64923
 H3431 H 0.87425 0.27535 0.62235
 H3432 H 0.84010 0.26851 0.64094
 H3433 H 0.91364 0.27517 0.62113
 H3434 H 0.95103 0.24962 0.67529
 H3435 H 0.85313 0.23196 0.72950
 H3436 H 0.81985 0.25728 0.67245
 H3437 H 0.91790 0.24131 0.69480
 H3438 H 0.88784 0.23599 0.71151
 C3439 C 0.39335 0.75980 0.16320
 C3440 C 0.41312 0.75440 0.17409
 C3441 C 0.43325 0.75850 0.16397
 C3442 C 0.43409 0.76837 0.14324
 C3443 C 0.41449 0.77395 0.13262
 C3444 C 0.39439 0.76969 0.14238
 C3445 C 0.37220 0.75529 0.17464
 C3446 C 0.35168 0.75939 0.16492
 C3447 C 0.33249 0.75604 0.17660
 C3448 C 0.33311 0.74846 0.19833
 C3449 C 0.35347 0.74344 0.20786
 C3450 C 0.37293 0.74673 0.19618
 C3451 C 0.41271 0.74531 0.19514
 C3452 C 0.39307 0.74175 0.20602
 H3453 H 0.42785 0.74119 0.20349
 H3454 H 0.39368 0.73504 0.22244
 H3455 H 0.44835 0.75445 0.17246
 H3456 H 0.41472 0.78145 0.11656
 H3457 H 0.31709 0.75988 0.16863
 H3458 H 0.35425 0.73738 0.22453
 H3459 H 0.37993 0.77446 0.13341
 H3460 H 0.35003 0.76539 0.14839
 C3461 C 0.39505 0.24187 0.33446
 C3462 C 0.39409 0.23114 0.35498
 C3463 C 0.41341 0.22656 0.36674
 C3464 C 0.43382 0.23267 0.35846
 C3465 C 0.43471 0.24336 0.33817
 C3466 C 0.41566 0.24790 0.32631
 C3467 C 0.37408 0.24613 0.32225
 C3468 C 0.37328 0.25625 0.30151
 C3469 C 0.35341 0.25906 0.29044
 C3470 C 0.33375 0.25203 0.29975
 C3471 C 0.33434 0.24248 0.32068
 C3472 C 0.35425 0.23935 0.33185
 C3473 C 0.37388 0.22505 0.36364
 C3474 C 0.35441 0.22910 0.35236
 H3475 H 0.37311 0.21692 0.37938
 H3476 H 0.33922 0.22393 0.35973
 H3477 H 0.41255 0.21849 0.38251
 H3478 H 0.45028 0.24801 0.33129
 H3479 H 0.35351 0.26654 0.27437
 H3480 H 0.31932 0.23687 0.32811
 H3481 H 0.41749 0.25608 0.31082
 H3482 H 0.38780 0.26185 0.29338
 C3483 C 0.89616 0.74273 0.83460
 C3484 C 0.89498 0.73274 0.85549
 C3485 C 0.91419 0.72818 0.86742
 C3486 C 0.93473 0.73354 0.85894
 C3487 C 0.93585 0.74363 0.83836
 C3488 C 0.91689 0.74816 0.82633
 C3489 C 0.87527 0.74683 0.82217
 C3490 C 0.87463 0.75612 0.80104
 C3491 C 0.85480 0.75875 0.78980
 C3492 C 0.83504 0.75233 0.79935
 C3493 C 0.83549 0.74363 0.82065
 C3494 C 0.85533 0.74069 0.83199
 C3495 C 0.87467 0.72731 0.86434
 C3496 C 0.85529 0.73125 0.85288
 H3497 H 0.87374 0.71977 0.88036
 H3498 H 0.84001 0.72658 0.86040
 H3499 H 0.91314 0.72065 0.88344
 H3500 H 0.95152 0.74776 0.83138
 H3501 H 0.85502 0.76556 0.77344
 H3502 H 0.82041 0.73853 0.82830
 H3503 H 0.91886 0.75582 0.81058
 H3504 H 0.88925 0.76118 0.79272
   
