data_POSCAR
  _audit_creation_date              2014-09-24
  _audit_creation_method            'ToBaCCo'
  _symmetry_space_group_name_H-M    'P1'
  _symmetry_Int_Tables_number       1
  _symmetry_cell_setting            triclinic
  loop_
  _symmetry_equiv_pos_as_xyz
 x,y,z
_cell_length_a 54.6064
_cell_length_b 54.3151
_cell_length_c 55.1036
_cell_angle_alpha 90.479100
_cell_angle_beta 91.490900
_cell_angle_gamma 91.637200
loop_
  _atom_site_label
  _atom_site_type_symbol
  _atom_site_fract_x
  _atom_site_fract_y
  _atom_site_fract_z
C1 C 0.73227 0.65583 0.95305
 H2 H 0.74338 0.64487 0.94143
 C3 C 0.71319 0.66926 0.94286
 H4 H 0.70989 0.66852 0.92340
 C5 C 0.72317 0.67025 0.99237
 H6 H 0.72686 0.67048 1.01168
 C7 C 0.70387 0.68385 0.98297
 H8 H 0.69278 0.69400 0.99537
 N9 N 0.73656 0.65609 0.97750
 C10 C 0.80677 0.64040 1.01262
 H11 H 0.80444 0.62078 1.01539
 C12 C 0.82742 0.65300 1.02232
 H13 H 0.84095 0.64296 1.03264
 C14 C 0.79109 0.67750 0.99700
 H15 H 0.77666 0.68694 0.98742
 C16 C 0.81135 0.69089 1.00665
 H17 H 0.81253 0.71065 1.00423
 Zn18 Zn 0.76023 0.63477 0.99111
 N19 N 0.78907 0.65277 1.00042
 C20 C 0.79039 0.60844 0.95938
 N21 N 0.76725 0.61031 0.96766
 C22 C 0.74843 0.59602 0.95822
 C23 C 0.75254 0.57891 0.93983
 C24 C 0.79532 0.59154 0.94103
 C25 C 0.74822 0.63595 1.03952
 C26 C 0.73819 0.62845 1.06129
 C27 C 0.72883 0.58862 1.04317
 C28 C 0.73898 0.59708 1.02156
 N29 N 0.74776 0.62066 1.01992
 H30 H 0.80504 0.62029 0.96667
 H31 H 0.73007 0.59834 0.96461
 H32 H 0.73720 0.56806 0.93226
 H33 H 0.81391 0.59017 0.93489
 H34 H 0.75645 0.65422 1.03823
 H35 H 0.74000 0.64134 1.07630
 H36 H 0.72086 0.57019 1.04288
 H37 H 0.73926 0.58490 1.00600
 C38 C 0.82967 0.67864 1.01976
 C39 C 0.69833 0.68310 0.95794
 C40 C 0.72739 0.60459 1.06358
 C41 C 0.77625 0.57654 0.93094
 C42 C 0.73454 0.35463 0.52026
 H43 H 0.74688 0.36677 0.53063
 C44 C 0.71789 0.33948 0.53240
 H45 H 0.71778 0.34016 0.55203
 C46 C 0.72033 0.33836 0.48230
 H47 H 0.72128 0.33823 0.46271
 C48 C 0.70310 0.32323 0.49365
 H49 H 0.69065 0.31186 0.48246
 N50 N 0.73482 0.35448 0.49558
 C51 C 0.78444 0.33747 0.46920
 H52 H 0.77776 0.33144 0.48653
 C53 C 0.80195 0.32378 0.45748
 H54 H 0.80861 0.30722 0.46588
 C55 C 0.78481 0.36702 0.43780
 H56 H 0.77827 0.38390 0.43020
 C57 C 0.80261 0.35408 0.42565
 H58 H 0.80949 0.36110 0.40872
 Zn59 Zn 0.75492 0.37728 0.47851
 N60 N 0.77635 0.35875 0.45937
 C61 C 0.79847 0.39438 0.50234
 N62 N 0.77377 0.39688 0.50104
 C63 C 0.76228 0.41188 0.51673
 C64 C 0.77550 0.42359 0.53583
 C65 C 0.81239 0.40587 0.52099
 C66 C 0.74486 0.41648 0.44587
 C67 C 0.73007 0.43099 0.43094
 C68 C 0.69459 0.40816 0.44471
 C69 C 0.70998 0.39412 0.45923
 N70 N 0.73472 0.39796 0.45914
 H71 H 0.80734 0.38271 0.48948
 H72 H 0.74261 0.41365 0.51518
 H73 H 0.76579 0.43420 0.54901
 H74 H 0.83194 0.40309 0.52206
 H75 H 0.76445 0.42004 0.44688
 H76 H 0.73844 0.44554 0.42039
 H77 H 0.67504 0.40420 0.44466
 H78 H 0.70192 0.38020 0.47057
 C79 C 0.81154 0.33230 0.43564
 C80 C 0.70128 0.32407 0.51905
 C81 C 0.70456 0.42675 0.43014
 C82 C 0.80080 0.41999 0.53857
 C83 C 0.23331 -0.12553 0.03156
 H84 H 0.24998 -0.12242 0.04229
 C85 C 0.21153 -0.13208 0.04305
 H86 H 0.21151 -0.13382 0.06261
 C87 C 0.21260 -0.12586 -0.00677
 H88 H 0.21291 -0.12310 -0.02611
 C89 C 0.19046 -0.13206 0.00397
 H90 H 0.17393 -0.13408 -0.00725
 N91 N 0.23328 -0.12179 0.00715
 C92 C 0.29394 -0.12162 -0.04197
 H93 H 0.29401 -0.10229 -0.04654
 C94 C 0.30940 -0.13739 -0.05385
 H95 H 0.32083 -0.13006 -0.06800
 C96 C 0.27884 -0.15436 -0.01787
 H97 H 0.26711 -0.16066 -0.00354
 C98 C 0.29431 -0.17082 -0.02917
 H99 H 0.29444 -0.18978 -0.02329
 Zn100 Zn 0.26082 -0.10668 -0.00774
 N101 N 0.27916 -0.13023 -0.02429
 C102 C 0.30573 -0.09600 0.01708
 N103 N 0.28151 -0.09077 0.01632
 C104 C 0.27192 -0.07562 0.03320
 C105 C 0.28672 -0.06576 0.05221
 C106 C 0.32117 -0.08642 0.03560
 C107 C 0.24125 -0.09288 -0.05280
 C108 C 0.23121 -0.07752 -0.07032
 C109 C 0.23819 -0.04319 -0.04273
 C110 C 0.24818 -0.05934 -0.02576
 N111 N 0.24918 -0.08376 -0.03090
 H112 H 0.31313 -0.10801 0.00358
 H113 H 0.25256 -0.07191 0.03240
 H114 H 0.27852 -0.05459 0.06600
 H115 H 0.34035 -0.09096 0.03582
 H116 H 0.24267 -0.11233 -0.05671
 H117 H 0.22627 -0.08597 -0.08762
 H118 H 0.23665 -0.02432 -0.03682
 H119 H 0.25455 -0.05236 -0.00824
 C120 C 0.31013 -0.16229 -0.04722
 C121 C 0.18964 -0.13448 0.02924
 C122 C 0.22896 -0.05199 -0.06563
 C123 C 0.31165 -0.07151 0.05382
 C124 C 0.23874 0.15573 0.46824
 H125 H 0.25526 0.15007 0.45960
 C126 C 0.22322 0.17214 0.45647
 H127 H 0.22785 0.17878 0.43865
 C128 C 0.21190 0.15258 0.50121
 H129 H 0.20716 0.14466 0.51839
 C130 C 0.19605 0.16908 0.49025
 H131 H 0.17956 0.17389 0.49947
 N132 N 0.23276 0.14613 0.49011
 C133 C 0.29730 0.12251 0.53088
 H134 H 0.29147 0.10395 0.53543
 C135 C 0.32002 0.13194 0.53938
 H136 H 0.33173 0.12052 0.55042
 C137 C 0.28938 0.15973 0.51031
 H138 H 0.27740 0.17049 0.49898
 C139 C 0.31205 0.16976 0.51815
 H140 H 0.31733 0.18829 0.51286
 Zn141 Zn 0.25307 0.12176 0.50393
 N142 N 0.28267 0.13633 0.51638
 C143 C 0.28376 0.09552 0.47298
 N144 N 0.26008 0.09916 0.47884
 C145 C 0.24117 0.08896 0.46532
 C146 C 0.24574 0.07493 0.44463
 C147 C 0.28915 0.08168 0.45245
 C148 C 0.23370 0.11987 0.55011
 C149 C 0.21965 0.11073 0.56896
 C150 C 0.21362 0.07250 0.54657
 C151 C 0.22766 0.08250 0.52797
 N152 N 0.23675 0.10606 0.52978
 H153 H 0.29855 0.10416 0.48362
 H154 H 0.22250 0.09246 0.47014
 H155 H 0.23044 0.06728 0.43389
 H156 H 0.30811 0.07996 0.44756
 H157 H 0.24147 0.13840 0.55125
 H158 H 0.21684 0.12227 0.58471
 H159 H 0.20571 0.05407 0.54453
 H160 H 0.23066 0.07167 0.51184
 C161 C 0.32777 0.15571 0.53265
 C162 C 0.20132 0.17874 0.46733
 C163 C 0.20894 0.08697 0.56707
 C164 C 0.27002 0.07157 0.43767
 C165 C 0.15151 0.47219 0.21952
 H166 H 0.14227 0.46006 0.23199
 C167 C 0.16534 0.46219 0.20110
 H168 H 0.16668 0.44239 0.19960
 C169 C 0.16080 0.51263 0.20610
 H170 H 0.15856 0.53225 0.20779
 C171 C 0.17489 0.50343 0.18747
 H172 H 0.18321 0.51615 0.17488
 N173 N 0.14884 0.49697 0.22119
 C174 C 0.12811 0.53745 0.28574
 H175 H 0.10995 0.54295 0.28013
 C176 C 0.13766 0.54437 0.30863
 H177 H 0.12670 0.55521 0.32059
 C178 C 0.16370 0.51515 0.27752
 H179 H 0.17349 0.50330 0.26550
 C180 C 0.17389 0.52154 0.30029
 H181 H 0.19175 0.51485 0.30550
 Zn182 Zn 0.12543 0.50979 0.24241
 N183 N 0.14098 0.52271 0.27096
 C184 C 0.09969 0.47889 0.27489
 N185 N 0.10329 0.48375 0.25103
 C186 C 0.09249 0.46933 0.23324
 C187 C 0.07721 0.44934 0.23914
 C188 C 0.08460 0.45904 0.28159
 C189 C 0.11968 0.55808 0.22541
 C190 C 0.10989 0.57645 0.21076
 C191 C 0.07741 0.54775 0.19796
 C192 C 0.08765 0.53005 0.21301
 N193 N 0.10878 0.53523 0.22590
 H194 H 0.10867 0.49021 0.28884
 H195 H 0.09625 0.47298 0.21441
 H196 H 0.06910 0.43789 0.22472
 H197 H 0.08181 0.45562 0.30067
 H198 H 0.13652 0.56177 0.23574
 H199 H 0.11926 0.59425 0.20988
 H200 H 0.06092 0.54310 0.18735
 H201 H 0.07902 0.51200 0.21372
 C202 C 0.16056 0.53585 0.31639
 C203 C 0.17667 0.47786 0.18435
 C204 C 0.08886 0.57110 0.19630
 C205 C 0.07316 0.44394 0.26360
 C206 C -0.16321 0.02110 0.24739
 H207 H -0.17278 0.01312 0.26241
 C208 C -0.17655 0.03358 0.22960
 H209 H -0.19613 0.03457 0.23163
 C210 C -0.12682 0.02680 0.22564
 H211 H -0.10761 0.02340 0.22367
 C212 C -0.13938 0.03926 0.20739
 H213 H -0.12877 0.04643 0.19260
 N214 N -0.13866 0.01838 0.24542
 C215 C -0.13774 -0.03592 0.30013
 H216 H -0.12597 -0.04781 0.29016
 C217 C -0.14919 -0.04477 0.32082
 H218 H -0.14580 -0.06341 0.32646
 C219 C -0.15421 0.00346 0.30610
 H220 H -0.15515 0.02259 0.30095
 C221 C -0.16658 -0.00480 0.32643
 H222 H -0.17787 0.00796 0.33592
 Zn223 Zn -0.11978 0.00108 0.26898
 N224 N -0.14000 -0.01203 0.29349
 C225 C -0.09505 0.02367 0.30904
 N226 N -0.09568 0.02244 0.28434
 C227 C -0.07963 0.03617 0.27118
 C228 C -0.06304 0.05276 0.28278
 C229 C -0.07875 0.03986 0.32133
 C230 C -0.11711 -0.03579 0.23398
 C231 C -0.10734 -0.05551 0.22159
 C232 C -0.07174 -0.05282 0.24856
 C233 C -0.08212 -0.03283 0.26031
 N234 N -0.10449 -0.02490 0.25292
 H235 H -0.10722 0.01216 0.31943
 H236 H -0.07964 0.03443 0.25170
 H237 H -0.05057 0.06371 0.27203
 H238 H -0.07914 0.04099 0.34094
 H239 H -0.13490 -0.02916 0.22852
 H240 H -0.11763 -0.06354 0.20629
 H241 H -0.05422 -0.05932 0.25507
 H242 H -0.07255 -0.02393 0.27557
 C243 C -0.16354 -0.02902 0.33462
 C244 C -0.16477 0.04303 0.20901
 C245 C -0.08451 -0.06458 0.22902
 C246 C -0.06267 0.05489 0.30819
 C247 C 0.34078 0.49059 0.73646
 H248 H 0.33207 0.48002 0.75052
 C249 C 0.32632 0.50257 0.71912
 H250 H 0.30655 0.50074 0.71976
 C251 C 0.37698 0.50606 0.71854
 H252 H 0.39670 0.50781 0.71860
 C253 C 0.36330 0.51821 0.70090
 H254 H 0.37277 0.52920 0.68757
 N255 N 0.36567 0.49242 0.73578
 C256 C 0.35200 0.43874 0.77250
 H257 H 0.35033 0.43492 0.75322
 C258 C 0.33893 0.42409 0.78875
 H259 H 0.32776 0.40872 0.78175
 C260 C 0.36873 0.46327 0.80488
 H261 H 0.38019 0.47866 0.81121
 C262 C 0.35575 0.44939 0.82168
 H263 H 0.35726 0.45464 0.84066
 Zn264 Zn 0.38608 0.47683 0.75909
 N265 N 0.36699 0.45759 0.78080
 C266 C 0.42402 0.49486 0.79039
 N267 N 0.40391 0.50138 0.77716
 C268 C 0.39596 0.52487 0.77742
 C269 C 0.40834 0.54291 0.79158
 C270 C 0.43696 0.51233 0.80479
 C271 C 0.42796 0.46912 0.73196
 C272 C 0.44422 0.45617 0.71787
 C273 C 0.42163 0.41862 0.72670
 C274 C 0.40585 0.43228 0.74070
 N275 N 0.40883 0.45720 0.74256
 H276 H 0.42985 0.47600 0.78989
 H277 H 0.37971 0.52953 0.76704
 H278 H 0.40139 0.56137 0.79199
 H279 H 0.45302 0.50683 0.81509
 H280 H 0.43057 0.48879 0.73432
 H281 H 0.45920 0.46611 0.70950
 H282 H 0.41827 0.39896 0.72469
 H283 H 0.39098 0.42290 0.74957
 C284 C 0.34087 0.42920 0.81381
 C285 C 0.33762 0.51649 0.70095
 C286 C 0.44089 0.43062 0.71468
 C287 C 0.42905 0.53671 0.80563
 C288 C 0.63870 0.99971 0.71210
 H289 H 0.62945 1.01701 0.71170
 C290 C 0.65214 0.99261 0.69217
 H291 H 0.65294 1.00451 0.67653
 C292 C 0.64795 0.96267 0.73241
 H293 H 0.64593 0.95103 0.74811
 C294 C 0.66143 0.95475 0.71276
 H295 H 0.67001 0.93703 0.71351
 N296 N 0.63682 0.98474 0.73165
 C297 C 0.62474 1.01475 0.80321
 H298 H 0.60528 1.01780 0.80150
 C299 C 0.63796 1.02358 0.82357
 H300 H 0.62794 1.03257 0.83763
 C301 C 0.66055 0.99845 0.78682
 H302 H 0.66934 0.98913 0.77216
 C303 C 0.67449 1.00659 0.80712
 H304 H 0.69398 1.00361 0.80729
 Zn305 Zn 0.61683 0.99373 0.75750
 N306 N 0.63615 1.00262 0.78529
 C307 C 0.59397 0.95841 0.78759
 N308 N 0.59565 0.96667 0.76444
 C309 C 0.58297 0.95528 0.74577
 C310 C 0.56744 0.93500 0.75011
 C311 C 0.57863 0.93825 0.79275
 C312 C 0.57480 1.01980 0.74116
 C313 C 0.56216 1.04095 0.73488
 C314 C 0.59880 1.06540 0.74479
 C315 C 0.61084 1.04382 0.75040
 N316 N 0.59875 1.02161 0.74862
 H317 H 0.60445 0.96747 0.80214
 H318 H 0.58504 0.96191 0.72746
 H319 H 0.55763 0.92608 0.73498
 H320 H 0.57713 0.93234 0.81138
 H321 H 0.56547 1.00202 0.73999
 H322 H 0.54313 1.03935 0.72890
 H323 H 0.60869 1.08294 0.74628
 H324 H 0.62989 1.04473 0.75629
 C325 C 0.66338 1.01976 0.82590
 C326 C 0.66350 0.96976 0.69224
 C327 C 0.57419 1.06407 0.73688
 C328 C 0.56503 0.92630 0.77390
 C329 C 0.02171 0.22541 -0.14187
 H330 H 0.03423 0.23939 -0.13432
 C331 C 0.03074 0.20601 -0.15553
 H332 H 0.05020 0.20560 -0.15872
 C333 C -0.01881 0.20906 -0.14690
 H334 H -0.03809 0.21027 -0.14312
 C335 C -0.01057 0.18920 -0.16029
 H336 H -0.02373 0.17507 -0.16641
 N337 N -0.00268 0.22649 -0.13781
 C338 C -0.04558 0.29119 -0.12471
 H339 H -0.04432 0.29237 -0.10511
 C340 C -0.05875 0.30853 -0.13777
 H341 H -0.06804 0.32265 -0.12790
 C342 C -0.03519 0.27090 -0.16109
 H343 H -0.02563 0.25641 -0.17008
 C344 C -0.04779 0.28813 -0.17491
 H345 H -0.04758 0.28672 -0.19450
 Zn346 Zn -0.01581 0.25074 -0.11763
 N347 N -0.03437 0.27272 -0.13646
 C348 C 0.02180 0.28625 -0.11556
 N349 N 0.00959 0.26962 -0.10166
 C350 C 0.01482 0.26768 -0.07747
 C351 C 0.03330 0.28260 -0.06649
 C352 C 0.03997 0.30189 -0.10521
 C353 C -0.06058 0.23725 -0.09558
 C354 C -0.07581 0.22311 -0.08085
 C355 C -0.04022 0.20218 -0.06581
 C356 C -0.02580 0.21658 -0.08106
 N357 N -0.03606 0.23386 -0.09540
 H358 H 0.01713 0.28756 -0.13470
 H359 H 0.00462 0.25479 -0.06657
 H360 H 0.03731 0.28098 -0.04722
 H361 H 0.04939 0.31522 -0.11643
 H362 H -0.06865 0.25027 -0.10790
 H363 H -0.09520 0.22594 -0.08309
 H364 H -0.03051 0.18979 -0.05407
 H365 H -0.00628 0.21380 -0.08163
 C366 C -0.05985 0.30731 -0.16328
 C367 C 0.01456 0.18734 -0.16469
 C368 C -0.06602 0.20478 -0.06548
 C369 C 0.04589 0.30008 -0.08041
 C370 C 0.46959 0.23100 0.15279
 H371 H 0.45757 0.24315 0.14308
 C372 C 0.45947 0.21274 0.16751
 H373 H 0.43976 0.21107 0.16895
 C374 C 0.50969 0.21820 0.16265
 H375 H 0.52922 0.22001 0.16031
 C376 C 0.50036 0.19980 0.17770
 H377 H 0.51292 0.18755 0.18669
 N378 N 0.49426 0.23280 0.14987
 C379 C 0.54235 0.29026 0.12151
 H380 H 0.54457 0.28193 0.10384
 C381 C 0.55347 0.31312 0.12679
 H382 H 0.56463 0.32203 0.11327
 C383 C 0.52328 0.28979 0.15970
 H384 H 0.51060 0.28104 0.17192
 C385 C 0.53421 0.31278 0.16579
 H386 H 0.53000 0.32162 0.18281
 Zn387 Zn 0.50723 0.25293 0.12487
 N388 N 0.52707 0.27941 0.13759
 C389 C 0.47999 0.29177 0.10590
 N390 N 0.48099 0.26676 0.10637
 C391 C 0.46281 0.25237 0.09571
 C392 C 0.44220 0.26311 0.08501
 C393 C 0.45985 0.30317 0.09546
 C394 C 0.55009 0.22881 0.11424
 C395 C 0.56575 0.21388 0.10150
 C396 C 0.53417 0.20829 0.07027
 C397 C 0.51919 0.22363 0.08349
 N398 N 0.52720 0.23323 0.10526
 H399 H 0.49436 0.30309 0.11439
 H400 H 0.46368 0.23253 0.09662
 H401 H 0.42739 0.25143 0.07759
 H402 H 0.45926 0.32309 0.09581
 H403 H 0.55622 0.23692 0.13140
 H404 H 0.58373 0.21026 0.10917
 H405 H 0.52748 0.20056 0.05308
 H406 H 0.50114 0.22758 0.07642
 C407 C 0.54874 0.32504 0.14876
 C408 C 0.47489 0.19638 0.17964
 C409 C 0.55773 0.20317 0.07935
 C410 C 0.44032 0.28883 0.08545
 C411 C 0.96133 0.72901 0.64993
 H412 H 0.95446 0.74734 0.64750
 C413 C 0.94805 0.71173 0.66328
 H414 H 0.93089 0.71698 0.67095
 C415 C 0.99120 0.69963 0.64123
 H416 H 1.00772 0.69484 0.63212
 C417 C 0.97856 0.68179 0.65454
 H418 H 0.98586 0.66352 0.65597
 N419 N 0.98230 0.72265 0.63902
 C420 C 1.02165 0.79133 0.62259
 H421 H 1.02228 0.78971 0.60304
 C422 C 1.03417 0.81082 0.63462
 H423 H 1.04442 0.82413 0.62412
 C424 C 1.00876 0.77489 0.66001
 H425 H 0.99929 0.76055 0.66986
 C426 C 1.02104 0.79408 0.67278
 H427 H 1.02043 0.79457 0.69240
 Zn428 Zn 0.99643 0.74598 0.61787
 N429 N 1.00943 0.77377 0.63538
 C430 C 0.96299 0.77838 0.59527
 N431 N 0.97104 0.75494 0.59597
 C432 C 0.95938 0.73651 0.58297
 C433 C 0.93871 0.74129 0.56855
 C434 C 0.94217 0.78394 0.58131
 C435 C 1.04367 0.72909 0.61495
 C436 C 1.06490 0.72126 0.60409
 C437 C 1.04282 0.71916 0.56551
 C438 C 1.02208 0.72756 0.57704
 N439 N 1.02288 0.73230 0.60136
 H440 H 0.97209 0.79262 0.60629
 H441 H 0.96584 0.71791 0.58430
 H442 H 0.92982 0.72631 0.55833
 H443 H 0.93551 0.80251 0.58185
 H444 H 1.04387 0.73325 0.63419
 H445 H 1.08147 0.71926 0.61504
 H446 H 1.04214 0.71576 0.54611
 H447 H 1.00560 0.73075 0.56642
 C448 C 1.03428 0.81220 0.66009
 C449 C 0.95641 0.68760 0.66543
 C450 C 1.06461 0.71635 0.57908
 C451 C 0.92951 0.76519 0.56793
 C452 C 0.51714 0.73333 0.35272
 H453 H 0.52369 0.75220 0.35516
 C454 C 0.52989 0.71724 0.33810
 H455 H 0.54637 0.72394 0.32953
 C456 C 0.48865 0.70145 0.36246
 H457 H 0.47292 0.69516 0.37237
 C458 C 0.50067 0.68482 0.34780
 H459 H 0.49356 0.66605 0.34622
 N460 N 0.49707 0.72519 0.36472
 C461 C 0.45520 0.79001 0.38312
 H462 H 0.45536 0.78909 0.40273
 C463 C 0.44259 0.80867 0.37125
 H464 H 0.43279 0.82144 0.38228
 C465 C 0.46673 0.77312 0.34558
 H466 H 0.47615 0.75921 0.33561
 C467 C 0.45429 0.79129 0.33294
 H468 H 0.45545 0.79122 0.31340
 Zn469 Zn 0.48319 0.74735 0.38692
 N470 N 0.46705 0.77282 0.37021
 C471 C 0.51453 0.78473 0.40911
 N472 N 0.50949 0.76012 0.40675
 C473 C 0.52354 0.74334 0.41831
 C474 C 0.54255 0.75106 0.43420
 C475 C 0.53375 0.79326 0.42452
 C476 C 0.43904 0.72091 0.39557
 C477 C 0.42298 0.70593 0.40871
 C478 C 0.44993 0.71145 0.44391
 C479 C 0.46520 0.72661 0.43027
 N480 N 0.46009 0.73025 0.40628
 H481 H 0.50358 0.79775 0.39926
 H482 H 0.51952 0.72387 0.41560
 H483 H 0.55318 0.73748 0.44375
 H484 H 0.53732 0.81289 0.42669
 H485 H 0.43519 0.72439 0.37656
 H486 H 0.40674 0.69783 0.39978
 H487 H 0.45470 0.70801 0.46275
 H488 H 0.48141 0.73489 0.43884
 C489 C 0.44172 0.80960 0.34561
 C490 C 0.52187 0.69249 0.33569
 C491 C 0.42884 0.70052 0.43297
 C492 C 0.54764 0.77629 0.43761
 C493 C 0.37305 -0.00466 0.22023
 C494 C 0.37667 0.00806 0.24230
 C495 C 0.38714 0.03196 0.24233
 C496 C 0.39458 0.04297 0.22053
 C497 C 0.39021 0.03006 0.19845
 C498 C 0.37958 0.00623 0.19831
 C499 C 0.37017 -0.00418 0.26526
 C500 C 0.37776 -0.02819 0.26980
 C501 C 0.37098 -0.04057 0.29096
 C502 C 0.35651 -0.02856 0.30786
 C503 C 0.34834 -0.00465 0.30333
 C504 C 0.35557 0.00753 0.28214
 H505 H 0.36491 -0.02310 0.22007
 H506 H 0.39004 0.04169 0.25944
 H507 H 0.38915 -0.03723 0.25681
 H508 H 0.34937 0.02595 0.27850
 H509 H 0.39613 0.03792 0.18150
 H510 H 0.35063 -0.03824 0.32391
 C511 C 0.12859 1.01321 0.72035
 C512 C 0.12219 0.99895 0.74036
 C513 C 0.11650 0.97379 0.73710
 C514 C 0.11670 0.96293 0.71379
 C515 C 0.12356 0.97750 0.69390
 C516 C 0.12936 1.00270 0.69707
 C517 C 0.11961 1.01106 0.76421
 C518 C 0.10340 1.03049 0.76629
 C519 C 0.10100 1.04305 0.78845
 C520 C 0.11570 1.03618 0.80845
 C521 C 0.13271 1.01738 0.80642
 C522 C 0.13410 1.00438 0.78435
 H523 H 0.13297 1.03267 0.72297
 H524 H 0.11065 0.96306 0.75250
 H525 H 0.09291 1.03595 0.75038
 H526 H 0.14726 0.98997 0.78246
 H527 H 0.12385 0.96941 0.67587
 H528 H 0.11392 1.04535 0.82580
 C529 C 0.64423 0.52512 0.21649
 C530 C 0.63006 0.50981 0.23132
 C531 C 0.61892 0.48820 0.22155
 C532 C 0.62114 0.48242 0.19678
 C533 C 0.63525 0.49818 0.18213
 C534 C 0.64660 0.51981 0.19170
 C535 C 0.62444 0.51856 0.25597
 C536 C 0.61377 0.54161 0.25861
 C537 C 0.60911 0.55131 0.28165
 C538 C 0.61529 0.53744 0.30219
 C539 C 0.62555 0.51410 0.29993
 C540 C 0.63009 0.50470 0.27665
 H541 H 0.65286 0.54164 0.22435
 H542 H 0.60724 0.47686 0.23280
 H543 H 0.60883 0.55182 0.24249
 H544 H 0.63815 0.48682 0.27461
 H545 H 0.63653 0.49405 0.16296
 H546 H 0.61273 0.54509 0.32012
 C547 C 0.85226 0.48936 0.70994
 C548 C 0.85682 0.50280 0.73150
 C549 C 0.86422 0.52772 0.73021
 C550 C 0.86736 0.53910 0.70755
 C551 C 0.86227 0.52530 0.68614
 C552 C 0.85516 0.50035 0.68727
 C553 C 0.85529 0.49008 0.75513
 C554 C 0.86563 0.46681 0.75781
 C555 C 0.86355 0.45382 0.77952
 C556 C 0.85086 0.46413 0.79868
 C557 C 0.84010 0.48718 0.79631
 C558 C 0.84280 0.50037 0.77462
 H559 H 0.84657 0.47010 0.71077
 H560 H 0.86876 0.53779 0.74684
 H561 H 0.87555 0.45886 0.74302
 H562 H 0.83424 0.51800 0.77251
 H563 H 0.86456 0.53369 0.66855
 H564 H 0.84894 0.45391 0.81537
 C565 C 0.20890 0.36357 -0.00654
 C566 C 0.23153 0.36915 0.00521
 C567 C 0.23214 0.38392 0.02630
 C568 C 0.21056 0.39341 0.03550
 C569 C 0.18814 0.38799 0.02324
 C570 C 0.18721 0.37305 0.00232
 C571 C 0.25474 0.36071 -0.00507
 C572 C 0.25892 0.36292 -0.02998
 C573 C 0.28181 0.35748 -0.03953
 C574 C 0.30060 0.34951 -0.02373
 C575 C 0.29673 0.34736 0.00129
 C576 C 0.27360 0.35251 0.01031
 H577 H 0.20819 0.35221 -0.02282
 H578 H 0.24953 0.38830 0.03544
 H579 H 0.24478 0.37035 -0.04172
 H580 H 0.27039 0.35056 0.02953
 H581 H 0.17137 0.39555 0.02982
 H582 H 0.31849 0.34584 -0.03074
 C583 C 0.71390 0.12642 1.01856
 C584 C 0.73621 0.11948 1.00872
 C585 C 0.73604 0.10737 0.98608
 C586 C 0.71390 0.10162 0.97349
 C587 C 0.69181 0.10870 0.98366
 C588 C 0.69156 0.12110 1.00612
 C589 C 0.75958 0.12313 1.02279
 C590 C 0.76089 0.11651 1.04740
 C591 C 0.78340 0.11718 1.06029
 C592 C 0.80464 0.12504 1.04846
 C593 C 0.80371 0.13171 1.02395
 C594 C 0.78109 0.13101 1.01125
 H595 H 0.71394 0.13553 1.03612
 H596 H 0.75319 0.10188 0.97856
 H597 H 0.74460 0.10948 1.05612
 H598 H 0.78037 0.13581 0.99220
 H599 H 0.67461 0.10425 0.97423
 H600 H 0.82208 0.12584 1.05831
 C601 C 0.21816 0.62820 0.51710
 C602 C 0.23474 0.61152 0.50805
 C603 C 0.22860 0.59789 0.48703
 C604 C 0.20573 0.60043 0.47515
 C605 C 0.18933 0.61764 0.48413
 C606 C 0.19559 0.63182 0.50502
 C607 C 0.25882 0.60884 0.52024
 C608 C 0.26042 0.60006 0.54407
 C609 C 0.28336 0.59742 0.55572
 C610 C 0.30465 0.60456 0.54346
 C611 C 0.30331 0.61345 0.51958
 C612 C 0.28023 0.61522 0.50800
 H613 H 0.22307 0.63859 0.53348
 H614 H 0.24172 0.58524 0.47998
 H615 H 0.24379 0.59463 0.55318
 H616 H 0.27880 0.62169 0.48948
 H617 H 0.17182 0.62003 0.47490
 H618 H 0.32229 0.60370 0.55280
 C619 C 0.70830 0.85102 0.50790
 C620 C 0.72924 0.86508 0.51486
 C621 C 0.72864 0.88113 0.53484
 C622 C 0.70719 0.88315 0.54816
 C623 C 0.68635 0.86873 0.54118
 C624 C 0.68677 0.85275 0.52106
 C625 C 0.75195 0.86293 0.50142
 C626 C 0.75821 0.88063 0.48420
 C627 C 0.78032 0.87923 0.47197
 C628 C 0.79635 0.86016 0.47737
 C629 C 0.79053 0.84267 0.49514
 C630 C 0.76803 0.84400 0.50684
 H631 H 0.70886 0.83860 0.49244
 H632 H 0.74504 0.89175 0.54015
 H633 H 0.74589 0.89548 0.48034
 H634 H 0.76341 0.83100 0.52093
 H635 H 0.66950 0.87044 0.55092
 H636 H 0.81363 0.85937 0.46819
 C637 C 0.00896 0.22214 0.36276
 C638 C 0.01883 0.24593 0.36754
 C639 C 0.04275 0.24882 0.37754
 C640 C 0.05640 0.22798 0.38323
 C641 C 0.04639 0.20445 0.37774
 C642 C 0.02264 0.20127 0.36785
 C643 C 0.00342 0.26745 0.36289
 C644 C -0.02029 0.26784 0.37217
 C645 C -0.03613 0.28698 0.36639
 C646 C -0.02795 0.30572 0.35092
 C647 C -0.00423 0.30572 0.34164
 C648 C 0.01157 0.28673 0.34804
 H649 H -0.00958 0.21991 0.35540
 H650 H 0.05021 0.26708 0.38185
 H651 H -0.02626 0.25323 0.38410
 H652 H 0.02970 0.28629 0.34052
 H653 H 0.05726 0.18841 0.38125
 H654 H -0.04013 0.32031 0.34583
 C655 C 1.02883 0.73279 0.12252
 C656 C 1.01532 0.75390 0.11802
 C657 C 0.99215 0.75165 0.10653
 C658 C 0.98168 0.72852 0.10032
 C659 C 0.99531 0.70747 0.10501
 C660 C 1.01889 0.70940 0.11596
 C661 C 1.02397 0.77861 0.12632
 C662 C 1.04386 0.79064 0.11552
 C663 C 1.04794 0.81614 0.11899
 C664 C 1.03195 0.82939 0.13358
 C665 C 1.01209 0.81739 0.14471
 C666 C 1.00900 0.79180 0.14167
 H667 H 1.04674 0.73455 0.13141
 H668 H 0.98220 0.76819 0.10264
 H669 H 1.05487 0.78061 0.10292
 H670 H 0.99389 0.78208 0.15009
 H671 H 0.98718 0.68940 0.10110
 H672 H 1.03436 0.84919 0.13527
 C673 C 0.51613 0.22097 0.64907
 C674 C 0.50927 0.23734 0.63088
 C675 C 0.48974 0.23113 0.61489
 C676 C 0.47721 0.20827 0.61654
 C677 C 0.48409 0.19196 0.63507
 C678 C 0.50348 0.19827 0.65150
 C679 C 0.52336 0.26043 0.62748
 C680 C 0.54533 0.26011 0.61503
 C681 C 0.55777 0.28219 0.60909
 C682 C 0.54829 0.30466 0.61708
 C683 C 0.52664 0.30510 0.63041
 C684 C 0.51409 0.28281 0.63515
 H685 H 0.53166 0.22578 0.66100
 H686 H 0.48457 0.24409 0.60096
 H687 H 0.55234 0.24250 0.60962
 H688 H 0.49683 0.28281 0.64442
 H689 H 0.47460 0.17428 0.63654
 H690 H 0.55751 0.32188 0.61273
 C691 C 0.49123 0.70475 0.86849
 C692 C 0.50119 0.72862 0.87202
 C693 C 0.52522 0.73187 0.88138
 C694 C 0.53910 0.71144 0.88808
 C695 C 0.52868 0.68762 0.88457
 C696 C 0.50496 0.68413 0.87446
 C697 C 0.48609 0.75015 0.86663
 C698 C 0.46296 0.75202 0.87697
 C699 C 0.44868 0.77265 0.87258
 C700 C 0.45736 0.79101 0.85694
 C701 C 0.48028 0.78926 0.84620
 C702 C 0.49478 0.76895 0.85147
 H703 H 0.47270 0.70226 0.86117
 H704 H 0.53289 0.75037 0.88376
 H705 H 0.45653 0.73784 0.88917
 H706 H 0.51251 0.76741 0.84329
 H707 H 0.53895 0.67166 0.88975
 H708 H 0.44630 0.80689 0.85328
 C709 C 0.41199 -0.13079 0.33078
 C710 C 0.40410 -0.13547 0.30731
 C711 C 0.40763 -0.15773 0.29562
 C712 C 0.41992 -0.17597 0.30857
 C713 C 0.42871 -0.17186 0.33297
 C714 C 0.42422 -0.14867 0.34411
 O715 O 0.40742 -0.10808 0.33825
 C716 C 0.39638 -0.09826 0.31902
 C717 C 0.39392 -0.11430 0.29961
 C718 C 0.38363 -0.10770 0.27736
 C719 C 0.37575 -0.08348 0.27492
 C720 C 0.37825 -0.06641 0.29457
 C721 C 0.38846 -0.07408 0.31707
 H722 H 0.40112 -0.16100 0.27712
 H723 H 0.42170 -0.19352 0.29950
 H724 H 0.43102 -0.14388 0.36218
 H725 H 0.38201 -0.12063 0.26232
 H726 H 0.36777 -0.07796 0.25769
 H727 H 0.39089 -0.06140 0.33226
 C728 C 0.91337 0.36786 0.81731
 C729 C 0.90198 0.36116 0.79562
 C730 C 0.90219 0.33728 0.78636
 C731 C 0.91467 0.31962 0.80002
 C732 C 0.92687 0.32611 0.82240
 C733 C 0.92617 0.35076 0.83096
 O734 O 0.91048 0.39128 0.82327
 C735 C 0.89697 0.39959 0.80493
 C736 C 0.89139 0.38197 0.78741
 C737 C 0.87742 0.38682 0.76661
 C738 C 0.86872 0.41077 0.76388
 C739 C 0.87388 0.42908 0.78197
 C740 C 0.88830 0.42336 0.80273
 H741 H 0.89283 0.33234 0.76938
 H742 H 0.91444 0.30084 0.79330
 H743 H 0.93547 0.35666 0.84768
 H744 H 0.87325 0.37268 0.75306
 H745 H 0.85754 0.41492 0.74801
 H746 H 0.89258 0.43701 0.81675
 C747 C 0.05392 1.13406 0.81765
 C748 C 0.03907 1.12247 0.80029
 C749 C 0.01669 1.13167 0.79269
 C750 C 0.00915 1.15350 0.80368
 C751 C 0.02377 1.16547 0.82226
 C752 C 0.04667 1.15558 0.82904
 O753 O 0.07438 1.12222 0.82244
 C754 C 0.07232 1.10263 0.80790
 C755 C 0.05099 1.10182 0.79407
 C756 C 0.04472 1.08238 0.77836
 C757 C 0.06114 1.06303 0.77678
 C758 C 0.08358 1.06357 0.79053
 C759 C 0.08912 1.08390 0.80626
 H760 H 0.00537 1.12231 0.77886
 H761 H -0.00815 1.16094 0.79774
 H762 H 0.05819 1.16378 0.84338
 H763 H 0.02761 1.08192 0.76797
 H764 H 0.05608 1.04749 0.76511
 H765 H 0.10607 1.08532 0.81685
 C766 C 0.55255 0.63392 0.31687
 C767 C 0.56468 0.64168 0.29664
 C768 C 0.56309 0.66550 0.28779
 C769 C 0.54857 0.68201 0.30042
 C770 C 0.53616 0.67457 0.32164
 C771 C 0.53822 0.65001 0.32979
 O772 O 0.55652 0.61063 0.32242
 C773 C 0.57157 0.60353 0.30537
 C774 C 0.57723 0.62182 0.28919
 C775 C 0.59320 0.61842 0.27028
 C776 C 0.60371 0.59523 0.26797
 C777 C 0.59795 0.57588 0.28430
 C778 C 0.58152 0.58029 0.30324
 H779 H 0.57271 0.67120 0.27176
 H780 H 0.54697 0.70053 0.29359
 H781 H 0.52951 0.64369 0.34611
 H782 H 0.59764 0.63318 0.25792
 H783 H 0.61662 0.59256 0.25367
 H784 H 0.57639 0.56604 0.31590
 C785 C 0.57660 0.38472 0.17467
 C786 C 0.57087 0.40045 0.15606
 C787 C 0.55788 0.39290 0.13518
 C788 C 0.55061 0.36803 0.13327
 C789 C 0.55631 0.35126 0.15207
 C790 C 0.56925 0.35981 0.17327
 O791 O 0.58977 0.39571 0.19253
 C792 C 0.59234 0.41882 0.18496
 C793 C 0.58103 0.42259 0.16277
 C794 C 0.58164 0.44516 0.15113
 C795 C 0.59464 0.46470 0.16273
 C796 C 0.60691 0.46140 0.18547
 C797 C 0.60545 0.43809 0.19688
 H798 H 0.55371 0.40565 0.12077
 H799 H 0.54048 0.36177 0.11711
 H800 H 0.57396 0.34737 0.18780
 H801 H 0.57251 0.44763 0.13369
 H802 H 0.59502 0.48248 0.15398
 H803 H 0.61468 0.43494 0.21415
 C804 C 0.06510 0.87368 0.67676
 C805 C 0.07803 0.86757 0.69749
 C806 C 0.07717 0.84400 0.70714
 C807 C 0.06251 0.82597 0.69485
 C808 C 0.04904 0.83173 0.67332
 C809 C 0.05042 0.85607 0.66426
 O810 O 0.06825 0.89714 0.67071
 C811 C 0.08354 0.90603 0.68796
 C812 C 0.09012 0.88872 0.70480
 C813 C 0.10579 0.89422 0.72454
 C814 C 0.11486 0.91860 0.72713
 C815 C 0.10819 0.93690 0.71011
 C816 C 0.09239 0.93032 0.69015
 H817 H 0.08753 0.83959 0.72347
 H818 H 0.06207 0.80741 0.70187
 H819 H 0.04024 0.86122 0.64806
 H820 H 0.11073 0.88028 0.73756
 H821 H 0.12707 0.92323 0.74239
 H822 H 0.08656 0.94385 0.67706
 C823 C 0.92445 0.62673 0.67916
 C824 C 0.91117 0.63300 0.69904
 C825 C 0.91240 0.65650 0.70931
 C826 C 0.92774 0.67427 0.69849
 C827 C 0.94138 0.66835 0.67770
 C828 C 0.93969 0.64406 0.66809
 O829 O 0.92069 0.60350 0.67210
 C830 C 0.90465 0.59490 0.68782
 C831 C 0.89814 0.61217 0.70467
 C832 C 0.88135 0.60697 0.72263
 C833 C 0.87101 0.58298 0.72331
 C834 C 0.87762 0.56473 0.70623
 C835 C 0.89475 0.57099 0.68824
 H836 H 0.90188 0.66103 0.72503
 H837 H 0.92899 0.69261 0.70635
 H838 H 0.94939 0.63889 0.65203
 H839 H 0.87635 0.62088 0.73563
 H840 H 0.85775 0.57869 0.73703
 H841 H 0.90065 0.55756 0.67517
 C842 C 0.43666 0.13948 0.19417
 C843 C 0.44762 0.13251 0.21568
 C844 C 0.46687 0.14602 0.22684
 C845 C 0.47536 0.16743 0.21520
 C846 C 0.46454 0.17491 0.19284
 C847 C 0.44468 0.16076 0.18240
 O848 O 0.41936 0.12357 0.18606
 C849 C 0.41942 0.10612 0.20279
 C850 C 0.43634 0.11072 0.22132
 C851 C 0.44013 0.09438 0.24022
 C852 C 0.42600 0.07237 0.23999
 C853 C 0.40838 0.06705 0.22105
 C854 C 0.40506 0.08441 0.20226
 H855 H 0.47533 0.14008 0.24370
 H856 H 0.49047 0.17806 0.22349
 H857 H 0.43637 0.16560 0.16509
 H858 H 0.45382 0.09820 0.25441
 H859 H 0.42935 0.05918 0.25422
 H860 H 0.39186 0.08106 0.18752
 C861 C 0.32438 0.39677 -0.12798
 C862 C 0.30156 0.38695 -0.13409
 C863 C 0.29068 0.38979 -0.15697
 C864 C 0.30381 0.40343 -0.17416
 C865 C 0.32746 0.41383 -0.16830
 C866 C 0.33787 0.41003 -0.14483
 O867 O 0.33095 0.39321 -0.10497
 C868 C 0.31183 0.38088 -0.09628
 C869 C 0.29337 0.37644 -0.11336
 C870 C 0.27131 0.36463 -0.10781
 C871 C 0.26802 0.35750 -0.08362
 C872 C 0.28657 0.36245 -0.06551
 C873 C 0.30894 0.37401 -0.07219
 H874 H 0.27250 0.38227 -0.16126
 H875 H 0.29521 0.40643 -0.19176
 H876 H 0.35590 0.41736 -0.13962
 H877 H 0.25698 0.36141 -0.12150
 H878 H 0.25087 0.34848 -0.07894
 H879 H 0.32325 0.37869 -0.05884
 C880 C 0.81167 0.93058 0.38482
 C881 C 0.80882 0.94780 0.40286
 C882 C 0.81433 0.97267 0.39985
 C883 C 0.82326 0.98010 0.37735
 C884 C 0.82607 0.96280 0.35812
 C885 C 0.81992 0.93761 0.36210
 O886 O 0.80639 0.90773 0.39175
 C887 C 0.80005 0.91062 0.41466
 C888 C 0.80102 0.93483 0.42228
 C889 C 0.79508 0.94205 0.44562
 C890 C 0.78789 0.92354 0.46178
 C891 C 0.78720 0.89843 0.45446
 C892 C 0.79339 0.89190 0.43055
 H893 H 0.81238 0.98582 0.41449
 H894 H 0.82858 0.99929 0.37532
 H895 H 0.82155 0.92376 0.34806
 H896 H 0.79597 0.96122 0.45119
 H897 H 0.78327 0.92865 0.48011
 H898 H 0.79292 0.87285 0.42455
 C899 C 0.81788 0.06911 1.14872
 C900 C 0.79667 0.08073 1.15410
 C901 C 0.78702 0.08038 1.17716
 C902 C 0.79980 0.06765 1.19539
 C903 C 0.82207 0.05552 1.19046
 C904 C 0.83086 0.05640 1.16639
 O905 O 0.82414 0.07157 1.12578
 C906 C 0.80656 0.08519 1.11647
 C907 C 0.78923 0.09134 1.13295
 C908 C 0.76932 0.10571 1.12683
 C909 C 0.76735 0.11414 1.10279
 C910 C 0.78519 0.10813 1.08557
 C911 C 0.80495 0.09326 1.09263
 H912 H 0.77037 0.08983 1.18109
 H913 H 0.79266 0.06832 1.21349
 H914 H 0.84694 0.04685 1.16094
 H915 H 0.75590 0.11041 1.14009
 H916 H 0.75220 0.12563 1.09771
 H917 H 0.81866 0.08794 1.07990
 C918 C 0.31764 0.54345 0.64093
 C919 C 0.29734 0.55609 0.64751
 C920 C 0.28874 0.55589 0.67108
 C921 C 0.30175 0.54232 0.68854
 C922 C 0.32298 0.52944 0.68220
 C923 C 0.33076 0.52989 0.65790
 O924 O 0.32320 0.54635 0.61784
 C925 C 0.30611 0.56124 0.60963
 C926 C 0.28980 0.56778 0.62699
 C927 C 0.27079 0.58373 0.62222
 C928 C 0.26860 0.59333 0.59865
 C929 C 0.28533 0.58691 0.58047
 C930 C 0.30423 0.57045 0.58618
 H931 H 0.27283 0.56610 0.67593
 H932 H 0.29571 0.54243 0.70709
 H933 H 0.34674 0.52014 0.65237
 H934 H 0.25826 0.58882 0.63619
 H935 H 0.25420 0.60611 0.59472
 H936 H 0.31716 0.56491 0.57275
 C937 C 0.17517 0.56624 0.37742
 C938 C 0.18498 0.54683 0.38980
 C939 C 0.18779 0.52379 0.37926
 C940 C 0.18001 0.52055 0.35496
 C941 C 0.16963 0.54019 0.34173
 C942 C 0.16719 0.56340 0.35323
 O943 O 0.17452 0.58670 0.39077
 C944 C 0.18409 0.57999 0.41204
 C945 C 0.19071 0.55575 0.41237
 C946 C 0.20127 0.54486 0.43265
 C947 C 0.20553 0.55964 0.45338
 C948 C 0.19935 0.58488 0.45348
 C949 C 0.18815 0.59508 0.43252
 H950 H 0.19559 0.50881 0.38940
 H951 H 0.18163 0.50257 0.34662
 H952 H 0.15949 0.57879 0.34362
 H953 H 0.20623 0.52571 0.43247
 H954 H 0.21375 0.55143 0.46935
 H955 H 0.18346 0.61430 0.43190
 C956 C 0.68270 0.05800 0.87994
 C957 C 0.70295 0.04576 0.88800
 C958 C 0.71158 0.02530 0.87598
 C959 C 0.69868 0.01701 0.85492
 C960 C 0.67713 0.02890 0.84643
 C961 C 0.66946 0.05000 0.85933
 O962 O 0.67714 0.07676 0.89412
 C963 C 0.69412 0.07620 0.91171
 C964 C 0.71035 0.05756 0.90893
 C965 C 0.72876 0.05292 0.92605
 C966 C 0.73022 0.06787 0.94702
 C967 C 0.71355 0.08720 0.95038
 C968 C 0.69555 0.09156 0.93206
 H969 H 0.72747 0.01579 0.88277
 H970 H 0.70494 0.00053 0.84617
 H971 H 0.65389 0.06048 0.85341
 H972 H 0.74109 0.03788 0.92371
 H973 H 0.74378 0.06375 0.96095
 H974 H 0.68263 0.10618 0.93372
 C975 C 0.68275 0.92987 0.64013
 C976 C 0.69708 0.94633 0.62754
 C977 C 0.70195 0.97036 0.63557
 C978 C 0.69136 0.97778 0.65731
 C979 C 0.67625 0.96119 0.67047
 C980 C 0.67220 0.93678 0.66180
 O981 O 0.67946 0.90829 0.62890
 C982 C 0.69193 0.91120 0.60874
 C983 C 0.70309 0.93412 0.60701
 C984 C 0.71627 0.94135 0.58689
 C985 C 0.71788 0.92430 0.56774
 C986 C 0.70636 0.90056 0.56900
 C987 C 0.69339 0.89397 0.59001
 H988 H 0.71314 0.98306 0.62527
 H989 H 0.69474 0.99648 0.66378
 H990 H 0.66033 0.92386 0.67109
 H991 H 0.72463 0.95960 0.58579
 H992 H 0.72753 0.92986 0.55167
 H993 H 0.68449 0.87602 0.59169
 C994 C 0.18789 0.43955 0.12844
 C995 C 0.20902 0.45068 0.12028
 C996 C 0.22100 0.47017 0.13262
 C997 C 0.21061 0.47869 0.15409
 C998 C 0.18866 0.46764 0.16276
 C999 C 0.17735 0.44760 0.14973
 O1000 O 0.17897 0.42180 0.11376
 C1001 C 0.19479 0.42172 0.09590
 C1002 C 0.21354 0.43901 0.09898
 C1003 C 0.23180 0.44237 0.08210
 C1004 C 0.23070 0.42728 0.06125
 C1005 C 0.21153 0.40924 0.05765
 C1006 C 0.19335 0.40652 0.07536
 H1007 H 0.23757 0.47872 0.12582
 H1008 H 0.21956 0.49394 0.16388
 H1009 H 0.16033 0.43909 0.15550
 H1010 H 0.24626 0.45625 0.08478
 H1011 H 0.24456 0.42993 0.04775
 H1012 H 0.17858 0.39288 0.07332
 C1013 C -0.12825 0.31952 0.40663
 C1014 C -0.12989 0.29431 0.40408
 C1015 C -0.15030 0.28046 0.41111
 C1016 C -0.16970 0.29313 0.42129
 C1017 C -0.16842 0.31915 0.42401
 C1018 C -0.14738 0.33247 0.41639
 O1019 O -0.10708 0.32918 0.39946
 C1020 C -0.09511 0.30967 0.39215
 C1021 C -0.10823 0.28788 0.39452
 C1022 C -0.09899 0.26523 0.38803
 C1023 C -0.07528 0.26506 0.37869
 C1024 C -0.06125 0.28732 0.37622
 C1025 C -0.07150 0.30992 0.38314
 H1026 H -0.15117 0.26062 0.40906
 H1027 H -0.18571 0.28273 0.42702
 H1028 H -0.14569 0.35228 0.41862
 H1029 H -0.10967 0.24830 0.38997
 H1030 H -0.06803 0.24762 0.37313
 H1031 H -0.06130 0.32722 0.38190
 C1032 C 0.36754 0.81526 0.92397
 C1033 C 0.36105 0.79111 0.91878
 C1034 C 0.33831 0.78083 0.92458
 C1035 C 0.32162 0.79615 0.93599
 C1036 C 0.32792 0.82121 0.94139
 C1037 C 0.35144 0.83064 0.93543
 O1038 O 0.38969 0.82176 0.91661
 C1039 C 0.39741 0.80130 0.90647
 C1040 C 0.38070 0.78190 0.90735
 C1041 C 0.38524 0.75881 0.89754
 C1042 C 0.40782 0.75572 0.88630
 C1043 C 0.42514 0.77564 0.88493
 C1044 C 0.41978 0.79868 0.89535
 H1045 H 0.33347 0.76182 0.92020
 H1046 H 0.30366 0.78861 0.94013
 H1047 H 0.35717 0.84948 0.93959
 H1048 H 0.37184 0.74379 0.89837
 H1049 H 0.41163 0.73801 0.87829
 H1050 H 0.43270 0.81415 0.89488
 C1051 C 1.13807 0.84296 0.06872
 C1052 C 1.12051 0.85971 0.06274
 C1053 C 1.12432 0.87841 0.04609
 C1054 C 1.14717 0.87994 0.03513
 C1055 C 1.16572 0.86306 0.04108
 C1056 C 1.16114 0.84439 0.05829
 O1057 O 1.13032 0.82615 0.08436
 C1058 C 1.10743 0.83249 0.08835
 C1059 C 1.10063 0.85300 0.07566
 C1060 C 1.07746 0.86277 0.07694
 C1061 C 1.06047 0.85081 0.09178
 C1062 C 1.06681 0.82938 0.10483
 C1063 C 1.09073 0.82015 0.10309
 H1064 H 1.11015 0.89126 0.04158
 H1065 H 1.15057 0.89443 0.02215
 H1066 H 1.17493 0.83119 0.06302
 H1067 H 1.07253 0.87888 0.06667
 H1068 H 1.04214 0.85783 0.09256
 H1069 H 1.09606 0.80380 0.11276
 C1070 C 0.64958 0.30858 0.56130
 C1071 C 0.64051 0.28691 0.55111
 C1072 C 0.65125 0.27560 0.53149
 C1073 C 0.67194 0.28736 0.52169
 C1074 C 0.68120 0.31027 0.53128
 C1075 C 0.66991 0.32073 0.55169
 O1076 O 0.63630 0.31664 0.57941
 C1077 C 0.61832 0.29977 0.58056
 C1078 C 0.61997 0.28128 0.56355
 C1079 C 0.60221 0.26263 0.56051
 C1080 C 0.58192 0.26307 0.57559
 C1081 C 0.57986 0.28173 0.59369
 C1082 C 0.59864 0.30024 0.59617
 H1083 H 0.64380 0.25849 0.52381
 H1084 H 0.68049 0.27871 0.50645
 H1085 H 0.67593 0.33841 0.55923
 H1086 H 0.60358 0.24860 0.54658
 H1087 H 0.56754 0.24918 0.57257
 H1088 H 0.59801 0.31475 0.60968
 C1089 C 0.38492 0.17264 0.57000
 C1090 C 0.39910 0.18354 0.55259
 C1091 C 0.39108 0.18606 0.52862
 C1092 C 0.36746 0.17695 0.52230
 C1093 C 0.35250 0.16546 0.53986
 C1094 C 0.36146 0.16322 0.56406
 O1095 O 0.39582 0.17264 0.59183
 C1096 C 0.41737 0.18373 0.58809
 C1097 C 0.42030 0.19065 0.56437
 C1098 C 0.44137 0.20265 0.55643
 C1099 C 0.46014 0.20794 0.57369
 C1100 C 0.45749 0.20144 0.59845
 C1101 C 0.43577 0.18890 0.60561
 H1102 H 0.40256 0.19481 0.51528
 H1103 H 0.36092 0.17856 0.50368
 H1104 H 0.35037 0.15476 0.57788
 H1105 H 0.44329 0.20779 0.53762
 H1106 H 0.47678 0.21706 0.56771
 H1107 H 0.43300 0.18389 0.62433
 C1108 C 0.89254 0.69626 0.04572
 C1109 C 0.88717 0.71666 0.05932
 C1110 C 0.86382 0.72620 0.05983
 C1111 C 0.84516 0.71401 0.04601
 C1112 C 0.85008 0.69257 0.03226
 C1113 C 0.87424 0.68376 0.03198
 O1114 O 0.91579 0.68998 0.04808
 C1115 C 0.92527 0.70668 0.06363
 C1116 C 0.90849 0.72334 0.07114
 C1117 C 0.91421 0.74176 0.08813
 C1118 C 0.93826 0.74317 0.09771
 C1119 C 0.95621 0.72651 0.08999
 C1120 C 0.94941 0.70796 0.07264
 H1121 H 0.86003 0.74222 0.07078
 H1122 H 0.82672 0.72075 0.04670
 H1123 H 0.87855 0.66746 0.02169
 H1124 H 0.90055 0.75437 0.09411
 H1125 H 0.94268 0.75703 0.11149
 H1126 H 0.96248 0.69495 0.06621
 C1127 C 0.63950 0.69401 0.92245
 C1128 C 0.63234 0.71568 0.93281
 C1129 C 0.64651 0.72835 0.95043
 C1130 C 0.66874 0.71804 0.95794
 C1131 C 0.67624 0.69531 0.94800
 C1132 C 0.66143 0.68342 0.92967
 O1133 O 0.62296 0.68428 0.90685
 C1134 C 0.60489 0.70006 0.90746
 C1135 C 0.60964 0.71958 0.92308
 C1136 C 0.59251 0.73741 0.92757
 C1137 C 0.56950 0.73488 0.91564
 C1138 C 0.56407 0.71484 0.89940
 C1139 C 0.58237 0.69743 0.89510
 H1140 H 0.64048 0.74533 0.95843
 H1141 H 0.67991 0.72761 0.97174
 H1142 H 0.66616 0.66579 0.92207
 H1143 H 0.59646 0.75235 0.94032
 H1144 H 0.55572 0.74812 0.91973
 H1145 H 0.57914 0.68198 0.88280
 C1146 C 0.14108 0.20128 0.44226
 C1147 C 0.14870 0.22016 0.42750
 C1148 C 0.17334 0.22697 0.42546
 C1149 C 0.19067 0.21370 0.43904
 C1150 C 0.18313 0.19396 0.45418
 C1151 C 0.15786 0.18795 0.45580
 O1152 O 0.11720 0.19650 0.44070
 C1153 C 0.10945 0.21261 0.42456
 C1154 C 0.12786 0.22764 0.41584
 C1155 C 0.12361 0.24476 0.39757
 C1156 C 0.09962 0.24590 0.38759
 C1157 C 0.08067 0.22991 0.39589
 C1158 C 0.08569 0.21362 0.41515
 H1159 H 0.17905 0.24168 0.41355
 H1160 H 0.20991 0.21871 0.43763
 H1161 H 0.15136 0.17256 0.46645
 H1162 H 0.13837 0.25621 0.39069
 H1163 H 0.09607 0.25830 0.37270
 H1164 H 0.07166 0.20115 0.42190
 C1165 C 0.53886 0.11129 0.70177
 C1166 C 0.54036 0.13086 0.71781
 C1167 C 0.55196 0.12957 0.74051
 C1168 C 0.56263 0.10724 0.74685
 C1169 C 0.56137 0.08682 0.73060
 C1170 C 0.54900 0.08881 0.70786
 O1171 O 0.52852 0.11686 0.68053
 C1172 C 0.52339 0.14046 0.68321
 C1173 C 0.53018 0.14987 0.70572
 C1174 C 0.52763 0.17447 0.71201
 C1175 C 0.51800 0.19010 0.69425
 C1176 C 0.51132 0.18099 0.67069
 C1177 C 0.51374 0.15566 0.66529
 H1178 H 0.55324 0.14533 0.75267
 H1179 H 0.57209 0.10588 0.76429
 H1180 H 0.54827 0.07368 0.69492
 H1181 H 0.53328 0.18149 0.72979
 H1182 H 0.51606 0.20939 0.69874
 H1183 H 0.50935 0.14824 0.64735
 C1184 C 1.06741 0.63020 0.16796
 C1185 C 1.06170 0.62208 0.14473
 C1186 C 1.06451 0.59786 0.13724
 C1187 C 1.07356 0.58128 0.15442
 C1188 C 1.07963 0.58913 0.17853
 C1189 C 1.07670 0.61406 0.18529
 O1190 O 1.06217 0.65364 0.17163
 C1191 C 1.05296 0.66045 0.15025
 C1192 C 1.05236 0.64183 0.13316
 C1193 C 1.04250 0.64457 0.10987
 C1194 C 1.03240 0.66730 0.10408
 C1195 C 1.03224 0.68667 0.12154
 C1196 C 1.04313 0.68328 0.14484
 H1197 H 1.05965 0.59186 0.11892
 H1198 H 1.07596 0.56233 0.14893
 H1199 H 1.08087 0.62049 0.20363
 H1200 H 1.04211 0.62958 0.09678
 H1201 H 1.02427 0.66969 0.08615
 H1202 H 1.04285 0.69751 0.15869
 C1203 C 0.95896 0.89122 0.19988
 C1204 C 0.94250 0.87341 0.19130
 C1205 C 0.91752 0.87418 0.19512
 C1206 C 0.90901 0.89435 0.20808
 C1207 C 0.92538 0.91352 0.21663
 C1208 C 0.95085 0.91166 0.21266
 O1209 O 0.98194 0.88686 0.19405
 C1210 C 0.97983 0.86590 0.18142
 C1211 C 0.95603 0.85706 0.17917
 C1212 C 0.94932 0.83603 0.16592
 C1213 C 0.96790 0.82339 0.15460
 C1214 C 0.99288 0.83151 0.15706
 C1215 C 0.99880 0.85331 0.17065
 H1216 H 0.90499 0.85977 0.18833
 H1217 H 0.88960 0.89494 0.21146
 H1218 H 0.96388 0.92597 0.21869
 H1219 H 0.93035 0.82981 0.16398
 H1220 H 0.96259 0.80751 0.14349
 H1221 H 1.01752 0.86022 0.17285
 C1222 C 0.47741 0.37957 0.68735
 C1223 C 0.48432 0.39021 0.66594
 C1224 C 0.47820 0.41404 0.65964
 C1225 C 0.46428 0.42736 0.67602
 C1226 C 0.45675 0.41674 0.69822
 C1227 C 0.46367 0.39248 0.70393
 O1228 O 0.48439 0.35648 0.68955
 C1229 C 0.49588 0.35243 0.66903
 C1230 C 0.49639 0.37247 0.65395
 C1231 C 0.50688 0.37193 0.63122
 C1232 C 0.51712 0.34978 0.62368
 C1233 C 0.51669 0.32876 0.63887
 C1234 C 0.50603 0.33033 0.66199
 H1235 H 0.48358 0.42194 0.64255
 H1236 H 0.45883 0.44570 0.67106
 H1237 H 0.45841 0.38381 0.72071
 H1238 H 0.50686 0.38786 0.61954
 H1239 H 0.52481 0.34886 0.60580
 H1240 H 0.50554 0.31475 0.67413
 C1241 C 0.45730 0.59717 0.82860
 C1242 C 0.46571 0.59055 0.85129
 C1243 C 0.46290 0.56674 0.86010
 C1244 C 0.45091 0.54908 0.84490
 C1245 C 0.44204 0.55546 0.82137
 C1246 C 0.44539 0.57994 0.81320
 O1247 O 0.46185 0.62069 0.82363
 C1248 C 0.47337 0.62912 0.84364
 C1249 C 0.47623 0.61144 0.86113
 C1250 C 0.48801 0.61632 0.88341
 C1251 C 0.49730 0.64038 0.88777
 C1252 C 0.49460 0.65894 0.86996
 C1253 C 0.48234 0.65313 0.84762
 H1254 H 0.46959 0.56196 0.87806
 H1255 H 0.44820 0.53056 0.85163
 H1256 H 0.43915 0.58541 0.79528
 H1257 H 0.49002 0.60212 0.89692
 H1258 H 0.50644 0.64461 0.90504
 H1259 H 0.48027 0.66677 0.83355
 C1260 C -0.02891 0.11430 0.32577
 C1261 C -0.01786 0.10763 0.34734
 C1262 C -0.01986 0.08395 0.35659
 C1263 C -0.03414 0.06650 0.34321
 C1264 C -0.04610 0.07299 0.32107
 C1265 C -0.04313 0.09723 0.31213
 O1266 O -0.02502 0.13786 0.32046
 C1267 C -0.01125 0.14623 0.33912
 C1268 C -0.00639 0.12846 0.35607
 C1269 C 0.00731 0.13328 0.37725
 C1270 C 0.01656 0.15738 0.38103
 C1271 C 0.01209 0.17608 0.36369
 C1272 C -0.00219 0.17033 0.34247
 H1273 H -0.01095 0.07915 0.37361
 H1274 H -0.03598 0.04797 0.35014
 H1275 H -0.05230 0.10288 0.29552
 H1276 H 0.01067 0.11903 0.39044
 H1277 H 0.02701 0.16152 0.39760
 H1278 H -0.00585 0.18408 0.32884
 C1279 C 0.04837 0.38774 0.29599
 C1280 C 0.02684 0.38321 0.28303
 C1281 C 0.01946 0.39759 0.26355
 C1282 C 0.03492 0.41746 0.25717
 C1283 C 0.05721 0.42263 0.27032
 C1284 C 0.06397 0.40741 0.29001
 O1285 O 0.05178 0.37214 0.31411
 C1286 C 0.03192 0.35748 0.31261
 C1287 C 0.01606 0.36351 0.29391
 C1288 C -0.00620 0.35103 0.28946
 C1289 C -0.01249 0.33173 0.30509
 C1290 C 0.00345 0.32525 0.32463
 C1291 C 0.02614 0.33818 0.32822
 H1292 H 0.00233 0.39377 0.25373
 H1293 H 0.02930 0.42908 0.24228
 H1294 H 0.08091 0.41071 0.30031
 H1295 H -0.01842 0.35616 0.27469
 H1296 H -0.02982 0.32185 0.30203
 H1297 H 0.03850 0.33384 0.34316
 C1298 C 0.53789 0.86872 0.80209
 C1299 C 0.51541 0.86711 0.79026
 C1300 C 0.50825 0.88378 0.77261
 C1301 C 0.52487 0.90297 0.76704
 C1302 C 0.54814 0.90520 0.77913
 C1303 C 0.55470 0.88758 0.79681
 O1304 O 0.54080 0.85154 0.81884
 C1305 C 0.51966 0.83885 0.81761
 C1306 C 0.50349 0.84764 0.80041
 C1307 C 0.47992 0.83771 0.79677
 C1308 C 0.47264 0.81811 0.81162
 C1309 C 0.48889 0.80885 0.82967
 C1310 C 0.51288 0.81923 0.83243
 H1311 H 0.49034 0.88230 0.76373
 H1312 H 0.51933 0.91646 0.75378
 H1313 H 0.57231 0.88860 0.80631
 H1314 H 0.46746 0.84504 0.78324
 H1315 H 0.45429 0.81022 0.80920
 H1316 H 0.52553 0.81285 0.84630
 C1317 C 0.69923 0.56634 0.11152
 C1318 C 0.69122 0.58447 0.12657
 C1319 C 0.69481 0.60928 0.12195
 C1320 C 0.70717 0.61584 0.10091
 C1321 C 0.71582 0.59766 0.08439
 C1322 C 0.71141 0.57232 0.09026
 O1323 O 0.69385 0.54379 0.11936
 C1324 C 0.68201 0.54791 0.13971
 C1325 C 0.67986 0.57253 0.14483
 C1326 C 0.66754 0.58114 0.16476
 C1327 C 0.65684 0.56364 0.18007
 C1328 C 0.65892 0.53795 0.17553
 C1329 C 0.67186 0.53010 0.15494
 H1330 H 0.68799 0.62322 0.13398
 H1331 H 0.70842 0.63531 0.09721
 H1332 H 0.71797 0.55734 0.07943
 H1333 H 0.66579 0.60065 0.16817
 H1334 H 0.64641 0.57025 0.19510
 H1335 H 0.67396 0.51078 0.15083
 C1336 C 0.17763 1.04698 0.61370
 C1337 C 0.16041 1.06290 0.62179
 C1338 C 0.15791 1.08648 0.61265
 C1339 C 0.17389 1.09404 0.59448
 C1340 C 0.19194 1.07809 0.58584
 C1341 C 0.19362 1.05407 0.59546
 O1342 O 0.17760 1.02580 0.62563
 C1343 C 0.15999 1.02847 0.64158
 C1344 C 0.14891 1.05085 0.63990
 C1345 C 0.13074 1.05802 0.65544
 C1346 C 0.12395 1.04161 0.67373
 C1347 C 0.13536 1.01857 0.67620
 C1348 C 0.15336 1.01174 0.65957
 H1349 H 0.14432 1.09872 0.61945
 H1350 H 0.17217 1.11235 0.58709
 H1351 H 0.20740 1.04161 0.58943
 H1352 H 0.12241 1.07579 0.65382
 H1353 H 0.11002 1.04697 0.68622
 H1354 H 0.16262 0.99445 0.66126
 C1355 C 0.19169 0.96963 0.88194
 C1356 C 0.19532 0.99459 0.88434
 C1357 C 0.21007 1.00524 0.90262
 C1358 C 0.22153 0.98955 0.91924
 C1359 C 0.21815 0.96328 0.91769
 C1360 C 0.20276 0.95361 0.89821
 O1361 O 0.17660 0.96318 0.86352
 C1362 C 0.17063 0.98464 0.85404
 C1363 C 0.18158 1.00445 0.86616
 C1364 C 0.17751 1.02868 0.85966
 C1365 C 0.16144 1.03264 0.83989
 C1366 C 0.14983 1.01252 0.82705
 C1367 C 0.15469 0.98814 0.83421
 H1368 H 0.21283 1.02502 0.90399
 H1369 H 0.23377 0.99840 0.93252
 H1370 H 0.19801 0.93428 0.89606
 H1371 H 0.18629 1.04398 0.86950
 H1372 H 0.15817 1.05140 0.83445
 H1373 H 0.14598 0.97243 0.82494
 C1374 C 0.67808 0.45983 0.37561
 C1375 C 0.65578 0.46628 0.38434
 C1376 C 0.64871 0.46128 0.40787
 C1377 C 0.66518 0.44878 0.42295
 C1378 C 0.68819 0.44144 0.41433
 C1379 C 0.69478 0.44735 0.39031
 O1380 O 0.68124 0.46657 0.35274
 C1381 C 0.66044 0.47749 0.34695
 C1382 C 0.64426 0.47772 0.36566
 C1383 C 0.62146 0.48835 0.36370
 C1384 C 0.61523 0.49959 0.34167
 C1385 C 0.63175 0.50011 0.32217
 C1386 C 0.65459 0.48854 0.32481
 H1387 H 0.63113 0.46676 0.41437
 H1388 H 0.65998 0.44484 0.44137
 H1389 H 0.71207 0.44187 0.38309
 H1390 H 0.60902 0.48822 0.37867
 H1391 H 0.59758 0.50809 0.33986
 H1392 H 0.66771 0.48888 0.31041
 C1393 C 0.82223 0.45862 0.59321
 C1394 C 0.83882 0.44309 0.60370
 C1395 C 0.84428 0.42044 0.59366
 C1396 C 0.83203 0.41336 0.57194
 C1397 C 0.81464 0.42888 0.56068
 C1398 C 0.80981 0.45195 0.57153
 O1399 O 0.81914 0.47894 0.60626
 C1400 C 0.83403 0.47607 0.62543
 C1401 C 0.84643 0.45439 0.62471
 C1402 C 0.86213 0.44704 0.64334
 C1403 C 0.86506 0.46258 0.66369
 C1404 C 0.85245 0.48502 0.66500
 C1405 C 0.83694 0.49202 0.64542
 H1406 H 0.85718 0.40842 0.60246
 H1407 H 0.83558 0.39541 0.56435
 H1408 H 0.79663 0.46421 0.56352
 H1409 H 0.87149 0.42977 0.64242
 H1410 H 0.87707 0.45712 0.67852
 H1411 H 0.82686 0.50888 0.64613
 C1412 C 0.33951 -0.03354 0.10632
 C1413 C 0.35591 -0.04990 0.11572
 C1414 C 0.35895 -0.07315 0.10578
 C1415 C 0.34450 -0.07987 0.08526
 C1416 C 0.32735 -0.06341 0.07505
 C1417 C 0.32493 -0.03982 0.08583
 O1418 O 0.33872 -0.01282 0.11924
 C1419 C 0.35492 -0.01625 0.13723
 C1420 C 0.36592 -0.03868 0.13588
 C1421 C 0.38241 -0.04677 0.15352
 C1422 C 0.38745 -0.03129 0.17362
 C1423 C 0.37618 -0.00819 0.17560
 C1424 C 0.35999 -0.00036 0.15693
 H1425 H 0.37170 -0.08586 0.11378
 H1426 H 0.34625 -0.09820 0.07775
 H1427 H 0.31202 -0.02683 0.07863
 H1428 H 0.39057 -0.06464 0.15219
 H1429 H 0.39971 -0.03746 0.18795
 H1430 H 0.35074 0.01695 0.15836
 C1431 C 0.30182 0.03534 0.38923
 C1432 C 0.28750 0.04061 0.36916
 C1433 C 0.26677 0.05479 0.37039
 C1434 C 0.26072 0.06421 0.39319
 C1435 C 0.27540 0.05941 0.41421
 C1436 C 0.29612 0.04446 0.41210
 O1437 O 0.32119 0.02222 0.38400
 C1438 C 0.31910 0.01925 0.36008
 C1439 C 0.29882 0.03020 0.35013
 C1440 C 0.29361 0.03025 0.32531
 C1441 C 0.31001 0.01858 0.31010
 C1442 C 0.33111 0.00715 0.31987
 C1443 C 0.33555 0.00733 0.34530
 H1444 H 0.25593 0.05891 0.35428
 H1445 H 0.24512 0.07599 0.39426
 H1446 H 0.30773 0.04040 0.42770
 H1447 H 0.27763 0.03915 0.31789
 H1448 H 0.30624 0.01836 0.29071
 H1449 H 0.35164 -0.00096 0.35324
 C1450 C 0.80190 0.54726 0.87473
 C1451 C 0.79013 0.52455 0.87493
 C1452 C 0.77366 0.51771 0.89265
 C1453 C 0.76912 0.53499 0.91094
 C1454 C 0.78102 0.55860 0.91123
 C1455 C 0.79762 0.56474 0.89270
 O1456 O 0.81735 0.54982 0.85664
 C1457 C 0.81535 0.52821 0.84520
 C1458 C 0.79891 0.51212 0.85569
 C1459 C 0.79449 0.48822 0.84717
 C1460 C 0.80779 0.48047 0.82721
 C1461 C 0.82513 0.49656 0.81622
 C1462 C 0.82866 0.52093 0.82517
 H1463 H 0.76483 0.49961 0.89255
 H1464 H 0.75670 0.52978 0.92513
 H1465 H 0.80689 0.58260 0.89222
 H1466 H 0.78153 0.47588 0.85578
 H1467 H 0.80473 0.46184 0.82040
 H1468 H 0.84198 0.53349 0.81735
 C1469 C 0.11072 0.68136 0.54353
 C1470 C 0.13102 0.69678 0.54658
 C1471 C 0.13071 0.71877 0.55965
 C1472 C 0.10859 0.72509 0.57011
 C1473 C 0.08738 0.70958 0.56715
 C1474 C 0.08839 0.68752 0.55343
 O1475 O 0.11537 0.66066 0.53168
 C1476 C 0.13910 0.66311 0.52716
 C1477 C 0.14945 0.68496 0.53580
 C1478 C 0.17419 0.69101 0.53386
 C1479 C 0.18900 0.67368 0.52291
 C1480 C 0.17899 0.65066 0.51438
 C1481 C 0.15352 0.64554 0.51619
 H1482 H 0.14702 0.73042 0.56207
 H1483 H 0.10794 0.74202 0.58058
 H1484 H 0.07252 0.67521 0.55126
 H1485 H 0.18191 0.70830 0.54086
 H1486 H 0.20835 0.67808 0.52133
 H1487 H 0.14538 0.62804 0.51021
 C1488 C 0.61351 0.17524 1.05217
 C1489 C 0.60366 0.15317 1.04360
 C1490 C 0.57897 0.14662 1.04552
 C1491 C 0.56387 0.16345 1.05692
 C1492 C 0.57366 0.18620 1.06626
 C1493 C 0.59889 0.19214 1.06373
 O1494 O 0.63731 0.17803 1.04822
 C1495 C 0.64262 0.15720 1.03700
 C1496 C 0.62269 0.14134 1.03383
 C1497 C 0.62415 0.11844 1.02262
 C1498 C 0.64702 0.11174 1.01407
 C1499 C 0.66784 0.12799 1.01657
 C1500 C 0.66552 0.15099 1.02849
 H1501 H 0.57163 0.12916 1.03857
 H1502 H 0.54467 0.15856 1.05895
 H1503 H 0.60685 0.20943 1.07049
 H1504 H 0.60825 0.10617 1.02054
 H1505 H 0.64847 0.09383 1.00554
 H1506 H 0.68089 0.16394 1.03055
 C1507 C 0.87995 0.18051 0.96723
 C1508 C 0.88922 0.15941 0.97676
 C1509 C 0.91301 0.15236 0.97307
 C1510 C 0.92793 0.16762 0.95890
 C1511 C 0.91922 0.19004 0.94858
 C1512 C 0.89444 0.19618 0.95330
 O1513 O 0.85679 0.18392 0.97294
 C1514 C 0.85136 0.16442 0.98635
 C1515 C 0.87065 0.14889 0.98929
 C1516 C 0.86919 0.12756 1.00298
 C1517 C 0.84696 0.12207 1.01420
 C1518 C 0.82674 0.13777 1.01145
 C1519 C 0.82896 0.15918 0.99714
 H1520 H 0.91980 0.13543 0.98056
 H1521 H 0.94583 0.16074 0.95536
 H1522 H 0.88634 0.21307 0.94742
 H1523 H 0.88465 0.11564 1.00506
 H1524 H 0.84542 0.10552 1.02494
 H1525 H 0.81390 0.17158 0.99489
 C1526 C 0.37524 0.66834 0.46240
 C1527 C 0.38682 0.64895 0.47321
 C1528 C 0.41181 0.64535 0.47145
 C1529 C 0.42544 0.66251 0.45806
 C1530 C 0.41390 0.68257 0.44660
 C1531 C 0.38838 0.68540 0.44865
 O1532 O 0.35155 0.66892 0.46715
 C1533 C 0.34812 0.64943 0.48118
 C1534 C 0.36909 0.63653 0.48533
 C1535 C 0.36972 0.61570 0.49978
 C1536 C 0.34786 0.60794 0.51056
 C1537 C 0.32599 0.62118 0.50700
 C1538 C 0.32623 0.64217 0.49188
 H1539 H 0.42055 0.63007 0.48029
 H1540 H 0.44497 0.66017 0.45651
 H1541 H 0.37922 0.70073 0.44031
 H1542 H 0.38645 0.60581 0.50270
 H1543 H 0.34801 0.59159 0.52165
 H1544 H 0.31007 0.65298 0.48904
 C1545 C 0.60349 0.80894 0.46573
 C1546 C 0.60288 0.79998 0.48900
 C1547 C 0.58489 0.78332 0.49654
 C1548 C 0.56682 0.77554 0.47936
 C1549 C 0.56689 0.78473 0.45533
 C1550 C 0.58546 0.80177 0.44848
 O1551 O 0.62238 0.82428 0.46219
 C1552 C 0.63389 0.82510 0.48371
 C1553 C 0.62262 0.81069 0.50079
 C1554 C 0.63134 0.80923 0.52467
 C1555 C 0.65252 0.82324 0.53120
 C1556 C 0.66462 0.83799 0.51382
 C1557 C 0.65519 0.83884 0.48970
 H1558 H 0.58483 0.77647 0.51492
 H1559 H 0.55260 0.76257 0.48479
 H1560 H 0.58604 0.80889 0.43020
 H1561 H 0.62208 0.79785 0.53782
 H1562 H 0.65965 0.82249 0.54969
 H1563 H 0.66395 0.85018 0.47618
 C1564 C 0.10258 0.32366 -0.04610
 C1565 C 0.09981 0.34869 -0.04796
 C1566 C 0.08004 0.35892 -0.06025
 C1567 C 0.06241 0.34268 -0.07106
 C1568 C 0.06469 0.31682 -0.06905
 C1569 C 0.08503 0.30720 -0.05630
 O1570 O 0.12300 0.31773 -0.03422
 C1571 C 0.13330 0.33948 -0.02835
 C1572 C 0.11976 0.35902 -0.03615
 C1573 C 0.12703 0.38343 -0.03166
 C1574 C 0.14918 0.38785 -0.01862
 C1575 C 0.16364 0.36801 -0.01077
 C1576 C 0.15557 0.34347 -0.01576
 H1577 H 0.07833 0.37866 -0.06161
 H1578 H 0.04686 0.35016 -0.08079
 H1579 H 0.08728 0.28753 -0.05473
 H1580 H 0.11604 0.39850 -0.03792
 H1581 H 0.15530 0.40669 -0.01496
 H1582 H 0.16624 0.32802 -0.00983
 C1583 C 0.38411 0.30652 0.04844
 C1584 C 0.37549 0.32484 0.06303
 C1585 C 0.38679 0.33192 0.08495
 C1586 C 0.40799 0.31974 0.09211
 C1587 C 0.41752 0.30086 0.07739
 C1588 C 0.40519 0.29399 0.05530
 O1589 O 0.37066 0.30296 0.02818
 C1590 C 0.35321 0.31940 0.03011
 C1591 C 0.35539 0.33318 0.05114
 C1592 C 0.33933 0.35157 0.05690
 C1593 C 0.32012 0.35595 0.04032
 C1594 C 0.31724 0.34198 0.01845
 C1595 C 0.33419 0.32348 0.01326
 H1596 H 0.37958 0.34638 0.09610
 H1597 H 0.41694 0.32491 0.10924
 H1598 H 0.41208 0.27977 0.04364
 H1599 H 0.34159 0.36227 0.07351
 H1600 H 0.30769 0.37052 0.04436
 H1601 H 0.33249 0.31251 -0.00322
 C1602 C 0.87968 0.79778 0.53264
 C1603 C 0.86115 0.78009 0.53248
 C1604 C 0.86389 0.75711 0.54293
 C1605 C 0.88660 0.75222 0.55413
 C1606 C 0.90610 0.77017 0.55464
 C1607 C 0.90248 0.79323 0.54343
 O1608 O 0.87292 0.81888 0.52293
 C1609 C 0.84959 0.81444 0.51656
 C1610 C 0.84149 0.79096 0.52195
 C1611 C 0.81732 0.78285 0.51790
 C1612 C 0.80077 0.79974 0.50823
 C1613 C 0.80859 0.82423 0.50292
 C1614 C 0.83351 0.83147 0.50686
 H1615 H 0.84890 0.74364 0.54299
 H1616 H 0.88863 0.73471 0.56308
 H1617 H 0.91682 0.80740 0.54338
 H1618 H 0.81130 0.76434 0.52248
 H1619 H 0.78181 0.79388 0.50522
 H1620 H 0.83996 0.85016 0.50361
   
