data_POSCAR
  _audit_creation_date              2014-09-24
  _audit_creation_method            'ToBaCCo'
  _symmetry_space_group_name_H-M    'P1'
  _symmetry_Int_Tables_number       1
  _symmetry_cell_setting            triclinic
  loop_
  _symmetry_equiv_pos_as_xyz
 x,y,z
_cell_length_a 42.4390
_cell_length_b 42.3589
_cell_length_c 42.3965
_cell_angle_alpha 89.564400
_cell_angle_beta 89.853500
_cell_angle_gamma 89.345200
loop_
  _atom_site_label
  _atom_site_type_symbol
  _atom_site_fract_x
  _atom_site_fract_y
  _atom_site_fract_z
C1 C 0.71668 0.63921 0.94879
 H2 H 0.73561 0.62841 0.93549
 C3 C 0.69114 0.65267 0.93269
 H4 H 0.69109 0.65107 0.90733
 C5 C 0.69364 0.65204 0.99796
 H6 H 0.69419 0.65108 1.02337
 C7 C 0.66769 0.66588 0.98284
 H8 H 0.64851 0.67521 0.99700
 N9 N 0.71695 0.63802 0.98085
 C10 C 0.79735 0.61826 1.04169
 H11 H 0.79313 0.59336 1.04534
 C12 C 0.82306 0.63231 1.05591
 H13 H 0.83854 0.61794 1.07053
 C14 C 0.78311 0.66648 1.01658
 H15 H 0.76777 0.67934 1.00057
 C16 C 0.80879 0.68161 1.03038
 H17 H 0.81270 0.70605 1.02444
 Zn18 Zn 0.74742 0.61167 1.00118
 N19 N 0.77831 0.63526 1.02210
 C20 C 0.79937 0.58999 0.96535
 N21 N 0.76793 0.58637 0.97015
 C22 C 0.75078 0.56715 0.95139
 C23 C 0.76527 0.55048 0.92688
 C24 C 0.81474 0.57389 0.94113
 C25 C 0.71875 0.60099 1.05942
 C26 C 0.70438 0.58422 1.08380
 C27 C 0.70780 0.53720 1.05212
 C28 C 0.72223 0.55498 1.02833
 N29 N 0.72726 0.58633 1.03226
 H30 H 0.81257 0.60614 0.97962
 H31 H 0.72556 0.56566 0.95474
 H32 H 0.75058 0.53654 0.91176
 H33 H 0.83960 0.57797 0.93725
 H34 H 0.72355 0.62580 1.06236
 H35 H 0.69749 0.59679 1.10493
 H36 H 0.70319 0.51270 1.04727
 H37 H 0.72926 0.54356 1.00674
 C38 C 0.82945 0.66434 1.05022
 C39 C 0.66564 0.66564 0.94971
 C40 C 0.69924 0.55149 1.08100
 C41 C 0.79790 0.55342 0.92161
 C42 C 0.72263 0.36288 0.55260
 H43 H 0.73997 0.37546 0.56601
 C44 C 0.69796 0.34806 0.56847
 H45 H 0.69674 0.35064 0.59373
 C46 C 0.70279 0.34648 0.50338
 H47 H 0.70429 0.34636 0.47800
 C48 C 0.67778 0.33122 0.51828
 H49 H 0.66015 0.31991 0.50397
 N50 N 0.72398 0.36292 0.52055
 C51 C 0.80293 0.38411 0.45867
 H52 H 0.79774 0.40893 0.45496
 C53 C 0.82871 0.37024 0.44374
 H54 H 0.84327 0.38462 0.42845
 C55 C 0.79081 0.33584 0.48429
 H56 H 0.77614 0.32285 0.50063
 C57 C 0.81661 0.32089 0.46979
 H58 H 0.82124 0.29643 0.47547
 Zn59 Zn 0.75312 0.39005 0.49991
 N60 N 0.78487 0.36700 0.47880
 C61 C 0.80428 0.41409 0.53446
 N62 N 0.77255 0.41620 0.53045
 C63 C 0.75455 0.43515 0.54918
 C64 C 0.76833 0.45270 0.57319
 C65 C 0.81900 0.43126 0.55802
 C66 C 0.72290 0.39980 0.44216
 C67 C 0.70777 0.41637 0.41793
 C68 C 0.71165 0.46390 0.44860
 C69 C 0.72668 0.44634 0.47234
 N70 N 0.73178 0.41480 0.46888
 H71 H 0.81828 0.39850 0.51991
 H72 H 0.72926 0.43593 0.54607
 H73 H 0.75298 0.46678 0.58784
 H74 H 0.84425 0.42877 0.56105
 H75 H 0.72814 0.37497 0.43932
 H76 H 0.70060 0.40376 0.39707
 H77 H 0.70721 0.48865 0.45273
 H78 H 0.73426 0.45810 0.49343
 C79 C 0.83623 0.33828 0.44932
 C80 C 0.67459 0.33237 0.55130
 C81 C 0.70237 0.44904 0.42056
 C82 C 0.80113 0.45081 0.57807
 C83 C 0.21181 -0.12769 0.05186
 H84 H 0.22481 -0.11037 0.06489
 C85 C 0.18590 -0.14191 0.06604
 H86 H 0.17959 -0.13486 0.08970
 C87 C 0.20182 -0.15395 0.00389
 H88 H 0.20737 -0.15731 -0.02079
 C89 C 0.17565 -0.16881 0.01722
 H90 H 0.16120 -0.18339 0.00237
 N91 N 0.21910 -0.13360 0.02122
 C92 C 0.30519 -0.11363 -0.03113
 H93 H 0.30323 -0.08815 -0.03043
 C94 C 0.33109 -0.12782 -0.04554
 H95 H 0.34899 -0.11301 -0.05604
 C96 C 0.28401 -0.16356 -0.01812
 H97 H 0.26560 -0.17726 -0.00713
 C98 C 0.30983 -0.17888 -0.03221
 H99 H 0.31047 -0.20433 -0.03188
 Zn100 Zn 0.24927 -0.10796 0.00080
 N101 N 0.28216 -0.13149 -0.01808
 C102 C 0.28630 -0.09695 0.05290
 N103 N 0.26853 -0.08171 0.03083
 C104 C 0.26553 -0.04972 0.03063
 C105 C 0.27982 -0.03185 0.05413
 C106 C 0.30090 -0.08012 0.07672
 C107 C 0.23469 -0.08832 -0.06142
 C108 C 0.21708 -0.07301 -0.08477
 C109 C 0.18491 -0.04923 -0.04414
 C110 C 0.20314 -0.06519 -0.02155
 N111 N 0.22746 -0.08427 -0.03048
 H112 H 0.28867 -0.12239 0.05219
 H113 H 0.25201 -0.03799 0.01235
 H114 H 0.27679 -0.00657 0.05314
 H115 H 0.31458 -0.09284 0.09433
 H116 H 0.25369 -0.10403 -0.06822
 H117 H 0.22352 -0.07667 -0.10923
 H118 H 0.16656 -0.03360 -0.03569
 H119 H 0.19775 -0.06253 0.00325
 C120 C 0.33394 -0.16090 -0.04626
 C121 C 0.16726 -0.16293 0.04882
 C122 C 0.19101 -0.05369 -0.07664
 C123 C 0.29746 -0.04710 0.07804
 C124 C 0.21636 0.13335 0.45092
 H125 H 0.22975 0.11539 0.43874
 C126 C 0.19091 0.14761 0.43561
 H127 H 0.18541 0.14008 0.41194
 C128 C 0.20474 0.16125 0.49776
 H129 H 0.20943 0.16523 0.52248
 C130 C 0.17892 0.17622 0.48323
 H131 H 0.16396 0.19146 0.49726
 N132 N 0.22261 0.13999 0.48158
 C133 C 0.30738 0.11666 0.53538
 H134 H 0.30440 0.09133 0.53504
 C135 C 0.33419 0.12932 0.54882
 H136 H 0.35171 0.11348 0.55896
 C137 C 0.28823 0.16769 0.52180
 H138 H 0.27035 0.18238 0.51076
 C139 C 0.31505 0.18150 0.53492
 H140 H 0.31702 0.20684 0.53382
 Zn141 Zn 0.25196 0.11358 0.50311
 N142 N 0.28502 0.13579 0.52233
 C143 C 0.29069 0.10132 0.45243
 N144 N 0.27164 0.08657 0.47354
 C145 C 0.26745 0.05482 0.47273
 C146 C 0.28183 0.03678 0.44907
 C147 C 0.30544 0.08432 0.42853
 C148 C 0.23635 0.09380 0.56512
 C149 C 0.21841 0.07863 0.58815
 C150 C 0.18565 0.05754 0.54710
 C151 C 0.20432 0.07312 0.52479
 N152 N 0.22916 0.09073 0.53408
 H153 H 0.29385 0.12657 0.45385
 H154 H 0.25269 0.04348 0.49014
 H155 H 0.27754 0.01176 0.44900
 H156 H 0.31999 0.09673 0.41158
 H157 H 0.25565 0.10848 0.57223
 H158 H 0.22465 0.08133 0.61273
 H159 H 0.16654 0.04340 0.53861
 H160 H 0.19884 0.07139 0.49995
 C161 C 0.33868 0.16214 0.54859
 C162 C 0.17159 0.16944 0.45160
 C163 C 0.19227 0.06054 0.57949
 C164 C 0.30086 0.05161 0.42614
 C165 C 0.12961 0.45239 0.21374
 H166 H 0.11238 0.43979 0.22753
 C167 C 0.14376 0.43734 0.18822
 H168 H 0.13678 0.41346 0.18300
 C169 C 0.15582 0.49995 0.20138
 H170 H 0.15920 0.52479 0.20586
 C171 C 0.17062 0.48571 0.17550
 H172 H 0.18511 0.50008 0.16021
 N173 N 0.13549 0.48325 0.21968
 C174 C 0.11494 0.53643 0.30510
 H175 H 0.08953 0.53595 0.30323
 C176 C 0.12889 0.55002 0.33123
 H177 H 0.11396 0.56011 0.34939
 C178 C 0.16495 0.52311 0.28378
 H179 H 0.17876 0.51213 0.26533
 C180 C 0.18003 0.53637 0.30984
 H181 H 0.20541 0.53535 0.31067
 Zn182 Zn 0.10972 0.50433 0.24957
 N183 N 0.13296 0.52349 0.28197
 C184 C 0.09904 0.45331 0.28869
 N185 N 0.08368 0.47437 0.26974
 C186 C 0.05194 0.47320 0.26580
 C187 C 0.03456 0.44916 0.28021
 C188 C 0.08269 0.42905 0.30351
 C189 C 0.08877 0.56638 0.23457
 C190 C 0.07306 0.58948 0.21684
 C191 C 0.05180 0.54852 0.18414
 C192 C 0.06793 0.52614 0.20259
 N193 N 0.08592 0.53535 0.22728
 H194 H 0.12426 0.45503 0.29170
 H195 H 0.04009 0.49062 0.25119
 H196 H 0.00949 0.44894 0.27629
 H197 H 0.09556 0.41221 0.31805
 H198 H 0.10375 0.57344 0.25374
 H199 H 0.07568 0.61405 0.22310
 H200 H 0.03748 0.54009 0.16509
 H201 H 0.06640 0.50133 0.19701
 C202 C 0.16187 0.55006 0.33418
 C203 C 0.16470 0.45384 0.16853
 C204 C 0.05460 0.58091 0.19083
 C205 C 0.05006 0.42616 0.29897
 C206 C -0.13050 0.05471 0.21389
 H207 H -0.11294 0.06761 0.22669
 C208 C -0.14541 0.06920 0.18829
 H209 H -0.13850 0.09298 0.18216
 C210 C -0.15665 0.00681 0.20397
 H211 H -0.15967 -0.01798 0.20938
 C212 C -0.17221 0.02039 0.17808
 H213 H -0.18675 0.00533 0.16381
 N214 N -0.13607 0.02398 0.22110
 C215 C -0.11400 -0.02906 0.30685
 H216 H -0.08862 -0.02860 0.30444
 C217 C -0.12754 -0.04339 0.33309
 H218 H -0.11233 -0.05412 0.35073
 C219 C -0.16434 -0.01551 0.28655
 H220 H -0.17846 -0.00437 0.26834
 C221 C -0.17902 -0.02949 0.31275
 H222 H -0.20440 -0.02901 0.31384
 Zn223 Zn -0.10968 0.00321 0.25082
 N224 N -0.13238 -0.01577 0.28411
 C225 C -0.09734 0.05515 0.28771
 N226 N -0.08280 0.03290 0.26976
 C227 C -0.05093 0.03208 0.26649
 C228 C -0.03242 0.05493 0.28098
 C229 C -0.07987 0.07840 0.30244
 C230 C -0.08968 -0.05904 0.23605
 C231 C -0.07463 -0.08217 0.21806
 C232 C -0.05347 -0.04116 0.18463
 C233 C -0.06893 -0.01877 0.20334
 N234 N -0.08659 -0.02799 0.22849
 H235 H -0.12272 0.05500 0.29021
 H236 H -0.03978 0.01379 0.25262
 H237 H -0.00728 0.05362 0.27748
 H238 H -0.09207 0.09622 0.31619
 H239 H -0.10439 -0.06609 0.25562
 H240 H -0.07746 -0.10677 0.22449
 H241 H -0.03940 -0.03270 0.16519
 H242 H -0.06718 0.00609 0.19760
 C243 C -0.16048 -0.04369 0.33663
 C244 C -0.16701 0.05231 0.16973
 C245 C -0.05662 -0.07357 0.19152
 C246 C -0.04690 0.07878 0.29919
 C247 C 0.36391 0.54612 0.71870
 H248 H 0.37512 0.55938 0.73710
 C249 C 0.35050 0.56227 0.69314
 H250 H 0.35255 0.58760 0.69253
 C251 C 0.34965 0.49701 0.69714
 H252 H 0.34986 0.47158 0.69832
 C253 C 0.33585 0.51218 0.67120
 H254 H 0.32585 0.49804 0.65264
 N255 N 0.36441 0.51401 0.71968
 C256 C 0.38303 0.45215 0.80009
 H257 H 0.40788 0.44821 0.79570
 C258 C 0.36864 0.43766 0.82578
 H259 H 0.38269 0.42255 0.84109
 C260 C 0.33525 0.47813 0.78624
 H261 H 0.32270 0.49454 0.77102
 C262 C 0.31980 0.46410 0.81192
 H263 H 0.29541 0.47027 0.81597
 Zn264 Zn 0.39037 0.49325 0.75021
 N265 N 0.36641 0.47227 0.78123
 C266 C 0.41216 0.52834 0.80203
 N267 N 0.41563 0.52389 0.77048
 C268 C 0.43499 0.54257 0.75304
 C269 C 0.45168 0.56690 0.76724
 C270 C 0.42838 0.55229 0.81715
 C271 C 0.40129 0.43542 0.72076
 C272 C 0.41837 0.41119 0.70636
 C273 C 0.46556 0.44180 0.71219
 C274 C 0.44750 0.46556 0.72642
 N275 N 0.41588 0.46214 0.73018
 H276 H 0.39610 0.51395 0.81551
 H277 H 0.43662 0.53927 0.72781
 H278 H 0.46577 0.58184 0.75226
 H279 H 0.42458 0.55586 0.84215
 H280 H 0.37635 0.43264 0.72492
 H281 H 0.40607 0.39039 0.69861
 H282 H 0.49038 0.44591 0.70870
 H283 H 0.45891 0.48664 0.73442
 C284 C 0.33666 0.44368 0.83238
 C285 C 0.33684 0.54528 0.66836
 C286 C 0.45113 0.41377 0.70235
 C287 C 0.44860 0.57206 0.79989
 C288 C 0.63510 0.94256 0.71567
 H289 H 0.61744 0.92982 0.72877
 C290 C 0.64935 0.92814 0.68982
 H291 H 0.64212 0.90455 0.68374
 C292 C 0.66210 0.99009 0.70515
 H293 H 0.66566 1.01475 0.71039
 C294 C 0.67700 0.97649 0.67898
 H295 H 0.69181 0.99117 0.66432
 N296 N 0.64126 0.97314 0.72261
 C297 C 0.61717 1.02581 0.80757
 H298 H 0.59192 1.02555 0.80417
 C299 C 0.62958 1.03940 0.83446
 H300 H 0.61347 1.04998 0.85131
 C301 C 0.66825 1.01267 0.78899
 H302 H 0.68309 1.00217 0.77105
 C303 C 0.68186 1.02594 0.81588
 H304 H 0.70725 1.02603 0.81731
 Zn305 Zn 0.61459 0.99404 0.75187
 N306 N 0.63642 1.01284 0.78550
 C307 C 0.60151 0.94224 0.78943
 N308 N 0.58734 0.96432 0.77072
 C309 C 0.55559 0.96484 0.76658
 C310 C 0.53688 0.94168 0.78069
 C311 C 0.58382 0.91874 0.80390
 C312 C 0.59480 1.05630 0.73614
 C313 C 0.57952 1.07943 0.71808
 C314 C 0.55862 1.03850 0.68510
 C315 C 0.57437 1.01611 0.70384
 N316 N 0.59184 1.02528 0.72891
 H317 H 0.62678 0.94269 0.79268
 H318 H 0.54470 0.98311 0.75226
 H319 H 0.51184 0.94287 0.77664
 H320 H 0.59571 0.90108 0.81831
 H321 H 0.60948 1.06331 0.75557
 H322 H 0.58222 1.10402 0.72426
 H323 H 0.54478 1.03007 0.66570
 H324 H 0.57287 0.99129 0.69826
 C325 C 0.66242 1.03905 0.83975
 C326 C 0.67065 0.94500 0.67084
 C327 C 0.56126 1.07087 0.69192
 C328 C 0.55103 0.91780 0.79939
 C329 C 0.04854 0.22069 -0.13276
 H330 H 0.06180 0.23821 -0.12027
 C331 C 0.06455 0.19543 -0.14672
 H332 H 0.08974 0.19407 -0.14372
 C333 C -0.00043 0.20109 -0.14985
 H334 H -0.02577 0.20294 -0.15058
 C335 C 0.01461 0.17548 -0.16427
 H336 H 0.00045 0.15779 -0.17564
 N337 N 0.01653 0.22244 -0.13343
 C338 C -0.04570 0.30240 -0.11463
 H339 H -0.04959 0.29774 -0.08981
 C340 C -0.06041 0.32817 -0.12904
 H341 H -0.07564 0.34327 -0.11505
 C342 C -0.01971 0.28910 -0.16231
 H343 H -0.00325 0.27403 -0.17483
 C344 C -0.03397 0.31486 -0.17779
 H345 H -0.02791 0.31913 -0.20215
 Zn346 Zn -0.00448 0.25238 -0.10726
 N347 N -0.02548 0.28378 -0.13118
 C348 C 0.03010 0.30398 -0.08469
 N349 N 0.02574 0.27240 -0.08118
 C350 C 0.04426 0.25493 -0.06137
 C351 C 0.06839 0.26912 -0.04434
 C352 C 0.05384 0.31909 -0.06816
 C353 C -0.06227 0.22316 -0.09820
 C354 C -0.08680 0.20848 -0.08212
 C355 C -0.05660 0.21175 -0.03413
 C356 C -0.03259 0.22642 -0.05125
 N357 N -0.03572 0.23168 -0.08276
 H358 H 0.01587 0.31749 -0.10109
 H359 H 0.04110 0.22966 -0.05972
 H360 H 0.08324 0.25414 -0.02989
 H361 H 0.05735 0.34410 -0.07205
 H362 H -0.06470 0.22827 -0.12308
 H363 H -0.10732 0.20145 -0.09537
 H364 H -0.05245 0.20691 -0.00942
 H365 H -0.01149 0.23348 -0.03920
 C366 C -0.05452 0.33507 -0.16099
 C367 C 0.04754 0.17179 -0.16218
 C368 C -0.08488 0.20321 -0.04926
 C369 C 0.07351 0.30180 -0.04756
 C370 C 0.44730 0.22125 0.14224
 H371 H 0.43417 0.24055 0.13163
 C372 C 0.43101 0.19629 0.15613
 H373 H 0.40564 0.19707 0.15510
 C374 C 0.49623 0.19675 0.15415
 H375 H 0.52159 0.19650 0.15267
 C376 C 0.48090 0.17135 0.16843
 H377 H 0.49485 0.15180 0.17760
 N378 N 0.47929 0.22053 0.14037
 C379 C 0.54047 0.29976 0.11910
 H380 H 0.54423 0.29479 0.09438
 C381 C 0.55495 0.32556 0.13274
 H382 H 0.56998 0.34029 0.11828
 C383 C 0.51504 0.28724 0.16732
 H384 H 0.49889 0.27247 0.18037
 C385 C 0.52906 0.31306 0.18202
 H386 H 0.52327 0.31752 0.20637
 Zn387 Zn 0.49947 0.25023 0.11338
 N388 N 0.52064 0.28149 0.13630
 C389 C 0.46377 0.30217 0.09027
 N390 N 0.46825 0.27044 0.08785
 C391 C 0.44915 0.25278 0.06946
 C392 C 0.42464 0.26700 0.05236
 C393 C 0.43956 0.31731 0.07368
 C394 C 0.55721 0.21970 0.10243
 C395 C 0.58088 0.20429 0.08541
 C396 C 0.54872 0.20891 0.03874
 C397 C 0.52562 0.22428 0.05671
 N398 N 0.53005 0.22908 0.08806
 H399 H 0.47837 0.31580 0.10576
 H400 H 0.45233 0.22742 0.06888
 H401 H 0.40926 0.25197 0.03910
 H402 H 0.43595 0.34244 0.07676
 H403 H 0.56073 0.22460 0.12715
 H404 H 0.60220 0.19683 0.09747
 H405 H 0.54378 0.20495 0.01417
 H406 H 0.50422 0.23232 0.04542
 C407 C 0.54914 0.33295 0.16452
 C408 C 0.44777 0.17030 0.16883
 C409 C 0.57710 0.19885 0.05297
 C410 C 0.41976 0.29990 0.05394
 C411 C 0.95245 0.71598 0.63076
 H412 H 0.93996 0.72958 0.61307
 C413 C 0.93743 0.69051 0.64497
 H414 H 0.91371 0.68517 0.63762
 C415 C 0.99970 0.70395 0.65807
 H416 H 1.02443 0.70851 0.66186
 C417 C 0.98549 0.67812 0.67296
 H418 H 0.99978 0.66298 0.68793
 N419 N 0.98315 0.72205 0.63715
 C420 C 1.03570 0.80748 0.61565
 H421 H 1.03514 0.80524 0.59025
 C422 C 1.04910 0.83390 0.62915
 H423 H 1.05895 0.85191 0.61389
 C424 C 1.02280 0.78680 0.66605
 H425 H 1.01205 0.76847 0.68018
 C426 C 1.03590 0.81315 0.68068
 H427 H 1.03498 0.81435 0.70606
 Zn428 Zn 1.00420 0.75174 0.61119
 N429 N 1.02306 0.78452 0.63407
 C430 C 0.95314 0.79067 0.59930
 N431 N 0.97435 0.77167 0.58443
 C432 C 0.97346 0.76762 0.55268
 C433 C 0.94961 0.78206 0.53475
 C434 C 0.92905 0.80550 0.58241
 C435 C 1.06627 0.73679 0.59119
 C436 C 1.08952 0.71911 0.57587
 C437 C 1.04900 0.68597 0.55459
 C438 C 1.02646 0.70440 0.57030
 N439 N 1.03538 0.72929 0.58811
 H440 H 0.95463 0.79373 0.62456
 H441 H 0.99096 0.75290 0.54124
 H442 H 0.94953 0.77794 0.50970
 H443 H 0.91204 0.82004 0.59490
 H444 H 1.07311 0.75615 0.60599
 H445 H 1.11396 0.72562 0.57858
 H446 H 1.04081 0.66683 0.54026
 H447 H 1.00174 0.69870 0.56852
 C448 C 1.04929 0.83732 0.66209
 C449 C 0.95380 0.67101 0.66650
 C450 C 1.08125 0.69288 0.55766
 C451 C 0.92654 0.80100 0.54971
 C452 C 0.55232 0.71444 0.36875
 H453 H 0.56516 0.72709 0.38649
 C454 C 0.56680 0.68884 0.35402
 H455 H 0.59051 0.68241 0.36107
 C456 C 0.50458 0.70489 0.34190
 H457 H 0.47987 0.71043 0.33851
 C458 C 0.51826 0.67901 0.32645
 H459 H 0.50363 0.66482 0.31142
 N460 N 0.52164 0.72179 0.36283
 C461 C 0.46897 0.80754 0.38587
 H462 H 0.46959 0.80451 0.41122
 C463 C 0.45507 0.83444 0.37282
 H464 H 0.44461 0.85169 0.38855
 C465 C 0.48155 0.78804 0.33516
 H466 H 0.49200 0.76977 0.32071
 C467 C 0.46797 0.81489 0.32092
 H468 H 0.46756 0.81594 0.29548
 Zn469 Zn 0.50120 0.75139 0.38945
 N470 N 0.48181 0.78501 0.36710
 C471 C 0.55287 0.78855 0.40092
 N472 N 0.53141 0.77018 0.41591
 C473 C 0.53184 0.76641 0.44778
 C474 C 0.55530 0.78064 0.46577
 C475 C 0.57662 0.80313 0.41787
 C476 C 0.43951 0.73660 0.41018
 C477 C 0.41678 0.71873 0.42574
 C478 C 0.45820 0.68524 0.44670
 C479 C 0.48019 0.70382 0.43072
 N480 N 0.47058 0.72898 0.41297
 H481 H 0.55170 0.79150 0.37558
 H482 H 0.51410 0.75230 0.45932
 H483 H 0.55486 0.77692 0.49093
 H484 H 0.59372 0.81730 0.40532
 H485 H 0.43214 0.75614 0.39536
 H486 H 0.39215 0.72520 0.42312
 H487 H 0.46698 0.66577 0.46076
 H488 H 0.50504 0.69799 0.43218
 C489 C 0.45499 0.83923 0.33982
 C490 C 0.54991 0.67056 0.33242
 C491 C 0.42578 0.69229 0.44400
 C492 C 0.57849 0.79907 0.45076
 C493 C 0.36222 -0.00513 0.21016
 C494 C 0.37799 0.00928 0.23508
 C495 C 0.39218 0.03868 0.23045
 C496 C 0.39159 0.05349 0.20063
 C497 C 0.37447 0.03918 0.17626
 C498 C 0.35897 0.01032 0.18085
 C499 C 0.37825 -0.00588 0.26651
 C500 C 0.39334 -0.03518 0.27117
 C501 C 0.39413 -0.04934 0.30137
 C502 C 0.37796 -0.03408 0.32618
 C503 C 0.36116 -0.00567 0.32146
 C504 C 0.36271 0.00892 0.29163
 H505 H 0.35226 -0.02819 0.21415
 H506 H 0.40340 0.04959 0.25035
 H507 H 0.40468 -0.04603 0.25115
 H508 H 0.35192 0.03179 0.28744
 H509 H 0.37332 0.05070 0.15339
 H510 H 0.37852 -0.04460 0.34955
 C511 C 0.12668 1.01344 0.71073
 C512 C 0.11344 0.99646 0.73588
 C513 C 0.10101 0.96641 0.73066
 C514 C 0.10199 0.95293 0.70046
 C515 C 0.11522 0.97053 0.67551
 C516 C 0.12720 1.00098 0.68008
 C517 C 0.11307 1.00997 0.76792
 C518 C 0.09971 1.03991 0.77318
 C519 C 0.09966 1.05313 0.80352
 C520 C 0.11442 1.03614 0.82817
 C521 C 0.12701 1.00560 0.82370
 C522 C 0.12660 0.99302 0.79306
 H523 H 0.13740 1.03589 0.71565
 H524 H 0.09022 0.95427 0.75029
 H525 H 0.08987 1.05258 0.75329
 H526 H 0.13785 0.97057 0.78807
 H527 H 0.11628 0.96021 0.65224
 H528 H 0.11601 1.04688 0.85121
 C529 C 0.63279 0.50704 0.20974
 C530 C 0.61701 0.49245 0.23485
 C531 C 0.60328 0.46282 0.23068
 C532 C 0.60453 0.44790 0.20114
 C533 C 0.62074 0.46294 0.17628
 C534 C 0.63626 0.49180 0.18054
 C535 C 0.61674 0.50753 0.26608
 C536 C 0.60200 0.53701 0.27039
 C537 C 0.60278 0.55185 0.29998
 C538 C 0.62042 0.53745 0.32437
 C539 C 0.63650 0.50860 0.32001
 C540 C 0.63311 0.49312 0.29105
 H541 H 0.64293 0.53006 0.21339
 H542 H 0.59140 0.45221 0.25054
 H543 H 0.59034 0.54802 0.25049
 H544 H 0.64387 0.47014 0.28739
 H545 H 0.62113 0.45186 0.15335
 H546 H 0.62146 0.54898 0.34701
 C547 C 0.86800 0.49579 0.70708
 C548 C 0.88262 0.51070 0.73238
 C549 C 0.89786 0.53953 0.72759
 C550 C 0.89874 0.55360 0.69744
 C551 C 0.88254 0.53891 0.67265
 C552 C 0.86826 0.50933 0.67673
 C553 C 0.88119 0.49623 0.76409
 C554 C 0.89414 0.46606 0.76929
 C555 C 0.89179 0.45143 0.79906
 C556 C 0.87610 0.46775 0.82338
 C557 C 0.86350 0.49830 0.81884
 C558 C 0.86594 0.51220 0.78870
 H559 H 0.85549 0.47406 0.71151
 H560 H 0.90833 0.55088 0.74767
 H561 H 0.90618 0.45470 0.74995
 H562 H 0.85519 0.53487 0.78354
 H563 H 0.88084 0.55098 0.65014
 H564 H 0.87382 0.45647 0.84629
 C565 C 0.20500 0.36831 -0.00711
 C566 C 0.23022 0.38304 0.00780
 C567 C 0.22548 0.39822 0.03673
 C568 C 0.19550 0.39887 0.05096
 C569 C 0.17087 0.38249 0.03632
 C570 C 0.17483 0.36827 0.00667
 C571 C 0.26191 0.38150 -0.00650
 C572 C 0.26704 0.39400 -0.03677
 C573 C 0.29691 0.39165 -0.05106
 C574 C 0.32140 0.37641 -0.03429
 C575 C 0.31692 0.36435 -0.00362
 C576 C 0.28669 0.36672 0.00988
 H577 H 0.20959 0.35575 -0.02878
 H578 H 0.24550 0.40877 0.04806
 H579 H 0.24758 0.40569 -0.04847
 H580 H 0.28162 0.35624 0.03260
 H581 H 0.14839 0.38076 0.04828
 H582 H 0.34436 0.37409 -0.04531
 C583 C 0.70709 0.13145 1.00793
 C584 C 0.73247 0.11569 0.99366
 C585 C 0.72829 0.10035 0.96480
 C586 C 0.69829 0.09944 0.95062
 C587 C 0.67319 0.11584 0.96535
 C588 C 0.67754 0.13315 0.99315
 C589 C 0.76380 0.11659 1.00854
 C590 C 0.76882 0.10239 1.03812
 C591 C 0.79854 0.10378 1.05278
 C592 C 0.82222 0.12180 1.03801
 C593 C 0.81711 0.13753 1.00906
 C594 C 0.78808 0.13327 0.99381
 H595 H 0.71076 0.14295 1.03033
 H596 H 0.74855 0.08904 0.95419
 H597 H 0.74926 0.09064 1.04926
 H598 H 0.78381 0.14348 0.97071
 H599 H 0.65001 0.11483 0.95487
 H600 H 0.84494 0.12356 1.04937
 C601 C 0.21298 0.62770 0.50962
 C602 C 0.23794 0.61424 0.49245
 C603 C 0.23245 0.60201 0.46232
 C604 C 0.20212 0.60332 0.44903
 C605 C 0.17739 0.61679 0.46680
 C606 C 0.18224 0.62861 0.49729
 C607 C 0.26995 0.61308 0.50609
 C608 C 0.27497 0.59931 0.53587
 C609 C 0.30518 0.59867 0.54944
 C610 C 0.32994 0.61350 0.53307
 C611 C 0.32570 0.62639 0.50267
 C612 C 0.29525 0.62642 0.48962
 H613 H 0.21810 0.63818 0.53216
 H614 H 0.25191 0.59100 0.45003
 H615 H 0.25495 0.58972 0.54825
 H616 H 0.29058 0.63795 0.46725
 H617 H 0.15401 0.61803 0.45667
 H618 H 0.35277 0.61500 0.54427
 C619 C 0.71015 0.86400 0.49280
 C620 C 0.73514 0.87950 0.50728
 C621 C 0.73074 0.89353 0.53684
 C622 C 0.70107 0.89305 0.55172
 C623 C 0.67665 0.87608 0.53737
 C624 C 0.68102 0.86074 0.50833
 C625 C 0.76649 0.87935 0.49218
 C626 C 0.77104 0.89415 0.46283
 C627 C 0.80100 0.89400 0.44850
 C628 C 0.82597 0.87820 0.46401
 C629 C 0.82142 0.86173 0.49252
 C630 C 0.79163 0.86357 0.50701
 H631 H 0.71397 0.85414 0.46965
 H632 H 0.75070 0.90445 0.54789
 H633 H 0.75129 0.90639 0.45218
 H634 H 0.78753 0.85294 0.52987
 H635 H 0.65397 0.87480 0.54902
 H636 H 0.84932 0.87868 0.45362
 C637 C -0.00322 0.20977 0.36330
 C638 C 0.01081 0.23487 0.37900
 C639 C 0.03992 0.23039 0.39403
 C640 C 0.05472 0.20048 0.39436
 C641 C 0.04093 0.17595 0.37703
 C642 C 0.01236 0.18043 0.36071
 C643 C -0.00460 0.26624 0.37846
 C644 C -0.03420 0.27068 0.39261
 C645 C -0.04920 0.30046 0.39173
 C646 C -0.03422 0.32532 0.37559
 C647 C -0.00527 0.32092 0.35996
 C648 C 0.00993 0.29135 0.36267
 H649 H -0.02613 0.21359 0.35272
 H650 H 0.05062 0.25040 0.40521
 H651 H -0.04466 0.25086 0.40463
 H652 H 0.03302 0.28735 0.35259
 H653 H 0.05254 0.15309 0.37647
 H654 H -0.04539 0.34846 0.37516
 C655 C 1.00706 0.71255 0.12456
 C656 C 0.99011 0.73782 0.11106
 C657 C 0.95991 0.73285 0.09883
 C658 C 0.94626 0.70276 0.10025
 C659 C 0.96364 0.67781 0.11416
 C660 C 0.99431 0.68206 0.12573
 C661 C 1.00382 0.76974 0.11039
 C662 C 1.03366 0.77460 0.09701
 C663 C 1.04731 0.80470 0.09716
 C664 C 1.03097 0.82944 0.11231
 C665 C 1.00054 0.82539 0.12480
 C666 C 0.98738 0.79508 0.12405
 H667 H 1.02970 0.71728 0.13503
 H668 H 0.94772 0.75264 0.08811
 H669 H 1.04605 0.75457 0.08715
 H670 H 0.96499 0.79048 0.13529
 H671 H 0.95300 0.65474 0.11593
 H672 H 1.04219 0.85216 0.11442
 C673 C 0.51610 0.20330 0.62768
 C674 C 0.49990 0.22953 0.61524
 C675 C 0.46984 0.22586 0.60218
 C676 C 0.45569 0.19597 0.60159
 C677 C 0.47251 0.16992 0.61420
 C678 C 0.50293 0.17304 0.62678
 C679 C 0.51429 0.26103 0.61694
 C680 C 0.54389 0.26636 0.60323
 C681 C 0.55799 0.29619 0.60509
 C682 C 0.54261 0.31989 0.62267
 C683 C 0.51362 0.31453 0.63783
 C684 C 0.49898 0.28528 0.63346
 H685 H 0.53855 0.20701 0.63902
 H686 H 0.45814 0.24644 0.59243
 H687 H 0.55540 0.24702 0.59125
 H688 H 0.47588 0.28090 0.64333
 H689 H 0.46143 0.14703 0.61447
 H690 H 0.55343 0.34283 0.62432
 C691 C 0.48789 0.70424 0.86630
 C692 C 0.50289 0.72966 0.88057
 C693 C 0.53233 0.72518 0.89494
 C694 C 0.54702 0.69524 0.89524
 C695 C 0.53217 0.67035 0.87944
 C696 C 0.50210 0.67410 0.86592
 C697 C 0.48829 0.76139 0.87902
 C698 C 0.45886 0.76708 0.89310
 C699 C 0.44498 0.79739 0.89194
 C700 C 0.46115 0.82164 0.87604
 C701 C 0.48980 0.81592 0.86026
 C702 C 0.50375 0.78577 0.86303
 H703 H 0.46585 0.70872 0.85426
 H704 H 0.54365 0.74540 0.90507
 H705 H 0.44785 0.74795 0.90577
 H706 H 0.52672 0.78086 0.85304
 H707 H 0.54432 0.64782 0.87760
 H708 H 0.45125 0.84533 0.87600
 C709 C 0.44040 -0.13210 0.32724
 C710 C 0.40628 -0.13231 0.33196
 C711 C 0.39071 -0.10399 0.32192
 C712 C 0.41188 -0.08019 0.30900
 C713 C 0.43577 -0.07536 0.33321
 C714 C 0.45151 -0.10367 0.34308
 C715 C 0.44473 -0.12492 0.29353
 C716 C 0.42893 -0.09635 0.28347
 H717 H 0.39334 -0.15249 0.34094
 H718 H 0.36523 -0.10132 0.32270
 H719 H 0.44286 -0.05228 0.34143
 H720 H 0.47151 -0.10326 0.35903
 H721 H 0.46229 -0.13586 0.27844
 H722 H 0.43403 -0.08628 0.26052
 C723 C 0.93139 0.36539 0.82528
 C724 C 0.94525 0.39445 0.84139
 C725 C 0.93243 0.42234 0.83180
 C726 C 0.90659 0.41932 0.80676
 C727 C 0.92246 0.40023 0.77998
 C728 C 0.93538 0.37212 0.78966
 C729 C 0.89558 0.36815 0.83064
 C730 C 0.88272 0.39614 0.82105
 H731 H 0.96412 0.39318 0.85862
 H732 H 0.94040 0.44477 0.84088
 H733 H 0.92205 0.40656 0.75521
 H734 H 0.94534 0.35574 0.77278
 H735 H 0.88135 0.34924 0.84030
 H736 H 0.85759 0.40099 0.82260
 C737 C 0.06270 1.14082 0.82719
 C738 C 0.09905 1.13866 0.82669
 C739 C 0.11059 1.10983 0.81829
 C740 C 0.08524 1.08545 0.81073
 C741 C 0.06383 1.08473 0.84004
 C742 C 0.05240 1.11343 0.84869
 C743 C 0.05312 1.13065 0.79381
 C744 C 0.06459 1.10175 0.78522
 H745 H 0.11481 1.15822 0.83018
 H746 H 0.13568 1.10523 0.81561
 H747 H 0.05775 1.06328 0.85274
 H748 H 0.03691 1.11635 0.86891
 H749 H 0.03813 1.14478 0.77838
 H750 H 0.05825 1.09160 0.76280
 C751 C 0.56366 0.63917 0.32131
 C752 C 0.55138 0.62635 0.28974
 C753 C 0.56347 0.59737 0.28196
 C754 C 0.58719 0.58381 0.30633
 C755 C 0.61189 0.60979 0.30965
 C756 C 0.59974 0.63858 0.31714
 C757 C 0.55670 0.61292 0.34540
 C758 C 0.56862 0.58419 0.33754
 H759 H 0.53497 0.63896 0.27450
 H760 H 0.55607 0.58551 0.26074
 H761 H 0.63681 0.60616 0.30485
 H762 H 0.61444 0.65934 0.31800
 H763 H 0.54267 0.61649 0.36656
 H764 H 0.56444 0.56333 0.35193
 C765 C 0.56334 0.36311 0.17743
 C766 C 0.55859 0.37101 0.21265
 C767 C 0.57187 0.39879 0.22150
 C768 C 0.58888 0.41641 0.19439
 C769 C 0.61251 0.39180 0.18163
 C770 C 0.59928 0.36417 0.17285
 C771 C 0.55049 0.39235 0.15982
 C772 C 0.56369 0.41993 0.16861
 H773 H 0.54716 0.35593 0.22981
 H774 H 0.57104 0.40622 0.24585
 H775 H 0.63775 0.39552 0.18040
 H776 H 0.61330 0.34444 0.16421
 H777 H 0.53195 0.39149 0.14226
 H778 H 0.55636 0.44247 0.15851
 C779 C 0.06325 0.86738 0.67544
 C780 C 0.09780 0.87164 0.66536
 C781 C 0.11058 0.89934 0.67458
 C782 C 0.08784 0.92088 0.69310
 C783 C 0.05868 0.92461 0.67198
 C784 C 0.04589 0.89694 0.66292
 C785 C 0.06384 0.87186 0.71154
 C786 C 0.07672 0.89971 0.72077
 H787 H 0.11141 0.85383 0.65284
 H788 H 0.13506 0.90498 0.66994
 H789 H 0.04852 0.94730 0.66522
 H790 H 0.02481 0.89614 0.64850
 H791 H 0.05649 0.85448 0.72881
 H792 H 0.08023 0.90463 0.74552
 C793 C 0.93938 0.63989 0.67704
 C794 C 0.90330 0.64076 0.68141
 C795 C 0.89055 0.61226 0.68842
 C796 C 0.91471 0.58513 0.69112
 C797 C 0.93309 0.58573 0.65978
 C798 C 0.94561 0.61418 0.65241
 C799 C 0.95155 0.62545 0.70827
 C800 C 0.93892 0.59677 0.71551
 H801 H 0.88906 0.66219 0.68083
 H802 H 0.86557 0.60952 0.69315
 H803 H 0.93682 0.56520 0.64500
 H804 H 0.95964 0.61784 0.63126
 H805 H 0.96839 0.63669 0.72361
 H806 H 0.94643 0.58367 0.73626
 C807 C 0.43173 0.13976 0.17889
 C808 C 0.39546 0.14025 0.18196
 C809 C 0.38296 0.11178 0.18962
 C810 C 0.40736 0.08506 0.19397
 C811 C 0.42660 0.08490 0.16319
 C812 C 0.43896 0.11329 0.15526
 C813 C 0.44305 0.12644 0.21085
 C814 C 0.43061 0.09787 0.21869
 H815 H 0.38060 0.16115 0.18071
 H816 H 0.35791 0.10887 0.19386
 H817 H 0.43069 0.06400 0.14901
 H818 H 0.45318 0.11652 0.13418
 H819 H 0.45993 0.13821 0.22580
 H820 H 0.43802 0.08550 0.23989
 C821 C 0.32298 0.43000 -0.13728
 C822 C 0.28733 0.43403 -0.13091
 C823 C 0.27769 0.42152 -0.10274
 C824 C 0.30454 0.40598 -0.08325
 C825 C 0.31918 0.38173 -0.10598
 C826 C 0.32872 0.39418 -0.13403
 C827 C 0.33881 0.44440 -0.10828
 C828 C 0.32926 0.43199 -0.08034
 H829 H 0.27043 0.44372 -0.14754
 H830 H 0.25294 0.42121 -0.09660
 H831 H 0.32100 0.35664 -0.10081
 H832 H 0.33860 0.37963 -0.15265
 H833 H 0.35581 0.46333 -0.10963
 H834 H 0.33815 0.44037 -0.05796
 C835 C 0.82605 0.94031 0.36593
 C836 C 0.83964 0.95410 0.39639
 C837 C 0.83051 0.93896 0.42314
 C838 C 0.80823 0.91123 0.41765
 C839 C 0.78073 0.92580 0.39837
 C840 C 0.79004 0.94103 0.37143
 C841 C 0.83480 0.90501 0.36710
 C842 C 0.82548 0.88990 0.39383
 H843 H 0.85472 0.97463 0.39691
 H844 H 0.83789 0.94657 0.44635
 H845 H 0.75600 0.92378 0.40423
 H846 H 0.77292 0.95190 0.35577
 H847 H 0.84660 0.89268 0.34798
 H848 H 0.82930 0.86473 0.39735
 C849 C 0.82194 0.06538 1.13987
 C850 C 0.81743 0.09978 1.13950
 C851 C 0.80892 0.11232 1.10929
 C852 C 0.80579 0.08842 1.08487
 C853 C 0.83572 0.07099 1.08470
 C854 C 0.84466 0.05865 1.11478
 C855 C 0.79180 0.05340 1.12827
 C856 C 0.78305 0.06581 1.09784
 H857 H 0.81634 0.11433 1.16046
 H858 H 0.80230 0.13698 1.10596
 H859 H 0.84935 0.06607 1.06354
 H860 H 0.86580 0.04425 1.11794
 H861 H 0.77637 0.03788 1.14149
 H862 H 0.76199 0.05786 1.08613
 C863 C 0.32697 0.56077 0.63726
 C864 C 0.29440 0.55054 0.62546
 C865 C 0.28656 0.56229 0.59645
 C866 C 0.31189 0.58388 0.58170
 C867 C 0.31767 0.60904 0.60686
 C868 C 0.32534 0.59719 0.63579
 C869 C 0.34981 0.55143 0.61064
 C870 C 0.34188 0.56314 0.58182
 H871 H 0.27905 0.53478 0.63851
 H872 H 0.26496 0.55533 0.58504
 H873 H 0.31441 0.63418 0.60262
 H874 H 0.32765 0.61274 0.65576
 H875 H 0.37037 0.53632 0.61412
 H876 H 0.35553 0.55765 0.56083
 C877 C 0.17574 0.56415 0.36399
 C878 C 0.16376 0.54706 0.39371
 C879 C 0.17328 0.56000 0.42119
 C880 C 0.19429 0.58902 0.41712
 C881 C 0.22158 0.57750 0.39570
 C882 C 0.21190 0.56448 0.36803
 C883 C 0.16573 0.59888 0.36824
 C884 C 0.17541 0.61181 0.39575
 H885 H 0.14936 0.52604 0.39316
 H886 H 0.16694 0.55001 0.44397
 H887 H 0.24639 0.58080 0.40037
 H888 H 0.22885 0.55680 0.35051
 H889 H 0.15291 0.61249 0.35056
 H890 H 0.17087 0.63641 0.40135
 C891 C 0.67431 0.05345 0.86836
 C892 C 0.66972 0.08769 0.86751
 C893 C 0.67908 0.10311 0.89569
 C894 C 0.69131 0.08171 0.92003
 C895 C 0.66693 0.05807 0.92489
 C896 C 0.65773 0.04246 0.89671
 C897 C 0.70778 0.04869 0.87613
 C898 C 0.71716 0.06432 0.90457
 H899 H 0.66129 0.10080 0.84701
 H900 H 0.67828 0.12864 0.89793
 H901 H 0.65813 0.05101 0.94794
 H902 H 0.64172 0.02262 0.89721
 H903 H 0.72301 0.03085 0.86577
 H904 H 0.73970 0.05870 0.91519
 C905 C 0.68105 0.93144 0.63924
 C906 C 0.71203 0.94402 0.62514
 C907 C 0.71918 0.93219 0.59607
 C908 C 0.69494 0.90828 0.58370
 C909 C 0.69266 0.88334 0.61007
 C910 C 0.68574 0.89531 0.63896
 C911 C 0.65620 0.93839 0.61379
 C912 C 0.66347 0.92664 0.58495
 H913 H 0.72734 0.96052 0.63690
 H914 H 0.73979 0.94006 0.58327
 H915 H 0.69758 0.85841 0.60655
 H916 H 0.68542 0.88045 0.65992
 H917 H 0.63495 0.95229 0.61794
 H918 H 0.64850 0.93086 0.56459
 C919 C 0.17517 0.43938 0.13738
 C920 C 0.20621 0.45157 0.12307
 C921 C 0.21344 0.43900 0.09435
 C922 C 0.18922 0.41479 0.08254
 C923 C 0.18682 0.39052 0.10949
 C924 C 0.17982 0.40323 0.13804
 C925 C 0.15041 0.44571 0.11171
 C926 C 0.15776 0.43323 0.08322
 H927 H 0.22144 0.46843 0.13443
 H928 H 0.23406 0.44655 0.08135
 H929 H 0.19178 0.36550 0.10662
 H930 H 0.17952 0.38891 0.15936
 H931 H 0.12917 0.45975 0.11544
 H932 H 0.14287 0.43699 0.06272
 C933 C -0.13374 0.32503 0.43448
 C934 C -0.10455 0.34192 0.44708
 C935 C -0.07705 0.33284 0.43334
 C936 C -0.08061 0.30751 0.40790
 C937 C -0.09815 0.28042 0.42488
 C938 C -0.12585 0.28957 0.43872
 C939 C -0.13276 0.33017 0.39854
 C940 C -0.10520 0.32111 0.38476
 H941 H -0.10539 0.35922 0.46584
 H942 H -0.05455 0.34242 0.44043
 H943 H -0.09081 0.25588 0.42517
 H944 H -0.14096 0.27246 0.45007
 H945 H -0.15249 0.33937 0.38490
 H946 H -0.10153 0.32265 0.35945
 C947 C 0.36290 0.82489 0.93767
 C948 C 0.39362 0.83699 0.95217
 C949 C 0.42017 0.82715 0.93712
 C950 C 0.41423 0.80569 0.90878
 C951 C 0.39398 0.77862 0.92229
 C952 C 0.36727 0.78864 0.93743
 C953 C 0.36460 0.83442 0.90264
 C954 C 0.39114 0.82438 0.88762
 H955 H 0.39443 0.85166 0.97304
 H956 H 0.44351 0.83352 0.94514
 H957 H 0.39875 0.75369 0.91908
 H958 H 0.35077 0.77184 0.94710
 H959 H 0.34593 0.84721 0.89039
 H960 H 0.39492 0.82858 0.86261
 C961 C 1.13566 0.82631 0.06190
 C962 C 1.12401 0.79409 0.05031
 C963 C 1.09477 0.78630 0.06116
 C964 C 1.07977 0.81126 0.08321
 C965 C 1.10450 0.81592 0.10910
 C966 C 1.13360 0.82346 0.09812
 C967 C 1.10937 0.84975 0.05263
 C968 C 1.08037 0.84186 0.06343
 H969 H 1.13750 0.77856 0.03501
 H970 H 1.08360 0.76475 0.05374
 H971 H 1.09987 0.81191 0.13400
 H972 H 1.15361 0.82505 0.11386
 H973 H 1.11318 0.87053 0.03801
 H974 H 1.05953 0.85584 0.05771
 C975 C 0.64416 0.32098 0.56658
 C976 C 0.64353 0.31811 0.60288
 C977 C 0.61517 0.30935 0.61487
 C978 C 0.58968 0.30378 0.58991
 C979 C 0.58839 0.33443 0.57027
 C980 C 0.61664 0.34344 0.55842
 C981 C 0.63328 0.28838 0.55539
 C982 C 0.60482 0.27941 0.56731
 H983 H 0.66387 0.32003 0.61809
 H984 H 0.61168 0.30493 0.63989
 H985 H 0.56686 0.34774 0.56562
 H986 H 0.61912 0.36456 0.54398
 H987 H 0.64669 0.27364 0.53926
 H988 H 0.59433 0.25741 0.56024
 C989 C 0.36925 0.17444 0.56245
 C990 C 0.37316 0.16473 0.59726
 C991 C 0.40120 0.17288 0.61006
 C992 C 0.42342 0.19007 0.58712
 C993 C 0.42620 0.16838 0.55837
 C994 C 0.39819 0.16035 0.54555
 C995 C 0.37524 0.21034 0.56228
 C996 C 0.40346 0.21851 0.57517
 H997 H 0.35493 0.15318 0.61099
 H998 H 0.40673 0.16828 0.63467
 H999 H 0.44853 0.16053 0.54843
 H1000 H 0.39676 0.14572 0.52470
 H1001 H 0.35883 0.22821 0.55384
 H1002 H 0.40976 0.24307 0.57745
 C1003 C 0.85983 0.67765 0.06346
 C1004 C 0.86369 0.67121 0.09903
 C1005 C 0.89180 0.68042 0.11096
 C1006 C 0.91398 0.69549 0.08650
 C1007 C 0.91673 0.67123 0.05987
 C1008 C 0.88872 0.66198 0.04798
 C1009 C 0.86577 0.71341 0.06010
 C1010 C 0.89399 0.72274 0.07208
 H1011 H 0.84541 0.66111 0.11381
 H1012 H 0.89739 0.67809 0.13585
 H1013 H 0.93904 0.66242 0.05071
 H1014 H 0.88725 0.64531 0.02872
 H1015 H 0.84883 0.73057 0.05122
 H1016 H 0.89991 0.74750 0.07271
 C1017 C 0.63458 0.67511 0.93407
 C1018 C 0.62090 0.70693 0.94528
 C1019 C 0.59190 0.71418 0.93325
 C1020 C 0.57908 0.68909 0.91044
 C1021 C 0.60520 0.68506 0.88561
 C1022 C 0.63409 0.67798 0.89774
 C1023 C 0.60886 0.65103 0.94200
 C1024 C 0.58007 0.65839 0.93003
 H1025 H 0.63271 0.72219 0.96184
 H1026 H 0.57921 0.73515 0.94073
 H1027 H 0.60156 0.68913 0.86056
 H1028 H 0.65463 0.67706 0.88258
 H1029 H 0.61290 0.63009 0.95643
 H1030 H 0.55963 0.64385 0.93463
 C1031 C 0.14053 0.18006 0.43675
 C1032 C 0.11499 0.15525 0.44238
 C1033 C 0.08667 0.16265 0.42932
 C1034 C 0.08602 0.19418 0.41105
 C1035 C 0.09721 0.21842 0.43562
 C1036 C 0.12575 0.21114 0.44879
 C1037 C 0.14174 0.18478 0.40069
 C1038 C 0.11339 0.19180 0.38740
 H1039 H 0.11865 0.13398 0.45642
 H1040 H 0.06625 0.14776 0.43258
 H1041 H 0.08395 0.23909 0.44296
 H1042 H 0.13667 0.22643 0.46590
 H1043 H 0.16328 0.18432 0.38685
 H1044 H 0.11089 0.19672 0.36235
 C1045 C 0.54531 0.09698 0.67256
 C1046 C 0.52682 0.08769 0.64273
 C1047 C 0.51342 0.11269 0.62716
 C1048 C 0.51925 0.14490 0.64267
 C1049 C 0.50803 0.14081 0.67687
 C1050 C 0.52147 0.11595 0.69235
 C1051 C 0.56893 0.12154 0.66031
 C1052 C 0.55548 0.14639 0.64468
 H1053 H 0.52570 0.06420 0.63300
 H1054 H 0.50153 0.10984 0.60475
 H1055 H 0.49067 0.15616 0.68796
 H1056 H 0.51544 0.11008 0.71658
 H1057 H 0.59432 0.11866 0.66217
 H1058 H 0.56974 0.16398 0.63285
 C1059 C 1.03840 0.60697 0.17159
 C1060 C 1.06145 0.63261 0.16051
 C1061 C 1.04757 0.65733 0.14501
 C1062 C 1.01150 0.65456 0.14186
 C1063 C 1.00735 0.62246 0.12557
 C1064 C 1.02119 0.59764 0.14103
 C1065 C 1.01338 0.62471 0.19105
 C1066 C 0.99947 0.64938 0.17565
 H1067 H 1.08686 0.63052 0.16291
 H1068 H 1.06162 0.67548 0.13383
 H1069 H 0.99617 0.61969 0.10278
 H1070 H 1.02149 0.57437 0.13068
 H1071 H 1.00696 0.61820 0.21502
 H1072 H 0.98132 0.66394 0.18655
 C1073 C 0.95871 0.90039 0.17189
 C1074 C 0.93502 0.87523 0.16158
 C1075 C 0.94815 0.85053 0.14572
 C1076 C 0.98417 0.85285 0.14146
 C1077 C 0.98835 0.88509 0.12498
 C1078 C 0.97526 0.90988 0.14078
 C1079 C 0.98397 0.88205 0.19062
 C1080 C 0.99714 0.85740 0.17485
 H1081 H 0.90971 0.87763 0.16478
 H1082 H 0.93357 0.83271 0.13505
 H1083 H 0.99900 0.88802 0.10185
 H1084 H 0.97501 0.93328 0.13037
 H1085 H 0.99108 0.88813 0.21438
 H1086 H 1.01535 0.84243 0.18523
 C1087 C 0.46929 0.38714 0.68625
 C1088 C 0.50554 0.38726 0.68911
 C1089 C 0.52018 0.36310 0.67369
 C1090 C 0.49755 0.34081 0.65650
 C1091 C 0.47504 0.32992 0.68295
 C1092 C 0.46036 0.35403 0.69837
 C1093 C 0.46283 0.38648 0.65065
 C1094 C 0.47750 0.36245 0.63522
 H1095 H 0.51870 0.40256 0.70447
 H1096 H 0.54530 0.35871 0.67614
 H1097 H 0.47261 0.30562 0.69075
 H1098 H 0.44533 0.34992 0.71872
 H1099 H 0.44797 0.40368 0.63852
 H1100 H 0.47509 0.35914 0.60998
 C1101 C 0.46399 0.59953 0.81676
 C1102 C 0.43935 0.62429 0.82701
 C1103 C 0.45126 0.64865 0.84372
 C1104 C 0.48724 0.64669 0.84849
 C1105 C 0.49241 0.61413 0.86426
 C1106 C 0.48068 0.58960 0.84756
 C1107 C 0.48912 0.61852 0.79861
 C1108 C 0.50101 0.64304 0.81516
 H1109 H 0.41426 0.62209 0.82268
 H1110 H 0.43586 0.66625 0.85426
 H1111 H 0.50377 0.61059 0.88694
 H1112 H 0.48274 0.56533 0.85577
 H1113 H 0.49849 0.61263 0.77561
 H1114 H 0.51952 0.65792 0.80577
 C1115 C -0.02891 0.10539 0.31485
 C1116 C 0.00740 0.10561 0.31206
 C1117 C 0.02106 0.13062 0.32652
 C1118 C -0.00247 0.15317 0.34295
 C1119 C -0.02538 0.16272 0.31627
 C1120 C -0.03918 0.13789 0.30187
 C1121 C -0.03524 0.10702 0.35055
 C1122 C -0.02162 0.13187 0.36506
 H1123 H 0.02161 0.08860 0.29931
 H1124 H 0.04625 0.13454 0.32515
 H1125 H -0.02876 0.18664 0.30752
 H1126 H -0.05463 0.14104 0.28169
 H1127 H -0.04902 0.08974 0.36345
 H1128 H -0.02394 0.13581 0.39024
 C1129 C 0.03352 0.39813 0.31421
 C1130 C -0.00195 0.39376 0.30775
 C1131 C -0.01439 0.36790 0.32223
 C1132 C 0.00936 0.34862 0.34225
 C1133 C 0.03599 0.34072 0.31866
 C1134 C 0.04850 0.36648 0.30421
 C1135 C 0.03609 0.39837 0.35037
 C1136 C 0.02362 0.37266 0.36489
 H1137 H -0.01623 0.40832 0.29219
 H1138 H -0.03870 0.36110 0.31867
 H1139 H 0.04281 0.31712 0.31148
 H1140 H 0.06618 0.36437 0.28577
 H1141 H 0.04666 0.41741 0.36351
 H1142 H 0.02372 0.36974 0.39035
 C1143 C 0.53285 0.89085 0.81465
 C1144 C 0.49697 0.88910 0.80893
 C1145 C 0.48304 0.86401 0.82336
 C1146 C 0.50582 0.84284 0.84261
 C1147 C 0.53132 0.83343 0.81833
 C1148 C 0.54535 0.85841 0.80396
 C1149 C 0.53618 0.89041 0.85076
 C1150 C 0.52223 0.86546 0.86523
 H1151 H 0.48336 0.90495 0.79403
 H1152 H 0.45820 0.85905 0.82030
 H1153 H 0.53627 0.80951 0.81074
 H1154 H 0.56248 0.85533 0.78513
 H1155 H 0.54831 0.90847 0.86391
 H1156 H 0.52262 0.86221 0.89065
 C1157 C 0.68396 0.53452 0.10668
 C1158 C 0.65048 0.54280 0.10882
 C1159 C 0.63448 0.52786 0.13444
 C1160 C 0.65463 0.50717 0.15344
 C1161 C 0.66898 0.48490 0.13117
 C1162 C 0.68513 0.49985 0.10547
 C1163 C 0.69715 0.54169 0.13773
 C1164 C 0.68105 0.52671 0.16339
 H1165 H 0.63836 0.55852 0.09237
 H1166 H 0.60949 0.53153 0.13887
 H1167 H 0.67255 0.45995 0.13625
 H1168 H 0.70175 0.48626 0.09147
 H1169 H 0.71921 0.55395 0.14120
 H1170 H 0.69071 0.52663 0.18707
 C1171 C 0.17299 1.04467 0.60542
 C1172 C 0.19219 1.01901 0.62279
 C1173 C 0.17680 1.00525 0.64731
 C1174 C 0.14327 1.01806 0.65273
 C1175 C 0.14697 1.05409 0.65591
 C1176 C 0.16246 1.06782 0.63133
 C1177 C 0.14211 1.02826 0.59599
 C1178 C 0.12666 1.01456 0.62067
 H1179 H 0.21600 1.01207 0.61615
 H1180 H 0.18754 0.98670 0.66161
 H1181 H 0.13615 1.06827 0.67425
 H1182 H 0.16521 1.09323 0.62952
 H1183 H 0.13154 1.02915 0.57280
 H1184 H 0.10366 1.00402 0.61785
 C1185 C 0.17273 0.96148 0.89838
 C1186 C 0.16351 0.93943 0.87362
 C1187 C 0.14734 0.95415 0.84773
 C1188 C 0.14325 0.98837 0.85121
 C1189 C 0.12676 0.99172 0.88141
 C1190 C 0.14286 0.97695 0.90740
 C1191 C 0.19088 0.98595 0.88232
 C1192 C 0.17477 1.00058 0.85649
 H1193 H 0.16479 0.91391 0.87619
 H1194 H 0.13492 0.94000 0.83067
 H1195 H 0.10259 1.00013 0.88353
 H1196 H 0.13030 0.97282 0.92929
 H1197 H 0.21437 0.99301 0.88933
 H1198 H 0.18525 1.01928 0.84243
 C1199 C 0.68575 0.46660 0.39374
 C1200 C 0.69920 0.45855 0.36095
 C1201 C 0.68349 0.47257 0.33654
 C1202 C 0.65541 0.49355 0.34684
 C1203 C 0.63497 0.47218 0.36763
 C1204 C 0.65070 0.45819 0.39196
 C1205 C 0.68624 0.50302 0.39429
 C1206 C 0.67054 0.51699 0.36984
 H1207 H 0.72046 0.44454 0.35730
 H1208 H 0.69188 0.47061 0.31244
 H1209 H 0.61005 0.46842 0.36357
 H1210 H 0.63913 0.44257 0.40867
 H1211 H 0.70037 0.51696 0.41008
 H1212 H 0.67169 0.54226 0.36571
 C1213 C 0.81800 0.46758 0.60478
 C1214 C 0.83368 0.44387 0.62769
 C1215 C 0.85089 0.45738 0.65085
 C1216 C 0.85061 0.49374 0.64981
 C1217 C 0.86244 0.50157 0.61624
 C1218 C 0.84525 0.48824 0.59290
 C1219 C 0.79852 0.48974 0.62625
 C1220 C 0.81558 0.50319 0.64961
 H1221 H 0.83214 0.41844 0.62530
 H1222 H 0.86449 0.44323 0.66749
 H1223 H 0.88339 0.51509 0.61101
 H1224 H 0.85114 0.49132 0.56814
 H1225 H 0.77379 0.49550 0.62343
 H1226 H 0.80514 0.51968 0.66623
 C1227 C 0.31286 -0.02984 0.10529
 C1228 C 0.30183 -0.04255 0.13753
 C1229 C 0.31636 -0.02937 0.16266
 C1230 C 0.34110 -0.00446 0.15362
 C1231 C 0.36347 -0.02120 0.13053
 C1232 C 0.34886 -0.03431 0.10543
 C1233 C 0.30773 0.00622 0.10783
 C1234 C 0.32231 0.01931 0.13310
 H1235 H 0.28270 -0.05914 0.14039
 H1236 H 0.30864 -0.03445 0.18654
 H1237 H 0.38885 -0.02244 0.13358
 H1238 H 0.36184 -0.04658 0.08704
 H1239 H 0.29277 0.02047 0.09264
 H1240 H 0.31932 0.04411 0.13878
 C1241 C 0.31605 0.03441 0.39844
 C1242 C 0.31087 -0.00146 0.39532
 C1243 C 0.32510 -0.01439 0.36954
 C1244 C 0.34366 0.00932 0.34913
 C1245 C 0.31889 0.03503 0.34100
 C1246 C 0.30470 0.04805 0.36665
 C1247 C 0.35206 0.03798 0.39780
 C1248 C 0.36634 0.02505 0.37217
 H1249 H 0.29677 -0.01583 0.41100
 H1250 H 0.32257 -0.03914 0.36374
 H1251 H 0.31082 0.04083 0.31741
 H1252 H 0.28560 0.06519 0.36445
 H1253 H 0.36530 0.04949 0.41624
 H1254 H 0.39169 0.02572 0.36871
 C1255 C 0.81483 0.53782 0.89396
 C1256 C 0.84728 0.52361 0.90265
 C1257 C 0.86362 0.51170 0.87770
 C1258 C 0.84596 0.51411 0.84604
 C1259 C 0.81408 0.49842 0.85247
 C1260 C 0.79790 0.51053 0.87742
 C1261 C 0.82184 0.56177 0.86754
 C1262 C 0.83814 0.54964 0.84269
 H1263 H 0.85665 0.52290 0.92645
 H1264 H 0.88707 0.50152 0.88032
 H1265 H 0.80549 0.47849 0.83916
 H1266 H 0.77616 0.49996 0.88543
 H1267 H 0.81560 0.58666 0.86890
 H1268 H 0.84630 0.56488 0.82382
 C1269 C 0.10740 0.67384 0.54164
 C1270 C 0.13390 0.66390 0.56453
 C1271 C 0.15861 0.64864 0.55061
 C1272 C 0.15493 0.64453 0.51468
 C1273 C 0.12325 0.62738 0.51165
 C1274 C 0.09846 0.64260 0.52555
 C1275 C 0.12386 0.69311 0.51572
 C1276 C 0.14850 0.67793 0.50177
 H1277 H 0.13242 0.66681 0.58991
 H1278 H 0.17737 0.63818 0.56465
 H1279 H 0.12083 0.60419 0.50127
 H1280 H 0.07557 0.63164 0.52682
 H1281 H 0.11657 0.71680 0.50877
 H1282 H 0.16224 0.68875 0.48304
 C1283 C 0.60349 0.18196 1.03507
 C1284 C 0.60790 0.14761 1.04631
 C1285 C 0.63225 0.13196 1.03229
 C1286 C 0.65039 0.15173 1.00801
 C1287 C 0.62508 0.16415 0.98482
 C1288 C 0.60063 0.17976 0.99884
 C1289 C 0.63583 0.19727 1.03992
 C1290 C 0.66020 0.18166 1.02582
 H1291 H 0.59288 0.13643 1.06378
 H1292 H 0.63801 0.10752 1.03787
 H1293 H 0.62743 0.16354 0.95935
 H1294 H 0.58303 0.19182 0.98463
 H1295 H 0.63907 0.21947 1.05207
 H1296 H 0.68389 0.19102 1.02579
 C1297 C 0.88952 0.18739 0.96709
 C1298 C 0.88897 0.19002 1.00163
 C1299 C 0.86364 0.17318 1.01622
 C1300 C 0.84346 0.15681 0.99377
 C1301 C 0.83284 0.18191 0.97216
 C1302 C 0.85812 0.19873 0.95756
 C1303 C 0.88987 0.15352 0.96074
 C1304 C 0.86464 0.13683 0.97533
 H1305 H 0.90157 0.20767 1.01485
 H1306 H 0.85732 0.17713 1.04072
 H1307 H 0.80878 0.19077 0.97086
 H1308 H 0.85389 0.22038 0.94426
 H1309 H 0.90767 0.14166 0.94651
 H1310 H 0.86189 0.11150 0.97286
 C1311 C 0.40010 0.67285 0.45991
 C1312 C 0.40995 0.64220 0.47747
 C1313 C 0.38541 0.62654 0.49092
 C1314 C 0.35305 0.64274 0.48610
 C1315 C 0.35731 0.67650 0.49810
 C1316 C 0.38172 0.69210 0.48457
 C1317 C 0.37499 0.66179 0.43642
 C1318 C 0.35057 0.64608 0.44993
 H1319 H 0.43342 0.63198 0.47777
 H1320 H 0.38863 0.60367 0.50226
 H1321 H 0.34237 0.68722 0.51598
 H1322 H 0.38761 0.71607 0.49104
 H1323 H 0.37721 0.66444 0.41102
 H1324 H 0.33275 0.63497 0.43563
 C1325 C 0.60564 0.81454 0.46810
 C1326 C 0.60537 0.85063 0.46389
 C1327 C 0.63041 0.86527 0.47702
 C1328 C 0.65384 0.84284 0.49354
 C1329 C 0.63369 0.82393 0.51721
 C1330 C 0.60849 0.80932 0.50409
 C1331 C 0.63786 0.80359 0.45525
 C1332 C 0.66292 0.81813 0.46847
 H1333 H 0.58677 0.86366 0.45180
 H1334 H 0.63318 0.89070 0.47597
 H1335 H 0.63949 0.82098 0.54198
 H1336 H 0.59340 0.79450 0.51832
 H1337 H 0.64079 0.78448 0.43852
 H1338 H 0.68681 0.81042 0.46328
 C1339 C 0.10081 0.31870 -0.03191
 C1340 C 0.11994 0.30056 -0.00657
 C1341 C 0.14426 0.31724 0.00553
 C1342 C 0.14758 0.35066 -0.00830
 C1343 C 0.14959 0.34600 -0.04428
 C1344 C 0.12544 0.32917 -0.05639
 C1345 C 0.09063 0.34942 -0.01537
 C1346 C 0.11494 0.36625 -0.00345
 H1347 H 0.11434 0.27742 0.00271
 H1348 H 0.15924 0.30784 0.02417
 H1349 H 0.16713 0.35662 -0.05952
 H1350 H 0.12332 0.32485 -0.08150
 H1351 H 0.06633 0.35754 -0.01358
 H1352 H 0.11117 0.38895 0.00773
 C1353 C 0.39216 0.31660 0.03770
 C1354 C 0.37569 0.29879 0.01089
 C1355 C 0.35073 0.31473 -0.00185
 C1356 C 0.34423 0.34725 0.01278
 C1357 C 0.34089 0.34071 0.04848
 C1358 C 0.36574 0.32464 0.06125
 C1359 C 0.40078 0.34854 0.02254
 C1360 C 0.37582 0.36465 0.00998
 H1361 H 0.38381 0.27663 0.00102
 H1362 H 0.33751 0.30553 -0.02159
 H1363 H 0.32207 0.34967 0.06333
 H1364 H 0.36714 0.31935 0.08631
 H1365 H 0.42454 0.35775 0.02166
 H1366 H 0.37839 0.38777 -0.00088
 C1367 C 0.89866 0.81626 0.53259
 C1368 C 0.89517 0.81069 0.49682
 C1369 C 0.86930 0.82506 0.48393
 C1370 C 0.84916 0.84412 0.50756
 C1371 C 0.84128 0.81967 0.53348
 C1372 C 0.86702 0.80534 0.54645
 C1373 C 0.89808 0.85239 0.53591
 C1374 C 0.87236 0.86680 0.52300
 H1375 H 0.91055 0.79609 0.48253
 H1376 H 0.86320 0.82222 0.45927
 H1377 H 0.81776 0.81190 0.53946
 H1378 H 0.86498 0.78641 0.56372
 H1379 H 0.91660 0.86559 0.54726
 H1380 H 0.86891 0.89223 0.52353
   
