data_POSCAR
  _audit_creation_date              2014-09-24
  _audit_creation_method            'ToBaCCo'
  _symmetry_space_group_name_H-M    'P1'
  _symmetry_Int_Tables_number       1
  _symmetry_cell_setting            triclinic
  loop_
  _symmetry_equiv_pos_as_xyz
 x,y,z
_cell_length_a 64.2375
_cell_length_b 64.2069
_cell_length_c 64.3027
_cell_angle_alpha 90.002700
_cell_angle_beta 90.003500
_cell_angle_gamma 90.002200
loop_
  _atom_site_label
  _atom_site_type_symbol
  _atom_site_fract_x
  _atom_site_fract_y
  _atom_site_fract_z
C1 C 0.36633 1.35163 0.33547
 C2 C 0.36644 1.33618 0.35089
 C3 C 0.35126 1.33611 0.36611
 C4 C 0.33572 1.35146 0.36608
 C5 C 0.33565 1.36664 0.35093
 C6 C 0.35109 1.36672 0.33549
 C7 C 0.37877 1.35514 0.31845
 N8 N 0.37156 1.37213 0.30785
 C9 C 0.35452 1.37921 0.31845
 C10 C 0.31855 1.37904 0.35445
 N11 N 0.30800 1.37183 0.37145
 C12 C 0.31869 1.35485 0.37855
 C13 C 0.35483 1.31906 0.37857
 N14 N 0.37181 1.30873 0.37126
 C15 C 0.37899 1.31916 0.35431
 H16 H 0.39204 1.34566 0.31438
 H17 H 0.34478 1.39223 0.31419
 H18 H 0.31420 1.39208 0.34477
 H19 H 0.31469 1.34533 0.39181
 H20 H 0.34538 1.31423 0.39164
 H21 H 0.39238 1.31475 0.34509
 C22 C 0.36615 0.85162 0.83578
 C23 C 0.36617 0.83620 0.85124
 C24 C 0.35099 0.83629 0.86647
 C25 C 0.33562 0.85181 0.86651
 C26 C 0.33559 0.86694 0.85131
 C27 C 0.35096 0.86687 0.83582
 C28 C 0.37856 0.85504 0.81868
 N29 N 0.37125 0.87198 0.80828
 C30 C 0.35435 0.87929 0.81872
 C31 C 0.31856 0.87943 0.85479
 N32 N 0.30800 0.87235 0.87184
 C33 C 0.31862 0.85535 0.87900
 C34 C 0.35441 0.81923 0.87895
 N35 N 0.37131 0.80876 0.87168
 C36 C 0.37859 0.81910 0.85472
 H37 H 0.39161 0.84553 0.81388
 H38 H 0.34515 0.89269 0.81427
 H39 H 0.31447 0.89266 0.84527
 H40 H 0.31434 0.84565 0.89204
 H41 H 0.34523 0.81483 0.89237
 H42 H 0.39163 0.81426 0.84522
 C43 C 0.86631 1.35163 0.83554
 C44 C 0.86641 1.33619 0.85096
 C45 C 0.85122 1.33613 0.86618
 C46 C 0.83568 1.35148 0.86613
 C47 C 0.83561 1.36665 0.85097
 C48 C 0.85106 1.36672 0.83553
 C49 C 0.87875 1.35514 0.81852
 N50 N 0.87154 1.37211 0.80789
 C51 C 0.85448 1.37919 0.81848
 C52 C 0.81851 1.37904 0.85447
 N53 N 0.80794 1.37184 0.87147
 C54 C 0.81864 1.35487 0.87859
 C55 C 0.85479 1.31908 0.87865
 N56 N 0.87177 1.30876 0.87135
 C57 C 0.87896 1.31918 0.85440
 H58 H 0.89197 1.34561 0.81442
 H59 H 0.84478 1.39225 0.81426
 H60 H 0.81415 1.39207 0.84478
 H61 H 0.81463 1.34535 0.89184
 H62 H 0.84533 1.31426 0.89172
 H63 H 0.89235 1.31477 0.84519
 C64 C 0.86698 0.85184 0.33563
 C65 C 0.86695 0.83636 0.35103
 C66 C 0.85169 0.83630 0.36618
 C67 C 0.83621 0.85170 0.36612
 C68 C 0.83624 0.86691 0.35091
 C69 C 0.85178 0.86698 0.33558
 C70 C 0.87948 0.85533 0.31864
 N71 N 0.87234 0.87233 0.30802
 C72 C 0.85529 0.87945 0.31856
 C73 C 0.81912 0.87934 0.35427
 N74 N 0.80867 0.87206 0.37117
 C75 C 0.81908 0.85514 0.37850
 C76 C 0.85517 0.81921 0.37863
 N77 N 0.87216 0.80886 0.37138
 C78 C 0.87945 0.81931 0.35448
 H79 H 0.89273 0.84581 0.31460
 H80 H 0.84556 0.89247 0.31426
 H81 H 0.81467 0.89273 0.34507
 H82 H 0.81428 0.84564 0.39156
 H83 H 0.84566 0.81439 0.39166
 H84 H 0.89287 0.81489 0.34532
 C85 C 0.63334 0.64805 0.33585
 C86 C 0.63338 0.66346 0.35133
 C87 C 0.64859 0.66337 0.36653
 C88 C 0.66393 0.64783 0.36652
 C89 C 0.66388 0.63269 0.35125
 C90 C 0.64845 0.63283 0.33581
 C91 C 0.62088 0.64468 0.31879
 N92 N 0.62800 0.62769 0.30813
 C93 C 0.64497 0.62045 0.31872
 C94 C 0.68092 0.62016 0.35463
 N95 N 0.69134 0.62732 0.37160
 C96 C 0.68099 0.64426 0.37896
 C97 C 0.64521 0.68043 0.37902
 N98 N 0.62831 0.69092 0.37179
 C99 C 0.62098 0.68058 0.35484
 H100 H 0.60789 0.65446 0.31453
 H101 H 0.65444 0.60718 0.31461
 H102 H 0.68537 0.60681 0.34537
 H103 H 0.68580 0.65371 0.39205
 H104 H 0.65442 0.68482 0.39242
 H105 H 0.60792 0.68543 0.34537
 C106 C 0.63371 0.14859 0.83509
 C107 C 0.63357 0.16397 0.85058
 C108 C 0.64874 0.16397 0.86582
 C109 C 0.66428 0.14863 0.86574
 C110 C 0.66438 0.13352 0.85053
 C111 C 0.64895 0.13350 0.83506
 C112 C 0.62128 0.14512 0.81804
 N113 N 0.62850 0.12817 0.80739
 C114 C 0.64554 0.12106 0.81798
 C115 C 0.68147 0.12110 0.85402
 N116 N 0.69200 0.12824 0.87108
 C117 C 0.68129 0.14519 0.87823
 C118 C 0.64514 0.18095 0.87837
 N119 N 0.62816 0.19130 0.87109
 C120 C 0.62100 0.18095 0.85408
 H121 H 0.60800 0.15459 0.81400
 H122 H 0.65530 0.10806 0.81368
 H123 H 0.68583 0.10810 0.84430
 H124 H 0.68526 0.15465 0.89153
 H125 H 0.65457 0.18571 0.89148
 H126 H 0.60762 0.18540 0.84487
 C127 C 1.13348 0.64794 0.83651
 C128 C 1.13343 0.66338 0.85195
 C129 C 1.14861 0.66333 0.86719
 C130 C 1.16401 0.64785 0.86724
 C131 C 1.16404 0.63267 0.85209
 C132 C 1.14869 0.63272 0.83657
 C133 C 1.12110 0.64450 0.81939
 N134 N 1.12844 0.62756 0.80901
 C135 C 1.14534 0.62028 0.81948
 C136 C 1.18108 0.62021 0.85560
 N137 N 1.19166 0.62738 0.87260
 C138 C 1.18104 0.64440 0.87971
 C139 C 1.14519 0.68043 0.87962
 N140 N 1.12829 0.69088 0.87232
 C141 C 1.12101 0.68049 0.85538
 H142 H 1.10805 0.65400 0.81456
 H143 H 1.15456 0.60688 0.81505
 H144 H 1.18542 0.60720 0.84588
 H145 H 1.18509 0.65392 0.89295
 H146 H 1.15437 0.68487 0.89301
 H147 H 1.10797 0.68531 0.84586
 C148 C 1.13359 0.14847 0.33528
 C149 C 1.13347 0.16387 0.35075
 C150 C 1.14865 0.16389 0.36598
 C151 C 1.16418 0.14853 0.36591
 C152 C 1.16426 0.13340 0.35071
 C153 C 1.14882 0.13337 0.33526
 C154 C 1.12116 0.14501 0.31824
 N155 N 1.12837 0.12806 0.30759
 C156 C 1.14540 0.12094 0.31818
 C157 C 1.18135 0.12099 0.35419
 N158 N 1.19190 0.12813 0.37123
 C159 C 1.18122 0.14510 0.37838
 C160 C 1.14508 0.18090 0.37849
 N161 N 1.12811 0.19126 0.37121
 C162 C 1.12093 0.18088 0.35422
 H163 H 1.10788 0.15450 0.31419
 H164 H 1.15515 0.10793 0.31388
 H165 H 1.18570 0.10798 0.34447
 H166 H 1.18521 0.15457 0.39166
 H167 H 1.15453 0.18568 0.39159
 H168 H 1.10754 0.18532 0.34501
 C169 C 0.63327 1.35150 0.66458
 C170 C 0.63329 1.33606 0.64914
 C171 C 0.64852 1.33606 0.63395
 C172 C 0.66396 1.35150 0.63401
 C173 C 0.66393 1.36669 0.64926
 C174 C 0.64843 1.36668 0.66462
 C175 C 0.62079 1.35492 0.68159
 N176 N 0.62790 1.37193 0.69223
 C177 C 0.64492 1.37912 0.68167
 C178 C 0.68101 1.37917 0.64588
 N179 N 0.69144 1.37195 0.62894
 C180 C 0.68105 1.35501 0.62159
 C181 C 0.64504 1.31900 0.62147
 N182 N 0.62809 1.30860 0.62874
 C183 C 0.62083 1.31899 0.64568
 H184 H 0.60754 1.34540 0.68563
 H185 H 0.65463 1.39214 0.68601
 H186 H 0.68545 1.39255 0.65510
 H187 H 0.68584 1.34556 0.60850
 H188 H 0.65453 1.31424 0.60840
 H189 H 0.60743 1.31452 0.65485
 C190 C 0.63238 0.85252 1.16370
 C191 C 0.63244 0.83701 1.14833
 C192 C 0.64768 0.83697 1.13316
 C193 C 0.66311 0.85242 1.13317
 C194 C 0.66306 0.86765 1.14836
 C195 C 0.64756 0.86768 1.16372
 C196 C 0.61991 0.85600 1.18071
 N197 N 0.62708 0.87299 1.19134
 C198 C 0.64410 0.88013 1.18076
 C199 C 0.68017 0.88008 1.14500
 N200 N 0.69064 0.87278 1.12812
 C201 C 0.68025 0.85585 1.12079
 C202 C 0.64425 0.81984 1.12076
 N203 N 0.62731 0.80944 1.12806
 C204 C 0.62001 0.81990 1.14494
 H205 H 0.60690 0.84625 1.18501
 H206 H 0.65362 0.89337 1.18486
 H207 H 0.68463 0.89346 1.15421
 H208 H 0.68508 0.84633 1.10777
 H209 H 0.65378 0.81502 1.10774
 H210 H 0.60661 0.81544 1.15412
 C211 C 1.13339 1.35174 1.16402
 C212 C 1.13338 1.33634 1.14858
 C213 C 1.14862 1.33635 1.13340
 C214 C 1.16410 1.35176 1.13349
 C215 C 1.16412 1.36689 1.14870
 C216 C 1.14863 1.36693 1.16408
 C217 C 1.12093 1.35513 1.18108
 N218 N 1.12822 1.37203 1.19155
 C219 C 1.14517 1.37934 1.18119
 C220 C 1.18122 1.37930 1.14531
 N221 N 1.19183 1.37219 1.12831
 C222 C 1.18118 1.35523 1.12109
 C223 C 1.14513 1.31928 1.12092
 N224 N 1.12818 1.30888 1.12819
 C225 C 1.12091 1.31928 1.14512
 H226 H 1.10754 1.34591 1.18551
 H227 H 1.15469 1.39238 1.18603
 H228 H 1.18531 1.39254 1.15484
 H229 H 1.18547 1.34554 1.10805
 H230 H 1.15463 1.31449 1.10787
 H231 H 1.10752 1.31481 1.15430
 C232 C 1.13210 0.85301 0.66315
 C233 C 1.13216 0.83744 0.64786
 C234 C 1.14738 0.83735 0.63266
 C235 C 1.16282 0.85280 0.63258
 C236 C 1.16279 0.86811 0.64770
 C237 C 1.14733 0.86821 0.66309
 C238 C 1.11968 0.85651 0.68023
 N239 N 1.12702 0.87347 0.69058
 C240 C 1.14395 0.88071 0.68013
 C241 C 1.17993 0.88049 0.64430
 N242 N 1.19039 0.87310 0.62746
 C243 C 1.17997 0.85615 0.62020
 C244 C 1.14398 0.82015 0.62036
 N245 N 1.12707 0.80975 0.62773
 C246 C 1.11976 0.82029 0.64456
 H247 H 1.10665 0.84700 0.68508
 H248 H 1.15321 0.89407 0.68458
 H249 H 1.18441 0.89389 0.65347
 H250 H 1.18480 0.84656 0.60723
 H251 H 1.15350 0.81527 0.60736
 H252 H 1.10639 0.81585 0.65379
 C253 C 0.36735 0.64769 0.66352
 C254 C 0.36733 0.66310 0.64808
 C255 C 0.35207 0.66310 0.63293
 C256 C 0.33658 0.64769 0.63304
 C257 C 0.33659 0.63255 0.64824
 C258 C 0.35211 0.63250 0.66359
 C259 C 0.37981 0.64432 0.68057
 N260 N 0.37253 0.62743 0.69105
 C261 C 0.35557 0.62010 0.68070
 C262 C 0.31946 0.62016 0.64489
 N263 N 0.30881 0.62730 0.62792
 C264 C 0.31947 0.64425 0.62068
 C265 C 0.35550 0.68020 0.62048
 N266 N 0.37245 0.69061 0.62774
 C267 C 0.37976 0.68019 0.64464
 H268 H 0.39320 0.65354 0.68499
 H269 H 0.34605 0.60708 0.68557
 H270 H 0.31538 0.60693 0.65441
 H271 H 0.31514 0.65397 0.60767
 H272 H 0.34596 0.68500 0.60746
 H273 H 0.39316 0.68466 0.65382
 C274 C 0.36684 0.14797 1.16350
 C275 C 0.36687 0.16342 1.14810
 C276 C 0.35165 0.16347 1.13291
 C277 C 0.33614 0.14807 1.13295
 C278 C 0.33610 0.13290 1.14811
 C279 C 0.35158 0.13280 1.16350
 C280 C 0.37926 0.14455 1.18057
 N281 N 0.37194 0.12765 1.19100
 C282 C 0.35500 0.12036 1.18060
 C283 C 0.31897 0.12052 1.14468
 N284 N 0.30837 0.12771 1.12770
 C285 C 0.31906 0.14467 1.12053
 C286 C 0.35513 0.18059 1.12051
 N287 N 0.37208 0.19096 1.12783
 C288 C 0.37934 0.18049 1.14472
 H289 H 0.39265 0.15376 1.18503
 H290 H 0.34546 0.10733 1.18542
 H291 H 0.31485 0.10728 1.15417
 H292 H 0.31478 0.15442 1.10753
 H293 H 0.34563 0.18543 1.10747
 H294 H 0.39271 0.18493 1.15395
 C295 C 0.86767 0.64736 1.16352
 C296 C 0.86763 0.66291 1.14820
 C297 C 0.85240 0.66299 1.13301
 C298 C 0.83695 0.64755 1.13295
 C299 C 0.83697 0.63226 1.14809
 C300 C 0.85244 0.63217 1.16347
 C301 C 0.88011 0.64385 1.18058
 N302 N 0.87277 0.62690 1.19094
 C303 C 0.85583 0.61967 1.18051
 C304 C 0.81984 0.61987 1.14468
 N305 N 0.80938 0.62724 1.12783
 C306 C 0.81981 0.64418 1.12056
 C307 C 0.85583 0.68016 1.12067
 N308 N 0.87276 0.69055 1.12802
 C309 C 0.88006 0.68003 1.14488
 H310 H 0.89316 0.65335 1.18541
 H311 H 0.84657 0.60632 1.18497
 H312 H 0.81536 0.60647 1.15386
 H313 H 0.81499 0.65375 1.10757
 H314 H 0.84632 0.68502 1.10766
 H315 H 0.89344 0.68446 1.15409
 C316 C 0.86665 0.14826 0.66437
 C317 C 0.86666 0.16374 0.64898
 C318 C 0.85145 0.16378 0.63377
 C319 C 0.83600 0.14835 0.63376
 C320 C 0.83600 0.13313 0.64896
 C321 C 0.85149 0.13309 0.66435
 C322 C 0.87910 0.14478 0.68140
 N323 N 0.87196 0.12775 0.69198
 C324 C 0.85496 0.12060 0.68137
 C325 C 0.81892 0.12068 0.64553
 N326 N 0.80851 0.12795 0.62861
 C327 C 0.81892 0.14489 0.62132
 C328 C 0.85495 0.18088 0.62134
 N329 N 0.87189 0.19126 0.62866
 C330 C 0.87913 0.18082 0.64558
 H331 H 0.89235 0.15429 0.68548
 H332 H 0.84523 0.10758 0.68565
 H333 H 0.81446 0.10728 0.65472
 H334 H 0.81415 0.15439 0.60825
 H335 H 0.84547 0.18568 0.60828
 H336 H 0.89252 0.18526 0.65478
 C337 C 1.35188 0.36661 0.66403
 C338 C 1.33651 0.36673 0.64857
 C339 C 1.33648 0.35155 0.63333
 C340 C 1.35182 0.33600 0.63339
 C341 C 1.36696 0.33589 0.64858
 C342 C 1.36702 0.35132 0.66404
 C343 C 1.35529 0.37900 0.68114
 N344 N 1.37215 0.37163 0.69159
 C345 C 1.37943 0.35468 0.68117
 C346 C 1.37932 0.31876 0.64511
 N347 N 1.37213 0.30821 0.62809
 C348 C 1.35520 0.31893 0.62094
 C349 C 1.31942 0.35511 0.62087
 N350 N 1.30906 0.37206 0.62820
 C351 C 1.31948 0.37926 0.64516
 H352 H 1.34611 0.39241 0.68560
 H353 H 1.39243 0.34511 0.68599
 H354 H 1.39230 0.31437 0.65483
 H355 H 1.34570 0.31494 0.60767
 H356 H 1.31461 0.34564 0.60780
 H357 H 1.31503 0.39262 0.65440
 C358 C 1.35159 0.86666 1.16415
 C359 C 1.33617 0.86675 1.14871
 C360 C 1.33614 0.85156 1.13349
 C361 C 1.35150 0.83603 1.13354
 C362 C 1.36665 0.83598 1.14871
 C363 C 1.36670 0.85143 1.16416
 C364 C 1.35505 0.87908 1.18120
 N365 N 1.37202 0.87188 1.19183
 C366 C 1.37914 0.85486 1.18122
 C367 C 1.37907 0.81889 1.14523
 N368 N 1.37190 0.80831 1.12822
 C369 C 1.35492 0.81898 1.12108
 C370 C 1.31909 0.85511 1.12102
 N371 N 1.30874 0.87208 1.12833
 C372 C 1.31915 0.87928 1.14528
 H373 H 1.34557 0.89235 1.18527
 H374 H 1.39214 0.84510 1.18551
 H375 H 1.39208 0.81455 1.15494
 H376 H 1.34544 0.81496 1.10781
 H377 H 1.31429 0.84565 1.10794
 H378 H 1.31471 0.89266 1.15450
 C379 C 0.85155 0.36630 1.16485
 C380 C 0.83605 0.36637 1.14949
 C381 C 0.83596 0.35117 1.13426
 C382 C 0.85135 0.33566 1.13423
 C383 C 0.86654 0.33560 1.14936
 C384 C 0.86664 0.35105 1.16481
 C385 C 0.85513 0.37876 1.18185
 N386 N 0.87213 0.37153 1.19241
 C387 C 0.87916 0.35447 1.18181
 C388 C 0.87895 0.31852 1.14583
 N389 N 0.87176 0.30796 1.12882
 C390 C 0.85476 0.31863 1.12174
 C391 C 0.81890 0.35474 1.12182
 N392 N 0.80858 0.37173 1.12914
 C393 C 0.81903 0.37892 1.14608
 H394 H 0.84547 0.39183 1.18617
 H395 H 0.89240 0.34493 1.18585
 H396 H 0.89213 0.31433 1.15537
 H397 H 0.84509 0.31450 1.10864
 H398 H 0.81408 0.34530 1.10874
 H399 H 0.81464 0.39233 1.15529
 C400 C 0.85184 0.86747 0.66350
 C401 C 0.83650 0.86759 0.64799
 C402 C 0.83649 0.85242 0.63275
 C403 C 0.85181 0.83686 0.63283
 C404 C 0.86696 0.83674 0.64810
 C405 C 0.86698 0.85217 0.66355
 C406 C 0.85520 0.87984 0.68063
 N407 N 0.87203 0.87246 0.69113
 C408 C 0.87933 0.85552 0.68072
 C409 C 0.87932 0.81957 0.64468
 N410 N 0.87202 0.80922 0.62773
 C411 C 0.85518 0.81975 0.62040
 C412 C 0.81946 0.85596 0.62027
 N413 N 0.80908 0.87291 0.62759
 C414 C 0.81946 0.88011 0.64456
 H415 H 0.84601 0.89325 0.68507
 H416 H 0.89232 0.84594 0.68557
 H417 H 0.89232 0.81469 0.65422
 H418 H 0.84600 0.81535 0.60699
 H419 H 0.81466 0.84649 0.60720
 H420 H 0.81498 0.89346 0.65381
 C421 C 0.64813 0.63261 0.66363
 C422 C 0.66349 0.63248 0.64814
 C423 C 0.66352 0.64765 0.63290
 C424 C 0.64821 0.66322 0.63297
 C425 C 0.63304 0.66335 0.64822
 C426 C 0.63299 0.64792 0.66367
 C427 C 0.64475 0.62023 0.68074
 N428 N 0.62791 0.62762 0.69123
 C429 C 0.62062 0.64456 0.68083
 C430 C 0.62070 0.68053 0.64478
 N431 N 0.62803 0.69087 0.62783
 C432 C 0.64487 0.68032 0.62053
 C433 C 0.68057 0.64410 0.62044
 N434 N 0.69093 0.62715 0.62777
 C435 C 0.68052 0.61996 0.64473
 H436 H 0.65392 0.60682 0.68519
 H437 H 0.60763 0.65414 0.68566
 H438 H 0.60769 0.68542 0.65430
 H439 H 0.65406 0.68471 0.60713
 H440 H 0.68538 0.65358 0.60738
 H441 H 0.68498 0.60660 0.65398
 C442 C 0.64818 1.13346 1.16444
 C443 C 0.66370 1.13346 1.14910
 C444 C 0.66378 1.14869 1.13391
 C445 C 0.64836 1.16417 1.13391
 C446 C 0.63317 1.16417 1.14902
 C447 C 0.63307 1.14869 1.16442
 C448 C 0.64461 1.12097 1.18143
 N449 N 0.62761 1.12816 1.19200
 C450 C 0.62056 1.14523 1.18142
 C451 C 0.62075 1.18126 1.14556
 N452 N 0.62794 1.19188 1.12860
 C453 C 0.64494 1.18125 1.12147
 C454 C 0.68087 1.14519 1.12150
 N455 N 0.69121 1.12820 1.12880
 C456 C 0.68074 1.12095 1.14570
 H457 H 0.65430 1.10792 1.18574
 H458 H 0.60731 1.15476 1.18547
 H459 H 0.60748 1.18534 1.15502
 H460 H 0.65469 1.18554 1.10848
 H461 H 0.68570 1.15468 1.10846
 H462 H 0.68514 1.10753 1.15488
 C463 C 0.14892 0.63394 1.16494
 C464 C 0.16431 0.63383 1.14948
 C465 C 0.16433 0.64902 1.13425
 C466 C 0.14897 0.66455 1.13431
 C467 C 0.13384 0.66462 1.14950
 C468 C 0.13382 0.64917 1.16496
 C469 C 0.14545 0.62150 1.18197
 N470 N 0.12849 0.62869 1.19261
 C471 C 0.12137 0.64573 1.18202
 C472 C 0.12141 0.68170 1.14601
 N473 N 0.12855 0.69225 1.12897
 C474 C 0.14552 0.68158 1.12183
 C475 C 0.18134 0.64544 1.12174
 N476 N 0.19169 0.62846 1.12902
 C477 C 0.18132 0.62128 1.14601
 H478 H 0.15494 0.60822 1.18602
 H479 H 0.10836 0.65547 1.18631
 H480 H 0.10840 0.68604 1.15571
 H481 H 0.15499 0.68557 1.10855
 H482 H 0.18611 0.65489 1.10864
 H483 H 0.18576 0.60789 1.15521
 C484 C 0.14846 1.13354 0.66463
 C485 C 0.16390 1.13345 0.64920
 C486 C 0.16396 1.14865 0.63399
 C487 C 0.14861 1.16419 0.63403
 C488 C 0.13344 1.16425 0.64918
 C489 C 0.13336 1.14878 0.66462
 C490 C 0.14494 1.12109 0.68165
 N491 N 0.12795 1.12830 0.69224
 C492 C 0.12087 1.14534 0.68164
 C493 C 0.12103 1.18134 0.64569
 N494 N 0.12822 1.19192 0.62869
 C495 C 0.14521 1.18125 0.62158
 C496 C 0.18100 1.14508 0.62152
 N497 N 0.19132 1.12809 0.62881
 C498 C 0.18090 1.12089 0.64576
 H499 H 0.15440 1.10780 0.68571
 H500 H 0.10787 1.15510 0.68591
 H501 H 0.10801 1.18568 0.65538
 H502 H 0.15471 1.18526 0.60832
 H503 H 0.18581 1.15454 0.60845
 H504 H 0.18531 1.10749 0.65496
 C505 C 1.35201 0.63298 0.33585
 C506 C 1.33658 0.63291 0.35128
 C507 C 1.33655 0.64811 0.36650
 C508 C 1.35194 0.66362 0.36646
 C509 C 1.36706 0.66368 0.35127
 C510 C 1.36712 0.64820 0.33585
 C511 C 1.35548 0.62055 0.31880
 N512 N 1.37245 0.62776 0.30818
 C513 C 1.37957 0.64478 0.31880
 C514 C 1.37945 0.68079 0.35470
 N515 N 1.37231 0.69138 0.37171
 C516 C 1.35537 0.68069 0.37890
 C517 C 1.31951 0.64458 0.37897
 N518 N 1.30915 0.62761 0.37167
 C519 C 1.31955 0.62039 0.35472
 H520 H 1.34601 0.60727 0.31473
 H521 H 1.39255 0.65457 0.31449
 H522 H 1.39268 0.68492 0.34519
 H523 H 1.34566 0.68495 0.39193
 H524 H 1.31472 0.65406 0.39204
 H525 H 1.31510 0.60700 0.34552
 C526 C 1.35173 1.13352 0.83576
 C527 C 1.33618 1.13349 0.85106
 C528 C 1.33610 1.14867 0.86631
 C529 C 1.35154 1.16413 0.86643
 C530 C 1.36679 1.16418 0.85136
 C531 C 1.36691 1.14878 0.83589
 C532 C 1.35532 1.12110 0.81870
 N533 N 1.37230 1.12845 0.80842
 C534 C 1.37947 1.14540 0.81889
 C535 C 1.37920 1.18124 0.85492
 N536 N 1.37198 1.19181 0.87191
 C537 C 1.35495 1.18115 0.87894
 C538 C 1.31897 1.14515 0.87867
 N539 N 1.30862 1.12821 0.87129
 C540 C 1.31910 1.12101 0.85438
 H541 H 1.34586 1.10802 0.81384
 H542 H 1.39285 1.15465 0.81451
 H543 H 1.39250 1.18535 0.84550
 H544 H 1.34517 1.18540 0.89193
 H545 H 1.31414 1.15459 0.89175
 H546 H 1.31470 1.10763 0.84514
 C547 C 0.85273 0.63207 0.83694
 C548 C 0.83722 0.63189 0.85229
 C549 C 0.83710 0.64699 0.86762
 C550 C 0.85243 0.66254 0.86776
 C551 C 0.86771 0.66272 0.85263
 C552 C 0.86784 0.64740 0.83708
 C553 C 0.85629 0.61978 0.81978
 N554 N 0.87318 0.62728 0.80946
 C555 C 0.88033 0.64419 0.82001
 C556 C 0.88002 0.67989 0.85621
 N557 N 0.87258 0.69016 0.87315
 C558 C 0.85569 0.67959 0.88030
 C559 C 0.81999 0.64338 0.87996
 N560 N 0.80967 0.62646 0.87249
 C561 C 0.82017 0.61935 0.85555
 H562 H 0.84687 0.60669 0.81487
 H563 H 0.89365 0.65353 0.81562
 H564 H 0.89308 0.68483 0.84679
 H565 H 0.84638 0.68395 0.89364
 H566 H 0.81511 0.65278 0.89305
 H567 H 0.81576 0.60603 0.84622
 C568 C 0.85218 1.13276 0.33629
 C569 C 0.83661 1.13280 0.35158
 C570 C 0.83652 1.14801 0.36680
 C571 C 0.85197 1.16346 0.36690
 C572 C 0.86727 1.16344 0.35179
 C573 C 0.86738 1.14798 0.33639
 C574 C 0.85572 1.12034 0.31921
 N575 N 0.87269 1.12768 0.30890
 C576 C 0.87990 1.14461 0.31938
 C577 C 0.87968 1.18054 0.35523
 N578 N 0.87231 1.19100 0.37208
 C579 C 0.85535 1.18059 0.37932
 C580 C 0.81934 1.14457 0.37911
 N581 N 0.80896 1.12764 0.37173
 C582 C 0.81948 1.12037 0.35488
 H583 H 0.84623 1.10729 0.31434
 H584 H 0.89327 1.15386 0.31497
 H585 H 0.89310 1.18501 0.34608
 H586 H 0.84578 1.18541 0.39231
 H587 H 0.81448 1.15406 0.39214
 H588 H 0.81506 1.10699 0.34565
 C589 C 0.64861 0.36680 0.33576
 C590 C 0.66404 0.36685 0.35122
 C591 C 0.66398 0.35168 0.36646
 C592 C 0.64852 0.33628 0.36650
 C593 C 0.63332 0.33627 0.35129
 C594 C 0.63342 0.35164 0.33578
 C595 C 0.64518 0.37921 0.31867
 N596 N 0.62818 0.37203 0.30807
 C597 C 0.62101 0.35506 0.31871
 C598 C 0.62084 0.31920 0.35478
 N599 N 0.62811 0.30882 0.37173
 C600 C 0.64506 0.31923 0.37898
 C601 C 0.68106 0.35509 0.37891
 N602 N 0.69153 0.37198 0.37161
 C603 C 0.68115 0.37928 0.35466
 H604 H 0.65492 0.39222 0.31436
 H605 H 0.60774 0.34557 0.31466
 H606 H 0.60778 0.31439 0.34529
 H607 H 0.65426 0.31478 0.39236
 H608 H 0.68548 0.34590 0.39230
 H609 H 0.68599 0.39231 0.34515
 C610 C 0.64762 0.86774 0.83640
 C611 C 0.66303 0.86767 0.85184
 C612 C 0.66300 0.85241 0.86700
 C613 C 0.64756 0.83696 0.86691
 C614 C 0.63238 0.83701 0.85166
 C615 C 0.63238 0.85254 0.83632
 C616 C 0.64428 0.88022 0.81934
 N617 N 0.62737 0.87298 0.80886
 C618 C 0.62000 0.85604 0.81921
 C619 C 0.61995 0.81989 0.85498
 N620 N 0.62719 0.80941 0.87188
 C621 C 0.64409 0.81982 0.87926
 C622 C 0.68009 0.85580 0.87945
 N623 N 0.69054 0.87273 0.87219
 C624 C 0.68014 0.88007 0.85529
 H625 H 0.65355 0.89358 0.81491
 H626 H 0.60696 0.84654 0.81435
 H627 H 0.60659 0.81543 0.84573
 H628 H 0.65356 0.81499 0.89232
 H629 H 0.68487 0.84624 0.89247
 H630 H 0.68466 0.89345 0.84611
 C631 C 0.14824 0.36705 0.83610
 C632 C 0.16362 0.36711 0.85161
 C633 C 0.16353 0.35193 0.86684
 C634 C 0.14808 0.33652 0.86683
 C635 C 0.13292 0.33651 0.85158
 C636 C 0.13303 0.35191 0.83610
 C637 C 0.14488 0.37943 0.81899
 N638 N 0.12789 0.37229 0.80836
 C639 C 0.12065 0.35534 0.81901
 C640 C 0.12045 0.31942 0.85503
 N641 N 0.12772 0.30902 0.87197
 C642 C 0.14463 0.31946 0.87927
 C643 C 0.18059 0.35532 0.87931
 N644 N 0.19109 0.37221 0.87203
 C645 C 0.18074 0.37952 0.85508
 H646 H 0.15442 0.39267 0.81490
 H647 H 0.10763 0.34562 0.81470
 H648 H 0.10742 0.31460 0.84550
 H649 H 0.15382 0.31500 0.89266
 H650 H 0.18500 0.34611 0.89269
 H651 H 0.18561 0.39255 0.84556
 C652 C 0.14743 0.86761 0.33606
 C653 C 0.16291 0.86762 0.35144
 C654 C 0.16294 0.85243 0.36667
 C655 C 0.14750 0.83698 0.36670
 C656 C 0.13230 0.83696 0.35148
 C657 C 0.13229 0.85241 0.33606
 C658 C 0.14398 0.88003 0.31900
 N659 N 0.12701 0.87283 0.30837
 C660 C 0.11987 0.85582 0.31899
 C661 C 0.11988 0.81984 0.35491
 N662 N 0.12716 0.80945 0.37185
 C663 C 0.14407 0.81989 0.37915
 C664 C 0.18003 0.85590 0.37909
 N665 N 0.19043 0.87283 0.37175
 C666 C 0.18000 0.88007 0.35482
 H667 H 0.15372 0.89304 0.31468
 H668 H 0.10664 0.84629 0.31490
 H669 H 0.10652 0.81533 0.34570
 H670 H 0.15357 0.81513 0.39220
 H671 H 0.18483 0.84642 0.39215
 H672 H 0.18447 0.89344 0.34560
 O673 O 0.97945 0.92466 0.89656
 O674 O 0.97941 0.90046 0.87222
 C675 C 0.97233 0.91739 0.87962
 C676 C 0.95535 0.92854 0.86871
 C677 C 0.94843 0.92184 0.84909
 H678 H 0.95588 0.90875 0.84147
 O679 O 1.01995 1.07515 0.89629
 O680 O 1.01993 1.09936 0.87196
 C681 C 1.02704 1.08243 0.87934
 C682 C 1.04403 1.07131 0.86842
 C683 C 1.05099 1.07806 0.84884
 H684 H 1.04356 1.09117 0.84124
 O685 O 0.89601 0.97961 0.92506
 O686 O 0.87163 0.97952 0.90091
 C687 C 0.87905 0.97247 0.91783
 C688 C 0.86815 0.95549 0.92900
 C689 C 0.84850 0.94855 0.92236
 H690 H 0.84084 0.95598 0.90930
 O691 O 1.10355 1.02037 0.92472
 O692 O 1.12785 1.02035 0.90049
 C693 C 1.12050 1.02746 0.91741
 C694 C 1.13145 1.04446 0.92850
 C695 C 1.15104 1.05144 0.92173
 H696 H 1.15863 1.04402 0.90862
 O697 O 0.92468 0.89613 0.97988
 O698 O 0.90051 0.87174 0.97990
 C699 C 0.91743 0.87915 0.97281
 C700 C 0.92859 0.86820 0.95588
 C701 C 0.92195 0.84852 0.94901
 H702 H 0.90888 0.84087 0.95646
 O703 O 1.07504 1.10374 0.97950
 O704 O 1.09920 1.12815 0.97941
 C705 C 1.08226 1.12072 0.97238
 C706 C 1.07104 1.13163 0.95545
 C707 C 1.07769 1.15127 0.94849
 H708 H 1.09080 1.15892 0.95586
 O709 O 0.92445 1.02019 0.89648
 O710 O 0.90023 1.02015 0.87216
 C711 C 0.91717 1.02726 0.87952
 C712 C 0.92831 1.04421 0.86856
 C713 C 0.92159 1.05112 0.84894
 H714 H 0.90849 1.04368 0.84135
 O715 O 1.07493 0.97974 0.89637
 O716 O 1.09907 0.97968 0.87198
 C717 C 1.08214 0.97262 0.87941
 C718 C 1.07094 0.95567 0.86851
 C719 C 1.07751 0.94881 0.84883
 H720 H 1.09055 0.95629 0.84115
 O721 O 1.02013 0.89616 0.92494
 O722 O 1.02014 0.87181 0.90074
 C723 C 1.02724 0.87920 0.91765
 C724 C 1.04423 0.86826 0.92876
 C725 C 1.05118 0.84864 0.92203
 H726 H 1.04375 0.84103 0.90893
 O727 O 0.97935 1.10365 0.92480
 O728 O 0.97928 1.12800 0.90061
 C729 C 0.97223 1.12061 0.91754
 C730 C 0.95528 1.13156 0.92870
 C731 C 0.94832 1.15118 0.92198
 H732 H 0.95572 1.15878 0.90887
 O733 O 0.89597 1.07523 0.97974
 O734 O 0.87162 1.09945 0.97972
 C735 C 0.87901 1.08251 0.97264
 C736 C 0.86808 1.07136 0.95567
 C737 C 0.84851 1.07813 0.94864
 H738 H 0.84092 1.09129 0.95598
 O739 O 1.10355 0.92472 0.97962
 O740 O 1.12793 0.90054 0.97956
 C741 C 1.12051 0.91747 0.97250
 C742 C 1.13140 0.92865 0.95554
 C743 C 1.15104 0.92197 0.94858
 H744 H 1.15868 0.90887 0.95599
 O745 O 0.97934 1.07510 0.89634
 O746 O 0.97927 1.09930 0.87200
 C747 C 0.97222 1.08235 0.87940
 C748 C 0.95525 1.07118 0.86850
 C749 C 0.94830 1.07784 0.84889
 H750 H 0.95571 1.09094 0.84125
 O751 O 1.02005 0.92472 0.89651
 O752 O 1.02005 0.90053 0.87216
 C753 C 1.02712 0.91748 0.87954
 C754 C 1.04402 0.92869 0.86857
 C755 C 1.05084 0.92207 0.84889
 H756 H 1.04337 0.90900 0.84126
 O757 O 1.10348 0.97974 0.92479
 O758 O 1.12779 0.97967 0.90057
 C759 C 1.12042 0.97261 0.91750
 C760 C 1.13136 0.95563 0.92863
 C761 C 1.15099 0.94870 0.92193
 H762 H 1.15860 0.95614 0.90884
 O763 O 0.89597 1.02024 0.92498
 O764 O 0.87161 1.02020 0.90081
 C765 C 0.87901 1.02733 0.91771
 C766 C 0.86809 1.04435 0.92880
 C767 C 0.84852 1.05136 0.92201
 H768 H 0.84093 1.04395 0.90890
 O769 O 0.92451 1.10372 0.97973
 O770 O 0.90032 1.12809 0.97971
 C771 C 0.91724 1.12069 0.97263
 C772 C 0.92838 1.13160 0.95566
 C773 C 0.92166 1.15123 0.94870
 H774 H 0.90857 1.15886 0.95611
 O775 O 1.07509 0.89615 0.97970
 O776 O 1.09932 0.87181 0.97963
 C777 C 1.08237 0.87919 0.97259
 C778 C 1.07120 0.86825 0.95565
 C779 C 1.07791 0.84863 0.94868
 H780 H 1.09104 0.84101 0.95606
 O781 O 1.07497 1.02036 0.89631
 O782 O 1.09912 1.02035 0.87194
 C783 C 1.08221 1.02744 0.87934
 C784 C 1.07104 1.04441 0.86843
 C785 C 1.07776 1.05141 0.84884
 H786 H 1.09089 1.04403 0.84124
 O787 O 0.92448 0.97958 0.89655
 O788 O 0.90026 0.97948 0.87224
 C789 C 0.91721 0.97244 0.87962
 C790 C 0.92838 0.95547 0.86871
 C791 C 0.92170 0.94852 0.84909
 H792 H 0.90860 0.95594 0.84147
 O793 O 1.01995 1.10365 0.92478
 O794 O 1.01993 1.12800 0.90060
 C795 C 1.02703 1.12062 0.91751
 C796 C 1.04401 1.13158 0.92862
 C797 C 1.05090 1.15122 0.92190
 H798 H 1.04343 1.15883 0.90883
 O799 O 0.97954 0.89614 0.92502
 O800 O 0.97950 0.87178 0.90084
 C801 C 0.97244 0.87916 0.91777
 C802 C 0.95551 0.86820 0.92894
 C803 C 0.94863 0.84852 0.92231
 H804 H 0.95607 0.84088 0.90924
 O805 O 1.10363 1.07531 0.97948
 O806 O 1.12794 1.09956 0.97939
 C807 C 1.12057 1.08260 0.97235
 C808 C 1.13148 1.07145 0.95539
 C809 C 1.15107 1.07819 0.94838
 H810 H 1.15868 1.09133 0.95574
 O811 O 0.89618 0.92464 0.97989
 O812 O 0.87184 0.90041 0.97990
 C813 C 0.87921 0.91736 0.97282
 C814 C 0.86823 0.92852 0.95590
 C815 C 0.84858 0.92182 0.94902
 H816 H 0.84098 0.90871 0.95645
 Cu817 Cu 0.99980 0.91285 0.91318
 Cu818 Cu 0.99978 0.88370 0.88405
 Cu819 Cu 0.99965 1.08696 0.91298
 Cu820 Cu 0.99960 1.11610 0.88385
 Cu821 Cu 0.91265 0.99991 0.91319
 Cu822 Cu 0.88349 0.99983 0.88410
 Cu823 Cu 1.08682 1.00006 0.91298
 Cu824 Cu 1.11590 1.00000 0.88380
 C825 C 0.94535 0.94549 0.87830
 H826 H 0.95042 0.95057 0.89354
 C827 C 0.93173 0.93183 0.83931
 C828 C 1.05403 1.05434 0.87799
 H829 H 1.04894 1.04922 0.89321
 C830 C 1.06774 1.06812 0.83907
 C831 C 0.87779 0.94550 0.94591
 H832 H 0.89306 0.95058 0.95095
 C833 C 0.83875 0.93183 0.93237
 C834 C 1.12190 1.05444 0.94547
 H835 H 1.10668 1.04932 0.95061
 C836 C 1.16083 1.06820 0.93166
 C837 C 0.94552 0.87782 0.94587
 H838 H 0.95056 0.89311 0.95090
 C839 C 0.93196 0.83871 0.93234
 C840 C 1.05406 1.12200 0.94554
 H841 H 1.04901 1.10674 0.95063
 C842 C 1.06762 1.16104 0.93183
 C843 C 0.94528 1.05422 0.87812
 H844 H 0.95037 1.04916 0.89336
 C845 C 0.93158 1.06782 0.83913
 C846 C 1.05405 0.94563 0.87816
 H847 H 1.04906 0.95065 0.89345
 C848 C 1.06746 0.93214 0.83904
 C849 C 1.05421 0.87784 0.94571
 H850 H 1.04912 0.89309 0.95082
 C851 C 1.06791 0.83885 0.93198
 C852 C 0.94533 1.12199 0.94568
 H853 H 0.95043 1.10674 0.95077
 C854 C 0.93163 1.16099 0.93198
 C855 C 0.87764 1.05432 0.94577
 H856 H 0.89285 1.04918 0.95092
 C857 C 0.83875 1.06814 0.93192
 C858 C 1.12179 0.94562 0.94558
 H859 H 1.10654 0.95069 0.95067
 C860 C 1.16080 0.93199 0.93190
 O861 O 1.02035 0.92486 1.10351
 O862 O 1.02041 0.90072 1.12790
 C863 C 1.02747 0.91765 1.12047
 C864 C 1.04442 0.92885 1.13136
 C865 C 1.05132 0.92224 1.15102
 H866 H 1.04387 0.90917 1.15868
 O867 O 0.97972 1.07528 1.10344
 O868 O 0.97971 1.09948 1.12778
 C869 C 0.97264 1.08253 1.12040
 C870 C 0.95571 1.07134 1.13135
 C871 C 0.94884 1.07799 1.15100
 H872 H 0.95629 1.09107 1.15863
 O873 O 0.89615 1.02033 1.07513
 O874 O 0.87186 1.02036 1.09937
 C875 C 0.87920 1.02743 1.08243
 C876 C 0.86824 1.04441 1.07132
 C877 C 0.84865 1.05140 1.07810
 H878 H 0.84108 1.04400 1.09123
 O879 O 1.10375 0.97980 1.07489
 O880 O 1.12812 0.97979 1.09906
 C881 C 1.12071 0.97269 1.08215
 C882 C 1.13162 0.95569 1.07103
 C883 C 1.15124 0.94873 1.07773
 H884 H 1.15887 0.95616 1.09081
 O885 O 1.07519 0.89617 1.02026
 O886 O 1.09941 0.87183 1.02026
 C887 C 1.08249 0.87922 1.02737
 C888 C 1.07140 0.86831 1.04438
 C889 C 1.07820 0.84875 1.05144
 H890 H 1.09133 0.84114 1.04406
 O891 O 0.92452 1.10375 1.02029
 O892 O 0.90033 1.12812 1.02033
 C893 C 0.91727 1.12072 1.02739
 C894 C 0.92843 1.13165 1.04435
 C895 C 0.92167 1.15124 1.05137
 H896 H 0.90851 1.15883 1.04403
 O897 O 0.92476 0.97972 1.10353
 O898 O 0.90062 0.97970 1.12792
 C899 C 0.91754 0.97263 1.12050
 C900 C 0.92873 0.95568 1.13142
 C901 C 0.92207 0.94876 1.15106
 H902 H 0.90897 0.95619 1.15868
 O903 O 1.07527 1.02046 1.10334
 O904 O 1.09949 1.02050 1.12766
 C905 C 1.08255 1.02758 1.12028
 C906 C 1.07141 1.04456 1.13120
 C907 C 1.07816 1.05153 1.15078
 H908 H 1.09129 1.04412 1.15837
 O909 O 0.97975 0.89623 1.07514
 O910 O 0.97976 0.87192 1.09937
 C911 C 0.97267 0.87927 1.08244
 C912 C 0.95569 0.86831 1.07134
 C913 C 0.94877 0.84867 1.07806
 H914 H 0.95623 0.84105 1.09113
 O915 O 1.02023 1.10386 1.07491
 O916 O 1.02027 1.12822 1.09908
 C917 C 1.02733 1.12083 1.08215
 C918 C 1.04429 1.13176 1.07100
 C919 C 1.05128 1.15139 1.07770
 H920 H 1.04388 1.15901 1.09080
 O921 O 0.89620 0.92466 1.02044
 O922 O 0.87186 0.90043 1.02051
 C923 C 0.87924 0.91739 1.02755
 C924 C 0.86831 0.92857 1.04447
 C925 C 0.84868 0.92189 1.05142
 H926 H 0.84105 0.90877 1.04403
 O927 O 1.10368 1.07533 1.02004
 O928 O 1.12799 1.09958 1.02001
 C929 C 1.12064 1.08263 1.02711
 C930 C 1.13160 1.07150 1.04406
 C931 C 1.15122 1.07824 1.05100
 H932 H 1.15882 1.09136 1.04359
 O933 O 1.02032 1.07537 1.10341
 O934 O 1.02037 1.09958 1.12774
 C935 C 1.02745 1.08265 1.12035
 C936 C 1.04446 1.07151 1.13124
 C937 C 1.05146 1.07824 1.15082
 H938 H 1.04405 1.09136 1.15844
 O939 O 0.97975 0.92481 1.10355
 O940 O 0.97976 0.90066 1.12794
 C941 C 0.97266 0.91758 1.12052
 C942 C 0.95570 0.92874 1.13143
 C943 C 0.94879 0.92208 1.15107
 H944 H 0.95624 0.90899 1.15870
 O945 O 1.10377 1.02043 1.07487
 O946 O 1.12815 1.02047 1.09903
 C947 C 1.12074 1.02754 1.08212
 C948 C 1.13165 1.04453 1.07097
 C949 C 1.15127 1.05151 1.07767
 H950 H 1.15890 1.04410 1.09076
 O951 O 0.89619 0.97970 1.07512
 O952 O 0.87189 0.97968 1.09936
 C953 C 0.87925 0.97259 1.08243
 C954 C 0.86831 0.95559 1.07133
 C955 C 0.84867 0.94867 1.07803
 H956 H 0.84105 0.95613 1.09109
 O957 O 1.07513 1.10380 1.02006
 O958 O 1.09929 1.12820 1.02002
 C959 C 1.08238 1.12079 1.02712
 C960 C 1.07123 1.13173 1.04407
 C961 C 1.07797 1.15136 1.05101
 H962 H 1.09108 1.15896 1.04361
 O963 O 0.92473 0.89617 1.02044
 O964 O 0.90055 0.87179 1.02051
 C965 C 0.91749 0.87920 1.02755
 C966 C 0.92868 0.86828 1.04448
 C967 C 0.92201 0.84863 1.05143
 H968 H 0.90890 0.84100 1.04405
 O969 O 1.07527 0.97984 1.10339
 O970 O 1.09948 0.97983 1.12771
 C971 C 1.08254 0.97275 1.12035
 C972 C 1.07137 0.95581 1.13131
 C973 C 1.07803 0.94895 1.15096
 H974 H 1.09111 0.95641 1.15858
 O975 O 0.92477 1.02034 1.10349
 O976 O 0.90064 1.02036 1.12788
 C977 C 0.91756 1.02744 1.12046
 C978 C 0.92875 1.04439 1.13137
 C979 C 0.92213 1.05128 1.15102
 H980 H 0.90906 1.04383 1.15866
 O981 O 0.97961 1.10382 1.07500
 O982 O 0.97960 1.12818 1.09918
 C983 C 0.97249 1.12077 1.08228
 C984 C 0.95546 1.13168 1.07120
 C985 C 0.94845 1.15127 1.07797
 H986 H 0.95587 1.15887 1.09107
 O987 O 1.02036 0.89624 1.07513
 O988 O 1.02042 0.87194 1.09937
 C989 C 1.02749 0.87930 1.08244
 C990 C 1.04448 0.86836 1.07133
 C991 C 1.05152 0.84879 1.07814
 H992 H 1.04415 0.84122 1.09128
 O993 O 1.10364 0.92473 1.02018
 O994 O 1.12802 0.90055 1.02017
 C995 C 1.12063 0.91749 1.02724
 C996 C 1.13158 0.92868 1.04416
 C997 C 1.15120 0.92196 1.05111
 H998 H 1.15880 0.90882 1.04372
 O999 O 0.89602 1.07523 1.02030
 O1000 O 0.87167 1.09944 1.02035
 C1001 C 0.87907 1.08250 1.02741
 C1002 C 0.86817 1.07136 1.04439
 C1003 C 0.84858 1.07810 1.05141
 H1004 H 0.84096 1.09122 1.04403
 Cu1005 Cu 1.00005 0.91295 1.08690
 Cu1006 Cu 1.00009 0.88387 1.11609
 Cu1007 Cu 0.99997 1.08716 1.08677
 Cu1008 Cu 0.99999 1.11631 1.11588
 Cu1009 Cu 0.91287 0.91283 1.00016
 Cu1010 Cu 0.88375 0.88365 1.00021
 Cu1011 Cu 1.08694 0.91286 0.99995
 Cu1012 Cu 1.11611 0.88374 0.99990
 Cu1013 Cu 0.91268 1.08706 1.00001
 Cu1014 Cu 0.88355 1.11622 1.00003
 Cu1015 Cu 1.08695 1.08711 0.99978
 Cu1016 Cu 1.11604 1.11632 0.99970
 Cu1017 Cu 0.91288 1.00002 1.08689
 Cu1018 Cu 0.88382 1.00003 1.11608
 Cu1019 Cu 1.08709 1.00013 1.08670
 Cu1020 Cu 1.11625 1.00015 1.11580
 C1021 C 1.05443 0.94578 1.12173
 H1022 H 1.04937 0.95080 1.10646
 C1023 C 1.06800 0.93228 1.16079
 C1024 C 0.94569 1.05440 1.12175
 H1025 H 0.95071 1.04935 1.10648
 C1026 C 0.93216 1.06796 1.16081
 C1027 C 0.87777 1.05437 1.05433
 H1028 H 0.89299 1.04926 1.04919
 C1029 C 0.83885 1.06813 1.06815
 C1030 C 1.12202 0.94568 1.05410
 H1031 H 1.10677 0.95078 1.04901
 C1032 C 1.16100 0.93198 1.06778
 C1033 C 1.05440 0.87789 1.05431
 H1034 H 1.04924 0.89309 1.04915
 C1035 C 1.06826 0.83901 1.06820
 C1036 C 0.94547 1.12210 1.05424
 H1037 H 0.95060 1.10687 1.04910
 C1038 C 0.93167 1.16102 1.06807
 C1039 C 0.94568 0.94569 1.12183
 H1040 H 0.95074 0.95075 1.10658
 C1041 C 0.93209 0.93208 1.16085
 C1042 C 1.05442 1.05453 1.12165
 H1043 H 1.04930 1.04942 1.10643
 C1044 C 1.06819 1.06825 1.16057
 C1045 C 0.94566 0.87789 1.05441
 H1046 H 0.95072 0.89315 1.04932
 C1047 C 0.93206 0.83886 1.06810
 C1048 C 1.05425 1.12216 1.05404
 H1049 H 1.04915 1.10691 1.04895
 C1050 C 1.06800 1.16116 1.06771
 C1051 C 0.87790 0.94556 1.05441
 H1052 H 0.89316 0.95064 1.04932
 C1053 C 0.83889 0.93193 1.06808
 C1054 C 1.12205 1.05450 1.05403
 H1055 H 1.10680 1.04939 1.04895
 C1056 C 1.16103 1.06825 1.06769
 O1057 O 0.97995 0.42476 0.39649
 O1058 O 0.97993 0.40054 0.37217
 C1059 C 0.97286 0.41749 0.37954
 C1060 C 0.95591 0.42865 0.36860
 C1061 C 0.94893 0.42190 0.34901
 H1062 H 0.95632 0.40875 0.34143
 O1063 O 1.02073 0.57542 0.39667
 O1064 O 1.02079 0.59964 0.37236
 C1065 C 1.02786 0.58270 0.37974
 C1066 C 1.04483 0.57155 0.36883
 C1067 C 1.05183 0.57831 0.34926
 H1068 H 1.04444 0.59145 0.34167
 O1069 O 0.89668 0.47979 0.42490
 O1070 O 0.87235 0.47982 0.40070
 C1071 C 0.87971 0.47272 0.41762
 C1072 C 0.86872 0.45577 0.42874
 C1073 C 0.84912 0.44883 0.42198
 H1074 H 0.84156 0.45625 0.40885
 O1075 O 1.10399 0.52032 0.42516
 O1076 O 1.12836 0.52033 0.40101
 C1077 C 1.12097 0.52740 0.41792
 C1078 C 1.13192 0.54436 0.42908
 C1079 C 1.15155 0.55131 0.42237
 H1080 H 1.15915 0.54389 0.40927
 O1081 O 0.92491 0.39639 0.47984
 O1082 O 0.90070 0.37204 0.47977
 C1083 C 0.91765 0.37942 0.47273
 C1084 C 0.92882 0.36848 0.45580
 C1085 C 0.92210 0.34884 0.44887
 H1086 H 0.90898 0.34124 0.45627
 O1087 O 1.07560 0.60379 0.48002
 O1088 O 1.09982 0.62814 0.48004
 C1089 C 1.08288 0.62077 0.47295
 C1090 C 1.07174 0.63173 0.45601
 C1091 C 1.07844 0.65138 0.44910
 H1092 H 1.09155 0.65899 0.45652
 O1093 O 0.92529 0.52037 0.39649
 O1094 O 0.90112 0.52045 0.37213
 C1095 C 0.91805 0.52750 0.37954
 C1096 C 0.92924 0.54446 0.36864
 C1097 C 0.92263 0.55135 0.34899
 H1098 H 0.90958 0.54389 0.34132
 O1099 O 1.07543 0.47977 0.39664
 O1100 O 1.09964 0.47973 0.37232
 C1101 C 1.08269 0.47267 0.37969
 C1102 C 1.07154 0.45570 0.36876
 C1103 C 1.07826 0.44876 0.34916
 H1104 H 1.09136 0.45620 0.34155
 O1105 O 1.02050 0.39622 0.42502
 O1106 O 1.02053 0.37186 0.40085
 C1107 C 1.02759 0.37924 0.41777
 C1108 C 1.04454 0.36829 0.42892
 C1109 C 1.05151 0.34868 0.42220
 H1110 H 1.04412 0.34108 0.40907
 O1111 O 0.98009 0.60394 0.42509
 O1112 O 0.98009 0.62830 0.40091
 C1113 C 0.97299 0.62091 0.41782
 C1114 C 0.95599 0.63183 0.42893
 C1115 C 0.94899 0.65143 0.42218
 H1116 H 0.95640 0.65904 0.40907
 O1117 O 0.89667 0.57535 0.47978
 O1118 O 0.87230 0.59955 0.47975
 C1119 C 0.87971 0.58262 0.47267
 C1120 C 0.86881 0.57147 0.45570
 C1121 C 0.84917 0.57816 0.44875
 H1122 H 0.84154 0.59125 0.45616
 O1123 O 1.10385 0.42467 0.47990
 O1124 O 1.12819 0.40045 0.47989
 C1125 C 1.12081 0.41739 0.47281
 C1126 C 1.13174 0.42853 0.45584
 C1127 C 1.15132 0.42175 0.44883
 H1128 H 1.15891 0.40860 0.45619
 O1129 O 0.98014 0.57538 0.39665
 O1130 O 0.98015 0.59959 0.37232
 C1131 C 0.97307 0.58264 0.37968
 C1132 C 0.95616 0.57145 0.36872
 C1133 C 0.94931 0.57810 0.34906
 H1134 H 0.95675 0.59120 0.34145
 O1135 O 1.02054 0.42479 0.39659
 O1136 O 1.02058 0.40058 0.37226
 C1137 C 1.02766 0.41753 0.37965
 C1138 C 1.04463 0.42870 0.36875
 C1139 C 1.05159 0.42201 0.34914
 H1140 H 1.04419 0.40889 0.34152
 O1141 O 1.10393 0.47969 0.42511
 O1142 O 1.12830 0.47965 0.40094
 C1143 C 1.12088 0.47256 0.41785
 C1144 C 1.13177 0.45553 0.42895
 C1145 C 1.15135 0.44851 0.42219
 H1146 H 1.15896 0.45592 0.40909
 O1147 O 0.89672 0.52041 0.42490
 O1148 O 0.87240 0.52049 0.40070
 C1149 C 0.87978 0.52754 0.41763
 C1150 C 0.86885 0.54451 0.42877
 C1151 C 0.84922 0.55145 0.42207
 H1152 H 0.84161 0.54402 0.40897
 O1153 O 0.92514 0.60390 0.47985
 O1154 O 0.90093 0.62825 0.47982
 C1155 C 0.91787 0.62087 0.47276
 C1156 C 0.92902 0.63182 0.45582
 C1157 C 0.92227 0.65142 0.44883
 H1158 H 0.90913 0.65902 0.45620
 O1159 O 1.07533 0.39616 0.47992
 O1160 O 1.09952 0.37179 0.47992
 C1161 C 1.08259 0.37919 0.47284
 C1162 C 1.07145 0.36826 0.45587
 C1163 C 1.07818 0.34864 0.44890
 H1164 H 1.09129 0.34102 0.45631
 O1165 O 1.07554 0.52041 0.39663
 O1166 O 1.09976 0.52041 0.37232
 C1167 C 1.08284 0.52752 0.37970
 C1168 C 1.07174 0.54455 0.36880
 C1169 C 1.07849 0.55156 0.34922
 H1170 H 1.09160 0.54414 0.34162
 O1171 O 0.92516 0.47975 0.39641
 O1172 O 0.90098 0.47978 0.37205
 C1173 C 0.91789 0.47266 0.37945
 C1174 C 0.92901 0.45565 0.36855
 C1175 C 0.92227 0.44865 0.34896
 H1176 H 0.90917 0.45607 0.34135
 O1177 O 1.02069 0.60389 0.42519
 O1178 O 1.02075 0.62827 0.40103
 C1179 C 1.02781 0.62086 0.41795
 C1180 C 1.04478 0.63178 0.42911
 C1181 C 1.05172 0.65142 0.42244
 H1182 H 1.04429 0.65907 0.40937
 O1183 O 0.97989 0.39631 0.42503
 O1184 O 0.97987 0.37193 0.40086
 C1185 C 0.97278 0.37934 0.41777
 C1186 C 0.95579 0.36843 0.42890
 C1187 C 0.94882 0.34880 0.42221
 H1188 H 0.95624 0.34116 0.40913
 O1189 O 1.10405 0.57522 0.48004
 O1190 O 1.12843 0.59941 0.48004
 C1191 C 1.12102 0.58248 0.47296
 C1192 C 1.13195 0.57132 0.45601
 C1193 C 1.15157 0.57802 0.44906
 H1194 H 1.15920 0.59113 0.45646
 O1195 O 0.89642 0.42492 0.47981
 O1196 O 0.87205 0.40072 0.47972
 C1197 C 0.87947 0.41766 0.47267
 C1198 C 0.86860 0.42882 0.45568
 C1199 C 0.84899 0.42213 0.44866
 H1200 H 0.84134 0.40902 0.45605
 Cu1201 Cu 1.00022 0.41295 0.41321
 Cu1202 Cu 1.00023 0.38378 0.38410
 Cu1203 Cu 1.00041 0.58723 0.41332
 Cu1204 Cu 1.00045 0.61640 0.38422
 Cu1205 Cu 0.91339 0.50007 0.41310
 Cu1206 Cu 0.88427 0.50014 0.38395
 Cu1207 Cu 1.08730 0.50005 0.41330
 Cu1208 Cu 1.11646 0.50003 0.38421
 C1209 C 0.94597 0.44566 0.37813
 H1210 H 0.95108 0.45078 0.39335
 C1211 C 0.93223 0.43189 0.33922
 C1212 C 1.05476 0.55453 0.37837
 H1213 H 1.04964 0.54940 0.39358
 C1214 C 1.06854 0.56832 0.33948
 C1215 C 0.87824 0.44579 0.44574
 H1216 H 0.89347 0.45087 0.45087
 C1217 C 0.83928 0.43213 0.43193
 C1218 C 1.12235 0.55434 0.44604
 H1219 H 1.10710 0.54926 0.45112
 C1220 C 1.16134 0.56802 0.43236
 C1221 C 0.94580 0.37805 0.44584
 H1222 H 0.95090 0.39330 0.45092
 C1223 C 0.93209 0.33903 0.43219
 C1224 C 1.05476 0.62216 0.44604
 H1225 H 1.04968 0.60689 0.45109
 C1226 C 1.06843 0.66120 0.43243
 C1227 C 0.94615 0.55449 0.37828
 H1228 H 0.95116 0.54944 0.39356
 C1229 C 0.93266 0.56805 0.33922
 C1230 C 1.05458 0.44569 0.37833
 H1231 H 1.04949 0.45077 0.39357
 C1232 C 1.06829 0.43203 0.33937
 C1233 C 1.05449 0.37786 0.44591
 H1234 H 1.04939 0.39310 0.45101
 C1235 C 1.06822 0.33888 0.43218
 C1236 C 0.94602 0.62225 0.44589
 H1237 H 0.95115 0.60702 0.45101
 C1238 C 0.93224 0.66120 0.43212
 C1239 C 0.87842 0.55450 0.44573
 H1240 H 0.89367 0.54942 0.45081
 C1241 C 0.83941 0.56815 0.43205
 C1242 C 1.12219 0.44556 0.44592
 H1243 H 1.10697 0.45070 0.45104
 C1244 C 1.16110 0.43174 0.43212
 O1245 O 1.02037 0.42472 0.60382
 O1246 O 1.02036 0.40050 0.62814
 C1247 C 1.02746 0.41744 0.62077
 C1248 C 1.04444 0.42858 0.63169
 C1249 C 1.05139 0.42185 0.65130
 H1250 H 1.04396 0.40874 0.65890
 O1251 O 0.97992 0.57522 0.60375
 O1252 O 0.97989 0.59941 0.62810
 C1253 C 0.97281 0.58247 0.62070
 C1254 C 0.95585 0.57130 0.63161
 C1255 C 0.94896 0.57795 0.65125
 H1256 H 0.95642 0.59102 0.65890
 O1257 O 0.89651 0.52032 0.57517
 O1258 O 0.87213 0.52040 0.59933
 C1259 C 0.87954 0.52745 0.58241
 C1260 C 0.86863 0.54441 0.57123
 C1261 C 0.84896 0.55131 0.57784
 H1262 H 0.84130 0.54386 0.59089
 O1263 O 1.10382 0.47963 0.57537
 O1264 O 1.12817 0.47956 0.59955
 C1265 C 1.12078 0.47251 0.58262
 C1266 C 1.13171 0.45555 0.57145
 C1267 C 1.15135 0.44861 0.57813
 H1268 H 1.15898 0.45602 0.59122
 O1269 O 1.07532 0.39619 0.52049
 O1270 O 1.09952 0.37182 0.52054
 C1271 C 1.08259 0.37922 0.52761
 C1272 C 1.07144 0.36831 0.54458
 C1273 C 1.07819 0.34871 0.55159
 H1274 H 1.09132 0.34110 0.54422
 O1275 O 0.92511 0.60384 0.52041
 O1276 O 0.90090 0.62820 0.52044
 C1277 C 0.91783 0.62080 0.52752
 C1278 C 0.92896 0.63172 0.54450
 C1279 C 0.92224 0.65134 0.55147
 H1280 H 0.90913 0.65897 0.54406
 O1281 O 0.92491 0.47968 0.60371
 O1282 O 0.90069 0.47971 0.62802
 C1283 C 0.91762 0.47260 0.62065
 C1284 C 0.92873 0.45561 0.63159
 C1285 C 0.92197 0.44865 0.65117
 H1286 H 0.90885 0.45609 0.65875
 O1287 O 1.07535 0.52024 0.60387
 O1288 O 1.09953 0.52024 0.62821
 C1289 C 1.08261 0.52734 0.62082
 C1290 C 1.07148 0.54433 0.63173
 C1291 C 1.07818 0.55129 0.65134
 H1292 H 1.09128 0.54385 0.65896
 O1293 O 0.97976 0.39627 0.57528
 O1294 O 0.97969 0.37189 0.59944
 C1295 C 0.97263 0.37930 0.58253
 C1296 C 0.95563 0.36840 0.57138
 C1297 C 0.94862 0.34880 0.57810
 H1298 H 0.95600 0.34117 0.59120
 O1299 O 1.02055 0.60375 0.57534
 O1300 O 1.02056 0.62811 0.59952
 C1301 C 1.02765 0.62072 0.58261
 C1302 C 1.04463 0.63165 0.57148
 C1303 C 1.05152 0.65132 0.57815
 H1304 H 1.04406 0.65896 0.59120
 O1305 O 0.89633 0.42487 0.52038
 O1306 O 0.87196 0.40067 0.52035
 C1307 C 0.87936 0.41760 0.52745
 C1308 C 0.86843 0.42872 0.54442
 C1309 C 0.84884 0.42196 0.55142
 H1310 H 0.84123 0.40883 0.54403
 O1311 O 1.10402 0.57521 0.52060
 O1312 O 1.12840 0.59940 0.52067
 C1313 C 1.12098 0.58246 0.52772
 C1314 C 1.13188 0.57128 0.54468
 C1315 C 1.15151 0.57795 0.55163
 H1316 H 1.15916 0.59104 0.54423
 O1317 O 1.02052 0.57523 0.60382
 O1318 O 1.02054 0.59944 0.62816
 C1319 C 1.02761 0.58249 0.62077
 C1320 C 1.04456 0.57132 0.63171
 C1321 C 1.05151 0.57804 0.65131
 H1322 H 1.04411 0.59116 0.65891
 O1323 O 0.97976 0.42473 0.60381
 O1324 O 0.97969 0.40051 0.62813
 C1325 C 0.97264 0.41746 0.62075
 C1326 C 0.95565 0.42862 0.63164
 C1327 C 0.94864 0.42190 0.65123
 H1328 H 0.95602 0.40878 0.65885
 O1329 O 1.10388 0.52025 0.57543
 O1330 O 1.12823 0.52023 0.59962
 C1331 C 1.12085 0.52733 0.58270
 C1332 C 1.13181 0.54430 0.57158
 C1333 C 1.15145 0.55122 0.57830
 H1334 H 1.15905 0.54377 0.59138
 O1335 O 0.89639 0.47970 0.57525
 O1336 O 0.87202 0.47973 0.59941
 C1337 C 0.87941 0.47263 0.58250
 C1338 C 0.86846 0.45565 0.57137
 C1339 C 0.84887 0.44865 0.57813
 H1340 H 0.84129 0.45604 0.59126
 O1341 O 1.07553 0.60374 0.52057
 O1342 O 1.09975 0.62809 0.52065
 C1343 C 1.08280 0.62070 0.52768
 C1344 C 1.07162 0.63165 0.54461
 C1345 C 1.07827 0.65131 0.55152
 H1346 H 1.09137 0.65895 0.54410
 O1347 O 0.92485 0.39637 0.52040
 O1348 O 0.90064 0.37202 0.52038
 C1349 C 0.91757 0.37940 0.52748
 C1350 C 0.92869 0.36845 0.54445
 C1351 C 0.92192 0.34885 0.55141
 H1352 H 0.90879 0.34126 0.54401
 O1353 O 1.07533 0.47962 0.60386
 O1354 O 1.09952 0.47955 0.62820
 C1355 C 1.08258 0.47249 0.62080
 C1356 C 1.07141 0.45551 0.63171
 C1357 C 1.07812 0.44854 0.65131
 H1358 H 1.09123 0.45595 0.65892
 O1359 O 0.92495 0.52030 0.60371
 O1360 O 0.90074 0.52038 0.62802
 C1361 C 0.91769 0.52742 0.62065
 C1362 C 0.92887 0.54437 0.63158
 C1363 C 0.92223 0.55126 0.65123
 H1364 H 0.90914 0.54382 0.65886
 O1365 O 0.97995 0.60378 0.57532
 O1366 O 0.97991 0.62813 0.59952
 C1367 C 0.97284 0.62075 0.58259
 C1368 C 0.95588 0.63169 0.57145
 C1369 C 0.94892 0.65131 0.57817
 H1370 H 0.95632 0.65892 0.59128
 O1371 O 1.02037 0.39622 0.57533
 O1372 O 1.02036 0.37184 0.59949
 C1373 C 1.02746 0.37924 0.58259
 C1374 C 1.04446 0.36832 0.57148
 C1375 C 1.05145 0.34872 0.57824
 H1376 H 1.04405 0.34112 0.59134
 O1377 O 1.10382 0.42472 0.52046
 O1378 O 1.12817 0.40051 0.52051
 C1379 C 1.12078 0.41745 0.52756
 C1380 C 1.13171 0.42862 0.54451
 C1381 C 1.15135 0.42192 0.55142
 H1382 H 1.15897 0.40883 0.54399
 O1383 O 0.89662 0.57531 0.52034
 O1384 O 0.87225 0.59951 0.52036
 C1385 C 0.87964 0.58256 0.52741
 C1386 C 0.86868 0.57138 0.54432
 C1387 C 0.84900 0.57803 0.55118
 H1388 H 0.84138 0.59112 0.54373
 Cu1389 Cu 1.00007 0.41291 0.58714
 Cu1390 Cu 1.00002 0.38374 0.61623
 Cu1391 Cu 1.00024 0.58707 0.58713
 Cu1392 Cu 1.00022 0.61621 0.61626
 Cu1393 Cu 0.91305 0.41307 0.50011
 Cu1394 Cu 0.88390 0.38392 0.50005
 Cu1395 Cu 1.08715 0.41286 0.50019
 Cu1396 Cu 1.11629 0.38370 0.50022
 Cu1397 Cu 0.91331 0.58718 0.50010
 Cu1398 Cu 0.88415 0.61632 0.50009
 Cu1399 Cu 1.08737 0.58707 0.50030
 Cu1400 Cu 1.11655 0.61619 0.50035
 Cu1401 Cu 0.91312 0.50000 0.58704
 Cu1402 Cu 0.88395 0.50007 0.61613
 Cu1403 Cu 1.08717 0.49994 0.58721
 Cu1404 Cu 1.11630 0.49989 0.61633
 C1405 C 1.05444 0.44555 0.62213
 H1406 H 1.04935 0.45065 0.60689
 C1407 C 1.06811 0.43183 0.66108
 C1408 C 0.94583 0.55437 0.62200
 H1409 H 0.95087 0.54933 0.60673
 C1410 C 0.93227 0.56794 0.66104
 C1411 C 0.87827 0.55442 0.55432
 H1412 H 0.89355 0.54938 0.54931
 C1413 C 0.83917 0.56800 0.56782
 C1414 C 1.12212 0.44557 0.55450
 H1415 H 1.10685 0.45065 0.54944
 C1416 C 1.16114 0.43191 0.56811
 C1417 C 1.05443 0.37788 0.55451
 H1418 H 1.04931 0.39311 0.54937
 C1419 C 1.06820 0.33894 0.56830
 C1420 C 0.94592 0.62212 0.55447
 H1421 H 0.95102 0.60687 0.54937
 C1422 C 0.93221 0.66111 0.56819
 C1423 C 0.94572 0.44561 0.62205
 H1424 H 0.95085 0.45071 0.60683
 C1425 C 0.93191 0.43192 0.66097
 C1426 C 1.05452 0.55433 0.62214
 H1427 H 1.04943 0.54924 0.60691
 C1428 C 1.06821 0.56802 0.66110
 C1429 C 0.94569 0.37800 0.55441
 H1430 H 0.95083 0.39324 0.54931
 C1431 C 0.93188 0.33905 0.56812
 C1432 C 1.05465 0.62204 0.55457
 H1433 H 1.04960 0.60676 0.54951
 C1434 C 1.06823 0.66112 0.56817
 C1435 C 0.87801 0.44571 0.55438
 H1436 H 0.89324 0.45084 0.54926
 C1437 C 0.83909 0.43192 0.56816
 C1438 C 1.12225 0.55432 0.55463
 H1439 H 1.10700 0.54925 0.54954
 C1440 C 1.16127 0.56792 0.56833
 O1441 O 0.47945 0.92462 0.39622
 O1442 O 0.47943 0.90043 0.37186
 C1443 C 0.47234 0.91736 0.37927
 C1444 C 0.45536 0.92851 0.36837
 C1445 C 0.44842 0.92180 0.34876
 H1446 H 0.45586 0.90871 0.34114
 O1447 O 0.52001 1.07509 0.39618
 O1448 O 0.52001 1.09929 0.37183
 C1449 C 0.52711 1.08236 0.37923
 C1450 C 0.54409 1.07122 0.36832
 C1451 C 0.55103 1.07794 0.34871
 H1452 H 0.54359 1.09103 0.34109
 O1453 O 0.39598 0.97955 0.42474
 O1454 O 0.37162 0.97952 0.40058
 C1455 C 0.37902 0.97245 0.41749
 C1456 C 0.36809 0.95548 0.42864
 C1457 C 0.34844 0.94856 0.42198
 H1458 H 0.34080 0.95601 0.40892
 O1459 O 0.60356 1.02025 0.42465
 O1460 O 0.62788 1.02027 0.40045
 C1461 C 0.62051 1.02736 0.41737
 C1462 C 0.63144 1.04436 0.42848
 C1463 C 0.65105 1.05133 0.42176
 H1464 H 0.65867 1.04389 0.40867
 O1465 O 0.42459 0.89608 0.47945
 O1466 O 0.40038 0.87172 0.47946
 C1467 C 0.41731 0.87911 0.47237
 C1468 C 0.42845 0.86817 0.45541
 C1469 C 0.42174 0.84854 0.44846
 H1470 H 0.40863 0.84092 0.45586
 O1471 O 0.57498 1.10372 0.47942
 O1472 O 0.59916 1.12811 0.47936
 C1473 C 0.58222 1.12070 0.47231
 C1474 C 0.57104 1.13160 0.45536
 C1475 C 0.57773 1.15123 0.44838
 H1476 H 0.59084 1.15887 0.45575
 O1477 O 0.42451 1.02012 0.39625
 O1478 O 0.40031 1.02013 0.37192
 C1479 C 0.41725 1.02721 0.37930
 C1480 C 0.42841 1.04416 0.36835
 C1481 C 0.42172 1.05106 0.34873
 H1482 H 0.40862 1.04361 0.34113
 O1483 O 0.57499 0.97964 0.39623
 O1484 O 0.59915 0.97961 0.37186
 C1485 C 0.58222 0.97254 0.37926
 C1486 C 0.57103 0.95559 0.36834
 C1487 C 0.57764 0.94873 0.34867
 H1488 H 0.59070 0.95619 0.34103
 O1489 O 0.52008 0.89607 0.42463
 O1490 O 0.52011 0.87174 0.40042
 C1491 C 0.52719 0.87912 0.41734
 C1492 C 0.54417 0.86818 0.42846
 C1493 C 0.55115 0.84856 0.42172
 H1494 H 0.54374 0.84096 0.40861
 O1495 O 0.47940 1.10359 0.42465
 O1496 O 0.47934 1.12794 0.40046
 C1497 C 0.47228 1.12056 0.41738
 C1498 C 0.45533 1.13150 0.42853
 C1499 C 0.44836 1.15112 0.42181
 H1500 H 0.45576 1.15873 0.40870
 O1501 O 0.39603 1.07515 0.47955
 O1502 O 0.37168 1.09936 0.47953
 C1503 C 0.37907 1.08242 0.47245
 C1504 C 0.36814 1.07128 0.45548
 C1505 C 0.34856 1.07804 0.44847
 H1506 H 0.34096 1.09119 0.45584
 O1507 O 0.60351 0.92458 0.47938
 O1508 O 0.62788 0.90039 0.47936
 C1509 C 0.62048 0.91732 0.47228
 C1510 C 0.63140 0.92848 0.45532
 C1511 C 0.65100 0.92173 0.44833
 H1512 H 0.65860 0.90859 0.45571
 O1513 O 0.47941 1.07507 0.39617
 O1514 O 0.47936 1.09926 0.37183
 C1515 C 0.47230 1.08231 0.37922
 C1516 C 0.45534 1.07113 0.36831
 C1517 C 0.44840 1.07779 0.34868
 H1518 H 0.45582 1.09089 0.34105
 O1519 O 0.52005 0.92467 0.39623
 O1520 O 0.52008 0.90049 0.37186
 C1521 C 0.52714 0.91743 0.37926
 C1522 C 0.54408 0.92863 0.36834
 C1523 C 0.55094 0.92201 0.34867
 H1524 H 0.54348 0.90894 0.34103
 O1525 O 0.60355 0.97962 0.42464
 O1526 O 0.62787 0.97958 0.40043
 C1527 C 0.62050 0.97249 0.41735
 C1528 C 0.63141 0.95548 0.42845
 C1529 C 0.65101 0.94849 0.42170
 H1530 H 0.65862 0.95591 0.40861
 O1531 O 0.39601 1.02017 0.42472
 O1532 O 0.37166 1.02020 0.40055
 C1533 C 0.37906 1.02729 0.41746
 C1534 C 0.36815 1.04430 0.42857
 C1535 C 0.34856 1.05131 0.42181
 H1536 H 0.34096 1.04391 0.40869
 O1537 O 0.42455 1.10364 0.47955
 O1538 O 0.40036 1.12802 0.47954
 C1539 C 0.41728 1.12061 0.47246
 C1540 C 0.42842 1.13153 0.45549
 C1541 C 0.42169 1.15116 0.44852
 H1542 H 0.40860 1.15878 0.45594
 O1543 O 0.57500 0.89607 0.47941
 O1544 O 0.59921 0.87172 0.47940
 C1545 C 0.58227 0.87910 0.47232
 C1546 C 0.57113 0.86817 0.45537
 C1547 C 0.57786 0.84855 0.44839
 H1548 H 0.59098 0.84094 0.45578
 O1549 O 0.57502 1.02025 0.39620
 O1550 O 0.59919 1.02028 0.37185
 C1551 C 0.58226 1.02735 0.37924
 C1552 C 0.57109 1.04431 0.36833
 C1553 C 0.57778 1.05127 0.34872
 H1554 H 0.59090 1.04387 0.34111
 O1555 O 0.42448 0.97951 0.39626
 O1556 O 0.40027 0.97947 0.37194
 C1557 C 0.41721 0.97240 0.37932
 C1558 C 0.42837 0.95542 0.36839
 C1559 C 0.42167 0.94847 0.34878
 H1560 H 0.40855 0.95588 0.34117
 O1561 O 0.52000 1.10363 0.42463
 O1562 O 0.51999 1.12797 0.40044
 C1563 C 0.52708 1.12060 0.41736
 C1564 C 0.54405 1.13155 0.42847
 C1565 C 0.55099 1.15118 0.42174
 H1566 H 0.54355 1.15878 0.40864
 O1567 O 0.47948 0.89608 0.42466
 O1568 O 0.47946 0.87174 0.40046
 C1569 C 0.47238 0.87911 0.41738
 C1570 C 0.45541 0.86817 0.42851
 C1571 C 0.44845 0.84854 0.42180
 H1572 H 0.45588 0.84092 0.40871
 O1573 O 0.60354 1.07525 0.47941
 O1574 O 0.62787 1.09948 0.47936
 C1575 C 0.62049 1.08253 0.47230
 C1576 C 0.63142 1.07136 0.45536
 C1577 C 0.65104 1.07809 0.44839
 H1578 H 0.65865 1.09122 0.45578
 O1579 O 0.39607 0.92459 0.47950
 O1580 O 0.37171 0.90038 0.47951
 C1581 C 0.37909 0.91732 0.47244
 C1582 C 0.36812 0.92849 0.45553
 C1583 C 0.34847 0.92181 0.44863
 H1584 H 0.34085 0.90871 0.45604
 Cu1585 Cu 0.49977 0.91278 0.41286
 Cu1586 Cu 0.49977 0.88366 0.38371
 Cu1587 Cu 0.49971 1.08692 0.41283
 Cu1588 Cu 0.49967 1.11606 0.38370
 Cu1589 Cu 0.41267 0.99984 0.41292
 Cu1590 Cu 0.38352 0.99983 0.38381
 Cu1591 Cu 0.58686 0.99994 0.41286
 Cu1592 Cu 0.61596 0.99993 0.38371
 C1593 C 0.44535 0.94546 0.37796
 H1594 H 0.45044 0.95055 0.39320
 C1595 C 0.43169 0.93177 0.33899
 C1596 C 0.55410 1.05427 0.37790
 H1597 H 0.54902 1.04917 0.39314
 C1598 C 0.56776 1.06797 0.33894
 C1599 C 0.37770 0.94547 0.44555
 H1600 H 0.39297 0.95054 0.45060
 C1601 C 0.33866 0.93185 0.43197
 C1602 C 0.62185 1.05436 0.44542
 H1603 H 0.60661 1.04926 0.45052
 C1604 C 0.66083 1.06807 0.43171
 C1605 C 0.44542 0.87776 0.44545
 H1606 H 0.45052 0.89301 0.45055
 C1607 C 0.43174 0.83875 0.43177
 C1608 C 0.55406 1.12199 0.44542
 H1609 H 0.54899 1.10674 0.45053
 C1610 C 0.56770 1.16099 0.43168
 C1611 C 0.44537 1.05417 0.37792
 H1612 H 0.45044 1.04912 0.39317
 C1613 C 0.43170 1.06775 0.33892
 C1614 C 0.55410 0.94556 0.37795
 H1615 H 0.54908 0.95059 0.39323
 C1616 C 0.56760 0.93206 0.33887
 C1617 C 0.55414 0.87775 0.44542
 H1618 H 0.54903 0.89299 0.45053
 C1619 C 0.56787 0.83878 0.43168
 C1620 C 0.44537 1.12193 0.44551
 H1621 H 0.45047 1.10668 0.45061
 C1622 C 0.43166 1.16092 0.43180
 C1623 C 0.37771 1.05426 0.44555
 H1624 H 0.39293 1.04913 0.45068
 C1625 C 0.33880 1.06807 0.43174
 C1626 C 0.62184 0.94549 0.44540
 H1627 H 0.60661 0.95061 0.45052
 C1628 C 0.66078 0.93173 0.43164
 O1629 O 0.52015 0.92472 0.60326
 O1630 O 0.52020 0.90053 0.62761
 C1631 C 0.52726 0.91748 0.62021
 C1632 C 0.54420 0.92867 0.63112
 C1633 C 0.55109 0.92204 0.65077
 H1634 H 0.54365 0.90896 0.65841
 O1635 O 0.47963 1.07517 0.60338
 O1636 O 0.47960 1.09938 0.62771
 C1637 C 0.47253 1.08243 0.62033
 C1638 C 0.45557 1.07127 0.63126
 C1639 C 0.44862 1.07798 0.65086
 H1640 H 0.45604 1.09110 0.65847
 O1641 O 0.39616 1.02023 0.57498
 O1642 O 0.37182 1.02024 0.59917
 C1643 C 0.37920 1.02733 0.58225
 C1644 C 0.36825 1.04431 0.57113
 C1645 C 0.34866 1.05130 0.57789
 H1646 H 0.34107 1.04390 0.59101
 O1647 O 0.60354 0.97971 0.57473
 O1648 O 0.62791 0.97965 0.59889
 C1649 C 0.62050 0.97259 0.58197
 C1650 C 0.63142 0.95562 0.57081
 C1651 C 0.65109 0.94873 0.57745
 H1652 H 0.65874 0.95619 0.59050
 O1653 O 0.57504 0.89608 0.51998
 O1654 O 0.59926 0.87174 0.52002
 C1655 C 0.58233 0.87912 0.52709
 C1656 C 0.57120 0.86821 0.54407
 C1657 C 0.57794 0.84860 0.55106
 H1658 H 0.59105 0.84098 0.54367
 O1659 O 0.42456 1.10366 0.52012
 O1660 O 0.40037 1.12802 0.52016
 C1661 C 0.41731 1.12063 0.52722
 C1662 C 0.42847 1.13156 0.54418
 C1663 C 0.42174 1.15118 0.55116
 H1664 H 0.40862 1.15879 0.54378
 O1665 O 0.42468 0.97960 0.60342
 O1666 O 0.40049 0.97955 0.62775
 C1667 C 0.41742 0.97247 0.62036
 C1668 C 0.42856 0.95547 0.63125
 C1669 C 0.42182 0.94847 0.65083
 H1670 H 0.40871 0.95588 0.65844
 O1671 O 0.57511 1.02034 0.60329
 O1672 O 0.59933 1.02032 0.62759
 C1673 C 0.58240 1.02743 0.62023
 C1674 C 0.57129 1.04442 0.63117
 C1675 C 0.57808 1.05141 0.65073
 H1676 H 0.59121 1.04399 0.65830
 O1677 O 0.47957 0.89613 0.57483
 O1678 O 0.47957 0.87177 0.59901
 C1679 C 0.47249 0.87915 0.58209
 C1680 C 0.45553 0.86820 0.57095
 C1681 C 0.44861 0.84854 0.57763
 H1682 H 0.45605 0.84092 0.59071
 O1683 O 0.52018 1.10373 0.57488
 O1684 O 0.52021 1.12810 0.59906
 C1685 C 0.52728 1.12071 0.58214
 C1686 C 0.54425 1.13164 0.57100
 C1687 C 0.55126 1.15124 0.57775
 H1688 H 0.54388 1.15884 0.59088
 O1689 O 0.39618 0.92464 0.52005
 O1690 O 0.37182 0.90043 0.52012
 C1691 C 0.37922 0.91738 0.52717
 C1692 C 0.36830 0.92856 0.54411
 C1693 C 0.34864 0.92191 0.55100
 H1694 H 0.34100 0.90882 0.54357
 O1695 O 0.60356 1.07526 0.51997
 O1696 O 0.62789 1.09950 0.51997
 C1697 C 0.62052 1.08255 0.52705
 C1698 C 0.63145 1.07141 0.54401
 C1699 C 0.65105 1.07817 0.55101
 H1700 H 0.65864 1.09132 0.54363
 O1701 O 0.52023 1.07524 0.60339
 O1702 O 0.52026 1.09945 0.62772
 C1703 C 0.52735 1.08252 0.62033
 C1704 C 0.54435 1.07139 0.63122
 C1705 C 0.55139 1.07814 0.65079
 H1706 H 0.54401 1.09127 0.65840
 O1707 O 0.47955 0.92463 0.60333
 O1708 O 0.47955 0.90042 0.62767
 C1709 C 0.47246 0.91736 0.62028
 C1710 C 0.45549 0.92850 0.63121
 C1711 C 0.44851 0.92174 0.65079
 H1712 H 0.45591 0.90861 0.65838
 O1713 O 0.60358 1.02034 0.57478
 O1714 O 0.62795 1.02033 0.59893
 C1715 C 0.62055 1.02743 0.58203
 C1716 C 0.63147 1.04443 0.57092
 C1717 C 0.65106 1.05144 0.57766
 H1718 H 0.65866 1.04403 0.59077
 O1719 O 0.39621 0.97961 0.57491
 O1720 O 0.37186 0.97957 0.59909
 C1721 C 0.37925 0.97250 0.58217
 C1722 C 0.36831 0.95553 0.57101
 C1723 C 0.34865 0.94864 0.57767
 H1724 H 0.34101 0.95609 0.59073
 O1725 O 0.57504 1.10376 0.51998
 O1726 O 0.59922 1.12815 0.51998
 C1727 C 0.58230 1.12074 0.52707
 C1728 C 0.57117 1.13166 0.54405
 C1729 C 0.57793 1.15126 0.55104
 H1730 H 0.59106 1.15887 0.54365
 O1731 O 0.42465 0.89609 0.52001
 O1732 O 0.40045 0.87173 0.52008
 C1733 C 0.41739 0.87912 0.52711
 C1734 C 0.42857 0.86819 0.54404
 C1735 C 0.42190 0.84853 0.55096
 H1736 H 0.40881 0.84090 0.54354
 O1737 O 0.57505 0.97971 0.60323
 O1738 O 0.59927 0.97965 0.62754
 C1739 C 0.58232 0.97259 0.62017
 C1740 C 0.57115 0.95564 0.63110
 C1741 C 0.57779 0.94876 0.65075
 H1742 H 0.59087 0.95621 0.65838
 O1743 O 0.42471 1.02022 0.60340
 O1744 O 0.40053 1.02023 0.62775
 C1745 C 0.41746 1.02732 0.62036
 C1746 C 0.42862 1.04430 0.63127
 C1747 C 0.42192 1.05127 0.65088
 H1748 H 0.40881 1.04385 0.65849
 O1749 O 0.47957 1.10369 0.57492
 O1750 O 0.47955 1.12806 0.59909
 C1751 C 0.47246 1.12065 0.58218
 C1752 C 0.45546 1.13157 0.57106
 C1753 C 0.44848 1.15119 0.57780
 H1754 H 0.45591 1.15880 0.59089
 O1755 O 0.52017 0.89613 0.57485
 O1756 O 0.52022 0.87179 0.59905
 C1757 C 0.52729 0.87917 0.58213
 C1758 C 0.54426 0.86824 0.57100
 C1759 C 0.55124 0.84863 0.57775
 H1760 H 0.54384 0.84103 0.59086
 O1761 O 0.60348 0.92466 0.51993
 O1762 O 0.62786 0.90048 0.51997
 C1763 C 0.62046 0.91742 0.52701
 C1764 C 0.63140 0.92863 0.54393
 C1765 C 0.65107 0.92198 0.55081
 H1766 H 0.65870 0.90889 0.54338
 O1767 O 0.39606 1.07514 0.52012
 O1768 O 0.37171 1.09935 0.52016
 C1769 C 0.37910 1.08241 0.52723
 C1770 C 0.36820 1.07126 0.54420
 C1771 C 0.34861 1.07800 0.55120
 H1772 H 0.34099 1.09113 0.54382
 Cu1773 Cu 0.49985 0.91282 0.58664
 Cu1774 Cu 0.49989 0.88369 0.61578
 Cu1775 Cu 0.49991 1.08703 0.58672
 Cu1776 Cu 0.49990 1.11619 0.61583
 Cu1777 Cu 0.41280 0.91277 0.49974
 Cu1778 Cu 0.38365 0.88362 0.49980
 Cu1779 Cu 0.58683 0.91277 0.49967
 Cu1780 Cu 0.61599 0.88364 0.49969
 Cu1781 Cu 0.41272 1.08697 0.49983
 Cu1782 Cu 0.38359 1.11613 0.49985
 Cu1783 Cu 0.58686 1.08707 0.49970
 Cu1784 Cu 0.61597 1.11626 0.49966
 Cu1785 Cu 0.41287 0.99992 0.58676
 Cu1786 Cu 0.38374 0.99990 0.61588
 Cu1787 Cu 0.58689 1.00003 0.58659
 Cu1788 Cu 0.61606 0.99998 0.61568
 C1789 C 0.55421 0.94561 0.62151
 H1790 H 0.54916 0.95065 0.60624
 C1791 C 0.56777 0.93208 0.66056
 C1792 C 0.44559 1.05428 0.62169
 H1793 H 0.45067 1.04919 0.60645
 C1794 C 0.43192 1.06799 0.66065
 C1795 C 0.37779 1.05428 0.55414
 H1796 H 0.39302 1.04916 0.54902
 C1797 C 0.33886 1.06803 0.56793
 C1798 C 0.62180 0.94559 0.55391
 H1799 H 0.60652 0.95063 0.54887
 C1800 C 0.66089 0.93203 0.56745
 C1801 C 0.55422 0.87780 0.55402
 H1802 H 0.54911 0.89304 0.54890
 C1803 C 0.56797 0.83884 0.56779
 C1804 C 0.44547 1.12198 0.55411
 H1805 H 0.45057 1.10674 0.54900
 C1806 C 0.43175 1.16096 0.56785
 C1807 C 0.44553 0.94551 0.62167
 H1808 H 0.45064 0.95063 0.60645
 C1809 C 0.43179 0.93172 0.66058
 C1810 C 0.55429 1.05439 0.62164
 H1811 H 0.54914 1.04926 0.60644
 C1812 C 0.56814 1.06815 0.66052
 C1813 C 0.44553 0.87779 0.55402
 H1814 H 0.45059 0.89307 0.54895
 C1815 C 0.43192 0.83874 0.56763
 C1816 C 0.55419 1.12208 0.55400
 H1817 H 0.54906 1.10685 0.54888
 C1818 C 0.56799 1.16102 0.56778
 C1819 C 0.37791 0.94552 0.55409
 H1820 H 0.39319 0.95056 0.54904
 C1821 C 0.33884 0.93194 0.56766
 C1822 C 0.62189 1.05440 0.55395
 H1823 H 0.60667 1.04927 0.54883
 C1824 C 0.66082 1.06819 0.56772
 O1825 O 0.47979 0.42452 0.89673
 O1826 O 0.47975 0.40027 0.87244
 C1827 C 0.47269 0.41723 0.87979
 C1828 C 0.45574 0.42838 0.86884
 C1829 C 0.44880 0.42163 0.84924
 H1830 H 0.45621 0.40849 0.84168
 O1831 O 0.52038 0.57517 0.89647
 O1832 O 0.52043 0.59934 0.87209
 C1833 C 0.52749 0.58240 0.87951
 C1834 C 0.54443 0.57121 0.86860
 C1835 C 0.55138 0.57790 0.84899
 H1836 H 0.54397 0.59102 0.84137
 O1837 O 0.39643 0.47963 0.92499
 O1838 O 0.37209 0.47959 0.90080
 C1839 C 0.37946 0.47254 0.91773
 C1840 C 0.36849 0.45562 0.92890
 C1841 C 0.34886 0.44870 0.92219
 H1842 H 0.34127 0.45611 0.90907
 O1843 O 0.60369 0.52013 0.92496
 O1844 O 0.62804 0.52013 0.90078
 C1845 C 0.62066 0.52722 0.91769
 C1846 C 0.63161 0.54419 0.92883
 C1847 C 0.65129 0.55104 0.92217
 H1848 H 0.65892 0.54355 0.90913
 O1849 O 0.42473 0.39629 0.97997
 O1850 O 0.40052 0.37193 0.97998
 C1851 C 0.41746 0.37930 0.97290
 C1852 C 0.42861 0.36831 0.95598
 C1853 C 0.42184 0.34870 0.94904
 H1854 H 0.40869 0.34113 0.95642
 O1855 O 0.57530 0.60377 0.97967
 O1856 O 0.59953 0.62810 0.97961
 C1857 C 0.58259 0.62072 0.97255
 C1858 C 0.57143 0.63166 0.95560
 C1859 C 0.57813 0.65130 0.94866
 H1860 H 0.59124 0.65893 0.95606
 O1861 O 0.42500 0.52016 0.89645
 O1862 O 0.40081 0.52016 0.87211
 C1863 C 0.41774 0.52724 0.87949
 C1864 C 0.42889 0.54419 0.86855
 C1865 C 0.42222 0.55107 0.84891
 H1866 H 0.40915 0.54360 0.84129
 O1867 O 0.57518 0.47949 0.89653
 O1868 O 0.59936 0.47944 0.87218
 C1869 C 0.58243 0.47237 0.87959
 C1870 C 0.57129 0.45536 0.86871
 C1871 C 0.57797 0.44840 0.84910
 H1872 H 0.59105 0.45584 0.84145
 O1873 O 0.52037 0.39603 0.92525
 O1874 O 0.52038 0.37163 0.90111
 C1875 C 0.52747 0.37905 0.91801
 C1876 C 0.54446 0.36814 0.92915
 C1877 C 0.55146 0.34853 0.92242
 H1878 H 0.54405 0.34091 0.90933
 O1879 O 0.47978 0.60378 0.92484
 O1880 O 0.47976 0.62809 0.90061
 C1881 C 0.47268 0.62073 0.91754
 C1882 C 0.45570 0.63169 0.92865
 C1883 C 0.44871 0.65128 0.92186
 H1884 H 0.45610 0.65886 0.90873
 O1885 O 0.39649 0.57531 0.97973
 O1886 O 0.37210 0.59949 0.97965
 C1887 C 0.37952 0.58255 0.97261
 C1888 C 0.36860 0.57134 0.95568
 C1889 C 0.34894 0.57797 0.94877
 H1890 H 0.34129 0.59107 0.95618
 O1891 O 0.60382 0.42470 0.97993
 O1892 O 0.62818 0.40049 0.97995
 C1893 C 0.62078 0.41741 0.97284
 C1894 C 0.63167 0.42852 0.95582
 C1895 C 0.65126 0.42175 0.94881
 H1896 H 0.65888 0.40864 0.95621
 O1897 O 0.47980 0.57519 0.89643
 O1898 O 0.47978 0.59935 0.87204
 C1899 C 0.47271 0.58242 0.87946
 C1900 C 0.45578 0.57121 0.86853
 C1901 C 0.44886 0.57784 0.84889
 H1902 H 0.45627 0.59095 0.84126
 O1903 O 0.52037 0.42448 0.89670
 O1904 O 0.52039 0.40023 0.87241
 C1905 C 0.52746 0.41718 0.87976
 C1906 C 0.54440 0.42834 0.86880
 C1907 C 0.55133 0.42162 0.84918
 H1908 H 0.54392 0.40849 0.84160
 O1909 O 0.60371 0.47951 0.92497
 O1910 O 0.62805 0.47946 0.90078
 C1911 C 0.62067 0.47240 0.91771
 C1912 C 0.63161 0.45542 0.92885
 C1913 C 0.65119 0.44842 0.92208
 H1914 H 0.65877 0.45580 0.90894
 O1915 O 0.39652 0.52024 0.92495
 O1916 O 0.37217 0.52025 0.90076
 C1917 C 0.37956 0.52735 0.91767
 C1918 C 0.36863 0.54434 0.92880
 C1919 C 0.34897 0.55122 0.92213
 H1920 H 0.34134 0.54375 0.90907
 O1921 O 0.42492 0.60390 0.97969
 O1922 O 0.40069 0.62824 0.97961
 C1923 C 0.41763 0.62085 0.97256
 C1924 C 0.42877 0.63175 0.95557
 C1925 C 0.42201 0.65134 0.94855
 H1926 H 0.40889 0.65896 0.95593
 O1927 O 0.57534 0.39616 0.98002
 O1928 O 0.59954 0.37179 0.98004
 C1929 C 0.58260 0.37917 0.97296
 C1930 C 0.57145 0.36820 0.95603
 C1931 C 0.57820 0.34859 0.94906
 H1932 H 0.59135 0.34100 0.95644
 O1933 O 0.57521 0.52013 0.89646
 O1934 O 0.59940 0.52013 0.87213
 C1935 C 0.58248 0.52722 0.87951
 C1936 C 0.57134 0.54421 0.86859
 C1937 C 0.57804 0.55115 0.84897
 H1938 H 0.59113 0.54371 0.84135
 O1939 O 0.42496 0.47953 0.89654
 O1940 O 0.40078 0.47949 0.87220
 C1941 C 0.41770 0.47240 0.87961
 C1942 C 0.42883 0.45537 0.86874
 C1943 C 0.42213 0.44837 0.84914
 H1944 H 0.40904 0.45579 0.84150
 O1945 O 0.52038 0.60376 0.92487
 O1946 O 0.52042 0.62808 0.90065
 C1947 C 0.52749 0.62071 0.91758
 C1948 C 0.54446 0.63165 0.92871
 C1949 C 0.55140 0.65129 0.92201
 H1950 H 0.54396 0.65891 0.90892
 O1951 O 0.47975 0.39604 0.92523
 O1952 O 0.47971 0.37163 0.90110
 C1953 C 0.47263 0.37907 0.91799
 C1954 C 0.45561 0.36819 0.92912
 C1955 C 0.44860 0.34858 0.92242
 H1956 H 0.45602 0.34092 0.90935
 O1957 O 0.60375 0.57520 0.97971
 O1958 O 0.62814 0.59937 0.97964
 C1959 C 0.62073 0.58242 0.97260
 C1960 C 0.63165 0.57121 0.95569
 C1961 C 0.65133 0.57781 0.94879
 H1962 H 0.65899 0.59090 0.95620
 O1963 O 0.39627 0.42485 0.97993
 O1964 O 0.37190 0.40065 0.97994
 C1965 C 0.37930 0.41758 0.97284
 C1966 C 0.36840 0.42871 0.95586
 C1967 C 0.34877 0.42203 0.94891
 H1968 H 0.34112 0.40894 0.95633
 Cu1969 Cu 0.50008 0.41269 0.91340
 Cu1970 Cu 0.50006 0.38349 0.88434
 Cu1971 Cu 0.50008 0.58706 0.91308
 Cu1972 Cu 0.50010 0.61615 0.88391
 Cu1973 Cu 0.41316 0.49989 0.91315
 Cu1974 Cu 0.38402 0.49987 0.88403
 Cu1975 Cu 0.58702 0.49982 0.91315
 Cu1976 Cu 0.61615 0.49979 0.88403
 C1977 C 0.44578 0.44539 0.87836
 H1978 H 0.45086 0.45052 0.89358
 C1979 C 0.43212 0.43162 0.83942
 C1980 C 0.55439 0.55422 0.87818
 H1981 H 0.54931 0.54915 0.89342
 C1982 C 0.56806 0.56788 0.83920
 C1983 C 0.37803 0.44565 0.94588
 H1984 H 0.39329 0.45073 0.95097
 C1985 C 0.33903 0.43202 0.93218
 C1986 C 0.62202 0.55425 0.94572
 H1987 H 0.60673 0.54923 0.95077
 C1988 C 0.66112 0.56773 0.93215
 C1989 C 0.44563 0.37783 0.94605
 H1990 H 0.45076 0.39308 0.95113
 C1991 C 0.43183 0.33886 0.93238
 C1992 C 0.55446 0.62207 0.94565
 H1993 H 0.54938 0.60681 0.95073
 C1994 C 0.56812 0.66109 0.93198
 C1995 C 0.44582 0.55424 0.87814
 H1996 H 0.45088 0.54920 0.89340
 C1997 C 0.43220 0.56778 0.83911
 C1998 C 0.55436 0.44535 0.87833
 H1999 H 0.54929 0.45046 0.89357
 C2000 C 0.56800 0.43164 0.83936
 C2001 C 0.55444 0.37775 0.94609
 H2002 H 0.54931 0.39299 0.95119
 C2003 C 0.56821 0.33878 0.93237
 C2004 C 0.44575 0.62215 0.94564
 H2005 H 0.45087 0.60693 0.95079
 C2006 C 0.43198 0.66108 0.93181
 C2007 C 0.37822 0.55438 0.94572
 H2008 H 0.39350 0.54934 0.95078
 C2009 C 0.33915 0.56792 0.93211
 C2010 C 0.62208 0.44549 0.94586
 H2011 H 0.60686 0.45062 0.95099
 C2012 C 0.66099 0.43170 0.93205
 O2013 O 0.52036 0.42492 1.10388
 O2014 O 0.52035 0.40073 1.12823
 C2015 C 0.52745 0.41766 1.12083
 C2016 C 0.54444 0.42880 1.13174
 C2017 C 0.55144 0.42208 1.15132
 H2018 H 0.54403 0.40896 1.15894
 O2019 O 0.47979 0.57544 1.10357
 O2020 O 0.47979 0.59967 1.12788
 C2021 C 0.47270 0.58272 1.12051
 C2022 C 0.45574 0.57157 1.13145
 C2023 C 0.44884 0.57827 1.15108
 H2024 H 0.45628 0.59138 1.15868
 O2025 O 0.39637 0.52049 1.07517
 O2026 O 0.37203 0.52058 1.09936
 C2027 C 0.37943 0.52763 1.08243
 C2028 C 0.36852 0.54461 1.07128
 C2029 C 0.34892 0.55162 1.07801
 H2030 H 0.34131 0.54424 1.09112
 O2031 O 0.60378 0.47975 1.07531
 O2032 O 0.62813 0.47978 1.09949
 C2033 C 0.62075 0.47267 1.08259
 C2034 C 0.63169 0.45567 1.07148
 C2035 C 0.65128 0.44868 1.07825
 H2036 H 0.65886 0.45609 1.09137
 O2037 O 0.57532 0.39629 1.02058
 O2038 O 0.59952 0.37192 1.02066
 C2039 C 0.58259 0.37933 1.02771
 C2040 C 0.57143 0.36844 1.04469
 C2041 C 0.57816 0.34883 1.05169
 H2042 H 0.59128 0.34120 1.04431
 O2043 O 0.42492 0.60394 1.02026
 O2044 O 0.40070 0.62829 1.02024
 C2045 C 0.41763 0.62092 1.02733
 C2046 C 0.42876 0.63186 1.04430
 C2047 C 0.42201 0.65147 1.05128
 H2048 H 0.40888 0.65907 1.04389
 O2049 O 0.42484 0.47987 1.10370
 O2050 O 0.40065 0.47991 1.12803
 C2051 C 0.41757 0.47280 1.12066
 C2052 C 0.42869 0.45582 1.13160
 C2053 C 0.42193 0.44887 1.15118
 H2054 H 0.40881 0.45630 1.15876
 O2055 O 0.57526 0.52043 1.10370
 O2056 O 0.59946 0.52051 1.12803
 C2057 C 0.58252 0.52757 1.12063
 C2058 C 0.57137 0.54457 1.13152
 C2059 C 0.57806 0.55154 1.15113
 H2060 H 0.59114 0.54411 1.15877
 O2061 O 0.47976 0.39641 1.07538
 O2062 O 0.47970 0.37205 1.09956
 C2063 C 0.47264 0.37944 1.08264
 C2064 C 0.45567 0.36851 1.07149
 C2065 C 0.44873 0.34886 1.07816
 H2066 H 0.45616 0.34122 1.09123
 O2067 O 0.52039 0.60391 1.07506
 O2068 O 0.52044 0.62830 1.09921
 C2069 C 0.52751 0.62089 1.08230
 C2070 C 0.54448 0.63180 1.07114
 C2071 C 0.55143 0.65144 1.07781
 H2072 H 0.54401 0.65909 1.09089
 O2073 O 0.39623 0.42488 1.02049
 O2074 O 0.37188 0.40067 1.02056
 C2075 C 0.37927 0.41762 1.02761
 C2076 C 0.36835 0.42879 1.04456
 C2077 C 0.34875 0.42207 1.05155
 H2078 H 0.34113 0.40893 1.04417
 O2079 O 0.60375 0.57525 1.02026
 O2080 O 0.62814 0.59943 1.02025
 C2081 C 0.62073 0.58250 1.02735
 C2082 C 0.63165 0.57136 1.04430
 C2083 C 0.65130 0.57804 1.05120
 H2084 H 0.65894 0.59112 1.04375
 O2085 O 0.52039 0.57544 1.10358
 O2086 O 0.52043 0.59967 1.12788
 C2087 C 0.52750 0.58272 1.12052
 C2088 C 0.54445 0.57156 1.13146
 C2089 C 0.55138 0.57828 1.15107
 H2090 H 0.54396 0.59140 1.15866
 O2091 O 0.47975 0.42493 1.10385
 O2092 O 0.47968 0.40074 1.12819
 C2093 C 0.47262 0.41768 1.12079
 C2094 C 0.45562 0.42884 1.13167
 C2095 C 0.44861 0.42214 1.15126
 H2096 H 0.45599 0.40902 1.15889
 O2097 O 0.60375 0.52037 1.07522
 O2098 O 0.62811 0.52046 1.09939
 C2099 C 0.62072 0.52750 1.08246
 C2100 C 0.63165 0.54444 1.07127
 C2101 C 0.65130 0.55138 1.07793
 H2102 H 0.65893 0.54396 1.09101
 O2103 O 0.39629 0.47986 1.07526
 O2104 O 0.37195 0.47991 1.09945
 C2105 C 0.37932 0.47279 1.08254
 C2106 C 0.36838 0.45579 1.07144
 C2107 C 0.34877 0.44882 1.07819
 H2108 H 0.34118 0.45625 1.09129
 O2109 O 0.57529 0.60381 1.02022
 O2110 O 0.59952 0.62814 1.02022
 C2111 C 0.58258 0.62078 1.02730
 C2112 C 0.57144 0.63175 1.04423
 C2113 C 0.57815 0.65139 1.05114
 H2114 H 0.59125 0.65900 1.04372
 O2115 O 0.42480 0.39642 1.02052
 O2116 O 0.40060 0.37206 1.02059
 C2117 C 0.41754 0.37946 1.02763
 C2118 C 0.42871 0.36853 1.04458
 C2119 C 0.42202 0.34888 1.05149
 H2120 H 0.40892 0.34126 1.04407
 O2121 O 0.57527 0.47980 1.10379
 O2122 O 0.59947 0.47983 1.12812
 C2123 C 0.58254 0.47272 1.12075
 C2124 C 0.57140 0.45575 1.13169
 C2125 C 0.57816 0.44878 1.15128
 H2126 H 0.59129 0.45619 1.15886
 O2127 O 0.42486 0.52050 1.10366
 O2128 O 0.40068 0.52059 1.12800
 C2129 C 0.41761 0.52764 1.12061
 C2130 C 0.42879 0.54461 1.13150
 C2131 C 0.42213 0.55156 1.15113
 H2132 H 0.40905 0.54414 1.15876
 O2133 O 0.47978 0.60397 1.07510
 O2134 O 0.47978 0.62835 1.09926
 C2135 C 0.47269 0.62094 1.08235
 C2136 C 0.45571 0.63187 1.07122
 C2137 C 0.44871 0.65148 1.07796
 H2138 H 0.45611 0.65909 1.09107
 O2139 O 0.52037 0.39639 1.07542
 O2140 O 0.52037 0.37204 1.09961
 C2141 C 0.52747 0.37942 1.08270
 C2142 C 0.54446 0.36848 1.07159
 C2143 C 0.55143 0.34887 1.07835
 H2144 H 0.54401 0.34127 1.09145
 O2145 O 0.60386 0.42478 1.02051
 O2146 O 0.62821 0.40057 1.02058
 C2147 C 0.62081 0.41752 1.02762
 C2148 C 0.63173 0.42869 1.04458
 C2149 C 0.65132 0.42195 1.05160
 H2150 H 0.65893 0.40881 1.04423
 O2151 O 0.39643 0.57541 1.02029
 O2152 O 0.37205 0.59960 1.02026
 C2153 C 0.37946 0.58268 1.02736
 C2154 C 0.36853 0.57155 1.04433
 C2155 C 0.34893 0.57831 1.05131
 H2156 H 0.34133 0.59144 1.04391
 Cu2157 Cu 0.50006 0.41308 1.08721
 Cu2158 Cu 0.50002 0.38395 1.11634
 Cu2159 Cu 0.50009 0.58726 1.08690
 Cu2160 Cu 0.50011 0.61644 1.11599
 Cu2161 Cu 0.41293 0.41304 1.00022
 Cu2162 Cu 0.38378 0.38389 1.00027
 Cu2163 Cu 0.58716 0.41291 1.00025
 Cu2164 Cu 0.61630 0.38375 1.00031
 Cu2165 Cu 0.41312 0.58722 1.00000
 Cu2166 Cu 0.38394 0.61635 0.99993
 Cu2167 Cu 0.58710 0.58708 0.99996
 Cu2168 Cu 0.61628 0.61620 0.99993
 Cu2169 Cu 0.41302 0.50018 1.08703
 Cu2170 Cu 0.38389 0.50026 1.11615
 Cu2171 Cu 0.58709 0.50008 1.08709
 Cu2172 Cu 0.61623 0.50015 1.11620
 C2173 C 0.55441 0.44578 1.12215
 H2174 H 0.54928 0.45089 1.10693
 C2175 C 0.56818 0.43206 1.16107
 C2176 C 0.44574 0.55460 1.12189
 H2177 H 0.45079 0.54951 1.10664
 C2178 C 0.43215 0.56827 1.16089
 C2179 C 0.37809 0.55456 1.05430
 H2180 H 0.39332 0.54943 1.04919
 C2181 C 0.33916 0.56836 1.06803
 C2182 C 0.62214 0.44569 1.05450
 H2183 H 0.60691 0.45081 1.04937
 C2184 C 0.66106 0.43194 1.06832
 C2185 C 0.55444 0.37804 1.05462
 H2186 H 0.54934 0.39327 1.04950
 C2187 C 0.56816 0.33907 1.06841
 C2188 C 0.44575 0.62229 1.05425
 H2189 H 0.45088 0.60706 1.04914
 C2190 C 0.43198 0.66125 1.06800
 C2191 C 0.44568 0.44583 1.12207
 H2192 H 0.45082 0.45092 1.10685
 C2193 C 0.43188 0.43215 1.16099
 C2194 C 0.55443 0.55456 1.12191
 H2195 H 0.54935 0.54947 1.10667
 C2196 C 0.56806 0.56827 1.16088
 C2197 C 0.44568 0.37812 1.05455
 H2198 H 0.45075 0.39339 1.04949
 C2199 C 0.43203 0.33908 1.06816
 C2200 C 0.55446 0.62218 1.05421
 H2201 H 0.54937 0.60691 1.04915
 C2202 C 0.56815 0.66121 1.06782
 C2203 C 0.37794 0.44579 1.05448
 H2204 H 0.39317 0.45089 1.04936
 C2205 C 0.33899 0.43208 1.06825
 C2206 C 0.62205 0.55442 1.05432
 H2207 H 0.60678 0.54934 1.04927
 C2208 C 0.66110 0.56806 1.06789
 C2209 C 1.09543 1.12164 1.26057
 C2210 C 1.10403 1.10371 1.25181
 C2211 C 1.12056 1.09372 1.26176
 C2212 C 1.12859 1.10167 1.28035
 C2213 C 1.12026 1.11995 1.28946
 C2214 C 1.10337 1.12968 1.27914
 C2215 C 1.09608 1.09576 1.23244
 C2216 C 1.08950 1.08926 1.21613
 C2217 C 1.08192 1.08182 1.19691
 C2218 C 1.07558 1.07558 1.18040
 H2219 H 1.08261 1.12953 1.25296
 H2220 H 1.12733 1.07977 1.25512
 H2221 H 1.14129 1.09321 1.28734
 H2222 H 1.09618 1.14368 1.28499
 C2223 C 1.09096 0.61366 0.76635
 C2224 C 1.10407 0.60332 0.75238
 C2225 C 1.12517 0.60081 0.75716
 C2226 C 1.13316 0.60866 0.77579
 C2227 C 1.12014 0.61918 0.78993
 C2228 C 1.09892 0.62154 0.78500
 C2229 C 1.09599 0.59551 0.73301
 C2230 C 1.08938 0.58906 0.71669
 C2231 C 1.08184 0.58161 0.69747
 C2232 C 1.07554 0.57536 0.68095
 H2233 H 1.07459 0.61566 0.76282
 H2234 H 1.13548 0.59290 0.74641
 H2235 H 1.14960 0.60683 0.77894
 H2236 H 1.08843 0.62931 0.79564
 C2237 C 0.59553 1.12169 0.76040
 C2238 C 0.60413 1.10377 0.75164
 C2239 C 0.62069 1.09381 0.76158
 C2240 C 0.62874 1.10178 0.78015
 C2241 C 0.62039 1.12006 0.78927
 C2242 C 0.60348 1.12976 0.77896
 C2243 C 0.59616 1.09578 0.73230
 C2244 C 0.58956 1.08926 0.71600
 C2245 C 0.58195 1.08177 0.69681
 C2246 C 0.57557 1.07551 0.68033
 H2247 H 0.58269 1.12957 0.75280
 H2248 H 0.62746 1.07986 0.75494
 H2249 H 0.64145 1.09333 0.78714
 H2250 H 0.59629 1.14376 0.78481
 C2251 C 0.62164 0.59510 1.26085
 C2252 C 0.60358 0.60362 1.25228
 C2253 C 0.59349 0.61995 1.26244
 C2254 C 0.60147 0.62789 1.28105
 C2255 C 0.61988 0.61966 1.28998
 C2256 C 0.62970 0.60295 1.27945
 C2257 C 0.59560 0.59578 1.23287
 C2258 C 0.58907 0.58931 1.21653
 C2259 C 0.58160 0.58186 1.19728
 C2260 C 0.57536 0.57560 1.18074
 H2261 H 0.62961 0.58243 1.25307
 H2262 H 0.57944 0.62664 1.25594
 H2263 H 0.59290 0.64042 1.28823
 H2264 H 0.64382 0.59587 1.28515
 C2265 C 0.90536 0.87880 1.26106
 C2266 C 0.89672 0.89669 1.25227
 C2267 C 0.88017 0.90666 1.26220
 C2268 C 0.87214 0.89871 1.28079
 C2269 C 0.88049 0.88045 1.28992
 C2270 C 0.89742 0.87076 1.27964
 C2271 C 0.90462 0.90462 1.23288
 C2272 C 0.91111 0.91112 1.21654
 C2273 C 0.91857 0.91857 1.19728
 C2274 C 0.92481 0.92480 1.18073
 H2275 H 0.91820 0.87093 1.25347
 H2276 H 0.87337 0.92059 1.25554
 H2277 H 0.85942 0.90716 1.28775
 H2278 H 0.90464 0.85679 1.28552
 C2279 C 0.87889 0.40605 0.76169
 C2280 C 0.89594 0.39653 0.75217
 C2281 C 0.90504 0.37907 0.76134
 C2282 C 0.89708 0.37101 0.77990
 C2283 C 0.87966 0.38025 0.78979
 C2284 C 0.87083 0.39808 0.78026
 C2285 C 0.90392 0.40447 0.73281
 C2286 C 0.91052 0.41096 0.71650
 C2287 C 0.91813 0.41838 0.69729
 C2288 C 0.92450 0.42461 0.68079
 H2289 H 0.87172 0.41964 0.75471
 H2290 H 0.91828 0.37156 0.75407
 H2291 H 0.90474 0.35744 0.78612
 H2292 H 0.85766 0.40613 0.78685
 C2293 C 0.37464 0.89875 0.75644
 C2294 C 0.39574 0.89623 0.75170
 C2295 C 0.40882 0.88586 0.76569
 C2296 C 0.40082 0.87797 0.78432
 C2297 C 0.37959 0.88035 0.78921
 C2298 C 0.36660 0.89088 0.77505
 C2299 C 0.40388 0.90407 0.73237
 C2300 C 0.41052 0.91055 0.71607
 C2301 C 0.41810 0.91804 0.69688
 C2302 C 0.42443 0.92434 0.68039
 H2303 H 0.36435 0.90667 0.74568
 H2304 H 0.42520 0.88386 0.76219
 H2305 H 0.41128 0.87019 0.79497
 H2306 H 0.35016 0.89272 0.77817
 C2307 C 0.40461 0.37875 1.26093
 C2308 C 0.39593 0.39663 1.25215
 C2309 C 0.37932 0.40652 1.26206
 C2310 C 0.37127 0.39852 1.28061
 C2311 C 0.37968 0.38028 1.28975
 C2312 C 0.39666 0.37066 1.27948
 C2313 C 0.40390 0.40462 1.23281
 C2314 C 0.41049 0.41113 1.21651
 C2315 C 0.41809 0.41859 1.19731
 C2316 C 0.42446 0.42483 1.18081
 H2317 H 0.41750 0.37093 1.25336
 H2318 H 0.37249 0.42043 1.25539
 H2319 H 0.35850 0.40691 1.28757
 H2320 H 0.40392 0.35670 1.28535
 C2321 C 0.90462 1.12146 0.73921
 C2322 C 0.89622 1.10333 0.74775
 C2323 C 0.87995 1.09316 0.73756
 C2324 C 0.87196 1.10113 0.71897
 C2325 C 0.88007 1.11962 0.71009
 C2326 C 0.89672 1.12953 0.72063
 C2327 C 0.90408 1.09536 0.76714
 C2328 C 0.91056 1.08883 0.78348
 C2329 C 0.91801 1.08135 0.80273
 C2330 C 0.92426 1.07511 0.81926
 H2331 H 0.91723 1.12950 0.74701
 H2332 H 0.87335 1.07904 0.74403
 H2333 H 0.85949 1.09249 0.71177
 H2334 H 0.90369 1.14371 0.71497
 C2335 C 0.91024 0.61308 0.23363
 C2336 C 0.89711 0.60282 0.24765
 C2337 C 0.87601 0.60031 0.24287
 C2338 C 0.86803 0.60809 0.22420
 C2339 C 0.88107 0.61854 0.21003
 C2340 C 0.90230 0.62089 0.21495
 C2341 C 0.90516 0.59513 0.26707
 C2342 C 0.91173 0.58879 0.28344
 C2343 C 0.91921 0.58146 0.30273
 C2344 C 0.92543 0.57530 0.31931
 H2345 H 0.92661 0.61508 0.23716
 H2346 H 0.86568 0.59247 0.25365
 H2347 H 0.85159 0.60627 0.22106
 H2348 H 0.91279 0.62861 0.20428
 C2349 C 0.38580 1.09016 0.23369
 C2350 C 0.39617 1.10329 0.24764
 C2351 C 0.39866 1.12440 0.24285
 C2352 C 0.39079 1.13238 0.22423
 C2353 C 0.38028 1.11935 0.21010
 C2354 C 0.37790 1.09812 0.21504
 C2355 C 0.40403 1.09523 0.26699
 C2356 C 0.41055 1.08869 0.28330
 C2357 C 0.41807 1.08124 0.30253
 C2358 C 0.42436 1.07502 0.31906
 H2359 H 0.38381 1.07379 0.23723
 H2360 H 0.40657 1.13472 0.25359
 H2361 H 0.39262 1.14883 0.22108
 H2362 H 0.37012 1.08763 0.20441
 C2363 C 0.39930 0.62429 0.74289
 C2364 C 0.39681 0.60319 0.74772
 C2365 C 0.38645 0.59003 0.73380
 C2366 C 0.37854 0.59795 0.71514
 C2367 C 0.38090 0.61916 0.71016
 C2368 C 0.39142 0.63223 0.72425
 C2369 C 0.40465 0.59517 0.76709
 C2370 C 0.41114 0.58865 0.78343
 C2371 C 0.41862 0.58122 0.80268
 C2372 C 0.42488 0.57502 0.81922
 H2373 H 0.40721 0.63464 0.75360
 H2374 H 0.38446 0.57366 0.73737
 H2375 H 0.37076 0.58743 0.70453
 H2376 H 0.39325 0.64867 0.72106
 C2377 C 1.08963 0.88726 0.73334
 C2378 C 1.10279 0.89751 0.74734
 C2379 C 1.12388 0.90003 0.74252
 C2380 C 1.13182 0.89227 0.72384
 C2381 C 1.11876 0.88183 0.70968
 C2382 C 1.09754 0.87946 0.71464
 C2383 C 1.09478 0.90518 0.76678
 C2384 C 1.08825 0.91150 0.78318
 C2385 C 1.08082 0.91880 0.80250
 C2386 C 1.07464 0.92493 0.81910
 H2387 H 1.07327 0.88525 0.73690
 H2388 H 1.13423 0.90787 0.75329
 H2389 H 1.14826 0.89409 0.72067
 H2390 H 1.08703 0.87175 0.70398
 C2391 C 1.10139 0.37526 0.24335
 C2392 C 1.10388 0.39637 0.24815
 C2393 C 1.11427 0.40950 0.23422
 C2394 C 1.12220 0.40155 0.21559
 C2395 C 1.11984 0.38032 0.21063
 C2396 C 1.10929 0.36728 0.22473
 C2397 C 1.09600 0.40443 0.26749
 C2398 C 1.08948 0.41100 0.28380
 C2399 C 1.08195 0.41848 0.30301
 C2400 C 1.07565 0.42473 0.31953
 H2401 H 1.09346 0.36494 0.25407
 H2402 H 1.11626 0.42588 0.23777
 H2403 H 1.12999 0.41204 0.20497
 H2404 H 1.10747 0.35084 0.22157
 C2405 C 0.62093 0.90551 0.23868
 C2406 C 0.60279 0.89713 0.24721
 C2407 C 0.59256 0.88093 0.23697
 C2408 C 0.60048 0.87298 0.21834
 C2409 C 0.61898 0.88107 0.20947
 C2410 C 0.62895 0.89766 0.22006
 C2411 C 0.59489 0.90492 0.26665
 C2412 C 0.58842 0.91132 0.28304
 C2413 C 0.58101 0.91868 0.30235
 C2414 C 0.57482 0.92484 0.31894
 H2415 H 0.62902 0.91807 0.24653
 H2416 H 0.57843 0.87434 0.24342
 H2417 H 0.59180 0.86057 0.21109
 H2418 H 0.64314 0.90462 0.21441
 C2419 C 0.59512 0.37809 0.73939
 C2420 C 0.60350 0.39620 0.74800
 C2421 C 0.61979 0.40640 0.73789
 C2422 C 0.62784 0.39848 0.71930
 C2423 C 0.61975 0.38001 0.71034
 C2424 C 0.60307 0.37007 0.72081
 C2425 C 0.59557 0.40412 0.76739
 C2426 C 0.58905 0.41062 0.78373
 C2427 C 0.58156 0.41807 0.80297
 C2428 C 0.57530 0.42432 0.81950
 H2429 H 0.58249 0.37003 0.74713
 H2430 H 0.62637 0.42050 0.74442
 H2431 H 0.64033 0.40713 0.71216
 H2432 H 0.59611 0.35591 0.71509
 C2433 C 1.26272 1.11982 1.09316
 C2434 C 1.25246 1.10360 1.10334
 C2435 C 1.26096 1.09522 1.12148
 C2436 C 1.27958 1.10308 1.12953
 C2437 C 1.29021 1.11967 1.11960
 C2438 C 1.28135 1.12777 1.10112
 C2439 C 1.23305 1.09576 1.09535
 C2440 C 1.21670 1.08929 1.08880
 C2441 C 1.19744 1.08185 1.08128
 C2442 C 1.18090 1.07559 1.07501
 H2443 H 1.25629 1.12641 1.07903
 H2444 H 1.25310 1.08264 1.12953
 H2445 H 1.28522 1.09612 1.14372
 H2446 H 1.28861 1.14019 1.09247
 C2447 C 1.26308 0.61930 0.59351
 C2448 C 1.25283 0.60313 0.60379
 C2449 C 1.26137 0.59481 0.62193
 C2450 C 1.28002 0.60269 0.62991
 C2451 C 1.29062 0.61923 0.61989
 C2452 C 1.28173 0.62727 0.60139
 C2453 C 1.23339 0.59528 0.59588
 C2454 C 1.21701 0.58883 0.58938
 C2455 C 1.19773 0.58141 0.58191
 C2456 C 1.18117 0.57519 0.57565
 H2457 H 1.25661 0.62584 0.57938
 H2458 H 1.25352 0.58228 0.63005
 H2459 H 1.28568 0.59579 0.64411
 H2460 H 1.28898 0.63965 0.59268
 C2461 C 0.76601 1.11400 0.59094
 C2462 C 0.75197 1.10365 0.60397
 C2463 C 0.75665 1.10114 0.62507
 C2464 C 0.77525 1.10901 0.63315
 C2465 C 0.78946 1.11955 0.62021
 C2466 C 0.78463 1.12191 0.59899
 C2467 C 0.73263 1.09582 0.59579
 C2468 C 0.71634 1.08934 0.58910
 C2469 C 0.69714 1.08187 0.58147
 C2470 C 0.68065 1.07558 0.57511
 H2471 H 0.76256 1.11600 0.57456
 H2472 H 0.74585 1.09322 0.63531
 H2473 H 0.77832 1.10718 0.64959
 H2474 H 0.79533 1.12968 0.58857
 C2475 C 0.75740 0.60065 1.12456
 C2476 C 0.75260 0.60321 1.10349
 C2477 C 0.76659 0.61356 1.09040
 C2478 C 0.78528 0.62139 1.09835
 C2479 C 0.79024 0.61895 1.11953
 C2480 C 0.77608 0.60844 1.13253
 C2481 C 0.73319 0.59545 1.09543
 C2482 C 0.71683 0.58902 1.08887
 C2483 C 0.69756 0.58160 1.08139
 C2484 C 0.68100 0.57536 1.07516
 H2485 H 0.74664 0.59274 1.13485
 H2486 H 0.76304 0.61561 1.07405
 H2487 H 0.79594 0.62915 1.08788
 H2488 H 0.77924 0.60656 1.14895
 C2489 C 1.26250 0.88051 0.90650
 C2490 C 1.25225 0.89671 0.89627
 C2491 C 1.26072 0.90501 0.87809
 C2492 C 1.27930 0.89708 0.87002
 C2493 C 1.28990 0.88050 0.87998
 C2494 C 1.28109 0.87249 0.89852
 C2495 C 1.23285 0.90458 0.90425
 C2496 C 1.21650 0.91105 0.91079
 C2497 C 1.19724 0.91848 0.91830
 C2498 C 1.18069 0.92470 0.92457
 H2499 H 1.25609 0.87399 0.92066
 H2500 H 1.25286 0.91757 0.87001
 H2501 H 1.28491 0.90397 0.85579
 H2502 H 1.28835 0.86009 0.90720
 C2503 C 1.26225 0.40623 0.37964
 C2504 C 1.25226 0.39610 0.39605
 C2505 C 1.26096 0.37805 0.40444
 C2506 C 1.27952 0.37002 0.39641
 C2507 C 1.28988 0.37990 0.37964
 C2508 C 1.28082 0.39830 0.37152
 C2509 C 1.23291 0.40405 0.40408
 C2510 C 1.21661 0.41057 0.41071
 C2511 C 1.19741 0.41806 0.41834
 C2512 C 1.18092 0.42435 0.42471
 H2513 H 1.25565 0.42029 0.37304
 H2514 H 1.25331 0.37004 0.41715
 H2515 H 1.28532 0.35591 0.40341
 H2516 H 1.28786 0.40689 0.35894
 C2517 C 0.75677 0.89881 0.37451
 C2518 C 0.75202 0.89632 0.39560
 C2519 C 0.76602 0.88597 0.40868
 C2520 C 0.78468 0.87808 0.40070
 C2521 C 0.78957 0.88044 0.37949
 C2522 C 0.77540 0.89095 0.36650
 C2523 C 0.73265 0.90414 0.40371
 C2524 C 0.71634 0.91061 0.41034
 C2525 C 0.69712 0.91808 0.41793
 C2526 C 0.68061 0.92436 0.42426
 H2527 H 0.74599 0.90672 0.36422
 H2528 H 0.76252 0.88399 0.42504
 H2529 H 0.79534 0.87032 0.41116
 H2530 H 0.77853 0.89278 0.35007
 C2531 C 0.76217 0.40622 0.87960
 C2532 C 0.75217 0.39610 0.89601
 C2533 C 0.76088 0.37806 0.90442
 C2534 C 0.77945 0.37004 0.89641
 C2535 C 0.78982 0.37991 0.87964
 C2536 C 0.78075 0.39829 0.87150
 C2537 C 0.73282 0.40405 0.90403
 C2538 C 0.71651 0.41057 0.91065
 C2539 C 0.69731 0.41805 0.91827
 C2540 C 0.68081 0.42432 0.92463
 H2541 H 0.75557 0.42027 0.87298
 H2542 H 0.75323 0.37007 0.91715
 H2543 H 0.78525 0.35594 0.90343
 H2544 H 0.78779 0.40688 0.85891
 C2545 C 0.74260 0.89942 1.12489
 C2546 C 0.74740 0.89689 1.10382
 C2547 C 0.73340 0.88658 1.09070
 C2548 C 0.71471 0.87874 1.09864
 C2549 C 0.70977 0.88113 1.11984
 C2550 C 0.72393 0.89162 1.13285
 C2551 C 0.76681 0.90464 1.09576
 C2552 C 0.78317 0.91105 1.08918
 C2553 C 0.80244 0.91844 1.08166
 C2554 C 0.81900 0.92465 1.07539
 H2555 H 0.75337 0.90731 1.13520
 H2556 H 0.73694 0.88457 1.07435
 H2557 H 0.70405 0.87100 1.08816
 H2558 H 0.72077 0.89346 1.14927
 C2559 C 0.73394 0.38603 0.59132
 C2560 C 0.74796 0.39637 0.60438
 C2561 C 0.74327 0.39883 0.62548
 C2562 C 0.72467 0.39092 0.63354
 C2563 C 0.71048 0.38040 0.62057
 C2564 C 0.71532 0.37809 0.59934
 C2565 C 0.76730 0.40424 0.59622
 C2566 C 0.78359 0.41073 0.58955
 C2567 C 0.80278 0.41822 0.58192
 C2568 C 0.81927 0.42453 0.57556
 H2569 H 0.73740 0.38407 0.57495
 H2570 H 0.75406 0.40673 0.63575
 H2571 H 0.72159 0.39271 0.64998
 H2572 H 0.70464 0.37032 0.58890
 C2573 C 0.23325 0.88668 0.59008
 C2574 C 0.24724 0.89701 0.60318
 C2575 C 0.24242 0.89961 0.62424
 C2576 C 0.22371 0.89186 0.63220
 C2577 C 0.20956 0.88136 0.61919
 C2578 C 0.21453 0.87890 0.59801
 C2579 C 0.26667 0.90473 0.59514
 C2580 C 0.28305 0.91112 0.58860
 C2581 C 0.30235 0.91849 0.58113
 C2582 C 0.31893 0.92468 0.57492
 H2583 H 0.23682 0.88461 0.57374
 H2584 H 0.25318 0.90751 0.63454
 H2585 H 0.22053 0.89376 0.64861
 H2586 H 0.20387 0.87114 0.58754
 C2587 C 0.23745 0.38029 1.09377
 C2588 C 0.24767 0.39651 1.10399
 C2589 C 0.23916 0.40483 1.12216
 C2590 C 0.22056 0.39689 1.13020
 C2591 C 0.20998 0.38030 1.12023
 C2592 C 0.21885 0.37226 1.10172
 C2593 C 0.26706 0.40444 1.09602
 C2594 C 0.28339 0.41095 1.08946
 C2595 C 0.30262 0.41845 1.08193
 C2596 C 0.31914 0.42473 1.07562
 H2597 H 0.24390 0.37375 1.07963
 H2598 H 0.24698 0.41740 1.13023
 H2599 H 0.21491 0.40380 1.14440
 H2600 H 0.21162 0.35984 1.09304
 C2601 C 0.73775 1.09383 0.87919
 C2602 C 0.74768 1.10386 0.89570
 C2603 C 0.73894 1.12185 0.90418
 C2604 C 0.72040 1.12991 0.89614
 C2605 C 0.71010 1.12013 0.87927
 C2606 C 0.71921 1.10180 0.87105
 C2607 C 0.76701 1.09587 0.90375
 C2608 C 0.78329 1.08933 0.91041
 C2609 C 0.80247 1.08183 0.91806
 C2610 C 0.81895 1.07553 0.92446
 H2611 H 0.74439 1.07982 0.87251
 H2612 H 0.74653 1.12977 0.91698
 H2613 H 0.71456 1.14396 0.90322
 H2614 H 0.71222 1.09329 0.85839
 C2615 C 0.74325 0.60060 0.37497
 C2616 C 0.74796 0.60306 0.39607
 C2617 C 0.73390 0.61331 0.40916
 C2618 C 0.71525 0.62117 0.40117
 C2619 C 0.71040 0.61888 0.37994
 C2620 C 0.72460 0.60843 0.36695
 C2621 C 0.76736 0.59533 0.40418
 C2622 C 0.78372 0.58896 0.41082
 C2623 C 0.80298 0.58162 0.41840
 C2624 C 0.81953 0.57543 0.42472
 H2625 H 0.75407 0.59276 0.36467
 H2626 H 0.73738 0.61527 0.42553
 H2627 H 0.70455 0.62888 0.41163
 H2628 H 0.72151 0.60665 0.35051
 C2629 C 0.23895 1.12181 0.40418
 C2630 C 0.24764 1.10377 0.39575
 C2631 C 0.23763 1.09368 0.37932
 C2632 C 0.21906 1.10165 0.37122
 C2633 C 0.21002 1.12004 0.37939
 C2634 C 0.22039 1.12987 0.39618
 C2635 C 0.26698 1.09579 0.40376
 C2636 C 0.28329 1.08925 0.41036
 C2637 C 0.30248 1.08174 0.41797
 C2638 C 0.31898 1.07545 0.42433
 H2639 H 0.24661 1.12978 0.41692
 H2640 H 0.24422 1.07964 0.37268
 H2641 H 0.21201 1.09309 0.35863
 H2642 H 0.21460 1.14397 0.40322
 C2643 C 0.23895 0.62125 0.90524
 C2644 C 0.24753 0.60312 0.89688
 C2645 C 0.23735 0.59289 0.88065
 C2646 C 0.21873 0.60081 0.87266
 C2647 C 0.20980 0.61930 0.88073
 C2648 C 0.22033 0.62925 0.89734
 C2649 C 0.26697 0.59522 0.90473
 C2650 C 0.28335 0.58875 0.91119
 C2651 C 0.30265 0.58135 0.91862
 C2652 C 0.31923 0.57515 0.92484
 H2653 H 0.24674 0.62932 0.91783
 H2654 H 0.24386 0.57878 0.87408
 H2655 H 0.21153 0.59213 0.86022
 H2656 H 0.21463 0.64344 0.90429
 C2657 C 1.11414 1.26634 1.09057
 C2658 C 1.10376 1.25234 1.10362
 C2659 C 1.10130 1.25704 1.12472
 C2660 C 1.10923 1.27563 1.13277
 C2661 C 1.11977 1.28981 1.11982
 C2662 C 1.12211 1.28496 1.09859
 C2663 C 1.09584 1.23302 1.09548
 C2664 C 1.08929 1.21672 1.08887
 C2665 C 1.08173 1.19752 1.08133
 C2666 C 1.07539 1.18101 1.07505
 H2667 H 1.11611 1.26287 1.07420
 H2668 H 1.09337 1.24626 1.13498
 H2669 H 1.10743 1.27872 1.14921
 H2670 H 1.12990 1.29563 1.08816
 C2671 C 1.10053 0.75771 0.62469
 C2672 C 1.10307 0.75283 0.60364
 C2673 C 1.11334 0.76681 0.59047
 C2674 C 1.12114 0.78555 0.59834
 C2675 C 1.11875 0.79058 0.61952
 C2676 C 1.10830 0.77644 0.63259
 C2677 C 1.09536 0.73336 0.59565
 C2678 C 1.08899 0.71696 0.58912
 C2679 C 1.08165 0.69764 0.58166
 C2680 C 1.07547 0.68105 0.57543
 H2681 H 1.09267 0.74696 0.63504
 H2682 H 1.11536 0.76320 0.57413
 H2683 H 1.12886 0.79619 0.58782
 H2684 H 1.10645 0.77966 0.64900
 C2685 C 0.61407 1.26614 0.59102
 C2686 C 0.60368 1.25210 0.60404
 C2687 C 0.60120 1.25677 0.62515
 C2688 C 0.60911 1.27535 0.63324
 C2689 C 0.61967 1.28955 0.62032
 C2690 C 0.62202 1.28474 0.59909
 C2691 C 0.59579 1.23279 0.59584
 C2692 C 0.58926 1.21651 0.58916
 C2693 C 0.58173 1.19733 0.58153
 C2694 C 0.57540 1.18084 0.57518
 H2695 H 0.61605 1.26270 0.57465
 H2696 H 0.59326 1.24597 0.63538
 H2697 H 0.60730 1.27841 0.64969
 H2698 H 0.62982 1.29544 0.58869
 C2699 C 0.61355 0.76672 1.09056
 C2700 C 0.60322 0.75270 1.10363
 C2701 C 0.60067 0.75747 1.12471
 C2702 C 0.60846 0.77614 1.13271
 C2703 C 0.61897 0.79032 1.11973
 C2704 C 0.62138 0.78540 1.09853
 C2705 C 0.59548 0.73329 1.09554
 C2706 C 0.58908 0.71693 1.08893
 C2707 C 0.58169 0.69766 1.08139
 C2708 C 0.57546 0.68110 1.07511
 H2709 H 0.61559 0.76319 1.07420
 H2710 H 0.59277 0.74668 1.13499
 H2711 H 0.60660 0.77928 1.14914
 H2712 H 0.62914 0.79608 1.08808
 C2713 C 0.88588 1.26627 0.90898
 C2714 C 0.89624 1.25225 0.89592
 C2715 C 0.89871 1.25695 0.87482
 C2716 C 0.89080 1.27555 0.86677
 C2717 C 0.88025 1.28973 0.87973
 C2718 C 0.87793 1.28488 0.90095
 C2719 C 0.90409 1.23290 0.90407
 C2720 C 0.91056 1.21659 0.91071
 C2721 C 0.91802 1.19737 0.91830
 C2722 C 0.92429 1.18085 0.92462
 H2723 H 0.88391 1.26280 0.92535
 H2724 H 0.90663 1.24616 0.86456
 H2725 H 0.89259 1.27863 0.85033
 H2726 H 0.87015 1.29556 0.91139
 C2727 C 0.88615 0.76632 0.40900
 C2728 C 0.89659 0.75234 0.39597
 C2729 C 0.89913 0.75706 0.37489
 C2730 C 0.89121 0.77566 0.36682
 C2731 C 0.88060 0.78981 0.37976
 C2732 C 0.87820 0.78493 0.40096
 C2733 C 0.90448 0.73301 0.40413
 C2734 C 0.91101 0.71672 0.41079
 C2735 C 0.91853 0.69753 0.41839
 C2736 C 0.92485 0.68103 0.42473
 H2737 H 0.88413 0.76283 0.42536
 H2738 H 0.90711 0.74631 0.36464
 H2739 H 0.89307 0.77876 0.35039
 H2740 H 0.87036 0.79559 0.41138
 C2741 C 0.38592 1.26621 0.40885
 C2742 C 0.39627 1.25220 0.39579
 C2743 C 0.39874 1.25691 0.37469
 C2744 C 0.39082 1.27552 0.36665
 C2745 C 0.38028 1.28969 0.37962
 C2746 C 0.37797 1.28483 0.40084
 C2747 C 0.40412 1.23285 0.40392
 C2748 C 0.41059 1.21653 0.41056
 C2749 C 0.41805 1.19731 0.41814
 C2750 C 0.42432 1.18078 0.42445
 H2751 H 0.38396 1.26273 0.42522
 H2752 H 0.40665 1.24613 0.36441
 H2753 H 0.39261 1.27861 0.35021
 H2754 H 0.37019 1.29551 0.41129
 C2755 C 0.37476 0.75696 0.89863
 C2756 C 0.39586 0.75221 0.89612
 C2757 C 0.40892 0.76618 0.88569
 C2758 C 0.40090 0.78480 0.87773
 C2759 C 0.37967 0.78970 0.88012
 C2760 C 0.36670 0.77556 0.89071
 C2761 C 0.40401 0.73288 0.90401
 C2762 C 0.41066 0.71659 0.91053
 C2763 C 0.41826 0.69740 0.91807
 C2764 C 0.42460 0.68090 0.92439
 H2765 H 0.36449 0.74621 0.90660
 H2766 H 0.42530 0.76268 0.88368
 H2767 H 0.41134 0.79544 0.86991
 H2768 H 0.35026 0.77868 0.89256
 C2769 C 1.12491 0.74278 0.89908
 C2770 C 1.10382 0.74754 0.89655
 C2771 C 1.09073 0.73355 0.88618
 C2772 C 1.09873 0.71490 0.87828
 C2773 C 1.11995 0.70998 0.88068
 C2774 C 1.13294 0.72414 0.89122
 C2775 C 1.09570 0.76691 0.90438
 C2776 C 1.08909 0.78323 0.91086
 C2777 C 1.08154 0.80246 0.91834
 C2778 C 1.07525 0.81899 0.92462
 H2779 H 1.13520 0.75354 0.90701
 H2780 H 1.07436 0.73707 0.88416
 H2781 H 1.08827 0.70424 0.87049
 H2782 H 1.14938 0.72101 0.89307
 C2783 C 1.10118 0.24306 0.37482
 C2784 C 1.10364 0.24770 0.39593
 C2785 C 1.11399 0.23364 0.40895
 C2786 C 1.12194 0.21505 0.40088
 C2787 C 1.11963 0.21027 0.37964
 C2788 C 1.10910 0.22448 0.36671
 C2789 C 1.09580 0.26703 0.40413
 C2790 C 1.08932 0.28333 0.41082
 C2791 C 1.08185 0.30253 0.41845
 C2792 C 1.07558 0.31904 0.42480
 H2793 H 1.09328 0.25388 0.36458
 H2794 H 1.11595 0.23707 0.42534
 H2795 H 1.12971 0.20434 0.41129
 H2796 H 1.10731 0.22145 0.35026
 C2797 C 0.59076 0.73354 0.38582
 C2798 C 0.60386 0.74751 0.39620
 C2799 C 0.62497 0.74274 0.39870
 C2800 C 0.63298 0.72412 0.39079
 C2801 C 0.61998 0.70999 0.38023
 C2802 C 0.59875 0.71490 0.37788
 C2803 C 0.59575 0.76687 0.40406
 C2804 C 0.58913 0.78319 0.41055
 C2805 C 0.58155 0.80241 0.41803
 C2806 C 0.57524 0.81893 0.42431
 H2807 H 0.57439 0.73706 0.38383
 H2808 H 0.63526 0.75349 0.40663
 H2809 H 0.64942 0.72098 0.39261
 H2810 H 0.58828 0.70426 0.37009
 C2811 C 0.60119 0.24309 0.87482
 C2812 C 0.60365 0.24768 0.89595
 C2813 C 0.61400 0.23359 0.90894
 C2814 C 0.62195 0.21501 0.90082
 C2815 C 0.61965 0.21028 0.87957
 C2816 C 0.60911 0.22452 0.86667
 C2817 C 0.59581 0.26699 0.90419
 C2818 C 0.58934 0.28327 0.91092
 C2819 C 0.58188 0.30246 0.91860
 C2820 C 0.57560 0.31895 0.92498
 H2821 H 0.59328 0.25393 0.86461
 H2822 H 0.61596 0.23697 0.92533
 H2823 H 0.62973 0.20428 0.91121
 H2824 H 0.60733 0.22153 0.85022
 C2825 C 0.89946 0.74251 1.12487
 C2826 C 0.89694 0.74734 1.10380
 C2827 C 0.88661 0.73336 1.09067
 C2828 C 0.87875 0.71466 1.09858
 C2829 C 0.88112 0.70969 1.11977
 C2830 C 0.89163 0.72382 1.13281
 C2831 C 0.90472 0.76676 1.09577
 C2832 C 0.91115 0.78312 1.08920
 C2833 C 0.91856 0.80240 1.08170
 C2834 C 0.92477 0.81896 1.07543
 H2835 H 0.90735 0.75325 1.13519
 H2836 H 0.88461 0.73694 1.07432
 H2837 H 0.87099 0.70402 1.08808
 H2838 H 0.89346 0.72063 1.14922
 C2839 C 0.89875 0.24312 0.62524
 C2840 C 0.89628 0.24784 0.60414
 C2841 C 0.88592 0.23382 0.59108
 C2842 C 0.87798 0.21520 0.59909
 C2843 C 0.88032 0.21033 0.62030
 C2844 C 0.89085 0.22450 0.63328
 C2845 C 0.90415 0.26718 0.59601
 C2846 C 0.91065 0.28349 0.58937
 C2847 C 0.91816 0.30270 0.58179
 C2848 C 0.92448 0.31921 0.57548
 H2849 H 0.90667 0.25390 0.63551
 H2850 H 0.88395 0.23731 0.57471
 H2851 H 0.87021 0.20452 0.58864
 H2852 H 0.89265 0.22140 0.64971
 C2853 C 0.39915 0.74255 0.62439
 C2854 C 0.39663 0.74730 0.60331
 C2855 C 0.38628 0.73329 0.59023
 C2856 C 0.37840 0.71463 0.59821
 C2857 C 0.38079 0.70972 0.61941
 C2858 C 0.39130 0.72390 0.63240
 C2859 C 0.40444 0.76668 0.59522
 C2860 C 0.41090 0.78303 0.58865
 C2861 C 0.41836 0.80229 0.58116
 C2862 C 0.42462 0.81884 0.57492
 H2863 H 0.40706 0.75332 0.63467
 H2864 H 0.38427 0.73681 0.57387
 H2865 H 0.37063 0.70396 0.58776
 H2866 H 0.39315 0.72077 0.64882
 C2867 C 0.39889 0.24285 1.12469
 C2868 C 0.39645 0.24766 1.10361
 C2869 C 0.38610 0.23371 1.09046
 C2870 C 0.37815 0.21504 1.09838
 C2871 C 0.38047 0.21008 1.11958
 C2872 C 0.39097 0.22420 1.13263
 C2873 C 0.40434 0.26704 1.09559
 C2874 C 0.41087 0.28338 1.08907
 C2875 C 0.41840 0.30263 1.08164
 C2876 C 0.42470 0.31919 1.07543
 H2877 H 0.40679 0.25358 1.13502
 H2878 H 0.38415 0.23727 1.07411
 H2879 H 0.37039 0.20441 1.08788
 H2880 H 0.39276 0.22104 1.14905
 C2881 C 1.09342 1.12041 0.73789
 C2882 C 1.10342 1.10393 0.74792
 C2883 C 1.12141 1.09537 0.73926
 C2884 C 1.12952 1.10332 0.72072
 C2885 C 1.11979 1.12017 0.71033
 C2886 C 1.10144 1.12846 0.71933
 C2887 C 1.09540 1.09598 0.76726
 C2888 C 1.08885 1.08942 0.78355
 C2889 C 1.08135 1.08185 0.80275
 C2890 C 1.07508 1.07552 0.81925
 H2891 H 1.07942 1.12714 0.74445
 H2892 H 1.12931 1.08259 0.74694
 H2893 H 1.14357 1.09619 0.71496
 H2894 H 1.09296 1.14111 0.71227
 C2895 C 1.09414 0.62084 0.23840
 C2896 C 1.10410 0.60428 0.24833
 C2897 C 1.12203 0.59568 0.23958
 C2898 C 1.13008 0.60364 0.22103
 C2899 C 1.12038 0.62056 0.21072
 C2900 C 1.10210 0.62890 0.21983
 C2901 C 1.09614 0.59630 0.26768
 C2902 C 1.08962 0.58969 0.28398
 C2903 C 1.08216 0.58209 0.30318
 C2904 C 1.07590 0.57573 0.31967
 H2905 H 1.08019 0.62760 0.24504
 H2906 H 1.12990 0.58284 0.24718
 H2907 H 1.14408 0.59646 0.21518
 H2908 H 1.09365 0.64161 0.21285
 C2909 C 0.61932 1.09344 0.23742
 C2910 C 0.60315 1.10372 0.24766
 C2911 C 0.59491 1.12196 0.23920
 C2912 C 0.60287 1.13004 0.22065
 C2913 C 0.61943 1.12003 0.21007
 C2914 C 0.62738 1.10142 0.21887
 C2915 C 0.59524 1.09573 0.26702
 C2916 C 0.58875 1.08916 0.28334
 C2917 C 0.58130 1.08162 0.30257
 C2918 C 0.57507 1.07532 0.31909
 H2919 H 0.62580 1.07924 0.24383
 H2920 H 0.58237 1.13008 0.24704
 H2921 H 0.59603 1.14431 0.21505
 H2922 H 0.63975 1.09270 0.21162
 C2923 C 0.62473 0.60090 0.74310
 C2924 C 0.60365 0.60343 0.74793
 C2925 C 0.59052 0.61384 0.73401
 C2926 C 0.59845 0.62173 0.71535
 C2927 C 0.61965 0.61931 0.71036
 C2928 C 0.63269 0.60876 0.72446
 C2929 C 0.59561 0.59556 0.76729
 C2930 C 0.58907 0.58904 0.78360
 C2931 C 0.58161 0.58152 0.80283
 C2932 C 0.57537 0.57522 0.81935
 H2933 H 0.63506 0.59296 0.75380
 H2934 H 0.57416 0.61586 0.73759
 H2935 H 0.58795 0.62953 0.70475
 H2936 H 0.64911 0.60690 0.72127
 C2937 C 0.87516 0.89909 0.74304
 C2938 C 0.89623 0.89652 0.74790
 C2939 C 0.90937 0.88614 0.73398
 C2940 C 0.90147 0.87830 0.71529
 C2941 C 0.88028 0.88074 0.71028
 C2942 C 0.86722 0.89127 0.72437
 C2943 C 0.90425 0.90432 0.76730
 C2944 C 0.91078 0.91079 0.78364
 C2945 C 0.91823 0.91825 0.80289
 C2946 C 0.92445 0.92451 0.81944
 H2947 H 0.86483 0.90701 0.75375
 H2948 H 0.92573 0.88410 0.73758
 H2949 H 0.91197 0.87051 0.70468
 H2950 H 0.85080 0.89316 0.72116
 C2951 C 0.88051 0.40626 0.23782
 C2952 C 0.89667 0.39596 0.24806
 C2953 C 0.90486 0.37769 0.23962
 C2954 C 0.89686 0.36961 0.22107
 C2955 C 0.88033 0.37966 0.21048
 C2956 C 0.87243 0.39828 0.21928
 C2957 C 0.90461 0.40397 0.26740
 C2958 C 0.91113 0.41057 0.28370
 C2959 C 0.91861 0.41815 0.30290
 C2960 C 0.92488 0.42450 0.31940
 H2961 H 0.87408 0.42049 0.24421
 H2962 H 0.91738 0.36955 0.24746
 H2963 H 0.90366 0.35531 0.21548
 H2964 H 0.86007 0.40703 0.21202
 C2965 C 0.37840 0.90474 0.23892
 C2966 C 0.39635 0.89616 0.24763
 C2967 C 0.40637 0.87968 0.23763
 C2968 C 0.39843 0.87167 0.21903
 C2969 C 0.38012 0.87998 0.20996
 C2970 C 0.37036 0.89683 0.22033
 C2971 C 0.40428 0.90407 0.26702
 C2972 C 0.41076 0.91061 0.28336
 C2973 C 0.41818 0.91813 0.30260
 C2974 C 0.42440 0.92443 0.31913
 H2975 H 0.37048 0.91752 0.24658
 H2976 H 0.42034 0.87293 0.24424
 H2977 H 0.40692 0.85902 0.21198
 H2978 H 0.35634 0.90398 0.21452
 C2979 C 0.40961 0.38544 0.73432
 C2980 C 0.39649 0.39585 0.74824
 C2981 C 0.37540 0.39837 0.74344
 C2982 C 0.36742 0.39049 0.72482
 C2983 C 0.38044 0.37994 0.71071
 C2984 C 0.40165 0.37752 0.71567
 C2985 C 0.40456 0.40375 0.76758
 C2986 C 0.41111 0.41030 0.78388
 C2987 C 0.41858 0.41787 0.80308
 C2988 C 0.42482 0.42422 0.81959
 H2989 H 0.42597 0.38343 0.73787
 H2990 H 0.36509 0.40632 0.75416
 H2991 H 0.35099 0.39235 0.72166
 H2992 H 0.41213 0.36972 0.70505
 C2993 C 1.11905 0.90734 1.26273
 C2994 C 1.10293 0.89704 1.25244
 C2995 C 1.09460 0.87885 1.26094
 C2996 C 1.10243 0.87086 1.27959
 C2997 C 1.11895 0.88089 1.29022
 C2998 C 1.12698 0.89944 1.28137
 C2999 C 1.09515 0.90494 1.23299
 C3000 C 1.08876 0.91142 1.21660
 C3001 C 1.08141 0.91885 1.19729
 C3002 C 1.07524 0.92506 1.18071
 H3003 H 1.12559 0.92150 1.25629
 H3004 H 1.08209 0.87072 1.25307
 H3005 H 1.09553 0.85663 1.28522
 H3006 H 1.13933 0.90817 1.28866
 C3007 C 1.09341 0.38029 0.76270
 C3008 C 1.10367 0.39647 0.75246
 C3009 C 1.12185 0.40479 0.76097
 C3010 C 1.12986 0.39691 0.77959
 C3011 C 1.11984 0.38036 0.79019
 C3012 C 1.10132 0.37231 0.78132
 C3013 C 1.09573 0.40433 0.73306
 C3014 C 1.08920 0.41080 0.71671
 C3015 C 1.08170 0.41825 0.69746
 C3016 C 1.07543 0.42450 0.68094
 H3017 H 1.07925 0.37375 0.75626
 H3018 H 1.12996 0.41733 0.75313
 H3019 H 1.14408 0.40381 0.78524
 H3020 H 1.09260 0.35993 0.78857
 C3021 C 0.62430 0.89963 0.75695
 C3022 C 0.60321 0.89714 0.75212
 C3023 C 0.59003 0.88686 0.76608
 C3024 C 0.59792 0.87901 0.78477
 C3025 C 0.61913 0.88135 0.78975
 C3026 C 0.63222 0.89181 0.77563
 C3027 C 0.59521 0.90489 0.73270
 C3028 C 0.58868 0.91128 0.71633
 C3029 C 0.58123 0.91865 0.69704
 C3030 C 0.57502 0.92484 0.68047
 H3031 H 0.63466 0.90748 0.74621
 H3032 H 0.57367 0.88488 0.76250
 H3033 H 0.58739 0.87129 0.79540
 H3034 H 0.64865 0.89361 0.77882
 C3035 C 0.59546 0.37827 1.26087
 C3036 C 0.60387 0.39638 1.25228
 C3037 C 0.62019 0.40653 1.26240
 C3038 C 0.62822 0.39857 1.28099
 C3039 C 0.62008 0.38012 1.28993
 C3040 C 0.60339 0.37022 1.27944
 C3041 C 0.59594 0.40436 1.23292
 C3042 C 0.58940 0.41091 1.21660
 C3043 C 0.58187 0.41842 1.19740
 C3044 C 0.57556 0.42471 1.18089
 H3045 H 0.58281 0.37025 1.25312
 H3046 H 0.62680 0.42062 1.25590
 H3047 H 0.64072 0.40719 1.28814
 H3048 H 0.59640 0.35607 1.28515
 C3049 C 0.89950 1.12453 1.25709
 C3050 C 0.89702 1.10343 1.25227
 C3051 C 0.88669 1.09027 1.26620
 C3052 C 0.87878 1.09819 1.28486
 C3053 C 0.88111 1.11941 1.28982
 C3054 C 0.89162 1.13248 1.27573
 C3055 C 0.90483 1.09541 1.23288
 C3056 C 0.91128 1.08888 1.21653
 C3057 C 0.91870 1.08143 1.19727
 C3058 C 0.92491 1.07522 1.18071
 H3059 H 0.90739 1.13489 1.24637
 H3060 H 0.88472 1.07389 1.26264
 H3061 H 0.87101 1.08767 1.29547
 H3062 H 0.89342 1.14893 1.27890
 C3063 C 0.88722 0.59006 0.76661
 C3064 C 0.89743 0.60332 0.75266
 C3065 C 0.89984 0.62441 0.75755
 C3066 C 0.89201 0.63227 0.77625
 C3067 C 0.88161 0.61911 0.79034
 C3068 C 0.87936 0.59789 0.78532
 C3069 C 0.90516 0.59537 0.73322
 C3070 C 0.91153 0.58886 0.71683
 C3071 C 0.91887 0.58141 0.69753
 C3072 C 0.92503 0.57519 0.68095
 H3073 H 0.88530 0.57369 0.76300
 H3074 H 0.90764 0.63483 0.74682
 H3075 H 0.89375 0.64871 0.77947
 H3076 H 0.87169 0.58730 0.79593
 C3077 C 0.38639 1.09089 0.76587
 C3078 C 0.39673 1.10400 0.75190
 C3079 C 0.39922 1.12512 0.75666
 C3080 C 0.39133 1.13313 0.77527
 C3081 C 0.38078 1.12012 0.78939
 C3082 C 0.37846 1.09887 0.78449
 C3083 C 0.40453 1.09589 0.73254
 C3084 C 0.41096 1.08926 0.71623
 C3085 C 0.41837 1.08167 0.69701
 C3086 C 0.42460 1.07534 0.68049
 H3087 H 0.38440 1.07451 0.76236
 H3088 H 0.40713 1.13543 0.74592
 H3089 H 0.39313 1.14959 0.77840
 H3090 H 0.37068 1.08839 0.79513
 C3091 C 0.40691 0.61993 1.26249
 C3092 C 0.39679 0.60360 1.25234
 C3093 C 0.37874 0.59511 1.26094
 C3094 C 0.37070 0.60298 1.27955
 C3095 C 0.38056 0.61969 1.29005
 C3096 C 0.39897 0.62790 1.28110
 C3097 C 0.40473 0.59575 1.23293
 C3098 C 0.41123 0.58928 1.21658
 C3099 C 0.41867 0.58183 1.19731
 C3100 C 0.42489 0.57559 1.18077
 H3101 H 0.42097 0.62660 1.25597
 H3102 H 0.37074 0.58244 1.25317
 H3103 H 0.35658 0.59593 1.28526
 H3104 H 0.40755 0.64042 1.28826
 C3105 C 1.09016 1.26637 0.88587
 C3106 C 1.10326 1.25239 0.89625
 C3107 C 1.12436 1.25714 0.89874
 C3108 C 1.13238 1.27577 0.89086
 C3109 C 1.11938 1.28992 0.88033
 C3110 C 1.09816 1.28501 0.87796
 C3111 C 1.09516 1.23303 0.90411
 C3112 C 1.08859 1.21671 0.91063
 C3113 C 1.08111 1.19746 0.91815
 C3114 C 1.07489 1.18092 0.92446
 H3115 H 1.07379 1.26285 0.88388
 H3116 H 1.13465 1.24639 0.90667
 H3117 H 1.14882 1.27890 0.89269
 H3118 H 1.08769 1.29567 0.87017
 C3119 C 1.10065 0.75742 0.37533
 C3120 C 1.10320 0.75272 0.39642
 C3121 C 1.11345 0.76683 0.40947
 C3122 C 1.12122 0.78552 0.40144
 C3123 C 1.11883 0.79035 0.38022
 C3124 C 1.10839 0.77609 0.36727
 C3125 C 1.09554 0.73330 0.40457
 C3126 C 1.08921 0.71694 0.41123
 C3127 C 1.08189 0.69766 0.41882
 C3128 C 1.07572 0.68110 0.42513
 H3129 H 1.09281 0.74657 0.36507
 H3130 H 1.11548 0.76336 0.42583
 H3131 H 1.12893 0.79625 0.41187
 H3132 H 1.10654 0.77917 0.35083
 C3133 C 0.59049 1.26625 0.38572
 C3134 C 0.60357 1.25225 0.39609
 C3135 C 0.62468 1.25697 0.39856
 C3136 C 0.63273 1.27558 0.39066
 C3137 C 0.61975 1.28975 0.38013
 C3138 C 0.59851 1.28488 0.37778
 C3139 C 0.59543 1.23291 0.40396
 C3140 C 0.58882 1.21660 0.41048
 C3141 C 0.58129 1.19738 0.41800
 C3142 C 0.57502 1.18085 0.42431
 H3143 H 0.57411 1.26276 0.38374
 H3144 H 0.63496 1.24620 0.40648
 H3145 H 0.64918 1.27868 0.39247
 H3146 H 0.58806 1.29555 0.37000
 C3147 C 0.61332 0.76666 0.90930
 C3148 C 0.60307 0.75263 0.89617
 C3149 C 0.60058 0.75741 0.87509
 C3150 C 0.60838 0.77610 0.86713
 C3151 C 0.61882 0.79029 0.88016
 C3152 C 0.62115 0.78536 0.90137
 C3153 C 0.59534 0.73320 0.90423
 C3154 C 0.58896 0.71682 0.91083
 C3155 C 0.58160 0.69754 0.91837
 C3156 C 0.57540 0.68098 0.92466
 H3157 H 0.61529 0.76313 0.92566
 H3158 H 0.59274 0.74662 0.86477
 H3159 H 0.60658 0.77925 0.85070
 H3160 H 0.62885 0.79604 0.91186
 C3161 C 0.90520 1.26132 1.12162
 C3162 C 0.89604 1.25221 1.10417
 C3163 C 0.87897 1.26180 1.09476
 C3164 C 0.87095 1.28036 1.10280
 C3165 C 0.87984 1.28984 1.12062
 C3166 C 0.89728 1.27989 1.12976
 C3167 C 0.90396 1.23285 1.09610
 C3168 C 0.91048 1.21655 1.08947
 C3169 C 0.91799 1.19734 1.08186
 C3170 C 0.92428 1.18085 1.07549
 H3171 H 0.91846 1.25401 1.12905
 H3172 H 0.87175 1.25486 1.08119
 H3173 H 0.85776 1.28699 1.09483
 H3174 H 0.90499 1.28608 1.14331
 C3175 C 0.87528 0.75733 0.60093
 C3176 C 0.89636 0.75249 0.60351
 C3177 C 0.90947 0.76643 0.61393
 C3178 C 0.90151 0.78511 0.62181
 C3179 C 0.88031 0.79010 0.61936
 C3180 C 0.86730 0.77599 0.60878
 C3181 C 0.90444 0.73310 0.59570
 C3182 C 0.91103 0.71676 0.58924
 C3183 C 0.91858 0.69751 0.58179
 C3184 C 0.92487 0.68098 0.57553
 H3185 H 0.86498 0.74661 0.59297
 H3186 H 0.92582 0.76286 0.61598
 H3187 H 0.91199 0.79573 0.62963
 H3188 H 0.85088 0.77919 0.60689
 C3189 C 0.40646 1.26238 0.62001
 C3190 C 0.39630 1.25234 0.60364
 C3191 C 0.37826 1.26104 0.59524
 C3192 C 0.37027 1.27964 0.60321
 C3193 C 0.38017 1.29005 0.61994
 C3194 C 0.39856 1.28099 0.62808
 C3195 C 0.40422 1.23294 0.59567
 C3196 C 0.41071 1.21660 0.58910
 C3197 C 0.41816 1.19736 0.58154
 C3198 C 0.42441 1.18082 0.57522
 H3199 H 0.42051 1.25578 0.62662
 H3200 H 0.37023 1.25335 0.58255
 H3201 H 0.35616 1.28544 0.59621
 H3202 H 0.40717 1.28807 0.64062
 C3203 C 0.40640 0.76262 1.12011
 C3204 C 0.39626 0.75252 1.10377
 C3205 C 0.37815 0.76114 1.09540
 C3206 C 0.37010 0.77972 1.10338
 C3207 C 0.38000 0.79018 1.12007
 C3208 C 0.39845 0.78121 1.12817
 C3209 C 0.40424 0.73315 1.09581
 C3210 C 0.41078 0.71683 1.08924
 C3211 C 0.41830 0.69761 1.08169
 C3212 C 0.42460 0.68109 1.07537
 H3213 H 0.42050 0.75609 1.12669
 H3214 H 0.37013 0.75340 1.08274
 H3215 H 0.35595 0.78544 1.09641
 H3216 H 0.40706 0.78834 1.14068
 C3217 C 0.87551 0.74208 0.89992
 C3218 C 0.89659 0.74698 0.89747
 C3219 C 0.90981 0.73304 0.88721
 C3220 C 0.90197 0.71432 0.87932
 C3221 C 0.88077 0.70929 0.88160
 C3222 C 0.86764 0.72337 0.89206
 C3223 C 0.90454 0.76644 0.90522
 C3224 C 0.91105 0.78285 0.91160
 C3225 C 0.91850 0.80217 0.91895
 C3226 C 0.92471 0.81877 0.92511
 H3227 H 0.86511 0.75280 0.90776
 H3228 H 0.92617 0.73666 0.88526
 H3229 H 0.91254 0.70372 0.87161
 H3230 H 0.85121 0.72014 0.89383
 C3231 C 0.88610 0.23373 0.40957
 C3232 C 0.89651 0.24770 0.39650
 C3233 C 0.89905 0.24291 0.37543
 C3234 C 0.89119 0.22427 0.36742
 C3235 C 0.88063 0.21013 0.38040
 C3236 C 0.87820 0.21507 0.40159
 C3237 C 0.90437 0.26706 0.40458
 C3238 C 0.91089 0.28339 0.41115
 C3239 C 0.91842 0.30263 0.41864
 C3240 C 0.92473 0.31916 0.42489
 H3241 H 0.88406 0.23727 0.42592
 H3242 H 0.90701 0.25366 0.36515
 H3243 H 0.89306 0.22112 0.35100
 H3244 H 0.87039 0.20442 0.41204
 C3245 C 0.40478 0.73882 0.37790
 C3246 C 0.39647 0.74727 0.39609
 C3247 C 0.38031 0.73697 0.40632
 C3248 C 0.37235 0.71834 0.39836
 C3249 C 0.38038 0.70953 0.37982
 C3250 C 0.39691 0.72019 0.36984
 C3251 C 0.40431 0.76669 0.40408
 C3252 C 0.41076 0.78305 0.41063
 C3253 C 0.41819 0.80232 0.41815
 C3254 C 0.42442 0.81887 0.42444
 H3255 H 0.41730 0.74671 0.36982
 H3256 H 0.37378 0.74337 0.42049
 H3257 H 0.35998 0.71105 0.40704
 H3258 H 0.40381 0.71460 0.35561
 C3259 C 0.40473 0.23900 0.87853
 C3260 C 0.39620 0.24756 0.89657
 C3261 C 0.37980 0.23741 0.90656
 C3262 C 0.37181 0.21883 0.89851
 C3263 C 0.38006 0.20992 0.88011
 C3264 C 0.39683 0.22043 0.87038
 C3265 C 0.40409 0.26693 0.90463
 C3266 C 0.41061 0.28325 0.91122
 C3267 C 0.41813 0.30248 0.91876
 C3268 C 0.42444 0.31900 0.92504
 H3269 H 0.41745 0.24677 0.87064
 H3270 H 0.37309 0.24390 0.92061
 H3271 H 0.35922 0.21167 0.90700
 H3272 H 0.40393 0.21474 0.85629
 C3273 C 1.09406 0.73794 1.12082
 C3274 C 1.10412 0.74795 1.10438
 C3275 C 1.12216 0.73927 1.09595
 C3276 C 1.13024 0.72073 1.10398
 C3277 C 1.12044 0.71035 1.12079
 C3278 C 1.10204 0.71939 1.12894
 C3279 C 1.09611 0.76728 1.09633
 C3280 C 1.08954 0.78356 1.08970
 C3281 C 1.08200 0.80274 1.08205
 C3282 C 1.07568 0.81921 1.07566
 H3283 H 1.08001 0.74452 1.12745
 H3284 H 1.13012 0.74692 1.08321
 H3285 H 1.14435 0.71495 1.09695
 H3286 H 1.09350 0.71234 1.14155
 C3287 C 1.12200 0.23907 0.59584
 C3288 C 1.10390 0.24770 0.60420
 C3289 C 1.09374 0.23762 0.62053
 C3290 C 1.10169 0.21903 0.62861
 C3291 C 1.12014 0.21005 0.62053
 C3292 C 1.13004 0.22050 0.60383
 C3293 C 1.09593 0.26707 0.59621
 C3294 C 1.08938 0.28338 0.58962
 C3295 C 1.08187 0.30260 0.58205
 C3296 C 1.07557 0.31910 0.57570
 H3297 H 1.13003 0.24680 0.58318
 H3298 H 1.07965 0.24415 0.62710
 H3299 H 1.09307 0.21192 0.64113
 H3300 H 1.14420 0.21476 0.59687
 C3301 C 0.62484 0.74271 0.60094
 C3302 C 0.60376 0.74756 0.60346
 C3303 C 0.59063 0.73365 0.61388
 C3304 C 0.59856 0.71499 0.62183
 C3305 C 0.61976 0.70999 0.61944
 C3306 C 0.63280 0.72407 0.60885
 C3307 C 0.59570 0.76693 0.59556
 C3308 C 0.58913 0.78325 0.58903
 C3309 C 0.58161 0.80247 0.58149
 C3310 C 0.57532 0.81899 0.57517
 H3311 H 0.63516 0.75341 0.59297
 H3312 H 0.57427 0.73724 0.61589
 H3313 H 0.58806 0.70440 0.62965
 H3314 H 0.64922 0.72087 0.60700
 C3315 C 0.59526 0.23916 1.12226
 C3316 C 0.60368 0.24772 1.10417
 C3317 C 0.62000 0.23755 1.09406
 C3318 C 0.62800 0.21895 1.10204
 C3319 C 0.61985 0.21003 1.12048
 C3320 C 0.60317 0.22056 1.13033
 C3321 C 0.59579 0.26711 1.09618
 C3322 C 0.58928 0.28345 1.08961
 C3323 C 0.58179 0.30269 1.08208
 C3324 C 0.57551 0.31922 1.07578
 H3325 H 0.58261 0.24695 1.13025
 H3326 H 0.62662 0.24404 1.07998
 H3327 H 0.64050 0.21176 1.09345
 H3328 H 0.59616 0.21488 1.14447
 C3329 C 1.25679 1.10130 0.87455
 C3330 C 1.25203 1.10374 0.89564
 C3331 C 1.26600 1.11408 0.90875
 C3332 C 1.28464 1.12204 0.90080
 C3333 C 1.28955 1.11975 0.87958
 C3334 C 1.27541 1.10923 0.86656
 C3335 C 1.23267 1.09586 0.90373
 C3336 C 1.21637 1.08935 0.91035
 C3337 C 1.19716 1.08186 0.91793
 C3338 C 1.18066 1.07556 0.92427
 H3339 H 1.24604 1.09339 0.86424
 H3340 H 1.26249 1.11603 0.92512
 H3341 H 1.29528 1.12981 0.91128
 H3342 H 1.27855 1.10745 0.85013
 C3343 C 1.25730 0.60077 0.37517
 C3344 C 1.25262 0.60327 0.39627
 C3345 C 1.26666 0.61360 0.40932
 C3346 C 1.28528 0.62151 0.40128
 C3347 C 1.29011 0.61917 0.38006
 C3348 C 1.27591 0.60865 0.36711
 C3349 C 1.23326 0.59546 0.40443
 C3350 C 1.21695 0.58902 0.41109
 C3351 C 1.19773 0.58159 0.41868
 C3352 C 1.18120 0.57535 0.42501
 H3353 H 1.24650 0.59287 0.36491
 H3354 H 1.26320 0.61559 0.42569
 H3355 H 1.29597 0.62928 0.41171
 H3356 H 1.27898 0.60684 0.35067
 C3357 C 0.75704 1.10090 0.37487
 C3358 C 0.75221 1.10339 0.39594
 C3359 C 0.76617 1.11373 0.40908
 C3360 C 0.78486 1.12161 0.40117
 C3361 C 0.78984 1.11926 0.37998
 C3362 C 0.77571 1.10876 0.36693
 C3363 C 0.73281 1.09558 0.40398
 C3364 C 0.71647 1.08912 0.41056
 C3365 C 0.69722 1.08167 0.41808
 C3366 C 0.68069 1.07541 0.42437
 H3367 H 0.74630 1.09300 0.36454
 H3368 H 0.76261 1.11571 0.42543
 H3369 H 0.79549 1.12937 0.41168
 H3370 H 0.77890 1.10694 0.35052
 C3371 C 0.76690 0.61241 0.90979
 C3372 C 0.75287 0.60224 0.89659
 C3373 C 0.75769 0.59982 0.87551
 C3374 C 0.77640 0.60763 0.86761
 C3375 C 0.79056 0.61801 0.88071
 C3376 C 0.78562 0.62024 0.90192
 C3377 C 0.73340 0.59458 0.90458
 C3378 C 0.71699 0.58827 0.91113
 C3379 C 0.69766 0.58102 0.91863
 C3380 C 0.68106 0.57491 0.92488
 H3381 H 0.76334 0.61434 0.92615
 H3382 H 0.74690 0.59205 0.86514
 H3383 H 0.77957 0.60589 0.85118
 H3384 H 0.79628 0.62790 0.91246
 C3385 C 1.25693 0.89899 1.12487
 C3386 C 1.25223 0.89652 1.10377
 C3387 C 1.26625 0.88617 1.09071
 C3388 C 1.28486 0.87822 1.09873
 C3389 C 1.28970 0.88054 1.11996
 C3390 C 1.27553 0.89107 1.13292
 C3391 C 1.23289 0.90438 1.09564
 C3392 C 1.21659 0.91087 1.08900
 C3393 C 1.19737 0.91835 1.08143
 C3394 C 1.18086 0.92463 1.07512
 H3395 H 1.24615 0.90690 1.13514
 H3396 H 1.26277 0.88420 1.07434
 H3397 H 1.29553 0.87044 1.08829
 H3398 H 1.27861 0.89287 1.14936
 C3399 C 1.25722 0.39891 0.62489
 C3400 C 1.25249 0.39648 0.60379
 C3401 C 1.26648 0.38616 0.59069
 C3402 C 1.28512 0.37821 0.59866
 C3403 C 1.29000 0.38050 0.61988
 C3404 C 1.27584 0.39100 0.63289
 C3405 C 1.23313 0.40434 0.59571
 C3406 C 1.21680 0.41083 0.58914
 C3407 C 1.19756 0.41831 0.58165
 C3408 C 1.18102 0.42459 0.57540
 H3409 H 1.24645 0.40680 0.63519
 H3410 H 1.26298 0.38422 0.57432
 H3411 H 1.29578 0.37046 0.58819
 H3412 H 1.27895 0.39277 0.64933
 C3413 C 0.75714 0.89957 0.62423
 C3414 C 0.75243 0.89711 0.60314
 C3415 C 0.76648 0.88686 0.59004
 C3416 C 0.78515 0.87900 0.59803
 C3417 C 0.79000 0.88131 0.61925
 C3418 C 0.77579 0.89175 0.63225
 C3419 C 0.73302 0.90484 0.59505
 C3420 C 0.71666 0.91123 0.58846
 C3421 C 0.69738 0.91859 0.58095
 C3422 C 0.68080 0.92478 0.57471
 H3423 H 0.74633 0.90741 0.63453
 H3424 H 0.76300 0.88489 0.57367
 H3425 H 0.79585 0.87129 0.58756
 H3426 H 0.77888 0.89353 0.64869
 C3427 C 0.75685 0.39878 1.12567
 C3428 C 0.75214 0.39632 1.10457
 C3429 C 0.76614 0.38592 1.09151
 C3430 C 0.78472 0.37793 1.09954
 C3431 C 0.78957 0.38024 1.12077
 C3432 C 0.77542 0.39082 1.13373
 C3433 C 0.73283 0.40422 1.09641
 C3434 C 0.71655 0.41074 1.08973
 C3435 C 0.69737 0.41825 1.08210
 C3436 C 0.68088 0.42455 1.07574
 H3437 H 0.74608 0.40673 1.13593
 H3438 H 0.76267 0.38396 1.07514
 H3439 H 0.79538 0.37012 1.08911
 H3440 H 0.77851 0.39261 1.15017
 C3441 C 0.73376 1.11415 1.09123
 C3442 C 0.74773 1.10373 1.10429
 C3443 C 0.74298 1.10122 1.12537
 C3444 C 0.72439 1.10915 1.13341
 C3445 C 0.71026 1.11975 1.12045
 C3446 C 0.71515 1.12212 1.09924
 C3447 C 0.76706 1.09584 1.09615
 C3448 C 0.78335 1.08932 1.08950
 C3449 C 0.80254 1.08181 1.08190
 C3450 C 0.81903 1.07551 1.07555
 H3451 H 0.73726 1.11615 1.07487
 H3452 H 0.75373 1.09325 1.13564
 H3453 H 0.72127 1.10731 1.14984
 H3454 H 0.70451 1.12994 1.08880
 C3455 C 0.74286 0.60047 0.62448
 C3456 C 0.74760 0.60294 0.60339
 C3457 C 0.73356 0.61319 0.59028
 C3458 C 0.71489 0.62105 0.59824
 C3459 C 0.71001 0.61874 0.61945
 C3460 C 0.72420 0.60830 0.63247
 C3461 C 0.76701 0.59520 0.59532
 C3462 C 0.78338 0.58881 0.58875
 C3463 C 0.80267 0.58145 0.58127
 C3464 C 0.81925 0.57526 0.57505
 H3465 H 0.75366 0.59263 0.63479
 H3466 H 0.73707 0.61516 0.57391
 H3467 H 0.70420 0.62877 0.58776
 H3468 H 0.72109 0.60651 0.64891
 C3469 C 0.23374 1.11395 0.59114
 C3470 C 0.24776 1.10356 0.60417
 C3471 C 0.24307 1.10108 0.62527
 C3472 C 0.22450 1.10902 0.63335
 C3473 C 0.21033 1.11959 0.62041
 C3474 C 0.21515 1.12192 0.59919
 C3475 C 0.26707 1.09568 0.59600
 C3476 C 0.28336 1.08918 0.58932
 C3477 C 0.30255 1.08169 0.58169
 C3478 C 0.31904 1.07540 0.57534
 H3479 H 0.23720 1.11592 0.57476
 H3480 H 0.25385 1.09314 0.63553
 H3481 H 0.22143 1.10721 0.64979
 H3482 H 0.20448 1.12973 0.58876
 C3483 C 0.23404 0.61431 1.09127
 C3484 C 0.24809 0.60394 1.10429
 C3485 C 0.24345 0.60149 1.12541
 C3486 C 0.22489 0.60943 1.13351
 C3487 C 0.21069 0.61997 1.12059
 C3488 C 0.21546 0.62228 1.09935
 C3489 C 0.26739 0.59607 1.09609
 C3490 C 0.28367 0.58957 1.08940
 C3491 C 0.30285 0.58206 1.08176
 C3492 C 0.31934 0.57575 1.07541
 H3493 H 0.23746 0.61627 1.07489
 H3494 H 0.25426 0.59357 1.13564
 H3495 H 0.22186 0.60764 1.14996
 H3496 H 0.20476 0.63007 1.08894
 C3497 C 0.73323 0.88641 0.90973
 C3498 C 0.74728 0.89672 0.89666
 C3499 C 0.74254 0.89927 0.87558
 C3500 C 0.72388 0.89149 0.86756
 C3501 C 0.70967 0.88102 0.88053
 C3502 C 0.71455 0.87860 0.90173
 C3503 C 0.76667 0.90446 0.90477
 C3504 C 0.78303 0.91087 0.91136
 C3505 C 0.80229 0.91828 0.91887
 C3506 C 0.81885 0.92451 0.92511
 H3507 H 0.73673 0.88438 0.92609
 H3508 H 0.75335 0.90714 0.86531
 H3509 H 0.72076 0.89335 0.85113
 H3510 H 0.70385 0.87086 0.91218
 C3511 C 0.73419 0.40951 0.38560
 C3512 C 0.74812 0.39640 0.39602
 C3513 C 0.74333 0.37529 0.39850
 C3514 C 0.72472 0.36728 0.39057
 C3515 C 0.71062 0.38030 0.38000
 C3516 C 0.71556 0.40153 0.37763
 C3517 C 0.76744 0.40449 0.40396
 C3518 C 0.78374 0.41106 0.41054
 C3519 C 0.80294 0.41856 0.41814
 C3520 C 0.81944 0.42481 0.42450
 H3521 H 0.73773 0.42589 0.38362
 H3522 H 0.75405 0.36498 0.40646
 H3523 H 0.72157 0.35084 0.39240
 H3524 H 0.70494 0.41201 0.36981
 C3525 C 0.24240 0.89945 0.37508
 C3526 C 0.24714 0.89694 0.39616
 C3527 C 0.23310 0.88668 0.40926
 C3528 C 0.21441 0.87885 0.40129
 C3529 C 0.20953 0.88120 0.38007
 C3530 C 0.22373 0.89165 0.36707
 C3531 C 0.26656 0.90466 0.40426
 C3532 C 0.28292 0.91103 0.41087
 C3533 C 0.30219 0.91838 0.41841
 C3534 C 0.31876 0.92457 0.42468
 H3535 H 0.25321 0.90729 0.36478
 H3536 H 0.23660 0.88468 0.42562
 H3537 H 0.20372 0.87114 0.41175
 H3538 H 0.22062 0.89346 0.35064
 C3539 C 0.24290 0.37539 0.89891
 C3540 C 0.24773 0.39648 0.89644
 C3541 C 0.23383 0.40963 0.88604
 C3542 C 0.21518 0.40170 0.87807
 C3543 C 0.21019 0.38048 0.88042
 C3544 C 0.22428 0.36743 0.89098
 C3545 C 0.26708 0.40452 0.90437
 C3546 C 0.28340 0.41105 0.91093
 C3547 C 0.30263 0.41850 0.91849
 C3548 C 0.31916 0.42473 0.92482
 H3549 H 0.25360 0.36505 0.90686
 H3550 H 0.23740 0.42600 0.88406
 H3551 H 0.20458 0.41221 0.87026
 H3552 H 0.22109 0.35098 0.89280
   
