data_POSCAR
  _audit_creation_date              2014-09-24
  _audit_creation_method            'ToBaCCo'
  _symmetry_space_group_name_H-M    'P1'
  _symmetry_Int_Tables_number       1
  _symmetry_cell_setting            triclinic
  loop_
  _symmetry_equiv_pos_as_xyz
 x,y,z
_cell_length_a 97.6241
_cell_length_b 97.5447
_cell_length_c 97.6165
_cell_angle_alpha 90.059900
_cell_angle_beta 90.046900
_cell_angle_gamma 90.037300
loop_
  _atom_site_label
  _atom_site_type_symbol
  _atom_site_fract_x
  _atom_site_fract_y
  _atom_site_fract_z
N1 N 0.31241 0.42815 0.89976
 N2 N 0.32195 0.43766 0.89989
 C3 C 0.31961 0.44649 0.88954
 C4 C 0.30795 0.44233 0.88254
 C5 C 0.30371 0.43060 0.88935
 H6 H 0.32589 0.45534 0.88737
 H7 H 0.29488 0.42433 0.88705
 Cu8 Cu 0.33633 0.43767 0.91373
 Cu9 Cu 0.31169 0.41354 0.91332
 Cu10 Cu 0.33683 0.41361 0.93838
 N11 N 0.35020 0.43774 0.92808
 N12 N 0.35037 0.42825 0.93761
 C13 C 0.36081 0.43071 0.94627
 C14 C 0.36764 0.44248 0.94203
 C15 C 0.36054 0.44660 0.93037
 H16 H 0.36310 0.42440 0.95505
 H17 H 0.36264 0.45542 0.92403
 N18 N 0.32225 0.39966 0.93745
 N19 N 0.31268 0.39963 0.92791
 C20 C 0.30402 0.38914 0.93028
 C21 C 0.30829 0.38220 0.94192
 C22 C 0.31993 0.38919 0.94614
 H23 H 0.29514 0.38688 0.92408
 H24 H 0.32616 0.38698 0.95501
 H25 H 0.32139 0.42443 0.92872
 H26 H 0.33239 0.41331 0.91770
 N27 N 0.42895 0.85002 0.43835
 N28 N 0.43819 0.85022 0.42859
 C29 C 0.44654 0.86104 0.43055
 C30 C 0.44237 0.86802 0.44226
 C31 C 0.43107 0.86067 0.44685
 H32 H 0.45514 0.86344 0.42403
 H33 H 0.42497 0.86262 0.45587
 Cu34 Cu 0.43886 0.83588 0.41467
 Cu35 Cu 0.41560 0.83533 0.43999
 Cu36 Cu 0.41392 0.81197 0.41338
 N37 N 0.43833 0.82198 0.40033
 N38 N 0.42848 0.81282 0.39979
 C39 C 0.43068 0.80438 0.38912
 C40 C 0.44260 0.80840 0.38254
 C41 C 0.44714 0.81967 0.38996
 H42 H 0.42415 0.79582 0.38651
 H43 H 0.45625 0.82566 0.38810
 N44 N 0.40023 0.81271 0.42820
 N45 N 0.40094 0.82155 0.43841
 C46 C 0.39062 0.81905 0.44721
 C47 C 0.38307 0.80800 0.44241
 C48 C 0.38948 0.80432 0.43028
 H49 H 0.38895 0.82470 0.45658
 H50 H 0.38672 0.79594 0.42357
 H51 H 0.42555 0.82009 0.42880
 H52 H 0.41461 0.83247 0.41911
 N53 N 0.92875 0.90072 0.81185
 N54 N 0.93774 0.90029 0.82186
 C55 C 0.94630 0.88967 0.81974
 C56 C 0.94249 0.88308 0.80771
 C57 C 0.93124 0.89040 0.80305
 H58 H 0.95485 0.88712 0.82630
 H59 H 0.92537 0.88857 0.79385
 Cu60 Cu 0.93775 0.91421 0.83619
 Cu61 Cu 0.91516 0.91525 0.81039
 Cu62 Cu 0.91345 0.93859 0.83707
 N63 N 0.93780 0.92840 0.85023
 N64 N 0.92817 0.93779 0.85057
 C65 C 0.93065 0.94644 0.86103
 C66 C 0.94256 0.94234 0.86767
 C67 C 0.94677 0.93078 0.86046
 H68 H 0.92419 0.95508 0.86348
 H69 H 0.95577 0.92463 0.86235
 N70 N 0.89967 0.93771 0.82229
 N71 N 0.90038 0.92888 0.81207
 C72 C 0.88989 0.93117 0.80341
 C73 C 0.88221 0.94207 0.80832
 C74 C 0.88874 0.94590 0.82036
 H75 H 0.88816 0.92548 0.79408
 H76 H 0.88591 0.95419 0.82711
 H77 H 0.92522 0.93029 0.82186
 H78 H 0.91373 0.91816 0.83124
 N79 N 0.42818 -0.10005 0.31218
 N80 N 0.43796 -0.09960 0.32141
 C81 C 0.44678 -0.10996 0.31912
 C82 C 0.44237 -0.11728 0.30774
 C83 C 0.43046 -0.11068 0.30368
 H84 H 0.45582 -0.11191 0.32519
 H85 H 0.42400 -0.11322 0.29506
 Cu86 Cu 0.43836 -0.08540 0.33541
 Cu87 Cu 0.41364 -0.08642 0.31133
 Cu88 Cu 0.41546 -0.05978 0.33477
 N89 N 0.43780 -0.07154 0.34976
 N90 N 0.42872 -0.06162 0.34951
 C91 C 0.43090 -0.05320 0.36021
 C92 C 0.44202 -0.05803 0.36761
 C93 C 0.44606 -0.06978 0.36068
 H94 H 0.42499 -0.04406 0.36220
 H95 H 0.45453 -0.07643 0.36322
 N96 N 0.40084 -0.06128 0.32096
 N97 N 0.40007 -0.07149 0.31213
 C98 C 0.38927 -0.06939 0.30381
 C99 C 0.38292 -0.05724 0.30755
 C100 C 0.39053 -0.05247 0.31856
 H101 H 0.38642 -0.07611 0.29548
 H102 H 0.38887 -0.04313 0.32426
 H103 H 0.42524 -0.07107 0.31953
 H104 H 0.41416 -0.08063 0.33182
 N105 N 0.81149 0.32120 0.34931
 N106 N 0.82126 0.31194 0.34950
 C107 C 0.81897 0.30322 0.35994
 C108 C 0.80718 0.30730 0.36676
 C109 C 0.80277 0.31880 0.35969
 H110 H 0.82538 0.29453 0.36233
 H111 H 0.79374 0.32486 0.36172
 Cu112 Cu 0.83591 0.31201 0.33594
 Cu113 Cu 0.81039 0.33513 0.33512
 Cu114 Cu 0.83541 0.33509 0.31037
 N115 N 0.84968 0.31193 0.32149
 N116 N 0.84961 0.32116 0.31169
 C117 C 0.86016 0.31880 0.30317
 C118 C 0.86723 0.30735 0.30774
 C119 C 0.86021 0.30326 0.31941
 H120 H 0.86234 0.32486 0.29417
 H121 H 0.86254 0.29462 0.32589
 N122 N 0.82153 0.34968 0.31175
 N123 N 0.81193 0.34969 0.32125
 C124 C 0.80365 0.36053 0.31924
 C125 C 0.80818 0.36770 0.30785
 C126 C 0.81960 0.36051 0.30343
 H127 H 0.79479 0.36282 0.32545
 H128 H 0.82590 0.36277 0.29463
 H129 H 0.82061 0.32388 0.32048
 H130 H 0.83121 0.33591 0.33117
 N131 N -0.17866 0.85012 0.81160
 N132 N -0.18806 0.85011 0.82121
 C133 C -0.19682 0.86053 0.81894
 C134 C -0.19272 0.86750 0.80720
 C135 C -0.18108 0.86053 0.80290
 H136 H -0.20555 0.86275 0.82533
 H137 H -0.17483 0.86268 0.79403
 Cu138 Cu -0.18812 0.83630 0.83564
 Cu139 Cu -0.16422 0.83640 0.81079
 Cu140 Cu -0.16439 0.81127 0.83579
 N141 N -0.18827 0.82180 0.84936
 N142 N -0.17893 0.81212 0.84938
 C143 C -0.18153 0.80331 0.85965
 C144 C -0.19321 0.80763 0.86649
 C145 C -0.19716 0.81946 0.85964
 H146 H -0.17544 0.79434 0.86181
 H147 H -0.20593 0.82582 0.86186
 N148 N -0.15052 0.81209 0.82118
 N149 N -0.15045 0.82165 0.81165
 C150 C -0.14006 0.81917 0.80292
 C151 C -0.13324 0.80743 0.80710
 C152 C -0.14018 0.80328 0.81877
 H153 H -0.13778 0.82537 0.79405
 H154 H -0.13803 0.79437 0.82496
 H155 H -0.17529 0.82114 0.82053
 H156 H -0.16389 0.83198 0.83149
 N157 N 0.93802 0.35023 0.42848
 N158 N 0.92842 0.35015 0.43788
 C159 C 0.93070 0.36052 0.44672
 C160 C 0.94243 0.36752 0.44268
 C161 C 0.94672 0.36064 0.43097
 H162 H 0.92430 0.36267 0.45548
 H163 H 0.95558 0.36284 0.42473
 Cu164 Cu 0.91400 0.33634 0.43785
 Cu165 Cu 0.93882 0.33664 0.41390
 Cu166 Cu 0.91387 0.31143 0.41393
 N167 N 0.90035 0.32177 0.43792
 N168 N 0.90034 0.31213 0.42852
 C169 C 0.89009 0.30328 0.43108
 C170 C 0.88327 0.30752 0.44280
 C171 C 0.89009 0.31935 0.44682
 H172 H 0.88794 0.29433 0.42493
 H173 H 0.88787 0.32567 0.45563
 N174 N 0.92843 0.31241 0.40001
 N175 N 0.93795 0.32201 0.40000
 C176 C 0.94662 0.31967 0.38954
 C177 C 0.94241 0.30800 0.38259
 C178 C 0.93080 0.30371 0.38956
 H179 H 0.95548 0.32591 0.38730
 H180 H 0.92463 0.29479 0.38735
 H181 H 0.91814 0.33218 0.41356
 H182 H 0.92913 0.32131 0.42486
 N183 N 0.43750 0.42799 0.85021
 N184 N 0.42806 0.43757 0.85001
 C185 C 0.43039 0.44640 0.86036
 C186 C 0.44196 0.44214 0.86746
 C187 C 0.44614 0.43037 0.86068
 H188 H 0.42424 0.45536 0.86244
 H189 H 0.45493 0.42407 0.86301
 Cu190 Cu 0.41403 0.43784 0.83582
 Cu191 Cu 0.43831 0.41346 0.83655
 Cu192 Cu 0.41321 0.41348 0.81145
 N193 N 0.39983 0.43759 0.82182
 N194 N 0.39959 0.42804 0.81233
 C195 C 0.38908 0.43044 0.80375
 C196 C 0.38233 0.44219 0.80801
 C197 C 0.38947 0.44642 0.81957
 H198 H 0.38671 0.42416 0.79494
 H199 H 0.38743 0.45535 0.82578
 N200 N 0.42786 0.39962 0.81231
 N201 N 0.43741 0.39962 0.82188
 C202 C 0.44610 0.38917 0.81952
 C203 C 0.44189 0.38224 0.80784
 C204 C 0.43024 0.38917 0.80361
 H205 H 0.45494 0.38691 0.82576
 H206 H 0.42401 0.38691 0.79474
 H207 H 0.42879 0.42425 0.82099
 H208 H 0.41761 0.41343 0.83215
 N209 N 0.81210 0.90014 0.92825
 N210 N 0.82170 0.90030 0.93767
 C211 C 0.81938 0.89005 0.94662
 C212 C 0.80765 0.88307 0.94261
 C213 C 0.80337 0.88980 0.93085
 H214 H 0.82566 0.88797 0.95550
 H215 H 0.79444 0.88752 0.92471
 Cu216 Cu 0.83596 0.91425 0.93773
 Cu217 Cu 0.81128 0.91369 0.91363
 Cu218 Cu 0.83652 0.93869 0.91342
 N219 N 0.85005 0.92836 0.93743
 N220 N 0.85020 0.93788 0.92792
 C221 C 0.86071 0.94649 0.93031
 C222 C 0.86755 0.94221 0.94201
 C223 C 0.86047 0.93062 0.94621
 H224 H 0.86303 0.95531 0.92405
 H225 H 0.86260 0.92439 0.95510
 N226 N 0.82181 0.93777 0.89963
 N227 N 0.81221 0.92826 0.89971
 C228 C 0.80344 0.93066 0.88934
 C229 C 0.80768 0.94228 0.88236
 C230 C 0.81940 0.94648 0.88922
 H231 H 0.79448 0.92452 0.88721
 H232 H 0.82561 0.95536 0.88697
 H233 H 0.83197 0.91798 0.91329
 H234 H 0.82104 0.92915 0.92428
 N235 N 0.31202 0.84965 0.32112
 N236 N 0.32156 0.84947 0.31165
 C237 C 0.31922 0.85973 0.30272
 C238 C 0.30751 0.86670 0.30676
 C239 C 0.30328 0.85998 0.31854
 H240 H 0.32547 0.86184 0.29383
 H241 H 0.29440 0.86224 0.32470
 Cu242 Cu 0.33579 0.83549 0.31167
 Cu243 Cu 0.31117 0.83609 0.33571
 Cu244 Cu 0.33632 0.81105 0.33593
 N245 N 0.34987 0.82137 0.31193
 N246 N 0.35002 0.81188 0.32146
 C247 C 0.36051 0.80327 0.31910
 C248 C 0.36737 0.80753 0.30742
 C249 C 0.36030 0.81911 0.30318
 H250 H 0.36281 0.79446 0.32537
 H251 H 0.36247 0.82536 0.29430
 N252 N 0.32160 0.81196 0.34968
 N253 N 0.31204 0.82150 0.34960
 C254 C 0.30323 0.81911 0.35993
 C255 C 0.30738 0.80743 0.36687
 C256 C 0.31912 0.80323 0.36007
 H257 H 0.29432 0.82530 0.36205
 H258 H 0.32529 0.79434 0.36233
 H259 H 0.33184 0.83172 0.33603
 H260 H 0.32085 0.82057 0.32503
 N261 N 0.81196 0.40024 0.42858
 N262 N 0.82155 0.40041 0.43803
 C263 C 0.81918 0.39020 0.44700
 C264 C 0.80743 0.38324 0.44300
 C265 C 0.80318 0.38993 0.43121
 H266 H 0.82547 0.38812 0.45586
 H267 H 0.79428 0.38765 0.42505
 Cu268 Cu 0.83599 0.41417 0.43788
 Cu269 Cu 0.81122 0.41369 0.41389
 Cu270 Cu 0.83641 0.43872 0.41370
 N271 N 0.84985 0.42852 0.43780
 N272 N 0.84999 0.43802 0.42828
 C273 C 0.86042 0.44671 0.43070
 C274 C 0.86723 0.44250 0.44243
 C275 C 0.86021 0.43087 0.44662
 H276 H 0.86272 0.45553 0.42442
 H277 H 0.86238 0.42462 0.45549
 N278 N 0.82179 0.43771 0.39982
 N279 N 0.81220 0.42819 0.39988
 C280 C 0.80349 0.43052 0.38944
 C281 C 0.80776 0.44212 0.38244
 C282 C 0.81944 0.44635 0.38934
 H283 H 0.79458 0.42434 0.38726
 H284 H 0.82567 0.45521 0.38706
 H285 H 0.83190 0.41799 0.41354
 H286 H 0.82098 0.42910 0.42466
 N287 N 0.92824 0.84964 -0.06212
 N288 N 0.93807 0.84917 -0.07128
 C289 C 0.94690 0.85951 -0.06893
 C290 C 0.94243 0.86685 -0.05761
 C291 C 0.93049 0.86027 -0.05362
 H292 H 0.95601 0.86139 -0.07491
 H293 H 0.92400 0.86282 -0.04503
 Cu294 Cu 0.93859 0.83492 -0.08520
 Cu295 Cu 0.91370 0.83600 -0.06133
 Cu296 Cu 0.91562 0.80931 -0.08465
 N297 N 0.93807 0.82101 -0.09950
 N298 N 0.92899 0.81109 -0.09929
 C299 C 0.93134 0.80254 -0.10984
 C300 C 0.94258 0.80730 -0.11709
 C301 C 0.94652 0.81912 -0.11023
 H302 H 0.92550 0.79332 -0.11178
 H303 H 0.95509 0.82570 -0.11263
 N304 N 0.90091 0.81085 -0.07097
 N305 N 0.90010 0.82108 -0.06217
 C306 C 0.88927 0.81900 -0.05390
 C307 C 0.88293 0.80683 -0.05763
 C308 C 0.89058 0.80203 -0.06859
 H309 H 0.88640 0.82573 -0.04560
 H310 H 0.88896 0.79265 -0.07425
 H311 H 0.92541 0.82064 -0.06939
 H312 H 0.91439 0.83018 -0.08179
 N313 N 0.31219 0.35012 0.82181
 N314 N 0.32181 0.35002 0.81240
 C315 C 0.31988 0.36073 0.80392
 C316 C 0.30837 0.36791 0.80817
 C317 C 0.30382 0.36085 0.81962
 H318 H 0.32625 0.36293 0.79515
 H319 H 0.29490 0.36309 0.82576
 Cu320 Cu 0.33564 0.33559 0.81173
 Cu321 Cu 0.31061 0.33567 0.83544
 Cu322 Cu 0.33551 0.31066 0.83554
 N323 N 0.34999 0.32169 0.81253
 N324 N 0.35000 0.31211 0.82198
 C325 C 0.36069 0.30367 0.81989
 C326 C 0.36782 0.30813 0.80844
 C327 C 0.36072 0.31966 0.80410
 H328 H 0.36285 0.29476 0.82607
 H329 H 0.36299 0.32597 0.79530
 N330 N 0.32142 0.31207 0.84993
 N331 N 0.31189 0.32164 0.84990
 C332 C 0.30353 0.31966 0.86068
 C333 C 0.30792 0.30821 0.86785
 C334 C 0.31937 0.30374 0.86074
 H335 H 0.29473 0.32597 0.86295
 H336 H 0.32563 0.29492 0.86307
 H337 H 0.33135 0.33143 0.83582
 H338 H 0.32038 0.32045 0.82454
 N339 N 0.15029 0.57169 0.56176
 N340 N 0.15054 0.56211 0.57119
 C341 C 0.14023 0.55321 0.56883
 C342 C 0.13314 0.55743 0.55725
 C343 C 0.13985 0.56925 0.55310
 H344 H 0.13819 0.54424 0.57498
 H345 H 0.13752 0.57554 0.54430
 Cu346 Cu 0.16468 0.56194 0.58525
 Cu347 Cu 0.16390 0.58630 0.56098
 Cu348 Cu 0.18904 0.58625 0.58613
 N349 N 0.17873 0.56205 0.59940
 N350 N 0.18820 0.57161 0.59969
 C351 C 0.19682 0.56913 0.61015
 C352 C 0.19261 0.55731 0.61682
 C353 C 0.18102 0.55314 0.60969
 H354 H 0.20564 0.57539 0.61252
 H355 H 0.17482 0.54419 0.61170
 N356 N 0.18812 0.60015 0.57150
 N357 N 0.17856 0.60017 0.56195
 C358 C 0.18090 0.61066 0.55331
 C359 C 0.19255 0.61760 0.55755
 C360 C 0.19679 0.61064 0.56918
 H361 H 0.17463 0.61296 0.54448
 H362 H 0.20563 0.61292 0.57545
 H363 H 0.17950 0.57562 0.57049
 H364 H 0.16836 0.58640 0.58167
 N365 N 0.59980 0.67873 0.06171
 N366 N 0.59960 0.68830 0.07117
 C367 C 0.61004 0.69706 0.06896
 C368 C 0.61718 0.69277 0.05744
 C369 C 0.61035 0.68105 0.05316
 H370 H 0.61214 0.70599 0.07517
 H371 H 0.61268 0.67474 0.04437
 Cu372 Cu 0.58538 0.68862 0.08512
 Cu373 Cu 0.58606 0.66428 0.06076
 Cu374 Cu 0.56087 0.66446 0.08578
 N375 N 0.57130 0.68853 0.09921
 N376 N 0.56179 0.67901 0.09941
 C377 C 0.55312 0.68151 0.10981
 C378 C 0.55736 0.69330 0.11654
 C379 C 0.56900 0.69743 0.10951
 H380 H 0.54425 0.67529 0.11210
 H381 H 0.57522 0.70636 0.11157
 N382 N 0.56168 0.65063 0.07109
 N383 N 0.57125 0.65056 0.06156
 C384 C 0.56877 0.64017 0.05281
 C385 C 0.55701 0.63338 0.05695
 C386 C 0.55287 0.64029 0.06865
 H387 H 0.57500 0.63787 0.04396
 H388 H 0.54398 0.63811 0.07485
 H389 H 0.57052 0.67511 0.07023
 H390 H 0.58156 0.66422 0.08142
 N391 N 0.67839 0.18825 0.65024
 N392 N 0.68791 0.17874 0.65038
 C393 C 0.69665 0.18099 0.63996
 C394 C 0.69240 0.19257 0.63288
 C395 C 0.68073 0.19686 0.63974
 H396 H 0.70551 0.17472 0.63782
 H397 H 0.67445 0.20568 0.63743
 Cu398 Cu 0.68824 0.16459 0.66444
 Cu399 Cu 0.66393 0.18905 0.66393
 Cu400 Cu 0.66413 0.16404 0.68907
 N401 N 0.68816 0.15063 0.67870
 N402 N 0.67870 0.15047 0.68826
 C403 C 0.68124 0.14010 0.69697
 C404 C 0.69299 0.13335 0.69271
 C405 C 0.69706 0.14035 0.68102
 H406 H 0.67506 0.13783 0.70586
 H407 H 0.70592 0.13827 0.67474
 N408 N 0.65021 0.17863 0.68820
 N409 N 0.65014 0.18817 0.67864
 C410 C 0.63977 0.19692 0.68113
 C411 C 0.63297 0.19275 0.69287
 C412 C 0.63990 0.18107 0.69702
 H413 H 0.63752 0.20583 0.67497
 H414 H 0.63776 0.17492 0.70596
 H415 H 0.67481 0.17950 0.67937
 H416 H 0.66382 0.16836 0.66838
 N417 N 1.09942 0.07085 0.18856
 N418 N 1.09990 0.06192 0.17849
 C419 C 1.11071 0.05357 0.18042
 C420 C 1.11736 0.05744 0.19238
 C421 C 1.10988 0.06850 0.19722
 H422 H 1.11337 0.04518 0.17371
 H423 H 1.11165 0.07427 0.20650
 Cu424 Cu 1.08600 0.06174 0.16418
 Cu425 Cu 1.08471 0.08419 0.19023
 Cu426 Cu 1.06115 0.08567 0.16380
 N427 N 1.07148 0.06147 0.15052
 N428 N 1.06197 0.07099 0.15031
 C429 C 1.05315 0.06833 0.14005
 C430 C 1.05729 0.05645 0.13343
 C431 C 1.06902 0.05243 0.14038
 H432 H 1.04427 0.07452 0.13777
 H433 H 1.07525 0.04351 0.13834
 N434 N 1.06198 0.09943 0.17858
 N435 N 1.07087 0.09879 0.18874
 C436 C 1.06843 0.10918 0.19749
 C437 C 1.05736 0.11669 0.19271
 C438 C 1.05361 0.11020 0.18064
 H439 H 1.07415 0.11095 0.20680
 H440 H 1.04522 0.11291 0.17395
 H441 H 1.06980 0.07388 0.17879
 H442 H 1.08165 0.08568 0.16941
 N443 N 0.07129 0.15024 1.06177
 N444 N 0.06181 0.15045 1.07130
 C445 C 0.05288 0.14017 1.06897
 C446 C 0.05693 0.13315 1.05729
 C447 C 0.06871 0.13987 1.05305
 H448 H 0.04397 0.13812 1.07521
 H449 H 0.07489 0.13756 1.04418
 Cu450 Cu 0.06188 0.16427 1.08568
 Cu451 Cu 0.08584 0.16385 1.06091
 Cu452 Cu 0.08589 0.18908 1.08591
 N453 N 0.06186 0.17877 1.09939
 N454 N 0.07136 0.18831 1.09952
 C455 C 0.06879 0.19713 1.10981
 C456 C 0.05701 0.19293 1.11656
 C457 C 0.05294 0.18118 1.10963
 H458 H 0.07498 0.20603 1.11205
 H459 H 0.04403 0.17495 1.11172
 N460 N 0.09974 0.18810 1.07127
 N461 N 0.09972 0.17849 1.06176
 C462 C 0.11012 0.18084 1.05302
 C463 C 0.11703 0.19256 1.05714
 C464 C 0.11016 0.19681 1.06883
 H465 H 0.11234 0.17456 1.04418
 H466 H 0.11242 0.20572 1.07501
 H467 H 0.08617 0.16840 1.08156
 H468 H 0.07492 0.17930 1.07057
 N469 N 0.15012 0.68804 0.67821
 N470 N 0.15031 0.67850 0.68769
 C471 C 0.14002 0.68082 0.69658
 C472 C 0.13290 0.69239 0.69241
 C473 C 0.13965 0.69666 0.68066
 H474 H 0.13796 0.67458 0.70547
 H475 H 0.13728 0.70549 0.67442
 Cu476 Cu 0.16430 0.66428 0.68770
 Cu477 Cu 0.16365 0.68886 0.66358
 Cu478 Cu 0.18891 0.66392 0.66361
 N479 N 0.17871 0.65050 0.68775
 N480 N 0.18826 0.65041 0.67828
 C481 C 0.19706 0.64011 0.68082
 C482 C 0.19293 0.63340 0.69264
 C483 C 0.18122 0.64034 0.69674
 H484 H 0.20595 0.63788 0.67462
 H485 H 0.17503 0.63826 0.70565
 N486 N 0.18782 0.67846 0.64964
 N487 N 0.17822 0.68797 0.64964
 C488 C 0.18049 0.69663 0.63915
 C489 C 0.19214 0.69244 0.63219
 C490 C 0.19645 0.68083 0.63915
 H491 H 0.17422 0.70546 0.63691
 H492 H 0.20536 0.67467 0.63692
 H493 H 0.16827 0.66823 0.66336
 H494 H 0.17921 0.67934 0.67446
 N495 N 1.17840 0.14988 0.18778
 N496 N 1.18782 0.15005 0.17817
 C497 C 1.19663 0.13965 0.18034
 C498 C 1.19254 0.13256 0.19197
 C499 C 1.18088 0.13940 0.19636
 H500 H 1.20547 0.13754 0.17404
 H501 H 1.17469 0.13705 0.20522
 Cu502 Cu 1.18766 0.16419 0.16414
 Cu503 Cu 1.16390 0.16361 0.18885
 Cu504 Cu 1.16395 0.18899 0.16388
 N505 N 1.18788 0.17847 0.15024
 N506 N 1.17848 0.18810 0.15020
 C507 C 1.18106 0.19690 0.13992
 C508 C 1.19277 0.19263 0.13310
 C509 C 1.19678 0.18084 0.13997
 H510 H 1.17492 0.20584 0.13773
 H511 H 1.20563 0.17457 0.13783
 N512 N 1.15016 0.18804 0.17862
 N513 N 1.15015 0.17841 0.18810
 C514 C 1.13984 0.18085 0.19692
 C515 C 1.13301 0.19263 0.19286
 C516 C 1.13987 0.19685 0.18117
 H517 H 1.13763 0.17461 0.20578
 H518 H 1.13769 0.20582 0.17507
 H519 H 1.16333 0.16830 0.16822
 H520 H 1.17458 0.17913 0.17923
 N521 N 0.65022 1.06210 0.57142
 N522 N 0.65049 1.07157 0.56187
 C523 C 0.64040 1.06906 0.55277
 C524 C 0.63339 1.05737 0.55685
 C525 C 0.63993 1.05330 0.56879
 H526 H 0.63847 1.07516 0.54374
 H527 H 0.63752 1.04456 0.57512
 Cu528 Cu 0.66442 1.08585 0.56208
 Cu529 Cu 0.66367 1.06129 0.58615
 Cu530 Cu 0.69020 1.08482 0.58466
 N531 N 0.67857 1.09994 0.56227
 N532 N 0.68861 1.09949 0.57123
 C533 C 0.69727 1.10995 0.56888
 C534 C 0.69251 1.11738 0.55775
 C535 C 0.68056 1.11070 0.55385
 H536 H 0.70644 1.11184 0.57480
 H537 H 0.67396 1.11329 0.54534
 N538 N 0.68860 1.07104 0.59930
 N539 N 0.67841 1.06218 0.59993
 C540 C 0.68041 1.05383 0.61072
 C541 C 0.69248 1.05757 0.61723
 C542 C 0.69731 1.06860 0.60971
 H543 H 0.67372 1.04545 0.61342
 H544 H 0.70666 1.07427 0.61146
 H545 H 0.66937 1.08178 0.58605
 H546 H 0.67883 1.06977 0.57446
 N547 N 0.57136 0.56160 0.15043
 N548 N 0.56200 0.57126 0.15041
 C549 C 0.55314 0.56889 0.14008
 C550 C 0.55715 0.55707 0.13325
 C551 C 0.56881 0.55279 0.14014
 H552 H 0.54436 0.57522 0.13784
 H553 H 0.57493 0.54382 0.13800
 Cu554 Cu 0.56200 0.58575 0.16412
 Cu555 Cu 0.58585 0.56082 0.16410
 Cu556 Cu 0.58576 0.58596 0.18916
 N557 N 0.56190 0.59952 0.17857
 N558 N 0.57123 0.59957 0.18827
 C559 C 0.56862 0.60989 0.19703
 C560 C 0.55694 0.61672 0.19267
 C561 C 0.55300 0.60982 0.18086
 H562 H 0.57470 0.61209 0.20601
 H563 H 0.54423 0.61200 0.17448
 N564 N 0.59962 0.57131 0.18834
 N565 N 0.59965 0.56174 0.17880
 C566 C 0.61000 0.55296 0.18129
 C567 C 0.61684 0.55716 0.19302
 C568 C 0.60995 0.56888 0.19716
 H569 H 0.61221 0.54404 0.17513
 H570 H 0.61212 0.57508 0.20607
 H571 H 0.57484 0.57066 0.17932
 H572 H 0.58625 0.58154 0.16847
 N573 N 0.65048 0.67867 0.18817
 N574 N 0.65062 0.68821 0.17869
 C575 C 0.64031 0.69705 0.18106
 C576 C 0.63331 0.69286 0.19270
 C577 C 0.64010 0.68111 0.19689
 H578 H 0.63822 0.70599 0.17490
 H579 H 0.63786 0.67487 0.20574
 Cu580 Cu 0.66469 0.68837 0.16457
 Cu581 Cu 0.66415 0.66417 0.18902
 Cu582 Cu 0.68910 0.66413 0.16378
 N583 N 0.67862 0.68814 0.15032
 N584 N 0.68810 0.67859 0.15009
 C585 C 0.69662 0.68094 0.13953
 C586 C 0.69231 0.69263 0.13271
 C587 C 0.68081 0.69689 0.13989
 H588 H 0.70542 0.67465 0.13716
 H589 H 0.67459 0.70580 0.13782
 N590 N 0.68836 0.65037 0.17853
 N591 N 0.67886 0.65038 0.18813
 C592 C 0.68136 0.64005 0.19691
 C593 C 0.69306 0.63319 0.19271
 C594 C 0.69715 0.64003 0.18096
 H595 H 0.67521 0.63784 0.20583
 H596 H 0.70600 0.63779 0.17472
 H597 H 0.67961 0.67492 0.17937
 H598 H 0.66841 0.66398 0.16832
 N599 N 0.15042 0.07131 1.06171
 N600 N 0.15067 0.06169 1.07110
 C601 C 0.14051 0.05268 1.06860
 C602 C 0.13351 0.05684 1.05694
 C603 C 0.14013 0.06876 1.05290
 H604 H 0.13852 0.04365 1.07469
 H605 H 0.13778 0.07509 1.04414
 Cu606 Cu 0.16445 0.06181 1.08551
 Cu607 Cu 0.16395 0.08599 1.06100
 Cu608 Cu 0.19036 0.08429 1.08462
 N609 N 0.17860 0.06188 1.09959
 N610 N 0.18864 0.07084 1.09924
 C611 C 0.19722 0.06845 1.10975
 C612 C 0.19235 0.05733 1.11714
 C613 C 0.18045 0.05347 1.11036
 H614 H 0.20642 0.07429 1.11168
 H615 H 0.17378 0.04501 1.11291
 N616 N 0.18890 0.09899 1.07089
 N617 N 0.17876 0.09971 1.06198
 C618 C 0.18088 0.11052 1.05368
 C619 C 0.19297 0.11694 1.05750
 C620 C 0.19769 0.10935 1.06854
 H621 H 0.17424 0.11329 1.04527
 H622 H 0.20701 0.11103 1.07427
 H623 H 0.17899 0.07422 1.06948
 H624 H 0.16955 0.08581 1.08145
 N625 N 0.59986 0.18855 0.57132
 N626 N 0.59969 0.17898 0.56184
 C627 C 0.61010 0.18119 0.55306
 C628 C 0.61715 0.19284 0.55720
 C629 C 0.61033 0.19718 0.56888
 H630 H 0.61227 0.17484 0.54426
 H631 H 0.61266 0.20601 0.57513
 Cu632 Cu 0.58581 0.16464 0.56183
 Cu633 Cu 0.58627 0.18942 0.58585
 Cu634 Cu 0.56106 0.16444 0.58579
 N635 N 0.57131 0.15093 0.56175
 N636 N 0.56177 0.15085 0.57122
 C637 C 0.55298 0.14054 0.56871
 C638 C 0.55717 0.13371 0.55698
 C639 C 0.56893 0.14059 0.55290
 H640 H 0.54411 0.13832 0.57494
 H641 H 0.57521 0.13837 0.54407
 N642 N 0.56203 0.17905 0.59968
 N643 N 0.57162 0.18858 0.59970
 C644 C 0.56917 0.19739 0.61004
 C645 C 0.55743 0.19326 0.61687
 C646 C 0.55323 0.18155 0.60999
 H647 H 0.57535 0.20632 0.61223
 H648 H 0.54427 0.17543 0.61212
 H649 H 0.58179 0.16870 0.58614
 H650 H 0.57088 0.17974 0.57493
 N651 N 0.09959 0.57130 0.68847
 N652 N 0.09941 0.56172 0.67901
 C653 C 0.10968 0.55281 0.68142
 C654 C 0.11667 0.55700 0.69307
 C655 C 0.10995 0.56883 0.69719
 H656 H 0.11179 0.54380 0.67529
 H657 H 0.11223 0.57511 0.70598
 Cu658 Cu 0.08537 0.56153 0.66485
 Cu659 Cu 0.08603 0.58591 0.68920
 Cu660 Cu 0.06097 0.58581 0.66413
 N661 N 0.07121 0.56161 0.65082
 N662 N 0.06173 0.57115 0.65061
 C663 C 0.05302 0.56860 0.64025
 C664 C 0.05716 0.55677 0.63356
 C665 C 0.06883 0.55265 0.64056
 H666 H 0.04422 0.57485 0.63795
 H667 H 0.07498 0.54366 0.63846
 N668 N 0.06192 0.59976 0.67866
 N669 N 0.07146 0.59980 0.68822
 C670 C 0.06916 0.61033 0.69683
 C671 C 0.05752 0.61727 0.69256
 C672 C 0.05327 0.61026 0.68094
 H673 H 0.07541 0.61263 0.70567
 H674 H 0.04444 0.61249 0.67467
 H675 H 0.07057 0.57490 0.67962
 H676 H 0.08172 0.58580 0.66845
 N677 N 0.65023 0.56187 0.07131
 N678 N 0.65043 0.57141 0.06183
 C679 C 0.64011 0.56912 0.05293
 C680 C 0.63307 0.55745 0.05701
 C681 C 0.63980 0.55320 0.06878
 H682 H 0.63801 0.57540 0.04406
 H683 H 0.63748 0.54435 0.07499
 Cu684 Cu 0.66452 0.58554 0.06182
 Cu685 Cu 0.66386 0.56097 0.08588
 Cu686 Cu 0.68892 0.58624 0.08608
 N687 N 0.67852 0.59977 0.06207
 N688 N 0.68800 0.59998 0.07161
 C689 C 0.69652 0.61057 0.06929
 C690 C 0.69223 0.61740 0.05758
 C691 C 0.68070 0.61023 0.05333
 H692 H 0.70529 0.61297 0.07560
 H693 H 0.67443 0.61237 0.04446
 N694 N 0.68807 0.57144 0.09980
 N695 N 0.67854 0.56184 0.09972
 C696 C 0.68097 0.55305 0.11006
 C697 C 0.69264 0.55724 0.11699
 C698 C 0.69680 0.56900 0.11019
 H699 H 0.67478 0.54414 0.11223
 H700 H 0.70565 0.57524 0.11248
 H701 H 0.66825 0.58166 0.08624
 H702 H 0.67940 0.57065 0.07534
 N703 N 0.07207 0.68796 0.60020
 N704 N 0.06265 0.67834 0.60018
 C705 C 0.05389 0.68065 0.61057
 C706 C 0.05801 0.69238 0.61751
 C707 C 0.06964 0.69669 0.61060
 H708 H 0.04510 0.67431 0.61282
 H709 H 0.07584 0.70559 0.61281
 Cu710 Cu 0.06257 0.66391 0.58638
 Cu711 Cu 0.08656 0.68874 0.58655
 Cu712 Cu 0.08634 0.66373 0.56139
 N713 N 0.06239 0.65022 0.57184
 N714 N 0.07174 0.65018 0.56217
 C715 C 0.06910 0.63991 0.55335
 C716 C 0.05739 0.63310 0.55764
 C717 C 0.05347 0.63995 0.56947
 H718 H 0.07520 0.63772 0.54438
 H719 H 0.04469 0.63774 0.57583
 N720 N 0.10030 0.67831 0.56229
 N721 N 0.10037 0.68785 0.57187
 C722 C 0.11086 0.69651 0.56951
 C723 C 0.11775 0.69228 0.55783
 C724 C 0.11073 0.68066 0.55358
 H725 H 0.11316 0.70536 0.57575
 H726 H 0.11292 0.67445 0.54468
 H727 H 0.07547 0.67900 0.57126
 H728 H 0.08682 0.66801 0.58210
 N729 N 0.57079 1.06162 0.65044
 N730 N 0.56139 1.07123 0.65045
 C731 C 0.55254 1.06885 0.64012
 C732 C 0.55657 1.05703 0.63322
 C733 C 0.56829 1.05281 0.64013
 H734 H 0.54379 1.07524 0.63790
 H735 H 0.57453 1.04392 0.63800
 Cu736 Cu 0.56140 1.08577 0.66417
 Cu737 Cu 0.58530 1.06089 0.66409
 Cu738 Cu 0.58523 1.08602 0.68914
 N739 N 0.56131 1.09954 0.67865
 N740 N 0.57067 1.09961 0.68830
 C741 C 0.56813 1.10996 0.69705
 C742 C 0.55641 1.11681 0.69274
 C743 C 0.55244 1.10986 0.68094
 H744 H 0.57433 1.11215 0.70596
 H745 H 0.54371 1.11202 0.67450
 N746 N 0.59912 1.07139 0.68830
 N747 N 0.59915 1.06182 0.67875
 C748 C 0.60951 1.05306 0.68122
 C749 C 0.61638 1.05726 0.69294
 C750 C 0.60947 1.06896 0.69710
 H751 H 0.61171 1.04413 0.67506
 H752 H 0.61164 1.07515 0.70602
 H753 H 0.57430 1.07072 0.67931
 H754 H 0.58566 1.08164 0.66842
 N755 N 0.43765 0.35060 0.92817
 N756 N 0.42816 0.35038 0.93769
 C757 C 0.43042 0.36075 0.94653
 C758 C 0.44203 0.36790 0.94237
 C759 C 0.44626 0.36110 0.93059
 H760 H 0.42411 0.36277 0.95538
 H761 H 0.45505 0.36341 0.92428
 Cu762 Cu 0.41397 0.33633 0.93785
 Cu763 Cu 0.43843 0.33701 0.91357
 Cu764 Cu 0.41338 0.31184 0.91355
 N765 N 0.39997 0.32210 0.93764
 N766 N 0.39980 0.31258 0.92811
 C767 C 0.38937 0.30390 0.93052
 C768 C 0.38257 0.30814 0.94225
 C769 C 0.38962 0.31977 0.94646
 H770 H 0.38707 0.29506 0.92425
 H771 H 0.38751 0.32602 0.95534
 N772 N 0.42798 0.31279 0.89964
 N773 N 0.43752 0.32237 0.89964
 C774 C 0.44620 0.31999 0.88918
 C775 C 0.44197 0.30832 0.88224
 C776 C 0.43034 0.30408 0.88919
 H777 H 0.45509 0.32619 0.88695
 H778 H 0.42416 0.29518 0.88697
 H779 H 0.41776 0.33255 0.91339
 H780 H 0.42887 0.32149 0.92429
 N781 N 0.93769 0.42785 0.35078
 N782 N 0.92815 0.43733 0.35067
 C783 C 0.93042 0.44612 0.36108
 C784 C 0.94208 0.44197 0.36814
 C785 C 0.94634 0.43025 0.36124
 H786 H 0.92410 0.45495 0.36320
 H787 H 0.95515 0.42395 0.36348
 Cu788 Cu 0.91396 0.43749 0.33663
 Cu789 Cu 0.93850 0.41333 0.33711
 Cu790 Cu 0.91338 0.41336 0.31202
 N791 N 0.89990 0.43737 0.32246
 N792 N 0.89974 0.42789 0.31290
 C793 C 0.88928 0.43032 0.30426
 C794 C 0.88245 0.44202 0.30857
 C795 C 0.88951 0.44618 0.32021
 H796 H 0.88697 0.42408 0.29541
 H797 H 0.88737 0.45504 0.32649
 N798 N 0.92804 0.39950 0.31285
 N799 N 0.93761 0.39948 0.32240
 C800 C 0.94631 0.38903 0.31997
 C801 C 0.94206 0.38212 0.30830
 C802 C 0.93040 0.38907 0.30411
 H803 H 0.95518 0.38677 0.32617
 H804 H 0.92417 0.38684 0.29525
 H805 H 0.92887 0.42415 0.32168
 H806 H 0.91782 0.41311 0.33272
 N807 N 0.31223 0.92896 0.40031
 N808 N 0.32176 0.93847 0.40041
 C809 C 0.31936 0.94731 0.39010
 C810 C 0.30770 0.94311 0.38310
 C811 C 0.30352 0.93137 0.38991
 H812 H 0.32558 0.95620 0.38797
 H813 H 0.29466 0.92512 0.38765
 Cu814 Cu 0.33585 0.93880 0.41454
 Cu815 Cu 0.31144 0.91444 0.41396
 Cu816 Cu 0.33669 0.91447 0.43892
 N817 N 0.35014 0.93851 0.42847
 N818 N 0.35035 0.92901 0.43799
 C819 C 0.36092 0.93138 0.44652
 C820 C 0.36774 0.94313 0.44225
 C821 C 0.36053 0.94732 0.43069
 H822 H 0.36327 0.92507 0.45528
 H823 H 0.36257 0.95615 0.42437
 N824 N 0.32197 0.90065 0.43815
 N825 N 0.31237 0.90064 0.42865
 C826 C 0.30359 0.89029 0.43115
 C827 C 0.30782 0.88342 0.44283
 C828 C 0.31956 0.89030 0.44694
 H829 H 0.29466 0.88808 0.42500
 H830 H 0.32579 0.88809 0.45581
 H831 H 0.32108 0.92518 0.42943
 H832 H 0.33215 0.91434 0.41823
 O833 O 0.24886 0.53643 0.73207
 O834 O 0.27255 0.53218 0.73405
 O835 O 0.23241 0.50065 0.71353
 O836 O 0.23271 0.47778 0.71745
 O837 O 0.21349 0.51750 0.74913
 O838 O 0.21854 0.51631 0.77327
 O839 O 0.26856 0.46452 0.75093
 O840 O 0.26551 0.46814 0.72736
 O841 O 0.28580 0.49917 0.76782
 O842 O 0.28086 0.52412 0.76667
 O843 O 0.25146 0.48221 0.78568
 O844 O 0.22656 0.48300 0.78095
 O845 O 0.25205 0.46437 0.76745
 O846 O 0.22641 0.46900 0.76584
 O847 O 0.26780 0.49887 0.78576
 O848 O 0.26581 0.52436 0.78070
 O849 O 0.28577 0.48229 0.75170
 O850 O 0.28158 0.48698 0.72673
 O851 O 0.23255 0.53646 0.74884
 O852 O 0.23397 0.53142 0.77335
 O853 O 0.21350 0.50092 0.73265
 O854 O 0.21913 0.47608 0.73501
 O855 O 0.24858 0.51753 0.71354
 O856 O 0.27347 0.51445 0.71879
 Zr857 Zr 0.25739 0.51666 0.73326
 O858 O 0.27064 0.50486 0.74554
 Zr859 Zr 0.23333 0.49242 0.73343
 O860 O 0.24576 0.47941 0.74535
 Zr861 Zr 0.23336 0.51664 0.75750
 O862 O 0.24545 0.50455 0.77068
 Zr863 Zr 0.26653 0.48402 0.74212
 O864 O 0.25415 0.49576 0.72872
 Zr865 Zr 0.26623 0.50810 0.76634
 O866 O 0.25413 0.52126 0.75412
 Zr867 Zr 0.24239 0.48367 0.76617
 O868 O 0.22885 0.49576 0.75427
 O869 O 0.23673 0.51311 0.73684
 O870 O 0.26309 0.48731 0.76289
 C871 C 0.23919 0.54212 0.73897
 C872 C 0.23896 0.51056 0.70785
 C873 C 0.20778 0.51066 0.73943
 C874 C 0.26213 0.45894 0.76095
 C875 C 0.29130 0.48900 0.76157
 C876 C 0.26141 0.48878 0.79124
 H877 H 0.28028 0.50708 0.74333
 H878 H 0.24320 0.50670 0.78032
 H879 H 0.23083 0.51890 0.73100
 H880 H 0.24382 0.46972 0.74309
 H881 H 0.26261 0.47247 0.71866
 H882 H 0.23933 0.47050 0.71984
 H883 H 0.25835 0.52250 0.78729
 H884 H 0.24278 0.53636 0.77240
 H885 H 0.28807 0.47918 0.72722
 H886 H 0.27246 0.52166 0.71169
 H887 H 0.22733 0.49133 0.78667
 H888 H 0.21411 0.50718 0.77285
 H889 H 0.27214 0.53623 0.74335
 H890 H 0.28673 0.52310 0.75848
 H891 H 0.21369 0.47772 0.74340
 H892 H 0.22835 0.46242 0.75838
 O893 O 0.26818 -0.03638 0.25073
 O894 O 0.26611 -0.03205 0.22711
 O895 O 0.28664 -0.00057 0.26732
 O896 O 0.28261 0.02226 0.26723
 O897 O 0.25114 -0.01767 0.28631
 O898 O 0.22701 -0.01650 0.28133
 O899 O 0.24909 0.03554 0.23145
 O900 O 0.27264 0.03194 0.23438
 O901 O 0.23216 0.00090 0.21415
 O902 O 0.23347 -0.02409 0.21898
 O903 O 0.21440 0.01771 0.24856
 O904 O 0.21912 0.01687 0.27339
 O905 O 0.23261 0.03560 0.24800
 O906 O 0.23427 0.03083 0.27366
 O907 O 0.21430 0.00106 0.23220
 O908 O 0.21943 -0.02439 0.23402
 O909 O 0.24825 0.01782 0.21418
 O910 O 0.27326 0.01316 0.21827
 O911 O 0.25145 -0.03654 0.26708
 O912 O 0.22691 -0.03154 0.26586
 O913 O 0.26757 -0.00105 0.28631
 O914 O 0.26508 0.02382 0.28080
 O915 O 0.28663 -0.01741 0.25110
 O916 O 0.28130 -0.01428 0.22622
 Zr917 Zr 0.26689 -0.01658 0.24233
 O918 O 0.25452 -0.00478 0.22917
 Zr919 Zr 0.26670 0.00756 0.26652
 O920 O 0.25472 0.02058 0.25417
 Zr921 Zr 0.24273 -0.01674 0.26646
 O922 O 0.22948 -0.00464 0.25446
 Zr923 Zr 0.25790 0.01605 0.23337
 O924 O 0.27137 0.00432 0.24567
 Zr925 Zr 0.23376 -0.00809 0.23366
 O926 O 0.24606 -0.02126 0.24566
 Zr927 Zr 0.23392 0.01625 0.25758
 O928 O 0.24589 0.00414 0.27105
 O929 O 0.26336 -0.01313 0.26303
 O930 O 0.23715 0.01269 0.23686
 C931 C 0.26132 -0.04214 0.26038
 C932 C 0.29232 -0.01045 0.26072
 C933 C 0.26084 -0.01083 0.29201
 C934 C 0.23909 0.04109 0.23794
 C935 C 0.23838 0.01110 0.20866
 C936 C 0.20881 0.01113 0.23863
 H937 H 0.25671 -0.00696 0.21952
 H938 H 0.21985 -0.00682 0.25673
 H939 H 0.26924 -0.01893 0.26889
 H940 H 0.25696 0.03027 0.25614
 H941 H 0.28135 0.02762 0.23730
 H942 H 0.28023 0.02952 0.26058
 H943 H 0.21289 -0.02261 0.24155
 H944 H 0.22784 -0.03645 0.25703
 H945 H 0.27271 0.02094 0.21177
 H946 H 0.28843 -0.02146 0.22720
 H947 H 0.21357 0.00841 0.27272
 H948 H 0.22742 -0.00739 0.28580
 H949 H 0.25683 -0.03613 0.22754
 H950 H 0.24161 -0.02299 0.21306
 H951 H 0.25673 0.02210 0.28628
 H952 H 0.24166 0.03748 0.27170
 O953 O 0.53644 0.73224 0.24889
 O954 O 0.53196 0.73422 0.27259
 O955 O 0.50073 0.71391 0.23208
 O956 O 0.47792 0.71797 0.23209
 O957 O 0.51792 0.74960 0.21341
 O958 O 0.51678 0.77369 0.21855
 O959 O 0.46445 0.75137 0.26793
 O960 O 0.46805 0.72780 0.26495
 O961 O 0.49901 0.76814 0.28561
 O962 O 0.52397 0.76684 0.28094
 O963 O 0.48251 0.78614 0.25117
 O964 O 0.48343 0.78152 0.22629
 O965 O 0.46455 0.76797 0.25150
 O966 O 0.46941 0.76647 0.22593
 O967 O 0.49904 0.78612 0.26764
 O968 O 0.52447 0.78089 0.26589
 O969 O 0.48203 0.75212 0.28537
 O970 O 0.48671 0.72709 0.28118
 O971 O 0.53667 0.74909 0.23265
 O972 O 0.53172 0.77367 0.23412
 O973 O 0.50132 0.73316 0.21321
 O974 O 0.47642 0.73559 0.21862
 O975 O 0.51746 0.71380 0.24839
 O976 O 0.51421 0.71901 0.27328
 Zr977 Zr 0.51661 0.73351 0.25726
 O978 O 0.50475 0.74582 0.27045
 Zr979 Zr 0.49261 0.73389 0.23297
 O980 O 0.47955 0.74582 0.24532
 Zr981 Zr 0.51691 0.75785 0.23332
 O982 O 0.50478 0.77105 0.24533
 Zr983 Zr 0.48394 0.74253 0.26613
 O984 O 0.49573 0.72910 0.25381
 Zr985 Zr 0.50812 0.76663 0.26613
 O986 O 0.52133 0.75438 0.25411
 Zr987 Zr 0.48393 0.76665 0.24206
 O988 O 0.49608 0.75474 0.22858
 O989 O 0.51326 0.73718 0.23658
 O990 O 0.48736 0.76331 0.26278
 C991 C 0.54223 0.73915 0.23929
 C992 C 0.51055 0.70816 0.23870
 C993 C 0.51112 0.73993 0.20761
 C994 C 0.45899 0.76144 0.26147
 C995 C 0.48874 0.76195 0.29099
 C996 C 0.48905 0.79167 0.26115
 H997 H 0.50685 0.74358 0.28010
 H998 H 0.50699 0.78069 0.24313
 H999 H 0.51907 0.73132 0.23070
 H1000 H 0.46988 0.74361 0.24328
 H1001 H 0.47238 0.71909 0.26204
 H1002 H 0.47066 0.72030 0.23875
 H1003 H 0.52272 0.78749 0.25841
 H1004 H 0.53661 0.77263 0.24294
 H1005 H 0.47888 0.72761 0.28762
 H1006 H 0.52138 0.71187 0.27230
 H1007 H 0.49182 0.78716 0.22711
 H1008 H 0.50771 0.77331 0.21401
 H1009 H 0.53608 0.74349 0.27220
 H1010 H 0.52290 0.75859 0.28672
 H1011 H 0.47818 0.74397 0.21319
 H1012 H 0.46283 0.75898 0.22774
 O1013 O -0.00056 0.76806 0.78642
 O1014 O 0.02309 0.76601 0.78190
 O1015 O -0.01736 0.78663 0.75090
 O1016 O -0.01724 0.78273 0.72804
 O1017 O -0.03625 0.75106 0.76784
 O1018 O -0.03129 0.72690 0.76656
 O1019 O 0.01832 0.74902 0.71436
 O1020 O 0.01541 0.77263 0.71801
 O1021 O 0.03578 0.73210 0.74881
 O1022 O 0.03110 0.73338 0.77381
 O1023 O 0.00118 0.71435 0.73222
 O1024 O -0.02367 0.71917 0.73323
 O1025 O 0.00174 0.73254 0.71437
 O1026 O -0.02384 0.73424 0.71919
 O1027 O 0.01766 0.71423 0.74875
 O1028 O 0.01602 0.71938 0.77420
 O1029 O 0.03569 0.74824 0.73197
 O1030 O 0.03162 0.77327 0.73669
 O1031 O -0.01695 0.75133 0.78657
 O1032 O -0.01576 0.72681 0.78152
 O1033 O -0.03634 0.76753 0.75129
 O1034 O -0.03095 0.76520 0.72642
 O1035 O -0.00102 0.78658 0.76761
 O1036 O 0.02381 0.78131 0.76419
 Zr1037 Zr 0.00774 0.76684 0.76657
 O1038 O 0.02081 0.75449 0.75465
 Zr1039 Zr -0.01658 0.76671 0.74260
 O1040 O -0.00433 0.75473 0.72946
 Zr1041 Zr -0.01642 0.74265 0.76677
 O1042 O -0.00451 0.72941 0.75457
 Zr1043 Zr 0.01651 0.75788 0.73387
 O1044 O 0.00430 0.77136 0.74572
 Zr1045 Zr 0.01632 0.73370 0.75792
 O1046 O 0.00441 0.74598 0.77120
 Zr1047 Zr -0.00775 0.73391 0.73374
 O1048 O -0.02113 0.74587 0.74595
 O1049 O -0.01298 0.76331 0.76323
 O1050 O 0.01300 0.73712 0.73718
 C1051 C -0.01021 0.76120 0.79218
 C1052 C -0.01071 0.79228 0.76077
 C1053 C -0.04198 0.76078 0.76108
 C1054 C 0.01180 0.73900 0.70885
 C1055 C 0.04124 0.73835 0.73862
 C1056 C 0.01112 0.70874 0.73873
 H1057 H 0.03048 0.75668 0.75677
 H1058 H -0.00678 0.71979 0.75674
 H1059 H -0.01881 0.76916 0.76909
 H1060 H -0.00635 0.75698 0.71980
 H1061 H 0.01254 0.78134 0.72236
 H1062 H -0.01074 0.78030 0.72067
 H1063 H 0.00849 0.71283 0.77244
 H1064 H -0.00689 0.72772 0.78636
 H1065 H 0.03806 0.77275 0.72886
 H1066 H 0.02293 0.78839 0.77144
 H1067 H -0.02285 0.71349 0.74157
 H1068 H -0.03586 0.72736 0.75752
 H1069 H 0.02264 0.75674 0.78598
 H1070 H 0.03702 0.74152 0.77270
 H1071 H -0.03639 0.75679 0.72807
 H1072 H -0.02195 0.74172 0.71262
 O1073 O 0.03647 0.01751 0.00106
 O1074 O 0.03202 0.01562 -0.02260
 O1075 O 0.00077 0.03588 0.01784
 O1076 O -0.02202 0.03182 0.01785
 O1077 O 0.01793 0.00014 0.03649
 O1078 O 0.01674 -0.02395 0.03131
 O1079 O -0.03554 -0.00148 -0.01811
 O1080 O -0.03188 0.02210 -0.01509
 O1081 O -0.00107 -0.01829 -0.03574
 O1082 O 0.02390 -0.01699 -0.03106
 O1083 O -0.01756 -0.03632 -0.00130
 O1084 O -0.01663 -0.03170 0.02355
 O1085 O -0.03548 -0.01811 -0.00170
 O1086 O -0.03060 -0.01662 0.02391
 O1087 O -0.00104 -0.03629 -0.01775
 O1088 O 0.02439 -0.03107 -0.01606
 O1089 O -0.01797 -0.00221 -0.03550
 O1090 O -0.01323 0.02279 -0.03129
 O1091 O 0.03667 0.00064 0.01727
 O1092 O 0.03167 -0.02390 0.01578
 O1093 O 0.00136 0.01659 0.03671
 O1094 O -0.02355 0.01419 0.03124
 O1095 O 0.01750 0.03600 0.00156
 O1096 O 0.01427 0.03083 -0.02332
 Zr1097 Zr 0.01664 0.01630 -0.00733
 O1098 O 0.00475 0.00402 -0.02055
 Zr1099 Zr -0.00735 0.01591 0.01693
 O1100 O -0.02044 0.00401 0.00454
 Zr1101 Zr 0.01690 -0.00808 0.01658
 O1102 O 0.00473 -0.02125 0.00453
 Zr1103 Zr -0.01604 0.00734 -0.01626
 O1104 O -0.00423 0.02073 -0.00390
 Zr1105 Zr 0.00807 -0.01680 -0.01626
 O1106 O 0.02131 -0.00458 -0.00420
 Zr1107 Zr -0.01610 -0.01682 0.00779
 O1108 O -0.00392 -0.00495 0.02130
 O1109 O 0.01329 0.01261 0.01335
 O1110 O -0.01268 -0.01345 -0.01293
 C1111 C 0.04225 0.01057 0.01064
 C1112 C 0.01059 0.04163 0.01124
 C1113 C 0.01114 0.00979 0.04231
 C1114 C -0.04103 -0.01154 -0.01167
 C1115 C -0.01131 -0.01205 -0.04113
 C1116 C -0.01103 -0.04185 -0.01127
 H1117 H 0.00687 0.00628 -0.03020
 H1118 H 0.00693 -0.03089 0.00673
 H1119 H 0.01912 0.01845 0.01924
 H1120 H -0.03011 0.00624 0.00657
 H1121 H -0.02752 0.03080 -0.01216
 H1122 H -0.02924 0.02957 0.01110
 H1123 H 0.02267 -0.03766 -0.00856
 H1124 H 0.03656 -0.02286 0.00697
 H1125 H -0.02105 0.02226 -0.03776
 H1126 H 0.02148 0.03794 -0.02235
 H1127 H -0.00826 -0.03734 0.02273
 H1128 H 0.00768 -0.02357 0.03584
 H1129 H 0.03605 0.00632 -0.02229
 H1130 H 0.02282 -0.00875 -0.03686
 H1131 H -0.02182 0.00580 0.03666
 H1132 H -0.03720 -0.00915 0.02208
 O1133 O 0.03632 0.51775 0.50099
 O1134 O 0.03177 0.51580 0.47733
 O1135 O 0.00081 0.53624 0.51789
 O1136 O -0.02201 0.53231 0.51796
 O1137 O 0.01785 0.50043 0.53651
 O1138 O 0.01657 0.47635 0.53133
 O1139 O -0.03585 0.49899 0.48211
 O1140 O -0.03210 0.52255 0.48515
 O1141 O -0.00155 0.48204 0.46435
 O1142 O 0.02345 0.48321 0.46893
 O1143 O -0.01802 0.46412 0.49884
 O1144 O -0.01687 0.46873 0.52372
 O1145 O -0.03580 0.48239 0.49856
 O1146 O -0.03080 0.48388 0.52414
 O1147 O -0.00157 0.46404 0.48232
 O1148 O 0.02395 0.46915 0.48398
 O1149 O -0.01837 0.49820 0.46465
 O1150 O -0.01352 0.52316 0.46884
 O1151 O 0.03651 0.50092 0.51724
 O1152 O 0.03145 0.47637 0.51570
 O1153 O 0.00138 0.51698 0.53676
 O1154 O -0.02356 0.51473 0.53143
 O1155 O 0.01747 0.53628 0.50154
 O1156 O 0.01406 0.53108 0.47666
 Zr1157 Zr 0.01645 0.51657 0.49266
 O1158 O 0.00445 0.50433 0.47951
 Zr1159 Zr -0.00743 0.51631 0.51703
 O1160 O -0.02063 0.50445 0.50471
 Zr1161 Zr 0.01671 0.49222 0.51659
 O1162 O 0.00443 0.47908 0.50461
 Zr1163 Zr -0.01631 0.50774 0.48390
 O1164 O -0.00438 0.52110 0.49618
 Zr1165 Zr 0.00768 0.48349 0.48380
 O1166 O 0.02104 0.49567 0.49578
 Zr1167 Zr -0.01638 0.48360 0.50796
 O1168 O -0.00408 0.49544 0.52140
 O1169 O 0.01318 0.51291 0.51336
 O1170 O -0.01303 0.48694 0.48722
 C1171 C 0.04210 0.51084 0.51059
 C1172 C 0.01063 0.54195 0.51125
 C1173 C 0.01114 0.51013 0.54233
 C1174 C -0.04136 0.48895 0.48859
 C1175 C -0.01178 0.48832 0.45900
 C1176 C -0.01158 0.45855 0.48883
 H1177 H 0.00653 0.50657 0.46985
 H1178 H 0.00658 0.46943 0.50680
 H1179 H 0.01904 0.51874 0.51922
 H1180 H -0.03028 0.50672 0.50679
 H1181 H -0.02770 0.53124 0.48803
 H1182 H -0.02932 0.53003 0.51131
 H1183 H 0.02217 0.46252 0.49143
 H1184 H 0.03626 0.47739 0.50684
 H1185 H -0.02142 0.52271 0.46245
 H1186 H 0.02130 0.53818 0.47759
 H1187 H -0.00853 0.46305 0.52286
 H1188 H 0.00752 0.47675 0.53589
 H1189 H 0.03579 0.50649 0.47766
 H1190 H 0.02241 0.49148 0.46318
 H1191 H -0.02187 0.50631 0.53683
 H1192 H -0.03741 0.49134 0.52231
 O1193 O 0.53632 0.01812 0.50086
 O1194 O 0.53193 0.01600 0.47721
 O1195 O 0.50072 0.03679 0.51741
 O1196 O 0.47786 0.03285 0.51734
 O1197 O 0.51764 0.00121 0.53644
 O1198 O 0.51626 -0.02297 0.53147
 O1199 O 0.46432 -0.00070 0.48157
 O1200 O 0.46804 0.02287 0.48450
 O1201 O 0.49881 -0.01778 0.46428
 O1202 O 0.52380 -0.01658 0.46915
 O1203 O 0.48191 -0.03544 0.49865
 O1204 O 0.48290 -0.03072 0.52354
 O1205 O 0.46417 -0.01715 0.49815
 O1206 O 0.46900 -0.01549 0.52379
 O1207 O 0.49853 -0.03563 0.48231
 O1208 O 0.52400 -0.03066 0.48418
 O1209 O 0.48200 -0.00160 0.46431
 O1210 O 0.48677 0.02341 0.46839
 O1211 O 0.53642 0.00139 0.51721
 O1212 O 0.53126 -0.02316 0.51599
 O1213 O 0.50114 0.01773 0.53643
 O1214 O 0.47624 0.01534 0.53095
 O1215 O 0.51749 0.03667 0.50117
 O1216 O 0.51429 0.03131 0.47632
 Zr1217 Zr 0.51652 0.01691 0.49245
 O1218 O 0.50463 0.00458 0.47930
 Zr1219 Zr 0.49246 0.01686 0.51664
 O1220 O 0.47934 0.00492 0.50430
 Zr1221 Zr 0.51658 -0.00725 0.51659
 O1222 O 0.50438 -0.02047 0.50461
 Zr1223 Zr 0.48385 0.00806 0.48350
 O1224 O 0.49567 0.02150 0.49578
 Zr1225 Zr 0.50783 -0.01622 0.48380
 O1226 O 0.52108 -0.00396 0.49579
 Zr1227 Zr 0.48354 -0.01592 0.50771
 O1228 O 0.49575 -0.00398 0.52118
 O1229 O 0.51309 0.01342 0.51315
 O1230 O 0.48709 -0.01272 0.48700
 C1231 C 0.54206 0.01124 0.51051
 C1232 C 0.51060 0.04243 0.51079
 C1233 C 0.51089 0.01098 0.54213
 C1234 C 0.45872 -0.01066 0.48807
 C1235 C 0.48864 -0.01151 0.45880
 C1236 C 0.48843 -0.04106 0.48871
 H1237 H 0.50680 0.00675 0.46964
 H1238 H 0.50650 -0.03011 0.50687
 H1239 H 0.51894 0.01928 0.51899
 H1240 H 0.46968 0.00721 0.50627
 H1241 H 0.47241 0.03156 0.48744
 H1242 H 0.47058 0.03049 0.51071
 H1243 H 0.52217 -0.03720 0.49170
 H1244 H 0.53615 -0.02227 0.50715
 H1245 H 0.47896 0.02289 0.46190
 H1246 H 0.52153 0.03840 0.47726
 H1247 H 0.49127 -0.03637 0.52280
 H1248 H 0.50717 -0.02250 0.53594
 H1249 H 0.53600 0.00672 0.47770
 H1250 H 0.52273 -0.00845 0.46320
 H1251 H 0.47793 0.00698 0.53643
 H1252 H 0.46243 -0.00803 0.52185
 O1253 O 0.50060 0.53651 0.01774
 O1254 O 0.47695 0.53207 0.01572
 O1255 O 0.51724 0.50089 0.03633
 O1256 O 0.51721 0.47801 0.03238
 O1257 O 0.53612 0.51787 0.00070
 O1258 O 0.53112 0.51648 -0.02340
 O1259 O 0.48139 0.46439 -0.00111
 O1260 O 0.48436 0.46811 0.02246
 O1261 O 0.46400 0.49885 -0.01811
 O1262 O 0.46875 0.52388 -0.01685
 O1263 O 0.49851 0.48221 -0.03586
 O1264 O 0.52334 0.48308 -0.03106
 O1265 O 0.49789 0.46434 -0.01763
 O1266 O 0.52354 0.46916 -0.01591
 O1267 O 0.48210 0.49879 -0.03598
 O1268 O 0.48378 0.52424 -0.03086
 O1269 O 0.46408 0.48203 -0.00196
 O1270 O 0.46821 0.48685 0.02305
 O1271 O 0.51690 0.53662 0.00097
 O1272 O 0.51562 0.53148 -0.02355
 O1273 O 0.53621 0.50133 0.01719
 O1274 O 0.53076 0.47641 0.01489
 O1275 O 0.50099 0.51766 0.03628
 O1276 O 0.47614 0.51436 0.03101
 Zr1277 Zr 0.49220 0.51667 0.01656
 O1278 O 0.47905 0.50474 0.00426
 Zr1279 Zr 0.51643 0.49262 0.01642
 O1280 O 0.50409 0.47948 0.00450
 Zr1281 Zr 0.51627 0.51678 -0.00766
 O1282 O 0.50429 0.50456 -0.02084
 Zr1283 Zr 0.48328 0.48394 0.00768
 O1284 O 0.49558 0.49580 0.02110
 Zr1285 Zr 0.48348 0.50797 -0.01653
 O1286 O 0.49548 0.52125 -0.00430
 Zr1287 Zr 0.50747 0.48371 -0.01632
 O1288 O 0.52092 0.49594 -0.00442
 O1289 O 0.51290 0.51328 0.01300
 O1290 O 0.48674 0.48721 -0.01308
 C1291 C 0.51022 0.54226 0.01084
 C1292 C 0.51063 0.51076 0.04199
 C1293 C 0.54186 0.51110 0.01041
 C1294 C 0.48785 0.45884 -0.01113
 C1295 C 0.45854 0.48866 -0.01186
 C1296 C 0.48858 0.48875 -0.04146
 H1297 H 0.46939 0.50689 0.00645
 H1298 H 0.50655 0.50671 -0.03046
 H1299 H 0.51875 0.51913 0.01885
 H1300 H 0.50609 0.46981 0.00677
 H1301 H 0.48725 0.47248 0.03115
 H1302 H 0.51054 0.47074 0.03006
 H1303 H 0.49133 0.52249 -0.03738
 H1304 H 0.50680 0.53641 -0.02259
 H1305 H 0.46173 0.47903 0.02255
 H1306 H 0.47707 0.52162 0.03809
 H1307 H 0.52262 0.49146 -0.03670
 H1308 H 0.53565 0.50742 -0.02291
 H1309 H 0.47733 0.53607 0.00642
 H1310 H 0.46283 0.52278 -0.00871
 H1311 H 0.53619 0.47806 0.00649
 H1312 H 0.52156 0.46251 -0.00852
 O1313 O 0.76828 0.28634 0.49949
 O1314 O 0.76617 0.28178 0.52313
 O1315 O 0.78677 0.25079 0.48263
 O1316 O 0.78280 0.22791 0.48262
 O1317 O 0.75121 0.26786 0.46377
 O1318 O 0.72709 0.26664 0.46873
 O1319 O 0.74914 0.21422 0.51815
 O1320 O 0.77272 0.21781 0.51522
 O1321 O 0.73231 0.24863 0.53577
 O1322 O 0.73356 0.27365 0.53116
 O1323 O 0.71452 0.23215 0.50109
 O1324 O 0.71935 0.23326 0.47622
 O1325 O 0.73268 0.21429 0.50157
 O1326 O 0.73438 0.21919 0.47601
 O1327 O 0.71442 0.24860 0.51766
 O1328 O 0.71957 0.27410 0.51607
 O1329 O 0.74844 0.23177 0.53560
 O1330 O 0.77343 0.23644 0.53153
 O1331 O 0.75156 0.28658 0.48310
 O1332 O 0.72702 0.28156 0.48434
 O1333 O 0.76767 0.25129 0.46364
 O1334 O 0.76528 0.22640 0.46892
 O1335 O 0.78674 0.26747 0.49902
 O1336 O 0.78143 0.26404 0.52385
 Zr1337 Zr 0.76700 0.26647 0.50775
 O1338 O 0.75465 0.25450 0.52079
 Zr1339 Zr 0.76684 0.24254 0.48337
 O1340 O 0.75486 0.22938 0.49556
 Zr1341 Zr 0.74283 0.26677 0.48361
 O1342 O 0.72959 0.25454 0.49547
 Zr1343 Zr 0.75803 0.23371 0.51641
 O1344 O 0.77150 0.24560 0.50425
 Zr1345 Zr 0.73388 0.25781 0.51632
 O1346 O 0.74616 0.27112 0.50445
 Zr1347 Zr 0.73406 0.23370 0.49216
 O1348 O 0.74603 0.24595 0.47883
 O1349 O 0.76347 0.26318 0.48702
 O1350 O 0.73728 0.23707 0.51292
 C1351 C 0.76143 0.29215 0.48985
 C1352 C 0.79243 0.26063 0.48932
 C1353 C 0.76091 0.26109 0.45802
 C1354 C 0.73913 0.20874 0.51161
 C1355 C 0.73857 0.23841 0.54119
 C1356 C 0.70893 0.23861 0.51108
 H1357 H 0.75685 0.25659 0.53046
 H1358 H 0.71997 0.25673 0.49321
 H1359 H 0.76933 0.26904 0.48121
 H1360 H 0.75709 0.21970 0.49351
 H1361 H 0.78143 0.22214 0.51235
 H1362 H 0.78035 0.22050 0.48908
 H1363 H 0.71303 0.27238 0.50852
 H1364 H 0.72796 0.28638 0.49322
 H1365 H 0.77292 0.22855 0.53791
 H1366 H 0.78852 0.27127 0.52298
 H1367 H 0.71364 0.24159 0.47708
 H1368 H 0.72752 0.25759 0.46415
 H1369 H 0.75691 0.28589 0.52266
 H1370 H 0.74177 0.27258 0.53701
 H1371 H 0.75689 0.22810 0.46349
 H1372 H 0.74184 0.21260 0.47789
 O1373 O 0.76816 0.78639 -0.00082
 O1374 O 0.76616 0.78187 0.02281
 O1375 O 0.78626 0.75062 -0.01774
 O1376 O 0.78205 0.72785 -0.01795
 O1377 O 0.75073 0.76815 -0.03642
 O1378 O 0.72665 0.76704 -0.03136
 O1379 O 0.74864 0.71441 0.01794
 O1380 O 0.77221 0.71786 0.01493
 O1381 O 0.73215 0.74899 0.03569
 O1382 O 0.73352 0.77399 0.03106
 O1383 O 0.71400 0.73262 0.00114
 O1384 O 0.71857 0.73361 -0.02368
 O1385 O 0.73206 0.71460 0.00147
 O1386 O 0.73369 0.71959 -0.02415
 O1387 O 0.71414 0.74908 0.01770
 O1388 O 0.71944 0.77452 0.01606
 O1389 O 0.74808 0.73196 0.03540
 O1390 O 0.77310 0.73650 0.03120
 O1391 O 0.75132 0.78679 -0.01707
 O1392 O 0.72673 0.78192 -0.01570
 O1393 O 0.76707 0.75148 -0.03668
 O1394 O 0.76441 0.72650 -0.03139
 O1395 O 0.78646 0.76732 -0.00138
 O1396 O 0.78127 0.76402 0.02346
 Zr1397 Zr 0.76677 0.76653 0.00745
 O1398 O 0.75442 0.75467 0.02057
 Zr1399 Zr 0.76625 0.74263 -0.01697
 O1400 O 0.75428 0.72955 -0.00466
 Zr1401 Zr 0.74245 0.76705 -0.01654
 O1402 O 0.72920 0.75490 -0.00459
 Zr1403 Zr 0.75761 0.73386 0.01616
 O1404 O 0.77108 0.74564 0.00390
 Zr1405 Zr 0.73365 0.75814 0.01623
 O1406 O 0.74595 0.77136 0.00428
 Zr1407 Zr 0.73349 0.73402 -0.00793
 O1408 O 0.74543 0.74620 -0.02136
 O1409 O 0.76308 0.76329 -0.01326
 O1410 O 0.73687 0.73736 0.01281
 C1411 C 0.76129 0.79227 -0.01039
 C1412 C 0.79204 0.76040 -0.01108
 C1413 C 0.76036 0.76135 -0.04224
 C1414 C 0.73855 0.70899 0.01145
 C1415 C 0.73832 0.73870 0.04106
 C1416 C 0.70853 0.73913 0.01117
 H1417 H 0.75669 0.75674 0.03023
 H1418 H 0.71958 0.75716 -0.00680
 H1419 H 0.76897 0.76911 -0.01909
 H1420 H 0.75644 0.71987 -0.00674
 H1421 H 0.78094 0.72214 0.01205
 H1422 H 0.77976 0.72061 -0.01126
 H1423 H 0.71284 0.77283 0.00855
 H1424 H 0.72778 0.78675 -0.00684
 H1425 H 0.77254 0.72866 0.03763
 H1426 H 0.78842 0.77119 0.02254
 H1427 H 0.71310 0.74210 -0.02292
 H1428 H 0.72696 0.75798 -0.03591
 H1429 H 0.75692 0.78603 0.02243
 H1430 H 0.74175 0.77287 0.03685
 H1431 H 0.75607 0.72836 -0.03684
 H1432 H 0.74103 0.71288 -0.02226
 O1433 O 1.03618 0.23182 0.24910
 O1434 O 1.03183 0.23385 0.27276
 O1435 O 1.00050 0.21318 0.23253
 O1436 O 0.97768 0.21708 0.23264
 O1437 O 1.01737 0.24884 0.21358
 O1438 O 1.01612 0.27297 0.21860
 O1439 O 0.96421 0.25058 0.26845
 O1440 O 0.96788 0.22703 0.26543
 O1441 O 0.99871 0.26762 0.28579
 O1442 O 1.02369 0.26646 0.28096
 O1443 O 0.98189 0.28537 0.25136
 O1444 O 0.98275 0.28066 0.22651
 O1445 O 0.96409 0.26709 0.25191
 O1446 O 0.96884 0.26547 0.22626
 O1447 O 0.99849 0.28552 0.26775
 O1448 O 1.02395 0.28051 0.26591
 O1449 O 0.98189 0.25143 0.28572
 O1450 O 0.98665 0.22643 0.28157
 O1451 O 1.03624 0.24857 0.23275
 O1452 O 1.03115 0.27310 0.23409
 O1453 O 1.00087 0.23230 0.21355
 O1454 O 0.97601 0.23464 0.21906
 O1455 O 1.01733 0.21327 0.24875
 O1456 O 1.01413 0.21855 0.27361
 Zr1457 Zr 1.01638 0.23300 0.25753
 O1458 O 1.00452 0.24529 0.27071
 Zr1459 Zr 0.99226 0.23310 0.23335
 O1460 O 0.97919 0.24501 0.24571
 Zr1461 Zr 1.01642 0.25721 0.23345
 O1462 O 1.00426 0.27040 0.24546
 Zr1463 Zr 0.98372 0.24182 0.26650
 O1464 O 0.99552 0.22842 0.25419
 Zr1465 Zr 1.00773 0.26610 0.26627
 O1466 O 1.02096 0.25388 0.25424
 Zr1467 Zr 0.98342 0.26585 0.24233
 O1468 O 0.99558 0.25395 0.22885
 O1469 O 1.01292 0.23654 0.23683
 O1470 O 0.98698 0.26261 0.26305
 C1471 C 1.04189 0.23871 0.23944
 C1472 C 1.01040 0.20754 0.23913
 C1473 C 1.01060 0.23909 0.20787
 C1474 C 0.95864 0.26058 0.26198
 C1475 C 0.98855 0.26134 0.29126
 C1476 C 0.98842 0.29098 0.26131
 H1477 H 1.00670 0.24310 0.28036
 H1478 H 1.00640 0.28004 0.24321
 H1479 H 1.01874 0.23069 0.23096
 H1480 H 0.96952 0.24273 0.24373
 H1481 H 0.97223 0.21833 0.26253
 H1482 H 0.97039 0.21944 0.23926
 H1483 H 1.02212 0.28706 0.25839
 H1484 H 1.03603 0.27219 0.24293
 H1485 H 0.97883 0.22691 0.28803
 H1486 H 1.02136 0.21146 0.27266
 H1487 H 0.99114 0.28629 0.22723
 H1488 H 1.00702 0.27252 0.21412
 H1489 H 1.03587 0.24315 0.27234
 H1490 H 1.02265 0.25828 0.28684
 H1491 H 0.97769 0.24302 0.21359
 H1492 H 0.96223 0.25803 0.22821
 O1493 O 0.74904 1.03614 0.73185
 O1494 O 0.77269 1.03163 0.73393
 O1495 O 0.73224 1.00043 0.71350
 O1496 O 0.73217 0.97760 0.71757
 O1497 O 0.71343 1.01773 0.74904
 O1498 O 0.71848 1.01660 0.77317
 O1499 O 0.76794 0.96410 0.75118
 O1500 O 0.76493 0.96762 0.72756
 O1501 O 0.78551 0.99865 0.76789
 O1502 O 0.78085 1.02366 0.76653
 O1503 O 0.75097 0.98220 0.78577
 O1504 O 0.72612 0.98321 0.78105
 O1505 O 0.75141 0.96423 0.76767
 O1506 O 0.72580 0.96914 0.76599
 O1507 O 0.76746 0.99872 0.78580
 O1508 O 0.76583 1.02416 0.78057
 O1509 O 0.78532 0.98169 0.75184
 O1510 O 0.78117 0.98628 0.72682
 O1511 O 0.73272 1.03645 0.74860
 O1512 O 0.73407 1.03152 0.77317
 O1513 O 0.71327 1.00110 0.73262
 O1514 O 0.71860 0.97617 0.73512
 O1515 O 0.74858 1.01714 0.71346
 O1516 O 0.77341 1.01382 0.71874
 Zr1517 Zr 0.75736 1.01628 0.73318
 O1518 O 0.77046 1.00438 0.74554
 Zr1519 Zr 0.73300 0.99232 0.73347
 O1520 O 0.74528 0.97922 0.74546
 Zr1521 Zr 0.73330 1.01667 0.75739
 O1522 O 0.74523 1.00451 0.77064
 Zr1523 Zr 0.76611 0.98357 0.74224
 O1524 O 0.75387 0.99538 0.72876
 Zr1525 Zr 0.76605 1.00780 0.76630
 O1526 O 0.75412 1.02104 0.75401
 Zr1527 Zr 0.74195 0.98363 0.76625
 O1528 O 0.72854 0.99582 0.75428
 O1529 O 0.73665 1.01298 0.73676
 O1530 O 0.76269 0.98703 0.76298
 C1531 C 0.73943 1.04198 0.73870
 C1532 C 0.73889 1.01024 0.70780
 C1533 C 0.70766 1.01093 0.73935
 C1534 C 0.76145 0.95865 0.76123
 C1535 C 0.79091 0.98839 0.76168
 C1536 C 0.76095 0.98873 0.79133
 H1537 H 0.78012 1.00648 0.74332
 H1538 H 0.74300 1.00674 0.78026
 H1539 H 0.73082 1.01881 0.73088
 H1540 H 0.74323 0.96953 0.74325
 H1541 H 0.76205 0.97192 0.71884
 H1542 H 0.73876 0.97029 0.71995
 H1543 H 0.75830 1.02246 0.78712
 H1544 H 0.74292 1.03637 0.77218
 H1545 H 0.78762 0.97845 0.72737
 H1546 H 0.77251 1.02102 0.71162
 H1547 H 0.72690 0.99164 0.78662
 H1548 H 0.71391 1.00754 0.77278
 H1549 H 0.77227 1.03578 0.74318
 H1550 H 0.78671 1.02253 0.75835
 H1551 H 0.71317 0.97793 0.74350
 H1552 H 0.72771 0.96244 0.75862
 O1553 O 0.74938 0.53647 0.23216
 O1554 O 0.77299 0.53205 0.23419
 O1555 O 0.73267 0.50082 0.21358
 O1556 O 0.73271 0.47795 0.21752
 O1557 O 0.71378 0.51782 0.24919
 O1558 O 0.71879 0.51661 0.27329
 O1559 O 0.76843 0.46441 0.25104
 O1560 O 0.76550 0.46807 0.22749
 O1561 O 0.78589 0.49889 0.26806
 O1562 O 0.78121 0.52388 0.26685
 O1563 O 0.75134 0.48228 0.28578
 O1564 O 0.72651 0.48320 0.28099
 O1565 O 0.75192 0.46442 0.26756
 O1566 O 0.72630 0.46921 0.26586
 O1567 O 0.76780 0.49882 0.28592
 O1568 O 0.76611 0.52430 0.28081
 O1569 O 0.78578 0.48201 0.25192
 O1570 O 0.78171 0.48678 0.22692
 O1571 O 0.73303 0.53663 0.24889
 O1572 O 0.73432 0.53160 0.27340
 O1573 O 0.71370 0.50126 0.23270
 O1574 O 0.71914 0.47637 0.23505
 O1575 O 0.74894 0.51759 0.21363
 O1576 O 0.77382 0.51428 0.21894
 Zr1577 Zr 0.75773 0.51663 0.23337
 O1578 O 0.77086 0.50474 0.24569
 Zr1579 Zr 0.73347 0.49259 0.23349
 O1580 O 0.74578 0.47949 0.24543
 Zr1581 Zr 0.73364 0.51682 0.25756
 O1582 O 0.74559 0.50463 0.27076
 Zr1583 Zr 0.76659 0.48393 0.24226
 O1584 O 0.75433 0.49576 0.22883
 Zr1585 Zr 0.76642 0.50801 0.26647
 O1586 O 0.75445 0.52126 0.25422
 Zr1587 Zr 0.74238 0.48378 0.26624
 O1588 O 0.72896 0.49597 0.25432
 O1589 O 0.73703 0.51325 0.23690
 O1590 O 0.76312 0.48725 0.26303
 C1591 C 0.73974 0.54224 0.23903
 C1592 C 0.73929 0.51069 0.20792
 C1593 C 0.70804 0.51102 0.23948
 C1594 C 0.76196 0.45890 0.26106
 C1595 C 0.79134 0.48866 0.26183
 C1596 C 0.76129 0.48880 0.29139
 H1597 H 0.78052 0.50688 0.24351
 H1598 H 0.74333 0.50680 0.28039
 H1599 H 0.73117 0.51909 0.23105
 H1600 H 0.74376 0.46981 0.24317
 H1601 H 0.76264 0.47242 0.21879
 H1602 H 0.73936 0.47068 0.21985
 H1603 H 0.75860 0.52253 0.28736
 H1604 H 0.74318 0.53646 0.27247
 H1605 H 0.78816 0.47895 0.22745
 H1606 H 0.77288 0.52148 0.21183
 H1607 H 0.72728 0.49157 0.28666
 H1608 H 0.71429 0.50752 0.27288
 H1609 H 0.77263 0.53606 0.24350
 H1610 H 0.78708 0.52282 0.25868
 H1611 H 0.71370 0.47805 0.24343
 H1612 H 0.72824 0.46258 0.25844
 O1613 O 0.53605 0.23184 0.74905
 O1614 O 0.53156 0.23366 0.77270
 O1615 O 0.50042 0.21348 0.73207
 O1616 O 0.47758 0.21747 0.73218
 O1617 O 0.51751 0.24925 0.71357
 O1618 O 0.51638 0.27332 0.71879
 O1619 O 0.46408 0.25086 0.76816
 O1620 O 0.46762 0.22727 0.76498
 O1621 O 0.49853 0.26758 0.78577
 O1622 O 0.52349 0.26631 0.78116
 O1623 O 0.48206 0.28564 0.75133
 O1624 O 0.48303 0.28100 0.72644
 O1625 O 0.46416 0.26750 0.75176
 O1626 O 0.46894 0.26597 0.72614
 O1627 O 0.49856 0.28559 0.76783
 O1628 O 0.52401 0.28040 0.76613
 O1629 O 0.48165 0.25146 0.78551
 O1630 O 0.48630 0.22647 0.78123
 O1631 O 0.53627 0.24871 0.73284
 O1632 O 0.53130 0.27325 0.73434
 O1633 O 0.50092 0.23279 0.71330
 O1634 O 0.47604 0.23514 0.71873
 O1635 O 0.51716 0.21334 0.74837
 O1636 O 0.51376 0.21843 0.77329
 Zr1637 Zr 0.51621 0.23301 0.75736
 O1638 O 0.50434 0.24528 0.77057
 Zr1639 Zr 0.49223 0.23342 0.73307
 O1640 O 0.47914 0.24531 0.74544
 Zr1641 Zr 0.51650 0.25744 0.73350
 O1642 O 0.50434 0.27059 0.74553
 Zr1643 Zr 0.48354 0.24197 0.76624
 O1644 O 0.49534 0.22857 0.75390
 Zr1645 Zr 0.50768 0.26611 0.76631
 O1646 O 0.52091 0.25390 0.75428
 Zr1647 Zr 0.48350 0.26615 0.74223
 O1648 O 0.49568 0.25429 0.72874
 O1649 O 0.51288 0.23675 0.73669
 O1650 O 0.48693 0.26276 0.76294
 C1651 C 0.54184 0.23878 0.73947
 C1652 C 0.51027 0.20773 0.73864
 C1653 C 0.51070 0.23961 0.70773
 C1654 C 0.45862 0.26096 0.76176
 C1655 C 0.48830 0.26132 0.79114
 C1656 C 0.48857 0.29115 0.76134
 H1657 H 0.50645 0.24301 0.78022
 H1658 H 0.50655 0.28023 0.74335
 H1659 H 0.51871 0.23093 0.73080
 H1660 H 0.46947 0.24310 0.74340
 H1661 H 0.47194 0.21857 0.76205
 H1662 H 0.47028 0.21981 0.73878
 H1663 H 0.52225 0.28704 0.75870
 H1664 H 0.53616 0.27222 0.74319
 H1665 H 0.47845 0.22695 0.78765
 H1666 H 0.52096 0.21132 0.77233
 H1667 H 0.49137 0.28668 0.72732
 H1668 H 0.50731 0.27296 0.71425
 H1669 H 0.53561 0.24296 0.77241
 H1670 H 0.52242 0.25804 0.78692
 H1671 H 0.47774 0.24358 0.71338
 H1672 H 0.46230 0.25855 0.72802
 O1673 O 0.25098 0.76831 0.46364
 O1674 O 0.22732 0.76634 0.46813
 O1675 O 0.26775 0.78684 0.49932
 O1676 O 0.26782 0.78284 0.52212
 O1677 O 0.28654 0.75120 0.48216
 O1678 O 0.28153 0.72708 0.48344
 O1679 O 0.23200 0.74941 0.53568
 O1680 O 0.23502 0.77298 0.53205
 O1681 O 0.21443 0.73250 0.50123
 O1682 O 0.21909 0.73371 0.47625
 O1683 O 0.24895 0.71461 0.51778
 O1684 O 0.27377 0.71930 0.51682
 O1685 O 0.24848 0.73285 0.53565
 O1686 O 0.27412 0.73446 0.53076
 O1687 O 0.23245 0.71454 0.50127
 O1688 O 0.23412 0.71964 0.47583
 O1689 O 0.21462 0.74866 0.51809
 O1690 O 0.21879 0.77365 0.51337
 O1691 O 0.26726 0.75151 0.46344
 O1692 O 0.26594 0.72696 0.46850
 O1693 O 0.28669 0.76769 0.49872
 O1694 O 0.28135 0.76524 0.52362
 O1695 O 0.25147 0.78684 0.48256
 O1696 O 0.22661 0.78160 0.48586
 Zr1697 Zr 0.24265 0.76711 0.48348
 O1698 O 0.22952 0.75481 0.49539
 Zr1699 Zr 0.26696 0.76689 0.50747
 O1700 O 0.25465 0.75497 0.52058
 Zr1701 Zr 0.26668 0.74284 0.48324
 O1702 O 0.25471 0.72965 0.49543
 Zr1703 Zr 0.23385 0.75822 0.51618
 O1704 O 0.24611 0.77163 0.50434
 Zr1705 Zr 0.23390 0.73400 0.49210
 O1706 O 0.24586 0.74623 0.47883
 Zr1707 Zr 0.25797 0.73413 0.51627
 O1708 O 0.27140 0.74604 0.50406
 O1709 O 0.26335 0.76351 0.48682
 O1710 O 0.23724 0.73743 0.51284
 C1711 C 0.26058 0.76140 0.45786
 C1712 C 0.26114 0.79252 0.48946
 C1713 C 0.29230 0.76092 0.48892
 C1714 C 0.23847 0.73937 0.54117
 C1715 C 0.20902 0.73878 0.51144
 C1716 C 0.23896 0.70903 0.51128
 H1717 H 0.21986 0.75703 0.49328
 H1718 H 0.25694 0.72001 0.49325
 H1719 H 0.26918 0.76937 0.48098
 H1720 H 0.25669 0.75722 0.53025
 H1721 H 0.23791 0.78168 0.52771
 H1722 H 0.26119 0.78052 0.52941
 H1723 H 0.24166 0.71309 0.47756
 H1724 H 0.25708 0.72790 0.46365
 H1725 H 0.21235 0.77315 0.52120
 H1726 H 0.22754 0.78870 0.47865
 H1727 H 0.27303 0.71372 0.50839
 H1728 H 0.28608 0.72754 0.49250
 H1729 H 0.22769 0.75704 0.46407
 H1730 H 0.21326 0.74193 0.47732
 H1731 H 0.28680 0.75687 0.52186
 H1732 H 0.27222 0.74189 0.53739
 O1733 O 0.23233 0.24888 1.03644
 O1734 O 0.23429 0.27258 1.03208
 O1735 O 0.21387 0.23219 1.00075
 O1736 O 0.21785 0.23224 0.97791
 O1737 O 0.24961 0.21346 1.01774
 O1738 O 0.27369 0.21861 1.01650
 O1739 O 0.25112 0.26823 0.96447
 O1740 O 0.22759 0.26510 0.96810
 O1741 O 0.26799 0.28576 0.99895
 O1742 O 0.26680 0.28101 1.02393
 O1743 O 0.28596 0.25136 0.98225
 O1744 O 0.28135 0.22645 0.98318
 O1745 O 0.26772 0.25179 0.96443
 O1746 O 0.26623 0.22612 0.96921
 O1747 O 0.28599 0.26780 0.99882
 O1748 O 0.28092 0.26603 1.02428
 O1749 O 0.25184 0.28556 0.98210
 O1750 O 0.22688 0.28130 0.98681
 O1751 O 0.24918 0.23264 1.03656
 O1752 O 0.27370 0.23414 1.03152
 O1753 O 0.23310 0.21330 1.00122
 O1754 O 0.23547 0.21876 0.97634
 O1755 O 0.21383 0.24846 1.01754
 O1756 O 0.21900 0.27336 1.01436
 Zr1757 Zr 0.23352 0.25733 1.01664
 O1758 O 0.24574 0.27056 1.00476
 Zr1759 Zr 0.23380 0.23309 0.99256
 O1760 O 0.24566 0.24549 0.97948
 Zr1761 Zr 0.25786 0.23338 1.01676
 O1762 O 0.27098 0.24545 1.00461
 Zr1763 Zr 0.24234 0.26629 0.98397
 O1764 O 0.22899 0.25393 0.99577
 Zr1765 Zr 0.26655 0.26625 1.00802
 O1766 O 0.25439 0.25418 1.02125
 Zr1767 Zr 0.26649 0.24223 0.98377
 O1768 O 0.25465 0.22871 0.99593
 O1769 O 0.23718 0.23664 1.01321
 O1770 O 0.26312 0.26295 0.98727
 C1771 C 0.23926 0.23926 1.04218
 C1772 C 0.20817 0.23879 1.01061
 C1773 C 0.23991 0.20768 1.01097
 C1774 C 0.26117 0.26181 0.95895
 C1775 C 0.26170 0.29118 0.98875
 C1776 C 0.29150 0.26135 0.98878
 H1777 H 0.24349 0.28021 1.00691
 H1778 H 0.28063 0.24325 1.00677
 H1779 H 0.23135 0.23075 1.01903
 H1780 H 0.24341 0.24347 0.96981
 H1781 H 0.21890 0.26217 0.97243
 H1782 H 0.22017 0.23886 0.97062
 H1783 H 0.28749 0.25853 1.02250
 H1784 H 0.27271 0.24298 1.03641
 H1785 H 0.22735 0.28776 0.97899
 H1786 H 0.21193 0.27239 1.02159
 H1787 H 0.28701 0.22726 0.99154
 H1788 H 0.27327 0.21409 1.00743
 H1789 H 0.24358 0.27220 1.03613
 H1790 H 0.25857 0.28682 1.02288
 H1791 H 0.24387 0.21335 0.97805
 H1792 H 0.25879 0.22801 0.96259
 C1793 C 0.28353 0.39688 0.80031
 C1794 C 0.28922 0.40240 0.78839
 C1795 C 0.30127 0.39681 0.78303
 C1796 C 0.30756 0.38569 0.78950
 C1797 C 0.30188 0.37996 0.80146
 C1798 C 0.28979 0.38576 0.80681
 C1799 C 0.28284 0.41394 0.78179
 C1800 C 0.27762 0.42377 0.77643
 C1801 C 0.27177 0.43557 0.77048
 C1802 C 0.26711 0.44601 0.76581
 H1803 H 0.27424 0.40118 0.80460
 H1804 H 0.30582 0.40106 0.77384
 H1805 H 0.31683 0.38161 0.78504
 H1806 H 0.28508 0.38173 0.81598
 C1807 C 0.28220 -0.10480 0.29871
 C1808 C 0.28761 -0.09949 0.28657
 C1809 C 0.29954 -0.10515 0.28102
 C1810 C 0.30603 -0.11612 0.28757
 C1811 C 0.30068 -0.12158 0.29980
 C1812 C 0.28866 -0.11576 0.30528
 C1813 C 0.28116 -0.08796 0.28005
 C1814 C 0.27596 -0.07805 0.27484
 C1815 C 0.27024 -0.06605 0.26917
 C1816 C 0.26582 -0.05539 0.26481
 H1817 H 0.27302 -0.10043 0.30316
 H1818 H 0.30386 -0.10104 0.27167
 H1819 H 0.31523 -0.12025 0.28300
 H1820 H 0.28419 -0.11959 0.31465
 C1821 C 0.79998 0.89596 0.78262
 C1822 C 0.78807 0.90155 0.78824
 C1823 C 0.78255 0.89591 0.80018
 C1824 C 0.78888 0.88470 0.80647
 C1825 C 0.80091 0.87889 0.80092
 C1826 C 0.80636 0.88476 0.78887
 C1827 C 0.78168 0.91326 0.78190
 C1828 C 0.77654 0.92322 0.77669
 C1829 C 0.77081 0.93515 0.77083
 C1830 C 0.76627 0.94566 0.76617
 H1831 H 0.80439 0.90029 0.77340
 H1832 H 0.77334 0.90019 0.80466
 H1833 H 0.78423 0.88068 0.81567
 H1834 H 0.81555 0.88080 0.78414
 C1835 C 0.45018 0.85400 0.28259
 C1836 C 0.46218 0.84850 0.28813
 C1837 C 0.46769 0.85408 0.30014
 C1838 C 0.46126 0.86517 0.30655
 C1839 C 0.44917 0.87083 0.30105
 C1840 C 0.44373 0.86508 0.28896
 C1841 C 0.46867 0.83694 0.28167
 C1842 C 0.47392 0.82708 0.27642
 C1843 C 0.47973 0.81521 0.27057
 C1844 C 0.48429 0.80470 0.26597
 H1845 H 0.44579 0.84971 0.27333
 H1846 H 0.47695 0.84985 0.30455
 H1847 H 0.46581 0.86924 0.31579
 H1848 H 0.43452 0.86912 0.28434
 C1849 C -0.03209 0.85461 0.79986
 C1850 C -0.03761 0.84906 0.78784
 C1851 C -0.04973 0.85445 0.78244
 C1852 C -0.05625 0.86543 0.78893
 C1853 C -0.05074 0.87120 0.80097
 C1854 C -0.03859 0.86560 0.80638
 C1855 C -0.03104 0.83760 0.78125
 C1856 C -0.02574 0.82781 0.77589
 C1857 C -0.01987 0.81599 0.76996
 C1858 C -0.01533 0.80546 0.76538
 H1859 H -0.02276 0.85044 0.80419
 H1860 H -0.05416 0.85016 0.77319
 H1861 H -0.06557 0.86935 0.78443
 H1862 H -0.03398 0.86973 0.81557
 C1863 C -0.04980 -0.10433 -0.03256
 C1864 C -0.03777 -0.09887 -0.03807
 C1865 C -0.03224 -0.10451 -0.05003
 C1866 C -0.03867 -0.11562 -0.05640
 C1867 C -0.05078 -0.12125 -0.05093
 C1868 C -0.05626 -0.11544 -0.03891
 C1869 C -0.03130 -0.08727 -0.03165
 C1870 C -0.02607 -0.07737 -0.02642
 C1871 C -0.02029 -0.06545 -0.02061
 C1872 C -0.01577 -0.05490 -0.01605
 H1873 H -0.05422 -0.09998 -0.02335
 H1874 H -0.02297 -0.10029 -0.05444
 H1875 H -0.03410 -0.11974 -0.06561
 H1876 H -0.06550 -0.11943 -0.03432
 C1877 C -0.05048 0.39580 0.46759
 C1878 C -0.03855 0.40147 0.46209
 C1879 C -0.03296 0.39595 0.45012
 C1880 C -0.03923 0.38478 0.44369
 C1881 C -0.05127 0.37888 0.44912
 C1882 C -0.05680 0.38462 0.46120
 C1883 C -0.03217 0.41313 0.46855
 C1884 C -0.02695 0.42306 0.47375
 C1885 C -0.02110 0.43499 0.47951
 C1886 C -0.01647 0.44553 0.48404
 H1887 H -0.05495 0.40004 0.47683
 H1888 H -0.02375 0.40032 0.44572
 H1889 H -0.03452 0.38088 0.43446
 H1890 H -0.06599 0.38057 0.46584
 C1891 C 0.44946 -0.10341 0.46684
 C1892 C 0.46135 -0.09775 0.46123
 C1893 C 0.46680 -0.10325 0.44919
 C1894 C 0.46049 -0.11446 0.44284
 C1895 C 0.44856 -0.12043 0.44845
 C1896 C 0.44311 -0.11463 0.46055
 C1897 C 0.46782 -0.08618 0.46774
 C1898 C 0.47306 -0.07633 0.47310
 C1899 C 0.47890 -0.06451 0.47910
 C1900 C 0.48351 -0.05404 0.48381
 H1901 H 0.44507 -0.09915 0.47610
 H1902 H 0.47595 -0.09889 0.44468
 H1903 H 0.46512 -0.11841 0.43359
 H1904 H 0.43397 -0.11867 0.46529
 C1905 C 0.46648 0.39648 -0.05023
 C1906 C 0.46099 0.40184 -0.03814
 C1907 C 0.44916 0.39603 -0.03257
 C1908 C 0.44285 0.38487 -0.03900
 C1909 C 0.44828 0.37928 -0.05119
 C1910 C 0.46022 0.38532 -0.05671
 C1911 C 0.46733 0.41349 -0.03164
 C1912 C 0.47252 0.42341 -0.02638
 C1913 C 0.47834 0.43532 -0.02055
 C1914 C 0.48295 0.44583 -0.01596
 H1915 H 0.47561 0.40097 -0.05469
 H1916 H 0.44476 0.40015 -0.02325
 H1917 H 0.43373 0.38072 -0.03430
 H1918 H 0.46484 0.38155 -0.06603
 C1919 C 0.79966 0.35518 0.46887
 C1920 C 0.78774 0.34941 0.46337
 C1921 C 0.78229 0.35462 0.45119
 C1922 C 0.78868 0.36559 0.44456
 C1923 C 0.80067 0.37152 0.45000
 C1924 C 0.80607 0.36615 0.46226
 C1925 C 0.78133 0.33789 0.46998
 C1926 C 0.77614 0.32802 0.47527
 C1927 C 0.77040 0.31606 0.48104
 C1928 C 0.76596 0.30541 0.48544
 H1929 H 0.80403 0.35115 0.47824
 H1930 H 0.77312 0.35016 0.44677
 H1931 H 0.78418 0.36934 0.43516
 H1932 H 0.81525 0.37036 0.46682
 C1933 C 0.79988 0.85495 -0.03157
 C1934 C 0.78779 0.84940 -0.03691
 C1935 C 0.78224 0.85474 -0.04899
 C1936 C 0.78870 0.86564 -0.05567
 C1937 C 0.80085 0.87137 -0.05037
 C1938 C 0.80637 0.86585 -0.03822
 C1939 C 0.78133 0.83792 -0.03028
 C1940 C 0.77612 0.82807 -0.02498
 C1941 C 0.77036 0.81613 -0.01921
 C1942 C 0.76589 0.80550 -0.01481
 H1943 H 0.80433 0.85081 -0.02228
 H1944 H 0.77294 0.85044 -0.05328
 H1945 H 0.78411 0.86951 -0.06497
 H1946 H 0.81569 0.86989 -0.03380
 C1947 C 0.78217 0.29969 0.39561
 C1948 C 0.78755 0.28754 0.40095
 C1949 C 0.79949 0.28197 0.39532
 C1950 C 0.80591 0.28841 0.38426
 C1951 C 0.80049 0.30056 0.37867
 C1952 C 0.78856 0.30615 0.38455
 C1953 C 0.78102 0.28101 0.41244
 C1954 C 0.77572 0.27579 0.42228
 C1955 C 0.76989 0.27006 0.43420
 C1956 C 0.76541 0.26563 0.44481
 H1957 H 0.77301 0.30418 0.39998
 H1958 H 0.80384 0.27263 0.39947
 H1959 H 0.81507 0.28378 0.38012
 H1960 H 0.78410 0.31552 0.38067
 C1961 C 0.78125 0.79997 -0.10512
 C1962 C 0.78666 0.78792 -0.09954
 C1963 C 0.79867 0.78235 -0.10500
 C1964 C 0.80522 0.78873 -0.11602
 C1965 C 0.79987 0.80085 -0.12175
 C1966 C 0.78778 0.80638 -0.11614
 C1967 C 0.78011 0.78150 -0.08798
 C1968 C 0.77488 0.77627 -0.07808
 C1969 C 0.76918 0.77047 -0.06611
 C1970 C 0.76481 0.76596 -0.05548
 H1971 H 0.77201 0.80445 -0.10092
 H1972 H 0.80301 0.77308 -0.10070
 H1973 H 0.81448 0.78411 -0.11997
 H1974 H 0.78330 0.81565 -0.12021
 C1975 C 0.30032 0.46763 0.85390
 C1976 C 0.28848 0.46196 0.84813
 C1977 C 0.28306 0.44984 0.85351
 C1978 C 0.28938 0.44344 0.86466
 C1979 C 0.30128 0.44907 0.87060
 C1980 C 0.30667 0.46127 0.86505
 C1981 C 0.28205 0.46840 0.83651
 C1982 C 0.27680 0.47360 0.82662
 C1983 C 0.27092 0.47940 0.81474
 C1984 C 0.26628 0.48396 0.80424
 H1985 H 0.30466 0.47698 0.84976
 H1986 H 0.27394 0.44529 0.84907
 H1987 H 0.28489 0.43410 0.86855
 H1988 H 0.31578 0.46596 0.86928
 C1989 C 0.29958 -0.03124 0.35491
 C1990 C 0.28763 -0.03684 0.34929
 C1991 C 0.28230 -0.04902 0.35462
 C1992 C 0.28883 -0.05555 0.36557
 C1993 C 0.30085 -0.05001 0.37135
 C1994 C 0.30614 -0.03775 0.36586
 C1995 C 0.28107 -0.03036 0.33777
 C1996 C 0.27574 -0.02520 0.32789
 C1997 C 0.26986 -0.01958 0.31593
 C1998 C 0.26536 -0.01524 0.30528
 H1999 H 0.30388 -0.02187 0.35078
 H2000 H 0.27312 -0.05352 0.35028
 H2001 H 0.28439 -0.06493 0.36944
 H2002 H 0.31532 -0.03311 0.36997
 C2003 C -0.03244 -0.05055 -0.10415
 C2004 C -0.03818 -0.03886 -0.09820
 C2005 C -0.05035 -0.03347 -0.10346
 C2006 C -0.05672 -0.03966 -0.11470
 C2007 C -0.05104 -0.05144 -0.12091
 C2008 C -0.03878 -0.05679 -0.11540
 C2009 C -0.03176 -0.03255 -0.08649
 C2010 C -0.02657 -0.02740 -0.07653
 C2011 C -0.02078 -0.02160 -0.06460
 C2012 C -0.01618 -0.01698 -0.05410
 H2013 H -0.02305 -0.05487 -0.10009
 H2014 H -0.05493 -0.02445 -0.09888
 H2015 H -0.06609 -0.03508 -0.11843
 H2016 H -0.03396 -0.06578 -0.11971
 C2017 C -0.03333 0.44933 0.39660
 C2018 C -0.03891 0.46131 0.40212
 C2019 C -0.05085 0.46682 0.39647
 C2020 C -0.05716 0.46045 0.38528
 C2021 C -0.05164 0.44837 0.37953
 C2022 C -0.03960 0.44291 0.38542
 C2023 C -0.03252 0.46777 0.41377
 C2024 C -0.02729 0.47300 0.42368
 C2025 C -0.02141 0.47882 0.43556
 C2026 C -0.01675 0.48342 0.44605
 H2027 H -0.02412 0.44492 0.40095
 H2028 H -0.05532 0.47606 0.40072
 H2029 H -0.06636 0.46510 0.38125
 H2030 H -0.03489 0.43369 0.38150
 C2031 C 0.46699 -0.05088 0.39668
 C2032 C 0.46159 -0.03880 0.40219
 C2033 C 0.44972 -0.03310 0.39656
 C2034 C 0.44330 -0.03941 0.38541
 C2035 C 0.44867 -0.05154 0.37970
 C2036 C 0.46060 -0.05721 0.38552
 C2037 C 0.46808 -0.03236 0.41375
 C2038 C 0.47334 -0.02709 0.42360
 C2039 C 0.47920 -0.02119 0.43542
 C2040 C 0.48380 -0.01650 0.44587
 H2041 H 0.47616 -0.05539 0.40101
 H2042 H 0.44541 -0.02378 0.40079
 H2043 H 0.43418 -0.03468 0.38129
 H2044 H 0.46510 -0.06648 0.38147
 C2045 C 0.44976 0.46763 -0.10410
 C2046 C 0.46162 0.46200 -0.09838
 C2047 C 0.46701 0.44984 -0.10371
 C2048 C 0.46062 0.44336 -0.11477
 C2049 C 0.44869 0.44895 -0.12068
 C2050 C 0.44334 0.46118 -0.11518
 C2051 C 0.46809 0.46850 -0.08682
 C2052 C 0.47336 0.47371 -0.07694
 C2053 C 0.47923 0.47946 -0.06504
 C2054 C 0.48382 0.48397 -0.05451
 H2055 H 0.44544 0.47700 -0.09999
 H2056 H 0.47614 0.44534 -0.09928
 H2057 H 0.46508 0.43398 -0.11863
 H2058 H 0.43421 0.46583 -0.11937
 C2059 C 0.45001 0.78364 0.35335
 C2060 C 0.46209 0.78913 0.34794
 C2061 C 0.46775 0.80097 0.35373
 C2062 C 0.46141 0.80726 0.36494
 C2063 C 0.44928 0.80181 0.37052
 C2064 C 0.44365 0.78991 0.36455
 C2065 C 0.46849 0.78275 0.33628
 C2066 C 0.47365 0.77751 0.32635
 C2067 C 0.47938 0.77161 0.31445
 C2068 C 0.48391 0.76692 0.30395
 H2069 H 0.44549 0.77452 0.34890
 H2070 H 0.47705 0.80536 0.34957
 H2071 H 0.46607 0.81639 0.36916
 H2072 H 0.43436 0.78535 0.36848
 C2073 C -0.04908 0.78202 0.85448
 C2074 C -0.03710 0.78769 0.84905
 C2075 C -0.03187 0.79988 0.85449
 C2076 C -0.03851 0.80632 0.86542
 C2077 C -0.05052 0.80066 0.87106
 C2078 C -0.05574 0.78843 0.86540
 C2079 C -0.03040 0.78119 0.83764
 C2080 C -0.02502 0.77595 0.82786
 C2081 C -0.01916 0.77017 0.81599
 C2082 C -0.01468 0.76572 0.80540
 H2083 H -0.05329 0.77264 0.85025
 H2084 H -0.02267 0.80442 0.85027
 H2085 H -0.03413 0.81568 0.86942
 H2086 H -0.06495 0.78374 0.86937
 C2087 C 0.39646 0.78272 0.30005
 C2088 C 0.40187 0.78815 0.28795
 C2089 C 0.39608 0.79993 0.28223
 C2090 C 0.38490 0.80627 0.28855
 C2091 C 0.37934 0.80089 0.30073
 C2092 C 0.38529 0.78902 0.30639
 C2093 C 0.41354 0.78179 0.28160
 C2094 C 0.42350 0.77661 0.27647
 C2095 C 0.43545 0.77084 0.27077
 C2096 C 0.44598 0.76627 0.26626
 H2097 H 0.40091 0.77363 0.30461
 H2098 H 0.40024 0.80425 0.27289
 H2099 H 0.38068 0.81536 0.28384
 H2100 H 0.38140 0.78455 0.31573
 C2101 C -0.10486 0.78187 0.79929
 C2102 C -0.09929 0.78734 0.78729
 C2103 C -0.10472 0.79941 0.78179
 C2104 C -0.11572 0.80595 0.78823
 C2105 C -0.12146 0.80054 0.80030
 C2106 C -0.11586 0.78839 0.80575
 C2107 C -0.08774 0.78079 0.78084
 C2108 C -0.07785 0.77550 0.77567
 C2109 C -0.06588 0.76971 0.76999
 C2110 C -0.05523 0.76526 0.76559
 H2111 H -0.10067 0.77259 0.80370
 H2112 H -0.10041 0.80381 0.77256
 H2113 H -0.11966 0.81525 0.78368
 H2114 H -0.11992 0.78385 0.81499
 C2115 C 0.85503 0.29950 0.46840
 C2116 C 0.84950 0.28746 0.46290
 C2117 C 0.85494 0.28201 0.45082
 C2118 C 0.86588 0.28853 0.44428
 C2119 C 0.87156 0.30065 0.44971
 C2120 C 0.86598 0.30605 0.46188
 C2121 C 0.83800 0.28091 0.46941
 C2122 C 0.82815 0.27559 0.47462
 C2123 C 0.81624 0.26971 0.48035
 C2124 C 0.80564 0.26519 0.48478
 H2125 H 0.85086 0.30386 0.47771
 H2126 H 0.85069 0.27273 0.44642
 H2127 H 0.86980 0.28402 0.43496
 H2128 H 0.87001 0.31532 0.46642
 C2129 C 0.85436 0.79899 -0.03239
 C2130 C 0.84909 0.78678 -0.03773
 C2131 C 0.85473 0.78117 -0.04964
 C2132 C 0.86566 0.78772 -0.05617
 C2133 C 0.87112 0.80001 -0.05087
 C2134 C 0.86530 0.80557 -0.03889
 C2135 C 0.83762 0.78022 -0.03122
 C2136 C 0.82778 0.77495 -0.02596
 C2137 C 0.81588 0.76919 -0.02015
 C2138 C 0.80527 0.76479 -0.01566
 H2139 H 0.85002 0.80346 -0.02320
 H2140 H 0.85067 0.77175 -0.05391
 H2141 H 0.86977 0.78310 -0.06536
 H2142 H 0.86917 0.81495 -0.03443
 C2143 C -0.10377 -0.05020 -0.03270
 C2144 C -0.09812 -0.03827 -0.03827
 C2145 C -0.10359 -0.03276 -0.05030
 C2146 C -0.11469 -0.03912 -0.05674
 C2147 C -0.12052 -0.05112 -0.05123
 C2148 C -0.11488 -0.05659 -0.03912
 C2149 C -0.08647 -0.03189 -0.03187
 C2150 C -0.07652 -0.02670 -0.02672
 C2151 C -0.06458 -0.02091 -0.02100
 C2152 C -0.05404 -0.01635 -0.01648
 H2153 H -0.09957 -0.05459 -0.02342
 H2154 H -0.09923 -0.02356 -0.05474
 H2155 H -0.11863 -0.03457 -0.06603
 H2156 H -0.11899 -0.06580 -0.03454
 C2157 C -0.10422 0.45026 0.46780
 C2158 C -0.09841 0.46204 0.46208
 C2159 C -0.10376 0.46741 0.44993
 C2160 C -0.11488 0.46106 0.44352
 C2161 C -0.12085 0.44919 0.44918
 C2162 C -0.11535 0.44387 0.46142
 C2163 C -0.08677 0.46845 0.46846
 C2164 C -0.07684 0.47369 0.47360
 C2165 C -0.06492 0.47955 0.47930
 C2166 C -0.05438 0.48415 0.48380
 H2167 H -0.10011 0.44597 0.47718
 H2168 H -0.09929 0.47650 0.44537
 H2169 H -0.11873 0.46549 0.43413
 H2170 H -0.11960 0.43479 0.46613
 C2171 C 0.39627 -0.04948 0.46674
 C2172 C 0.40165 -0.03740 0.46124
 C2173 C 0.39588 -0.03182 0.44940
 C2174 C 0.38473 -0.03824 0.44307
 C2175 C 0.37913 -0.05044 0.44850
 C2176 C 0.38513 -0.05594 0.46046
 C2177 C 0.41332 -0.03096 0.46757
 C2178 C 0.42327 -0.02576 0.47275
 C2179 C 0.43519 -0.01998 0.47857
 C2180 C 0.44571 -0.01545 0.48318
 H2181 H 0.40072 -0.05394 0.47588
 H2182 H 0.40002 -0.02250 0.44500
 H2183 H 0.38060 -0.03353 0.43394
 H2184 H 0.38132 -0.06524 0.46510
 C2185 C 0.39626 0.44972 -0.03356
 C2186 C 0.40166 0.46180 -0.03904
 C2187 C 0.39586 0.46743 -0.05085
 C2188 C 0.38466 0.46106 -0.05715
 C2189 C 0.37903 0.44888 -0.05172
 C2190 C 0.38507 0.44332 -0.03980
 C2191 C 0.41331 0.46824 -0.03267
 C2192 C 0.42323 0.47344 -0.02744
 C2193 C 0.43512 0.47923 -0.02155
 C2194 C 0.44559 0.48380 -0.01686
 H2195 H 0.40073 0.44522 -0.02445
 H2196 H 0.40002 0.47675 -0.05523
 H2197 H 0.38050 0.46581 -0.06624
 H2198 H 0.38125 0.43401 -0.03518
 C2199 C 0.35385 0.46769 0.80052
 C2200 C 0.34805 0.46209 0.78867
 C2201 C 0.35332 0.44995 0.78319
 C2202 C 0.36443 0.44345 0.78948
 C2203 C 0.37042 0.44901 0.80139
 C2204 C 0.36496 0.46121 0.80684
 C2205 C 0.33649 0.46864 0.78228
 C2206 C 0.32662 0.47390 0.77705
 C2207 C 0.31476 0.47970 0.77118
 C2208 C 0.30427 0.48424 0.76652
 H2209 H 0.34978 0.47704 0.80491
 H2210 H 0.34883 0.44547 0.77407
 H2211 H 0.36825 0.43409 0.78495
 H2212 H 0.36921 0.46584 0.81596
 C2213 C 0.35476 -0.03160 0.29953
 C2214 C 0.34917 -0.03714 0.28755
 C2215 C 0.35445 -0.04933 0.28219
 C2216 C 0.36535 -0.05593 0.28872
 C2217 C 0.37112 -0.05043 0.30076
 C2218 C 0.36565 -0.03817 0.30609
 C2219 C 0.33776 -0.03052 0.28098
 C2220 C 0.32797 -0.02519 0.27568
 C2221 C 0.31611 -0.01936 0.26984
 C2222 C 0.30553 -0.01490 0.26532
 H2223 H 0.35068 -0.02220 0.30382
 H2224 H 0.35015 -0.05375 0.27295
 H2225 H 0.36924 -0.06529 0.28424
 H2226 H 0.36972 -0.03359 0.31533
 C2227 C 0.14528 0.54915 0.71831
 C2228 C 0.15050 0.53690 0.71298
 C2229 C 0.14475 0.53127 0.70111
 C2230 C 0.13378 0.53780 0.69464
 C2231 C 0.12839 0.55011 0.69992
 C2232 C 0.13430 0.55570 0.71186
 C2233 C 0.16202 0.53036 0.71945
 C2234 C 0.17190 0.52514 0.72470
 C2235 C 0.18385 0.51943 0.73050
 C2236 C 0.19450 0.51507 0.73496
 H2237 H 0.14974 0.55366 0.72743
 H2238 H 0.14877 0.52187 0.69681
 H2239 H 0.12955 0.53315 0.68553
 H2240 H 0.13051 0.56513 0.71629
 C2241 C 0.14636 0.03246 0.19963
 C2242 C 0.15191 0.03793 0.21166
 C2243 C 0.14632 0.04986 0.21730
 C2244 C 0.13515 0.05625 0.21101
 C2245 C 0.12940 0.05079 0.19894
 C2246 C 0.13518 0.03881 0.19331
 C2247 C 0.16352 0.03148 0.21808
 C2248 C 0.17340 0.02627 0.22333
 C2249 C 0.18528 0.02048 0.22920
 C2250 C 0.19579 0.01593 0.23381
 H2251 H 0.15067 0.02327 0.19511
 H2252 H 0.15060 0.05425 0.22656
 H2253 H 0.13110 0.06545 0.21566
 H2254 H 0.13109 0.03426 0.18407
 C2255 C 0.60487 0.71831 0.20055
 C2256 C 0.59941 0.71288 0.21262
 C2257 C 0.60492 0.70085 0.21812
 C2258 C 0.61589 0.69432 0.21164
 C2259 C 0.62154 0.69973 0.19952
 C2260 C 0.61586 0.71181 0.19404
 C2261 C 0.58790 0.71938 0.21915
 C2262 C 0.57803 0.72458 0.22445
 C2263 C 0.56609 0.73026 0.23029
 C2264 C 0.55546 0.73465 0.23478
 H2265 H 0.60061 0.72756 0.19612
 H2266 H 0.60069 0.69647 0.22740
 H2267 H 0.61988 0.68505 0.21620
 H2268 H 0.61982 0.71630 0.18473
 C2269 C 0.10359 0.71695 0.69983
 C2270 C 0.09825 0.71148 0.71193
 C2271 C 0.10415 0.69974 0.71764
 C2272 C 0.11539 0.69352 0.71132
 C2273 C 0.12091 0.69895 0.69914
 C2274 C 0.11483 0.71076 0.69348
 C2275 C 0.08654 0.71777 0.71832
 C2276 C 0.07660 0.72293 0.72350
 C2277 C 0.06469 0.72875 0.72926
 C2278 C 0.05419 0.73339 0.73380
 H2279 H 0.09904 0.72599 0.69526
 H2280 H 0.10001 0.69536 0.72696
 H2281 H 0.11971 0.68447 0.71602
 H2282 H 0.11869 0.71528 0.68415
 C2283 C 0.64585 0.20016 0.53194
 C2284 C 0.65171 0.21198 0.53758
 C2285 C 0.64633 0.21753 0.54964
 C2286 C 0.63513 0.21131 0.55604
 C2287 C 0.62913 0.19941 0.55046
 C2288 C 0.63465 0.19392 0.53831
 C2289 C 0.66340 0.21827 0.53115
 C2290 C 0.67336 0.22342 0.52598
 C2291 C 0.68532 0.22919 0.52026
 C2292 C 0.69588 0.23377 0.51578
 H2293 H 0.64997 0.19574 0.52262
 H2294 H 0.65082 0.22664 0.55414
 H2295 H 0.63125 0.21588 0.56535
 H2296 H 0.63036 0.18482 0.53365
 C2297 C 0.64599 0.71795 0.05005
 C2298 C 0.65159 0.71242 0.03808
 C2299 C 0.64606 0.70042 0.03250
 C2300 C 0.63492 0.69402 0.03880
 C2301 C 0.62913 0.69951 0.05083
 C2302 C 0.63484 0.71157 0.05638
 C2303 C 0.66319 0.71888 0.03167
 C2304 C 0.67308 0.72409 0.02643
 C2305 C 0.68497 0.72986 0.02058
 C2306 C 0.69550 0.73438 0.01598
 H2307 H 0.65026 0.72719 0.05452
 H2308 H 0.65038 0.69599 0.02328
 H2309 H 0.63090 0.68478 0.03418
 H2310 H 0.63076 0.71613 0.06561
 C2311 C 0.10491 0.04894 0.03169
 C2312 C 0.09962 0.03675 0.03705
 C2313 C 0.10530 0.03116 0.04895
 C2314 C 0.11630 0.03768 0.05544
 C2315 C 0.12176 0.04993 0.05012
 C2316 C 0.11590 0.05548 0.03815
 C2317 C 0.08806 0.03025 0.03059
 C2318 C 0.07814 0.02507 0.02536
 C2319 C 0.06616 0.01939 0.01959
 C2320 C 0.05551 0.01503 0.01513
 H2321 H 0.10051 0.05342 0.02255
 H2322 H 0.10119 0.02179 0.05326
 H2323 H 0.12047 0.03306 0.06459
 H2324 H 0.11975 0.06486 0.03369
 C2325 C 0.10466 0.54944 0.53187
 C2326 C 0.09924 0.53734 0.53728
 C2327 C 0.10479 0.53183 0.54929
 C2328 C 0.11577 0.53834 0.55582
 C2329 C 0.12136 0.55052 0.55043
 C2330 C 0.11563 0.55598 0.53837
 C2331 C 0.08774 0.53080 0.53073
 C2332 C 0.07788 0.52555 0.52543
 C2333 C 0.06596 0.51979 0.51959
 C2334 C 0.05534 0.51535 0.51511
 H2335 H 0.10037 0.55387 0.52264
 H2336 H 0.10059 0.52252 0.55365
 H2337 H 0.11982 0.53380 0.56507
 H2338 H 0.11956 0.56530 0.53386
 C2339 C 0.60520 0.04948 0.53111
 C2340 C 0.59949 0.03756 0.53666
 C2341 C 0.60474 0.03218 0.54885
 C2342 C 0.61573 0.03862 0.55542
 C2343 C 0.62163 0.05058 0.54991
 C2344 C 0.61620 0.05594 0.53766
 C2345 C 0.58791 0.03114 0.53016
 C2346 C 0.57797 0.02593 0.52499
 C2347 C 0.56598 0.02017 0.51932
 C2348 C 0.55532 0.01572 0.51496
 H2349 H 0.60112 0.05379 0.52173
 H2350 H 0.60033 0.02302 0.55330
 H2351 H 0.61956 0.03412 0.56478
 H2352 H 0.62041 0.06509 0.53307
 C2353 C 0.60464 0.54970 0.03143
 C2354 C 0.59911 0.53763 0.03684
 C2355 C 0.60460 0.53209 0.04885
 C2356 C 0.61560 0.53853 0.05540
 C2357 C 0.62128 0.55068 0.05006
 C2358 C 0.61565 0.55617 0.03796
 C2359 C 0.58758 0.53114 0.03030
 C2360 C 0.57770 0.52589 0.02504
 C2361 C 0.56574 0.52011 0.01929
 C2362 C 0.55510 0.51564 0.01488
 H2363 H 0.60040 0.55413 0.02217
 H2364 H 0.60034 0.52280 0.05320
 H2365 H 0.61959 0.53392 0.06464
 H2366 H 0.61968 0.56546 0.03347
 C2367 C 0.04945 0.03061 0.10532
 C2368 C 0.03740 0.03599 0.09974
 C2369 C 0.03186 0.04806 0.10512
 C2370 C 0.03830 0.05471 0.11607
 C2371 C 0.05044 0.04940 0.12178
 C2372 C 0.05591 0.03723 0.11626
 C2373 C 0.03098 0.02940 0.08821
 C2374 C 0.02578 0.02415 0.07830
 C2375 C 0.02006 0.01846 0.06629
 C2376 C 0.01564 0.01414 0.05560
 H2377 H 0.05390 0.02132 0.10116
 H2378 H 0.02259 0.05239 0.10082
 H2379 H 0.03371 0.06401 0.11997
 H2380 H 0.06520 0.03278 0.12032
 C2381 C 0.03200 0.54872 0.60491
 C2382 C 0.03740 0.53650 0.59970
 C2383 C 0.04927 0.53095 0.60548
 C2384 C 0.05569 0.53753 0.61647
 C2385 C 0.05035 0.54981 0.62184
 C2386 C 0.03840 0.55533 0.61591
 C2387 C 0.03102 0.52990 0.58815
 C2388 C 0.02586 0.52461 0.57825
 C2389 C 0.02014 0.51885 0.56628
 C2390 C 0.01570 0.51448 0.55561
 H2391 H 0.02287 0.55317 0.60043
 H2392 H 0.05362 0.52156 0.60147
 H2393 H 0.06481 0.53293 0.62072
 H2394 H 0.03392 0.56473 0.61970
 C2395 C 0.54899 0.03206 0.60512
 C2396 C 0.53700 0.03760 0.59959
 C2397 C 0.53153 0.04962 0.60516
 C2398 C 0.53797 0.05605 0.61624
 C2399 C 0.55008 0.05059 0.62198
 C2400 C 0.55547 0.03845 0.61620
 C2401 C 0.53055 0.03113 0.58798
 C2402 C 0.52540 0.02586 0.57804
 C2403 C 0.51976 0.02003 0.56604
 C2404 C 0.51539 0.01553 0.55538
 H2405 H 0.55338 0.02281 0.60083
 H2406 H 0.52229 0.05406 0.60091
 H2407 H 0.53336 0.06530 0.62022
 H2408 H 0.56470 0.03378 0.62012
 C2409 C 0.53162 0.54923 0.10485
 C2410 C 0.53710 0.53719 0.09930
 C2411 C 0.54913 0.53169 0.10477
 C2412 C 0.55567 0.53815 0.11577
 C2413 C 0.55026 0.55026 0.12148
 C2414 C 0.53813 0.55571 0.11586
 C2415 C 0.53060 0.53072 0.08773
 C2416 C 0.52538 0.52548 0.07783
 C2417 C 0.51964 0.51970 0.06586
 C2418 C 0.51519 0.51526 0.05523
 H2419 H 0.52235 0.55363 0.10064
 H2420 H 0.55351 0.52242 0.10050
 H2421 H 0.56496 0.53360 0.11972
 H2422 H 0.53361 0.56498 0.11991
 C2423 C 0.21786 0.54919 0.64535
 C2424 C 0.21235 0.53711 0.65073
 C2425 C 0.20033 0.53165 0.64513
 C2426 C 0.19388 0.53820 0.63413
 C2427 C 0.19935 0.55036 0.62859
 C2428 C 0.21144 0.55576 0.63437
 C2429 C 0.21881 0.53054 0.66226
 C2430 C 0.22405 0.52527 0.67212
 C2431 C 0.22984 0.51947 0.68403
 C2432 C 0.23434 0.51502 0.69464
 H2433 H 0.22711 0.55357 0.64967
 H2434 H 0.19592 0.52234 0.64928
 H2435 H 0.18463 0.53368 0.63004
 H2436 H 0.21601 0.56506 0.63047
 C2437 C 0.19945 0.03230 0.14611
 C2438 C 0.21135 0.03786 0.15184
 C2439 C 0.21694 0.04988 0.14639
 C2440 C 0.21073 0.05625 0.13519
 C2441 C 0.19879 0.05070 0.12925
 C2442 C 0.19321 0.03865 0.13489
 C2443 C 0.21768 0.03143 0.16348
 C2444 C 0.22287 0.02622 0.17338
 C2445 C 0.22872 0.02043 0.18525
 C2446 C 0.23339 0.01588 0.19572
 H2447 H 0.19499 0.02304 0.15032
 H2448 H 0.22610 0.05433 0.15082
 H2449 H 0.21535 0.06551 0.13123
 H2450 H 0.18408 0.03402 0.13065
 C2451 C 0.69978 0.21726 0.60369
 C2452 C 0.71185 0.21177 0.59828
 C2453 C 0.71754 0.19998 0.60409
 C2454 C 0.71122 0.19371 0.61530
 C2455 C 0.69907 0.19915 0.62087
 C2456 C 0.69343 0.21102 0.61489
 C2457 C 0.71822 0.21808 0.58658
 C2458 C 0.72338 0.22323 0.57661
 C2459 C 0.72912 0.22900 0.56467
 C2460 C 0.73368 0.23357 0.55416
 H2461 H 0.69525 0.22635 0.59921
 H2462 H 0.72684 0.19559 0.59994
 H2463 H 0.71591 0.18461 0.61954
 H2464 H 0.68411 0.21554 0.61879
 C2465 C 0.71707 0.70020 0.10365
 C2466 C 0.71145 0.71216 0.09811
 C2467 C 0.69951 0.71769 0.10377
 C2468 C 0.69326 0.71135 0.11499
 C2469 C 0.69886 0.69933 0.12070
 C2470 C 0.71085 0.69384 0.11485
 C2471 C 0.71778 0.71855 0.08643
 C2472 C 0.72298 0.72369 0.07649
 C2473 C 0.72881 0.72939 0.06456
 C2474 C 0.73343 0.73390 0.05404
 H2475 H 0.72626 0.69577 0.09929
 H2476 H 0.69501 0.72690 0.09950
 H2477 H 0.68405 0.71591 0.11911
 H2478 H 0.71549 0.68463 0.11887
 C2479 C 0.54966 0.71892 0.14490
 C2480 C 0.53757 0.71354 0.15039
 C2481 C 0.53201 0.70150 0.14493
 C2482 C 0.53844 0.69492 0.13396
 C2483 C 0.55059 0.70026 0.12829
 C2484 C 0.55612 0.71236 0.13392
 C2485 C 0.53109 0.72013 0.16189
 C2486 C 0.52585 0.72540 0.17175
 C2487 C 0.52008 0.73115 0.18369
 C2488 C 0.51563 0.73553 0.19434
 H2489 H 0.55413 0.72817 0.14913
 H2490 H 0.52272 0.69717 0.14918
 H2491 H 0.53382 0.68566 0.12998
 H2492 H 0.56543 0.71681 0.12991
 C2493 C 0.05042 0.71741 0.64641
 C2494 C 0.03840 0.71188 0.65190
 C2495 C 0.03281 0.69995 0.64623
 C2496 C 0.03918 0.69358 0.63508
 C2497 C 0.05128 0.69906 0.62944
 C2498 C 0.05681 0.71107 0.63527
 C2499 C 0.03201 0.71829 0.66354
 C2500 C 0.02687 0.72355 0.67346
 C2501 C 0.02115 0.72944 0.68536
 C2502 C 0.01662 0.73410 0.69586
 H2503 H 0.05488 0.72661 0.65076
 H2504 H 0.02354 0.69554 0.65044
 H2505 H 0.03457 0.68439 0.63095
 H2506 H 0.06609 0.71563 0.63131
 C2507 C 0.54876 0.64529 0.21788
 C2508 C 0.53675 0.65072 0.21229
 C2509 C 0.53134 0.64510 0.20026
 C2510 C 0.53788 0.63407 0.19386
 C2511 C 0.54999 0.62850 0.19940
 C2512 C 0.55534 0.63427 0.21151
 C2513 C 0.53022 0.66232 0.21868
 C2514 C 0.52500 0.67225 0.22386
 C2515 C 0.51930 0.68424 0.22962
 C2516 C 0.51494 0.69490 0.23409
 H2517 H 0.55310 0.64961 0.22715
 H2518 H 0.52208 0.64927 0.19578
 H2519 H 0.53341 0.62997 0.18458
 H2520 H 0.56461 0.63035 0.21612
 C2521 C 0.03233 0.64603 0.70010
 C2522 C 0.03784 0.65163 0.71209
 C2523 C 0.04983 0.64611 0.71766
 C2524 C 0.05626 0.63498 0.71131
 C2525 C 0.05079 0.62921 0.69924
 C2526 C 0.03873 0.63490 0.69373
 C2527 C 0.03138 0.66325 0.71849
 C2528 C 0.02615 0.67317 0.72366
 C2529 C 0.02036 0.68511 0.72941
 C2530 C 0.01583 0.69567 0.73394
 H2531 H 0.02308 0.65027 0.69567
 H2532 H 0.05423 0.65042 0.72690
 H2533 H 0.06549 0.63096 0.71592
 H2534 H 0.03415 0.63083 0.68450
 C2535 C 0.04888 0.10444 0.03218
 C2536 C 0.03686 0.09900 0.03775
 C2537 C 0.03140 0.10466 0.04973
 C2538 C 0.03789 0.11575 0.05608
 C2539 C 0.05000 0.12134 0.05057
 C2540 C 0.05540 0.11553 0.03851
 C2541 C 0.03033 0.08740 0.03136
 C2542 C 0.02510 0.07748 0.02615
 C2543 C 0.01938 0.06551 0.02037
 C2544 C 0.01500 0.05487 0.01587
 H2545 H 0.05325 0.10008 0.02295
 H2546 H 0.02214 0.10047 0.05418
 H2547 H 0.03338 0.11988 0.06532
 H2548 H 0.06466 0.11947 0.03390
 C2549 C 0.03168 0.60483 0.54989
 C2550 C 0.03708 0.59922 0.53786
 C2551 C 0.04913 0.60462 0.53230
 C2552 C 0.05574 0.61561 0.53872
 C2553 C 0.05041 0.62137 0.55084
 C2554 C 0.03827 0.61582 0.55633
 C2555 C 0.03051 0.58766 0.53142
 C2556 C 0.02526 0.57776 0.52619
 C2557 C 0.01951 0.56581 0.52038
 C2558 C 0.01510 0.55518 0.51586
 H2559 H 0.02240 0.60067 0.55433
 H2560 H 0.05345 0.60031 0.52303
 H2561 H 0.06503 0.61952 0.53413
 H2562 H 0.03380 0.61991 0.56559
 C2563 C 0.54915 0.10542 0.53138
 C2564 C 0.53723 0.09977 0.53698
 C2565 C 0.53185 0.10515 0.54911
 C2566 C 0.53833 0.11615 0.55563
 C2567 C 0.55034 0.12194 0.55011
 C2568 C 0.55565 0.11643 0.53788
 C2569 C 0.53073 0.08820 0.53050
 C2570 C 0.52545 0.07829 0.52534
 C2571 C 0.51960 0.06632 0.51968
 C2572 C 0.51511 0.05568 0.51529
 H2573 H 0.55345 0.10130 0.52202
 H2574 H 0.52266 0.10082 0.55356
 H2575 H 0.53387 0.12004 0.56500
 H2576 H 0.56483 0.12056 0.53327
 C2577 C 0.54885 0.60503 0.03146
 C2578 C 0.53677 0.59963 0.03693
 C2579 C 0.53132 0.60518 0.04896
 C2580 C 0.53789 0.61612 0.05548
 C2581 C 0.55007 0.62167 0.05008
 C2582 C 0.55545 0.61597 0.03796
 C2583 C 0.53021 0.58810 0.03047
 C2584 C 0.52494 0.57819 0.02529
 C2585 C 0.51915 0.56620 0.01963
 C2586 C 0.51470 0.55553 0.01528
 H2587 H 0.55321 0.60076 0.02219
 H2588 H 0.52200 0.60102 0.05333
 H2589 H 0.53336 0.62016 0.06474
 H2590 H 0.56475 0.61991 0.03343
 C2591 C 0.71729 0.14653 0.55043
 C2592 C 0.71180 0.15200 0.53839
 C2593 C 0.69988 0.14635 0.53277
 C2594 C 0.69354 0.13517 0.53911
 C2595 C 0.69903 0.12948 0.55117
 C2596 C 0.71097 0.13537 0.55679
 C2597 C 0.71825 0.16361 0.53198
 C2598 C 0.72353 0.17349 0.52680
 C2599 C 0.72948 0.18532 0.52101
 C2600 C 0.73418 0.19577 0.51643
 H2601 H 0.72646 0.15089 0.55492
 H2602 H 0.69550 0.15057 0.52349
 H2603 H 0.68442 0.13095 0.53443
 H2604 H 0.71553 0.13137 0.56605
 C2605 C 0.71715 0.64640 0.05003
 C2606 C 0.71158 0.65196 0.03806
 C2607 C 0.69965 0.64631 0.03247
 C2608 C 0.69330 0.63512 0.03881
 C2609 C 0.69882 0.62941 0.05087
 C2610 C 0.71084 0.63522 0.05638
 C2611 C 0.71797 0.66363 0.03170
 C2612 C 0.72319 0.67357 0.02654
 C2613 C 0.72902 0.68548 0.02079
 C2614 C 0.73364 0.69600 0.01625
 H2615 H 0.72636 0.65072 0.05448
 H2616 H 0.69522 0.65057 0.02323
 H2617 H 0.68410 0.63100 0.03421
 H2618 H 0.71546 0.63120 0.06560
 C2619 C 0.21810 0.60471 0.70048
 C2620 C 0.21272 0.59939 0.71263
 C2621 C 0.20084 0.60511 0.71824
 C2622 C 0.19440 0.61615 0.71177
 C2623 C 0.19974 0.62164 0.69954
 C2624 C 0.21169 0.61575 0.69398
 C2625 C 0.21916 0.58783 0.71914
 C2626 C 0.22439 0.57794 0.72437
 C2627 C 0.23016 0.56599 0.73011
 C2628 C 0.23463 0.55536 0.73452
 H2629 H 0.22722 0.60027 0.69597
 H2630 H 0.19651 0.60098 0.72759
 H2631 H 0.18526 0.62033 0.71640
 H2632 H 0.21614 0.61958 0.68460
 C2633 C 0.20042 0.10370 0.21690
 C2634 C 0.21228 0.09808 0.21117
 C2635 C 0.21765 0.10361 0.19910
 C2636 C 0.21122 0.11477 0.19281
 C2637 C 0.19930 0.12057 0.19851
 C2638 C 0.19397 0.11484 0.21063
 C2639 C 0.21872 0.08643 0.21751
 C2640 C 0.22393 0.07650 0.22268
 C2641 C 0.22971 0.06459 0.22848
 C2642 C 0.23427 0.05408 0.23307
 H2643 H 0.19612 0.09944 0.22620
 H2644 H 0.22678 0.09927 0.19453
 H2645 H 0.21566 0.11878 0.18349
 H2646 H 0.18484 0.11892 0.21537
 C2647 C 0.71868 1.10510 0.70043
 C2648 C 0.71318 1.09939 0.71236
 C2649 C 0.70105 1.10469 0.71783
 C2650 C 0.69447 1.11569 0.71144
 C2651 C 0.69992 1.12157 0.69944
 C2652 C 0.71212 1.11611 0.69402
 C2653 C 0.71974 1.08783 0.71876
 C2654 C 0.72497 1.07791 0.72395
 C2655 C 0.73067 1.06592 0.72970
 C2656 C 0.73502 1.05525 0.73415
 H2657 H 0.72800 1.10101 0.69602
 H2658 H 0.69664 1.10027 0.72700
 H2659 H 0.68511 1.11951 0.71596
 H2660 H 0.71667 1.12027 0.68483
 C2661 C 0.71866 0.60492 0.20065
 C2662 C 0.71328 0.59948 0.21274
 C2663 C 0.70126 0.60496 0.21828
 C2664 C 0.69467 0.61589 0.21178
 C2665 C 0.70000 0.62149 0.19959
 C2666 C 0.71210 0.61585 0.19412
 C2667 C 0.71984 0.58798 0.21923
 C2668 C 0.72511 0.57811 0.22445
 C2669 C 0.73087 0.56615 0.23016
 C2670 C 0.73528 0.55549 0.23456
 H2671 H 0.72791 0.60068 0.19621
 H2672 H 0.69695 0.60075 0.22759
 H2673 H 0.68543 0.61989 0.21636
 H2674 H 0.71657 0.61981 0.18480
 C2675 C 0.53124 0.14479 0.69992
 C2676 C 0.53663 0.15042 0.71194
 C2677 C 0.54861 0.14496 0.71757
 C2678 C 0.55517 0.13390 0.71124
 C2679 C 0.54986 0.12806 0.69910
 C2680 C 0.53776 0.13373 0.69355
 C2681 C 0.53009 0.16203 0.71832
 C2682 C 0.52486 0.17195 0.72354
 C2683 C 0.51913 0.18391 0.72936
 C2684 C 0.51473 0.19452 0.73393
 H2685 H 0.52199 0.14897 0.69543
 H2686 H 0.55293 0.14929 0.72685
 H2687 H 0.56440 0.13004 0.71598
 H2688 H 0.53320 0.12970 0.68429
 C2689 C 1.04919 0.14506 0.21817
 C2690 C 1.03721 0.15056 0.21257
 C2691 C 1.03189 0.14515 0.20042
 C2692 C 1.03847 0.13421 0.19390
 C2693 C 1.05051 0.12852 0.19946
 C2694 C 1.05580 0.13413 0.21168
 C2695 C 1.03059 0.16202 0.21909
 C2696 C 1.02525 0.17184 0.22433
 C2697 C 1.01939 0.18373 0.23010
 C2698 C 1.01489 0.19432 0.23456
 H2699 H 1.05346 0.14925 0.22753
 H2700 H 1.02265 0.14939 0.19595
 H2701 H 1.03402 0.13024 0.18457
 H2702 H 1.06504 0.13013 0.21629
 C2703 C 0.21772 0.64638 0.54997
 C2704 C 0.21218 0.65197 0.53800
 C2705 C 0.20019 0.64640 0.53244
 C2706 C 0.19379 0.63527 0.53879
 C2707 C 0.19927 0.62953 0.55085
 C2708 C 0.21134 0.63525 0.55635
 C2709 C 0.21861 0.66360 0.53160
 C2710 C 0.22383 0.67352 0.52641
 C2711 C 0.22963 0.68544 0.52063
 C2712 C 0.23419 0.69599 0.51608
 H2713 H 0.22697 0.65065 0.55441
 H2714 H 0.19577 0.65067 0.52320
 H2715 H 0.18457 0.63120 0.53418
 H2716 H 0.21594 0.63118 0.56556
 C2717 C 0.21862 0.14518 1.04961
 C2718 C 0.21315 0.15075 1.03760
 C2719 C 0.20098 0.14545 1.03219
 C2720 C 0.19436 0.13452 1.03868
 C2721 C 0.19982 0.12875 1.05073
 C2722 C 0.21203 0.13425 1.05612
 C2723 C 0.21982 0.16215 1.03105
 C2724 C 0.22518 0.17194 1.02578
 C2725 C 0.23103 0.18382 1.01998
 C2726 C 0.23548 0.19443 1.01551
 H2727 H 0.22797 0.14929 1.05396
 H2728 H 0.19658 0.14977 1.02296
 H2729 H 0.18503 0.13062 1.03416
 H2730 H 0.21656 0.13020 1.06537
 C2731 C 0.21732 0.70030 0.60353
 C2732 C 0.21170 0.71226 0.59798
 C2733 C 0.19967 0.71769 0.60351
 C2734 C 0.19328 0.71125 0.61458
 C2735 C 0.19884 0.69922 0.62030
 C2736 C 0.21096 0.69383 0.61460
 C2737 C 0.21809 0.71875 0.58639
 C2738 C 0.22326 0.72403 0.57651
 C2739 C 0.22904 0.72990 0.56464
 C2740 C 0.23361 0.73452 0.55415
 H2741 H 0.22660 0.69596 0.59927
 H2742 H 0.19519 0.72691 0.59924
 H2743 H 0.18400 0.71575 0.61859
 H2744 H 0.21559 0.68461 0.61864
 C2745 C 0.21820 0.20033 1.10461
 C2746 C 0.21292 0.21254 1.09928
 C2747 C 0.20100 0.21817 1.10488
 C2748 C 0.19443 0.21168 1.11582
 C2749 C 0.19967 0.19942 1.12134
 C2750 C 0.21165 0.19382 1.11556
 C2751 C 0.21946 0.21907 1.08779
 C2752 C 0.22468 0.22436 1.07794
 C2753 C 0.23039 0.23020 1.06601
 C2754 C 0.23479 0.23470 1.05540
 H2755 H 0.22735 0.19580 1.10027
 H2756 H 0.19674 0.22755 1.10074
 H2757 H 0.18525 0.21635 1.11988
 H2758 H 0.21602 0.18440 1.11943
 C2759 C 0.70065 0.53164 0.14523
 C2760 C 0.71268 0.53714 0.15077
 C2761 C 0.71812 0.54924 0.14535
 C2762 C 0.71160 0.55581 0.13442
 C2763 C 0.69949 0.55036 0.12873
 C2764 C 0.69410 0.53818 0.13430
 C2765 C 0.71919 0.53062 0.16228
 C2766 C 0.72445 0.52537 0.17215
 C2767 C 0.73024 0.51961 0.18408
 C2768 C 0.73472 0.51517 0.19469
 H2769 H 0.69630 0.52231 0.14939
 H2770 H 0.72739 0.55365 0.14960
 H2771 H 0.71611 0.56512 0.13048
 H2772 H 0.68484 0.53362 0.13027
 C2773 C 0.71793 1.04926 0.64551
 C2774 C 0.71230 1.03727 0.65100
 C2775 C 0.70011 1.03201 0.64560
 C2776 C 0.69361 1.03864 0.63470
 C2777 C 0.69921 1.05068 0.62903
 C2778 C 0.71146 1.05591 0.63461
 C2779 C 0.71882 1.03059 0.66240
 C2780 C 0.72407 1.02518 0.67217
 C2781 C 0.72985 1.01925 0.68402
 C2782 C 0.73432 1.01472 0.69459
 H2783 H 0.72732 1.05349 0.64969
 H2784 H 0.69561 1.02278 0.64983
 H2785 H 0.68425 1.03423 0.63075
 H2786 H 0.71609 1.06515 0.63064
 C2787 C 0.54937 0.21887 0.64513
 C2788 C 0.53725 0.21346 0.65051
 C2789 C 0.53178 0.20139 0.64503
 C2790 C 0.53834 0.19480 0.63414
 C2791 C 0.55052 0.20018 0.62857
 C2792 C 0.55596 0.21230 0.63424
 C2793 C 0.53069 0.22002 0.66196
 C2794 C 0.52541 0.22526 0.67182
 C2795 C 0.51964 0.23095 0.68378
 C2796 C 0.51520 0.23528 0.69445
 H2797 H 0.55377 0.22814 0.64940
 H2798 H 0.52247 0.19703 0.64922
 H2799 H 0.53382 0.18549 0.63017
 H2800 H 0.56530 0.21678 0.63034
 C2801 C 1.04903 0.21820 0.14515
 C2802 C 1.03700 0.21266 0.15060
 C2803 C 1.03154 0.20063 0.14501
 C2804 C 1.03800 0.19422 0.13394
 C2805 C 1.05011 0.19972 0.12833
 C2806 C 1.05552 0.21182 0.13409
 C2807 C 1.03048 0.21913 0.16214
 C2808 C 1.02524 0.22438 0.17202
 C2809 C 1.01950 0.23016 0.18397
 C2810 C 1.01509 0.23460 0.19462
 H2811 H 1.05344 0.22743 0.14948
 H2812 H 1.02229 0.19617 0.14923
 H2813 H 1.03347 0.18496 0.12986
 H2814 H 1.06478 0.21641 0.13012
 C2815 C 0.60467 0.20063 0.71845
 C2816 C 0.59912 0.21265 0.71299
 C2817 C 0.60452 0.21813 0.70092
 C2818 C 0.61549 0.21167 0.69436
 C2819 C 0.62122 0.19958 0.69978
 C2820 C 0.61564 0.19414 0.71192
 C2821 C 0.58759 0.21910 0.71952
 C2822 C 0.57770 0.22427 0.72478
 C2823 C 0.56573 0.22994 0.73056
 C2824 C 0.55508 0.23431 0.73500
 H2825 H 0.60048 0.19623 0.72774
 H2826 H 0.60022 0.22738 0.69653
 H2827 H 0.61941 0.21619 0.68505
 H2828 H 0.61968 0.18488 0.71644
 C2829 C 1.10468 0.20044 0.21840
 C2830 C 1.09921 0.21254 0.21302
 C2831 C 1.10470 0.21811 0.20103
 C2832 C 1.11567 0.21166 0.19447
 C2833 C 1.12130 0.19948 0.19979
 C2834 C 1.11565 0.19396 0.21186
 C2835 C 1.08767 0.21898 0.21955
 C2836 C 1.07776 0.22417 0.22479
 C2837 C 1.06579 0.22986 0.23053
 C2838 C 1.05513 0.23425 0.23495
 H2839 H 1.10043 0.19598 0.22763
 H2840 H 1.10047 0.22742 0.19672
 H2841 H 1.11966 0.21626 0.18523
 H2842 H 1.11961 0.18463 0.21632
 C2843 C 0.14651 0.69987 0.53266
 C2844 C 0.15213 0.71182 0.53824
 C2845 C 0.14663 0.71735 0.55026
 C2846 C 0.13550 0.71099 0.55665
 C2847 C 0.12969 0.69897 0.55111
 C2848 C 0.13537 0.69349 0.53902
 C2849 C 0.16376 0.71824 0.53183
 C2850 C 0.17367 0.72345 0.52664
 C2851 C 0.18557 0.72927 0.52086
 C2852 C 0.19606 0.73387 0.51629
 H2853 H 0.15075 0.69546 0.52339
 H2854 H 0.15096 0.72656 0.55472
 H2855 H 0.13151 0.71556 0.56591
 H2856 H 0.13129 0.68428 0.53441
 C2857 C 0.14537 0.21803 1.04896
 C2858 C 0.15083 0.21246 1.03695
 C2859 C 0.14530 0.20038 1.03153
 C2860 C 0.13435 0.19389 1.03810
 C2861 C 0.12876 0.19939 1.05022
 C2862 C 0.13441 0.21157 1.05555
 C2863 C 0.16240 0.21887 1.03043
 C2864 C 0.17232 0.22404 1.02519
 C2865 C 0.18430 0.22975 1.01944
 C2866 C 0.19493 0.23420 1.01503
 H2867 H 0.14960 0.22736 1.05327
 H2868 H 0.14949 0.19594 1.02226
 H2869 H 0.13034 0.18459 1.03361
 H2870 H 0.13044 0.21618 1.06480
 C2871 C 0.64518 0.54929 0.21858
 C2872 C 0.65068 0.53723 0.21314
 C2873 C 0.64522 0.53171 0.20109
 C2874 C 0.63424 0.53818 0.19453
 C2875 C 0.62857 0.55032 0.19993
 C2876 C 0.63421 0.55578 0.21206
 C2877 C 0.66222 0.53077 0.21967
 C2878 C 0.67212 0.52558 0.22492
 C2879 C 0.68410 0.51988 0.23066
 C2880 C 0.69477 0.51549 0.23505
 H2881 H 0.64941 0.55373 0.22785
 H2882 H 0.64948 0.52244 0.19671
 H2883 H 0.63028 0.53362 0.18525
 H2884 H 0.63021 0.56508 0.21657
 C2885 C 0.64485 1.03185 0.70089
 C2886 C 0.65035 1.03735 0.71294
 C2887 C 0.64484 1.04941 0.71840
 C2888 C 0.63384 1.05590 0.71191
 C2889 C 0.62817 1.05043 0.69980
 C2890 C 0.63385 1.03831 0.69437
 C2891 C 0.66190 1.03087 0.71946
 C2892 C 0.67179 1.02566 0.72470
 C2893 C 0.68377 1.01992 0.73045
 C2894 C 0.69442 1.01548 0.73487
 H2895 H 0.64912 1.02259 0.69648
 H2896 H 0.64909 1.05383 0.72766
 H2897 H 0.62985 1.06519 0.71643
 H2898 H 0.62988 1.03377 0.68508
 C2899 C 0.85358 0.44975 0.28358
 C2900 C 0.84807 0.46175 0.28916
 C2901 C 0.85370 0.46726 0.30114
 C2902 C 0.86484 0.46086 0.30748
 C2903 C 0.87052 0.44879 0.30193
 C2904 C 0.86471 0.44332 0.28989
 C2905 C 0.83647 0.46822 0.28274
 C2906 C 0.82659 0.47343 0.27746
 C2907 C 0.81473 0.47922 0.27154
 C2908 C 0.80427 0.48380 0.26684
 H2909 H 0.84925 0.44534 0.27435
 H2910 H 0.84946 0.47650 0.30561
 H2911 H 0.86895 0.46541 0.31671
 H2912 H 0.86870 0.43408 0.28526
 C2913 C 0.85303 0.96686 0.80107
 C2914 C 0.84764 0.96147 0.78893
 C2915 C 0.85341 0.94967 0.78319
 C2916 C 0.86457 0.94332 0.78952
 C2917 C 0.87016 0.94867 0.80172
 C2918 C 0.86420 0.96053 0.80742
 C2919 C 0.83604 0.96790 0.78248
 C2920 C 0.82616 0.97312 0.77723
 C2921 C 0.81431 0.97894 0.77134
 C2922 C 0.80385 0.98353 0.76666
 H2923 H 0.84859 0.97596 0.80564
 H2924 H 0.84925 0.94536 0.77383
 H2925 H 0.86876 0.93421 0.78480
 H2926 H 0.86814 0.96502 0.81675
 C2927 C 0.39666 0.28307 0.80087
 C2928 C 0.40223 0.28862 0.78891
 C2929 C 0.39674 0.30067 0.78343
 C2930 C 0.38564 0.30708 0.78982
 C2931 C 0.37985 0.30153 0.80182
 C2932 C 0.38557 0.28945 0.80728
 C2933 C 0.41373 0.28207 0.78241
 C2934 C 0.42353 0.27669 0.77716
 C2935 C 0.43529 0.27066 0.77131
 C2936 C 0.44570 0.26592 0.76668
 H2937 H 0.40089 0.27378 0.80524
 H2938 H 0.40103 0.30512 0.77422
 H2939 H 0.38162 0.31635 0.78528
 H2940 H 0.38150 0.28484 0.81648
 C2941 C 0.89609 0.28218 0.30067
 C2942 C 0.90189 0.28775 0.28882
 C2943 C 0.89657 0.29984 0.28328
 C2944 C 0.88537 0.30627 0.28947
 C2945 C 0.87931 0.30068 0.30131
 C2946 C 0.88489 0.28859 0.30687
 C2947 C 0.91349 0.28121 0.28249
 C2948 C 0.92336 0.27591 0.27732
 C2949 C 0.93522 0.27003 0.27152
 C2950 C 0.94568 0.26542 0.26690
 H2951 H 0.90020 0.27287 0.30509
 H2952 H 0.90105 0.30430 0.27416
 H2953 H 0.88151 0.31559 0.28491
 H2954 H 0.88062 0.28397 0.31598
 C2955 C 0.35477 0.79979 0.46791
 C2956 C 0.34919 0.78784 0.46226
 C2957 C 0.35452 0.78257 0.45006
 C2958 C 0.36548 0.78914 0.44357
 C2959 C 0.37126 0.80113 0.44918
 C2960 C 0.36573 0.80638 0.46144
 C2961 C 0.33776 0.78119 0.46880
 C2962 C 0.32796 0.77582 0.47406
 C2963 C 0.31610 0.76993 0.47986
 C2964 C 0.30551 0.76543 0.48434
 H2965 H 0.35064 0.80404 0.47729
 H2966 H 0.35020 0.77339 0.44553
 H2967 H 0.36940 0.78471 0.43421
 H2968 H 0.36980 0.81558 0.46611
 C2969 C 0.35406 0.30041 0.96763
 C2970 C 0.34832 0.28854 0.96198
 C2971 C 0.35367 0.28313 0.94984
 C2972 C 0.36476 0.28950 0.94341
 C2973 C 0.37068 0.30143 0.94902
 C2974 C 0.36516 0.30681 0.96123
 C2975 C 0.33674 0.28207 0.96844
 C2976 C 0.32688 0.27678 0.97366
 C2977 C 0.31501 0.27087 0.97943
 C2978 C 0.30451 0.26622 0.98397
 H2979 H 0.34994 0.30475 0.97698
 H2980 H 0.34924 0.27400 0.94532
 H2981 H 0.36863 0.28502 0.93405
 H2982 H 0.36936 0.31595 0.96590
 C2983 C 0.80010 0.46730 0.35374
 C2984 C 0.78805 0.46182 0.34824
 C2985 C 0.78249 0.44984 0.35380
 C2986 C 0.78890 0.44340 0.36488
 C2987 C 0.80101 0.44885 0.37055
 C2988 C 0.80653 0.46089 0.36480
 C2989 C 0.78159 0.46829 0.33669
 C2990 C 0.77636 0.47355 0.32682
 C2991 C 0.77057 0.47939 0.31494
 C2992 C 0.76604 0.48398 0.30442
 H2993 H 0.80456 0.47652 0.34944
 H2994 H 0.77321 0.44545 0.34955
 H2995 H 0.78430 0.43418 0.36893
 H2996 H 0.81582 0.46543 0.36880
 C2997 C 0.78238 0.94998 0.85376
 C2998 C 0.78793 0.96195 0.84818
 C2999 C 0.80000 0.96743 0.85364
 C3000 C 0.80644 0.96104 0.86472
 C3001 C 0.80091 0.94902 0.87050
 C3002 C 0.78880 0.94356 0.86483
 C3003 C 0.78143 0.96842 0.83664
 C3004 C 0.77616 0.97364 0.82677
 C3005 C 0.77031 0.97943 0.81489
 C3006 C 0.76573 0.98397 0.80437
 H3007 H 0.77311 0.94557 0.84952
 H3008 H 0.80446 0.97663 0.84931
 H3009 H 0.81575 0.96556 0.86867
 H3010 H 0.78422 0.93432 0.86889
 C3011 C 0.28170 0.79957 0.39506
 C3012 C 0.28715 0.78755 0.40063
 C3013 C 0.29924 0.78206 0.39527
 C3014 C 0.30584 0.78853 0.38433
 C3015 C 0.30045 0.80062 0.37860
 C3016 C 0.28828 0.80606 0.38413
 C3017 C 0.28057 0.78110 0.41213
 C3018 C 0.27528 0.77592 0.42200
 C3019 C 0.26948 0.77025 0.43396
 C3020 C 0.26504 0.76587 0.44461
 H3021 H 0.27240 0.80398 0.39921
 H3022 H 0.30361 0.77282 0.39958
 H3023 H 0.31516 0.78399 0.38045
 H3024 H 0.28377 0.81533 0.38008
 C3025 C 0.28295 0.30092 0.89684
 C3026 C 0.28844 0.28893 0.90241
 C3027 C 0.30041 0.28334 0.89689
 C3028 C 0.30682 0.28966 0.88575
 C3029 C 0.30134 0.30169 0.87996
 C3030 C 0.28933 0.30726 0.88570
 C3031 C 0.28192 0.28250 0.91396
 C3032 C 0.27660 0.27726 0.92378
 C3033 C 0.27068 0.27140 0.93558
 C3034 C 0.26603 0.26675 0.94601
 H3035 H 0.27371 0.30537 0.90109
 H3036 H 0.30480 0.27409 0.90119
 H3037 H 0.31603 0.28502 0.88172
 H3038 H 0.28476 0.31649 0.88162
 C3039 C 0.46703 0.30065 0.85340
 C3040 C 0.46147 0.28863 0.84788
 C3041 C 0.44950 0.28311 0.85346
 C3042 C 0.44314 0.28951 0.86458
 C3043 C 0.44866 0.30158 0.87030
 C3044 C 0.46069 0.30708 0.86453
 C3045 C 0.46788 0.28214 0.83629
 C3046 C 0.47307 0.27685 0.82641
 C3047 C 0.47885 0.27093 0.81455
 C3048 C 0.48343 0.26626 0.80409
 H3049 H 0.47625 0.30507 0.84909
 H3050 H 0.44505 0.27386 0.84919
 H3051 H 0.43391 0.28494 0.86864
 H3052 H 0.46528 0.31633 0.86854
 C3053 C 0.96746 0.30044 0.35373
 C3054 C 0.96193 0.28841 0.34820
 C3055 C 0.94999 0.28284 0.35379
 C3056 C 0.94362 0.28921 0.36493
 C3057 C 0.94910 0.30129 0.37065
 C3058 C 0.96111 0.30684 0.36487
 C3059 C 0.96832 0.28199 0.33657
 C3060 C 0.97349 0.27676 0.32665
 C3061 C 0.97923 0.27091 0.31474
 C3062 C 0.98376 0.26628 0.30424
 H3063 H 0.97666 0.30490 0.34941
 H3064 H 0.94557 0.27358 0.34952
 H3065 H 0.93440 0.28460 0.36898
 H3066 H 0.96566 0.31611 0.36888
 C3067 C 0.44964 0.35355 0.78262
 C3068 C 0.46163 0.34802 0.78817
 C3069 C 0.46715 0.35359 0.80017
 C3070 C 0.46074 0.36468 0.80658
 C3071 C 0.44866 0.37037 0.80109
 C3072 C 0.44320 0.36464 0.78901
 C3073 C 0.46811 0.33645 0.78173
 C3074 C 0.47337 0.32657 0.77651
 C3075 C 0.47921 0.31469 0.77071
 C3076 C 0.48379 0.30417 0.76615
 H3077 H 0.44524 0.34925 0.77337
 H3078 H 0.47640 0.34934 0.80460
 H3079 H 0.46532 0.36874 0.81582
 H3080 H 0.43397 0.36866 0.78441
 C3081 C 0.94962 0.35343 0.28298
 C3082 C 0.96161 0.34783 0.28846
 C3083 C 0.96718 0.35334 0.30047
 C3084 C 0.96083 0.36444 0.30695
 C3085 C 0.94877 0.37021 0.30150
 C3086 C 0.94324 0.36453 0.28942
 C3087 C 0.96802 0.33625 0.28193
 C3088 C 0.97321 0.32637 0.27663
 C3089 C 0.97900 0.31450 0.27075
 C3090 C 0.98358 0.30399 0.26613
 H3091 H 0.94516 0.34918 0.27373
 H3092 H 0.97642 0.34902 0.30486
 H3093 H 0.96543 0.36844 0.31620
 H3094 H 0.93400 0.36859 0.28488
 C3095 C 0.28230 0.85509 0.45095
 C3096 C 0.28784 0.84961 0.46297
 C3097 C 0.29993 0.85510 0.46838
 C3098 C 0.30644 0.86604 0.46183
 C3099 C 0.30097 0.87168 0.44973
 C3100 C 0.28879 0.86604 0.44438
 C3101 C 0.28132 0.83812 0.46953
 C3102 C 0.27605 0.82828 0.47481
 C3103 C 0.27024 0.81636 0.48058
 C3104 C 0.26573 0.80575 0.48500
 H3105 H 0.27299 0.85087 0.44662
 H3106 H 0.30436 0.85087 0.47764
 H3107 H 0.31577 0.87002 0.46631
 H3108 H 0.28421 0.87002 0.43511
 C3109 C 0.28316 0.35343 0.94964
 C3110 C 0.28872 0.34791 0.96163
 C3111 C 0.30073 0.35348 0.96713
 C3112 C 0.30712 0.36458 0.96071
 C3113 C 0.30160 0.37028 0.94866
 C3114 C 0.28953 0.36452 0.94320
 C3115 C 0.28228 0.33634 0.96812
 C3116 C 0.27705 0.32648 0.97339
 C3117 C 0.27122 0.31462 0.97926
 C3118 C 0.26660 0.30414 0.98388
 H3119 H 0.27390 0.34913 0.94524
 H3120 H 0.30517 0.34922 0.97637
 H3121 H 0.31638 0.36862 0.96526
 H3122 H 0.28493 0.36853 0.93396
 C3123 C 0.78335 0.39678 0.30034
 C3124 C 0.78896 0.40232 0.28838
 C3125 C 0.80098 0.39676 0.28294
 C3126 C 0.80732 0.38563 0.28933
 C3127 C 0.80170 0.37985 0.30130
 C3128 C 0.78966 0.38564 0.30676
 C3129 C 0.78254 0.41386 0.28185
 C3130 C 0.77731 0.42369 0.27652
 C3131 C 0.77147 0.43550 0.27059
 C3132 C 0.76684 0.44595 0.26594
 H3133 H 0.77409 0.40107 0.30470
 H3134 H 0.80547 0.40104 0.27374
 H3135 H 0.81657 0.38158 0.28481
 H3136 H 0.78500 0.38159 0.31595
   
