data_POSCAR
  _audit_creation_date              2014-09-24
  _audit_creation_method            'ToBaCCo'
  _symmetry_space_group_name_H-M    'P1'
  _symmetry_Int_Tables_number       1
  _symmetry_cell_setting            triclinic
  loop_
  _symmetry_equiv_pos_as_xyz
 x,y,z
_cell_length_a 50.9833
_cell_length_b 50.8600
_cell_length_c 50.7477
_cell_angle_alpha 89.761700
_cell_angle_beta 90.030700
_cell_angle_gamma 89.830200
loop_
  _atom_site_label
  _atom_site_type_symbol
  _atom_site_fract_x
  _atom_site_fract_y
  _atom_site_fract_z
C1 C 0.24377 0.96936 0.00711
 C2 C 0.25090 0.96925 -0.01997
 C3 C 0.25379 0.99378 -0.03289
 C4 C 0.24980 1.01803 -0.02005
 C5 C 0.24399 1.01760 0.00728
 C6 C 0.24055 0.99344 0.02010
 H7 H 0.23695 0.99332 0.04118
 H8 H 0.25674 0.99396 -0.05402
 C9 C 0.74154 0.46949 0.50626
 C10 C 0.74460 0.47017 0.47859
 C11 C 0.74567 0.49470 0.46577
 C12 C 0.74415 0.51832 0.47989
 C13 C 0.74192 0.51747 0.50758
 C14 C 0.74027 0.49311 0.52031
 H15 H 0.73901 0.49247 0.54165
 H16 H 0.74703 0.49544 0.44445
 C17 C 0.76911 1.01107 1.01702
 C18 C 0.76219 0.98390 1.01878
 C19 C 0.76068 0.96918 0.99522
 C20 C 0.76542 0.98044 0.97038
 C21 C 0.77160 1.00736 0.96885
 C22 C 0.77437 1.02188 0.99199
 H23 H 0.77784 1.04284 0.99003
 H24 H 0.75727 0.94818 0.99623
 C25 C 0.28163 0.51118 0.46853
 C26 C 0.27551 0.48404 0.46827
 C27 C 0.27222 0.47078 0.49250
 C28 C 0.27446 0.48388 0.51676
 C29 C 0.28057 0.51095 0.51677
 C30 C 0.28440 0.52402 0.49275
 H31 H 0.28803 0.54503 0.49290
 H32 H 0.26823 0.44986 0.49255
 C33 C 0.97180 0.25822 -0.01223
 C34 C 0.97033 0.25751 0.01567
 C35 C 0.99347 0.25920 0.03062
 C36 C 1.01839 0.26248 0.01892
 C37 C 1.01940 0.26538 -0.00889
 C38 C 0.99643 0.26287 -0.02376
 H39 H 0.99794 0.26480 -0.04501
 H40 H 0.99180 0.25820 0.05191
 C41 C 0.47141 0.75905 0.49579
 C42 C 0.47190 0.75304 0.52307
 C43 C 0.49634 0.75150 0.53599
 C44 C 0.52008 0.75558 0.52250
 C45 C 0.51931 0.76140 0.49530
 C46 C 0.49512 0.76324 0.48243
 H47 H 0.49482 0.76711 0.46139
 H48 H 0.49688 0.74778 0.55704
 C49 C 0.00643 0.75240 0.03465
 C50 C -0.01927 0.76297 0.03271
 C51 C -0.03038 0.76567 0.00736
 C52 C -0.01752 0.75708 -0.01570
 C53 C 0.00778 0.74563 -0.01314
 C54 C 0.01920 0.74356 0.01190
 H55 H 0.03925 0.73652 0.01353
 H56 H -0.05060 0.77204 0.00570
 C57 C 0.50958 0.24656 0.52829
 C58 C 0.48259 0.25274 0.52858
 C59 C 0.46959 0.25710 0.50460
 C60 C 0.48278 0.25550 0.48042
 C61 C 0.50984 0.24936 0.48018
 C62 C 0.52282 0.24486 0.50418
 H63 H 0.54372 0.24083 0.50419
 H64 H 0.44867 0.26106 0.50470
 C65 C 1.01976 0.02456 0.24463
 C66 C 1.02149 -0.00196 0.25350
 C67 C 0.99838 -0.01640 0.25762
 C68 C 0.97332 -0.00584 0.25261
 C69 C 0.97157 0.02066 0.24397
 C70 C 0.99458 0.03514 0.23981
 H71 H 0.99249 0.05576 0.23470
 H72 H 1.00019 -0.03704 0.26274
 C73 C 0.53207 0.51185 0.75627
 C74 C 0.53177 0.48415 0.75922
 C75 C 0.50759 0.47123 0.76144
 C76 C 0.48376 0.48498 0.76073
 C77 C 0.48397 0.51263 0.75809
 C78 C 0.50811 0.52564 0.75583
 H79 H 0.50825 0.54691 0.75438
 H80 H 0.50726 0.44994 0.76270
 C81 C 1.01940 0.97512 0.75218
 C82 C 0.99371 0.97618 0.74187
 C83 C 0.98177 1.00073 0.73781
 C84 C 0.99418 1.02449 0.74469
 C85 C 1.02007 1.02330 0.75505
 C86 C 1.03218 0.99866 0.75848
 H87 H 1.05235 0.99782 0.76525
 H88 H 0.96153 1.00104 0.73125
 C89 C 0.50989 0.48524 0.24766
 C90 C 0.48224 0.48568 0.24704
 C91 C 0.46896 0.50968 0.24878
 C92 C 0.48252 0.53345 0.25120
 C93 C 0.51022 0.53324 0.25230
 C94 C 0.52353 0.50904 0.25038
 H95 H 0.54480 0.50872 0.25091
 H96 H 0.44768 0.50987 0.24813
 O97 O 0.25669 0.17902 0.20532
 O98 O 0.28901 0.17169 0.23973
 O99 O 0.19191 0.21100 0.24747
 O100 O 0.18493 0.24531 0.27451
 O101 O 0.21874 0.24826 0.17570
 O102 O 0.25514 0.27615 0.16539
 O103 O 0.26497 0.28443 0.30863
 O104 O 0.23518 0.24879 0.31802
 O105 O 0.33007 0.24660 0.27253
 O106 O 0.33473 0.21673 0.23470
 O107 O 0.29712 0.31443 0.23927
 O108 O 0.25727 0.32243 0.21077
 O109 O 0.26376 0.31560 0.27649
 O110 O 0.23209 0.32393 0.24123
 O111 O 0.32798 0.28208 0.23865
 O112 O 0.33327 0.24524 0.20675
 O113 O 0.30111 0.24989 0.30634
 O114 O 0.27026 0.22010 0.31806
 O115 O 0.25491 0.21043 0.17337
 O116 O 0.28358 0.24630 0.16350
 O117 O 0.18968 0.24817 0.20965
 O118 O 0.18593 0.27803 0.24676
 O119 O 0.22341 0.17941 0.24513
 O120 O 0.26293 0.17063 0.27016
 Zr121 Zr 0.25867 0.20011 0.24090
 O122 O 0.28476 0.22253 0.26365
 Zr123 Zr 0.21301 0.24654 0.24387
 O124 O 0.23738 0.27131 0.26639
 Zr125 Zr 0.25563 0.24605 0.19425
 O126 O 0.28202 0.27040 0.21469
 Zr127 Zr 0.26410 0.24851 0.28813
 O128 O 0.23765 0.22332 0.26811
 Zr129 Zr 0.30651 0.24707 0.23859
 O130 O 0.28238 0.22251 0.21548
 Zr131 Zr 0.26112 0.29410 0.24125
 O132 O 0.23432 0.27170 0.21868
 O133 O 0.23270 0.22196 0.21801
 O134 O 0.28717 0.27244 0.26434
 C135 C 0.25543 0.18631 0.18105
 C136 C 0.19946 0.18680 0.24767
 C137 C 0.19527 0.24909 0.18495
 C138 C 0.26486 0.30852 0.30080
 C139 C 0.32455 0.24850 0.29713
 C140 C 0.32104 0.30633 0.23916
 H141 H 0.29602 0.21061 0.27420
 H142 H 0.29217 0.28105 0.20199
 H143 H 0.22050 0.21087 0.20777
 H144 H 0.22642 0.28229 0.27809
 H145 H 0.22341 0.23372 0.31460
 H146 H 0.19243 0.25487 0.28966
 H147 H 0.32963 0.26025 0.19484
 H148 H 0.29806 0.23459 0.16922
 H149 H 0.26055 0.20427 0.31264
 H150 H 0.24948 0.17394 0.28380
 H151 H 0.27174 0.31965 0.19809
 H152 H 0.24389 0.29038 0.17242
 H153 H 0.30112 0.17709 0.22547
 H154 H 0.33172 0.20387 0.24905
 H155 H 0.19076 0.29099 0.23300
 H156 H 0.21962 0.31992 0.25561
 O157 O 0.74705 0.82925 0.22240
 O158 O 0.71688 0.83658 0.25827
 O159 O 0.81370 0.79638 0.26311
 O160 O 0.82179 0.76224 0.28969
 O161 O 0.78488 0.76060 0.19220
 O162 O 0.74807 0.73158 0.18367
 O163 O 0.74254 0.72368 0.32689
 O164 O 0.77365 0.75867 0.33466
 O165 O 0.67682 0.76002 0.29373
 O166 O 0.67081 0.79153 0.25548
 O167 O 0.70851 0.69362 0.25877
 O168 O 0.74674 0.68542 0.22933
 O169 O 0.74299 0.69284 0.29468
 O170 O 0.77341 0.68433 0.25828
 O171 O 0.67732 0.72554 0.25777
 O172 O 0.67013 0.76294 0.22822
 O173 O 0.70755 0.75980 0.32617
 O174 O 0.74196 0.78813 0.33650
 O175 O 0.74778 0.79755 0.19098
 O176 O 0.71982 0.76165 0.18174
 O177 O 0.81479 0.75950 0.22547
 O178 O 0.81947 0.72938 0.26199
 O179 O 0.78260 0.82843 0.26107
 O180 O 0.74519 0.83666 0.28813
 Zr181 Zr 0.74697 0.80789 0.25822
 O182 O 0.72158 0.78550 0.28211
 Zr183 Zr 0.79253 0.76113 0.26011
 O184 O 0.76902 0.73657 0.28366
 Zr185 Zr 0.74837 0.76198 0.21195
 O186 O 0.72250 0.73783 0.23350
 Zr187 Zr 0.74337 0.75966 0.30613
 O188 O 0.76894 0.78457 0.28476
 Zr189 Zr 0.69877 0.76078 0.25838
 O190 O 0.72223 0.78528 0.23408
 Zr191 Zr 0.74433 0.71410 0.25937
 O192 O 0.77040 0.73621 0.23571
 O193 O 0.77212 0.78597 0.23472
 O194 O 0.71923 0.73557 0.28355
 C195 C 0.74712 0.82171 0.19821
 C196 C 0.80652 0.82064 0.26315
 C197 C 0.80857 0.75921 0.20097
 C198 C 0.74261 0.69969 0.31896
 C199 C 0.68370 0.75980 0.31814
 C200 C 0.68446 0.70131 0.25831
 H201 H 0.71050 0.79747 0.29264
 H202 H 0.71190 0.72726 0.22117
 H203 H 0.78387 0.79717 0.22398
 H204 H 0.78035 0.72550 0.29501
 H205 H 0.78623 0.77272 0.32992
 H206 H 0.81566 0.75132 0.30462
 H207 H 0.67481 0.74982 0.21467
 H208 H 0.70517 0.77284 0.18793
 H209 H 0.73219 0.80355 0.32976
 H210 H 0.75686 0.83048 0.30249
 H211 H 0.73266 0.68908 0.21640
 H212 H 0.76042 0.71792 0.19007
 H213 H 0.70350 0.83061 0.24550
 H214 H 0.67298 0.80307 0.27097
 H215 H 0.81409 0.71655 0.24841
 H216 H 0.78607 0.68784 0.27261
 O217 O 0.76233 0.17492 0.77579
 O218 O 0.73284 0.16624 0.74116
 O219 O 0.82541 0.21404 0.73632
 O220 O 0.83386 0.25091 0.71630
 O221 O 0.79252 0.24432 0.81059
 O222 O 0.75524 0.26885 0.82106
 O223 O 0.74689 0.28191 0.67594
 O224 O 0.77966 0.25180 0.66547
 O225 O 0.68567 0.24275 0.71001
 O226 O 0.67884 0.21379 0.74459
 O227 O 0.71600 0.31073 0.74560
 O228 O 0.75216 0.32129 0.77225
 O229 O 0.74845 0.31308 0.70791
 O230 O 0.78184 0.32015 0.74565
 O231 O 0.68579 0.27803 0.74624
 O232 O 0.68311 0.23704 0.77704
 O233 O 0.71539 0.24557 0.67680
 O234 O 0.75459 0.21636 0.66745
 O235 O 0.75964 0.20441 0.80927
 O236 O 0.72687 0.23941 0.81831
 O237 O 0.82350 0.24785 0.77861
 O238 O 0.82502 0.28193 0.74117
 O239 O 0.79687 0.17977 0.73831
 O240 O 0.75876 0.17176 0.70931
 Zr241 Zr 0.75964 0.19787 0.74162
 O242 O 0.73186 0.21950 0.71972
 Zr243 Zr 0.80205 0.24734 0.74271
 O244 O 0.77720 0.27030 0.71858
 Zr245 Zr 0.75724 0.24138 0.78999
 O246 O 0.73134 0.26626 0.76922
 Zr247 Zr 0.75206 0.24652 0.69610
 O248 O 0.78020 0.22359 0.71657
 Zr249 Zr 0.70833 0.24292 0.74443
 O250 O 0.73304 0.21758 0.76667
 Zr251 Zr 0.75202 0.29135 0.74345
 O252 O 0.77809 0.26966 0.76778
 O253 O 0.78300 0.22017 0.76645
 O254 O 0.72738 0.26924 0.71953
 C255 C 0.76198 0.18085 0.80031
 C256 C 0.82006 0.18942 0.73580
 C257 C 0.81635 0.24678 0.80298
 C258 C 0.74593 0.30577 0.68379
 C259 C 0.69174 0.24419 0.68552
 C260 C 0.69230 0.30251 0.74647
 H261 H 0.72109 0.20727 0.70922
 H262 H 0.72059 0.27624 0.78195
 H263 H 0.79560 0.20928 0.77660
 H264 H 0.78773 0.28192 0.70707
 H265 H 0.79535 0.24140 0.67044
 H266 H 0.82614 0.25424 0.69873
 H267 H 0.68323 0.25328 0.78771
 H268 H 0.71577 0.22419 0.81361
 H269 H 0.73943 0.20448 0.66975
 H270 H 0.77197 0.17811 0.69651
 H271 H 0.74291 0.31430 0.78789
 H272 H 0.76467 0.28470 0.81488
 H273 H 0.71867 0.17087 0.75366
 H274 H 0.68649 0.19799 0.73627
 H275 H 0.82218 0.29139 0.75794
 H276 H 0.79091 0.32076 0.72842
 O277 O 0.23519 0.79971 0.79263
 O278 O 0.26480 0.80907 0.75642
 O279 O 0.16995 0.76522 0.74909
 O280 O 0.16400 0.73077 0.72276
 O281 O 0.19870 0.72955 0.82099
 O282 O 0.23664 0.70143 0.83001
 O283 O 0.24637 0.69588 0.68746
 O284 O 0.21297 0.72984 0.67918
 O285 O 0.30888 0.73532 0.72189
 O286 O 0.31254 0.76601 0.76070
 O287 O 0.27961 0.66653 0.75593
 O288 O 0.24080 0.65690 0.78501
 O289 O 0.24566 0.66456 0.71949
 O290 O 0.21542 0.65440 0.75479
 O291 O 0.30907 0.69989 0.75726
 O292 O 0.31417 0.73683 0.78744
 O293 O 0.27902 0.73358 0.68876
 O294 O 0.24405 0.76020 0.67757
 O295 O 0.23382 0.76744 0.82376
 O296 O 0.26346 0.73278 0.83301
 O297 O 0.16950 0.72935 0.78713
 O298 O 0.16718 0.69801 0.75100
 O299 O 0.19936 0.79842 0.75355
 O300 O 0.23649 0.80892 0.72698
 Zr301 Zr 0.23597 0.77927 0.75631
 O302 O 0.26272 0.75825 0.73267
 Zr303 Zr 0.19260 0.73082 0.75301
 O304 O 0.21770 0.70739 0.72993
 Zr305 Zr 0.23558 0.73247 0.80217
 O306 O 0.26307 0.70985 0.78104
 Zr307 Zr 0.24280 0.73169 0.70811
 O308 O 0.21575 0.75547 0.72904
 Zr309 Zr 0.28615 0.73420 0.75678
 O310 O 0.26112 0.75723 0.78084
 Zr311 Zr 0.24284 0.68556 0.75469
 O312 O 0.21516 0.70630 0.77779
 O313 O 0.21140 0.75600 0.77901
 O314 O 0.26747 0.70838 0.73117
 C315 C 0.23434 0.79171 0.81677
 C316 C 0.17591 0.78973 0.75025
 C317 C 0.17515 0.72892 0.81179
 C318 C 0.24697 0.67178 0.69530
 C319 C 0.30268 0.73483 0.69729
 C320 C 0.30321 0.67537 0.75659
 H321 H 0.27340 0.77079 0.72236
 H322 H 0.27392 0.69955 0.79351
 H323 H 0.19909 0.76676 0.78955
 H324 H 0.20719 0.69600 0.71828
 H325 H 0.19996 0.74367 0.68353
 H326 H 0.17097 0.72015 0.70804
 H327 H 0.30980 0.72333 0.80081
 H328 H 0.27776 0.74456 0.82717
 H329 H 0.25020 0.77681 0.68543
 H330 H 0.22510 0.80271 0.71249
 H331 H 0.25514 0.66036 0.79766
 H332 H 0.22448 0.68776 0.82354
 H333 H 0.27814 0.80371 0.76957
 H334 H 0.31012 0.77778 0.74532
 H335 H 0.17237 0.68581 0.76535
 H336 H 0.20200 0.65844 0.74128
 O337 O 0.24907 0.32834 0.72093
 O338 O 0.22108 0.33552 0.75928
 O339 O 0.31692 0.29219 0.75645
 O340 O 0.32573 0.25657 0.78083
 O341 O 0.28128 0.25917 0.68667
 O342 O 0.24272 0.23160 0.68059
 O343 O 0.24935 0.22028 0.82336
 O344 O 0.28169 0.25473 0.82912
 O345 O 0.18192 0.26011 0.79680
 O346 O 0.17436 0.29334 0.76023
 O347 O 0.20731 0.19364 0.75715
 O348 O 0.24338 0.18494 0.72456
 O349 O 0.24477 0.19023 0.79073
 O350 O 0.27134 0.18110 0.75210
 O351 O 0.17778 0.22711 0.75894
 O352 O 0.16970 0.26563 0.73241
 O353 O 0.21518 0.25564 0.82628
 O354 O 0.24761 0.28432 0.83431
 O355 O 0.24573 0.29737 0.68895
 O356 O 0.21573 0.26277 0.68136
 O357 O 0.31369 0.25710 0.71737
 O358 O 0.32017 0.22526 0.75235
 O359 O 0.28696 0.32535 0.75686
 O360 O 0.25099 0.33536 0.78608
 Zr361 Zr 0.25048 0.30627 0.75640
 O362 O 0.22660 0.28414 0.78209
 Zr363 Zr 0.29423 0.25783 0.75369
 O364 O 0.27179 0.23328 0.77831
 Zr365 Zr 0.24651 0.26140 0.70927
 O366 O 0.22144 0.23789 0.73239
 Zr367 Zr 0.24908 0.25664 0.80336
 O368 O 0.27362 0.28152 0.78070
 Zr369 Zr 0.20083 0.26119 0.75968
 O370 O 0.22311 0.28520 0.73384
 Zr371 Zr 0.24418 0.21242 0.75577
 O372 O 0.26929 0.23423 0.73066
 O373 O 0.27285 0.28399 0.73056
 O374 O 0.22209 0.23429 0.78234
 C375 C 0.24691 0.32137 0.69664
 C376 C 0.31064 0.31668 0.75745
 C377 C 0.30560 0.25755 0.69342
 C378 C 0.24722 0.19651 0.81509
 C379 C 0.19079 0.25735 0.82042
 C380 C 0.18369 0.20258 0.75803
 H381 H 0.21724 0.29608 0.79424
 H382 H 0.20943 0.22822 0.72064
 H383 H 0.28417 0.29507 0.71925
 H384 H 0.28359 0.22149 0.78836
 H385 H 0.29324 0.26971 0.82460
 H386 H 0.31979 0.24644 0.79639
 H387 H 0.17334 0.25381 0.71742
 H388 H 0.20227 0.27480 0.68861
 H389 H 0.25681 0.30013 0.82786
 H390 H 0.26543 0.33086 0.79835
 H391 H 0.22816 0.18922 0.71321
 H392 H 0.25537 0.21758 0.68542
 H393 H 0.20721 0.33082 0.74650
 H394 H 0.17833 0.30410 0.77592
 H395 H 0.31320 0.21304 0.73893
 H396 H 0.28604 0.18458 0.76432
 O397 O 0.75889 0.67552 0.70676
 O398 O 0.78992 0.66642 0.74158
 O399 O 0.69468 0.70948 0.74851
 O400 O 0.68825 0.74403 0.77538
 O401 O 0.72350 0.74577 0.67716
 O402 O 0.76059 0.77321 0.66781
 O403 O 0.76942 0.77895 0.81139
 O404 O 0.73907 0.74527 0.82048
 O405 O 0.83376 0.73988 0.77530
 O406 O 0.83770 0.71013 0.73690
 O407 O 0.80363 0.80899 0.74280
 O408 O 0.76445 0.81890 0.71407
 O409 O 0.76927 0.81067 0.77976
 O410 O 0.73906 0.82091 0.74416
 O411 O 0.83325 0.77561 0.74104
 O412 O 0.83766 0.73882 0.70962
 O413 O 0.80450 0.74311 0.80887
 O414 O 0.76805 0.71361 0.81959
 O415 O 0.75860 0.70736 0.67516
 O416 O 0.78844 0.74266 0.66590
 O417 O 0.69398 0.74607 0.71071
 O418 O 0.69119 0.77700 0.74741
 O419 O 0.72496 0.67667 0.74624
 O420 O 0.76254 0.66723 0.77242
 Zr421 Zr 0.76095 0.69623 0.74250
 O422 O 0.78783 0.71727 0.76561
 Zr423 Zr 0.71691 0.74430 0.74523
 O424 O 0.74197 0.76760 0.76850
 Zr425 Zr 0.76009 0.74276 0.69629
 O426 O 0.78710 0.76587 0.71733
 Zr427 Zr 0.76760 0.74350 0.79028
 O428 O 0.74036 0.71999 0.76946
 Zr429 Zr 0.81055 0.74141 0.74112
 O430 O 0.78573 0.71802 0.71755
 Zr431 Zr 0.76686 0.78992 0.74407
 O432 O 0.73949 0.76896 0.72072
 O433 O 0.73611 0.71923 0.71952
 O434 O 0.79188 0.76702 0.76716
 C435 C 0.75821 0.68316 0.68257
 C436 C 0.70125 0.68500 0.74842
 C437 C 0.69990 0.74662 0.68607
 C438 C 0.76970 0.80316 0.80397
 C439 C 0.82801 0.74132 0.79988
 C440 C 0.82728 0.80009 0.74199
 H441 H 0.79885 0.70477 0.77567
 H442 H 0.79773 0.77631 0.70484
 H443 H 0.72375 0.70850 0.70908
 H444 H 0.73125 0.77879 0.78021
 H445 H 0.72482 0.73310 0.81542
 H446 H 0.69523 0.75438 0.79026
 H447 H 0.83411 0.75353 0.69732
 H448 H 0.80222 0.73001 0.67135
 H449 H 0.78136 0.70033 0.81470
 H450 H 0.75256 0.67434 0.78754
 H451 H 0.77869 0.81553 0.70127
 H452 H 0.74967 0.78764 0.67495
 H453 H 0.80286 0.67174 0.72804
 H454 H 0.83462 0.69746 0.75140
 H455 H 0.69635 0.78933 0.73320
 H456 H 0.72565 0.81661 0.75756
 O457 O 0.24721 0.69122 0.29708
 O458 O 0.22072 0.68027 0.26215
 O459 O 0.31379 0.72511 0.25363
 O460 O 0.32353 0.76048 0.23162
 O461 O 0.28301 0.76378 0.32604
 O462 O 0.24623 0.78783 0.33576
 O463 O 0.23732 0.79076 0.18921
 O464 O 0.26825 0.75879 0.18072
 O465 O 0.17494 0.75531 0.22738
 O466 O 0.16778 0.73043 0.26501
 O467 O 0.20778 0.82586 0.25653
 O468 O 0.24418 0.83760 0.28176
 O469 O 0.24084 0.82424 0.21851
 O470 O 0.27418 0.83286 0.25608
 O471 O 0.17669 0.79420 0.26017
 O472 O 0.17316 0.75637 0.29447
 O473 O 0.20409 0.75504 0.19352
 O474 O 0.24271 0.72444 0.18608
 O475 O 0.24953 0.72312 0.32831
 O476 O 0.21705 0.75960 0.33452
 O477 O 0.31388 0.76136 0.29380
 O478 O 0.31586 0.79310 0.25422
 O479 O 0.28454 0.69197 0.25969
 O480 O 0.24635 0.68337 0.23077
 Zr481 Zr 0.24789 0.71156 0.26126
 O482 O 0.22052 0.73238 0.23813
 Zr483 Zr 0.29179 0.75949 0.25833
 O484 O 0.26744 0.78132 0.23259
 Zr485 Zr 0.24752 0.75867 0.30625
 O486 O 0.22225 0.78284 0.28378
 Zr487 Zr 0.24116 0.75687 0.21218
 O488 O 0.26889 0.73470 0.23414
 Zr489 Zr 0.19813 0.75844 0.26120
 O490 O 0.22230 0.73404 0.28496
 Zr491 Zr 0.24322 0.80521 0.25578
 O492 O 0.26879 0.78456 0.28163
 O493 O 0.27229 0.73470 0.28433
 O494 O 0.21747 0.78219 0.23393
 C495 C 0.24816 0.69890 0.32106
 C496 C 0.30785 0.70070 0.25541
 C497 C 0.30682 0.76406 0.31803
 C498 C 0.23792 0.81523 0.19500
 C499 C 0.18061 0.75424 0.20280
 C500 C 0.18386 0.81842 0.25834
 H501 H 0.20927 0.71964 0.22881
 H502 H 0.21198 0.79418 0.29575
 H503 H 0.28446 0.72411 0.29532
 H504 H 0.27832 0.79159 0.22015
 H505 H 0.28405 0.74904 0.18657
 H506 H 0.31575 0.76179 0.21383
 H507 H 0.17393 0.77346 0.30367
 H508 H 0.20592 0.74401 0.33134
 H509 H 0.22738 0.71308 0.18958
 H510 H 0.26007 0.68820 0.21783
 H511 H 0.23526 0.83210 0.29816
 H512 H 0.25424 0.80375 0.32793
 H513 H 0.20537 0.68668 0.27222
 H514 H 0.17378 0.71428 0.25604
 H515 H 0.31370 0.80364 0.27043
 H516 H 0.28335 0.83179 0.23893
 O517 O 0.73797 0.31327 0.27638
 O518 O 0.76440 0.31965 0.23729
 O519 O 0.66653 0.28275 0.24283
 O520 O 0.65496 0.24843 0.21823
 O521 O 0.70195 0.24542 0.31123
 O522 O 0.73902 0.21619 0.31658
 O523 O 0.73096 0.20687 0.17374
 O524 O 0.69863 0.24171 0.16828
 O525 O 0.79888 0.24256 0.19953
 O526 O 0.80958 0.27311 0.23649
 O527 O 0.76923 0.17643 0.23857
 O528 O 0.73358 0.17017 0.27230
 O529 O 0.73108 0.17632 0.20652
 O530 O 0.70464 0.16904 0.24553
 O531 O 0.80081 0.20764 0.23516
 O532 O 0.81196 0.24471 0.26399
 O533 O 0.76523 0.24331 0.17014
 O534 O 0.72946 0.27168 0.16316
 O535 O 0.73931 0.28189 0.30836
 O536 O 0.76770 0.24552 0.31488
 O537 O 0.66856 0.24674 0.28157
 O538 O 0.65946 0.21578 0.24650
 O539 O 0.69869 0.31355 0.24129
 O540 O 0.73326 0.32066 0.21078
 Zr541 Zr 0.73380 0.29191 0.24098
 O542 O 0.75603 0.26865 0.21500
 Zr543 Zr 0.68709 0.24676 0.24463
 O544 O 0.70755 0.22124 0.21918
 Zr545 Zr 0.73611 0.24633 0.28789
 O546 O 0.75899 0.22125 0.26425
 Zr547 Zr 0.73146 0.24320 0.19373
 O548 O 0.70874 0.26909 0.21718
 Zr549 Zr 0.78051 0.24347 0.23677
 O550 O 0.76032 0.26881 0.26289
 Zr551 Zr 0.73399 0.19808 0.24122
 O552 O 0.71103 0.22123 0.26700
 O553 O 0.71068 0.27100 0.26735
 O554 O 0.75712 0.21864 0.21428
 C555 C 0.73994 0.30595 0.30063
 C556 C 0.67445 0.30673 0.24154
 C557 C 0.67742 0.24559 0.30525
 C558 C 0.73062 0.18294 0.18214
 C559 C 0.78975 0.24303 0.17590
 C560 C 0.79326 0.18361 0.23601
 H561 H 0.76620 0.28033 0.20326
 H562 H 0.77052 0.21040 0.27559
 H563 H 0.70037 0.28266 0.27901
 H564 H 0.69498 0.21040 0.20916
 H565 H 0.68636 0.25568 0.17406
 H566 H 0.65908 0.23682 0.20319
 H567 H 0.80871 0.23121 0.27768
 H568 H 0.78181 0.25628 0.30695
 H569 H 0.74070 0.28662 0.16823
 H570 H 0.72030 0.31469 0.19757
 H571 H 0.74967 0.17261 0.28290
 H572 H 0.72595 0.20268 0.31175
 H573 H 0.77872 0.31360 0.24905
 H574 H 0.80556 0.28535 0.22183
 H575 H 0.66579 0.20320 0.26004
 H576 H 0.69017 0.17354 0.23330
 C577 C 0.26704 0.05814 0.02306
 C578 C 0.26898 0.07950 0.04018
 C579 C 0.24942 0.08417 0.05903
 C580 C 0.22721 0.06783 0.05964
 C581 C 0.22516 0.04663 0.04237
 C582 C 0.24517 0.04143 0.02410
 C583 C 0.25276 0.10611 0.07778
 C584 C 0.24343 0.10514 0.10246
 C585 C 0.24752 0.12626 0.12202
 C586 C 0.24665 0.11979 0.14889
 C587 C 0.24975 0.13918 0.16804
 C588 C 0.25346 0.16559 0.16071
 C589 C 0.25424 0.17210 0.13375
 C590 C 0.25129 0.15266 0.11459
 H591 H 0.28286 0.05435 0.00936
 H592 H 0.28617 0.09193 0.03923
 H593 H 0.21137 0.07141 0.07336
 H594 H 0.20802 0.03413 0.04335
 H595 H 0.26488 0.12247 0.07165
 H596 H 0.23366 0.08749 0.10925
 H597 H 0.24356 0.09963 0.15511
 H598 H 0.24882 0.13347 0.18860
 H599 H 0.25687 0.19227 0.12740
 H600 H 0.25133 0.15851 0.09408
 C601 C 0.76410 0.55895 0.52169
 C602 C 0.76622 0.58029 0.53876
 C603 C 0.74764 0.58408 0.55876
 C604 C 0.72605 0.56700 0.56050
 C605 C 0.72385 0.54578 0.54333
 C606 C 0.74302 0.54139 0.52403
 C607 C 0.75147 0.60567 0.57772
 C608 C 0.74383 0.60373 0.60291
 C609 C 0.74853 0.62441 0.62271
 C610 C 0.74911 0.61727 0.64942
 C611 C 0.75282 0.63624 0.66885
 C612 C 0.75576 0.66286 0.66194
 C613 C 0.75516 0.67001 0.63515
 C614 C 0.75151 0.65101 0.61573
 H615 H 0.77927 0.55572 0.50712
 H616 H 0.78289 0.59333 0.53695
 H617 H 0.71090 0.56994 0.57514
 H618 H 0.70732 0.53259 0.54527
 H619 H 0.76269 0.62253 0.57121
 H620 H 0.73507 0.58560 0.60983
 H621 H 0.74667 0.59692 0.65529
 H622 H 0.75299 0.63004 0.68929
 H623 H 0.75711 0.69037 0.62914
 H624 H 0.75039 0.65739 0.59540
 C625 C 0.77530 0.97532 0.06495
 C626 C 0.77307 0.96039 0.08809
 C627 C 0.75470 0.93999 0.08991
 C628 C 0.73761 0.93572 0.06862
 C629 C 0.73993 0.95042 0.04549
 C630 C 0.75897 0.97032 0.04307
 C631 C 0.75413 0.92315 0.11388
 C632 C 0.74648 0.89794 0.11302
 C633 C 0.74699 0.87943 0.13567
 C634 C 0.74568 0.85248 0.13020
 C635 C 0.74574 0.83397 0.15048
 C636 C 0.74693 0.84187 0.17697
 C637 C 0.74803 0.86892 0.18261
 C638 C 0.74803 0.88756 0.16216
 H639 H 0.79073 0.98985 0.06384
 H640 H 0.78638 0.96418 0.10427
 H641 H 0.72232 0.92105 0.06969
 H642 H 0.72630 0.94651 0.02960
 H643 H 0.76205 0.93116 0.13191
 H644 H 0.74093 0.88966 0.09422
 H645 H 0.74470 0.84564 0.11003
 H646 H 0.74479 0.81336 0.14528
 H647 H 0.74886 0.87568 0.20280
 H648 H 0.74845 0.90818 0.16725
 C649 C 0.28979 0.46897 0.56154
 C650 C 0.28657 0.45377 0.58437
 C651 C 0.26438 0.43777 0.58760
 C652 C 0.24491 0.43816 0.56788
 C653 C 0.24818 0.45329 0.54505
 C654 C 0.27071 0.46869 0.54157
 C655 C 0.26236 0.42085 0.61152
 C656 C 0.24828 0.39857 0.61212
 C657 C 0.24769 0.37985 0.63468
 C658 C 0.24004 0.35389 0.62967
 C659 C 0.23954 0.33519 0.64984
 C660 C 0.24641 0.34196 0.67578
 C661 C 0.25344 0.36815 0.68107
 C662 C 0.25410 0.38694 0.66072
 H663 H 0.30742 0.48059 0.55924
 H664 H 0.30178 0.45404 0.59928
 H665 H 0.22702 0.42697 0.56998
 H666 H 0.23302 0.45307 0.53009
 H667 H 0.27447 0.42592 0.62825
 H668 H 0.23812 0.39247 0.59446
 H669 H 0.23477 0.34788 0.60991
 H670 H 0.23381 0.31529 0.64500
 H671 H 0.25876 0.37405 0.70084
 H672 H 0.25943 0.40691 0.66555
 C673 C 0.74759 0.02401 0.92943
 C674 C 0.74463 0.04303 0.90969
 C675 C 0.76520 0.06032 0.90374
 C676 C 0.78923 0.05757 0.91716
 C677 C 0.79206 0.03876 0.93708
 C678 C 0.77105 0.02230 0.94379
 C679 C 0.76029 0.08247 0.88541
 C680 C 0.77925 0.09359 0.87103
 C681 C 0.77417 0.11611 0.85337
 C682 C 0.78665 0.11687 0.82884
 C683 C 0.78231 0.13786 0.81166
 C684 C 0.76605 0.15896 0.81900
 C685 C 0.75409 0.15866 0.84389
 C686 C 0.75788 0.13719 0.86088
 H687 H 0.73099 0.01181 0.93467
 H688 H 0.72593 0.04486 0.89969
 H689 H 0.80531 0.07093 0.91349
 H690 H 0.81014 0.03798 0.94827
 H691 H 0.74029 0.08947 0.88330
 H692 H 0.79873 0.08504 0.87088
 H693 H 0.79947 0.10097 0.82282
 H694 H 0.79198 0.13777 0.79267
 H695 H 0.74157 0.17476 0.84999
 H696 H 0.74847 0.13725 0.88001
 C697 C 0.30386 0.54466 0.44037
 C698 C 0.30204 0.56569 0.42266
 C699 C 0.27856 0.57075 0.40910
 C700 C 0.25771 0.55275 0.41175
 C701 C 0.25960 0.53161 0.42944
 C702 C 0.28233 0.52802 0.44462
 C703 C 0.27645 0.59539 0.39335
 C704 C 0.25356 0.60713 0.38749
 C705 C 0.25179 0.63200 0.37229
 C706 C 0.23074 0.63541 0.35483
 C707 C 0.22906 0.65788 0.33904
 C708 C 0.24793 0.67782 0.34101
 C709 C 0.26825 0.67524 0.35950
 C710 C 0.27030 0.65236 0.37493
 H711 H 0.32156 0.54229 0.45198
 H712 H 0.31855 0.57891 0.42069
 H713 H 0.23966 0.55525 0.40082
 H714 H 0.24271 0.51911 0.43252
 H715 H 0.29456 0.60479 0.38739
 H716 H 0.23526 0.59800 0.39311
 H717 H 0.21610 0.62017 0.35267
 H718 H 0.21332 0.65946 0.32475
 H719 H 0.28315 0.69029 0.36108
 H720 H 0.28637 0.65057 0.38878
 C721 C 0.27195 0.94493 0.94407
 C722 C 0.27206 0.92425 0.92613
 C723 C 0.25370 0.90390 0.92801
 C724 C 0.23623 0.90385 0.94955
 C725 C 0.23620 0.92458 0.96773
 C726 C 0.25350 0.94599 0.96477
 C727 C 0.25327 0.88404 0.90651
 C728 C 0.23446 0.86598 0.90306
 C729 C 0.23438 0.84759 0.88042
 C730 C 0.22396 0.82236 0.88393
 C731 C 0.22382 0.80439 0.86318
 C732 C 0.23359 0.81143 0.83821
 C733 C 0.24321 0.83702 0.83438
 C734 C 0.24373 0.85491 0.85531
 H735 H 0.28637 0.96033 0.94153
 H736 H 0.28615 0.92464 0.91015
 H737 H 0.22204 0.88836 0.95225
 H738 H 0.22118 0.92465 0.98277
 H739 H 0.26909 0.88490 0.89229
 H740 H 0.21888 0.86384 0.91731
 H741 H 0.21632 0.81638 0.90294
 H742 H 0.21598 0.78492 0.86672
 H743 H 0.25076 0.84305 0.81536
 H744 H 0.25113 0.87452 0.85171
 C745 C 0.72604 0.42690 0.46400
 C746 C 0.72544 0.40601 0.44615
 C747 C 0.74417 0.40423 0.42595
 C748 C 0.76449 0.42283 0.42491
 C749 C 0.76517 0.44357 0.44282
 C750 C 0.74569 0.44610 0.46221
 C751 C 0.74195 0.38292 0.40627
 C752 C 0.75014 0.38566 0.38125
 C753 C 0.74728 0.36492 0.36101
 C754 C 0.74689 0.37218 0.33428
 C755 C 0.74443 0.35315 0.31460
 C756 C 0.74260 0.32637 0.32126
 C757 C 0.74337 0.31912 0.34806
 C758 C 0.74574 0.33812 0.36768
 H759 H 0.71058 0.42860 0.47852
 H760 H 0.70975 0.39175 0.44752
 H761 H 0.77981 0.42151 0.41022
 H762 H 0.78068 0.45800 0.44125
 H763 H 0.73160 0.36531 0.41217
 H764 H 0.75802 0.40436 0.37481
 H765 H 0.74830 0.39268 0.32860
 H766 H 0.74403 0.35944 0.29419
 H767 H 0.74222 0.29867 0.35397
 H768 H 0.74684 0.33163 0.38798
 C769 C 0.06249 0.27913 0.03078
 C770 C 0.08439 0.27865 0.04745
 C771 C 0.08533 0.26163 0.06924
 C772 C 0.06417 0.24454 0.07366
 C773 C 0.04231 0.24504 0.05712
 C774 C 0.04102 0.26226 0.03528
 C775 C 0.10875 0.26171 0.08663
 C776 C 0.10785 0.25416 0.11201
 C777 C 0.13082 0.25369 0.12996
 C778 C 0.12626 0.25289 0.15722
 C779 C 0.14713 0.25155 0.17501
 C780 C 0.17318 0.25079 0.16596
 C781 C 0.17780 0.25147 0.13863
 C782 C 0.15687 0.25283 0.12080
 H783 H 0.06203 0.29369 0.01521
 H784 H 0.10042 0.29206 0.04362
 H785 H 0.06455 0.23031 0.08955
 H786 H 0.02678 0.23106 0.06099
 H787 H 0.12680 0.26936 0.07848
 H788 H 0.08913 0.24895 0.12059
 H789 H 0.10641 0.25330 0.16483
 H790 H 0.14277 0.25099 0.19589
 H791 H 0.19759 0.25072 0.13094
 H792 H 0.16126 0.25261 0.09997
 C793 C 0.56282 0.77551 0.53678
 C794 C 0.58533 0.77522 0.55256
 C795 C 0.59019 0.75422 0.56992
 C796 C 0.57271 0.73285 0.57029
 C797 C 0.55035 0.73304 0.55433
 C798 C 0.54505 0.75447 0.53759
 C799 C 0.61349 0.75522 0.58741
 C800 C 0.61378 0.74419 0.61148
 C801 C 0.63623 0.74598 0.62999
 C802 C 0.63141 0.74302 0.65705
 C803 C 0.65198 0.74379 0.67523
 C804 C 0.67801 0.74721 0.66675
 C805 C 0.68288 0.75013 0.63960
 C806 C 0.66224 0.74954 0.62140
 H807 H 0.55891 0.79256 0.52456
 H808 H 0.59853 0.79185 0.55184
 H809 H 0.57628 0.71595 0.58282
 H810 H 0.53702 0.71652 0.55519
 H811 H 0.62994 0.76704 0.58101
 H812 H 0.59621 0.73467 0.61871
 H813 H 0.61161 0.74007 0.66418
 H814 H 0.64746 0.74126 0.69594
 H815 H 0.70270 0.75261 0.63235
 H816 H 0.66683 0.75120 0.60066
 C817 C 0.03835 0.71511 0.96345
 C818 C 0.05749 0.71042 0.94436
 C819 C 0.06338 0.72963 0.92539
 C820 C 0.04936 0.75355 0.92558
 C821 C 0.03032 0.75828 0.94481
 C822 C 0.02489 0.73923 0.96410
 C823 C 0.08551 0.72489 0.90710
 C824 C 0.08743 0.73656 0.88350
 C825 C 0.11008 0.73275 0.86570
 C826 C 0.10621 0.73586 0.83855
 C827 C 0.12724 0.73384 0.82112
 C828 C 0.15283 0.72909 0.83048
 C829 C 0.15675 0.72590 0.85772
 C830 C 0.13557 0.72766 0.87519
 H831 H 0.03458 0.70020 0.97827
 H832 H 0.06808 0.69193 0.94472
 H833 H 0.05388 0.76914 0.91177
 H834 H 0.02064 0.77726 0.94532
 H835 H 0.10030 0.71075 0.91311
 H836 H 0.07141 0.74865 0.87634
 H837 H 0.08683 0.74001 0.83079
 H838 H 0.12346 0.73665 0.80029
 H839 H 0.17621 0.72243 0.86558
 H840 H 0.13936 0.72587 0.89610
 C841 C 0.52533 0.27035 0.43819
 C842 C 0.54195 0.27069 0.41630
 C843 C 0.55942 0.24983 0.41180
 C844 C 0.55903 0.22793 0.42881
 C845 C 0.54228 0.22751 0.45055
 C846 C 0.52555 0.24885 0.45563
 C847 C 0.57779 0.25144 0.38932
 C848 C 0.60168 0.24033 0.38991
 C849 C 0.62067 0.24236 0.36796
 C850 C 0.64753 0.23971 0.37343
 C851 C 0.66604 0.24104 0.35317
 C852 C 0.65800 0.24473 0.32692
 C853 C 0.63104 0.24717 0.32144
 C854 C 0.61258 0.24594 0.34170
 H855 H 0.51285 0.28720 0.44191
 H856 H 0.54176 0.28766 0.40332
 H857 H 0.57159 0.21111 0.42538
 H858 H 0.54257 0.21061 0.46361
 H859 H 0.57210 0.26363 0.37274
 H860 H 0.60826 0.23050 0.40771
 H861 H 0.65423 0.23671 0.39349
 H862 H 0.68662 0.23895 0.35808
 H863 H 0.62411 0.24986 0.30143
 H864 H 0.59201 0.24725 0.33660
 C865 C 0.94558 0.78849 0.05403
 C866 C 0.92670 0.79086 0.07378
 C867 C 0.92630 0.77334 0.09514
 C868 C 0.94663 0.75466 0.09741
 C869 C 0.96556 0.75222 0.07761
 C870 C 0.96482 0.76847 0.05503
 C871 C 0.90390 0.77479 0.11382
 C872 C 0.89725 0.75529 0.13035
 C873 C 0.87406 0.75664 0.14779
 C874 C 0.87539 0.74439 0.17252
 C875 C 0.85398 0.74514 0.18959
 C876 C 0.83049 0.75760 0.18203
 C877 C 0.82878 0.76917 0.15692
 C878 C 0.85047 0.76887 0.13997
 H879 H 0.94484 0.80228 0.03773
 H880 H 0.91173 0.80591 0.07183
 H881 H 0.94779 0.74134 0.11401
 H882 H 0.97937 0.73612 0.07922
 H883 H 0.89174 0.79229 0.11309
 H884 H 0.90918 0.73776 0.13181
 H885 H 0.89322 0.73456 0.17881
 H886 H 0.85578 0.73585 0.20876
 H887 H 0.81089 0.77889 0.15063
 H888 H 0.84863 0.77784 0.12067
 C889 C 0.46587 0.23178 0.57005
 C890 C 0.44789 0.23111 0.59083
 C891 C 0.43025 0.25199 0.59463
 C892 C 0.43209 0.27437 0.57840
 C893 C 0.45022 0.27514 0.55782
 C894 C 0.46688 0.25363 0.55311
 C895 C 0.41012 0.24983 0.61550
 C896 C 0.38631 0.26097 0.61333
 C897 C 0.36581 0.25880 0.63391
 C898 C 0.33938 0.26241 0.62688
 C899 C 0.31962 0.26143 0.64601
 C900 C 0.32599 0.25711 0.67262
 C901 C 0.35249 0.25346 0.67956
 C902 C 0.37215 0.25439 0.66051
 H903 H 0.47807 0.21472 0.56648
 H904 H 0.44698 0.21377 0.60326
 H905 H 0.41941 0.29120 0.58140
 H906 H 0.45076 0.29225 0.54504
 H907 H 0.41456 0.23723 0.63216
 H908 H 0.38112 0.27124 0.59532
 H909 H 0.33402 0.26608 0.60654
 H910 H 0.29945 0.26451 0.64001
 H911 H 0.35820 0.25025 0.69989
 H912 H 0.39229 0.25236 0.66690
 C913 C 0.92557 0.26667 0.97525
 C914 C 0.90569 0.26548 0.95620
 C915 C 0.90983 0.25233 0.93227
 C916 C 0.93358 0.23891 0.92845
 C917 C 0.95339 0.24017 0.94727
 C918 C 0.95007 0.25459 0.97075
 C919 C 0.88910 0.25267 0.91179
 C920 C 0.89436 0.25008 0.88595
 C921 C 0.87401 0.24966 0.86506
 C922 C 0.88140 0.25437 0.83876
 C923 C 0.86284 0.25347 0.81842
 C924 C 0.83649 0.24775 0.82402
 C925 C 0.82924 0.24275 0.85034
 C926 C 0.84772 0.24355 0.87055
 H927 H 0.92224 0.27870 0.99243
 H928 H 0.88738 0.27573 0.95974
 H929 H 0.93703 0.22735 0.91093
 H930 H 0.97146 0.22959 0.94344
 H931 H 0.86925 0.25645 0.91826
 H932 H 0.91457 0.24899 0.87951
 H933 H 0.90161 0.25881 0.83394
 H934 H 0.86910 0.25732 0.79839
 H935 H 0.80920 0.23788 0.85542
 H936 H 0.84130 0.23879 0.89029
 C937 C 0.43304 0.73611 0.47556
 C938 C 0.41425 0.73482 0.45545
 C939 C 0.40913 0.75677 0.43930
 C940 C 0.42255 0.78038 0.44432
 C941 C 0.44137 0.78160 0.46426
 C942 C 0.44722 0.75934 0.47962
 C943 C 0.39143 0.75391 0.41622
 C944 C 0.37883 0.77427 0.40505
 C945 C 0.36139 0.77156 0.38190
 C946 C 0.33927 0.78786 0.38016
 C947 C 0.32200 0.78569 0.35897
 C948 C 0.32688 0.76769 0.33863
 C949 C 0.34960 0.75208 0.33965
 C950 C 0.36666 0.75381 0.36130
 H951 H 0.43764 0.71858 0.48685
 H952 H 0.40428 0.71638 0.45194
 H953 H 0.41975 0.79755 0.43198
 H954 H 0.45244 0.79956 0.46681
 H955 H 0.38823 0.73430 0.40863
 H956 H 0.37979 0.79347 0.41412
 H957 H 0.33498 0.80188 0.39559
 H958 H 0.30461 0.79799 0.35855
 H959 H 0.35365 0.73798 0.32423
 H960 H 0.38397 0.74144 0.36185
 C961 C 0.04230 0.06118 0.22258
 C962 C 0.06201 0.08011 0.22206
 C963 C 0.08195 0.08008 0.24106
 C964 C 0.08216 0.05998 0.26026
 C965 C 0.06245 0.04085 0.26071
 C966 C 0.04179 0.04145 0.24221
 C967 C 0.10097 0.10218 0.24077
 C968 C 0.12372 0.10228 0.25403
 C969 C 0.14240 0.12458 0.25292
 C970 C 0.16914 0.11942 0.25678
 C971 C 0.18750 0.13967 0.25532
 C972 C 0.17954 0.16575 0.25033
 C973 C 0.15265 0.17111 0.24728
 C974 C 0.13424 0.15074 0.24855
 H975 H 0.02738 0.06203 0.20740
 H976 H 0.06141 0.09516 0.20690
 H977 H 0.09674 0.05949 0.27572
 H978 H 0.06247 0.02683 0.27681
 H979 H 0.09623 0.11883 0.22826
 H980 H 0.12989 0.08494 0.26480
 H981 H 0.17591 0.09953 0.26048
 H982 H 0.20802 0.13481 0.25803
 H983 H 0.14585 0.19098 0.24357
 H984 H 0.11368 0.15561 0.24635
 C985 C 0.57616 0.52498 0.77407
 C986 C 0.59755 0.54218 0.77426
 C987 C 0.59953 0.56236 0.75538
 C988 C 0.58058 0.56396 0.73529
 C989 C 0.55934 0.54671 0.73501
 C990 C 0.55662 0.52741 0.75469
 C991 C 0.62143 0.58141 0.75707
 C992 C 0.61910 0.60646 0.74885
 C993 C 0.64050 0.62612 0.75027
 C994 C 0.63404 0.65297 0.74920
 C995 C 0.65364 0.67216 0.74920
 C996 C 0.68025 0.66489 0.75001
 C997 C 0.68670 0.63798 0.75122
 C998 C 0.66711 0.61882 0.75128
 H999 H 0.57437 0.51043 0.78961
 H1000 H 0.61209 0.54034 0.78974
 H1001 H 0.58202 0.57858 0.71981
 H1002 H 0.54467 0.54875 0.71968
 H1003 H 0.63921 0.57493 0.76679
 H1004 H 0.60030 0.61334 0.74159
 H1005 H 0.61370 0.65914 0.74819
 H1006 H 0.64794 0.69266 0.74809
 H1007 H 0.70698 0.63160 0.75169
 H1008 H 0.67301 0.59838 0.75136
 C1009 C 0.97914 0.06616 0.76407
 C1010 C 0.96069 0.08660 0.76469
 C1011 C 0.94258 0.08985 0.74411
 C1012 C 0.94368 0.07279 0.72248
 C1013 C 0.96166 0.05210 0.72209
 C1014 C 0.97929 0.04800 0.74315
 C1015 C 0.92104 0.10920 0.74681
 C1016 C 0.90992 0.12118 0.72608
 C1017 C 0.88676 0.13841 0.72882
 C1018 C 0.88531 0.16169 0.71405
 C1019 C 0.86350 0.17822 0.71628
 C1020 C 0.84236 0.17123 0.73259
 C1021 C 0.84340 0.14746 0.74669
 C1022 C 0.86558 0.13130 0.74507
 H1023 H 0.99168 0.06339 0.78107
 H1024 H 0.96001 0.09940 0.78168
 H1025 H 0.92974 0.07449 0.70646
 H1026 H 0.96147 0.03895 0.70534
 H1027 H 0.91407 0.11361 0.76649
 H1028 H 0.91840 0.11901 0.70664
 H1029 H 0.90130 0.16732 0.70118
 H1030 H 0.86306 0.19643 0.70513
 H1031 H 0.82737 0.14174 0.75944
 H1032 H 0.86604 0.11309 0.75620
 C1033 C 0.46396 0.57088 0.27697
 C1034 C 0.44470 0.59033 0.27991
 C1035 C 0.42812 0.59702 0.25877
 C1036 C 0.43160 0.58435 0.23442
 C1037 C 0.45061 0.56480 0.23161
 C1038 C 0.46660 0.55764 0.25295
 C1039 C 0.40608 0.61554 0.26310
 C1040 C 0.39588 0.63025 0.24368
 C1041 C 0.37311 0.64785 0.24743
 C1042 C 0.37197 0.67128 0.23290
 C1043 C 0.35064 0.68827 0.23553
 C1044 C 0.32963 0.68183 0.25224
 C1045 C 0.33032 0.65800 0.26628
 C1046 C 0.35204 0.64120 0.26408
 H1047 H 0.47583 0.56520 0.29377
 H1048 H 0.44226 0.59969 0.29889
 H1049 H 0.41877 0.58841 0.21790
 H1050 H 0.45211 0.55439 0.21309
 H1051 H 0.39839 0.61739 0.28291
 H1052 H 0.40525 0.63050 0.22453
 H1053 H 0.38781 0.67661 0.21971
 H1054 H 0.35050 0.70644 0.22432
 H1055 H 0.31435 0.65265 0.27929
 H1056 H 0.35214 0.62288 0.27502
 C1057 C 0.04776 0.94477 0.77866
 C1058 C 0.06474 0.92326 0.78043
 C1059 C 0.06851 0.90657 0.75880
 C1060 C 0.05424 0.91141 0.73548
 C1061 C 0.03725 0.93301 0.73372
 C1062 C 0.03425 0.95014 0.75514
 C1063 C 0.08914 0.88605 0.76068
 C1064 C 0.09073 0.86512 0.74477
 C1065 C 0.11275 0.84610 0.74629
 C1066 C 0.10844 0.81976 0.73955
 C1067 C 0.12891 0.80142 0.74080
 C1068 C 0.15428 0.80919 0.74837
 C1069 C 0.15869 0.83574 0.75452
 C1070 C 0.13818 0.85399 0.75350
 H1071 H 0.04574 0.95771 0.79544
 H1072 H 0.07552 0.92005 0.79857
 H1073 H 0.05705 0.89945 0.71815
 H1074 H 0.02741 0.93706 0.71522
 H1075 H 0.10358 0.88827 0.77618
 H1076 H 0.07515 0.86113 0.73088
 H1077 H 0.08909 0.81329 0.73362
 H1078 H 0.12485 0.78116 0.73577
 H1079 H 0.17799 0.84245 0.76030
 H1080 H 0.14241 0.87432 0.75797
 C1081 C 0.52105 0.43989 0.26390
 C1082 C 0.53659 0.41720 0.26293
 C1083 C 0.55660 0.41479 0.24408
 C1084 C 0.55993 0.43504 0.22538
 C1085 C 0.54442 0.45769 0.22637
 C1086 C 0.52504 0.46042 0.24577
 C1087 C 0.57381 0.39121 0.24468
 C1088 C 0.59873 0.39180 0.23623
 C1089 C 0.61726 0.36934 0.23808
 C1090 C 0.64419 0.37469 0.23668
 C1091 C 0.66260 0.35441 0.23797
 C1092 C 0.65457 0.32809 0.24050
 C1093 C 0.62757 0.32261 0.24172
 C1094 C 0.60907 0.34301 0.24048
 H1095 H 0.50639 0.44170 0.27921
 H1096 H 0.53349 0.40182 0.27742
 H1097 H 0.57444 0.43350 0.20991
 H1098 H 0.54758 0.47319 0.21203
 H1099 H 0.56630 0.37371 0.25420
 H1100 H 0.60671 0.41019 0.22905
 H1101 H 0.65106 0.39474 0.23467
 H1102 H 0.68320 0.35944 0.23687
 H1103 H 0.62069 0.30256 0.24349
 H1104 H 0.58848 0.33798 0.24093
 C1105 C 0.93049 0.97857 0.23647
 C1106 C 0.90937 0.96123 0.23819
 C1107 C 0.90848 0.94206 0.25807
 C1108 C 0.92869 0.94118 0.27689
 C1109 C 0.94980 0.95850 0.27522
 C1110 C 0.95114 0.97752 0.25495
 C1111 C 0.88630 0.92335 0.25851
 C1112 C 0.88827 0.89907 0.26874
 C1113 C 0.86682 0.87955 0.26768
 C1114 C 0.87325 0.85275 0.26899
 C1115 C 0.85372 0.83362 0.26763
 C1116 C 0.82720 0.84092 0.26517
 C1117 C 0.82070 0.86781 0.26446
 C1118 C 0.84026 0.88693 0.26578
 H1119 H 0.93115 0.99188 0.21980
 H1120 H 0.89405 0.96227 0.22341
 H1121 H 0.92818 0.92734 0.29313
 H1122 H 0.96479 0.95740 0.29033
 H1123 H 0.86856 0.92918 0.24829
 H1124 H 0.90689 0.89241 0.27659
 H1125 H 0.89354 0.84656 0.27071
 H1126 H 0.85945 0.81312 0.26838
 H1127 H 0.80046 0.87415 0.26284
 H1128 H 0.83443 0.90739 0.26562
 C1129 C 0.44068 0.47192 0.74092
 C1130 C 0.41880 0.45546 0.74027
 C1131 C 0.41539 0.43597 0.75961
 C1132 C 0.43349 0.43419 0.78048
 C1133 C 0.45525 0.45073 0.78120
 C1134 C 0.45922 0.46948 0.76125
 C1135 C 0.39299 0.41772 0.75743
 C1136 C 0.39419 0.39282 0.76617
 C1137 C 0.37245 0.37383 0.76332
 C1138 C 0.37827 0.34685 0.76360
 C1139 C 0.35829 0.32825 0.76142
 C1140 C 0.33197 0.33629 0.75919
 C1141 C 0.32615 0.36335 0.75911
 C1142 C 0.34614 0.38192 0.76122
 H1143 H 0.44353 0.48606 0.72516
 H1144 H 0.40498 0.45734 0.72415
 H1145 H 0.43094 0.42002 0.79623
 H1146 H 0.46922 0.44871 0.79718
 H1147 H 0.37593 0.42448 0.74663
 H1148 H 0.41236 0.38546 0.77449
 H1149 H 0.39837 0.34013 0.76542
 H1150 H 0.36347 0.30759 0.76167
 H1151 H 0.30609 0.37025 0.75762
 H1152 H 0.34078 0.40250 0.76176
 C1153 C 0.04741 0.29073 0.96021
 C1154 C 0.06704 0.29150 0.94112
 C1155 C 0.08331 0.26963 0.93688
 C1156 C 0.08032 0.24729 0.95321
 C1157 C 0.06071 0.24662 0.97248
 C1158 C 0.04378 0.26811 0.97564
 C1159 C 0.10142 0.27040 0.91400
 C1160 C 0.12066 0.25293 0.90979
 C1161 C 0.13786 0.25405 0.88633
 C1162 C 0.16353 0.24446 0.88853
 C1163 C 0.18052 0.24546 0.86705
 C1164 C 0.17210 0.25574 0.84266
 C1165 C 0.14610 0.26457 0.84014
 C1166 C 0.12912 0.26380 0.86180
 H1167 H 0.03421 0.30734 0.96217
 H1168 H 0.06883 0.30892 0.92890
 H1169 H 0.09200 0.22977 0.95043
 H1170 H 0.05775 0.22881 0.98386
 H1171 H 0.09885 0.28643 0.90011
 H1172 H 0.12512 0.23812 0.92446
 H1173 H 0.17059 0.23652 0.90707
 H1174 H 0.20033 0.23810 0.86958
 H1175 H 0.13901 0.27237 0.82156
 H1176 H 0.10913 0.27054 0.85919
 C1177 C 0.55090 0.78840 0.46938
 C1178 C 0.57117 0.79035 0.45095
 C1179 C 0.58322 0.76760 0.44108
 C1180 C 0.57575 0.74290 0.45109
 C1181 C 0.55590 0.74102 0.47002
 C1182 C 0.54311 0.76373 0.47894
 C1183 C 0.60348 0.77017 0.42043
 C1184 C 0.60523 0.75341 0.40016
 C1185 C 0.62509 0.75622 0.37905
 C1186 C 0.61921 0.74765 0.35344
 C1187 C 0.63793 0.74946 0.33332
 C1188 C 0.66309 0.75931 0.33866
 C1189 C 0.66894 0.76776 0.36436
 C1190 C 0.65016 0.76631 0.38430
 H1191 H 0.54092 0.80607 0.47583
 H1192 H 0.57677 0.80957 0.44363
 H1193 H 0.58514 0.72509 0.44419
 H1194 H 0.54985 0.72183 0.47700
 H1195 H 0.61593 0.78738 0.42093
 H1196 H 0.59087 0.73787 0.39825
 H1197 H 0.60008 0.73959 0.34900
 H1198 H 0.63296 0.74255 0.31379
 H1199 H 0.68817 0.77539 0.36913
 H1200 H 0.65556 0.77245 0.40395
 C1201 C 0.95205 0.78024 0.95481
 C1202 C 0.93551 0.78044 0.93295
 C1203 C 0.93499 0.75914 0.91558
 C1204 C 0.95233 0.73797 0.91991
 C1205 C 0.96906 0.73778 0.94181
 C1206 C 0.96868 0.75864 0.96005
 C1207 C 0.91439 0.75894 0.89497
 C1208 C 0.91416 0.74282 0.87415
 C1209 C 0.89189 0.74234 0.85541
 C1210 C 0.89652 0.73636 0.82888
 C1211 C 0.87580 0.73601 0.81081
 C1212 C 0.84994 0.74119 0.81905
 C1213 C 0.84529 0.74653 0.84579
 C1214 C 0.86600 0.74707 0.86377
 H1215 H 0.95163 0.79709 0.96779
 H1216 H 0.92251 0.79709 0.93003
 H1217 H 0.95214 0.72084 0.90736
 H1218 H 0.98068 0.72030 0.94544
 H1219 H 0.89854 0.77300 0.89715
 H1220 H 0.93086 0.73033 0.87005
 H1221 H 0.91625 0.73234 0.82206
 H1222 H 0.88008 0.73165 0.79038
 H1223 H 0.82563 0.75045 0.85286
 H1224 H 0.86161 0.75086 0.88427
 C1225 C 0.45110 0.28119 0.45299
 C1226 C 0.43379 0.28309 0.43177
 C1227 C 0.43221 0.26286 0.41314
 C1228 C 0.44891 0.24087 0.41578
 C1229 C 0.46625 0.23899 0.43707
 C1230 C 0.46716 0.25895 0.45604
 C1231 C 0.41133 0.26439 0.39289
 C1232 C 0.41120 0.25018 0.37072
 C1233 C 0.38884 0.25054 0.35211
 C1234 C 0.39339 0.24533 0.32540
 C1235 C 0.37257 0.24485 0.30749
 C1236 C 0.34667 0.24918 0.31604
 C1237 C 0.34212 0.25411 0.34288
 C1238 C 0.36294 0.25474 0.36073
 H1239 H 0.45148 0.29678 0.46747
 H1240 H 0.42108 0.30015 0.43029
 H1241 H 0.44784 0.22451 0.40230
 H1242 H 0.47813 0.22143 0.43935
 H1243 H 0.39538 0.27802 0.39650
 H1244 H 0.42813 0.23843 0.36550
 H1245 H 0.41313 0.24174 0.31835
 H1246 H 0.37678 0.24090 0.28697
 H1247 H 0.32242 0.25741 0.35018
 H1248 H 0.35859 0.25793 0.38134
 C1249 C 0.02833 0.77886 0.06967
 C1250 C 0.04780 0.78128 0.08892
 C1251 C 0.06160 0.75906 0.09790
 C1252 C 0.05508 0.73420 0.08779
 C1253 C 0.03587 0.73185 0.06833
 C1254 C 0.02268 0.75420 0.05879
 C1255 C 0.08408 0.76257 0.11601
 C1256 C 0.09170 0.74400 0.13317
 C1257 C 0.11470 0.74721 0.15054
 C1258 C 0.11368 0.73694 0.17615
 C1259 C 0.13512 0.73939 0.19303
 C1260 C 0.15835 0.75152 0.18438
 C1261 C 0.15969 0.76115 0.15845
 C1262 C 0.13792 0.75927 0.14172
 H1263 H 0.01870 0.79638 0.06221
 H1264 H 0.05260 0.80063 0.09630
 H1265 H 0.06572 0.71674 0.09378
 H1266 H 0.03201 0.71271 0.05989
 H1267 H 0.09426 0.78124 0.11557
 H1268 H 0.08000 0.72643 0.13566
 H1269 H 0.09610 0.72729 0.18322
 H1270 H 0.13361 0.73150 0.21283
 H1271 H 0.17740 0.77040 0.15125
 H1272 H 0.13941 0.76679 0.12178
 C1273 C 0.53370 0.21892 0.56095
 C1274 C 0.55202 0.21656 0.58132
 C1275 C 0.56288 0.23910 0.59278
 C1276 C 0.55382 0.26404 0.58483
 C1277 C 0.53504 0.26637 0.56489
 C1278 C 0.52530 0.24384 0.55251
 C1279 C 0.58405 0.23616 0.61243
 C1280 C 0.60515 0.25182 0.61229
 C1281 C 0.62725 0.24851 0.63090
 C1282 C 0.65263 0.25551 0.62286
 C1283 C 0.67381 0.25333 0.64029
 C1284 C 0.66985 0.24473 0.66633
 C1285 C 0.64437 0.23773 0.67433
 C1286 C 0.62332 0.23951 0.65680
 H1287 H 0.52660 0.20139 0.55126
 H1288 H 0.55865 0.19718 0.58728
 H1289 H 0.56155 0.28170 0.59376
 H1290 H 0.52893 0.28573 0.55832
 H1291 H 0.58329 0.21945 0.62570
 H1292 H 0.60703 0.26668 0.59704
 H1293 H 0.65608 0.26264 0.60302
 H1294 H 0.69315 0.25891 0.63352
 H1295 H 0.64061 0.23106 0.69427
 H1296 H 0.60390 0.23454 0.66380
 C1297 C 0.93497 0.22747 0.03184
 C1298 C 0.91412 0.22231 0.04904
 C1299 C 0.90352 0.24246 0.06465
 C1300 C 0.91408 0.26791 0.06269
 C1301 C 0.93521 0.27291 0.04593
 C1302 C 0.94582 0.25274 0.03046
 C1303 C 0.88300 0.23622 0.08433
 C1304 C 0.86419 0.25344 0.09084
 C1305 C 0.84491 0.24853 0.11204
 C1306 C 0.81955 0.25895 0.10951
 C1307 C 0.80144 0.25639 0.12999
 C1308 C 0.80857 0.24401 0.15376
 C1309 C 0.83398 0.23352 0.15633
 C1310 C 0.85194 0.23555 0.13555
 H1311 H 0.94331 0.21159 0.02039
 H1312 H 0.90648 0.20251 0.05046
 H1313 H 0.90684 0.28370 0.07497
 H1314 H 0.94374 0.29239 0.04545
 H1315 H 0.88325 0.21689 0.09339
 H1316 H 0.86239 0.27168 0.07986
 H1317 H 0.81381 0.26926 0.09169
 H1318 H 0.78206 0.26485 0.12753
 H1319 H 0.83998 0.22388 0.17444
 H1320 H 0.87158 0.22782 0.13825
 C1321 C 0.42746 0.76845 0.53837
 C1322 C 0.40636 0.76687 0.55598
 C1323 C 0.40530 0.74679 0.57505
 C1324 C 0.42503 0.72740 0.57514
 C1325 C 0.44597 0.72886 0.55741
 C1326 C 0.44769 0.74965 0.53915
 C1327 C 0.38337 0.74654 0.59433
 C1328 C 0.38561 0.73641 0.61876
 C1329 C 0.36405 0.73660 0.63850
 C1330 C 0.37029 0.73468 0.66543
 C1331 C 0.35051 0.73435 0.68460
 C1332 C 0.32395 0.73563 0.67723
 C1333 C 0.31773 0.73725 0.65022
 C1334 C 0.33748 0.73769 0.63111
 H1335 H 0.42844 0.78494 0.52484
 H1336 H 0.39128 0.78191 0.55530
 H1337 H 0.42439 0.71110 0.58888
 H1338 H 0.46115 0.71394 0.55826
 H1339 H 0.36547 0.75657 0.58867
 H1340 H 0.40441 0.72875 0.62518
 H1341 H 0.39058 0.73354 0.67168
 H1342 H 0.35604 0.73288 0.70516
 H1343 H 0.29751 0.73804 0.64372
 H1344 H 0.33176 0.73832 0.61060
 C1345 C 0.23244 0.06231 0.96974
 C1346 C 0.23214 0.08488 0.95391
 C1347 C 0.24930 0.08728 0.93249
 C1348 C 0.26761 0.06712 0.92785
 C1349 C 0.26799 0.04459 0.94367
 C1350 C 0.25032 0.04164 0.96486
 C1351 C 0.24754 0.11087 0.91531
 C1352 C 0.25370 0.11019 0.88963
 C1353 C 0.25109 0.13291 0.87142
 C1354 C 0.24951 0.12789 0.84433
 C1355 C 0.24785 0.14850 0.82619
 C1356 C 0.24802 0.17479 0.83468
 C1357 C 0.24956 0.17990 0.86186
 C1358 C 0.25113 0.15918 0.88007
 H1359 H 0.21770 0.06063 0.98497
 H1360 H 0.21784 0.10015 0.95790
 H1361 H 0.28188 0.06875 0.91216
 H1362 H 0.28270 0.02974 0.93961
 H1363 H 0.23919 0.12855 0.92368
 H1364 H 0.25959 0.09166 0.88098
 H1365 H 0.24957 0.10787 0.83711
 H1366 H 0.24675 0.14376 0.80543
 H1367 H 0.24984 0.19991 0.86907
 H1368 H 0.25299 0.16390 0.90074
 C1369 C 0.72388 0.56189 0.46877
 C1370 C 0.72353 0.58526 0.45421
 C1371 C 0.74310 0.59031 0.43549
 C1372 C 0.76377 0.57216 0.43245
 C1373 C 0.76414 0.54887 0.44704
 C1374 C 0.74410 0.54346 0.46513
 C1375 C 0.74117 0.61418 0.41890
 C1376 C 0.74933 0.61421 0.39384
 C1377 C 0.74622 0.63671 0.37562
 C1378 C 0.74610 0.63152 0.34856
 C1379 C 0.74430 0.65196 0.33035
 C1380 C 0.74288 0.67824 0.33875
 C1381 C 0.74277 0.68353 0.36593
 C1382 C 0.74444 0.66293 0.38425
 H1383 H 0.70814 0.55799 0.48256
 H1384 H 0.70752 0.59903 0.45698
 H1385 H 0.77966 0.57589 0.41883
 H1386 H 0.78011 0.53505 0.44426
 H1387 H 0.73084 0.63104 0.42674
 H1388 H 0.75717 0.59624 0.38555
 H1389 H 0.74752 0.61152 0.34143
 H1390 H 0.74445 0.64706 0.30960
 H1391 H 0.74183 0.70356 0.37303
 H1392 H 0.74506 0.66767 0.40500
 C1393 C 0.78520 0.04972 0.04066
 C1394 C 0.78129 0.06975 0.05889
 C1395 C 0.75911 0.06991 0.07518
 C1396 C 0.74133 0.04881 0.07353
 C1397 C 0.74535 0.02856 0.05538
 C1398 C 0.76708 0.02899 0.03824
 C1399 C 0.75503 0.09308 0.09244
 C1400 C 0.73639 0.09491 0.11095
 C1401 C 0.73363 0.11825 0.12806
 C1402 C 0.72418 0.11470 0.15373
 C1403 C 0.72264 0.13589 0.17100
 C1404 C 0.73012 0.16125 0.16284
 C1405 C 0.73840 0.16510 0.13673
 C1406 C 0.74018 0.14378 0.11947
 H1407 H 0.80245 0.05055 0.02823
 H1408 H 0.79546 0.08557 0.05982
 H1409 H 0.72371 0.04816 0.08530
 H1410 H 0.73042 0.01358 0.05360
 H1411 H 0.76862 0.10925 0.09009
 H1412 H 0.72382 0.07837 0.11521
 H1413 H 0.71868 0.09532 0.16068
 H1414 H 0.71587 0.13231 0.19092
 H1415 H 0.74416 0.18443 0.12986
 H1416 H 0.74669 0.14734 0.09948
 C1417 C 0.30153 0.54379 0.54646
 C1418 C 0.29964 0.56245 0.56648
 C1419 C 0.27660 0.56480 0.58139
 C1420 C 0.25565 0.54751 0.57635
 C1421 C 0.25758 0.52883 0.55633
 C1422 C 0.28035 0.52714 0.54094
 C1423 C 0.27450 0.58670 0.60048
 C1424 C 0.25722 0.58711 0.62034
 C1425 C 0.25492 0.60934 0.63890
 C1426 C 0.24587 0.60423 0.66445
 C1427 C 0.24327 0.62455 0.68261
 C1428 C 0.24926 0.65062 0.67550
 C1429 C 0.25776 0.65591 0.64969
 C1430 C 0.26061 0.63544 0.63154
 H1431 H 0.31918 0.54294 0.53463
 H1432 H 0.31601 0.57555 0.56986
 H1433 H 0.23726 0.54910 0.58682
 H1434 H 0.24077 0.51663 0.55193
 H1435 H 0.28824 0.60277 0.59837
 H1436 H 0.24516 0.57005 0.62418
 H1437 H 0.24107 0.58436 0.67049
 H1438 H 0.23644 0.61980 0.70226
 H1439 H 0.26243 0.67579 0.64362
 H1440 H 0.26687 0.64018 0.61172
 C1441 C 0.78649 0.96439 0.92864
 C1442 C 0.78790 0.94670 0.90767
 C1443 C 0.76886 0.92709 0.90466
 C1444 C 0.74758 0.92634 0.92229
 C1445 C 0.74602 0.94421 0.94310
 C1446 C 0.76564 0.96321 0.94672
 C1447 C 0.77171 0.90785 0.88297
 C1448 C 0.76314 0.88299 0.88489
 C1449 C 0.76641 0.86309 0.86382
 C1450 C 0.76555 0.83635 0.87070
 C1451 C 0.76735 0.81690 0.85140
 C1452 C 0.76975 0.82375 0.82463
 C1453 C 0.77085 0.85056 0.81775
 C1454 C 0.76916 0.87002 0.83709
 H1455 H 0.80213 0.97851 0.93117
 H1456 H 0.80438 0.94781 0.89425
 H1457 H 0.73207 0.91204 0.92002
 H1458 H 0.72957 0.94306 0.95655
 H1459 H 0.78280 0.91392 0.86582
 H1460 H 0.75440 0.87641 0.90320
 H1461 H 0.76331 0.83047 0.89111
 H1462 H 0.76634 0.79649 0.85745
 H1463 H 0.77253 0.85659 0.79733
 H1464 H 0.76921 0.89039 0.83088
 C1465 C 0.29321 0.46957 0.42429
 C1466 C 0.29273 0.45241 0.40276
 C1467 C 0.27273 0.43363 0.40028
 C1468 C 0.25227 0.43351 0.41887
 C1469 C 0.25265 0.45075 0.44023
 C1470 C 0.27340 0.46857 0.44352
 C1471 C 0.27378 0.41435 0.37839
 C1472 C 0.26434 0.38981 0.38081
 C1473 C 0.26572 0.36955 0.35982
 C1474 C 0.26368 0.34297 0.36709
 C1475 C 0.26385 0.32318 0.34804
 C1476 C 0.26573 0.32951 0.32111
 C1477 C 0.26783 0.35617 0.31380
 C1478 C 0.26782 0.37597 0.33291
 H1479 H 0.30960 0.48288 0.42646
 H1480 H 0.30857 0.45311 0.38855
 H1481 H 0.23601 0.42001 0.41705
 H1482 H 0.23693 0.44983 0.45455
 H1483 H 0.28422 0.42000 0.36070
 H1484 H 0.25627 0.38367 0.39958
 H1485 H 0.26189 0.33745 0.38765
 H1486 H 0.26213 0.30293 0.35444
 H1487 H 0.26923 0.36180 0.29325
 H1488 H 0.26877 0.39623 0.32642
 C1489 C 0.26653 0.93169 0.02944
 C1490 C 0.26773 0.91388 0.05055
 C1491 C 0.24570 0.90953 0.06663
 C1492 C 0.22209 0.92262 0.06048
 C1493 C 0.22097 0.94048 0.03953
 C1494 C 0.24332 0.94566 0.02424
 C1495 C 0.24851 0.89316 0.09082
 C1496 C 0.22823 0.88120 0.10261
 C1497 C 0.23093 0.86526 0.12696
 C1498 C 0.21474 0.84327 0.13014
 C1499 C 0.21683 0.82746 0.15257
 C1500 C 0.23463 0.83370 0.17271
 C1501 C 0.25013 0.85633 0.17019
 C1502 C 0.24848 0.87190 0.14732
 H1503 H 0.28414 0.93581 0.01824
 H1504 H 0.28617 0.90416 0.05492
 H1505 H 0.20485 0.92041 0.07268
 H1506 H 0.20303 0.95146 0.03614
 H1507 H 0.26806 0.89045 0.09881
 H1508 H 0.20912 0.88159 0.09332
 H1509 H 0.20084 0.83796 0.11492
 H1510 H 0.20455 0.81020 0.15416
 H1511 H 0.26402 0.86147 0.18546
 H1512 H 0.26074 0.88917 0.14568
 C1513 C 0.76413 0.42958 0.52396
 C1514 C 0.76613 0.41033 0.54364
 C1515 C 0.74535 0.40609 0.56132
 C1516 C 0.72206 0.42071 0.55823
 C1517 C 0.72015 0.43995 0.53869
 C1518 C 0.74138 0.44498 0.52190
 C1519 C 0.74936 0.38821 0.58407
 C1520 C 0.72952 0.37671 0.59695
 C1521 C 0.73363 0.35962 0.62014
 C1522 C 0.71729 0.33781 0.62350
 C1523 C 0.72108 0.32073 0.64469
 C1524 C 0.74080 0.32558 0.66333
 C1525 C 0.75640 0.34809 0.66083
 C1526 C 0.75300 0.36495 0.63919
 H1527 H 0.78087 0.43357 0.51146
 H1528 H 0.78430 0.39941 0.54569
 H1529 H 0.70586 0.41858 0.57181
 H1530 H 0.70262 0.45201 0.53762
 H1531 H 0.76934 0.38413 0.59017
 H1532 H 0.70972 0.37841 0.58942
 H1533 H 0.70202 0.33357 0.60928
 H1534 H 0.70870 0.30355 0.64648
 H1535 H 0.77171 0.35209 0.67505
 H1536 H 0.76540 0.38210 0.63739
 C1537 C 0.05133 0.04928 0.78263
 C1538 C 0.06987 0.06926 0.78529
 C1539 C 0.07396 0.08748 0.76488
 C1540 C 0.05860 0.08565 0.74187
 C1541 C 0.04011 0.06555 0.73918
 C1542 C 0.03660 0.04694 0.75937
 C1543 C 0.09575 0.10659 0.76750
 C1544 C 0.09704 0.12925 0.75399
 C1545 C 0.11949 0.14759 0.75607
 C1546 C 0.11520 0.17444 0.75141
 C1547 C 0.13597 0.19226 0.75242
 C1548 C 0.16169 0.18356 0.75766
 C1549 C 0.16606 0.15659 0.76209
 C1550 C 0.14519 0.13879 0.76136
 H1551 H 0.04902 0.03512 0.79846
 H1552 H 0.08147 0.07015 0.80316
 H1553 H 0.06162 0.09885 0.72539
 H1554 H 0.02940 0.06382 0.72083
 H1555 H 0.11100 0.10196 0.78166
 H1556 H 0.08069 0.13527 0.74174
 H1557 H 0.09566 0.18168 0.74704
 H1558 H 0.13190 0.21285 0.74871
 H1559 H 0.18563 0.14923 0.76608
 H1560 H 0.14935 0.11811 0.76430
 C1561 C 0.52308 0.57833 0.23656
 C1562 C 0.54005 0.59991 0.23729
 C1563 C 0.56044 0.60097 0.25587
 C1564 C 0.56257 0.58071 0.27474
 C1565 C 0.54559 0.55922 0.27404
 C1566 C 0.52597 0.55761 0.25471
 C1567 C 0.57929 0.62315 0.25491
 C1568 C 0.60434 0.62066 0.26276
 C1569 C 0.62419 0.64189 0.26089
 C1570 C 0.65084 0.63489 0.26150
 C1571 C 0.67035 0.65410 0.26035
 C1572 C 0.66368 0.68090 0.25877
 C1573 C 0.63697 0.68797 0.25832
 C1574 C 0.61743 0.66871 0.25942
 H1575 H 0.50833 0.57739 0.22124
 H1576 H 0.53783 0.61537 0.22270
 H1577 H 0.57738 0.58131 0.29000
 H1578 H 0.54801 0.54359 0.28841
 H1579 H 0.57275 0.64123 0.24567
 H1580 H 0.61124 0.60167 0.26960
 H1581 H 0.65663 0.61441 0.26283
 H1582 H 0.69068 0.64788 0.26090
 H1583 H 0.63109 0.70843 0.25739
 H1584 H 0.59716 0.67501 0.25967
 C1585 C 0.06311 0.98159 0.23279
 C1586 C 0.08380 0.96345 0.23221
 C1587 C 0.08784 0.94598 0.25334
 C1588 C 0.07213 0.94837 0.27596
 C1589 C 0.05166 0.96665 0.27665
 C1590 C 0.04646 0.98290 0.25478
 C1591 C 0.10833 0.92538 0.25118
 C1592 C 0.10598 0.90162 0.26262
 C1593 C 0.12599 0.88049 0.26038
 C1594 C 0.11855 0.85422 0.26464
 C1595 C 0.13711 0.83388 0.26356
 C1596 C 0.16361 0.83946 0.25848
 C1597 C 0.17098 0.86581 0.25421
 C1598 C 0.15248 0.88604 0.25522
 H1599 H 0.05934 0.99369 0.21558
 H1600 H 0.09590 0.96222 0.21472
 H1601 H 0.07536 0.93590 0.29299
 H1602 H 0.03919 0.96747 0.29391
 H1603 H 0.12475 0.92938 0.23829
 H1604 H 0.08815 0.89692 0.27322
 H1605 H 0.09829 0.84943 0.26887
 H1606 H 0.13076 0.81386 0.26706
 H1607 H 0.19122 0.87095 0.25035
 H1608 H 0.15922 0.90603 0.25262
 C1609 C 0.57285 0.46870 0.73671
 C1610 C 0.59273 0.44988 0.73383
 C1611 C 0.59547 0.42930 0.75220
 C1612 C 0.57913 0.42893 0.77450
 C1613 C 0.55945 0.44782 0.77747
 C1614 C 0.55570 0.46749 0.75830
 C1615 C 0.61561 0.40873 0.74775
 C1616 C 0.61300 0.38385 0.75641
 C1617 C 0.63329 0.36321 0.75260
 C1618 C 0.62613 0.33655 0.75408
 C1619 C 0.64505 0.31664 0.75167
 C1620 C 0.67159 0.32305 0.74801
 C1621 C 0.67863 0.34977 0.74649
 C1622 C 0.65982 0.36955 0.74887
 H1623 H 0.57015 0.48347 0.72151
 H1624 H 0.60535 0.45080 0.71669
 H1625 H 0.58136 0.41400 0.78959
 H1626 H 0.54656 0.44664 0.79440
 H1627 H 0.63231 0.41407 0.73574
 H1628 H 0.59498 0.37801 0.76605
 H1629 H 0.60583 0.33113 0.75720
 H1630 H 0.63895 0.29630 0.75303
 H1631 H 0.69888 0.35558 0.74380
 H1632 H 0.66638 0.38974 0.74849
 C1633 C 0.92929 0.03592 0.26413
 C1634 C 0.90628 0.05089 0.26311
 C1635 C 0.90013 0.06574 0.24056
 C1636 C 0.91681 0.06432 0.21851
 C1637 C 0.93978 0.04934 0.21953
 C1638 C 0.94633 0.03520 0.24242
 C1639 C 0.87664 0.08296 0.24094
 C1640 C 0.87535 0.10543 0.22708
 C1641 C 0.85360 0.12463 0.22932
 C1642 C 0.85879 0.15101 0.22326
 C1643 C 0.83921 0.17004 0.22551
 C1644 C 0.81377 0.16309 0.23359
 C1645 C 0.80832 0.13653 0.23906
 C1646 C 0.82806 0.11745 0.23699
 H1647 H 0.93408 0.02529 0.28205
 H1648 H 0.89367 0.05153 0.28027
 H1649 H 0.91223 0.07474 0.20045
 H1650 H 0.95254 0.04879 0.20248
 H1651 H 0.86125 0.07821 0.25484
 H1652 H 0.89200 0.11130 0.21523
 H1653 H 0.87822 0.15701 0.21708
 H1654 H 0.84404 0.19024 0.22080
 H1655 H 0.78886 0.13051 0.24509
 H1656 H 0.82316 0.09716 0.24109
 C1657 C 0.44125 0.52598 0.77883
 C1658 C 0.41870 0.54168 0.77928
 C1659 C 0.41428 0.56059 0.75954
 C1660 C 0.43239 0.56280 0.73872
 C1661 C 0.45485 0.54703 0.73822
 C1662 C 0.45956 0.52858 0.75831
 C1663 C 0.39069 0.57762 0.76115
 C1664 C 0.39021 0.60215 0.75135
 C1665 C 0.36744 0.62017 0.75360
 C1666 C 0.37193 0.64729 0.75178
 C1667 C 0.35114 0.66512 0.75315
 C1668 C 0.32521 0.65624 0.75608
 C1669 C 0.32063 0.62902 0.75774
 C1670 C 0.34152 0.61114 0.75652
 H1671 H 0.44461 0.51205 0.79468
 H1672 H 0.40497 0.53948 0.79542
 H1673 H 0.42919 0.57649 0.72266
 H1674 H 0.46856 0.54914 0.72205
 H1675 H 0.37411 0.57035 0.77228
 H1676 H 0.40784 0.61014 0.74257
 H1677 H 0.39166 0.65476 0.74931
 H1678 H 0.35543 0.68591 0.75157
 H1679 H 0.30088 0.62150 0.75979
 H1680 H 0.33720 0.59034 0.75725
 C1681 C 0.96320 0.94940 0.71431
 C1682 C 0.94430 0.92971 0.71207
 C1683 C 0.93937 0.91249 0.73315
 C1684 C 0.95437 0.91488 0.75635
 C1685 C 0.97325 0.93464 0.75858
 C1686 C 0.97746 0.95238 0.73777
 C1687 C 0.91712 0.89390 0.73098
 C1688 C 0.91486 0.87210 0.74570
 C1689 C 0.89207 0.85420 0.74398
 C1690 C 0.89573 0.82756 0.75008
 C1691 C 0.87472 0.81009 0.74918
 C1692 C 0.84936 0.81895 0.74260
 C1693 C 0.84553 0.84576 0.73696
 C1694 C 0.86671 0.86323 0.73756
 H1695 H 0.96603 0.96298 0.69806
 H1696 H 0.93300 0.92837 0.69404
 H1697 H 0.95073 0.90251 0.77332
 H1698 H 0.98354 0.93697 0.77710
 H1699 H 0.90234 0.89815 0.71621
 H1700 H 0.93074 0.86631 0.75867
 H1701 H 0.91499 0.82020 0.75541
 H1702 H 0.87832 0.78962 0.75398
 H1703 H 0.82622 0.85320 0.73200
 H1704 H 0.86305 0.88383 0.73353
 C1705 C 0.46453 0.44952 0.21919
 C1706 C 0.44661 0.42911 0.21533
 C1707 C 0.43075 0.42037 0.23618
 C1708 C 0.43315 0.43230 0.26102
 C1709 C 0.45070 0.45295 0.26472
 C1710 C 0.46636 0.46175 0.24382
 C1711 C 0.41063 0.40014 0.23126
 C1712 C 0.40370 0.38257 0.24966
 C1713 C 0.38276 0.36309 0.24546
 C1714 C 0.38553 0.33800 0.25657
 C1715 C 0.36564 0.31945 0.25390
 C1716 C 0.34223 0.32592 0.24071
 C1717 C 0.33923 0.35119 0.22988
 C1718 C 0.35947 0.36959 0.23200
 H1719 H 0.47624 0.45643 0.20278
 H1720 H 0.44490 0.42034 0.19600
 H1721 H 0.42072 0.42646 0.27730
 H1722 H 0.45164 0.46254 0.28372
 H1723 H 0.40182 0.39929 0.21185
 H1724 H 0.41442 0.38165 0.26808
 H1725 H 0.40319 0.33273 0.26728
 H1726 H 0.36830 0.30020 0.26276
 H1727 H 0.32131 0.35664 0.21975
 H1728 H 0.35664 0.38907 0.22378
   
