data_POSCAR
  _audit_creation_date              2014-09-24
  _audit_creation_method            'ToBaCCo'
  _symmetry_space_group_name_H-M    'P1'
  _symmetry_Int_Tables_number       1
  _symmetry_cell_setting            triclinic
  loop_
  _symmetry_equiv_pos_as_xyz
 x,y,z
_cell_length_a 60.1587
_cell_length_b 60.1163
_cell_length_c 60.1320
_cell_angle_alpha 89.963300
_cell_angle_beta 90.078600
_cell_angle_gamma 89.958400
loop_
  _atom_site_label
  _atom_site_type_symbol
  _atom_site_fract_x
  _atom_site_fract_y
  _atom_site_fract_z
C1 C 0.24790 0.99896 -0.01779
 C2 C 0.25174 0.99761 0.00437
 C3 C 0.25607 1.01755 0.01833
 C4 C 0.25031 0.97606 0.01618
 C5 C 0.24397 0.97896 -0.03164
 C6 C 0.24991 1.02011 -0.03011
 C7 C 0.27540 1.01880 0.03123
 C8 C 0.27832 1.03590 0.04665
 C9 C 0.26201 1.05267 0.04966
 C10 C 0.24300 1.05170 0.03567
 C11 C 0.23998 1.03424 0.02058
 C12 C 0.26970 0.96432 0.02165
 C13 C 0.26860 0.94561 0.03535
 C14 C 0.24805 0.93820 0.04356
 C15 C 0.22851 0.94923 0.03702
 C16 C 0.22966 0.96815 0.02351
 C17 C 0.22405 0.97683 -0.04360
 C18 C 0.22145 0.95978 -0.05916
 C19 C 0.23874 0.94454 -0.06303
 C20 C 0.25839 0.94624 -0.05047
 C21 C 0.26104 0.96341 -0.03502
 C22 C 0.23089 1.03251 -0.03540
 C23 C 0.23226 1.05033 -0.05026
 C24 C 0.25262 1.05577 -0.06032
 C25 C 0.27179 1.04376 -0.05437
 C26 C 0.27042 1.02606 -0.03936
 H27 H 0.28833 1.00642 0.02955
 H28 H 0.29396 1.03614 0.05551
 H29 H 0.22933 1.06323 0.03739
 H30 H 0.22455 1.03325 0.01137
 H31 H 0.28574 0.96996 0.01579
 H32 H 0.28384 0.93720 0.03999
 H33 H 0.21456 0.97707 0.01938
 H34 H 0.21070 0.98867 -0.04127
 H35 H 0.20604 0.95870 -0.06843
 H36 H 0.27208 0.93489 -0.05332
 H37 H 0.27675 0.96512 -0.02639
 H38 H 0.21485 1.02788 -0.02869
 H39 H 0.21719 1.05914 -0.05473
 H40 H 0.28772 1.04774 -0.06173
 H41 H 0.28518 1.01640 -0.03565
 H42 H 0.21250 0.94387 0.04327
 C43 C 0.75851 0.49831 0.48276
 C44 C 0.75969 0.49720 0.50523
 C45 C 0.76110 0.51727 0.51950
 C46 C 0.75924 0.47557 0.51697
 C47 C 0.75587 0.47813 0.46890
 C48 C 0.75919 0.51957 0.47027
 C49 C 0.77822 0.53296 0.51698
 C50 C 0.77999 0.55090 0.53174
 C51 C 0.76486 0.55315 0.54939
 C52 C 0.74754 0.53767 0.55155
 C53 C 0.74571 0.51993 0.53679
 C54 C 0.77893 0.46703 0.52610
 C55 C 0.77847 0.44779 0.53912
 C56 C 0.75821 0.43717 0.54366
 C57 C 0.73853 0.44554 0.53422
 C58 C 0.73908 0.46450 0.52074
 C59 C 0.73719 0.47634 0.45507
 C60 C 0.73580 0.45935 0.43937
 C61 C 0.75318 0.44391 0.43710
 C62 C 0.77152 0.44519 0.45158
 C63 C 0.77291 0.46227 0.46731
 C64 C 0.74259 0.53580 0.47283
 C65 C 0.74141 0.55381 0.45805
 C66 C 0.75666 0.55560 0.44043
 C67 C 0.77386 0.53991 0.43868
 C68 C 0.77507 0.52207 0.45341
 H69 H 0.79050 0.53102 0.50397
 H70 H 0.79356 0.56257 0.52982
 H71 H 0.73546 0.53925 0.56479
 H72 H 0.73230 0.50813 0.53901
 H73 H 0.79458 0.47554 0.52345
 H74 H 0.79378 0.44173 0.54644
 H75 H 0.72373 0.47105 0.51393
 H76 H 0.72395 0.48853 0.45601
 H77 H 0.72132 0.45855 0.42868
 H78 H 0.78524 0.43362 0.45004
 H79 H 0.78768 0.46371 0.47751
 H80 H 0.72997 0.53395 0.48552
 H81 H 0.72794 0.56565 0.45968
 H82 H 0.78603 0.54111 0.42547
 H83 H 0.78796 0.50968 0.45116
 H84 H 0.72274 0.43759 0.53760
 C85 C 0.75747 0.98663 0.99447
 C86 C 0.75546 1.00907 0.99381
 C87 C 0.75611 1.02277 1.01423
 C88 C 0.75293 1.02160 0.97271
 C89 C 0.75665 0.97273 0.97413
 C90 C 0.75968 0.97458 1.01582
 C91 C 0.73796 1.02326 1.02882
 C92 C 0.73714 1.03898 1.04593
 C93 C 0.75438 1.05457 1.04856
 C94 C 0.77291 1.05341 1.03439
 C95 C 0.77370 1.03772 1.01732
 C96 C 0.73480 1.03607 0.97019
 C97 C 0.73332 1.05001 0.95172
 C98 C 0.75006 1.04994 0.93545
 C99 C 0.76785 1.03488 0.93758
 C100 C 0.76932 1.02087 0.95613
 C101 C 0.77412 0.95797 0.96957
 C102 C 0.77283 0.94345 0.95156
 C103 C 0.75402 0.94336 0.93771
 C104 C 0.73677 0.95857 0.94184
 C105 C 0.73801 0.97306 0.96002
 C106 C 0.78067 0.96946 1.02448
 C107 C 0.78270 0.95533 1.04286
 C108 C 0.76367 0.94643 1.05340
 C109 C 0.74258 0.95275 1.04511
 C110 C 0.74069 0.96630 1.02633
 H111 H 0.72396 1.01224 1.02628
 H112 H 0.72252 1.03966 1.05640
 H113 H 0.78659 1.06497 1.03621
 H114 H 0.78772 1.03767 1.00604
 H115 H 0.72198 1.03686 0.98279
 H116 H 0.71923 1.06115 0.95034
 H117 H 0.78362 1.01007 0.95797
 H118 H 0.78873 0.95751 0.98007
 H119 H 0.78650 0.93212 0.94854
 H120 H 0.72201 0.95868 0.93152
 H121 H 0.72420 0.98411 0.96342
 H122 H 0.79552 0.97588 1.01659
 H123 H 0.79924 0.95178 1.04899
 H124 H 0.72742 0.94601 1.05202
 H125 H 0.72435 0.96986 1.01959
 H126 H 0.78109 1.03462 0.92539
 C127 C 0.25854 0.48768 0.49187
 C128 C 0.25931 0.51008 0.49446
 C129 C 0.26132 0.52555 0.47535
 C130 C 0.25773 0.52061 0.51662
 C131 C 0.25464 0.47236 0.51085
 C132 C 0.26098 0.47685 0.46986
 C133 C 0.27965 0.52485 0.46093
 C134 C 0.28162 0.54045 0.44373
 C135 C 0.26543 0.55712 0.44091
 C136 C 0.24702 0.55754 0.45525
 C137 C 0.24503 0.54197 0.47229
 C138 C 0.27693 0.52948 0.52641
 C139 C 0.27550 0.54172 0.54608
 C140 C 0.25474 0.54579 0.55589
 C141 C 0.23553 0.53661 0.54627
 C142 C 0.23705 0.52386 0.52686
 C143 C 0.23693 0.45723 0.50964
 C144 C 0.23410 0.44108 0.52605
 C145 C 0.24892 0.43976 0.54404
 C146 C 0.26639 0.45521 0.54555
 C147 C 0.26936 0.47128 0.52896
 C148 C 0.24530 0.48009 0.45285
 C149 C 0.24624 0.46722 0.43345
 C150 C 0.26279 0.45086 0.43091
 C151 C 0.27898 0.44844 0.44761
 C152 C 0.27800 0.46121 0.46691
 H153 H 0.29257 0.51251 0.46323
 H154 H 0.29605 0.53985 0.43301
 H155 H 0.23409 0.56993 0.45323
 H156 H 0.23071 0.54276 0.48314
 H157 H 0.29297 0.52727 0.51854
 H158 H 0.29046 0.54886 0.55311
 H159 H 0.22207 0.51728 0.51933
 H160 H 0.22547 0.45770 0.49574
 H161 H 0.22037 0.42952 0.52462
 H162 H 0.27819 0.45435 0.55915
 H163 H 0.28351 0.48234 0.52990
 H164 H 0.23184 0.49186 0.45500
 H165 H 0.23346 0.46932 0.42093
 H166 H 0.29214 0.43625 0.44595
 H167 H 0.29022 0.45848 0.47988
 H168 H 0.21937 0.53963 0.55359
 C169 C 0.99539 0.23363 -0.00532
 C170 C 0.99537 0.23447 0.01720
 C171 C 1.01630 0.23455 0.03031
 C172 C 0.97456 0.23510 0.03039
 C173 C 0.97476 0.23199 -0.01870
 C174 C 1.01616 0.23523 -0.01841
 C175 C 1.01966 0.21779 0.04609
 C176 C 1.03806 0.21831 0.06014
 C177 C 1.05371 0.23579 0.05899
 C178 C 1.05067 0.25215 0.04233
 C179 C 1.03202 0.25165 0.02835
 C180 C 0.95873 0.21796 0.02926
 C181 C 0.94089 0.21753 0.04423
 C182 C 0.93895 0.23401 0.06068
 C183 C 0.95432 0.25155 0.06114
 C184 C 0.97193 0.25208 0.04615
 C185 C 0.95916 0.24929 -0.01922
 C186 C 0.94214 0.24928 -0.03513
 C187 C 0.94057 0.23209 -0.05117
 C188 C 0.95565 0.21414 -0.04939
 C189 C 0.97251 0.21420 -0.03350
 C190 C 1.01833 0.25266 -0.03364
 C191 C 1.03655 0.25367 -0.04778
 C192 C 1.05321 0.23710 -0.04727
 C193 C 1.05139 0.22011 -0.03108
 C194 C 1.03291 0.21907 -0.01698
 H195 H 1.00783 0.20430 0.04766
 H196 H 1.04005 0.20460 0.07162
 H197 H 1.06178 0.26621 0.04089
 H198 H 1.02950 0.26498 0.01649
 H199 H 0.96069 0.20448 0.01750
 H200 H 0.92928 0.20378 0.04369
 H201 H 0.98397 0.26542 0.04730
 H202 H 0.96090 0.26337 -0.00813
 H203 H 0.93143 0.26372 -0.03577
 H204 H 0.95456 0.19980 -0.06019
 H205 H 0.98434 0.20060 -0.03320
 H206 H 1.00569 0.26547 -0.03472
 H207 H 1.03763 0.26784 -0.05883
 H208 H 1.06337 0.20673 -0.03012
 H209 H 1.03133 0.20532 -0.00546
 H210 H 0.95302 0.26456 0.07352
 C211 C 0.50319 0.73761 0.51862
 C212 C 0.50321 0.73855 0.49614
 C213 C 0.48258 0.73988 0.48292
 C214 C 0.52393 0.73813 0.48298
 C215 C 0.52432 0.73659 0.53113
 C216 C 0.48230 0.73801 0.53172
 C217 C 0.46942 0.72095 0.47951
 C218 C 0.45226 0.72140 0.46379
 C219 C 0.44797 0.74086 0.45152
 C220 C 0.46062 0.76001 0.45573
 C221 C 0.47792 0.75945 0.47116
 C222 C 0.52851 0.71961 0.46963
 C223 C 0.54531 0.72055 0.45368
 C224 C 0.55765 0.74016 0.45063
 C225 C 0.55376 0.75833 0.46486
 C226 C 0.53697 0.75733 0.48090
 C227 C 0.53375 0.75620 0.53943
 C228 C 0.55344 0.75540 0.55175
 C229 C 0.56372 0.73491 0.55631
 C230 C 0.55428 0.71528 0.54783
 C231 C 0.53480 0.71615 0.53513
 C232 C 0.46730 0.75585 0.52993
 C233 C 0.44800 0.75634 0.54288
 C234 C 0.44348 0.73914 0.55806
 C235 C 0.45851 0.72129 0.55976
 C236 C 0.47773 0.72077 0.54675
 H237 H 0.47310 0.70564 0.48827
 H238 H 0.44264 0.70646 0.46087
 H239 H 0.45783 0.77512 0.44631
 H240 H 0.48816 0.77409 0.47343
 H241 H 0.51846 0.70473 0.47096
 H242 H 0.54820 0.70615 0.44327
 H243 H 0.53331 0.77192 0.49080
 H244 H 0.52579 0.77209 0.53643
 H245 H 0.56030 0.77072 0.55828
 H246 H 0.56199 0.69932 0.55107
 H247 H 0.52771 0.70089 0.52872
 H248 H 0.47075 0.76959 0.51881
 H249 H 0.43690 0.77046 0.54147
 H250 H 0.45534 0.70768 0.57112
 H251 H 0.48901 0.70683 0.54839
 H252 H 0.56285 0.77373 0.46280
 C253 C 0.01399 0.75916 0.00701
 C254 C -0.00853 0.75983 0.00696
 C255 C -0.02140 0.76226 0.02780
 C256 C -0.02179 0.75765 -0.01376
 C257 C 0.02720 0.75477 -0.01336
 C258 C 0.02720 0.76288 0.02748
 C259 C -0.02965 0.74325 0.03835
 C260 C -0.04461 0.74511 0.05599
 C261 C -0.05230 0.76615 0.06316
 C262 C -0.04321 0.78523 0.05281
 C263 C -0.02780 0.78327 0.03550
 C264 C -0.02044 0.73862 -0.02717
 C265 C -0.03395 0.73651 -0.04606
 C266 C -0.04955 0.75321 -0.05171
 C267 C -0.05030 0.77244 -0.03823
 C268 C -0.03668 0.77456 -0.01961
 C269 C 0.02646 0.76898 -0.03185
 C270 C 0.04084 0.76560 -0.04986
 C271 C 0.05665 0.74813 -0.04961
 C272 C 0.05650 0.73354 -0.03116
 C273 C 0.04210 0.73690 -0.01336
 C274 C 0.04129 0.78140 0.02850
 C275 C 0.05719 0.78317 0.04531
 C276 C 0.05946 0.76630 0.06135
 C277 C 0.04457 0.74825 0.06095
 C278 C 0.02860 0.74651 0.04406
 H279 H -0.02509 0.72688 0.03234
 H280 H -0.05132 0.72984 0.06274
 H281 H -0.04771 0.80181 0.05817
 H282 H -0.02146 0.79815 0.02757
 H283 H -0.00928 0.72517 -0.02275
 H284 H -0.03290 0.72115 -0.05535
 H285 H -0.03774 0.78960 -0.00978
 H286 H 0.01529 0.78312 -0.03199
 H287 H 0.04038 0.77766 -0.06321
 H288 H 0.06720 0.71910 -0.03042
 H289 H 0.04274 0.72557 0.00064
 H290 H 0.04057 0.79407 0.01569
 H291 H 0.06817 0.79744 0.04540
 H292 H 0.04606 0.73489 0.07294
 H293 H 0.01823 0.73182 0.04322
 H294 H -0.06095 0.78638 -0.04228
 C295 C 0.50573 0.25887 0.50548
 C296 C 0.48317 0.25786 0.50485
 C297 C 0.46943 0.25827 0.52534
 C298 C 0.47082 0.25639 0.48347
 C299 C 0.51930 0.25806 0.48494
 C300 C 0.51847 0.26022 0.52658
 C301 C 0.45387 0.24127 0.52884
 C302 C 0.43964 0.24195 0.54710
 C303 C 0.44052 0.25974 0.56221
 C304 C 0.45642 0.27658 0.55898
 C305 C 0.47069 0.27591 0.54060
 C306 C 0.47445 0.23887 0.46843
 C307 C 0.46218 0.23760 0.44867
 C308 C 0.44583 0.25362 0.44384
 C309 C 0.44235 0.27115 0.45891
 C310 C 0.45467 0.27247 0.47852
 C311 C 0.51745 0.27450 0.46845
 C312 C 0.53125 0.27388 0.44975
 C313 C 0.54723 0.25695 0.44743
 C314 C 0.54877 0.24040 0.46387
 C315 C 0.53500 0.24101 0.48247
 C316 C 0.53417 0.27725 0.52920
 C317 C 0.54840 0.27743 0.54750
 C318 C 0.54734 0.26048 0.56354
 C319 C 0.53110 0.24379 0.56134
 C320 C 0.51684 0.24359 0.54291
 H321 H 0.45265 0.22752 0.51727
 H322 H 0.42780 0.22857 0.54934
 H323 H 0.45730 0.29060 0.57024
 H324 H 0.48231 0.28941 0.53798
 H325 H 0.48656 0.22606 0.47214
 H326 H 0.46500 0.22378 0.43749
 H327 H 0.45161 0.28609 0.48990
 H328 H 0.50561 0.28795 0.47026
 H329 H 0.52987 0.28695 0.43743
 H330 H 0.56066 0.22696 0.46235
 H331 H 0.53661 0.22818 0.49502
 H332 H 0.53573 0.29018 0.51674
 H333 H 0.56052 0.29067 0.54895
 H334 H 0.53006 0.23041 0.57335
 H335 H 0.50514 0.23005 0.54097
 H336 H 0.43003 0.28386 0.45550
 C337 C 1.00360 0.02019 0.25342
 C338 C 1.00390 -0.00201 0.25737
 C339 C 1.02485 -0.01480 0.25914
 C340 C 0.98310 -0.01520 0.25766
 C341 C 0.98222 0.03241 0.25240
 C342 C 1.02432 0.03341 0.25158
 C343 C 1.03648 -0.02087 0.23995
 C344 C 1.05422 -0.03589 0.24122
 C345 C 1.06042 -0.04558 0.26178
 C346 C 1.04925 -0.03827 0.28110
 C347 C 1.03180 -0.02303 0.27977
 C348 C 0.97062 -0.01773 0.23815
 C349 C 0.95169 -0.03115 0.23793
 C350 C 0.94517 -0.04304 0.25711
 C351 C 0.95780 -0.04015 0.27672
 C352 C 0.97640 -0.02629 0.27699
 C353 C 0.97135 0.03831 0.27214
 C354 C 0.95090 0.04937 0.27141
 C355 C 0.94097 0.05470 0.25089
 C356 C 0.95189 0.04856 0.23115
 C357 C 0.97233 0.03753 0.23191
 C358 C 1.03923 0.03482 0.26951
 C359 C 1.05822 0.04816 0.26800
 C360 C 1.06248 0.06051 0.24860
 C361 C 1.04763 0.05887 0.23063
 C362 C 1.02875 0.04547 0.23211
 H363 H 1.03119 -0.01472 0.22384
 H364 H 1.06180 -0.04105 0.22576
 H365 H 1.05406 -0.04403 0.29746
 H366 H 1.02345 -0.01798 0.29487
 H367 H 0.97586 -0.00973 0.22290
 H368 H 0.94312 -0.03321 0.22224
 H369 H 0.98551 -0.02426 0.29237
 H370 H 0.97874 0.03436 0.28809
 H371 H 0.94306 0.05410 0.28690
 H372 H 0.94451 0.05209 0.21510
 H373 H 0.98023 0.03265 0.21650
 H374 H 1.03593 0.02594 0.28482
 H375 H 1.06923 0.04932 0.28221
 H376 H 1.05065 0.06796 0.21537
 H377 H 1.01765 0.04452 0.21799
 H378 H 0.95306 -0.04804 0.29217
 C379 C 0.49387 0.48700 0.73151
 C380 C 0.49385 0.50954 0.73168
 C381 C 0.51460 0.52281 0.73308
 C382 C 0.47280 0.52239 0.73149
 C383 C 0.47299 0.47396 0.73081
 C384 C 0.51454 0.47363 0.73277
 C385 C 0.52976 0.52003 0.75068
 C386 C 0.54787 0.53448 0.75295
 C387 C 0.55080 0.55211 0.73790
 C388 C 0.53597 0.55443 0.71999
 C389 C 0.51806 0.53994 0.71763
 C390 C 0.46841 0.53704 0.74904
 C391 C 0.44928 0.55008 0.74890
 C392 C 0.43421 0.54893 0.73105
 C393 C 0.43835 0.53389 0.71364
 C394 C 0.45759 0.52077 0.71381
 C395 C 0.46995 0.45844 0.71370
 C396 C 0.45224 0.44355 0.71442
 C397 C 0.43732 0.44381 0.73237
 C398 C 0.43977 0.46004 0.74901
 C399 C 0.45759 0.47496 0.74830
 C400 C 0.53128 0.47537 0.71659
 C401 C 0.54908 0.46034 0.71656
 C402 C 0.55007 0.44325 0.73248
 C403 C 0.53380 0.44217 0.74911
 C404 C 0.51624 0.45721 0.74926
 H405 H 0.52712 0.50724 0.76308
 H406 H 0.55897 0.53252 0.76701
 H407 H 0.53801 0.56777 0.70805
 H408 H 0.50653 0.54240 0.70399
 H409 H 0.47990 0.53841 0.76287
 H410 H 0.44632 0.56123 0.76272
 H411 H 0.46086 0.50969 0.70000
 H412 H 0.48174 0.45741 0.70014
 H413 H 0.45053 0.43140 0.70124
 H414 H 0.42861 0.46045 0.76311
 H415 H 0.45994 0.48657 0.76186
 H416 H 0.53008 0.48774 0.70354
 H417 H 0.56146 0.46137 0.70354
 H418 H 0.53441 0.42929 0.76172
 H419 H 0.50353 0.45564 0.76192
 H420 H 0.42710 0.53282 0.69961
 C421 C 1.00487 0.99806 0.75763
 C422 C 0.98227 0.99764 0.75831
 C423 C 0.96956 0.97646 0.75809
 C424 C 0.96878 1.01832 0.75868
 C425 C 1.01761 1.01921 0.75741
 C426 C 1.01830 0.97737 0.75642
 C427 C 0.97161 0.96119 0.74054
 C428 C 0.95852 0.94195 0.74012
 C429 C 0.94298 0.93785 0.75708
 C430 C 0.94115 0.95311 0.77468
 C431 C 0.95426 0.97224 0.77513
 C432 C 0.95247 1.02143 0.74238
 C433 C 0.93888 1.04018 0.74268
 C434 C 0.94103 1.05648 0.75949
 C435 C 0.95788 1.05337 0.77564
 C436 C 0.97141 1.03441 0.77534
 C437 C 1.03399 1.02273 0.77363
 C438 C 1.04730 1.04171 0.77296
 C439 C 1.04462 1.05751 0.75593
 C440 C 1.02794 1.05417 0.73986
 C441 C 1.01462 1.03509 0.74052
 C442 C 1.01679 0.96075 0.77271
 C443 C 1.03015 0.94173 0.77143
 C444 C 1.04571 0.93904 0.75400
 C445 C 1.04674 0.95588 0.73761
 C446 C 1.03333 0.97473 0.73890
 H447 H 0.98300 0.96438 0.72698
 H448 H 0.96007 0.93062 0.72621
 H449 H 0.92952 0.95026 0.78811
 H450 H 0.95239 0.98386 0.78876
 H451 H 0.95034 1.00930 0.72922
 H452 H 0.92717 1.04205 0.72915
 H453 H 0.98366 1.03209 0.78835
 H454 H 1.03659 1.01064 0.78675
 H455 H 1.05979 1.04399 0.78573
 H456 H 1.02569 1.06593 0.72640
 H457 H 1.00236 1.03245 0.72759
 H458 H 1.00555 0.96270 0.78662
 H459 H 1.02896 0.92982 0.78486
 H460 H 1.05738 0.95440 0.72321
 H461 H 1.03455 0.98728 0.72602
 H462 H 0.96002 1.06486 0.78930
 C463 C 0.49294 0.50776 0.26384
 C464 C 0.51543 0.50674 0.26545
 C465 C 0.52742 0.48514 0.26401
 C466 C 0.52951 0.52692 0.26787
 C467 C 0.48039 0.52889 0.26506
 C468 C 0.47935 0.48756 0.26034
 C469 C 0.52398 0.46821 0.27974
 C470 C 0.53642 0.44852 0.27882
 C471 C 0.55267 0.44552 0.26227
 C472 C 0.55576 0.46242 0.24637
 C473 C 0.54335 0.48203 0.24731
 C474 C 0.54544 0.52769 0.28492
 C475 C 0.56111 0.54480 0.28569
 C476 C 0.56132 0.56151 0.26932
 C477 C 0.54484 0.56120 0.25269
 C478 C 0.52915 0.54399 0.25190
 C479 C 0.46945 0.53678 0.24602
 C480 C 0.45484 0.55477 0.24742
 C481 C 0.45052 0.56494 0.26800
 C482 C 0.46188 0.55733 0.28701
 C483 C 0.47682 0.53949 0.28552
 C484 C 0.47817 0.47756 0.23931
 C485 C 0.46368 0.45974 0.23564
 C486 C 0.45049 0.45149 0.25306
 C487 C 0.45221 0.46115 0.27424
 C488 C 0.46634 0.47924 0.27778
 H489 H 0.51208 0.47047 0.29304
 H490 H 0.53383 0.43595 0.29146
 H491 H 0.56788 0.46051 0.23321
 H492 H 0.54626 0.49489 0.23504
 H493 H 0.54611 0.51464 0.29733
 H494 H 0.57336 0.54474 0.29890
 H495 H 0.51743 0.54344 0.23824
 H496 H 0.47180 0.52858 0.23016
 H497 H 0.44612 0.56010 0.23257
 H498 H 0.45889 0.56493 0.30306
 H499 H 0.48488 0.53335 0.30043
 H500 H 0.48801 0.48396 0.22566
 H501 H 0.46262 0.45250 0.21918
 H502 H 0.44205 0.45518 0.28784
 H503 H 0.46699 0.48692 0.29406
 H504 H 0.54473 0.57368 0.23969
 O505 O 0.25963 0.19615 0.20533
 O506 O 0.28156 0.18725 0.23745
 O507 O 0.20131 0.22535 0.23511
 O508 O 0.19338 0.25402 0.25728
 O509 O 0.23313 0.25633 0.17883
 O510 O 0.26576 0.27985 0.17591
 O511 O 0.25933 0.28092 0.29705
 O512 O 0.23080 0.25323 0.29992
 O513 O 0.31560 0.24909 0.27349
 O514 O 0.32284 0.22404 0.24080
 O515 O 0.29421 0.30806 0.24285
 O516 O 0.26463 0.31789 0.21679
 O517 O 0.26279 0.30866 0.27162
 O518 O 0.23939 0.31802 0.23857
 O519 O 0.31923 0.27977 0.24509
 O520 O 0.32624 0.24909 0.21866
 O521 O 0.28684 0.24999 0.29786
 O522 O 0.25504 0.22586 0.30200
 O523 O 0.26226 0.22396 0.17976
 O524 O 0.28915 0.25335 0.17635
 O525 O 0.20520 0.25641 0.20424
 O526 O 0.19952 0.28236 0.23506
 O527 O 0.22628 0.19690 0.23523
 O528 O 0.25560 0.18762 0.26055
 Zr529 Zr 0.25750 0.21286 0.23614
 O530 O 0.27785 0.22987 0.25903
 Zr531 Zr 0.22083 0.25429 0.23530
 O532 O 0.23951 0.27312 0.25811
 Zr533 Zr 0.26206 0.25332 0.19870
 O534 O 0.28279 0.27203 0.21996
 Zr535 Zr 0.25832 0.25164 0.27811
 O536 O 0.23756 0.23259 0.25716
 Zr537 Zr 0.29993 0.25078 0.24195
 O538 O 0.28126 0.23180 0.21875
 Zr539 Zr 0.26316 0.29210 0.24074
 O540 O 0.24252 0.27528 0.21762
 O541 O 0.23926 0.23324 0.21508
 O542 O 0.28144 0.27191 0.26219
 C543 C 0.26124 0.20331 0.18521
 C544 C 0.20628 0.20454 0.23514
 C545 C 0.21241 0.25684 0.18416
 C546 C 0.26131 0.30153 0.29173
 C547 C 0.30765 0.24930 0.29337
 C548 C 0.31411 0.30052 0.24483
 H549 H 0.28588 0.21898 0.26837
 H550 H 0.29310 0.28100 0.21086
 H551 H 0.22983 0.22444 0.20486
 H552 H 0.22952 0.28246 0.26721
 H553 H 0.21945 0.24285 0.29403
 H554 H 0.19766 0.26250 0.27070
 H555 H 0.32422 0.26137 0.20789
 H556 H 0.29998 0.24238 0.18217
 H557 H 0.26593 0.21407 0.29847
 H558 H 0.24525 0.19310 0.27211
 H559 H 0.27615 0.31382 0.20580
 H560 H 0.25521 0.29159 0.18059
 H561 H 0.29431 0.19238 0.22842
 H562 H 0.31894 0.21348 0.25279
 H563 H 0.20546 0.29288 0.22388
 H564 H 0.22795 0.31532 0.25005
 O565 O 0.75369 0.81854 0.22559
 O566 O 0.73132 0.82682 0.25682
 O567 O 0.81126 0.78889 0.25887
 O568 O 0.81850 0.75935 0.27955
 O569 O 0.78329 0.75937 0.19917
 O570 O 0.75135 0.73581 0.19339
 O571 O 0.74952 0.73186 0.31509
 O572 O 0.77758 0.75916 0.32049
 O573 O 0.69503 0.76340 0.28808
 O574 O 0.68990 0.78970 0.25541
 O575 O 0.71846 0.70566 0.25873
 O576 O 0.74917 0.69629 0.23406
 O577 O 0.74820 0.70476 0.28885
 O578 O 0.77374 0.69631 0.25683
 O579 O 0.69324 0.73376 0.25794
 O580 O 0.68755 0.76499 0.23299
 O581 O 0.72200 0.76339 0.31457
 O582 O 0.75369 0.78697 0.32099
 O583 O 0.75393 0.79171 0.19890
 O584 O 0.72760 0.76197 0.19297
 O585 O 0.80968 0.75747 0.22625
 O586 O 0.81316 0.73160 0.25755
 O587 O 0.78614 0.81710 0.25626
 O588 O 0.75590 0.82538 0.28108
 Zr589 Zr 0.75513 0.80097 0.25579
 O590 O 0.73334 0.78344 0.27673
 Zr591 Zr 0.79204 0.75979 0.25633
 O592 O 0.77194 0.74052 0.27755
 Zr593 Zr 0.75320 0.76172 0.21708
 O594 O 0.73131 0.74228 0.23646
 Zr595 Zr 0.75172 0.76144 0.29672
 O596 O 0.77383 0.78085 0.27760
 Zr597 Zr 0.71261 0.76286 0.25765
 O598 O 0.73262 0.78255 0.23631
 Zr599 Zr 0.74952 0.72184 0.25826
 O600 O 0.77146 0.73927 0.23684
 O601 O 0.77492 0.78135 0.23538
 O602 O 0.72976 0.74143 0.27882
 C603 C 0.75348 0.81213 0.20521
 C604 C 0.80607 0.80964 0.25825
 C605 C 0.80354 0.75749 0.20577
 C606 C 0.74829 0.71138 0.30918
 C607 C 0.70158 0.76374 0.30846
 C608 C 0.69838 0.71302 0.25859
 H609 H 0.72465 0.79415 0.28564
 H610 H 0.72166 0.73346 0.22651
 H611 H 0.78491 0.79035 0.22591
 H612 H 0.78138 0.73103 0.28712
 H613 H 0.78940 0.76955 0.31567
 H614 H 0.81300 0.75188 0.29313
 H615 H 0.69120 0.75410 0.22123
 H616 H 0.71662 0.77319 0.19792
 H617 H 0.74323 0.79894 0.31677
 H618 H 0.76636 0.81992 0.29258
 H619 H 0.73884 0.70089 0.22211
 H620 H 0.76123 0.72379 0.19882
 H621 H 0.71855 0.82175 0.24775
 H622 H 0.69215 0.79937 0.26853
 H623 H 0.80813 0.72127 0.24576
 H624 H 0.78392 0.69825 0.26962
 O625 O 0.74555 0.19820 0.78228
 O626 O 0.72197 0.19280 0.75060
 O627 O 0.80601 0.22125 0.75359
 O628 O 0.81719 0.24932 0.73216
 O629 O 0.77740 0.25538 0.81030
 O630 O 0.74761 0.28069 0.81477
 O631 O 0.75370 0.28497 0.69273
 O632 O 0.77837 0.25476 0.68837
 O633 O 0.69448 0.25843 0.71732
 O634 O 0.68418 0.23522 0.74873
 O635 O 0.72331 0.31459 0.74746
 O636 O 0.75402 0.31997 0.77420
 O637 O 0.75305 0.31203 0.71911
 O638 O 0.77893 0.31755 0.75167
 O639 O 0.69522 0.28948 0.74562
 O640 O 0.68526 0.25875 0.77245
 O641 O 0.72234 0.25736 0.69188
 O642 O 0.75214 0.22920 0.68735
 O643 O 0.74497 0.22528 0.80866
 O644 O 0.72151 0.25780 0.81293
 O645 O 0.80566 0.25251 0.78538
 O646 O 0.81387 0.27808 0.75417
 O647 O 0.77764 0.19632 0.75210
 O648 O 0.74723 0.19126 0.72686
 Zr649 Zr 0.74862 0.21567 0.75211
 O650 O 0.73000 0.23547 0.73010
 Zr651 Zr 0.78983 0.25235 0.75401
 O652 O 0.77316 0.27365 0.73153
 Zr653 Zr 0.74854 0.25513 0.79066
 O654 O 0.73031 0.27698 0.77023
 Zr655 Zr 0.75159 0.25528 0.71110
 O656 O 0.77051 0.23359 0.73147
 Zr657 Zr 0.71075 0.25827 0.74820
 O658 O 0.72713 0.23638 0.77036
 Zr659 Zr 0.75208 0.29488 0.74959
 O660 O 0.77053 0.27516 0.77224
 O661 O 0.76911 0.23312 0.77376
 O662 O 0.73124 0.27754 0.72806
 C663 C 0.74426 0.20477 0.80259
 C664 C 0.79841 0.20127 0.75259
 C665 C 0.79813 0.25415 0.80534
 C666 C 0.75342 0.30547 0.69878
 C667 C 0.70166 0.25825 0.69722
 C668 C 0.70268 0.30949 0.74555
 H669 H 0.72063 0.22576 0.72073
 H670 H 0.72122 0.28695 0.77959
 H671 H 0.77762 0.22319 0.78378
 H672 H 0.78403 0.28199 0.72247
 H673 H 0.78915 0.24366 0.69403
 H674 H 0.81346 0.25770 0.71849
 H675 H 0.68764 0.27186 0.78210
 H676 H 0.70977 0.24775 0.80729
 H677 H 0.73877 0.21990 0.68950
 H678 H 0.75811 0.19578 0.71538
 H679 H 0.74141 0.31785 0.78452
 H680 H 0.75802 0.29234 0.80961
 H681 H 0.71016 0.19872 0.76042
 H682 H 0.68806 0.22291 0.73855
 H683 H 0.80932 0.28887 0.76573
 H684 H 0.78908 0.31457 0.73910
 O685 O 0.23934 0.80112 0.77928
 O686 O 0.26591 0.80852 0.75038
 O687 O 0.18343 0.77653 0.74245
 O688 O 0.17677 0.74870 0.71848
 O689 O 0.20605 0.74253 0.80123
 O690 O 0.23590 0.71725 0.80850
 O691 O 0.24411 0.71684 0.68707
 O692 O 0.22028 0.74710 0.68042
 O693 O 0.29997 0.74432 0.71952
 O694 O 0.30471 0.76896 0.75238
 O695 O 0.27130 0.68731 0.74401
 O696 O 0.23784 0.67967 0.76738
 O697 O 0.24330 0.68899 0.71264
 O698 O 0.21585 0.68089 0.74204
 O699 O 0.29760 0.71406 0.74809
 O700 O 0.30293 0.74459 0.77501
 O701 O 0.27562 0.74496 0.69064
 O702 O 0.24597 0.77265 0.68300
 O703 O 0.23804 0.77309 0.80467
 O704 O 0.26088 0.74118 0.81142
 O705 O 0.18106 0.74471 0.77294
 O706 O 0.17795 0.71961 0.74079
 O707 O 0.21055 0.80274 0.74518
 O708 O 0.24309 0.81009 0.72423
 Zr709 Zr 0.24021 0.78464 0.74832
 O710 O 0.26223 0.76641 0.72820
 Zr711 Zr 0.20087 0.74615 0.74403
 O712 O 0.22125 0.72621 0.72353
 Zr713 Zr 0.23721 0.74386 0.78554
 O714 O 0.25910 0.72375 0.76712
 Zr715 Zr 0.24418 0.74610 0.70623
 O716 O 0.22196 0.76638 0.72461
 Zr717 Zr 0.28013 0.74411 0.74816
 O718 O 0.26008 0.76426 0.76869
 Zr719 Zr 0.24113 0.70533 0.74347
 O720 O 0.21881 0.72349 0.76389
 O721 O 0.21805 0.76566 0.76675
 O722 O 0.26345 0.72432 0.72509
 C723 C 0.23895 0.79380 0.79940
 C724 C 0.19015 0.79683 0.74297
 C725 C 0.18605 0.74317 0.79370
 C726 C 0.24397 0.69616 0.69253
 C727 C 0.29546 0.74426 0.69865
 C728 C 0.29160 0.69371 0.74603
 H729 H 0.27223 0.77671 0.72024
 H730 H 0.26754 0.71405 0.77738
 H731 H 0.20808 0.77502 0.77590
 H732 H 0.21182 0.71767 0.71313
 H733 H 0.20858 0.75767 0.68517
 H734 H 0.18242 0.74034 0.70552
 H735 H 0.29927 0.73202 0.78499
 H736 H 0.27323 0.75133 0.80753
 H737 H 0.25874 0.78222 0.68694
 H738 H 0.23486 0.80488 0.71095
 H739 H 0.24945 0.68186 0.77882
 H740 H 0.22623 0.70576 0.80177
 H741 H 0.27695 0.80259 0.76108
 H742 H 0.30298 0.77995 0.74026
 H743 H 0.18163 0.70862 0.75250
 H744 H 0.20562 0.68498 0.72982
 O745 O 0.23366 0.31294 0.71854
 O746 O 0.20889 0.31820 0.74886
 O747 O 0.29267 0.28970 0.75007
 O748 O 0.30325 0.26162 0.77164
 O749 O 0.26753 0.25620 0.69172
 O750 O 0.23816 0.23108 0.68507
 O751 O 0.23754 0.22589 0.80746
 O752 O 0.26174 0.25592 0.81356
 O753 O 0.17992 0.25156 0.77977
 O754 O 0.17060 0.27466 0.74845
 O755 O 0.21069 0.19619 0.75126
 O756 O 0.24235 0.19050 0.72659
 O757 O 0.24028 0.19874 0.78134
 O758 O 0.26670 0.19374 0.74919
 O759 O 0.18209 0.22083 0.75050
 O760 O 0.17397 0.25242 0.72375
 O761 O 0.20634 0.25295 0.80677
 O762 O 0.23550 0.28159 0.81283
 O763 O 0.23523 0.28637 0.69171
 O764 O 0.21165 0.25367 0.68606
 O765 O 0.29449 0.25866 0.71810
 O766 O 0.30104 0.23298 0.74976
 O767 O 0.26446 0.31488 0.74972
 O768 O 0.23288 0.31908 0.77426
 Zr769 Zr 0.23553 0.29525 0.74854
 O770 O 0.21570 0.27514 0.76908
 Zr771 Zr 0.27690 0.25862 0.74851
 O772 O 0.25926 0.23727 0.77000
 Zr773 Zr 0.23764 0.25620 0.70963
 O774 O 0.21871 0.23389 0.72887
 Zr775 Zr 0.23642 0.25545 0.78914
 O776 O 0.25644 0.27723 0.77012
 Zr777 Zr 0.19769 0.25222 0.74980
 O778 O 0.21509 0.27461 0.72895
 Zr779 Zr 0.23942 0.21596 0.75071
 O780 O 0.25871 0.23596 0.72906
 O781 O 0.25718 0.27803 0.72787
 O782 O 0.21722 0.23299 0.77105
 C783 C 0.23389 0.30678 0.69809
 C784 C 0.28520 0.30974 0.75028
 C785 C 0.28799 0.25723 0.69775
 C786 C 0.23901 0.20542 0.80163
 C787 C 0.18604 0.25177 0.80024
 C788 C 0.18987 0.20092 0.75118
 H789 H 0.20572 0.28470 0.77795
 H790 H 0.21027 0.22392 0.71890
 H791 H 0.26617 0.28802 0.71838
 H792 H 0.26975 0.22902 0.77962
 H793 H 0.27285 0.26701 0.80862
 H794 H 0.29861 0.25382 0.78535
 H795 H 0.17691 0.23941 0.71412
 H796 H 0.20004 0.26440 0.69065
 H797 H 0.22205 0.29065 0.81010
 H798 H 0.24395 0.31489 0.78572
 H799 H 0.23103 0.19330 0.71497
 H800 H 0.24795 0.21916 0.69086
 H801 H 0.19730 0.31204 0.73893
 H802 H 0.17415 0.28732 0.75832
 H803 H 0.29760 0.22253 0.73751
 H804 H 0.27643 0.19675 0.76212
 O805 O 0.75979 0.67846 0.72546
 O806 O 0.78362 0.67390 0.75668
 O807 O 0.69948 0.70121 0.75662
 O808 O 0.68815 0.72978 0.77698
 O809 O 0.72437 0.73339 0.69725
 O810 O 0.75324 0.76010 0.69115
 O811 O 0.75223 0.76685 0.81284
 O812 O 0.72842 0.73612 0.81890
 O813 O 0.81117 0.74167 0.78716
 O814 O 0.82067 0.71715 0.75584
 O815 O 0.78000 0.79579 0.75653
 O816 O 0.74873 0.80052 0.73117
 O817 O 0.75039 0.79348 0.78610
 O818 O 0.72405 0.79750 0.75364
 O819 O 0.80896 0.77155 0.75700
 O820 O 0.81842 0.73992 0.73154
 O821 O 0.78394 0.74063 0.81331
 O822 O 0.75565 0.71155 0.81978
 O823 O 0.75833 0.70478 0.69832
 O824 O 0.78007 0.73781 0.69209
 O825 O 0.69758 0.73058 0.72376
 O826 O 0.69018 0.75763 0.75405
 O827 O 0.72783 0.67621 0.75610
 O828 O 0.75901 0.67281 0.78133
 Zr829 Zr 0.75659 0.69634 0.75530
 O830 O 0.77573 0.71710 0.77599
 Zr831 Zr 0.71477 0.73239 0.75416
 O832 O 0.73171 0.75449 0.77536
 Zr833 Zr 0.75422 0.73492 0.71569
 O834 O 0.77286 0.75755 0.73491
 Zr835 Zr 0.75438 0.73690 0.79522
 O836 O 0.73515 0.71437 0.77630
 Zr837 Zr 0.79382 0.73992 0.75670
 O838 O 0.77687 0.71719 0.73576
 Zr839 Zr 0.75157 0.77564 0.75594
 O840 O 0.73266 0.75506 0.73448
 O841 O 0.73498 0.71292 0.73406
 O842 O 0.77360 0.75926 0.77708
 C843 C 0.76028 0.68452 0.70495
 C844 C 0.70703 0.68122 0.75681
 C845 C 0.70398 0.73143 0.70340
 C846 C 0.75109 0.78723 0.80655
 C847 C 0.80438 0.74220 0.80742
 C848 C 0.80087 0.79136 0.75703
 H849 H 0.78566 0.70789 0.78529
 H850 H 0.78136 0.76742 0.72491
 H851 H 0.72647 0.70244 0.72464
 H852 H 0.72096 0.76280 0.78460
 H853 H 0.71790 0.72443 0.81401
 H854 H 0.69242 0.73818 0.79045
 H855 H 0.81509 0.75229 0.72120
 H856 H 0.79251 0.72853 0.69764
 H857 H 0.76904 0.70237 0.81716
 H858 H 0.74805 0.67732 0.79274
 H859 H 0.76007 0.79743 0.71969
 H860 H 0.74221 0.77120 0.69627
 H861 H 0.79547 0.68034 0.74727
 H862 H 0.81806 0.70581 0.76747
 H863 H 0.69365 0.76774 0.74153
 H864 H 0.71419 0.79457 0.76646
 O865 O 0.25827 0.70531 0.28872
 O866 O 0.23258 0.69733 0.25946
 O867 O 0.31406 0.73084 0.25201
 O868 O 0.32229 0.75950 0.23082
 O869 O 0.28955 0.76571 0.31163
 O870 O 0.25891 0.78848 0.31892
 O871 O 0.25263 0.78948 0.19649
 O872 O 0.27771 0.76021 0.19013
 O873 O 0.19756 0.76104 0.22814
 O874 O 0.19113 0.73900 0.26003
 O875 O 0.22659 0.81914 0.25165
 O876 O 0.25850 0.82737 0.27625
 O877 O 0.25597 0.81725 0.22189
 O878 O 0.28217 0.82508 0.25289
 O879 O 0.19962 0.79308 0.25622
 O880 O 0.19512 0.76151 0.28451
 O881 O 0.22247 0.76039 0.19980
 O882 O 0.25302 0.73341 0.19299
 O883 O 0.25934 0.73313 0.31430
 O884 O 0.23404 0.76443 0.31986
 O885 O 0.31539 0.76215 0.28424
 O886 O 0.31867 0.78802 0.25154
 O887 O 0.28791 0.70395 0.25678
 O888 O 0.25573 0.69704 0.23311
 Zr889 Zr 0.25769 0.72186 0.25792
 O890 O 0.23554 0.74007 0.23771
 Zr891 Zr 0.29647 0.76087 0.25460
 O892 O 0.27647 0.78030 0.23331
 Zr893 Zr 0.25901 0.76256 0.29520
 O894 O 0.23779 0.78295 0.27622
 Zr895 Zr 0.25373 0.76030 0.21582
 O896 O 0.27610 0.74041 0.23460
 Zr897 Zr 0.21704 0.76258 0.25701
 O898 O 0.23684 0.74199 0.27766
 Zr899 Zr 0.25641 0.80111 0.25288
 O900 O 0.27795 0.78315 0.27416
 O901 O 0.27908 0.74117 0.27691
 O902 O 0.23421 0.78220 0.23418
 C903 C 0.25891 0.71243 0.30886
 C904 C 0.30809 0.71041 0.25384
 C905 C 0.30968 0.76474 0.30470
 C906 C 0.25418 0.81011 0.20185
 C907 C 0.20248 0.76054 0.20739
 C908 C 0.20618 0.81325 0.25344
 H909 H 0.22570 0.72962 0.22972
 H910 H 0.22920 0.79277 0.28619
 H911 H 0.28911 0.73207 0.28629
 H912 H 0.28609 0.78873 0.22299
 H913 H 0.28975 0.75007 0.19497
 H914 H 0.31601 0.76497 0.21663
 H915 H 0.19702 0.77543 0.29307
 H916 H 0.22306 0.75266 0.31640
 H917 H 0.24070 0.72336 0.19714
 H918 H 0.26605 0.70157 0.22112
 H919 H 0.24661 0.82523 0.28739
 H920 H 0.26674 0.80115 0.31193
 H921 H 0.22126 0.70290 0.27002
 H922 H 0.19571 0.72558 0.25170
 H923 H 0.31581 0.79807 0.26426
 H924 H 0.29224 0.82161 0.24038
 O925 O 0.74602 0.29842 0.28138
 O926 O 0.76844 0.30349 0.24838
 O927 O 0.68418 0.27592 0.25385
 O928 O 0.67295 0.24764 0.23212
 O929 O 0.71371 0.24241 0.31013
 O930 O 0.74339 0.21574 0.31378
 O931 O 0.73513 0.21063 0.19299
 O932 O 0.70947 0.24097 0.18913
 O933 O 0.79430 0.23769 0.21524
 O934 O 0.80504 0.26241 0.24674
 O935 O 0.76736 0.18212 0.24694
 O936 O 0.73687 0.17771 0.27559
 O937 O 0.73503 0.18403 0.21986
 O938 O 0.71230 0.17800 0.25275
 O939 O 0.79492 0.20776 0.24357
 O940 O 0.80584 0.23802 0.26964
 O941 O 0.76577 0.23837 0.19050
 O942 O 0.73636 0.26600 0.18597
 O943 O 0.74707 0.27131 0.30775
 O944 O 0.76927 0.23898 0.31240
 O945 O 0.68500 0.24486 0.28564
 O946 O 0.67572 0.21936 0.25551
 O947 O 0.71275 0.30056 0.25205
 O948 O 0.74194 0.30564 0.22612
 Zr949 Zr 0.74158 0.28101 0.25123
 O950 O 0.75936 0.26101 0.22875
 Zr951 Zr 0.70025 0.24459 0.25416
 O952 O 0.71645 0.22267 0.23197
 Zr953 Zr 0.74227 0.24168 0.29003
 O954 O 0.76042 0.21995 0.26948
 Zr955 Zr 0.73731 0.24078 0.21065
 O956 O 0.71917 0.26301 0.23111
 Zr957 Zr 0.77914 0.23858 0.24666
 O958 O 0.76331 0.26032 0.26921
 Zr959 Zr 0.73818 0.20164 0.24978
 O960 O 0.71984 0.22170 0.27219
 O961 O 0.72152 0.26380 0.27339
 O962 O 0.75821 0.21884 0.22743
 C963 C 0.74806 0.29176 0.30164
 C964 C 0.69194 0.29587 0.25282
 C965 C 0.69288 0.24366 0.30550
 C966 C 0.73456 0.19023 0.19943
 C967 C 0.78656 0.23730 0.19533
 C968 C 0.78781 0.18767 0.24397
 H969 H 0.76842 0.27059 0.21896
 H970 H 0.76990 0.21019 0.27871
 H971 H 0.71343 0.27393 0.28353
 H972 H 0.70532 0.21414 0.22338
 H973 H 0.69940 0.25285 0.19448
 H974 H 0.67584 0.23782 0.21925
 H975 H 0.80346 0.22541 0.27995
 H976 H 0.78166 0.24751 0.30575
 H977 H 0.74887 0.27631 0.18864
 H978 H 0.73130 0.30067 0.21457
 H979 H 0.75070 0.17897 0.28441
 H980 H 0.73166 0.20499 0.30956
 H981 H 0.78041 0.29776 0.25815
 H982 H 0.80191 0.27330 0.23480
 H983 H 0.68080 0.20829 0.26660
 H984 H 0.70009 0.18270 0.24277
 C985 C 0.27902 0.08081 0.10188
 C986 C 0.26712 0.10103 0.10087
 C987 C 0.25459 0.10532 0.08141
 C988 C 0.25286 0.08926 0.06450
 C989 C 0.26422 0.06867 0.06582
 C990 C 0.27772 0.06518 0.08478
 C991 C 0.24382 0.12573 0.07882
 C992 C 0.24536 0.14208 0.09506
 C993 C 0.25724 0.13843 0.11500
 C994 C 0.26750 0.11721 0.11835
 C995 C 0.27720 0.11265 0.13928
 C996 C 0.27726 0.12838 0.15620
 C997 C 0.26831 0.14951 0.15280
 C998 C 0.25868 0.15507 0.13197
 C999 C 0.25112 0.17716 0.12893
 C1000 C 0.25238 0.19272 0.14611
 C1001 C 0.26097 0.18682 0.16695
 C1002 C 0.26896 0.16517 0.17018
 H1003 H 0.28974 0.07661 0.11562
 H1004 H 0.24349 0.09362 0.04975
 H1005 H 0.28647 0.04971 0.08751
 H1006 H 0.23417 0.12919 0.06398
 H1007 H 0.23633 0.15721 0.09179
 H1008 H 0.28424 0.09669 0.14340
 H1009 H 0.28458 0.12399 0.17209
 H1010 H 0.24454 0.18312 0.11336
 H1011 H 0.24622 0.20940 0.14313
 H1012 H 0.27600 0.16059 0.18615
 C1013 C 0.77143 0.61008 0.57568
 C1014 C 0.76877 0.60534 0.59866
 C1015 C 0.76624 0.58273 0.60489
 C1016 C 0.76550 0.56595 0.58876
 C1017 C 0.76730 0.57104 0.56613
 C1018 C 0.77071 0.59314 0.55975
 C1019 C 0.76413 0.57688 0.62718
 C1020 C 0.76414 0.59298 0.64365
 C1021 C 0.76609 0.61581 0.63846
 C1022 C 0.76834 0.62213 0.61558
 C1023 C 0.76958 0.64501 0.61039
 C1024 C 0.76845 0.66117 0.62684
 C1025 C 0.76629 0.65529 0.64916
 C1026 C 0.76540 0.63255 0.65538
 C1027 C 0.76372 0.62757 0.67834
 C1028 C 0.76234 0.64440 0.69420
 C1029 C 0.76263 0.66684 0.68792
 C1030 C 0.76482 0.67213 0.66531
 H1031 H 0.77397 0.62665 0.56940
 H1032 H 0.76338 0.54876 0.59382
 H1033 H 0.77226 0.59742 0.54232
 H1034 H 0.76225 0.55959 0.63199
 H1035 H 0.76216 0.58685 0.66034
 H1036 H 0.77104 0.65110 0.59362
 H1037 H 0.76920 0.67853 0.62199
 H1038 H 0.76344 0.61086 0.68476
 H1039 H 0.76083 0.63970 0.71153
 H1040 H 0.76527 0.68942 0.66018
 C1041 C 0.78449 0.89937 0.08850
 C1042 C 0.76747 0.89709 0.10453
 C1043 C 0.75015 0.91305 0.10436
 C1044 C 0.74904 0.92930 0.08760
 C1045 C 0.76555 0.93087 0.07108
 C1046 C 0.78364 0.91604 0.07232
 C1047 C 0.73392 0.91271 0.12090
 C1048 C 0.73457 0.89695 0.13777
 C1049 C 0.75109 0.88026 0.13830
 C1050 C 0.76718 0.87971 0.12082
 C1051 C 0.78189 0.86142 0.11975
 C1052 C 0.78116 0.84443 0.13543
 C1053 C 0.76640 0.84540 0.15327
 C1054 C 0.75163 0.86369 0.15537
 C1055 C 0.73824 0.86480 0.17469
 C1056 C 0.73906 0.84809 0.19078
 C1057 C 0.75285 0.82957 0.18801
 C1058 C 0.76647 0.82825 0.16920
 H1059 H 0.79888 0.88867 0.08820
 H1060 H 0.73554 0.94124 0.08798
 H1061 H 0.79674 0.91632 0.06002
 H1062 H 0.72061 0.92487 0.12089
 H1063 H 0.72125 0.89772 0.14971
 H1064 H 0.79363 0.85931 0.10640
 H1065 H 0.79250 0.83051 0.13371
 H1066 H 0.72746 0.87868 0.17819
 H1067 H 0.72867 0.84955 0.20542
 H1068 H 0.77760 0.81418 0.16733
 C1069 C 0.24045 0.38280 0.56949
 C1070 C 0.24176 0.38715 0.59261
 C1071 C 0.24512 0.40953 0.59934
 C1072 C 0.24770 0.42651 0.58350
 C1073 C 0.24649 0.42181 0.56075
 C1074 C 0.24274 0.39988 0.55393
 C1075 C 0.24584 0.41492 0.62184
 C1076 C 0.24310 0.39866 0.63798
 C1077 C 0.23980 0.37611 0.63226
 C1078 C 0.23972 0.37016 0.60921
 C1079 C 0.23802 0.34741 0.60356
 C1080 C 0.23635 0.33105 0.61978
 C1081 C 0.23586 0.33661 0.64226
 C1082 C 0.23712 0.35923 0.64884
 C1083 C 0.23558 0.36399 0.67183
 C1084 C 0.23397 0.34699 0.68751
 C1085 C 0.23373 0.32460 0.68100
 C1086 C 0.23435 0.31957 0.65824
 H1087 H 0.23737 0.36648 0.56281
 H1088 H 0.25026 0.44354 0.58887
 H1089 H 0.24179 0.39584 0.53640
 H1090 H 0.24849 0.43197 0.62708
 H1091 H 0.24418 0.40435 0.65492
 H1092 H 0.23845 0.34155 0.58666
 H1093 H 0.23541 0.31379 0.61462
 H1094 H 0.23544 0.38066 0.67834
 H1095 H 0.23323 0.35154 0.70492
 H1096 H 0.23394 0.30235 0.65290
 C1097 C 0.75430 0.07620 0.87818
 C1098 C 0.74829 0.09864 0.88236
 C1099 C 0.74314 0.10455 0.90459
 C1100 C 0.74369 0.08859 0.92159
 C1101 C 0.74946 0.06647 0.91712
 C1102 C 0.75489 0.06047 0.89531
 C1103 C 0.73753 0.12638 0.90988
 C1104 C 0.73709 0.14276 0.89366
 C1105 C 0.74213 0.13793 0.87125
 C1106 C 0.74742 0.11542 0.86542
 C1107 C 0.75155 0.11044 0.84285
 C1108 C 0.75096 0.12684 0.82660
 C1109 C 0.74644 0.14890 0.83209
 C1110 C 0.74200 0.15485 0.85447
 C1111 C 0.73791 0.17761 0.85908
 C1112 C 0.73835 0.19359 0.84224
 C1113 C 0.74275 0.18757 0.82020
 C1114 C 0.74661 0.16510 0.81525
 H1115 H 0.75883 0.07022 0.86193
 H1116 H 0.73996 0.09352 0.93852
 H1117 H 0.75939 0.04346 0.89143
 H1118 H 0.73350 0.13093 0.92685
 H1119 H 0.73249 0.15910 0.89933
 H1120 H 0.75513 0.09389 0.83706
 H1121 H 0.75428 0.12219 0.80951
 H1122 H 0.73465 0.18380 0.87554
 H1123 H 0.73534 0.21081 0.84661
 H1124 H 0.75023 0.16020 0.79829
 C1125 C 0.27465 0.58465 0.38493
 C1126 C 0.26902 0.60716 0.38927
 C1127 C 0.26338 0.61286 0.41144
 C1128 C 0.26275 0.59657 0.42813
 C1129 C 0.26763 0.57431 0.42335
 C1130 C 0.27393 0.56857 0.40172
 C1131 C 0.25812 0.63474 0.41689
 C1132 C 0.25794 0.65125 0.40079
 C1133 C 0.26290 0.64651 0.37834
 C1134 C 0.26858 0.62409 0.37247
 C1135 C 0.27326 0.61931 0.34997
 C1136 C 0.27219 0.63567 0.33372
 C1137 C 0.26656 0.65749 0.33912
 C1138 C 0.26208 0.66337 0.36150
 C1139 C 0.25688 0.68594 0.36600
 C1140 C 0.25589 0.70171 0.34898
 C1141 C 0.25993 0.69566 0.32688
 C1142 C 0.26535 0.67348 0.32213
 H1143 H 0.27952 0.57879 0.36874
 H1144 H 0.25833 0.60125 0.44497
 H1145 H 0.27780 0.55146 0.39762
 H1146 H 0.25392 0.63918 0.43385
 H1147 H 0.25351 0.66759 0.40656
 H1148 H 0.27758 0.60293 0.34421
 H1149 H 0.27575 0.63112 0.31664
 H1150 H 0.25353 0.69209 0.38246
 H1151 H 0.25178 0.71874 0.35318
 H1152 H 0.26887 0.66861 0.30513
 C1153 C 0.22752 0.91859 0.88071
 C1154 C 0.23492 0.89639 0.88361
 C1155 C 0.24266 0.89015 0.90503
 C1156 C 0.24375 0.90580 0.92235
 C1157 C 0.23680 0.92778 0.91898
 C1158 C 0.22848 0.93391 0.89810
 C1159 C 0.24939 0.86834 0.90908
 C1160 C 0.24851 0.85241 0.89241
 C1161 C 0.24119 0.85775 0.87072
 C1162 C 0.23483 0.88024 0.86609
 C1163 C 0.22906 0.88593 0.84403
 C1164 C 0.22923 0.87024 0.82711
 C1165 C 0.23471 0.84813 0.83147
 C1166 C 0.24041 0.84143 0.85337
 C1167 C 0.24494 0.81860 0.85698
 C1168 C 0.24434 0.80334 0.83951
 C1169 C 0.23930 0.81019 0.81780
 C1170 C 0.23445 0.83267 0.81394
 H1171 H 0.22073 0.92467 0.86529
 H1172 H 0.24988 0.90083 0.93858
 H1173 H 0.22307 0.95083 0.89505
 H1174 H 0.25538 0.86348 0.92539
 H1175 H 0.25425 0.83608 0.89701
 H1176 H 0.22479 0.90261 0.83908
 H1177 H 0.22488 0.87547 0.81040
 H1178 H 0.24869 0.81182 0.87313
 H1179 H 0.24800 0.78606 0.84307
 H1180 H 0.23019 0.83814 0.79728
 C1181 C 0.74522 0.41845 0.38013
 C1182 C 0.75160 0.39602 0.38346
 C1183 C 0.75834 0.38965 0.40518
 C1184 C 0.75898 0.40527 0.42254
 C1185 C 0.75262 0.42736 0.41886
 C1186 C 0.74577 0.43375 0.39753
 C1187 C 0.76432 0.36770 0.40955
 C1188 C 0.76340 0.35169 0.39298
 C1189 C 0.75663 0.35705 0.37111
 C1190 C 0.75122 0.37971 0.36613
 C1191 C 0.74573 0.38531 0.34397
 C1192 C 0.74487 0.36931 0.32738
 C1193 C 0.74923 0.34706 0.33212
 C1194 C 0.75515 0.34053 0.35403
 C1195 C 0.75897 0.31762 0.35794
 C1196 C 0.75693 0.30205 0.34090
 C1197 C 0.75109 0.30863 0.31931
 C1198 C 0.74745 0.33125 0.31502
 H1199 H 0.73947 0.42477 0.36439
 H1200 H 0.76406 0.40013 0.43908
 H1201 H 0.74099 0.45081 0.39419
 H1202 H 0.76962 0.36276 0.42608
 H1203 H 0.76838 0.33521 0.39790
 H1204 H 0.74219 0.40206 0.33872
 H1205 H 0.74050 0.37443 0.31064
 H1206 H 0.76317 0.31100 0.37405
 H1207 H 0.75985 0.28469 0.34476
 H1208 H 0.74272 0.33655 0.29843
 C1209 C 0.08543 0.23000 0.11211
 C1210 C 0.10566 0.24093 0.10743
 C1211 C 0.10876 0.24932 0.08565
 C1212 C 0.09162 0.24783 0.06972
 C1213 C 0.07131 0.23723 0.07473
 C1214 C 0.06875 0.22823 0.09619
 C1215 C 0.12903 0.25903 0.07984
 C1216 C 0.14639 0.26040 0.09512
 C1217 C 0.14393 0.25268 0.11716
 C1218 C 0.12291 0.24352 0.12358
 C1219 C 0.11961 0.23769 0.14607
 C1220 C 0.13639 0.23993 0.16163
 C1221 C 0.15724 0.24780 0.15547
 C1222 C 0.16156 0.25411 0.13319
 C1223 C 0.18345 0.26125 0.12798
 C1224 C 0.20005 0.26225 0.14437
 C1225 C 0.19530 0.25648 0.16642
 C1226 C 0.17381 0.24927 0.17171
 H1227 H 0.08193 0.22231 0.12790
 H1228 H 0.09464 0.25416 0.05313
 H1229 H 0.05337 0.22053 0.10138
 H1230 H 0.13160 0.26547 0.06320
 H1231 H 0.16143 0.26815 0.08929
 H1232 H 0.10396 0.23183 0.15245
 H1233 H 0.13301 0.23529 0.17873
 H1234 H 0.18838 0.26574 0.11136
 H1235 H 0.21660 0.26761 0.13978
 H1236 H 0.16996 0.24423 0.18860
 C1237 C 0.61987 0.74823 0.58151
 C1238 C 0.62041 0.73428 0.60051
 C1239 C 0.60186 0.72020 0.60427
 C1240 C 0.58394 0.71986 0.58928
 C1241 C 0.58359 0.73402 0.57082
 C1242 C 0.60166 0.74816 0.56706
 C1243 C 0.60102 0.70686 0.62320
 C1244 C 0.61769 0.70789 0.63914
 C1245 C 0.63624 0.72201 0.63649
 C1246 C 0.63828 0.73437 0.61626
 C1247 C 0.65816 0.74625 0.61244
 C1248 C 0.67503 0.74688 0.62824
 C1249 C 0.67253 0.73633 0.64875
 C1250 C 0.65295 0.72400 0.65331
 C1251 C 0.65059 0.71475 0.67483
 C1252 C 0.66711 0.71738 0.69088
 C1253 C 0.68668 0.72904 0.68609
 C1254 C 0.68938 0.73832 0.66489
 H1255 H 0.63288 0.75995 0.57776
 H1256 H 0.56977 0.70918 0.59248
 H1257 H 0.60162 0.75933 0.55290
 H1258 H 0.58705 0.69582 0.62599
 H1259 H 0.61578 0.69696 0.65322
 H1260 H 0.66141 0.75489 0.59708
 H1261 H 0.69003 0.75614 0.62454
 H1262 H 0.63588 0.70597 0.68004
 H1263 H 0.66458 0.71006 0.70716
 H1264 H 0.70434 0.74764 0.66114
 C1265 C 0.10966 0.73359 0.92128
 C1266 C 0.10602 0.74142 0.89942
 C1267 C 0.08503 0.75099 0.89461
 C1268 C 0.06882 0.75327 0.91136
 C1269 C 0.07274 0.74566 0.93321
 C1270 C 0.09347 0.73568 0.93767
 C1271 C 0.08026 0.75821 0.87307
 C1272 C 0.09585 0.75620 0.85614
 C1273 C 0.11717 0.74717 0.86014
 C1274 C 0.12246 0.74003 0.88226
 C1275 C 0.14416 0.73213 0.88661
 C1276 C 0.16012 0.73115 0.87005
 C1277 C 0.15516 0.73767 0.84839
 C1278 C 0.13358 0.74545 0.84292
 C1279 C 0.12945 0.75119 0.82041
 C1280 C 0.14627 0.74994 0.80439
 C1281 C 0.16774 0.74298 0.81019
 C1282 C 0.17192 0.73663 0.83222
 H1283 H 0.12486 0.72566 0.92644
 H1284 H 0.05283 0.76026 0.90692
 H1285 H 0.09795 0.73024 0.95422
 H1286 H 0.06422 0.76550 0.86921
 H1287 H 0.09077 0.76235 0.84010
 H1288 H 0.14966 0.72699 0.90285
 H1289 H 0.17662 0.72523 0.87432
 H1290 H 0.11344 0.75669 0.81457
 H1291 H 0.14250 0.75489 0.78748
 H1292 H 0.18838 0.73093 0.83691
 C1293 C 0.56997 0.26025 0.38873
 C1294 C 0.59277 0.25502 0.39183
 C1295 C 0.60017 0.25105 0.41388
 C1296 C 0.58529 0.25193 0.43176
 C1297 C 0.56278 0.25674 0.42834
 C1298 C 0.55531 0.26110 0.40673
 C1299 C 0.62239 0.24612 0.41809
 C1300 C 0.63763 0.24484 0.40089
 C1301 C 0.63123 0.24839 0.37857
 C1302 C 0.60842 0.25357 0.37393
 C1303 C 0.60204 0.25700 0.35158
 C1304 C 0.61729 0.25548 0.33436
 C1305 C 0.63952 0.25050 0.33859
 C1306 C 0.64689 0.24690 0.36071
 C1307 C 0.66970 0.24197 0.36398
 C1308 C 0.68439 0.24081 0.34610
 C1309 C 0.67700 0.24441 0.32430
 C1310 C 0.65446 0.24918 0.32070
 H1311 H 0.56282 0.26369 0.37268
 H1312 H 0.59131 0.24898 0.44852
 H1313 H 0.53794 0.26478 0.40366
 H1314 H 0.62810 0.24314 0.43494
 H1315 H 0.65438 0.24092 0.40580
 H1316 H 0.58524 0.26083 0.34671
 H1317 H 0.61157 0.25824 0.31747
 H1318 H 0.67689 0.23896 0.38009
 H1319 H 0.70168 0.23705 0.34946
 H1320 H 0.64849 0.25211 0.30393
 C1321 C 0.89750 0.78648 0.09396
 C1322 C 0.89411 0.76954 0.10993
 C1323 C 0.91018 0.75235 0.11115
 C1324 C 0.92786 0.75144 0.09592
 C1325 C 0.93064 0.76789 0.07945
 C1326 C 0.91544 0.78573 0.07922
 C1327 C 0.90853 0.73602 0.12755
 C1328 C 0.89141 0.73648 0.14300
 C1329 C 0.87475 0.75302 0.14229
 C1330 C 0.87556 0.76922 0.12486
 C1331 C 0.85753 0.78412 0.12259
 C1332 C 0.83958 0.78359 0.13715
 C1333 C 0.83919 0.76876 0.15500
 C1334 C 0.85703 0.75360 0.15814
 C1335 C 0.85662 0.74000 0.17738
 C1336 C 0.83915 0.74126 0.19255
 C1337 C 0.82127 0.75569 0.18893
 C1338 C 0.82124 0.76928 0.17000
 H1339 H 0.88667 0.80070 0.09256
 H1340 H 0.93989 0.73812 0.09752
 H1341 H 0.91649 0.79875 0.06683
 H1342 H 0.92071 0.72276 0.12855
 H1343 H 0.89127 0.72308 0.15490
 H1344 H 0.85645 0.79600 0.10922
 H1345 H 0.82601 0.79520 0.13460
 H1346 H 0.86994 0.72878 0.18163
 H1347 H 0.83961 0.73086 0.20727
 H1348 H 0.80767 0.78089 0.16744
 C1349 C 0.41519 0.26774 0.61950
 C1350 C 0.39253 0.26225 0.61585
 C1351 C 0.38615 0.25652 0.59387
 C1352 C 0.40183 0.25595 0.57666
 C1353 C 0.42418 0.26103 0.58065
 C1354 C 0.43066 0.26714 0.60215
 C1355 C 0.36414 0.25128 0.58906
 C1356 C 0.34810 0.25149 0.60555
 C1357 C 0.35343 0.25691 0.62777
 C1358 C 0.37605 0.26222 0.63308
 C1359 C 0.38141 0.26709 0.65543
 C1360 C 0.36534 0.26680 0.67203
 C1361 C 0.34324 0.26184 0.66711
 C1362 C 0.33689 0.25701 0.64489
 C1363 C 0.31416 0.25254 0.64076
 C1364 C 0.29862 0.25262 0.65790
 C1365 C 0.30497 0.25712 0.67986
 C1366 C 0.32740 0.26174 0.68433
 H1367 H 0.42155 0.27255 0.63553
 H1368 H 0.39654 0.25166 0.55995
 H1369 H 0.44787 0.27111 0.60567
 H1370 H 0.35921 0.24687 0.57227
 H1371 H 0.33163 0.24702 0.60021
 H1372 H 0.39802 0.27103 0.66079
 H1373 H 0.37032 0.27054 0.68895
 H1374 H 0.30763 0.24905 0.62447
 H1375 H 0.28145 0.24904 0.65382
 H1376 H 0.33255 0.26546 0.70121
 C1377 C 0.91549 0.22458 0.89232
 C1378 C 0.89560 0.23699 0.89369
 C1379 C 0.89045 0.24699 0.91438
 C1380 C 0.90518 0.24533 0.93251
 C1381 C 0.92521 0.23327 0.93085
 C1382 C 0.92987 0.22279 0.91042
 C1383 C 0.87054 0.25860 0.91697
 C1384 C 0.85544 0.26028 0.89956
 C1385 C 0.85983 0.25073 0.87856
 C1386 C 0.88060 0.23957 0.87536
 C1387 C 0.88582 0.23166 0.85387
 C1388 C 0.87106 0.23392 0.83627
 C1389 C 0.85033 0.24379 0.83935
 C1390 C 0.84427 0.25216 0.86056
 C1391 C 0.82268 0.26126 0.86289
 C1392 C 0.80796 0.26203 0.84495
 C1393 C 0.81420 0.25401 0.82400
 C1394 C 0.83552 0.24505 0.82130
 H1395 H 0.92048 0.21586 0.87751
 H1396 H 0.90042 0.25283 0.94816
 H1397 H 0.94525 0.21389 0.90772
 H1398 H 0.86650 0.26638 0.93271
 H1399 H 0.84060 0.26967 0.90303
 H1400 H 0.90149 0.22398 0.84989
 H1401 H 0.87585 0.22762 0.82008
 H1402 H 0.81638 0.26744 0.87846
 H1403 H 0.79154 0.26896 0.84755
 H1404 H 0.84042 0.23847 0.80525
 C1405 C 0.41745 0.72538 0.39875
 C1406 C 0.40297 0.74372 0.39566
 C1407 C 0.40234 0.76014 0.41258
 C1408 C 0.41664 0.75881 0.43097
 C1409 C 0.43145 0.74101 0.43327
 C1410 C 0.43141 0.72411 0.41728
 C1411 C 0.38763 0.77797 0.41099
 C1412 C 0.37305 0.77969 0.39319
 C1413 C 0.37301 0.76384 0.37587
 C1414 C 0.38896 0.74620 0.37657
 C1415 C 0.39071 0.73197 0.35797
 C1416 C 0.37675 0.73431 0.33969
 C1417 C 0.36004 0.75039 0.33949
 C1418 C 0.35771 0.76521 0.35772
 C1419 C 0.33963 0.78028 0.35738
 C1420 C 0.32453 0.78044 0.33979
 C1421 C 0.32714 0.76600 0.32178
 C1422 C 0.34518 0.75130 0.32145
 H1423 H 0.41824 0.71165 0.38727
 H1424 H 0.41635 0.77174 0.44354
 H1425 H 0.44271 0.71014 0.41877
 H1426 H 0.38724 0.79069 0.42376
 H1427 H 0.36243 0.79412 0.39315
 H1428 H 0.40315 0.71913 0.35679
 H1429 H 0.37874 0.72305 0.32576
 H1430 H 0.33605 0.79149 0.37088
 H1431 H 0.31049 0.79173 0.34043
 H1432 H 0.34691 0.73973 0.30772
 C1433 C 0.12110 0.08325 0.25385
 C1434 C 0.11903 0.10494 0.24479
 C1435 C 0.09769 0.11164 0.23727
 C1436 C 0.07954 0.09704 0.23841
 C1437 C 0.08193 0.07563 0.24729
 C1438 C 0.10282 0.06894 0.25509
 C1439 C 0.09444 0.13295 0.22875
 C1440 C 0.11180 0.14807 0.22784
 C1441 C 0.13337 0.14241 0.23523
 C1442 C 0.13721 0.12028 0.24322
 C1443 C 0.15910 0.11420 0.24919
 C1444 C 0.17653 0.12930 0.24800
 C1445 C 0.17290 0.15115 0.24113
 C1446 C 0.15127 0.15812 0.23476
 C1447 C 0.14844 0.18067 0.22851
 C1448 C 0.16628 0.19547 0.22858
 C1449 C 0.18762 0.18845 0.23474
 C1450 C 0.19083 0.16616 0.24083
 H1451 H 0.13649 0.07687 0.26041
 H1452 H 0.06332 0.10253 0.23272
 H1453 H 0.10511 0.05245 0.26200
 H1454 H 0.07819 0.13808 0.22285
 H1455 H 0.10774 0.16407 0.22089
 H1456 H 0.16346 0.09769 0.25463
 H1457 H 0.19304 0.12382 0.25275
 H1458 H 0.13261 0.18762 0.22386
 H1459 H 0.16327 0.21257 0.22373
 H1460 H 0.20723 0.16056 0.24582
 C1461 C 0.57846 0.60809 0.74363
 C1462 C 0.60091 0.60254 0.74807
 C1463 C 0.60663 0.57966 0.74893
 C1464 C 0.59025 0.56319 0.74605
 C1465 C 0.56816 0.56914 0.74161
 C1466 C 0.56249 0.59166 0.74046
 C1467 C 0.62869 0.57334 0.75235
 C1468 C 0.64538 0.58921 0.75440
 C1469 C 0.64058 0.61221 0.75360
 C1470 C 0.61785 0.61893 0.75120
 C1471 C 0.61274 0.64183 0.75215
 C1472 C 0.62924 0.65770 0.75430
 C1473 C 0.65151 0.65153 0.75544
 C1474 C 0.65766 0.62877 0.75517
 C1475 C 0.68069 0.62371 0.75604
 C1476 C 0.69670 0.64059 0.75693
 C1477 C 0.69036 0.66303 0.75709
 C1478 C 0.66766 0.66823 0.75659
 H1479 H 0.57265 0.62495 0.74199
 H1480 H 0.59476 0.54573 0.74671
 H1481 H 0.54549 0.59664 0.73717
 H1482 H 0.63318 0.55589 0.75312
 H1483 H 0.66194 0.58288 0.75690
 H1484 H 0.59602 0.64816 0.75160
 H1485 H 0.62447 0.67509 0.75482
 H1486 H 0.68693 0.60692 0.75557
 H1487 H 0.71412 0.63602 0.75721
 H1488 H 0.66238 0.68549 0.75664
 C1489 C 0.91849 0.11377 0.77005
 C1490 C 0.89698 0.11257 0.76056
 C1491 C 0.89034 0.09193 0.75140
 C1492 C 0.90488 0.07371 0.75116
 C1493 C 0.92645 0.07510 0.76016
 C1494 C 0.93282 0.09542 0.76992
 C1495 C 0.86912 0.08937 0.74249
 C1496 C 0.85411 0.10683 0.74255
 C1497 C 0.85978 0.12782 0.75141
 C1498 C 0.88177 0.13095 0.76002
 C1499 C 0.88786 0.15238 0.76747
 C1500 C 0.87295 0.17006 0.76684
 C1501 C 0.85127 0.16708 0.75918
 C1502 C 0.84426 0.14585 0.75165
 C1503 C 0.82183 0.14349 0.74493
 C1504 C 0.80726 0.16148 0.74525
 C1505 C 0.81437 0.18253 0.75220
 C1506 C 0.83647 0.18523 0.75914
 H1507 H 0.92479 0.12861 0.77785
 H1508 H 0.89873 0.05807 0.74469
 H1509 H 0.94930 0.09771 0.77676
 H1510 H 0.86398 0.07362 0.73538
 H1511 H 0.83826 0.10336 0.73501
 H1512 H 0.90426 0.15621 0.77355
 H1513 H 0.87844 0.18624 0.77261
 H1514 H 0.81477 0.12791 0.73968
 H1515 H 0.79026 0.15881 0.73993
 H1516 H 0.84207 0.20137 0.76491
 C1517 C 0.39901 0.59637 0.28618
 C1518 C 0.39732 0.61343 0.26998
 C1519 C 0.41477 0.61524 0.25424
 C1520 C 0.43226 0.59973 0.25400
 C1521 C 0.43317 0.58245 0.26960
 C1522 C 0.41665 0.58121 0.28594
 C1523 C 0.41458 0.63235 0.23860
 C1524 C 0.39754 0.64791 0.23824
 C1525 C 0.37954 0.64670 0.25326
 C1526 C 0.37905 0.62874 0.26890
 C1527 C 0.36005 0.62634 0.28247
 C1528 C 0.34232 0.64114 0.28113
 C1529 C 0.34299 0.65929 0.26669
 C1530 C 0.36180 0.66261 0.25285
 C1531 C 0.36220 0.68199 0.23946
 C1532 C 0.34464 0.69715 0.23969
 C1533 C 0.32590 0.69348 0.25294
 C1534 C 0.32507 0.67438 0.26628
 H1535 H 0.38705 0.59433 0.29934
 H1536 H 0.44522 0.60103 0.24154
 H1537 H 0.41702 0.56803 0.29823
 H1538 H 0.42784 0.63378 0.22648
 H1539 H 0.39863 0.66037 0.22541
 H1540 H 0.35807 0.61274 0.29397
 H1541 H 0.32802 0.63848 0.29175
 H1542 H 0.37612 0.68633 0.22909
 H1543 H 0.34576 0.71193 0.22943
 H1544 H 0.31081 0.67170 0.27698
 C1545 C 0.06882 0.88153 0.76181
 C1546 C 0.08972 0.88298 0.75112
 C1547 C 0.09566 0.90375 0.74175
 C1548 C 0.08107 0.92192 0.74263
 C1549 C 0.06020 0.92035 0.75310
 C1550 C 0.05448 0.89982 0.76283
 C1551 C 0.11628 0.90650 0.73162
 C1552 C 0.13150 0.88922 0.73097
 C1553 C 0.12661 0.86824 0.74029
 C1554 C 0.10506 0.86478 0.74976
 C1555 C 0.09956 0.84322 0.75733
 C1556 C 0.11476 0.82582 0.75630
 C1557 C 0.13619 0.82924 0.74819
 C1558 C 0.14253 0.85056 0.74029
 C1559 C 0.16478 0.85342 0.73322
 C1560 C 0.17990 0.83589 0.73389
 C1561 C 0.17348 0.81482 0.74139
 C1562 C 0.15149 0.81152 0.74831
 H1563 H 0.06310 0.86657 0.76982
 H1564 H 0.08676 0.93766 0.73600
 H1565 H 0.03849 0.89737 0.77066
 H1566 H 0.12083 0.92230 0.72420
 H1567 H 0.14688 0.89282 0.72258
 H1568 H 0.08342 0.83911 0.76385
 H1569 H 0.10976 0.80956 0.76227
 H1570 H 0.17132 0.86913 0.72768
 H1571 H 0.19683 0.83892 0.72854
 H1572 H 0.14647 0.79534 0.75450
 C1573 C 0.57204 0.38531 0.26583
 C1574 C 0.59507 0.38702 0.26101
 C1575 C 0.60365 0.40859 0.25687
 C1576 C 0.58978 0.42735 0.25745
 C1577 C 0.56705 0.42536 0.26201
 C1578 C 0.55837 0.40417 0.26633
 C1579 C 0.62610 0.41150 0.25217
 C1580 C 0.64042 0.39348 0.25129
 C1581 C 0.63287 0.37155 0.25507
 C1582 C 0.60983 0.36823 0.26014
 C1583 C 0.60242 0.34629 0.26416
 C1584 C 0.61690 0.32824 0.26329
 C1585 C 0.63935 0.33118 0.25832
 C1586 C 0.64765 0.35286 0.25405
 C1587 C 0.67050 0.35492 0.24891
 C1588 C 0.68441 0.33643 0.24839
 C1589 C 0.67630 0.31504 0.25286
 C1590 C 0.65361 0.31253 0.25767
 H1591 H 0.56401 0.36967 0.26920
 H1592 H 0.59683 0.44370 0.25456
 H1593 H 0.54083 0.40211 0.26979
 H1594 H 0.63274 0.42798 0.24909
 H1595 H 0.65744 0.39748 0.24761
 H1596 H 0.58541 0.34244 0.26810
 H1597 H 0.61040 0.31175 0.26657
 H1598 H 0.67834 0.37055 0.24517
 H1599 H 0.70177 0.33905 0.24441
 H1600 H 0.64706 0.29610 0.26118
 C1601 C 0.89117 0.93053 0.24116
 C1602 C 0.89092 0.91114 0.25449
 C1603 C 0.90938 0.90733 0.26863
 C1604 C 0.92676 0.92282 0.26993
 C1605 C 0.92694 0.94203 0.25653
 C1606 C 0.90887 0.94550 0.24205
 C1607 C 0.91067 0.88786 0.28118
 C1608 C 0.89431 0.87170 0.27957
 C1609 C 0.87558 0.87466 0.26572
 C1610 C 0.87331 0.89519 0.25387
 C1611 C 0.85337 0.89921 0.24212
 C1612 C 0.83648 0.88351 0.24145
 C1613 C 0.83901 0.86293 0.25184
 C1614 C 0.85879 0.85797 0.26371
 C1615 C 0.86108 0.83631 0.27272
 C1616 C 0.84411 0.82064 0.27064
 C1617 C 0.82425 0.82604 0.25976
 C1618 C 0.82184 0.84721 0.25033
 H1619 H 0.87818 0.93440 0.22942
 H1620 H 0.94084 0.91902 0.28052
 H1621 H 0.90788 0.96023 0.23174
 H1622 H 0.92469 0.88491 0.29214
 H1623 H 0.89653 0.85725 0.28994
 H1624 H 0.84999 0.91470 0.23375
 H1625 H 0.82136 0.88743 0.23243
 H1626 H 0.87596 0.83076 0.28103
 H1627 H 0.84645 0.80429 0.27786
 H1628 H 0.80669 0.85136 0.24145
 C1629 C 0.41106 0.38683 0.73289
 C1630 C 0.38888 0.39128 0.73933
 C1631 C 0.38279 0.41380 0.74295
 C1632 C 0.39858 0.43089 0.74078
 C1633 C 0.42046 0.42604 0.73453
 C1634 C 0.42648 0.40392 0.73059
 C1635 C 0.36099 0.41917 0.74863
 C1636 C 0.34487 0.40274 0.75044
 C1637 C 0.35003 0.38008 0.74697
 C1638 C 0.37255 0.37421 0.74200
 C1639 C 0.37808 0.35147 0.74005
 C1640 C 0.36212 0.33502 0.74211
 C1641 C 0.33998 0.34047 0.74598
 C1642 C 0.33348 0.36302 0.74843
 C1643 C 0.31059 0.36746 0.75184
 C1644 C 0.29504 0.35023 0.75271
 C1645 C 0.30169 0.32802 0.75035
 C1646 C 0.32427 0.32334 0.74716
 H1647 H 0.41710 0.37039 0.72919
 H1648 H 0.39376 0.44805 0.74362
 H1649 H 0.44336 0.39973 0.72594
 H1650 H 0.35625 0.43633 0.75152
 H1651 H 0.32850 0.40839 0.75493
 H1652 H 0.39476 0.34565 0.73723
 H1653 H 0.36718 0.31779 0.74042
 H1654 H 0.30403 0.38404 0.75346
 H1655 H 0.27768 0.35439 0.75509
 H1656 H 0.32968 0.30625 0.74510
 C1657 C 0.10881 0.22869 0.92586
 C1658 C 0.10562 0.23855 0.90470
 C1659 C 0.08426 0.24714 0.89980
 C1660 C 0.06732 0.24667 0.91571
 C1661 C 0.07069 0.23732 0.93691
 C1662 C 0.09166 0.22798 0.94153
 C1663 C 0.07969 0.25616 0.87895
 C1664 C 0.09583 0.25671 0.86260
 C1665 C 0.11746 0.24851 0.86655
 C1666 C 0.12269 0.23997 0.88817
 C1667 C 0.14485 0.23358 0.89263
 C1668 C 0.16128 0.23520 0.87648
 C1669 C 0.15623 0.24272 0.85512
 C1670 C 0.13417 0.24903 0.84969
 C1671 C 0.12968 0.25539 0.82746
 C1672 C 0.14652 0.25614 0.81163
 C1673 C 0.16842 0.25067 0.81727
 C1674 C 0.17317 0.24389 0.83908
 H1675 H 0.12430 0.22114 0.93078
 H1676 H 0.05105 0.25277 0.91092
 H1677 H 0.09532 0.22079 0.95762
 H1678 H 0.06337 0.26284 0.87517
 H1679 H 0.09089 0.26428 0.84714
 H1680 H 0.15021 0.22774 0.90870
 H1681 H 0.17811 0.23034 0.88075
 H1682 H 0.11328 0.25948 0.82154
 H1683 H 0.14232 0.26122 0.79485
 H1684 H 0.19001 0.23921 0.84352
 C1685 C 0.58186 0.73594 0.39264
 C1686 C 0.60246 0.74713 0.39471
 C1687 C 0.60821 0.75557 0.41600
 C1688 C 0.59372 0.75314 0.43414
 C1689 C 0.57335 0.74215 0.43169
 C1690 C 0.56764 0.73358 0.41079
 C1691 C 0.62840 0.76643 0.41914
 C1692 C 0.64333 0.76885 0.40175
 C1693 C 0.63859 0.76059 0.38026
 C1694 C 0.61759 0.75003 0.37654
 C1695 C 0.61240 0.74282 0.35478
 C1696 C 0.62739 0.74517 0.33740
 C1697 C 0.64824 0.75461 0.34092
 C1698 C 0.65418 0.76249 0.36238
 C1699 C 0.67573 0.77153 0.36510
 C1700 C 0.69069 0.77228 0.34745
 C1701 C 0.68478 0.76431 0.32638
 C1702 C 0.66336 0.75583 0.32312
 H1703 H 0.57618 0.72870 0.37729
 H1704 H 0.59842 0.75962 0.45030
 H1705 H 0.55185 0.72529 0.40831
 H1706 H 0.63281 0.77307 0.43532
 H1707 H 0.65844 0.77752 0.40577
 H1708 H 0.59672 0.73534 0.35048
 H1709 H 0.62268 0.73925 0.32103
 H1710 H 0.68186 0.77774 0.38072
 H1711 H 0.70712 0.77903 0.35042
 H1712 H 0.65870 0.74942 0.30691
 C1713 C 0.92640 0.73552 0.89343
 C1714 C 0.90544 0.74622 0.89341
 C1715 C 0.89967 0.75876 0.91247
 C1716 C 0.91462 0.76111 0.93021
 C1717 C 0.93561 0.75072 0.93003
 C1718 C 0.94105 0.73762 0.91140
 C1719 C 0.87887 0.76885 0.91394
 C1720 C 0.86335 0.76645 0.89709
 C1721 C 0.86815 0.75410 0.87773
 C1722 C 0.88986 0.74461 0.87541
 C1723 C 0.89533 0.73421 0.85508
 C1724 C 0.87999 0.73265 0.83782
 C1725 C 0.85840 0.74077 0.84030
 C1726 C 0.85204 0.75125 0.86045
 C1727 C 0.82963 0.75807 0.86263
 C1728 C 0.81444 0.75501 0.84542
 C1729 C 0.82094 0.74523 0.82534
 C1730 C 0.84303 0.73825 0.82281
 H1731 H 0.93190 0.72511 0.87993
 H1732 H 0.90917 0.77028 0.94470
 H1733 H 0.95706 0.72952 0.91011
 H1734 H 0.87442 0.77861 0.92843
 H1735 H 0.84784 0.77505 0.89954
 H1736 H 0.91161 0.72754 0.85176
 H1737 H 0.88501 0.72469 0.82245
 H1738 H 0.82307 0.76532 0.87762
 H1739 H 0.79746 0.76051 0.84784
 H1740 H 0.84811 0.73035 0.80743
 C1741 C 0.42730 0.24552 0.38394
 C1742 C 0.40407 0.24940 0.38524
 C1743 C 0.39504 0.25395 0.40654
 C1744 C 0.40875 0.25515 0.42535
 C1745 C 0.43168 0.25172 0.42370
 C1746 C 0.44080 0.24663 0.40290
 C1747 C 0.37233 0.25742 0.40910
 C1748 C 0.35812 0.25635 0.39102
 C1749 C 0.36608 0.25187 0.36939
 C1750 C 0.38950 0.24885 0.36632
 C1751 C 0.39750 0.24576 0.34445
 C1752 C 0.38318 0.24546 0.32624
 C1753 C 0.36028 0.24780 0.32903
 C1754 C 0.35139 0.25070 0.35069
 C1755 C 0.32804 0.25217 0.35276
 C1756 C 0.31428 0.25150 0.33420
 C1757 C 0.32304 0.24922 0.31272
 C1758 C 0.34616 0.24728 0.31027
 H1759 H 0.43556 0.24146 0.36859
 H1760 H 0.40148 0.25858 0.44149
 H1761 H 0.45851 0.24384 0.40123
 H1762 H 0.36540 0.26104 0.42534
 H1763 H 0.34092 0.25960 0.39464
 H1764 H 0.41491 0.24390 0.34075
 H1765 H 0.39015 0.24326 0.30977
 H1766 H 0.31967 0.25360 0.36850
 H1767 H 0.29653 0.25291 0.33686
 H1768 H 0.35321 0.24534 0.29379
 C1769 C 0.11758 0.77307 0.08481
 C1770 C 0.11504 0.76671 0.10735
 C1771 C 0.09341 0.76065 0.11455
 C1772 C 0.07537 0.76065 0.09963
 C1773 C 0.07830 0.76683 0.07737
 C1774 C 0.09954 0.77308 0.07019
 C1775 C 0.08983 0.75456 0.13660
 C1776 C 0.10717 0.75438 0.15183
 C1777 C 0.12905 0.76021 0.14561
 C1778 C 0.13312 0.76620 0.12292
 C1779 C 0.15514 0.77129 0.11653
 C1780 C 0.17256 0.77071 0.13170
 C1781 C 0.16884 0.76526 0.15390
 C1782 C 0.14704 0.76010 0.16128
 C1783 C 0.14419 0.75520 0.18413
 C1784 C 0.16216 0.75530 0.19880
 C1785 C 0.18369 0.76017 0.19138
 C1786 C 0.18689 0.76509 0.16882
 H1787 H 0.13323 0.77816 0.07783
 H1788 H 0.05895 0.75601 0.10541
 H1789 H 0.10237 0.77764 0.05300
 H1790 H 0.07336 0.74986 0.14219
 H1791 H 0.10280 0.74931 0.16842
 H1792 H 0.15964 0.77562 0.09977
 H1793 H 0.18916 0.77469 0.12595
 H1794 H 0.12829 0.75144 0.19138
 H1795 H 0.15909 0.75147 0.21613
 H1796 H 0.20342 0.76914 0.16289
 C1797 C 0.57333 0.25427 0.62073
 C1798 C 0.59612 0.25860 0.61651
 C1799 C 0.60240 0.26301 0.59423
 C1800 C 0.58642 0.26366 0.57723
 C1801 C 0.56394 0.25970 0.58178
 C1802 C 0.55759 0.25479 0.60361
 C1803 C 0.62462 0.26672 0.58890
 C1804 C 0.64097 0.26598 0.60515
 C1805 C 0.63573 0.26175 0.62764
 C1806 C 0.61286 0.25850 0.63349
 C1807 C 0.60748 0.25554 0.65615
 C1808 C 0.62379 0.25534 0.67248
 C1809 C 0.64615 0.25781 0.66698
 C1810 C 0.65255 0.26089 0.64451
 C1811 C 0.67559 0.26280 0.63993
 C1812 C 0.69138 0.26191 0.65695
 C1813 C 0.68489 0.25913 0.67913
 C1814 C 0.66217 0.25713 0.68396
 H1815 H 0.56707 0.25018 0.63699
 H1816 H 0.59157 0.26695 0.56027
 H1817 H 0.54031 0.25159 0.60751
 H1818 H 0.62948 0.27015 0.57188
 H1819 H 0.65763 0.26917 0.59949
 H1820 H 0.59067 0.25367 0.66196
 H1821 H 0.61882 0.25310 0.68966
 H1822 H 0.68208 0.26472 0.62337
 H1823 H 0.70880 0.26346 0.65265
 H1824 H 0.65686 0.25482 0.70103
 C1825 C 0.91330 0.23382 0.11783
 C1826 C 0.89037 0.23091 0.11338
 C1827 C 0.88372 0.22873 0.09082
 C1828 C 0.89960 0.22905 0.07365
 C1829 C 0.92213 0.23228 0.07850
 C1830 C 0.92878 0.23453 0.10067
 C1831 C 0.86125 0.22665 0.08552
 C1832 C 0.84508 0.22738 0.10200
 C1833 C 0.85080 0.22981 0.12466
 C1834 C 0.87388 0.23070 0.13048
 C1835 C 0.87972 0.23131 0.15322
 C1836 C 0.86370 0.23216 0.16970
 C1837 C 0.84120 0.23260 0.16429
 C1838 C 0.83429 0.23134 0.14177
 C1839 C 0.81114 0.23209 0.13741
 C1840 C 0.79572 0.23403 0.15469
 C1841 C 0.80277 0.23529 0.17688
 C1842 C 0.82559 0.23440 0.18147
 H1843 H 0.91988 0.23621 0.13430
 H1844 H 0.89437 0.22751 0.05645
 H1845 H 0.94616 0.23691 0.10478
 H1846 H 0.85604 0.22483 0.06834
 H1847 H 0.82816 0.22577 0.09640
 H1848 H 0.89666 0.23085 0.15899
 H1849 H 0.86903 0.23275 0.18692
 H1850 H 0.80435 0.23157 0.12084
 H1851 H 0.77819 0.23461 0.15059
 H1852 H 0.83136 0.23528 0.19854
 C1853 C 0.38417 0.74745 0.57804
 C1854 C 0.38567 0.74206 0.60096
 C1855 C 0.40683 0.73580 0.60932
 C1856 C 0.42540 0.73476 0.59524
 C1857 C 0.42359 0.74009 0.57264
 C1858 C 0.40284 0.74652 0.56422
 C1859 C 0.40952 0.73069 0.63174
 C1860 C 0.39173 0.73182 0.64631
 C1861 C 0.37026 0.73802 0.63901
 C1862 C 0.36707 0.74285 0.61589
 C1863 C 0.34540 0.74819 0.60850
 C1864 C 0.32756 0.74915 0.62314
 C1865 C 0.33048 0.74502 0.64578
 C1866 C 0.35188 0.73948 0.65408
 C1867 C 0.35398 0.73578 0.67724
 C1868 C 0.33572 0.73745 0.69136
 C1869 C 0.31458 0.74281 0.68311
 C1870 C 0.31208 0.74649 0.66020
 H1871 H 0.36890 0.75262 0.57024
 H1872 H 0.44147 0.73016 0.60201
 H1873 H 0.40099 0.75063 0.54678
 H1874 H 0.42565 0.72583 0.63818
 H1875 H 0.39546 0.72749 0.66327
 H1876 H 0.34156 0.75158 0.59134
 H1877 H 0.31126 0.75329 0.61664
 H1878 H 0.36951 0.73174 0.68517
 H1879 H 0.33827 0.73434 0.70893
 H1880 H 0.29585 0.75071 0.65357
 C1881 C 0.26457 0.08391 0.88465
 C1882 C 0.25263 0.10415 0.88641
 C1883 C 0.24179 0.10867 0.90686
 C1884 C 0.24211 0.09305 0.92424
 C1885 C 0.25348 0.07286 0.92191
 C1886 C 0.26492 0.06861 0.90211
 C1887 C 0.23052 0.12868 0.90987
 C1888 C 0.22987 0.14454 0.89312
 C1889 C 0.24018 0.14085 0.87235
 C1890 C 0.25117 0.12004 0.86870
 C1891 C 0.25990 0.11564 0.84735
 C1892 C 0.25842 0.13115 0.83029
 C1893 C 0.24861 0.15185 0.83384
 C1894 C 0.23959 0.15715 0.85498
 C1895 C 0.23062 0.17872 0.85791
 C1896 C 0.23046 0.19411 0.84058
 C1897 C 0.23906 0.18865 0.81964
 C1898 C 0.24798 0.16738 0.81634
 H1899 H 0.27394 0.07941 0.87009
 H1900 H 0.23351 0.09661 0.93967
 H1901 H 0.27380 0.05308 0.89988
 H1902 H 0.22213 0.13218 0.92543
 H1903 H 0.22060 0.15939 0.89687
 H1904 H 0.26762 0.10006 0.84307
 H1905 H 0.26524 0.12693 0.81415
 H1906 H 0.22398 0.18449 0.87350
 H1907 H 0.22346 0.21044 0.84362
 H1908 H 0.25491 0.16307 0.80027
 C1909 C 0.75353 0.58236 0.38365
 C1910 C 0.74979 0.60507 0.38861
 C1911 C 0.74813 0.61117 0.41136
 C1912 C 0.74990 0.59502 0.42822
 C1913 C 0.75391 0.57271 0.42289
 C1914 C 0.75557 0.56658 0.40051
 C1915 C 0.74501 0.63338 0.41718
 C1916 C 0.74413 0.64988 0.40102
 C1917 C 0.74606 0.64477 0.37817
 C1918 C 0.74814 0.62191 0.37184
 C1919 C 0.74850 0.61664 0.34895
 C1920 C 0.74781 0.63308 0.33279
 C1921 C 0.74694 0.65546 0.33867
 C1922 C 0.74599 0.66173 0.36139
 C1923 C 0.74546 0.68476 0.36631
 C1924 C 0.74601 0.70068 0.34941
 C1925 C 0.74704 0.69435 0.32700
 C1926 C 0.74726 0.67163 0.32181
 H1927 H 0.75541 0.57617 0.36697
 H1928 H 0.74877 0.59989 0.44555
 H1929 H 0.75840 0.54937 0.39596
 H1930 H 0.74354 0.63814 0.43451
 H1931 H 0.74171 0.66655 0.40706
 H1932 H 0.74910 0.59983 0.34283
 H1933 H 0.74827 0.62819 0.31545
 H1934 H 0.74507 0.69112 0.38303
 H1935 H 0.74578 0.71810 0.35402
 H1936 H 0.74806 0.66643 0.30456
 C1937 C 0.75645 0.11194 0.07447
 C1938 C 0.74790 0.10826 0.09610
 C1939 C 0.74188 0.08618 0.10184
 C1940 C 0.74409 0.06878 0.08641
 C1941 C 0.75248 0.07280 0.06508
 C1942 C 0.75864 0.09451 0.05933
 C1943 C 0.73367 0.08149 0.12297
 C1944 C 0.73153 0.09815 0.13878
 C1945 C 0.73741 0.12040 0.13405
 C1946 C 0.74531 0.12563 0.11220
 C1947 C 0.75029 0.14805 0.10718
 C1948 C 0.74816 0.16470 0.12300
 C1949 C 0.74118 0.15979 0.14453
 C1950 C 0.73568 0.13761 0.15043
 C1951 C 0.72907 0.13357 0.17266
 C1952 C 0.72829 0.15072 0.18824
 C1953 C 0.73388 0.17255 0.18232
 C1954 C 0.74003 0.17700 0.16030
 H1955 H 0.76171 0.12802 0.06864
 H1956 H 0.73949 0.05198 0.09111
 H1957 H 0.76489 0.09816 0.04284
 H1958 H 0.72893 0.06467 0.12742
 H1959 H 0.72499 0.09294 0.15459
 H1960 H 0.75581 0.15343 0.09104
 H1961 H 0.75229 0.18163 0.11837
 H1962 H 0.72479 0.11731 0.17880
 H1963 H 0.72344 0.14677 0.20513
 H1964 H 0.74462 0.19378 0.15555
 C1965 C 0.26545 0.57255 0.61179
 C1966 C 0.25279 0.59241 0.61041
 C1967 C 0.24044 0.59620 0.59064
 C1968 C 0.24032 0.58038 0.57347
 C1969 C 0.25314 0.56104 0.57508
 C1970 C 0.26575 0.55729 0.59427
 C1971 C 0.22864 0.61597 0.58786
 C1972 C 0.22933 0.63249 0.60395
 C1973 C 0.24146 0.62965 0.62387
 C1974 C 0.25244 0.60885 0.62764
 C1975 C 0.26239 0.60508 0.64859
 C1976 C 0.26209 0.62123 0.66512
 C1977 C 0.25251 0.64201 0.66124
 C1978 C 0.24255 0.64675 0.64038
 C1979 C 0.23442 0.66859 0.63681
 C1980 C 0.23536 0.68462 0.65357
 C1981 C 0.24418 0.67946 0.67449
 C1982 C 0.25287 0.65812 0.67816
 H1983 H 0.27594 0.56869 0.62580
 H1984 H 0.23095 0.58354 0.55836
 H1985 H 0.27601 0.54253 0.59562
 H1986 H 0.21905 0.61888 0.57286
 H1987 H 0.21962 0.64716 0.60053
 H1988 H 0.27003 0.58948 0.65301
 H1989 H 0.26970 0.61748 0.68104
 H1990 H 0.22763 0.67396 0.62111
 H1991 H 0.22876 0.70106 0.65023
 H1992 H 0.26019 0.65412 0.69418
 C1993 C 0.74361 0.91648 0.88158
 C1994 C 0.74950 0.89397 0.88560
 C1995 C 0.75619 0.88818 0.90748
 C1996 C 0.75755 0.90436 0.92418
 C1997 C 0.75210 0.92656 0.91980
 C1998 C 0.74486 0.93243 0.89846
 C1999 C 0.76160 0.86628 0.91269
 C2000 C 0.76040 0.84973 0.89673
 C2001 C 0.75391 0.85447 0.87465
 C2002 C 0.74889 0.87704 0.86883
 C2003 C 0.74385 0.88193 0.84641
 C2004 C 0.74355 0.86541 0.83026
 C2005 C 0.74780 0.84329 0.83578
 C2006 C 0.75268 0.83741 0.85811
 C2007 C 0.75599 0.81460 0.86295
 C2008 C 0.75518 0.79856 0.84628
 C2009 C 0.75102 0.80451 0.82413
 C2010 C 0.74723 0.82697 0.81903
 H2011 H 0.73781 0.92232 0.86566
 H2012 H 0.76266 0.89960 0.94082
 H2013 H 0.74047 0.94951 0.89474
 H2014 H 0.76683 0.86183 0.92938
 H2015 H 0.76519 0.83338 0.90224
 H2016 H 0.74046 0.89855 0.84063
 H2017 H 0.73982 0.87003 0.81322
 H2018 H 0.75900 0.80843 0.87949
 H2019 H 0.75803 0.78136 0.85084
 H2020 H 0.74378 0.83181 0.80200
 C2021 C 0.25782 0.42758 0.37237
 C2022 C 0.26167 0.40453 0.37574
 C2023 C 0.26559 0.39726 0.39784
 C2024 C 0.26599 0.41248 0.41549
 C2025 C 0.26240 0.43520 0.41184
 C2026 C 0.25814 0.44258 0.39017
 C2027 C 0.26907 0.37482 0.40237
 C2028 C 0.26855 0.35916 0.38550
 C2029 C 0.26463 0.36533 0.36317
 C2030 C 0.26158 0.38844 0.35812
 C2031 C 0.25872 0.39467 0.33564
 C2032 C 0.25850 0.37894 0.31873
 C2033 C 0.26087 0.35634 0.32343
 C2034 C 0.26382 0.34915 0.34571
 C2035 C 0.26564 0.32597 0.34956
 C2036 C 0.26478 0.31079 0.33208
 C2037 C 0.26209 0.31798 0.31008
 C2038 C 0.26020 0.34086 0.30589
 H2039 H 0.25434 0.43460 0.35626
 H2040 H 0.26876 0.40650 0.43229
 H2041 H 0.25527 0.46008 0.38692
 H2042 H 0.27218 0.36923 0.41924
 H2043 H 0.27157 0.34227 0.39061
 H2044 H 0.25684 0.41171 0.33046
 H2045 H 0.25632 0.38455 0.30172
 H2046 H 0.26751 0.31886 0.36588
 H2047 H 0.26634 0.29324 0.33591
 H2048 H 0.25797 0.34668 0.28896
 C2049 C 0.23196 0.88587 0.07490
 C2050 C 0.24563 0.88713 0.09410
 C2051 C 0.25982 0.90585 0.09618
 C2052 C 0.26083 0.92194 0.07935
 C2053 C 0.24732 0.92036 0.06049
 C2054 C 0.23272 0.90237 0.05848
 C2055 C 0.27286 0.90860 0.11513
 C2056 C 0.27179 0.89347 0.13248
 C2057 C 0.25793 0.87457 0.13136
 C2058 C 0.24543 0.87078 0.11145
 C2059 C 0.23358 0.85061 0.10941
 C2060 C 0.23361 0.83486 0.12637
 C2061 C 0.24480 0.83885 0.14630
 C2062 C 0.25662 0.85904 0.14931
 C2063 C 0.26638 0.86301 0.17037
 C2064 C 0.26522 0.84722 0.18728
 C2065 C 0.25448 0.82686 0.18387
 C2066 C 0.24419 0.82279 0.16333
 H2067 H 0.22011 0.87269 0.07234
 H2068 H 0.27177 0.93616 0.08121
 H2069 H 0.22195 0.90102 0.04410
 H2070 H 0.28386 0.92279 0.11669
 H2071 H 0.28263 0.89676 0.14636
 H2072 H 0.22460 0.84618 0.09454
 H2073 H 0.22454 0.81947 0.12393
 H2074 H 0.27462 0.87836 0.17452
 H2075 H 0.27308 0.85089 0.20307
 H2076 H 0.23539 0.80727 0.16073
 C2077 C 0.77137 0.38269 0.57234
 C2078 C 0.75842 0.38404 0.59198
 C2079 C 0.74516 0.40333 0.59503
 C2080 C 0.74442 0.42001 0.57869
 C2081 C 0.75752 0.41844 0.55956
 C2082 C 0.77104 0.39977 0.55656
 C2083 C 0.73302 0.40613 0.61454
 C2084 C 0.73431 0.39060 0.63158
 C2085 C 0.74740 0.37121 0.62951
 C2086 C 0.75867 0.36730 0.60893
 C2087 C 0.76950 0.34668 0.60590
 C2088 C 0.76989 0.33070 0.62261
 C2089 C 0.76019 0.33485 0.64324
 C2090 C 0.74922 0.35537 0.64718
 C2091 C 0.74089 0.35933 0.66883
 C2092 C 0.74275 0.34330 0.68551
 C2093 C 0.75275 0.32270 0.68123
 C2094 C 0.76146 0.31859 0.66002
 H2095 H 0.78253 0.36906 0.56906
 H2096 H 0.73431 0.43473 0.58126
 H2097 H 0.78150 0.39845 0.54196
 H2098 H 0.72270 0.42074 0.61687
 H2099 H 0.72431 0.39400 0.64603
 H2100 H 0.77732 0.34210 0.59046
 H2101 H 0.77819 0.31500 0.61942
 H2102 H 0.73327 0.37484 0.67359
 H2103 H 0.73594 0.34693 0.70179
 H2104 H 0.76952 0.30281 0.65666
 C2105 C 0.06640 0.11635 0.74862
 C2106 C 0.08952 0.11375 0.75255
 C2107 C 0.09739 0.09199 0.75719
 C2108 C 0.08269 0.07393 0.75818
 C2109 C 0.05988 0.07685 0.75454
 C2110 C 0.05192 0.09817 0.74958
 C2111 C 0.11993 0.08823 0.76087
 C2112 C 0.13507 0.10555 0.75996
 C2113 C 0.12827 0.12758 0.75538
 C2114 C 0.10507 0.13183 0.75196
 C2115 C 0.09822 0.15401 0.74825
 C2116 C 0.11342 0.17139 0.74769
 C2117 C 0.13609 0.16747 0.75055
 C2118 C 0.14391 0.14551 0.75427
 C2119 C 0.16714 0.14245 0.75660
 C2120 C 0.18177 0.16037 0.75552
 C2121 C 0.17397 0.18207 0.75209
 C2122 C 0.15102 0.18547 0.74963
 H2123 H 0.05892 0.13214 0.74467
 H2124 H 0.08909 0.05740 0.76155
 H2125 H 0.03434 0.10087 0.74674
 H2126 H 0.12599 0.07163 0.76452
 H2127 H 0.15207 0.10103 0.76322
 H2128 H 0.08108 0.15861 0.74593
 H2129 H 0.10732 0.18814 0.74488
 H2130 H 0.17471 0.12642 0.75909
 H2131 H 0.19938 0.15711 0.75746
 H2132 H 0.14471 0.20214 0.74685
 C2133 C 0.61886 0.58707 0.27240
 C2134 C 0.61494 0.60978 0.26744
 C2135 C 0.59262 0.61637 0.26346
 C2136 C 0.57523 0.60069 0.26407
 C2137 C 0.57951 0.57828 0.26891
 C2138 C 0.60147 0.57173 0.27309
 C2139 C 0.58773 0.63857 0.25888
 C2140 C 0.60442 0.65451 0.25818
 C2141 C 0.62694 0.64889 0.26186
 C2142 C 0.63231 0.62609 0.26632
 C2143 C 0.65490 0.62032 0.26932
 C2144 C 0.67163 0.63615 0.26813
 C2145 C 0.66670 0.65843 0.26408
 C2146 C 0.64431 0.66524 0.26105
 C2147 C 0.64033 0.68820 0.25743
 C2148 C 0.65780 0.70349 0.25664
 C2149 C 0.67991 0.69659 0.25934
 C2150 C 0.68416 0.67395 0.26309
 H2151 H 0.63513 0.58050 0.27591
 H2152 H 0.55827 0.60601 0.26104
 H2153 H 0.60535 0.55448 0.27660
 H2154 H 0.57072 0.64373 0.25583
 H2155 H 0.59905 0.67118 0.25443
 H2156 H 0.66036 0.60356 0.27241
 H2157 H 0.68871 0.63084 0.27046
 H2158 H 0.62392 0.69502 0.25530
 H2159 H 0.65389 0.72086 0.25384
 H2160 H 0.70114 0.66834 0.26545
 C2161 C 0.09051 0.90300 0.28001
 C2162 C 0.10749 0.90100 0.26394
 C2163 C 0.10936 0.91812 0.24786
 C2164 C 0.09388 0.93565 0.24717
 C2165 C 0.07660 0.93720 0.26288
 C2166 C 0.07553 0.92073 0.27953
 C2167 C 0.12673 0.91773 0.23253
 C2168 C 0.14257 0.90093 0.23304
 C2169 C 0.14130 0.88334 0.24857
 C2170 C 0.12287 0.88282 0.26355
 C2171 C 0.12013 0.86392 0.27725
 C2172 C 0.13528 0.84647 0.27690
 C2173 C 0.15409 0.84740 0.26343
 C2174 C 0.15762 0.86602 0.24935
 C2175 C 0.17763 0.86676 0.23702
 C2176 C 0.19320 0.84961 0.23846
 C2177 C 0.18929 0.83101 0.25190
 C2178 C 0.16959 0.82988 0.26420
 H2179 H 0.08848 0.89129 0.29343
 H2180 H 0.09599 0.94855 0.23477
 H2181 H 0.06240 0.92068 0.29180
 H2182 H 0.12824 0.93071 0.22010
 H2183 H 0.15531 0.90183 0.22049
 H2184 H 0.10600 0.86179 0.28802
 H2185 H 0.13238 0.83224 0.28758
 H2186 H 0.18210 0.88064 0.22662
 H2187 H 0.20839 0.85088 0.22888
 H2188 H 0.16666 0.81568 0.27494
 C2189 C 0.57593 0.38619 0.73217
 C2190 C 0.59899 0.39082 0.73155
 C2191 C 0.60563 0.41345 0.73055
 C2192 C 0.58967 0.43056 0.72999
 C2193 C 0.56701 0.42553 0.73116
 C2194 C 0.56033 0.40328 0.73204
 C2195 C 0.62814 0.41892 0.73062
 C2196 C 0.64430 0.40251 0.73245
 C2197 C 0.63857 0.37977 0.73392
 C2198 C 0.61558 0.37380 0.73254
 C2199 C 0.60990 0.35101 0.73223
 C2200 C 0.62594 0.33461 0.73430
 C2201 C 0.64825 0.34015 0.73691
 C2202 C 0.65502 0.36274 0.73669
 C2203 C 0.67794 0.36726 0.73965
 C2204 C 0.69330 0.35006 0.74259
 C2205 C 0.68642 0.32779 0.74275
 C2206 C 0.66382 0.32304 0.73980
 H2207 H 0.56928 0.36963 0.73341
 H2208 H 0.59488 0.44782 0.72948
 H2209 H 0.54283 0.39908 0.73281
 H2210 H 0.63334 0.43616 0.72967
 H2211 H 0.66125 0.40824 0.73248
 H2212 H 0.59313 0.34515 0.73014
 H2213 H 0.62074 0.31734 0.73410
 H2214 H 0.68458 0.38388 0.74010
 H2215 H 0.71066 0.35429 0.74479
 H2216 H 0.65820 0.30590 0.73979
 C2217 C 0.88267 0.07476 0.26474
 C2218 C 0.87950 0.09245 0.24946
 C2219 C 0.89697 0.09694 0.23427
 C2220 C 0.91662 0.08433 0.23460
 C2221 C 0.91962 0.06716 0.25007
 C2222 C 0.90240 0.06243 0.26500
 C2223 C 0.89497 0.11420 0.21896
 C2224 C 0.87640 0.12784 0.21887
 C2225 C 0.85889 0.12475 0.23419
 C2226 C 0.85999 0.10619 0.24908
 C2227 C 0.84163 0.10216 0.26316
 C2228 C 0.82335 0.11634 0.26350
 C2229 C 0.82271 0.13532 0.25017
 C2230 C 0.84045 0.13977 0.23525
 C2231 C 0.83940 0.15961 0.22262
 C2232 C 0.82192 0.17455 0.22521
 C2233 C 0.80465 0.17024 0.24016
 C2234 C 0.80476 0.15030 0.25219
 H2235 H 0.87043 0.07024 0.27699
 H2236 H 0.92994 0.08838 0.22317
 H2237 H 0.90416 0.04907 0.27697
 H2238 H 0.90811 0.11744 0.20707
 H2239 H 0.87629 0.14066 0.20637
 H2240 H 0.84083 0.08806 0.27418
 H2241 H 0.80978 0.11268 0.27478
 H2242 H 0.85217 0.16462 0.21115
 H2243 H 0.82209 0.18983 0.21563
 H2244 H 0.79150 0.14700 0.26393
 C2245 C 0.37552 0.57146 0.72472
 C2246 C 0.37807 0.59398 0.73132
 C2247 C 0.39977 0.60121 0.73707
 C2248 C 0.41781 0.58654 0.73638
 C2249 C 0.41493 0.56427 0.73036
 C2250 C 0.39371 0.55691 0.72425
 C2251 C 0.40351 0.62306 0.74363
 C2252 C 0.38609 0.63797 0.74533
 C2253 C 0.36402 0.63160 0.74051
 C2254 C 0.35998 0.60948 0.73268
 C2255 C 0.33808 0.60374 0.72638
 C2256 C 0.32071 0.61897 0.72786
 C2257 C 0.32429 0.64035 0.73613
 C2258 C 0.34593 0.64683 0.74293
 C2259 C 0.34857 0.66831 0.75211
 C2260 C 0.33080 0.68301 0.75338
 C2261 C 0.30963 0.67695 0.74583
 C2262 C 0.30637 0.65539 0.73754
 H2263 H 0.35968 0.56444 0.72021
 H2264 H 0.43428 0.59251 0.74066
 H2265 H 0.39106 0.53971 0.71960
 H2266 H 0.42015 0.62872 0.74767
 H2267 H 0.39067 0.65457 0.75018
 H2268 H 0.33382 0.58760 0.71990
 H2269 H 0.30424 0.61388 0.72260
 H2270 H 0.36406 0.67432 0.75875
 H2271 H 0.33379 0.69936 0.76036
 H2272 H 0.29001 0.65045 0.73178
 C2273 C 0.92210 0.87871 0.74982
 C2274 C 0.89923 0.88067 0.75519
 C2275 C 0.89116 0.90214 0.76072
 C2276 C 0.90549 0.92052 0.76121
 C2277 C 0.92808 0.91821 0.75615
 C2278 C 0.93620 0.89720 0.75027
 C2279 C 0.86881 0.90528 0.76578
 C2280 C 0.85403 0.88763 0.76536
 C2281 C 0.86104 0.86588 0.75993
 C2282 C 0.88409 0.86224 0.75516
 C2283 C 0.89122 0.84029 0.75073
 C2284 C 0.87642 0.82256 0.75070
 C2285 C 0.85386 0.82591 0.75479
 C2286 C 0.84577 0.84761 0.75929
 C2287 C 0.82263 0.85012 0.76278
 C2288 C 0.80834 0.83191 0.76203
 C2289 C 0.81643 0.81046 0.75781
 C2290 C 0.83930 0.80760 0.75427
 H2291 H 0.92967 0.86318 0.74509
 H2292 H 0.89895 0.93682 0.76532
 H2293 H 0.95362 0.89498 0.74632
 H2294 H 0.86261 0.92166 0.77012
 H2295 H 0.83716 0.89167 0.76970
 H2296 H 0.90831 0.83613 0.74743
 H2297 H 0.88272 0.80601 0.74728
 H2298 H 0.81485 0.86594 0.76589
 H2299 H 0.79079 0.83472 0.76486
 H2300 H 0.84578 0.79113 0.75084
 C2301 C 0.40180 0.41996 0.22887
 C2302 C 0.40024 0.40120 0.24306
 C2303 C 0.41685 0.39853 0.25962
 C2304 C 0.43326 0.41487 0.26272
 C2305 C 0.43404 0.43366 0.24898
 C2306 C 0.41849 0.43582 0.23180
 C2307 C 0.41691 0.37967 0.27312
 C2308 C 0.40096 0.36318 0.27047
 C2309 C 0.38376 0.36526 0.25460
 C2310 C 0.38289 0.38501 0.24131
 C2311 C 0.36432 0.38827 0.22728
 C2312 C 0.34735 0.37269 0.22601
 C2313 C 0.34848 0.35289 0.23804
 C2314 C 0.36698 0.34856 0.25205
 C2315 C 0.36799 0.32755 0.26271
 C2316 C 0.35100 0.31194 0.26006
 C2317 C 0.33232 0.31682 0.24704
 C2318 C 0.33118 0.33733 0.23606
 H2319 H 0.39058 0.42272 0.21516
 H2320 H 0.44556 0.41296 0.27579
 H2321 H 0.41894 0.45017 0.22089
 H2322 H 0.42953 0.37755 0.28583
 H2323 H 0.40209 0.34930 0.28175
 H2324 H 0.36200 0.40317 0.21760
 H2325 H 0.33324 0.37611 0.21530
 H2326 H 0.38190 0.32246 0.27280
 H2327 H 0.35231 0.29609 0.26855
 H2328 H 0.31696 0.34101 0.22558
   
