data_POSCAR
  _audit_creation_date              2014-09-24
  _audit_creation_method            'ToBaCCo'
  _symmetry_space_group_name_H-M    'P1'
  _symmetry_Int_Tables_number       1
  _symmetry_cell_setting            triclinic
  loop_
  _symmetry_equiv_pos_as_xyz
 x,y,z
_cell_length_a 74.9006
_cell_length_b 75.4167
_cell_length_c 74.7210
_cell_angle_alpha 89.938300
_cell_angle_beta 89.668700
_cell_angle_gamma 90.380300
loop_
  _atom_site_label
  _atom_site_type_symbol
  _atom_site_fract_x
  _atom_site_fract_y
  _atom_site_fract_z
C1 C 0.11865 -0.00398 0.23294
 C2 C 0.12843 0.01379 0.23404
 C3 C 0.13898 0.01576 0.24863
 C4 C 0.13898 -0.00055 0.26103
 C5 C 0.13329 -0.01797 0.23428
 C6 C 0.14402 -0.01624 0.24881
 C7 C 0.10858 -0.00567 0.25086
 C8 C 0.11904 -0.00354 0.26564
 H9 H 0.12700 0.02403 0.22397
 H10 H 0.14784 0.00110 0.27275
 H11 H 0.13427 -0.02907 0.22516
 H12 H 0.09461 -0.00923 0.25180
 C13 C 0.38138 0.00288 0.73455
 C14 C 0.36815 -0.01260 0.73494
 C15 C 0.35732 -0.01301 0.74957
 C16 C 0.36076 0.00235 0.76272
 C17 C 0.36985 0.01947 0.73660
 C18 C 0.35894 0.01926 0.75122
 C19 C 0.39100 0.00180 0.75138
 C20 C 0.37982 0.00133 0.76713
 H21 H 0.36800 -0.02285 0.72479
 H22 H 0.35121 0.00193 0.77403
 H23 H 0.37105 0.03086 0.72782
 H24 H 0.40513 0.00461 0.75210
 C25 C 0.88062 0.50062 0.23644
 C26 C 0.86765 0.48493 0.23636
 C27 C 0.85643 0.48416 0.25068
 C28 C 0.85920 0.49935 0.26412
 C29 C 0.86883 0.51696 0.23853
 C30 C 0.85755 0.51638 0.25283
 C31 C 0.89028 0.49932 0.25450
 C32 C 0.87918 0.49843 0.26908
 H33 H 0.86792 0.47480 0.22610
 H34 H 0.84970 0.49872 0.27553
 H35 H 0.86991 0.52841 0.22980
 H36 H 0.90456 0.50069 0.25585
 C37 C 0.61958 0.49837 0.73513
 C38 C 0.63229 0.51429 0.73518
 C39 C 0.64338 0.51508 0.74948
 C40 C 0.64080 0.49966 0.76274
 C41 C 0.63167 0.48221 0.73699
 C42 C 0.64294 0.48283 0.75120
 C43 C 0.60978 0.49926 0.75324
 C44 C 0.62077 0.50019 0.76775
 H45 H 0.63189 0.52456 0.72505
 H46 H 0.65010 0.50033 0.77422
 H47 H 0.63101 0.47098 0.72799
 H48 H 0.59548 0.49796 0.75467
 C49 C 0.23318 0.11604 0.99624
 C50 C 0.23272 0.12829 1.01246
 C51 C 0.24720 0.13908 1.01413
 C52 C 0.26093 0.13701 0.99890
 C53 C 0.23596 0.12835 0.98015
 C54 C 0.25041 0.13931 0.98142
 C55 C 0.25106 0.10622 0.99771
 C56 C 0.26558 0.11715 0.99920
 H57 H 0.22204 0.12780 1.02230
 H58 H 0.27267 0.14597 1.00015
 H59 H 0.22762 0.12782 0.96837
 H60 H 0.25242 0.09204 0.99618
 C61 C 0.73134 0.38312 0.99859
 C62 C 0.73269 0.37254 0.98240
 C63 C 0.74805 0.36138 0.98145
 C64 C 0.75907 0.36263 0.99767
 C65 C 0.73152 0.36992 1.01284
 C66 C 0.74699 0.35874 1.01284
 C67 C 0.74825 0.39259 0.99995
 C68 C 0.76387 0.38156 0.99930
 H69 H 0.72148 0.37063 0.97349
 H70 H 0.77048 0.35363 0.99694
 H71 H 0.72121 0.36910 1.02297
 H72 H 0.74859 0.40670 1.00250
 C73 C 0.23508 0.88456 0.49785
 C74 C 0.23642 0.87207 0.48187
 C75 C 0.25118 0.86172 0.48165
 C76 C 0.26342 0.86454 0.49788
 C77 C 0.23665 0.87261 0.51431
 C78 C 0.25146 0.86227 0.51454
 C79 C 0.25284 0.89502 0.49755
 C80 C 0.26768 0.88455 0.49758
 H81 H 0.22683 0.87214 0.47106
 H82 H 0.27538 0.85592 0.49773
 H83 H 0.22737 0.87328 0.52546
 H84 H 0.25386 0.90925 0.49876
 C85 C 0.73560 0.61724 0.49753
 C86 C 0.73573 0.62907 0.51408
 C87 C 0.75049 0.63948 0.51574
 C88 C 0.76389 0.63749 0.50022
 C89 C 0.73840 0.62989 0.48172
 C90 C 0.75313 0.64048 0.48300
 C91 C 0.75326 0.60696 0.49843
 C92 C 0.76806 0.61751 0.49992
 H93 H 0.72522 0.62859 0.52410
 H94 H 0.77585 0.64614 0.50148
 H95 H 0.72983 0.62986 0.47009
 H96 H 0.75426 0.59280 0.49652
 C97 C -0.00360 0.23042 0.11602
 C98 C 0.01390 0.23137 0.12635
 C99 C 0.01581 0.24597 0.13680
 C100 C -0.00031 0.25849 0.13620
 C101 C -0.01824 0.23220 0.13025
 C102 C -0.01662 0.24673 0.14089
 C103 C -0.00443 0.24805 0.10570
 C104 C -0.00238 0.26284 0.11611
 H105 H 0.02407 0.22127 0.12523
 H106 H 0.00128 0.27016 0.14505
 H107 H -0.02968 0.22335 0.13096
 H108 H -0.00745 0.24886 0.09161
 C109 C 0.00151 0.73129 0.38494
 C110 C -0.01333 0.73110 0.37268
 C111 C -0.01458 0.74627 0.36124
 C112 C 0.00017 0.75887 0.36397
 C113 C 0.01814 0.73381 0.37318
 C114 C 0.01760 0.74822 0.36222
 C115 C 0.00005 0.74904 0.39504
 C116 C -0.00061 0.76353 0.38408
 H117 H -0.02213 0.71971 0.37178
 H118 H -0.00004 0.77079 0.35535
 H119 H 0.02985 0.72554 0.37436
 H120 H 0.00146 0.75033 0.40937
 C121 C 0.50069 0.23692 0.88564
 C122 C 0.48316 0.23841 0.87545
 C123 C 0.48190 0.25295 0.86481
 C124 C 0.49858 0.26496 0.86523
 C125 C 0.51528 0.23815 0.87130
 C126 C 0.51430 0.25267 0.86060
 C127 C 0.50236 0.25459 0.89582
 C128 C 0.50101 0.26938 0.88528
 H129 H 0.47258 0.22859 0.87661
 H130 H 0.49750 0.27658 0.85623
 H131 H 0.52628 0.22890 0.87057
 H132 H 0.50553 0.25545 0.90985
 C133 C 0.49731 0.73727 0.61691
 C134 C 0.51515 0.73836 0.62663
 C135 C 0.51720 0.75286 0.63719
 C136 C 0.50093 0.76518 0.63726
 C137 C 0.48315 0.73873 0.63165
 C138 C 0.48497 0.75316 0.64240
 C139 C 0.49592 0.75498 0.60680
 C140 C 0.49812 0.76968 0.61729
 H141 H 0.52538 0.72836 0.62516
 H142 H 0.50268 0.77681 0.64616
 H143 H 0.47194 0.72964 0.63278
 H144 H 0.49252 0.75591 0.59281
 C145 C 0.88083 1.00373 0.76720
 C146 C 0.87067 1.01984 0.76440
 C147 C 0.85931 1.01956 0.74899
 C148 C 0.86008 1.00264 0.73936
 C149 C 0.86656 0.98909 0.76806
 C150 C 0.85583 0.98826 0.75347
 C151 C 0.89074 1.00055 0.74950
 C152 C 0.87999 1.00002 0.73486
 H153 H 0.86898 1.02969 0.77472
 H154 H 0.85150 1.00157 0.72741
 H155 H 0.86575 0.97951 0.77886
 H156 H 0.90515 0.99969 0.74864
 C157 C 0.38070 0.50585 0.26883
 C158 C 0.36800 0.52142 0.26601
 C159 C 0.35702 0.51965 0.25165
 C160 C 0.36003 0.50239 0.24100
 C161 C 0.36865 0.48945 0.26938
 C162 C 0.35786 0.48751 0.25495
 C163 C 0.39082 0.50457 0.25094
 C164 C 0.38015 0.50245 0.23632
 H165 H 0.36823 0.53322 0.27425
 H166 H 0.35095 0.50080 0.22944
 H167 H 0.36934 0.47970 0.28001
 H168 H 0.40509 0.50648 0.24977
 C169 C 0.61772 0.99573 0.26463
 C170 C 0.63003 0.97978 0.26229
 C171 C 0.64113 0.98093 0.24788
 C172 C 0.63871 0.99806 0.23680
 C173 C 0.62943 1.01104 0.26475
 C174 C 0.64103 1.01263 0.24954
 C175 C 0.60775 0.99667 0.24669
 C176 C 0.61864 0.99813 0.23198
 H177 H 0.62932 0.96811 0.27074
 H178 H 0.64801 0.99855 0.22527
 H179 H 0.62790 1.02143 0.27462
 H180 H 0.59351 0.99468 0.24561
 C181 C 0.11749 0.49937 0.76653
 C182 C 0.12914 0.48291 0.76453
 C183 C 0.14023 0.48321 0.75006
 C184 C 0.13851 0.50008 0.73853
 C185 C 0.13056 0.51498 0.76617
 C186 C 0.14156 0.51547 0.75167
 C187 C 0.10758 0.50043 0.74858
 C188 C 0.11847 0.50105 0.73383
 H189 H 0.12808 0.47160 0.77342
 H190 H 0.14785 0.50049 0.72699
 H191 H 0.13046 0.52529 0.77626
 H192 H 0.09328 0.49908 0.74747
 C193 C 0.76418 0.88221 0.00765
 C194 C 0.76180 0.86748 0.02160
 C195 C 0.74715 0.85704 0.01911
 C196 C 0.73584 0.86246 0.00285
 C197 C 0.76369 0.87275 -0.01039
 C198 C 0.74898 0.86249 -0.01304
 C199 C 0.74653 0.89242 0.00868
 C200 C 0.73164 0.88228 0.00583
 H201 H 0.77025 0.86620 0.03323
 H202 H 0.72400 0.85387 0.00063
 H203 H 0.77433 0.87403 -0.02020
 H204 H 0.74587 0.90632 0.01213
 C205 C 0.26583 0.38450 0.50431
 C206 C 0.26273 0.37193 0.52014
 C207 C 0.24868 0.36057 0.51812
 C208 C 0.23883 0.36281 0.50024
 C209 C 0.26733 0.37246 0.48798
 C210 C 0.25324 0.36130 0.48557
 C211 C 0.24777 0.39383 0.50220
 C212 C 0.23364 0.38254 0.49998
 H213 H 0.27053 0.37255 0.53228
 H214 H 0.22739 0.35357 0.49843
 H215 H 0.27845 0.37332 0.47868
 H216 H 0.24594 0.40793 0.50394
 C217 C 0.26566 0.61527 -0.00294
 C218 C 0.26264 0.62569 -0.02034
 C219 C 0.24753 0.63562 -0.02039
 C220 C 0.23688 0.63468 -0.00274
 C221 C 0.26544 0.62961 0.01153
 C222 C 0.25046 0.63967 0.01186
 C223 C 0.24832 0.60474 -0.00005
 C224 C 0.23317 0.61470 -0.00021
 H225 H 0.27186 0.62601 -0.03150
 H226 H 0.22477 0.64308 -0.00278
 H227 H 0.27614 0.63131 0.02108
 H228 H 0.24818 0.59045 0.00134
 C229 C 0.76816 0.11577 0.49587
 C230 C 0.76653 0.12678 0.48000
 C231 C 0.75183 0.13888 0.48042
 C232 C 0.74120 0.13720 0.49702
 C233 C 0.76865 0.12798 0.51081
 C234 C 0.75385 0.13985 0.51178
 C235 C 0.75090 0.10672 0.49714
 C236 C 0.73574 0.11840 0.49803
 H237 H 0.77395 0.12397 0.46786
 H238 H 0.73032 0.14687 0.49769
 H239 H 0.77832 0.12666 0.52145
 H240 H 0.74946 0.09279 0.49406
 C241 C 1.00664 0.76359 0.88464
 C242 C 1.02045 0.76173 0.86958
 C243 C 1.01789 0.74741 0.85881
 C244 C 1.00164 0.73589 0.86427
 C245 C 0.98859 0.76316 0.87530
 C246 C 0.98580 0.74878 0.86472
 C247 C 1.00769 0.74581 0.89462
 C248 C 1.00475 0.73123 0.88416
 H249 H 1.03206 0.77028 0.86833
 H250 H 0.99933 0.72434 0.85540
 H251 H 0.97881 0.77356 0.87694
 H252 H 1.01132 0.74483 0.90857
 C253 C 0.50335 0.26990 0.38700
 C254 C 0.51901 0.26748 0.37398
 C255 C 0.51742 0.25322 0.36292
 C256 C 0.50004 0.24254 0.36585
 C257 C 0.48679 0.27029 0.37523
 C258 C 0.48479 0.25601 0.36434
 C259 C 0.50220 0.25202 0.39690
 C260 C 0.50039 0.23769 0.38588
 H261 H 0.53074 0.27595 0.37410
 H262 H 0.49850 0.23095 0.35684
 H263 H 0.47705 0.28083 0.37603
 H264 H 0.50422 0.25053 0.41113
 C265 C 1.00075 0.26238 0.61436
 C266 C 0.98297 0.26012 0.62435
 C267 C 0.98188 0.24543 0.63489
 C268 C 0.99893 0.23417 0.63465
 C269 C 1.01497 0.26168 0.62889
 C270 C 1.01414 0.24710 0.63955
 C271 C 1.00295 0.24480 0.60412
 C272 C 1.00174 0.22999 0.61464
 H273 H 0.97200 0.26926 0.62275
 H274 H 0.99806 0.22233 0.64345
 H275 H 1.02545 0.27158 0.63001
 H276 H 1.00476 0.24387 0.58984
 C277 C 0.50372 0.76805 0.11569
 C278 C 0.48591 0.76591 0.12565
 C279 C 0.48474 0.75126 0.13626
 C280 C 0.50176 0.73994 0.13611
 C281 C 0.51790 0.76737 0.13024
 C282 C 0.51701 0.75285 0.14097
 C283 C 0.50583 0.75041 0.10553
 C284 C 0.50456 0.73566 0.11612
 H285 H 0.47495 0.77505 0.12393
 H286 H 0.50084 0.72814 0.14494
 H287 H 0.52840 0.77726 0.13134
 H288 H 0.50741 0.74940 0.09122
 O289 O -0.00927 0.98586 0.94912
 O290 O 0.01988 0.99562 0.94825
 O291 O -0.00974 0.94656 0.99106
 O292 O -0.00416 0.94514 1.02012
 O293 O -0.05081 0.98720 0.98946
 O294 O -0.05142 1.01745 0.99740
 O295 O 0.03489 0.99486 1.03850
 O296 O 0.03741 0.96731 1.02587
 O297 O 0.03848 1.03207 0.99707
 O298 O 0.02370 1.03631 0.96851
 O299 O -0.00319 1.03591 1.03439
 O300 O -0.03118 1.02083 1.03944
 O301 O 0.01005 1.00818 1.04964
 O302 O -0.02223 0.99842 1.05033
 O303 O 0.01026 1.04709 1.00950
 O304 O 0.00098 1.04702 0.97735
 O305 O 0.04960 1.00792 1.01121
 O306 O 0.04974 0.97771 0.99801
 O307 O -0.03396 0.99972 0.95997
 O308 O -0.03825 1.02770 0.97511
 O309 O -0.03979 0.96281 1.00328
 O310 O -0.02415 0.96060 1.03238
 O311 O 0.00333 0.95757 0.96585
 O312 O 0.03247 0.97322 0.96404
 Zr313 Zr 0.00764 0.98462 0.97139
 O314 O 0.02434 1.00127 0.98657
 Zr315 Zr -0.01270 0.96879 1.00772
 O316 O 0.00367 0.98424 1.02444
 Zr317 Zr -0.02867 1.00432 0.98726
 O318 O -0.01354 1.02144 1.00355
 Zr319 Zr 0.02817 0.98981 1.01181
 O320 O 0.01278 0.97219 0.99608
 Zr321 Zr 0.01171 1.02546 0.99183
 O322 O -0.00412 1.00973 0.97462
 Zr323 Zr -0.00809 1.00916 1.02818
 O324 O -0.02548 0.99303 1.01282
 O325 O -0.01737 0.97966 0.98268
 O326 O 0.01683 1.01452 1.01686
 C327 C -0.02484 0.99267 0.94720
 C328 C -0.00309 0.94474 0.97527
 C329 C -0.05263 0.97171 0.99642
 C330 C 0.02596 1.00205 1.05128
 C331 C 0.05120 1.02359 1.00464
 C332 C 0.00390 1.04870 1.02541
 H333 H 0.03583 1.00293 0.98019
 H334 H -0.02008 1.03266 1.00512
 H335 H -0.02490 0.97189 0.97512
 H336 H 0.00549 0.97789 1.03585
 H337 H 0.03479 0.95688 1.01826
 H338 H 0.00703 0.94805 1.02643
 H339 H -0.00987 1.05104 0.98374
 H340 H -0.02893 1.03166 0.96652
 H341 H 0.06047 0.97853 1.00570
 H342 H 0.03087 0.96624 0.95291
 H343 H -0.03591 1.02929 1.03056
 H344 H -0.05298 1.01338 1.00991
 H345 H 0.01576 1.00803 0.94735
 H346 H 0.03297 1.02795 0.96437
 H347 H -0.03389 0.96898 1.03517
 H348 H -0.01552 0.98805 1.05474
 O349 O 0.48948 0.49239 0.45195
 O350 O 0.51883 0.50170 0.45065
 O351 O 0.48912 0.45302 0.49387
 O352 O 0.49510 0.45150 0.52286
 O353 O 0.44868 0.49426 0.49284
 O354 O 0.44869 0.52455 0.50103
 O355 O 0.53519 0.50050 0.54069
 O356 O 0.53705 0.47292 0.52795
 O357 O 0.53882 0.53771 0.49920
 O358 O 0.52369 0.54219 0.47085
 O359 O 0.49770 0.54227 0.53710
 O360 O 0.46961 0.52761 0.54262
 O361 O 0.51077 0.51429 0.55218
 O362 O 0.47836 0.50506 0.55337
 O363 O 0.51098 0.55321 0.51200
 O364 O 0.50131 0.55330 0.48003
 O365 O 0.54971 0.51337 0.51319
 O366 O 0.54916 0.48318 0.49996
 O367 O 0.46522 0.50663 0.46325
 O368 O 0.46162 0.53463 0.47847
 O369 O 0.45953 0.46969 0.50645
 O370 O 0.47547 0.46726 0.53539
 O371 O 0.50190 0.46387 0.46844
 O372 O 0.53126 0.47901 0.46616
 Zr373 Zr 0.50676 0.49083 0.47394
 O374 O 0.52398 0.50716 0.48890
 Zr375 Zr 0.48674 0.47528 0.51059
 O376 O 0.50361 0.49046 0.52707
 Zr377 Zr 0.47104 0.51109 0.49043
 O378 O 0.48672 0.52794 0.50646
 Zr379 Zr 0.52800 0.49562 0.51408
 O380 O 0.51208 0.47829 0.49855
 Zr381 Zr 0.51185 0.53155 0.49435
 O382 O 0.49546 0.51612 0.47739
 Zr383 Zr 0.49233 0.51557 0.53100
 O384 O 0.47444 0.49972 0.51591
 O385 O 0.48187 0.48626 0.48564
 O386 O 0.51716 0.52052 0.51931
 C387 C 0.47398 0.49944 0.45031
 C388 C 0.49544 0.45113 0.47796
 C389 C 0.44674 0.47875 0.49971
 C390 C 0.52657 0.50785 0.55360
 C391 C 0.55150 0.52901 0.50659
 C392 C 0.50482 0.55494 0.52797
 H393 H 0.53541 0.50863 0.48235
 H394 H 0.48038 0.53927 0.50812
 H395 H 0.47411 0.47862 0.47817
 H396 H 0.50549 0.48407 0.53846
 H397 H 0.53413 0.46256 0.52036
 H398 H 0.50637 0.45425 0.52910
 H399 H 0.49057 0.55744 0.48651
 H400 H 0.47086 0.53848 0.46975
 H401 H 0.56001 0.48381 0.50749
 H402 H 0.52935 0.47210 0.45503
 H403 H 0.46481 0.53606 0.53377
 H404 H 0.44716 0.52030 0.51349
 H405 H 0.51482 0.51415 0.44980
 H406 H 0.53275 0.53368 0.46659
 H407 H 0.46590 0.47580 0.53829
 H408 H 0.48493 0.49455 0.55764
 O409 O 0.50812 0.05355 0.48831
 O410 O 0.49780 0.05479 0.51766
 O411 O 0.55078 0.01612 0.48979
 O412 O 0.55477 -0.01211 0.49732
 O413 O 0.50979 0.01175 0.44902
 O414 O 0.48001 0.00119 0.44905
 O415 O 0.50622 -0.03339 0.53748
 O416 O 0.53310 -0.01836 0.53897
 O417 O 0.46565 0.00405 0.53905
 O418 O 0.45893 0.03118 0.52297
 O419 O 0.46487 -0.03484 0.49913
 O420 O 0.48067 -0.03946 0.47112
 O421 O 0.49360 -0.04659 0.51326
 O422 O 0.50381 -0.04806 0.48105
 O423 O 0.45160 -0.01079 0.51154
 O424 O 0.44892 0.02055 0.50057
 O425 O 0.49113 -0.00713 0.55074
 O426 O 0.52033 0.00871 0.55008
 O427 O 0.49517 0.04045 0.46417
 O428 O 0.46802 0.02302 0.46120
 O429 O 0.53549 0.00094 0.46061
 O430 O 0.54034 -0.02670 0.47777
 O431 O 0.53760 0.04043 0.50184
 O432 O 0.52183 0.04204 0.53098
 Zr433 Zr 0.51098 0.03255 0.50658
 O434 O 0.49565 0.01673 0.52418
 Zr435 Zr 0.52997 -0.00269 0.48803
 O436 O 0.51590 -0.01994 0.50532
 Zr437 Zr 0.49251 0.01344 0.47116
 O438 O 0.47675 -0.00354 0.48724
 Zr439 Zr 0.50930 -0.00693 0.52923
 O440 O 0.52558 0.00961 0.51295
 Zr441 Zr 0.47178 0.00875 0.51195
 O442 O 0.48604 0.02651 0.49512
 Zr443 Zr 0.49119 -0.02642 0.49385
 O444 O 0.50605 -0.01053 0.47561
 O445 O 0.51687 0.02071 0.48214
 O446 O 0.48492 -0.01465 0.51823
 C447 C 0.50142 0.05407 0.47249
 C448 C 0.55124 0.03217 0.49561
 C449 C 0.52594 0.00630 0.44746
 C450 C 0.49972 -0.04695 0.52932
 C451 C 0.47482 -0.00215 0.55210
 C452 C 0.45132 -0.02690 0.50596
 H453 H 0.49347 0.02335 0.53540
 H454 H 0.46560 -0.00643 0.48082
 H455 H 0.52404 0.02848 0.47414
 H456 H 0.52319 -0.03055 0.50773
 H457 H 0.54290 -0.00997 0.53597
 H458 H 0.55230 -0.01864 0.50854
 H459 H 0.44542 0.01341 0.49005
 H460 H 0.46352 0.03167 0.47007
 H461 H 0.52023 0.00150 0.56119
 H462 H 0.52772 0.05367 0.52876
 H463 H 0.47102 -0.03198 0.46631
 H464 H 0.48518 -0.01082 0.44807
 H465 H 0.48541 0.05453 0.51311
 H466 H 0.46715 0.03660 0.53175
 H467 H 0.53198 -0.03084 0.46842
 H468 H 0.51452 -0.05115 0.48804
 O469 O -0.03806 0.45994 0.99912
 O470 O -0.02381 0.45695 0.97172
 O471 O 0.00470 0.46016 1.03715
 O472 O 0.02953 0.47583 1.04216
 O473 O -0.03643 0.49993 1.04043
 O474 O -0.04246 0.52621 1.02433
 O475 O 0.04830 0.51026 0.98925
 O476 O 0.05121 0.48217 1.00072
 O477 O 0.00790 0.50779 0.95050
 O478 O -0.02274 0.49677 0.94990
 O479 O 0.00682 0.54765 0.98916
 O480 O -0.00231 0.54929 1.02046
 O481 O 0.03548 0.53439 1.00210
 O482 O 0.01933 0.53839 1.03136
 O483 O -0.00615 0.53496 0.96492
 O484 O -0.03458 0.51729 0.96210
 O485 O 0.03370 0.49719 0.96206
 O486 O 0.03588 0.46763 0.97669
 O487 O -0.05108 0.48423 1.01153
 O488 O -0.05358 0.51465 1.00163
 O489 O -0.01092 0.48868 1.05202
 O490 O 0.01973 0.50090 1.05114
 O491 O -0.00852 0.44732 1.01309
 O492 O 0.00318 0.44771 0.98192
 Zr493 Zr -0.01156 0.46817 0.99458
 O494 O 0.00329 0.48426 0.97681
 Zr495 Zr 0.00679 0.48713 1.03015
 O496 O 0.02286 0.50356 1.01386
 Zr497 Zr -0.03051 0.50344 1.01311
 O498 O -0.01611 0.52105 0.99645
 Zr499 Zr 0.02742 0.49156 0.98895
 O500 O 0.01339 0.47397 1.00619
 Zr501 Zr -0.00993 0.50826 0.97229
 O502 O -0.02595 0.49124 0.98826
 Zr503 Zr 0.00889 0.52684 1.00779
 O504 O -0.00662 0.51116 1.02568
 O505 O -0.01751 0.47996 1.01903
 O506 O 0.01464 0.51535 0.98314
 C507 C -0.05163 0.46821 1.00555
 C508 C -0.00165 0.44663 1.02880
 C509 C -0.02702 0.49429 1.05356
 C510 C 0.04887 0.52630 0.99507
 C511 C 0.02431 0.50314 0.94906
 C512 C 0.00061 0.54832 0.97317
 H513 H 0.00546 0.47767 0.96557
 H514 H -0.02320 0.53188 0.99452
 H515 H -0.02466 0.47214 1.02699
 H516 H 0.03424 0.50604 1.02004
 H517 H 0.04810 0.47087 1.00678
 H518 H 0.03993 0.47932 1.03471
 H519 H -0.03819 0.52781 0.96910
 H520 H -0.05506 0.50901 0.98977
 H521 H 0.04758 0.46990 0.97082
 H522 H -0.00304 0.43622 0.98400
 H523 H -0.01421 0.55128 1.01520
 H524 H -0.03317 0.53204 1.03166
 H525 H -0.03182 0.46610 0.96678
 H526 H -0.01662 0.48551 0.94713
 H527 H 0.01266 0.51169 1.05354
 H528 H 0.03023 0.53181 1.03462
 O529 O 0.01358 0.48644 0.55029
 O530 O -0.01496 0.49699 0.55422
 O531 O 0.00745 0.44693 0.50883
 O532 O -0.00164 0.44575 0.48054
 O533 O 0.05038 0.48544 0.50611
 O534 O 0.05183 0.51568 0.49698
 O535 O -0.03969 0.49649 0.46616
 O536 O -0.04233 0.46923 0.47968
 O537 O -0.03663 0.53439 0.50711
 O538 O -0.01872 0.53757 0.53434
 O539 O 0.00064 0.53639 0.46583
 O540 O 0.02683 0.52065 0.45761
 O541 O -0.01561 0.50905 0.45231
 O542 O 0.01618 0.49799 0.44836
 O543 O -0.00928 0.54800 0.49205
 O544 O 0.00343 0.54758 0.52291
 O545 O -0.05047 0.51079 0.49427
 O546 O -0.05110 0.48069 0.50829
 O547 O 0.03762 0.49931 0.53660
 O548 O 0.04190 0.52680 0.52052
 O549 O 0.03659 0.46161 0.49363
 O550 O 0.01800 0.46037 0.46610
 O551 O -0.00197 0.45840 0.53533
 O552 O -0.03016 0.47495 0.54007
 Zr553 Zr -0.00577 0.48556 0.53001
 O554 O -0.02322 0.50283 0.51664
 Zr555 Zr 0.00960 0.46896 0.49175
 O556 O -0.00771 0.48502 0.47685
 Zr557 Zr 0.02965 0.50377 0.50998
 O558 O 0.01366 0.52146 0.49541
 Zr559 Zr -0.03038 0.49154 0.49206
 O560 O -0.01425 0.47334 0.50614
 Zr561 Zr -0.00992 0.52645 0.50985
 O562 O 0.00694 0.51015 0.52526
 Zr563 Zr 0.00487 0.50945 0.47162
 O564 O 0.02305 0.49264 0.48504
 O565 O 0.01753 0.47967 0.51603
 O566 O -0.01832 0.51573 0.48562
 C567 C 0.02960 0.49271 0.55040
 C568 C 0.00282 0.44537 0.52534
 C569 C 0.05053 0.46974 0.49943
 C570 C -0.03187 0.50337 0.45244
 C571 C -0.05045 0.52663 0.50059
 C572 C -0.00476 0.54940 0.47551
 H573 H -0.03388 0.50499 0.52418
 H574 H 0.02056 0.53244 0.49303
 H575 H 0.02540 0.47168 0.52289
 H576 H -0.01109 0.47873 0.46576
 H577 H -0.03940 0.45882 0.48717
 H578 H -0.01323 0.44918 0.47538
 H579 H 0.01371 0.55119 0.51534
 H580 H 0.03381 0.53131 0.52996
 H581 H -0.06252 0.48206 0.50180
 H582 H -0.02767 0.46792 0.55099
 H583 H 0.03364 0.52794 0.46623
 H584 H 0.05202 0.51094 0.48463
 H585 H -0.01036 0.50932 0.55444
 H586 H -0.02849 0.52999 0.53909
 H587 H 0.02804 0.46818 0.46240
 H588 H 0.00832 0.48809 0.44460
 O589 O 0.46287 1.03840 0.00588
 O590 O 0.47891 1.04031 0.03233
 O591 O 0.50257 1.04076 -0.03542
 O592 O 0.52645 1.02570 -0.04414
 O593 O 0.46132 0.99981 -0.03654
 O594 O 0.45704 0.97281 -0.02084
 O595 O 0.55007 0.98990 0.00647
 O596 O 0.55190 1.01835 -0.00488
 O597 O 0.51341 0.99003 0.04839
 O598 O 0.48279 0.99990 0.05243
 O599 O 0.50908 0.95149 0.00805
 O600 O 0.49781 0.95097 -0.02228
 O601 O 0.53656 0.96593 -0.00616
 O602 O 0.51849 0.96304 -0.03452
 O603 O 0.49840 0.96284 0.03408
 O604 O 0.47021 0.97955 0.04058
 O605 O 0.53782 1.00219 0.03489
 O606 O 0.53835 1.03209 0.02085
 O607 O 0.44914 1.01421 -0.00613
 O608 O 0.44779 0.98342 0.00326
 O609 O 0.48550 1.01235 -0.05013
 O610 O 0.51643 1.00076 -0.05260
 O611 O 0.49129 1.05223 -0.00966
 O612 O 0.50495 1.05090 0.02031
 Zr613 Zr 0.48964 1.03055 0.00799
 O614 O 0.50616 1.01429 0.02359
 Zr615 Zr 0.50513 1.01352 -0.03004
 O616 O 0.52280 0.99702 -0.01600
 Zr617 Zr 0.46964 0.99554 -0.01009
 O618 O 0.48567 0.97776 0.00436
 Zr619 Zr 0.52924 1.00820 0.00886
 O620 O 0.51355 1.02593 -0.00625
 Zr621 Zr 0.49372 0.98973 0.02838
 O622 O 0.47614 1.00685 0.01473
 Zr623 Zr 0.50965 0.97317 -0.00960
 O624 O 0.49243 0.98899 -0.02526
 O625 O 0.48183 1.01958 -0.01630
 O626 O 0.51731 0.98384 0.01488
 C627 C 0.44896 1.03008 0.00023
 C628 C 0.49702 1.05378 -0.02582
 C629 C 0.46941 1.00628 -0.05031
 C630 C 0.55028 0.97399 0.00031
 C631 C 0.52973 0.99540 0.04849
 C632 C 0.50432 0.94999 0.02451
 H633 H 0.50917 1.02053 0.03482
 H634 H 0.47889 0.96666 0.00648
 H635 H 0.47407 1.02756 -0.02329
 H636 H 0.53369 0.99508 -0.02325
 H637 H 0.54827 1.02978 -0.01024
 H638 H 0.53746 1.02286 -0.03753
 H639 H 0.46598 0.96942 0.03333
 H640 H 0.44718 0.98877 0.01533
 H641 H 0.55055 1.03005 0.02547
 H642 H 0.49836 1.06224 0.01943
 H643 H 0.48627 0.94857 -0.01622
 H644 H 0.46559 0.96765 -0.02951
 H645 H 0.47121 1.03080 0.03737
 H646 H 0.48866 1.01143 0.05481
 H647 H 0.50915 0.98999 -0.05485
 H648 H 0.52935 0.96971 -0.03812
 O649 O 0.44917 0.50903 0.01067
 O650 O 0.44965 0.48074 -0.00131
 O651 O 0.48769 0.50763 0.05273
 O652 O 0.51659 0.50133 0.05571
 O653 O 0.48870 0.55093 0.01478
 O654 O 0.49866 0.55392 -0.01520
 O655 O 0.53965 0.46740 0.00420
 O656 O 0.52520 0.46248 0.03090
 O657 O 0.50077 0.46593 -0.03600
 O658 O 0.47246 0.48079 -0.04103
 O659 O 0.53781 0.50787 -0.03454
 O660 O 0.54074 0.53501 -0.01718
 O661 O 0.55110 0.49329 -0.00665
 O662 O 0.55053 0.52440 0.00522
 O663 O 0.51415 0.49488 -0.04826
 O664 O 0.48200 0.50409 -0.04986
 O665 O 0.51358 0.45332 -0.01168
 O666 O 0.49844 0.45064 0.01788
 O667 O 0.46043 0.53481 -0.00074
 O668 O 0.47723 0.54139 -0.02768
 O669 O 0.50098 0.53830 0.03938
 O670 O 0.52981 0.52296 0.04257
 O671 O 0.46376 0.49493 0.03915
 O672 O 0.46399 0.46699 0.02165
 Zr673 Zr 0.47154 0.49251 0.01213
 O674 O 0.48815 0.47749 -0.00477
 Zr675 Zr 0.50613 0.51194 0.03180
 O676 O 0.52419 0.49724 0.01617
 Zr677 Zr 0.48802 0.53028 -0.00414
 O678 O 0.50570 0.51684 -0.02139
 Zr679 Zr 0.51255 0.47318 0.00807
 O680 O 0.49531 0.48678 0.02586
 Zr681 Zr 0.49483 0.49195 -0.02788
 O682 O 0.47630 0.50617 -0.01207
 Zr683 Zr 0.52943 0.51091 -0.00782
 O684 O 0.51268 0.52658 0.00866
 O685 O 0.48196 0.51706 0.01951
 O686 O 0.51906 0.48645 -0.01562
 C687 C 0.44743 0.52502 0.00499
 C688 C 0.47187 0.50087 0.05304
 C689 C 0.49453 0.55163 0.03092
 C690 C 0.55266 0.47708 -0.00157
 C691 C 0.50801 0.45279 -0.02791
 C692 C 0.53007 0.50134 -0.04837
 H693 H 0.48212 0.46614 -0.00762
 H694 H 0.50797 0.52416 -0.03215
 H695 H 0.47378 0.52390 0.02730
 H696 H 0.53516 0.49514 0.02313
 H697 H 0.51688 0.46417 0.04109
 H698 H 0.52408 0.49113 0.05224
 H699 H 0.48864 0.51510 -0.05284
 H700 H 0.46936 0.53221 -0.03295
 H701 H 0.50635 0.44020 0.01677
 H702 H 0.45231 0.46787 0.02790
 H703 H 0.53280 0.53974 -0.02655
 H704 H 0.51084 0.55525 -0.01027
 H705 H 0.44930 0.48609 -0.01341
 H706 H 0.46794 0.47088 -0.03356
 H707 H 0.53322 0.53313 0.03486
 H708 H 0.55414 0.51717 0.01564
 O709 O -0.05222 0.00418 0.50894
 O710 O -0.05220 -0.02422 0.49720
 O711 O -0.01341 0.00244 0.55083
 O712 O 0.01541 -0.00435 0.55363
 O713 O -0.01210 0.04548 0.51270
 O714 O -0.00213 0.04820 0.48263
 O715 O 0.03765 -0.03878 0.50198
 O716 O 0.02337 -0.04332 0.52895
 O717 O -0.00151 -0.03988 0.46221
 O718 O -0.02969 -0.02468 0.45735
 O719 O 0.03605 0.00160 0.46321
 O720 O 0.03940 0.02884 0.48055
 O721 O 0.04930 -0.01309 0.49087
 O722 O 0.04943 0.01796 0.50274
 O723 O 0.01215 -0.01121 0.44974
 O724 O -0.01990 -0.00155 0.44832
 O725 O 0.01128 -0.05256 0.48651
 O726 O -0.00366 -0.05490 0.51621
 O727 O -0.04058 0.02971 0.49734
 O728 O -0.02388 0.03602 0.47036
 O729 O 0.00020 0.03280 0.53727
 O730 O 0.02886 0.01711 0.54031
 O731 O -0.03764 -0.00994 0.53747
 O732 O -0.03790 -0.03802 0.52017
 Zr733 Zr -0.03006 -0.01266 0.51042
 O734 O -0.01378 -0.02801 0.49349
 Zr735 Zr 0.00496 0.00635 0.52976
 O736 O 0.02270 -0.00866 0.51406
 Zr737 Zr -0.01311 0.02479 0.49385
 O738 O 0.00420 0.01101 0.47652
 Zr739 Zr 0.01067 -0.03260 0.50616
 O740 O -0.00627 -0.01867 0.52400
 Zr741 Zr -0.00707 -0.01376 0.47025
 O742 O -0.02526 0.00082 0.48612
 Zr743 Zr 0.02792 0.00484 0.48998
 O744 O 0.01156 0.02081 0.50652
 O745 O -0.01922 0.01177 0.51760
 O746 O 0.01715 -0.01951 0.48238
 C747 C -0.05371 0.02017 0.50315
 C748 C -0.02934 -0.00405 0.55127
 C749 C -0.00619 0.04617 0.52881
 C750 C 0.05070 -0.02932 0.49593
 C751 C 0.00563 -0.05308 0.47031
 C752 C 0.02814 -0.00494 0.44949
 H753 H -0.01998 -0.03929 0.49074
 H754 H 0.00650 0.01825 0.46571
 H755 H -0.02727 0.01875 0.52539
 H756 H 0.03370 -0.01090 0.52093
 H757 H 0.01515 -0.04148 0.53919
 H758 H 0.02286 -0.01456 0.55014
 H759 H -0.01309 0.00931 0.44518
 H760 H -0.03182 0.02690 0.46510
 H761 H 0.00412 -0.06544 0.51511
 H762 H -0.04953 -0.03693 0.52649
 H763 H 0.03158 0.03352 0.47105
 H764 H 0.01003 0.04945 0.48761
 H765 H -0.05254 -0.01898 0.48506
 H766 H -0.03424 -0.03456 0.46485
 H767 H 0.03237 0.02716 0.53248
 H768 H 0.05294 0.01075 0.51320
 O769 O 0.73918 0.19813 0.25664
 O770 O 0.76942 0.19900 0.25180
 O771 O 0.73093 0.23993 0.29569
 O772 O 0.73499 0.26908 0.29743
 O773 O 0.69645 0.23521 0.24943
 O774 O 0.69984 0.24390 0.21898
 O775 O 0.77996 0.28928 0.25399
 O776 O 0.77918 0.27653 0.28173
 O777 O 0.79098 0.24843 0.21725
 O778 O 0.77813 0.21890 0.21158
 O779 O 0.74903 0.28276 0.20672
 O780 O 0.71952 0.28668 0.21699
 O781 O 0.75703 0.29887 0.23675
 O782 O 0.72333 0.29717 0.24134
 O783 O 0.76489 0.25872 0.19798
 O784 O 0.75725 0.22658 0.19707
 O785 O 0.79779 0.26327 0.24276
 O786 O 0.79421 0.24990 0.27306
 O787 O 0.71646 0.20745 0.23892
 O788 O 0.71525 0.22256 0.21051
 O789 O 0.70329 0.24982 0.27506
 O790 O 0.71691 0.27981 0.27886
 O791 O 0.74626 0.21549 0.28696
 O792 O 0.77760 0.21543 0.27587
 Zr793 Zr 0.75457 0.22120 0.26053
 O794 O 0.77294 0.23711 0.24619
 Zr795 Zr 0.73062 0.25609 0.27279
 O796 O 0.74839 0.27347 0.25957
 Zr797 Zr 0.72089 0.23486 0.23527
 O798 O 0.73780 0.25171 0.22021
 Zr799 Zr 0.77397 0.26236 0.25785
 O800 O 0.75677 0.24599 0.27336
 Zr801 Zr 0.76384 0.24153 0.22010
 O802 O 0.74651 0.22373 0.23367
 Zr803 Zr 0.74037 0.27648 0.23287
 O804 O 0.72137 0.26040 0.24661
 O805 O 0.72869 0.23098 0.26159
 O806 O 0.76625 0.26666 0.23141
 C807 C 0.72504 0.19530 0.24733
 C808 C 0.73763 0.22458 0.29870
 C809 C 0.69220 0.24186 0.26470
 C810 C 0.77157 0.30147 0.24552
 C811 C 0.80193 0.25689 0.22736
 C812 C 0.75825 0.27411 0.19513
 H813 H 0.78482 0.23146 0.24629
 H814 H 0.73297 0.25288 0.20799
 H815 H 0.72051 0.22298 0.26828
 H816 H 0.74867 0.28486 0.26610
 H817 H 0.77535 0.26876 0.29175
 H818 H 0.74630 0.27578 0.29613
 H819 H 0.74674 0.23213 0.19145
 H820 H 0.72548 0.21475 0.20778
 H821 H 0.80457 0.25813 0.27371
 H822 H 0.77540 0.20439 0.28280
 H823 H 0.71521 0.27689 0.20931
 H824 H 0.69681 0.25594 0.22327
 H825 H 0.76763 0.19806 0.23873
 H826 H 0.78686 0.21593 0.22098
 H827 H 0.70810 0.28169 0.26922
 H828 H 0.72832 0.30221 0.25248
 O829 O 0.75561 0.71780 0.71086
 O830 O 0.78275 0.71490 0.72444
 O831 O 0.71792 0.71096 0.75457
 O832 O 0.71092 0.72424 0.77993
 O833 O 0.71201 0.75485 0.71668
 O834 O 0.72669 0.78239 0.71308
 O835 O 0.76222 0.75908 0.80202
 O836 O 0.75263 0.73046 0.80220
 O837 O 0.80132 0.76313 0.76122
 O838 O 0.80266 0.75605 0.72987
 O839 O 0.75987 0.80099 0.76352
 O840 O 0.72904 0.80144 0.75589
 O841 O 0.74819 0.78363 0.79163
 O842 O 0.71873 0.78737 0.77600
 O843 O 0.78483 0.79134 0.74933
 O844 O 0.78917 0.77629 0.71978
 O845 O 0.79042 0.74890 0.78579
 O846 O 0.77703 0.71878 0.78514
 O847 O 0.74202 0.74257 0.70033
 O848 O 0.74977 0.77354 0.70085
 O849 O 0.70101 0.74029 0.74100
 O850 O 0.70138 0.74931 0.77288
 O851 O 0.74251 0.70105 0.73985
 O852 O 0.77362 0.70247 0.75059
 Zr853 Zr 0.75948 0.72339 0.73812
 O854 O 0.77625 0.73893 0.75440
 Zr855 Zr 0.72291 0.73814 0.75839
 O856 O 0.73826 0.75369 0.77598
 Zr857 Zr 0.73904 0.75919 0.72279
 O858 O 0.75459 0.77617 0.73884
 Zr859 Zr 0.76378 0.74289 0.77926
 O860 O 0.74756 0.72592 0.76360
 Zr861 Zr 0.77947 0.76448 0.74368
 O862 O 0.76452 0.74824 0.72611
 Zr863 Zr 0.74298 0.77865 0.76438
 O864 O 0.72606 0.76367 0.74741
 O865 O 0.73438 0.73409 0.73338
 O866 O 0.76829 0.76832 0.76898
 C867 C 0.74910 0.72721 0.69813
 C868 C 0.72719 0.69858 0.74732
 C869 C 0.69915 0.74772 0.72564
 C870 C 0.75536 0.77451 0.80422
 C871 C 0.80315 0.75634 0.77689
 C872 C 0.77549 0.80353 0.75678
 H873 H 0.78780 0.73282 0.75579
 H874 H 0.75578 0.78775 0.73272
 H875 H 0.72691 0.72649 0.72558
 H876 H 0.73193 0.75452 0.78759
 H877 H 0.74707 0.71925 0.79807
 H878 H 0.71885 0.72585 0.79033
 H879 H 0.78139 0.78646 0.71694
 H880 H 0.76193 0.76890 0.69872
 H881 H 0.78280 0.72002 0.79699
 H882 H 0.77218 0.69150 0.74339
 H883 H 0.73319 0.80431 0.74364
 H884 H 0.71875 0.78664 0.72278
 H885 H 0.78737 0.72525 0.71764
 H886 H 0.80563 0.74406 0.73427
 H887 H 0.69818 0.76048 0.76674
 H888 H 0.71603 0.77968 0.78641
 O889 O 0.23841 0.29823 0.73166
 O890 O 0.26826 0.30033 0.73882
 O891 O 0.23479 0.25158 0.69898
 O892 O 0.24188 0.22301 0.70134
 O893 O 0.19718 0.25886 0.74232
 O894 O 0.19872 0.25582 0.77373
 O895 O 0.28369 0.21193 0.75122
 O896 O 0.28439 0.21990 0.72160
 O897 O 0.28942 0.25862 0.78113
 O898 O 0.27419 0.28713 0.78210
 O899 O 0.24870 0.22224 0.79386
 O900 O 0.21916 0.21554 0.78173
 O901 O 0.25966 0.20318 0.76783
 O902 O 0.22710 0.20100 0.76085
 O903 O 0.26282 0.24817 0.80023
 O904 O 0.25273 0.27956 0.79633
 O905 O 0.29916 0.24098 0.75853
 O906 O 0.29701 0.24886 0.72635
 O907 O 0.21467 0.28985 0.74891
 O908 O 0.21224 0.27931 0.77935
 O909 O 0.20669 0.24143 0.71945
 O910 O 0.22263 0.21288 0.72014
 O911 O 0.24870 0.27770 0.70516
 O912 O 0.27911 0.28133 0.71782
 Zr913 Zr 0.25526 0.27614 0.73247
 O914 O 0.27313 0.26381 0.75012
 Zr915 Zr 0.23425 0.23829 0.72377
 O916 O 0.25171 0.22425 0.74054
 Zr917 Zr 0.22041 0.26375 0.75729
 O918 O 0.23679 0.25040 0.77571
 Zr919 Zr 0.27648 0.23732 0.74235
 O920 O 0.25984 0.25008 0.72349
 Zr921 Zr 0.26215 0.26242 0.77598
 O922 O 0.24518 0.27686 0.75885
 Zr923 Zr 0.24160 0.22444 0.76680
 O924 O 0.22312 0.23702 0.74967
 O925 O 0.23006 0.26443 0.73122
 O926 O 0.26673 0.23624 0.76853
 C927 C 0.22330 0.30125 0.73927
 C928 C 0.24102 0.26686 0.69435
 C929 C 0.19438 0.24954 0.72821
 C930 C 0.27521 0.20056 0.76098
 C931 C 0.30171 0.25000 0.77290
 C932 C 0.25692 0.23272 0.80461
 H933 H 0.28462 0.27034 0.74986
 H934 H 0.23107 0.25053 0.78766
 H935 H 0.22188 0.27068 0.72303
 H936 H 0.25321 0.21208 0.73590
 H937 H 0.28096 0.22562 0.71020
 H938 H 0.25272 0.21647 0.70479
 H939 H 0.24234 0.27377 0.80219
 H940 H 0.22193 0.28803 0.78150
 H941 H 0.30786 0.24149 0.72755
 H942 H 0.27694 0.29120 0.70932
 H943 H 0.21570 0.22515 0.79002
 H944 H 0.19720 0.24290 0.77191
 H945 H 0.26478 0.30332 0.75125
 H946 H 0.28308 0.28979 0.77261
 H947 H 0.21372 0.21122 0.72984
 H948 H 0.23291 0.19528 0.75046
 O949 O 0.20978 0.75144 0.28123
 O950 O 0.21893 0.72237 0.28267
 O951 O 0.25876 0.78123 0.28858
 O952 O 0.28465 0.78530 0.27459
 O953 O 0.22152 0.79469 0.24589
 O954 O 0.21624 0.78242 0.21704
 O955 O 0.29835 0.73316 0.23760
 O956 O 0.29994 0.74145 0.26706
 O957 O 0.25270 0.70109 0.23220
 O958 O 0.22146 0.70380 0.24077
 O959 O 0.26059 0.74291 0.19604
 O960 O 0.25766 0.77425 0.19667
 O961 O 0.29010 0.74936 0.21337
 O962 O 0.27906 0.78108 0.21113
 O963 O 0.24293 0.72008 0.20531
 O964 O 0.21322 0.71950 0.22090
 O965 O 0.27864 0.70778 0.24632
 O966 O 0.27973 0.71896 0.27771
 O967 O 0.20135 0.76737 0.25685
 O968 O 0.20053 0.76095 0.22528
 O969 O 0.24714 0.80127 0.26063
 O970 O 0.27844 0.79700 0.24990
 O971 O 0.24046 0.75890 0.29799
 O972 O 0.24617 0.72679 0.29518
 Zr973 Zr 0.23598 0.74355 0.27485
 O974 O 0.24952 0.72539 0.25828
 Zr975 Zr 0.26138 0.77725 0.26086
 O976 O 0.27636 0.76033 0.24426
 Zr977 Zr 0.22380 0.76759 0.23976
 O978 O 0.23717 0.75070 0.22178
 Zr979 Zr 0.27580 0.73432 0.25425
 O980 O 0.26286 0.75172 0.27224
 Zr981 Zr 0.23830 0.72502 0.23264
 O982 O 0.22327 0.74157 0.24984
 Zr983 Zr 0.26407 0.75849 0.21914
 O984 O 0.24995 0.77697 0.23520
 O985 O 0.23510 0.76935 0.26502
 O986 O 0.26483 0.73258 0.22870
 C987 C 0.19824 0.76033 0.27227
 C988 C 0.25019 0.77271 0.30087
 C989 C 0.23198 0.80559 0.25396
 C990 C 0.30141 0.73995 0.22210
 C991 C 0.26823 0.69696 0.23810
 C992 C 0.25172 0.72855 0.19318
 H993 H 0.24932 0.71352 0.26391
 H994 H 0.23090 0.75091 0.21018
 H995 H 0.22861 0.77738 0.27323
 H996 H 0.28875 0.76486 0.24340
 H997 H 0.29660 0.74680 0.27869
 H998 H 0.29367 0.77603 0.27244
 H999 H 0.21151 0.72800 0.21097
 H1000 H 0.19657 0.74916 0.22963
 H1001 H 0.29057 0.71168 0.27588
 H1002 H 0.23929 0.72874 0.30639
 H1003 H 0.24479 0.77255 0.19432
 H1004 H 0.22688 0.78941 0.21334
 H1005 H 0.21156 0.71936 0.27214
 H1006 H 0.22583 0.69941 0.25241
 H1007 H 0.27248 0.80168 0.23910
 H1008 H 0.28989 0.78167 0.21862
 O1009 O 0.29440 0.75058 0.72031
 O1010 O 0.28325 0.72204 0.71616
 O1011 O 0.25059 0.78441 0.70818
 O1012 O 0.22282 0.78887 0.71770
 O1013 O 0.28084 0.79261 0.75716
 O1014 O 0.28166 0.77791 0.78509
 O1015 O 0.19954 0.73582 0.75041
 O1016 O 0.20236 0.74641 0.72165
 O1017 O 0.24151 0.70079 0.75916
 O1018 O 0.27371 0.70198 0.75605
 O1019 O 0.23120 0.74135 0.79682
 O1020 O 0.23728 0.77290 0.79817
 O1021 O 0.20559 0.75046 0.77628
 O1022 O 0.21804 0.78114 0.78176
 O1023 O 0.24778 0.71756 0.78874
 O1024 O 0.27955 0.71570 0.77815
 O1025 O 0.21859 0.70986 0.74170
 O1026 O 0.22239 0.72356 0.71171
 O1027 O 0.30060 0.76482 0.74641
 O1028 O 0.29654 0.75594 0.77732
 O1029 O 0.25822 0.80182 0.73937
 O1030 O 0.22558 0.79905 0.74400
 O1031 O 0.26777 0.76097 0.70019
 O1032 O 0.25870 0.72949 0.69992
 Zr1033 Zr 0.26715 0.74415 0.72264
 O1034 O 0.24996 0.72626 0.73595
 Zr1035 Zr 0.24277 0.77882 0.73474
 O1036 O 0.22421 0.76224 0.74804
 Zr1037 Zr 0.27606 0.76531 0.76048
 O1038 O 0.25886 0.74860 0.77534
 Zr1039 Zr 0.22411 0.73679 0.73672
 O1040 O 0.24091 0.75408 0.72178
 Zr1041 Zr 0.25728 0.72370 0.76287
 O1042 O 0.27596 0.73990 0.74900
 Zr1043 Zr 0.23262 0.75826 0.77448
 O1044 O 0.25033 0.77635 0.76171
 O1045 O 0.26866 0.76928 0.73405
 O1046 O 0.23117 0.73297 0.76341
 C1047 C 0.30520 0.75844 0.73108
 C1048 C 0.26021 0.77584 0.69683
 C1049 C 0.27226 0.80473 0.74878
 C1050 C 0.19498 0.74194 0.76582
 C1051 C 0.22705 0.69790 0.75041
 C1052 C 0.23799 0.72608 0.79995
 H1053 H 0.25015 0.71476 0.72959
 H1054 H 0.26330 0.74773 0.78774
 H1055 H 0.27686 0.77740 0.72753
 H1056 H 0.21219 0.76754 0.74747
 H1057 H 0.20752 0.75223 0.71091
 H1058 H 0.21248 0.78071 0.71871
 H1059 H 0.28040 0.72363 0.78865
 H1060 H 0.30005 0.74418 0.77265
 H1061 H 0.21086 0.71702 0.71139
 H1062 H 0.26746 0.73132 0.69006
 H1063 H 0.24873 0.76884 0.80321
 H1064 H 0.27096 0.78494 0.78819
 H1065 H 0.28946 0.71853 0.72726
 H1066 H 0.27112 0.69875 0.74350
 H1067 H 0.22963 0.80233 0.75615
 H1068 H 0.20853 0.78287 0.77280
 O1069 O 0.25373 0.21765 0.20878
 O1070 O 0.28121 0.21435 0.22153
 O1071 O 0.21726 0.21058 0.25347
 O1072 O 0.21099 0.22369 0.27916
 O1073 O 0.21065 0.25484 0.21620
 O1074 O 0.22533 0.28242 0.21267
 O1075 O 0.26322 0.25760 0.30024
 O1076 O 0.25347 0.22905 0.30024
 O1077 O 0.30120 0.26206 0.25838
 O1078 O 0.30155 0.25518 0.22684
 O1079 O 0.26030 0.30010 0.26244
 O1080 O 0.22944 0.30114 0.25579
 O1081 O 0.24908 0.28241 0.29064
 O1082 O 0.21919 0.28659 0.27565
 O1083 O 0.28472 0.29037 0.24738
 O1084 O 0.28803 0.27579 0.21750
 O1085 O 0.29089 0.24762 0.28308
 O1086 O 0.27733 0.21751 0.28236
 O1087 O 0.24015 0.24270 0.19892
 O1088 O 0.24808 0.27365 0.19970
 O1089 O 0.20021 0.24008 0.24063
 O1090 O 0.20152 0.24889 0.27263
 O1091 O 0.24131 0.20063 0.23790
 O1092 O 0.27272 0.20165 0.24777
 Zr1093 Zr 0.25841 0.22286 0.23597
 O1094 O 0.27579 0.23803 0.25196
 Zr1095 Zr 0.22256 0.23768 0.25745
 O1096 O 0.23854 0.25284 0.27480
 Zr1097 Zr 0.23785 0.25904 0.22168
 O1098 O 0.25400 0.27567 0.23752
 Zr1099 Zr 0.26406 0.24177 0.27720
 O1100 O 0.24722 0.22516 0.26180
 Zr1101 Zr 0.27889 0.26368 0.24147
 O1102 O 0.26331 0.24781 0.22413
 Zr1103 Zr 0.24316 0.27792 0.26343
 O1104 O 0.22562 0.26333 0.24672
 O1105 O 0.23329 0.23384 0.23208
 O1106 O 0.26848 0.26729 0.26714
 C1107 C 0.24701 0.22730 0.19634
 C1108 C 0.22619 0.19821 0.24579
 C1109 C 0.19800 0.24760 0.22537
 C1110 C 0.25652 0.27303 0.30288
 C1111 C 0.30340 0.25516 0.27394
 C1112 C 0.27577 0.30255 0.25533
 H1113 H 0.28733 0.23182 0.25295
 H1114 H 0.25513 0.28732 0.23154
 H1115 H 0.22557 0.22637 0.22440
 H1116 H 0.23253 0.25356 0.28659
 H1117 H 0.24770 0.21795 0.29609
 H1118 H 0.21932 0.22494 0.28929
 H1119 H 0.28028 0.28607 0.21505
 H1120 H 0.26014 0.26895 0.19715
 H1121 H 0.28348 0.21858 0.29403
 H1122 H 0.27098 0.19080 0.24046
 H1123 H 0.23288 0.30382 0.24327
 H1124 H 0.21766 0.28654 0.22265
 H1125 H 0.28576 0.22475 0.21478
 H1126 H 0.30470 0.24321 0.23119
 H1127 H 0.19814 0.26006 0.26661
 H1128 H 0.21679 0.27891 0.28614
 O1129 O 0.78529 0.71040 0.25164
 O1130 O 0.78619 0.71895 0.22209
 O1131 O 0.79388 0.75957 0.28023
 O1132 O 0.78032 0.78544 0.28383
 O1133 O 0.75128 0.72293 0.29602
 O1134 O 0.72217 0.71732 0.28474
 O1135 O 0.74217 0.79779 0.23198
 O1136 O 0.77178 0.79966 0.23939
 O1137 O 0.73539 0.75181 0.20125
 O1138 O 0.74380 0.72090 0.20455
 O1139 O 0.70063 0.76054 0.24418
 O1140 O 0.70210 0.75820 0.27599
 O1141 O 0.71834 0.78992 0.24930
 O1142 O 0.71677 0.77974 0.28165
 O1143 O 0.70911 0.74247 0.22144
 O1144 O 0.72441 0.71292 0.22136
 O1145 O 0.74996 0.77771 0.20674
 O1146 O 0.78162 0.77911 0.21700
 O1147 O 0.76132 0.70236 0.26874
 O1148 O 0.72963 0.70133 0.26328
 O1149 O 0.76643 0.74849 0.30156
 O1150 O 0.75591 0.77946 0.29665
 O1151 O 0.80249 0.74095 0.25796
 O1152 O 0.79895 0.74615 0.22544
 Zr1153 Zr 0.77901 0.73626 0.24321
 O1154 O 0.76213 0.74923 0.22499
 Zr1155 Zr 0.76617 0.76214 0.27689
 O1156 O 0.74932 0.77660 0.25987
 Zr1157 Zr 0.74449 0.72460 0.26884
 O1158 O 0.72623 0.73746 0.25198
 Zr1159 Zr 0.75860 0.77549 0.23335
 O1160 O 0.77688 0.76309 0.25075
 Zr1161 Zr 0.73644 0.73802 0.22575
 O1162 O 0.75390 0.72351 0.24233
 Zr1163 Zr 0.72409 0.76432 0.25914
 O1164 O 0.74046 0.75074 0.27770
 O1165 O 0.76984 0.73589 0.26953
 O1166 O 0.73297 0.76451 0.23271
 C1167 C 0.77646 0.69913 0.26123
 C1168 C 0.80581 0.75084 0.27158
 C1169 C 0.75974 0.73350 0.30649
 C1170 C 0.72690 0.80094 0.23918
 C1171 C 0.74128 0.76715 0.19644
 C1172 C 0.69733 0.75143 0.23003
 H1173 H 0.76742 0.74879 0.21284
 H1174 H 0.71461 0.73121 0.25273
 H1175 H 0.77815 0.72961 0.27757
 H1176 H 0.74870 0.78900 0.26408
 H1177 H 0.78348 0.79649 0.24455
 H1178 H 0.77794 0.79421 0.27431
 H1179 H 0.71459 0.71147 0.23015
 H1180 H 0.73366 0.69711 0.25139
 H1181 H 0.77968 0.78968 0.20936
 H1182 H 0.81014 0.73944 0.22731
 H1183 H 0.69941 0.74543 0.27451
 H1184 H 0.71869 0.72805 0.29150
 H1185 H 0.77552 0.71162 0.21946
 H1186 H 0.75532 0.72520 0.19960
 H1187 H 0.74518 0.77364 0.30183
 H1188 H 0.72446 0.79046 0.28176
 O1189 O 0.70827 0.24910 0.78251
 O1190 O 0.71749 0.22012 0.78399
 O1191 O 0.75726 0.27903 0.78966
 O1192 O 0.78306 0.28322 0.77554
 O1193 O 0.71976 0.29235 0.74715
 O1194 O 0.71448 0.28010 0.71828
 O1195 O 0.79672 0.23095 0.73863
 O1196 O 0.79840 0.23932 0.76809
 O1197 O 0.75122 0.19889 0.73319
 O1198 O 0.72002 0.20143 0.74199
 O1199 O 0.75885 0.24070 0.69717
 O1200 O 0.75590 0.27202 0.69779
 O1201 O 0.78837 0.24709 0.71438
 O1202 O 0.77735 0.27887 0.71223
 O1203 O 0.74121 0.21786 0.70646
 O1204 O 0.71155 0.21722 0.72225
 O1205 O 0.77713 0.20563 0.74734
 O1206 O 0.77825 0.21677 0.77878
 O1207 O 0.69978 0.26501 0.75813
 O1208 O 0.69887 0.25857 0.72654
 O1209 O 0.74540 0.29903 0.76181
 O1210 O 0.77672 0.29483 0.75088
 O1211 O 0.73902 0.25669 0.79917
 O1212 O 0.74479 0.22455 0.79633
 Zr1213 Zr 0.73448 0.24130 0.77605
 O1214 O 0.74799 0.22315 0.75945
 Zr1215 Zr 0.75976 0.27506 0.76194
 O1216 O 0.77473 0.25814 0.74534
 Zr1217 Zr 0.72215 0.26528 0.74097
 O1218 O 0.73551 0.24842 0.72296
 Zr1219 Zr 0.77423 0.23215 0.75535
 O1220 O 0.76132 0.24954 0.77335
 Zr1221 Zr 0.73671 0.22275 0.73382
 O1222 O 0.72170 0.23926 0.75108
 Zr1223 Zr 0.76238 0.25628 0.72025
 O1224 O 0.74826 0.27474 0.73633
 O1225 O 0.73351 0.26708 0.76620
 O1226 O 0.76320 0.23038 0.72983
 C1227 C 0.69671 0.25798 0.77355
 C1228 C 0.74875 0.27052 0.80199
 C1229 C 0.73019 0.30328 0.75523
 C1230 C 0.79970 0.23766 0.72307
 C1231 C 0.76679 0.19482 0.73901
 C1232 C 0.74998 0.22634 0.69432
 H1233 H 0.74785 0.21127 0.76506
 H1234 H 0.72920 0.24863 0.71138
 H1235 H 0.72703 0.27509 0.77443
 H1236 H 0.78712 0.26268 0.74444
 H1237 H 0.79507 0.24466 0.77973
 H1238 H 0.79205 0.27389 0.77351
 H1239 H 0.70981 0.22566 0.71227
 H1240 H 0.69489 0.24681 0.73097
 H1241 H 0.78908 0.20950 0.77691
 H1242 H 0.73800 0.22653 0.80759
 H1243 H 0.74301 0.27035 0.69552
 H1244 H 0.72508 0.28714 0.71457
 H1245 H 0.71022 0.21695 0.77343
 H1246 H 0.72447 0.19702 0.75360
 H1247 H 0.77066 0.29954 0.74015
 H1248 H 0.78824 0.27941 0.71963
 C1249 C 0.07997 0.99997 1.19960
 C1250 C 0.08873 0.99649 1.18343
 C1251 C 0.10687 0.99230 1.18340
 C1252 C 0.11626 0.99169 1.19945
 C1253 C 0.10761 0.99492 1.21592
 C1254 C 0.08934 0.99936 1.21573
 C1255 C 0.07943 0.99794 1.16673
 C1256 C 0.07209 0.99921 1.15250
 C1257 C 0.06395 1.00065 1.13561
 C1258 C 0.05732 1.00171 1.12101
 C1259 C 0.04969 1.00263 1.10343
 C1260 C 0.05940 0.99643 1.08870
 C1261 C 0.05183 0.99659 1.07167
 C1262 C 0.03439 1.00295 1.06914
 C1263 C 0.02487 1.00949 1.08402
 C1264 C 0.03249 1.00930 1.10106
 H1265 H 0.06598 1.00355 1.19972
 H1266 H 0.11386 0.98987 1.17091
 H1267 H 0.13045 0.98911 1.19891
 H1268 H 0.08231 1.00297 1.22784
 H1269 H 0.07274 0.99126 1.09041
 H1270 H 0.05956 0.99149 1.06054
 H1271 H 0.01144 1.01448 1.08257
 H1272 H 0.02488 1.01415 1.11239
 C1273 C 0.60761 0.49550 0.68561
 C1274 C 0.58970 0.50052 0.68558
 C1275 C 0.58106 0.50439 0.70174
 C1276 C 0.59033 0.50334 0.71791
 C1277 C 0.60841 0.49818 0.71815
 C1278 C 0.61690 0.49445 0.70170
 C1279 C 0.58051 0.50230 0.66884
 C1280 C 0.57325 0.50381 0.65458
 C1281 C 0.56518 0.50548 0.63767
 C1282 C 0.55854 0.50671 0.62308
 C1283 C 0.55083 0.50785 0.60554
 C1284 C 0.53382 0.51504 0.60329
 C1285 C 0.52606 0.51541 0.58633
 C1286 C 0.53523 0.50855 0.57137
 C1287 C 0.55249 0.50168 0.57376
 C1288 C 0.56020 0.50133 0.59073
 H1289 H 0.61450 0.49268 0.67316
 H1290 H 0.56724 0.50855 0.70182
 H1291 H 0.58335 0.50716 0.72996
 H1292 H 0.63092 0.49105 0.70127
 H1293 H 0.52646 0.52013 0.61468
 H1294 H 0.51277 0.52081 0.58500
 H1295 H 0.55995 0.49631 0.56258
 H1296 H 0.57339 0.49575 0.59234
 C1297 C 0.39351 0.00650 0.68494
 C1298 C 0.41097 0.00014 0.68451
 C1299 C 0.41919 -0.00519 0.70037
 C1300 C 0.40997 -0.00413 0.71666
 C1301 C 0.39244 0.00262 0.71735
 C1302 C 0.38428 0.00758 0.70116
 C1303 C 0.42016 -0.00128 0.66766
 C1304 C 0.42746 -0.00232 0.65330
 C1305 C 0.43561 -0.00330 0.63631
 C1306 C 0.44235 -0.00389 0.62166
 C1307 C 0.45024 -0.00423 0.60410
 C1308 C 0.46773 -0.01020 0.60174
 C1309 C 0.47564 -0.00982 0.58477
 C1310 C 0.46614 -0.00341 0.56991
 C1311 C 0.44843 0.00227 0.57240
 C1312 C 0.44057 0.00187 0.58940
 H1313 H 0.38693 0.01042 0.67270
 H1314 H 0.43262 -0.01043 0.70010
 H1315 H 0.41651 -0.00906 0.72849
 H1316 H 0.37058 0.01207 0.70100
 H1317 H 0.47533 -0.01495 0.61305
 H1318 H 0.48927 -0.01433 0.58335
 H1319 H 0.44072 0.00725 0.56129
 H1320 H 0.42701 0.00652 0.59110
 C1321 C -0.08055 0.49579 1.20275
 C1322 C -0.08921 0.49973 1.18672
 C1323 C -0.10726 0.50424 1.18692
 C1324 C -0.11666 0.50474 1.20306
 C1325 C -0.10815 0.50097 1.21939
 C1326 C -0.08994 0.49629 1.21898
 C1327 C -0.07989 0.49864 1.16991
 C1328 C -0.07259 0.49771 1.15556
 C1329 C -0.06453 0.49666 1.13853
 C1330 C -0.05795 0.49586 1.12382
 C1331 C -0.05033 0.49505 1.10616
 C1332 C -0.06020 0.50081 1.09145
 C1333 C -0.05272 0.50037 1.07429
 C1334 C -0.03522 0.49417 1.07164
 C1335 C -0.02548 0.48823 1.08653
 C1336 C -0.03300 0.48869 1.10368
 H1337 H -0.06661 0.49204 1.20268
 H1338 H -0.11415 0.50713 1.17455
 H1339 H -0.13075 0.50786 1.20278
 H1340 H -0.08290 0.49252 1.23094
 H1341 H -0.07364 0.50574 1.09326
 H1342 H -0.06060 0.50504 1.06315
 H1343 H -0.01199 0.48337 1.08500
 H1344 H -0.02526 0.48418 1.11499
 C1345 C -0.08990 0.49121 0.30864
 C1346 C -0.10000 0.49807 0.32278
 C1347 C -0.11731 0.50412 0.31962
 C1348 C -0.12430 0.50377 0.30230
 C1349 C -0.11401 0.49757 0.28780
 C1350 C -0.09684 0.49088 0.29133
 C1351 C -0.09236 0.49933 0.34037
 C1352 C -0.08560 0.50052 0.35492
 C1353 C -0.07730 0.50194 0.37178
 C1354 C -0.06992 0.50306 0.38604
 C1355 C -0.06079 0.50414 0.40291
 C1356 C -0.06909 0.49798 0.41856
 C1357 C -0.05985 0.49812 0.43477
 C1358 C -0.04212 0.50441 0.43553
 C1359 C -0.03404 0.51094 0.41977
 C1360 C -0.04332 0.51078 0.40358
 H1361 H -0.07655 0.48630 0.31096
 H1362 H -0.12531 0.50935 0.33050
 H1363 H -0.13761 0.50876 0.30041
 H1364 H -0.08868 0.48535 0.28076
 H1365 H -0.08262 0.49281 0.41819
 H1366 H -0.06652 0.49302 0.44662
 H1367 H -0.02043 0.51588 0.41984
 H1368 H -0.03675 0.51558 0.39154
 C1369 C 0.38360 1.00517 -0.18281
 C1370 C 0.40170 1.00164 -0.18038
 C1371 C 0.41233 0.99733 -0.19511
 C1372 C 0.40505 0.99692 -0.21226
 C1373 C 0.38686 1.00098 -0.21520
 C1374 C 0.37621 1.00476 -0.19996
 C1375 C 0.40951 1.00265 -0.16284
 C1376 C 0.41640 1.00357 -0.14833
 C1377 C 0.42480 1.00465 -0.13149
 C1378 C 0.43220 1.00549 -0.11723
 C1379 C 0.44127 1.00633 -0.10032
 C1380 C 0.45870 1.01307 -0.09944
 C1381 C 0.46778 1.01331 -0.08314
 C1382 C 0.45955 1.00676 -0.06746
 C1383 C 0.44192 1.00023 -0.06847
 C1384 C 0.43287 1.00001 -0.08478
 H1385 H 0.37521 1.00847 -0.17145
 H1386 H 0.42634 0.99431 -0.19335
 H1387 H 0.41384 0.99303 -0.22304
 H1388 H 0.36226 1.00799 -0.20090
 H1389 H 0.46533 1.01798 -0.11139
 H1390 H 0.48132 1.01843 -0.08289
 H1391 H 0.43515 0.99509 -0.05669
 H1392 H 0.41939 0.99475 -0.08531
 C1393 C 0.59007 0.50995 -0.19281
 C1394 C 0.59957 0.50269 -0.17855
 C1395 C 0.61636 0.49523 -0.18167
 C1396 C 0.62345 0.49471 -0.19904
 C1397 C 0.61377 0.50150 -0.21358
 C1398 C 0.59711 0.50942 -0.21015
 C1399 C 0.59179 0.50254 -0.16086
 C1400 C 0.58482 0.50234 -0.14626
 C1401 C 0.57621 0.50206 -0.12938
 C1402 C 0.56854 0.50179 -0.11514
 C1403 C 0.55905 0.50146 -0.09830
 C1404 C 0.56697 0.50836 -0.08286
 C1405 C 0.55760 0.50827 -0.06660
 C1406 C 0.54013 0.50128 -0.06556
 C1407 C 0.53235 0.49428 -0.08117
 C1408 C 0.54175 0.49439 -0.09740
 H1409 H 0.57712 0.51589 -0.19055
 H1410 H 0.62387 0.48960 -0.17072
 H1411 H 0.63631 0.48864 -0.20101
 H1412 H 0.58946 0.51530 -0.22084
 H1413 H 0.58036 0.51387 -0.08339
 H1414 H 0.56403 0.51373 -0.05488
 H1415 H 0.51896 0.48877 -0.08090
 H1416 H 0.53548 0.48902 -0.10926
 C1417 C 0.11481 -0.00842 0.31628
 C1418 C 0.09696 -0.00376 0.31908
 C1419 C 0.08648 0.00130 0.30455
 C1420 C 0.09370 0.00149 0.28728
 C1421 C 0.11156 -0.00350 0.28418
 C1422 C 0.12208 -0.00821 0.29897
 C1423 C 0.08923 -0.00423 0.33677
 C1424 C 0.08232 -0.00459 0.35138
 C1425 C 0.07380 -0.00496 0.36828
 C1426 C 0.06621 -0.00522 0.38256
 C1427 C 0.05683 -0.00545 0.39944
 C1428 C 0.03944 -0.01227 0.40045
 C1429 C 0.03012 -0.01218 0.41672
 C1430 C 0.03810 -0.00524 0.43226
 C1431 C 0.05566 0.00149 0.43111
 C1432 C 0.06494 0.00139 0.41481
 H1433 H 0.12308 -0.01229 0.32745
 H1434 H 0.07268 0.00510 0.30657
 H1435 H 0.08526 0.00579 0.27643
 H1436 H 0.13586 -0.01197 0.29731
 H1437 H 0.03302 -0.01758 0.38863
 H1438 H 0.01666 -0.01750 0.41709
 H1439 H 0.06223 0.00691 0.44278
 H1440 H 0.07839 0.00672 0.41418
 C1441 C 0.18403 1.10359 0.99092
 C1442 C 0.18358 1.08615 0.99722
 C1443 C 0.19936 1.07796 1.00258
 C1444 C 0.21557 1.08724 1.00181
 C1445 C 0.21624 1.10483 0.99538
 C1446 C 0.20017 1.11289 0.99014
 C1447 C 0.16674 1.07708 0.99896
 C1448 C 0.15240 1.06993 1.00049
 C1449 C 0.13542 1.06197 1.00223
 C1450 C 0.12078 1.05542 1.00353
 C1451 C 0.10319 1.04780 1.00473
 C1452 C 0.10066 1.03104 1.01240
 C1453 C 0.08366 1.02331 1.01278
 C1454 C 0.06897 1.03227 1.00543
 C1455 C 0.07163 1.04929 0.99811
 C1456 C 0.08864 1.05698 0.99776
 H1457 H 0.17183 1.11015 0.98699
 H1458 H 0.19907 1.06454 1.00778
 H1459 H 0.22729 1.08074 1.00690
 H1460 H 0.20000 1.12661 0.98587
 H1461 H 0.11186 1.02384 1.01785
 H1462 H 0.08210 1.01021 1.01854
 H1463 H 0.06064 1.05658 0.99236
 H1464 H 0.09048 1.06998 0.99181
 C1465 C 0.70084 0.57980 0.50281
 C1466 C 0.68518 0.58873 0.49835
 C1467 C 0.68599 0.60646 0.49300
 C1468 C 0.70238 0.61533 0.49229
 C1469 C 0.71833 0.60654 0.49664
 C1470 C 0.71730 0.58864 0.50209
 C1471 C 0.66812 0.58007 0.50005
 C1472 C 0.65361 0.57327 0.50157
 C1473 C 0.63645 0.56572 0.50334
 C1474 C 0.62167 0.55950 0.50471
 C1475 C 0.60394 0.55222 0.50605
 C1476 C 0.58952 0.56161 0.49906
 C1477 C 0.57237 0.55425 0.49961
 C1478 C 0.56943 0.53736 0.50715
 C1479 C 0.58399 0.52820 0.51449
 C1480 C 0.60114 0.53560 0.51392
 H1481 H 0.70028 0.56613 0.50726
 H1482 H 0.67391 0.61357 0.48976
 H1483 H 0.70253 0.62925 0.48873
 H1484 H 0.72895 0.58152 0.50646
 H1485 H 0.59158 0.57451 0.49296
 H1486 H 0.56149 0.56168 0.49385
 H1487 H 0.58222 0.51519 0.52041
 H1488 H 0.61223 0.52825 0.51938
 C1489 C 0.69386 0.41287 -0.01663
 C1490 C 0.68576 0.41711 -0.00034
 C1491 C 0.69352 0.41166 0.01568
 C1492 C 0.70880 0.40112 0.01539
 C1493 C 0.71620 0.39517 -0.00101
 C1494 C 0.70909 0.40233 -0.01699
 C1495 C 0.66902 0.42631 -0.00019
 C1496 C 0.65468 0.43343 -0.00035
 C1497 C 0.63764 0.44120 -0.00076
 C1498 C 0.62293 0.44751 -0.00119
 C1499 C 0.60526 0.45480 -0.00169
 C1500 C 0.59064 0.44456 0.00397
 C1501 C 0.57347 0.45169 0.00377
 C1502 C 0.57072 0.46920 -0.00210
 C1503 C 0.58552 0.47930 -0.00798
 C1504 C 0.60267 0.47213 -0.00776
 H1505 H 0.68822 0.41747 -0.02911
 H1506 H 0.68762 0.41531 0.02841
 H1507 H 0.71461 0.39746 0.02808
 H1508 H 0.71509 0.39967 -0.02991
 H1509 H 0.59252 0.43110 0.00865
 H1510 H 0.56241 0.44353 0.00837
 H1511 H 0.58391 0.49280 -0.01259
 H1512 H 0.61391 0.48014 -0.01221
 C1513 C 0.18506 -0.10649 0.49884
 C1514 C 0.18429 -0.08817 0.49640
 C1515 C 0.20007 -0.07830 0.49449
 C1516 C 0.21664 -0.08676 0.49503
 C1517 C 0.21760 -0.10526 0.49762
 C1518 C 0.20153 -0.11496 0.49938
 C1519 C 0.16720 -0.07968 0.49571
 C1520 C 0.15264 -0.07305 0.49520
 C1521 C 0.13542 -0.06569 0.49471
 C1522 C 0.12063 -0.05956 0.49442
 C1523 C 0.10298 -0.05224 0.49424
 C1524 C 0.10034 -0.03501 0.48795
 C1525 C 0.08329 -0.02765 0.48826
 C1526 C 0.06861 -0.03745 0.49492
 C1527 C 0.07138 -0.05489 0.50098
 C1528 C 0.08847 -0.06222 0.50065
 H1529 H 0.17292 -0.11428 0.50023
 H1530 H 0.19957 -0.06409 0.49245
 H1531 H 0.22843 -0.07869 0.49312
 H1532 H 0.20175 -0.12922 0.50108
 H1533 H 0.11149 -0.02719 0.48294
 H1534 H 0.08166 -0.01421 0.48344
 H1535 H 0.06040 -0.06282 0.50617
 H1536 H 0.09040 -0.07559 0.50555
 C1537 C 0.30773 -0.08500 0.49127
 C1538 C 0.32065 -0.09366 0.50145
 C1539 C 0.31636 -0.10961 0.51011
 C1540 C 0.29916 -0.11681 0.50869
 C1541 C 0.28605 -0.10811 0.49862
 C1542 C 0.29054 -0.09216 0.48986
 C1543 C 0.33822 -0.08599 0.50315
 C1544 C 0.35281 -0.07929 0.50445
 C1545 C 0.36978 -0.07114 0.50579
 C1546 C 0.38416 -0.06393 0.50671
 C1547 C 0.40121 -0.05504 0.50747
 C1548 C 0.40239 -0.03776 0.51418
 C1549 C 0.41875 -0.02872 0.51404
 C1550 C 0.43419 -0.03685 0.50712
 C1551 C 0.43291 -0.05438 0.50073
 C1552 C 0.41653 -0.06338 0.50089
 H1553 H 0.31091 -0.07267 0.48448
 H1554 H 0.32624 -0.11639 0.51808
 H1555 H 0.29604 -0.12895 0.51584
 H1556 H 0.28079 -0.08527 0.48183
 H1557 H 0.39061 -0.03116 0.51928
 H1558 H 0.41922 -0.01527 0.51909
 H1559 H 0.44450 -0.06106 0.49534
 H1560 H 0.41576 -0.07674 0.49564
 C1561 C -0.19782 0.41404 0.99948
 C1562 C -0.18326 0.40290 1.00194
 C1563 C -0.18600 0.38462 1.00322
 C1564 C -0.20326 0.37749 1.00222
 C1565 C -0.21835 0.38853 1.00003
 C1566 C -0.21508 0.40701 0.99849
 C1567 C -0.16553 0.41034 1.00306
 C1568 C -0.15085 0.41693 1.00394
 C1569 C -0.13381 0.42499 1.00488
 C1570 C -0.11937 0.43213 1.00555
 C1571 C -0.10225 0.44092 1.00616
 C1572 C -0.08700 0.43239 0.99969
 C1573 C -0.07049 0.44116 0.99969
 C1574 C -0.06901 0.45865 1.00616
 C1575 C -0.08442 0.46702 1.01283
 C1576 C -0.10090 0.45821 1.01281
 H1577 H -0.19584 0.42823 0.99825
 H1578 H -0.17477 0.37584 1.00507
 H1579 H -0.20430 0.36332 1.00353
 H1580 H -0.22561 0.41638 0.99604
 H1581 H -0.08789 0.41901 0.99449
 H1582 H -0.05893 0.43429 0.99447
 H1583 H -0.08380 0.48045 1.01792
 H1584 H -0.11264 0.46496 1.01783
 C1585 C -0.19310 0.58695 0.50907
 C1586 C -0.17906 0.59590 0.50048
 C1587 C -0.18221 0.61213 0.49198
 C1588 C -0.19939 0.61930 0.49195
 C1589 C -0.21362 0.61027 0.50037
 C1590 C -0.21026 0.59407 0.50903
 C1591 C -0.16156 0.58814 0.50014
 C1592 C -0.14712 0.58119 0.49994
 C1593 C -0.13044 0.57261 0.49978
 C1594 C -0.11637 0.56495 0.49971
 C1595 C -0.09975 0.55549 0.49970
 C1596 C -0.08434 0.56339 0.50667
 C1597 C -0.06828 0.55404 0.50694
 C1598 C -0.06744 0.53661 0.50025
 C1599 C -0.08303 0.52882 0.49320
 C1600 C -0.09905 0.53821 0.49295
 H1601 H -0.19081 0.57441 0.51573
 H1602 H -0.17144 0.61914 0.48523
 H1603 H -0.20161 0.63167 0.48496
 H1604 H -0.22089 0.58694 0.51586
 H1605 H -0.08474 0.57676 0.51195
 H1606 H -0.05656 0.56047 0.51242
 H1607 H -0.08288 0.51547 0.48791
 H1608 H -0.11091 0.53196 0.48754
 C1609 C 0.30492 1.08770 0.00976
 C1610 C 0.31889 1.09672 0.00113
 C1611 C 0.31553 1.11266 -0.00782
 C1612 C 0.29821 1.11948 -0.00827
 C1613 C 0.28405 1.11035 0.00016
 C1614 C 0.28762 1.09446 0.00930
 C1615 C 0.33652 1.08925 0.00111
 C1616 C 0.35108 1.08254 0.00111
 C1617 C 0.36789 1.07422 0.00110
 C1618 C 0.38210 1.06680 0.00105
 C1619 C 0.39888 1.05763 0.00093
 C1620 C 0.41433 1.06601 0.00722
 C1621 C 0.43061 1.05705 0.00708
 C1622 C 0.43166 1.03954 0.00064
 C1623 C 0.41600 1.03123 -0.00562
 C1624 C 0.39975 1.04023 -0.00546
 H1625 H 0.30737 1.07536 0.01675
 H1626 H 0.32625 1.11971 -0.01462
 H1627 H 0.29583 1.13161 -0.01561
 H1628 H 0.27704 1.08727 0.01615
 H1629 H 0.41380 1.07948 0.01222
 H1630 H 0.44238 1.06387 0.01198
 H1631 H 0.41629 1.01779 -0.01069
 H1632 H 0.38786 1.03361 -0.01035
 C1633 C 0.00042 1.19651 1.07777
 C1634 C -0.00324 1.18068 1.08688
 C1635 C -0.00757 1.18108 1.10508
 C1636 C -0.00814 1.19720 1.11419
 C1637 C -0.00469 1.21333 1.10521
 C1638 C -0.00016 1.21271 1.08686
 C1639 C -0.00178 1.16390 1.07788
 C1640 C -0.00047 1.14964 1.07077
 C1641 C 0.00105 1.13274 1.06288
 C1642 C 0.00223 1.11817 1.05640
 C1643 C 0.00339 1.10066 1.04888
 C1644 C -0.00319 1.08610 1.05853
 C1645 C -0.00271 1.06913 1.05106
 C1646 C 0.00438 1.06651 1.03377
 C1647 C 0.01126 1.08123 1.02431
 C1648 C 0.01074 1.09818 1.03182
 H1649 H 0.00410 1.19631 1.06373
 H1650 H -0.01016 1.16887 1.11234
 H1651 H -0.01089 1.19702 1.12843
 H1652 H 0.00358 1.22454 1.07955
 H1653 H -0.00890 1.08788 1.07176
 H1654 H -0.00810 1.05814 1.05873
 H1655 H 0.01681 1.07971 1.01099
 H1656 H 0.01589 1.10938 1.02425
 C1657 C 0.49977 0.70342 0.57845
 C1658 C 0.49736 0.68752 0.58784
 C1659 C 0.49426 0.68786 0.60628
 C1660 C 0.49374 0.70399 0.61536
 C1661 C 0.49605 0.72018 0.60613
 C1662 C 0.49924 0.71964 0.58751
 C1663 C 0.49888 0.67074 0.57888
 C1664 C 0.50028 0.65642 0.57191
 C1665 C 0.50194 0.63943 0.56426
 C1666 C 0.50324 0.62477 0.55803
 C1667 C 0.50451 0.60715 0.55082
 C1668 C 0.49799 0.59271 0.56070
 C1669 C 0.49849 0.57565 0.55346
 C1670 C 0.50550 0.57281 0.53619
 C1671 C 0.51238 0.58740 0.52652
 C1672 C 0.51186 0.60445 0.53380
 H1673 H 0.50247 0.70326 0.56419
 H1674 H 0.49262 0.67562 0.61373
 H1675 H 0.49197 0.70380 0.62975
 H1676 H 0.50198 0.73154 0.57991
 H1677 H 0.49230 0.59467 0.57391
 H1678 H 0.49309 0.56475 0.56129
 H1679 H 0.51788 0.58571 0.51320
 H1680 H 0.51696 0.61555 0.52606
 C1681 C -0.00512 0.69750 0.42316
 C1682 C 0.00018 0.68184 0.41470
 C1683 C 0.00630 0.68233 0.39703
 C1684 C 0.00704 0.69838 0.38777
 C1685 C 0.00192 0.71435 0.39609
 C1686 C -0.00438 0.71364 0.41392
 C1687 C -0.00125 0.66507 0.42375
 C1688 C -0.00240 0.65072 0.43077
 C1689 C -0.00361 0.63370 0.43849
 C1690 C -0.00449 0.61903 0.44482
 C1691 C -0.00528 0.60147 0.45225
 C1692 C 0.00034 0.58697 0.44205
 C1693 C 0.00021 0.56995 0.44947
 C1694 C -0.00552 0.56723 0.46725
 C1695 C -0.01143 0.58190 0.47728
 C1696 C -0.01129 0.59889 0.46982
 H1697 H -0.01016 0.69719 0.43678
 H1698 H 0.01021 0.67025 0.39027
 H1699 H 0.01130 0.69826 0.37390
 H1700 H -0.00929 0.72531 0.42065
 H1701 H 0.00500 0.58884 0.42842
 H1702 H 0.00484 0.55898 0.44137
 H1703 H -0.01596 0.58031 0.49098
 H1704 H -0.01568 0.61003 0.47781
 C1705 C 0.50063 1.20246 -0.07613
 C1706 C 0.50124 1.18669 -0.08594
 C1707 C 0.50187 1.18729 -0.10461
 C1708 C 0.50188 1.20357 -0.11345
 C1709 C 0.50142 1.21963 -0.10382
 C1710 C 0.50064 1.21884 -0.08497
 C1711 C 0.50078 1.16979 -0.07705
 C1712 C 0.50028 1.15538 -0.07011
 C1713 C 0.49962 1.13832 -0.06242
 C1714 C 0.49901 1.12364 -0.05608
 C1715 C 0.49827 1.10608 -0.04862
 C1716 C 0.50420 1.09160 -0.05867
 C1717 C 0.50365 1.07454 -0.05136
 C1718 C 0.49716 1.07175 -0.03385
 C1719 C 0.49111 1.08642 -0.02392
 C1720 C 0.49167 1.10345 -0.03127
 H1721 H 0.49993 1.20210 -0.06164
 H1722 H 0.50220 1.17516 -0.11235
 H1723 H 0.50208 1.20365 -0.12795
 H1724 H 0.49966 1.23063 -0.07688
 H1725 H 0.50931 1.09351 -0.07214
 H1726 H 0.50841 1.06357 -0.05937
 H1727 H 0.48602 1.08479 -0.01042
 H1728 H 0.48703 1.11458 -0.02340
 C1729 C 0.50824 0.31937 -0.11113
 C1730 C 0.50427 0.32237 -0.09308
 C1731 C 0.49874 0.30823 -0.08224
 C1732 C 0.49747 0.29112 -0.08930
 C1733 C 0.50185 0.28778 -0.10738
 C1734 C 0.50696 0.30226 -0.11825
 C1735 C 0.50586 0.33990 -0.08562
 C1736 C 0.50715 0.35448 -0.07911
 C1737 C 0.50852 0.37144 -0.07121
 C1738 C 0.50946 0.38582 -0.06422
 C1739 C 0.51023 0.40288 -0.05560
 C1740 C 0.51705 0.40439 -0.03827
 C1741 C 0.51678 0.42071 -0.02942
 C1742 C 0.50961 0.43580 -0.03778
 C1743 C 0.50317 0.43422 -0.05539
 C1744 C 0.50346 0.41787 -0.06420
 H1745 H 0.51242 0.33025 -0.11969
 H1746 H 0.49542 0.31041 -0.06828
 H1747 H 0.49284 0.28060 -0.08056
 H1748 H 0.51022 0.30053 -0.13220
 H1749 H 0.52231 0.39286 -0.03147
 H1750 H 0.52186 0.42142 -0.01590
 H1751 H 0.49757 0.44553 -0.06226
 H1752 H 0.49813 0.41686 -0.07761
 C1753 C 0.01092 -0.18766 0.38899
 C1754 C 0.00211 -0.18347 0.40498
 C1755 C -0.00794 -0.19649 0.41391
 C1756 C -0.00902 -0.21368 0.40700
 C1757 C -0.00008 -0.21806 0.39102
 C1758 C 0.00984 -0.20485 0.38203
 C1759 C 0.00360 -0.16593 0.41246
 C1760 C 0.00479 -0.15135 0.41899
 C1761 C 0.00605 -0.13441 0.42693
 C1762 C 0.00692 -0.12004 0.43395
 C1763 C 0.00762 -0.10300 0.44262
 C1764 C 0.01447 -0.10152 0.45994
 C1765 C 0.01422 -0.08520 0.46881
 C1766 C 0.00706 -0.07010 0.46046
 C1767 C 0.00057 -0.07166 0.44288
 C1768 C 0.00084 -0.08800 0.43405
 H1769 H 0.01881 -0.17771 0.38200
 H1770 H -0.01484 -0.19339 0.42629
 H1771 H -0.01689 -0.22353 0.41412
 H1772 H 0.01717 -0.20788 0.36990
 H1773 H 0.01974 -0.11305 0.46672
 H1774 H 0.01935 -0.08451 0.48231
 H1775 H -0.00502 -0.06034 0.43602
 H1776 H -0.00452 -0.08900 0.42064
 C1777 C 0.50371 -0.19170 0.58487
 C1778 C 0.49885 -0.17730 0.59556
 C1779 C 0.49397 -0.18012 0.61344
 C1780 C 0.49382 -0.19729 0.62057
 C1781 C 0.49840 -0.21195 0.60987
 C1782 C 0.50355 -0.20885 0.59195
 C1783 C 0.49881 -0.15969 0.58806
 C1784 C 0.49878 -0.14510 0.58144
 C1785 C 0.49876 -0.12818 0.57332
 C1786 C 0.49874 -0.11388 0.56608
 C1787 C 0.49873 -0.09699 0.55706
 C1788 C 0.50552 -0.08185 0.56552
 C1789 C 0.50578 -0.06554 0.55657
 C1790 C 0.49926 -0.06416 0.53898
 C1791 C 0.49235 -0.07946 0.53066
 C1792 C 0.49211 -0.09573 0.53964
 H1793 H 0.50766 -0.18967 0.57104
 H1794 H 0.49023 -0.16905 0.62187
 H1795 H 0.48991 -0.19894 0.63438
 H1796 H 0.50773 -0.21962 0.58337
 H1797 H 0.51069 -0.08267 0.57901
 H1798 H 0.51116 -0.05406 0.56341
 H1799 H 0.48719 -0.07892 0.51716
 H1800 H 0.48682 -0.10736 0.53295
 C1801 C -0.00579 0.31307 1.11170
 C1802 C -0.00071 0.31565 1.09384
 C1803 C 0.00413 0.30110 1.08336
 C1804 C 0.00370 0.28401 1.09062
 C1805 C -0.00172 0.28114 1.10851
 C1806 C -0.00622 0.29598 1.11900
 C1807 C -0.00058 0.33318 1.08616
 C1808 C -0.00055 0.34774 1.07946
 C1809 C -0.00058 0.36466 1.07134
 C1810 C -0.00069 0.37900 1.06419
 C1811 C -0.00091 0.39600 1.05538
 C1812 C -0.00803 0.39750 1.03818
 C1813 C -0.00826 0.41394 1.02953
 C1814 C -0.00134 0.42917 1.03798
 C1815 C 0.00579 0.42751 1.05531
 C1816 C 0.00599 0.41104 1.06392
 H1817 H -0.00951 0.32426 1.11997
 H1818 H 0.00825 0.30294 1.06956
 H1819 H 0.00786 0.27312 1.08220
 H1820 H -0.01028 0.29455 1.13279
 H1821 H -0.01341 0.38594 1.03144
 H1822 H -0.01386 0.41469 1.01623
 H1823 H 0.01120 0.43893 1.06223
 H1824 H 0.01154 0.41003 1.07724
 C1825 C 0.74009 0.33137 0.05404
 C1826 C 0.75764 0.32769 0.05887
 C1827 C 0.77166 0.33263 0.04744
 C1828 C 0.76818 0.34200 0.03163
 C1829 C 0.75057 0.34693 0.02718
 C1830 C 0.73656 0.34079 0.03840
 C1831 C 0.76100 0.31994 0.07616
 C1832 C 0.76288 0.31401 0.09103
 C1833 C 0.76412 0.30751 0.10872
 C1834 C 0.76446 0.30217 0.12394
 C1835 C 0.76411 0.29581 0.14214
 C1836 C 0.77239 0.27984 0.14656
 C1837 C 0.77091 0.27304 0.16393
 C1838 C 0.76105 0.28209 0.17715
 C1839 C 0.75315 0.29838 0.17266
 C1840 C 0.75466 0.30516 0.15527
 H1841 H 0.72907 0.32736 0.06263
 H1842 H 0.78535 0.32982 0.05104
 H1843 H 0.77951 0.34631 0.02378
 H1844 H 0.72272 0.34314 0.03524
 H1845 H 0.77971 0.27247 0.13651
 H1846 H 0.77720 0.26049 0.16688
 H1847 H 0.74547 0.30571 0.18245
 H1848 H 0.74815 0.31752 0.15199
 C1849 C 0.25802 0.85116 0.56334
 C1850 C 0.26456 0.83388 0.56243
 C1851 C 0.26778 0.82607 0.54569
 C1852 C 0.26403 0.83546 0.52993
 C1853 C 0.25680 0.85257 0.53086
 C1854 C 0.25420 0.86044 0.54772
 C1855 C 0.26688 0.82423 0.57888
 C1856 C 0.26788 0.81707 0.59328
 C1857 C 0.26811 0.80958 0.61061
 C1858 C 0.26765 0.80371 0.62562
 C1859 C 0.26646 0.79707 0.64367
 C1860 C 0.27494 0.78129 0.64839
 C1861 C 0.27315 0.77454 0.66575
 C1862 C 0.26279 0.78348 0.67867
 C1863 C 0.25453 0.79948 0.67384
 C1864 C 0.25636 0.80620 0.65647
 H1865 H 0.25555 0.85738 0.57618
 H1866 H 0.27284 0.81267 0.54484
 H1867 H 0.26621 0.82917 0.51708
 H1868 H 0.24909 0.87380 0.54886
 H1869 H 0.28279 0.77410 0.63860
 H1870 H 0.27972 0.76220 0.66897
 H1871 H 0.24647 0.80672 0.68340
 H1872 H 0.24971 0.81843 0.65295
 C1873 C 0.76315 0.67683 0.54736
 C1874 C 0.75793 0.66949 0.56385
 C1875 C 0.75127 0.65216 0.56458
 C1876 C 0.74931 0.64234 0.54894
 C1877 C 0.75395 0.64972 0.53225
 C1878 C 0.76126 0.66691 0.53159
 C1879 C 0.75855 0.67960 0.58016
 C1880 C 0.75821 0.68708 0.59439
 C1881 C 0.75707 0.69485 0.61153
 C1882 C 0.75569 0.70083 0.62642
 C1883 C 0.75381 0.70741 0.64440
 C1884 C 0.76000 0.69733 0.65879
 C1885 C 0.75815 0.70358 0.67630
 C1886 C 0.75005 0.72005 0.67967
 C1887 C 0.74367 0.72998 0.66509
 C1888 C 0.74554 0.72368 0.64759
 H1889 H 0.76834 0.69025 0.54666
 H1890 H 0.74730 0.64630 0.57726
 H1891 H 0.74405 0.62896 0.54991
 H1892 H 0.76495 0.67286 0.51889
 H1893 H 0.76633 0.68465 0.65647
 H1894 H 0.76325 0.69559 0.68716
 H1895 H 0.73740 0.74272 0.66716
 H1896 H 0.74060 0.73154 0.63655
 C1897 C 0.24699 0.15275 0.06273
 C1898 C 0.25368 0.17006 0.06179
 C1899 C 0.25912 0.17711 0.04524
 C1900 C 0.25747 0.16692 0.02963
 C1901 C 0.25019 0.14971 0.03049
 C1902 C 0.24528 0.14265 0.04725
 C1903 C 0.25428 0.18036 0.07797
 C1904 C 0.25401 0.18794 0.09216
 C1905 C 0.25304 0.19574 0.10929
 C1906 C 0.25189 0.20167 0.12422
 C1907 C 0.25036 0.20807 0.14230
 C1908 C 0.24243 0.22445 0.14583
 C1909 C 0.24098 0.23057 0.16345
 C1910 C 0.24745 0.22035 0.17778
 C1911 C 0.25519 0.20378 0.17406
 C1912 C 0.25661 0.19771 0.15645
 H1913 H 0.24286 0.14711 0.07546
 H1914 H 0.26435 0.19051 0.04439
 H1915 H 0.26137 0.17263 0.01689
 H1916 H 0.24005 0.12927 0.04840
 H1917 H 0.23745 0.23253 0.13498
 H1918 H 0.23499 0.24339 0.16579
 H1919 H 0.26034 0.19557 0.18472
 H1920 H 0.26269 0.18496 0.15387
 C1921 C 0.25892 0.15540 0.93425
 C1922 C 0.26425 0.17296 0.93710
 C1923 C 0.26620 0.17930 0.95463
 C1924 C 0.26231 0.16817 0.96922
 C1925 C 0.25622 0.15074 0.96634
 C1926 C 0.25495 0.14438 0.94872
 C1927 C 0.26648 0.18439 0.92179
 C1928 C 0.26736 0.19288 0.90812
 C1929 C 0.26732 0.20157 0.89137
 C1930 C 0.26648 0.20796 0.87660
 C1931 C 0.26457 0.21436 0.85855
 C1932 C 0.27037 0.23138 0.85364
 C1933 C 0.26799 0.23740 0.83607
 C1934 C 0.25973 0.22646 0.82322
 C1935 C 0.25407 0.20935 0.82834
 C1936 C 0.25648 0.20339 0.84584
 H1937 H 0.25742 0.15033 0.92077
 H1938 H 0.27028 0.19290 0.95699
 H1939 H 0.26340 0.17335 0.98268
 H1940 H 0.25068 0.13089 0.94610
 H1941 H 0.27664 0.24000 0.86338
 H1942 H 0.27253 0.25063 0.83259
 H1943 H 0.24772 0.20053 0.81885
 H1944 H 0.25193 0.19019 0.84949
 C1945 C 0.76938 0.68066 0.45678
 C1946 C 0.76708 0.67469 0.43917
 C1947 C 0.76136 0.65729 0.43606
 C1948 C 0.75735 0.64607 0.45036
 C1949 C 0.75898 0.65208 0.46808
 C1950 C 0.76547 0.66932 0.47122
 C1951 C 0.76932 0.68634 0.42403
 C1952 C 0.77014 0.69497 0.41045
 C1953 C 0.77000 0.70373 0.39375
 C1954 C 0.76902 0.71008 0.37898
 C1955 C 0.76691 0.71631 0.36089
 C1956 C 0.75760 0.70569 0.34873
 C1957 C 0.75526 0.71132 0.33111
 C1958 C 0.76222 0.72775 0.32531
 C1959 C 0.77158 0.73839 0.33765
 C1960 C 0.77390 0.73269 0.35534
 H1961 H 0.77376 0.69412 0.45935
 H1962 H 0.75958 0.65250 0.42251
 H1963 H 0.75277 0.63272 0.44755
 H1964 H 0.76683 0.67422 0.48475
 H1965 H 0.75211 0.69299 0.35287
 H1966 H 0.74800 0.70275 0.32205
 H1967 H 0.77712 0.75110 0.33364
 H1968 H 0.78113 0.74103 0.36465
 C1969 C 0.26350 0.82268 0.45214
 C1970 C 0.26038 0.82986 0.43511
 C1971 C 0.25565 0.84767 0.43344
 C1972 C 0.25336 0.85812 0.44862
 C1973 C 0.25574 0.85092 0.46579
 C1974 C 0.26131 0.83325 0.46747
 C1975 C 0.26087 0.81913 0.41918
 C1976 C 0.26046 0.81127 0.40513
 C1977 C 0.25926 0.80324 0.38810
 C1978 C 0.25788 0.79721 0.37322
 C1979 C 0.25604 0.79083 0.35515
 C1980 C 0.26458 0.79985 0.34111
 C1981 C 0.26252 0.79409 0.32347
 C1982 C 0.25183 0.77917 0.31956
 C1983 C 0.24321 0.77022 0.33378
 C1984 C 0.24530 0.77603 0.35144
 H1985 H 0.26717 0.80889 0.45359
 H1986 H 0.25328 0.85340 0.42036
 H1987 H 0.24938 0.87180 0.44695
 H1988 H 0.26322 0.82745 0.48058
 H1989 H 0.27283 0.81139 0.34380
 H1990 H 0.26937 0.80131 0.31292
 H1991 H 0.23492 0.75868 0.33130
 H1992 H 0.23852 0.76901 0.36219
 C1993 C 0.76470 0.32465 0.95174
 C1994 C 0.75635 0.32905 0.93562
 C1995 C 0.74596 0.34427 0.93466
 C1996 C 0.74355 0.35490 0.94967
 C1997 C 0.75144 0.35059 0.96625
 C1998 C 0.76237 0.33537 0.96694
 C1999 C 0.75789 0.31819 0.91984
 C2000 C 0.75810 0.31015 0.90590
 C2001 C 0.75740 0.30186 0.88897
 C2002 C 0.75629 0.29560 0.87416
 C2003 C 0.75463 0.28897 0.85616
 C2004 C 0.76320 0.29787 0.84207
 C2005 C 0.76115 0.29198 0.82447
 C2006 C 0.75044 0.27704 0.82066
 C2007 C 0.74184 0.26818 0.83494
 C2008 C 0.74391 0.27413 0.85256
 H2009 H 0.77278 0.31283 0.95263
 H2010 H 0.73962 0.34797 0.92220
 H2011 H 0.73578 0.36680 0.94793
 H2012 H 0.76851 0.33110 0.97924
 H2013 H 0.77142 0.30945 0.84468
 H2014 H 0.76801 0.29913 0.81387
 H2015 H 0.73353 0.25663 0.83253
 H2016 H 0.73710 0.26720 0.86334
 C2017 C 0.82480 0.44667 0.23958
 C2018 C 0.82397 0.43753 0.25586
 C2019 C 0.83229 0.44469 0.27101
 C2020 C 0.84206 0.46057 0.26966
 C2021 C 0.84373 0.46924 0.25308
 C2022 C 0.83460 0.46240 0.23819
 C2023 C 0.81595 0.42013 0.25632
 C2024 C 0.80975 0.40534 0.25575
 C2025 C 0.80299 0.38788 0.25427
 C2026 C 0.79753 0.37290 0.25259
 C2027 C 0.79125 0.35494 0.25037
 C2028 C 0.80069 0.34090 0.25798
 C2029 C 0.79453 0.32347 0.25605
 C2030 C 0.77880 0.31982 0.24644
 C2031 C 0.76958 0.33403 0.23857
 C2032 C 0.77578 0.35146 0.24054
 H2033 H 0.81843 0.44128 0.22778
 H2034 H 0.83180 0.43768 0.28367
 H2035 H 0.84909 0.46551 0.28127
 H2036 H 0.83551 0.46896 0.22531
 H2037 H 0.81274 0.34344 0.26554
 H2038 H 0.80198 0.31290 0.26229
 H2039 H 0.75743 0.33174 0.23112
 H2040 H 0.76842 0.36222 0.23451
 C2041 C 0.32500 0.94958 0.74020
 C2042 C 0.32436 0.94094 0.75675
 C2043 C 0.33310 0.94841 0.77151
 C2044 C 0.34307 0.96409 0.76948
 C2045 C 0.34452 0.97226 0.75263
 C2046 C 0.33499 0.96513 0.73813
 C2047 C 0.31610 0.92368 0.75791
 C2048 C 0.30972 0.90896 0.75791
 C2049 C 0.30278 0.89152 0.75705
 C2050 C 0.29722 0.87653 0.75584
 C2051 C 0.29093 0.85854 0.75404
 C2052 C 0.30011 0.84471 0.76234
 C2053 C 0.29418 0.82720 0.76045
 C2054 C 0.27895 0.82324 0.75018
 C2055 C 0.26988 0.83725 0.74178
 C2056 C 0.27585 0.85476 0.74371
 H2057 H 0.31830 0.94395 0.72869
 H2058 H 0.33277 0.94178 0.78438
 H2059 H 0.35041 0.96926 0.78080
 H2060 H 0.33572 0.97130 0.72505
 H2061 H 0.31185 0.84747 0.77030
 H2062 H 0.30149 0.81680 0.76712
 H2063 H 0.25811 0.83472 0.73382
 H2064 H 0.26869 0.86535 0.73714
 C2065 C 0.17949 0.94912 0.24149
 C2066 C 0.18017 0.94112 0.25837
 C2067 C 0.17047 0.94836 0.27265
 C2068 C 0.15949 0.96306 0.26985
 C2069 C 0.15798 0.97053 0.25271
 C2070 C 0.16849 0.96373 0.23867
 C2071 C 0.18919 0.92441 0.26033
 C2072 C 0.19601 0.90999 0.26114
 C2073 C 0.20320 0.89272 0.26124
 C2074 C 0.20871 0.87773 0.26071
 C2075 C 0.21461 0.85962 0.25940
 C2076 C 0.23121 0.85455 0.26614
 C2077 C 0.23689 0.83697 0.26445
 C2078 C 0.22601 0.82423 0.25596
 C2079 C 0.20931 0.82950 0.24931
 C2080 C 0.20369 0.84704 0.25103
 H2081 H 0.18687 0.94362 0.23031
 H2082 H 0.17077 0.94218 0.28574
 H2083 H 0.15138 0.96782 0.28079
 H2084 H 0.16766 0.96931 0.22534
 H2085 H 0.23979 0.86419 0.27262
 H2086 H 0.24981 0.83340 0.26973
 H2087 H 0.20057 0.82009 0.24273
 H2088 H 0.19081 0.85082 0.24574
 C2089 C 0.67510 0.44525 0.74290
 C2090 C 0.67706 0.43825 0.76011
 C2091 C 0.66904 0.44677 0.77472
 C2092 C 0.65857 0.46187 0.77200
 C2093 C 0.65586 0.46844 0.75463
 C2094 C 0.66460 0.46022 0.74017
 C2095 C 0.68601 0.42154 0.76229
 C2096 C 0.69290 0.40716 0.76319
 C2097 C 0.70029 0.38996 0.76330
 C2098 C 0.70601 0.37506 0.76269
 C2099 C 0.71215 0.35704 0.76122
 C2100 C 0.72888 0.35215 0.76778
 C2101 C 0.73479 0.33466 0.76589
 C2102 C 0.72403 0.32184 0.75737
 C2103 C 0.70721 0.32695 0.75089
 C2104 C 0.70135 0.34439 0.75281
 H2105 H 0.68122 0.43879 0.73149
 H2106 H 0.67038 0.44142 0.78810
 H2107 H 0.65192 0.46781 0.78333
 H2108 H 0.66299 0.46515 0.72666
 H2109 H 0.73737 0.36184 0.77428
 H2110 H 0.74780 0.33121 0.77105
 H2111 H 0.69854 0.31748 0.74430
 H2112 H 0.68839 0.34803 0.74765
 C2113 C 0.67427 0.55346 0.73889
 C2114 C 0.67488 0.56224 0.75535
 C2115 C 0.66662 0.55461 0.77041
 C2116 C 0.65715 0.53859 0.76880
 C2117 C 0.65573 0.53024 0.75206
 C2118 C 0.66478 0.53758 0.73724
 C2119 C 0.68270 0.57972 0.75614
 C2120 C 0.68877 0.59457 0.75586
 C2121 C 0.69546 0.61209 0.75471
 C2122 C 0.70092 0.62711 0.75331
 C2123 C 0.70729 0.64509 0.75137
 C2124 C 0.69724 0.65915 0.75819
 C2125 C 0.70349 0.67659 0.75651
 C2126 C 0.71993 0.68023 0.74796
 C2127 C 0.72978 0.66599 0.74088
 C2128 C 0.72349 0.64856 0.74259
 H2129 H 0.68061 0.55922 0.72715
 H2130 H 0.66695 0.56133 0.78320
 H2131 H 0.65017 0.53326 0.78036
 H2132 H 0.66405 0.53129 0.72424
 H2133 H 0.68464 0.65662 0.76494
 H2134 H 0.69556 0.68718 0.76214
 H2135 H 0.74249 0.66826 0.73425
 H2136 H 0.73134 0.63778 0.73718
 C2137 C 0.17593 0.04851 0.25980
 C2138 C 0.16776 0.06460 0.25534
 C2139 C 0.14994 0.06468 0.24993
 C2140 C 0.14046 0.04881 0.24837
 C2141 C 0.14867 0.03253 0.25219
 C2142 C 0.16637 0.03252 0.25833
 C2143 C 0.17759 0.08107 0.25533
 C2144 C 0.18497 0.09531 0.25459
 C2145 C 0.19276 0.11236 0.25312
 C2146 C 0.19884 0.12713 0.25160
 C2147 C 0.20558 0.14497 0.24972
 C2148 C 0.19584 0.15914 0.25675
 C2149 C 0.20234 0.17649 0.25512
 C2150 C 0.21872 0.17994 0.24640
 C2151 C 0.22828 0.16560 0.23913
 C2152 C 0.22174 0.14825 0.24078
 H2153 H 0.18974 0.04830 0.26400
 H2154 H 0.14345 0.07703 0.24652
 H2155 H 0.12673 0.04923 0.24393
 H2156 H 0.17300 0.02014 0.26128
 H2157 H 0.18327 0.15677 0.26362
 H2158 H 0.19461 0.18715 0.26091
 H2159 H 0.24094 0.16774 0.23237
 H2160 H 0.22936 0.13739 0.23521
 C2161 C 0.33015 0.05981 0.74595
 C2162 C 0.33006 0.06660 0.76336
 C2163 C 0.33816 0.05706 0.77718
 C2164 C 0.34685 0.04108 0.77344
 C2165 C 0.34764 0.03462 0.75583
 C2166 C 0.33887 0.04395 0.74219
 C2167 C 0.32278 0.08394 0.76650
 C2168 C 0.31701 0.09874 0.76817
 C2169 C 0.31048 0.11623 0.76909
 C2170 C 0.30496 0.13121 0.76912
 C2171 C 0.29825 0.14903 0.76835
 C2172 C 0.28208 0.15325 0.77672
 C2173 C 0.27483 0.17016 0.77472
 C2174 C 0.28364 0.18311 0.76425
 C2175 C 0.30014 0.17887 0.75628
 C2176 C 0.30736 0.16194 0.75830
 H2177 H 0.32393 0.06707 0.73514
 H2178 H 0.33825 0.06224 0.79069
 H2179 H 0.35371 0.03431 0.78411
 H2180 H 0.33914 0.03917 0.72853
 H2181 H 0.27489 0.14335 0.78448
 H2182 H 0.26213 0.17294 0.78110
 H2183 H 0.30730 0.18849 0.74815
 H2184 H 0.31987 0.15879 0.75171
 C2185 C 0.82749 0.55579 0.24637
 C2186 C 0.82767 0.56338 0.26343
 C2187 C 0.83621 0.55463 0.27750
 C2188 C 0.84515 0.53868 0.27433
 C2189 C 0.84572 0.53144 0.25704
 C2190 C 0.83646 0.53993 0.24318
 C2191 C 0.82044 0.58085 0.26592
 C2192 C 0.81485 0.59575 0.26718
 C2193 C 0.80867 0.61337 0.26782
 C2194 C 0.80353 0.62848 0.26775
 C2195 C 0.79735 0.64650 0.26705
 C2196 C 0.78158 0.65125 0.27588
 C2197 C 0.77500 0.66847 0.27429
 C2198 C 0.78409 0.68121 0.26379
 C2199 C 0.80014 0.67639 0.25527
 C2200 C 0.80670 0.65914 0.25688
 H2201 H 0.82097 0.56245 0.23536
 H2202 H 0.83655 0.56047 0.29074
 H2203 H 0.85245 0.53264 0.28511
 H2204 H 0.83665 0.53457 0.22973
 H2205 H 0.77422 0.64156 0.28376
 H2206 H 0.76262 0.67169 0.28108
 H2207 H 0.80749 0.68582 0.24709
 H2208 H 0.81890 0.65558 0.24995
 C2209 C 0.94736 0.27173 0.16589
 C2210 C 0.93909 0.25795 0.17548
 C2211 C 0.94651 0.24097 0.17518
 C2212 C 0.96159 0.23758 0.16469
 C2213 C 0.96948 0.25113 0.15432
 C2214 C 0.96253 0.26835 0.15542
 C2215 C 0.92205 0.26059 0.18409
 C2216 C 0.90736 0.26203 0.19063
 C2217 C 0.88981 0.26289 0.19760
 C2218 C 0.87460 0.26296 0.20303
 C2219 C 0.85626 0.26229 0.20895
 C2220 C 0.85134 0.26881 0.22580
 C2221 C 0.83362 0.26733 0.23171
 C2222 C 0.82058 0.25925 0.22086
 C2223 C 0.82566 0.25298 0.20384
 C2224 C 0.84335 0.25450 0.19797
 H2225 H 0.94165 0.28489 0.16589
 H2226 H 0.94022 0.23018 0.18249
 H2227 H 0.96675 0.22421 0.16417
 H2228 H 0.96810 0.27893 0.14737
 H2229 H 0.86123 0.27484 0.23443
 H2230 H 0.83020 0.27231 0.24488
 H2231 H 0.81601 0.24673 0.19510
 H2232 H 0.84700 0.24938 0.18491
 C2233 C 0.44967 0.77697 0.66950
 C2234 C 0.44222 0.76286 0.67928
 C2235 C 0.45006 0.74610 0.67841
 C2236 C 0.46469 0.74322 0.66715
 C2237 C 0.47169 0.75708 0.65657
 C2238 C 0.46440 0.77411 0.65827
 C2239 C 0.42543 0.76488 0.68853
 C2240 C 0.41089 0.76575 0.69549
 C2241 C 0.39345 0.76590 0.70278
 C2242 C 0.37829 0.76539 0.70831
 C2243 C 0.35995 0.76406 0.71410
 C2244 C 0.34740 0.75600 0.70290
 C2245 C 0.32963 0.75424 0.70840
 C2246 C 0.32409 0.76052 0.72526
 C2247 C 0.33680 0.76870 0.73643
 C2248 C 0.35462 0.77044 0.73087
 H2249 H 0.44361 0.78997 0.66994
 H2250 H 0.44438 0.73505 0.68584
 H2251 H 0.47015 0.72999 0.66619
 H2252 H 0.46931 0.78492 0.65010
 H2253 H 0.35138 0.75099 0.68989
 H2254 H 0.32026 0.74790 0.69942
 H2255 H 0.33302 0.77369 0.74949
 H2256 H 0.36423 0.77668 0.73968
 C2257 C 0.45102 0.26393 0.82634
 C2258 C 0.43436 0.25967 0.83392
 C2259 C 0.43327 0.25453 0.85187
 C2260 C 0.44873 0.25301 0.86205
 C2261 C 0.46557 0.25661 0.85442
 C2262 C 0.46659 0.26250 0.83659
 C2263 C 0.41830 0.25960 0.82340
 C2264 C 0.40434 0.25885 0.81546
 C2265 C 0.38752 0.25741 0.80710
 C2266 C 0.37286 0.25597 0.80064
 C2267 C 0.35506 0.25424 0.79362
 C2268 C 0.34081 0.26225 0.80261
 C2269 C 0.32345 0.26062 0.79603
 C2270 C 0.32005 0.25092 0.78030
 C2271 C 0.33446 0.24274 0.77145
 C2272 C 0.35184 0.24440 0.77808
 H2273 H 0.45202 0.26793 0.81243
 H2274 H 0.42048 0.25128 0.85792
 H2275 H 0.44753 0.24874 0.87585
 H2276 H 0.47942 0.26527 0.83040
 H2277 H 0.34311 0.26982 0.81471
 H2278 H 0.31273 0.26710 0.80322
 H2279 H 0.33235 0.23520 0.75931
 H2280 H 0.36276 0.23806 0.77106
 C2281 C 0.93961 0.74194 0.34197
 C2282 C 0.94020 0.75411 0.32795
 C2283 C 0.95587 0.76386 0.32473
 C2284 C 0.97091 0.76137 0.33558
 C2285 C 0.97053 0.74900 0.34984
 C2286 C 0.95445 0.73942 0.35277
 C2287 C 0.92436 0.75638 0.31736
 C2288 C 0.91032 0.75724 0.30957
 C2289 C 0.89328 0.75727 0.30155
 C2290 C 0.87839 0.75673 0.29550
 C2291 C 0.86031 0.75566 0.28906
 C2292 C 0.85609 0.74487 0.27442
 C2293 C 0.83838 0.74322 0.26875
 C2294 C 0.82460 0.75232 0.27769
 C2295 C 0.82902 0.76315 0.29238
 C2296 C 0.84673 0.76478 0.29801
 H2297 H 0.92749 0.73447 0.34475
 H2298 H 0.95649 0.77332 0.31382
 H2299 H 0.98283 0.76884 0.33228
 H2300 H 0.95274 0.73037 0.36386
 H2301 H 0.86648 0.73764 0.26747
 H2302 H 0.83550 0.73480 0.25739
 H2303 H 0.81881 0.77038 0.29958
 H2304 H 0.84980 0.77306 0.30944
 C2305 C 0.06586 0.75756 0.35055
 C2306 C 0.06468 0.76290 0.33269
 C2307 C 0.04787 0.76461 0.32470
 C2308 C 0.03233 0.76046 0.33448
 C2309 C 0.03358 0.75432 0.35218
 C2310 C 0.05046 0.75333 0.36023
 C2311 C 0.08098 0.76540 0.32264
 C2312 C 0.09525 0.76659 0.31517
 C2313 C 0.11245 0.76706 0.30732
 C2314 C 0.12737 0.76683 0.30116
 C2315 C 0.14533 0.76589 0.29422
 C2316 C 0.14972 0.77377 0.27781
 C2317 C 0.16700 0.77220 0.27081
 C2318 C 0.18016 0.76269 0.28013
 C2319 C 0.17565 0.75503 0.29675
 C2320 C 0.15836 0.75663 0.30372
 H2321 H 0.07876 0.75625 0.35691
 H2322 H 0.04681 0.76871 0.31085
 H2323 H 0.01945 0.76137 0.32804
 H2324 H 0.05179 0.74905 0.37400
 H2325 H 0.13974 0.78095 0.27033
 H2326 H 0.16996 0.77828 0.25798
 H2327 H 0.18540 0.74763 0.30430
 H2328 H 0.15510 0.75046 0.31644
 C2329 C 0.55304 0.27597 0.83784
 C2330 C 0.56025 0.26209 0.82772
 C2331 C 0.55118 0.24585 0.82678
 C2332 C 0.53547 0.24318 0.83661
 C2333 C 0.52864 0.25674 0.84752
 C2334 C 0.53727 0.27332 0.84765
 C2335 C 0.57777 0.26377 0.81985
 C2336 C 0.59273 0.26448 0.81383
 C2337 C 0.61042 0.26463 0.80721
 C2338 C 0.62559 0.26429 0.80173
 C2339 C 0.64368 0.26344 0.79516
 C2340 C 0.64836 0.27182 0.77909
 C2341 C 0.66568 0.27030 0.77225
 C2342 C 0.67862 0.26032 0.78138
 C2343 C 0.67385 0.25219 0.79771
 C2344 C 0.65649 0.25374 0.80452
 H2345 H 0.56004 0.28855 0.83881
 H2346 H 0.55665 0.23499 0.81906
 H2347 H 0.52906 0.23026 0.83632
 H2348 H 0.53257 0.28379 0.85626
 H2349 H 0.63855 0.27935 0.77172
 H2350 H 0.66885 0.27677 0.75967
 H2351 H 0.68343 0.24442 0.80509
 H2352 H 0.65299 0.24717 0.81697
 C2353 C 0.54984 0.76361 0.67431
 C2354 C 0.56608 0.75914 0.66609
 C2355 C 0.56633 0.75391 0.64815
 C2356 C 0.55045 0.75251 0.63863
 C2357 C 0.53401 0.75632 0.64691
 C2358 C 0.53385 0.76231 0.66471
 C2359 C 0.58251 0.75887 0.67598
 C2360 C 0.59670 0.75789 0.68342
 C2361 C 0.61368 0.75613 0.69130
 C2362 C 0.62840 0.75436 0.69748
 C2363 C 0.64616 0.75217 0.70437
 C2364 C 0.66083 0.75853 0.69457
 C2365 C 0.67810 0.75668 0.70126
 C2366 C 0.68096 0.74842 0.71790
 C2367 C 0.66612 0.74179 0.72751
 C2368 C 0.64884 0.74366 0.72077
 H2369 H 0.54950 0.76767 0.68821
 H2370 H 0.57880 0.75049 0.64163
 H2371 H 0.55099 0.74818 0.62482
 H2372 H 0.52134 0.76524 0.67138
 H2373 H 0.65891 0.76506 0.68181
 H2374 H 0.68918 0.76197 0.69350
 H2375 H 0.66780 0.73540 0.74037
 H2376 H 0.63758 0.73861 0.72843
 C2377 C 0.04804 0.25831 0.17387
 C2378 C 0.06438 0.25354 0.16606
 C2379 C 0.06483 0.24733 0.14845
 C2380 C 0.04905 0.24538 0.13884
 C2381 C 0.03251 0.24958 0.14670
 C2382 C 0.03214 0.25643 0.16418
 C2383 C 0.08078 0.25417 0.17602
 C2384 C 0.09499 0.25397 0.18352
 C2385 C 0.11202 0.25313 0.19148
 C2386 C 0.12680 0.25212 0.19770
 C2387 C 0.14465 0.25076 0.20462
 C2388 C 0.15904 0.25773 0.19481
 C2389 C 0.17642 0.25643 0.20140
 C2390 C 0.17967 0.24811 0.21793
 C2391 C 0.16510 0.24097 0.22761
 C2392 C 0.14773 0.24229 0.22098
 H2393 H 0.04754 0.26313 0.18752
 H2394 H 0.07738 0.24368 0.14223
 H2395 H 0.04978 0.24042 0.12526
 H2396 H 0.01957 0.25970 0.17055
 H2397 H 0.15683 0.26423 0.18209
 H2398 H 0.18726 0.26210 0.19359
 H2399 H 0.16708 0.23452 0.24039
 H2400 H 0.13669 0.23677 0.22865
 C2401 C -0.09158 1.01711 0.80859
 C2402 C -0.08515 1.00060 0.81399
 C2403 C -0.08856 0.98560 0.80359
 C2404 C -0.09899 0.98696 0.78823
 C2405 C -0.10657 1.00329 0.78321
 C2406 C -0.10204 1.01853 0.79323
 C2407 C -0.07589 0.99892 0.83069
 C2408 C -0.06868 0.99750 0.84498
 C2409 C -0.06080 0.99593 0.86198
 C2410 C -0.05445 0.99475 0.87669
 C2411 C -0.04721 0.99362 0.89443
 C2412 C -0.03044 0.98610 0.89720
 C2413 C -0.02326 0.98550 0.91441
 C2414 C -0.03279 0.99245 0.92909
 C2415 C -0.04977 0.99976 0.92615
 C2416 C -0.05690 1.00034 0.90894
 H2417 H -0.08874 1.02887 0.81642
 H2418 H -0.08347 0.97277 0.80754
 H2419 H -0.10157 0.97510 0.78049
 H2420 H -0.10646 1.03159 0.78947
 H2421 H -0.02284 0.98085 0.88604
 H2422 H -0.01016 0.97978 0.91617
 H2423 H -0.05749 1.00523 0.93710
 H2424 H -0.06992 1.00617 0.90692
 C2425 C 0.41880 0.49986 0.30249
 C2426 C 0.41085 0.50608 0.31823
 C2427 C 0.39348 0.51271 0.31782
 C2428 C 0.38405 0.51306 0.30177
 C2429 C 0.39194 0.50709 0.28571
 C2430 C 0.40939 0.50020 0.28639
 C2431 C 0.42009 0.50487 0.33498
 C2432 C 0.42747 0.50376 0.34921
 C2433 C 0.43573 0.50245 0.36606
 C2434 C 0.44249 0.50142 0.38061
 C2435 C 0.45026 0.50042 0.39812
 C2436 C 0.44102 0.50728 0.41286
 C2437 C 0.44862 0.50674 0.42987
 C2438 C 0.46562 0.49931 0.43238
 C2439 C 0.47472 0.49224 0.41749
 C2440 C 0.46707 0.49281 0.40047
 H2441 H 0.43213 0.49436 0.30274
 H2442 H 0.38707 0.51727 0.33000
 H2443 H 0.37037 0.51761 0.30203
 H2444 H 0.41567 0.49447 0.27472
 H2445 H 0.42798 0.51318 0.41118
 H2446 H 0.44123 0.51229 0.44100
 H2447 H 0.48781 0.48644 0.41892
 H2448 H 0.47432 0.48745 0.38914
 C2449 C 0.57930 0.00239 0.29829
 C2450 C 0.58727 -0.00325 0.31417
 C2451 C 0.60469 -0.00973 0.31387
 C2452 C 0.61419 -0.01047 0.29779
 C2453 C 0.60633 -0.00503 0.28159
 C2454 C 0.58878 0.00165 0.28213
 C2455 C 0.57803 -0.00159 0.33097
 C2456 C 0.57079 -0.00013 0.34531
 C2457 C 0.56281 0.00158 0.36233
 C2458 C 0.55632 0.00294 0.37703
 C2459 C 0.54886 0.00436 0.39472
 C2460 C 0.55893 -0.00079 0.40952
 C2461 C 0.55159 0.00010 0.42672
 C2462 C 0.53403 0.00616 0.42933
 C2463 C 0.52411 0.01154 0.41434
 C2464 C 0.53149 0.01063 0.39716
 H2465 H 0.56592 0.00775 0.29846
 H2466 H 0.61109 -0.01385 0.32614
 H2467 H 0.62790 -0.01489 0.29810
 H2468 H 0.58249 0.00693 0.27031
 H2469 H 0.57241 -0.00565 0.40776
 H2470 H 0.55961 -0.00415 0.43793
 H2471 H 0.51056 0.01627 0.41585
 H2472 H 0.52360 0.01467 0.38577
 C2473 C 0.07910 0.50533 0.80050
 C2474 C 0.08779 0.50129 0.81649
 C2475 C 0.10574 0.49642 0.81620
 C2476 C 0.11501 0.49559 0.79999
 C2477 C 0.10643 0.49940 0.78369
 C2478 C 0.08835 0.50451 0.78421
 C2479 C 0.07855 0.50253 0.83333
 C2480 C 0.07122 0.50348 0.84767
 C2481 C 0.06307 0.50442 0.86467
 C2482 C 0.05636 0.50499 0.87932
 C2483 C 0.04855 0.50532 0.89692
 C2484 C 0.05845 0.49961 0.91162
 C2485 C 0.05069 0.49919 0.92866
 C2486 C 0.03286 0.50447 0.93119
 C2487 C 0.02312 0.51050 0.91633
 C2488 C 0.03093 0.51089 0.89931
 H2489 H 0.06525 0.50937 0.80065
 H2490 H 0.11266 0.49345 0.82853
 H2491 H 0.12903 0.49218 0.80018
 H2492 H 0.08132 0.50838 0.77228
 H2493 H 0.07212 0.49527 0.90989
 H2494 H 0.05859 0.49451 0.93977
 H2495 H 0.00939 0.51468 0.91779
 H2496 H 0.02316 0.51534 0.88799
 C2497 C 0.11427 0.49501 0.68339
 C2498 C 0.09691 0.50097 0.68044
 C2499 C 0.08696 0.50789 0.69466
 C2500 C 0.09415 0.50837 0.71187
 C2501 C 0.11138 0.50175 0.71521
 C2502 C 0.12150 0.49550 0.70060
 C2503 C 0.08906 0.49956 0.66296
 C2504 C 0.08219 0.49821 0.64847
 C2505 C 0.07387 0.49655 0.63165
 C2506 C 0.06655 0.49520 0.61739
 C2507 C 0.05761 0.49377 0.60044
 C2508 C 0.04033 0.48667 0.59962
 C2509 C 0.03132 0.48599 0.58329
 C2510 C 0.03949 0.49244 0.56754
 C2511 C 0.05701 0.49928 0.56849
 C2512 C 0.06598 0.49994 0.58483
 H2513 H 0.12215 0.48975 0.67244
 H2514 H 0.07357 0.51274 0.69249
 H2515 H 0.08610 0.51395 0.72249
 H2516 H 0.13486 0.49060 0.70232
 H2517 H 0.03373 0.48187 0.61163
 H2518 H 0.01787 0.48064 0.58308
 H2519 H 0.06373 0.50436 0.55666
 H2520 H 0.07936 0.50547 0.58532
 C2521 C 0.61488 0.99324 0.18137
 C2522 C 0.59729 0.99858 0.17850
 C2523 C 0.58700 1.00463 0.19288
 C2524 C 0.59408 1.00489 0.21013
 C2525 C 0.61158 0.99893 0.21336
 C2526 C 0.62202 0.99351 0.19862
 C2527 C 0.58959 0.99751 0.16093
 C2528 C 0.58281 0.99652 0.14637
 C2529 C 0.57452 0.99535 0.12949
 C2530 C 0.56719 0.99448 0.11520
 C2531 C 0.55817 0.99372 0.09826
 C2532 C 0.54059 0.98740 0.09738
 C2533 C 0.53145 0.98755 0.08112
 C2534 C 0.53978 0.99408 0.06549
 C2535 C 0.55761 1.00005 0.06646
 C2536 C 0.56671 0.99988 0.08274
 H2537 H 0.62302 0.98865 0.17029
 H2538 H 0.57341 1.00900 0.19079
 H2539 H 0.58576 1.00981 0.22089
 H2540 H 0.63557 0.98911 0.20026
 H2541 H 0.53385 0.98261 0.10933
 H2542 H 0.51776 0.98284 0.08089
 H2543 H 0.56447 1.00514 0.05471
 H2544 H 0.58032 1.00481 0.08327
 C2545 C 0.41214 0.49249 0.19799
 C2546 C 0.40249 0.49838 0.18320
 C2547 C 0.38519 0.50490 0.18562
 C2548 C 0.37773 0.50587 0.20281
 C2549 C 0.38754 0.50052 0.21787
 C2550 C 0.40473 0.49347 0.21515
 C2551 C 0.41062 0.49821 0.16569
 C2552 C 0.41782 0.49824 0.15122
 C2553 C 0.42661 0.49844 0.13445
 C2554 C 0.43434 0.49872 0.12025
 C2555 C 0.44377 0.49917 0.10340
 C2556 C 0.43564 0.49266 0.08790
 C2557 C 0.44478 0.49315 0.07154
 C2558 C 0.46223 0.50019 0.07044
 C2559 C 0.47028 0.50668 0.08612
 C2560 C 0.46110 0.50616 0.10247
 H2561 H 0.42549 0.48727 0.19627
 H2562 H 0.37756 0.50944 0.17425
 H2563 H 0.36447 0.51118 0.20419
 H2564 H 0.41253 0.48864 0.22626
 H2565 H 0.42222 0.48722 0.08847
 H2566 H 0.43815 0.48806 0.05976
 H2567 H 0.48366 0.51220 0.08580
 H2568 H 0.46752 0.51125 0.11438
 C2569 C -0.09062 -0.01349 0.69577
 C2570 C -0.09828 -0.00400 0.68170
 C2571 C -0.11346 0.00630 0.68488
 C2572 C -0.12078 0.00732 0.70212
 C2573 C -0.11293 -0.00189 0.71640
 C2574 C -0.09788 -0.01246 0.71300
 C2575 C -0.09014 -0.00436 0.66420
 C2576 C -0.08296 -0.00457 0.64971
 C2577 C -0.07422 -0.00470 0.63292
 C2578 C -0.06655 -0.00473 0.61869
 C2579 C -0.05720 -0.00468 0.60179
 C2580 C -0.06552 -0.01124 0.58642
 C2581 C -0.05645 -0.01111 0.57000
 C2582 C -0.03889 -0.00440 0.56873
 C2583 C -0.03064 0.00213 0.58430
 C2584 C -0.03974 0.00198 0.60069
 H2585 H -0.07889 -0.02152 0.69346
 H2586 H -0.11946 0.01377 0.67411
 H2587 H -0.13221 0.01577 0.70436
 H2588 H -0.09170 -0.01991 0.72366
 H2589 H -0.07903 -0.01643 0.58711
 H2590 H -0.06324 -0.01623 0.55832
 H2591 H -0.01716 0.00740 0.58384
 H2592 H -0.03317 0.00709 0.61251
 C2593 C -0.18669 0.89442 1.01441
 C2594 C -0.18607 0.91181 1.00799
 C2595 C -0.20172 0.91999 1.00225
 C2596 C -0.21794 0.91073 1.00276
 C2597 C -0.21882 0.89321 1.00937
 C2598 C -0.20285 0.88512 1.01492
 C2599 C -0.16916 0.92075 1.00624
 C2600 C -0.15477 0.92777 1.00458
 C2601 C -0.13772 0.93552 1.00255
 C2602 C -0.12300 0.94183 1.00088
 C2603 C -0.10531 0.94908 0.99909
 C2604 C -0.10265 0.96575 0.99125
 C2605 C -0.08547 0.97299 0.99003
 C2606 C -0.07071 0.96363 0.99669
 C2607 C -0.07353 0.94674 1.00429
 C2608 C -0.09071 0.93954 1.00547
 H2609 H -0.17457 0.88784 1.01854
 H2610 H -0.20131 0.93334 0.99690
 H2611 H -0.22961 0.91712 0.99735
 H2612 H -0.20266 0.87138 1.01908
 H2613 H -0.11388 0.97322 0.98624
 H2614 H -0.08380 0.98601 0.98412
 H2615 H -0.06250 0.93916 1.00954
 H2616 H -0.09264 0.92661 1.01154
 C2617 C 0.31417 0.39864 0.51228
 C2618 C 0.31433 0.41609 0.50600
 C2619 C 0.29859 0.42370 0.49972
 C2620 C 0.28273 0.41384 0.49958
 C2621 C 0.28232 0.39624 0.50603
 C2622 C 0.29837 0.38875 0.51215
 C2623 C 0.33090 0.42573 0.50510
 C2624 C 0.34507 0.43331 0.50420
 C2625 C 0.36191 0.44163 0.50309
 C2626 C 0.37651 0.44835 0.50217
 C2627 C 0.39412 0.45593 0.50122
 C2628 C 0.39682 0.47274 0.49371
 C2629 C 0.41397 0.48012 0.49302
 C2630 C 0.42864 0.47075 0.49985
 C2631 C 0.42576 0.45378 0.50723
 C2632 C 0.40861 0.44645 0.50790
 H2633 H 0.32636 0.39252 0.51688
 H2634 H 0.29868 0.43711 0.49449
 H2635 H 0.27107 0.41990 0.49381
 H2636 H 0.29880 0.37505 0.51644
 H2637 H 0.38566 0.48016 0.48848
 H2638 H 0.41570 0.49320 0.48726
 H2639 H 0.43672 0.44619 0.51261
 H2640 H 0.40664 0.43340 0.51371
 C2641 C 0.30778 0.58915 -0.01609
 C2642 C 0.31371 0.58356 0.00067
 C2643 C 0.30350 0.58711 0.01594
 C2644 C 0.28775 0.59682 0.01452
 C2645 C 0.28216 0.60354 -0.00215
 C2646 C 0.29206 0.59889 -0.01755
 C2647 C 0.33064 0.57484 0.00218
 C2648 C 0.34508 0.56800 0.00319
 C2649 C 0.36220 0.56043 0.00411
 C2650 C 0.37696 0.55423 0.00467
 C2651 C 0.39467 0.54702 0.00510
 C2652 C 0.39741 0.52979 0.01140
 C2653 C 0.41458 0.52267 0.01149
 C2654 C 0.42927 0.53272 0.00525
 C2655 C 0.42637 0.55009 -0.00094
 C2656 C 0.40917 0.55717 -0.00101
 H2657 H 0.31544 0.58617 -0.02805
 H2658 H 0.30785 0.58263 0.02898
 H2659 H 0.28011 0.59947 0.02656
 H2660 H 0.28788 0.60260 -0.03082
 H2661 H 0.38626 0.52182 0.01616
 H2662 H 0.41631 0.50927 0.01636
 H2663 H 0.43734 0.55820 -0.00583
 H2664 H 0.40718 0.57053 -0.00592
 C2665 C -0.18408 0.10117 0.49048
 C2666 C -0.18454 0.08434 0.49825
 C2667 C -0.20057 0.07760 0.50515
 C2668 C -0.21618 0.08761 0.50418
 C2669 C -0.21615 0.10449 0.49583
 C2670 C -0.19959 0.11123 0.48948
 C2671 C -0.16831 0.07441 0.49967
 C2672 C -0.15440 0.06660 0.50073
 C2673 C -0.13779 0.05802 0.50175
 C2674 C -0.12336 0.05112 0.50242
 C2675 C -0.10591 0.04336 0.50294
 C2676 C -0.10367 0.02602 0.50916
 C2677 C -0.08667 0.01848 0.50937
 C2678 C -0.07169 0.02822 0.50333
 C2679 C -0.07412 0.04570 0.49721
 C2680 C -0.09111 0.05319 0.49703
 H2681 H -0.17163 0.10668 0.48544
 H2682 H -0.20095 0.06472 0.51159
 H2683 H -0.22807 0.08221 0.51046
 H2684 H -0.19852 0.12449 0.48397
 H2685 H -0.11506 0.01831 0.51377
 H2686 H -0.08530 0.00501 0.51417
 H2687 H -0.06292 0.05359 0.49248
 H2688 H -0.09272 0.06663 0.49219
 C2689 C 0.69678 0.08722 0.50273
 C2690 C 0.68247 0.09826 0.49879
 C2691 C 0.68558 0.11622 0.49536
 C2692 C 0.70300 0.12307 0.49547
 C2693 C 0.71781 0.11198 0.49879
 C2694 C 0.71418 0.09395 0.50283
 C2695 C 0.66468 0.09093 0.49802
 C2696 C 0.65000 0.08431 0.49731
 C2697 C 0.63303 0.07610 0.49648
 C2698 C 0.61867 0.06880 0.49583
 C2699 C 0.60166 0.05983 0.49521
 C2700 C 0.58626 0.06832 0.50137
 C2701 C 0.56983 0.05941 0.50131
 C2702 C 0.56857 0.04182 0.49509
 C2703 C 0.58412 0.03347 0.48873
 C2704 C 0.60053 0.04242 0.48881
 H2705 H 0.69451 0.07331 0.50569
 H2706 H 0.67454 0.12494 0.49238
 H2707 H 0.70448 0.13694 0.49239
 H2708 H 0.72461 0.08484 0.50646
 H2709 H 0.58697 0.08179 0.50637
 H2710 H 0.55817 0.06627 0.50629
 H2711 H 0.58367 0.01996 0.48384
 H2712 H 0.61238 0.03571 0.48402
 C2713 C 0.19480 0.58262 0.99140
 C2714 C 0.18028 0.59200 0.99830
 C2715 C 0.18303 0.60874 1.00592
 C2716 C 0.20023 0.61608 1.00657
 C2717 C 0.21495 0.60674 0.99970
 C2718 C 0.21197 0.58991 0.99205
 C2719 C 0.16262 0.58440 0.99741
 C2720 C 0.14797 0.57774 0.99653
 C2721 C 0.13095 0.56963 0.99547
 C2722 C 0.11652 0.56250 0.99466
 C2723 C 0.09938 0.55376 0.99390
 C2724 C 0.08416 0.56224 1.00052
 C2725 C 0.06766 0.55345 1.00056
 C2726 C 0.06615 0.53600 0.99400
 C2727 C 0.08150 0.52772 0.98706
 C2728 C 0.09799 0.53655 0.98704
 H2729 H 0.19283 0.56970 0.98536
 H2730 H 0.17188 0.61614 1.01131
 H2731 H 0.20194 0.62900 1.01256
 H2732 H 0.22283 0.58248 0.98616
 H2733 H 0.08509 0.57556 1.00587
 H2734 H 0.05616 0.56026 1.00599
 H2735 H 0.08086 0.51433 0.98189
 H2736 H 0.10969 0.52985 0.98188
 C2737 C 0.18349 0.38612 0.50602
 C2738 C 0.18008 0.40217 0.49727
 C2739 C 0.19405 0.41142 0.48889
 C2740 C 0.21142 0.40484 0.48950
 C2741 C 0.21505 0.38891 0.49853
 C2742 C 0.20088 0.37948 0.50660
 C2743 C 0.16245 0.40963 0.49739
 C2744 C 0.14793 0.41643 0.49751
 C2745 C 0.13120 0.42492 0.49769
 C2746 C 0.11709 0.43250 0.49788
 C2747 C 0.10040 0.44183 0.49817
 C2748 C 0.09967 0.45912 0.50492
 C2749 C 0.08349 0.46825 0.50525
 C2750 C 0.06778 0.46019 0.49881
 C2751 C 0.06869 0.44281 0.49200
 C2752 C 0.08489 0.43371 0.49169
 H2753 H 0.17277 0.37890 0.51261
 H2754 H 0.19157 0.42384 0.48207
 H2755 H 0.22201 0.41225 0.48293
 H2756 H 0.20331 0.36730 0.51384
 H2757 H 0.11161 0.46553 0.50996
 H2758 H 0.08330 0.48158 0.51060
 H2759 H 0.05688 0.43618 0.48696
 H2760 H 0.08531 0.42034 0.48643
 C2761 C 0.68112 0.88720 0.00861
 C2762 C 0.67904 0.90494 0.00359
 C2763 C 0.69403 0.91514 -0.00101
 C2764 C 0.71104 0.90773 -0.00040
 C2765 C 0.71340 0.88997 0.00495
 C2766 C 0.69817 0.87974 0.00921
 C2767 C 0.66161 0.91286 0.00325
 C2768 C 0.64722 0.91990 0.00295
 C2769 C 0.63058 0.92856 0.00259
 C2770 C 0.61652 0.93622 0.00226
 C2771 C 0.59987 0.94563 0.00185
 C2772 C 0.59895 0.96297 0.00841
 C2773 C 0.58285 0.97222 0.00790
 C2774 C 0.56740 0.96423 0.00079
 C2775 C 0.56847 0.94675 -0.00574
 C2776 C 0.58460 0.93753 -0.00521
 H2777 H 0.66959 0.87916 0.01214
 H2778 H 0.69256 0.92884 -0.00508
 H2779 H 0.72230 0.91592 -0.00436
 H2780 H 0.69930 0.86606 0.01325
 H2781 H 0.61070 0.96936 0.01390
 H2782 H 0.58253 0.98562 0.01308
 H2783 H 0.55686 0.94016 -0.01126
 H2784 H 0.58516 0.92411 -0.01033
 C2785 C 0.01321 0.81232 0.89724
 C2786 C 0.00754 0.81248 0.91508
 C2787 C 0.00236 0.79664 0.92342
 C2788 C 0.00269 0.78069 0.91389
 C2789 C 0.00853 0.78030 0.89590
 C2790 C 0.01352 0.79644 0.88768
 C2791 C 0.00601 0.82910 0.92435
 C2792 C 0.00455 0.84328 0.93159
 C2793 C 0.00274 0.86013 0.93952
 C2794 C 0.00125 0.87470 0.94591
 C2795 C -0.00036 0.89227 0.95316
 C2796 C -0.00773 0.89485 0.97019
 C2797 C -0.00890 0.91195 0.97731
 C2798 C -0.00269 0.92670 0.96745
 C2799 C 0.00449 0.92394 0.95023
 C2800 C 0.00564 0.90685 0.94316
 H2801 H 0.01690 0.82456 0.89054
 H2802 H -0.00240 0.79668 0.93714
 H2803 H -0.00229 0.76887 0.92047
 H2804 H 0.01712 0.79694 0.87364
 H2805 H -0.01243 0.88364 0.97803
 H2806 H -0.01449 0.91357 0.99060
 H2807 H 0.00940 0.93495 0.94225
 H2808 H 0.01134 0.90499 0.92994
 C2809 C 0.50905 0.31869 0.39952
 C2810 C 0.50351 0.31887 0.41740
 C2811 C 0.49851 0.30302 0.42584
 C2812 C 0.49891 0.28703 0.41637
 C2813 C 0.50458 0.28663 0.39834
 C2814 C 0.50945 0.30277 0.39004
 C2815 C 0.50210 0.33549 0.42667
 C2816 C 0.50082 0.34967 0.43395
 C2817 C 0.49929 0.36652 0.44194
 C2818 C 0.49808 0.38109 0.44838
 C2819 C 0.49686 0.39867 0.45568
 C2820 C 0.48988 0.40132 0.47287
 C2821 C 0.48913 0.41842 0.48005
 C2822 C 0.49540 0.43309 0.47010
 C2823 C 0.50217 0.43026 0.45273
 C2824 C 0.50289 0.41317 0.44560
 H2825 H 0.51268 0.33092 0.39277
 H2826 H 0.49390 0.30308 0.43960
 H2827 H 0.49414 0.27524 0.42313
 H2828 H 0.51315 0.30314 0.37601
 H2829 H 0.48515 0.39017 0.48077
 H2830 H 0.48385 0.42010 0.49346
 H2831 H 0.50710 0.44122 0.44468
 H2832 H 0.50829 0.41126 0.43226
 C2833 C 0.00512 0.29727 0.57668
 C2834 C 0.00277 0.31290 0.58644
 C2835 C -0.00013 0.31207 0.60490
 C2836 C -0.00071 0.29570 0.61358
 C2837 C 0.00157 0.27978 0.60398
 C2838 C 0.00455 0.28081 0.58534
 C2839 C 0.00323 0.32984 0.57764
 C2840 C 0.00350 0.34422 0.57062
 C2841 C 0.00369 0.36119 0.56275
 C2842 C 0.00374 0.37579 0.55621
 C2843 C 0.00369 0.39326 0.54852
 C2844 C -0.00161 0.40777 0.55887
 C2845 C -0.00185 0.42475 0.55138
 C2846 C 0.00323 0.42743 0.53340
 C2847 C 0.00861 0.41272 0.52315
 C2848 C 0.00883 0.39576 0.53068
 H2849 H 0.00740 0.29780 0.56235
 H2850 H -0.00196 0.32410 0.61260
 H2851 H -0.00297 0.29543 0.62791
 H2852 H 0.00649 0.26919 0.57722
 H2853 H -0.00562 0.40596 0.57271
 H2854 H -0.00605 0.43575 0.55966
 H2855 H 0.01262 0.41427 0.50928
 H2856 H 0.01296 0.38460 0.52256
 C2857 C 0.50911 0.80271 0.07789
 C2858 C 0.50636 0.81839 0.08745
 C2859 C 0.50288 0.81769 0.10581
 C2860 C 0.50209 0.80138 0.11460
 C2861 C 0.50471 0.78539 0.10519
 C2862 C 0.50834 0.78631 0.08666
 C2863 C 0.50700 0.83527 0.07850
 C2864 C 0.50735 0.84958 0.07134
 C2865 C 0.50754 0.86648 0.06326
 C2866 C 0.50749 0.88099 0.05654
 C2867 C 0.50718 0.89837 0.04865
 C2868 C 0.50101 0.91280 0.05862
 C2869 C 0.50023 0.92964 0.05085
 C2870 C 0.50560 0.93225 0.03295
 C2871 C 0.51196 0.91766 0.02310
 C2872 C 0.51272 0.90084 0.03091
 H2873 H 0.51188 0.80314 0.06365
 H2874 H 0.50076 0.82976 0.11336
 H2875 H 0.49942 0.80120 0.12886
 H2876 H 0.51070 0.77464 0.07872
 H2877 H 0.49668 0.91102 0.07237
 H2878 H 0.49530 0.94055 0.05883
 H2879 H 0.51624 0.91918 0.00931
 H2880 H 0.51752 0.88975 0.02308
 C2881 C 0.49465 0.69713 0.08491
 C2882 C 0.50085 0.68272 0.09482
 C2883 C 0.50835 0.68557 0.11170
 C2884 C 0.50966 0.70277 0.11862
 C2885 C 0.50358 0.71738 0.10869
 C2886 C 0.49595 0.71430 0.09177
 C2887 C 0.49946 0.66509 0.08757
 C2888 C 0.49821 0.65047 0.08114
 C2889 C 0.49675 0.63352 0.07326
 C2890 C 0.49562 0.61914 0.06630
 C2891 C 0.49450 0.60206 0.05776
 C2892 C 0.50056 0.58692 0.06662
 C2893 C 0.50024 0.57046 0.05804
 C2894 C 0.49388 0.56891 0.04040
 C2895 C 0.48753 0.58418 0.03171
 C2896 C 0.48787 0.60063 0.04034
 H2897 H 0.48870 0.69508 0.07188
 H2898 H 0.51319 0.67450 0.11951
 H2899 H 0.51555 0.70457 0.13165
 H2900 H 0.49061 0.72508 0.08393
 H2901 H 0.50573 0.58787 0.08010
 H2902 H 0.50523 0.55901 0.06515
 H2903 H 0.48255 0.58350 0.01815
 H2904 H 0.48316 0.61227 0.03334
 C2905 C -0.00733 0.19150 0.58313
 C2906 C -0.00111 0.17712 0.59307
 C2907 C 0.00611 0.17997 0.61007
 C2908 C 0.00712 0.19715 0.61708
 C2909 C 0.00104 0.21174 0.60713
 C2910 C -0.00631 0.20865 0.59009
 C2911 C -0.00221 0.15951 0.58573
 C2912 C -0.00322 0.14491 0.57924
 C2913 C -0.00440 0.12797 0.57130
 C2914 C -0.00534 0.11361 0.56429
 C2915 C -0.00626 0.09656 0.55568
 C2916 C -0.00005 0.08145 0.56449
 C2917 C -0.00030 0.06501 0.55587
 C2918 C -0.00674 0.06345 0.53826
 C2919 C -0.01319 0.07870 0.52962
 C2920 C -0.01293 0.09513 0.53828
 H2921 H -0.01306 0.18945 0.57000
 H2922 H 0.01094 0.16892 0.61791
 H2923 H 0.01280 0.19893 0.63021
 H2924 H -0.01165 0.21941 0.58221
 H2925 H 0.00515 0.08241 0.57795
 H2926 H 0.00476 0.05357 0.56294
 H2927 H -0.01824 0.07802 0.51609
 H2928 H -0.01775 0.10675 0.53133
 C2929 C 0.49120 0.19811 0.41593
 C2930 C 0.49955 0.18447 0.40644
 C2931 C 0.50784 0.18813 0.38999
 C2932 C 0.50793 0.20542 0.38314
 C2933 C 0.49977 0.21924 0.39273
 C2934 C 0.49130 0.21537 0.40913
 C2935 C 0.49990 0.16686 0.41390
 C2936 C 0.50017 0.15230 0.42059
 C2937 C 0.50045 0.13545 0.42883
 C2938 C 0.50068 0.12120 0.43616
 C2939 C 0.50095 0.10432 0.44519
 C2940 C 0.49408 0.08917 0.43682
 C2941 C 0.49421 0.07283 0.44568
 C2942 C 0.50122 0.07141 0.46308
 C2943 C 0.50811 0.08675 0.47135
 C2944 C 0.50796 0.10307 0.46245
 H2945 H 0.48471 0.19542 0.42865
 H2946 H 0.51441 0.17768 0.38257
 H2947 H 0.51478 0.20803 0.37060
 H2948 H 0.48468 0.22568 0.41670
 H2949 H 0.48860 0.09000 0.42346
 H2950 H 0.48881 0.06132 0.43889
 H2951 H 0.51363 0.08617 0.48470
 H2952 H 0.51330 0.11471 0.46906
 C2953 C -0.00124 0.69289 0.91682
 C2954 C 0.00315 0.67833 0.90616
 C2955 C 0.00772 0.68094 0.88816
 C2956 C 0.00809 0.69807 0.88091
 C2957 C 0.00405 0.71288 0.89161
 C2958 C -0.00087 0.70999 0.90963
 C2959 C 0.00306 0.66080 0.91384
 C2960 C 0.00296 0.64630 0.92068
 C2961 C 0.00281 0.62950 0.92907
 C2962 C 0.00263 0.61529 0.93648
 C2963 C 0.00235 0.59842 0.94557
 C2964 C -0.00475 0.58342 0.93712
 C2965 C -0.00528 0.56712 0.94606
 C2966 C 0.00129 0.56559 0.96363
 C2967 C 0.00848 0.58076 0.97195
 C2968 C 0.00899 0.59704 0.96298
 H2969 H -0.00497 0.69103 0.93074
 H2970 H 0.01108 0.66975 0.87974
 H2971 H 0.01177 0.69959 0.86701
 H2972 H -0.00466 0.72089 0.91822
 H2973 H -0.00993 0.58434 0.92365
 H2974 H -0.01087 0.55574 0.93921
 H2975 H 0.01368 0.58009 0.98543
 H2976 H 0.01451 0.60857 0.96965
 C2977 C 0.24009 0.64737 0.93107
 C2978 C 0.23319 0.66449 0.93237
 C2979 C 0.23008 0.67197 0.94927
 C2980 C 0.23427 0.66243 0.96481
 C2981 C 0.24178 0.64544 0.96350
 C2982 C 0.24434 0.63791 0.94648
 C2983 C 0.23042 0.67443 0.91617
 C2984 C 0.22905 0.68196 0.90201
 C2985 C 0.22849 0.68999 0.88495
 C2986 C 0.22880 0.69633 0.87012
 C2987 C 0.23006 0.70341 0.85225
 C2988 C 0.23948 0.69406 0.83911
 C2989 C 0.24174 0.70125 0.82199
 C2990 C 0.23462 0.71795 0.81776
 C2991 C 0.22484 0.72709 0.83098
 C2992 C 0.22262 0.71986 0.84811
 H2993 H 0.24252 0.64143 0.91809
 H2994 H 0.22480 0.68526 0.95043
 H2995 H 0.23222 0.66853 0.97776
 H2996 H 0.24976 0.62471 0.94507
 H2997 H 0.24533 0.68132 0.84217
 H2998 H 0.24931 0.69382 0.81218
 H2999 H 0.21916 0.73996 0.82821
 H3000 H 0.21533 0.72723 0.85819
 C3001 C 0.75733 0.16328 0.43717
 C3002 C 0.74003 0.16917 0.43404
 C3003 C 0.72670 0.16618 0.44691
 C3004 C 0.73059 0.15679 0.46262
 C3005 C 0.74785 0.14993 0.46556
 C3006 C 0.76124 0.15386 0.45270
 C3007 C 0.73615 0.17751 0.41717
 C3008 C 0.73397 0.18395 0.40256
 C3009 C 0.73254 0.19097 0.38511
 C3010 C 0.73212 0.19666 0.37002
 C3011 C 0.73248 0.20323 0.35191
 C3012 C 0.74113 0.19350 0.33852
 C3013 C 0.74253 0.20026 0.32114
 C3014 C 0.73531 0.21692 0.31689
 C3015 C 0.72634 0.22645 0.33039
 C3016 C 0.72496 0.21965 0.34777
 H3017 H 0.76784 0.16574 0.42743
 H3018 H 0.71321 0.17071 0.44463
 H3019 H 0.71970 0.15424 0.47177
 H3020 H 0.77496 0.14990 0.45455
 H3021 H 0.74705 0.18079 0.34159
 H3022 H 0.74951 0.19255 0.31111
 H3023 H 0.72060 0.23930 0.32762
 H3024 H 0.71829 0.22732 0.35804
 C3025 C 0.24336 0.32327 0.45372
 C3026 C 0.24957 0.33043 0.43749
 C3027 C 0.25622 0.34776 0.43697
 C3028 C 0.25706 0.35781 0.45257
 C3029 C 0.25132 0.35066 0.46903
 C3030 C 0.24414 0.33340 0.46945
 C3031 C 0.24962 0.32025 0.42121
 C3032 C 0.25033 0.31275 0.40698
 C3033 C 0.25166 0.30502 0.38984
 C3034 C 0.25298 0.29912 0.37490
 C3035 C 0.25451 0.29274 0.35681
 C3036 C 0.24806 0.30303 0.34270
 C3037 C 0.24915 0.29685 0.32511
 C3038 C 0.25674 0.28022 0.32136
 C3039 C 0.26353 0.27012 0.33563
 C3040 C 0.26240 0.27635 0.35323
 H3041 H 0.23813 0.30985 0.45425
 H3042 H 0.26092 0.35350 0.42449
 H3043 H 0.26222 0.37124 0.45171
 H3044 H 0.23961 0.32760 0.48194
 H3045 H 0.24200 0.31579 0.34531
 H3046 H 0.24379 0.30499 0.31450
 H3047 H 0.26943 0.25725 0.33326
 H3048 H 0.26752 0.26831 0.36405
 C3049 C 0.73864 0.82569 0.95399
 C3050 C 0.74426 0.83356 0.93788
 C3051 C 0.75024 0.85114 0.93777
 C3052 C 0.75118 0.86069 0.95369
 C3053 C 0.74616 0.85277 0.97002
 C3054 C 0.73950 0.83531 0.97001
 C3055 C 0.74479 0.82365 0.92145
 C3056 C 0.74595 0.81616 0.90725
 C3057 C 0.74786 0.80826 0.89025
 C3058 C 0.74968 0.80211 0.87548
 C3059 C 0.75180 0.79535 0.85760
 C3060 C 0.74594 0.80542 0.84306
 C3061 C 0.74755 0.79885 0.82567
 C3062 C 0.75507 0.78207 0.82253
 C3063 C 0.76128 0.77220 0.83723
 C3064 C 0.75964 0.77881 0.85464
 H3065 H 0.73399 0.81206 0.95421
 H3066 H 0.75454 0.85739 0.92539
 H3067 H 0.75606 0.87424 0.95327
 H3068 H 0.73564 0.82891 0.98244
 H3069 H 0.73993 0.81828 0.84520
 H3070 H 0.74263 0.80682 0.81471
 H3071 H 0.76711 0.75923 0.83533
 H3072 H 0.76429 0.77095 0.86580
 C3073 C 0.72132 0.82966 0.05306
 C3074 C 0.73506 0.81959 0.06054
 C3075 C 0.75223 0.82044 0.05313
 C3076 C 0.75590 0.83194 0.03892
 C3077 C 0.74242 0.84277 0.03192
 C3078 C 0.72498 0.84113 0.03872
 C3079 C 0.73230 0.81015 0.07709
 C3080 C 0.73102 0.80304 0.09150
 C3081 C 0.73062 0.79563 0.10886
 C3082 C 0.73117 0.79008 0.12398
 C3083 C 0.73280 0.78435 0.14228
 C3084 C 0.74055 0.79582 0.15476
 C3085 C 0.74311 0.79027 0.17238
 C3086 C 0.73795 0.77311 0.17784
 C3087 C 0.72990 0.76173 0.16525
 C3088 C 0.72738 0.76733 0.14756
 H3089 H 0.70802 0.82925 0.05881
 H3090 H 0.76299 0.81279 0.05886
 H3091 H 0.76944 0.83286 0.03381
 H3092 H 0.71444 0.84947 0.03377
 H3093 H 0.74483 0.80902 0.15081
 H3094 H 0.74927 0.79943 0.18168
 H3095 H 0.72576 0.74845 0.16899
 H3096 H 0.72141 0.75832 0.13799
 C3097 C 0.23881 0.34368 0.56472
 C3098 C 0.23471 0.32586 0.56152
 C3099 C 0.23390 0.31959 0.54388
 C3100 C 0.23773 0.33106 0.52953
 C3101 C 0.24266 0.34877 0.53281
 C3102 C 0.24274 0.35505 0.55051
 C3103 C 0.23271 0.31417 0.57666
 C3104 C 0.23198 0.30552 0.59023
 C3105 C 0.23212 0.29674 0.60694
 C3106 C 0.23299 0.29038 0.62172
 C3107 C 0.23486 0.28411 0.63983
 C3108 C 0.22826 0.26748 0.64510
 C3109 C 0.23027 0.26176 0.66283
 C3110 C 0.23893 0.27263 0.67548
 C3111 C 0.24551 0.28929 0.66995
 C3112 C 0.24348 0.29495 0.65230
 H3113 H 0.23944 0.34871 0.57829
 H3114 H 0.23078 0.30579 0.54125
 H3115 H 0.23758 0.32595 0.51601
 H3116 H 0.24613 0.36873 0.55339
 H3117 H 0.22156 0.25898 0.63555
 H3118 H 0.22503 0.24887 0.66661
 H3119 H 0.25222 0.29804 0.67926
 H3120 H 0.24865 0.30784 0.64837
 C3121 C 0.76432 0.16689 0.55224
 C3122 C 0.74732 0.17175 0.55807
 C3123 C 0.73239 0.16720 0.54781
 C3124 C 0.73445 0.15729 0.53205
 C3125 C 0.75152 0.15151 0.52649
 C3126 C 0.76642 0.15695 0.53667
 C3127 C 0.74549 0.18042 0.57515
 C3128 C 0.74495 0.18710 0.58981
 C3129 C 0.74520 0.19435 0.60724
 C3130 C 0.74588 0.20016 0.62226
 C3131 C 0.74701 0.20673 0.64033
 C3132 C 0.73847 0.19756 0.65427
 C3133 C 0.73966 0.20378 0.67185
 C3134 C 0.74943 0.21931 0.67577
 C3135 C 0.75811 0.22835 0.66165
 C3136 C 0.75689 0.22209 0.64407
 H3137 H 0.77600 0.17049 0.55995
 H3138 H 0.71913 0.17084 0.55226
 H3139 H 0.72248 0.15329 0.52508
 H3140 H 0.77991 0.15371 0.53264
 H3141 H 0.73086 0.18560 0.65155
 H3142 H 0.73280 0.19647 0.68234
 H3143 H 0.76572 0.24034 0.66414
 H3144 H 0.76364 0.22925 0.63339
 C3145 C 0.26056 0.67443 0.04677
 C3146 C 0.24471 0.67438 0.05676
 C3147 C 0.23000 0.66448 0.05080
 C3148 C 0.23144 0.65402 0.03538
 C3149 C 0.24766 0.65322 0.02591
 C3150 C 0.26203 0.66395 0.03145
 C3151 C 0.24433 0.68302 0.07396
 C3152 C 0.24474 0.68965 0.08864
 C3153 C 0.24581 0.69683 0.10607
 C3154 C 0.24699 0.70255 0.12109
 C3155 C 0.24849 0.70898 0.13919
 C3156 C 0.24018 0.69971 0.15320
 C3157 C 0.24150 0.70589 0.17078
 C3158 C 0.25118 0.72150 0.17463
 C3159 C 0.25968 0.73062 0.16046
 C3160 C 0.25833 0.72439 0.14287
 H3161 H 0.27204 0.68201 0.05123
 H3162 H 0.21769 0.66425 0.05849
 H3163 H 0.22027 0.64574 0.03155
 H3164 H 0.27464 0.66371 0.02428
 H3165 H 0.23260 0.68773 0.15053
 H3166 H 0.23478 0.69852 0.18131
 H3167 H 0.26721 0.74267 0.16291
 H3168 H 0.26488 0.73164 0.13214
 C3169 C 0.16569 0.55422 0.72996
 C3170 C 0.17419 0.56178 0.74481
 C3171 C 0.17342 0.55318 0.76138
 C3172 C 0.16353 0.53756 0.76335
 C3173 C 0.15425 0.53031 0.74876
 C3174 C 0.15583 0.53846 0.73190
 C3175 C 0.18236 0.57909 0.74369
 C3176 C 0.18867 0.59383 0.74368
 C3177 C 0.19556 0.61129 0.74446
 C3178 C 0.20111 0.62629 0.74554
 C3179 C 0.20747 0.64428 0.74707
 C3180 C 0.22286 0.64809 0.75691
 C3181 C 0.22906 0.66556 0.75832
 C3182 C 0.21993 0.67950 0.74988
 C3183 C 0.20431 0.67553 0.74022
 C3184 C 0.19815 0.65805 0.73884
 H3185 H 0.16613 0.56082 0.71708
 H3186 H 0.17993 0.55889 0.77295
 H3187 H 0.16270 0.53140 0.77644
 H3188 H 0.14868 0.53321 0.72050
 H3189 H 0.23013 0.63754 0.76342
 H3190 H 0.24112 0.66811 0.76584
 H3191 H 0.19693 0.68588 0.73354
 H3192 H 0.18616 0.65526 0.73126
 C3193 C 0.66723 0.05365 0.25954
 C3194 C 0.67194 0.05945 0.24241
 C3195 C 0.66752 0.04907 0.22754
 C3196 C 0.65791 0.03319 0.22979
 C3197 C 0.65230 0.02760 0.24701
 C3198 C 0.65759 0.03795 0.26184
 C3199 C 0.68035 0.07656 0.24043
 C3200 C 0.68684 0.09123 0.23986
 C3201 C 0.69390 0.10863 0.24019
 C3202 C 0.69957 0.12360 0.24106
 C3203 C 0.70602 0.14157 0.24257
 C3204 C 0.72114 0.14534 0.25283
 C3205 C 0.72722 0.16283 0.25458
 C3206 C 0.71822 0.17682 0.24608
 C3207 C 0.70295 0.17286 0.23588
 C3208 C 0.69691 0.15537 0.23415
 H3209 H 0.67075 0.06146 0.27118
 H3210 H 0.67105 0.05350 0.21417
 H3211 H 0.65402 0.02606 0.21787
 H3212 H 0.65451 0.03394 0.27542
 H3213 H 0.72824 0.13477 0.25949
 H3214 H 0.73902 0.16535 0.26251
 H3215 H 0.69570 0.18326 0.22912
 H3216 H 0.68513 0.15261 0.22626
 C3217 C 0.82277 0.04711 0.72896
 C3218 C 0.82690 0.06379 0.73605
 C3219 C 0.84185 0.06581 0.74692
 C3220 C 0.85250 0.05129 0.75096
 C3221 C 0.84848 0.03421 0.74426
 C3222 C 0.83349 0.03244 0.73294
 C3223 C 0.81593 0.07905 0.73274
 C3224 C 0.80764 0.09260 0.73103
 C3225 C 0.79900 0.10917 0.73018
 C3226 C 0.79256 0.12379 0.73037
 C3227 C 0.78602 0.14167 0.73162
 C3228 C 0.79719 0.15485 0.73861
 C3229 C 0.79097 0.17211 0.74081
 C3230 C 0.77339 0.17653 0.73605
 C3231 C 0.76229 0.16326 0.72876
 C3232 C 0.76857 0.14591 0.72661
 H3233 H 0.81114 0.04538 0.72057
 H3234 H 0.84531 0.07870 0.75234
 H3235 H 0.86420 0.05380 0.75901
 H3236 H 0.82939 0.01973 0.72767
 H3237 H 0.81071 0.15172 0.74256
 H3238 H 0.79995 0.18196 0.74636
 H3239 H 0.74870 0.16620 0.72495
 H3240 H 0.75978 0.13580 0.72123
 C3241 C 0.33059 0.55343 0.22523
 C3242 C 0.32211 0.56273 0.23905
 C3243 C 0.32391 0.55700 0.25675
 C3244 C 0.33468 0.54250 0.26071
 C3245 C 0.34386 0.53350 0.24702
 C3246 C 0.34134 0.53881 0.22919
 C3247 C 0.31292 0.57908 0.23551
 C3248 C 0.30587 0.59326 0.23346
 C3249 C 0.29836 0.61034 0.23205
 C3250 C 0.29261 0.62524 0.23167
 C3251 C 0.28656 0.64333 0.23217
 C3252 C 0.29800 0.65651 0.23873
 C3253 C 0.29211 0.67395 0.24036
 C3254 C 0.27461 0.67855 0.23546
 C3255 C 0.26328 0.66527 0.22853
 C3256 C 0.26923 0.64776 0.22695
 H3257 H 0.32940 0.55782 0.21148
 H3258 H 0.31745 0.56409 0.26757
 H3259 H 0.33615 0.53855 0.27457
 H3260 H 0.34832 0.53228 0.21842
 H3261 H 0.31143 0.65324 0.24284
 H3262 H 0.30124 0.68380 0.24566
 H3263 H 0.24975 0.66834 0.22464
 H3264 H 0.26023 0.63765 0.22190
 C3265 C 0.33631 0.44657 0.23493
 C3266 C 0.32831 0.43896 0.25013
 C3267 C 0.32864 0.44804 0.26643
 C3268 C 0.33755 0.46428 0.26776
 C3269 C 0.34630 0.47168 0.25278
 C3270 C 0.34520 0.46293 0.23623
 C3271 C 0.32086 0.42132 0.24956
 C3272 C 0.31501 0.40638 0.24988
 C3273 C 0.30849 0.38880 0.25092
 C3274 C 0.30307 0.37375 0.25211
 C3275 C 0.29664 0.35577 0.25366
 C3276 C 0.28044 0.35219 0.26241
 C3277 C 0.27389 0.33481 0.26343
 C3278 C 0.28347 0.32073 0.25569
 C3279 C 0.29996 0.32444 0.24728
 C3280 C 0.30647 0.34184 0.24627
 H3281 H 0.33618 0.43962 0.22226
 H3282 H 0.32247 0.44230 0.27826
 H3283 H 0.33799 0.47087 0.28062
 H3284 H 0.35196 0.46828 0.22454
 H3285 H 0.27275 0.36287 0.26824
 H3286 H 0.26116 0.33248 0.26999
 H3287 H 0.30768 0.31396 0.24115
 H3288 H 0.31906 0.34444 0.23953
 C3289 C 0.83349 0.94790 0.73345
 C3290 C 0.82447 0.94104 0.74845
 C3291 C 0.82397 0.95080 0.76435
 C3292 C 0.83325 0.96685 0.76559
 C3293 C 0.84317 0.97335 0.75094
 C3294 C 0.84273 0.96407 0.73466
 C3295 C 0.81725 0.92329 0.74829
 C3296 C 0.81175 0.90824 0.74898
 C3297 C 0.80576 0.89051 0.75046
 C3298 C 0.80084 0.87533 0.75205
 C3299 C 0.79498 0.85720 0.75408
 C3300 C 0.77892 0.85337 0.76296
 C3301 C 0.77287 0.83584 0.76439
 C3302 C 0.78281 0.82187 0.75691
 C3303 C 0.79918 0.82584 0.74840
 C3304 C 0.80520 0.84339 0.74699
 H3305 H 0.83403 0.94041 0.72110
 H3306 H 0.81705 0.94563 0.77603
 H3307 H 0.83327 0.97385 0.77825
 H3308 H 0.85044 0.96870 0.72325
 H3309 H 0.77094 0.86395 0.76857
 H3310 H 0.76021 0.83331 0.77102
 H3311 H 0.80717 0.81545 0.74245
 H3312 H 0.81769 0.84620 0.74015
 C3313 C 0.66342 0.94380 0.22227
 C3314 C 0.67245 0.93512 0.23607
 C3315 C 0.67257 0.94243 0.25327
 C3316 C 0.66309 0.95790 0.25686
 C3317 C 0.65337 0.96630 0.24327
 C3318 C 0.65397 0.95937 0.22585
 C3319 C 0.68024 0.91796 0.23321
 C3320 C 0.68629 0.90326 0.23170
 C3321 C 0.69296 0.88582 0.23089
 C3322 C 0.69846 0.87084 0.23095
 C3323 C 0.70494 0.85294 0.23184
 C3324 C 0.69571 0.84029 0.24210
 C3325 C 0.70260 0.82323 0.24413
 C3326 C 0.71888 0.81858 0.23595
 C3327 C 0.72783 0.83129 0.22528
 C3328 C 0.72091 0.84835 0.22329
 H3329 H 0.66311 0.93818 0.20894
 H3330 H 0.67946 0.93581 0.26407
 H3331 H 0.66287 0.96303 0.27040
 H3332 H 0.64631 0.96534 0.21526
 H3333 H 0.68335 0.84372 0.24882
 H3334 H 0.69534 0.81381 0.25241
 H3335 H 0.74036 0.82819 0.21875
 H3336 H 0.72818 0.85805 0.21535
 C3337 C 0.16195 0.44526 0.72514
 C3338 C 0.17022 0.43625 0.73920
 C3339 C 0.16999 0.44348 0.75643
 C3340 C 0.16092 0.45926 0.75975
 C3341 C 0.15195 0.46803 0.74587
 C3342 C 0.15291 0.46113 0.72845
 C3343 C 0.17770 0.41893 0.73645
 C3344 C 0.18352 0.40415 0.73491
 C3345 C 0.18997 0.38664 0.73392
 C3346 C 0.19533 0.37161 0.73368
 C3347 C 0.20172 0.35366 0.73407
 C3348 C 0.19251 0.34076 0.74401
 C3349 C 0.19927 0.32358 0.74539
 C3350 C 0.21542 0.31908 0.73685
 C3351 C 0.22437 0.33207 0.72655
 C3352 C 0.21757 0.34923 0.72520
 H3353 H 0.16194 0.43972 0.71177
 H3354 H 0.17632 0.43662 0.76742
 H3355 H 0.16050 0.46438 0.77329
 H3356 H 0.14589 0.46739 0.71762
 H3357 H 0.18024 0.34406 0.75097
 H3358 H 0.19203 0.31394 0.75342
 H3359 H 0.23681 0.32910 0.71977
 H3360 H 0.22483 0.35913 0.71749
 C3361 C 0.05210 0.75357 0.82197
 C3362 C 0.05943 0.73660 0.82084
 C3363 C 0.05183 0.72267 0.83078
 C3364 C 0.03746 0.72591 0.84239
 C3365 C 0.03071 0.74313 0.84432
 C3366 C 0.03784 0.75683 0.83361
 C3367 C 0.07592 0.73417 0.81114
 C3368 C 0.09025 0.73305 0.80377
 C3369 C 0.10749 0.73274 0.79600
 C3370 C 0.12252 0.73324 0.79011
 C3371 C 0.14076 0.73471 0.78398
 C3372 C 0.15344 0.74270 0.79508
 C3373 C 0.17105 0.74489 0.78921
 C3374 C 0.17631 0.73913 0.77207
 C3375 C 0.16351 0.73090 0.76104
 C3376 C 0.14583 0.72875 0.76696
 H3377 H 0.05789 0.76448 0.81442
 H3378 H 0.05750 0.70951 0.83015
 H3379 H 0.03243 0.71521 0.85064
 H3380 H 0.03280 0.77021 0.83474
 H3381 H 0.14967 0.74739 0.80827
 H3382 H 0.18050 0.75121 0.79812
 H3383 H 0.16708 0.72629 0.74779
 H3384 H 0.13612 0.72257 0.75823
 C3385 C 0.56400 0.24549 0.34492
 C3386 C 0.56058 0.23963 0.32753
 C3387 C 0.54289 0.23727 0.32190
 C3388 C 0.52870 0.24118 0.33358
 C3389 C 0.53213 0.24770 0.35085
 C3390 C 0.54993 0.24947 0.35649
 C3391 C 0.57549 0.23704 0.31556
 C3392 C 0.58887 0.23576 0.30659
 C3393 C 0.60537 0.23524 0.29734
 C3394 C 0.62001 0.23557 0.29052
 C3395 C 0.63802 0.23686 0.28371
 C3396 C 0.64272 0.22994 0.26695
 C3397 C 0.66035 0.23151 0.26067
 C3398 C 0.67346 0.24005 0.27109
 C3399 C 0.66851 0.24691 0.28790
 C3400 C 0.65097 0.24532 0.29412
 H3401 H 0.57761 0.24730 0.34946
 H3402 H 0.54007 0.23276 0.30845
 H3403 H 0.51512 0.23970 0.32892
 H3404 H 0.55302 0.25404 0.36986
 H3405 H 0.63280 0.22336 0.25877
 H3406 H 0.66369 0.22607 0.24768
 H3407 H 0.67817 0.25355 0.29633
 H3408 H 0.64750 0.25073 0.30710
 C3409 C 0.55172 0.76227 0.17618
 C3410 C 0.56090 0.74619 0.17669
 C3411 C 0.55436 0.73159 0.16708
 C3412 C 0.53921 0.73335 0.15631
 C3413 C 0.53060 0.74978 0.15493
 C3414 C 0.53668 0.76406 0.16540
 C3415 C 0.57794 0.74542 0.18550
 C3416 C 0.59255 0.74553 0.19222
 C3417 C 0.60995 0.74628 0.19942
 C3418 C 0.62499 0.74721 0.20508
 C3419 C 0.64312 0.74843 0.21137
 C3420 C 0.65676 0.73979 0.20203
 C3421 C 0.67440 0.74097 0.20795
 C3422 C 0.67869 0.75085 0.22335
 C3423 C 0.66488 0.75963 0.23257
 C3424 C 0.64722 0.75841 0.22660
 H3425 H 0.55663 0.77367 0.18352
 H3426 H 0.56143 0.71911 0.16727
 H3427 H 0.53496 0.72224 0.14824
 H3428 H 0.53019 0.77683 0.16467
 H3429 H 0.65376 0.73209 0.19017
 H3430 H 0.68464 0.73404 0.20051
 H3431 H 0.66766 0.76732 0.24447
 H3432 H 0.63678 0.76523 0.23389
 C3433 C 0.04882 0.25643 0.67478
 C3434 C 0.05815 0.24044 0.67506
 C3435 C 0.05175 0.22590 0.66529
 C3436 C 0.03655 0.22764 0.65460
 C3437 C 0.02777 0.24399 0.65344
 C3438 C 0.03373 0.25821 0.66406
 C3439 C 0.07524 0.23975 0.68378
 C3440 C 0.08988 0.23999 0.69043
 C3441 C 0.10728 0.24100 0.69758
 C3442 C 0.12229 0.24226 0.70325
 C3443 C 0.14034 0.24405 0.70960
 C3444 C 0.15433 0.23589 0.70034
 C3445 C 0.17191 0.23782 0.70627
 C3446 C 0.17577 0.24797 0.72159
 C3447 C 0.16159 0.25620 0.73077
 C3448 C 0.14401 0.25425 0.72480
 H3449 H 0.05365 0.26779 0.68224
 H3450 H 0.05894 0.21348 0.66530
 H3451 H 0.03240 0.21659 0.64638
 H3452 H 0.02712 0.27093 0.66349
 H3453 H 0.15166 0.22803 0.68851
 H3454 H 0.18245 0.23127 0.69888
 H3455 H 0.16404 0.26409 0.74262
 H3456 H 0.13330 0.26070 0.73203
 C3457 C 0.94932 0.22931 0.67058
 C3458 C 0.93294 0.23269 0.66230
 C3459 C 0.93267 0.23937 0.64485
 C3460 C 0.94861 0.24311 0.63586
 C3461 C 0.96513 0.24027 0.64420
 C3462 C 0.96538 0.23299 0.66152
 C3463 C 0.91627 0.23034 0.67173
 C3464 C 0.90186 0.22924 0.67892
 C3465 C 0.88463 0.22886 0.68668
 C3466 C 0.86975 0.22923 0.69291
 C3467 C 0.85189 0.23041 0.70005
 C3468 C 0.83898 0.24010 0.69083
 C3469 C 0.82189 0.24217 0.69812
 C3470 C 0.81747 0.23460 0.71480
 C3471 C 0.83046 0.22457 0.72380
 C3472 C 0.84755 0.22253 0.71647
 H3473 H 0.94968 0.22418 0.68412
 H3474 H 0.92009 0.24199 0.63828
 H3475 H 0.94799 0.24833 0.62237
 H3476 H 0.97793 0.23073 0.66824
 H3477 H 0.84221 0.24629 0.67811
 H3478 H 0.81226 0.24995 0.69080
 H3479 H 0.82754 0.21851 0.73664
 H3480 H 0.85744 0.21502 0.72373
 C3481 C 0.45186 0.73464 0.17146
 C3482 C 0.43554 0.73805 0.16306
 C3483 C 0.43542 0.74504 0.14573
 C3484 C 0.45143 0.74900 0.13696
 C3485 C 0.46789 0.74608 0.14541
 C3486 C 0.46799 0.73855 0.16262
 C3487 C 0.41877 0.73530 0.17222
 C3488 C 0.40428 0.73383 0.17919
 C3489 C 0.38694 0.73298 0.18670
 C3490 C 0.37197 0.73293 0.19272
 C3491 C 0.35398 0.73365 0.19961
 C3492 C 0.34096 0.74302 0.19021
 C3493 C 0.32374 0.74473 0.19730
 C3494 C 0.31929 0.73710 0.21396
 C3495 C 0.33239 0.72735 0.22311
 C3496 C 0.34961 0.72568 0.21598
 H3497 H 0.45210 0.72927 0.18491
 H3498 H 0.42290 0.74768 0.13907
 H3499 H 0.45092 0.75439 0.12354
 H3500 H 0.48048 0.73621 0.16943
 H3501 H 0.34420 0.74927 0.17753
 H3502 H 0.31403 0.75230 0.18987
 H3503 H 0.32946 0.72127 0.23594
 H3504 H 0.35959 0.71841 0.22338
 C3505 C 0.45310 0.24474 0.32641
 C3506 C 0.43675 0.25009 0.33382
 C3507 C 0.43611 0.25647 0.35135
 C3508 C 0.45170 0.25797 0.36132
 C3509 C 0.46827 0.25315 0.35390
 C3510 C 0.46882 0.24617 0.33647
 C3511 C 0.42051 0.24970 0.32361
 C3512 C 0.40635 0.25006 0.31600
 C3513 C 0.38934 0.25103 0.30804
 C3514 C 0.37454 0.25209 0.30186
 C3515 C 0.35666 0.25340 0.29501
 C3516 C 0.34231 0.24664 0.30503
 C3517 C 0.32493 0.24762 0.29839
 C3518 C 0.32164 0.25538 0.28159
 C3519 C 0.33616 0.26243 0.27177
 C3520 C 0.35354 0.26143 0.27845
 H3521 H 0.45374 0.23974 0.31284
 H3522 H 0.42354 0.26053 0.35726
 H3523 H 0.45077 0.26298 0.37486
 H3524 H 0.48140 0.24236 0.33047
 H3525 H 0.34456 0.24047 0.31791
 H3526 H 0.31412 0.24204 0.30632
 H3527 H 0.33415 0.26847 0.25878
 H3528 H 0.36454 0.26678 0.27062
 C3529 C 0.93652 0.74986 0.85440
 C3530 C 0.93630 0.74462 0.83647
 C3531 C 0.95221 0.73945 0.82804
 C3532 C 0.96838 0.74006 0.83743
 C3533 C 0.96872 0.74604 0.85523
 C3534 C 0.95257 0.75056 0.86371
 C3535 C 0.91974 0.74547 0.82681
 C3536 C 0.90549 0.74687 0.81953
 C3537 C 0.88848 0.74901 0.81177
 C3538 C 0.87376 0.75099 0.80565
 C3539 C 0.85599 0.75326 0.79877
 C3540 C 0.85336 0.76117 0.78205
 C3541 C 0.83611 0.76275 0.77516
 C3542 C 0.82123 0.75639 0.78491
 C3543 C 0.82403 0.74886 0.80192
 C3544 C 0.84127 0.74731 0.80876
 H3545 H 0.92430 0.75381 0.86109
 H3546 H 0.95219 0.73536 0.81415
 H3547 H 0.98065 0.73659 0.83059
 H3548 H 0.95240 0.75491 0.87752
 H3549 H 0.86466 0.76588 0.77422
 H3550 H 0.83448 0.76857 0.76202
 H3551 H 0.81293 0.74382 0.80981
 H3552 H 0.84315 0.74123 0.82176
   
