data_POSCAR
  _audit_creation_date              2014-09-24
  _audit_creation_method            'ToBaCCo'
  _symmetry_space_group_name_H-M    'P1'
  _symmetry_Int_Tables_number       1
  _symmetry_cell_setting            triclinic
  loop_
  _symmetry_equiv_pos_as_xyz
 x,y,z
_cell_length_a 68.1924
_cell_length_b 69.9371
_cell_length_c 75.0178
_cell_angle_alpha 89.763200
_cell_angle_beta 89.916800
_cell_angle_gamma 89.852600
loop_
  _atom_site_label
  _atom_site_type_symbol
  _atom_site_fract_x
  _atom_site_fract_y
  _atom_site_fract_z
N1 N 0.35190 0.35392 0.34630
 N2 N 0.33851 0.85666 -0.14904
 N3 N 0.83098 0.33279 -0.15993
 N4 N 0.84332 0.84237 0.35655
 N5 N 0.65565 0.64954 0.35308
 N6 N 0.65460 0.15745 -0.15280
 N7 N 0.15537 0.65601 -0.14628
 N8 N 0.17201 0.16971 0.33779
 N9 N 0.65899 0.33830 0.64839
 N10 N 0.66570 0.83885 1.16313
 N11 N 0.16483 0.34606 1.14123
 N12 N 0.14549 0.83746 0.65185
 N13 N 0.33742 0.65974 0.65760
 N14 N 0.34870 0.16981 1.14344
 N15 N 0.85542 0.66459 1.16514
 N16 N 0.82975 0.14312 0.65204
 N17 N 0.34459 0.35353 0.64879
 N18 N 0.34420 0.84278 0.15383
 N19 N 0.84185 0.34419 0.14856
 N20 N 0.83572 0.83811 0.65879
 N21 N 0.64921 0.65788 0.65807
 N22 N 0.65766 0.14840 0.15237
 N23 N 0.15741 0.66369 0.15456
 N24 N 0.15663 0.16203 0.64399
 N25 N 0.33465 0.66054 0.34505
 N26 N 0.34188 0.14636 0.84012
 N27 N 0.82970 0.65383 0.84884
 N28 N 0.85113 0.16072 0.34320
 N29 N 0.66281 0.34690 0.34874
 N30 N 0.65290 0.83558 0.86189
 N31 N 0.14779 0.33908 0.83685
 N32 N 0.17687 0.85687 0.34790
 O33 O 0.26443 1.02789 0.21940
 O34 O 0.23916 0.99258 0.24782
 O35 O 0.23930 1.02935 0.24548
 O36 O 0.26398 0.99034 0.22156
 O37 O 0.28908 0.99203 0.24006
 O38 O 0.26358 1.03019 0.26487
 O39 O 0.26426 0.99274 0.26640
 O40 O 0.28876 1.02904 0.23872
 Cu41 Cu 0.24933 1.00994 0.23156
 Cu42 Cu 0.27886 1.01112 0.25446
 C43 C 0.28084 1.03463 0.22430
 C44 C 0.24749 0.98657 0.26191
 C45 C 0.24708 1.03632 0.25937
 C46 C 0.28071 0.98452 0.22670
 O47 O 0.21961 0.48247 0.75466
 O48 O 0.24343 0.52030 0.72810
 O49 O 0.24321 0.48282 0.72783
 O50 O 0.21895 0.51958 0.75483
 O51 O 0.24432 0.52017 0.77303
 O52 O 0.26831 0.48252 0.74642
 O53 O 0.26889 0.51943 0.74626
 O54 O 0.24437 0.48284 0.77358
 Cu55 Cu 0.22880 0.50139 0.73946
 Cu56 Cu 0.25897 0.50128 0.76173
 C57 C 0.22795 0.47617 0.76865
 C58 C 0.26037 0.52611 0.73255
 C59 C 0.25975 0.47622 0.73260
 C60 C 0.22741 0.52617 0.76854
 O61 O 0.75805 -0.02135 0.23392
 O62 O 0.78256 0.01850 0.25715
 O63 O 0.78276 -0.01850 0.26022
 O64 O 0.75873 0.01586 0.23026
 O65 O 0.73347 0.01773 0.24859
 O66 O 0.75774 -0.01673 0.27884
 O67 O 0.75716 0.02075 0.27533
 O68 O 0.73306 -0.01903 0.25252
 Cu69 Cu 0.77303 -0.00161 0.24352
 Cu70 Cu 0.74291 0.00085 0.26576
 C71 C 0.74129 -0.02694 0.23927
 C72 C 0.77379 0.02660 0.27005
 C73 C 0.77440 -0.02357 0.27459
 C74 C 0.74207 0.02276 0.23428
 O75 O 0.73494 0.47804 0.73107
 O76 O 0.76106 0.51444 0.75697
 O77 O 0.76031 0.47717 0.75682
 O78 O 0.73514 0.51531 0.73155
 O79 O 0.71071 0.51451 0.75085
 O80 O 0.73706 0.47823 0.77727
 O81 O 0.73668 0.51550 0.77630
 O82 O 0.71164 0.47716 0.75149
 Cu83 Cu 0.75025 0.49626 0.74211
 Cu84 Cu 0.72161 0.49638 0.76596
 C85 C 0.71901 0.47109 0.73699
 C86 C 0.75331 0.52137 0.77094
 C87 C 0.75302 0.47125 0.77143
 C88 C 0.71852 0.52132 0.73682
 O89 O 0.25132 0.48252 0.22206
 O90 O 0.27582 0.52006 0.24802
 O91 O 0.27427 0.48304 0.24979
 O92 O 0.25285 0.51990 0.22048
 O93 O 0.22696 0.52161 0.23807
 O94 O 0.24838 0.48474 0.26739
 O95 O 0.24997 0.52210 0.26563
 O96 O 0.22547 0.48454 0.23967
 Cu97 Cu 0.26612 0.50115 0.23328
 Cu98 Cu 0.23512 0.50341 0.25448
 C99 C 0.23420 0.47708 0.22644
 C100 C 0.26706 0.52758 0.26120
 C101 C 0.26501 0.47759 0.26360
 C102 C 0.23629 0.52717 0.22434
 O103 O 0.71297 0.97356 0.76159
 O104 O 0.73911 1.00846 0.73323
 O105 O 0.73711 0.97111 0.73507
 O106 O 0.71389 1.01060 0.75939
 O107 O 0.73842 1.01082 0.77852
 O108 O 0.76230 0.97171 0.75353
 O109 O 0.76360 1.00867 0.75241
 O110 O 0.73795 0.97329 0.78024
 Cu111 Cu 0.72332 0.99098 0.74539
 Cu112 Cu 0.75299 0.99117 0.76814
 C113 C 0.72115 0.96726 0.77565
 C114 C 0.75587 1.01452 0.73800
 C115 C 0.75359 0.96463 0.74013
 C116 C 0.72206 1.01743 0.77314
 O117 O 0.75983 0.52031 0.27485
 O118 O 0.78398 0.48319 0.24833
 O119 O 0.78417 0.52059 0.24807
 O120 O 0.75810 0.48304 0.27373
 O121 O 0.73442 0.48359 0.25372
 O122 O 0.75929 0.52189 0.22935
 O123 O 0.76023 0.48458 0.22842
 O124 O 0.73491 0.52075 0.25613
 Cu125 Cu 0.77396 0.50172 0.26317
 Cu126 Cu 0.74480 0.50286 0.23996
 C127 C 0.74322 0.52681 0.27019
 C128 C 0.77630 0.47741 0.23394
 C129 C 0.77595 0.52780 0.23438
 C130 C 0.74190 0.47668 0.26782
 O131 O 0.21641 0.01656 0.73314
 O132 O 0.24262 -0.01887 0.76079
 O133 O 0.24035 0.01838 0.75988
 O134 O 0.21813 -0.02062 0.73432
 O135 O 0.24222 -0.01905 0.71471
 O136 O 0.26615 0.01790 0.74204
 O137 O 0.26677 -0.01926 0.74119
 O138 O 0.24197 0.01827 0.71513
 Cu139 Cu 0.22688 -0.00122 0.74892
 Cu140 Cu 0.25677 -0.00045 0.72636
 C141 C 0.22487 0.02373 0.71957
 C142 C 0.25906 -0.02536 0.75554
 C143 C 0.25712 0.02466 0.75545
 C144 C 0.22623 -0.02641 0.72007
 O145 O 0.24996 0.27523 0.96936
 O146 O 0.27533 0.24992 1.00566
 O147 O 0.27706 0.24901 0.97092
 O148 O 0.24769 0.27542 1.00423
 O149 O 0.22569 0.25237 1.00396
 O150 O 0.25412 0.22687 0.96985
 O151 O 0.25338 0.22684 1.00457
 O152 O 0.22698 0.25309 0.96913
 Cu153 Cu 0.26473 0.26469 0.98758
 Cu154 Cu 0.23778 0.23755 0.98679
 C155 C 0.23418 0.26853 0.96299
 C156 C 0.26874 0.23406 1.01135
 C157 C 0.27047 0.23346 0.96458
 C158 C 0.23183 0.26817 1.01005
 O159 O 0.25251 0.77930 0.48621
 O160 O 0.27654 0.74866 0.51995
 O161 O 0.27789 0.75167 0.48523
 O162 O 0.25170 0.77679 0.52099
 O163 O 0.22719 0.75639 0.51894
 O164 O 0.25378 0.73082 0.48334
 O165 O 0.25202 0.72826 0.51811
 O166 O 0.22824 0.75859 0.48438
 Cu167 Cu 0.26710 0.76617 0.50328
 Cu168 Cu 0.23791 0.74141 0.50097
 C169 C 0.23628 0.77411 0.47947
 C170 C 0.26818 0.73333 0.52499
 C171 C 0.27031 0.73705 0.47806
 C172 C 0.23504 0.77088 0.52617
 O173 O 0.27466 0.75494 -0.01888
 O174 O 0.25023 0.72893 0.01750
 O175 O 0.24675 0.73012 -0.01691
 O176 O 0.27806 0.75446 0.01597
 O177 O 0.25590 0.77734 0.01843
 O178 O 0.22532 0.75374 -0.01515
 O179 O 0.22823 0.75201 0.01962
 O180 O 0.25347 0.77868 -0.01616
 Cu181 Cu 0.26468 0.73983 -0.00075
 Cu182 Cu 0.23853 0.76776 0.00192
 C183 C 0.26816 0.77113 -0.02385
 C184 C 0.23501 0.73595 0.02474
 C185 C 0.23080 0.73795 -0.02183
 C186 C 0.27218 0.76998 0.02299
 O187 O 0.22693 0.26146 0.47873
 O188 O 0.25487 0.28395 0.51498
 O189 O 0.25391 0.28747 0.48045
 O190 O 0.22761 0.25810 0.51362
 O191 O 0.25034 0.23573 0.51138
 O192 O 0.27633 0.26484 0.47791
 O193 O 0.27771 0.26173 0.51251
 O194 O 0.24937 0.23878 0.47678
 Cu195 Cu 0.23851 0.27494 0.49720
 Cu196 Cu 0.26570 0.24801 0.49446
 C197 C 0.23348 0.24636 0.47143
 C198 C 0.27112 0.27675 0.51989
 C199 C 0.26955 0.28110 0.47340
 C200 C 0.23457 0.24196 0.51829
 O201 O 0.75583 0.77052 0.99235
 O202 O 0.78460 0.74341 1.02526
 O203 O 0.78030 0.74205 0.99068
 O204 O 0.75874 0.77102 1.02684
 O205 O 0.73427 0.75054 1.02884
 O206 O 0.75680 0.72075 0.99422
 O207 O 0.75996 0.72335 1.02896
 O208 O 0.73208 0.74924 0.99423
 Cu209 Cu 0.77233 0.75879 1.00853
 Cu210 Cu 0.74340 0.73384 1.01178
 C211 C 0.73914 0.76448 0.98751
 C212 C 0.77706 0.72903 1.03301
 C213 C 0.77218 0.72643 0.98627
 C214 C 0.74268 0.76573 1.03394
 O215 O 0.72728 0.24870 0.51190
 O216 O 0.75662 0.22244 0.47857
 O217 O 0.75084 0.21979 0.51320
 O218 O 0.73180 0.25079 0.47768
 O219 O 0.75646 0.27071 0.48155
 O220 O 0.77594 0.23923 0.51703
 O221 O 0.78120 0.24236 0.48276
 O222 O 0.75215 0.26827 0.51616
 Cu223 Cu 0.73924 0.23336 0.49487
 Cu224 Cu 0.76891 0.25713 0.49976
 C225 C 0.73483 0.26289 0.51987
 C226 C 0.77388 0.22806 0.47484
 C227 C 0.76640 0.22434 0.52139
 C228 C 0.74075 0.26607 0.47356
 O229 O 0.75262 0.26934 0.01660
 O230 O 0.72481 0.24190 -0.01664
 O231 O 0.72507 0.24398 0.01817
 O232 O 0.75170 0.26782 -0.01818
 O233 O 0.77428 0.24517 -0.01752
 O234 O 0.74750 0.22120 0.01902
 O235 O 0.74721 0.21909 -0.01565
 O236 O 0.77523 0.24673 0.01714
 Cu237 Cu 0.73628 0.25803 -0.00007
 Cu238 Cu 0.76331 0.23076 0.00085
 C239 C 0.76868 0.26268 0.02259
 C240 C 0.73136 0.22587 -0.02194
 C241 C 0.73175 0.22861 0.02492
 C242 C 0.76742 0.26053 -0.02420
 O243 O 0.76951 0.74969 0.48704
 O244 O 0.74347 0.72117 0.52099
 O245 O 0.74276 0.72323 0.48628
 O246 O 0.77068 0.74726 0.52166
 O247 O 0.74764 0.76935 0.52364
 O248 O 0.72020 0.74585 0.48762
 O249 O 0.72060 0.74347 0.52252
 O250 O 0.74694 0.77223 0.48914
 Cu251 Cu 0.75888 0.73308 0.50382
 Cu252 Cu 0.73150 0.75991 0.50588
 C253 C 0.76271 0.76588 0.48234
 C254 C 0.72764 0.72757 0.52769
 C255 C 0.72684 0.73057 0.48072
 C256 C 0.76390 0.76235 0.52878
 O257 O 0.98806 0.25988 0.22255
 O258 O 1.02725 0.23686 0.24907
 O259 O 0.98914 0.23467 0.24829
 O260 O 1.02643 0.26079 0.22272
 O261 O 1.02509 0.28451 0.24201
 O262 O 0.98703 0.25843 0.26745
 O263 O 1.02525 0.26022 0.26868
 O264 O 0.98712 0.28365 0.24178
 Cu265 Cu 1.00781 0.24569 0.23371
 Cu266 Cu 1.00599 0.27404 0.25695
 C267 C 0.98101 0.27582 0.22762
 C268 C 1.03291 0.24466 0.26345
 C269 C 0.98166 0.24199 0.26219
 C270 C 1.03223 0.27702 0.22800
 O271 O 0.51605 0.27127 0.73994
 O272 O 0.47849 0.24694 0.76651
 O273 O 0.51679 0.24595 0.76563
 O274 O 0.47809 0.27064 0.73981
 O275 O 0.47759 0.24655 0.72092
 O276 O 0.51682 0.22261 0.74593
 O277 O 0.47854 0.22279 0.74768
 O278 O 0.51589 0.24775 0.72042
 Cu279 Cu 0.49742 0.26103 0.75494
 Cu280 Cu 0.49719 0.23253 0.73183
 C281 C 0.52232 0.26386 0.72562
 C282 C 0.47195 0.23082 0.76165
 C283 C 0.52356 0.23011 0.76001
 C284 C 0.47116 0.26268 0.72598
 O285 O -0.02774 0.26898 0.74425
 O286 O 0.00850 0.24485 0.71609
 O287 O -0.02960 0.24516 0.71765
 O288 O 0.01023 0.26710 0.74388
 O289 O 0.00993 0.24224 0.76209
 O290 O -0.02961 0.22053 0.73612
 O291 O 0.00879 0.22013 0.73447
 O292 O -0.02825 0.24425 0.76262
 Cu293 Cu -0.00964 0.25898 0.72862
 Cu294 Cu -0.00981 0.22928 0.75062
 C295 C -0.03423 0.26085 0.75821
 C296 C 0.01501 0.22849 0.72047
 C297 C -0.03647 0.22908 0.72255
 C298 C 0.01687 0.25835 0.75751
 O299 O 0.52352 0.24735 0.27797
 O300 O 0.48564 0.22426 0.25056
 O301 O 0.52382 0.22250 0.25237
 O302 O 0.48517 0.24863 0.27626
 O303 O 0.48764 0.27254 0.25707
 O304 O 0.52559 0.24574 0.23245
 O305 O 0.48750 0.24788 0.23104
 O306 O 0.52572 0.27074 0.25825
 Cu307 Cu 0.50438 0.23334 0.26627
 Cu308 Cu 0.50684 0.26159 0.24274
 C309 C 0.53117 0.26296 0.27275
 C310 C 0.47996 0.23220 0.23619
 C311 C 0.53127 0.22957 0.23830
 C312 C 0.47974 0.26497 0.27072
 O313 O 1.01341 0.70904 0.75102
 O314 O 0.97302 0.73108 0.72550
 O315 O 1.01131 0.73200 0.72391
 O316 O 0.97529 0.70749 0.75250
 O317 O 0.97421 0.73266 0.77015
 O318 O 1.01171 0.75633 0.74253
 O319 O 0.97375 0.75606 0.74335
 O320 O 1.01258 0.73315 0.76990
 Cu321 Cu 0.99323 0.71743 0.73639
 Cu322 Cu 0.99310 0.74698 0.75837
 C323 C 1.01986 0.71733 0.76486
 C324 C 0.96660 0.74745 0.73000
 C325 C 1.01782 0.74828 0.72841
 C326 C 0.96839 0.71602 0.76604
 O327 O 0.52144 0.76841 0.24909
 O328 O 0.48130 0.74498 0.27384
 O329 O 0.51958 0.74269 0.27433
 O330 O 0.48340 0.77061 0.24873
 O331 O 0.48182 0.74749 0.22887
 O332 O 0.51907 0.72021 0.25377
 O333 O 0.48114 0.72159 0.25416
 O334 O 0.52034 0.74555 0.22890
 Cu335 Cu 0.50151 0.75896 0.26354
 Cu336 Cu 0.50037 0.73148 0.23932
 C337 C 0.52786 0.76083 0.23486
 C338 C 0.47452 0.72919 0.26829
 C339 C 0.52573 0.72681 0.26830
 C340 C 0.47629 0.76375 0.23450
 O341 O -0.00908 0.73350 0.26544
 O342 O 0.03088 0.75725 0.28955
 O343 O -0.00758 0.75885 0.29029
 O344 O 0.02907 0.73210 0.26427
 O345 O 0.02897 0.75492 0.24388
 O346 O -0.00665 0.78228 0.27049
 O347 O 0.03145 0.78014 0.26924
 O348 O -0.00907 0.75667 0.24537
 Cu349 Cu 0.01083 0.74315 0.27946
 Cu350 Cu 0.01121 0.77084 0.25524
 C351 C -0.01599 0.74104 0.25135
 C352 C 0.03816 0.77264 0.28344
 C353 C -0.01345 0.77507 0.28476
 C354 C 0.03519 0.73889 0.24955
 O355 O 0.51182 0.74525 0.78548
 O356 O 0.47245 0.72612 0.75714
 O357 O 0.51045 0.72254 0.75858
 O358 O 0.47364 0.74864 0.78478
 O359 O 0.47648 0.77357 0.76686
 O360 O 0.51324 0.74724 0.74035
 O361 O 0.47512 0.75114 0.73930
 O362 O 0.51434 0.77032 0.76763
 Cu363 Cu 0.49171 0.73316 0.77331
 Cu364 Cu 0.49508 0.76303 0.75169
 C365 C 0.51985 0.76102 0.78131
 C366 C 0.46703 0.73538 0.74338
 C367 C 0.51829 0.73046 0.74509
 C368 C 0.46877 0.76555 0.78039
 C369 C 0.38764 0.34980 0.34335
 C370 C 0.40383 0.34146 0.33492
 C371 C 0.40110 0.32835 0.32108
 C372 C 0.38199 0.32415 0.31531
 C373 C 0.36586 0.33292 0.32337
 C374 C 0.36861 0.34557 0.33758
 N375 N 0.41780 0.31936 0.31311
 N376 N 0.41644 0.30294 0.30600
 C377 C 0.43270 0.29381 0.29746
 C378 C 0.43275 0.27389 0.29599
 C379 C 0.44831 0.26450 0.28762
 C380 C 0.46377 0.27501 0.28006
 C381 C 0.46358 0.29505 0.28127
 C382 C 0.44827 0.30440 0.29015
 H383 H 0.38986 0.35960 0.35429
 H384 H 0.41848 0.34485 0.33943
 H385 H 0.37959 0.31420 0.30451
 H386 H 0.35120 0.32962 0.31883
 H387 H 0.42076 0.26561 0.30149
 H388 H 0.44806 0.24905 0.28670
 H389 H 0.47536 0.30342 0.27553
 H390 H 0.44837 0.31984 0.29101
 C391 C 0.37019 0.85913 0.83487
 C392 C 0.38657 0.85053 0.82699
 C393 C 0.38942 0.83075 0.82828
 C394 C 0.37590 0.81966 0.83794
 C395 C 0.35947 0.82821 0.84570
 C396 C 0.35620 0.84800 0.84397
 N397 N 0.40560 0.82213 0.81910
 N398 N 0.40931 0.80434 0.82048
 C399 C 0.42484 0.79526 0.81081
 C400 C 0.42880 0.77594 0.81413
 C401 C 0.44326 0.76635 0.80442
 C402 C 0.45391 0.77592 0.79104
 C403 C 0.44999 0.79539 0.78781
 C404 C 0.43562 0.80501 0.79765
 H405 H 0.36823 0.87444 0.83361
 H406 H 0.39693 0.85925 0.81965
 H407 H 0.37776 0.80434 0.83915
 H408 H 0.34905 0.81920 0.85262
 H409 H 0.42053 0.76827 0.82419
 H410 H 0.44588 0.75135 0.80722
 H411 H 0.45798 0.80317 0.77764
 H412 H 0.43274 0.81994 0.79479
 C413 C -0.15245 0.30242 0.83213
 C414 C -0.13688 0.29255 0.82423
 C415 C -0.12138 0.30255 0.81632
 C416 C -0.12138 0.32265 0.81677
 C417 C -0.13683 0.33253 0.82483
 C418 C -0.15263 0.32253 0.83242
 N419 N -0.10615 0.29205 0.80752
 N420 N -0.09317 0.30041 0.79814
 C421 C -0.07803 0.29022 0.78894
 C422 C -0.06624 0.30022 0.77687
 C423 C -0.05192 0.29068 0.76700
 C424 C -0.04896 0.27091 0.76923
 C425 C -0.06049 0.26093 0.78170
 C426 C -0.07503 0.27049 0.79142
 H427 H -0.16454 0.29440 0.83777
 H428 H -0.13708 0.27707 0.82395
 H429 H -0.10950 0.33071 0.81082
 H430 H -0.13656 0.34800 0.82504
 H431 H -0.06840 0.31543 0.77489
 H432 H -0.04318 0.29878 0.75758
 H433 H -0.05855 0.24569 0.78368
 H434 H -0.08396 0.26248 0.80075
 C435 C -0.14339 0.82245 0.33248
 C436 C -0.12750 0.81388 0.32387
 C437 C -0.10830 0.81787 0.32925
 C438 C -0.10511 0.83046 0.34352
 C439 C -0.12106 0.83860 0.35249
 C440 C -0.14024 0.83463 0.34698
 N441 N -0.09239 0.80841 0.32050
 N442 N -0.07509 0.81518 0.32032
 C443 C -0.05934 0.80498 0.31204
 C444 C -0.04371 0.81514 0.30450
 C445 C -0.02867 0.80543 0.29559
 C446 C -0.02874 0.78537 0.29473
 C447 C -0.04405 0.77518 0.30288
 C448 C -0.05939 0.78492 0.31126
 H449 H -0.15818 0.81924 0.32824
 H450 H -0.13011 0.80414 0.31295
 H451 H -0.09037 0.83356 0.34798
 H452 H -0.11853 0.84793 0.36372
 H453 H -0.04349 0.83060 0.30509
 H454 H -0.01696 0.81355 0.28943
 H455 H -0.04444 0.75971 0.30230
 H456 H -0.07125 0.77681 0.31719
 C457 C 0.62345 0.66593 0.35535
 C458 C 0.60752 0.67523 0.34737
 C459 C 0.60668 0.67736 0.32883
 C460 C 0.62213 0.67030 0.31831
 C461 C 0.63818 0.66130 0.32628
 C462 C 0.63899 0.65892 0.34488
 N463 N 0.59024 0.68694 0.32095
 N464 N 0.58706 0.68618 0.30426
 C465 C 0.57115 0.69608 0.29587
 C466 C 0.56680 0.69191 0.27811
 C467 C 0.55177 0.70164 0.26927
 C468 C 0.54103 0.71601 0.27801
 C469 C 0.54541 0.72019 0.29589
 C470 C 0.56028 0.71021 0.30481
 H471 H 0.62368 0.66417 0.36970
 H472 H 0.59572 0.68063 0.35562
 H473 H 0.62193 0.67195 0.30396
 H474 H 0.65007 0.65628 0.31793
 H475 H 0.57514 0.68110 0.27108
 H476 H 0.54883 0.69818 0.25548
 H477 H 0.53736 0.73117 0.30295
 H478 H 0.56350 0.71374 0.31853
 C479 C 0.62199 0.17309 0.84841
 C480 C 0.60608 0.18187 0.83994
 C481 C 0.60534 0.18302 0.82133
 C482 C 0.62076 0.17522 0.81122
 C483 C 0.63681 0.16668 0.81969
 C484 C 0.63763 0.16557 0.83838
 N485 N 0.58905 0.19246 0.81304
 N486 N 0.58619 0.19161 0.79630
 C487 C 0.57028 0.20133 0.78771
 C488 C 0.56609 0.19693 0.76997
 C489 C 0.55078 0.20617 0.76106
 C490 C 0.53958 0.22028 0.76970
 C491 C 0.54392 0.22485 0.78749
 C492 C 0.55908 0.21534 0.79649
 H493 H 0.62220 0.17230 0.86283
 H494 H 0.59428 0.18780 0.84788
 H495 H 0.62059 0.17604 0.79681
 H496 H 0.64876 0.16122 0.81165
 H497 H 0.57467 0.18623 0.76305
 H498 H 0.54788 0.20242 0.74733
 H499 H 0.53551 0.23565 0.79447
 H500 H 0.56216 0.21906 0.81019
 C501 C 1.12221 0.67065 0.85493
 C502 C 1.10575 0.67835 0.84637
 C503 C 1.10504 0.67942 0.82775
 C504 C 1.12119 0.67308 0.81773
 C505 C 1.13776 0.66570 0.82627
 C506 C 1.13840 0.66421 0.84496
 N507 N 1.08789 0.68706 0.81928
 N508 N 1.08485 0.68482 0.80268
 C509 C 1.06813 0.69274 0.79377
 C510 C 1.06404 0.68685 0.77638
 C511 C 1.04811 0.69457 0.76710
 C512 C 1.03619 0.70861 0.77500
 C513 C 1.04033 0.71452 0.79249
 C514 C 1.05610 0.70655 0.80187
 H515 H 1.12225 0.66955 0.86933
 H516 H 1.09341 0.68324 0.85425
 H517 H 1.12109 0.67397 0.80332
 H518 H 1.15012 0.66115 0.81826
 H519 H 1.07325 0.67626 0.76999
 H520 H 1.04536 0.68981 0.75362
 H521 H 1.03138 0.72529 0.79892
 H522 H 1.05906 0.71138 0.81528
 C523 C 1.15744 0.18050 0.30923
 C524 C 1.14194 0.18844 0.29953
 C525 C 1.12502 0.19483 0.30825
 C526 C 1.12369 0.19307 0.32688
 C527 C 1.13908 0.18484 0.33658
 C528 C 1.15615 0.17847 0.32786
 N529 N 1.10942 0.20286 0.29784
 N530 N 1.09502 0.21167 0.30487
 C531 C 1.07937 0.21944 0.29434
 C532 C 1.06630 0.23236 0.30218
 C533 C 1.05118 0.24058 0.29215
 C534 C 1.04867 0.23567 0.27414
 C535 C 1.06157 0.22238 0.26638
 C536 C 1.07690 0.21443 0.27636
 H537 H 1.17047 0.17591 0.30217
 H538 H 1.14315 0.18975 0.28519
 H539 H 1.11068 0.19780 0.33390
 H540 H 1.13761 0.18326 0.35088
 H541 H 1.06801 0.23628 0.31604
 H542 H 1.04140 0.25070 0.29850
 H543 H 1.06002 0.21837 0.25253
 H544 H 1.08676 0.20437 0.27003
 C545 C 0.64295 0.30762 0.65618
 C546 C 0.62725 0.29743 0.66349
 C547 C 0.61097 0.30711 0.67039
 C548 C 0.61031 0.32719 0.66947
 C549 C 0.62588 0.33737 0.66196
 C550 C 0.64249 0.32771 0.65543
 N551 N 0.59560 0.29634 0.67869
 N552 N 0.58207 0.30446 0.68761
 C553 C 0.56675 0.29402 0.69630
 C554 C 0.55461 0.30368 0.70830
 C555 C 0.54010 0.29387 0.71771
 C556 C 0.53727 0.27418 0.71507
 C557 C 0.54913 0.26455 0.70264
 C558 C 0.56389 0.27436 0.69341
 H559 H 0.65563 0.29984 0.65137
 H560 H 0.62795 0.28198 0.66415
 H561 H 0.59781 0.33501 0.67461
 H562 H 0.62508 0.35283 0.66134
 H563 H 0.55666 0.31882 0.71059
 H564 H 0.53110 0.30170 0.72710
 H565 H 0.54728 0.24938 0.70037
 H566 H 0.57308 0.26662 0.68412
 C567 C 0.62971 0.83890 0.16596
 C568 C 0.61256 0.83199 0.17392
 C569 C 0.61355 0.81768 0.18700
 C570 C 0.63197 0.81081 0.19254
 C571 C 0.64912 0.81816 0.18499
 C572 C 0.64806 0.83203 0.17149
 N573 N 0.59580 0.81024 0.19449
 N574 N 0.59494 0.79319 0.20042
 C575 C 0.57762 0.78556 0.20852
 C576 C 0.57490 0.76575 0.20867
 C577 C 0.55837 0.75778 0.21679
 C578 C 0.54460 0.76952 0.22541
 C579 C 0.54742 0.78941 0.22542
 C580 C 0.56369 0.79742 0.21680
 H581 H 0.62878 0.84963 0.15555
 H582 H 0.59846 0.83743 0.16959
 H583 H 0.63305 0.79990 0.20277
 H584 H 0.66324 0.81280 0.18934
 H585 H 0.58560 0.75647 0.20241
 H586 H 0.55661 0.74239 0.21676
 H587 H 0.53700 0.79873 0.23201
 H588 H 0.56565 0.81278 0.21697
 C589 C 1.15514 0.32125 0.16278
 C590 C 1.14079 0.31192 0.17286
 C591 C 1.12115 0.31771 0.17179
 C592 C 1.11588 0.33255 0.16003
 C593 C 1.13018 0.34149 0.14953
 C594 C 1.14990 0.33603 0.15104
 N595 N 1.10687 0.30818 0.18261
 N596 N 1.09076 0.31609 0.18703
 C597 C 1.07635 0.30615 0.19742
 C598 C 1.06231 0.31662 0.20694
 C599 C 1.04815 0.30721 0.21724
 C600 C 1.04750 0.28714 0.21769
 C601 C 1.06144 0.27667 0.20793
 C602 C 1.07589 0.28609 0.19804
 H603 H 1.17035 0.31698 0.16405
 H604 H 1.14500 0.30045 0.18181
 H605 H 1.10074 0.33708 0.15887
 H606 H 1.12600 0.35291 0.14050
 H607 H 1.06248 0.33210 0.20652
 H608 H 1.03748 0.31558 0.22456
 H609 H 1.06128 0.26118 0.20810
 H610 H 1.08650 0.27770 0.19067
 C611 C 1.11335 0.83949 0.66710
 C612 C 1.09749 0.83073 0.67563
 C613 C 1.09627 0.81079 0.67657
 C614 C 1.11105 0.79961 0.66868
 C615 C 1.12703 0.80835 0.66032
 C616 C 1.12842 0.82839 0.65956
 N617 N 1.08036 0.80230 0.68621
 N618 N 1.07729 0.78436 0.68616
 C619 C 1.06188 0.77582 0.69642
 C620 C 1.05760 0.75646 0.69393
 C621 C 1.04306 0.74755 0.70413
 C622 C 1.03275 0.75785 0.71721
 C623 C 1.03706 0.77731 0.71967
 C624 C 1.05143 0.78625 0.70930
 H625 H 1.11405 0.85495 0.66658
 H626 H 1.08621 0.83950 0.68167
 H627 H 1.11049 0.78415 0.66934
 H628 H 1.13855 0.79949 0.65479
 H629 H 1.06561 0.74826 0.68410
 H630 H 1.04012 0.73253 0.70198
 H631 H 1.02933 0.78562 0.72961
 H632 H 1.05457 0.80122 0.71154
 C633 C 0.36598 0.65512 0.67745
 C634 C 0.38121 0.66248 0.68777
 C635 C 0.38436 0.68219 0.68859
 C636 C 0.37195 0.69461 0.67903
 C637 C 0.35657 0.68727 0.66883
 C638 C 0.35352 0.66742 0.66781
 N639 N 0.40005 0.68917 0.69940
 N640 N 0.40513 0.70666 0.69941
 C641 C 0.42069 0.71350 0.71049
 C642 C 0.42723 0.73230 0.70829
 C643 C 0.44240 0.73939 0.71888
 C644 C 0.45113 0.72780 0.73204
 C645 C 0.44444 0.70894 0.73430
 C646 C 0.42942 0.70181 0.72357
 H647 H 0.36399 0.63979 0.67696
 H648 H 0.39063 0.65278 0.69511
 H649 H 0.37400 0.70994 0.67960
 H650 H 0.34692 0.69707 0.66187
 H651 H 0.42060 0.74145 0.69829
 H652 H 0.44716 0.75400 0.71686
 H653 H 0.45089 0.69966 0.74429
 H654 H 0.42456 0.68724 0.72557
 C655 C 0.38130 0.18550 0.14322
 C656 C 0.39731 0.19330 0.15228
 C657 C 0.39772 0.19344 0.17093
 C658 C 0.38173 0.18597 0.18049
 C659 C 0.36561 0.17846 0.17147
 C660 C 0.36526 0.17799 0.15273
 N661 N 0.41437 0.20135 0.17989
 N662 N 0.41706 0.19884 0.19653
 C663 C 0.43329 0.20698 0.20590
 C664 C 0.43685 0.20112 0.22345
 C665 C 0.45225 0.20905 0.23318
 C666 C 0.46420 0.22327 0.22557
 C667 C 0.46061 0.22914 0.20791
 C668 C 0.44535 0.22098 0.19810
 H669 H 0.38147 0.18520 0.12880
 H670 H 0.40952 0.19905 0.14475
 H671 H 0.38160 0.18610 0.19492
 H672 H 0.35335 0.17303 0.17914
 H673 H 0.42761 0.19039 0.22961
 H674 H 0.45456 0.20431 0.24677
 H675 H 0.46959 0.24005 0.20169
 H676 H 0.44280 0.22580 0.18457
 C677 C -0.11590 0.68624 0.16392
 C678 C -0.10097 0.69640 0.17240
 C679 C -0.09915 0.69582 0.19097
 C680 C -0.11280 0.68534 0.20107
 C681 C -0.12787 0.67538 0.19262
 C682 C -0.12938 0.67540 0.17393
 N683 N -0.08326 0.70575 0.19926
 N684 N -0.07923 0.70341 0.21569
 C685 C -0.06343 0.71317 0.22426
 C686 C -0.05837 0.70783 0.24164
 C687 C -0.04289 0.71681 0.25039
 C688 C -0.03232 0.73153 0.24195
 C689 C -0.03756 0.73703 0.22454
 C690 C -0.05293 0.72785 0.21571
 H691 H -0.11675 0.68660 0.14951
 H692 H -0.09059 0.70449 0.16448
 H693 H -0.11187 0.68487 0.21547
 H694 H -0.13834 0.66760 0.20071
 H695 H -0.06639 0.69656 0.24837
 H696 H -0.03929 0.71232 0.26383
 H697 H -0.02968 0.74831 0.21769
 H698 H -0.05664 0.73226 0.20228
 C699 C -0.15603 0.15459 0.68050
 C700 C -0.14145 0.16431 0.68986
 C701 C -0.12608 0.17326 0.68074
 C702 C -0.12536 0.17232 0.66206
 C703 C -0.13975 0.16236 0.65270
 C704 C -0.15522 0.15324 0.66180
 N705 N -0.11120 0.18283 0.69074
 N706 N -0.09861 0.19375 0.68342
 C707 C -0.08338 0.20271 0.69348
 C708 C -0.07217 0.21716 0.68552
 C709 C -0.05703 0.22598 0.69499
 C710 C -0.05267 0.22017 0.71250
 C711 C -0.06390 0.20559 0.72042
 C712 C -0.07919 0.19702 0.71105
 H713 H -0.16799 0.14819 0.68788
 H714 H -0.14220 0.16500 0.70426
 H715 H -0.11354 0.17905 0.65472
 H716 H -0.13865 0.16164 0.63833
 H717 H -0.07521 0.22163 0.67196
 H718 H -0.04858 0.23713 0.68854
 H719 H -0.06094 0.20086 0.73392
 H720 H -0.08758 0.18581 0.71746
 C721 C 0.35403 0.38480 0.33031
 C722 C 0.34523 0.39988 0.32103
 C723 C 0.32486 0.40071 0.31917
 C724 C 0.31324 0.38626 0.32682
 C725 C 0.32206 0.37102 0.33597
 C726 C 0.34257 0.37014 0.33782
 N727 N 0.31651 0.41596 0.30888
 N728 N 0.29812 0.41898 0.30801
 C729 C 0.29017 0.43396 0.29709
 C730 C 0.27027 0.43865 0.29862
 C731 C 0.26209 0.45302 0.28791
 C732 C 0.27367 0.46272 0.27528
 C733 C 0.29363 0.45793 0.27374
 C734 C 0.30184 0.44376 0.28460
 H735 H 0.36984 0.38451 0.33150
 H736 H 0.35433 0.41090 0.31515
 H737 H 0.29745 0.38651 0.32539
 H738 H 0.31292 0.35971 0.34126
 H739 H 0.26111 0.43116 0.30814
 H740 H 0.24665 0.45634 0.28935
 H741 H 0.30294 0.46518 0.26417
 H742 H 0.31724 0.44034 0.28309
 C743 C 0.31729 -0.11453 0.85003
 C744 C 0.30703 -0.10052 0.84046
 C745 C 0.30731 -0.10046 0.82182
 C746 C 0.31766 -0.11487 0.81277
 C747 C 0.32769 -0.12901 0.82230
 C748 C 0.32790 -0.12885 0.84106
 N749 N 0.29703 -0.08569 0.81238
 N750 N 0.29924 -0.08320 0.79569
 C751 C 0.28896 -0.06862 0.78601
 C752 C 0.29439 -0.06489 0.76836
 C753 C 0.28478 -0.05072 0.75851
 C754 C 0.26931 -0.04021 0.76611
 C755 C 0.26374 -0.04409 0.78381
 C756 C 0.27357 -0.05811 0.79373
 H757 H 0.31709 -0.11404 0.86444
 H758 H 0.29905 -0.08954 0.84759
 H759 H 0.31787 -0.11528 0.79835
 H760 H 0.33524 -0.14014 0.81500
 H761 H 0.30621 -0.07294 0.76227
 H762 H 0.28934 -0.04814 0.74488
 H763 H 0.25190 -0.03620 0.79002
 H764 H 0.26906 -0.06082 0.80735
 C765 C 0.82153 0.34924 0.81204
 C766 C 0.81369 0.36501 0.80303
 C767 C 0.80669 0.38081 0.81249
 C768 C 0.80790 0.38082 0.83120
 C769 C 0.81602 0.36516 0.84023
 C770 C 0.82282 0.34914 0.83076
 N771 N 0.79838 0.39653 0.80280
 N772 N 0.78897 0.40994 0.81044
 C773 C 0.78071 0.42560 0.80060
 C774 C 0.76724 0.43768 0.80904
 C775 C 0.75830 0.45261 0.79961
 C776 C 0.76299 0.45590 0.78159
 C777 C 0.77690 0.44404 0.77327
 C778 C 0.78558 0.42893 0.78264
 H779 H 0.82647 0.33704 0.80440
 H780 H 0.81281 0.36482 0.78862
 H781 H 0.80269 0.39294 0.83880
 H782 H 0.81704 0.36554 0.85463
 H783 H 0.76340 0.43529 0.82288
 H784 H 0.74771 0.46157 0.80640
 H785 H 0.78076 0.44620 0.75940
 H786 H 0.79605 0.41984 0.77586
 C787 C 0.81260 -0.14082 0.34818
 C788 C 0.80294 -0.12526 0.34033
 C789 C 0.81366 -0.11015 0.33292
 C790 C 0.83425 -0.11061 0.33370
 C791 C 0.84390 -0.12605 0.34167
 C792 C 0.83321 -0.14134 0.34898
 N793 N 0.80342 -0.09482 0.32422
 N794 N 0.81253 -0.08207 0.31536
 C795 C 0.80272 -0.06682 0.30620
 C796 C 0.81357 -0.05548 0.29442
 C797 C 0.80439 -0.04122 0.28438
 C798 C 0.78416 -0.03783 0.28617
 C799 C 0.77336 -0.04880 0.29847
 C800 C 0.78254 -0.06331 0.30834
 H801 H 0.80402 -0.15259 0.35337
 H802 H 0.78707 -0.12514 0.33971
 H803 H 0.84289 -0.09909 0.32809
 H804 H 0.85977 -0.12607 0.34212
 H805 H 0.82913 -0.05803 0.29271
 H806 H 0.81311 -0.03292 0.27509
 H807 H 0.75774 -0.04653 0.30008
 H808 H 0.77388 -0.07187 0.31745
 C809 C 0.31130 0.64928 0.67801
 C810 C 0.30035 0.63474 0.68604
 C811 C 0.30430 0.61556 0.68211
 C812 C 0.31888 0.61105 0.66953
 C813 C 0.32944 0.62564 0.66111
 C814 C 0.32589 0.64478 0.66553
 N815 N 0.29365 0.60093 0.69132
 N816 N 0.30056 0.58413 0.69315
 C817 C 0.29005 0.56943 0.70237
 C818 C 0.30055 0.55422 0.70990
 C819 C 0.29086 0.54015 0.71978
 C820 C 0.27039 0.54076 0.72175
 C821 C 0.25975 0.55566 0.71367
 C822 C 0.26954 0.57008 0.70424
 H823 H 0.30845 0.66405 0.68145
 H824 H 0.28914 0.63837 0.69570
 H825 H 0.32205 0.59632 0.66620
 H826 H 0.34068 0.62207 0.65146
 H827 H 0.31635 0.55356 0.70849
 H828 H 0.29934 0.52871 0.72580
 H829 H 0.24395 0.55641 0.71506
 H830 H 0.26115 0.58165 0.69838
 C831 C 0.31845 1.15212 0.15135
 C832 C 0.30914 1.13634 0.15908
 C833 C 0.32020 1.12147 0.16655
 C834 C 0.34078 1.12227 0.16578
 C835 C 0.35009 1.13792 0.15785
 C836 C 0.33903 1.15314 0.15076
 N837 N 0.31024 1.10604 0.17528
 N838 N 0.31940 1.09375 0.18468
 C839 C 0.30959 1.07847 0.19376
 C840 C 0.32008 1.06764 0.20623
 C841 C 0.31077 1.05327 0.21605
 C842 C 0.29080 1.04930 0.21333
 C843 C 0.28040 1.05984 0.20043
 C844 C 0.28968 1.07442 0.19080
 H845 H 0.30959 1.16372 0.14613
 H846 H 0.29328 1.13590 0.15962
 H847 H 0.34965 1.11088 0.17136
 H848 H 0.36596 1.13830 0.15739
 H849 H 0.33543 1.07061 0.20860
 H850 H 0.31920 1.04532 0.22582
 H851 H 0.26500 1.05711 0.19807
 H852 H 0.28129 1.08257 0.18115
 C853 C 0.86176 0.63359 0.18033
 C854 C 0.85493 0.61675 0.18830
 C855 C 0.83492 0.61236 0.18808
 C856 C 0.82181 0.62489 0.17948
 C857 C 0.82858 0.64178 0.17168
 C858 C 0.84860 0.64653 0.17227
 N859 N 0.82811 0.59554 0.19712
 N860 N 0.81032 0.59025 0.19595
 C861 C 0.80261 0.57404 0.20528
 C862 C 0.78342 0.56837 0.20161
 C863 C 0.77494 0.55318 0.21089
 C864 C 0.78549 0.54343 0.22424
 C865 C 0.80486 0.54906 0.22788
 C866 C 0.81342 0.56422 0.21841
 H867 H 0.87730 0.63668 0.18067
 H868 H 0.86521 0.60719 0.19480
 H869 H 0.80626 0.62185 0.17913
 H870 H 0.81803 0.65137 0.16561
 H871 H 0.77495 0.57589 0.19157
 H872 H 0.75998 0.54928 0.20777
 H873 H 0.81335 0.54181 0.23807
 H874 H 0.82827 0.56846 0.22153
 C875 C 0.79968 1.12380 0.65681
 C876 C 0.79000 1.10846 0.66491
 C877 C 0.80025 1.09566 0.67584
 C878 C 0.82057 1.09795 0.67807
 C879 C 0.83032 1.11318 0.66984
 C880 C 0.81991 1.12659 0.65948
 N881 N 0.78959 1.08094 0.68498
 N882 N 0.79761 1.07036 0.69674
 C883 C 0.78699 1.05596 0.70633
 C884 C 0.79638 1.04635 0.72030
 C885 C 0.78629 1.03283 0.73051
 C886 C 0.76657 1.02854 0.72681
 C887 C 0.75725 1.03795 0.71253
 C888 C 0.76734 1.05162 0.70242
 H889 H 0.79120 1.13374 0.64886
 H890 H 0.77435 1.10681 0.66303
 H891 H 0.82887 1.08811 0.68631
 H892 H 0.84596 1.11469 0.67177
 H893 H 0.81151 1.04956 0.72345
 H894 H 0.79394 1.02577 0.74134
 H895 H 0.74208 1.03495 0.70935
 H896 H 0.75978 1.05887 0.69165
 C897 C 0.65253 0.61904 0.33671
 C898 C 0.66089 0.60402 0.32707
 C899 C 0.68126 0.60272 0.32511
 C900 C 0.69326 0.61654 0.33315
 C901 C 0.68489 0.63168 0.34264
 C902 C 0.66442 0.63318 0.34439
 N903 N 0.68933 0.58762 0.31451
 N904 N 0.70772 0.58461 0.31362
 C905 C 0.71606 0.56993 0.30270
 C906 C 0.73599 0.56568 0.30455
 C907 C 0.74474 0.55159 0.29405
 C908 C 0.73371 0.54165 0.28127
 C909 C 0.71370 0.54605 0.27929
 C910 C 0.70489 0.56001 0.29001
 H911 H 0.63673 0.61983 0.33796
 H912 H 0.65149 0.59346 0.32097
 H913 H 0.70905 0.61589 0.33177
 H914 H 0.69436 0.64250 0.34824
 H915 H 0.74476 0.57329 0.31422
 H916 H 0.76020 0.54862 0.29584
 H917 H 0.70484 0.53861 0.26958
 H918 H 0.68946 0.56315 0.28827
 C919 C 0.68484 1.13942 0.83971
 C920 C 0.69415 1.12341 0.83243
 C921 C 0.68312 1.10859 0.82505
 C922 C 0.66254 1.10979 0.82531
 C923 C 0.65321 1.12568 0.83277
 C924 C 0.66425 1.14075 0.83993
 N925 N 0.69313 1.09269 0.81714
 N926 N 0.68405 1.08008 0.80820
 C927 C 0.69384 1.06419 0.80008
 C928 C 0.68333 1.05269 0.78828
 C929 C 0.69250 1.03746 0.77961
 C930 C 0.71237 1.03327 0.78279
 C931 C 0.72284 1.04459 0.79495
 C932 C 0.71368 1.06002 0.80345
 H933 H 0.69372 1.15089 0.84497
 H934 H 0.71001 1.12269 0.83228
 H935 H 0.65367 1.09846 0.81977
 H936 H 0.63734 1.12627 0.83293
 H937 H 0.66803 1.05574 0.78561
 H938 H 0.68400 1.02896 0.77040
 H939 H 0.73816 1.04172 0.79764
 H940 H 0.72209 1.06868 0.81259
 C941 C 0.18634 0.64016 0.84468
 C942 C 0.19629 0.62529 0.83615
 C943 C 0.18587 0.61046 0.82809
 C944 C 0.16527 0.61038 0.82906
 C945 C 0.15532 0.62511 0.83778
 C946 C 0.16573 0.64028 0.84548
 N947 N 0.19643 0.59592 0.81869
 N948 N 0.18770 0.58382 0.80892
 C949 C 0.19798 0.56928 0.79929
 C950 C 0.18763 0.55837 0.78691
 C951 C 0.19722 0.54439 0.77690
 C952 C 0.21737 0.54091 0.77930
 C953 C 0.22770 0.55169 0.79196
 C954 C 0.21811 0.56586 0.80182
 H955 H 0.19468 0.65176 0.85041
 H956 H 0.21215 0.62552 0.83548
 H957 H 0.15689 0.59899 0.82304
 H958 H 0.13946 0.62480 0.83839
 H959 H 0.17212 0.56087 0.78488
 H960 H 0.18883 0.53625 0.76734
 H961 H 0.24323 0.54933 0.79408
 H962 H 0.22639 0.57411 0.81137
 C963 C 0.20321 1.15295 0.33106
 C964 C 0.21345 1.13777 0.32329
 C965 C 0.20336 1.12330 0.31435
 C966 C 0.18276 1.12396 0.31357
 C967 C 0.17251 1.13902 0.32150
 C968 C 0.18262 1.15377 0.33018
 N969 N 0.21428 1.10829 0.30595
 N970 N 0.20607 1.09622 0.29576
 C971 C 0.21668 1.08117 0.28713
 C972 C 0.20698 1.07014 0.27441
 C973 C 0.21688 1.05560 0.26540
 C974 C 0.23669 1.05166 0.26913
 C975 C 0.24637 1.06258 0.28212
 C976 C 0.23647 1.07731 0.29100
 H977 H 0.21134 1.16422 0.33756
 H978 H 0.22931 1.13743 0.32398
 H979 H 0.17460 1.11288 0.30684
 H980 H 0.15665 1.13924 0.32080
 H981 H 0.19173 1.07297 0.27136
 H982 H 0.20898 1.04738 0.25555
 H983 H 0.26162 1.05989 0.28527
 H984 H 0.24425 1.08563 0.30084
 C985 C 0.67261 0.37114 0.64753
 C986 C 0.67942 0.38746 0.65624
 C987 C 0.67914 0.38847 0.67487
 C988 C 0.67208 0.37284 0.68477
 C989 C 0.66556 0.35640 0.67609
 C990 C 0.66570 0.35537 0.65737
 N991 N 0.68659 0.40524 0.68340
 N992 N 0.68411 0.40832 0.69997
 C993 C 0.69224 0.42468 0.70866
 C994 C 0.68672 0.42865 0.72624
 C995 C 0.69502 0.44406 0.73534
 C996 C 0.70925 0.45557 0.72705
 C997 C 0.71465 0.45165 0.70933
 C998 C 0.70614 0.43641 0.70017
 H999 H 0.67275 0.37079 0.63311
 H1000 H 0.68487 0.39940 0.64846
 H1001 H 0.67192 0.37320 0.69919
 H1002 H 0.66056 0.34438 0.68402
 H1003 H 0.67607 0.41969 0.73294
 H1004 H 0.69064 0.44666 0.74900
 H1005 H 0.72554 0.46029 0.70257
 H1006 H 0.71072 0.43358 0.68661
 C1007 C 0.69719 -0.14699 0.17288
 C1008 C 0.70771 -0.13226 0.18098
 C1009 C 0.69787 -0.11660 0.18837
 C1010 C 0.67729 -0.11582 0.18757
 C1011 C 0.66678 -0.13042 0.17932
 C1012 C 0.67661 -0.14611 0.17175
 N1013 N 0.70899 -0.10168 0.19658
 N1014 N 0.70066 -0.08831 0.20522
 C1015 C 0.71129 -0.07308 0.21341
 C1016 C 0.70118 -0.06067 0.22474
 C1017 C 0.71098 -0.04572 0.23313
 C1018 C 0.73110 -0.04274 0.23013
 C1019 C 0.74122 -0.05507 0.21853
 C1020 C 0.73141 -0.07023 0.21031
 H1021 H 0.70511 -0.15911 0.16750
 H1022 H 0.72355 -0.13309 0.18161
 H1023 H 0.66932 -0.10385 0.19316
 H1024 H 0.65097 -0.12934 0.17866
 H1025 H 0.68567 -0.06270 0.22717
 H1026 H 0.70274 -0.03641 0.24190
 H1027 H 0.75673 -0.05313 0.21600
 H1028 H 0.73950 -0.07962 0.20151
 C1029 C 0.19545 0.36211 0.15059
 C1030 C 0.20509 0.37684 0.15956
 C1031 C 0.19434 0.39093 0.16850
 C1032 C 0.17375 0.39025 0.16824
 C1033 C 0.16411 0.37565 0.15914
 C1034 C 0.17485 0.36145 0.15018
 N1035 N 0.20460 0.40568 0.17782
 N1036 N 0.19565 0.41764 0.18768
 C1037 C 0.20562 0.43252 0.19703
 C1038 C 0.19506 0.44362 0.20919
 C1039 C 0.20433 0.45810 0.21876
 C1040 C 0.22437 0.46188 0.21614
 C1041 C 0.23492 0.45085 0.20374
 C1042 C 0.22565 0.43622 0.19431
 H1043 H 0.20405 0.35113 0.14408
 H1044 H 0.22096 0.37715 0.15974
 H1045 H 0.16510 0.40101 0.17501
 H1046 H 0.14826 0.37552 0.15904
 H1047 H 0.17960 0.44092 0.21136
 H1048 H 0.19578 0.46638 0.22816
 H1049 H 0.25039 0.45339 0.20146
 H1050 H 0.23411 0.42786 0.18492
 C1051 C 0.15585 -0.14654 0.67966
 C1052 C 0.16451 -0.13120 0.68848
 C1053 C 0.17236 -0.11588 0.67882
 C1054 C 0.17125 -0.11591 0.66012
 C1055 C 0.16229 -0.13113 0.65127
 C1056 C 0.15455 -0.14665 0.66095
 N1057 N 0.18117 -0.10047 0.68838
 N1058 N 0.19131 -0.08755 0.68076
 C1059 C 0.19972 -0.07214 0.69066
 C1060 C 0.21382 -0.06047 0.68255
 C1061 C 0.22255 -0.04559 0.69208
 C1062 C 0.21700 -0.04198 0.70982
 C1063 C 0.20261 -0.05354 0.71781
 C1064 C 0.19413 -0.06856 0.70837
 H1065 H 0.15023 -0.15839 0.68744
 H1066 H 0.16531 -0.13132 0.70290
 H1067 H 0.17710 -0.10413 0.65239
 H1068 H 0.16133 -0.13080 0.63687
 H1069 H 0.21821 -0.06306 0.66890
 H1070 H 0.23354 -0.03686 0.68556
 H1071 H 0.19807 -0.05114 0.73146
 H1072 H 0.18318 -0.07731 0.71491
 C1073 C 0.34659 0.32499 0.36499
 C1074 C 0.33850 0.31601 0.37991
 C1075 C 0.32729 0.32639 0.39211
 C1076 C 0.32456 0.34612 0.38946
 C1077 C 0.33285 0.35521 0.37459
 C1078 C 0.34371 0.34470 0.36197
 N1079 N 0.31873 0.31638 0.40686
 N1080 N 0.30668 0.32413 0.41762
 C1081 C 0.29818 0.31351 0.43207
 C1082 C 0.28311 0.32178 0.44213
 C1083 C 0.27390 0.31137 0.45572
 C1084 C 0.27979 0.29250 0.45957
 C1085 C 0.29523 0.28440 0.44971
 C1086 C 0.30430 0.29476 0.43605
 H1087 H 0.35488 0.31634 0.35572
 H1088 H 0.34074 0.30081 0.38185
 H1089 H 0.31609 0.35447 0.39884
 H1090 H 0.33076 0.37046 0.37294
 H1091 H 0.27827 0.33622 0.43921
 H1092 H 0.26209 0.31803 0.46311
 H1093 H 0.30011 0.26991 0.45232
 H1094 H 0.31596 0.28804 0.42852
 C1095 C 0.33724 0.85523 -0.11628
 C1096 C 0.32944 0.84756 -0.10055
 C1097 C 0.31497 0.83340 -0.10130
 C1098 C 0.30777 0.82754 -0.11795
 C1099 C 0.31514 0.83564 -0.13362
 C1100 C 0.33014 0.84925 -0.13286
 N1101 N 0.30793 0.82495 -0.08512
 N1102 N 0.30148 0.80789 -0.08490
 C1103 C 0.29376 0.79914 -0.06913
 C1104 C 0.29345 0.77918 -0.06800
 C1105 C 0.28564 0.77011 -0.05299
 C1106 C 0.27744 0.78092 -0.03910
 C1107 C 0.27759 0.80097 -0.04029
 C1108 C 0.28595 0.81005 -0.05512
 H1109 H 0.34878 0.86580 -0.11560
 H1110 H 0.33504 0.85223 -0.08779
 H1111 H 0.29644 0.81677 -0.11879
 H1112 H 0.30956 0.83100 -0.14639
 H1113 H 0.29934 0.77065 -0.07878
 H1114 H 0.28551 0.75463 -0.05245
 H1115 H 0.27132 0.80958 -0.02974
 H1116 H 0.28590 0.82552 -0.05585
 C1117 C 0.80176 0.32615 -0.14125
 C1118 C 0.79333 0.31911 -0.12556
 C1119 C 0.80513 0.31158 -0.11199
 C1120 C 0.82560 0.31154 -0.11408
 C1121 C 0.83407 0.31883 -0.12966
 C1122 C 0.82224 0.32606 -0.14349
 N1123 N 0.79594 0.30386 -0.09638
 N1124 N 0.80535 0.29412 -0.08484
 C1125 C 0.79593 0.28642 -0.06932
 C1126 C 0.80592 0.27296 -0.05885
 C1127 C 0.79677 0.26458 -0.04407
 C1128 C 0.77753 0.26982 -0.03938
 C1129 C 0.76772 0.28369 -0.04968
 C1130 C 0.77678 0.29183 -0.06457
 H1131 H 0.79229 0.33141 -0.15175
 H1132 H 0.77753 0.31918 -0.12410
 H1133 H 0.83503 0.30590 -0.10371
 H1134 H 0.84988 0.31876 -0.13098
 H1135 H 0.82071 0.26870 -0.06236
 H1136 H 0.80471 0.25398 -0.03636
 H1137 H 0.75287 0.28798 -0.04643
 H1138 H 0.76879 0.30229 -0.07240
 C1139 C 0.83910 0.81271 0.37447
 C1140 C 0.83157 0.80312 0.38930
 C1141 C 0.82081 0.81298 0.40218
 C1142 C 0.81812 0.83282 0.40039
 C1143 C 0.82586 0.84252 0.38563
 C1144 C 0.83609 0.83253 0.37226
 N1145 N 0.81241 0.80239 0.41664
 N1146 N 0.80045 0.80982 0.42766
 C1147 C 0.79185 0.79887 0.44180
 C1148 C 0.77689 0.80707 0.45203
 C1149 C 0.76750 0.79641 0.46531
 C1150 C 0.77309 0.77736 0.46870
 C1151 C 0.78842 0.76930 0.45867
 C1152 C 0.79767 0.77992 0.44528
 H1153 H 0.84696 0.80448 0.36459
 H1154 H 0.83378 0.78783 0.39059
 H1155 H 0.81001 0.84079 0.41031
 H1156 H 0.82372 0.85783 0.38460
 H1157 H 0.77229 0.82165 0.44948
 H1158 H 0.75580 0.80306 0.47287
 H1159 H 0.79305 0.75467 0.46095
 H1160 H 0.80924 0.77327 0.43758
 C1161 C 0.68988 0.33161 0.63213
 C1162 C 0.69981 0.32432 0.61732
 C1163 C 0.68940 0.31638 0.60312
 C1164 C 0.66880 0.31614 0.60369
 C1165 C 0.65885 0.32362 0.61840
 C1166 C 0.66928 0.33129 0.63285
 N1167 N 0.70010 0.30837 0.58848
 N1168 N 0.69176 0.29892 0.57618
 C1169 C 0.70259 0.29074 0.56170
 C1170 C 0.69308 0.27824 0.55007
 C1171 C 0.70346 0.26932 0.53631
 C1172 C 0.72355 0.27298 0.53385
 C1173 C 0.73296 0.28591 0.54530
 C1174 C 0.72261 0.29465 0.55916
 H1175 H 0.69827 0.33725 0.64315
 H1176 H 0.71569 0.32455 0.61704
 H1177 H 0.66043 0.31016 0.59282
 H1178 H 0.64297 0.32335 0.61859
 H1179 H 0.67765 0.27514 0.55187
 H1180 H 0.69579 0.25948 0.52769
 H1181 H 0.74843 0.28900 0.54378
 H1182 H 0.73027 0.30432 0.56794
 C1183 C 0.66874 0.81033 1.14369
 C1184 C 0.67622 0.80136 1.12854
 C1185 C 0.68801 0.81143 1.11651
 C1186 C 0.69180 0.83088 1.11948
 C1187 C 0.68410 0.83998 1.13453
 C1188 C 0.67283 0.82971 1.14707
 N1189 N 0.69610 0.80141 1.10161
 N1190 N 0.70891 0.80868 1.09127
 C1191 C 0.71684 0.79809 1.07661
 C1192 C 0.73265 0.80560 1.06696
 C1193 C 0.74110 0.79518 1.05301
 C1194 C 0.73368 0.77712 1.04840
 C1195 C 0.71759 0.76979 1.05795
 C1196 C 0.70929 0.78012 1.07194
 H1197 H 0.66006 0.80193 1.15289
 H1198 H 0.67313 0.78637 1.12633
 H1199 H 0.70068 0.83902 1.11021
 H1200 H 0.68708 0.85502 1.13645
 H1201 H 0.73860 0.81943 1.07042
 H1202 H 0.75344 0.80123 1.04587
 H1203 H 0.71152 0.75592 1.05476
 H1204 H 0.69704 0.77401 1.07914
 C1205 C 0.18066 0.35174 1.11183
 C1206 C 0.18802 0.34496 1.09562
 C1207 C 0.18572 0.32577 1.09092
 C1208 C 0.17557 0.31344 1.10251
 C1209 C 0.16838 0.32013 1.11880
 C1210 C 0.17120 0.33930 1.12389
 N1211 N 0.19451 0.31896 1.07477
 N1212 N 0.19145 0.30211 1.06906
 C1213 C 0.20087 0.29466 1.05347
 C1214 C 0.19527 0.27668 1.04726
 C1215 C 0.20496 0.26833 1.03283
 C1216 C 0.22066 0.27779 1.02442
 C1217 C 0.22606 0.29605 1.03049
 C1218 C 0.21620 0.30446 1.04486
 H1219 H 0.18261 0.36668 1.11504
 H1220 H 0.19570 0.35466 1.08676
 H1221 H 0.17358 0.29853 1.09919
 H1222 H 0.16105 0.31010 1.12754
 H1223 H 0.18352 0.26896 1.05382
 H1224 H 0.20045 0.25425 1.02854
 H1225 H 0.23807 0.30370 1.02430
 H1226 H 0.22085 0.31837 1.04949
 C1227 C 0.14235 0.82314 0.62183
 C1228 C 0.15080 0.81536 0.60648
 C1229 C 0.17121 0.81441 0.60469
 C1230 C 0.18315 0.82123 0.61852
 C1231 C 0.17472 0.82876 0.63395
 C1232 C 0.15422 0.82986 0.63577
 N1233 N 0.17948 0.80613 0.58894
 N1234 N 0.19772 0.80726 0.58552
 C1235 C 0.20640 0.79856 0.57016
 C1236 C 0.22600 0.80255 0.56616
 C1237 C 0.23519 0.79385 0.55164
 C1238 C 0.22494 0.78076 0.54098
 C1239 C 0.20519 0.77684 0.54497
 C1240 C 0.19595 0.78574 0.55939
 H1241 H 0.12653 0.82392 0.62285
 H1242 H 0.14145 0.81013 0.59593
 H1243 H 0.19897 0.82048 0.61753
 H1244 H 0.18421 0.83355 0.64459
 H1245 H 0.23421 0.81236 0.57440
 H1246 H 0.25043 0.79710 0.54898
 H1247 H 0.19691 0.76684 0.53699
 H1248 H 0.18078 0.78238 0.56229
 C1249 C 0.34597 0.67602 0.62912
 C1250 C 0.34042 0.68424 0.61285
 C1251 C 0.32084 0.68379 0.60734
 C1252 C 0.30681 0.67486 0.61826
 C1253 C 0.31227 0.66688 0.63461
 C1254 C 0.33189 0.66757 0.64041
 N1255 N 0.31535 0.69304 0.59100
 N1256 N 0.29829 0.69101 0.58443
 C1257 C 0.29192 0.70081 0.56867
 C1258 C 0.27360 0.69627 0.56155
 C1259 C 0.26618 0.70644 0.54699
 C1260 C 0.27692 0.72156 0.53939
 C1261 C 0.29555 0.72586 0.54633
 C1262 C 0.30304 0.71552 0.56084
 H1263 H 0.36126 0.67638 0.63294
 H1264 H 0.35140 0.69101 0.60452
 H1265 H 0.29155 0.67438 0.61435
 H1266 H 0.30099 0.66048 0.64283
 H1267 H 0.26489 0.68501 0.56752
 H1268 H 0.25177 0.70279 0.54202
 H1269 H 0.30418 0.73741 0.54076
 H1270 H 0.31723 0.71933 0.56619
 C1271 C 0.34031 0.19880 1.12588
 C1272 C 0.33232 0.20740 1.11068
 C1273 C 0.32472 0.19620 1.09692
 C1274 C 0.32562 0.17618 1.09831
 C1275 C 0.33386 0.16755 1.11340
 C1276 C 0.34111 0.17876 1.12744
 N1277 N 0.31598 0.20550 1.08185
 N1278 N 0.30608 0.19644 1.07027
 C1279 C 0.29734 0.20589 1.05527
 C1280 C 0.28387 0.19595 1.04475
 C1281 C 0.27458 0.20503 1.03040
 C1282 C 0.27889 0.22417 1.02618
 C1283 C 0.29273 0.23399 1.03655
 C1284 C 0.30179 0.22498 1.05103
 H1285 H 0.34557 0.20778 1.13656
 H1286 H 0.33170 0.22284 1.10975
 H1287 H 0.31997 0.16722 1.08778
 H1288 H 0.33447 0.15210 1.11418
 H1289 H 0.28034 0.18122 1.04787
 H1290 H 0.26403 0.19708 1.02262
 H1291 H 0.29632 0.24876 1.03367
 H1292 H 0.31223 0.23294 1.05890
 C1293 C 0.83161 0.68730 1.15247
 C1294 C 0.82135 0.69471 1.13788
 C1295 C 0.82540 0.68821 1.12063
 C1296 C 0.83972 0.67397 1.11811
 C1297 C 0.84961 0.66617 1.13279
 C1298 C 0.84564 0.67287 1.15000
 N1299 N 0.81454 0.69602 1.10599
 N1300 N 0.82084 0.69535 1.09003
 C1301 C 0.80958 0.70290 1.07551
 C1302 C 0.81926 0.70941 1.06020
 C1303 C 0.80868 0.71783 1.04626
 C1304 C 0.78815 0.71921 1.04721
 C1305 C 0.77838 0.71198 1.06227
 C1306 C 0.78903 0.70411 1.07644
 H1307 H 0.82838 0.69245 1.16574
 H1308 H 0.81031 0.70563 1.13998
 H1309 H 0.84296 0.66864 1.10490
 H1310 H 0.86038 0.65498 1.13079
 H1311 H 0.83509 0.70847 1.05931
 H1312 H 0.81651 0.72327 1.03474
 H1313 H 0.76256 0.71299 1.06332
 H1314 H 0.78125 0.69898 1.08810
 C1315 C 0.83131 0.14368 0.61926
 C1316 C 0.82589 0.15185 0.60293
 C1317 C 0.81205 0.16667 0.60238
 C1318 C 0.80394 0.17353 0.61837
 C1319 C 0.80983 0.16579 0.63469
 C1320 C 0.82341 0.15074 0.63519
 N1321 N 0.80673 0.17495 0.58559
 N1322 N 0.79000 0.18265 0.58335
 C1323 C 0.78462 0.19203 0.56711
 C1324 C 0.76475 0.19376 0.56287
 C1325 C 0.75892 0.20368 0.54758
 C1326 C 0.77292 0.21258 0.53661
 C1327 C 0.79290 0.21090 0.54088
 C1328 C 0.79875 0.20044 0.55592
 H1329 H 0.84194 0.13216 0.61957
 H1330 H 0.83231 0.14652 0.59071
 H1331 H 0.79342 0.18515 0.61823
 H1332 H 0.80380 0.17141 0.64696
 H1333 H 0.75375 0.18745 0.57148
 H1334 H 0.74342 0.20496 0.54466
 H1335 H 0.80393 0.21769 0.53263
 H1336 H 0.81419 0.19943 0.55913
 C1337 C 0.67199 0.64506 0.38232
 C1338 C 0.68039 0.65258 0.39778
 C1339 C 0.68093 0.67236 0.40047
 C1340 C 0.67316 0.68463 0.38737
 C1341 C 0.66504 0.67715 0.37182
 C1342 C 0.66423 0.65727 0.36915
 N1343 N 0.68973 0.67968 0.41637
 N1344 N 0.68790 0.69712 0.42088
 C1345 C 0.69717 0.70480 0.43639
 C1346 C 0.69231 0.72334 0.44182
 C1347 C 0.70160 0.73157 0.45650
 C1348 C 0.71617 0.72143 0.46586
 C1349 C 0.72093 0.70275 0.46046
 C1350 C 0.71143 0.69445 0.44591
 H1351 H 0.67147 0.62970 0.38066
 H1352 H 0.68638 0.64297 0.40774
 H1353 H 0.67360 0.69999 0.38905
 H1354 H 0.65949 0.68692 0.36178
 H1355 H 0.68138 0.73148 0.43456
 H1356 H 0.69768 0.74601 0.46027
 H1357 H 0.73206 0.69457 0.46743
 H1358 H 0.71549 0.68012 0.44192
 C1359 C 0.66339 0.18676 -0.13626
 C1360 C 0.67087 0.19572 -0.12114
 C1361 C 0.67784 0.18486 -0.10679
 C1362 C 0.67705 0.16480 -0.10761
 C1363 C 0.66932 0.15581 -0.12265
 C1364 C 0.66247 0.16670 -0.13717
 N1365 N 0.68580 0.19457 -0.09170
 N1366 N 0.69481 0.18579 -0.07926
 C1367 C 0.70285 0.19575 -0.06433
 C1368 C 0.71598 0.18618 -0.05308
 C1369 C 0.72504 0.19586 -0.03908
 C1370 C 0.72081 0.21525 -0.03593
 C1371 C 0.70709 0.22465 -0.04688
 C1372 C 0.69828 0.21502 -0.06104
 H1373 H 0.65840 0.19547 -0.14733
 H1374 H 0.67146 0.21118 -0.12068
 H1375 H 0.68229 0.15610 -0.09663
 H1376 H 0.66862 0.14035 -0.12298
 H1377 H 0.71956 0.17131 -0.05545
 H1378 H 0.73548 0.18823 -0.03081
 H1379 H 0.70359 0.23959 -0.04481
 H1380 H 0.68807 0.22269 -0.06950
 C1381 C 0.17024 0.65198 -0.11642
 C1382 C 0.17838 0.65971 -0.10098
 C1383 C 0.17880 0.67951 -0.09851
 C1384 C 0.17082 0.69160 -0.11166
 C1385 C 0.16290 0.68389 -0.12723
 C1386 C 0.16264 0.66399 -0.12982
 N1387 N 0.18818 0.68700 -0.08299
 N1388 N 0.18714 0.70460 -0.07886
 C1389 C 0.19736 0.71224 -0.06384
 C1390 C 0.19361 0.73108 -0.05867
 C1391 C 0.20409 0.73930 -0.04467
 C1392 C 0.21877 0.72882 -0.03578
 C1393 C 0.22236 0.70980 -0.04086
 C1394 C 0.21168 0.70153 -0.05471
 H1395 H 0.17009 0.63661 -0.11805
 H1396 H 0.18451 0.65026 -0.09096
 H1397 H 0.17113 0.70698 -0.11012
 H1398 H 0.15737 0.69347 -0.13743
 H1399 H 0.18266 0.73949 -0.06565
 H1400 H 0.20106 0.75401 -0.04112
 H1401 H 0.23354 0.70137 -0.03424
 H1402 H 0.21491 0.68695 -0.05853
 C1403 C 0.18376 0.16455 0.36868
 C1404 C 0.19018 0.17167 0.38503
 C1405 C 0.19037 0.19137 0.38818
 C1406 C 0.18395 0.20397 0.37474
 C1407 C 0.17778 0.19687 0.35828
 C1408 C 0.17769 0.17708 0.35503
 N1409 N 0.19793 0.19821 0.40477
 N1410 N 0.19616 0.21556 0.40957
 C1411 C 0.20465 0.22250 0.42576
 C1412 C 0.19994 0.24094 0.43155
 C1413 C 0.20882 0.24851 0.44676
 C1414 C 0.22286 0.23780 0.45625
 C1415 C 0.22736 0.21918 0.45054
 C1416 C 0.21826 0.21154 0.43549
 H1417 H 0.18368 0.14924 0.36660
 H1418 H 0.19512 0.16182 0.39526
 H1419 H 0.18413 0.21928 0.37681
 H1420 H 0.17341 0.20686 0.34795
 H1421 H 0.18952 0.24955 0.42414
 H1422 H 0.20513 0.26293 0.45077
 H1423 H 0.23808 0.21058 0.45760
 H1424 H 0.22222 0.19727 0.43123
 C1425 C 0.34108 0.38826 0.65305
 C1426 C 0.33302 0.40377 0.66225
 C1427 C 0.31947 0.40070 0.67601
 C1428 C 0.31442 0.38190 0.68083
 C1429 C 0.32291 0.36642 0.67200
 C1430 C 0.33611 0.36954 0.65796
 N1431 N 0.31111 0.41674 0.68504
 N1432 N 0.29444 0.41558 0.69261
 C1433 C 0.28611 0.43116 0.70232
 C1434 C 0.26576 0.43200 0.70448
 C1435 C 0.25716 0.44692 0.71404
 C1436 C 0.26892 0.46088 0.72210
 C1437 C 0.28938 0.45987 0.72019
 C1438 C 0.29793 0.44524 0.71015
 H1439 H 0.35133 0.39077 0.64227
 H1440 H 0.33706 0.41820 0.65848
 H1441 H 0.30414 0.37922 0.69156
 H1442 H 0.31907 0.35198 0.67589
 H1443 H 0.25654 0.42114 0.69859
 H1444 H 0.24136 0.44735 0.71546
 H1445 H 0.29870 0.47051 0.72630
 H1446 H 0.31373 0.44470 0.70877
 C1447 C 0.32212 0.85589 0.17665
 C1448 C 0.31365 0.87149 0.18536
 C1449 C 0.31954 0.89014 0.18118
 C1450 C 0.33386 0.89309 0.16795
 C1451 C 0.34193 0.87749 0.15888
 C1452 C 0.33613 0.85884 0.16325
 N1453 N 0.31041 0.90581 0.19020
 N1454 N 0.31849 0.92213 0.19136
 C1455 C 0.30882 0.93780 0.19992
 C1456 C 0.32005 0.95258 0.20716
 C1457 C 0.31094 0.96776 0.21602
 C1458 C 0.29039 0.96867 0.21721
 C1459 C 0.27913 0.95410 0.20950
 C1460 C 0.28828 0.93865 0.20112
 H1461 H 0.31751 0.84153 0.18004
 H1462 H 0.30258 0.86906 0.19548
 H1463 H 0.33848 0.90741 0.16441
 H1464 H 0.35272 0.87987 0.14851
 H1465 H 0.33589 0.95212 0.20625
 H1466 H 0.31991 0.97890 0.22179
 H1467 H 0.26327 0.95447 0.21031
 H1468 H 0.27932 0.92746 0.19545
 C1469 C 0.82708 0.37655 0.14633
 C1470 C 0.81919 0.39288 0.15434
 C1471 C 0.81878 0.39453 0.17291
 C1472 C 0.82629 0.37955 0.18346
 C1473 C 0.83389 0.36311 0.17548
 C1474 C 0.83439 0.36141 0.15682
 N1475 N 0.81036 0.41128 0.18080
 N1476 N 0.81249 0.41487 0.19730
 C1477 C 0.80374 0.43112 0.20573
 C1478 C 0.80939 0.43555 0.22312
 C1479 C 0.80076 0.45085 0.23209
 C1480 C 0.78601 0.46188 0.22388
 C1481 C 0.78037 0.45746 0.20636
 C1482 C 0.78926 0.44226 0.19728
 H1483 H 0.82741 0.37566 0.13193
 H1484 H 0.81345 0.40430 0.14606
 H1485 H 0.82597 0.38040 0.19786
 H1486 H 0.83915 0.35157 0.18389
 H1487 H 0.82048 0.42702 0.22978
 H1488 H 0.80536 0.45380 0.24561
 H1489 H 0.76906 0.46570 0.19970
 H1490 H 0.78459 0.43900 0.18385
 C1491 C 0.83262 0.87295 0.66251
 C1492 C 0.82493 0.88873 0.67156
 C1493 C 0.81168 0.88610 0.68564
 C1494 C 0.80658 0.86745 0.69092
 C1495 C 0.81473 0.85168 0.68222
 C1496 C 0.82761 0.85437 0.66787
 N1497 N 0.80364 0.90246 0.69445
 N1498 N 0.78720 0.90165 0.70245
 C1499 C 0.77917 0.91766 0.71178
 C1500 C 0.75887 0.91874 0.71423
 C1501 C 0.75054 0.93422 0.72321
 C1502 C 0.76252 0.94854 0.73042
 C1503 C 0.78294 0.94727 0.72829
 C1504 C 0.79122 0.93206 0.71880
 H1505 H 0.84263 0.87513 0.65147
 H1506 H 0.82901 0.90303 0.66741
 H1507 H 0.79653 0.86510 0.70188
 H1508 H 0.81085 0.83737 0.68646
 H1509 H 0.74946 0.90767 0.70896
 H1510 H 0.73476 0.93484 0.72482
 H1511 H 0.79243 0.95817 0.73373
 H1512 H 0.80698 0.93135 0.71718
 C1513 C 0.67948 0.64028 0.66635
 C1514 C 0.68880 0.62454 0.67417
 C1515 C 0.67778 0.60972 0.68170
 C1516 C 0.65720 0.61057 0.68095
 C1517 C 0.64786 0.62619 0.67291
 C1518 C 0.65889 0.64132 0.66568
 N1519 N 0.68783 0.59419 0.69025
 N1520 N 0.67885 0.58176 0.69962
 C1521 C 0.68893 0.56634 0.70830
 C1522 C 0.67874 0.55511 0.72069
 C1523 C 0.68832 0.54041 0.72991
 C1524 C 0.70825 0.53652 0.72668
 C1525 C 0.71835 0.54756 0.71395
 C1526 C 0.70881 0.56243 0.70491
 H1527 H 0.68833 0.65181 0.66105
 H1528 H 0.70466 0.62406 0.67468
 H1529 H 0.64837 0.59920 0.68658
 H1530 H 0.63200 0.62655 0.67241
 H1531 H 0.66341 0.55797 0.72339
 H1532 H 0.68012 0.53211 0.73958
 H1533 H 0.73371 0.54493 0.71120
 H1534 H 0.71697 0.57087 0.69533
 C1535 C 0.65358 0.11781 0.16867
 C1536 C 0.66153 0.10220 0.17785
 C1537 C 0.68187 0.09991 0.17912
 C1538 C 0.69425 0.11337 0.17092
 C1539 C 0.68632 0.12911 0.16192
 C1540 C 0.66589 0.13157 0.16080
 N1541 N 0.68957 0.08429 0.18936
 N1542 N 0.70778 0.08027 0.18949
 C1543 C 0.71572 0.06523 0.20031
 C1544 C 0.73537 0.06004 0.19803
 C1545 C 0.74384 0.04596 0.20884
 C1546 C 0.73279 0.03701 0.22232
 C1547 C 0.71300 0.04217 0.22453
 C1548 C 0.70449 0.05610 0.21355
 H1549 H 0.63780 0.11934 0.16789
 H1550 H 0.65184 0.09193 0.18412
 H1551 H 0.71004 0.11198 0.17182
 H1552 H 0.69612 0.13962 0.15616
 H1553 H 0.74419 0.06703 0.18792
 H1554 H 0.75914 0.04236 0.20686
 H1555 H 0.70411 0.03550 0.23478
 H1556 H 0.68927 0.05996 0.21562
 C1557 C 0.15249 0.63105 0.16657
 C1558 C 0.15998 0.61406 0.17369
 C1559 C 0.18024 0.61108 0.17468
 C1560 C 0.19302 0.62521 0.16815
 C1561 C 0.18554 0.64231 0.16118
 C1562 C 0.16519 0.64549 0.16051
 N1563 N 0.18739 0.59413 0.18327
 N1564 N 0.20548 0.58960 0.18335
 C1565 C 0.21257 0.57318 0.19286
 C1566 C 0.23216 0.56763 0.19078
 C1567 C 0.23979 0.55233 0.20065
 C1568 C 0.22794 0.54250 0.21300
 C1569 C 0.20820 0.54796 0.21490
 C1570 C 0.20054 0.56310 0.20486
 H1571 H 0.13675 0.63311 0.16607
 H1572 H 0.14999 0.60329 0.17870
 H1573 H 0.20876 0.62328 0.16889
 H1574 H 0.19563 0.65328 0.15678
 H1575 H 0.24160 0.57534 0.18163
 H1576 H 0.25508 0.54851 0.19895
 H1577 H 0.19870 0.54063 0.22426
 H1578 H 0.18536 0.56717 0.20677
 C1579 C 0.18705 0.14387 0.65057
 C1580 C 0.19643 0.12769 0.65753
 C1581 C 0.18545 0.11228 0.66403
 C1582 C 0.16489 0.11288 0.66284
 C1583 C 0.15551 0.12893 0.65567
 C1584 C 0.16647 0.14475 0.64978
 N1585 N 0.19541 0.09659 0.67241
 N1586 N 0.18620 0.08389 0.68124
 C1587 C 0.19602 0.06839 0.69003
 C1588 C 0.18536 0.05682 0.70179
 C1589 C 0.19468 0.04220 0.71132
 C1590 C 0.21484 0.03874 0.70902
 C1591 C 0.22543 0.05009 0.69686
 C1592 C 0.21613 0.06487 0.68751
 H1593 H 0.19581 0.15593 0.64628
 H1594 H 0.21228 0.12739 0.65839
 H1595 H 0.15608 0.10108 0.66764
 H1596 H 0.13965 0.12920 0.65504
 H1597 H 0.16985 0.05940 0.70383
 H1598 H 0.18612 0.03365 0.72053
 H1599 H 0.24098 0.04779 0.69483
 H1600 H 0.22466 0.07360 0.67844
 C1601 C 0.30432 0.64428 0.33526
 C1602 C 0.29494 0.62939 0.32630
 C1603 C 0.30593 0.61539 0.31747
 C1604 C 0.32651 0.61643 0.31771
 C1605 C 0.33589 0.63121 0.32677
 C1606 C 0.32490 0.64523 0.33575
 N1607 N 0.29591 0.60031 0.30841
 N1608 N 0.30504 0.58818 0.29888
 C1609 C 0.29524 0.57295 0.28985
 C1610 C 0.30594 0.56163 0.27796
 C1611 C 0.29681 0.54684 0.26869
 C1612 C 0.27679 0.54298 0.27134
 C1613 C 0.26612 0.55420 0.28349
 C1614 C 0.27524 0.56913 0.29262
 H1615 H 0.29553 0.65511 0.34177
 H1616 H 0.27907 0.62881 0.32614
 H1617 H 0.33534 0.60577 0.31100
 H1618 H 0.35174 0.63159 0.32693
 H1619 H 0.32137 0.56441 0.27576
 H1620 H 0.30545 0.53842 0.25947
 H1621 H 0.25067 0.55160 0.28578
 H1622 H 0.26668 0.57765 0.30181
 C1623 C 0.33711 0.11170 0.83643
 C1624 C 0.32878 0.09634 0.82729
 C1625 C 0.31549 0.09966 0.81339
 C1626 C 0.31085 0.11856 0.80848
 C1627 C 0.31961 0.13388 0.81727
 C1628 C 0.33268 0.13052 0.83134
 N1629 N 0.30717 0.08375 0.80418
 N1630 N 0.29092 0.08523 0.79597
 C1631 C 0.28278 0.06974 0.78606
 C1632 C 0.26253 0.06925 0.78320
 C1633 C 0.25415 0.05437 0.77348
 C1634 C 0.26605 0.04011 0.76595
 C1635 C 0.28643 0.04079 0.76852
 C1636 C 0.29474 0.05537 0.77873
 H1637 H 0.34727 0.10900 0.84723
 H1638 H 0.33252 0.08184 0.83114
 H1639 H 0.30078 0.12143 0.79765
 H1640 H 0.31620 0.14839 0.81322
 H1641 H 0.25321 0.08032 0.78869
 H1642 H 0.23841 0.05420 0.77156
 H1643 H 0.29586 0.02991 0.76285
 H1644 H 0.31047 0.05564 0.78063
 C1645 C 0.79820 0.63721 0.84321
 C1646 C 0.78769 0.62212 0.83564
 C1647 C 0.79749 0.60759 0.82639
 C1648 C 0.81804 0.60812 0.82511
 C1649 C 0.82855 0.62307 0.83279
 C1650 C 0.81877 0.63785 0.84186
 N1651 N 0.78635 0.59273 0.81808
 N1652 N 0.79442 0.58068 0.80771
 C1653 C 0.78380 0.56573 0.79905
 C1654 C 0.79350 0.55471 0.78626
 C1655 C 0.78360 0.54029 0.77717
 C1656 C 0.76378 0.53646 0.78089
 C1657 C 0.75411 0.54735 0.79397
 C1658 C 0.76401 0.56196 0.80293
 H1659 H 0.79026 0.64858 0.84982
 H1660 H 0.77185 0.62194 0.83667
 H1661 H 0.82600 0.59703 0.81811
 H1662 H 0.84436 0.62314 0.83157
 H1663 H 0.80876 0.55747 0.78318
 H1664 H 0.79149 0.53211 0.76723
 H1665 H 0.73884 0.54475 0.79711
 H1666 H 0.75623 0.57027 0.81283
 C1667 C 0.85125 0.12568 0.34030
 C1668 C 0.84467 0.10905 0.33194
 C1669 C 0.83119 0.11022 0.31791
 C1670 C 0.82493 0.12827 0.31181
 C1671 C 0.83197 0.14488 0.31982
 C1672 C 0.84488 0.14365 0.33429
 N1673 N 0.82371 0.09300 0.31025
 N1674 N 0.80689 0.09265 0.30294
 C1675 C 0.79908 0.07580 0.29491
 C1676 C 0.77876 0.07421 0.29305
 C1677 C 0.77057 0.05798 0.28531
 C1678 C 0.78267 0.04332 0.27876
 C1679 C 0.80312 0.04505 0.28033
 C1680 C 0.81128 0.06108 0.28859
 H1681 H 0.86127 0.12462 0.35145
 H1682 H 0.84962 0.09523 0.33672
 H1683 H 0.81467 0.12948 0.30087
 H1684 H 0.82701 0.15872 0.31510
 H1685 H 0.76923 0.08552 0.29781
 H1686 H 0.75477 0.05705 0.28409
 H1687 H 0.81272 0.03392 0.27535
 H1688 H 0.82706 0.06215 0.28977
 C1689 C 0.67998 0.37791 0.35187
 C1690 C 0.68986 0.39349 0.34437
 C1691 C 0.69218 0.39492 0.32588
 C1692 C 0.68466 0.38043 0.31492
 C1693 C 0.67505 0.36472 0.32241
 C1694 C 0.67254 0.36330 0.34097
 N1695 N 0.70226 0.41107 0.31850
 N1696 N 0.70185 0.41462 0.30186
 C1697 C 0.71198 0.43039 0.29393
 C1698 C 0.70780 0.43511 0.27623
 C1699 C 0.71739 0.45029 0.26789
 C1700 C 0.73166 0.46088 0.27705
 C1701 C 0.73602 0.45603 0.29482
 C1702 C 0.72613 0.44096 0.30327
 H1703 H 0.67814 0.37721 0.36619
 H1704 H 0.69557 0.40455 0.35296
 H1705 H 0.68641 0.38112 0.30058
 H1706 H 0.66972 0.35355 0.31373
 H1707 H 0.69699 0.42701 0.26890
 H1708 H 0.71381 0.45358 0.25415
 H1709 H 0.74695 0.46394 0.30219
 H1710 H 0.72967 0.43745 0.31696
 C1711 C 0.68335 0.85156 0.85159
 C1712 C 0.69277 0.86656 0.84268
 C1713 C 0.68186 0.88136 0.83490
 C1714 C 0.66132 0.88117 0.83637
 C1715 C 0.65191 0.86632 0.84545
 C1716 C 0.66279 0.85132 0.85317
 N1717 N 0.69188 0.89626 0.82541
 N1718 N 0.68269 0.90851 0.81598
 C1719 C 0.69252 0.92347 0.80644
 C1720 C 0.68190 0.93438 0.79410
 C1721 C 0.69115 0.94871 0.78414
 C1722 C 0.71119 0.95255 0.78659
 C1723 C 0.72174 0.94182 0.79927
 C1724 C 0.71253 0.92731 0.80904
 H1725 H 0.69208 0.84000 0.85705
 H1726 H 0.70861 0.86649 0.84156
 H1727 H 0.65255 0.89249 0.83053
 H1728 H 0.63608 0.86658 0.84644
 H1729 H 0.66646 0.93158 0.79201
 H1730 H 0.68261 0.95677 0.77453
 H1731 H 0.73721 0.94440 0.80142
 H1732 H 0.72102 0.91912 0.81857
 C1733 C 0.15890 0.35521 0.80923
 C1734 C 0.16756 0.37070 0.80051
 C1735 C 0.17520 0.38594 0.81025
 C1736 C 0.17405 0.38560 0.82896
 C1737 C 0.16511 0.37021 0.83772
 C1738 C 0.15742 0.35486 0.82793
 N1739 N 0.18372 0.40163 0.80074
 N1740 N 0.19355 0.41469 0.80837
 C1741 C 0.20162 0.43034 0.79845
 C1742 C 0.21582 0.44194 0.80637
 C1743 C 0.22439 0.45692 0.79674
 C1744 C 0.21858 0.46073 0.77910
 C1745 C 0.20400 0.44933 0.77132
 C1746 C 0.19569 0.43419 0.78086
 H1747 H 0.15328 0.34349 0.80138
 H1748 H 0.16839 0.37080 0.78609
 H1749 H 0.17978 0.39732 0.83675
 H1750 H 0.16399 0.37034 0.85212
 H1751 H 0.22047 0.43916 0.81994
 H1752 H 0.23554 0.46553 0.80309
 H1753 H 0.19926 0.45188 0.75774
 H1754 H 0.18463 0.42550 0.77448
 C1755 C 0.20019 0.86615 0.32442
 C1756 C 0.20995 0.88020 0.31456
 C1757 C 0.20604 0.89958 0.31759
 C1758 C 0.19267 0.90482 0.33101
 C1759 C 0.18338 0.89076 0.34125
 C1760 C 0.18694 0.87137 0.33785
 N1761 N 0.21584 0.91364 0.30696
 N1762 N 0.20852 0.93016 0.30432
 C1763 C 0.21857 0.94432 0.29398
 C1764 C 0.20769 0.95867 0.28546
 C1765 C 0.21708 0.97234 0.27484
 C1766 C 0.23759 0.97219 0.27312
 C1767 C 0.24854 0.95810 0.28206
 C1768 C 0.23908 0.94409 0.29223
 H1769 H 0.20303 0.85119 0.32174
 H1770 H 0.22026 0.87601 0.30430
 H1771 H 0.18962 0.91974 0.33366
 H1772 H 0.17317 0.89489 0.35161
 H1773 H 0.19188 0.95902 0.28678
 H1774 H 0.20837 0.98316 0.26815
 H1775 H 0.26437 0.95771 0.28088
 H1776 H 0.24776 0.93320 0.29885
 C1777 C 0.37628 0.35463 0.66470
 C1778 C 0.39154 0.34553 0.67379
 C1779 C 0.39190 0.32562 0.67542
 C1780 C 0.37675 0.31479 0.66780
 C1781 C 0.36134 0.32391 0.65886
 C1782 C 0.36097 0.34394 0.65716
 N1783 N 0.40753 0.31684 0.68525
 N1784 N 0.41006 0.29882 0.68565
 C1785 C 0.42546 0.29014 0.69583
 C1786 C 0.42945 0.27069 0.69350
 C1787 C 0.44439 0.26179 0.70321
 C1788 C 0.45543 0.27219 0.71567
 C1789 C 0.45127 0.29169 0.71813
 C1790 C 0.43649 0.30064 0.70821
 H1791 H 0.37637 0.37006 0.66363
 H1792 H 0.40311 0.35402 0.67964
 H1793 H 0.37663 0.29937 0.66905
 H1794 H 0.34950 0.31536 0.65355
 H1795 H 0.42101 0.26244 0.68405
 H1796 H 0.44719 0.24672 0.70109
 H1797 H 0.45954 0.30007 0.72760
 H1798 H 0.43359 0.31569 0.71032
 C1799 C 0.35886 0.81167 0.16257
 C1800 C 0.37367 0.80110 0.17094
 C1801 C 0.38913 0.81038 0.17953
 C1802 C 0.38970 0.83047 0.17958
 C1803 C 0.37503 0.84105 0.17107
 C1804 C 0.35950 0.83177 0.16238
 N1805 N 0.40397 0.79916 0.18815
 N1806 N 0.41703 0.80675 0.19793
 C1807 C 0.43199 0.79574 0.20657
 C1808 C 0.44389 0.80466 0.21920
 C1809 C 0.45834 0.79428 0.22823
 C1810 C 0.46131 0.77478 0.22457
 C1811 C 0.44958 0.76592 0.21163
 C1812 C 0.43494 0.77628 0.20277
 H1813 H 0.34683 0.80418 0.15634
 H1814 H 0.37300 0.78563 0.17090
 H1815 H 0.40152 0.83799 0.18611
 H1816 H 0.37586 0.85650 0.17115
 H1817 H 0.44179 0.81966 0.22220
 H1818 H 0.46720 0.80153 0.23806
 H1819 H 0.45150 0.75091 0.20856
 H1820 H 0.42596 0.76910 0.19298
 C1821 C 0.85890 0.31426 0.15740
 C1822 C 0.87487 0.30479 0.16512
 C1823 C 0.89065 0.31517 0.17195
 C1824 C 0.89051 0.33524 0.17060
 C1825 C 0.87468 0.34470 0.16266
 C1826 C 0.85859 0.33434 0.15614
 N1827 N 0.90637 0.30510 0.18053
 N1828 N 0.91948 0.31381 0.18938
 C1829 C 0.93517 0.30401 0.19824
 C1830 C 0.94682 0.31422 0.21017
 C1831 C 0.96176 0.30505 0.21964
 C1832 C 0.96553 0.28547 0.21710
 C1833 C 0.95412 0.27530 0.20477
 C1834 C 0.93894 0.28446 0.19550
 H1835 H 0.84663 0.30593 0.15263
 H1836 H 0.87477 0.28934 0.16611
 H1837 H 0.90261 0.34358 0.17568
 H1838 H 0.87490 0.36015 0.16169
 H1839 H 0.94408 0.32929 0.21236
 H1840 H 0.97038 0.31330 0.22895
 H1841 H 0.95669 0.26020 0.20257
 H1842 H 0.93015 0.27630 0.18626
 C1843 C 0.86750 0.83893 0.67462
 C1844 C 0.88323 0.82962 0.68282
 C1845 C 0.88416 0.80966 0.68325
 C1846 C 0.86903 0.79898 0.67544
 C1847 C 0.85314 0.80829 0.66739
 C1848 C 0.85227 0.82839 0.66678
 N1849 N 0.90036 0.80070 0.69210
 N1850 N 0.90350 0.78277 0.69155
 C1851 C 0.91958 0.77421 0.70096
 C1852 C 0.92395 0.75487 0.69826
 C1853 C 0.93942 0.74614 0.70748
 C1854 C 0.95060 0.75663 0.71975
 C1855 C 0.94616 0.77605 0.72242
 C1856 C 0.93087 0.78478 0.71307
 H1857 H 0.86725 0.85440 0.67439
 H1858 H 0.89477 0.83799 0.68886
 H1859 H 0.86934 0.78351 0.67580
 H1860 H 0.84141 0.79982 0.66181
 H1861 H 0.91534 0.74656 0.68899
 H1862 H 0.94245 0.73114 0.70519
 H1863 H 0.95452 0.78454 0.73174
 H1864 H 0.92775 0.79974 0.71545
 C1865 C 0.63163 0.35032 0.33207
 C1866 C 0.61567 0.34227 0.32317
 C1867 C 0.61358 0.32240 0.32225
 C1868 C 0.62774 0.31058 0.33031
 C1869 C 0.64384 0.31861 0.33900
 C1870 C 0.64598 0.33858 0.33998
 N1871 N 0.59726 0.31460 0.31273
 N1872 N 0.59304 0.29689 0.31339
 C1873 C 0.57712 0.28892 0.30345
 C1874 C 0.57155 0.27000 0.30676
 C1875 C 0.55639 0.26163 0.29701
 C1876 C 0.54672 0.27203 0.28354
 C1877 C 0.55233 0.29106 0.28025
 C1878 C 0.56733 0.29948 0.29018
 H1879 H 0.63284 0.36573 0.33274
 H1880 H 0.60487 0.35154 0.31700
 H1881 H 0.62654 0.29517 0.32965
 H1882 H 0.65479 0.30923 0.34478
 H1883 H 0.57903 0.26170 0.31691
 H1884 H 0.55247 0.24693 0.29980
 H1885 H 0.54513 0.29944 0.26999
 H1886 H 0.57144 0.31412 0.28732
 C1887 C 0.61697 0.83361 0.85931
 C1888 C 0.60024 0.82644 0.85094
 C1889 C 0.60204 0.81304 0.83720
 C1890 C 0.62080 0.80722 0.83159
 C1891 C 0.63751 0.81485 0.83958
 C1892 C 0.63566 0.82794 0.85357
 N1893 N 0.58476 0.80589 0.82878
 N1894 N 0.58457 0.78956 0.82137
 C1895 C 0.56775 0.78267 0.81204
 C1896 C 0.56534 0.76296 0.80989
 C1897 C 0.54937 0.75586 0.80033
 C1898 C 0.53596 0.76848 0.79229
 C1899 C 0.53847 0.78827 0.79434
 C1900 C 0.55411 0.79533 0.80436
 H1901 H 0.61544 0.84378 0.87008
 H1902 H 0.58587 0.83110 0.85529
 H1903 H 0.62249 0.79706 0.82084
 H1904 H 0.65191 0.81045 0.83506
 H1905 H 0.57584 0.75309 0.81566
 H1906 H 0.54781 0.74055 0.79878
 H1907 H 0.52829 0.79825 0.78824
 H1908 H 0.55586 0.81064 0.80572
 C1909 C 0.11573 0.34296 0.82190
 C1910 C 0.09974 0.33525 0.81283
 C1911 C 0.09801 0.31545 0.81080
 C1912 C 0.11236 0.30335 0.81823
 C1913 C 0.12846 0.31107 0.82715
 C1914 C 0.13040 0.33097 0.82892
 N1915 N 0.08197 0.30807 0.80065
 N1916 N 0.07865 0.29022 0.79954
 C1917 C 0.06302 0.28271 0.78897
 C1918 C 0.05841 0.26331 0.79054
 C1919 C 0.04336 0.25544 0.78036
 C1920 C 0.03281 0.26683 0.76819
 C1921 C 0.03759 0.28629 0.76649
 C1922 C 0.05251 0.29421 0.77688
 H1923 H 0.11688 0.35834 0.82317
 H1924 H 0.08877 0.34471 0.80719
 H1925 H 0.11139 0.28799 0.81677
 H1926 H 0.13970 0.30156 0.83227
 H1927 H 0.06647 0.25430 0.79975
 H1928 H 0.04009 0.24038 0.78192
 H1929 H 0.02969 0.29541 0.75725
 H1930 H 0.05592 0.30924 0.77536
 C1931 C 0.14568 0.85975 0.33124
 C1932 C 0.12917 0.85151 0.32343
 C1933 C 0.12615 0.83177 0.32445
 C1934 C 0.14002 0.82023 0.33326
 C1935 C 0.15667 0.82844 0.34091
 C1936 C 0.15959 0.84833 0.34015
 N1937 N 0.10910 0.82383 0.31621
 N1938 N 0.10413 0.80646 0.31842
 C1939 C 0.08728 0.79851 0.30983
 C1940 C 0.08126 0.78004 0.31447
 C1941 C 0.06509 0.77174 0.30612
 C1942 C 0.05479 0.78174 0.29278
 C1943 C 0.06084 0.80031 0.28816
 C1944 C 0.07689 0.80867 0.29667
 H1945 H 0.14750 0.87509 0.33039
 H1946 H 0.11863 0.86054 0.31662
 H1947 H 0.13811 0.80489 0.33404
 H1948 H 0.16738 0.81924 0.34729
 H1949 H 0.08917 0.77205 0.32457
 H1950 H 0.06085 0.75737 0.30992
 H1951 H 0.05320 0.80839 0.27796
 H1952 H 0.08130 0.82296 0.29281
 C1953 C 0.61667 0.67368 0.65654
 C1954 C 0.60064 0.68238 0.66489
 C1955 C 0.59957 0.68322 0.68349
 C1956 C 0.61481 0.67526 0.69373
 C1957 C 0.63099 0.66685 0.68541
 C1958 C 0.63213 0.66598 0.66671
 N1959 N 0.58319 0.69259 0.69168
 N1960 N 0.57970 0.69089 0.70828
 C1961 C 0.56384 0.70065 0.71688
 C1962 C 0.55867 0.69521 0.73420
 C1963 C 0.54361 0.70468 0.74321
 C1964 C 0.53369 0.72008 0.73513
 C1965 C 0.53894 0.72561 0.71773
 C1966 C 0.55381 0.71586 0.70860
 H1967 H 0.61712 0.67309 0.64213
 H1968 H 0.58899 0.68847 0.65684
 H1969 H 0.61440 0.67588 0.70814
 H1970 H 0.64281 0.66130 0.69357
 H1971 H 0.56636 0.68357 0.74073
 H1972 H 0.54000 0.70018 0.75665
 H1973 H 0.53153 0.73741 0.71119
 H1974 H 0.55768 0.72040 0.69524
 C1975 C 0.62638 0.16647 0.15069
 C1976 C 0.61111 0.17647 0.15896
 C1977 C 0.61062 0.17831 0.17752
 C1978 C 0.62576 0.17020 0.18778
 C1979 C 0.64117 0.16048 0.17952
 C1980 C 0.64163 0.15843 0.16089
 N1981 N 0.59481 0.18859 0.18567
 N1982 N 0.59186 0.18791 0.20241
 C1983 C 0.57646 0.19839 0.21094
 C1984 C 0.57193 0.19417 0.22870
 C1985 C 0.55710 0.20418 0.23753
 C1986 C 0.54676 0.21887 0.22878
 C1987 C 0.55144 0.22323 0.21097
 C1988 C 0.56609 0.21297 0.20205
 H1989 H 0.62633 0.16499 0.13633
 H1990 H 0.59954 0.18266 0.15090
 H1991 H 0.62581 0.17159 0.20215
 H1992 H 0.65286 0.15468 0.18768
 H1993 H 0.57989 0.18302 0.23570
 H1994 H 0.55390 0.20057 0.25128
 H1995 H 0.54368 0.23445 0.20389
 H1996 H 0.56944 0.21655 0.18833
 C1997 C 0.12627 0.68198 0.15532
 C1998 C 0.11123 0.69096 0.16483
 C1999 C 0.11102 0.69039 0.18348
 C2000 C 0.12612 0.68076 0.19258
 C2001 C 0.14129 0.67200 0.18310
 C2002 C 0.14153 0.67252 0.16436
 N2003 N 0.09563 0.70003 0.19287
 N2004 N 0.09320 0.69800 0.20959
 C2005 C 0.07825 0.70807 0.21915
 C2006 C 0.07461 0.70315 0.23694
 C2007 C 0.06041 0.71297 0.24678
 C2008 C 0.04981 0.72812 0.23901
 C2009 C 0.05351 0.73305 0.22113
 C2010 C 0.06754 0.72304 0.21124
 H2011 H 0.12606 0.68245 0.14089
 H2012 H 0.09968 0.69835 0.15768
 H2013 H 0.12636 0.68025 0.20701
 H2014 H 0.15299 0.66500 0.19038
 H2015 H 0.08282 0.69168 0.24319
 H2016 H 0.05794 0.70890 0.26054
 H2017 H 0.04555 0.74462 0.21477
 H2018 H 0.07018 0.72716 0.19752
 C2019 C 0.14007 0.16800 0.67283
 C2020 C 0.12387 0.17424 0.68263
 C2021 C 0.10745 0.18182 0.67396
 C2022 C 0.10732 0.18299 0.65524
 C2023 C 0.12344 0.17651 0.64540
 C2024 C 0.14000 0.16897 0.65410
 N2025 N 0.09124 0.18833 0.68449
 N2026 N 0.07699 0.19766 0.67779
 C2027 C 0.06092 0.20429 0.68842
 C2028 C 0.04802 0.21779 0.68117
 C2029 C 0.03290 0.22544 0.69152
 C2030 C 0.03021 0.21941 0.70926
 C2031 C 0.04275 0.20534 0.71634
 C2032 C 0.05810 0.19794 0.70606
 H2033 H 0.15271 0.16243 0.67987
 H2034 H 0.12417 0.17334 0.69704
 H2035 H 0.09473 0.18874 0.64824
 H2036 H 0.12298 0.17724 0.63098
 H2037 H 0.05001 0.22274 0.66759
 H2038 H 0.02339 0.23618 0.68568
 H2039 H 0.04104 0.20048 0.72998
 H2040 H 0.06783 0.18740 0.71191
 C2041 C 0.34625 0.68495 0.32388
 C2042 C 0.36151 0.69451 0.31519
 C2043 C 0.38101 0.68908 0.31816
 C2044 C 0.38517 0.67428 0.33034
 C2045 C 0.36991 0.66511 0.33943
 C2046 C 0.35039 0.67028 0.33609
 N2047 N 0.39631 0.69880 0.30872
 N2048 N 0.41294 0.69104 0.30600
 C2049 C 0.42836 0.70089 0.29686
 C2050 C 0.44295 0.69025 0.28827
 C2051 C 0.45788 0.69946 0.27881
 C2052 C 0.45878 0.71952 0.27832
 C2053 C 0.44444 0.73021 0.28735
 C2054 C 0.42916 0.72097 0.29635
 H2055 H 0.33120 0.68905 0.32127
 H2056 H 0.35814 0.70592 0.30587
 H2057 H 0.40016 0.67000 0.33295
 H2058 H 0.37323 0.65382 0.34888
 H2059 H 0.44251 0.67477 0.28863
 H2060 H 0.46887 0.69093 0.27205
 H2061 H 0.44483 0.74569 0.28712
 H2062 H 0.41811 0.72945 0.30305
 C2063 C 0.37362 0.14324 0.82439
 C2064 C 0.38934 0.15131 0.81512
 C2065 C 0.39056 0.17112 0.81287
 C2066 C 0.37574 0.18287 0.81997
 C2067 C 0.35986 0.17479 0.82906
 C2068 C 0.35869 0.15488 0.83147
 N2069 N 0.40670 0.17890 0.80301
 N2070 N 0.41007 0.19677 0.80249
 C2071 C 0.42588 0.20474 0.79234
 C2072 C 0.43052 0.22401 0.79466
 C2073 C 0.44568 0.23237 0.78486
 C2074 C 0.45630 0.22162 0.77231
 C2075 C 0.45157 0.20225 0.76992
 C2076 C 0.43655 0.19382 0.77995
 H2077 H 0.37308 0.12787 0.82599
 H2078 H 0.40063 0.14211 0.80967
 H2079 H 0.37625 0.19823 0.81822
 H2080 H 0.34832 0.18404 0.83396
 H2081 H 0.42236 0.23258 0.80412
 H2082 H 0.44888 0.24736 0.78693
 H2083 H 0.45951 0.19361 0.76036
 H2084 H 0.43313 0.17889 0.77787
 C2085 C 0.84104 0.67382 0.82389
 C2086 C 0.85622 0.68205 0.81399
 C2087 C 0.87578 0.67765 0.81791
 C2088 C 0.88008 0.66508 0.83207
 C2089 C 0.86490 0.65728 0.84230
 C2090 C 0.84533 0.66157 0.83819
 N2091 N 0.89100 0.68650 0.80769
 N2092 N 0.90808 0.67927 0.80645
 C2093 C 0.92330 0.68869 0.79668
 C2094 C 0.93852 0.67784 0.78929
 C2095 C 0.95320 0.68670 0.77920
 C2096 C 0.95318 0.70664 0.77692
 C2097 C 0.93823 0.71757 0.78479
 C2098 C 0.92324 0.70864 0.79441
 H2099 H 0.82596 0.67727 0.82071
 H2100 H 0.85276 0.69178 0.80317
 H2101 H 0.89512 0.66166 0.83542
 H2102 H 0.86830 0.64787 0.85337
 H2103 H 0.93876 0.66246 0.79104
 H2104 H 0.96466 0.67801 0.77331
 H2105 H 0.93789 0.73296 0.78315
 H2106 H 0.91170 0.71730 0.80018
 C2107 C 0.86558 0.19235 0.33581
 C2108 C 0.88016 0.20340 0.32764
 C2109 C 0.89559 0.19462 0.31844
 C2110 C 0.89643 0.17456 0.31770
 C2111 C 0.88200 0.16351 0.32599
 C2112 C 0.86637 0.17225 0.33515
 N2113 N 0.91006 0.20628 0.30978
 N2114 N 0.92293 0.19902 0.29951
 C2115 C 0.93760 0.21018 0.29062
 C2116 C 0.94945 0.20125 0.27791
 C2117 C 0.96373 0.21161 0.26870
 C2118 C 0.96660 0.23114 0.27221
 C2119 C 0.95484 0.24007 0.28519
 C2120 C 0.94036 0.22969 0.29427
 H2121 H 0.85354 0.19952 0.34244
 H2122 H 0.87927 0.21885 0.32825
 H2123 H 0.90824 0.16740 0.31073
 H2124 H 0.88308 0.14810 0.32526
 H2125 H 0.94749 0.18622 0.27502
 H2126 H 0.97260 0.20428 0.25886
 H2127 H 0.95669 0.25509 0.28816
 H2128 H 0.93138 0.23687 0.30411
 C2129 C 0.31507 0.34940 0.62981
 C2130 C 0.30588 0.34185 0.61481
 C2131 C 0.31643 0.33077 0.60266
 C2132 C 0.33656 0.32768 0.60541
 C2133 C 0.34587 0.33542 0.62035
 C2134 C 0.33517 0.34609 0.63296
 N2135 N 0.30620 0.32271 0.58784
 N2136 N 0.31406 0.31080 0.57721
 C2137 C 0.30333 0.30282 0.56262
 C2138 C 0.31186 0.28818 0.55255
 C2139 C 0.30145 0.27970 0.53861
 C2140 C 0.28235 0.28588 0.53443
 C2141 C 0.27395 0.30078 0.54441
 C2142 C 0.28430 0.30913 0.55841
 H2143 H 0.30627 0.35759 0.63905
 H2144 H 0.29036 0.34438 0.61278
 H2145 H 0.34507 0.31932 0.59606
 H2146 H 0.36144 0.33302 0.62207
 H2147 H 0.32651 0.28320 0.55565
 H2148 H 0.30836 0.26830 0.53113
 H2149 H 0.25927 0.30586 0.54154
 H2150 H 0.27739 0.32045 0.56596
 C2151 C 0.31568 0.84087 0.13335
 C2152 C 0.30705 0.83430 0.11768
 C2153 C 0.31788 0.82346 0.10553
 C2154 C 0.33780 0.81980 0.10888
 C2155 C 0.34656 0.82660 0.12446
 C2156 C 0.33549 0.83681 0.13715
 N2157 N 0.30807 0.81595 0.09025
 N2158 N 0.31594 0.80387 0.07978
 C2159 C 0.30541 0.79630 0.06489
 C2160 C 0.31342 0.78104 0.05528
 C2161 C 0.30281 0.77257 0.04144
 C2162 C 0.28405 0.77942 0.03691
 C2163 C 0.27631 0.79510 0.04628
 C2164 C 0.28683 0.80341 0.06016
 H2165 H 0.30666 0.84876 0.14264
 H2166 H 0.29170 0.83726 0.11519
 H2167 H 0.34653 0.81163 0.09954
 H2168 H 0.36196 0.82369 0.12671
 H2169 H 0.32772 0.77542 0.05878
 H2170 H 0.30919 0.76055 0.03444
 H2171 H 0.26191 0.80074 0.04314
 H2172 H 0.28033 0.81525 0.06732
 C2173 C 0.81127 0.33613 0.13252
 C2174 C 0.80163 0.32816 0.11792
 C2175 C 0.81234 0.31988 0.10403
 C2176 C 0.83294 0.31995 0.10471
 C2177 C 0.84260 0.32816 0.11919
 C2178 C 0.83187 0.33621 0.13332
 N2179 N 0.80195 0.31126 0.08959
 N2180 N 0.81054 0.30101 0.07796
 C2181 C 0.80006 0.29226 0.06364
 C2182 C 0.80948 0.27833 0.05339
 C2183 C 0.79936 0.26882 0.03990
 C2184 C 0.77966 0.27336 0.03627
 C2185 C 0.77039 0.28775 0.04625
 C2186 C 0.78045 0.29704 0.05991
 H2187 H 0.80265 0.34204 0.14331
 H2188 H 0.78575 0.32815 0.11756
 H2189 H 0.84153 0.31372 0.09406
 H2190 H 0.85848 0.32819 0.11943
 H2191 H 0.82460 0.27456 0.05611
 H2192 H 0.80691 0.25786 0.03237
 H2193 H 0.75521 0.29151 0.04378
 H2194 H 0.77288 0.30785 0.06761
 C2195 C 0.80607 0.83369 0.64010
 C2196 C 0.79692 0.82641 0.62494
 C2197 C 0.80772 0.81630 0.61223
 C2198 C 0.82802 0.81398 0.61456
 C2199 C 0.83726 0.82145 0.62964
 C2200 C 0.82634 0.83108 0.64280
 N2201 N 0.79761 0.80834 0.59730
 N2202 N 0.80583 0.79700 0.58635
 C2203 C 0.79536 0.78897 0.57164
 C2204 C 0.80431 0.77470 0.56142
 C2205 C 0.79416 0.76607 0.54742
 C2206 C 0.77489 0.77176 0.54329
 C2207 C 0.76607 0.78635 0.55338
 C2208 C 0.77616 0.79483 0.56747
 H2209 H 0.79714 0.84106 0.64984
 H2210 H 0.78127 0.82835 0.62325
 H2211 H 0.83672 0.80639 0.60479
 H2212 H 0.85295 0.81964 0.63106
 H2213 H 0.81910 0.77008 0.56450
 H2214 H 0.80138 0.75492 0.53986
 H2215 H 0.75124 0.79104 0.55055
 H2216 H 0.76893 0.80588 0.57513
 C2217 C 0.31839 0.65456 0.37420
 C2218 C 0.31098 0.66117 0.39045
 C2219 C 0.31331 0.68030 0.39534
 C2220 C 0.32341 0.69277 0.38385
 C2221 C 0.33061 0.68627 0.36753
 C2222 C 0.32792 0.66713 0.36231
 N2223 N 0.30477 0.68692 0.41166
 N2224 N 0.30839 0.70353 0.41767
 C2225 C 0.29934 0.71090 0.43345
 C2226 C 0.30591 0.72834 0.44020
 C2227 C 0.29678 0.73657 0.45496
 C2228 C 0.28066 0.72758 0.46314
 C2229 C 0.27421 0.70991 0.45648
 C2230 C 0.28354 0.70157 0.44178
 H2231 H 0.31652 0.63964 0.37087
 H2232 H 0.30332 0.65137 0.39923
 H2233 H 0.32539 0.70765 0.38731
 H2234 H 0.33792 0.69639 0.35886
 H2235 H 0.31803 0.73568 0.43384
 H2236 H 0.30207 0.75022 0.45971
 H2237 H 0.26185 0.70263 0.46250
 H2238 H 0.27814 0.68810 0.43673
 C2239 C 0.31259 0.15245 0.85909
 C2240 C 0.30371 0.16117 0.87375
 C2241 C 0.31466 0.17253 0.88531
 C2242 C 0.33489 0.17465 0.88238
 C2243 C 0.34388 0.16572 0.86782
 C2244 C 0.33278 0.15484 0.85571
 N2245 N 0.30473 0.18188 0.89969
 N2246 N 0.31290 0.19430 0.90954
 C2247 C 0.30239 0.20355 0.92368
 C2248 C 0.31110 0.21882 0.93268
 C2249 C 0.30084 0.22856 0.94606
 C2250 C 0.28170 0.22300 0.95076
 C2251 C 0.27314 0.20743 0.94190
 C2252 C 0.28334 0.19785 0.92846
 H2253 H 0.30349 0.14412 0.85027
 H2254 H 0.28812 0.15935 0.87593
 H2255 H 0.34370 0.18318 0.89130
 H2256 H 0.35952 0.16742 0.86596
 H2257 H 0.32578 0.22336 0.92914
 H2258 H 0.30785 0.24045 0.95267
 H2259 H 0.25843 0.20278 0.94517
 H2260 H 0.27628 0.18605 0.92176
 C2261 C 0.82801 0.68276 0.86783
 C2262 C 0.82307 0.69175 0.88379
 C2263 C 0.81447 0.68140 0.89769
 C2264 C 0.81113 0.66171 0.89560
 C2265 C 0.81627 0.65262 0.87966
 C2266 C 0.82454 0.66309 0.86546
 N2267 N 0.80904 0.69138 0.91358
 N2268 N 0.79925 0.68361 0.92611
 C2269 C 0.79368 0.69407 0.94170
 C2270 C 0.78030 0.68592 0.95364
 C2271 C 0.77356 0.69629 0.96833
 C2272 C 0.78032 0.71497 0.97144
 C2273 C 0.79426 0.72289 0.95975
 C2274 C 0.80081 0.71258 0.94496
 H2275 H 0.83435 0.69134 0.85727
 H2276 H 0.82572 0.70692 0.88526
 H2277 H 0.80461 0.65338 0.90625
 H2278 H 0.81382 0.63739 0.87844
 H2279 H 0.77472 0.67167 0.95131
 H2280 H 0.76288 0.68976 0.97714
 H2281 H 0.79973 0.73724 0.96177
 H2282 H 0.81125 0.71917 0.93597
 C2283 C 0.82086 0.16308 0.36144
 C2284 C 0.81106 0.16896 0.37683
 C2285 C 0.82114 0.17840 0.39038
 C2286 C 0.84139 0.18161 0.38854
 C2287 C 0.85127 0.17561 0.37318
 C2288 C 0.84107 0.16652 0.35931
 N2289 N 0.81033 0.18501 0.40556
 N2290 N 0.81817 0.19493 0.41779
 C2291 C 0.80711 0.20196 0.43266
 C2292 C 0.81613 0.21452 0.44453
 C2293 C 0.80544 0.22269 0.45847
 C2294 C 0.78549 0.21827 0.46088
 C2295 C 0.77660 0.20516 0.44927
 C2296 C 0.78729 0.19713 0.43522
 H2297 H 0.81252 0.15613 0.35108
 H2298 H 0.79545 0.16641 0.37809
 H2299 H 0.84954 0.18879 0.39891
 H2300 H 0.86689 0.17810 0.37207
 H2301 H 0.83139 0.21834 0.44272
 H2302 H 0.81274 0.23267 0.46722
 H2303 H 0.76127 0.20150 0.45075
 H2304 H 0.78000 0.18739 0.42624
 C2305 C 0.65780 0.33135 0.37810
 C2306 C 0.66526 0.32251 0.39340
 C2307 C 0.68552 0.32068 0.39583
 C2308 C 0.69834 0.32778 0.38272
 C2309 C 0.69089 0.33638 0.36730
 C2310 C 0.67053 0.33825 0.36482
 N2311 N 0.69265 0.31092 0.41133
 N2312 N 0.71070 0.31086 0.41563
 C2313 C 0.71773 0.30027 0.43072
 C2314 C 0.73711 0.30275 0.43635
 C2315 C 0.74457 0.29199 0.45059
 C2316 C 0.73276 0.27833 0.45920
 C2317 C 0.71325 0.27599 0.45359
 C2318 C 0.70576 0.28693 0.43955
 H2319 H 0.64208 0.33275 0.37657
 H2320 H 0.65525 0.31704 0.40340
 H2321 H 0.71406 0.32635 0.38422
 H2322 H 0.70101 0.34136 0.35718
 H2323 H 0.74650 0.31295 0.42961
 H2324 H 0.75967 0.29403 0.45459
 H2325 H 0.70377 0.26564 0.46001
 H2326 H 0.69075 0.28468 0.43540
 C2327 C 0.65762 0.80667 0.88080
 C2328 C 0.66573 0.79762 0.89570
 C2329 C 0.67726 0.80786 0.90770
 C2330 C 0.68015 0.82754 0.90494
 C2331 C 0.67184 0.83669 0.89013
 C2332 C 0.66081 0.82630 0.87764
 N2333 N 0.68619 0.79781 0.92226
 N2334 N 0.69885 0.80557 0.93234
 C2335 C 0.70806 0.79532 0.94664
 C2336 C 0.72381 0.80378 0.95551
 C2337 C 0.73380 0.79382 0.96890
 C2338 C 0.72803 0.77523 0.97380
 C2339 C 0.71189 0.76692 0.96517
 C2340 C 0.70205 0.77683 0.95162
 H2341 H 0.64916 0.79815 0.87162
 H2342 H 0.66335 0.78246 0.89772
 H2343 H 0.68884 0.83581 0.91416
 H2344 H 0.67413 0.85189 0.88839
 H2345 H 0.72857 0.81801 0.95180
 H2346 H 0.74611 0.80065 0.97536
 H2347 H 0.70712 0.75262 0.96863
 H2348 H 0.68986 0.77001 0.94498
 C2349 C 0.14390 0.32330 0.86631
 C2350 C 0.15197 0.31483 0.88156
 C2351 C 0.17231 0.31390 0.88377
 C2352 C 0.18460 0.32141 0.87043
 C2353 C 0.17657 0.32962 0.85506
 C2354 C 0.15612 0.33073 0.85284
 N2355 N 0.18018 0.30501 0.89947
 N2356 N 0.19824 0.30640 0.90350
 C2357 C 0.20654 0.29718 0.91882
 C2358 C 0.22570 0.30178 0.92379
 C2359 C 0.23452 0.29274 0.93836
 C2360 C 0.22438 0.27865 0.94808
 C2361 C 0.20510 0.27404 0.94309
 C2362 C 0.19618 0.28332 0.92864
 H2363 H 0.12811 0.32406 0.86501
 H2364 H 0.14234 0.30908 0.89173
 H2365 H 0.20039 0.32069 0.87174
 H2366 H 0.18636 0.33492 0.84481
 H2367 H 0.23385 0.31239 0.91629
 H2368 H 0.24943 0.29653 0.94179
 H2369 H 0.19692 0.26326 0.95034
 H2370 H 0.18137 0.27946 0.92498
 C2371 C 0.20541 0.85080 0.36773
 C2372 C 0.21335 0.84339 0.38347
 C2373 C 0.20122 0.83503 0.39634
 C2374 C 0.18084 0.83482 0.39363
 C2375 C 0.17284 0.84246 0.37798
 C2376 C 0.18505 0.85009 0.36459
 N2377 N 0.21004 0.82626 0.41165
 N2378 N 0.20027 0.81595 0.42247
 C2379 C 0.20923 0.80664 0.43744
 C2380 C 0.19842 0.79305 0.44698
 C2381 C 0.20712 0.78268 0.46083
 C2382 C 0.22678 0.78594 0.46555
 C2383 C 0.23743 0.80006 0.45634
 C2384 C 0.22877 0.81026 0.44231
 H2385 H 0.21532 0.85666 0.35787
 H2386 H 0.22907 0.84369 0.38544
 H2387 H 0.17113 0.82864 0.40351
 H2388 H 0.15709 0.84220 0.37625
 H2389 H 0.18335 0.79015 0.44336
 H2390 H 0.19850 0.77197 0.46774
 H2391 H 0.25260 0.80287 0.45965
 H2392 H 0.23740 0.82076 0.43516
 C2393 C 0.65823 0.68724 0.64145
 C2394 C 0.66615 0.69624 0.62645
 C2395 C 0.67370 0.68542 0.61237
 C2396 C 0.67301 0.66536 0.61333
 C2397 C 0.66481 0.65632 0.62824
 C2398 C 0.65740 0.66718 0.64249
 N2399 N 0.68200 0.69520 0.59738
 N2400 N 0.69166 0.68661 0.58528
 C2401 C 0.69984 0.69676 0.57042
 C2402 C 0.71356 0.68760 0.55948
 C2403 C 0.72250 0.69750 0.54542
 C2404 C 0.71757 0.71668 0.54193
 C2405 C 0.70338 0.72568 0.55264
 C2406 C 0.69468 0.71586 0.56682
 H2407 H 0.65285 0.69594 0.65232
 H2408 H 0.66666 0.71170 0.62587
 H2409 H 0.67868 0.65670 0.60255
 H2410 H 0.66422 0.64086 0.62868
 H2411 H 0.71762 0.67287 0.56209
 H2412 H 0.73333 0.69018 0.53736
 H2413 H 0.69931 0.74045 0.55031
 H2414 H 0.68402 0.72322 0.57502
 C2415 C 0.67319 0.14360 0.12281
 C2416 C 0.68202 0.15093 0.10740
 C2417 C 0.68390 0.17069 0.10499
 C2418 C 0.67699 0.18312 0.11829
 C2419 C 0.66845 0.17581 0.13380
 C2420 C 0.66636 0.15596 0.13622
 N2421 N 0.69312 0.17784 0.08915
 N2422 N 0.69232 0.19547 0.08494
 C2423 C 0.70190 0.20309 0.06950
 C2424 C 0.69772 0.22188 0.06431
 C2425 C 0.70715 0.23003 0.04961
 C2426 C 0.72123 0.21957 0.03999
 C2427 C 0.72543 0.20066 0.04521
 C2428 C 0.71574 0.19242 0.05979
 H2429 H 0.67168 0.12827 0.12430
 H2430 H 0.68731 0.14121 0.09727
 H2431 H 0.67846 0.19845 0.11682
 H2432 H 0.66363 0.18565 0.14401
 H2433 H 0.68714 0.23025 0.07174
 H2434 H 0.70368 0.24466 0.04599
 H2435 H 0.73619 0.19226 0.03804
 H2436 H 0.71928 0.17789 0.06364
 C2437 C 0.16837 0.69356 0.13979
 C2438 C 0.17648 0.70315 0.12519
 C2439 C 0.18279 0.69299 0.11022
 C2440 C 0.18077 0.67299 0.10993
 C2441 C 0.17241 0.66339 0.12445
 C2442 C 0.16613 0.67357 0.13955
 N2443 N 0.19113 0.70332 0.09556
 N2444 N 0.19969 0.69496 0.08266
 C2445 C 0.20791 0.70540 0.06800
 C2446 C 0.22035 0.69590 0.05611
 C2447 C 0.22911 0.70581 0.04200
 C2448 C 0.22528 0.72538 0.03937
 C2449 C 0.21243 0.73481 0.05109
 C2450 C 0.20392 0.72494 0.06538
 H2451 H 0.16389 0.70174 0.15132
 H2452 H 0.17801 0.71855 0.12558
 H2453 H 0.18547 0.66484 0.09845
 H2454 H 0.17071 0.64802 0.12386
 H2455 H 0.22348 0.68084 0.05797
 H2456 H 0.23887 0.69815 0.03313
 H2457 H 0.20925 0.74989 0.04942
 H2458 H 0.19424 0.73257 0.07434
 C2459 C 0.16391 0.19297 0.62916
 C2460 C 0.17150 0.20340 0.61480
 C2461 C 0.17963 0.19399 0.60011
 C2462 C 0.17974 0.17390 0.59976
 C2463 C 0.17193 0.16345 0.61401
 C2464 C 0.16407 0.17286 0.62896
 N2465 N 0.18789 0.20515 0.58591
 N2466 N 0.19801 0.19766 0.57348
 C2467 C 0.20639 0.20885 0.55937
 C2468 C 0.22008 0.20033 0.54797
 C2469 C 0.22915 0.21103 0.53453
 C2470 C 0.22442 0.23045 0.53208
 C2471 C 0.21030 0.23887 0.54327
 C2472 C 0.20145 0.22821 0.55688
 H2473 H 0.15817 0.20062 0.64055
 H2474 H 0.17135 0.21888 0.61524
 H2475 H 0.18584 0.16630 0.58849
 H2476 H 0.17206 0.14798 0.61342
 H2477 H 0.22398 0.18542 0.54973
 H2478 H 0.23990 0.20412 0.52607
 H2479 H 0.20638 0.25380 0.54174
 H2480 H 0.19083 0.23509 0.56548
   
