data_POSCAR
  _audit_creation_date              2014-09-24
  _audit_creation_method            'ToBaCCo'
  _symmetry_space_group_name_H-M    'P1'
  _symmetry_Int_Tables_number       1
  _symmetry_cell_setting            triclinic
  loop_
  _symmetry_equiv_pos_as_xyz
 x,y,z
_cell_length_a 34.0449
_cell_length_b 34.0536
_cell_length_c 44.2966
_cell_angle_alpha 89.987300
_cell_angle_beta 89.992600
_cell_angle_gamma 90.003400
loop_
  _atom_site_label
  _atom_site_type_symbol
  _atom_site_fract_x
  _atom_site_fract_y
  _atom_site_fract_z
B1 B 0.26752 0.23781 0.28107
 B2 B 0.22044 0.22946 0.27332
 B3 B 0.23574 0.27510 0.27974
 B4 B 0.28091 0.28049 0.26495
 B5 B 0.29313 0.23641 0.24883
 B6 B 0.25524 0.20438 0.25453
 B7 B 0.22803 0.26491 0.22010
 B8 B 0.27511 0.27330 0.22784
 B9 B 0.25985 0.22766 0.22139
 B10 B 0.21467 0.22223 0.23620
 B11 B 0.20245 0.26632 0.25234
 B12 B 0.24033 0.29835 0.24661
 B13 B 0.73661 0.77553 0.22092
 B14 B 0.72127 0.72986 0.22724
 B15 B 0.76837 0.73822 0.21961
 B16 B 0.78173 0.78084 0.23582
 B17 B 0.74110 0.79867 0.25410
 B18 B 0.70320 0.76668 0.24824
 B19 B 0.76046 0.72788 0.27924
 B20 B 0.77579 0.77352 0.27291
 B21 B 0.72867 0.76515 0.28053
 B22 B 0.71534 0.72253 0.26434
 B23 B 0.75597 0.70472 0.24607
 B24 B 0.79385 0.73669 0.25189
 B25 B 0.73915 0.22806 -0.22224
 B26 B 0.73077 0.27513 -0.22993
 B27 B 0.77644 0.25986 -0.22360
 B28 B 0.78177 0.21471 -0.23844
 B29 B 0.73761 0.20254 -0.25450
 B30 B 0.70563 0.24042 -0.24869
 B31 B 0.76605 0.26765 -0.28323
 B32 B 0.77442 0.22056 -0.27555
 B33 B 0.72877 0.23589 -0.28186
 B34 B 0.72343 0.28101 -0.26701
 B35 B 0.76758 0.29319 -0.25096
 B36 B 0.79959 0.25530 -0.25679
 B37 B 0.26472 0.76967 -0.21683
 B38 B 0.27303 0.72255 -0.22444
 B39 B 0.22738 0.73795 -0.21809
 B40 B 0.22209 0.78306 -0.23302
 B41 B 0.26624 0.79511 -0.24914
 B42 B 0.29819 0.75721 -0.24330
 B43 B 0.23763 0.72998 -0.27771
 B44 B 0.22936 0.77709 -0.27010
 B45 B 0.27498 0.76170 -0.27646
 B46 B 0.28027 0.71660 -0.26154
 B47 B 0.23613 0.70453 -0.24541
 B48 B 0.20418 0.74245 -0.25125
 B49 B 1.23563 1.27458 0.72069
 B50 B 1.21964 1.22909 0.72693
 B51 B 1.26685 1.23686 0.71917
 B52 B 1.28092 1.27924 0.73543
 B53 B 1.24067 1.29758 0.75390
 B54 B 1.20230 1.26612 0.74811
 B55 B 1.25923 1.22646 0.77884
 B56 B 1.27518 1.27194 0.77257
 B57 B 1.22795 1.26416 0.78032
 B58 B 1.21392 1.22176 0.76408
 B59 B 1.25417 1.20343 0.74562
 B60 B 1.29254 1.23490 0.75138
 B61 B 0.76802 0.73837 0.78070
 B62 B 0.72081 0.73071 0.77285
 B63 B 0.73685 0.77616 0.77923
 B64 B 0.78222 0.78080 0.76455
 B65 B 0.79379 0.73648 0.74854
 B66 B 0.75536 0.70508 0.75417
 B67 B 0.72937 0.76598 0.71954
 B68 B 0.77660 0.77364 0.72738
 B69 B 0.76055 0.72822 0.72101
 B70 B 0.71520 0.72355 0.73569
 B71 B 0.70360 0.76786 0.75171
 B72 B 0.74207 0.79928 0.74604
 B73 B 1.23734 0.73003 0.27808
 B74 B 1.22975 0.77723 0.27018
 B75 B 1.27517 0.76116 0.27658
 B76 B 1.27978 0.71579 0.26198
 B77 B 1.23546 0.70421 0.24595
 B78 B 1.20408 0.74270 0.25154
 B79 B 1.26504 0.76855 0.21688
 B80 B 1.27266 0.72135 0.22480
 B81 B 1.22722 0.73743 0.21839
 B82 B 1.22261 0.78280 0.23301
 B83 B 1.26693 0.79436 0.24902
 B84 B 1.29831 0.75589 0.24344
 B85 B 0.77690 1.25985 0.22377
 B86 B 0.73151 1.27610 0.23005
 B87 B 0.73896 1.22887 0.22221
 B88 B 0.78127 1.21447 0.23844
 B89 B 0.79988 1.25453 0.25699
 B90 B 0.76867 1.29313 0.25127
 B91 B 0.72859 1.23639 0.28187
 B92 B 0.77398 1.22011 0.27561
 B93 B 0.76653 1.26737 0.28344
 B94 B 0.72422 1.28176 0.26719
 B95 B 0.70563 1.24170 0.24866
 B96 B 0.73682 1.20311 0.25437
 O97 O 0.55308 1.07421 0.05507
 O98 O 0.59828 1.03993 0.02686
 C99 C 0.58875 1.06512 0.04773
 O100 O 0.44709 0.93027 0.05217
 O101 O 0.40177 0.96660 0.02561
 C102 C 0.41139 0.93944 0.04496
 O103 O 0.55531 0.93597 0.05552
 O104 O 0.59941 0.97145 0.02715
 C105 C 0.59067 0.94615 0.04817
 O106 O 0.44477 1.07578 0.05246
 O107 O 0.40081 1.03713 0.02659
 C108 C 0.40944 1.06476 0.04582
 Zr109 Zr 0.49921 1.05293 0.03835
 O110 O 0.49851 1.04570 0.08574
 O111 O 0.49855 1.11481 0.04255
 Zr112 Zr 0.50087 0.95523 0.03859
 O113 O 0.49962 0.96280 0.08594
 O114 O 0.50250 0.89343 0.04328
 O115 O 0.53579 1.00471 0.04421
 O116 O 0.46499 1.00345 0.04388
 O117 O 0.44440 1.07419 -0.05284
 O118 O 0.40043 1.03729 -0.02545
 C119 C 0.40906 1.06391 -0.04550
 O120 O 0.55533 0.93604 -0.05491
 O121 O 0.59946 0.97153 -0.02666
 C122 C 0.59069 0.94627 -0.04767
 O123 O 0.44689 0.93104 -0.05207
 O124 O 0.40164 0.96701 -0.02519
 C125 C 0.41122 0.94016 -0.04477
 O126 O 0.55308 1.07315 -0.05523
 O127 O 0.59832 1.03939 -0.02673
 C128 C 0.58875 1.06418 -0.04785
 Zr129 Zr 0.49915 1.05303 -0.03768
 O130 O 0.49495 1.05285 -0.08539
 O131 O 0.50164 1.11517 -0.03709
 Zr132 Zr 0.50090 0.95452 -0.03739
 O133 O 0.49651 0.95439 -0.08509
 O134 O 0.50564 0.89251 -0.03665
 Zr135 Zr 0.55974 1.00493 0.00023
 Zr136 Zr 0.44054 1.00293 0.00027
 O137 O 0.46559 1.00314 -0.04316
 O138 O 0.53541 1.00436 -0.04360
 O139 O 0.46386 1.06034 0.00030
 O140 O 0.53546 0.94810 0.00057
 O141 O 0.53349 1.06091 0.00025
 O142 O 0.46594 0.94639 0.00058
 H143 H 0.44712 1.00300 0.06155
 H144 H 0.55345 0.92524 0.00049
 H145 H 0.44809 1.00269 -0.06103
 H146 H 0.55067 1.08437 0.00006
 H147 H 0.51119 0.88252 0.02374
 H148 H 0.48412 0.88232 -0.02381
 H149 H 0.51822 0.97061 -0.09313
 H150 H 0.51696 1.03696 -0.09331
 H151 H 0.47940 1.12464 -0.02465
 H152 H 0.50692 1.12580 0.02295
 H153 H 0.49695 1.07248 0.09440
 H154 H 0.49859 0.93605 0.09470
 O155 O 1.05277 0.57397 0.55535
 O156 O 1.09808 0.53988 0.52710
 C157 C 1.08846 0.56497 0.54802
 O158 O 0.94710 0.42989 0.55197
 O159 O 0.90177 0.46635 0.52555
 C160 C 0.91141 0.43909 0.54480
 O161 O 1.05529 0.43573 0.55536
 O162 O 1.09936 0.47144 0.52714
 C163 C 1.09063 0.44599 0.54806
 O164 O 0.94430 0.57529 0.55242
 O165 O 0.90038 0.53739 0.52579
 C166 C 0.90897 0.56463 0.54536
 Zr167 Zr 0.99898 0.55268 0.53852
 O168 O 0.99814 0.54527 0.58589
 O169 O 0.99821 0.61453 0.54294
 Zr170 Zr 1.00083 0.45500 0.53848
 O171 O 0.99951 0.46238 0.58585
 O172 O 1.00254 0.39318 0.54302
 O173 O 1.03565 0.50451 0.54426
 O174 O 0.96483 0.50314 0.54391
 O175 O 0.94433 0.57437 0.44742
 O176 O 0.90040 0.53711 0.47458
 C177 C 0.90901 0.56394 0.45468
 O178 O 1.05549 0.43625 0.44507
 O179 O 1.09951 0.47177 0.47341
 C180 C 1.09081 0.44648 0.45240
 O181 O 0.94712 0.43099 0.44771
 O182 O 0.90180 0.46669 0.47471
 C183 C 0.91144 0.43990 0.45508
 O184 O 1.05296 0.57360 0.44512
 O185 O 1.09823 0.53967 0.47348
 C186 C 1.08864 0.56465 0.45248
 Zr187 Zr 0.99909 0.55312 0.46245
 O188 O 0.99495 0.55271 0.41474
 O189 O 1.00143 0.61526 0.46298
 Zr190 Zr 1.00097 0.45473 0.46239
 O191 O 0.99662 0.45547 0.41468
 O192 O 1.00580 0.39273 0.46257
 Zr193 Zr 1.05966 0.50498 0.50030
 Zr194 Zr 0.94055 0.50273 0.50028
 O195 O 0.96553 0.50325 0.45683
 O196 O 1.03547 0.50460 0.45642
 O197 O 0.96378 0.56018 0.50044
 O198 O 1.03543 0.44813 0.50042
 O199 O 1.03330 0.56090 0.50047
 O200 O 0.96603 0.44626 0.50038
 H201 H 0.94681 0.50269 0.56148
 H202 H 1.05343 0.42528 0.50031
 H203 H 0.94799 0.50284 0.43899
 H204 H 1.05042 0.58442 0.50037
 H205 H 1.01146 0.38237 0.52350
 H206 H 0.98486 0.38239 0.47589
 H207 H 1.01897 0.47090 0.40676
 H208 H 1.01743 0.53746 0.40684
 H209 H 0.97945 0.62468 0.47570
 H210 H 1.00641 0.62564 0.52334
 H211 H 0.99636 0.57201 0.59459
 H212 H 0.99866 0.43559 0.59455
 O213 O 1.06689 0.55580 0.05339
 O214 O 1.03003 0.59975 0.02593
 C215 C 1.05669 0.59112 0.04595
 O216 O 1.06644 0.44721 -0.05515
 O217 O 1.03216 0.40184 -0.02712
 C218 C 1.05732 0.41150 -0.04796
 O219 O 1.06827 0.55561 -0.05249
 O220 O 1.03028 0.59949 -0.02595
 C221 C 1.05756 0.59091 -0.04549
 O222 O 1.06533 0.44717 0.05626
 O223 O 1.03259 0.40198 0.02701
 C224 C 1.05692 0.41153 0.04846
 Zr225 Zr 1.04542 0.50100 0.03859
 O226 O 1.10754 0.49888 0.04008
 O227 O 1.04061 0.50257 0.08615
 Zr228 Zr 1.04738 0.50106 -0.03692
 O229 O 1.10894 0.50109 -0.03079
 O230 O 1.05413 0.50140 -0.08441
 O231 O 1.05340 0.53667 0.00088
 O232 O 1.05427 0.46642 0.00082
 O233 O 0.92955 0.44461 0.05538
 O234 O 0.96567 0.40066 0.02738
 C235 C 0.94027 0.40931 0.04835
 O236 O 0.92550 0.55330 -0.05358
 O237 O 0.96031 0.59848 -0.02575
 C238 C 0.93420 0.58895 -0.04593
 O239 O 0.93095 0.44485 -0.05644
 O240 O 0.96530 0.40082 -0.02726
 C241 C 0.94087 0.40952 -0.04888
 O242 O 0.92358 0.55291 0.05246
 O243 O 0.95991 0.59817 0.02590
 C244 C 0.93294 0.58859 0.04540
 Zr245 Zr 0.94685 0.49909 0.03724
 O246 O 0.88495 0.49339 0.03489
 O247 O 0.94486 0.50245 0.08491
 Zr248 Zr 0.94851 0.49929 -0.03841
 O249 O 0.88654 0.49376 -0.03837
 O250 O 0.94950 0.50306 -0.08612
 Zr251 Zr 0.99586 0.55962 0.00007
 Zr252 Zr 0.99815 0.44055 -0.00001
 O253 O 0.94113 0.46438 -0.00066
 O254 O 0.93920 0.53448 -0.00064
 O255 O 0.99676 0.46476 0.04378
 O256 O 0.99736 0.53455 -0.04332
 O257 O 0.99544 0.53455 0.04350
 O258 O 0.99871 0.46511 -0.04375
 H259 H 1.07771 0.44917 0.00094
 H260 H 0.99710 0.55213 -0.06112
 H261 H 0.91845 0.44614 -0.00079
 H262 H 0.99492 0.55196 0.06141
 H263 H 1.02934 0.51126 -0.09316
 H264 H 0.96809 0.48291 -0.09355
 H265 H 0.87566 0.51617 -0.02690
 H266 H 0.87447 0.51705 0.02474
 H267 H 0.96733 0.48704 0.09268
 H268 H 1.06783 0.50337 0.09407
 H269 H 1.11746 0.51788 0.02500
 H270 H 1.12055 0.50014 -0.05128
 O271 O 0.42895 0.94512 0.44467
 O272 O 0.46451 0.90102 0.47296
 C273 C 0.43926 0.90977 0.45190
 O274 O 0.56900 1.05550 0.44802
 O275 O 0.53029 1.09949 0.47380
 C276 C 0.55807 1.09082 0.45471
 O277 O 0.56721 0.94731 0.44523
 O278 O 0.53295 0.90206 0.47342
 C279 C 0.55823 0.91165 0.45262
 O280 O 0.42354 1.05344 0.44799
 O281 O 0.45988 1.09863 0.47467
 C282 C 0.43286 1.08911 0.45518
 Zr283 Zr 0.44814 0.99953 0.46173
 O284 O 0.45549 1.00074 0.41435
 O285 O 0.38626 0.99829 0.45730
 Zr286 Zr 0.54587 1.00113 0.46189
 O287 O 0.53845 1.00195 0.41452
 O288 O 0.60773 1.00156 0.45746
 O289 O 0.49763 0.96460 0.45604
 O290 O 0.49644 1.03537 0.45642
 O291 O 0.42411 1.05341 0.55246
 O292 O 0.46013 1.09864 0.52558
 C293 C 0.43331 1.08908 0.54522
 O294 O 0.56647 0.94718 0.55517
 O295 O 0.53248 0.90195 0.52684
 C296 C 0.55756 0.91153 0.54776
 O297 O 0.56754 1.05568 0.55290
 O298 O 0.53060 1.09975 0.52568
 C299 C 0.55744 1.09103 0.54552
 O300 O 0.42919 0.94498 0.55532
 O301 O 0.46457 0.90089 0.52694
 C302 C 0.43945 0.90964 0.54807
 Zr303 Zr 0.44747 0.99940 0.53766
 O304 O 0.44698 1.00372 0.58535
 O305 O 0.38545 0.99471 0.53667
 Zr306 Zr 0.54597 1.00107 0.53797
 O307 O 0.54496 1.00524 0.58569
 O308 O 0.60813 0.99856 0.53791
 Zr309 Zr 0.49792 0.94059 0.50000
 Zr310 Zr 0.49599 1.05976 0.50004
 O311 O 0.49614 1.03470 0.54346
 O312 O 0.49731 0.96484 0.54385
 O313 O 0.43939 1.03447 0.49973
 O314 O 0.55388 0.96688 0.49997
 O315 O 0.44106 0.96483 0.49971
 O316 O 0.55335 1.03633 0.49998
 H317 H 0.49611 1.05324 0.43876
 H318 H 0.57744 0.94982 0.50011
 H319 H 0.49578 1.05222 0.56131
 H320 H 0.41827 0.94675 0.49981
 H321 H 0.61877 0.99429 0.47730
 H322 H 0.61777 1.02023 0.52500
 H323 H 0.53052 0.98221 0.59355
 H324 H 0.46403 0.98266 0.59338
 H325 H 0.37538 1.01624 0.52379
 H326 H 0.37545 0.98775 0.47634
 H327 H 0.42870 1.00183 0.40566
 H328 H 0.56521 1.00357 0.40581
 O329 O 1.04407 1.08570 0.54170
 O330 O 1.02312 1.03853 0.57516
 C331 C 1.03862 1.07221 0.56869
 O332 O 0.91230 1.03631 0.45797
 O333 O 0.95961 1.01563 0.42456
 C334 C 0.92584 1.03094 0.43100
 O335 O 0.91521 1.04108 0.54207
 O336 O 0.96108 1.01717 0.57547
 C337 C 0.92862 1.03503 0.56900
 O338 O 1.04867 1.08266 0.45760
 O339 O 1.02430 1.03699 0.42425
 C340 C 1.04243 1.06930 0.43068
 Zr341 Zr 1.03274 1.05891 0.49977
 O342 O 1.00672 1.11524 0.49852
 O343 O 1.08985 1.08314 0.50229
 Zr344 Zr 0.93970 1.02638 0.49995
 O345 O 0.92445 1.08654 0.49866
 O346 O 0.88018 1.00889 0.50288
 O347 O 0.98384 1.04978 0.52691
 O348 O 0.98389 1.04933 0.47335
 O349 O 1.09240 0.95417 0.45771
 O350 O 1.04517 0.97537 0.42445
 C351 C 1.07882 0.95977 0.43078
 O352 O 0.96099 0.90596 0.54209
 O353 O 0.98251 0.95301 0.57534
 C354 C 0.96659 0.91952 0.56902
 O355 O 0.95683 0.90837 0.45787
 O356 O 0.98078 0.95408 0.42439
 C357 C 0.96274 0.92178 0.43092
 O358 O 1.09024 0.95016 0.54193
 O359 O 1.04453 0.97420 0.57533
 C360 C 1.07693 0.95632 0.56885
 Zr361 Zr 1.06584 0.96532 0.49984
 O362 O 1.08722 0.90711 0.49661
 O363 O 1.12408 0.98682 0.50309
 Zr364 Zr 0.97229 0.93250 0.49999
 O365 O 0.99390 0.87433 0.49669
 O366 O 0.91414 0.91092 0.50334
 Zr367 Zr 1.00275 0.99568 0.54474
 Zr368 Zr 1.00255 0.99556 0.45507
 O369 O 1.02133 0.94195 0.47374
 O370 O 1.02164 0.94155 0.52683
 O371 O 1.05665 1.01459 0.47298
 O372 O 0.94907 0.97713 0.52605
 O373 O 1.05628 1.01451 0.52594
 O374 O 0.94849 0.97684 0.47321
 H375 H 0.97656 1.07103 0.45955
 H376 H 0.92699 0.96978 0.53951
 H377 H 1.02864 0.92003 0.46015
 H378 H 1.07828 1.02201 0.53939
 H379 H 0.87661 0.98677 0.48870
 H380 H 0.89843 0.92404 0.48750
 H381 H 1.01043 0.86934 0.51465
 H382 H 1.07380 0.89144 0.51232
 H383 H 1.12922 1.00312 0.48503
 H384 H 1.10722 1.06587 0.49033
 H385 H 1.02876 1.13421 0.49776
 H386 H 0.89536 1.08749 0.49860
 O387 O 0.41602 0.54232 0.04226
 O388 O 0.46204 0.51840 0.07548
 C389 C 0.42933 0.53596 0.06918
 O390 O 0.45629 0.40789 -0.04189
 O391 O 0.47962 0.45389 -0.07538
 C392 C 0.46239 0.42107 -0.06889
 O393 O 0.45228 0.41100 0.04233
 O394 O 0.47939 0.45523 0.07558
 C395 C 0.45948 0.42398 0.06923
 O396 O 0.41862 0.54704 -0.04184
 O397 O 0.46222 0.51973 -0.07548
 C398 C 0.43125 0.53995 -0.06885
 Zr399 Zr 0.44160 0.52938 0.00016
 O400 O 0.38379 0.50680 -0.00080
 O401 O 0.42075 0.58777 0.00277
 Zr402 Zr 0.46818 0.43449 0.00009
 O403 O 0.40720 0.42287 -0.00090
 O404 O 0.48206 0.37404 0.00294
 O405 O 0.44785 0.47998 0.02721
 O406 O 0.44783 0.48009 -0.02636
 O407 O 0.54940 0.58236 -0.04246
 O408 O 0.52497 0.53672 -0.07569
 C409 C 0.54255 0.56938 -0.06938
 O410 O 0.59041 0.44861 0.04151
 O411 O 0.54497 0.47274 0.07505
 C412 C 0.57758 0.45522 0.06852
 O413 O 0.58693 0.44463 -0.04268
 O414 O 0.54239 0.47130 -0.07584
 C415 C 0.57376 0.45159 -0.06954
 O416 O 0.55417 0.57980 0.04169
 O417 O 0.52754 0.53574 0.07524
 C418 C 0.54729 0.56700 0.06866
 Zr419 Zr 0.53713 0.55647 -0.00029
 O420 O 0.59657 0.57409 -0.00389
 O421 O 0.51952 0.61596 0.00316
 Zr422 Zr 0.56386 0.46095 -0.00039
 O423 O 0.62359 0.47761 -0.00410
 O424 O 0.58045 0.40117 0.00292
 Zr425 Zr 0.50321 0.49543 0.04475
 Zr426 Zr 0.50251 0.49537 -0.04494
 O427 O 0.55738 0.51062 -0.02651
 O428 O 0.55828 0.51080 0.02649
 O429 O 0.48712 0.55050 -0.02685
 O430 O 0.51814 0.44069 0.02601
 O431 O 0.48765 0.55004 0.02606
 O432 O 0.51791 0.44017 -0.02698
 H433 H 0.42560 0.47416 -0.04007
 H434 H 0.52426 0.41830 0.03950
 H435 H 0.57961 0.51667 -0.04018
 H436 H 0.48165 0.57246 0.03956
 H437 H 0.50388 0.36917 -0.01131
 H438 H 0.56807 0.38700 -0.01409
 H439 H 0.62954 0.49541 0.01293
 H440 H 0.61150 0.55976 0.01177
 H441 H 0.50343 0.62221 -0.01480
 H442 H 0.43965 0.60426 -0.00845
 H443 H 0.36617 0.52994 -0.00147
 H444 H 0.40452 0.39390 -0.00099
 C445 C 0.30336 1.16415 0.14658
 C446 C 0.32928 1.13040 0.15795
 C447 C 0.34680 1.10953 0.13548
 C448 C 0.33688 1.12425 0.10361
 C449 C 0.34798 1.16799 0.10390
 C450 C 0.33041 1.18889 0.12641
 C451 C 0.27415 1.14472 0.12468
 C452 C 0.29179 1.12372 0.10208
 C453 C 0.28550 1.18667 0.17150
 C454 C 0.27295 1.20486 0.19288
 C455 C 0.35767 1.10172 0.08003
 C456 C 0.37888 1.08400 0.06282
 H457 H 0.33346 1.12343 0.18165
 H458 H 0.36594 1.08470 0.14001
 H459 H 0.36780 1.18143 0.08771
 H460 H 0.33519 1.22017 0.12945
 H461 H 0.24249 1.14728 0.12672
 H462 H 0.27523 1.10834 0.08480
 C463 C 0.80342 0.66433 0.64617
 C464 C 0.82984 0.68916 0.62557
 C465 C 0.84723 0.66821 0.60300
 C466 C 0.83659 0.62435 0.60309
 C467 C 0.79149 0.62332 0.60204
 C468 C 0.77404 0.64435 0.62471
 C469 C 0.82991 0.63099 0.65746
 C470 C 0.84725 0.61007 0.63494
 C471 C 0.78577 0.68690 0.67114
 C472 C 0.77341 0.70519 0.69254
 C473 C 0.85721 0.60176 0.57944
 C474 C 0.87836 0.58397 0.56224
 H475 H 0.83433 0.72051 0.62837
 H476 H 0.86661 0.68169 0.58652
 H477 H 0.77479 0.60757 0.58505
 H478 H 0.74238 0.64659 0.62708
 H479 H 0.83460 0.62432 0.68116
 H480 H 0.86675 0.58552 0.63942
 C481 C 0.69459 0.84233 0.14736
 C482 C 0.65486 0.82660 0.13647
 C483 C 0.63798 0.84892 0.11454
 C484 C 0.66232 0.88504 0.10546
 C485 C 0.70268 0.86850 0.09656
 C486 C 0.71967 0.84603 0.11861
 C487 C 0.68636 0.88482 0.15709
 C488 C 0.66944 0.90720 0.13514
 C489 C 0.71175 0.81821 0.17166
 C490 C 0.72384 0.79894 0.19264
 C491 C 0.64213 0.90894 0.08240
 C492 C 0.62117 0.92718 0.06536
 H493 H 0.64111 0.80021 0.14526
 H494 H 0.60981 0.84150 0.10456
 H495 H 0.71667 0.87398 0.07494
 H496 H 0.74819 0.83226 0.11583
 H497 H 0.69327 0.89636 0.17931
 H498 H 0.66193 0.93786 0.13859
 C499 C 1.19405 0.34172 0.64720
 C500 C 1.15235 0.32882 0.63874
 C501 C 1.13560 0.35123 0.61680
 C502 C 1.16204 0.38460 0.60529
 C503 C 1.20010 0.36418 0.59521
 C504 C 1.21694 0.34162 0.61726
 C505 C 1.19015 0.38528 0.65569
 C506 C 1.17337 0.40775 0.63372
 C507 C 1.21106 0.31753 0.67151
 C508 C 1.22302 0.29819 0.69248
 C509 C 1.14201 0.40862 0.58223
 C510 C 1.12112 0.42696 0.56521
 H511 H 1.13721 0.30421 0.64911
 H512 H 1.10616 0.34566 0.60841
 H513 H 1.21269 0.36719 0.57282
 H514 H 1.24394 0.32530 0.61372
 H515 H 1.19980 0.39743 0.67710
 H516 H 1.16872 0.43911 0.63634
 C517 C 0.69422 1.16706 -0.14697
 C518 C 0.66579 1.19069 -0.12718
 C519 C 0.64814 1.16891 -0.10520
 C520 C 0.66058 1.12551 -0.10505
 C521 C 0.70558 1.12633 -0.10263
 C522 C 0.72330 1.14820 -0.12469
 C523 C 0.66973 1.13270 -0.15912
 C524 C 0.65213 1.11096 -0.13719
 C525 C 0.71222 1.19021 -0.17144
 C526 C 0.72513 1.20796 -0.19289
 C527 C 0.63979 1.10207 -0.08206
 C528 C 0.61878 1.08378 -0.06511
 H529 H 0.66012 1.22184 -0.13010
 H530 H 0.62737 1.18148 -0.08931
 H531 H 0.72204 1.11117 -0.08517
 H532 H 0.75493 1.15176 -0.12609
 H533 H 0.66655 1.12595 -0.18296
 H534 H 0.63393 1.08563 -0.14229
 C535 C 1.19271 0.66903 0.35348
 C536 C 1.17202 0.63212 0.34157
 C537 C 1.15480 0.61008 0.36351
 C538 C 1.15980 0.62690 0.39541
 C539 C 1.14385 0.66905 0.39335
 C540 C 1.16111 0.69113 0.37137
 C541 C 1.22168 0.65384 0.37744
 C542 C 1.20435 0.63167 0.39952
 C543 C 1.21036 0.69244 0.32900
 C544 C 1.22314 0.71022 0.30752
 C545 C 1.13940 0.60310 0.41840
 C546 C 1.11859 0.58451 0.43532
 H547 H 1.17104 0.62394 0.31789
 H548 H 1.13913 0.58305 0.35857
 H549 H 1.12104 0.68061 0.40801
 H550 H 1.15308 0.72152 0.36723
 H551 H 1.25296 0.66001 0.37713
 H552 H 1.22079 0.61885 0.41806
 C553 C 0.30835 0.83207 -0.14183
 C554 C 0.34023 0.81066 -0.12372
 C555 C 0.35714 0.83330 -0.10192
 C556 C 0.34059 0.87524 -0.10026
 C557 C 0.29610 0.86993 -0.09614
 C558 C 0.27913 0.84721 -0.11803
 C559 C 0.32855 0.86908 -0.15406
 C560 C 0.34542 0.89167 -0.13231
 C561 C 0.29109 0.80813 -0.16614
 C562 C 0.27860 0.78996 -0.18752
 C563 C 0.36065 0.89973 -0.07753
 C564 C 0.38130 0.91910 -0.06105
 H565 H 0.34868 0.78034 -0.12760
 H566 H 0.38007 0.82227 -0.08715
 H567 H 0.27947 0.88277 -0.07772
 H568 H 0.24794 0.84059 -0.11831
 H569 H 0.32948 0.87692 -0.17781
 H570 H 0.36074 0.91882 -0.13748
 C571 C 0.80978 0.32997 0.35848
 C572 C 0.84276 0.30954 0.37608
 C573 C 0.85935 0.33258 0.39778
 C574 C 0.84142 0.37392 0.39987
 C575 C 0.79723 0.36704 0.40452
 C576 C 0.78057 0.34391 0.38273
 C577 C 0.82842 0.36776 0.34620
 C578 C 0.84498 0.39075 0.36785
 C579 C 0.79282 0.30565 0.33425
 C580 C 0.78047 0.28737 0.31286
 C581 C 0.86115 0.39886 0.42248
 C582 C 0.88161 0.41857 0.43889
 H583 H 0.85216 0.27955 0.37195
 H584 H 0.88296 0.32223 0.41220
 H585 H 0.78056 0.37916 0.42321
 H586 H 0.74963 0.33622 0.38281
 H587 H 0.82855 0.37582 0.32248
 H588 H 0.85921 0.41847 0.36262
 C589 C 1.16476 0.30845 0.14560
 C590 C 1.14875 0.27918 0.12218
 C591 C 1.12565 0.29620 0.10054
 C592 C 1.12087 0.34076 0.10451
 C593 C 1.16302 0.35690 0.10548
 C594 C 1.18603 0.33996 0.12703
 C595 C 1.12823 0.32910 0.15826
 C596 C 1.10526 0.34601 0.13675
 C597 C 1.18915 0.29119 0.16963
 C598 C 1.20763 0.27874 0.19085
 C599 C 1.09616 0.36087 0.08198
 C600 C 1.07705 0.38158 0.06537
 H601 H 1.15506 0.24794 0.12253
 H602 H 1.11215 0.27954 0.08241
 H603 H 1.17390 0.37961 0.09044
 H604 H 1.21654 0.34814 0.13042
 H605 H 1.12096 0.33025 0.18211
 H606 H 1.07835 0.36157 0.14223
 C607 C 0.66627 0.80941 0.64489
 C608 C 0.65027 0.77991 0.62164
 C609 C 0.62702 0.79668 0.59998
 C610 C 0.62211 0.84125 0.60375
 C611 C 0.66422 0.85754 0.60456
 C612 C 0.68737 0.84084 0.62613
 C613 C 0.62973 0.83004 0.65754
 C614 C 0.60662 0.84670 0.63601
 C615 C 0.69077 0.79236 0.66896
 C616 C 0.70922 0.77995 0.69022
 C617 C 0.59720 0.86110 0.58120
 C618 C 0.57790 0.88164 0.56460
 H619 H 0.65670 0.74870 0.62212
 H620 H 0.61354 0.77984 0.58194
 H621 H 0.67497 0.88015 0.58938
 H622 H 0.71787 0.84914 0.62941
 H623 H 0.62256 0.83138 0.68141
 H624 H 0.57969 0.86224 0.64148
 C625 C 1.16132 0.69570 -0.14421
 C626 C 1.14503 0.72497 -0.12090
 C627 C 1.12281 0.70777 -0.09878
 C628 C 1.11911 0.66302 -0.10219
 C629 C 1.16163 0.64797 -0.10352
 C630 C 1.18373 0.66510 -0.12553
 C631 C 1.12510 0.67388 -0.15619
 C632 C 1.10301 0.65678 -0.13420
 C633 C 1.18511 0.71304 -0.16863
 C634 C 1.20414 0.72519 -0.18972
 C635 C 1.09539 0.64260 -0.07912
 C636 C 1.07704 0.62150 -0.06225
 H637 H 1.15051 0.75636 -0.12168
 H638 H 1.10927 0.72442 -0.08067
 H639 H 1.17343 0.62587 -0.08835
 H640 H 1.21439 0.65769 -0.12916
 H641 H 1.11737 0.67211 -0.17993
 H642 H 1.07639 0.64044 -0.13917
 C643 C 0.66227 1.19466 0.35577
 C644 C 0.62645 1.17211 0.34389
 C645 C 0.60439 1.15524 0.36599
 C646 C 0.62010 1.16242 0.39800
 C647 C 0.62320 1.20728 0.40082
 C648 C 0.64539 1.22425 0.37859
 C649 C 0.68491 1.16478 0.37498
 C650 C 0.66282 1.14788 0.39710
 C651 C 0.68603 1.21179 0.33126
 C652 C 0.70510 1.22380 0.31015
 C653 C 0.59636 1.14225 0.42117
 C654 C 0.57787 1.12130 0.43806
 H655 H 0.61900 1.16966 0.32013
 H656 H 0.57806 1.13840 0.36110
 H657 H 0.60929 1.22416 0.41864
 H658 H 0.65047 1.25568 0.37741
 H659 H 0.71568 1.15766 0.37160
 H660 H 0.67475 1.12627 0.41263
 C661 C 0.82888 0.69344 0.14405
 C662 C 0.86397 0.66981 0.15596
 C663 C 0.88560 0.65235 0.13391
 C664 C 0.87022 0.66006 0.10188
 C665 C 0.86846 0.70499 0.09910
 C666 C 0.84670 0.72256 0.12129
 C667 C 0.80541 0.66427 0.12478
 C668 C 0.82708 0.64676 0.10267
 C669 C 0.80593 0.71133 0.16866
 C670 C 0.78837 0.72420 0.19021
 C671 C 0.89371 0.63944 0.07882
 C672 C 0.91240 0.61855 0.06205
 H673 H 0.87125 0.66705 0.17974
 H674 H 0.91138 0.63470 0.13886
 H675 H 0.88291 0.72149 0.08132
 H676 H 0.84252 0.75412 0.12247
 H677 H 0.77444 0.65800 0.12815
 H678 H 0.81460 0.62552 0.08711
 C679 C 0.32768 1.19268 0.64354
 C680 C 0.36336 1.16999 0.65550
 C681 C 0.38535 1.15290 0.63348
 C682 C 0.36971 1.16002 0.60145
 C683 C 0.36687 1.20488 0.59849
 C684 C 0.34474 1.22207 0.62064
 C685 C 0.30486 1.16283 0.62443
 C686 C 0.32690 1.14570 0.60236
 C687 C 0.30437 1.21019 0.66813
 C688 C 0.28668 1.22284 0.68970
 C689 C 0.39359 1.13976 0.57843
 C690 C 0.41256 1.11902 0.56173
 H691 H 0.37076 1.16757 0.67927
 H692 H 0.41156 1.13592 0.63846
 H693 H 0.38087 1.22160 0.58062
 H694 H 0.33980 1.25353 0.62170
 H695 H 0.27406 1.15585 0.62787
 H696 H 0.31490 1.12407 0.58690
 C697 C 0.84149 0.30332 -0.14959
 C698 C 0.88544 0.30692 -0.15695
 C699 C 0.90689 0.32452 -0.13474
 C700 C 0.88241 0.33687 -0.10722
 C701 C 0.86149 0.29919 -0.09690
 C702 C 0.83997 0.28154 -0.11919
 C703 C 0.82823 0.34530 -0.14238
 C704 C 0.84962 0.36285 -0.12022
 C705 C 0.81832 0.28544 -0.17414
 C706 C 0.79961 0.27290 -0.19526
 C707 C 0.90528 0.35769 -0.08386
 C708 C 0.92271 0.37894 -0.06652
 H709 H 0.89859 0.29647 -0.17778
 H710 H 0.93836 0.32906 -0.13658
 H711 H 0.86347 0.28740 -0.07419
 H712 H 0.82351 0.25466 -0.11551
 H713 H 0.80412 0.36003 -0.15374
 H714 H 0.84368 0.39259 -0.11263
 C715 C 0.33988 0.80408 0.35093
 C716 C 0.38017 0.81918 0.34056
 C717 C 0.40143 0.83661 0.36290
 C718 C 0.38049 0.83737 0.39359
 C719 C 0.37019 0.79427 0.40018
 C720 C 0.34881 0.77675 0.37773
 C721 C 0.31959 0.83989 0.36498
 C722 C 0.34085 0.85733 0.38730
 C723 C 0.31693 0.78639 0.32620
 C724 C 0.29835 0.77401 0.30495
 C725 C 0.40328 0.85806 0.41707
 C726 C 0.42080 0.87924 0.43440
 H727 H 0.39112 0.81631 0.31764
 H728 H 0.43056 0.84860 0.35906
 H729 H 0.37885 0.77893 0.42060
 H730 H 0.33918 0.74641 0.37897
 H731 H 0.29089 0.85052 0.35810
 H732 H 0.33026 0.88290 0.39948
 C733 C 1.14606 1.17029 0.33179
 C734 C 1.11903 1.19675 0.35058
 C735 C 1.09495 1.17636 0.36942
 C736 C 1.10052 1.13173 0.36738
 C737 C 1.14434 1.12475 0.37348
 C738 C 1.16835 1.14510 0.35471
 C739 C 1.11855 1.14182 0.31520
 C740 C 1.09446 1.12142 0.33404
 C741 C 1.17202 1.19159 0.31186
 C742 C 1.19366 1.20855 0.29518
 C743 C 1.07603 1.10972 0.38801
 C744 C 1.05886 1.09118 0.40669
 H745 H 1.11872 1.22857 0.34912
 H746 H 1.07391 1.19062 0.38423
 H747 H 1.15553 1.10553 0.39105
 H748 H 1.20015 1.14341 0.35609
 H749 H 1.11797 1.13815 0.29086
 H750 H 1.07312 1.10020 0.32595
 C751 C 0.64563 0.67152 -0.16861
 C752 C 0.61767 0.64350 -0.18522
 C753 C 0.59362 0.62296 -0.16639
 C754 C 0.60009 0.63266 -0.13297
 C755 C 0.59495 0.67732 -0.13052
 C756 C 0.61899 0.69784 -0.14935
 C757 C 0.66793 0.64576 -0.14605
 C758 C 0.64396 0.62529 -0.12729
 C759 C 0.67169 0.69302 -0.18859
 C760 C 0.69350 0.71000 -0.20526
 C761 C 0.57559 0.61044 -0.11225
 C762 C 0.55853 0.59168 -0.09351
 H763 H 0.61678 0.64017 -0.20959
 H764 H 0.57206 0.60200 -0.17453
 H765 H 0.57420 0.69152 -0.11545
 H766 H 0.61890 0.72969 -0.15050
 H767 H 0.69973 0.64378 -0.14490
 H768 H 0.65521 0.60566 -0.11000
 C769 C 0.83141 1.14399 0.66644
 C770 C 0.86085 1.11771 0.68319
 C771 C 0.88012 1.09221 0.66477
 C772 C 0.86783 1.09579 0.63161
 C773 C 0.87440 1.13908 0.62335
 C774 C 0.85518 1.16450 0.64172
 C775 C 0.80386 1.11566 0.64980
 C776 C 0.82313 1.09016 0.63136
 C777 C 0.81127 1.17128 0.68601
 C778 C 0.79501 1.19361 0.70255
 C779 C 0.88880 1.06986 0.61138
 C780 C 0.90688 1.05184 0.59291
 H781 H 0.86601 1.11895 0.70736
 H782 H 0.90183 1.07148 0.67303
 H783 H 0.89249 1.14891 0.60461
 H784 H 0.85667 1.19614 0.63883
 H785 H 0.77213 1.11560 0.65231
 H786 H 0.80801 1.06813 0.61799
 C787 C 0.33052 0.64419 0.16701
 C788 C 0.36056 0.61852 0.18372
 C789 C 0.38031 0.59333 0.16529
 C790 C 0.36790 0.59649 0.13213
 C791 C 0.37355 0.63990 0.12381
 C792 C 0.35386 0.66501 0.14218
 C793 C 0.30356 0.61520 0.15045
 C794 C 0.32330 0.59002 0.13201
 C795 C 0.30979 0.67135 0.18658
 C796 C 0.29321 0.69378 0.20302
 C797 C 0.38932 0.57076 0.11179
 C798 C 0.40752 0.55279 0.09324
 H799 H 0.36576 0.61993 0.20788
 H800 H 0.40245 0.57307 0.17357
 H801 H 0.39147 0.65004 0.10507
 H802 H 0.35481 0.69667 0.13925
 H803 H 0.27187 0.61443 0.15306
 H804 H 0.30858 0.56761 0.11876
 C805 C 1.17297 0.85165 0.66997
 C806 C 1.14110 0.87669 0.68510
 C807 C 1.12220 0.90105 0.66558
 C808 C 1.13725 0.89771 0.63308
 C809 C 1.13331 0.85409 0.62490
 C810 C 1.15217 0.82979 0.64437
 C811 C 1.20048 0.88103 0.65438
 C812 C 1.18157 0.90542 0.63485
 C813 C 1.19276 0.82547 0.69063
 C814 C 1.20883 0.80379 0.70778
 C815 C 1.11664 0.92249 0.61181
 C816 C 1.09874 0.93983 0.59286
 H817 H 1.13405 0.87542 0.70898
 H818 H 1.09891 0.92080 0.67264
 H819 H 1.11720 0.84324 0.60546
 H820 H 1.15231 0.79810 0.64172
 H821 H 1.23192 0.88256 0.65834
 H822 H 1.19670 0.92795 0.62198
 C823 C 0.67525 0.35146 0.17000
 C824 C 0.64208 0.37515 0.18481
 C825 C 0.62295 0.39929 0.16523
 C826 C 0.63901 0.39719 0.13294
 C827 C 0.63683 0.35361 0.12422
 C828 C 0.65592 0.32953 0.14375
 C829 C 0.70217 0.38211 0.15524
 C830 C 0.68301 0.40628 0.13565
 C831 C 0.69529 0.32531 0.19077
 C832 C 0.71134 0.30346 0.20793
 C833 C 0.61807 0.42181 0.11154
 C834 C 0.59986 0.43900 0.09256
 H835 H 0.63438 0.37318 0.20855
 H836 H 0.59881 0.41810 0.17212
 H837 H 0.62164 0.34263 0.10439
 H838 H 0.65719 0.29791 0.14071
 H839 H 0.73340 0.38462 0.15980
 H840 H 0.69776 0.42959 0.12335
 C841 C 0.85244 0.82870 0.33189
 C842 C 0.88244 0.80057 0.34607
 C843 C 0.90810 0.81877 0.36502
 C844 C 0.90093 0.86309 0.36768
 C845 C 0.85782 0.86718 0.37739
 C846 C 0.83224 0.84902 0.35849
 C847 C 0.87692 0.86072 0.31639
 C848 C 0.90256 0.87891 0.33533
 C849 C 0.82504 0.80962 0.31179
 C850 C 0.80270 0.79392 0.29494
 C851 C 0.92708 0.88297 0.38838
 C852 C 0.94542 0.90039 0.40704
 H853 H 0.88342 0.76922 0.34163
 H854 H 0.93118 0.80312 0.37691
 H855 H 0.84823 0.88288 0.39741
 H856 H 0.80071 0.84905 0.36223
 H857 H 0.87439 0.86836 0.29267
 H858 H 0.92213 0.90218 0.32793
 C859 C 0.35268 0.32707 -0.16843
 C860 C 0.38337 0.29923 -0.15475
 C861 C 0.40894 0.31751 -0.13575
 C862 C 0.40109 0.36166 -0.13247
 C863 C 0.35800 0.36479 -0.12248
 C864 C 0.33251 0.34656 -0.14143
 C865 C 0.37645 0.35984 -0.18367
 C866 C 0.40202 0.37811 -0.16468
 C867 C 0.32518 0.30784 -0.18860
 C868 C 0.30264 0.29215 -0.20542
 C869 C 0.42721 0.38167 -0.11161
 C870 C 0.44543 0.39926 -0.09287
 H871 H 0.38489 0.26802 -0.15960
 H872 H 0.43248 0.30205 -0.12425
 H873 H 0.34836 0.37999 -0.10225
 H874 H 0.30102 0.34606 -0.13751
 H875 H 0.37350 0.36793 -0.20728
 H876 H 0.42107 0.40188 -0.17193
 C877 C 1.16485 0.30807 -0.14521
 C878 C 1.12860 0.32911 -0.15797
 C879 C 1.10564 0.34615 -0.13652
 C880 C 1.12097 0.34064 -0.10422
 C881 C 1.16329 0.35638 -0.10501
 C882 C 1.18628 0.33930 -0.12649
 C883 C 1.14840 0.27887 -0.12190
 C884 C 1.12530 0.29602 -0.10032
 C885 C 1.18924 0.29066 -0.16919
 C886 C 1.20770 0.27810 -0.19039
 C887 C 1.09631 0.36088 -0.08172
 C888 C 1.07729 0.38162 -0.06506
 H889 H 1.12150 0.33039 -0.18185
 H890 H 1.07890 0.36197 -0.14207
 H891 H 1.17429 0.37891 -0.08987
 H892 H 1.21689 0.34720 -0.12974
 H893 H 1.15440 0.24757 -0.12229
 H894 H 1.11152 0.27943 -0.08228
 C895 C 0.66576 0.80871 0.35523
 C896 C 0.63088 0.83205 0.34261
 C897 C 0.60811 0.84894 0.36424
 C898 C 0.62225 0.84100 0.39656
 C899 C 0.66523 0.85485 0.39695
 C900 C 0.68805 0.83791 0.37527
 C901 C 0.64737 0.77906 0.37731
 C902 C 0.62446 0.79607 0.39907
 C903 C 0.68993 0.79143 0.33108
 C904 C 0.70828 0.77896 0.30979
 C905 C 0.59770 0.86107 0.41921
 C906 C 0.57857 0.88173 0.43583
 H907 H 0.62456 0.83501 0.31869
 H908 H 0.58232 0.86632 0.35879
 H909 H 0.67677 0.87605 0.41296
 H910 H 0.71905 0.84460 0.37272
 H911 H 0.65199 0.74757 0.37599
 H912 H 0.60947 0.77916 0.41635
 C913 C 0.82881 0.69350 -0.14390
 C914 C 0.86398 0.67018 -0.15605
 C915 C 0.88596 0.65285 -0.13414
 C916 C 0.87083 0.66035 -0.10202
 C917 C 0.82779 0.64671 -0.10257
 C918 C 0.80576 0.66410 -0.12453
 C919 C 0.84662 0.72271 -0.12121
 C920 C 0.86873 0.70526 -0.09917
 C921 C 0.80549 0.71128 -0.16837
 C922 C 0.78780 0.72415 -0.18986
 C923 C 0.89466 0.63984 -0.07911
 C924 C 0.91355 0.61896 -0.06246
 H925 H 0.87107 0.66755 -0.17986
 H926 H 0.91185 0.63544 -0.13925
 H927 H 0.81563 0.62533 -0.08697
 H928 H 0.77482 0.65760 -0.12772
 H929 H 0.84218 0.75424 -0.12234
 H930 H 0.88324 0.72184 -0.08147
 C931 C 0.32816 1.19340 0.35671
 C932 C 0.36295 1.16932 0.34481
 C933 C 0.38467 1.15206 0.36690
 C934 C 0.36968 1.16040 0.39895
 C935 C 0.32644 1.14742 0.39857
 C936 C 0.30467 1.16473 0.37642
 C937 C 0.34644 1.22276 0.37906
 C938 C 0.36829 1.20539 0.40129
 C939 C 0.30509 1.21107 0.33206
 C940 C 0.28748 1.22381 0.31049
 C941 C 0.39326 1.13996 0.42204
 C942 C 0.41208 1.11911 0.43876
 H943 H 0.36997 1.16612 0.32102
 H944 H 0.41027 1.13415 0.36197
 H945 H 0.31397 1.12652 0.41441
 H946 H 0.27363 1.15864 0.37331
 H947 H 0.34250 1.25433 0.37758
 H948 H 0.38307 1.22207 0.41881
 C949 C 1.16090 0.69548 0.14456
 C950 C 1.15753 0.72043 0.11572
 C951 C 1.13528 0.70336 0.09357
 C952 C 1.11861 0.66305 0.10249
 C953 C 1.09614 0.67033 0.13201
 C954 C 1.11830 0.68732 0.15406
 C955 C 1.17674 0.65571 0.13386
 C956 C 1.15462 0.63874 0.11184
 C957 C 1.18474 0.71268 0.16900
 C958 C 1.20382 0.72473 0.19009
 C959 C 1.09481 0.64276 0.07941
 C960 C 1.07634 0.62172 0.06259
 H961 H 1.17141 0.74890 0.11294
 H962 H 1.13009 0.71723 0.07187
 H963 H 1.06542 0.66291 0.13529
 H964 H 1.10651 0.69438 0.17617
 H965 H 1.20314 0.64208 0.14274
 H966 H 1.16220 0.61057 0.10192
 C967 C 0.66261 1.19422 0.64415
 C968 C 0.64528 1.22402 0.62169
 C969 C 0.62288 1.20722 0.59951
 C970 C 0.62006 1.16231 0.60201
 C971 C 0.60483 1.15461 0.63409
 C972 C 0.62709 1.17130 0.65614
 C973 C 0.68517 1.16474 0.62453
 C974 C 0.66288 1.14801 0.60245
 C975 C 0.68651 1.21119 0.66864
 C976 C 0.70554 1.22315 0.68978
 C977 C 0.59606 1.14233 0.57891
 C978 C 0.57736 1.12149 0.56209
 H979 H 0.65026 1.25546 0.62304
 H980 H 0.60870 1.22426 0.58190
 H981 H 0.57868 1.13753 0.63907
 H982 H 0.61999 1.16845 0.67994
 H983 H 0.71603 1.15777 0.62760
 H984 H 0.67472 1.12670 0.58665
 C985 C 0.84179 0.30300 0.14958
 C986 C 0.87655 0.32738 0.16118
 C987 C 0.89774 0.34496 0.13889
 C988 C 0.88228 0.33661 0.10698
 C989 C 0.83892 0.34913 0.10786
 C990 C 0.81772 0.33152 0.13017
 C991 C 0.85995 0.27392 0.12696
 C992 C 0.88126 0.29160 0.10454
 C993 C 0.81885 0.28514 0.17426
 C994 C 0.80023 0.27267 0.19546
 C995 C 0.90495 0.35746 0.08351
 C996 C 0.92225 0.37872 0.06609
 H997 H 0.88395 0.33049 0.18490
 H998 H 0.92327 0.36307 0.14359
 H999 H 0.82594 0.36992 0.09218
 H1000 H 0.78665 0.33723 0.13355
 H1001 H 0.85634 0.24230 0.12840
 H1002 H 0.89589 0.27514 0.08683
 C1003 C 0.33973 0.80445 0.64914
 C1004 C 0.35941 0.77503 0.62757
 C1005 C 0.38091 0.79241 0.60512
 C1006 C 0.38058 0.83750 0.60649
 C1007 C 0.39478 0.84756 0.63846
 C1008 C 0.37340 0.83028 0.66077
 C1009 C 0.31547 0.83148 0.62863
 C1010 C 0.33687 0.84880 0.60629
 C1011 C 0.31665 0.78688 0.67386
 C1012 C 0.29804 0.77455 0.69511
 C1013 C 0.40348 0.85805 0.58301
 C1014 C 0.42105 0.87914 0.56564
 H1015 H 0.35665 0.74339 0.62970
 H1016 H 0.39654 0.77568 0.58808
 H1017 H 0.41963 0.86660 0.64318
 H1018 H 0.37997 0.83457 0.68454
 H1019 H 0.28416 0.83642 0.63132
 H1020 H 0.32382 0.86859 0.58989
 C1021 C 0.30260 1.16266 -0.14642
 C1022 C 0.32737 1.12802 -0.15771
 C1023 C 0.34497 1.10723 -0.13521
 C1024 C 0.33625 1.12293 -0.10342
 C1025 C 0.29122 1.12357 -0.10118
 C1026 C 0.27351 1.14448 -0.12380
 C1027 C 0.33078 1.18718 -0.12704
 C1028 C 0.34842 1.16637 -0.10451
 C1029 C 0.28468 1.18513 -0.17135
 C1030 C 0.27215 1.20339 -0.19272
 C1031 C 0.35714 1.10052 -0.07980
 C1032 C 0.37842 1.08295 -0.06256
 H1033 H 0.33074 1.12040 -0.18137
 H1034 H 0.36336 1.08183 -0.13969
 H1035 H 0.27474 1.10900 -0.08344
 H1036 H 0.24186 1.14778 -0.12540
 H1037 H 0.33627 1.21825 -0.13060
 H1038 H 0.36899 1.17968 -0.08883
 C1039 C 0.80353 0.66390 0.35397
 C1040 C 0.83128 0.68824 0.37384
 C1041 C 0.84867 0.66715 0.39633
 C1042 C 0.83669 0.62364 0.39690
 C1043 C 0.84600 0.60850 0.36504
 C1044 C 0.82865 0.62957 0.34259
 C1045 C 0.77417 0.64521 0.37614
 C1046 C 0.79163 0.62403 0.39873
 C1047 C 0.78585 0.68661 0.32908
 C1048 C 0.77342 0.70495 0.30773
 C1049 C 0.85728 0.60093 0.42048
 C1050 C 0.87841 0.58314 0.43769
 H1051 H 0.83666 0.71939 0.37062
 H1052 H 0.86894 0.68031 0.41232
 H1053 H 0.86461 0.58329 0.36050
 H1054 H 0.83246 0.62236 0.31889
 H1055 H 0.74254 0.64839 0.37428
 H1056 H 0.77495 0.60910 0.41617
 C1057 C 0.69394 1.16849 0.14667
 C1058 C 0.72130 1.15860 0.12009
 C1059 C 0.70369 1.13673 0.09798
 C1060 C 0.66049 1.12694 0.10467
 C1061 C 0.64078 1.16690 0.11024
 C1062 C 0.65831 1.18866 0.13224
 C1063 C 0.67851 1.12863 0.15767
 C1064 C 0.66100 1.10688 0.13569
 C1065 C 0.71185 1.19159 0.17121
 C1066 C 0.72476 1.20917 0.19274
 C1067 C 0.63978 1.10343 0.08166
 C1068 C 0.61880 1.08499 0.06479
 H1069 H 0.75173 1.16798 0.11875
 H1070 H 0.71903 1.12738 0.07774
 H1071 H 0.61531 1.17729 0.09783
 H1072 H 0.64785 1.21760 0.13865
 H1073 H 0.68123 1.11829 0.18077
 H1074 H 0.64879 1.07796 0.14000
 C1075 C 1.19301 0.66874 0.64704
 C1076 C 1.16688 0.69276 0.62571
 C1077 C 1.14945 0.67084 0.60370
 C1078 C 1.15981 0.62694 0.60508
 C1079 C 1.14888 0.61425 0.63725
 C1080 C 1.16625 0.63612 0.65920
 C1081 C 1.22237 0.64755 0.62626
 C1082 C 1.20489 0.62556 0.60417
 C1083 C 1.21079 0.69200 0.67152
 C1084 C 1.22360 0.70982 0.69297
 C1085 C 1.13928 0.60334 0.58206
 C1086 C 1.11841 0.58485 0.56514
 H1087 H 1.16254 0.72424 0.62764
 H1088 H 1.13020 0.68363 0.58681
 H1089 H 1.12918 0.59007 0.64236
 H1090 H 1.16138 0.63062 0.68306
 H1091 H 1.25403 0.64971 0.62864
 H1092 H 1.22157 0.60890 0.58768
 C1093 C 0.69475 0.84294 -0.14720
 C1094 C 0.67130 0.87802 -0.15936
 C1095 C 0.65434 0.90028 -0.13741
 C1096 C 0.66233 0.88549 -0.10526
 C1097 C 0.70730 0.88332 -0.10283
 C1098 C 0.72436 0.86093 -0.12490
 C1099 C 0.66562 0.82020 -0.12738
 C1100 C 0.64863 0.84248 -0.10542
 C1101 C 0.71199 0.81891 -0.17154
 C1102 C 0.72410 0.79967 -0.19252
 C1103 C 0.64209 0.90929 -0.08215
 C1104 C 0.62115 0.92744 -0.06503
 H1105 H 0.66832 0.88485 -0.18320
 H1106 H 0.63691 0.92615 -0.14252
 H1107 H 0.72419 0.89797 -0.08537
 H1108 H 0.75587 0.85644 -0.12630
 H1109 H 0.65906 0.78923 -0.13025
 H1110 H 0.62751 0.83050 -0.08952
 C1111 C 1.19401 0.34201 0.35329
 C1112 C 1.17279 0.37850 0.34116
 C1113 C 1.15611 0.40104 0.36306
 C1114 C 1.16212 0.38506 0.39513
 C1115 C 1.20681 0.38060 0.39854
 C1116 C 1.22359 0.35794 0.37651
 C1117 C 1.16304 0.32026 0.37208
 C1118 C 1.14633 0.34281 0.39400
 C1119 C 1.21096 0.31775 0.32900
 C1120 C 1.22294 0.29844 0.30802
 C1121 C 1.14215 0.40917 0.41817
 C1122 C 1.12130 0.42753 0.43520
 H1123 H 1.17107 0.38604 0.31737
 H1124 H 1.14017 0.42786 0.35798
 H1125 H 1.22371 0.39394 0.41660
 H1126 H 1.25488 0.35188 0.37575
 H1127 H 1.15508 0.28973 0.36859
 H1128 H 1.12404 0.33150 0.40923
 C1129 C 0.30876 0.83047 0.14165
 C1130 C 0.34522 0.81184 0.12722
 C1131 C 0.36206 0.83454 0.10544
 C1132 C 0.34088 0.87380 0.10009
 C1133 C 0.33941 0.89341 0.13125
 C1134 C 0.32260 0.87074 0.15300
 C1135 C 0.28122 0.83967 0.11504
 C1136 C 0.29813 0.86248 0.09315
 C1137 C 0.29156 0.80649 0.16599
 C1138 C 0.27908 0.78844 0.18744
 C1139 C 0.36088 0.89843 0.07741
 C1140 C 0.38150 0.91802 0.06103
 H1141 H 0.35670 0.78322 0.13345
 H1142 H 0.38798 0.82528 0.09306
 H1143 H 0.35051 0.92271 0.13583
 H1144 H 0.31937 0.88065 0.17617
 H1145 H 0.25119 0.82914 0.11350
 H1146 H 0.28259 0.87149 0.07291
 C1147 C 0.80926 0.33001 0.64161
 C1148 C 0.78082 0.34142 0.61609
 C1149 C 0.79762 0.36424 0.59416
 C1150 C 0.84116 0.37336 0.59997
 C1151 C 0.86078 0.33301 0.60385
 C1152 C 0.84405 0.31029 0.62568
 C1153 C 0.82553 0.36917 0.65334
 C1154 C 0.84222 0.39185 0.63155
 C1155 C 0.79218 0.30602 0.66597
 C1156 C 0.77981 0.28787 0.68740
 C1157 C 0.86102 0.39801 0.57725
 C1158 C 0.88156 0.41764 0.56086
 H1159 H 0.75029 0.33230 0.61528
 H1160 H 0.78148 0.37466 0.57461
 H1161 H 0.88561 0.32308 0.59049
 H1162 H 0.85454 0.28098 0.63098
 H1163 H 0.82401 0.37834 0.67679
 H1164 H 0.85495 0.42041 0.63638
 C1165 C 1.14354 1.17201 0.66792
 C1166 C 1.16344 1.13821 0.65103
 C1167 C 1.13881 1.11869 0.63218
 C1168 C 1.09676 1.13498 0.63211
 C1169 C 1.10112 1.17870 0.62437
 C1170 C 1.12583 1.19826 0.64328
 C1171 C 1.10821 1.15344 0.68408
 C1172 C 1.08349 1.13386 0.66516
 C1173 C 1.17020 1.19246 0.68805
 C1174 C 1.19231 1.20875 0.70488
 C1175 C 1.07164 1.11355 0.61135
 C1176 C 1.05438 1.09493 0.59267
 H1177 H 1.19419 1.13039 0.65355
 H1178 H 1.14843 1.09403 0.61852
 H1179 H 1.08616 1.19300 0.60572
 H1180 H 1.13218 1.22934 0.64087
 H1181 H 1.10302 1.15559 0.70821
 H1182 H 1.05707 1.11919 0.67298
 C1183 C 0.64891 0.66937 0.16815
 C1184 C 0.63009 0.69449 0.14335
 C1185 C 0.60689 0.67347 0.12431
 C1186 C 0.60506 0.62961 0.13213
 C1187 C 0.59135 0.62776 0.16504
 C1188 C 0.61456 0.64880 0.18411
 C1189 C 0.67108 0.63675 0.15153
 C1190 C 0.64793 0.61575 0.13252
 C1191 C 0.67388 0.69137 0.18834
 C1192 C 0.69485 0.70880 0.20523
 C1193 C 0.58132 0.60712 0.11130
 C1194 C 0.56426 0.58856 0.09258
 H1195 H 0.63462 0.72588 0.14094
 H1196 H 0.59137 0.68682 0.10551
 H1197 H 0.56576 0.61151 0.17266
 H1198 H 0.60895 0.65067 0.20820
 H1199 H 0.70219 0.63075 0.15437
 H1200 H 0.65914 0.59160 0.11902
 C1201 C 1.17449 0.85397 0.32973
 C1202 C 1.13851 0.87428 0.31588
 C1203 C 1.12004 0.89918 0.33526
 C1204 C 1.13952 0.90117 0.36643
 C1205 C 1.18244 0.91239 0.36040
 C1206 C 1.20093 0.88745 0.34099
 C1207 C 1.15935 0.83366 0.35828
 C1208 C 1.14093 0.85851 0.37761
 C1209 C 1.19386 0.82705 0.30918
 C1210 C 1.20957 0.80475 0.29218
 C1211 C 1.11919 0.92650 0.38768
 C1212 C 1.10120 0.94390 0.40666
 H1213 H 1.12848 0.86956 0.29290
 H1214 H 1.09417 0.91592 0.32895
 H1215 H 1.19696 0.93761 0.37040
 H1216 H 1.23137 0.89123 0.33429
 H1217 H 1.16285 0.80254 0.36294
 H1218 H 1.12859 0.84869 0.39893
 C1219 C 0.67200 0.34827 -0.17037
 C1220 C 0.65421 0.38458 -0.18571
 C1221 C 0.63423 0.40831 -0.16634
 C1222 C 0.63425 0.39309 -0.13379
 C1223 C 0.67768 0.38799 -0.12539
 C1224 C 0.69763 0.36428 -0.14473
 C1225 C 0.63753 0.32763 -0.15483
 C1226 C 0.61759 0.35129 -0.13553
 C1227 C 0.69298 0.32282 -0.19085
 C1228 C 0.70986 0.30162 -0.20789
 C1229 C 0.61282 0.41731 -0.11264
 C1230 C 0.59489 0.43458 -0.09368
 H1231 H 0.65708 0.39106 -0.20961
 H1232 H 0.61990 0.43522 -0.17351
 H1233 H 0.69150 0.40174 -0.10600
 H1234 H 0.72859 0.35752 -0.14197
 H1235 H 0.62955 0.29714 -0.15859
 H1236 H 0.59236 0.34116 -0.12269
 C1237 C 0.82927 1.14120 0.33352
 C1238 C 0.85937 1.11543 0.31696
 C1239 C 0.87802 1.08936 0.33534
 C1240 C 0.86460 1.09183 0.36830
 C1241 C 0.81990 1.08619 0.36749
 C1242 C 0.80123 1.11227 0.34910
 C1243 C 0.85215 1.16089 0.35911
 C1244 C 0.87076 1.13490 0.37743
 C1245 C 0.80974 1.16927 0.31395
 C1246 C 0.79401 1.19226 0.29748
 C1247 C 0.88515 1.06529 0.38858
 C1248 C 0.90332 1.04715 0.40706
 H1249 H 0.86541 1.11743 0.29294
 H1250 H 0.90005 1.06893 0.32714
 H1251 H 0.80435 1.06374 0.38014
 H1252 H 0.76961 1.11226 0.34595
 H1253 H 0.85355 1.19243 0.36258
 H1254 H 0.88819 1.14419 0.39668
 C1255 C 0.33218 0.64754 -0.16645
 C1256 C 0.36172 0.62143 -0.18327
 C1257 C 0.38192 0.59675 -0.16477
 C1258 C 0.37037 0.60089 -0.13149
 C1259 C 0.32579 0.59444 -0.13053
 C1260 C 0.30560 0.61911 -0.14903
 C1261 C 0.35618 0.66908 -0.14238
 C1262 C 0.37634 0.64447 -0.12394
 C1263 C 0.31098 0.67401 -0.18605
 C1264 C 0.29397 0.69582 -0.20257
 C1265 C 0.39204 0.57566 -0.11118
 C1266 C 0.41009 0.55763 -0.09270
 H1267 H 0.36628 0.62222 -0.20752
 H1268 H 0.40386 0.57627 -0.17305
 H1269 H 0.31142 0.57241 -0.11667
 H1270 H 0.27383 0.61833 -0.15112
 H1271 H 0.35724 0.70080 -0.14002
 H1272 H 0.39480 0.65506 -0.10568
 C1273 C 0.85541 0.82728 0.66847
 C1274 C 0.88429 0.79837 0.65381
 C1275 C 0.91045 0.81596 0.63485
 C1276 C 0.90492 0.86057 0.63261
 C1277 C 0.90737 0.87573 0.66514
 C1278 C 0.88123 0.85815 0.68407
 C1279 C 0.83580 0.84879 0.64215
 C1280 C 0.86186 0.86634 0.62327
 C1281 C 0.82730 0.80881 0.68861
 C1282 C 0.80434 0.79362 0.70540
 C1283 C 0.93158 0.88003 0.61180
 C1284 C 0.94994 0.89752 0.59306
 H1285 H 0.88423 0.76694 0.65798
 H1286 H 0.93286 0.79968 0.62272
 H1287 H 0.92786 0.89812 0.67265
 H1288 H 0.87923 0.86547 0.70788
 H1289 H 0.80425 0.85005 0.63860
 H1290 H 0.85264 0.88270 0.60345
 C1291 C 0.35090 0.33001 0.16902
 C1292 C 0.37579 0.36160 0.18466
 C1293 C 0.40088 0.38038 0.16561
 C1294 C 0.39833 0.36550 0.13302
 C1295 C 0.35497 0.36986 0.12412
 C1296 C 0.32995 0.35111 0.14312
 C1297 C 0.38050 0.30234 0.15387
 C1298 C 0.40559 0.32112 0.13482
 C1299 C 0.32403 0.31023 0.18915
 C1300 C 0.30197 0.29402 0.20594
 C1301 C 0.42392 0.38579 0.11216
 C1302 C 0.44202 0.40312 0.09332
 H1303 H 0.37390 0.36854 0.20854
 H1304 H 0.42062 0.40347 0.17305
 H1305 H 0.34482 0.38625 0.10458
 H1306 H 0.29831 0.35132 0.13996
 H1307 H 0.38170 0.27089 0.15781
 H1308 H 0.42841 0.30587 0.12234
   
