data_POSCAR
  _audit_creation_date              2014-09-24
  _audit_creation_method            'ToBaCCo'
  _symmetry_space_group_name_H-M    'P1'
  _symmetry_Int_Tables_number       1
  _symmetry_cell_setting            triclinic
  loop_
  _symmetry_equiv_pos_as_xyz
 x,y,z
_cell_length_a 68.3935
_cell_length_b 68.4350
_cell_length_c 68.4164
_cell_angle_alpha 90.011500
_cell_angle_beta 90.004000
_cell_angle_gamma 89.943700
loop_
  _atom_site_label
  _atom_site_type_symbol
  _atom_site_fract_x
  _atom_site_fract_y
  _atom_site_fract_z
C1 C 0.20566 0.19604 0.22446
 C2 C 0.18982 0.19930 0.23708
 C3 C 0.17719 0.21512 0.23395
 C4 C 0.18029 0.22782 0.21820
 C5 C 0.19605 0.22478 0.20543
 C6 C 0.20881 0.20883 0.20855
 C7 C 0.21839 0.18024 0.22745
 C8 C 0.23415 0.17714 0.21474
 C9 C 0.23732 0.18978 0.19897
 C10 C 0.22473 0.20566 0.19576
 C11 C 0.22775 0.21842 0.18001
 C12 C 0.21507 0.23421 0.17695
 C13 C 0.19929 0.23739 0.18960
 H14 H 0.18728 0.18955 0.24932
 H15 H 0.17042 0.24002 0.21591
 H16 H 0.21607 0.17036 0.23962
 H17 H 0.24957 0.18724 0.18922
 H18 H 0.23993 0.21609 0.17012
 H19 H 0.18956 0.24967 0.18710
 C20 C 0.70545 0.69594 0.72465
 C21 C 0.68958 0.69913 0.73723
 C22 C 0.67689 0.71490 0.73408
 C23 C 0.67997 0.72761 0.71833
 C24 C 0.69577 0.72464 0.70560
 C25 C 0.70859 0.70874 0.70875
 C26 C 0.71824 0.68019 0.72766
 C27 C 0.73404 0.67715 0.71499
 C28 C 0.73719 0.68981 0.69922
 C29 C 0.72455 0.70564 0.69599
 C30 C 0.72755 0.71841 0.68024
 C31 C 0.71482 0.73415 0.67716
 C32 C 0.69899 0.73727 0.68978
 H33 H 0.68706 0.68937 0.74947
 H34 H 0.67005 0.73978 0.71602
 H35 H 0.71594 0.67029 0.73982
 H36 H 0.74947 0.68731 0.68949
 H37 H 0.73976 0.71613 0.67037
 H38 H 0.68922 0.74950 0.68725
 C39 C 0.29424 0.80478 0.72427
 C40 C 0.31005 0.80150 0.73692
 C41 C 0.32265 0.78565 0.73383
 C42 C 0.31957 0.77295 0.71807
 C43 C 0.30384 0.77601 0.70527
 C44 C 0.29109 0.79199 0.70836
 C45 C 0.28152 0.82060 0.72723
 C46 C 0.26577 0.82372 0.71450
 C47 C 0.26262 0.81106 0.69870
 C48 C 0.27521 0.79517 0.69553
 C49 C 0.27219 0.78239 0.67978
 C50 C 0.28485 0.76657 0.67677
 C51 C 0.30061 0.76338 0.68945
 H52 H 0.31257 0.81125 0.74917
 H53 H 0.32942 0.76072 0.71581
 H54 H 0.28387 0.83046 0.73943
 H55 H 0.25040 0.81357 0.68890
 H56 H 0.26003 0.78472 0.66987
 H57 H 0.31032 0.75108 0.68697
 C58 C 0.79519 0.30414 0.22449
 C59 C 0.81102 0.30095 0.23713
 C60 C 0.82369 0.28513 0.23404
 C61 C 0.82062 0.27239 0.21829
 C62 C 0.80485 0.27538 0.20551
 C63 C 0.79206 0.29132 0.20860
 C64 C 0.78242 0.31993 0.22743
 C65 C 0.76666 0.32298 0.21472
 C66 C 0.76353 0.31029 0.19896
 C67 C 0.77615 0.29444 0.19579
 C68 C 0.77315 0.28164 0.18006
 C69 C 0.78585 0.26585 0.17704
 C70 C 0.80164 0.26273 0.18970
 H71 H 0.81349 0.31076 0.24935
 H72 H 0.83048 0.26017 0.21599
 H73 H 0.78471 0.32984 0.23959
 H74 H 0.75128 0.31279 0.18920
 H75 H 0.76097 0.28392 0.17016
 H76 H 0.81138 0.25046 0.18723
 C77 C 0.79508 0.69621 0.27486
 C78 C 0.81093 0.69940 0.26225
 C79 C 0.82359 0.71519 0.26540
 C80 C 0.82049 0.72790 0.28118
 C81 C 0.80471 0.72491 0.29392
 C82 C 0.79193 0.70900 0.29078
 C83 C 0.78232 0.68045 0.27185
 C84 C 0.76655 0.67740 0.28454
 C85 C 0.76338 0.69005 0.30033
 C86 C 0.77599 0.70588 0.30355
 C87 C 0.77297 0.71864 0.31931
 C88 C 0.78567 0.73439 0.32240
 C89 C 0.80147 0.73752 0.30976
 H90 H 0.81342 0.68962 0.25001
 H91 H 0.83036 0.74009 0.28353
 H92 H 0.78463 0.67056 0.25968
 H93 H 0.75112 0.68754 0.31006
 H94 H 0.76078 0.71634 0.32919
 H95 H 0.81121 0.74977 0.31229
 C96 C 0.29507 0.19604 -0.22460
 C97 C 0.31092 0.19925 -0.23720
 C98 C 0.32353 0.21508 -0.23407
 C99 C 0.32038 0.22781 -0.21833
 C100 C 0.30459 0.22481 -0.20559
 C101 C 0.29186 0.20885 -0.20872
 C102 C 0.28235 0.18024 -0.22759
 C103 C 0.26657 0.17718 -0.21491
 C104 C 0.26335 0.18985 -0.19916
 C105 C 0.27592 0.20572 -0.19595
 C106 C 0.27284 0.21851 -0.18023
 C107 C 0.28549 0.23431 -0.17717
 C108 C 0.30130 0.23745 -0.18979
 H109 H 0.31345 0.18944 -0.24941
 H110 H 0.33020 0.24004 -0.21599
 H111 H 0.28470 0.17033 -0.23974
 H112 H 0.25108 0.18734 -0.18943
 H113 H 0.26064 0.21622 -0.17036
 H114 H 0.31100 0.24973 -0.18728
 C115 C 0.70517 0.30366 -0.22462
 C116 C 0.68929 0.30047 -0.23720
 C117 C 0.67662 0.28469 -0.23402
 C118 C 0.67974 0.27200 -0.21824
 C119 C 0.69555 0.27499 -0.20552
 C120 C 0.70834 0.29088 -0.20870
 C121 C 0.71794 0.31940 -0.22766
 C122 C 0.73375 0.32245 -0.21500
 C123 C 0.73693 0.30981 -0.19922
 C124 C 0.72430 0.29400 -0.19596
 C125 C 0.72734 0.28125 -0.18020
 C126 C 0.71464 0.26552 -0.17708
 C127 C 0.69881 0.26239 -0.18968
 H128 H 0.68679 0.31024 -0.24944
 H129 H 0.66988 0.25982 -0.21586
 H130 H 0.71562 0.32928 -0.23984
 H131 H 0.74921 0.31231 -0.18951
 H132 H 0.73956 0.28354 -0.17035
 H133 H 0.68906 0.25015 -0.18713
 C134 C 0.20545 0.80452 0.27541
 C135 C 0.18964 0.80127 0.26277
 C136 C 0.17700 0.78549 0.26592
 C137 C 0.18005 0.77283 0.28171
 C138 C 0.19579 0.77586 0.29450
 C139 C 0.20857 0.79177 0.29136
 C140 C 0.21821 0.82028 0.27240
 C141 C 0.23396 0.82338 0.28513
 C142 C 0.23708 0.81075 0.30096
 C143 C 0.22447 0.79492 0.30418
 C144 C 0.22745 0.78219 0.31996
 C145 C 0.21476 0.76644 0.32303
 C146 C 0.19899 0.76327 0.31036
 H147 H 0.18713 0.81098 0.25049
 H148 H 0.17017 0.76065 0.28401
 H149 H 0.21588 0.83011 0.26018
 H150 H 0.24931 0.81324 0.31076
 H151 H 0.23962 0.78450 0.32987
 H152 H 0.18925 0.75102 0.31287
 C153 C 0.44626 0.45537 0.47475
 C154 C 0.44946 0.43951 0.48734
 C155 C 0.46528 0.42688 0.48420
 C156 C 0.47802 0.42998 0.46848
 C157 C 0.47504 0.44577 0.45575
 C158 C 0.45909 0.45854 0.45887
 C159 C 0.43047 0.46812 0.47774
 C160 C 0.42741 0.48391 0.46507
 C161 C 0.44010 0.48709 0.44932
 C162 C 0.45597 0.47449 0.44611
 C163 C 0.46877 0.47752 0.43039
 C164 C 0.48456 0.46483 0.42733
 C165 C 0.48769 0.44902 0.43995
 H166 H 0.43969 0.43697 0.49956
 H167 H 0.49023 0.42010 0.46619
 H168 H 0.42055 0.46579 0.48989
 H169 H 0.43759 0.49936 0.43960
 H170 H 0.46648 0.48972 0.42053
 H171 H 0.49997 0.43928 0.43744
 C172 C -0.05443 -0.04482 0.97418
 C173 C -0.05125 -0.06073 0.98672
 C174 C -0.03545 -0.07337 0.98355
 C175 C -0.02270 -0.07024 0.96785
 C176 C -0.02566 -0.05440 0.95516
 C177 C -0.04159 -0.04162 0.95832
 C178 C -0.07021 -0.03206 0.97721
 C179 C -0.07324 -0.01621 0.96459
 C180 C -0.06052 -0.01301 0.94884
 C181 C -0.04468 -0.02563 0.94561
 C182 C -0.03185 -0.02256 0.92991
 C183 C -0.01608 -0.03526 0.92682
 C184 C -0.01298 -0.05112 0.93939
 H185 H -0.06103 -0.06329 0.99893
 H186 H -0.01051 -0.08012 0.96553
 H187 H -0.08011 -0.03445 0.98937
 H188 H -0.06296 -0.00071 0.93913
 H189 H -0.03411 -0.01033 0.92008
 H190 H -0.00072 -0.06086 0.93686
 C191 C 1.05421 0.54462 0.97487
 C192 C 1.05097 0.56046 0.98748
 C193 C 1.03513 0.57309 0.98436
 C194 C 1.02241 0.56998 0.96860
 C195 C 1.02544 0.55421 0.95585
 C196 C 1.04140 0.54145 0.95897
 C197 C 1.07001 0.53189 0.97786
 C198 C 1.07311 0.51610 0.96517
 C199 C 1.06043 0.51294 0.94939
 C200 C 1.04456 0.52553 0.94619
 C201 C 1.03177 0.52250 0.93045
 C202 C 1.01597 0.53516 0.92739
 C203 C 1.01280 0.55095 0.94003
 H204 H 1.06076 0.56296 0.99971
 H205 H 1.01017 0.57982 0.96626
 H206 H 1.07989 0.53425 0.99005
 H207 H 1.06292 0.50069 0.93961
 H208 H 1.03409 0.51031 0.92057
 H209 H 1.00051 0.56067 0.93752
 C210 C 0.55472 0.04457 0.47456
 C211 C 0.55153 0.06043 0.48716
 C212 C 0.53571 0.07307 0.48406
 C213 C 0.52296 0.06998 0.46834
 C214 C 0.52593 0.05420 0.45559
 C215 C 0.54187 0.04141 0.45869
 C216 C 0.57050 0.03181 0.47754
 C217 C 0.57354 0.01600 0.46486
 C218 C 0.56082 0.01284 0.44911
 C219 C 0.54496 0.02547 0.44592
 C220 C 0.53214 0.02244 0.43021
 C221 C 0.51635 0.03514 0.42718
 C222 C 0.51325 0.05096 0.43981
 H223 H 0.56131 0.06296 0.49939
 H224 H 0.51075 0.07986 0.46608
 H225 H 0.58041 0.03416 0.48971
 H226 H 0.56325 0.00057 0.43935
 H227 H 0.53440 0.01024 0.42034
 H228 H 0.50097 0.06069 0.43732
 C229 C -0.05460 0.04505 0.52562
 C230 C -0.05140 0.06090 0.51302
 C231 C -0.03561 0.07353 0.51618
 C232 C -0.02289 0.07043 0.53193
 C233 C -0.02588 0.05466 0.54467
 C234 C -0.04180 0.04189 0.54153
 C235 C -0.07037 0.03230 0.52260
 C236 C -0.07342 0.01652 0.53528
 C237 C -0.06076 0.01335 0.55106
 C238 C -0.04492 0.02595 0.55429
 C239 C -0.03214 0.02293 0.57004
 C240 C -0.01638 0.03561 0.57312
 C241 C -0.01325 0.05141 0.56050
 H242 H -0.06115 0.06343 0.50078
 H243 H -0.01071 0.08030 0.53424
 H244 H -0.08026 0.03462 0.51043
 H245 H -0.06326 0.00109 0.56078
 H246 H -0.03442 0.01073 0.57991
 H247 H -0.00099 0.06114 0.56302
 C248 C 0.44583 0.54490 0.02527
 C249 C 0.44905 0.56071 0.01264
 C250 C 0.46487 0.57335 0.01576
 C251 C 0.47759 0.57025 0.03153
 C252 C 0.47457 0.55450 0.04430
 C253 C 0.45864 0.54175 0.04118
 C254 C 0.43005 0.53216 0.02228
 C255 C 0.42698 0.51642 0.03499
 C256 C 0.43963 0.51326 0.05078
 C257 C 0.45549 0.52585 0.05398
 C258 C 0.46827 0.52283 0.06973
 C259 C 0.48405 0.53550 0.07279
 C260 C 0.48720 0.55127 0.06013
 H261 H 0.43926 0.56320 0.00040
 H262 H 0.48980 0.58009 0.03386
 H263 H 0.42015 0.53447 0.01011
 H264 H 0.43711 0.50103 0.06053
 H265 H 0.46596 0.51067 0.07963
 H266 H 0.49947 0.56099 0.06264
 C267 C 0.55434 -0.04484 0.02583
 C268 C 0.55109 -0.06066 0.01321
 C269 C 0.53531 -0.07330 0.01639
 C270 C 0.52266 -0.07024 0.03220
 C271 C 0.52570 -0.05450 0.04497
 C272 C 0.54160 -0.04172 0.04180
 C273 C 0.57010 -0.03209 0.02280
 C274 C 0.57320 -0.01634 0.03551
 C275 C 0.56060 -0.01321 0.05135
 C276 C 0.54477 -0.02582 0.05460
 C277 C 0.53205 -0.02283 0.07041
 C278 C 0.51630 -0.03552 0.07351
 C279 C 0.51313 -0.05129 0.06085
 H280 H 0.56080 -0.06316 0.00092
 H281 H 0.51049 -0.08012 0.03452
 H282 H 0.57995 -0.03437 0.01058
 H283 H 0.56314 -0.00097 0.06110
 H284 H 0.53438 -0.01066 0.08030
 H285 H 0.50088 -0.06103 0.06339
 C286 C 1.05371 0.45538 0.52484
 C287 C 1.05047 0.43958 0.51219
 C288 C 1.03469 0.42691 0.51535
 C289 C 1.02203 0.42996 0.53118
 C290 C 1.02507 0.44569 0.54396
 C291 C 1.04097 0.45848 0.54081
 C292 C 1.06947 0.46814 0.52183
 C293 C 1.07257 0.48386 0.53456
 C294 C 1.05997 0.48697 0.55040
 C295 C 1.04414 0.47436 0.55363
 C296 C 1.03143 0.47732 0.56945
 C297 C 1.01569 0.46462 0.57254
 C298 C 1.01250 0.44887 0.55986
 H299 H 1.06022 0.43713 0.49991
 H300 H 1.00984 0.42010 0.53354
 H301 H 1.07932 0.46587 0.50961
 H302 H 1.06251 0.49919 0.56017
 H303 H 1.03376 0.48947 0.57936
 H304 H 1.00026 0.43913 0.56239
 C305 C 0.40474 0.00852 0.22429
 H306 H 0.40551 0.02176 0.23291
 C307 C 0.41756 0.00576 0.20864
 H308 H 0.42822 0.01691 0.20512
 C309 C 0.39010 -0.02235 0.21848
 H310 H 0.37960 -0.03341 0.22253
 C311 C 0.40265 -0.02570 0.20272
 H312 H 0.40165 -0.03923 0.19457
 N313 N 0.39121 -0.00535 0.22876
 C314 C 0.34478 0.02583 0.25946
 H315 H 0.34391 0.01726 0.27272
 C316 C 0.33207 0.04156 0.25663
 H317 H 0.32141 0.04521 0.26776
 C318 C 0.35954 0.03143 0.22859
 H319 H 0.37003 0.02726 0.21756
 C320 C 0.34710 0.04727 0.22518
 H321 H 0.34819 0.05538 0.21162
 Zn322 Zn 0.37470 -0.00057 0.25045
 N323 N 0.35831 0.02122 0.24562
 C324 C 0.38991 0.02122 0.28247
 N325 N 0.39105 0.00417 0.27228
 C326 C 0.40453 -0.00973 0.27688
 C327 C 0.41728 -0.00694 0.29257
 C328 C 0.40240 0.02460 0.29828
 C329 C 0.34480 -0.02685 0.24120
 C330 C 0.33203 -0.04252 0.24391
 C331 C 0.34681 -0.04834 0.27547
 C332 C 0.35932 -0.03255 0.27217
 N333 N 0.35825 -0.02231 0.25514
 H334 H 0.37947 0.03230 0.27831
 H335 H 0.40533 -0.02300 0.26832
 H336 H 0.42792 -0.01811 0.29620
 H337 H 0.40140 0.03818 0.30636
 H338 H 0.34406 -0.01826 0.22794
 H339 H 0.32143 -0.04610 0.23270
 H340 H 0.34778 -0.05646 0.28903
 H341 H 0.36974 -0.02845 0.28328
 C342 C 0.33330 0.05240 0.23936
 C343 C 0.41646 -0.01149 0.19775
 C344 C 0.33309 -0.05338 0.26119
 C345 C 0.41616 0.01036 0.30338
 C346 C 0.09536 -0.00894 0.72365
 H347 H 0.09458 -0.02219 0.73224
 C348 C 0.08255 -0.00616 0.70799
 H349 H 0.07190 -0.01732 0.70442
 C350 C 0.10998 0.02196 0.71792
 H351 H 0.12045 0.03301 0.72201
 C352 C 0.09744 0.02532 0.70215
 H353 H 0.09844 0.03886 0.69402
 N354 N 0.10887 0.00493 0.72816
 C355 C 0.15528 -0.02620 0.75893
 H356 H 0.15612 -0.01763 0.77219
 C357 C 0.16804 -0.04190 0.75611
 H358 H 0.17871 -0.04552 0.76724
 C359 C 0.14058 -0.03183 0.72803
 H360 H 0.13009 -0.02769 0.71699
 C361 C 0.15306 -0.04764 0.72463
 H362 H 0.15202 -0.05574 0.71106
 Zn363 Zn 0.12535 0.00016 0.74989
 N364 N 0.14176 -0.02162 0.74507
 C365 C 0.11013 -0.02161 0.78192
 N366 N 0.10897 -0.00459 0.77169
 C367 C 0.09548 0.00931 0.77626
 C368 C 0.08274 0.00655 0.79197
 C369 C 0.09766 -0.02496 0.79773
 C370 C 0.15524 0.02645 0.74070
 C371 C 0.16802 0.04212 0.74346
 C372 C 0.15320 0.04790 0.77501
 C373 C 0.14069 0.03212 0.77166
 N374 N 0.14178 0.02190 0.75462
 H375 H 0.12059 -0.03269 0.77778
 H376 H 0.09467 0.02256 0.76768
 H377 H 0.07210 0.01772 0.79558
 H378 H 0.09869 -0.03852 0.80585
 H379 H 0.15601 0.01788 0.72743
 H380 H 0.17863 0.04571 0.73227
 H381 H 0.15221 0.05600 0.78858
 H382 H 0.13025 0.02800 0.78275
 C383 C 0.16687 -0.05273 0.73882
 C384 C 0.08365 0.01110 0.69713
 C385 C 0.16693 0.05295 0.76075
 C386 C 0.08389 -0.01073 0.80282
 C387 C 0.59541 0.49107 0.22365
 H388 H 0.59463 0.47783 0.23224
 C389 C 0.58263 0.49383 0.20797
 H390 H 0.57199 0.48266 0.20439
 C391 C 0.61001 0.52198 0.21793
 H392 H 0.62047 0.53305 0.22203
 C393 C 0.59749 0.52532 0.20214
 H394 H 0.59849 0.53886 0.19400
 N395 N 0.60890 0.50496 0.22818
 C396 C 0.65537 0.47392 0.25898
 H397 H 0.65620 0.48253 0.27222
 C398 C 0.66813 0.45823 0.25619
 H399 H 0.67881 0.45465 0.26734
 C400 C 0.64064 0.46819 0.22811
 H401 H 0.63013 0.47229 0.21707
 C402 C 0.65313 0.45239 0.22474
 H403 H 0.65208 0.44424 0.21120
 Zn404 Zn 0.62539 0.50022 0.24990
 N405 N 0.64182 0.47845 0.24512
 C406 C 0.61023 0.47848 0.28197
 N407 N 0.60904 0.49549 0.27173
 C408 C 0.59555 0.50939 0.27633
 C409 C 0.58286 0.50664 0.29207
 C410 C 0.59781 0.47514 0.29783
 C411 C 0.65527 0.52650 0.24064
 C412 C 0.66802 0.54220 0.24334
 C413 C 0.65320 0.54807 0.27488
 C414 C 0.64072 0.53226 0.27160
 N415 N 0.64182 0.52198 0.25458
 H416 H 0.62069 0.46740 0.27782
 H417 H 0.59471 0.52263 0.26774
 H418 H 0.57223 0.51781 0.29570
 H419 H 0.59887 0.46160 0.30595
 H420 H 0.65603 0.51789 0.22740
 H421 H 0.67862 0.54577 0.23213
 H422 H 0.65222 0.55622 0.28842
 H423 H 0.63029 0.52816 0.28271
 C424 C 0.66695 0.44735 0.23894
 C425 C 0.58373 0.51109 0.19710
 C426 C 0.66692 0.55310 0.26059
 C427 C 0.58405 0.48938 0.30294
 C428 C 0.90486 0.50871 0.72388
 H429 H 0.90566 0.52195 0.73249
 C430 C 0.91761 0.50597 0.70817
 H431 H 0.92824 0.51713 0.70459
 C432 C 0.89022 0.47783 0.71813
 H433 H 0.87975 0.46676 0.72223
 C434 C 0.90270 0.47450 0.70232
 H435 H 0.90167 0.46096 0.69416
 N436 N 0.89136 0.49483 0.72841
 C437 C 0.84496 0.52591 0.75926
 H438 H 0.84412 0.51731 0.77250
 C439 C 0.83223 0.54164 0.75650
 H440 H 0.82158 0.54525 0.76766
 C441 C 0.85966 0.53161 0.72838
 H442 H 0.87014 0.52749 0.71732
 C443 C 0.84721 0.54745 0.72504
 H444 H 0.84827 0.55560 0.71150
 Zn445 Zn 0.87490 0.49957 0.75015
 N446 N 0.85848 0.52135 0.74539
 C447 C 0.89012 0.52134 0.78219
 N448 N 0.89128 0.50431 0.77196
 C449 C 0.90478 0.49042 0.77655
 C450 C 0.91751 0.49319 0.79227
 C451 C 0.90258 0.52470 0.79801
 C452 C 0.84500 0.47330 0.74093
 C453 C 0.83226 0.45760 0.74364
 C454 C 0.84713 0.45172 0.77514
 C455 C 0.85961 0.46754 0.77185
 N456 N 0.85848 0.47782 0.75485
 H457 H 0.87966 0.53242 0.77804
 H458 H 0.90560 0.47716 0.76796
 H459 H 0.92815 0.48203 0.79589
 H460 H 0.90154 0.53826 0.80613
 H461 H 0.84421 0.48192 0.72770
 H462 H 0.82164 0.45403 0.73244
 H463 H 0.84815 0.44356 0.78867
 H464 H 0.87006 0.47162 0.78294
 C465 C 0.83342 0.55253 0.73926
 C466 C 0.91646 0.48872 0.69727
 C467 C 0.83339 0.44670 0.76088
 C468 C 0.91634 0.51047 0.80311
 C469 C 0.22325 0.40541 0.00910
 H470 H 0.23185 0.40618 0.02235
 C471 C 0.20753 0.41817 0.00638
 H472 H 0.20393 0.42877 0.01757
 C473 C 0.21755 0.39085 -0.02185
 H474 H 0.22168 0.38042 -0.03295
 C475 C 0.20173 0.40334 -0.02516
 H476 H 0.19359 0.40235 -0.03871
 N477 N 0.22781 0.39196 -0.00483
 C478 C 0.25889 0.34563 0.02610
 H479 H 0.27213 0.34486 0.01748
 C480 C 0.25620 0.33285 0.04178
 H481 H 0.26741 0.32224 0.04534
 C482 C 0.22794 0.36019 0.03188
 H483 H 0.21682 0.37064 0.02780
 C484 C 0.22466 0.34768 0.04767
 H485 H 0.21111 0.34867 0.05583
 Zn486 Zn 0.24963 0.37556 -0.00014
 N487 N 0.24495 0.35910 0.02160
 C488 C 0.28164 0.39083 0.02163
 N489 N 0.27138 0.39198 0.00461
 C490 C 0.27590 0.40548 -0.00927
 C491 C 0.29160 0.41822 -0.00651
 C492 C 0.29745 0.40330 0.02497
 C493 C 0.24051 0.34570 -0.02652
 C494 C 0.24330 0.33296 -0.04223
 C495 C 0.27480 0.34786 -0.04799
 C496 C 0.27143 0.36033 -0.03217
 N497 N 0.25439 0.35918 -0.02195
 H498 H 0.27754 0.38036 0.03269
 H499 H 0.26729 0.40629 -0.02252
 H500 H 0.29518 0.42886 -0.01768
 H501 H 0.30559 0.40227 0.03851
 H502 H 0.22725 0.34488 -0.01794
 H503 H 0.23215 0.32232 -0.04584
 H504 H 0.28837 0.34888 -0.05610
 H505 H 0.28249 0.37078 -0.02804
 C506 C 0.23894 0.33394 0.05269
 C507 C 0.19666 0.41707 -0.01089
 C508 C 0.26059 0.33410 -0.05307
 C509 C 0.30249 0.41707 0.01075
 C510 C 0.72416 0.09460 -0.00903
 H511 H 0.73274 0.09378 -0.02229
 C512 C 0.70845 0.08189 -0.00625
 H513 H 0.70483 0.07126 -0.01742
 C514 C 0.71852 0.10925 0.02190
 H515 H 0.72265 0.11970 0.03296
 C516 C 0.70269 0.09680 0.02526
 H517 H 0.69458 0.09784 0.03881
 N518 N 0.72874 0.10809 0.00486
 C519 C 0.75959 0.15435 -0.02631
 H520 H 0.77287 0.15514 -0.01776
 C521 C 0.75677 0.16709 -0.04200
 H522 H 0.76794 0.17771 -0.04564
 C523 C 0.72863 0.13976 -0.03188
 H524 H 0.71757 0.12932 -0.02772
 C525 C 0.72523 0.15224 -0.04769
 H526 H 0.71165 0.15123 -0.05577
 Zn527 Zn 0.75051 0.12448 0.00006
 N528 N 0.74570 0.14088 -0.02170
 C529 C 0.78248 0.10916 -0.02178
 N530 N 0.77228 0.10804 -0.00473
 C531 C 0.77687 0.09456 0.00916
 C532 C 0.79256 0.08179 0.00636
 C533 C 0.79828 0.09665 -0.02516
 C534 C 0.74140 0.15440 0.02639
 C535 C 0.74418 0.16715 0.04208
 C536 C 0.77571 0.15224 0.04784
 C537 C 0.77234 0.13975 0.03204
 N538 N 0.75529 0.14090 0.02182
 H539 H 0.77833 0.11961 -0.03285
 H540 H 0.76830 0.09378 0.02244
 H541 H 0.79617 0.07116 0.01753
 H542 H 0.80637 0.09765 -0.03874
 H543 H 0.72813 0.15520 0.01782
 H544 H 0.73301 0.17779 0.04569
 H545 H 0.78928 0.15121 0.05595
 H546 H 0.78342 0.12929 0.02791
 C547 C 0.73946 0.16597 -0.05280
 C548 C 0.69760 0.08305 0.01103
 C549 C 0.76147 0.16601 0.05292
 C550 C 0.80337 0.08289 -0.01094
 C551 C 0.22357 0.59504 0.49067
 H552 H 0.23221 0.59426 0.47744
 C553 C 0.20786 0.58230 0.49335
 H554 H 0.20431 0.57169 0.48215
 C555 C 0.21778 0.60963 0.52159
 H556 H 0.22185 0.62007 0.53270
 C557 C 0.20195 0.59715 0.52486
 H558 H 0.19377 0.59816 0.53839
 N559 N 0.22808 0.60851 0.50460
 C560 C 0.25906 0.65485 0.47369
 H561 H 0.27230 0.65562 0.48231
 C562 C 0.25631 0.66764 0.45803
 H563 H 0.26749 0.67828 0.45449
 C564 C 0.22814 0.64026 0.46791
 H565 H 0.21706 0.62980 0.47198
 C566 C 0.22481 0.65279 0.45213
 H567 H 0.21126 0.65180 0.44398
 Zn568 Zn 0.24985 0.62492 0.49994
 N569 N 0.24515 0.64136 0.47818
 C570 C 0.28196 0.60966 0.47825
 N571 N 0.27166 0.60851 0.49525
 C572 C 0.27619 0.59502 0.50914
 C573 C 0.29192 0.58227 0.50642
 C574 C 0.29780 0.59719 0.47494
 C575 C 0.24059 0.65481 0.52625
 C576 C 0.24331 0.66759 0.54193
 C577 C 0.27484 0.65271 0.54781
 C578 C 0.27153 0.64020 0.53202
 N579 N 0.25452 0.64132 0.52174
 H580 H 0.27786 0.62013 0.46717
 H581 H 0.26756 0.59421 0.52237
 H582 H 0.29549 0.57164 0.51759
 H583 H 0.30597 0.59822 0.46142
 H584 H 0.22736 0.65560 0.51762
 H585 H 0.23212 0.67823 0.54548
 H586 H 0.28838 0.65172 0.55596
 H587 H 0.28263 0.62974 0.52793
 C588 C 0.23905 0.66656 0.44714
 C589 C 0.19694 0.58342 0.51059
 C590 C 0.26058 0.66648 0.55282
 C591 C 0.30283 0.58342 0.48918
 C592 C 0.72337 0.90502 0.50897
 H593 H 0.73197 0.90582 0.52222
 C594 C 0.70768 0.91779 0.50620
 H595 H 0.70410 0.92844 0.51736
 C596 C 0.71767 0.89039 0.47805
 H597 H 0.72179 0.87992 0.46698
 C598 C 0.70186 0.90289 0.47470
 H599 H 0.69373 0.90187 0.46115
 N600 N 0.72792 0.89152 0.49508
 C601 C 0.75892 0.84523 0.52615
 H602 H 0.77219 0.84445 0.51758
 C603 C 0.75618 0.83250 0.54186
 H604 H 0.76738 0.82189 0.54548
 C605 C 0.72795 0.85982 0.53181
 H606 H 0.71685 0.87026 0.52768
 C607 C 0.72462 0.84735 0.54763
 H608 H 0.71106 0.84836 0.55575
 Zn609 Zn 0.74973 0.87512 0.49983
 N610 N 0.74499 0.85870 0.52158
 C611 C 0.78170 0.89043 0.52164
 N612 N 0.77146 0.89157 0.50461
 C613 C 0.77597 0.90507 0.49073
 C614 C 0.79164 0.91785 0.49351
 C615 C 0.79748 0.90294 0.52500
 C616 C 0.74068 0.84524 0.47343
 C617 C 0.74351 0.83252 0.45771
 C618 C 0.77500 0.84747 0.45201
 C619 C 0.77159 0.85992 0.46784
 N620 N 0.75454 0.85874 0.47804
 H621 H 0.77761 0.87996 0.53270
 H622 H 0.76738 0.90587 0.47748
 H623 H 0.79520 0.92850 0.48235
 H624 H 0.80561 0.90193 0.53855
 H625 H 0.72741 0.84440 0.48200
 H626 H 0.73237 0.82188 0.45407
 H627 H 0.78857 0.84853 0.44391
 H628 H 0.78263 0.87038 0.47200
 C629 C 0.73889 0.83362 0.55271
 C630 C 0.69681 0.91667 0.48893
 C631 C 0.76080 0.83370 0.44689
 C632 C 0.80250 0.91672 0.51078
 C633 C 0.00895 0.22426 0.40494
 H634 H 0.02220 0.23284 0.40576
 C635 C 0.00617 0.20859 0.41771
 H636 H 0.01732 0.20500 0.42837
 C637 C -0.02195 0.21856 0.39025
 H638 H -0.03301 0.22266 0.37977
 C639 C -0.02531 0.20278 0.40275
 H640 H -0.03886 0.19465 0.40171
 N641 N -0.00492 0.22879 0.39141
 C642 C 0.02621 0.25960 0.34509
 H643 H 0.01759 0.27285 0.34425
 C644 C 0.04193 0.25682 0.33236
 H645 H 0.04552 0.26796 0.32171
 C646 C 0.03192 0.22873 0.35979
 H647 H 0.02780 0.21768 0.37027
 C648 C 0.04775 0.22536 0.34734
 H649 H 0.05590 0.21181 0.34839
 Zn650 Zn -0.00016 0.25052 0.37497
 N651 N 0.02165 0.24574 0.35861
 C652 C 0.02155 0.28256 0.39023
 N653 N 0.00453 0.27232 0.39135
 C654 C -0.00940 0.27690 0.40480
 C655 C -0.00668 0.29262 0.41753
 C656 C 0.02486 0.29839 0.40269
 C657 C -0.02640 0.24130 0.34501
 C658 C -0.04207 0.24401 0.33222
 C659 C -0.04798 0.27553 0.34704
 C660 C -0.03219 0.27223 0.35957
 N661 N -0.02191 0.25522 0.35849
 H662 H 0.03266 0.27842 0.37980
 H663 H -0.02265 0.26832 0.40559
 H664 H -0.01788 0.29624 0.42814
 H665 H 0.03841 0.30651 0.40169
 H666 H -0.01777 0.22806 0.34426
 H667 H -0.04562 0.23281 0.32160
 H668 H -0.05614 0.28907 0.34801
 H669 H -0.02812 0.28333 0.37002
 C670 C 0.05281 0.23955 0.33355
 C671 C -0.01110 0.19773 0.41655
 C672 C -0.05298 0.26127 0.33329
 C673 C 0.01059 0.30348 0.41642
 C674 C -0.00924 0.72309 0.09492
 H675 H -0.02251 0.73166 0.09412
 C676 C -0.00646 0.70737 0.08219
 H677 H -0.01765 0.70374 0.07158
 C678 C 0.02173 0.71747 0.10950
 H679 H 0.03282 0.72162 0.11993
 C680 C 0.02509 0.70164 0.09704
 H681 H 0.03867 0.69353 0.09805
 N682 N 0.00468 0.72769 0.10837
 C683 C -0.02637 0.75876 0.15464
 H684 H -0.01778 0.77201 0.15538
 C685 C -0.04205 0.75606 0.16742
 H686 H -0.04564 0.76727 0.17801
 C687 C -0.03206 0.72780 0.14013
 H688 H -0.02796 0.71669 0.12970
 C689 C -0.04786 0.72451 0.15264
 H690 H -0.05599 0.71097 0.15168
 Zn691 Zn -0.00007 0.74951 0.12473
 N692 N -0.02182 0.74482 0.14119
 C693 C -0.02192 0.78144 0.10937
 N694 N -0.00487 0.77121 0.10825
 C695 C 0.00901 0.77573 0.09473
 C696 C 0.00621 0.79139 0.08194
 C697 C -0.02530 0.79721 0.09684
 C698 C 0.02632 0.74047 0.15463
 C699 C 0.04202 0.74330 0.16737
 C700 C 0.04774 0.77475 0.15237
 C701 C 0.03193 0.77135 0.13991
 N702 N 0.02172 0.75432 0.14110
 H703 H -0.03298 0.77735 0.11985
 H704 H 0.02228 0.76715 0.09395
 H705 H 0.01738 0.79495 0.07129
 H706 H -0.03887 0.80533 0.09785
 H707 H 0.01775 0.72722 0.15548
 H708 H 0.04565 0.73217 0.17804
 H709 H 0.05584 0.78831 0.15131
 H710 H 0.02778 0.78238 0.12942
 C711 C -0.05292 0.73880 0.16636
 C712 C 0.01084 0.69653 0.08331
 C713 C 0.05284 0.76058 0.16618
 C714 C -0.01108 0.80224 0.08306
 C715 C 0.49098 0.22355 0.59573
 H716 H 0.47772 0.23214 0.59492
 C717 C 0.49378 0.20788 0.58295
 H718 H 0.48263 0.20431 0.57229
 C719 C 0.52190 0.21784 0.61039
 H720 H 0.53296 0.22195 0.62087
 C721 C 0.52528 0.20206 0.59788
 H722 H 0.53885 0.19394 0.59889
 N723 N 0.50486 0.22808 0.60924
 C724 C 0.47372 0.25906 0.65551
 H725 H 0.48232 0.27230 0.65632
 C726 C 0.45799 0.25633 0.66824
 H727 H 0.45439 0.26751 0.67886
 C728 C 0.46803 0.22815 0.64089
 H729 H 0.47216 0.21707 0.63044
 C730 C 0.45220 0.22484 0.65335
 H731 H 0.44406 0.21130 0.65232
 Zn732 Zn 0.50009 0.24986 0.62565
 N733 N 0.47829 0.24516 0.64204
 C734 C 0.47835 0.28188 0.61030
 N735 N 0.49538 0.27161 0.60921
 C736 C 0.50930 0.27612 0.59573
 C737 C 0.50656 0.29178 0.58294
 C738 C 0.47503 0.29766 0.59778
 C739 C 0.52639 0.24070 0.65560
 C740 C 0.54209 0.24344 0.66835
 C741 C 0.54792 0.27492 0.65344
 C742 C 0.53211 0.27159 0.64096
 N743 N 0.52185 0.25459 0.64210
 H744 H 0.46726 0.27781 0.62075
 H745 H 0.52255 0.26750 0.59497
 H746 H 0.51775 0.29533 0.57232
 H747 H 0.46148 0.30581 0.59876
 H748 H 0.51779 0.22746 0.65639
 H749 H 0.54567 0.23227 0.67899
 H750 H 0.55606 0.28845 0.65242
 H751 H 0.52800 0.28266 0.63049
 C752 C 0.44712 0.23908 0.66710
 C753 C 0.51107 0.19703 0.58408
 C754 C 0.55297 0.26069 0.66722
 C755 C 0.48929 0.30267 0.58402
 C756 C 0.50875 0.72329 0.90514
 H757 H 0.52200 0.73187 0.90593
 C758 C 0.50601 0.70758 0.91788
 H759 H 0.51720 0.70397 0.92849
 C760 C 0.47780 0.71763 0.89055
 H761 H 0.46670 0.72177 0.88011
 C762 C 0.47447 0.70182 0.90302
 H763 H 0.46092 0.69370 0.90201
 N764 N 0.49483 0.72786 0.89167
 C765 C 0.52581 0.75879 0.84533
 H766 H 0.51720 0.77203 0.84456
 C767 C 0.54150 0.75605 0.83256
 H768 H 0.54507 0.76723 0.82194
 C769 C 0.53157 0.72786 0.85992
 H770 H 0.52748 0.71679 0.87038
 C771 C 0.54737 0.72454 0.84742
 H772 H 0.55553 0.71099 0.84841
 Zn773 Zn 0.49955 0.74963 0.87528
 N774 N 0.52130 0.74488 0.85882
 C775 C 0.52138 0.78158 0.89055
 N776 N 0.50434 0.77138 0.89171
 C777 C 0.49047 0.77595 0.90522
 C778 C 0.49327 0.79164 0.91797
 C779 C 0.52476 0.79738 0.90303
 C780 C 0.47317 0.74057 0.84539
 C781 C 0.45748 0.74339 0.83264
 C782 C 0.45174 0.77489 0.84757
 C783 C 0.46754 0.77149 0.86005
 N784 N 0.47775 0.75444 0.85889
 H785 H 0.53244 0.77745 0.88007
 H786 H 0.47721 0.76739 0.90604
 H787 H 0.48211 0.79525 0.92863
 H788 H 0.53833 0.80548 0.90199
 H789 H 0.48174 0.72730 0.84457
 H790 H 0.45386 0.73225 0.82198
 H791 H 0.44364 0.78847 0.84859
 H792 H 0.47169 0.78254 0.87052
 C793 C 0.55240 0.73878 0.83366
 C794 C 0.48873 0.69674 0.91676
 C795 C 0.44665 0.76070 0.83378
 C796 C 0.51055 0.80247 0.91681
 C797 C 0.09904 0.23050 0.29658
 C798 C 0.10293 0.24404 0.28142
 C799 C 0.11897 0.24090 0.26858
 C800 C 0.13102 0.22424 0.27097
 C801 C 0.12714 0.21070 0.28613
 C802 C 0.11110 0.21384 0.29897
 C803 C 0.10751 0.20010 0.31401
 C804 C 0.11942 0.18373 0.31631
 C805 C 0.13511 0.18067 0.30376
 C806 C 0.13899 0.19394 0.28882
 C807 C 0.12256 0.25463 0.25354
 C808 C 0.11065 0.27101 0.25125
 C809 C 0.09497 0.27408 0.26381
 C810 C 0.09108 0.26080 0.27875
 C811 C 0.14739 0.22102 0.25785
 C812 C 0.16098 0.21833 0.24695
 C813 C 0.08265 0.23370 0.30969
 C814 C 0.06904 0.23636 0.32057
 H815 H 0.09548 0.20185 0.32414
 H816 H 0.11646 0.17337 0.32789
 H817 H 0.14432 0.16793 0.30560
 H818 H 0.15136 0.19092 0.27943
 H819 H 0.13458 0.25288 0.24341
 H820 H 0.11361 0.28137 0.23967
 H821 H 0.08576 0.28682 0.26197
 H822 H 0.07872 0.26383 0.28814
 C823 C 0.59861 0.72990 0.79663
 C824 C 0.60248 0.74350 0.78152
 C825 C 0.61853 0.74043 0.76868
 C826 C 0.63062 0.72379 0.77104
 C827 C 0.62676 0.71019 0.78615
 C828 C 0.61070 0.71326 0.79898
 C829 C 0.60712 0.69946 0.81398
 C830 C 0.61907 0.68311 0.81622
 C831 C 0.63477 0.68012 0.80368
 C832 C 0.63864 0.69345 0.78878
 C833 C 0.62211 0.75422 0.75368
 C834 C 0.61016 0.77057 0.75143
 C835 C 0.59447 0.77357 0.76399
 C836 C 0.59060 0.76024 0.77889
 C837 C 0.64703 0.72065 0.75793
 C838 C 0.66064 0.71804 0.74705
 C839 C 0.58222 0.73304 0.80976
 C840 C 0.56862 0.73566 0.82066
 H841 H 0.59508 0.70116 0.82410
 H842 H 0.61612 0.67271 0.82777
 H843 H 0.64401 0.66739 0.80549
 H844 H 0.65102 0.69048 0.77939
 H845 H 0.63414 0.75252 0.74355
 H846 H 0.61311 0.78097 0.73989
 H847 H 0.58523 0.78630 0.76218
 H848 H 0.57822 0.76321 0.78828
 C849 C 0.40057 0.76995 0.79668
 C850 C 0.38863 0.78671 0.79900
 C851 C 0.37264 0.78993 0.78611
 C852 C 0.36869 0.77638 0.77098
 C853 C 0.38063 0.75962 0.76865
 C854 C 0.39662 0.75640 0.78155
 C855 C 0.40834 0.73954 0.77894
 C856 C 0.40439 0.72625 0.76402
 C857 C 0.38877 0.72941 0.75141
 C858 C 0.37698 0.74587 0.75363
 C859 C 0.36092 0.80679 0.78871
 C860 C 0.36487 0.82008 0.80363
 C861 C 0.38050 0.81693 0.81623
 C862 C 0.39229 0.80046 0.81401
 C863 C 0.35236 0.77967 0.75781
 C864 C 0.33881 0.78240 0.74688
 C865 C 0.41690 0.76666 0.80984
 C866 C 0.43046 0.76394 0.82076
 H867 H 0.42066 0.73644 0.78837
 H868 H 0.41351 0.71343 0.76223
 H869 H 0.38576 0.71904 0.73985
 H870 H 0.36499 0.74769 0.74346
 H871 H 0.34859 0.80988 0.77928
 H872 H 0.35575 0.83290 0.80541
 H873 H 0.38351 0.82730 0.82779
 H874 H 0.40428 0.79865 0.82418
 C875 C -0.09911 0.27015 0.29616
 C876 C -0.10297 0.25656 0.28104
 C877 C -0.11899 0.25966 0.26815
 C878 C -0.13104 0.27633 0.27047
 C879 C -0.12719 0.28992 0.28559
 C880 C -0.11117 0.28683 0.29847
 C881 C -0.10760 0.30062 0.31347
 C882 C -0.11952 0.31700 0.31569
 C883 C -0.13518 0.32002 0.30310
 C884 C -0.13904 0.30669 0.28819
 C885 C -0.12256 0.24587 0.25315
 C886 C -0.11065 0.22948 0.25094
 C887 C -0.09499 0.22645 0.26354
 C888 C -0.09113 0.23978 0.27844
 C889 C -0.14739 0.27950 0.25730
 C890 C -0.16097 0.28214 0.24638
 C891 C -0.08275 0.26699 0.30932
 C892 C -0.06917 0.26438 0.32025
 H893 H -0.09560 0.29890 0.32363
 H894 H -0.11658 0.32740 0.32724
 H895 H -0.14439 0.33277 0.30488
 H896 H -0.15139 0.30968 0.27877
 H897 H -0.13456 0.24759 0.24298
 H898 H -0.11359 0.21908 0.23939
 H899 H -0.08579 0.21370 0.26176
 H900 H -0.07878 0.23679 0.28787
 C901 C -0.09910 0.73000 0.20343
 C902 C -0.11118 0.71337 0.20109
 C903 C -0.12722 0.71032 0.21394
 C904 C -0.13107 0.72392 0.22907
 C905 C -0.11899 0.74054 0.23141
 C906 C -0.10296 0.74360 0.21855
 C907 C -0.09109 0.76033 0.22118
 C908 C -0.09495 0.77366 0.23609
 C909 C -0.11062 0.77067 0.24867
 C910 C -0.12256 0.75433 0.24642
 C911 C -0.13909 0.69360 0.21131
 C912 C -0.13523 0.68026 0.19640
 C913 C -0.11955 0.68324 0.18383
 C914 C -0.10761 0.69958 0.18608
 C915 C -0.14745 0.72079 0.24221
 C916 C -0.16105 0.71817 0.25311
 C917 C -0.08272 0.73312 0.19029
 C918 C -0.06912 0.73570 0.17938
 H919 H -0.07872 0.76328 0.21177
 H920 H -0.08572 0.78638 0.23790
 H921 H -0.11356 0.78107 0.26023
 H922 H -0.13458 0.75265 0.25657
 H923 H -0.15146 0.69065 0.22071
 H924 H -0.14446 0.66755 0.19459
 H925 H -0.11661 0.67284 0.17228
 H926 H -0.09559 0.70126 0.17594
 C927 C 0.40086 0.23016 0.70404
 C928 C 0.38883 0.21350 0.70166
 C929 C 0.37278 0.21039 0.71449
 C930 C 0.36887 0.22395 0.72963
 C931 C 0.38089 0.24061 0.73201
 C932 C 0.39694 0.24373 0.71917
 C933 C 0.40875 0.26050 0.72184
 C934 C 0.40482 0.27380 0.73676
 C935 C 0.38914 0.27075 0.74930
 C936 C 0.37726 0.25438 0.74703
 C937 C 0.36096 0.19363 0.71182
 C938 C 0.36488 0.18033 0.69690
 C939 C 0.38057 0.18337 0.68436
 C940 C 0.39246 0.19974 0.68664
 C941 C 0.35249 0.22076 0.74275
 C942 C 0.33890 0.21809 0.75364
 C943 C 0.41726 0.23333 0.69095
 C944 C 0.43088 0.23595 0.68008
 H945 H 0.42112 0.26350 0.71245
 H946 H 0.41401 0.28655 0.73859
 H947 H 0.38615 0.28113 0.76087
 H948 H 0.36523 0.25264 0.75715
 H949 H 0.34859 0.19063 0.72120
 H950 H 0.35569 0.16759 0.69506
 H951 H 0.38355 0.17299 0.67279
 H952 H 0.40449 0.20147 0.67652
 C953 C 0.59920 0.26965 0.70419
 C954 C 0.60310 0.25611 0.71936
 C955 C 0.61916 0.25923 0.73217
 C956 C 0.63122 0.27586 0.72975
 C957 C 0.62733 0.28939 0.71458
 C958 C 0.61126 0.28628 0.70177
 C959 C 0.60766 0.30001 0.68672
 C960 C 0.61958 0.31635 0.68439
 C961 C 0.63528 0.31939 0.69692
 C962 C 0.63918 0.30611 0.71187
 C963 C 0.62277 0.24550 0.74723
 C964 C 0.61085 0.22916 0.74955
 C965 C 0.59515 0.22611 0.73702
 C966 C 0.59125 0.23939 0.72207
 C967 C 0.64763 0.27904 0.74284
 C968 C 0.66125 0.28169 0.75371
 C969 C 0.58280 0.26646 0.69109
 C970 C 0.56919 0.26383 0.68021
 H971 H 0.59561 0.29828 0.67661
 H972 H 0.61661 0.32670 0.67281
 H973 H 0.64450 0.33210 0.69505
 H974 H 0.65157 0.30911 0.72124
 H975 H 0.63480 0.24724 0.75734
 H976 H 0.61382 0.21881 0.76114
 H977 H 0.58594 0.21340 0.73888
 H978 H 0.57887 0.23638 0.71269
 C979 C 0.09900 0.76981 0.20319
 C980 C 0.10294 0.75632 0.21837
 C981 C 0.11895 0.75954 0.23123
 C982 C 0.13091 0.77624 0.22883
 C983 C 0.12697 0.78974 0.21364
 C984 C 0.11097 0.78651 0.20078
 C985 C 0.10731 0.80021 0.18571
 C986 C 0.11914 0.81662 0.18340
 C987 C 0.13479 0.81977 0.19597
 C988 C 0.13873 0.80653 0.21094
 C989 C 0.12260 0.74585 0.24631
 C990 C 0.11078 0.72944 0.24861
 C991 C 0.09513 0.72628 0.23603
 C992 C 0.09119 0.73951 0.22106
 C993 C 0.14726 0.77954 0.24196
 C994 C 0.16082 0.78226 0.25288
 C995 C 0.08264 0.76653 0.19006
 C996 C 0.06905 0.76381 0.17917
 H997 H 0.09531 0.79840 0.17556
 H998 H 0.11614 0.82695 0.17180
 H999 H 0.14393 0.83254 0.19412
 H1000 H 0.15107 0.80962 0.22035
 H1001 H 0.13459 0.74767 0.25646
 H1002 H 0.11378 0.71911 0.26022
 H1003 H 0.08600 0.71351 0.23788
 H1004 H 0.07886 0.73642 0.21165
 C1005 C 0.29648 0.09873 0.23018
 C1006 C 0.29895 0.11074 0.21351
 C1007 C 0.28618 0.12683 0.21033
 C1008 C 0.27101 0.13082 0.22384
 C1009 C 0.26853 0.11881 0.24051
 C1010 C 0.28130 0.10272 0.24369
 C1011 C 0.27854 0.09093 0.26046
 C1012 C 0.26358 0.09491 0.27370
 C1013 C 0.25109 0.11064 0.27059
 C1014 C 0.25347 0.12250 0.25421
 C1015 C 0.28895 0.13863 0.19357
 C1016 C 0.30391 0.13464 0.18032
 C1017 C 0.31639 0.11891 0.18342
 C1018 C 0.31401 0.10704 0.19980
 C1019 C 0.25796 0.14725 0.22059
 C1020 C 0.24711 0.16088 0.21792
 C1021 C 0.30952 0.08230 0.23343
 C1022 C 0.32036 0.06866 0.23613
 H1023 H 0.28788 0.07853 0.26351
 H1024 H 0.26167 0.08575 0.28645
 H1025 H 0.23949 0.11368 0.28093
 H1026 H 0.24338 0.13457 0.25243
 H1027 H 0.27962 0.15103 0.19052
 H1028 H 0.30582 0.14381 0.16757
 H1029 H 0.32799 0.11587 0.17308
 H1030 H 0.32409 0.09497 0.20158
 C1031 C 0.79657 0.59887 0.73028
 C1032 C 0.79900 0.61092 0.71364
 C1033 C 0.78620 0.62700 0.71051
 C1034 C 0.77104 0.63093 0.72405
 C1035 C 0.76861 0.61889 0.74070
 C1036 C 0.78141 0.60282 0.74383
 C1037 C 0.77870 0.59099 0.76058
 C1038 C 0.76376 0.59494 0.77387
 C1039 C 0.75124 0.61065 0.77080
 C1040 C 0.75357 0.62254 0.75444
 C1041 C 0.78893 0.63884 0.69376
 C1042 C 0.80387 0.63490 0.68049
 C1043 C 0.81639 0.61918 0.68354
 C1044 C 0.81405 0.60728 0.69990
 C1045 C 0.75794 0.64733 0.72083
 C1046 C 0.74705 0.66093 0.71816
 C1047 C 0.80963 0.58244 0.73346
 C1048 C 0.82047 0.56880 0.73611
 H1049 H 0.78807 0.57860 0.76360
 H1050 H 0.76190 0.58574 0.78660
 H1051 H 0.73966 0.61365 0.78117
 H1052 H 0.74346 0.63459 0.75269
 H1053 H 0.77957 0.65123 0.69075
 H1054 H 0.80575 0.64410 0.66776
 H1055 H 0.82797 0.61619 0.67318
 H1056 H 0.82415 0.59523 0.70164
 C1057 C 0.79642 0.40049 0.76973
 C1058 C 0.78127 0.39662 0.75617
 C1059 C 0.76843 0.38060 0.75927
 C1060 C 0.77081 0.36854 0.77592
 C1061 C 0.78597 0.37239 0.78947
 C1062 C 0.79882 0.38841 0.78637
 C1063 C 0.81386 0.39198 0.80013
 C1064 C 0.81615 0.38005 0.81647
 C1065 C 0.80360 0.36438 0.81950
 C1066 C 0.78866 0.36052 0.80621
 C1067 C 0.75339 0.37703 0.74551
 C1068 C 0.75111 0.38894 0.72916
 C1069 C 0.76367 0.40461 0.72612
 C1070 C 0.77860 0.40847 0.73942
 C1071 C 0.75767 0.35220 0.77911
 C1072 C 0.74676 0.33863 0.78178
 C1073 C 0.80953 0.41687 0.76658
 C1074 C 0.82040 0.43047 0.76398
 H1075 H 0.82399 0.40399 0.79841
 H1076 H 0.82774 0.38298 0.82685
 H1077 H 0.80545 0.35516 0.83222
 H1078 H 0.77926 0.34816 0.80920
 H1079 H 0.74325 0.36502 0.74724
 H1080 H 0.73953 0.38600 0.71878
 H1081 H 0.76183 0.41382 0.71339
 H1082 H 0.78800 0.42082 0.73643
 C1083 C 0.29601 -0.09949 0.27009
 C1084 C 0.29838 -0.11155 0.28673
 C1085 C 0.28551 -0.12755 0.28984
 C1086 C 0.27035 -0.13139 0.27628
 C1087 C 0.26798 -0.11933 0.25963
 C1088 C 0.28085 -0.10333 0.25653
 C1089 C 0.27820 -0.09148 0.23977
 C1090 C 0.26326 -0.09533 0.22647
 C1091 C 0.25067 -0.11097 0.22952
 C1092 C 0.25293 -0.12288 0.24588
 C1093 C 0.28817 -0.13941 0.30658
 C1094 C 0.30311 -0.13557 0.31988
 C1095 C 0.31570 -0.11993 0.31685
 C1096 C 0.31343 -0.10801 0.30049
 C1097 C 0.25719 -0.14773 0.27946
 C1098 C 0.24628 -0.16129 0.28212
 C1099 C 0.30915 -0.08314 0.26692
 C1100 C 0.32007 -0.06957 0.26430
 H1101 H 0.28762 -0.07915 0.23677
 H1102 H 0.26144 -0.08612 0.21374
 H1103 H 0.23908 -0.11389 0.21914
 H1104 H 0.24278 -0.13487 0.24761
 H1105 H 0.27875 -0.15175 0.30958
 H1106 H 0.30494 -0.14479 0.33261
 H1107 H 0.32728 -0.11701 0.32722
 H1108 H 0.32358 -0.09601 0.29877
 C1109 C 0.20390 -0.09890 0.72966
 C1110 C 0.21904 -0.10285 0.74322
 C1111 C 0.23188 -0.11889 0.74006
 C1112 C 0.22951 -0.13088 0.72336
 C1113 C 0.21438 -0.12692 0.70979
 C1114 C 0.20154 -0.11088 0.71295
 C1115 C 0.18652 -0.10722 0.69919
 C1116 C 0.18425 -0.11906 0.68277
 C1117 C 0.19680 -0.13474 0.67968
 C1118 C 0.21172 -0.13870 0.69299
 C1119 C 0.24691 -0.12255 0.75381
 C1120 C 0.24918 -0.11071 0.77023
 C1121 C 0.23662 -0.09503 0.77332
 C1122 C 0.22170 -0.09108 0.76002
 C1123 C 0.24261 -0.14728 0.72014
 C1124 C 0.25349 -0.16090 0.71748
 C1125 C 0.19078 -0.08252 0.73289
 C1126 C 0.17988 -0.06893 0.73559
 H1127 H 0.17639 -0.09519 0.70095
 H1128 H 0.17269 -0.11604 0.67239
 H1129 H 0.19498 -0.14390 0.66691
 H1130 H 0.22111 -0.15107 0.68995
 H1131 H 0.25704 -0.13458 0.75204
 H1132 H 0.26075 -0.11372 0.78060
 H1133 H 0.23844 -0.08588 0.78609
 H1134 H 0.21230 -0.07872 0.76306
 C1135 C 0.70400 0.40116 0.22991
 C1136 C 0.70170 0.38920 0.21317
 C1137 C 0.71455 0.37316 0.21005
 C1138 C 0.72963 0.36918 0.22368
 C1139 C 0.73193 0.38115 0.24040
 C1140 C 0.71907 0.39719 0.24353
 C1141 C 0.72166 0.40894 0.26036
 C1142 C 0.73652 0.40497 0.27372
 C1143 C 0.74909 0.38929 0.27066
 C1144 C 0.74689 0.37747 0.25422
 C1145 C 0.71197 0.36140 0.19322
 C1146 C 0.69711 0.36538 0.17986
 C1147 C 0.68455 0.38107 0.18291
 C1148 C 0.68675 0.39289 0.19935
 C1149 C 0.74275 0.35280 0.22049
 C1150 C 0.75365 0.33920 0.21785
 C1151 C 0.69087 0.41754 0.23310
 C1152 C 0.67996 0.43114 0.23576
 H1153 H 0.71225 0.42130 0.26338
 H1154 H 0.73829 0.41411 0.28651
 H1155 H 0.76061 0.38627 0.28108
 H1156 H 0.75703 0.36544 0.25249
 H1157 H 0.72137 0.34904 0.19021
 H1158 H 0.69535 0.35624 0.16706
 H1159 H 0.67304 0.38410 0.17248
 H1160 H 0.67661 0.40492 0.20108
 C1161 C 0.70391 0.59930 0.26941
 C1162 C 0.70163 0.61129 0.28613
 C1163 C 0.71447 0.62732 0.28921
 C1164 C 0.72952 0.63126 0.27555
 C1165 C 0.73179 0.61927 0.25883
 C1166 C 0.71895 0.60325 0.25575
 C1167 C 0.72151 0.59147 0.23893
 C1168 C 0.73634 0.59542 0.22553
 C1169 C 0.74890 0.61108 0.22855
 C1170 C 0.74672 0.62292 0.24498
 C1171 C 0.71190 0.63911 0.30602
 C1172 C 0.69707 0.63517 0.31941
 C1173 C 0.68451 0.61949 0.31640
 C1174 C 0.68669 0.60765 0.29998
 C1175 C 0.74265 0.64762 0.27872
 C1176 C 0.75355 0.66120 0.28136
 C1177 C 0.69080 0.58292 0.26627
 C1178 C 0.67991 0.56932 0.26368
 H1179 H 0.71210 0.57912 0.23594
 H1180 H 0.73809 0.58626 0.21275
 H1181 H 0.76039 0.61409 0.21810
 H1182 H 0.75686 0.63494 0.24669
 H1183 H 0.72130 0.65146 0.30900
 H1184 H 0.69531 0.64433 0.33219
 H1185 H 0.67301 0.61650 0.32685
 H1186 H 0.67657 0.59563 0.29828
 C1187 C 0.20400 0.09905 0.76979
 C1188 C 0.20160 0.11110 0.78645
 C1189 C 0.21444 0.12712 0.78959
 C1190 C 0.22961 0.13098 0.77605
 C1191 C 0.23203 0.11893 0.75941
 C1192 C 0.21918 0.10291 0.75626
 C1193 C 0.22188 0.09106 0.73951
 C1194 C 0.23684 0.09493 0.72625
 C1195 C 0.24940 0.11059 0.72932
 C1196 C 0.24709 0.12250 0.74568
 C1197 C 0.21174 0.13897 0.80634
 C1198 C 0.19678 0.13510 0.81961
 C1199 C 0.18423 0.11943 0.81654
 C1200 C 0.18654 0.10752 0.80018
 C1201 C 0.24272 0.14735 0.77925
 C1202 C 0.25360 0.16095 0.78191
 C1203 C 0.19087 0.08270 0.76658
 C1204 C 0.17996 0.06913 0.76392
 H1205 H 0.21248 0.07872 0.73649
 H1206 H 0.23870 0.08572 0.71351
 H1207 H 0.26100 0.11353 0.71897
 H1208 H 0.25723 0.13450 0.74743
 H1209 H 0.22113 0.15132 0.80936
 H1210 H 0.19493 0.14431 0.83234
 H1211 H 0.17264 0.11649 0.82690
 H1212 H 0.17641 0.09551 0.79843
 C1213 C 0.23015 0.29690 0.09886
 C1214 C 0.21295 0.29854 0.11026
 C1215 C 0.20988 0.28568 0.12629
 C1216 C 0.22404 0.27126 0.13081
 C1217 C 0.24124 0.26962 0.11941
 C1218 C 0.24431 0.28248 0.10339
 C1219 C 0.26162 0.28057 0.09221
 C1220 C 0.27550 0.26635 0.09673
 C1221 C 0.27250 0.25378 0.11239
 C1222 C 0.25560 0.25532 0.12365
 C1223 C 0.19258 0.28760 0.13748
 C1224 C 0.17869 0.30182 0.13296
 C1225 C 0.18169 0.31439 0.11729
 C1226 C 0.19859 0.31284 0.10603
 C1227 C 0.22089 0.25811 0.14717
 C1228 C 0.21826 0.24721 0.16075
 C1229 C 0.23327 0.31002 0.08248
 C1230 C 0.23586 0.32093 0.06889
 H1231 H 0.26461 0.29001 0.07989
 H1232 H 0.28866 0.26509 0.08802
 H1233 H 0.28333 0.24276 0.11583
 H1234 H 0.25392 0.24520 0.13569
 H1235 H 0.18959 0.27817 0.14981
 H1236 H 0.16554 0.30308 0.14167
 H1237 H 0.17086 0.32541 0.11385
 H1238 H 0.20026 0.32295 0.09399
 C1239 C 0.72998 0.79671 0.59898
 C1240 C 0.74416 0.78234 0.60360
 C1241 C 0.74106 0.76952 0.61965
 C1242 C 0.72381 0.77116 0.63099
 C1243 C 0.70965 0.78554 0.62638
 C1244 C 0.71274 0.79836 0.61032
 C1245 C 0.69837 0.81261 0.60599
 C1246 C 0.68144 0.81417 0.61720
 C1247 C 0.67841 0.80165 0.63290
 C1248 C 0.69230 0.78747 0.63750
 C1249 C 0.75543 0.75527 0.62399
 C1250 C 0.77238 0.75372 0.61279
 C1251 C 0.77541 0.76625 0.59710
 C1252 C 0.76151 0.78042 0.59249
 C1253 C 0.72063 0.75804 0.64736
 C1254 C 0.71799 0.74715 0.66095
 C1255 C 0.73314 0.80979 0.58257
 C1256 C 0.73576 0.82065 0.56895
 H1257 H 0.70007 0.82269 0.59392
 H1258 H 0.67060 0.82516 0.61368
 H1259 H 0.66523 0.80292 0.64157
 H1260 H 0.68929 0.77807 0.64986
 H1261 H 0.75374 0.74518 0.63605
 H1262 H 0.78322 0.74274 0.61631
 H1263 H 0.78860 0.76499 0.58845
 H1264 H 0.76453 0.78983 0.58014
 C1265 C 0.77003 0.79684 0.40062
 C1266 C 0.78675 0.79927 0.38866
 C1267 C 0.78996 0.78648 0.37260
 C1268 C 0.77645 0.77133 0.36860
 C1269 C 0.75973 0.76891 0.38057
 C1270 C 0.75651 0.78170 0.39662
 C1271 C 0.73970 0.77899 0.40837
 C1272 C 0.72644 0.76406 0.40437
 C1273 C 0.72959 0.75155 0.38868
 C1274 C 0.74601 0.75388 0.37686
 C1275 C 0.80678 0.78919 0.36084
 C1276 C 0.82003 0.80412 0.36484
 C1277 C 0.81689 0.81662 0.38054
 C1278 C 0.80047 0.81429 0.39237
 C1279 C 0.77974 0.75825 0.35221
 C1280 C 0.78245 0.74738 0.33861
 C1281 C 0.76675 0.80990 0.41703
 C1282 C 0.76403 0.82075 0.43065
 H1283 H 0.73661 0.78834 0.42075
 H1284 H 0.71366 0.76219 0.41351
 H1285 H 0.71925 0.73998 0.38563
 H1286 H 0.74782 0.74378 0.36482
 H1287 H 0.80985 0.77984 0.34846
 H1288 H 0.83281 0.80599 0.35570
 H1289 H 0.82724 0.82819 0.38359
 H1290 H 0.79866 0.82438 0.40441
 C1291 C 0.26978 0.29707 -0.09921
 C1292 C 0.28651 0.29942 -0.11117
 C1293 C 0.28972 0.28656 -0.12717
 C1294 C 0.27619 0.27142 -0.13112
 C1295 C 0.25946 0.26907 -0.11916
 C1296 C 0.25624 0.28193 -0.10316
 C1297 C 0.23940 0.27929 -0.09142
 C1298 C 0.22613 0.26437 -0.09537
 C1299 C 0.22928 0.25179 -0.11101
 C1300 C 0.24572 0.25404 -0.12282
 C1301 C 0.30655 0.28920 -0.13892
 C1302 C 0.31983 0.30412 -0.13496
 C1303 C 0.31669 0.31669 -0.11932
 C1304 C 0.30025 0.31444 -0.10751
 C1305 C 0.27948 0.25827 -0.14745
 C1306 C 0.28222 0.24735 -0.16101
 C1307 C 0.26650 0.31020 -0.08286
 C1308 C 0.26380 0.32110 -0.06928
 H1309 H 0.23632 0.28871 -0.07909
 H1310 H 0.21333 0.26256 -0.08624
 H1311 H 0.21892 0.24022 -0.11402
 H1312 H 0.24753 0.24389 -0.13482
 H1313 H 0.30963 0.27979 -0.15125
 H1314 H 0.33263 0.30593 -0.14410
 H1315 H 0.32705 0.32826 -0.11631
 H1316 H 0.29844 0.32459 -0.09551
 C1317 C 0.73025 0.20295 -0.09896
 C1318 C 0.74416 0.21761 -0.10339
 C1319 C 0.74095 0.23044 -0.11941
 C1320 C 0.72385 0.22853 -0.13092
 C1321 C 0.70994 0.21388 -0.12650
 C1322 C 0.71315 0.20105 -0.11047
 C1323 C 0.69903 0.18651 -0.10634
 C1324 C 0.68223 0.18470 -0.11771
 C1325 C 0.67909 0.19724 -0.13338
 C1326 C 0.69274 0.21169 -0.13780
 C1327 C 0.75507 0.24498 -0.12354
 C1328 C 0.77187 0.24679 -0.11217
 C1329 C 0.77501 0.23425 -0.09651
 C1330 C 0.76137 0.21980 -0.09210
 C1331 C 0.72058 0.24164 -0.14729
 C1332 C 0.71787 0.25252 -0.16088
 C1333 C 0.73352 0.18985 -0.08259
 C1334 C 0.73624 0.17896 -0.06901
 H1335 H 0.70081 0.17641 -0.09430
 H1336 H 0.67158 0.17350 -0.11434
 H1337 H 0.66602 0.19577 -0.14218
 H1338 H 0.68965 0.22109 -0.15013
 H1339 H 0.75328 0.25509 -0.13558
 H1340 H 0.78252 0.25799 -0.11554
 H1341 H 0.78809 0.23571 -0.08772
 H1342 H 0.76446 0.21039 -0.07976
 C1343 C 0.23003 0.70372 0.40109
 C1344 C 0.21298 0.70186 0.38950
 C1345 C 0.20984 0.71474 0.37351
 C1346 C 0.22378 0.72941 0.36919
 C1347 C 0.24083 0.73128 0.38078
 C1348 C 0.24397 0.71839 0.39678
 C1349 C 0.26112 0.72054 0.40815
 C1350 C 0.27479 0.73500 0.40385
 C1351 C 0.27172 0.74760 0.38822
 C1352 C 0.25496 0.74583 0.37676
 C1353 C 0.19269 0.71260 0.36213
 C1354 C 0.17901 0.69815 0.36645
 C1355 C 0.18207 0.68556 0.38209
 C1356 C 0.19883 0.68732 0.39353
 C1357 C 0.22059 0.74255 0.35284
 C1358 C 0.21794 0.75345 0.33925
 C1359 C 0.23324 0.69055 0.41742
 C1360 C 0.23590 0.67961 0.43097
 H1361 H 0.26416 0.71109 0.42047
 H1362 H 0.28783 0.73644 0.41270
 H1363 H 0.28238 0.75881 0.38494
 H1364 H 0.25323 0.75598 0.36476
 H1365 H 0.18965 0.72205 0.34982
 H1366 H 0.16597 0.69671 0.35760
 H1367 H 0.17141 0.67435 0.38538
 H1368 H 0.20056 0.67718 0.40555
 C1369 C 0.26953 0.70366 0.59887
 C1370 C 0.28622 0.70134 0.61091
 C1371 C 0.28935 0.71425 0.62688
 C1372 C 0.27578 0.72941 0.63072
 C1373 C 0.25909 0.73174 0.61868
 C1374 C 0.25596 0.71882 0.60271
 C1375 C 0.23918 0.72143 0.59088
 C1376 C 0.22587 0.73638 0.59472
 C1377 C 0.22893 0.74901 0.61033
 C1378 C 0.24533 0.74679 0.62223
 C1379 C 0.30613 0.71164 0.63871
 C1380 C 0.31944 0.69669 0.63487
 C1381 C 0.31638 0.68407 0.61925
 C1382 C 0.29999 0.68629 0.60736
 C1383 C 0.27897 0.74260 0.64703
 C1384 C 0.28164 0.75354 0.66059
 C1385 C 0.26635 0.69048 0.58255
 C1386 C 0.26371 0.67953 0.56899
 H1387 H 0.23616 0.71198 0.57857
 H1388 H 0.21311 0.73817 0.58553
 H1389 H 0.21855 0.76060 0.61326
 H1390 H 0.24707 0.75698 0.63419
 H1391 H 0.30915 0.72109 0.65103
 H1392 H 0.33220 0.69490 0.64407
 H1393 H 0.32677 0.67248 0.61633
 H1394 H 0.29825 0.67611 0.59539
 C1395 C 0.77053 0.20306 0.09905
 C1396 C 0.78723 0.20073 0.11105
 C1397 C 0.79037 0.21360 0.12706
 C1398 C 0.77679 0.22873 0.13096
 C1399 C 0.76008 0.23107 0.11896
 C1400 C 0.75694 0.21820 0.10296
 C1401 C 0.74013 0.22082 0.09117
 C1402 C 0.72681 0.23574 0.09507
 C1403 C 0.72988 0.24832 0.11072
 C1404 C 0.74630 0.24609 0.12257
 C1405 C 0.80718 0.21097 0.13885
 C1406 C 0.82050 0.19605 0.13494
 C1407 C 0.81743 0.18347 0.11930
 C1408 C 0.80102 0.18571 0.10744
 C1409 C 0.78000 0.24188 0.14730
 C1410 C 0.78267 0.25281 0.16087
 C1411 C 0.76732 0.18992 0.08270
 C1412 C 0.76465 0.17901 0.06912
 H1413 H 0.73710 0.21140 0.07883
 H1414 H 0.71403 0.23753 0.08591
 H1415 H 0.71949 0.25989 0.11369
 H1416 H 0.74805 0.25625 0.13457
 H1417 H 0.81020 0.22039 0.15119
 H1418 H 0.83328 0.19425 0.14411
 H1419 H 0.82783 0.17191 0.11632
 H1420 H 0.79927 0.17556 0.09544
 C1421 C 0.48037 0.34876 0.54689
 C1422 C 0.46368 0.36080 0.54918
 C1423 C 0.46060 0.37682 0.53631
 C1424 C 0.47422 0.38069 0.52122
 C1425 C 0.49091 0.36864 0.51892
 C1426 C 0.49399 0.35263 0.53179
 C1427 C 0.51078 0.34079 0.52920
 C1428 C 0.52413 0.34466 0.51432
 C1429 C 0.52112 0.36031 0.50173
 C1430 C 0.50472 0.37222 0.50393
 C1431 C 0.44381 0.38865 0.53890
 C1432 C 0.43045 0.38478 0.55377
 C1433 C 0.43346 0.36912 0.56635
 C1434 C 0.44986 0.35722 0.56415
 C1435 C 0.47107 0.39706 0.50808
 C1436 C 0.46844 0.41065 0.49719
 C1437 C 0.48353 0.33241 0.56005
 C1438 C 0.48615 0.31885 0.57098
 H1439 H 0.51376 0.32844 0.53862
 H1440 H 0.53689 0.33545 0.51255
 H1441 H 0.53153 0.36325 0.49019
 H1442 H 0.50301 0.38422 0.49378
 H1443 H 0.44083 0.40101 0.52948
 H1444 H 0.41768 0.39398 0.55554
 H1445 H 0.42303 0.36616 0.57788
 H1446 H 0.45156 0.34521 0.57430
 C1447 C -0.02018 0.84835 0.04599
 C1448 C -0.00661 0.85228 0.03087
 C1449 C -0.00975 0.86832 0.01804
 C1450 C -0.02646 0.88033 0.02042
 C1451 C -0.04004 0.87639 0.03552
 C1452 C -0.03690 0.86035 0.04835
 C1453 C -0.05068 0.85670 0.06334
 C1454 C -0.06710 0.86856 0.06560
 C1455 C -0.07017 0.88424 0.05306
 C1456 C -0.05685 0.88818 0.03817
 C1457 C 0.00402 0.87196 0.00304
 C1458 C 0.02043 0.86009 0.00077
 C1459 C 0.02351 0.84442 0.01332
 C1460 C 0.01020 0.84048 0.02822
 C1461 C -0.02965 0.89674 0.00734
 C1462 C -0.03230 0.91036 -0.00351
 C1463 C -0.01695 0.83199 0.05912
 C1464 C -0.01427 0.81842 0.07003
 H1465 H -0.04893 0.84467 0.07346
 H1466 H -0.07750 0.86556 0.07714
 H1467 H -0.08295 0.89341 0.05488
 H1468 H -0.05988 0.90055 0.02879
 H1469 H 0.00226 0.88398 -0.00709
 H1470 H 0.03082 0.86308 -0.01078
 H1471 H 0.03629 0.83524 0.01149
 H1472 H 0.01323 0.82812 0.03761
 C1473 C 0.01991 0.65035 0.04631
 C1474 C 0.00595 0.64597 0.03166
 C1475 C 0.00911 0.62994 0.01881
 C1476 C 0.02620 0.61840 0.02068
 C1477 C 0.04015 0.62278 0.03533
 C1478 C 0.03700 0.63881 0.04817
 C1479 C 0.05117 0.64291 0.06269
 C1480 C 0.06796 0.63150 0.06447
 C1481 C 0.07104 0.61583 0.05191
 C1482 C 0.05735 0.61145 0.03748
 C1483 C -0.00505 0.62585 0.00428
 C1484 C -0.02185 0.63726 0.00251
 C1485 C -0.02493 0.65292 0.01507
 C1486 C -0.01124 0.65729 0.02951
 C1487 C 0.02941 0.60203 0.00756
 C1488 C 0.03209 0.58844 -0.00334
 C1489 C 0.01669 0.66672 0.05943
 C1490 C 0.01402 0.68031 0.07032
 H1491 H 0.04942 0.65494 0.07281
 H1492 H 0.07864 0.63484 0.07565
 H1493 H 0.08411 0.60702 0.05335
 H1494 H 0.06040 0.59912 0.02806
 H1495 H -0.00330 0.61382 -0.00584
 H1496 H -0.03252 0.63392 -0.00869
 H1497 H -0.03800 0.66173 0.01363
 H1498 H -0.01430 0.66963 0.03893
 C1499 C 0.52025 0.15101 0.54690
 C1500 C 0.50656 0.14697 0.53190
 C1501 C 0.50975 0.13100 0.51900
 C1502 C 0.52661 0.11916 0.52116
 C1503 C 0.54030 0.12321 0.53615
 C1504 C 0.53712 0.13919 0.54905
 C1505 C 0.55101 0.14295 0.56392
 C1506 C 0.56758 0.13126 0.56598
 C1507 C 0.57070 0.11565 0.55336
 C1508 C 0.55727 0.11160 0.53859
 C1509 C 0.49587 0.12724 0.50412
 C1510 C 0.47930 0.13893 0.50206
 C1511 C 0.47618 0.15454 0.51468
 C1512 C 0.48960 0.15858 0.52946
 C1513 C 0.52985 0.10283 0.50800
 C1514 C 0.53253 0.08926 0.49708
 C1515 C 0.51699 0.16732 0.56008
 C1516 C 0.51429 0.18087 0.57103
 H1517 H 0.54923 0.15493 0.57409
 H1518 H 0.57806 0.13435 0.57743
 H1519 H 0.58359 0.10661 0.55502
 H1520 H 0.56033 0.09929 0.52914
 H1521 H 0.49765 0.11527 0.49394
 H1522 H 0.46883 0.13585 0.49060
 H1523 H 0.46328 0.16358 0.51302
 H1524 H 0.48653 0.17089 0.53891
 C1525 C -0.02020 0.15161 0.45358
 C1526 C -0.00664 0.14766 0.46871
 C1527 C -0.00981 0.13165 0.48156
 C1528 C -0.02652 0.11968 0.47919
 C1529 C -0.04008 0.12363 0.46405
 C1530 C -0.03691 0.13964 0.45121
 C1531 C -0.05067 0.14330 0.43619
 C1532 C -0.06709 0.13148 0.43392
 C1533 C -0.07018 0.11582 0.44647
 C1534 C -0.05688 0.11187 0.46139
 C1535 C 0.00395 0.12799 0.49658
 C1536 C 0.02037 0.13981 0.49885
 C1537 C 0.02347 0.15547 0.48629
 C1538 C 0.01018 0.15942 0.47137
 C1539 C -0.02975 0.10332 0.49230
 C1540 C -0.03243 0.08974 0.50319
 C1541 C -0.01696 0.16797 0.44046
 C1542 C -0.01428 0.18154 0.42956
 H1543 H -0.04890 0.15531 0.42606
 H1544 H -0.07747 0.13448 0.42235
 H1545 H -0.08296 0.10667 0.44465
 H1546 H -0.05993 0.09952 0.47079
 H1547 H 0.00218 0.11599 0.50672
 H1548 H 0.03075 0.13681 0.51042
 H1549 H 0.03626 0.16461 0.48811
 H1550 H 0.01322 0.17176 0.46197
 C1551 C 0.47984 0.65055 0.95376
 C1552 C 0.49343 0.64667 0.96888
 C1553 C 0.49034 0.63065 0.98174
 C1554 C 0.47368 0.61861 0.97939
 C1555 C 0.46010 0.62248 0.96426
 C1556 C 0.46318 0.63850 0.95140
 C1557 C 0.44939 0.64209 0.93639
 C1558 C 0.43303 0.63018 0.93414
 C1559 C 0.43001 0.61452 0.94670
 C1560 C 0.44334 0.61064 0.96162
 C1561 C 0.50413 0.62706 0.99675
 C1562 C 0.52050 0.63896 0.99900
 C1563 C 0.52352 0.65462 0.98643
 C1564 C 0.51019 0.65850 0.97152
 C1565 C 0.47052 0.60226 0.99253
 C1566 C 0.46787 0.58868 1.00344
 C1567 C 0.48298 0.66692 0.94063
 C1568 C 0.48560 0.68052 0.92974
 H1569 H 0.45110 0.65410 0.92625
 H1570 H 0.42263 0.63314 0.92258
 H1571 H 0.41728 0.60531 0.94489
 H1572 H 0.44036 0.59828 0.97102
 H1573 H 0.50242 0.61505 1.00690
 H1574 H 0.53090 0.63600 1.01056
 H1575 H 0.53626 0.66381 0.98824
 H1576 H 0.51318 0.67085 0.96211
 C1577 C 0.51972 0.84863 0.95379
 C1578 C 0.50630 0.85247 0.96908
 C1579 C 0.50950 0.86849 0.98191
 C1580 C 0.52609 0.88059 0.97937
 C1581 C 0.53951 0.87675 0.96407
 C1582 C 0.53631 0.86073 0.95124
 C1583 C 0.54992 0.85719 0.93606
 C1584 C 0.56622 0.86914 0.93362
 C1585 C 0.56935 0.88481 0.94616
 C1586 C 0.55619 0.88864 0.96123
 C1587 C 0.49589 0.87204 0.99709
 C1588 C 0.47958 0.86010 0.99952
 C1589 C 0.47645 0.84443 0.98698
 C1590 C 0.48960 0.84059 0.97191
 C1591 C 0.52937 0.89694 0.99248
 C1592 C 0.53208 0.91052 1.00338
 C1593 C 0.51645 0.83226 0.94069
 C1594 C 0.51375 0.81867 0.92980
 H1595 H 0.54812 0.84517 0.92593
 H1596 H 0.57649 0.86622 0.92193
 H1597 H 0.58203 0.89405 0.94420
 H1598 H 0.55925 0.90101 0.97061
 H1599 H 0.49769 0.88405 1.00722
 H1600 H 0.46931 0.86302 1.01121
 H1601 H 0.46375 0.83520 0.98893
 H1602 H 0.48654 0.82823 0.96253
 C1603 C 0.01953 0.34970 0.45337
 C1604 C 0.00590 0.35370 0.46843
 C1605 C 0.00903 0.36973 0.48128
 C1606 C 0.02577 0.38166 0.47898
 C1607 C 0.03939 0.37768 0.46391
 C1608 C 0.03626 0.36165 0.45107
 C1609 C 0.05009 0.35795 0.43612
 C1610 C 0.06653 0.36976 0.43391
 C1611 C 0.06959 0.38543 0.44646
 C1612 C 0.05623 0.38942 0.46132
 C1613 C -0.00479 0.37342 0.49623
 C1614 C -0.02124 0.36163 0.49843
 C1615 C -0.02431 0.34596 0.48587
 C1616 C -0.01094 0.34197 0.47102
 C1617 C 0.02898 0.39802 0.49211
 C1618 C 0.03166 0.41159 0.50302
 C1619 C 0.01635 0.33332 0.44027
 C1620 C 0.01372 0.31971 0.42939
 H1621 H 0.04835 0.34593 0.42599
 H1622 H 0.07696 0.36672 0.42240
 H1623 H 0.08239 0.39455 0.44469
 H1624 H 0.05924 0.40178 0.47071
 H1625 H -0.00305 0.38544 0.50636
 H1626 H -0.03167 0.36467 0.50994
 H1627 H -0.03711 0.33684 0.48764
 H1628 H -0.01396 0.32962 0.46162
 C1629 C 0.34911 0.54645 0.48026
 C1630 C 0.36113 0.54880 0.46358
 C1631 C 0.37720 0.53597 0.46047
 C1632 C 0.38114 0.52087 0.47406
 C1633 C 0.36912 0.51852 0.49074
 C1634 C 0.35306 0.53135 0.49385
 C1635 C 0.34125 0.52871 0.51064
 C1636 C 0.34520 0.51383 0.52397
 C1637 C 0.36090 0.50129 0.52092
 C1638 C 0.37278 0.50354 0.50453
 C1639 C 0.38901 0.53861 0.44369
 C1640 C 0.38506 0.55349 0.43035
 C1641 C 0.36935 0.56603 0.43339
 C1642 C 0.35748 0.56378 0.44978
 C1643 C 0.39755 0.50777 0.47088
 C1644 C 0.41117 0.49689 0.46823
 C1645 C 0.33270 0.55955 0.48343
 C1646 C 0.31908 0.57043 0.48606
 H1647 H 0.32887 0.53810 0.51364
 H1648 H 0.33602 0.51202 0.53673
 H1649 H 0.36390 0.48975 0.53132
 H1650 H 0.38482 0.49341 0.50280
 H1651 H 0.40140 0.52923 0.44069
 H1652 H 0.39424 0.55530 0.41760
 H1653 H 0.36635 0.57757 0.42299
 H1654 H 0.34543 0.57390 0.45151
 C1655 C 0.84952 0.04582 -0.02008
 C1656 C 0.86159 0.04825 -0.03672
 C1657 C 0.87761 0.03539 -0.03990
 C1658 C 0.88146 0.02016 -0.02643
 C1659 C 0.86940 0.01773 -0.00978
 C1660 C 0.85339 0.03060 -0.00660
 C1661 C 0.84154 0.02788 0.01014
 C1662 C 0.84540 0.01287 0.02336
 C1663 C 0.86106 0.00029 0.02025
 C1664 C 0.87297 0.00262 0.00389
 C1665 C 0.88946 0.03811 -0.05664
 C1666 C 0.88560 0.05311 -0.06986
 C1667 C 0.86994 0.06569 -0.06675
 C1668 C 0.85802 0.06336 -0.05040
 C1669 C 0.89782 0.00702 -0.02968
 C1670 C 0.91141 -0.00389 -0.03238
 C1671 C 0.83315 0.05895 -0.01684
 C1672 C 0.81957 0.06987 -0.01415
 H1673 H 0.82919 0.03729 0.01320
 H1674 H 0.83619 0.01100 0.03609
 H1675 H 0.86400 -0.01134 0.03056
 H1676 H 0.88498 -0.00754 0.00210
 H1677 H 0.90182 0.02870 -0.05969
 H1678 H 0.89482 0.05499 -0.08258
 H1679 H 0.86700 0.07732 -0.07707
 H1680 H 0.84601 0.07351 -0.04862
 C1681 C 0.65135 0.04617 0.02007
 C1682 C 0.64723 0.03122 0.00637
 C1683 C 0.63119 0.01841 0.00953
 C1684 C 0.61936 0.02063 0.02637
 C1685 C 0.62346 0.03559 0.04006
 C1686 C 0.63951 0.04840 0.03690
 C1687 C 0.64333 0.06324 0.05080
 C1688 C 0.63163 0.06537 0.06734
 C1689 C 0.61594 0.05285 0.07043
 C1690 C 0.61183 0.03811 0.05699
 C1691 C 0.62737 0.00357 -0.00437
 C1692 C 0.63906 0.00144 -0.02092
 C1693 C 0.65474 0.01397 -0.02401
 C1694 C 0.65885 0.02871 -0.01057
 C1695 C 0.60299 0.00753 0.02960
 C1696 C 0.58940 -0.00335 0.03230
 C1697 C 0.66775 0.05925 0.01685
 C1698 C 0.68136 0.07010 0.01419
 H1699 H 0.65536 0.07334 0.04904
 H1700 H 0.63475 0.07681 0.07782
 H1701 H 0.60689 0.05457 0.08330
 H1702 H 0.59947 0.02873 0.06003
 H1703 H 0.61534 -0.00654 -0.00261
 H1704 H 0.63593 -0.00998 -0.03140
 H1705 H 0.66378 0.01226 -0.03689
 H1706 H 0.67121 0.03810 -0.01362
 C1707 C 0.15070 0.54647 0.51940
 C1708 C 0.13867 0.54880 0.53609
 C1709 C 0.12264 0.53596 0.53918
 C1710 C 0.11872 0.52088 0.52556
 C1711 C 0.13074 0.51856 0.50886
 C1712 C 0.14678 0.53140 0.50577
 C1713 C 0.15858 0.52880 0.48898
 C1714 C 0.15466 0.51394 0.47561
 C1715 C 0.13898 0.50139 0.47864
 C1716 C 0.12711 0.50360 0.49504
 C1717 C 0.11082 0.53857 0.55596
 C1718 C 0.11473 0.55344 0.56932
 C1719 C 0.13042 0.56598 0.56631
 C1720 C 0.14230 0.56376 0.54991
 C1721 C 0.10236 0.50776 0.52873
 C1722 C 0.08878 0.49686 0.53138
 C1723 C 0.16709 0.55957 0.51626
 C1724 C 0.18071 0.57044 0.51367
 H1725 H 0.17094 0.53819 0.48599
 H1726 H 0.16383 0.51216 0.46284
 H1727 H 0.13599 0.48987 0.46821
 H1728 H 0.11509 0.49348 0.49676
 H1729 H 0.09845 0.52919 0.55895
 H1730 H 0.10555 0.55523 0.58208
 H1731 H 0.13340 0.57751 0.57672
 H1732 H 0.15432 0.57388 0.54820
 C1733 C 0.15045 0.45413 -0.01982
 C1734 C 0.14661 0.46931 -0.00628
 C1735 C 0.13057 0.48217 -0.00939
 C1736 C 0.11848 0.47978 -0.02601
 C1737 C 0.12232 0.46460 -0.03955
 C1738 C 0.13836 0.45174 -0.03645
 C1739 C 0.14191 0.43668 -0.05019
 C1740 C 0.12997 0.43439 -0.06652
 C1741 C 0.11428 0.44696 -0.06956
 C1742 C 0.11043 0.46192 -0.05628
 C1743 C 0.12702 0.49724 0.00435
 C1744 C 0.13896 0.49953 0.02069
 C1745 C 0.15464 0.48695 0.02373
 C1746 C 0.15849 0.47199 0.01045
 C1747 C 0.10209 0.49291 -0.02918
 C1748 C 0.08849 0.50381 -0.03183
 C1749 C 0.16684 0.44100 -0.01665
 C1750 C 0.18043 0.43008 -0.01402
 H1751 H 0.15394 0.42654 -0.04846
 H1752 H 0.13289 0.42280 -0.07688
 H1753 H 0.10504 0.44512 -0.08227
 H1754 H 0.09806 0.47133 -0.05927
 H1755 H 0.11500 0.50739 0.00262
 H1756 H 0.13604 0.51113 0.03105
 H1757 H 0.16387 0.48879 0.03645
 H1758 H 0.17085 0.46258 0.01345
 C1759 C 0.65071 0.95383 0.47991
 C1760 C 0.64790 0.97004 0.49247
 C1761 C 0.63191 0.98294 0.48935
 C1762 C 0.61881 0.97956 0.47368
 C1763 C 0.62161 0.96336 0.46112
 C1764 C 0.63761 0.95045 0.46424
 C1765 C 0.64012 0.93436 0.45148
 C1766 C 0.62719 0.93110 0.43608
 C1767 C 0.61154 0.94371 0.43303
 C1768 C 0.60871 0.95968 0.44536
 C1769 C 0.62940 0.99904 0.50210
 C1770 C 0.64233 1.00230 0.51750
 C1771 C 0.65797 0.98968 0.52055
 C1772 C 0.66080 0.97371 0.50823
 C1773 C 0.60246 0.99273 0.47050
 C1774 C 0.58888 1.00367 0.46785
 C1775 C 0.66705 0.94065 0.48310
 C1776 C 0.68062 0.92971 0.48575
 H1777 H 0.65207 0.92414 0.45325
 H1778 H 0.62932 0.91872 0.42646
 H1779 H 0.60154 0.94112 0.42105
 H1780 H 0.59633 0.96908 0.44239
 H1781 H 0.61746 1.00927 0.50032
 H1782 H 0.64020 1.01469 0.52711
 H1783 H 0.66798 0.99228 0.53253
 H1784 H 0.67318 0.96431 0.51120
 C1785 C 0.84858 0.95381 0.51986
 C1786 C 0.85241 0.96901 0.50635
 C1787 C 0.86841 0.98188 0.50951
 C1788 C 0.88048 0.97947 0.52616
 C1789 C 0.87665 0.96427 0.53966
 C1790 C 0.86065 0.95141 0.53651
 C1791 C 0.85711 0.93632 0.55021
 C1792 C 0.86904 0.93402 0.56656
 C1793 C 0.88468 0.94660 0.56965
 C1794 C 0.88851 0.96158 0.55641
 C1795 C 0.87194 0.99697 0.49581
 C1796 C 0.86002 0.99927 0.47945
 C1797 C 0.84439 0.98668 0.47636
 C1798 C 0.84056 0.97170 0.48961
 C1799 C 0.89682 0.99262 0.52938
 C1800 C 0.91039 1.00352 0.53207
 C1801 C 0.83225 0.94066 0.51663
 C1802 C 0.81868 0.92975 0.51396
 H1803 H 0.84512 0.92617 0.54844
 H1804 H 0.86612 0.92240 0.57690
 H1805 H 0.89390 0.94474 0.58238
 H1806 H 0.90085 0.97099 0.55944
 H1807 H 0.88393 1.00713 0.49758
 H1808 H 0.86293 1.01089 0.46912
 H1809 H 0.83517 0.98853 0.46363
 H1810 H 0.82822 0.96228 0.48657
 C1811 C 0.34872 0.45399 0.01974
 C1812 C 0.35266 0.46909 0.00617
 C1813 C 0.36872 0.48189 0.00929
 C1814 C 0.38074 0.47951 0.02598
 C1815 C 0.37680 0.46440 0.03956
 C1816 C 0.36074 0.45160 0.03643
 C1817 C 0.35709 0.43661 0.05021
 C1818 C 0.36896 0.43433 0.06660
 C1819 C 0.38467 0.44684 0.06965
 C1820 C 0.38861 0.46173 0.05634
 C1821 C 0.37237 0.49689 -0.00448
 C1822 C 0.36050 0.49917 -0.02088
 C1823 C 0.34480 0.48665 -0.02394
 C1824 C 0.34086 0.47176 -0.01062
 C1825 C 0.39714 0.49259 0.02917
 C1826 C 0.41075 0.50345 0.03183
 C1827 C 0.33232 0.44091 0.01655
 C1828 C 0.31871 0.43004 0.01390
 H1829 H 0.34505 0.42652 0.04847
 H1830 H 0.36596 0.42279 0.07699
 H1831 H 0.39385 0.44501 0.08241
 H1832 H 0.40099 0.47109 0.05935
 H1833 H 0.38441 0.50699 -0.00274
 H1834 H 0.36350 0.51071 -0.03126
 H1835 H 0.33563 0.48848 -0.03670
 H1836 H 0.32848 0.46239 -0.01364
 C1837 C 0.54719 0.48034 0.34924
 C1838 C 0.54960 0.46365 0.36122
 C1839 C 0.53678 0.46048 0.37727
 C1840 C 0.52162 0.47402 0.38122
 C1841 C 0.51922 0.49072 0.36925
 C1842 C 0.53204 0.49390 0.35321
 C1843 C 0.52936 0.51070 0.34145
 C1844 C 0.51443 0.52399 0.34542
 C1845 C 0.50189 0.52089 0.36110
 C1846 C 0.50419 0.50447 0.37293
 C1847 C 0.53948 0.44368 0.38904
 C1848 C 0.55442 0.43040 0.38508
 C1849 C 0.56695 0.43350 0.36939
 C1850 C 0.56464 0.44990 0.35755
 C1851 C 0.50850 0.47076 0.39758
 C1852 C 0.49759 0.46805 0.41115
 C1853 C 0.56026 0.48356 0.33282
 C1854 C 0.57111 0.48622 0.31920
 H1855 H 0.53874 0.51375 0.32909
 H1856 H 0.51258 0.53677 0.33627
 H1857 H 0.49031 0.53126 0.36412
 H1858 H 0.49407 0.50270 0.38495
 H1859 H 0.53011 0.44064 0.40141
 H1860 H 0.55628 0.41763 0.39424
 H1861 H 0.57854 0.42313 0.36638
 H1862 H 0.57476 0.45167 0.34552
 C1863 C 0.04683 -0.01976 0.84895
 C1864 C 0.04916 -0.03647 0.86094
 C1865 C 0.03627 -0.03963 0.87692
 C1866 C 0.02112 -0.02606 0.88083
 C1867 C 0.01880 -0.00934 0.86885
 C1868 C 0.03169 -0.00618 0.85287
 C1869 C 0.02908 0.01063 0.84111
 C1870 C 0.01415 0.02394 0.84502
 C1871 C 0.00155 0.02085 0.86065
 C1872 C 0.00377 0.00443 0.87248
 C1873 C 0.03890 -0.05643 0.88870
 C1874 C 0.05383 -0.06974 0.88479
 C1875 C 0.06643 -0.06666 0.86916
 C1876 C 0.06419 -0.05024 0.85732
 C1877 C 0.00793 -0.02931 0.89714
 C1878 C -0.00302 -0.03201 0.91067
 C1879 C 0.05998 -0.01655 0.83260
 C1880 C 0.07089 -0.01389 0.81902
 H1881 H 0.03852 0.01367 0.82878
 H1882 H 0.01236 0.03673 0.83588
 H1883 H -0.01003 0.03124 0.86363
 H1884 H -0.00640 0.00266 0.88446
 H1885 H 0.02947 -0.05947 0.90103
 H1886 H 0.05562 -0.08252 0.89394
 H1887 H 0.07800 -0.07704 0.86618
 H1888 H 0.07436 -0.04848 0.84533
 C1889 C 0.04649 0.02017 0.65107
 C1890 C 0.04881 0.03687 0.63907
 C1891 C 0.03591 0.04003 0.62308
 C1892 C 0.02076 0.02648 0.61919
 C1893 C 0.01844 0.00979 0.63120
 C1894 C 0.03134 0.00662 0.64718
 C1895 C 0.02873 -0.01017 0.65897
 C1896 C 0.01380 -0.02346 0.65508
 C1897 C 0.00119 -0.02036 0.63946
 C1898 C 0.00341 -0.00396 0.62760
 C1899 C 0.03852 0.05682 0.61129
 C1900 C 0.05345 0.07011 0.61518
 C1901 C 0.06606 0.06702 0.63081
 C1902 C 0.06383 0.05062 0.64266
 C1903 C 0.00759 0.02971 0.60286
 C1904 C -0.00334 0.03239 0.58930
 C1905 C 0.05966 0.01695 0.66740
 C1906 C 0.07060 0.01428 0.68096
 H1907 H 0.03818 -0.01321 0.67129
 H1908 H 0.01202 -0.03622 0.66424
 H1909 H -0.01039 -0.03073 0.63650
 H1910 H -0.00677 -0.00219 0.61562
 H1911 H 0.02908 0.05986 0.59896
 H1912 H 0.05523 0.08287 0.60601
 H1913 H 0.07763 0.07739 0.63377
 H1914 H 0.07401 0.04885 0.65465
 C1915 C 0.54669 0.52012 0.15092
 C1916 C 0.54907 0.53680 0.13891
 C1917 C 0.53623 0.53995 0.12287
 C1918 C 0.52108 0.52640 0.11895
 C1919 C 0.51871 0.50973 0.13097
 C1920 C 0.53155 0.50658 0.14700
 C1921 C 0.52889 0.48980 0.15880
 C1922 C 0.51397 0.47652 0.15488
 C1923 C 0.50141 0.47960 0.13920
 C1924 C 0.50368 0.49599 0.12733
 C1925 C 0.53889 0.55672 0.11106
 C1926 C 0.55381 0.57000 0.11499
 C1927 C 0.56637 0.56693 0.13067
 C1928 C 0.56409 0.55054 0.14254
 C1929 C 0.50796 0.52962 0.10258
 C1930 C 0.49706 0.53230 0.08899
 C1931 C 0.55981 0.51690 0.16730
 C1932 C 0.57071 0.51425 0.18089
 H1933 H 0.53829 0.48677 0.17116
 H1934 H 0.51215 0.46376 0.16405
 H1935 H 0.48984 0.46924 0.13621
 H1936 H 0.49355 0.49775 0.11532
 H1937 H 0.52950 0.55975 0.09870
 H1938 H 0.55564 0.58275 0.10581
 H1939 H 0.57794 0.57729 0.13365
 H1940 H 0.57422 0.54879 0.15456
 C1941 C 0.45363 -0.02044 0.15167
 C1942 C 0.46877 -0.00687 0.14783
 C1943 C 0.48165 -0.00995 0.13182
 C1944 C 0.47931 -0.02659 0.11973
 C1945 C 0.46418 -0.04017 0.12358
 C1946 C 0.45130 -0.03708 0.13960
 C1947 C 0.43629 -0.05086 0.14316
 C1948 C 0.43406 -0.06721 0.13122
 C1949 C 0.44665 -0.07022 0.11556
 C1950 C 0.46156 -0.05691 0.11171
 C1951 C 0.49667 0.00381 0.12827
 C1952 C 0.49890 0.02016 0.14020
 C1953 C 0.48631 0.02318 0.15586
 C1954 C 0.47139 0.00987 0.15971
 C1955 C 0.49244 -0.02973 0.10336
 C1956 C 0.50333 -0.03236 0.08975
 C1957 C 0.44046 -0.01727 0.16802
 C1958 C 0.42952 -0.01464 0.18158
 H1959 H 0.42614 -0.04915 0.15517
 H1960 H 0.42250 -0.07760 0.13415
 H1961 H 0.44485 -0.08295 0.10633
 H1962 H 0.47098 -0.05989 0.09935
 H1963 H 0.50683 0.00210 0.11626
 H1964 H 0.51047 0.03054 0.13728
 H1965 H 0.48811 0.03590 0.16509
 H1966 H 0.46197 0.01285 0.17206
 C1967 C 0.95335 0.47977 0.65097
 C1968 C 0.96848 0.49333 0.64703
 C1969 C 0.98126 0.49022 0.63094
 C1970 C 0.97884 0.47357 0.61888
 C1971 C 0.96372 0.46001 0.62283
 C1972 C 0.95094 0.46312 0.63892
 C1973 C 0.93593 0.44937 0.64257
 C1974 C 0.93361 0.43301 0.63066
 C1975 C 0.94611 0.42997 0.61492
 C1976 C 0.96101 0.44327 0.61098
 C1977 C 0.99627 0.50397 0.62729
 C1978 C 0.99859 0.52033 0.63919
 C1979 C 0.98609 0.52337 0.65492
 C1980 C 0.97118 0.51008 0.65886
 C1981 C 0.99190 0.47039 0.60245
 C1982 C 1.00274 0.46776 0.58881
 C1983 C 0.94029 0.48295 0.66740
 C1984 C 0.92943 0.48559 0.68103
 H1985 H 0.92585 0.45109 0.65463
 H1986 H 0.92206 0.42264 0.63366
 H1987 H 0.94424 0.41724 0.60572
 H1988 H 0.97036 0.44027 0.59857
 H1989 H 1.00636 0.50224 0.61523
 H1990 H 1.01014 0.53070 0.63619
 H1991 H 0.98794 0.53610 0.66412
 H1992 H 0.96183 0.51308 0.67127
 C1993 C 0.95331 0.51959 0.84932
 C1994 C 0.95088 0.53628 0.86132
 C1995 C 0.96372 0.53947 0.87735
 C1996 C 0.97891 0.52595 0.88127
 C1997 C 0.98133 0.50926 0.86928
 C1998 C 0.96849 0.50607 0.85326
 C1999 C 0.97120 0.48927 0.84148
 C2000 C 0.98616 0.47601 0.84541
 C2001 C 0.99872 0.47914 0.86108
 C2002 C 0.99640 0.49554 0.87292
 C2003 C 0.96100 0.55625 0.88914
 C2004 C 0.94603 0.56951 0.88521
 C2005 C 0.93348 0.56639 0.86954
 C2006 C 0.93581 0.54999 0.85768
 C2007 C 0.99204 0.52922 0.89763
 C2008 C 1.00294 0.53194 0.91120
 C2009 C 0.94020 0.51634 0.83294
 C2010 C 0.92932 0.51365 0.81934
 H2011 H 0.96180 0.48621 0.82912
 H2012 H 0.98802 0.46325 0.83625
 H2013 H 1.01032 0.46879 0.86407
 H2014 H 1.00653 0.49733 0.88494
 H2015 H 0.97039 0.55931 0.90149
 H2016 H 0.94416 0.58227 0.89437
 H2017 H 0.92188 0.57673 0.86654
 H2018 H 0.92568 0.54821 0.84566
 C2019 C 0.45333 0.01954 0.34941
 C2020 C 0.45105 0.03631 0.36133
 C2021 C 0.46397 0.03951 0.37729
 C2022 C 0.47910 0.02593 0.38122
 C2023 C 0.48138 0.00916 0.36930
 C2024 C 0.46846 0.00596 0.35335
 C2025 C 0.47103 -0.01091 0.34164
 C2026 C 0.48594 -0.02422 0.34557
 C2027 C 0.49858 -0.02109 0.36117
 C2028 C 0.49640 -0.00461 0.37295
 C2029 C 0.46140 0.05637 0.38900
 C2030 C 0.44649 0.06969 0.38506
 C2031 C 0.43386 0.06656 0.36946
 C2032 C 0.43604 0.05009 0.35768
 C2033 C 0.49230 0.02920 0.39752
 C2034 C 0.50326 0.03191 0.41104
 C2035 C 0.44014 0.01628 0.33310
 C2036 C 0.42920 0.01358 0.31955
 H2037 H 0.46157 -0.01398 0.32934
 H2038 H 0.48770 -0.03704 0.33647
 H2039 H 0.51015 -0.03148 0.36417
 H2040 H 0.50659 -0.00282 0.38491
 H2041 H 0.47085 0.05944 0.40130
 H2042 H 0.44473 0.08251 0.39417
 H2043 H 0.42230 0.07695 0.36646
 H2044 H 0.42585 0.04829 0.34571
   
