data_POSCAR
  _audit_creation_date              2014-09-24
  _audit_creation_method            'ToBaCCo'
  _symmetry_space_group_name_H-M    'P1'
  _symmetry_Int_Tables_number       1
  _symmetry_cell_setting            triclinic
  loop_
  _symmetry_equiv_pos_as_xyz
 x,y,z
_cell_length_a 46.9397
_cell_length_b 47.5582
_cell_length_c 56.5757
_cell_angle_alpha 89.947000
_cell_angle_beta 89.984200
_cell_angle_gamma 90.026600
loop_
  _atom_site_label
  _atom_site_type_symbol
  _atom_site_fract_x
  _atom_site_fract_y
  _atom_site_fract_z
Zr1 Zr 0.24827 0.24843 0.29169
 O2 O 0.26944 0.27029 0.31917
 O3 O 0.22074 0.22240 0.31094
 O4 O 0.22012 0.27427 0.31093
 O5 O 0.30214 0.19986 0.28310
 O6 O 0.19698 0.29957 0.28258
 O7 O 0.27570 0.22211 0.31125
 O8 O 0.19501 0.20017 0.28238
 O9 O 0.21112 0.24962 0.27127
 O10 O 0.24863 0.21193 0.27115
 O11 O 0.25072 0.28600 0.27220
 O12 O 0.28684 0.24973 0.27256
 Zr13 Zr 0.25195 0.25173 0.20942
 Zr14 Zr 0.21465 0.28585 0.25040
 Zr15 Zr 0.28548 0.21413 0.25065
 Zr16 Zr 0.21259 0.21394 0.24994
 O17 O 0.33048 0.21684 0.25025
 O18 O 0.16809 0.22144 0.24852
 O19 O 0.24942 0.21374 0.22870
 O20 O 0.21373 0.25013 0.22882
 O21 O 0.25160 0.28840 0.22981
 O22 O 0.28874 0.25045 0.23018
 C23 C 0.20102 0.20547 0.30416
 C24 C 0.29558 0.20507 0.30478
 C25 C 0.20189 0.29293 0.30428
 O26 O 0.16979 0.28287 0.24779
 O27 O 0.20138 0.30365 0.21809
 O28 O 0.22669 0.28023 0.18993
 C29 C 0.20825 0.29877 0.19642
 O30 O 0.30592 0.30025 0.28358
 Zr31 Zr 0.28752 0.28604 0.25141
 O32 O 0.27925 0.27844 0.19039
 O33 O 0.21868 0.33006 0.25284
 O34 O 0.28121 0.33016 0.25281
 O35 O 0.33233 0.28042 0.25037
 O36 O 0.30209 0.30306 0.21926
 C37 C 0.29685 0.29742 0.19745
 O38 O 0.22948 0.23126 0.18190
 O39 O 0.28132 0.16983 0.25111
 O40 O 0.27828 0.22422 0.19000
 O41 O 0.29984 0.19744 0.21826
 O42 O 0.21724 0.16961 0.25112
 O43 O 0.19748 0.19586 0.21796
 C44 C 0.29509 0.20424 0.19655
 H45 H 0.24854 0.19451 0.28073
 H46 H 0.19699 0.25026 0.21818
 H47 H 0.30648 0.25013 0.22072
 H48 H 0.25099 0.30259 0.28275
 H49 H 0.15837 0.20354 0.25247
 H50 H 0.16228 0.30231 0.24870
 H51 H 0.19916 0.33792 0.25189
 H52 H 0.29970 0.33925 0.24915
 H53 H 0.19826 0.16151 0.25472
 H54 H 0.30087 0.16204 0.25187
 H55 H 0.33778 0.19730 0.24963
 H56 H 0.34101 0.29901 0.24707
 H57 H 0.18112 0.18337 0.22142
 H58 H 0.23715 0.23847 0.16670
 H59 H 0.26194 0.26298 0.33439
 H60 H 0.31903 0.31609 0.28029
 Zr61 Zr 0.75178 0.75155 0.29146
 O62 O 0.73070 0.72974 0.31905
 O63 O 0.77928 0.77772 0.31057
 O64 O 0.78000 0.72583 0.31076
 O65 O 0.69775 0.79993 0.28273
 O66 O 0.80317 0.70049 0.28249
 O67 O 0.72427 0.77785 0.31095
 O68 O 0.80492 0.79992 0.28190
 O69 O 0.78892 0.75039 0.27100
 O70 O 0.75131 0.78798 0.27078
 O71 O 0.74942 0.71391 0.27210
 O72 O 0.71321 0.75007 0.27236
 Zr73 Zr 0.74804 0.74796 0.20919
 Zr74 Zr 0.78547 0.71408 0.25027
 Zr75 Zr 0.71445 0.78560 0.25032
 Zr76 Zr 0.78734 0.78599 0.24953
 O77 O 0.66946 0.78278 0.24997
 O78 O 0.83185 0.77860 0.24810
 O79 O 0.75049 0.78602 0.22833
 O80 O 0.78627 0.74973 0.22855
 O81 O 0.74851 0.71134 0.22971
 O82 O 0.71127 0.74922 0.22999
 C83 C 0.79896 0.79468 0.30371
 C84 C 0.70433 0.79481 0.30443
 C85 C 0.79826 0.70718 0.30417
 O86 O 0.83032 0.71717 0.24763
 O87 O 0.79883 0.69625 0.21801
 O88 O 0.77340 0.71949 0.18979
 C89 C 0.79194 0.70105 0.19632
 O90 O 0.69430 0.69948 0.28358
 Zr91 Zr 0.71260 0.71369 0.25134
 O92 O 0.72075 0.72115 0.19029
 O93 O 0.78156 0.66986 0.25285
 O94 O 0.71906 0.66959 0.25285
 O95 O 0.66778 0.71921 0.25038
 O96 O 0.69798 0.69658 0.21927
 C97 C 0.70316 0.70219 0.19744
 O98 O 0.77042 0.76839 0.18155
 O99 O 0.71849 0.82992 0.25062
 O100 O 0.72164 0.77537 0.18971
 O101 O 0.70004 0.80217 0.21789
 O102 O 0.78254 0.83032 0.25054
 O103 O 0.80236 0.80401 0.21747
 C104 C 0.70480 0.79532 0.19621
 H105 H 0.75136 0.80544 0.28030
 H106 H 0.80300 0.74962 0.21790
 H107 H 0.69351 0.74947 0.22056
 H108 H 0.74920 0.69735 0.28271
 H109 H 0.84152 0.79655 0.25196
 H110 H 0.83789 0.69776 0.24861
 H111 H 0.80110 0.66206 0.25192
 H112 H 0.70060 0.66044 0.24924
 H113 H 0.80150 0.83848 0.25409
 H114 H 0.69892 0.83766 0.25138
 H115 H 0.66210 0.80229 0.24928
 H116 H 0.65913 0.70059 0.24715
 H117 H 0.81869 0.81657 0.22087
 H118 H 0.76275 0.76111 0.16640
 H119 H 0.73820 0.73712 0.33423
 H120 H 0.68124 0.68358 0.28035
 Zr121 Zr 0.75160 0.24827 -0.29170
 O122 O 0.73062 0.27004 -0.31935
 O123 O 0.77900 0.22194 -0.31076
 O124 O 0.77992 0.27385 -0.31107
 O125 O 0.69737 0.20010 -0.28283
 O126 O 0.80320 0.29919 -0.28287
 O127 O 0.72399 0.22198 -0.31111
 O128 O 0.80454 0.19977 -0.28203
 O129 O 0.78874 0.24940 -0.27126
 O130 O 0.75098 0.21192 -0.27093
 O131 O 0.74938 0.28599 -0.27244
 O132 O 0.71303 0.24994 -0.27260
 Zr133 Zr 0.74786 0.25218 -0.20944
 Zr134 Zr 0.78542 0.28579 -0.25061
 Zr135 Zr 0.71413 0.21449 -0.25047
 Zr136 Zr 0.78701 0.21388 -0.24970
 O137 O 0.66914 0.21746 -0.25009
 O138 O 0.83156 0.22115 -0.24830
 O139 O 0.75016 0.21405 -0.22849
 O140 O 0.78609 0.25022 -0.22880
 O141 O 0.74848 0.28872 -0.23006
 O142 O 0.71108 0.25096 -0.23023
 C143 C 0.79861 0.20495 -0.30386
 C144 C 0.70398 0.20512 -0.30454
 C145 C 0.79825 0.29245 -0.30453
 O146 O 0.83026 0.28258 -0.24796
 O147 O 0.79881 0.30374 -0.21841
 O148 O 0.77330 0.28068 -0.19012
 C149 C 0.79188 0.29906 -0.19672
 O150 O 0.69430 0.30054 -0.28393
 Zr151 Zr 0.71255 0.28640 -0.25166
 O152 O 0.72069 0.27916 -0.19060
 O153 O 0.78170 0.33001 -0.25334
 O154 O 0.71919 0.33048 -0.25333
 O155 O 0.66771 0.28101 -0.25065
 O156 O 0.69804 0.30371 -0.21963
 C157 C 0.70321 0.29817 -0.19778
 O158 O 0.77017 0.23180 -0.18176
 O159 O 0.71798 0.17016 -0.25066
 O160 O 0.72136 0.22492 -0.18988
 O161 O 0.69967 0.19807 -0.21799
 O162 O 0.78204 0.16957 -0.25058
 O163 O 0.80197 0.19594 -0.21759
 C164 C 0.70445 0.20498 -0.19633
 H165 H 0.75096 0.19443 -0.28040
 H166 H 0.80282 0.25033 -0.21815
 H167 H 0.69333 0.25080 -0.22077
 H168 H 0.74923 0.30251 -0.28309
 H169 H 0.84116 0.20316 -0.25212
 H170 H 0.83790 0.30197 -0.24900
 H171 H 0.80127 0.33776 -0.25243
 H172 H 0.70076 0.33969 -0.24973
 H173 H 0.80096 0.16134 -0.25412
 H174 H 0.69837 0.16248 -0.25139
 H175 H 0.66171 0.19797 -0.24935
 H176 H 0.65914 0.29966 -0.24745
 H177 H 0.81824 0.18333 -0.22097
 H178 H 0.76253 0.23915 -0.16662
 H179 H 0.73809 0.26258 -0.33451
 H180 H 0.68128 0.31646 -0.28074
 Zr181 Zr 0.24772 0.75248 -0.29173
 O182 O 0.26877 0.73082 -0.31938
 O183 O 0.22034 0.77885 -0.31080
 O184 O 0.21946 0.72686 -0.31112
 O185 O 0.30185 0.80066 -0.28282
 O186 O 0.19616 0.70146 -0.28291
 O187 O 0.27537 0.77889 -0.31109
 O188 O 0.19479 0.80091 -0.28216
 O189 O 0.21053 0.75126 -0.27132
 O190 O 0.24827 0.78877 -0.27097
 O191 O 0.24992 0.71473 -0.27243
 O192 O 0.28625 0.75076 -0.27258
 Zr193 Zr 0.25126 0.74837 -0.20943
 Zr194 Zr 0.21383 0.71485 -0.25064
 Zr195 Zr 0.28507 0.78616 -0.25046
 Zr196 Zr 0.21220 0.78673 -0.24978
 O197 O 0.33005 0.78321 -0.25007
 O198 O 0.16766 0.77941 -0.24848
 O199 O 0.24899 0.78653 -0.22852
 O200 O 0.21310 0.75038 -0.22885
 O201 O 0.25072 0.71187 -0.23004
 O202 O 0.28809 0.74967 -0.23019
 C203 C 0.20066 0.79592 -0.30406
 C204 C 0.29541 0.79586 -0.30463
 C205 C 0.20113 0.70822 -0.30458
 O206 O 0.16898 0.71802 -0.24807
 O207 O 0.20032 0.69689 -0.21843
 O208 O 0.22570 0.71983 -0.19016
 C209 C 0.20703 0.70142 -0.19664
 O210 O 0.30500 0.70014 -0.28385
 Zr211 Zr 0.28669 0.71426 -0.25162
 O212 O 0.27844 0.72138 -0.19056
 O213 O 0.21760 0.67064 -0.25332
 O214 O 0.28007 0.67019 -0.25324
 O215 O 0.33152 0.71972 -0.25059
 O216 O 0.30122 0.69695 -0.21956
 C217 C 0.29601 0.70243 -0.19772
 O218 O 0.22892 0.76867 -0.18175
 O219 O 0.28120 0.83049 -0.25064
 O220 O 0.27772 0.77565 -0.18986
 O221 O 0.29946 0.80253 -0.21798
 O222 O 0.21714 0.83105 -0.25064
 O223 O 0.19710 0.80463 -0.21773
 C224 C 0.29464 0.79561 -0.19631
 H225 H 0.24830 0.80629 -0.28044
 H226 H 0.19633 0.75024 -0.21822
 H227 H 0.30582 0.74983 -0.22073
 H228 H 0.25010 0.69822 -0.28308
 H229 H 0.15805 0.79739 -0.25234
 H230 H 0.16136 0.69862 -0.24910
 H231 H 0.19803 0.66287 -0.25241
 H232 H 0.29849 0.66097 -0.24961
 H233 H 0.19824 0.83928 -0.25425
 H234 H 0.30080 0.83818 -0.25138
 H235 H 0.33747 0.80270 -0.24932
 H236 H 0.34012 0.70107 -0.24738
 H237 H 0.18080 0.81720 -0.22114
 H238 H 0.23655 0.76126 -0.16661
 H239 H 0.26131 0.73835 -0.33453
 H240 H 0.31804 0.68423 -0.28062
 Zr241 Zr 1.25238 1.25248 0.79041
 O242 O 1.23101 1.23113 0.81810
 O243 O 1.28026 1.27872 0.80923
 O244 O 1.28044 1.22669 0.80989
 O245 O 1.19922 1.30175 0.78155
 O246 O 1.30295 1.20056 0.78178
 O247 O 1.22549 1.27946 0.80981
 O248 O 1.30605 1.30012 0.78022
 O249 O 1.28944 1.25060 0.76992
 O250 O 1.25246 1.28873 0.76949
 O251 O 1.24919 1.21477 0.77119
 O252 O 1.21375 1.25142 0.77128
 Zr253 Zr 1.24860 1.24862 0.70818
 Zr254 Zr 1.28529 1.21416 0.74947
 Zr255 Zr 1.21551 1.28687 0.74917
 Zr256 Zr 1.28839 1.28602 0.74818
 O257 O 1.17049 1.28455 0.74881
 O258 O 1.33279 1.27794 0.74689
 O259 O 1.25152 1.28668 0.72715
 O260 O 1.28680 1.24963 0.72753
 O261 O 1.24839 1.21200 0.72874
 O262 O 1.21175 1.25053 0.72886
 C263 C 1.30000 1.29546 0.80206
 C264 C 1.20591 1.29679 0.80325
 C265 C 1.29844 1.20773 0.80342
 O266 O 1.33020 1.21634 0.74683
 O267 O 1.29836 1.19604 0.71732
 O268 O 1.27352 1.21971 0.68897
 C269 C 1.29174 1.20105 0.69562
 O270 O 1.19378 1.20077 0.78231
 Zr271 Zr 1.21242 1.21499 0.75021
 O272 O 1.22089 1.22259 0.68916
 O273 O 1.28051 1.17005 0.75232
 O274 O 1.21831 1.17081 0.75155
 O275 O 1.16772 1.22137 0.74940
 O276 O 1.19735 1.19835 0.71791
 C277 C 1.20278 1.20404 0.69609
 O278 O 1.27150 1.26843 0.68052
 O279 O 1.22004 1.33114 0.74943
 O280 O 1.22305 1.27669 0.68860
 O281 O 1.20168 1.30376 0.71671
 O282 O 1.28447 1.33044 0.74883
 O283 O 1.30358 1.30334 0.71590
 C284 C 1.20663 1.29700 0.69505
 H285 H 1.25280 1.30630 0.77885
 H286 H 1.30357 1.24919 0.71692
 H287 H 1.19405 1.25115 0.71936
 H288 H 1.24871 1.19830 0.78190
 H289 H 1.34274 1.29582 0.75046
 H290 H 1.33738 1.19678 0.74786
 H291 H 1.29989 1.16187 0.75136
 H292 H 1.19978 1.16193 0.74770
 H293 H 1.30363 1.33831 0.75205
 H294 H 1.20055 1.33912 0.75009
 H295 H 1.16339 1.30415 0.74801
 H296 H 1.15871 1.20297 0.74593
 H297 H 1.32024 1.31552 0.71910
 H298 H 1.26371 1.26128 0.66536
 H299 H 1.23862 1.23852 0.83324
 H300 H 1.18057 1.18504 0.77895
 Zr301 Zr 0.74782 0.74773 0.79056
 O302 O 0.76923 0.76924 0.81810
 O303 O 0.71998 0.72160 0.80956
 O304 O 0.71977 0.77362 0.80995
 O305 O 0.80095 0.69841 0.78188
 O306 O 0.69721 0.79960 0.78173
 O307 O 0.77473 0.72086 0.81006
 O308 O 0.69413 0.70007 0.78070
 O309 O 0.71073 0.74950 0.77011
 O310 O 0.74771 0.71137 0.76983
 O311 O 0.75097 0.78535 0.77114
 O312 O 0.78642 0.74868 0.77136
 Zr313 Zr 0.75147 0.75114 0.70832
 Zr314 Zr 0.71484 0.78583 0.74948
 Zr315 Zr 0.78462 0.71312 0.74945
 Zr316 Zr 0.71174 0.71397 0.74856
 O317 O 0.82964 0.71542 0.74903
 O318 O 0.66734 0.72203 0.74727
 O319 O 0.74858 0.71317 0.72748
 O320 O 0.71330 0.75024 0.72773
 O321 O 0.75171 0.78787 0.72868
 O322 O 0.78835 0.74935 0.72895
 C323 C 0.70022 0.70483 0.80250
 C324 C 0.79429 0.70349 0.80357
 C325 C 0.70175 0.79254 0.80341
 O326 O 0.66992 0.78364 0.74691
 O327 O 0.70173 0.80376 0.71724
 O328 O 0.72652 0.77993 0.68899
 C329 C 0.70831 0.79863 0.69557
 O330 O 0.80638 0.79940 0.78211
 Zr331 Zr 0.78771 0.78500 0.75011
 O332 O 0.77915 0.77705 0.68912
 O333 O 0.71962 0.82995 0.75208
 O334 O 0.78181 0.82918 0.75120
 O335 O 0.83241 0.77864 0.74929
 O336 O 0.80275 0.80143 0.71770
 C337 C 0.79729 0.79561 0.69592
 O338 O 0.72853 0.73116 0.68080
 O339 O 0.78008 0.66884 0.74994
 O340 O 0.77701 0.72299 0.68884
 O341 O 0.79845 0.69607 0.71706
 O342 O 0.71565 0.66955 0.74947
 O343 O 0.69652 0.69647 0.71639
 C344 C 0.79347 0.70273 0.69536
 H345 H 0.74738 0.69385 0.77929
 H346 H 0.69651 0.75063 0.71714
 H347 H 0.80604 0.74868 0.71944
 H348 H 0.75146 0.80187 0.78177
 H349 H 0.65740 0.70416 0.75096
 H350 H 0.66275 0.80321 0.74784
 H351 H 0.70024 0.83813 0.75110
 H352 H 0.80034 0.83804 0.74727
 H353 H 0.69648 0.66171 0.75275
 H354 H 0.79957 0.66086 0.75061
 H355 H 0.83674 0.69582 0.74832
 H356 H 0.84141 0.79702 0.74571
 H357 H 0.67987 0.68429 0.71968
 H358 H 0.73629 0.73823 0.66559
 H359 H 0.76165 0.76194 0.83329
 H360 H 0.81957 0.81514 0.77865
 Zr361 Zr 1.25229 0.74754 0.20941
 O362 O 1.23107 0.76914 0.18180
 O363 O 1.27995 0.72117 0.19049
 O364 O 1.28054 0.77320 0.18998
 O365 O 1.19878 0.69857 0.21816
 O366 O 1.30327 0.79909 0.21813
 O367 O 1.22523 0.72080 0.18996
 O368 O 1.30557 0.69947 0.21942
 O369 O 1.28938 0.74911 0.22987
 O370 O 1.25210 0.71122 0.23023
 O371 O 1.24940 0.78521 0.22872
 O372 O 1.21368 0.74879 0.22857
 Zr373 Zr 1.24858 0.75114 0.29163
 Zr374 Zr 1.28552 0.78550 0.25041
 Zr375 Zr 1.21517 0.71325 0.25057
 Zr376 Zr 1.28807 0.71362 0.25152
 O377 O 1.17017 0.71587 0.25096
 O378 O 1.33253 0.72141 0.25277
 O379 O 1.25120 0.71312 0.27257
 O380 O 1.28677 0.74994 0.27226
 O381 O 1.24864 0.78783 0.27117
 O382 O 1.21170 0.74954 0.27098
 C383 C 1.29954 0.70425 0.19760
 C384 C 1.20553 0.70356 0.19647
 C385 C 1.29868 0.79203 0.19647
 O386 O 1.33042 0.78303 0.25302
 O387 O 1.29874 0.80342 0.28261
 O388 O 1.27369 0.77983 0.31089
 C389 C 1.29205 0.79839 0.30429
 O390 O 1.19410 0.79961 0.21767
 Zr391 Zr 1.21264 0.78516 0.24973
 O392 O 1.22108 0.77726 0.31075
 O393 O 1.28109 0.82965 0.24767
 O394 O 1.21887 0.82930 0.24850
 O395 O 1.16789 0.77908 0.25055
 O396 O 1.19771 0.80178 0.28209
 C397 C 1.20311 0.79596 0.30389
 O398 O 1.27136 0.73108 0.31921
 O399 O 1.21934 0.66894 0.25021
 O400 O 1.22285 0.72317 0.31116
 O401 O 1.20124 0.69633 0.28301
 O402 O 1.28382 0.66922 0.25079
 O403 O 1.30315 0.69610 0.28375
 C404 C 1.20628 0.70299 0.30468
 H405 H 1.25231 0.69368 0.22083
 H406 H 1.30354 0.75024 0.28286
 H407 H 1.19400 0.74901 0.28049
 H408 H 1.24905 0.80171 0.21805
 H409 H 1.34234 0.70348 0.24914
 H410 H 1.33774 0.80254 0.25203
 H411 H 1.30053 0.83770 0.24864
 H412 H 1.20041 0.83828 0.25238
 H413 H 1.30292 0.66124 0.24754
 H414 H 1.19979 0.66110 0.24955
 H415 H 1.16292 0.69632 0.25173
 H416 H 1.15903 0.79752 0.25408
 H417 H 1.31974 0.68385 0.28050
 H418 H 1.26364 0.73822 0.33440
 H419 H 1.23861 0.76176 0.16663
 H420 H 1.18101 0.81542 0.22108
 Zr421 Zr 0.74796 1.25236 0.20923
 O422 O 0.76919 1.23098 0.18153
 O423 O 0.72025 1.27883 0.19042
 O424 O 0.71974 1.22673 0.18974
 O425 O 0.80151 1.30125 0.21817
 O426 O 0.69701 1.20070 0.21785
 O427 O 0.77509 1.27925 0.18987
 O428 O 0.69464 1.30033 0.21944
 O429 O 0.71087 1.25065 0.22972
 O430 O 0.74814 1.28854 0.23018
 O431 O 0.75084 1.21457 0.22846
 O432 O 0.78655 1.25097 0.22840
 Zr433 Zr 0.75165 1.24819 0.29151
 Zr434 Zr 0.71472 1.21413 0.25017
 Zr435 Zr 0.78506 1.28636 0.25053
 Zr436 Zr 0.71218 1.28600 0.25149
 O437 O 0.83006 1.28374 0.25090
 O438 O 0.66772 1.27820 0.25275
 O439 O 0.74903 1.28633 0.27254
 O440 O 0.71347 1.24954 0.27212
 O441 O 0.75159 1.21165 0.27092
 O442 O 0.78852 1.24994 0.27084
 C443 C 0.70062 1.29568 0.19760
 C444 C 0.79481 1.29642 0.19645
 C445 C 0.70161 1.20785 0.19620
 O446 O 0.66982 1.21662 0.25275
 O447 O 0.70142 1.19601 0.28230
 O448 O 0.72643 1.21938 0.31069
 C449 C 0.70805 1.20088 0.30401
 O450 O 0.80613 1.20019 0.21737
 Zr451 Zr 0.78759 1.21447 0.24946
 O452 O 0.77916 1.22191 0.31053
 O453 O 0.71917 1.16999 0.24732
 O454 O 0.78134 1.17034 0.24811
 O455 O 0.83234 1.22058 0.25027
 O456 O 0.80255 1.19763 0.28176
 C457 C 0.79716 1.20328 0.30359
 O458 O 0.72890 1.26807 0.31918
 O459 O 0.78086 1.33066 0.25031
 O460 O 0.77740 1.27606 0.31111
 O461 O 0.79901 1.30306 0.28301
 O462 O 0.71647 1.33039 0.25087
 O463 O 0.69709 1.30332 0.28376
 C464 C 0.79399 1.29628 0.30468
 H465 H 0.74794 1.30614 0.22083
 H466 H 0.69669 1.24918 0.28272
 H467 H 0.80622 1.25041 0.28034
 H468 H 0.75120 1.19813 0.21774
 H469 H 0.65790 1.29616 0.24918
 H470 H 0.66248 1.19711 0.25171
 H471 H 0.69972 1.16194 0.24826
 H472 H 0.79980 1.16132 0.25196
 H473 H 0.69738 1.33841 0.24764
 H474 H 0.80040 1.33852 0.24967
 H475 H 0.83731 1.30328 0.25174
 H476 H 0.84122 1.20212 0.25375
 H477 H 0.68053 1.31564 0.28055
 H478 H 0.73663 1.26081 0.33434
 H479 H 0.76164 1.23847 0.16640
 H480 H 0.81924 1.18438 0.22074
 N481 N 0.55073 1.02958 0.02553
 N482 N 0.57066 1.04821 0.03083
 N483 N 0.53073 0.97045 0.04173
 N484 N 0.53669 0.95205 0.05848
 N485 N 0.55071 0.97045 0.02547
 N486 N 0.57082 0.95209 0.03082
 N487 N 0.53065 1.02957 0.04171
 N488 N 0.53634 1.04820 0.05833
 C489 C 0.56119 1.05994 0.05123
 C490 C 0.56159 0.94047 0.05133
 N491 N 0.44920 0.97037 0.02562
 N492 N 0.42934 0.95166 0.03092
 N493 N 0.46920 1.02949 0.04177
 N494 N 0.46321 1.04780 0.05856
 N495 N 0.44918 1.02950 0.02555
 N496 N 0.42902 1.04777 0.03097
 N497 N 0.46930 0.97038 0.04177
 N498 N 0.46372 0.95166 0.05835
 Mn499 Mn 0.49997 0.99998 0.04190
 C500 C 0.43890 0.93988 0.05128
 C501 C 0.43826 1.05933 0.05148
 N502 N 0.55067 0.97042 -0.02575
 N503 N 0.57061 0.95186 -0.03111
 N504 N 0.53064 1.02954 -0.04191
 N505 N 0.53653 1.04803 -0.05862
 N506 N 0.55064 1.02954 -0.02568
 N507 N 0.57069 1.04801 -0.03100
 N508 N 0.53056 0.97042 -0.04190
 N509 N 0.53625 0.95185 -0.05855
 Mn510 Mn 0.55096 1.00000 -0.00011
 C511 C 0.56113 0.94015 -0.05151
 C512 C 0.56140 1.05967 -0.05146
 N513 N 0.44914 1.02957 -0.02569
 N514 N 0.42924 1.04822 -0.03099
 N515 N 0.46910 0.97045 -0.04186
 N516 N 0.46308 0.95210 -0.05862
 N517 N 0.44912 0.97044 -0.02560
 N518 N 0.42895 0.95212 -0.03096
 N519 N 0.46921 1.02957 -0.04187
 N520 N 0.46356 1.04823 -0.05849
 Mn521 Mn 0.44889 0.99997 -0.00003
 Mn522 Mn 0.49988 0.99999 -0.04204
 Cl523 Cl 0.49992 0.99998 -0.00007
 C524 C 0.43873 1.05997 -0.05139
 C525 C 0.43815 0.94054 -0.05148
 N526 N 0.96985 0.53024 0.45817
 N527 N 0.95131 0.53634 0.44141
 N528 N 1.02966 0.55001 0.47436
 N529 N 1.04866 0.56961 0.46929
 N530 N 1.02970 0.53032 0.45811
 N531 N 1.04875 0.53595 0.44163
 N532 N 0.96984 0.54982 0.47452
 N533 N 0.95132 0.56975 0.46927
 C534 C 0.93962 0.56086 0.44871
 C535 C 1.06065 0.56037 0.44894
 N536 N 1.02984 0.53044 0.54176
 N537 N 1.04830 0.53670 0.55854
 N538 N 0.96989 0.54980 0.52556
 N539 N 0.95093 0.56937 0.53072
 N540 N 0.96998 0.53009 0.54183
 N541 N 0.95106 0.53569 0.55841
 N542 N 1.02972 0.55004 0.52539
 N543 N 1.04806 0.57013 0.53065
 Mn544 Mn 0.99977 0.55017 0.49995
 C545 C 1.05980 0.56134 0.55123
 C546 C 0.93907 0.56010 0.55114
 N547 N 1.02984 0.46970 0.45807
 N548 N 1.04832 0.46364 0.44125
 N549 N 0.97010 0.44989 0.47445
 N550 N 0.95130 0.43013 0.46933
 N551 N 0.96997 0.46960 0.45819
 N552 N 0.95106 0.46382 0.44164
 N553 N 1.02993 0.45011 0.47443
 N554 N 1.04845 0.43020 0.46914
 Mn555 Mn 0.99984 0.49997 0.45794
 C556 C 1.06006 0.43911 0.44854
 C557 C 0.93931 0.43930 0.44894
 N558 N 0.97025 0.46946 0.54184
 N559 N 0.95165 0.46334 0.55857
 N560 N 1.03010 0.45010 0.52546
 N561 N 1.04912 0.43054 0.53053
 N562 N 1.03010 0.46979 0.54172
 N563 N 1.04913 0.46418 0.55821
 N564 N 0.97028 0.44989 0.52548
 N565 N 0.95175 0.42994 0.53068
 Mn566 Mn 1.00004 0.49994 0.54198
 Mn567 Mn 1.00011 0.44975 0.49996
 Cl568 Cl 0.99994 0.49996 0.49996
 C569 C 0.94000 0.43880 0.55123
 C570 C 1.06109 0.43980 0.55089
 N571 N 0.97075 0.55055 0.02522
 N572 N 0.95204 0.57032 0.03063
 N573 N 1.03062 0.53069 0.04129
 N574 N 1.04924 0.53655 0.05804
 N575 N 1.03065 0.55044 0.02504
 N576 N 1.04926 0.57028 0.03041
 N577 N 0.97072 0.53071 0.04139
 N578 N 0.95199 0.53641 0.05810
 C579 C 0.94021 0.56101 0.05108
 C580 C 1.06099 0.56113 0.05091
 N581 N 1.03049 0.45023 0.02519
 N582 N 1.04919 0.43044 0.03057
 N583 N 0.97064 0.47004 0.04144
 N584 N 0.95219 0.46405 0.05831
 N585 N 0.97058 0.45031 0.02520
 N586 N 0.95211 0.43036 0.03070
 N587 N 1.03055 0.47004 0.04135
 N588 N 1.04930 0.46430 0.05804
 Mn589 Mn 1.00063 0.50037 0.04152
 C590 C 1.06105 0.43970 0.05100
 C591 C 0.94049 0.43941 0.05127
 N592 N 1.03063 0.55057 -0.02622
 N593 N 1.04914 0.57048 -0.03182
 N594 N 0.97066 0.53083 -0.04224
 N595 N 0.95189 0.53666 -0.05888
 N596 N 0.97072 0.55055 -0.02600
 N597 N 0.95202 0.57034 -0.03125
 N598 N 1.03057 0.53076 -0.04239
 N599 N 1.04905 0.53663 -0.05928
 Mn600 Mn 1.00069 0.55079 -0.00049
 C601 C 1.06078 0.56130 -0.05237
 C602 C 0.94014 0.56120 -0.05168
 N603 N 0.97048 0.45036 -0.02605
 N604 N 0.95171 0.43062 -0.03142
 N605 N 1.03041 0.47006 -0.04229
 N606 N 1.04905 0.46419 -0.05902
 N607 N 1.03038 0.45032 -0.02603
 N608 N 1.04898 0.43047 -0.03137
 N609 N 0.97051 0.47018 -0.04224
 N610 N 0.95175 0.46448 -0.05893
 Mn611 Mn 1.00048 0.45004 -0.00043
 Mn612 Mn 1.00054 0.50045 -0.04244
 Cl613 Cl 1.00059 0.50041 -0.00046
 C614 C 0.93990 0.43992 -0.05187
 C615 C 1.06076 0.43960 -0.05187
 N616 N 0.55016 1.02909 0.52577
 N617 N 0.57007 1.04774 0.53095
 N618 N 0.53047 0.96993 0.54203
 N619 N 0.53669 0.95156 0.55875
 N620 N 0.55032 0.97005 0.52567
 N621 N 0.57056 0.95180 0.53086
 N622 N 0.53021 1.02901 0.54205
 N623 N 0.53598 1.04761 0.55865
 C624 C 0.56074 1.05941 0.55139
 C625 C 0.56158 0.94014 0.55140
 N626 N 0.44898 0.96962 0.52595
 N627 N 0.42885 0.95126 0.53138
 N628 N 0.46876 1.02874 0.54214
 N629 N 0.46259 1.04704 0.55889
 N630 N 0.44887 1.02868 0.52582
 N631 N 0.42864 1.04691 0.53108
 N632 N 0.46899 0.96965 0.54218
 N633 N 0.46303 0.95129 0.55898
 Mn634 Mn 0.49961 0.99933 0.54228
 C635 C 0.43810 0.93969 0.55190
 C636 C 0.43767 1.05850 0.55162
 N637 N 0.55030 0.97005 0.47461
 N638 N 0.57033 0.95156 0.46936
 N639 N 0.53025 1.02907 0.45835
 N640 N 0.53652 1.04717 0.44143
 N641 N 0.55015 1.02912 0.47467
 N642 N 0.57046 1.04722 0.46922
 N643 N 0.53029 0.96997 0.45839
 N644 N 0.53613 0.95142 0.44177
 Mn645 Mn 0.55048 0.99958 0.50018
 C646 C 0.56101 0.93982 0.44895
 C647 C 0.56148 1.05864 0.44859
 N648 N 0.44882 1.02879 0.47475
 N649 N 0.42885 1.04740 0.46960
 N650 N 0.46886 0.96983 0.45849
 N651 N 0.46274 0.95154 0.44172
 N652 N 0.44900 0.96974 0.47485
 N653 N 0.42884 0.95143 0.46958
 N654 N 0.46880 1.02891 0.45850
 N655 N 0.46300 1.04760 0.44195
 Mn656 Mn 0.44866 0.99921 0.50034
 Mn657 Mn 0.49954 0.99945 0.45826
 Cl658 Cl 0.49957 0.99939 0.50027
 C659 C 0.43818 1.05924 0.44921
 C660 C 0.43789 0.93994 0.44902
 N661 N 1.05094 1.02903 0.52580
 N662 N 1.07063 1.04793 0.53087
 N663 N 1.03079 0.96999 0.54198
 N664 N 1.03617 0.95119 0.55850
 N665 N 1.05095 0.96999 0.52589
 N666 N 1.07069 0.95119 0.53116
 N667 N 1.03085 1.02902 0.54193
 N668 N 1.03623 1.04794 0.55834
 C669 C 1.06094 1.05980 0.55110
 C670 C 1.06095 0.93937 0.55143
 N671 N 0.94961 0.97006 0.52560
 N672 N 0.92998 0.95103 0.53053
 N673 N 0.96967 1.02905 0.54183
 N674 N 0.96432 1.04801 0.55821
 N675 N 0.94960 1.02908 0.52566
 N676 N 0.92997 1.04805 0.53073
 N677 N 0.96961 0.97003 0.54181
 N678 N 0.96422 0.95097 0.55812
 Mn679 Mn 1.00022 0.99953 0.54207
 C680 C 0.93961 0.93906 0.55075
 C681 C 0.93966 1.05993 0.55097
 N682 N 1.05105 0.97006 0.47481
 N683 N 1.07080 0.95124 0.46972
 N684 N 1.03099 1.02911 0.45861
 N685 N 1.03618 1.04829 0.44236
 N686 N 1.05107 1.02909 0.47476
 N687 N 1.07057 1.04826 0.46982
 N688 N 1.03103 0.97009 0.45861
 N689 N 1.03654 0.95126 0.44216
 Mn690 Mn 1.05133 0.99954 0.50031
 C691 C 1.06123 0.93942 0.44943
 C692 C 1.06077 1.06029 0.44966
 N693 N 0.94973 1.02910 0.47460
 N694 N 0.92991 1.04780 0.46937
 N695 N 0.96986 0.97007 0.45849
 N696 N 0.96460 0.95109 0.44210
 N697 N 0.94970 0.97006 0.47457
 N698 N 0.93008 0.95109 0.46946
 N699 N 0.96982 1.02910 0.45846
 N700 N 0.96429 1.04782 0.44190
 Mn701 Mn 0.94933 0.99958 0.50011
 Mn702 Mn 1.00043 0.99959 0.45835
 Cl703 Cl 1.00033 0.99956 0.50021
 C704 C 0.93951 1.05958 0.44905
 C705 C 0.93989 0.93918 0.44927
 N706 N 0.53068 0.45043 -0.02484
 N707 N 0.53668 0.43083 -0.04054
 N708 N 0.55023 0.46982 0.02473
 N709 N 0.57002 0.46389 0.04053
 N710 N 0.53038 0.45037 0.02468
 N711 N 0.53608 0.43073 0.04042
 N712 N 0.55041 0.46999 -0.02479
 N713 N 0.57037 0.46423 -0.04046
 C714 C 0.56135 0.43990 -0.05034
 C715 C 0.56071 0.43959 0.05036
 N716 N 0.53030 0.54982 0.02470
 N717 N 0.53619 0.56950 0.04036
 N718 N 0.55025 0.53050 -0.02476
 N719 N 0.57009 0.53649 -0.04050
 N720 N 0.53031 0.54984 -0.02480
 N721 N 0.53599 0.56947 -0.04055
 N722 N 0.55009 0.53034 0.02475
 N723 N 0.56998 0.53623 0.04044
 Mn724 Mn 0.55053 0.50016 -0.00002
 C725 C 0.56085 0.56057 0.05023
 C726 C 0.56070 0.56072 -0.05039
 N727 N 0.46913 0.45024 0.02452
 N728 N 0.46319 0.43055 0.04019
 N729 N 0.44951 0.46968 -0.02503
 N730 N 0.42980 0.46375 -0.04088
 N731 N 0.46944 0.45034 -0.02497
 N732 N 0.46388 0.43076 -0.04078
 N733 N 0.44932 0.46970 0.02448
 N734 N 0.42936 0.46379 0.04012
 Mn735 Mn 0.49991 0.45009 -0.00015
 C736 C 0.43847 0.43946 0.04997
 C737 C 0.43926 0.43955 -0.05074
 N738 N 0.46906 0.54979 -0.02496
 N739 N 0.46307 0.56951 -0.04059
 N740 N 0.44918 0.53023 0.02450
 N741 N 0.42933 0.53608 0.04026
 N742 N 0.46905 0.54965 0.02455
 N743 N 0.46331 0.56920 0.04033
 N744 N 0.44934 0.53022 -0.02502
 N745 N 0.42941 0.53609 -0.04069
 Mn746 Mn 0.49968 0.55003 -0.00013
 Mn747 Mn 0.44905 0.49995 -0.00027
 Cl748 Cl 0.49979 0.50006 -0.00014
 C749 C 0.43843 0.56051 -0.05046
 C750 C 0.43863 0.56031 0.05017
 C751 C 0.34119 1.15877 0.14300
 C752 C 0.32300 1.18080 0.13655
 C753 C 0.30775 1.19548 0.15389
 C754 C 0.31054 1.18830 0.17796
 C755 C 0.32877 1.16597 0.18417
 C756 C 0.34393 1.15137 0.16683
 C757 C 0.35737 1.14377 0.12540
 C758 C 0.37143 1.13069 0.11132
 C759 C 0.38874 1.11441 0.09535
 C760 C 0.37777 1.10515 0.07369
 C761 C 0.39415 1.08780 0.05901
 C762 C 0.42167 1.07945 0.06591
 C763 C 0.43273 1.08939 0.08743
 C764 C 0.41637 1.10672 0.10203
 H765 H 0.32071 1.18674 0.11816
 H766 H 0.29398 1.21256 0.14845
 H767 H 0.33148 1.15981 0.20246
 H768 H 0.35794 1.13435 0.17204
 H769 H 0.35639 1.11091 0.06834
 H770 H 0.38507 1.08045 0.04254
 H771 H 0.45386 1.08334 0.09321
 H772 H 0.42509 1.11370 0.11876
 C773 C 0.83639 0.65466 0.64169
 C774 C 0.81898 0.67730 0.63525
 C775 C 0.80485 0.69291 0.65264
 C776 C 0.80801 0.68608 0.67674
 C777 C 0.82550 0.66318 0.68295
 C778 C 0.83954 0.64764 0.66556
 C779 C 0.85153 0.63875 0.62406
 C780 C 0.86489 0.62497 0.61002
 C781 C 0.88167 0.60804 0.59418
 C782 C 0.88972 0.58089 0.60100
 C783 C 0.90779 0.56501 0.58664
 C784 C 0.91810 0.57610 0.56524
 C785 C 0.90933 0.60310 0.55817
 C786 C 0.89125 0.61901 0.57261
 H787 H 0.81644 0.68296 0.61682
 H788 H 0.79160 0.71040 0.64722
 H789 H 0.82845 0.65726 0.70127
 H790 H 0.85300 0.63019 0.67076
 H791 H 0.88250 0.57221 0.61767
 H792 H 0.91415 0.54426 0.59252
 H793 H 0.91696 0.61217 0.54179
 H794 H 0.88522 0.64003 0.56719
 C795 C 0.65862 0.84064 0.14259
 C796 C 0.67681 0.81860 0.13618
 C797 C 0.69208 0.80397 0.15354
 C798 C 0.68932 0.81120 0.17758
 C799 C 0.67109 0.83353 0.18375
 C800 C 0.65590 0.84809 0.16639
 C801 C 0.64243 0.85562 0.12497
 C802 C 0.62836 0.86871 0.11090
 C803 C 0.61103 0.88505 0.09497
 C804 C 0.58344 0.89276 0.10173
 C805 C 0.56709 0.91020 0.08719
 C806 C 0.57814 0.92022 0.06567
 C807 C 0.60562 0.91183 0.05870
 C808 C 0.62199 0.89438 0.07331
 H809 H 0.67908 0.81264 0.11780
 H810 H 0.70586 0.78688 0.14814
 H811 H 0.66839 0.83973 0.20203
 H812 H 0.64189 0.86511 0.17157
 H813 H 0.57475 0.88572 0.11846
 H814 H 0.54599 0.91627 0.09302
 H815 H 0.61468 0.91925 0.04223
 H816 H 0.64335 0.88860 0.06792
 C817 C 1.16386 0.34503 0.64124
 C818 C 1.18120 0.32233 0.63486
 C819 C 1.19528 0.30672 0.65230
 C820 C 1.19213 0.31362 0.67637
 C821 C 1.17470 0.33657 0.68251
 C822 C 1.16071 0.35211 0.66508
 C823 C 1.14878 0.36096 0.62357
 C824 C 1.13545 0.37478 0.60953
 C825 C 1.11868 0.39177 0.59371
 C826 C 1.10897 0.38083 0.57219
 C827 C 1.09085 0.39678 0.55781
 C828 C 1.08214 0.42378 0.56490
 C829 C 1.09259 0.43484 0.58624
 C830 C 1.11071 0.41892 0.60054
 H831 H 1.18374 0.31663 0.61644
 H832 H 1.20848 0.28918 0.64693
 H833 H 1.17176 0.34255 0.70082
 H834 H 1.14730 0.36962 0.67022
 H835 H 1.11494 0.35980 0.56677
 H836 H 1.08311 0.38773 0.54147
 H837 H 1.08629 0.45559 0.59213
 H838 H 1.11802 0.42757 0.61718
 C839 C 0.65820 1.15987 -0.14261
 C840 C 0.65543 1.15239 -0.16640
 C841 C 0.67063 1.16689 -0.18380
 C842 C 0.68893 1.18919 -0.17767
 C843 C 0.69174 1.19647 -0.15364
 C844 C 0.67645 1.18189 -0.13624
 C845 C 0.64202 1.14492 -0.12497
 C846 C 0.62797 1.13181 -0.11090
 C847 C 0.61066 1.11543 -0.09498
 C848 C 0.58308 1.10766 -0.10173
 C849 C 0.56677 1.09011 -0.08723
 C850 C 0.57787 1.08005 -0.06575
 C851 C 0.60532 1.08850 -0.05877
 C852 C 0.62165 1.10606 -0.07334
 H853 H 0.64137 1.13537 -0.17154
 H854 H 0.66790 1.16066 -0.20206
 H855 H 0.70557 1.21353 -0.14827
 H856 H 0.67876 1.18787 -0.11787
 H857 H 0.57437 1.11472 -0.11844
 H858 H 0.54570 1.08399 -0.09306
 H859 H 0.61441 1.08106 -0.04233
 H860 H 0.64299 1.11188 -0.06796
 C861 C 1.16341 0.65505 0.35851
 C862 C 1.16006 0.64809 0.33466
 C863 C 1.17406 0.66361 0.31721
 C864 C 1.19171 0.68641 0.32335
 C865 C 1.19506 0.69320 0.34743
 C866 C 1.18096 0.67760 0.36488
 C867 C 1.14835 0.63914 0.37620
 C868 C 1.13504 0.62534 0.39027
 C869 C 1.11829 0.60837 0.40612
 C870 C 1.11041 0.58116 0.39935
 C871 C 1.09227 0.56525 0.41366
 C872 C 1.08173 0.57638 0.43495
 C873 C 1.09035 0.60344 0.44197
 C874 C 1.10849 0.61937 0.42758
 H875 H 1.14649 0.63070 0.32953
 H876 H 1.17098 0.65773 0.29890
 H877 H 1.20843 0.71061 0.35280
 H878 H 1.18366 0.68320 0.38331
 H879 H 1.11779 0.57247 0.38275
 H880 H 1.08604 0.54447 0.40782
 H881 H 1.08254 0.61253 0.45827
 H882 H 1.11439 0.64045 0.43295
 C883 C 0.34088 0.84078 -0.14264
 C884 C 0.32266 0.81872 -0.13624
 C885 C 0.30737 0.80412 -0.15361
 C886 C 0.31014 0.81141 -0.17765
 C887 C 0.32841 0.83376 -0.18381
 C888 C 0.34361 0.84827 -0.16644
 C889 C 0.35709 0.85574 -0.12502
 C890 C 0.37118 0.86884 -0.11098
 C891 C 0.38855 0.88519 -0.09508
 C892 C 0.37765 0.89448 -0.07339
 C893 C 0.39407 0.91192 -0.05881
 C894 C 0.42153 0.92034 -0.06582
 C895 C 0.43252 0.91038 -0.08736
 C896 C 0.41613 0.89296 -0.10188
 H897 H 0.32038 0.81271 -0.11786
 H898 H 0.29357 0.78703 -0.14822
 H899 H 0.33112 0.84000 -0.20208
 H900 H 0.35764 0.86531 -0.17162
 H901 H 0.35631 0.88867 -0.06796
 H902 H 0.38504 0.91928 -0.04232
 H903 H 0.45361 0.91648 -0.09323
 H904 H 0.42479 0.88596 -0.11862
 C905 C 0.83707 0.34403 0.35849
 C906 C 0.81950 0.32147 0.36488
 C907 C 0.80534 0.30593 0.34744
 C908 C 0.80862 0.31278 0.32335
 C909 C 0.82629 0.33559 0.31720
 C910 C 0.84036 0.35104 0.33463
 C911 C 0.85216 0.35995 0.37615
 C912 C 0.86547 0.37378 0.39020
 C913 C 0.88219 0.39084 0.40601
 C914 C 0.89194 0.37994 0.42754
 C915 C 0.90993 0.39601 0.44194
 C916 C 0.91845 0.42310 0.43487
 C917 C 0.90797 0.43411 0.41351
 C918 C 0.88999 0.41807 0.39918
 H919 H 0.81684 0.31582 0.38330
 H920 H 0.79196 0.28851 0.35282
 H921 H 0.82934 0.34152 0.29889
 H922 H 0.85392 0.36844 0.32947
 H923 H 0.88611 0.35886 0.43297
 H924 H 0.91769 0.38699 0.45830
 H925 H 0.91413 0.45492 0.40762
 H926 H 0.88264 0.42670 0.38254
 C927 C 1.16456 0.34638 0.14261
 C928 C 1.18526 0.32659 0.13620
 C929 C 1.19971 0.31124 0.15364
 C930 C 1.19362 0.31546 0.17778
 C931 C 1.17292 0.33560 0.18397
 C932 C 1.15855 0.35087 0.16653
 C933 C 1.14908 0.36197 0.12486
 C934 C 1.13545 0.37544 0.11070
 C935 C 1.11839 0.39206 0.09470
 C936 C 1.10856 0.38072 0.07334
 C937 C 1.09045 0.39645 0.05871
 C938 C 1.08187 0.42366 0.06535
 C939 C 1.09235 0.43506 0.08657
 C940 C 1.11044 0.41936 0.10112
 H941 H 1.19012 0.32291 0.11774
 H942 H 1.21551 0.29597 0.14820
 H943 H 1.16762 0.33948 0.20231
 H944 H 1.14259 0.36611 0.17174
 H945 H 1.11448 0.35958 0.06820
 H946 H 1.08270 0.38711 0.04249
 H947 H 1.08617 0.45596 0.09216
 H948 H 1.11781 0.42837 0.11760
 C949 C 0.66230 0.84392 0.64207
 C950 C 0.68270 0.82395 0.63551
 C951 C 0.69816 0.80954 0.65286
 C952 C 0.69331 0.81494 0.67701
 C953 C 0.67306 0.83543 0.68333
 C954 C 0.65770 0.84976 0.66598
 C955 C 0.64555 0.85822 0.62451
 C956 C 0.63087 0.87067 0.61052
 C957 C 0.61279 0.88622 0.59470
 C958 C 0.58528 0.89363 0.60191
 C959 C 0.56825 0.91051 0.58746
 C960 C 0.57859 0.92023 0.56562
 C961 C 0.60595 0.91206 0.55818
 C962 C 0.62299 0.89518 0.57269
 H963 H 0.68644 0.81930 0.61702
 H964 H 0.71357 0.79392 0.64736
 H965 H 0.66876 0.84018 0.70170
 H966 H 0.64198 0.86522 0.67125
 H967 H 0.57720 0.88685 0.61893
 H968 H 0.54726 0.91646 0.59362
 H969 H 0.61445 0.91926 0.54144
 H970 H 0.64427 0.88960 0.56697
 C971 C 1.16398 0.65503 -0.14449
 C972 C 1.15806 0.65068 -0.16842
 C973 C 1.17256 0.66595 -0.18582
 C974 C 1.19346 0.68614 -0.17968
 C975 C 1.19939 0.69007 -0.15536
 C976 C 1.18476 0.67468 -0.13801
 C977 C 1.14835 0.63939 -0.12678
 C978 C 1.13465 0.62590 -0.11264
 C979 C 1.11756 0.60925 -0.09659
 C980 C 1.10943 0.58199 -0.10302
 C981 C 1.09150 0.56622 -0.08834
 C982 C 1.08135 0.57749 -0.06696
 C983 C 1.09006 0.60467 -0.06033
 C984 C 1.10801 0.62047 -0.07509
 H985 H 1.14205 0.63551 -0.17369
 H986 H 1.16708 0.66189 -0.20410
 H987 H 1.21522 0.70515 -0.14956
 H988 H 1.18959 0.67824 -0.11953
 H989 H 1.11658 0.57304 -0.11960
 H990 H 1.08522 0.54535 -0.09395
 H991 H 1.08257 0.61393 -0.04399
 H992 H 1.11407 0.64156 -0.06991
 C993 C 0.66190 1.15504 0.35727
 C994 C 0.65708 1.14967 0.33331
 C995 C 0.67244 1.16421 0.31604
 C996 C 0.69293 1.18444 0.32248
 C997 C 0.69796 1.18939 0.34668
 C998 C 0.68250 1.17478 0.36395
 C999 C 0.64520 1.14046 0.37479
 C1000 C 0.63061 1.12784 0.38879
 C1001 C 0.61265 1.11215 0.40468
 C1002 C 0.58515 1.10454 0.39758
 C1003 C 0.56817 1.08775 0.41219
 C1004 C 0.57853 1.07832 0.43411
 C1005 C 0.60591 1.08664 0.44141
 C1006 C 0.62289 1.10343 0.42674
 H1007 H 0.64120 1.13441 0.32794
 H1008 H 0.66797 1.15980 0.29764
 H1009 H 0.71356 1.20479 0.35228
 H1010 H 0.68643 1.17907 0.38246
 H1011 H 0.57701 1.11115 0.38053
 H1012 H 0.54718 1.08170 0.40611
 H1013 H 0.61445 1.07966 0.45820
 H1014 H 0.64416 1.10916 0.43240
 C1015 C 0.83606 0.65371 0.14262
 C1016 C 0.81528 0.67340 0.13616
 C1017 C 0.80067 0.68864 0.15357
 C1018 C 0.80669 0.68441 0.17772
 C1019 C 0.82747 0.66437 0.18396
 C1020 C 0.84199 0.64920 0.16656
 C1021 C 0.85171 0.63824 0.12490
 C1022 C 0.86547 0.62488 0.11077
 C1023 C 0.88266 0.60838 0.09479
 C1024 C 0.89072 0.58108 0.10120
 C1025 C 0.90888 0.56549 0.08666
 C1026 C 0.91934 0.57697 0.06544
 C1027 C 0.91067 0.60417 0.05880
 C1028 C 0.89248 0.61979 0.07343
 H1029 H 0.81048 0.67709 0.11769
 H1030 H 0.78483 0.70385 0.14808
 H1031 H 0.83271 0.66049 0.20231
 H1032 H 0.85800 0.63403 0.17181
 H1033 H 0.88335 0.57201 0.11768
 H1034 H 0.91513 0.54460 0.09226
 H1035 H 0.91840 0.61356 0.04258
 H1036 H 0.88648 0.64092 0.06828
 C1037 C 0.33753 1.15528 0.64230
 C1038 C 0.34226 1.14967 0.66624
 C1039 C 0.32698 1.16417 0.68354
 C1040 C 0.30669 1.18460 0.67714
 C1041 C 0.30172 1.18978 0.65296
 C1042 C 0.31709 1.17520 0.63566
 C1043 C 0.35417 1.14079 0.62478
 C1044 C 0.36875 1.12821 0.61081
 C1045 C 0.38671 1.11252 0.59500
 C1046 C 0.41421 1.10499 0.60216
 C1047 C 0.43114 1.08806 0.58769
 C1048 C 0.42072 1.07839 0.56588
 C1049 C 0.39336 1.08666 0.55850
 C1050 C 0.37643 1.10360 0.57303
 H1051 H 0.35800 1.13427 0.67157
 H1052 H 0.33138 1.15959 0.70193
 H1053 H 0.28627 1.20533 0.64739
 H1054 H 0.31325 1.17967 0.61715
 H1055 H 0.42235 1.11176 0.61915
 H1056 H 0.45213 1.08205 0.59382
 H1057 H 0.38480 1.07950 0.54178
 H1058 H 0.35515 1.10926 0.56734
 C1059 C 0.83591 0.34676 -0.14319
 C1060 C 0.81507 0.32713 -0.13666
 C1061 C 0.80050 0.31176 -0.15401
 C1062 C 0.80663 0.31579 -0.17817
 C1063 C 0.82747 0.33576 -0.18448
 C1064 C 0.84194 0.35106 -0.16714
 C1065 C 0.85149 0.36237 -0.12553
 C1066 C 0.86521 0.37583 -0.11143
 C1067 C 0.88237 0.39241 -0.09548
 C1068 C 0.89211 0.38109 -0.07408
 C1069 C 0.91029 0.39677 -0.05948
 C1070 C 0.91902 0.42393 -0.06620
 C1071 C 0.90864 0.43532 -0.08747
 C1072 C 0.89048 0.41967 -0.10198
 H1073 H 0.81018 0.32360 -0.11818
 H1074 H 0.78461 0.29662 -0.14848
 H1075 H 0.83279 0.33949 -0.20284
 H1076 H 0.85801 0.36618 -0.17244
 H1077 H 0.88607 0.35999 -0.06887
 H1078 H 0.91796 0.38744 -0.04322
 H1079 H 0.91494 0.45618 -0.09312
 H1080 H 0.88317 0.42867 -0.11850
 C1081 C 0.33794 0.84370 0.35782
 C1082 C 0.31724 0.82398 0.36436
 C1083 C 0.30185 0.80956 0.34699
 C1084 C 0.30707 0.81467 0.32284
 C1085 C 0.32765 0.83488 0.31653
 C1086 C 0.34294 0.84924 0.33390
 C1087 C 0.35456 0.85805 0.37543
 C1088 C 0.36911 0.87052 0.38949
 C1089 C 0.38705 0.88608 0.40541
 C1090 C 0.37670 0.89490 0.42739
 C1091 C 0.39360 0.91176 0.44201
 C1092 C 0.42099 0.92005 0.43470
 C1093 C 0.43148 0.91047 0.41288
 C1094 C 0.41458 0.89361 0.39833
 H1095 H 0.31318 0.81957 0.38285
 H1096 H 0.28618 0.79417 0.35248
 H1097 H 0.33225 0.83940 0.29816
 H1098 H 0.35890 0.86449 0.32865
 H1099 H 0.35539 0.88922 0.43302
 H1100 H 0.38499 0.91885 0.45873
 H1101 H 0.45250 0.91650 0.40682
 H1102 H 0.42278 0.88692 0.38134
 C1103 C 1.15307 1.16272 0.35796
 C1104 C 1.17434 1.18187 0.36432
 C1105 C 1.18987 1.19589 0.34683
 C1106 C 1.18432 1.19089 0.32271
 C1107 C 1.16275 1.17168 0.31656
 C1108 C 1.14727 1.15771 0.33408
 C1109 C 1.13738 1.14780 0.37582
 C1110 C 1.12393 1.13467 0.39021
 C1111 C 1.10742 1.11812 0.40646
 C1112 C 1.07948 1.11076 0.40055
 C1113 C 1.06401 1.09262 0.41508
 C1114 C 1.07633 1.08157 0.43574
 C1115 C 1.10410 1.08976 0.44201
 C1116 C 1.11961 1.10791 0.42737
 H1117 H 1.17900 1.18587 0.38277
 H1118 H 1.20627 1.21056 0.35222
 H1119 H 1.15789 1.16732 0.29821
 H1120 H 1.13084 1.14288 0.32900
 H1121 H 1.06989 1.11850 0.38438
 H1122 H 1.04263 1.08674 0.40985
 H1123 H 1.11409 1.08152 0.45781
 H1124 H 1.14128 1.11343 0.43205
 C1125 C 0.65327 0.65802 -0.14587
 C1126 C 0.64627 0.65589 -0.16978
 C1127 C 0.66131 0.67144 -0.18651
 C1128 C 0.68363 0.68937 -0.17951
 C1129 C 0.69029 0.69165 -0.15533
 C1130 C 0.67517 0.67600 -0.13860
 C1131 C 0.63801 0.64141 -0.12899
 C1132 C 0.62479 0.62719 -0.11529
 C1133 C 0.60859 0.61018 -0.09930
 C1134 C 0.61943 0.58443 -0.09143
 C1135 C 0.60360 0.56795 -0.07577
 C1136 C 0.57681 0.57717 -0.06788
 C1137 C 0.56594 0.60290 -0.07614
 C1138 C 0.58179 0.61931 -0.09178
 H1139 H 0.62929 0.64203 -0.17552
 H1140 H 0.65555 0.66919 -0.20495
 H1141 H 0.70735 0.70524 -0.14937
 H1142 H 0.68066 0.67776 -0.12006
 H1143 H 0.64014 0.57718 -0.09729
 H1144 H 0.61243 0.54822 -0.06965
 H1145 H 0.54535 0.61047 -0.07033
 H1146 H 0.57322 0.63918 -0.09790
 C1147 C 0.84657 1.16166 0.64270
 C1148 C 0.82541 1.18084 0.63618
 C1149 C 0.80985 1.19502 0.65355
 C1150 C 0.81528 1.19014 0.67771
 C1151 C 0.83672 1.17087 0.68403
 C1152 C 0.85222 1.15675 0.66662
 C1153 C 0.86236 1.14666 0.62496
 C1154 C 0.87590 1.13352 0.61065
 C1155 C 0.89252 1.11704 0.59443
 C1156 C 0.88053 1.10707 0.57338
 C1157 C 0.89618 1.08913 0.55869
 C1158 C 0.92391 1.08091 0.56504
 C1159 C 0.93603 1.09169 0.58587
 C1160 C 0.92041 1.10961 0.60046
 H1161 H 0.82086 1.18477 0.61770
 H1162 H 0.79355 1.20972 0.64803
 H1163 H 0.84149 1.16660 0.70241
 H1164 H 0.86857 1.14190 0.67184
 H1165 H 0.85891 1.11264 0.56859
 H1166 H 0.88634 1.08110 0.54275
 H1167 H 0.95737 1.08578 0.59118
 H1168 H 0.92987 1.11717 0.61673
 C1169 C 0.34612 0.65702 0.14605
 C1170 C 0.32453 0.67533 0.13873
 C1171 C 0.30952 0.69108 0.15544
 C1172 C 0.31599 0.68860 0.17965
 C1173 C 0.33799 0.67031 0.18670
 C1174 C 0.35292 0.65465 0.17000
 C1175 C 0.36136 0.64041 0.12916
 C1176 C 0.37456 0.62623 0.11542
 C1177 C 0.39075 0.60934 0.09936
 C1178 C 0.37994 0.58361 0.09142
 C1179 C 0.39576 0.56728 0.07567
 C1180 C 0.42251 0.57663 0.06774
 C1181 C 0.43334 0.60233 0.07605
 C1182 C 0.41751 0.61860 0.09179
 H1183 H 0.31920 0.67728 0.12017
 H1184 H 0.29270 0.70494 0.14943
 H1185 H 0.34359 0.66789 0.20516
 H1186 H 0.36966 0.64055 0.17578
 H1187 H 0.35927 0.57626 0.09731
 H1188 H 0.38696 0.54755 0.06950
 H1189 H 0.45390 0.61001 0.07023
 H1190 H 0.42606 0.63845 0.09795
 C1191 C 1.15410 0.83824 0.64389
 C1192 C 1.17543 0.81929 0.63740
 C1193 C 1.19097 0.80503 0.65475
 C1194 C 1.18546 0.80952 0.67907
 C1195 C 1.16367 0.82870 0.68523
 C1196 C 1.14823 0.84286 0.66779
 C1197 C 1.13833 0.85328 0.62612
 C1198 C 1.12481 0.86641 0.61176
 C1199 C 1.10821 0.88282 0.59544
 C1200 C 1.08028 0.89019 0.60136
 C1201 C 1.06464 0.90794 0.58661
 C1202 C 1.07677 0.91860 0.56572
 C1203 C 1.10457 0.91047 0.55950
 C1204 C 1.12024 0.89270 0.57435
 H1205 H 1.18014 0.81557 0.61892
 H1206 H 1.20736 0.79056 0.64893
 H1207 H 1.15844 0.83299 0.70353
 H1208 H 1.13172 0.85754 0.67298
 H1209 H 1.07078 0.88270 0.61765
 H1210 H 1.04325 0.91379 0.59183
 H1211 H 1.11443 0.91840 0.54352
 H1212 H 1.14190 0.88716 0.56964
 C1213 C 0.65355 0.34281 0.14618
 C1214 C 0.67511 0.32450 0.13879
 C1215 C 0.69030 0.30881 0.15546
 C1216 C 0.68406 0.31136 0.17970
 C1217 C 0.66212 0.32966 0.18683
 C1218 C 0.64701 0.34525 0.17017
 C1219 C 0.63813 0.35936 0.12932
 C1220 C 0.62483 0.37351 0.11561
 C1221 C 0.60859 0.39042 0.09955
 C1222 C 0.58192 0.38108 0.09185
 C1223 C 0.56608 0.39737 0.07612
 C1224 C 0.57680 0.42320 0.06793
 C1225 C 0.60346 0.43262 0.07598
 C1226 C 0.61929 0.41627 0.09173
 H1227 H 0.68026 0.32249 0.12020
 H1228 H 0.70706 0.29494 0.14938
 H1229 H 0.65669 0.33213 0.20532
 H1230 H 0.63031 0.35936 0.17602
 H1231 H 0.57344 0.36114 0.09792
 H1232 H 0.54559 0.38963 0.07019
 H1233 H 0.61220 0.45244 0.06992
 H1234 H 0.63989 0.42369 0.09771
 C1235 C 0.84702 0.83763 0.35728
 C1236 C 0.82580 0.81847 0.36374
 C1237 C 0.81022 0.80440 0.34633
 C1238 C 0.81567 0.80936 0.32218
 C1239 C 0.83718 0.82860 0.31592
 C1240 C 0.85271 0.84262 0.33336
 C1241 C 0.86280 0.85255 0.37506
 C1242 C 0.87632 0.86564 0.38941
 C1243 C 0.89291 0.88208 0.40569
 C1244 C 0.88082 0.89206 0.42670
 C1245 C 0.89642 0.90999 0.44143
 C1246 C 0.92419 0.91819 0.43516
 C1247 C 0.93641 0.90739 0.41438
 C1248 C 0.92084 0.88947 0.39974
 H1249 H 0.82122 0.81448 0.38221
 H1250 H 0.79386 0.78971 0.35181
 H1251 H 0.84197 0.83294 0.29755
 H1252 H 0.86910 0.85746 0.32819
 H1253 H 0.85916 0.88650 0.43142
 H1254 H 0.88651 0.91803 0.45734
 H1255 H 0.95778 0.91329 0.40914
 H1256 H 0.93037 0.88191 0.38350
 C1257 C 0.34706 0.34247 -0.14656
 C1258 C 0.32528 0.32439 -0.13918
 C1259 C 0.31012 0.30870 -0.15583
 C1260 C 0.31662 0.31102 -0.18004
 C1261 C 0.33882 0.32906 -0.18716
 C1262 C 0.35390 0.34466 -0.17051
 C1263 C 0.36238 0.35910 -0.12973
 C1264 C 0.37560 0.37332 -0.11603
 C1265 C 0.39173 0.39030 -0.10000
 C1266 C 0.38086 0.41603 -0.09215
 C1267 C 0.39658 0.43244 -0.07639
 C1268 C 0.42329 0.42317 -0.06836
 C1269 C 0.43420 0.39747 -0.07659
 C1270 C 0.41847 0.38112 -0.09234
 H1271 H 0.31991 0.32259 -0.12061
 H1272 H 0.29315 0.29503 -0.14977
 H1273 H 0.34445 0.33135 -0.20562
 H1274 H 0.37078 0.35859 -0.17634
 H1275 H 0.36020 0.42332 -0.09811
 H1276 H 0.38771 0.45216 -0.07029
 H1277 H 0.45474 0.38985 -0.07068
 H1278 H 0.42707 0.36127 -0.09843
 C1279 C 1.16114 0.34343 -0.14319
 C1280 C 1.15395 0.34663 -0.16703
 C1281 C 1.16836 0.33134 -0.18438
 C1282 C 1.19029 0.31254 -0.17816
 C1283 C 1.19730 0.30935 -0.15409
 C1284 C 1.18281 0.32472 -0.13673
 C1285 C 1.14620 0.35956 -0.12556
 C1286 C 1.13311 0.37354 -0.11148
 C1287 C 1.11672 0.39072 -0.09551
 C1288 C 1.10897 0.41797 -0.10227
 C1289 C 1.09138 0.43416 -0.08772
 C1290 C 1.08125 0.42326 -0.06620
 C1291 C 1.08970 0.39612 -0.05921
 C1292 C 1.10730 0.37992 -0.07383
 H1293 H 1.13721 0.36104 -0.17223
 H1294 H 1.16235 0.33438 -0.20268
 H1295 H 1.21408 0.29513 -0.14865
 H1296 H 1.18856 0.32207 -0.11832
 H1297 H 1.11608 0.42653 -0.11902
 H1298 H 1.08527 0.45499 -0.09356
 H1299 H 1.08219 0.38719 -0.04274
 H1300 H 1.11310 0.35882 -0.06845
 C1301 C 0.65681 0.83854 0.35812
 C1302 C 0.65016 0.84224 0.33422
 C1303 C 0.66556 0.82800 0.31683
 C1304 C 0.68795 0.80973 0.32305
 C1305 C 0.69447 0.80608 0.34718
 C1306 C 0.67899 0.82041 0.36458
 C1307 C 0.64087 0.85367 0.37578
 C1308 C 0.62700 0.86695 0.38983
 C1309 C 0.60987 0.88355 0.40570
 C1310 C 0.62103 0.89313 0.42720
 C1311 C 0.60485 0.91087 0.44169
 C1312 C 0.57738 0.91931 0.43476
 C1313 C 0.56612 0.90905 0.41341
 C1314 C 0.58228 0.89132 0.39900
 H1315 H 0.63306 0.85623 0.32901
 H1316 H 0.65989 0.83135 0.29849
 H1317 H 0.71156 0.79223 0.35263
 H1318 H 0.68436 0.81741 0.38303
 H1319 H 0.64240 0.88732 0.43254
 H1320 H 0.61407 0.91847 0.45803
 H1321 H 0.54502 0.91515 0.40762
 H1322 H 0.57343 0.88410 0.38239
 C1323 C 0.83914 0.65709 -0.14274
 C1324 C 0.84632 0.65381 -0.16657
 C1325 C 0.83187 0.66902 -0.18397
 C1326 C 0.80994 0.68784 -0.17780
 C1327 C 0.80295 0.69110 -0.15373
 C1328 C 0.81746 0.67581 -0.13633
 C1329 C 0.85411 0.64102 -0.12508
 C1330 C 0.86726 0.62708 -0.11100
 C1331 C 0.88375 0.60993 -0.09507
 C1332 C 0.89149 0.58269 -0.10183
 C1333 C 0.90922 0.56655 -0.08735
 C1334 C 0.91950 0.57748 -0.06591
 C1335 C 0.91104 0.60460 -0.05892
 C1336 C 0.89330 0.62076 -0.07347
 H1337 H 0.86306 0.63940 -0.17174
 H1338 H 0.83787 0.66593 -0.20226
 H1339 H 0.78616 0.70533 -0.14833
 H1340 H 0.81173 0.67851 -0.11793
 H1341 H 0.88428 0.57411 -0.11853
 H1342 H 0.91534 0.54573 -0.09319
 H1343 H 0.91865 0.61356 -0.04250
 H1344 H 0.88750 0.64185 -0.06809
 C1345 C 0.34284 1.16124 0.35860
 C1346 C 0.34955 1.15751 0.33472
 C1347 C 0.33424 1.17179 0.31728
 C1348 C 0.31189 1.19012 0.32345
 C1349 C 0.30533 1.19382 0.34756
 C1350 C 0.32072 1.17944 0.36500
 C1351 C 0.35868 1.14604 0.37629
 C1352 C 0.37247 1.13269 0.39036
 C1353 C 0.38954 1.11598 0.40619
 C1354 C 0.41714 1.10823 0.39949
 C1355 C 0.43322 1.09035 0.41384
 C1356 C 0.42189 1.07992 0.43512
 C1357 C 0.39442 1.08834 0.44207
 C1358 C 0.37830 1.10624 0.42763
 H1359 H 0.36661 1.14346 0.32955
 H1360 H 0.33993 1.16841 0.29895
 H1361 H 0.28827 1.20772 0.35296
 H1362 H 0.31532 1.18247 0.38344
 H1363 H 0.42604 1.11558 0.38292
 H1364 H 0.45433 1.08427 0.40805
 H1365 H 0.38515 1.08061 0.45835
 H1366 H 0.35693 1.11203 0.43297
 C1367 C 1.16077 0.65722 0.14273
 C1368 C 1.18256 0.67586 0.13637
 C1369 C 1.19703 0.69114 0.15378
 C1370 C 1.18987 0.68795 0.17783
 C1371 C 1.16781 0.66924 0.18396
 C1372 C 1.15342 0.65403 0.16654
 C1373 C 1.14592 0.64113 0.12503
 C1374 C 1.13292 0.62718 0.11087
 C1375 C 1.11666 0.61001 0.09481
 C1376 C 1.10728 0.62088 0.07315
 C1377 C 1.08980 0.60468 0.05843
 C1378 C 1.08141 0.57747 0.06530
 C1379 C 1.09151 0.56651 0.08681
 C1380 C 1.10899 0.58269 0.10145
 H1381 H 1.18845 0.67849 0.11798
 H1382 H 1.21392 0.70529 0.14840
 H1383 H 1.16169 0.66621 0.20224
 H1384 H 1.13658 0.63967 0.17168
 H1385 H 1.11303 0.64203 0.06785
 H1386 H 1.08231 0.61366 0.04197
 H1387 H 1.08545 0.54562 0.09256
 H1388 H 1.11607 0.57407 0.11818
 C1389 C 0.65633 1.16128 0.64191
 C1390 C 0.67860 1.17929 0.63540
 C1391 C 0.69411 1.19366 0.65275
 C1392 C 0.68754 1.19016 0.67688
 C1393 C 0.66505 1.17203 0.68317
 C1394 C 0.64961 1.15774 0.66582
 C1395 C 0.64038 1.14607 0.62431
 C1396 C 0.62651 1.13272 0.61030
 C1397 C 0.60941 1.11602 0.59449
 C1398 C 0.62053 1.10655 0.57294
 C1399 C 0.60441 1.08869 0.55850
 C1400 C 0.57702 1.08004 0.56553
 C1401 C 0.56580 1.09020 0.58692
 C1402 C 0.58190 1.10804 0.60129
 H1403 H 0.68401 1.18216 0.61694
 H1404 H 0.71128 1.20741 0.64726
 H1405 H 0.65934 1.16879 0.70151
 H1406 H 0.63244 1.14384 0.67108
 H1407 H 0.64183 1.11252 0.56752
 H1408 H 0.61360 1.08118 0.54212
 H1409 H 0.54477 1.08394 0.59279
 H1410 H 0.57309 1.11518 0.61794
 C1411 C 0.84014 0.34300 0.14298
 C1412 C 0.81834 0.32445 0.13648
 C1413 C 0.80367 0.30911 0.15379
 C1414 C 0.81062 0.31215 0.17789
 C1415 C 0.83268 0.33080 0.18416
 C1416 C 0.84727 0.34605 0.16685
 C1417 C 0.85525 0.35914 0.12538
 C1418 C 0.86845 0.37311 0.11130
 C1419 C 0.88490 0.39030 0.09530
 C1420 C 0.89416 0.37957 0.07356
 C1421 C 0.91166 0.39582 0.05884
 C1422 C 0.92019 0.42295 0.06577
 C1423 C 0.91026 0.43376 0.08738
 C1424 C 0.89277 0.41753 0.10203
 H1425 H 0.81261 0.32191 0.11805
 H1426 H 0.78680 0.29501 0.14830
 H1427 H 0.83866 0.33372 0.20248
 H1428 H 0.86410 0.36034 0.17211
 H1429 H 0.88826 0.35850 0.06818
 H1430 H 0.91900 0.38694 0.04231
 H1431 H 0.91644 0.45458 0.09319
 H1432 H 0.88580 0.42605 0.11882
 C1433 C 0.34175 0.83879 0.64323
 C1434 C 0.32001 0.82022 0.63673
 C1435 C 0.30448 0.80576 0.65407
 C1436 C 0.31042 0.80964 0.67839
 C1437 C 0.33255 0.82850 0.68453
 C1438 C 0.34795 0.84283 0.66714
 C1439 C 0.35777 0.85400 0.62559
 C1440 C 0.37170 0.86732 0.61153
 C1441 C 0.38889 0.88392 0.59562
 C1442 C 0.37787 0.89326 0.57398
 C1443 C 0.39414 0.91086 0.55937
 C1444 C 0.42159 0.91939 0.56630
 C1445 C 0.43269 0.90941 0.58781
 C1446 C 0.41644 0.89183 0.60235
 H1447 H 0.31499 0.81694 0.61825
 H1448 H 0.28779 0.79161 0.64828
 H1449 H 0.33815 0.83239 0.70282
 H1450 H 0.36473 0.85717 0.67240
 H1451 H 0.35655 0.88735 0.56860
 H1452 H 0.38502 0.91823 0.54291
 H1453 H 0.45376 0.91559 0.59363
 H1454 H 0.42521 0.88480 0.61906
 C1455 C 0.34557 1.16355 -0.14274
 C1456 C 0.34963 1.15714 -0.16663
 C1457 C 0.33450 1.17163 -0.18408
 C1458 C 0.31494 1.19286 -0.17793
 C1459 C 0.31112 1.19931 -0.15382
 C1460 C 0.32633 1.18474 -0.13637
 C1461 C 0.36109 1.14805 -0.12497
 C1462 C 0.37452 1.13440 -0.11082
 C1463 C 0.39113 1.11732 -0.09485
 C1464 C 0.41878 1.10935 -0.10123
 C1465 C 0.43446 1.09125 -0.08676
 C1466 C 0.42271 1.08078 -0.06564
 C1467 C 0.39517 1.08938 -0.05901
 C1468 C 0.37945 1.10750 -0.07358
 H1469 H 0.36446 1.14080 -0.17180
 H1470 H 0.33804 1.16604 -0.20240
 H1471 H 0.29629 1.21552 -0.14842
 H1472 H 0.32300 1.18991 -0.11793
 H1473 H 0.42805 1.11673 -0.11765
 H1474 H 0.45562 1.08506 -0.09232
 H1475 H 0.38557 1.08163 -0.04287
 H1476 H 0.35804 1.11344 -0.06847
 C1477 C 0.84299 0.66060 0.35765
 C1478 C 0.84831 0.65547 0.33372
 C1479 C 0.83413 0.67095 0.31638
 C1480 C 0.81432 0.69186 0.32270
 C1481 C 0.80941 0.69717 0.34686
 C1482 C 0.82367 0.68160 0.36422
 C1483 C 0.85726 0.64391 0.37524
 C1484 C 0.86971 0.62934 0.38928
 C1485 C 0.88530 0.61144 0.40517
 C1486 C 0.89289 0.58431 0.39799
 C1487 C 0.90987 0.56748 0.41252
 C1488 C 0.91953 0.57765 0.43442
 C1489 C 0.91115 0.60463 0.44182
 C1490 C 0.89416 0.62146 0.42723
 H1491 H 0.86326 0.63930 0.32846
 H1492 H 0.83848 0.66626 0.29800
 H1493 H 0.79434 0.71310 0.35237
 H1494 H 0.81944 0.68576 0.38271
 H1495 H 0.88618 0.57637 0.38093
 H1496 H 0.91597 0.54678 0.40637
 H1497 H 0.91829 0.61299 0.45861
 H1498 H 0.88845 0.64245 0.43294
 C1499 C 0.65441 1.16371 0.14239
 C1500 C 0.67383 1.18476 0.13599
 C1501 C 0.68905 1.19935 0.15343
 C1502 C 0.68507 1.19303 0.17755
 C1503 C 0.66532 1.17196 0.18373
 C1504 C 0.65017 1.15746 0.16630
 C1505 C 0.63890 1.14816 0.12465
 C1506 C 0.62547 1.13446 0.11053
 C1507 C 0.60885 1.11732 0.09461
 C1508 C 0.62050 1.10754 0.07333
 C1509 C 0.60476 1.08939 0.05880
 C1510 C 0.57724 1.08074 0.06546
 C1511 C 0.56553 1.09116 0.08659
 C1512 C 0.58123 1.10928 0.10104
 H1513 H 0.67730 1.18981 0.11753
 H1514 H 0.70403 1.21543 0.14799
 H1515 H 0.66163 1.16648 0.20206
 H1516 H 0.63521 1.14123 0.17150
 H1517 H 0.64188 1.11353 0.06818
 H1518 H 0.61434 1.08168 0.04264
 H1519 H 0.54439 1.08493 0.09220
 H1520 H 0.57198 1.11663 0.11746
 C1521 C 1.15630 0.66172 0.64195
 C1522 C 1.17585 0.68254 0.63536
 C1523 C 1.19014 0.69811 0.65270
 C1524 C 1.18504 0.69296 0.67687
 C1525 C 1.16500 0.67223 0.68321
 C1526 C 1.15080 0.65677 0.66588
 C1527 C 1.14202 0.64499 0.62439
 C1528 C 1.12954 0.63035 0.61042
 C1529 C 1.11393 0.61235 0.59462
 C1530 C 1.10500 0.62225 0.57252
 C1531 C 1.08806 0.60530 0.55800
 C1532 C 1.07978 0.57830 0.56550
 C1533 C 1.08947 0.56826 0.58744
 C1534 C 1.10641 0.58520 0.60191
 H1535 H 1.18024 0.68657 0.61686
 H1536 H 1.20540 0.71389 0.64718
 H1537 H 1.16048 0.66767 0.70159
 H1538 H 1.13567 0.64073 0.67117
 H1539 H 1.11065 0.64325 0.56673
 H1540 H 1.08089 0.61357 0.54119
 H1541 H 1.08345 0.54755 0.59367
 H1542 H 1.11317 0.57735 0.61899
 C1543 C 0.65455 0.83688 -0.14290
 C1544 C 0.65052 0.84322 -0.16682
 C1545 C 0.66568 0.82869 -0.18422
 C1546 C 0.68525 0.80749 -0.17799
 C1547 C 0.68904 0.80110 -0.15386
 C1548 C 0.67380 0.81572 -0.13646
 C1549 C 0.63898 0.85240 -0.12519
 C1550 C 0.62552 0.86604 -0.11106
 C1551 C 0.60887 0.88308 -0.09509
 C1552 C 0.62051 0.89282 -0.07380
 C1553 C 0.60475 0.91085 -0.05920
 C1554 C 0.57721 0.91945 -0.06581
 C1555 C 0.56550 0.90908 -0.08696
 C1556 C 0.58123 0.89106 -0.10147
 H1557 H 0.63568 0.85953 -0.17205
 H1558 H 0.66215 0.83422 -0.20256
 H1559 H 0.70387 0.78492 -0.14840
 H1560 H 0.67712 0.81059 -0.11800
 H1561 H 0.64192 0.88686 -0.06868
 H1562 H 0.61432 0.91853 -0.04303
 H1563 H 0.54434 0.91527 -0.09253
 H1564 H 0.57199 0.88375 -0.11791
 C1565 C 1.15706 0.33961 0.35761
 C1566 C 1.15184 0.34475 0.33367
 C1567 C 1.16607 0.32925 0.31637
 C1568 C 1.18583 0.30832 0.32277
 C1569 C 1.19065 0.30302 0.34695
 C1570 C 1.17635 0.31861 0.36425
 C1571 C 1.14270 0.35629 0.37515
 C1572 C 1.13017 0.37084 0.38914
 C1573 C 1.11449 0.38869 0.40500
 C1574 C 1.10675 0.41577 0.39776
 C1575 C 1.08972 0.43255 0.41228
 C1576 C 1.08016 0.42238 0.43422
 C1577 C 1.08868 0.39544 0.44168
 C1578 C 1.10571 0.37867 0.42710
 H1579 H 1.13691 0.36093 0.32834
 H1580 H 1.16177 0.33393 0.29798
 H1581 H 1.20569 0.28707 0.35251
 H1582 H 1.18050 0.31444 0.38276
 H1583 H 1.11340 0.42371 0.38067
 H1584 H 1.08351 0.45321 0.40609
 H1585 H 1.08161 0.38708 0.45850
 H1586 H 1.11154 0.35771 0.43286
 C1587 C 0.34596 0.83610 0.14264
 C1588 C 0.32657 0.81504 0.13627
 C1589 C 0.31132 0.80049 0.15372
 C1590 C 0.31525 0.80685 0.17783
 C1591 C 0.33498 0.82793 0.18399
 C1592 C 0.35016 0.84239 0.16654
 C1593 C 0.36148 0.85160 0.12487
 C1594 C 0.37489 0.86526 0.11071
 C1595 C 0.39147 0.88235 0.09472
 C1596 C 0.37973 0.89220 0.07350
 C1597 C 0.39540 0.91037 0.05892
 C1598 C 0.42295 0.91899 0.06551
 C1599 C 0.43476 0.90849 0.08658
 C1600 C 0.41913 0.89033 0.10106
 H1601 H 0.32313 0.80996 0.11782
 H1602 H 0.29636 0.78440 0.14831
 H1603 H 0.33862 0.83342 0.20231
 H1604 H 0.36511 0.85863 0.17171
 H1605 H 0.35831 0.88624 0.06843
 H1606 H 0.38575 0.91815 0.04281
 H1607 H 0.45593 0.91470 0.09211
 H1608 H 0.42844 0.88293 0.11745
 C1609 C 0.84306 0.33890 0.64194
 C1610 C 0.82357 0.31803 0.63539
 C1611 C 0.80930 0.30248 0.65276
 C1612 C 0.81435 0.30769 0.67691
 C1613 C 0.83434 0.32846 0.68321
 C1614 C 0.84854 0.34391 0.66585
 C1615 C 0.85732 0.35560 0.62435
 C1616 C 0.86979 0.37021 0.61035
 C1617 C 0.88542 0.38815 0.59451
 C1618 C 0.89436 0.37819 0.57246
 C1619 C 0.91143 0.39505 0.55795
 C1620 C 0.91982 0.42200 0.56544
 C1621 C 0.91009 0.43212 0.58733
 C1622 C 0.89302 0.41526 0.60177
 H1623 H 0.81922 0.31396 0.61690
 H1624 H 0.79408 0.28666 0.64727
 H1625 H 0.83882 0.33306 0.70158
 H1626 H 0.86362 0.35999 0.67110
 H1627 H 0.88864 0.35722 0.56670
 H1628 H 0.91863 0.38673 0.54117
 H1629 H 0.91620 0.45279 0.59353
 H1630 H 0.88625 0.42315 0.61884
 C1631 C 1.15574 1.15975 0.64276
 C1632 C 1.17637 1.17948 0.63620
 C1633 C 1.19182 1.19379 0.65353
 C1634 C 1.18679 1.18852 0.67769
 C1635 C 1.16606 1.16851 0.68405
 C1636 C 1.15066 1.15425 0.66669
 C1637 C 1.13968 1.14503 0.62507
 C1638 C 1.12584 1.13219 0.61079
 C1639 C 1.10887 1.11610 0.59460
 C1640 C 1.12052 1.10639 0.57334
 C1641 C 1.10457 1.08875 0.55864
 C1642 C 1.07688 1.08058 0.56519
 C1643 C 1.06508 1.09114 0.58622
 C1644 C 1.08101 1.10877 0.60083
 H1645 H 1.18046 1.18384 0.61771
 H1646 H 1.20762 1.20904 0.64798
 H1647 H 1.16162 1.16392 0.70244
 H1648 H 1.13473 1.13896 0.67192
 H1649 H 1.14212 1.11191 0.56840
 H1650 H 1.11416 1.08089 0.54254
 H1651 H 1.04378 1.08525 0.59167
 H1652 H 1.07183 1.11615 0.61727
 C1653 C 0.65664 0.65479 0.14585
 C1654 C 0.67605 0.67534 0.13846
 C1655 C 0.69139 0.69078 0.15519
 C1656 C 0.68741 0.68578 0.17950
 C1657 C 0.66789 0.66494 0.18664
 C1658 C 0.65264 0.64960 0.16992
 C1659 C 0.64055 0.63899 0.12891
 C1660 C 0.62670 0.62541 0.11517
 C1661 C 0.60996 0.60897 0.09912
 C1662 C 0.61994 0.58282 0.09145
 C1663 C 0.60369 0.56679 0.07580
 C1664 C 0.57729 0.57681 0.06768
 C1665 C 0.56726 0.60295 0.07569
 C1666 C 0.58355 0.61895 0.09134
 H1667 H 0.67926 0.67947 0.11981
 H1668 H 0.70625 0.70664 0.14910
 H1669 H 0.66426 0.66049 0.20518
 H1670 H 0.63765 0.63371 0.17578
 H1671 H 0.64032 0.57489 0.09749
 H1672 H 0.61191 0.54671 0.06990
 H1673 H 0.54699 0.61115 0.06969
 H1674 H 0.57562 0.63914 0.09730
 C1675 C 1.15636 0.84023 0.35742
 C1676 C 1.15133 0.84590 0.33351
 C1677 C 1.16665 0.83166 0.31608
 C1678 C 1.18725 0.81150 0.32236
 C1679 C 1.19224 0.80606 0.34649
 C1680 C 1.17687 0.82036 0.36389
 C1681 C 1.14032 0.85487 0.37517
 C1682 C 1.12647 0.86761 0.38951
 C1683 C 1.10944 0.88357 0.40576
 C1684 C 1.12106 0.89326 0.42704
 C1685 C 1.10502 0.91075 0.44180
 C1686 C 1.07728 0.91877 0.43529
 C1687 C 1.06553 0.90823 0.41424
 C1688 C 1.08154 0.89075 0.39957
 H1689 H 1.13549 0.86129 0.32834
 H1690 H 1.16224 0.83637 0.29771
 H1691 H 1.20793 0.79070 0.35197
 H1692 H 1.18092 0.81586 0.38236
 H1693 H 1.14268 0.88785 0.43194
 H1694 H 1.11457 0.91860 0.45791
 H1695 H 1.04420 0.91401 0.40882
 H1696 H 1.07239 0.88338 0.38312
 C1697 C 0.65712 0.34605 -0.14624
 C1698 C 0.65308 0.35115 -0.17032
 C1699 C 0.66818 0.33565 -0.18703
 C1700 C 0.68760 0.31475 -0.17987
 C1701 C 0.69163 0.30985 -0.15555
 C1702 C 0.67643 0.32544 -0.13883
 C1703 C 0.64112 0.36193 -0.12930
 C1704 C 0.62731 0.37551 -0.11553
 C1705 C 0.61056 0.39188 -0.09943
 C1706 C 0.62055 0.41797 -0.09162
 C1707 C 0.60428 0.43388 -0.07589
 C1708 C 0.57785 0.42379 -0.06784
 C1709 C 0.56782 0.39770 -0.07599
 C1710 C 0.58413 0.38183 -0.09172
 H1711 H 0.63815 0.36707 -0.17619
 H1712 H 0.66453 0.34003 -0.20557
 H1713 H 0.70641 0.29395 -0.14945
 H1714 H 0.67966 0.32137 -0.12018
 H1715 H 0.64094 0.42595 -0.09759
 H1716 H 0.61249 0.45392 -0.06987
 H1717 H 0.54754 0.38945 -0.07005
 H1718 H 0.57620 0.36168 -0.09778
 C1719 C 0.84409 1.15867 0.35688
 C1720 C 0.84903 1.15315 0.33295
 C1721 C 0.83365 1.16749 0.31560
 C1722 C 0.81307 1.18762 0.32198
 C1723 C 0.80816 1.19290 0.34614
 C1724 C 0.82359 1.17850 0.36346
 C1725 C 0.86020 1.14393 0.37456
 C1726 C 0.87410 1.13113 0.38886
 C1727 C 0.89115 1.11515 0.40511
 C1728 C 0.91902 1.10788 0.39888
 C1729 C 0.93507 1.09048 0.41361
 C1730 C 0.92339 1.08009 0.43477
 C1731 C 0.89568 1.08817 0.44129
 C1732 C 0.87960 1.10558 0.42647
 H1733 H 0.86486 1.13780 0.32769
 H1734 H 0.83800 1.16290 0.29720
 H1735 H 0.79248 1.20822 0.35171
 H1736 H 0.81959 1.18289 0.38196
 H1737 H 0.92813 1.11516 0.38237
 H1738 H 0.95639 1.08465 0.40817
 H1739 H 0.88618 1.08044 0.45749
 H1740 H 0.85801 1.11106 0.43142
 C1741 C 0.34241 0.65473 -0.14615
 C1742 C 0.34641 0.64964 -0.17023
 C1743 C 0.33119 0.66507 -0.18694
 C1744 C 0.31170 0.68589 -0.17979
 C1745 C 0.30770 0.69078 -0.15547
 C1746 C 0.32301 0.67525 -0.13875
 C1747 C 0.35850 0.63888 -0.12921
 C1748 C 0.37237 0.62529 -0.11545
 C1749 C 0.38915 0.60886 -0.09938
 C1750 C 0.41553 0.61893 -0.09158
 C1751 C 0.43186 0.60295 -0.07591
 C1752 C 0.42191 0.57675 -0.06790
 C1753 C 0.39554 0.56665 -0.07603
 C1754 C 0.37925 0.58266 -0.09170
 H1755 H 0.36139 0.63378 -0.17610
 H1756 H 0.33483 0.66070 -0.20548
 H1757 H 0.29286 0.70662 -0.14936
 H1758 H 0.31979 0.67931 -0.12010
 H1759 H 0.42341 0.63915 -0.09754
 H1760 H 0.45210 0.61122 -0.06991
 H1761 H 0.38738 0.54654 -0.07013
 H1762 H 0.35890 0.57466 -0.09775
 C1763 C 0.84448 0.83930 0.64229
 C1764 C 0.82381 0.81958 0.63586
 C1765 C 0.80828 0.80547 0.65330
 C1766 C 0.81329 0.81096 0.67742
 C1767 C 0.83406 0.83097 0.68364
 C1768 C 0.84953 0.84502 0.66617
 C1769 C 0.86061 0.85381 0.62452
 C1770 C 0.87453 0.86652 0.61019
 C1771 C 0.89160 0.88251 0.59398
 C1772 C 0.87999 0.89234 0.57274
 C1773 C 0.89599 0.91003 0.55810
 C1774 C 0.92367 0.91813 0.56471
 C1775 C 0.93544 0.90741 0.58570
 C1776 C 0.91946 0.88973 0.60025
 H1777 H 0.81973 0.81506 0.61740
 H1778 H 0.79246 0.79022 0.64786
 H1779 H 0.83849 0.83571 0.70199
 H1780 H 0.86549 0.86031 0.67130
 H1781 H 0.85839 0.88690 0.56779
 H1782 H 0.88644 0.91801 0.54202
 H1783 H 0.95674 0.91325 0.59118
 H1784 H 0.92860 0.88225 0.61668
 C1785 C 0.34293 0.34497 0.14565
 C1786 C 0.32344 0.32447 0.13835
 C1787 C 0.30826 0.30895 0.15516
 C1788 C 0.31249 0.31383 0.17945
 C1789 C 0.33210 0.33461 0.18650
 C1790 C 0.34719 0.35003 0.16970
 C1791 C 0.35885 0.36084 0.12864
 C1792 C 0.37261 0.37447 0.11486
 C1793 C 0.38931 0.39095 0.09880
 C1794 C 0.37925 0.41705 0.09104
 C1795 C 0.39551 0.43312 0.07540
 C1796 C 0.42199 0.42319 0.06738
 C1797 C 0.43209 0.39709 0.07548
 C1798 C 0.41579 0.38105 0.09112
 H1799 H 0.32005 0.32045 0.11972
 H1800 H 0.29332 0.29315 0.14914
 H1801 H 0.33591 0.33897 0.20501
 H1802 H 0.36225 0.36588 0.17548
 H1803 H 0.35881 0.42490 0.09701
 H1804 H 0.38725 0.45316 0.06942
 H1805 H 0.45242 0.38896 0.06956
 H1806 H 0.42378 0.36091 0.09715
   
