data_POSCAR
  _audit_creation_date              2014-09-24
  _audit_creation_method            'ToBaCCo'
  _symmetry_space_group_name_H-M    'P1'
  _symmetry_Int_Tables_number       1
  _symmetry_cell_setting            triclinic
  loop_
  _symmetry_equiv_pos_as_xyz
 x,y,z
_cell_length_a 40.8081
_cell_length_b 40.9073
_cell_length_c 40.7568
_cell_angle_alpha 88.675100
_cell_angle_beta 88.688600
_cell_angle_gamma 88.631100
loop_
  _atom_site_label
  _atom_site_type_symbol
  _atom_site_fract_x
  _atom_site_fract_y
  _atom_site_fract_z
C1 C 0.10588 0.00169 0.21700
 C2 C 0.12169 0.03409 0.22175
 C3 C 0.14222 0.03518 0.24731
 C4 C 0.14387 0.00269 0.26785
 C5 C 0.13410 -0.02341 0.21625
 C6 C 0.15394 -0.02397 0.24288
 C7 C 0.08771 -0.00500 0.24964
 C8 C 0.10745 -0.00481 0.27666
 H9 H 0.11719 0.05507 0.20543
 H10 H 0.16021 0.00365 0.28908
 H11 H 0.13452 -0.04306 0.19876
 H12 H 0.06128 -0.00721 0.25132
 C13 C 0.39757 -0.00134 0.72508
 C14 C 0.37237 -0.02788 0.72598
 C15 C 0.35268 -0.02954 0.75318
 C16 C 0.35982 -0.00191 0.77774
 C17 C 0.37776 0.03001 0.72957
 C18 C 0.35788 0.03065 0.75686
 C19 C 0.41563 -0.00581 0.75529
 C20 C 0.39505 -0.00630 0.78490
 H21 H 0.37253 -0.04666 0.70748
 H22 H 0.34285 -0.00185 0.79933
 H23 H 0.38065 0.05109 0.71309
 H24 H 0.44217 -0.00465 0.75562
 C25 C 0.89458 0.49947 0.21838
 C26 C 0.86926 0.47312 0.22003
 C27 C 0.85042 0.47140 0.24775
 C28 C 0.85788 0.49915 0.27191
 C29 C 0.87505 0.53092 0.22324
 C30 C 0.85577 0.53167 0.25100
 C31 C 0.91420 0.49485 0.24993
 C32 C 0.89517 0.49463 0.27833
 H33 H 0.86884 0.45433 0.20157
 H34 H 0.84173 0.49913 0.29411
 H35 H 0.87790 0.55204 0.20682
 H36 H 0.94077 0.49526 0.24974
 C37 C 0.60595 0.50095 0.71695
 C38 C 0.62593 0.53152 0.71890
 C39 C 0.64665 0.53243 0.74437
 C40 C 0.64456 0.50183 0.76740
 C41 C 0.63085 0.47275 0.71832
 C42 C 0.65116 0.47245 0.74451
 C43 C 0.58748 0.49889 0.75007
 C44 C 0.60742 0.50019 0.77686
 H45 H 0.62223 0.55231 0.70215
 H46 H 0.66142 0.50201 0.78823
 H47 H 0.62975 0.45234 0.70182
 H48 H 0.56106 0.49669 0.75204
 C49 C 0.21542 0.10389 1.00222
 C50 C 0.21787 0.12285 1.03346
 C51 C 0.24302 0.14378 1.03438
 C52 C 0.26545 0.14278 1.00320
 C53 C 0.21599 0.12953 0.97464
 C54 C 0.24190 0.15004 0.97442
 C55 C 0.24858 0.08579 0.99892
 C56 C 0.27520 0.10583 1.00027
 H57 H 0.20130 0.11886 1.05440
 H58 H 0.28598 0.15986 1.00341
 H59 H 0.19924 0.12871 0.95435
 H60 H 0.25077 0.05945 0.99656
 C61 C 0.72352 0.39193 0.99842
 C62 C 0.72451 0.36684 0.97400
 C63 C 0.75361 0.34695 0.97236
 C64 C 0.77697 0.35526 0.99820
 C65 C 0.72893 0.37448 1.02906
 C66 C 0.75794 0.35413 1.02986
 C67 C 0.75346 0.41049 0.99258
 C68 C 0.78356 0.39050 0.99234
 H69 H 0.70594 0.36569 0.95530
 H70 H 0.79897 0.33892 0.99836
 H71 H 0.71283 0.37751 1.05050
 H72 H 0.75336 0.43703 0.99274
 C73 C 0.22311 0.89868 0.49911
 C74 C 0.22597 0.87496 0.47134
 C75 C 0.25347 0.85585 0.46999
 C76 C 0.27668 0.86195 0.49909
 C77 C 0.22694 0.87763 0.52985
 C78 C 0.25471 0.85848 0.53087
 C79 C 0.25477 0.91839 0.49670
 C80 C 0.28324 0.89935 0.49653
 H81 H 0.20774 0.87473 0.45226
 H82 H 0.29880 0.84575 0.49915
 H83 H 0.21001 0.87982 0.55073
 H84 H 0.25453 0.94485 0.49787
 C85 C 0.71605 0.60656 0.49969
 C86 C 0.72105 0.62185 0.53247
 C87 C 0.74685 0.64198 0.53374
 C88 C 0.76724 0.64379 0.50117
 C89 C 0.71554 0.63503 0.47490
 C90 C 0.74230 0.65458 0.47475
 C91 C 0.74840 0.58816 0.49268
 C92 C 0.77559 0.60747 0.49317
 H93 H 0.70465 0.61749 0.55346
 H94 H 0.78869 0.65974 0.50225
 H95 H 0.69803 0.63595 0.45520
 H96 H 0.74978 0.56178 0.49044
 C97 C 0.00178 0.21494 0.10510
 C98 C 0.03221 0.21672 0.12543
 C99 C 0.03336 0.24247 0.14565
 C100 C 0.00310 0.26591 0.14278
 C101 C -0.02675 0.21728 0.12964
 C102 C -0.02677 0.24372 0.14952
 C103 C 0.00046 0.24760 0.08595
 C104 C 0.00195 0.27464 0.10540
 H105 H 0.05282 0.19962 0.12230
 H106 H 0.00347 0.28693 0.15929
 H107 H -0.04740 0.20107 0.12875
 H108 H -0.00155 0.24912 0.05945
 C109 C -0.00320 0.72155 0.39402
 C110 C -0.03361 0.72824 0.37839
 C111 C -0.03523 0.75709 0.35831
 C112 C -0.00431 0.77540 0.35817
 C113 C 0.02262 0.72224 0.36649
 C114 C 0.02365 0.75064 0.34814
 C115 C 0.00281 0.75228 0.41380
 C116 C 0.00269 0.78091 0.39512
 H117 H -0.05391 0.71145 0.38047
 H118 H -0.00509 0.79802 0.34274
 H119 H 0.04265 0.70424 0.36608
 H120 H 0.00536 0.75139 0.44024
 C121 C 0.49835 0.22038 0.89684
 C122 C 0.46799 0.22602 0.87715
 C123 C 0.46719 0.25321 0.85764
 C124 C 0.49879 0.27377 0.86005
 C125 C 0.52655 0.22164 0.87190
 C126 C 0.52790 0.24945 0.85277
 C127 C 0.50109 0.25165 0.91653
 C128 C 0.50205 0.27995 0.89742
 H129 H 0.44772 0.20919 0.87876
 H130 H 0.49832 0.29602 0.84406
 H131 H 0.54684 0.20397 0.87303
 H132 H 0.50178 0.25125 0.94313
 C133 C 0.49994 0.71875 0.60441
 C134 C 0.53011 0.71963 0.62525
 C135 C 0.53154 0.74509 0.64579
 C136 C 0.50182 0.76913 0.64282
 C137 C 0.47115 0.72140 0.62849
 C138 C 0.47150 0.74743 0.64884
 C139 C 0.49962 0.75164 0.58565
 C140 C 0.50141 0.77835 0.60554
 H141 H 0.55054 0.70235 0.62194
 H142 H 0.50236 0.78997 0.65958
 H143 H 0.45026 0.70552 0.62723
 H144 H 0.49788 0.75351 0.55914
 C145 C 0.89345 0.99958 0.78293
 C146 C 0.86915 1.02570 0.78216
 C147 C 0.84795 1.02626 0.75449
 C148 C 0.85509 0.99879 0.73239
 C149 C 0.87441 0.96845 0.78032
 C150 C 0.85368 0.96753 0.75484
 C151 C 0.91210 1.00253 0.74992
 C152 C 0.89233 1.00116 0.72297
 H153 H 0.87004 1.04610 0.79872
 H154 H 0.83853 0.99817 0.71138
 H155 H 0.87820 0.94762 0.79701
 H156 H 0.93851 1.00487 0.74815
 C157 C 0.39332 0.49978 0.28257
 C158 C 0.36498 0.52476 0.28322
 C159 C 0.34533 0.52535 0.25641
 C160 C 0.35584 0.49895 0.23128
 C161 C 0.37772 0.46734 0.27735
 C162 C 0.35745 0.46632 0.25158
 C163 C 0.41176 0.50680 0.25017
 C164 C 0.39234 0.50667 0.22292
 H165 H 0.36424 0.54424 0.30090
 H166 H 0.33974 0.49808 0.20985
 H167 H 0.38215 0.44626 0.29356
 H168 H 0.43821 0.50889 0.24878
 C169 C 0.60757 1.00377 0.28051
 C170 C 0.63069 0.97427 0.27750
 C171 C 0.64973 0.97359 0.24941
 C172 C 0.64377 1.00437 0.22658
 C173 C 0.62808 1.03136 0.27666
 C174 C 0.64782 1.03299 0.24761
 C175 C 0.58740 1.00373 0.24917
 C176 C 0.60616 1.00298 0.22052
 H177 H 0.62880 0.95336 0.29433
 H178 H 0.65952 1.00499 0.20411
 H179 H 0.62784 1.05082 0.29448
 H180 H 0.56083 1.00333 0.24986
 C181 C 0.10620 0.50069 0.77540
 C182 C 0.13138 0.47285 0.77385
 C183 C 0.15037 0.47186 0.74584
 C184 C 0.14301 0.50127 0.72191
 C185 C 0.12565 0.53114 0.77040
 C186 C 0.14513 0.53256 0.74313
 C187 C 0.08663 0.49827 0.74395
 C188 C 0.10572 0.49776 0.71560
 H189 H 0.13035 0.45237 0.79131
 H190 H 0.15909 0.50218 0.69967
 H191 H 0.12408 0.55087 0.78788
 H192 H 0.06009 0.49706 0.74426
 C193 C 0.78148 0.89402 -0.00073
 C194 C 0.78183 0.86574 0.02428
 C195 C 0.75501 0.84626 0.02454
 C196 C 0.73037 0.85669 -0.00232
 C197 C 0.77679 0.87848 -0.03338
 C198 C 0.75111 0.85826 -0.03475
 C199 C 0.74905 0.91246 0.00585
 C200 C 0.72190 0.89307 0.00534
 H201 H 0.79915 0.86506 0.04415
 H202 H 0.70898 0.84066 -0.00352
 H203 H 0.79337 0.88274 -0.05426
 H204 H 0.74765 0.93883 0.00816
 C205 C 0.28215 0.39624 0.49912
 C206 C 0.28073 0.37130 0.52730
 C207 C 0.25460 0.35105 0.52744
 C208 C 0.23166 0.35790 0.49811
 C209 C 0.28003 0.37650 0.46835
 C210 C 0.25461 0.35589 0.46742
 C211 C 0.24915 0.41480 0.50136
 C212 C 0.22233 0.39500 0.50000
 H213 H 0.29728 0.37220 0.54776
 H214 H 0.21080 0.34117 0.49787
 H215 H 0.29687 0.38000 0.44754
 H216 H 0.24729 0.44116 0.50362
 C217 C 0.27937 0.60251 0.00174
 C218 C 0.27823 0.62823 -0.02577
 C219 C 0.25032 0.64733 -0.02684
 C220 C 0.22585 0.63929 0.00202
 C221 C 0.27354 0.62122 0.03275
 C222 C 0.24633 0.64073 0.03395
 C223 C 0.24793 0.58308 -0.00184
 C224 C 0.21952 0.60220 -0.00240
 H225 H 0.29599 0.62760 -0.04605
 H226 H 0.20355 0.65525 0.00279
 H227 H 0.29051 0.61928 0.05295
 H228 H 0.24830 0.55665 -0.00338
 C229 C 0.77890 0.10776 0.50014
 C230 C 0.77917 0.13445 0.47594
 C231 C 0.74984 0.15464 0.47493
 C232 C 0.72603 0.14516 0.50136
 C233 C 0.77249 0.12309 0.53107
 C234 C 0.74447 0.14437 0.53258
 C235 C 0.74904 0.09003 0.49423
 C236 C 0.71936 0.11043 0.49458
 H237 H 0.79729 0.13500 0.45595
 H238 H 0.70398 0.16140 0.50269
 H239 H 0.78861 0.11955 0.55187
 H240 H 0.74891 0.06360 0.49237
 C241 C 0.99813 0.78049 0.89629
 C242 C 1.02567 0.77980 0.87059
 C243 C 1.02552 0.75428 0.84961
 C244 C 0.99635 0.73126 0.85636
 C245 C 0.96692 0.77888 0.87717
 C246 C 0.96560 0.75423 0.85570
 C247 C 1.00084 0.74703 0.91392
 C248 C 0.99912 0.72083 0.89327
 H249 H 1.04623 0.79611 0.87172
 H250 H 0.99574 0.71111 0.83883
 H251 H 0.94629 0.79571 0.88141
 H252 H 1.00354 0.74435 0.94027
 C253 C 0.49897 0.28429 0.39511
 C254 C 0.52430 0.28468 0.36699
 C255 C 0.52513 0.25774 0.34763
 C256 C 0.49881 0.23270 0.35824
 C257 C 0.46666 0.27869 0.37923
 C258 C 0.46603 0.25276 0.35923
 C259 C 0.50603 0.25227 0.41408
 C260 C 0.50630 0.22488 0.39495
 H261 H 0.54376 0.30236 0.36620
 H262 H 0.49819 0.21107 0.34246
 H263 H 0.44541 0.29483 0.38314
 H264 H 0.50804 0.25129 0.44058
 C265 C 1.00021 0.27829 0.60300
 C266 C 0.97263 0.27674 0.62867
 C267 C 0.97191 0.24874 0.64763
 C268 C 1.00110 0.22477 0.63953
 C269 C 1.03111 0.27286 0.62190
 C270 C 1.03264 0.24565 0.64131
 C271 C 0.99721 0.24716 0.58326
 C272 C 0.99690 0.21880 0.60218
 H273 H 0.95216 0.29422 0.62806
 H274 H 1.00212 0.20237 0.65529
 H275 H 1.05094 0.29021 0.62030
 H276 H 0.99590 0.24775 0.55671
 C277 C 0.49875 0.77740 0.10627
 C278 C 0.46788 0.77253 0.12682
 C279 C 0.46774 0.74492 0.14621
 C280 C 0.50031 0.72416 0.14326
 C281 C 0.52601 0.77582 0.13070
 C282 C 0.52830 0.74840 0.14976
 C283 C 0.50278 0.74586 0.08664
 C284 C 0.50367 0.71759 0.10581
 H285 H 0.44652 0.78873 0.12434
 H286 H 0.50081 0.70221 0.15964
 H287 H 0.54459 0.79447 0.13078
 H288 H 0.50173 0.74590 0.06007
 O289 O -0.01590 0.97670 0.90856
 O290 O 0.04016 0.99180 0.90731
 O291 O -0.02193 0.90593 0.98669
 O292 O -0.00659 0.90530 1.04259
 O293 O -0.09286 0.98350 0.97977
 O294 O -0.09381 1.03938 0.99528
 O295 O 0.05855 0.99008 1.07356
 O296 O 0.06808 0.93804 1.04625
 O297 O 0.07215 1.05670 0.99192
 O298 O 0.04519 1.06702 0.94072
 O299 O -0.00895 1.07096 1.05963
 O300 O -0.06110 1.04318 1.06934
 O301 O 0.01440 1.01988 1.09188
 O302 O -0.04296 1.00522 1.09402
 O303 O 0.02077 1.08907 1.01531
 O304 O 0.00519 1.08976 0.95687
 O305 O 0.09053 1.01278 1.02193
 O306 O 0.09186 0.95511 1.00713
 O307 O -0.05883 1.00832 0.92671
 O308 O -0.07033 1.05713 0.95433
 O309 O -0.07486 0.94010 1.01084
 O310 O -0.04744 0.92962 1.06053
 O311 O 0.00914 0.92377 0.94317
 O312 O 0.05817 0.95129 0.93127
 Zr313 Zr 0.01455 0.97394 0.94946
 O314 O 0.04521 1.00271 0.97677
 Zr315 Zr -0.02473 0.94699 1.01658
 O316 O 0.00418 0.97446 1.04698
 Zr317 Zr -0.05201 1.01360 0.97693
 O318 O -0.02447 1.04416 1.00555
 Zr319 Zr 0.05007 0.98199 1.02406
 O320 O 0.02254 0.95095 0.99532
 Zr321 Zr 0.02261 1.04863 0.98439
 O322 O -0.00637 1.02123 0.95346
 Zr323 Zr -0.01671 1.02156 1.05156
 O324 O -0.04788 0.99267 1.02434
 O325 O -0.03202 0.96696 0.96980
 O326 O 0.03019 1.02890 1.03145
 C327 C -0.04285 0.99285 0.90422
 C328 C -0.00611 0.90144 0.95957
 C329 C -0.09724 0.95643 0.99555
 C330 C 0.04226 1.00538 1.09593
 C331 C 0.09456 1.04047 1.00721
 C332 C 0.00628 1.09323 1.04321
 H333 H 0.06651 1.00434 0.96488
 H334 H -0.03626 1.06547 1.00720
 H335 H -0.04573 0.95325 0.95612
 H336 H 0.00599 0.96278 1.06838
 H337 H 0.05199 0.93126 1.06347
 H338 H 0.01570 0.90053 1.03354
 H339 H -0.01468 1.09860 0.96823
 H340 H -0.05198 1.06627 0.94103
 H341 H 0.09973 0.96555 0.98637
 H342 H 0.06731 0.93810 0.94971
 H343 H -0.06778 1.06056 1.05342
 H344 H -0.09872 1.03006 1.01744
 H345 H 0.03098 1.01396 0.90243
 H346 H 0.06090 1.05003 0.93276
 H347 H -0.06111 0.94798 1.06907
 H348 H -0.03296 0.98413 1.10142
 O349 O 0.55782 0.49127 0.57316
 O350 O 0.56927 0.44263 0.54541
 O351 O 0.57272 0.55894 0.48775
 O352 O 0.54636 0.57542 0.44370
 O353 O 0.48881 0.57473 0.55855
 O354 O 0.44013 0.54708 0.57010
 O355 O 0.48478 0.47988 0.40764
 O356 O 0.53727 0.49829 0.40561
 O357 O 0.47818 0.41004 0.48488
 O358 O 0.49303 0.40868 0.54248
 O359 O 0.40761 0.48633 0.47878
 O360 O 0.40463 0.54220 0.49163
 O361 O 0.44012 0.50865 0.42669
 O362 O 0.43126 0.56220 0.45572
 O363 O 0.42635 0.44213 0.50817
 O364 O 0.45407 0.43244 0.56006
 O365 O 0.50586 0.42889 0.43951
 O366 O 0.55949 0.45270 0.43623
 O367 O 0.51441 0.52184 0.59200
 O368 O 0.45820 0.50578 0.59309
 O369 O 0.51954 0.59303 0.51504
 O370 O 0.50071 0.59219 0.45731
 O371 O 0.59093 0.51652 0.51997
 O372 O 0.59204 0.46033 0.50411
 Zr373 Zr 0.55041 0.48601 0.52297
 O374 O 0.52276 0.45543 0.49452
 Zr375 Zr 0.52222 0.55264 0.48422
 O376 O 0.49394 0.52482 0.45355
 Zr377 Zr 0.48367 0.52473 0.55134
 O378 O 0.45307 0.49624 0.52367
 Zr379 Zr 0.51493 0.47788 0.44855
 O380 O 0.54580 0.50724 0.47564
 Zr381 Zr 0.47585 0.45045 0.51582
 O382 O 0.50502 0.47770 0.54674
 Zr383 Zr 0.44809 0.51708 0.47640
 O384 O 0.47516 0.54808 0.50578
 O385 O 0.53005 0.53242 0.53075
 O386 O 0.46815 0.47037 0.46890
 C387 C 0.54177 0.50628 0.59593
 C388 C 0.59519 0.54322 0.50353
 C389 C 0.50392 0.59722 0.54231
 C390 C 0.45666 0.49404 0.40394
 C391 C 0.49180 0.40625 0.45650
 C392 C 0.40375 0.45849 0.49326
 H393 H 0.53471 0.43424 0.49243
 H394 H 0.43175 0.49450 0.53551
 H395 H 0.54390 0.54606 0.54435
 H396 H 0.49232 0.53639 0.43205
 H397 H 0.55805 0.50785 0.41242
 H398 H 0.54579 0.55994 0.42548
 H399 H 0.43701 0.44855 0.56710
 H400 H 0.46812 0.48395 0.59806
 H401 H 0.55721 0.44287 0.41439
 H402 H 0.59661 0.46962 0.48188
 H403 H 0.39935 0.53483 0.51438
 H404 H 0.43077 0.56034 0.55182
 H405 H 0.55108 0.43330 0.55880
 H406 H 0.51400 0.40126 0.53215
 H407 H 0.48085 0.59942 0.46982
 H408 H 0.44515 0.56711 0.43608
 O409 O 0.43413 -0.06240 0.49696
 O410 O 0.46407 -0.07014 0.44752
 O411 O 0.51276 -0.06968 0.56739
 O412 O 0.55957 -0.04437 0.57481
 O413 O 0.44010 0.00702 0.57562
 O414 O 0.42815 0.05634 0.54777
 O415 O 0.59478 0.02371 0.47969
 O416 O 0.59951 -0.02911 0.50051
 O417 O 0.51888 0.02196 0.40920
 O418 O 0.46359 0.00791 0.40923
 O419 O 0.52019 0.09500 0.48218
 O420 O 0.50225 0.09589 0.54056
 O421 O 0.57245 0.06764 0.50599
 O422 O 0.54222 0.07447 0.55885
 O423 O 0.49590 0.07490 0.43755
 O424 O 0.44234 0.04487 0.43391
 O425 O 0.56617 0.00046 0.42984
 O426 O 0.57248 -0.05289 0.45584
 O427 O 0.41065 -0.01797 0.52129
 O428 O 0.40802 0.03922 0.50621
 O429 O 0.48682 -0.01579 0.59628
 O430 O 0.54239 0.00234 0.59392
 O431 O 0.48843 -0.09036 0.52298
 O432 O 0.50682 -0.09004 0.46598
 Zr433 Zr 0.48364 -0.05019 0.49008
 O434 O 0.51141 -0.02034 0.45802
 Zr435 Zr 0.51804 -0.01976 0.55512
 O436 O 0.54799 0.01081 0.52572
 Zr437 Zr 0.44984 0.01478 0.52543
 O438 O 0.47695 0.04753 0.49543
 Zr439 Zr 0.55606 -0.00957 0.47950
 O440 O 0.52978 -0.04251 0.51050
 Zr441 Zr 0.48775 0.02538 0.45050
 O442 O 0.45778 -0.00617 0.47929
 Zr443 Zr 0.52307 0.05526 0.51566
 O444 O 0.49408 0.02595 0.54795
 O445 O 0.47280 -0.03011 0.53550
 O446 O 0.53330 0.03572 0.46972
 C447 C 0.40910 -0.04637 0.50839
 C448 C 0.50096 -0.09339 0.55157
 C449 C 0.45755 -0.00419 0.59938
 C450 C 0.59668 0.05237 0.49192
 C451 C 0.54852 0.01134 0.40616
 C452 C 0.50868 0.09821 0.45318
 H453 H 0.51498 -0.03226 0.43735
 H454 H 0.46423 0.06820 0.49251
 H455 H 0.45913 -0.04441 0.54987
 H456 H 0.56891 0.01402 0.53684
 H457 H 0.59372 -0.05029 0.51110
 H458 H 0.57904 -0.03603 0.56273
 H459 H 0.43729 0.06524 0.44583
 H460 H 0.40510 0.03065 0.48398
 H461 H 0.59440 -0.04897 0.44568
 H462 H 0.52869 -0.09321 0.47574
 H463 H 0.48162 0.10240 0.52965
 H464 H 0.44581 0.06679 0.55972
 H465 H 0.44832 -0.05360 0.43866
 H466 H 0.47184 -0.01467 0.40557
 H467 H 0.53094 0.02352 0.59798
 H468 H 0.56149 0.06075 0.56506
 O469 O -0.06332 0.50127 1.06886
 O470 O -0.07646 0.54922 1.04036
 O471 O -0.06758 0.43069 0.98993
 O472 O -0.03816 0.41865 0.94525
 O473 O 0.00943 0.42596 1.06361
 O474 O 0.05944 0.45452 1.06758
 O475 O 0.01594 0.51653 0.90302
 O476 O -0.03486 0.49607 0.90324
 O477 O 0.01555 0.58946 0.97544
 O478 O -0.00078 0.59196 1.03188
 O479 O 0.09197 0.51834 0.97550
 O480 O 0.09810 0.46326 0.99038
 O481 O 0.06277 0.49396 0.92391
 O482 O 0.07451 0.44102 0.95544
 O483 O 0.06918 0.56266 1.00052
 O484 O 0.03646 0.56878 1.05354
 O485 O -0.00698 0.56786 0.93054
 O486 O -0.06009 0.54148 0.93135
 O487 O -0.01602 0.48103 1.09061
 O488 O 0.03931 0.49573 1.08952
 O489 O -0.01306 0.40376 1.01901
 O490 O 0.00807 0.40494 0.96072
 O491 O -0.09168 0.47443 1.01487
 O492 O -0.09477 0.53189 0.99827
 Zr493 Zr -0.05317 0.50809 1.01874
 O494 O -0.02613 0.54087 0.98889
 Zr495 Zr -0.01801 0.44308 0.98490
 O496 O 0.00925 0.47316 0.95244
 Zr497 Zr 0.01523 0.47538 1.04966
 O498 O 0.04502 0.50588 1.02009
 Zr499 Zr -0.01483 0.51855 0.94431
 O500 O -0.04448 0.48658 0.97298
 Zr501 Zr 0.01966 0.54991 1.00917
 O502 O -0.00933 0.52063 1.04146
 Zr503 Zr 0.05354 0.48482 0.97414
 O504 O 0.02761 0.45195 1.00562
 O505 O -0.02962 0.46374 1.02987
 O506 O 0.03059 0.52979 0.96358
 C507 C -0.04563 0.49188 1.09310
 C508 C -0.09286 0.44609 1.00170
 C509 C -0.00133 0.40162 1.04803
 C510 C 0.04550 0.50566 0.90019
 C511 C 0.00420 0.59192 0.94631
 C512 C 0.09382 0.54694 0.98771
 H513 H -0.03929 0.56123 0.98540
 H514 H 0.06562 0.50941 1.03167
 H515 H -0.04337 0.44964 1.04438
 H516 H 0.01267 0.46140 0.93167
 H517 H -0.05541 0.48574 0.91104
 H518 H -0.03857 0.43453 0.92662
 H519 H 0.05715 0.55699 1.05904
 H520 H 0.02999 0.51810 1.09218
 H521 H -0.05768 0.55082 0.90877
 H522 H -0.09812 0.52188 0.97676
 H523 H 0.09999 0.46853 1.01380
 H524 H 0.06763 0.43881 1.05100
 H525 H -0.05928 0.56049 1.05226
 H526 H -0.02346 0.59502 1.02417
 H527 H 0.02786 0.39977 0.97365
 H528 H 0.06174 0.43495 0.93625
 O529 O 0.00391 0.57283 0.43604
 O530 O 0.05224 0.54394 0.42292
 O531 O -0.06582 0.49186 0.42861
 O532 O -0.07851 0.44736 0.45762
 O533 O -0.07439 0.56457 0.50678
 O534 O -0.04606 0.56810 0.55772
 O535 O 0.01863 0.40588 0.51295
 O536 O -0.00126 0.40679 0.46123
 O537 O 0.09101 0.47857 0.51411
 O538 O 0.09108 0.53744 0.49617
 O539 O 0.01967 0.47706 0.58921
 O540 O -0.03564 0.49167 0.59557
 O541 O -0.00524 0.42607 0.55953
 O542 O -0.05812 0.45747 0.57117
 O543 O 0.06378 0.50300 0.56698
 O544 O 0.07109 0.55459 0.53731
 O545 O 0.07005 0.43382 0.49097
 O546 O 0.04478 0.43491 0.43739
 O547 O -0.02059 0.59273 0.48238
 O548 O -0.00473 0.59144 0.53758
 O549 O -0.09450 0.52053 0.48172
 O550 O -0.09345 0.46270 0.50363
 O551 O -0.02272 0.51905 0.40584
 O552 O 0.03435 0.50354 0.40262
 Zr553 Zr 0.01035 0.52239 0.44490
 O554 O 0.04298 0.49213 0.47173
 Zr555 Zr -0.05479 0.48700 0.47846
 O556 O -0.02490 0.45475 0.50601
 Zr557 Zr -0.02452 0.55156 0.51324
 O558 O 0.00649 0.52225 0.54281
 Zr559 Zr 0.02086 0.44737 0.48237
 O560 O -0.01066 0.47629 0.45252
 Zr561 Zr 0.05108 0.51211 0.51777
 O562 O 0.02146 0.54457 0.48937
 Zr563 Zr -0.01405 0.47617 0.55071
 O564 O -0.04729 0.50717 0.52463
 O565 O -0.03469 0.53228 0.46777
 O566 O 0.03134 0.46636 0.52810
 C567 C -0.00802 0.59621 0.45350
 C568 C -0.05045 0.50483 0.40396
 C569 C -0.09780 0.54914 0.49388
 C570 C 0.00696 0.40267 0.54226
 C571 C 0.09384 0.44958 0.50264
 C572 C 0.04822 0.48947 0.59123
 H573 H 0.06356 0.48895 0.45878
 H574 H 0.00976 0.53353 0.56363
 H575 H -0.04867 0.54673 0.45382
 H576 H -0.03663 0.43398 0.50905
 H577 H -0.01117 0.41486 0.44052
 H578 H -0.06275 0.42866 0.45815
 H579 H 0.05629 0.56199 0.55536
 H580 H 0.01764 0.59440 0.52823
 H581 H 0.05405 0.41236 0.43974
 H582 H 0.02596 0.48130 0.39982
 H583 H -0.03080 0.51509 0.59761
 H584 H -0.06197 0.55143 0.56514
 H585 H 0.06299 0.55578 0.44048
 H586 H 0.09840 0.52572 0.47624
 H587 H -0.09940 0.47571 0.52317
 H588 H -0.06443 0.43890 0.55772
 O589 O 0.51577 0.90613 0.01837
 O590 O 0.50286 0.90668 -0.03642
 O591 O 0.59161 0.97918 0.01845
 O592 O 0.59236 1.03514 -0.00056
 O593 O 0.51957 0.97992 0.09471
 O594 O 0.46322 0.99623 0.09840
 O595 O 0.50130 1.07158 -0.06120
 O596 O 0.54979 1.04546 -0.07521
 O597 O 0.43223 0.99481 -0.06568
 O598 O 0.42466 0.94407 -0.03493
 O599 O 0.42698 1.06513 0.00985
 O600 O 0.45690 1.06983 0.06232
 O601 O 0.47916 1.09244 -0.01426
 O602 O 0.49522 1.09234 0.04156
 O603 O 0.40561 1.02059 -0.01324
 O604 O 0.40538 0.96193 0.00583
 O605 O 0.47674 1.01862 -0.08949
 O606 O 0.53713 1.00184 -0.09094
 O607 O 0.49328 0.92683 0.06526
 O608 O 0.44414 0.95597 0.07764
 O609 O 0.56374 1.00537 0.07188
 O610 O 0.57066 1.05534 0.04114
 O611 O 0.57113 0.93456 -0.00539
 O612 O 0.54243 0.93115 -0.05702
 Zr613 Zr 0.52117 0.94739 -0.01227
 O614 O 0.48960 0.97603 -0.04190
 Zr615 Zr 0.55159 1.01219 0.02221
 O616 O 0.52199 1.04378 -0.00644
 Zr617 Zr 0.48639 0.97703 0.05587
 O618 O 0.45377 1.00737 0.02911
 Zr619 Zr 0.51034 1.02186 -0.05079
 O620 O 0.54389 0.99187 -0.02393
 Zr621 Zr 0.44530 0.98677 -0.01655
 O622 O 0.47522 0.95450 0.01167
 Zr623 Zr 0.47638 1.05175 0.01748
 O624 O 0.50749 1.02296 0.04791
 O625 O 0.53138 0.96696 0.03300
 O626 O 0.46511 1.03233 -0.02793
 C627 C 0.50395 0.90306 0.04761
 C628 C 0.59475 0.95035 0.00676
 C629 C 0.54794 0.99282 0.09654
 C630 C 0.49003 1.09530 -0.04384
 C631 C 0.44802 1.00631 -0.09082
 C632 C 0.40306 1.04965 -0.00193
 H633 H 0.48617 0.96414 -0.06233
 H634 H 0.43325 1.01060 0.04208
 H635 H 0.54538 0.95238 0.04679
 H636 H 0.53394 1.06431 -0.01026
 H637 H 0.56294 1.05535 -0.05811
 H638 H 0.59575 1.02504 -0.02226
 H639 H 0.39799 0.97419 0.02540
 H640 H 0.43413 0.94302 0.06043
 H641 H 0.52535 0.98248 -0.09809
 H642 H 0.55957 0.94689 -0.06359
 H643 H 0.43760 1.05680 0.06881
 H644 H 0.47134 1.01867 0.10054
 H645 H 0.47962 0.90486 -0.02926
 H646 H 0.43905 0.93630 -0.05315
 H647 H 0.55449 1.06339 0.05772
 H648 H 0.51690 1.09707 0.03142
 O649 O 0.57581 0.43662 0.00721
 O650 O 0.54676 0.42505 0.05666
 O651 O 0.49715 0.42926 -0.06295
 O652 O 0.45151 0.45729 -0.07507
 O653 O 0.56867 0.50791 -0.07043
 O654 O 0.57272 0.55799 -0.04199
 O655 O 0.40855 0.51390 0.02044
 O656 O 0.40993 0.46222 0.00154
 O657 O 0.48091 0.51666 0.09360
 O658 O 0.53940 0.49731 0.09511
 O659 O 0.48146 0.59054 0.02221
 O660 O 0.49542 0.59580 -0.03371
 O661 O 0.42907 0.56063 -0.00246
 O662 O 0.46062 0.57199 -0.05530
 O663 O 0.50654 0.56782 0.06666
 O664 O 0.55784 0.53773 0.07464
 O665 O 0.43609 0.49340 0.07280
 O666 O 0.43780 0.43919 0.04815
 O667 O 0.59683 0.48278 -0.01611
 O668 O 0.59519 0.53804 -0.00026
 O669 O 0.52445 0.48390 -0.09166
 O670 O 0.46627 0.50361 -0.09070
 O671 O 0.52316 0.40724 -0.01865
 O672 O 0.50640 0.40408 0.03785
 Zr673 Zr 0.52557 0.44621 0.01412
 O674 O 0.49493 0.47308 0.04637
 Zr675 Zr 0.49092 0.47914 -0.05177
 O676 O 0.45834 0.50696 -0.02220
 Zr677 Zr 0.55547 0.51385 -0.02064
 O678 O 0.52569 0.54360 0.00972
 Zr679 Zr 0.45032 0.48374 0.02374
 O680 O 0.47960 0.45372 -0.00746
 Zr681 Zr 0.51514 0.51882 0.05430
 O682 O 0.54800 0.49027 0.02534
 Zr683 Zr 0.47956 0.55165 -0.01121
 O684 O 0.51105 0.52521 -0.04390
 O685 O 0.53607 0.46870 -0.03106
 O686 O 0.46941 0.52930 0.03418
 C687 C 0.59979 0.45359 -0.00421
 C688 C 0.51009 0.40495 -0.04692
 C689 C 0.55304 0.49638 -0.09444
 C690 C 0.40537 0.54323 0.00907
 C691 C 0.45158 0.50602 0.09636
 C692 C 0.49399 0.59235 0.05086
 H693 H 0.49147 0.46038 0.06705
 H694 H 0.53715 0.56426 0.01295
 H695 H 0.55067 0.45499 -0.04513
 H696 H 0.43762 0.51001 -0.03412
 H697 H 0.41820 0.44154 -0.00814
 H698 H 0.43242 0.45901 -0.05981
 H699 H 0.56541 0.55578 0.06000
 H700 H 0.59825 0.52837 0.02198
 H701 H 0.41524 0.44175 0.05748
 H702 H 0.48420 0.40133 0.02918
 H703 H 0.51871 0.59816 -0.02819
 H704 H 0.55595 0.56587 -0.05766
 H705 H 0.55931 0.44248 0.06672
 H706 H 0.52719 0.47780 0.10253
 H707 H 0.47826 0.52394 -0.09578
 H708 H 0.44212 0.55847 -0.06167
 O709 O -0.02342 0.01620 0.59171
 O710 O 0.03369 -0.00026 0.59274
 O711 O -0.02314 0.09160 0.51694
 O712 O -0.01054 0.09695 0.46401
 O713 O -0.09556 0.01458 0.51715
 O714 O -0.09323 -0.04065 0.50103
 O715 O 0.06565 0.00730 0.42761
 O716 O 0.06504 0.05867 0.45127
 O717 O 0.07291 -0.06139 0.50484
 O718 O 0.04286 -0.07278 0.55626
 O719 O -0.00317 -0.07064 0.43489
 O720 O -0.05438 -0.04196 0.42547
 O721 O 0.02200 -0.01879 0.40759
 O722 O -0.03735 -0.00097 0.40526
 O723 O 0.02242 -0.09162 0.47986
 O724 O 0.00540 -0.09507 0.53749
 O725 O 0.09261 -0.01544 0.47983
 O726 O 0.08968 0.03803 0.50125
 O727 O -0.06694 -0.00940 0.57091
 O728 O -0.07006 -0.06019 0.54297
 O729 O -0.07591 0.05982 0.49077
 O730 O -0.04495 0.06909 0.43998
 O731 O 0.00153 0.07040 0.56242
 O732 O 0.05173 0.04203 0.57126
 Zr733 Zr 0.00991 0.02089 0.55157
 O734 O 0.04300 -0.00731 0.52304
 Zr735 Zr -0.02532 0.05175 0.48496
 O736 O 0.00649 0.02495 0.45374
 Zr737 Zr -0.05377 -0.01588 0.52118
 O738 O -0.02342 -0.04563 0.49129
 Zr739 Zr 0.05110 0.01533 0.47684
 O740 O 0.02074 0.04569 0.50670
 Zr741 Zr 0.02251 -0.05247 0.51282
 O742 O -0.00925 -0.02576 0.54483
 Zr743 Zr -0.01281 -0.02141 0.44641
 O744 O -0.04663 0.00685 0.47475
 O745 O -0.03539 0.02996 0.53053
 O746 O 0.03281 -0.03074 0.46709
 C747 C -0.05174 0.00313 0.59469
 C748 C -0.01101 0.09434 0.54565
 C749 C -0.09926 0.04301 0.50367
 C750 C 0.05063 -0.00649 0.40437
 C751 C 0.09626 -0.04422 0.49237
 C752 C 0.01036 -0.09437 0.45116
 H753 H 0.06366 -0.00980 0.53517
 H754 H -0.03448 -0.06653 0.48818
 H755 H -0.05030 0.04364 0.54431
 H756 H 0.00994 0.03732 0.43287
 H757 H 0.06028 0.07699 0.46626
 H758 H 0.00955 0.09242 0.45072
 H759 H -0.01576 -0.10054 0.52788
 H760 H -0.05311 -0.06755 0.55867
 H761 H 0.10880 0.03970 0.48586
 H762 H 0.06123 0.05619 0.55366
 H763 H -0.06282 -0.05868 0.44119
 H764 H -0.09632 -0.03123 0.47869
 H765 H 0.02446 -0.02225 0.59642
 H766 H 0.05868 -0.05703 0.56432
 H767 H -0.05997 0.05223 0.43263
 H768 H -0.02504 0.01824 0.39712
 O769 O 0.73356 0.15701 0.26586
 O770 O 0.79133 0.15716 0.25901
 O771 O 0.72194 0.23292 0.34210
 O772 O 0.73030 0.28549 0.34476
 O773 O 0.65631 0.22737 0.25992
 O774 O 0.66099 0.24919 0.20473
 O775 O 0.80999 0.32287 0.26555
 O776 O 0.81079 0.29461 0.31433
 O777 O 0.82879 0.24654 0.19443
 O778 O 0.80296 0.19386 0.18443
 O779 O 0.75325 0.31435 0.17750
 O780 O 0.70065 0.32498 0.19752
 O781 O 0.76809 0.34299 0.23458
 O782 O 0.70633 0.34116 0.24283
 O783 O 0.78132 0.26931 0.15965
 O784 O 0.76596 0.21206 0.15820
 O785 O 0.84328 0.27460 0.23912
 O786 O 0.83951 0.24777 0.29339
 O787 O 0.69366 0.17713 0.23255
 O788 O 0.68610 0.20984 0.18563
 O789 O 0.67082 0.25434 0.30528
 O790 O 0.69689 0.30767 0.31262
 O791 O 0.74968 0.18749 0.32461
 O792 O 0.80300 0.17877 0.30128
 Zr793 Zr 0.76267 0.19783 0.27474
 O794 O 0.79655 0.22674 0.24787
 Zr795 Zr 0.72098 0.26320 0.29977
 O796 O 0.75344 0.29467 0.27463
 Zr797 Zr 0.70033 0.22787 0.23124
 O798 O 0.73154 0.25827 0.20291
 Zr799 Zr 0.80026 0.27266 0.26932
 O800 O 0.76878 0.24249 0.29839
 Zr801 Zr 0.77892 0.23720 0.20069
 O802 O 0.74692 0.20508 0.22613
 Zr803 Zr 0.73787 0.30285 0.22631
 O804 O 0.70300 0.27401 0.25267
 O805 O 0.71549 0.21766 0.27900
 O806 O 0.78507 0.28286 0.22143
 C807 C 0.70853 0.15341 0.24764
 C808 C 0.73492 0.20443 0.34713
 C809 C 0.64969 0.24036 0.28783
 C810 C 0.79441 0.34649 0.25091
 C811 C 0.84972 0.26154 0.21120
 C812 C 0.76915 0.29820 0.15517
 H813 H 0.81812 0.21519 0.24718
 H814 H 0.72230 0.26166 0.18085
 H815 H 0.70086 0.20281 0.29168
 H816 H 0.75403 0.31504 0.28717
 H817 H 0.80482 0.27869 0.33202
 H818 H 0.75198 0.29561 0.34217
 H819 H 0.74685 0.22368 0.14847
 H820 H 0.70528 0.19752 0.17658
 H821 H 0.85789 0.26307 0.29485
 H822 H 0.81038 0.19670 0.31503
 H823 H 0.68935 0.30711 0.18681
 H824 H 0.65520 0.27020 0.21524
 H825 H 0.78706 0.15484 0.23538
 H826 H 0.82002 0.18760 0.20040
 H827 H 0.68027 0.31261 0.29578
 H828 H 0.71513 0.34904 0.26356
 O829 O 0.75789 0.68538 0.68052
 O830 O 0.80765 0.67730 0.70925
 O831 O 0.68585 0.68016 0.75899
 O832 O 0.67266 0.70676 0.80403
 O833 O 0.67982 0.75764 0.68443
 O834 O 0.70817 0.80687 0.67488
 O835 O 0.76339 0.76808 0.84223
 O836 O 0.74595 0.71611 0.84481
 O837 O 0.84135 0.76536 0.76707
 O838 O 0.84509 0.75222 0.71165
 O839 O 0.76591 0.84282 0.76317
 O840 O 0.71006 0.84542 0.74986
 O841 O 0.74170 0.81436 0.81848
 O842 O 0.68973 0.82334 0.78790
 O843 O 0.81293 0.82019 0.74206
 O844 O 0.82204 0.78927 0.69006
 O845 O 0.81810 0.74570 0.81448
 O846 O 0.79367 0.69302 0.81907
 O847 O 0.73710 0.73192 0.65672
 O848 O 0.74971 0.78768 0.65404
 O849 O 0.65705 0.73662 0.73146
 O850 O 0.65605 0.75284 0.78815
 O851 O 0.73288 0.65761 0.73775
 O852 O 0.78848 0.65614 0.75051
 Zr853 Zr 0.76374 0.69735 0.72975
 O854 O 0.79378 0.72547 0.75830
 Zr855 Zr 0.69625 0.72990 0.76336
 O856 O 0.72360 0.75898 0.79371
 Zr857 Zr 0.72914 0.76372 0.69590
 O858 O 0.75749 0.79472 0.72337
 Zr859 Zr 0.76945 0.73673 0.80259
 O860 O 0.74044 0.70540 0.77558
 Zr861 Zr 0.80199 0.77092 0.73500
 O862 O 0.77511 0.74110 0.70427
 Zr863 Zr 0.73440 0.80317 0.76907
 O864 O 0.70387 0.77544 0.73975
 O865 O 0.71846 0.71882 0.71835
 O866 O 0.78004 0.78210 0.78039
 C867 C 0.74860 0.70250 0.65548
 C868 C 0.70353 0.65561 0.74944
 C869 C 0.65520 0.74814 0.70203
 C870 C 0.75183 0.79750 0.84344
 C871 C 0.84286 0.75494 0.79694
 C872 C 0.79548 0.84471 0.75203
 H873 H 0.81432 0.71276 0.76209
 H874 H 0.76070 0.81515 0.71040
 H875 H 0.70489 0.70480 0.70483
 H876 H 0.71083 0.76227 0.81433
 H877 H 0.73687 0.69507 0.83820
 H878 H 0.68593 0.71094 0.82341
 H879 H 0.80933 0.80922 0.68368
 H880 H 0.77276 0.77973 0.65204
 H881 H 0.80175 0.69638 0.84151
 H882 H 0.78150 0.65487 0.77391
 H883 H 0.71795 0.84862 0.72691
 H884 H 0.69218 0.81561 0.69128
 H885 H 0.81576 0.69341 0.69267
 H886 H 0.84799 0.72917 0.71912
 H887 H 0.65208 0.77426 0.77697
 H888 H 0.68336 0.81048 0.80780
 O889 O 0.32112 0.26743 0.80976
 O890 O 0.28793 0.31473 0.81530
 O891 O 0.24300 0.19550 0.82959
 O892 O 0.19779 0.17994 0.80562
 O893 O 0.31554 0.17841 0.75279
 O894 O 0.32432 0.20042 0.69932
 O895 O 0.15584 0.26504 0.73186
 O896 O 0.15443 0.25426 0.78666
 O897 O 0.23030 0.33975 0.71920
 O898 O 0.28628 0.34268 0.73408
 O899 O 0.22747 0.25970 0.65668
 O900 O 0.24619 0.20634 0.65773
 O901 O 0.17792 0.23378 0.69113
 O902 O 0.21491 0.18243 0.68883
 O903 O 0.25315 0.30548 0.67177
 O904 O 0.30658 0.31551 0.69869
 O905 O 0.18408 0.32123 0.74489
 O906 O 0.18112 0.30198 0.80233
 O907 O 0.34343 0.23729 0.76839
 O908 O 0.34350 0.24432 0.70993
 O909 O 0.27078 0.15995 0.78107
 O910 O 0.21412 0.15824 0.76193
 O911 O 0.27036 0.24031 0.84467
 O912 O 0.24751 0.29538 0.83933
 Zr913 Zr 0.27055 0.26911 0.80076
 O914 O 0.24057 0.29683 0.76864
 Zr915 Zr 0.23771 0.20005 0.77879
 O916 O 0.20565 0.22498 0.74667
 Zr917 Zr 0.30343 0.22713 0.73868
 O918 O 0.27422 0.25257 0.70410
 Zr919 Zr 0.19626 0.27312 0.76179
 O920 O 0.22486 0.24655 0.79680
 Zr921 Zr 0.26261 0.29930 0.72167
 O922 O 0.29455 0.27513 0.75475
 Zr923 Zr 0.22854 0.23038 0.70022
 O924 O 0.25974 0.20221 0.73155
 O925 O 0.28246 0.22205 0.78539
 O926 O 0.21728 0.27796 0.71489
 C927 C 0.34571 0.25403 0.79456
 C928 C 0.25707 0.21259 0.85097
 C929 C 0.29956 0.15588 0.76839
 C930 C 0.15349 0.24816 0.70572
 C931 C 0.20092 0.34381 0.73028
 C932 C 0.23921 0.28816 0.65055
 H933 H 0.23662 0.31875 0.77790
 H934 H 0.28602 0.25355 0.68267
 H935 H 0.29717 0.21006 0.80074
 H936 H 0.18534 0.21232 0.74618
 H937 H 0.16175 0.24624 0.80848
 H938 H 0.17841 0.19400 0.80078
 H939 H 0.31203 0.30102 0.68015
 H940 H 0.34595 0.26759 0.71532
 H941 H 0.15915 0.31172 0.79774
 H942 H 0.22623 0.28494 0.84407
 H943 H 0.27025 0.20862 0.65686
 H944 H 0.30745 0.18506 0.69260
 H945 H 0.30149 0.32329 0.79673
 H946 H 0.27599 0.35068 0.75469
 H947 H 0.22735 0.14994 0.74309
 H948 H 0.19490 0.17740 0.70199
 O949 O 0.17477 0.75183 0.31544
 O950 O 0.19786 0.69895 0.32524
 O951 O 0.26841 0.80650 0.32393
 O952 O 0.31129 0.81733 0.29227
 O953 O 0.19362 0.82974 0.24633
 O954 O 0.18295 0.80396 0.19550
 O955 O 0.33813 0.71792 0.23251
 O956 O 0.34094 0.73623 0.28472
 O957 O 0.25626 0.65614 0.22962
 O958 O 0.19985 0.66084 0.25023
 O959 O 0.26237 0.73053 0.15814
 O960 O 0.25444 0.79194 0.15928
 O961 O 0.31941 0.74482 0.18688
 O962 O 0.29953 0.79783 0.17527
 O963 O 0.23113 0.68986 0.17980
 O964 O 0.18035 0.68788 0.21404
 O965 O 0.30343 0.67102 0.25316
 O966 O 0.30805 0.69331 0.30772
 O967 O 0.15739 0.78104 0.27072
 O968 O 0.15485 0.76663 0.21563
 O969 O 0.23915 0.84372 0.27330
 O970 O 0.29530 0.83624 0.24821
 O971 O 0.23360 0.76850 0.34500
 O972 O 0.24067 0.71062 0.34583
 Zr973 Zr 0.22435 0.73856 0.30483
 O974 O 0.24984 0.70386 0.27575
 Zr975 Zr 0.26765 0.79969 0.27292
 O976 O 0.29484 0.76747 0.24261
 Zr977 Zr 0.19841 0.77936 0.23889
 O978 O 0.22247 0.74636 0.20708
 Zr979 Zr 0.29699 0.72044 0.26416
 O980 O 0.27300 0.75347 0.29638
 Zr981 Zr 0.22740 0.70001 0.23013
 O982 O 0.19969 0.73216 0.26072
 Zr983 Zr 0.27091 0.76102 0.19818
 O984 O 0.24542 0.79656 0.22698
 O985 O 0.22004 0.78530 0.28416
 O986 O 0.27526 0.71413 0.21878
 C987 C 0.15247 0.76742 0.29895
 C988 C 0.25270 0.79284 0.34805
 C989 C 0.21137 0.85065 0.26023
 C990 C 0.34204 0.72958 0.20324
 C991 C 0.28526 0.64985 0.24026
 C992 C 0.24573 0.70439 0.15552
 H993 H 0.25103 0.68263 0.28780
 H994 H 0.20971 0.74586 0.18678
 H995 H 0.20789 0.80034 0.29905
 H996 H 0.31705 0.77621 0.23903
 H997 H 0.33475 0.74635 0.30588
 H998 H 0.32811 0.79973 0.28974
 H999 H 0.17459 0.70327 0.19588
 H1000 H 0.14871 0.74493 0.22472
 H1001 H 0.32914 0.68124 0.30403
 H1002 H 0.26441 0.71454 0.34746
 H1003 H 0.23327 0.78359 0.15211
 H1004 H 0.20130 0.81775 0.18773
 H1005 H 0.18390 0.69123 0.30757
 H1006 H 0.20999 0.65355 0.27104
 H1007 H 0.28246 0.84400 0.22910
 H1008 H 0.31211 0.80792 0.19267
 O1009 O 0.23305 0.65689 0.76350
 O1010 O 0.29093 0.65759 0.75590
 O1011 O 0.22152 0.73030 0.84174
 O1012 O 0.22965 0.78271 0.84637
 O1013 O 0.15566 0.72738 0.75956
 O1014 O 0.15998 0.75055 0.70525
 O1015 O 0.30949 0.82264 0.76796
 O1016 O 0.31001 0.79290 0.81620
 O1017 O 0.32775 0.74913 0.69460
 O1018 O 0.30208 0.69649 0.68305
 O1019 O 0.25202 0.81708 0.68006
 O1020 O 0.19974 0.82720 0.70063
 O1021 O 0.26746 0.84391 0.73788
 O1022 O 0.20552 0.84168 0.74668
 O1023 O 0.28004 0.77257 0.66082
 O1024 O 0.26525 0.71573 0.65723
 O1025 O 0.34245 0.77557 0.74023
 O1026 O 0.33896 0.74691 0.79358
 O1027 O 0.19248 0.67816 0.73162
 O1028 O 0.18619 0.71221 0.68454
 O1029 O 0.17032 0.75286 0.80576
 O1030 O 0.19632 0.80597 0.81500
 O1031 O 0.24938 0.68554 0.82276
 O1032 O 0.30253 0.67755 0.79921
 Zr1033 Zr 0.26217 0.69748 0.77332
 O1034 O 0.29592 0.72730 0.74745
 Zr1035 Zr 0.22042 0.76201 0.80057
 O1036 O 0.25281 0.79435 0.77656
 Zr1037 Zr 0.19961 0.72883 0.73099
 O1038 O 0.23065 0.76026 0.70375
 Zr1039 Zr 0.29957 0.77247 0.77043
 O1040 O 0.26822 0.74133 0.79847
 Zr1041 Zr 0.27802 0.73925 0.70073
 O1042 O 0.24617 0.70620 0.72502
 Zr1043 Zr 0.23704 0.80408 0.72857
 O1044 O 0.20225 0.77429 0.75390
 O1045 O 0.21501 0.71720 0.77835
 O1046 O 0.28419 0.78419 0.72293
 C1047 C 0.20761 0.65399 0.74572
 C1048 C 0.23461 0.70173 0.84578
 C1049 C 0.14917 0.73936 0.78793
 C1050 C 0.29401 0.84675 0.75404
 C1051 C 0.34871 0.76361 0.71179
 C1052 C 0.26772 0.80149 0.65722
 H1053 H 0.31752 0.71585 0.74630
 H1054 H 0.22131 0.76436 0.68183
 H1055 H 0.20042 0.70198 0.79060
 H1056 H 0.25347 0.81429 0.78975
 H1057 H 0.30422 0.77634 0.83334
 H1058 H 0.25135 0.79284 0.84421
 H1059 H 0.24554 0.72708 0.64842
 H1060 H 0.20495 0.69887 0.67609
 H1061 H 0.35725 0.76224 0.79560
 H1062 H 0.31008 0.69508 0.81337
 H1063 H 0.18825 0.80969 0.68956
 H1064 H 0.15441 0.77146 0.71607
 H1065 H 0.28618 0.65583 0.73231
 H1066 H 0.31948 0.68999 0.69856
 H1067 H 0.17958 0.81141 0.79840
 H1068 H 0.21469 0.84914 0.76741
 O1069 O 0.26835 0.34280 0.26210
 O1070 O 0.21266 0.34526 0.24985
 O1071 O 0.26267 0.26795 0.34322
 O1072 O 0.25011 0.21254 0.34584
 O1073 O 0.34324 0.26205 0.26809
 O1074 O 0.34527 0.24890 0.21240
 O1075 O 0.18548 0.18171 0.25822
 O1076 O 0.17727 0.21318 0.31039
 O1077 O 0.18101 0.25707 0.18615
 O1078 O 0.21204 0.30908 0.17721
 O1079 O 0.25658 0.18550 0.18171
 O1080 O 0.30815 0.17592 0.21149
 O1081 O 0.23199 0.15821 0.23690
 O1082 O 0.28846 0.15519 0.25072
 O1083 O 0.23576 0.23225 0.15838
 O1084 O 0.24924 0.28742 0.15444
 O1085 O 0.15796 0.23639 0.23319
 O1086 O 0.15428 0.24992 0.28828
 O1087 O 0.31532 0.31920 0.24191
 O1088 O 0.32439 0.29007 0.19270
 O1089 O 0.31972 0.24206 0.31521
 O1090 O 0.29087 0.19288 0.32447
 O1091 O 0.24288 0.31509 0.31977
 O1092 O 0.19337 0.32444 0.29115
 Zr1093 Zr 0.23678 0.30357 0.27041
 O1094 O 0.20599 0.27614 0.24183
 Zr1095 Zr 0.27040 0.23645 0.30382
 O1096 O 0.24133 0.20604 0.27655
 Zr1097 Zr 0.30372 0.26990 0.23649
 O1098 O 0.27588 0.24119 0.20617
 Zr1099 Zr 0.19727 0.23075 0.26511
 O1100 O 0.22480 0.25995 0.29577
 Zr1101 Zr 0.23027 0.26433 0.19757
 O1102 O 0.25986 0.29509 0.22462
 Zr1103 Zr 0.26421 0.19720 0.23083
 O1104 O 0.29537 0.22440 0.25988
 O1105 O 0.28174 0.28128 0.28156
 O1106 O 0.21883 0.21915 0.21961
 C1107 C 0.29787 0.34418 0.25070
 C1108 C 0.25167 0.29752 0.34470
 C1109 C 0.34468 0.25087 0.29773
 C1110 C 0.20244 0.15690 0.24820
 C1111 C 0.15636 0.24714 0.20347
 C1112 C 0.24659 0.20263 0.15694
 H1113 H 0.18555 0.28908 0.23832
 H1114 H 0.28866 0.23757 0.18563
 H1115 H 0.29555 0.29495 0.29518
 H1116 H 0.23776 0.18573 0.28961
 H1117 H 0.18907 0.19257 0.31640
 H1118 H 0.22700 0.22027 0.34783
 H1119 H 0.27231 0.27985 0.15161
 H1120 H 0.30809 0.30614 0.18397
 H1121 H 0.15183 0.27309 0.28107
 H1122 H 0.18478 0.30825 0.30741
 H1123 H 0.31518 0.18921 0.19211
 H1124 H 0.34695 0.22587 0.22032
 H1125 H 0.22016 0.34693 0.22662
 H1126 H 0.19164 0.31522 0.18938
 H1127 H 0.30696 0.18423 0.30811
 H1128 H 0.27945 0.15140 0.27319
 O1129 O 0.81528 0.68015 0.25086
 O1130 O 0.82428 0.70303 0.19810
 O1131 O 0.82250 0.77281 0.30613
 O1132 O 0.79070 0.81470 0.31848
 O1133 O 0.74636 0.69692 0.32945
 O1134 O 0.69628 0.68505 0.30474
 O1135 O 0.73025 0.84206 0.21854
 O1136 O 0.78241 0.84512 0.23591
 O1137 O 0.72642 0.76022 0.15659
 O1138 O 0.74487 0.70662 0.15858
 O1139 O 0.65623 0.76656 0.23289
 O1140 O 0.65411 0.76119 0.28932
 O1141 O 0.68544 0.82379 0.24710
 O1142 O 0.67847 0.79868 0.30498
 O1143 O 0.67686 0.73487 0.19196
 O1144 O 0.71360 0.68365 0.19013
 O1145 O 0.74998 0.80736 0.17116
 O1146 O 0.80495 0.81220 0.19279
 O1147 O 0.77119 0.66163 0.28022
 O1148 O 0.71511 0.65894 0.26545
 O1149 O 0.77265 0.74259 0.34388
 O1150 O 0.74665 0.79893 0.33656
 O1151 O 0.84362 0.73833 0.26779
 O1152 O 0.84296 0.74710 0.20877
 Zr1153 Zr 0.80337 0.72923 0.23778
 O1154 O 0.77323 0.75417 0.20362
 Zr1155 Zr 0.77160 0.77146 0.29993
 O1156 O 0.74112 0.79894 0.26810
 Zr1157 Zr 0.73845 0.70204 0.27916
 O1158 O 0.70566 0.72656 0.24752
 Zr1159 Zr 0.76183 0.80110 0.22057
 O1160 O 0.79456 0.77746 0.25336
 Zr1161 Zr 0.72760 0.73171 0.20060
 O1162 O 0.75956 0.70408 0.23153
 Zr1163 Zr 0.69679 0.77490 0.26253
 O1164 O 0.72606 0.74858 0.29715
 O1165 O 0.78331 0.72427 0.28486
 O1166 O 0.71638 0.77947 0.21509
 C1167 C 0.79956 0.65751 0.26659
 C1168 C 0.84662 0.75708 0.29250
 C1169 C 0.76006 0.71460 0.35055
 C1170 C 0.70155 0.84629 0.23139
 C1171 C 0.73699 0.78908 0.15011
 C1172 C 0.65294 0.74948 0.20709
 H1173 H 0.78475 0.75532 0.18202
 H1174 H 0.68541 0.71377 0.24750
 H1175 H 0.79848 0.71226 0.29975
 H1176 H 0.73788 0.82106 0.27706
 H1177 H 0.80350 0.83901 0.24622
 H1178 H 0.78971 0.83125 0.30044
 H1179 H 0.69396 0.67872 0.20390
 H1180 H 0.72562 0.65196 0.24454
 H1181 H 0.80096 0.83307 0.18049
 H1182 H 0.84576 0.77011 0.21494
 H1183 H 0.65284 0.73713 0.28818
 H1184 H 0.68752 0.70350 0.31786
 H1185 H 0.80714 0.68832 0.19073
 H1186 H 0.76854 0.71088 0.15597
 H1187 H 0.72846 0.78543 0.34528
 H1188 H 0.69080 0.81901 0.30721
 O1189 O 0.67822 0.24890 0.81604
 O1190 O 0.70170 0.19581 0.82418
 O1191 O 0.76953 0.30531 0.82459
 O1192 O 0.81298 0.31600 0.79325
 O1193 O 0.69479 0.32750 0.74722
 O1194 O 0.68378 0.30231 0.69661
 O1195 O 0.84119 0.21896 0.73083
 O1196 O 0.84405 0.23624 0.78318
 O1197 O 0.76032 0.15551 0.72758
 O1198 O 0.70598 0.15718 0.74660
 O1199 O 0.76409 0.23169 0.65664
 O1200 O 0.75558 0.29339 0.66006
 O1201 O 0.82204 0.24643 0.68570
 O1202 O 0.80137 0.29843 0.67481
 O1203 O 0.73397 0.19007 0.67806
 O1204 O 0.68299 0.18752 0.71464
 O1205 O 0.80742 0.17092 0.75086
 O1206 O 0.81214 0.19231 0.80562
 O1207 O 0.65995 0.27825 0.77178
 O1208 O 0.65708 0.26386 0.71628
 O1209 O 0.74014 0.34220 0.77406
 O1210 O 0.79635 0.33624 0.74940
 O1211 O 0.73722 0.26497 0.84524
 O1212 O 0.74484 0.20712 0.84437
 Zr1213 Zr 0.72769 0.23605 0.80438
 O1214 O 0.75348 0.20244 0.77430
 Zr1215 Zr 0.76948 0.29865 0.77334
 O1216 O 0.79697 0.26747 0.74207
 Zr1217 Zr 0.70052 0.27736 0.73931
 O1218 O 0.72498 0.24557 0.70654
 Zr1219 Zr 0.80020 0.22008 0.76269
 O1220 O 0.77594 0.25206 0.79583
 Zr1221 Zr 0.73090 0.19896 0.72873
 O1222 O 0.70283 0.22984 0.76035
 Zr1223 Zr 0.77307 0.26127 0.69751
 O1224 O 0.74710 0.29572 0.72738
 O1225 O 0.72232 0.28304 0.78455
 O1226 O 0.77843 0.21409 0.71723
 C1227 C 0.65559 0.26452 0.80005
 C1228 C 0.75504 0.29020 0.84869
 C1229 C 0.71214 0.34866 0.76120
 C1230 C 0.84498 0.23138 0.70185
 C1231 C 0.78947 0.14951 0.73797
 C1232 C 0.74765 0.20540 0.65372
 H1233 H 0.75511 0.18097 0.78589
 H1234 H 0.71195 0.24533 0.68640
 H1235 H 0.71011 0.29771 0.79976
 H1236 H 0.81897 0.27669 0.73849
 H1237 H 0.83789 0.24577 0.80464
 H1238 H 0.83027 0.29918 0.78911
 H1239 H 0.67756 0.20154 0.69532
 H1240 H 0.65088 0.24240 0.72594
 H1241 H 0.83346 0.18077 0.80158
 H1242 H 0.76848 0.21152 0.84606
 H1243 H 0.73485 0.28455 0.65229
 H1244 H 0.70179 0.31640 0.68858
 H1245 H 0.68675 0.18906 0.80690
 H1246 H 0.71191 0.15361 0.76981
 H1247 H 0.78357 0.34378 0.73017
 H1248 H 0.81266 0.30949 0.69250
 C1249 C 0.08641 1.00247 1.18500
 C1250 C 0.10891 1.01149 1.15530
 C1251 C 0.09363 1.01327 1.12633
 C1252 C 0.05726 1.00521 1.12895
 C1253 C 0.05603 0.97146 1.14640
 C1254 C 0.07114 0.97006 1.17586
 C1255 C 0.05781 1.02776 1.18354
 C1256 C 0.04252 1.02923 1.15411
 H1257 H 0.13485 1.01637 1.15703
 H1258 H 0.10640 1.01991 1.10355
 H1259 H 0.04377 0.95063 1.13665
 H1260 H 0.07181 0.94813 1.19136
 H1261 H 0.05026 1.04303 1.20391
 H1262 H 0.02199 1.04588 1.14933
 C1263 C 0.58625 0.50194 0.68504
 C1264 C 0.56073 0.53024 0.68226
 C1265 C 0.54542 0.53210 0.65287
 C1266 C 0.55697 0.50540 0.62898
 C1267 C 0.59418 0.50898 0.62597
 C1268 C 0.60944 0.50671 0.65491
 C1269 C 0.56711 0.47118 0.67761
 C1270 C 0.55192 0.47294 0.64812
 H1271 H 0.55516 0.54721 0.70181
 H1272 H 0.52690 0.55077 0.64729
 H1273 H 0.60759 0.51300 0.60295
 H1274 H 0.63589 0.50840 0.65629
 H1275 H 0.56542 0.45010 0.69416
 H1276 H 0.53720 0.45328 0.63943
 C1277 C 0.41622 -0.00185 0.69173
 C1278 C 0.39178 0.00323 0.66349
 C1279 C 0.40545 0.00216 0.63321
 C1280 C 0.44265 -0.00360 0.63315
 C1281 C 0.45585 0.02353 0.65453
 C1282 C 0.44196 0.02446 0.68530
 C1283 C 0.43441 -0.03437 0.68417
 C1284 C 0.44797 -0.03538 0.65339
 H1285 H 0.36553 0.00711 0.66712
 H1286 H 0.39074 0.00482 0.61140
 H1287 H 0.47456 0.04042 0.64619
 H1288 H 0.44876 0.04204 0.70334
 H1289 H 0.43650 -0.05473 0.70161
 H1290 H 0.46151 -0.05667 0.64443
 C1291 C -0.08708 0.49812 1.18503
 C1292 C -0.11143 0.50295 1.15677
 C1293 C -0.09775 0.50062 1.12655
 C1294 C -0.06063 0.49400 1.12670
 C1295 C -0.04685 0.52152 1.14723
 C1296 C -0.06079 0.52370 1.17792
 C1297 C -0.06951 0.46502 1.17848
 C1298 C -0.05598 0.46278 1.14783
 H1299 H -0.13756 0.50770 1.16032
 H1300 H -0.11239 0.50313 1.10469
 H1301 H -0.02778 0.53778 1.13839
 H1302 H -0.05369 0.54170 1.19540
 H1303 H -0.06774 0.44518 1.19656
 H1304 H -0.04281 0.44099 1.13958
 C1305 C -0.09025 0.49680 0.31228
 C1306 C -0.08530 0.53227 0.32259
 C1307 C -0.07239 0.53507 0.35293
 C1308 C -0.06551 0.50215 0.37053
 C1309 C -0.09856 0.48452 0.37050
 C1310 C -0.11130 0.48160 0.34014
 C1311 C -0.05638 0.47981 0.31616
 C1312 C -0.04349 0.48278 0.34645
 H1313 H -0.09148 0.55344 0.30731
 H1314 H -0.06764 0.55858 0.36347
 H1315 H -0.11067 0.47438 0.39230
 H1316 H -0.13369 0.46856 0.33639
 H1317 H -0.04406 0.46552 0.29726
 H1318 H -0.02015 0.47143 0.35300
 C1319 C 0.40845 0.99651 -0.18250
 C1320 C 0.38782 0.98311 -0.15581
 C1321 C 0.40103 0.98695 -0.12389
 C1322 C 0.43281 1.00306 -0.12441
 C1323 C 0.45364 0.98344 -0.14641
 C1324 C 0.44025 0.97967 -0.17827
 C1325 C 0.41380 1.03049 -0.17386
 C1326 C 0.42720 1.03408 -0.14192
 H1327 H 0.36645 0.96838 -0.15933
 H1328 H 0.38932 0.97637 -0.10208
 H1329 H 0.47609 0.97085 -0.13897
 H1330 H 0.45163 0.96331 -0.19602
 H1331 H 0.40834 1.05136 -0.18983
 H1332 H 0.43242 1.05775 -0.13198
 C1333 C 0.59369 0.49977 -0.18804
 C1334 C 0.61565 0.51458 -0.16221
 C1335 C 0.60273 0.51332 -0.13105
 C1336 C 0.56875 0.49768 -0.12837
 C1337 C 0.54786 0.51756 -0.15291
 C1338 C 0.56086 0.51881 -0.18392
 C1339 C 0.58673 0.46508 -0.17484
 C1340 C 0.57376 0.46397 -0.14375
 H1341 H 0.63852 0.52667 -0.16781
 H1342 H 0.61511 0.52366 -0.11055
 H1343 H 0.52522 0.53049 -0.14621
 H1344 H 0.54933 0.53316 -0.20339
 H1345 H 0.59164 0.44316 -0.18874
 H1346 H 0.56776 0.44114 -0.13117
 C1347 C 0.09323 -0.00635 0.31148
 C1348 C 0.11674 -0.01846 0.33850
 C1349 C 0.10286 -0.01876 0.36938
 C1350 C 0.06674 -0.00708 0.37053
 C1351 C 0.06666 0.02683 0.35359
 C1352 C 0.08045 0.02721 0.32288
 C1353 C 0.06379 -0.02903 0.31568
 C1354 C 0.04989 -0.02929 0.34629
 H1355 H 0.14157 -0.02750 0.33381
 H1356 H 0.11599 -0.02763 0.39076
 H1357 H 0.05668 0.04880 0.36491
 H1358 H 0.08228 0.04949 0.30802
 H1359 H 0.05553 -0.04491 0.29673
 H1360 H 0.02978 -0.04523 0.35290
 C1361 C 0.18361 1.08427 1.00323
 C1362 C 0.15366 1.10739 1.00918
 C1363 C 0.12475 1.09228 1.01144
 C1364 C 0.12758 1.05535 1.00666
 C1365 C 0.14618 1.05117 0.97365
 C1366 C 0.17566 1.06617 0.97191
 C1367 C 0.18121 1.05801 1.03091
 C1368 C 0.15179 1.04286 1.03275
 H1369 H 0.15515 1.13369 1.01166
 H1370 H 0.10187 1.10560 1.01624
 H1371 H 0.13715 1.03711 0.95361
 H1372 H 0.19189 1.06497 0.95048
 H1373 H 0.20101 1.05182 1.04744
 H1374 H 0.14643 1.02382 1.05093
 C1375 C 0.68407 0.58730 0.50022
 C1376 C 0.65443 0.60965 0.50953
 C1377 C 0.62552 0.59438 0.51121
 C1378 C 0.62818 0.55816 0.50284
 C1379 C 0.64545 0.55718 0.46889
 C1380 C 0.67485 0.57232 0.46755
 C1381 C 0.68276 0.55858 0.52533
 C1382 C 0.65344 0.54331 0.52675
 H1383 H 0.65615 0.63550 0.51461
 H1384 H 0.60275 0.60707 0.51794
 H1385 H 0.63563 0.54514 0.44792
 H1386 H 0.69023 0.57324 0.44548
 H1387 H 0.70316 0.55092 0.54054
 H1388 H 0.64883 0.52267 0.54330
 C1389 C 0.69143 0.41007 -0.00208
 C1390 C 0.68421 0.42672 -0.03356
 C1391 C 0.65217 0.44173 -0.03447
 C1392 C 0.63354 0.43792 -0.00365
 C1393 C 0.63271 0.40276 0.00290
 C1394 C 0.66410 0.38763 0.00397
 C1395 C 0.68646 0.43551 0.02240
 C1396 C 0.65440 0.45085 0.02152
 H1397 H 0.70144 0.42821 -0.05422
 H1398 H 0.64320 0.45503 -0.05595
 H1399 H 0.61068 0.38850 0.00580
 H1400 H 0.66694 0.36142 0.00846
 H1401 H 0.70502 0.44259 0.03936
 H1402 H 0.64681 0.47037 0.03784
 C1403 C 0.18931 -0.08355 0.49779
 C1404 C 0.16157 -0.10872 0.49994
 C1405 C 0.13109 -0.09567 0.49764
 C1406 C 0.13034 -0.05837 0.49389
 C1407 C 0.14971 -0.04625 0.52313
 C1408 C 0.18069 -0.05944 0.52515
 C1409 C 0.18316 -0.06389 0.46571
 C1410 C 0.15223 -0.05094 0.46358
 H1411 H 0.16569 -0.13495 0.50281
 H1412 H 0.10959 -0.11081 0.49819
 H1413 H 0.13993 -0.02867 0.54057
 H1414 H 0.19745 -0.05318 0.54420
 H1415 H 0.20169 -0.06023 0.44653
 H1416 H 0.14434 -0.03628 0.44257
 C1417 C 0.31730 -0.08618 0.49931
 C1418 C 0.34541 -0.10714 0.48439
 C1419 C 0.37571 -0.09444 0.48769
 C1420 C 0.37557 -0.06146 0.50540
 C1421 C 0.35166 -0.03955 0.48565
 C1422 C 0.32141 -0.05239 0.48236
 C1423 C 0.32724 -0.08120 0.53504
 C1424 C 0.35754 -0.06829 0.53821
 H1425 H 0.34189 -0.12943 0.47112
 H1426 H 0.39759 -0.10646 0.47765
 H1427 H 0.35825 -0.01624 0.47440
 H1428 H 0.30263 -0.04003 0.46794
 H1429 H 0.31174 -0.08735 0.55612
 H1430 H 0.36778 -0.06353 0.56194
 C1431 C -0.18403 0.40465 0.99414
 C1432 C -0.15726 0.38444 0.98032
 C1433 C -0.12553 0.39837 0.98319
 C1434 C -0.12629 0.43028 0.99902
 C1435 C -0.14916 0.45038 0.97969
 C1436 C -0.18080 0.43629 0.97681
 C1437 C -0.17468 0.41058 1.02792
 C1438 C -0.14299 0.42464 1.03059
 H1439 H -0.16070 0.36261 0.96625
 H1440 H -0.10372 0.38691 0.97238
 H1441 H -0.14247 0.47279 0.96667
 H1442 H -0.19908 0.44706 0.96063
 H1443 H -0.18997 0.40504 1.04931
 H1444 H -0.13262 0.43028 1.05404
 C1445 C -0.18990 0.59274 0.49235
 C1446 C -0.18579 0.56305 0.46996
 C1447 C -0.15545 0.54871 0.47038
 C1448 C -0.13139 0.56543 0.49288
 C1449 C -0.13183 0.60137 0.48074
 C1450 C -0.16245 0.61566 0.48040
 C1451 C -0.17924 0.58020 0.52637
 C1452 C -0.14876 0.56599 0.52665
 H1453 H -0.20455 0.55493 0.45376
 H1454 H -0.14888 0.52835 0.45474
 H1455 H -0.11011 0.61412 0.47218
 H1456 H -0.16667 0.64042 0.47108
 H1457 H -0.19441 0.58251 0.54847
 H1458 H -0.13792 0.55612 0.54897
 C1459 C 0.31022 1.09195 0.00001
 C1460 C 0.33676 1.11458 0.01235
 C1461 C 0.36763 1.10107 0.01143
 C1462 C 0.36940 1.06591 -0.00143
 C1463 C 0.34499 1.04713 0.02064
 C1464 C 0.31426 1.06072 0.02156
 C1465 C 0.32250 1.08197 -0.03437
 C1466 C 0.35335 1.06843 -0.03514
 H1467 H 0.33198 1.13845 0.02264
 H1468 H 0.38856 1.11395 0.02015
 H1469 H 0.35156 1.02541 0.03508
 H1470 H 0.29484 1.05062 0.03706
 H1471 H 0.30813 1.08532 -0.05630
 H1472 H 0.36528 1.06034 -0.05771
 C1473 C 0.00259 1.18277 1.08606
 C1474 C 0.03130 1.17913 1.06101
 C1475 C 0.03302 1.14953 1.04630
 C1476 C 0.00580 1.12634 1.05792
 C1477 C 0.00878 1.12398 1.09527
 C1478 C 0.00662 1.15313 1.10994
 C1479 C -0.02804 1.17544 1.06658
 C1480 C -0.02642 1.14576 1.05197
 H1481 H 0.04859 1.19830 1.05525
 H1482 H 0.05184 1.14340 1.02808
 H1483 H 0.01233 1.10126 1.10919
 H1484 H 0.00792 1.15500 1.13641
 H1485 H -0.04894 1.19217 1.06424
 H1486 H -0.04602 1.13708 1.03710
 C1487 C 0.50040 0.68672 0.58519
 C1488 C 0.47005 0.67995 0.56503
 C1489 C 0.47147 0.65026 0.55039
 C1490 C 0.50324 0.63032 0.55704
 C1491 C 0.53109 0.65307 0.54607
 C1492 C 0.52954 0.68265 0.56076
 C1493 C 0.50340 0.65698 0.60910
 C1494 C 0.50536 0.62785 0.59444
 H1495 H 0.44949 0.69705 0.56230
 H1496 H 0.45205 0.64191 0.53510
 H1497 H 0.55025 0.64664 0.52831
 H1498 H 0.54727 0.70152 0.55540
 H1499 H 0.50413 0.65876 0.63562
 H1500 H 0.50819 0.60507 0.60843
 C1501 C -0.00385 0.68800 0.41211
 C1502 C 0.02800 0.67665 0.42870
 C1503 C 0.02642 0.64609 0.44264
 C1504 C -0.00695 0.62992 0.43894
 C1505 C -0.03226 0.65454 0.45325
 C1506 C -0.03050 0.68499 0.43931
 C1507 C -0.01104 0.66049 0.38800
 C1508 C -0.01301 0.63045 0.40207
 H1509 H 0.04971 0.69140 0.42960
 H1510 H 0.04685 0.63462 0.45547
 H1511 H -0.05002 0.64865 0.47260
 H1512 H -0.04656 0.70510 0.44689
 H1513 H -0.01457 0.66448 0.36187
 H1514 H -0.01847 0.60906 0.38807
 C1515 C 0.49653 1.18700 -0.08501
 C1516 C 0.46694 1.18338 -0.06111
 C1517 C 0.46426 1.15286 -0.04746
 C1518 C 0.49167 1.12889 -0.05861
 C1519 C 0.49018 1.12921 -0.09606
 C1520 C 0.49299 1.15929 -0.10983
 C1521 C 0.52632 1.17647 -0.06471
 C1522 C 0.52380 1.14593 -0.05091
 H1523 H 0.44967 1.20316 -0.05545
 H1524 H 0.44456 1.14648 -0.03030
 H1525 H 0.48686 1.10772 -0.11068
 H1526 H 0.49238 1.16317 -0.13627
 H1527 H 0.54731 1.19172 -0.06129
 H1528 H 0.54277 1.13497 -0.03567
 C1529 C 0.50530 0.31372 -0.08798
 C1530 C 0.52252 0.33932 -0.11029
 C1531 C 0.52433 0.36946 -0.09673
 C1532 C 0.50899 0.37144 -0.06198
 C1533 C 0.47382 0.35958 -0.06549
 C1534 C 0.47191 0.32958 -0.07905
 C1535 C 0.52483 0.31390 -0.05603
 C1536 C 0.52658 0.34385 -0.04242
 H1537 H 0.53358 0.33404 -0.13408
 H1538 H 0.53647 0.38971 -0.10918
 H1539 H 0.45216 0.37367 -0.05796
 H1540 H 0.44866 0.31814 -0.08313
 H1541 H 0.53778 0.29271 -0.04577
 H1542 H 0.54056 0.34759 -0.02053
 C1543 C 0.00622 -0.18552 0.41000
 C1544 C 0.02263 -0.15964 0.38741
 C1545 C 0.02446 -0.12954 0.40106
 C1546 C 0.00991 -0.12790 0.43616
 C1547 C -0.02521 -0.14020 0.43342
 C1548 C -0.02710 -0.17011 0.41977
 C1549 C 0.02651 -0.18526 0.44151
 C1550 C 0.02826 -0.15531 0.45522
 H1551 H 0.03303 -0.16470 0.36329
 H1552 H 0.03606 -0.10907 0.38840
 H1553 H -0.04686 -0.12645 0.44157
 H1554 H -0.05032 -0.18181 0.41623
 H1555 H 0.03996 -0.20634 0.45133
 H1556 H 0.04272 -0.15138 0.47674
 C1557 C 0.50207 -0.18676 0.59182
 C1558 C 0.46762 -0.17247 0.58530
 C1559 C 0.46736 -0.14145 0.57244
 C1560 C 0.50161 -0.12723 0.56714
 C1561 C 0.51763 -0.13056 0.60096
 C1562 C 0.51805 -0.16168 0.61375
 C1563 C 0.52089 -0.18314 0.55876
 C1564 C 0.52051 -0.15216 0.54590
 H1565 H 0.44525 -0.18562 0.59043
 H1566 H 0.44478 -0.12816 0.56671
 H1567 H 0.52883 -0.11057 0.61330
 H1568 H 0.53026 -0.16784 0.63649
 H1569 H 0.53457 -0.20290 0.54703
 H1570 H 0.53345 -0.14578 0.52316
 C1571 C 0.00167 0.30931 1.09092
 C1572 C -0.03296 0.32199 1.08254
 C1573 C -0.03394 0.35265 1.06878
 C1574 C -0.00018 0.36815 1.06449
 C1575 C 0.01443 0.36643 1.09905
 C1576 C 0.01557 0.33570 1.11276
 C1577 C 0.02171 0.31278 1.05856
 C1578 C 0.02060 0.34338 1.04477
 H1579 H -0.05492 0.30801 1.08701
 H1580 H -0.05672 0.36481 1.06166
 H1581 H 0.02425 0.38723 1.11127
 H1582 H 0.02707 0.33079 1.13612
 H1583 H 0.03650 0.29316 1.04790
 H1584 H 0.03411 0.34961 1.02233
 C1585 C 0.76515 0.33813 0.06109
 C1586 C 0.79614 0.31637 0.06571
 C1587 C 0.79858 0.30300 0.09697
 C1588 C 0.76983 0.31274 0.12058
 C1589 C 0.76921 0.35018 0.11939
 C1590 C 0.76690 0.36335 0.08866
 C1591 C 0.73684 0.31572 0.07183
 C1592 C 0.73915 0.30292 0.10265
 H1593 H 0.81457 0.31189 0.04666
 H1594 H 0.81905 0.28725 0.10420
 H1595 H 0.77108 0.36522 0.14085
 H1596 H 0.76638 0.38965 0.08436
 H1597 H 0.71677 0.30986 0.05608
 H1598 H 0.72103 0.28640 0.11306
 C1599 C 0.26225 0.84187 0.56380
 C1600 C 0.23391 0.81974 0.57488
 C1601 C 0.23665 0.80686 0.60560
 C1602 C 0.26776 0.81646 0.62298
 C1603 C 0.29605 0.80656 0.59895
 C1604 C 0.29313 0.81995 0.56783
 C1605 C 0.26456 0.86712 0.59118
 C1606 C 0.26732 0.85392 0.62190
 H1607 H 0.21351 0.81418 0.55945
 H1608 H 0.21854 0.79051 0.61633
 H1609 H 0.31655 0.79066 0.60579
 H1610 H 0.31109 0.81536 0.54836
 H1611 H 0.26423 0.89338 0.58667
 H1612 H 0.26965 0.86888 0.64334
 C1613 C 0.75057 0.66005 0.56526
 C1614 C 0.77726 0.68556 0.56835
 C1615 C 0.77693 0.69975 0.59854
 C1616 C 0.75006 0.68686 0.62255
 C1617 C 0.71800 0.69216 0.60423
 C1618 C 0.71842 0.67872 0.57425
 C1619 C 0.75640 0.63576 0.59406
 C1620 C 0.75592 0.64963 0.62390
 H1621 H 0.79466 0.69206 0.54893
 H1622 H 0.79415 0.71831 0.60480
 H1623 H 0.69693 0.70601 0.61367
 H1624 H 0.69775 0.68149 0.55801
 H1625 H 0.76091 0.60971 0.59109
 H1626 H 0.75977 0.63525 0.64626
 C1627 C 0.24707 0.16135 0.06617
 C1628 C 0.21463 0.17887 0.07645
 C1629 C 0.21469 0.19183 0.10665
 C1630 C 0.24743 0.18727 0.12387
 C1631 C 0.25451 0.15022 0.12446
 C1632 C 0.25454 0.13682 0.09438
 C1633 C 0.27299 0.18767 0.06884
 C1634 C 0.27314 0.20137 0.09924
 H1635 H 0.19341 0.18129 0.06088
 H1636 H 0.19353 0.20491 0.11694
 H1637 H 0.25952 0.13568 0.14647
 H1638 H 0.25983 0.11098 0.09082
 H1639 H 0.28953 0.19505 0.04897
 H1640 H 0.28995 0.22039 0.10527
 C1641 C 0.24904 0.16946 0.94289
 C1642 C 0.21787 0.18713 0.93024
 C1643 C 0.22153 0.20170 0.90029
 C1644 C 0.25616 0.19828 0.88539
 C1645 C 0.27859 0.21171 0.91173
 C1646 C 0.27488 0.19646 0.94205
 C1647 C 0.26020 0.14644 0.91540
 C1648 C 0.26404 0.16136 0.88562
 H1649 H 0.19500 0.18901 0.94430
 H1650 H 0.20177 0.21571 0.88881
 H1651 H 0.29570 0.23127 0.90707
 H1652 H 0.28868 0.20327 0.96316
 H1653 H 0.26526 0.12048 0.91921
 H1654 H 0.27264 0.14809 0.86419
 C1655 C 0.75017 0.67336 0.44303
 C1656 C 0.71969 0.69174 0.42977
 C1657 C 0.72411 0.70563 0.39964
 C1658 C 0.75880 0.70094 0.38517
 C1659 C 0.78135 0.71418 0.41151
 C1660 C 0.77684 0.69954 0.44204
 C1661 C 0.76103 0.64955 0.41609
 C1662 C 0.76562 0.66383 0.38613
 H1663 H 0.69680 0.69476 0.44361
 H1664 H 0.70493 0.72014 0.38777
 H1665 H 0.79914 0.73309 0.40667
 H1666 H 0.79066 0.70618 0.46321
 H1667 H 0.76583 0.62361 0.42051
 H1668 H 0.77445 0.65001 0.36514
 C1669 C 0.25789 0.83657 0.43839
 C1670 C 0.28839 0.81507 0.43079
 C1671 C 0.28717 0.80005 0.40084
 C1672 C 0.25542 0.80790 0.38159
 C1673 C 0.22758 0.79865 0.40570
 C1674 C 0.22907 0.81320 0.43513
 C1675 C 0.25574 0.86012 0.40830
 C1676 C 0.25376 0.84531 0.37913
 H1677 H 0.30895 0.81198 0.44706
 H1678 H 0.30677 0.78407 0.39176
 H1679 H 0.20855 0.78154 0.40052
 H1680 H 0.21142 0.80813 0.45485
 H1681 H 0.25622 0.88658 0.40990
 H1682 H 0.25215 0.85921 0.35616
 C1683 C 0.75857 0.33038 0.94132
 C1684 C 0.72975 0.30737 0.93609
 C1685 C 0.72889 0.29434 0.90591
 C1686 C 0.75740 0.30427 0.88294
 C1687 C 0.75618 0.34174 0.88218
 C1688 C 0.75744 0.35524 0.91216
 C1689 C 0.78907 0.30885 0.93352
 C1690 C 0.78851 0.29522 0.90280
 H1691 H 0.71159 0.30136 0.95505
 H1692 H 0.70983 0.27773 0.89945
 H1693 H 0.75541 0.35663 0.85979
 H1694 H 0.75811 0.38156 0.91494
 H1695 H 0.80917 0.30466 0.95018
 H1696 H 0.80820 0.27944 0.89354
 C1697 C 0.83331 0.43881 0.25298
 C1698 C 0.81063 0.43301 0.22400
 C1699 C 0.79806 0.40275 0.22343
 C1700 C 0.80822 0.38049 0.25240
 C1701 C 0.84576 0.38013 0.25137
 C1702 C 0.85876 0.41023 0.25226
 C1703 C 0.81180 0.43121 0.28347
 C1704 C 0.79863 0.40047 0.28322
 H1705 H 0.80463 0.45161 0.20550
 H1706 H 0.78179 0.39568 0.20425
 H1707 H 0.86101 0.35802 0.25081
 H1708 H 0.88507 0.41353 0.25284
 H1709 H 0.80736 0.44806 0.30333
 H1710 H 0.78289 0.39124 0.30298
 C1711 C 0.33471 0.93825 0.75764
 C1712 C 0.35955 0.90918 0.75800
 C1713 C 0.34599 0.87938 0.75665
 C1714 C 0.30843 0.88048 0.75609
 C1715 C 0.29798 0.90076 0.78645
 C1716 C 0.31179 0.93118 0.78723
 C1717 C 0.31315 0.93282 0.72769
 C1718 C 0.29998 0.90282 0.72665
 H1719 H 0.38587 0.91195 0.75957
 H1720 H 0.36084 0.85699 0.75669
 H1721 H 0.28122 0.89195 0.80555
 H1722 H 0.30687 0.94818 0.80687
 H1723 H 0.30831 0.95147 0.70890
 H1724 H 0.28437 0.89601 0.70682
 C1725 C 0.17195 0.94383 0.25063
 C1726 C 0.19801 0.94194 0.27750
 C1727 C 0.21193 0.91115 0.28183
 C1728 C 0.19821 0.88542 0.25892
 C1729 C 0.16100 0.88719 0.26546
 C1730 C 0.14740 0.91744 0.26109
 C1731 C 0.19022 0.93044 0.22010
 C1732 C 0.20342 0.90004 0.22434
 H1733 H 0.20506 0.96269 0.29161
 H1734 H 0.23065 0.90572 0.29977
 H1735 H 0.14661 0.86650 0.27388
 H1736 H 0.12146 0.92242 0.26572
 H1737 H 0.19359 0.94432 0.19729
 H1738 H 0.21770 0.88801 0.20509
 C1739 C 0.67005 0.44077 0.75224
 C1740 C 0.69635 0.43953 0.77892
 C1741 C 0.71119 0.40914 0.78304
 C1742 C 0.69809 0.38310 0.76015
 C1743 C 0.66088 0.38378 0.76692
 C1744 C 0.64637 0.41363 0.76264
 C1745 C 0.68844 0.42800 0.72152
 C1746 C 0.70263 0.39799 0.72558
 H1747 H 0.70302 0.46044 0.79300
 H1748 H 0.73023 0.40421 0.80076
 H1749 H 0.64707 0.36255 0.77492
 H1750 H 0.62021 0.41764 0.76655
 H1751 H 0.69098 0.44195 0.69865
 H1752 H 0.71701 0.38638 0.70614
 C1753 C 0.66370 0.56437 0.74902
 C1754 C 0.68107 0.57538 0.71674
 C1755 C 0.69351 0.60565 0.71727
 C1756 C 0.68873 0.62231 0.75032
 C1757 C 0.65161 0.62218 0.75741
 C1758 C 0.63867 0.59199 0.75692
 C1759 C 0.69007 0.56708 0.77503
 C1760 C 0.70331 0.59761 0.77567
 H1761 H 0.68384 0.56022 0.69526
 H1762 H 0.70642 0.61638 0.69621
 H1763 H 0.63669 0.64378 0.76288
 H1764 H 0.61285 0.58794 0.76218
 H1765 H 0.69782 0.54714 0.79127
 H1766 H 0.72229 0.60365 0.79260
 C1767 C 0.16030 0.06670 0.25079
 C1768 C 0.13589 0.09536 0.25675
 C1769 C 0.14963 0.12517 0.25595
 C1770 C 0.18688 0.12399 0.24973
 C1771 C 0.20019 0.10017 0.27661
 C1772 C 0.18612 0.07001 0.27722
 C1773 C 0.17867 0.07566 0.21838
 C1774 C 0.19198 0.10563 0.21769
 H1775 H 0.10985 0.09230 0.26158
 H1776 H 0.13515 0.14741 0.25981
 H1777 H 0.21893 0.10657 0.29366
 H1778 H 0.19290 0.05074 0.29466
 H1779 H 0.18134 0.05941 0.19774
 H1780 H 0.20562 0.11503 0.19645
 C1781 C 0.34064 0.06315 0.76412
 C1782 C 0.31823 0.06710 0.79472
 C1783 C 0.30442 0.09800 0.79724
 C1784 C 0.31450 0.12183 0.76889
 C1785 C 0.35204 0.12113 0.76906
 C1786 C 0.36562 0.09070 0.76665
 C1787 C 0.31877 0.07378 0.73534
 C1788 C 0.30550 0.10427 0.73770
 H1789 H 0.31372 0.04778 0.81281
 H1790 H 0.28824 0.10486 0.81756
 H1791 H 0.36678 0.14266 0.77147
 H1792 H 0.39198 0.08657 0.76656
 H1793 H 0.31366 0.05820 0.71493
 H1794 H 0.28925 0.11470 0.71928
 C1795 C 0.83927 0.56435 0.25915
 C1796 C 0.81715 0.57611 0.23096
 C1797 C 0.80438 0.60671 0.23435
 C1798 C 0.81411 0.62326 0.26588
 C1799 C 0.80407 0.59885 0.29372
 C1800 C 0.81734 0.56786 0.29016
 C1801 C 0.86475 0.59137 0.26204
 C1802 C 0.85168 0.62194 0.26548
 H1803 H 0.81153 0.56122 0.21019
 H1804 H 0.78804 0.61790 0.21643
 H1805 H 0.78831 0.60540 0.31446
 H1806 H 0.81274 0.54817 0.30781
 H1807 H 0.89105 0.58675 0.26153
 H1808 H 0.86680 0.64314 0.26825
 C1809 C 0.94171 0.25199 0.16855
 C1810 C 0.91434 0.26218 0.14493
 C1811 C 0.88456 0.26677 0.15963
 C1812 C 0.88416 0.26052 0.19695
 C1813 C 0.89904 0.22608 0.20187
 C1814 C 0.92896 0.22171 0.18750
 C1815 C 0.94080 0.27895 0.19452
 C1816 C 0.91045 0.28341 0.20956
 H1817 H 0.91819 0.26586 0.11869
 H1818 H 0.86321 0.27476 0.14592
 H1819 H 0.88750 0.20697 0.21668
 H1820 H 0.94290 0.19891 0.19031
 H1821 H 0.96187 0.29300 0.20081
 H1822 H 0.90573 0.30135 0.22839
 C1823 C 0.44027 0.75541 0.66835
 C1824 C 0.41272 0.76612 0.64516
 C1825 C 0.38306 0.77029 0.66018
 C1826 C 0.38299 0.76315 0.69735
 C1827 C 0.39797 0.72867 0.70140
 C1828 C 0.42776 0.72471 0.68673
 C1829 C 0.43957 0.78177 0.69493
 C1830 C 0.40932 0.78580 0.71031
 H1831 H 0.41639 0.77060 0.61900
 H1832 H 0.36162 0.77870 0.64683
 H1833 H 0.38662 0.70922 0.71591
 H1834 H 0.44180 0.70190 0.68899
 H1835 H 0.46066 0.79572 0.70133
 H1836 H 0.40469 0.80329 0.72958
 C1837 C 0.43593 0.25800 0.83815
 C1838 C 0.42970 0.28740 0.81481
 C1839 C 0.39971 0.28658 0.79987
 C1840 C 0.37908 0.25638 0.80980
 C1841 C 0.40173 0.22697 0.80227
 C1842 C 0.43128 0.22806 0.81650
 C1843 C 0.40598 0.25864 0.86196
 C1844 C 0.37668 0.25717 0.84736
 H1845 H 0.44690 0.30691 0.81040
 H1846 H 0.39146 0.30550 0.78267
 H1847 H 0.39548 0.20716 0.78645
 H1848 H 0.45013 0.20930 0.81240
 H1849 H 0.40780 0.26054 0.88839
 H1850 H 0.35380 0.25739 0.86150
 C1851 C 0.93539 0.76103 0.33891
 C1852 C 0.92916 0.79036 0.31858
 C1853 C 0.89817 0.78937 0.30167
 C1854 C 0.87990 0.75922 0.30847
 C1855 C 0.90277 0.73269 0.29986
 C1856 C 0.93318 0.73386 0.31621
 C1857 C 0.90628 0.75909 0.36067
 C1858 C 0.87627 0.75724 0.34410
 H1859 H 0.94537 0.81096 0.31642
 H1860 H 0.88946 0.80911 0.28563
 H1861 H 0.89825 0.71426 0.28186
 H1862 H 0.95322 0.71666 0.31090
 H1863 H 0.90681 0.76059 0.38726
 H1864 H 0.85294 0.75601 0.35742
 C1865 C 0.05729 0.75875 0.33343
 C1866 C 0.08264 0.76265 0.36055
 C1867 C 0.11395 0.76639 0.34932
 C1868 C 0.11754 0.76625 0.31184
 C1869 C 0.10227 0.73436 0.30151
 C1870 C 0.07097 0.73061 0.31232
 C1871 C 0.06146 0.78935 0.31123
 C1872 C 0.09314 0.79336 0.29987
 H1873 H 0.07623 0.76326 0.38654
 H1874 H 0.13411 0.77017 0.36564
 H1875 H 0.11475 0.71657 0.28594
 H1876 H 0.05679 0.70973 0.30567
 H1877 H 0.04159 0.80625 0.30492
 H1878 H 0.10016 0.81388 0.28411
 C1879 C 0.56124 0.25703 0.83719
 C1880 C 0.58715 0.26208 0.86348
 C1881 C 0.61824 0.26541 0.85135
 C1882 C 0.62098 0.26368 0.81387
 C1883 C 0.60552 0.23133 0.80533
 C1884 C 0.57448 0.22798 0.81705
 C1885 C 0.56487 0.28669 0.81363
 C1886 C 0.59626 0.29024 0.80136
 H1887 H 0.58127 0.26374 0.88952
 H1888 H 0.63879 0.26986 0.86697
 H1889 H 0.61769 0.21288 0.79030
 H1890 H 0.56019 0.20676 0.81173
 H1891 H 0.54487 0.30335 0.80711
 H1892 H 0.60288 0.31013 0.78460
 C1893 C 0.56369 0.74914 0.66262
 C1894 C 0.56709 0.77522 0.68871
 C1895 C 0.59779 0.77529 0.70176
 C1896 C 0.62190 0.74935 0.68728
 C1897 C 0.60457 0.71685 0.69252
 C1898 C 0.57411 0.71690 0.68029
 C1899 C 0.59137 0.75619 0.63731
 C1900 C 0.62174 0.75609 0.65008
 H1901 H 0.54748 0.79189 0.69640
 H1902 H 0.60435 0.79219 0.72055
 H1903 H 0.61497 0.69576 0.70560
 H1904 H 0.55844 0.69590 0.68339
 H1905 H 0.58725 0.76130 0.61144
 H1906 H 0.64344 0.76087 0.63500
 C1907 C 0.06533 0.24688 0.16282
 C1908 C 0.07567 0.21496 0.18114
 C1909 C 0.10596 0.21527 0.19381
 C1910 C 0.12322 0.24777 0.18827
 C1911 C 0.12351 0.25386 0.15095
 C1912 C 0.09333 0.25361 0.13778
 C1913 C 0.06829 0.27342 0.18852
 C1914 C 0.09879 0.27385 0.20197
 H1915 H 0.06009 0.19391 0.18431
 H1916 H 0.11630 0.19444 0.20736
 H1917 H 0.14539 0.25841 0.13607
 H1918 H 0.08955 0.25820 0.11177
 H1919 H 0.04853 0.29014 0.19569
 H1920 H 0.10500 0.29110 0.22056
 C1921 C -0.08690 0.99825 0.81497
 C1922 C -0.06842 1.02919 0.82323
 C1923 C -0.05333 1.02704 0.85275
 C1924 C -0.05775 0.99402 0.87107
 C1925 C -0.09484 0.98958 0.87386
 C1926 C -0.11004 0.99224 0.84494
 C1927 C -0.06077 0.97043 0.81715
 C1928 C -0.04551 0.96817 0.84657
 H1929 H -0.06703 1.05067 0.80717
 H1930 H -0.03902 1.04676 0.86195
 H1931 H -0.10820 0.98471 0.89675
 H1932 H -0.13643 0.99001 0.84344
 H1933 H -0.05474 0.95407 0.79719
 H1934 H -0.02660 0.94979 0.85176
 C1935 C 0.41261 0.49860 0.31472
 C1936 C 0.42784 0.53082 0.32449
 C1937 C 0.44289 0.52889 0.35399
 C1938 C 0.44164 0.49484 0.37086
 C1939 C 0.40525 0.48678 0.37321
 C1940 C 0.39004 0.48910 0.34420
 C1941 C 0.44123 0.47329 0.31586
 C1942 C 0.45644 0.47128 0.34532
 H1943 H 0.42714 0.55303 0.30941
 H1944 H 0.45509 0.54954 0.36417
 H1945 H 0.39241 0.47977 0.39584
 H1946 H 0.36409 0.48434 0.34231
 H1947 H 0.44884 0.45836 0.29525
 H1948 H 0.47692 0.45450 0.34987
 C1949 C 0.58944 0.00510 0.31408
 C1950 C 0.61433 0.00540 0.34214
 C1951 C 0.60069 0.00813 0.37233
 C1952 C 0.56318 0.00965 0.37245
 C1953 C 0.55423 0.03862 0.34954
 C1954 C 0.56770 0.03612 0.31887
 C1955 C 0.56689 -0.02329 0.32330
 C1956 C 0.55310 -0.02092 0.35401
 H1957 H 0.64076 0.00391 0.33841
 H1958 H 0.61553 0.00934 0.39403
 H1959 H 0.53830 0.05902 0.35659
 H1960 H 0.56317 0.05436 0.29964
 H1961 H 0.56206 -0.04325 0.30715
 H1962 H 0.53642 -0.03898 0.36420
 C1963 C 0.08777 0.50167 0.80867
 C1964 C 0.06348 0.53081 0.81261
 C1965 C 0.04938 0.53263 0.84311
 C1966 C 0.06060 0.50488 0.86668
 C1967 C 0.05358 0.47313 0.84877
 C1968 C 0.06778 0.47148 0.81826
 C1969 C 0.11214 0.50490 0.83687
 C1970 C 0.09796 0.50686 0.86693
 H1971 H 0.05790 0.54843 0.79308
 H1972 H 0.03192 0.55193 0.84974
 H1973 H 0.03850 0.45379 0.85913
 H1974 H 0.06488 0.45084 0.80241
 H1975 H 0.13857 0.50595 0.83334
 H1976 H 0.11222 0.50991 0.88878
 C1977 C 0.09090 0.49427 0.68189
 C1978 C 0.11378 0.47956 0.65516
 C1979 C 0.09966 0.47758 0.62521
 C1980 C 0.06388 0.49025 0.62453
 C1981 C 0.04643 0.47046 0.65202
 C1982 C 0.06060 0.47238 0.68181
 C1983 C 0.07906 0.52725 0.66731
 C1984 C 0.06498 0.52518 0.63751
 H1985 H 0.13840 0.47016 0.65948
 H1986 H 0.11249 0.46710 0.60423
 H1987 H 0.02565 0.45502 0.64823
 H1988 H 0.05190 0.45823 0.70296
 H1989 H 0.08162 0.55038 0.67943
 H1990 H 0.05546 0.54657 0.62427
 C1991 C 0.59097 0.99914 0.18696
 C1992 C 0.61293 0.98210 0.16090
 C1993 C 0.59866 0.97970 0.13106
 C1994 C 0.56362 0.99436 0.12981
 C1995 C 0.54508 0.97673 0.15805
 C1996 C 0.55940 0.97902 0.18771
 C1997 C 0.58103 1.03212 0.17101
 C1998 C 0.56677 1.02965 0.14131
 H1999 H 0.63699 0.97148 0.16565
 H2000 H 0.61079 0.96754 0.11057
 H2001 H 0.52343 0.96232 0.15492
 H2002 H 0.54995 0.96605 0.20930
 H2003 H 0.58495 1.05551 0.18216
 H2004 H 0.55847 1.05099 0.12719
 C2005 C 0.40720 0.50765 0.18834
 C2006 C 0.43674 0.53026 0.18431
 C2007 C 0.45126 0.52994 0.15398
 C2008 C 0.43489 0.50730 0.12986
 C2009 C 0.43459 0.47368 0.14737
 C2010 C 0.42019 0.47387 0.17780
 C2011 C 0.38424 0.51926 0.16067
 C2012 C 0.39875 0.51902 0.13007
 H2013 H 0.44464 0.54646 0.20315
 H2014 H 0.47153 0.54570 0.14743
 H2015 H 0.44477 0.45151 0.13664
 H2016 H 0.41804 0.45184 0.19300
 H2017 H 0.35931 0.52830 0.16472
 H2018 H 0.38601 0.52743 0.10825
 C2019 C -0.09354 0.00113 0.68795
 C2020 C -0.11511 -0.01415 0.66209
 C2021 C -0.10178 -0.01337 0.63107
 C2022 C -0.06781 0.00234 0.62852
 C2023 C -0.07313 0.03628 0.64331
 C2024 C -0.08650 0.03564 0.67426
 C2025 C -0.06059 -0.01788 0.68449
 C2026 C -0.04718 -0.01707 0.65362
 H2027 H -0.13805 -0.02616 0.66758
 H2028 H -0.11391 -0.02404 0.61060
 H2029 H -0.06706 0.05893 0.63044
 H2030 H -0.09162 0.05780 0.68769
 H2031 H -0.04928 -0.03194 0.70429
 H2032 H -0.02443 -0.03003 0.64741
 C2033 C -0.18646 0.91313 0.99875
 C2034 C -0.18484 0.94167 0.97343
 C2035 C -0.15538 0.95670 0.97199
 C2036 C -0.13033 0.94179 0.99609
 C2037 C -0.14771 0.94313 1.02997
 C2038 C -0.17725 0.92826 1.03133
 C2039 C -0.15695 0.89048 0.98971
 C2040 C -0.12793 0.90550 0.98795
 H2041 H -0.20514 0.94938 0.95811
 H2042 H -0.15052 0.97716 0.95531
 H2043 H -0.13786 0.95525 1.05089
 H2044 H -0.19272 0.92763 1.05334
 H2045 H -0.15882 0.86460 0.98483
 H2046 H -0.10525 0.89258 0.98134
 C2047 C 0.31423 0.41548 0.49799
 C2048 C 0.34400 0.39187 0.49314
 C2049 C 0.37311 0.40661 0.49064
 C2050 C 0.37062 0.44374 0.49413
 C2051 C 0.34681 0.45558 0.46743
 C2052 C 0.31721 0.44081 0.46951
 C2053 C 0.32207 0.43451 0.52876
 C2054 C 0.35173 0.44919 0.52680
 H2055 H 0.34225 0.36550 0.49155
 H2056 H 0.39589 0.39288 0.48652
 H2057 H 0.35255 0.47395 0.44867
 H2058 H 0.29764 0.44668 0.45261
 H2059 H 0.30567 0.43650 0.55000
 H2060 H 0.36074 0.46378 0.54645
 C2061 C 0.31301 0.58433 0.00317
 C2062 C 0.34073 0.60886 0.00795
 C2063 C 0.37093 0.59506 0.01051
 C2064 C 0.37145 0.55787 0.00752
 C2065 C 0.34716 0.54569 0.03427
 C2066 C 0.31654 0.55940 0.03187
 C2067 C 0.32393 0.56529 -0.02737
 C2068 C 0.35461 0.55152 -0.02512
 H2069 H 0.33678 0.63514 0.00949
 H2070 H 0.39241 0.60949 0.01454
 H2071 H 0.35337 0.52777 0.05331
 H2072 H 0.29660 0.55306 0.04875
 H2073 H 0.30883 0.56270 -0.04868
 H2074 H 0.36579 0.53714 -0.04464
 C2075 C -0.18953 0.08878 0.50063
 C2076 C -0.16209 0.10991 0.50833
 C2077 C -0.13141 0.09337 0.51015
 C2078 C -0.13285 0.05874 0.50311
 C2079 C -0.15688 0.04549 0.52671
 C2080 C -0.18821 0.06198 0.52531
 C2081 C -0.17957 0.07338 0.46975
 C2082 C -0.14813 0.05702 0.47109
 H2083 H -0.16446 0.13596 0.51283
 H2084 H -0.10939 0.10581 0.51689
 H2085 H -0.15197 0.02532 0.54382
 H2086 H -0.20879 0.05494 0.54108
 H2087 H -0.19463 0.07332 0.44812
 H2088 H -0.13750 0.04374 0.45051
 C2089 C 0.68712 0.09642 0.49276
 C2090 C 0.65928 0.11910 0.47977
 C2091 C 0.62941 0.10461 0.47917
 C2092 C 0.62982 0.06867 0.49137
 C2093 C 0.65642 0.05202 0.46979
 C2094 C 0.68607 0.06655 0.47028
 C2095 C 0.67438 0.08385 0.52637
 C2096 C 0.64466 0.06946 0.52564
 H2097 H 0.66277 0.14379 0.47030
 H2098 H 0.60775 0.11720 0.46973
 H2099 H 0.65202 0.03163 0.45402
 H2100 H 0.70634 0.05850 0.45451
 H2101 H 0.68761 0.08623 0.54899
 H2102 H 0.63268 0.05954 0.54762
 C2103 C 0.18551 0.58784 0.99375
 C2104 C 0.15984 0.61058 0.97706
 C2105 C 0.12957 0.59721 0.97472
 C2106 C 0.12746 0.56218 0.98906
 C2107 C 0.15519 0.54319 0.97099
 C2108 C 0.18527 0.55659 0.97328
 C2109 C 0.16948 0.57801 1.02684
 C2110 C 0.13937 0.56467 1.02442
 H2111 H 0.16516 0.63461 0.96677
 H2112 H 0.10931 0.61004 0.96292
 H2113 H 0.15143 0.52186 0.95630
 H2114 H 0.20653 0.54668 0.96012
 H2115 H 0.18090 0.58136 1.05029
 H2116 H 0.12521 0.55661 1.04586
 C2117 C 0.18731 0.40881 0.50019
 C2118 C 0.16166 0.38708 0.48483
 C2119 C 0.13055 0.40003 0.48586
 C2120 C 0.12772 0.43381 0.50183
 C2121 C 0.14267 0.42851 0.53579
 C2122 C 0.17373 0.41550 0.53494
 C2123 C 0.18344 0.44170 0.48131
 C2124 C 0.15248 0.45472 0.48231
 H2125 H 0.16737 0.36436 0.47255
 H2126 H 0.11020 0.38778 0.47515
 H2127 H 0.12973 0.43399 0.55861
 H2128 H 0.18729 0.41018 0.55708
 H2129 H 0.20303 0.45323 0.46717
 H2130 H 0.14597 0.47738 0.46940
 C2131 C 0.68729 0.90756 0.00675
 C2132 C 0.66027 0.88443 0.01936
 C2133 C 0.62951 0.89844 0.01955
 C2134 C 0.62850 0.93430 0.00723
 C2135 C 0.65284 0.95137 0.02916
 C2136 C 0.68333 0.93733 0.02904
 C2137 C 0.67586 0.91981 -0.02710
 C2138 C 0.64524 0.93373 -0.02685
 H2139 H 0.66489 0.85976 0.02875
 H2140 H 0.60811 0.88555 0.02865
 H2141 H 0.64636 0.97169 0.04488
 H2142 H 0.70229 0.94568 0.04489
 H2143 H 0.69062 0.91751 -0.04947
 H2144 H 0.63388 0.94338 -0.04899
 C2145 C -0.00243 0.81220 0.91612
 C2146 C 0.02886 0.81986 0.93445
 C2147 C 0.02736 0.84940 0.94939
 C2148 C -0.00541 0.86830 0.94492
 C2149 C -0.00994 0.87101 0.90783
 C2150 C -0.00788 0.84211 0.89280
 C2151 C -0.03017 0.81504 0.94230
 C2152 C -0.03179 0.84447 0.95737
 H2153 H 0.05007 0.80343 0.93583
 H2154 H 0.04738 0.85826 0.96358
 H2155 H -0.01437 0.89382 0.89430
 H2156 H -0.01015 0.84060 0.86638
 H2157 H -0.04690 0.79549 0.94851
 H2158 H -0.05004 0.85009 0.97633
 C2159 C 0.49735 0.31664 0.41388
 C2160 C 0.52938 0.32684 0.42934
 C2161 C 0.52707 0.35648 0.44387
 C2162 C 0.49286 0.37308 0.44192
 C2163 C 0.48520 0.37477 0.40535
 C2164 C 0.48791 0.34560 0.39066
 C2165 C 0.47165 0.31812 0.44219
 C2166 C 0.46925 0.34774 0.45688
 H2167 H 0.55174 0.31193 0.42917
 H2168 H 0.54756 0.36697 0.45614
 H2169 H 0.47820 0.39706 0.39202
 H2170 H 0.48347 0.34324 0.36466
 H2171 H 0.45674 0.29762 0.45000
 H2172 H 0.45218 0.35254 0.47710
 C2173 C 0.00145 0.31148 0.58454
 C2174 C -0.02900 0.32184 0.56514
 C2175 C -0.02681 0.35220 0.55085
 C2176 C 0.00568 0.36917 0.55719
 C2177 C 0.00847 0.36928 0.59455
 C2178 C 0.00589 0.33942 0.60883
 C2179 C 0.03028 0.31468 0.55962
 C2180 C 0.03260 0.34499 0.54542
 H2181 H -0.05019 0.30663 0.56267
 H2182 H -0.04625 0.36304 0.53612
 H2183 H 0.01237 0.39095 0.60875
 H2184 H 0.00723 0.33588 0.63527
 H2185 H 0.04731 0.29478 0.55371
 H2186 H 0.05175 0.35106 0.52754
 C2187 C 0.49934 0.81082 0.08809
 C2188 C 0.47279 0.81817 0.06270
 C2189 C 0.47440 0.84895 0.04907
 C2190 C 0.50238 0.86933 0.06220
 C2191 C 0.49703 0.86901 0.09951
 C2192 C 0.49523 0.83873 0.11291
 C2193 C 0.53189 0.81766 0.06952
 C2194 C 0.53359 0.84839 0.05630
 H2195 H 0.45459 0.80077 0.05596
 H2196 H 0.45744 0.85794 0.03062
 H2197 H 0.49500 0.89062 0.11446
 H2198 H 0.49138 0.83489 0.13916
 H2199 H 0.55176 0.79973 0.06684
 H2200 H 0.55494 0.85676 0.04246
 C2201 C 0.50139 0.68368 0.09125
 C2202 C 0.46590 0.67381 0.08508
 C2203 C 0.46317 0.64361 0.07198
 C2204 C 0.49616 0.62569 0.06615
 C2205 C 0.51651 0.64952 0.04481
 C2206 C 0.51938 0.67965 0.05788
 C2207 C 0.51566 0.65568 0.11274
 C2208 C 0.51278 0.62550 0.09984
 H2209 H 0.44467 0.68932 0.09053
 H2210 H 0.43968 0.63342 0.06636
 H2211 H 0.52843 0.64296 0.02172
 H2212 H 0.53407 0.69843 0.04597
 H2213 H 0.52827 0.65915 0.13549
 H2214 H 0.52240 0.60367 0.11223
 C2215 C -0.00650 0.18523 0.58725
 C2216 C 0.02684 0.16966 0.57776
 C2217 C 0.02491 0.13984 0.56390
 C2218 C -0.01025 0.12783 0.56067
 C2219 C -0.02521 0.12942 0.59564
 C2220 C -0.02332 0.15939 0.60950
 C2221 C -0.02646 0.18524 0.55547
 C2222 C -0.02821 0.15541 0.54155
 H2223 H 0.05009 0.18117 0.58167
 H2224 H 0.04655 0.12596 0.55593
 H2225 H -0.03712 0.10901 0.60803
 H2226 H -0.03403 0.16438 0.63352
 H2227 H -0.03976 0.20641 0.54564
 H2228 H -0.04247 0.15169 0.51985
 C2229 C 0.50813 0.19046 0.40987
 C2230 C 0.47427 0.17836 0.42110
 C2231 C 0.47478 0.14789 0.43523
 C2232 C 0.50913 0.13190 0.43703
 C2233 C 0.52259 0.13300 0.40144
 C2234 C 0.52213 0.16361 0.38723
 C2235 C 0.52942 0.18715 0.44056
 C2236 C 0.52979 0.15678 0.45480
 H2237 H 0.45169 0.19258 0.41802
 H2238 H 0.45265 0.13615 0.44426
 H2239 H 0.53262 0.11176 0.38891
 H2240 H 0.53215 0.16831 0.36274
 H2241 H 0.54444 0.20648 0.44941
 H2242 H 0.54485 0.15077 0.47581
 C2243 C 0.00004 0.68554 0.90626
 C2244 C 0.03477 0.67327 0.91485
 C2245 C 0.03622 0.64215 0.92750
 C2246 C 0.00280 0.62579 0.93063
 C2247 C -0.01887 0.64949 0.95081
 C2248 C -0.02043 0.68050 0.93811
 C2249 C -0.01282 0.65956 0.88321
 C2250 C -0.01121 0.62839 0.89586
 H2251 H 0.05647 0.68782 0.91125
 H2252 H 0.05912 0.63019 0.93444
 H2253 H -0.03258 0.64224 0.97283
 H2254 H -0.03573 0.69947 0.94926
 H2255 H -0.02394 0.66494 0.85976
 H2256 H -0.02019 0.60778 0.88270
 C2257 C 0.24266 0.66342 0.93994
 C2258 C 0.21292 0.68700 0.93668
 C2259 C 0.20922 0.69969 0.90541
 C2260 C 0.23570 0.68757 0.88038
 C2261 C 0.26822 0.69577 0.89589
 C2262 C 0.27173 0.68362 0.92682
 C2263 C 0.23745 0.63764 0.91362
 C2264 C 0.23397 0.65018 0.88267
 H2265 H 0.19632 0.69324 0.95685
 H2266 H 0.18927 0.71653 0.89908
 H2267 H 0.28668 0.71086 0.88385
 H2268 H 0.29309 0.68865 0.94111
 H2269 H 0.23581 0.61162 0.91914
 H2270 H 0.22938 0.63490 0.86191
 C2271 C 0.74248 0.16892 0.44280
 C2272 C 0.71238 0.19195 0.43847
 C2273 C 0.70884 0.20365 0.40675
 C2274 C 0.73583 0.19133 0.38231
 C2275 C 0.76793 0.20061 0.39799
 C2276 C 0.77125 0.18947 0.42933
 C2277 C 0.73804 0.14235 0.41699
 C2278 C 0.73476 0.15398 0.38569
 H2279 H 0.69550 0.19874 0.45823
 H2280 H 0.68878 0.22006 0.39975
 H2281 H 0.78618 0.21581 0.38577
 H2282 H 0.79227 0.19555 0.44369
 H2283 H 0.73678 0.11640 0.42303
 H2284 H 0.73073 0.13800 0.36534
 C2285 C 0.25049 0.33838 0.43564
 C2286 C 0.22439 0.31227 0.43272
 C2287 C 0.22435 0.29865 0.40225
 C2288 C 0.25035 0.31266 0.37786
 C2289 C 0.24352 0.34974 0.37734
 C2290 C 0.24338 0.36304 0.40746
 C2291 C 0.28285 0.32061 0.42557
 C2292 C 0.28292 0.30780 0.39534
 H2293 H 0.20766 0.30498 0.45246
 H2294 H 0.20745 0.27979 0.39603
 H2295 H 0.23865 0.36439 0.35537
 H2296 H 0.23816 0.38889 0.41107
 H2297 H 0.30390 0.31788 0.44132
 H2298 H 0.30406 0.29456 0.38520
 C2299 C 0.74803 0.84001 0.93370
 C2300 C 0.78036 0.82122 0.92548
 C2301 C 0.78150 0.80775 0.89548
 C2302 C 0.74993 0.81313 0.87639
 C2303 C 0.72246 0.80035 0.89981
 C2304 C 0.72141 0.81459 0.93000
 C2305 C 0.74292 0.86425 0.90471
 C2306 C 0.74419 0.85036 0.87488
 H2307 H 0.80060 0.81840 0.94223
 H2308 H 0.80273 0.79382 0.88655
 H2309 H 0.70535 0.78185 0.89314
 H2310 H 0.70353 0.80819 0.94902
 H2311 H 0.73832 0.89031 0.90753
 H2312 H 0.74097 0.86473 0.85241
 C2313 C 0.74683 0.82838 0.05674
 C2314 C 0.71954 0.80286 0.05857
 C2315 C 0.71497 0.78902 0.08947
 C2316 C 0.73809 0.80230 0.11529
 C2317 C 0.77254 0.79651 0.10060
 C2318 C 0.77701 0.80962 0.07014
 C2319 C 0.73676 0.85302 0.08324
 C2320 C 0.73216 0.83952 0.11357
 H2321 H 0.70532 0.79612 0.03772
 H2322 H 0.69673 0.77068 0.09492
 H2323 H 0.79155 0.78192 0.11265
 H2324 H 0.79974 0.80587 0.05622
 H2325 H 0.73247 0.87895 0.07826
 H2326 H 0.72385 0.85399 0.13430
 C2327 C 0.24713 0.33159 0.55884
 C2328 C 0.22083 0.30501 0.55966
 C2329 C 0.21699 0.28966 0.58993
 C2330 C 0.23975 0.30261 0.61622
 C2331 C 0.27428 0.29873 0.60112
 C2332 C 0.27806 0.31339 0.57126
 C2333 C 0.23646 0.35465 0.58647
 C2334 C 0.23245 0.33965 0.61617
 H2335 H 0.20681 0.29853 0.53858
 H2336 H 0.19957 0.27037 0.59460
 H2337 H 0.29388 0.28436 0.61244
 H2338 H 0.30086 0.31126 0.55712
 H2339 H 0.23199 0.38072 0.58285
 H2340 H 0.22413 0.35294 0.63768
 C2341 C 0.74120 0.16296 0.56250
 C2342 C 0.77219 0.18332 0.56719
 C2343 C 0.77417 0.19719 0.59697
 C2344 C 0.74468 0.19072 0.61987
 C2345 C 0.71457 0.20196 0.59943
 C2346 C 0.71274 0.18737 0.56928
 C2347 C 0.73986 0.13916 0.59245
 C2348 C 0.74234 0.15336 0.62188
 H2349 H 0.79094 0.18694 0.54818
 H2350 H 0.79463 0.21218 0.60322
 H2351 H 0.69639 0.21979 0.60796
 H2352 H 0.69310 0.19279 0.55236
 H2353 H 0.73674 0.11296 0.59060
 H2354 H 0.74181 0.13907 0.64466
 C2355 C 0.24197 0.66027 0.06534
 C2356 C 0.21218 0.68304 0.07184
 C2357 C 0.21309 0.69811 0.10174
 C2358 C 0.24379 0.68896 0.12211
 C2359 C 0.24376 0.65153 0.12473
 C2360 C 0.24219 0.63674 0.09550
 C2361 C 0.27169 0.68235 0.06954
 C2362 C 0.27283 0.69687 0.09903
 H2363 H 0.19231 0.68698 0.05486
 H2364 H 0.19390 0.71496 0.11010
 H2365 H 0.24417 0.63762 0.14775
 H2366 H 0.24080 0.61034 0.09390
 H2367 H 0.29024 0.68650 0.05045
 H2368 H 0.29246 0.71302 0.10501
 C2369 C 0.16464 0.56387 0.73925
 C2370 C 0.18728 0.57133 0.70954
 C2371 C 0.20212 0.60121 0.71127
 C2372 C 0.19288 0.62052 0.74265
 C2373 C 0.15534 0.62281 0.74279
 C2374 C 0.14081 0.59371 0.74029
 C2375 C 0.18691 0.56736 0.76906
 C2376 C 0.20119 0.59678 0.77102
 H2377 H 0.19129 0.55500 0.68917
 H2378 H 0.21887 0.61023 0.69226
 H2379 H 0.14113 0.64557 0.74387
 H2380 H 0.11436 0.59199 0.73875
 H2381 H 0.19143 0.54782 0.78701
 H2382 H 0.21750 0.60223 0.79074
 C2383 C 0.66590 0.06305 0.24318
 C2384 C 0.64296 0.09123 0.24483
 C2385 C 0.65818 0.12184 0.24687
 C2386 C 0.69386 0.11966 0.24526
 C2387 C 0.70315 0.09731 0.27197
 C2388 C 0.68828 0.06631 0.27059
 C2389 C 0.68622 0.06992 0.21393
 C2390 C 0.70174 0.10159 0.21505
 H2391 H 0.61649 0.08958 0.24310
 H2392 H 0.64389 0.14456 0.24799
 H2393 H 0.72079 0.10256 0.29057
 H2394 H 0.69456 0.04652 0.28776
 H2395 H 0.68948 0.05358 0.19348
 H2396 H 0.71771 0.11080 0.19546
 C2397 C 0.83063 0.05690 0.74694
 C2398 C 0.80612 0.05835 0.72102
 C2399 C 0.79104 0.09065 0.71660
 C2400 C 0.80355 0.11482 0.73895
 C2401 C 0.79829 0.10062 0.77169
 C2402 C 0.81265 0.06887 0.77598
 C2403 C 0.85380 0.08241 0.73767
 C2404 C 0.83902 0.11398 0.73315
 H2405 H 0.79857 0.03750 0.70735
 H2406 H 0.77201 0.09598 0.69896
 H2407 H 0.78280 0.11180 0.79059
 H2408 H 0.80823 0.05430 0.79822
 H2409 H 0.87998 0.07814 0.73403
 H2410 H 0.85314 0.13493 0.72488
 C2411 C 0.32665 0.55727 0.24888
 C2412 C 0.30813 0.57008 0.27951
 C2413 C 0.29428 0.60024 0.27550
 C2414 C 0.29914 0.61526 0.24104
 C2415 C 0.33639 0.61424 0.23446
 C2416 C 0.35061 0.58423 0.23861
 C2417 C 0.30053 0.55887 0.22202
 C2418 C 0.28595 0.58943 0.21793
 H2419 H 0.30505 0.55597 0.30222
 H2420 H 0.27976 0.61181 0.29486
 H2421 H 0.35034 0.63523 0.22606
 H2422 H 0.37662 0.57980 0.23388
 H2423 H 0.29391 0.53808 0.20774
 H2424 H 0.26713 0.59462 0.20005
 C2425 C 0.33947 0.43472 0.24785
 C2426 C 0.36404 0.40618 0.24199
 C2427 C 0.35047 0.37628 0.24273
 C2428 C 0.31319 0.37725 0.24882
 C2429 C 0.30788 0.39566 0.28082
 C2430 C 0.32099 0.42569 0.28015
 C2431 C 0.31379 0.43125 0.22129
 C2432 C 0.29987 0.40098 0.22186
 H2433 H 0.39008 0.40936 0.23722
 H2434 H 0.36508 0.35414 0.23883
 H2435 H 0.29419 0.38624 0.30202
 H2436 H 0.31808 0.44196 0.30076
 H2437 H 0.30702 0.45049 0.20381
 H2438 H 0.28125 0.39446 0.20474
 C2439 C 0.83613 0.93572 0.75079
 C2440 C 0.81004 0.93257 0.72460
 C2441 C 0.79649 0.90215 0.72468
 C2442 C 0.81050 0.87795 0.75088
 C2443 C 0.84770 0.87756 0.74419
 C2444 C 0.86093 0.90762 0.74391
 C2445 C 0.81828 0.92572 0.78319
 C2446 C 0.80549 0.89553 0.78337
 H2447 H 0.80274 0.95214 0.70771
 H2448 H 0.77765 0.89583 0.70772
 H2449 H 0.86249 0.85566 0.73959
 H2450 H 0.88685 0.91124 0.73880
 H2451 H 0.81548 0.94149 0.80420
 H2452 H 0.79221 0.88548 0.80453
 C2453 C 0.66501 0.94049 0.24066
 C2454 C 0.68522 0.92653 0.26941
 C2455 C 0.69670 0.89561 0.26534
 C2456 C 0.68790 0.88089 0.23259
 C2457 C 0.65046 0.88394 0.23111
 C2458 C 0.63856 0.91495 0.23515
 C2459 C 0.68837 0.93730 0.21068
 C2460 C 0.70042 0.90595 0.20639
 H2461 H 0.69075 0.94029 0.29099
 H2462 H 0.71175 0.88304 0.28355
 H2463 H 0.63471 0.86367 0.22624
 H2464 H 0.61258 0.92107 0.23369
 H2465 H 0.69490 0.95753 0.19435
 H2466 H 0.71700 0.89960 0.18621
 C2467 C 0.16527 0.43843 0.73771
 C2468 C 0.18601 0.42511 0.76633
 C2469 C 0.19711 0.39398 0.76289
 C2470 C 0.18741 0.37844 0.73082
 C2471 C 0.14997 0.38171 0.73013
 C2472 C 0.13844 0.41293 0.73350
 C2473 C 0.18790 0.43426 0.70733
 C2474 C 0.19956 0.40269 0.70366
 H2475 H 0.19214 0.43941 0.78737
 H2476 H 0.21242 0.38177 0.78110
 H2477 H 0.13391 0.36146 0.72617
 H2478 H 0.11247 0.41920 0.73239
 H2479 H 0.19428 0.45401 0.69035
 H2480 H 0.21570 0.39567 0.68337
 C2481 C 0.05706 0.74695 0.83034
 C2482 C 0.08437 0.73606 0.85375
 C2483 C 0.11423 0.73223 0.83907
 C2484 C 0.11473 0.73987 0.80198
 C2485 C 0.08867 0.71730 0.78837
 C2486 C 0.05824 0.72099 0.80340
 C2487 C 0.06966 0.77797 0.81256
 C2488 C 0.09969 0.77435 0.79823
 H2489 H 0.08044 0.73142 0.87984
 H2490 H 0.13556 0.72389 0.85266
 H2491 H 0.09362 0.70009 0.76890
 H2492 H 0.03730 0.70705 0.79650
 H2493 H 0.05554 0.80074 0.81048
 H2494 H 0.11117 0.79403 0.78419
 C2495 C 0.55708 0.25007 0.32907
 C2496 C 0.55842 0.22323 0.30302
 C2497 C 0.58899 0.21882 0.28847
 C2498 C 0.61508 0.24164 0.30162
 C2499 C 0.60033 0.27611 0.29661
 C2500 C 0.57014 0.28042 0.31045
 C2501 C 0.58402 0.23968 0.35314
 C2502 C 0.61405 0.23521 0.33893
 H2503 H 0.53744 0.20921 0.29637
 H2504 H 0.59402 0.20093 0.26965
 H2505 H 0.61209 0.29522 0.28198
 H2506 H 0.55617 0.30316 0.30726
 H2507 H 0.57955 0.23517 0.37921
 H2508 H 0.63508 0.22679 0.35294
 C2509 C 0.56087 0.74422 0.16738
 C2510 C 0.56937 0.71410 0.18898
 C2511 C 0.60000 0.71545 0.20250
 C2512 C 0.61898 0.74690 0.19315
 C2513 C 0.61965 0.74796 0.15556
 C2514 C 0.58973 0.74593 0.14223
 C2515 C 0.56540 0.77332 0.19018
 C2516 C 0.59554 0.77494 0.20314
 H2517 H 0.55319 0.69370 0.19322
 H2518 H 0.60980 0.69608 0.21834
 H2519 H 0.64191 0.74930 0.14052
 H2520 H 0.58676 0.74516 0.11584
 H2521 H 0.54604 0.79109 0.19599
 H2522 H 0.60173 0.79426 0.21958
 C2523 C 0.06384 0.24198 0.66120
 C2524 C 0.07113 0.21233 0.68387
 C2525 C 0.10084 0.21407 0.69915
 C2526 C 0.12023 0.24540 0.69028
 C2527 C 0.12304 0.24566 0.65272
 C2528 C 0.09406 0.24319 0.63774
 C2529 C 0.06697 0.27164 0.68364
 C2530 C 0.09628 0.27361 0.69836
 H2531 H 0.05479 0.19198 0.68759
 H2532 H 0.10971 0.19509 0.71598
 H2533 H 0.14605 0.24685 0.63886
 H2534 H 0.09267 0.24179 0.61122
 H2535 H 0.04729 0.28950 0.68789
 H2536 H 0.10152 0.29324 0.71479
 C2537 C 0.93885 0.24049 0.66359
 C2538 C 0.91268 0.23526 0.63760
 C2539 C 0.88181 0.23131 0.65009
 C2540 C 0.87947 0.23263 0.68763
 C2541 C 0.90473 0.20637 0.69958
 C2542 C 0.93593 0.21054 0.68695
 C2543 C 0.92540 0.26913 0.68415
 C2544 C 0.89457 0.26517 0.69625
 H2545 H 0.91826 0.23392 0.61147
 H2546 H 0.86117 0.22663 0.63467
 H2547 H 0.89860 0.18625 0.71625
 H2548 H 0.95627 0.19415 0.69307
 H2549 H 0.93940 0.29055 0.68946
 H2550 H 0.88233 0.28331 0.71158
 C2551 C 0.43521 0.73657 0.16304
 C2552 C 0.40799 0.73344 0.13771
 C2553 C 0.37744 0.73003 0.15096
 C2554 C 0.37632 0.72985 0.18857
 C2555 C 0.40092 0.70222 0.19870
 C2556 C 0.43192 0.70577 0.18522
 C2557 C 0.42348 0.76472 0.18510
 C2558 C 0.39291 0.76135 0.19804
 H2559 H 0.41245 0.73379 0.11136
 H2560 H 0.35613 0.72705 0.13593
 H2561 H 0.39449 0.68169 0.21470
 H2562 H 0.45178 0.68830 0.18985
 H2563 H 0.43840 0.78546 0.19060
 H2564 H 0.38180 0.77927 0.21439
 C2565 C 0.43478 0.24878 0.34067
 C2566 C 0.42596 0.28074 0.32161
 C2567 C 0.39608 0.28117 0.30795
 C2568 C 0.37767 0.24931 0.31338
 C2569 C 0.40170 0.22232 0.30076
 C2570 C 0.43180 0.22198 0.31522
 C2571 C 0.40585 0.24319 0.36486
 C2572 C 0.37615 0.24372 0.35078
 H2573 H 0.44226 0.30126 0.31871
 H2574 H 0.38682 0.30208 0.29378
 H2575 H 0.39551 0.20503 0.28220
 H2576 H 0.45123 0.20453 0.30897
 H2577 H 0.40864 0.23873 0.39104
 H2578 H 0.35377 0.23997 0.36515
 C2579 C 0.93376 0.75134 0.83794
 C2580 C 0.92441 0.78419 0.82070
 C2581 C 0.89418 0.78524 0.80775
 C2582 C 0.87601 0.75315 0.81210
 C2583 C 0.89978 0.72687 0.79762
 C2584 C 0.93022 0.72589 0.81128
 C2585 C 0.90544 0.74453 0.86256
 C2586 C 0.87536 0.74573 0.84922
 H2587 H 0.94063 0.80483 0.81842
 H2588 H 0.88449 0.80674 0.79481
 H2589 H 0.89317 0.71052 0.77837
 H2590 H 0.94953 0.70885 0.80368
 H2591 H 0.90892 0.73880 0.88842
 H2592 H 0.85331 0.74128 0.86388
   
