data_POSCAR
  _audit_creation_date              2014-09-24
  _audit_creation_method            'ToBaCCo'
  _symmetry_space_group_name_H-M    'P1'
  _symmetry_Int_Tables_number       1
  _symmetry_cell_setting            triclinic
  loop_
  _symmetry_equiv_pos_as_xyz
 x,y,z
_cell_length_a 71.3047
_cell_length_b 70.8569
_cell_length_c 71.3118
_cell_angle_alpha 88.997800
_cell_angle_beta 89.296700
_cell_angle_gamma 89.026200
loop_
  _atom_site_label
  _atom_site_type_symbol
  _atom_site_fract_x
  _atom_site_fract_y
  _atom_site_fract_z
C1 C 0.74070 0.64767 0.97519
 H2 H 0.75398 0.64703 0.96771
 C3 C 0.72558 0.65781 0.96751
 H4 H 0.72744 0.66524 0.95424
 C5 C 0.72203 0.63832 1.00134
 H6 H 0.72049 0.63026 1.01424
 C7 C 0.70659 0.64829 0.99420
 H8 H 0.69334 0.64776 1.00176
 N9 N 0.73867 0.63814 0.99179
 C10 C 0.79479 0.62748 1.01379
 H11 H 0.79393 0.61242 1.01631
 C12 C 0.81096 0.63700 1.01856
 H13 H 0.82245 0.62915 1.02493
 C14 C 0.78047 0.65601 1.00298
 H15 H 0.76849 0.66337 0.99706
 C16 C 0.79640 0.66612 1.00759
 H17 H 0.79661 0.68120 1.00490
 Zn18 Zn 0.75881 0.62260 1.00029
 N19 N 0.78005 0.63700 1.00597
 C20 C 0.78228 0.60493 0.97319
 N21 N 0.76472 0.60556 0.98084
 C22 C 0.75066 0.59515 0.97382
 C23 C 0.75401 0.58352 0.95847
 C24 C 0.78625 0.59346 0.95790
 C25 C 0.74884 0.62026 1.03798
 C26 C 0.74271 0.61206 1.05482
 C27 C 0.74307 0.58179 1.03982
 C28 C 0.74924 0.59066 1.02326
 N29 N 0.75158 0.60962 1.02254
 H30 H 0.79314 0.61369 0.97856
 H31 H 0.73674 0.59616 0.97997
 H32 H 0.74264 0.57538 0.95302
 H33 H 0.80019 0.59356 0.95171
 H34 H 0.75132 0.63527 1.03713
 H35 H 0.74153 0.62128 1.06667
 H36 H 0.74041 0.56688 1.03904
 H37 H 0.75175 0.58239 1.01087
 C38 C 0.81195 0.65658 1.01542
 C39 C 0.70817 0.65805 0.97696
 C40 C 0.73920 0.59243 1.05616
 C41 C 0.77199 0.58268 0.95023
 C42 C 0.73854 0.35213 0.51709
 H43 H 0.75178 0.35182 0.52436
 C44 C 0.72336 0.34198 0.52436
 H45 H 0.72503 0.33390 0.53728
 C46 C 0.71999 0.36395 0.49203
 H47 H 0.71852 0.37285 0.47969
 C48 C 0.70452 0.35405 0.49878
 H49 H 0.69145 0.35514 0.49122
 N50 N 0.73659 0.36289 0.50123
 C51 C 0.79235 0.37345 0.47771
 H52 H 0.79118 0.38862 0.47593
 C53 C 0.80868 0.36398 0.47200
 H54 H 0.81997 0.37197 0.46564
 C55 C 0.77874 0.34467 0.48778
 H56 H 0.76700 0.33722 0.49387
 C57 C 0.79485 0.33459 0.48222
 H58 H 0.79544 0.31943 0.48432
 Zn59 Zn 0.75669 0.37834 0.49312
 N60 N 0.77791 0.36378 0.48567
 C61 C 0.78069 0.39354 0.52015
 N62 N 0.76292 0.39384 0.51343
 C63 C 0.74909 0.40437 0.52169
 C64 C 0.75299 0.41541 0.53718
 C65 C 0.78521 0.40440 0.53553
 C66 C 0.74630 0.38364 0.45594
 C67 C 0.73956 0.39318 0.44007
 C68 C 0.73961 0.42221 0.45734
 C69 C 0.74639 0.41210 0.47291
 N70 N 0.74915 0.39308 0.47206
 H71 H 0.79138 0.38468 0.51382
 H72 H 0.73499 0.40409 0.51628
 H73 H 0.74186 0.42382 0.54348
 H74 H 0.79938 0.40373 0.54082
 H75 H 0.74888 0.36856 0.45558
 H76 H 0.73719 0.38534 0.42745
 H77 H 0.73684 0.43722 0.45847
 H78 H 0.74904 0.41940 0.48575
 C79 C 0.81016 0.34430 0.47435
 C80 C 0.70598 0.34308 0.51529
 C81 C 0.73578 0.41267 0.44074
 C82 C 0.77128 0.41553 0.54426
 C83 C 0.23947 -0.15132 0.01838
 H84 H 0.25278 -0.15148 0.02552
 C85 C 0.22460 -0.16196 0.02556
 H86 H 0.22666 -0.17053 0.03810
 C87 C 0.22053 -0.13960 -0.00643
 H88 H 0.21876 -0.13048 -0.01858
 C89 C 0.20534 -0.15002 0.00022
 H90 H 0.19208 -0.14875 -0.00696
 N91 N 0.23720 -0.14043 0.00264
 C92 C 0.29278 -0.12926 -0.02097
 H93 H 0.29157 -0.11407 -0.02253
 C94 C 0.30908 -0.13862 -0.02692
 H95 H 0.32032 -0.13053 -0.03325
 C96 C 0.27926 -0.15821 -0.01127
 H97 H 0.26754 -0.16578 -0.00527
 C98 C 0.29534 -0.16817 -0.01709
 H99 H 0.29594 -0.18337 -0.01525
 Zn100 Zn 0.25707 -0.12472 -0.00549
 N101 N 0.27839 -0.13907 -0.01309
 C102 C 0.28100 -0.10938 0.02154
 N103 N 0.26323 -0.10919 0.01482
 C104 C 0.24936 -0.09869 0.02304
 C105 C 0.25322 -0.08753 0.03846
 C106 C 0.28548 -0.09842 0.03685
 C107 C 0.24647 -0.11939 -0.04257
 C108 C 0.24000 -0.10983 -0.05854
 C109 C 0.24038 -0.08079 -0.04139
 C110 C 0.24688 -0.09100 -0.02575
 N111 N 0.24937 -0.11000 -0.02650
 H112 H 0.29172 -0.11823 0.01524
 H113 H 0.23526 -0.09905 0.01762
 H114 H 0.24206 -0.07912 0.04470
 H115 H 0.29966 -0.09897 0.04212
 H116 H 0.24908 -0.13447 -0.04293
 H117 H 0.23869 -0.11813 -0.07099
 H118 H 0.23762 -0.06593 -0.03943
 H119 H 0.24954 -0.08371 -0.01290
 C120 C 0.31058 -0.15834 -0.02493
 C121 C 0.20720 -0.16129 0.01650
 C122 C 0.23632 -0.09009 -0.05831
 C123 C 0.27151 -0.08728 0.04551
 C124 C 0.24095 0.14823 0.47713
 H125 H 0.25387 0.14777 0.46901
 C126 C 0.22531 0.15812 0.47019
 H127 H 0.22631 0.16523 0.45666
 C128 C 0.22367 0.13847 0.50408
 H129 H 0.22287 0.13046 0.51706
 C130 C 0.20775 0.14818 0.49769
 H131 H 0.19502 0.14785 0.50612
 N132 N 0.23984 0.13858 0.49375
 C133 C 0.29671 0.12835 0.51394
 H134 H 0.29607 0.11325 0.51633
 C135 C 0.31288 0.13799 0.51847
 H136 H 0.32458 0.13020 0.52453
 C137 C 0.28187 0.15683 0.50374
 H138 H 0.26968 0.16411 0.49814
 C139 C 0.29778 0.16707 0.50813
 H140 H 0.29778 0.18218 0.50561
 Zn141 Zn 0.26049 0.12320 0.50130
 N142 N 0.28171 0.13779 0.50656
 C143 C 0.28343 0.10616 0.47340
 N144 N 0.26603 0.10654 0.48143
 C145 C 0.25190 0.09612 0.47456
 C146 C 0.25503 0.08469 0.45901
 C147 C 0.28719 0.09489 0.45792
 C148 C 0.25204 0.12017 0.53931
 C149 C 0.24618 0.11170 0.55612
 C150 C 0.24547 0.08175 0.54048
 C151 C 0.25141 0.09081 0.52392
 N152 N 0.25412 0.10977 0.52356
 H153 H 0.29434 0.11493 0.47867
 H154 H 0.23810 0.09694 0.48099
 H155 H 0.24362 0.07651 0.45370
 H156 H 0.30101 0.09515 0.45148
 H157 H 0.25455 0.13518 0.53867
 H158 H 0.24442 0.12029 0.56845
 H159 H 0.24269 0.06678 0.54035
 H160 H 0.25342 0.08275 0.51132
 C161 C 0.31359 0.15761 0.51554
 C162 C 0.20833 0.15795 0.48040
 C163 C 0.24246 0.09230 0.55678
 C164 C 0.27287 0.08405 0.45044
 C165 C 0.15163 0.47777 0.23808
 H166 H 0.15230 0.47063 0.25160
 C167 C 0.16169 0.47052 0.22280
 H168 H 0.17034 0.45796 0.22478
 C169 C 0.13917 0.50257 0.21905
 H170 H 0.12995 0.51472 0.21746
 C171 C 0.14897 0.49582 0.20342
 H172 H 0.14717 0.50293 0.18998
 N173 N 0.14063 0.49350 0.23595
 C174 C 0.13094 0.51565 0.29201
 H175 H 0.11581 0.51702 0.29168
 C176 C 0.14061 0.52102 0.30788
 H177 H 0.13280 0.52674 0.31966
 C178 C 0.15942 0.50689 0.27677
 H179 H 0.16668 0.50147 0.26457
 C180 C 0.16968 0.51215 0.29237
 H181 H 0.18480 0.51048 0.29212
 Zn182 Zn 0.12556 0.50119 0.25659
 N183 N 0.14037 0.50847 0.27700
 C184 C 0.11219 0.47267 0.28134
 N185 N 0.11070 0.48032 0.26379
 C186 C 0.09974 0.47237 0.25069
 C187 C 0.08971 0.45606 0.25507
 C188 C 0.10244 0.45641 0.28630
 C189 C 0.11961 0.53861 0.24561
 C190 C 0.10963 0.55481 0.24007
 C191 C 0.08090 0.53741 0.24346
 C192 C 0.09146 0.52151 0.24899
 N193 N 0.11048 0.52232 0.24965
 H194 H 0.12128 0.47887 0.29145
 H195 H 0.09911 0.47851 0.23671
 H196 H 0.08138 0.44969 0.24436
 H197 H 0.10383 0.45057 0.30036
 H198 H 0.13474 0.53888 0.24644
 H199 H 0.11724 0.56747 0.23640
 H200 H 0.06577 0.53652 0.24295
 H201 H 0.08443 0.50855 0.25266
 C202 C 0.16023 0.51916 0.30827
 C203 C 0.16027 0.47947 0.20512
 C204 C 0.09001 0.55431 0.23880
 C205 C 0.09118 0.44776 0.27304
 C206 C -0.14062 0.02319 0.23253
 H207 H -0.13359 0.03303 0.24133
 C208 C -0.15101 0.03003 0.21733
 H209 H -0.15095 0.04507 0.21460
 C210 C -0.14808 -0.00822 0.22540
 H211 H -0.14706 -0.02312 0.22864
 C212 C -0.15858 -0.00204 0.21000
 H213 H -0.16581 -0.01256 0.20217
 N214 N -0.13896 0.00433 0.23605
 C215 C -0.12760 -0.02362 0.28967
 H216 H -0.11258 -0.02570 0.28837
 C217 C -0.13716 -0.03072 0.30537
 H218 H -0.12933 -0.03812 0.31622
 C219 C -0.15590 -0.01097 0.27719
 H220 H -0.16307 -0.00322 0.26614
 C221 C -0.16603 -0.01781 0.29271
 H222 H -0.18107 -0.01546 0.29338
 Zn223 Zn -0.12281 -0.00455 0.25548
 N224 N -0.13703 -0.01389 0.27604
 C225 C -0.10898 0.02122 0.28161
 N226 N -0.10785 0.01573 0.26345
 C227 C -0.09703 0.02519 0.25068
 C228 C -0.08684 0.04085 0.25600
 C229 C -0.09904 0.03678 0.28753
 C230 C -0.11608 -0.04167 0.24458
 C231 C -0.10619 -0.05709 0.23732
 C232 C -0.07864 -0.03783 0.23478
 C233 C -0.08909 -0.02274 0.24212
 N234 N -0.10760 -0.02478 0.24645
 H235 H -0.11783 0.01377 0.29153
 H236 H -0.09670 0.02085 0.23620
 H237 H -0.07866 0.04844 0.24554
 H238 H -0.10010 0.04086 0.30207
 H239 H -0.13060 -0.04321 0.24879
 H240 H -0.11327 -0.07038 0.23592
 H241 H -0.06409 -0.03577 0.23088
 H242 H -0.08238 -0.00941 0.24411
 C243 C -0.15664 -0.02783 0.30707
 C244 C -0.15997 0.01740 0.20535
 C245 C -0.08728 -0.05521 0.23203
 C246 C -0.08791 0.04692 0.27463
 C247 C 0.34757 0.51577 0.73757
 H248 H 0.34658 0.52239 0.75111
 C249 C 0.33718 0.52306 0.72252
 H250 H 0.32796 0.53515 0.72467
 C251 C 0.36112 0.49220 0.71825
 H252 H 0.37086 0.48054 0.71643
 C253 C 0.35100 0.49900 0.70287
 H254 H 0.35310 0.49240 0.68941
 N255 N 0.35924 0.50059 0.73520
 C256 C 0.36982 0.47567 0.79056
 H257 H 0.38498 0.47499 0.78988
 C258 C 0.36039 0.46866 0.80637
 H259 H 0.36844 0.46279 0.81792
 C260 C 0.34104 0.48447 0.77634
 H261 H 0.33356 0.49043 0.76449
 C262 C 0.33101 0.47763 0.79193
 H263 H 0.31583 0.47836 0.79191
 Zn264 Zn 0.37459 0.49248 0.75541
 N265 N 0.36011 0.48355 0.77604
 C266 C 0.38729 0.51999 0.78038
 N267 N 0.38880 0.51344 0.76260
 C268 C 0.39950 0.52240 0.74939
 C269 C 0.40943 0.53850 0.75393
 C270 C 0.39693 0.53603 0.78550
 C271 C 0.38160 0.45584 0.74385
 C272 C 0.39186 0.44044 0.73706
 C273 C 0.42006 0.45869 0.73904
 C274 C 0.40923 0.47379 0.74582
 N275 N 0.39030 0.47223 0.74767
 H276 H 0.37840 0.51299 0.79059
 H277 H 0.40013 0.51713 0.73524
 H278 H 0.41768 0.54559 0.74318
 H279 H 0.39565 0.54091 0.79978
 H280 H 0.36657 0.45490 0.74574
 H281 H 0.38461 0.42759 0.73394
 H282 H 0.43502 0.46037 0.73705
 H283 H 0.41593 0.48681 0.74927
 C284 C 0.34071 0.46961 0.80723
 C285 C 0.33893 0.51472 0.70483
 C286 C 0.41131 0.44185 0.73426
 C287 C 0.40811 0.54556 0.77219
 C288 C 0.65181 0.97616 0.73814
 H289 H 0.65238 0.96885 0.75157
 C290 C 0.66206 0.96917 0.72287
 H291 H 0.67077 0.95664 0.72476
 C292 C 0.63938 1.00113 0.71931
 H293 H 0.63010 1.01324 0.71778
 C294 C 0.64938 0.99465 0.70369
 H295 H 0.64766 1.00192 0.69033
 N296 N 0.64073 0.99185 0.73611
 C297 C 0.63016 1.01328 0.79228
 H298 H 0.61504 1.01463 0.79169
 C299 C 0.63952 1.01862 0.80834
 H300 H 0.63117 1.02461 0.81957
 C301 C 0.65885 1.00492 0.77740
 H302 H 0.66632 0.99957 0.76528
 C303 C 0.66886 1.01018 0.79317
 H304 H 0.68391 1.00807 0.79284
 Zn305 Zn 0.62536 0.99920 0.75665
 N306 N 0.63983 1.00631 0.77736
 C307 C 0.61176 0.97037 0.78089
 N308 N 0.61047 0.97821 0.76340
 C309 C 0.59969 0.97040 0.75007
 C310 C 0.58961 0.95405 0.75415
 C311 C 0.60196 0.95406 0.78555
 C312 C 0.61948 1.03672 0.74612
 C313 C 0.60957 1.05297 0.74058
 C314 C 0.58083 1.03547 0.74314
 C315 C 0.59132 1.01953 0.74869
 N316 N 0.61032 1.02037 0.74976
 H317 H 0.62070 0.97647 0.79118
 H318 H 0.59922 0.97669 0.73615
 H319 H 0.58141 0.94779 0.74327
 H320 H 0.60316 0.94807 0.79956
 H321 H 0.63459 1.03701 0.74726
 H322 H 0.61722 1.06568 0.73722
 H323 H 0.56573 1.03456 0.74229
 H324 H 0.58426 1.00651 0.75205
 C325 C 0.65927 1.01704 0.80921
 C326 C 0.66076 0.97835 0.70529
 C327 C 0.58999 1.05244 0.73888
 C328 C 0.59085 0.94556 0.77205
 C329 C 0.01604 0.23769 -0.14891
 H330 H 0.02291 0.25118 -0.14965
 C331 C 0.02331 0.22248 -0.15906
 H332 H 0.03562 0.22448 -0.16786
 C333 C -0.00815 0.21864 -0.13622
 H334 H -0.02008 0.21699 -0.12691
 C335 C -0.00138 0.20308 -0.14613
 H336 H -0.00825 0.18966 -0.14429
 N337 N 0.00058 0.23553 -0.13777
 C338 C -0.02304 0.29182 -0.12817
 H339 H -0.02413 0.29118 -0.11303
 C340 C -0.02928 0.30791 -0.13792
 H341 H -0.03535 0.31956 -0.13016
 C342 C -0.01425 0.27709 -0.15661
 H343 H -0.00850 0.26498 -0.16382
 C344 C -0.02037 0.29293 -0.16695
 H345 H -0.01901 0.29295 -0.18209
 Zn346 Zn -0.00743 0.25598 -0.12272
 N347 N -0.01548 0.27693 -0.13755
 C348 C 0.02021 0.28043 -0.10941
 N349 N 0.01322 0.26273 -0.10794
 C350 C 0.02158 0.24923 -0.09694
 C351 C 0.03753 0.25340 -0.08670
 C352 C 0.03613 0.28518 -0.09947
 C353 C -0.04426 0.24532 -0.11668
 C354 C -0.06005 0.23906 -0.10687
 C355 C -0.04258 0.24046 -0.07818
 C356 C -0.02711 0.24675 -0.08864
 N357 N -0.02810 0.24862 -0.10757
 H358 H 0.01370 0.29086 -0.11854
 H359 H 0.01598 0.23514 -0.09634
 H360 H 0.04417 0.24241 -0.07824
 H361 H 0.04139 0.29940 -0.10075
 H362 H -0.04481 0.24745 -0.13172
 H363 H -0.07259 0.23743 -0.11497
 H364 H -0.04043 0.23819 -0.06336
 H365 H -0.01420 0.24974 -0.08160
 C366 C -0.02790 0.30867 -0.15758
 C367 C 0.01465 0.20483 -0.15762
 C368 C -0.05956 0.23598 -0.08716
 C369 C 0.04508 0.27156 -0.08802
 C370 C 0.47544 0.23836 0.14853
 H371 H 0.46788 0.25172 0.14817
 C372 C 0.46812 0.22304 0.15867
 H373 H 0.45486 0.22474 0.16606
 C374 C 0.50128 0.21960 0.13829
 H375 H 0.51395 0.21810 0.12997
 C376 C 0.49451 0.20398 0.14823
 H377 H 0.50235 0.19077 0.14778
 N378 N 0.49168 0.23635 0.13850
 C379 C 0.51417 0.29224 0.12667
 H380 H 0.51594 0.29111 0.11163
 C381 C 0.52004 0.30836 0.13567
 H382 H 0.52611 0.31972 0.12740
 C383 C 0.50394 0.27871 0.15557
 H384 H 0.49789 0.26699 0.16327
 C385 C 0.50960 0.29466 0.16518
 H386 H 0.50790 0.29505 0.18028
 Zn387 Zn 0.49959 0.25656 0.12271
 N388 N 0.50623 0.27787 0.13663
 C389 C 0.47211 0.28067 0.10614
 N390 N 0.47945 0.26283 0.10657
 C391 C 0.47177 0.24884 0.09650
 C392 C 0.45610 0.25259 0.08537
 C393 C 0.45652 0.28504 0.09516
 C394 C 0.53714 0.24620 0.11887
 C395 C 0.55354 0.23985 0.11004
 C396 C 0.53708 0.24010 0.08061
 C397 C 0.52094 0.24649 0.09004
 N398 N 0.52118 0.24901 0.10890
 H399 H 0.47804 0.29149 0.11461
 H400 H 0.47769 0.23470 0.09734
 H401 H 0.45017 0.24129 0.07745
 H402 H 0.45065 0.29923 0.09536
 H403 H 0.53698 0.24861 0.13381
 H404 H 0.56606 0.23757 0.11828
 H405 H 0.53650 0.23757 0.06570
 H406 H 0.50820 0.24912 0.08232
 C407 C 0.51786 0.30971 0.15520
 C408 C 0.47755 0.20546 0.15835
 C409 C 0.55359 0.23642 0.09070
 C410 C 0.44824 0.27089 0.08467
 C411 C 0.97439 0.74030 0.65081
 H412 H 0.96738 0.75395 0.65038
 C413 C 0.96674 0.72552 0.66148
 H414 H 0.95398 0.72801 0.66950
 C415 C 0.99929 0.72035 0.64045
 H416 H 1.01163 0.71817 0.63180
 C417 C 0.99215 0.70522 0.65092
 H418 H 0.99918 0.69158 0.65017
 N419 N 0.99036 0.73747 0.64054
 C420 C 1.01388 0.79272 0.62779
 H421 H 1.01546 0.79145 0.61276
 C422 C 1.02005 0.80886 0.63658
 H423 H 1.02615 0.82008 0.62813
 C424 C 1.00387 0.77957 0.65694
 H425 H 0.99782 0.76798 0.66483
 C426 C 1.00985 0.79553 0.66633
 H427 H 1.00836 0.79605 0.68144
 Zn428 Zn 0.99875 0.75718 0.62440
 N429 N 1.00588 0.77855 0.63799
 C430 C 0.97167 0.78154 0.60749
 N431 N 0.97876 0.76361 0.60815
 C432 C 0.97097 0.74962 0.59818
 C433 C 0.95544 0.75345 0.58689
 C434 C 0.95621 0.78600 0.59635
 C435 C 1.03597 0.74552 0.62074
 C436 C 1.05229 0.73892 0.61190
 C437 C 1.03602 0.74016 0.58236
 C438 C 1.01997 0.74676 0.59180
 N439 N 1.02016 0.74895 0.61071
 H440 H 0.97768 0.79236 0.61590
 H441 H 0.97670 0.73541 0.59920
 H442 H 0.94943 0.74215 0.57903
 H443 H 0.95053 0.80027 0.59635
 H444 H 1.03580 0.74770 0.63572
 H445 H 1.06470 0.73621 0.62017
 H446 H 1.03548 0.73798 0.56739
 H447 H 1.00737 0.74990 0.58403
 C448 C 1.01813 0.81041 0.65611
 C449 C 0.97555 0.70762 0.66146
 C450 C 1.05239 0.73593 0.59248
 C451 C 0.94783 0.77185 0.58593
 C452 C 0.51434 0.73835 0.35141
 H453 H 0.52114 0.75185 0.35015
 C454 C 0.52112 0.72303 0.34112
 H455 H 0.53298 0.72495 0.33169
 C456 C 0.49085 0.71940 0.36556
 H457 H 0.47941 0.71784 0.37549
 C458 C 0.49716 0.70372 0.35554
 H459 H 0.49042 0.69030 0.35791
 N460 N 0.49946 0.73629 0.36334
 C461 C 0.47677 0.79285 0.37338
 H462 H 0.47634 0.79230 0.38855
 C463 C 0.47025 0.80895 0.36383
 H464 H 0.46435 0.82025 0.37214
 C465 C 0.48393 0.77782 0.34477
 H466 H 0.48926 0.76562 0.33741
 C467 C 0.47748 0.79362 0.33459
 H468 H 0.47870 0.79325 0.31948
 Zn469 Zn 0.49226 0.75696 0.37848
 N470 N 0.48368 0.77782 0.36382
 C471 C 0.52073 0.78136 0.39024
 N472 N 0.51362 0.76373 0.39222
 C473 C 0.52224 0.75032 0.40312
 C474 C 0.53851 0.75453 0.41284
 C475 C 0.53696 0.78615 0.39964
 C476 C 0.45568 0.74629 0.38649
 C477 C 0.44029 0.74066 0.39734
 C478 C 0.45912 0.74331 0.42508
 C479 C 0.47417 0.74895 0.41368
 N480 N 0.47227 0.75000 0.39472
 H481 H 0.51399 0.79170 0.38117
 H482 H 0.51653 0.73629 0.40413
 H483 H 0.54530 0.74363 0.42129
 H484 H 0.54226 0.80032 0.39802
 H485 H 0.45452 0.74742 0.37140
 H486 H 0.42738 0.73723 0.39043
 H487 H 0.46088 0.74244 0.44013
 H488 H 0.48734 0.75239 0.42000
 C489 C 0.47057 0.80976 0.34402
 C490 C 0.51260 0.70537 0.34324
 C491 C 0.44194 0.73894 0.41690
 C492 C 0.54611 0.77264 0.41108
 C493 C 0.39035 -0.01259 0.26686
 H494 H 0.39022 0.00064 0.27421
 C495 C 0.40048 -0.02810 0.27401
 H496 H 0.40810 -0.02669 0.28694
 C497 C 0.37961 -0.03075 0.24168
 H498 H 0.37115 -0.03191 0.22933
 C499 C 0.38954 -0.04659 0.24833
 H500 H 0.38890 -0.05964 0.24071
 N501 N 0.38015 -0.01418 0.25099
 C502 C 0.36997 0.04262 0.22826
 H503 H 0.35492 0.04201 0.22664
 C504 C 0.37951 0.05882 0.22265
 H505 H 0.37170 0.07057 0.21652
 C506 C 0.39837 0.02772 0.23779
 H507 H 0.40566 0.01552 0.24362
 C508 C 0.40851 0.04366 0.23233
 H509 H 0.42355 0.04367 0.23425
 Zn510 Zn 0.36484 0.00658 0.24325
 N511 N 0.37942 0.02760 0.23590
 C512 C 0.34947 0.03070 0.27091
 N513 N 0.34915 0.01299 0.26388
 C514 C 0.33873 -0.00076 0.27224
 C515 C 0.32804 0.00309 0.28833
 C516 C 0.33894 0.03518 0.28687
 C517 C 0.36021 -0.00295 0.20600
 C518 C 0.35087 -0.00822 0.18990
 C519 C 0.32166 -0.00704 0.20741
 C520 C 0.33158 -0.00173 0.22321
 N521 N 0.35055 -0.00008 0.22228
 H522 H 0.35823 0.04131 0.26446
 H523 H 0.33897 -0.01482 0.26655
 H524 H 0.31986 -0.00803 0.29485
 H525 H 0.33976 0.04924 0.29247
 H526 H 0.37528 -0.00139 0.20564
 H527 H 0.35892 -0.01092 0.17723
 H528 H 0.30657 -0.00836 0.20838
 H529 H 0.32412 0.00098 0.23618
 C530 C 0.39903 0.05955 0.22477
 C531 C 0.39998 -0.04547 0.26483
 C532 C 0.33134 -0.01046 0.19050
 C533 C 0.32813 0.02126 0.29588
 C534 C 0.09525 1.02439 0.77282
 H535 H 0.09370 1.01072 0.77960
 C536 C 0.08540 1.04008 0.77973
 H537 H 0.07630 1.03836 0.79188
 C538 C 0.10983 1.04341 0.74940
 H539 H 0.11968 1.04482 0.73787
 C540 C 0.10029 1.05941 0.75582
 H541 H 0.10260 1.07286 0.74880
 N542 N 0.10720 1.02631 0.75792
 C543 C 0.11659 0.97081 0.73375
 H544 H 0.13176 0.97089 0.73329
 C545 C 0.10705 0.95566 0.72645
 H546 H 0.11502 0.94399 0.72058
 C547 C 0.08790 0.98597 0.74220
 H548 H 0.08053 0.99794 0.74813
 C549 C 0.07775 0.97100 0.73508
 H550 H 0.06257 0.97159 0.73558
 Zn551 Zn 0.12193 1.00521 0.75032
 N552 N 0.10698 0.98550 0.74152
 C553 C 0.13367 0.97868 0.77801
 N554 N 0.13587 0.99660 0.77130
 C555 C 0.14727 1.00885 0.77996
 C556 C 0.15731 1.00309 0.79584
 C557 C 0.14336 0.97237 0.79384
 C558 C 0.12940 1.01711 0.71379
 C559 C 0.13995 1.02299 0.69825
 C560 C 0.16809 1.01825 0.71640
 C561 C 0.15696 1.01245 0.73165
 N562 N 0.13795 1.01234 0.73017
 H563 H 0.12425 0.96926 0.77123
 H564 H 0.14848 1.02315 0.77456
 H565 H 0.16621 1.01306 0.80264
 H566 H 0.14158 0.95797 0.79880
 H567 H 0.11429 1.01655 0.71291
 H568 H 0.13284 1.02679 0.68536
 H569 H 0.18316 1.01874 0.71795
 H570 H 0.16352 1.00822 0.74466
 C571 C 0.08737 0.95562 0.72701
 C572 C 0.08804 1.05794 0.77132
 C573 C 0.15955 1.02385 0.69949
 C574 C 0.15535 0.98463 0.80300
 C575 C 0.59186 0.52522 0.27156
 H576 H 0.59056 0.51154 0.27838
 C577 C 0.58193 0.54081 0.27859
 H578 H 0.57303 0.53900 0.29087
 C579 C 0.60592 0.54439 0.24794
 H580 H 0.61560 0.54590 0.23628
 C581 C 0.59629 0.56030 0.25447
 H582 H 0.59836 0.57377 0.24742
 N583 N 0.60361 0.52728 0.25652
 C584 C 0.61363 0.47188 0.23231
 H585 H 0.62879 0.47222 0.23169
 C586 C 0.60428 0.45655 0.22513
 H587 H 0.61239 0.44501 0.21919
 C588 C 0.58479 0.48655 0.24105
 H589 H 0.57728 0.49840 0.24706
 C590 C 0.57482 0.47139 0.23407
 H591 H 0.55964 0.47171 0.23473
 Zn592 Zn 0.61857 0.50636 0.24885
 N593 N 0.60386 0.48642 0.24016
 C594 C 0.63085 0.48000 0.27649
 N595 N 0.63273 0.49797 0.26978
 C596 C 0.64395 0.51041 0.27840
 C597 C 0.65413 0.50481 0.29424
 C598 C 0.64070 0.47385 0.29228
 C599 C 0.62584 0.51833 0.21225
 C600 C 0.63634 0.52423 0.19667
 C601 C 0.66452 0.51977 0.21481
 C602 C 0.65344 0.51395 0.23009
 N603 N 0.63444 0.51367 0.22863
 H604 H 0.62157 0.47042 0.26974
 H605 H 0.64490 0.52473 0.27301
 H606 H 0.66288 0.51494 0.30102
 H607 H 0.63917 0.45942 0.29724
 H608 H 0.61073 0.51763 0.21139
 H609 H 0.62918 0.52792 0.18378
 H610 H 0.67958 0.52038 0.21635
 H611 H 0.66006 0.50980 0.24310
 C612 C 0.58461 0.45616 0.22591
 C613 C 0.58428 0.55871 0.27015
 C614 C 0.65593 0.52522 0.19789
 C615 C 0.65251 0.48631 0.30140
 C616 C 0.89104 0.48706 0.76650
 H617 H 0.89084 0.50021 0.77399
 C618 C 0.90131 0.47154 0.77348
 H619 H 0.90895 0.47288 0.78640
 C620 C 0.88035 0.46907 0.74119
 H621 H 0.87185 0.46798 0.72884
 C622 C 0.89040 0.45324 0.74764
 H623 H 0.88983 0.44026 0.73990
 N624 N 0.88079 0.48555 0.75066
 C625 C 0.87005 0.54244 0.72849
 H626 H 0.85501 0.54166 0.72685
 C627 C 0.87937 0.55884 0.72311
 H628 H 0.87142 0.57057 0.71713
 C629 C 0.89862 0.52781 0.73790
 H630 H 0.90606 0.51564 0.74361
 C631 C 0.90855 0.54396 0.73266
 H632 H 0.92358 0.54415 0.73463
 Zn633 Zn 0.86530 0.50626 0.74319
 N634 N 0.87967 0.52746 0.73598
 C635 C 0.84987 0.53002 0.77110
 N636 N 0.84964 0.51237 0.76393
 C637 C 0.83932 0.49849 0.77221
 C638 C 0.82863 0.50216 0.78834
 C639 C 0.83934 0.53432 0.78710
 C640 C 0.86059 0.49709 0.70585
 C641 C 0.85120 0.49204 0.68970
 C642 C 0.82204 0.49291 0.70733
 C643 C 0.83202 0.49801 0.72317
 N644 N 0.85098 0.49972 0.72220
 H645 H 0.85856 0.54074 0.76472
 H646 H 0.83964 0.48447 0.76641
 H647 H 0.82052 0.49095 0.79478
 H648 H 0.84006 0.54835 0.79280
 H649 H 0.87565 0.49870 0.70546
 H650 H 0.85920 0.48954 0.67696
 H651 H 0.80696 0.49157 0.70832
 H652 H 0.82459 0.50054 0.73620
 C653 C 0.89887 0.55982 0.72531
 C654 C 0.90089 0.45426 0.76413
 C655 C 0.83167 0.48977 0.69033
 C656 C 0.82861 0.52028 0.79601
 C657 C 0.26485 0.39279 -0.01371
 H658 H 0.27225 0.39305 -0.00057
 C659 C 0.27184 0.40263 -0.02938
 H660 H 0.28470 0.41040 -0.02817
 C661 C 0.23973 0.38135 -0.03149
 H662 H 0.22747 0.37270 -0.03243
 C663 C 0.24621 0.39096 -0.04746
 H664 H 0.23855 0.38992 -0.06041
 N665 N 0.24910 0.38236 -0.01504
 C666 C 0.22674 0.37292 0.04151
 H667 H 0.22524 0.35777 0.04109
 C668 C 0.22124 0.38267 0.05753
 H669 H 0.21531 0.37492 0.06933
 C670 C 0.23596 0.40138 0.02637
 H671 H 0.24165 0.40859 0.01416
 C672 C 0.23058 0.41174 0.04213
 H673 H 0.23242 0.42687 0.04199
 Zn674 Zn 0.24164 0.36731 0.00588
 N675 N 0.23421 0.38229 0.02647
 C676 C 0.26955 0.35247 0.03016
 N677 N 0.26247 0.35176 0.01257
 C678 C 0.27083 0.34096 -0.00083
 C679 C 0.28693 0.33021 0.00329
 C680 C 0.28552 0.34190 0.03490
 C681 C 0.20440 0.36216 -0.00357
 C682 C 0.18845 0.35253 -0.00878
 C683 C 0.20634 0.32330 -0.00696
 C684 C 0.22198 0.33351 -0.00172
 N685 N 0.22081 0.35263 -0.00046
 H686 H 0.26310 0.36153 0.04049
 H687 H 0.26510 0.34090 -0.01481
 H688 H 0.29341 0.32168 -0.00753
 H689 H 0.29113 0.34299 0.04888
 H690 H 0.20385 0.37736 -0.00230
 H691 H 0.17569 0.36048 -0.01174
 H692 H 0.20751 0.30810 -0.00802
 H693 H 0.23504 0.32616 0.00118
 C694 C 0.22329 0.40233 0.05806
 C695 C 0.26262 0.40158 -0.04662
 C696 C 0.18932 0.33284 -0.01070
 C697 C 0.29448 0.33064 0.02137
 C698 C 0.77233 0.09354 1.02386
 H699 H 0.77979 0.09233 1.01062
 C700 C 0.77889 0.08375 1.03973
 H701 H 0.79146 0.07504 1.03859
 C702 C 0.74751 0.10726 1.04164
 H703 H 0.73556 0.11677 1.04251
 C704 C 0.75355 0.09775 1.05780
 H705 H 0.74584 0.09973 1.07081
 N706 N 0.75692 0.10506 1.02509
 C707 C 0.73580 0.11413 0.96845
 H708 H 0.73483 0.12939 0.96850
 C709 C 0.73021 0.10436 0.95274
 H710 H 0.72473 0.11222 0.94080
 C711 C 0.74369 0.08545 0.98429
 H712 H 0.74886 0.07818 0.99667
 C713 C 0.73816 0.07507 0.96884
 H714 H 0.73933 0.05982 0.96939
 Zn715 Zn 0.74985 0.11982 1.00384
 N716 N 0.74262 0.10464 0.98370
 C717 C 0.77867 0.13202 0.97921
 N718 N 0.77080 0.13442 0.99649
 C719 C 0.77838 0.14632 1.00900
 C720 C 0.79430 0.15667 1.00414
 C721 C 0.79459 0.14198 0.97382
 C722 C 0.71261 0.12614 1.01371
 C723 C 0.69652 0.13617 1.01913
 C724 C 0.71386 0.16507 1.01597
 C725 C 0.72967 0.15445 1.01058
 N726 N 0.72885 0.13530 1.00997
 H727 H 0.77281 0.12216 0.96961
 H728 H 0.77211 0.14765 1.02282
 H729 H 0.80024 0.16598 1.01429
 H730 H 0.80049 0.13999 0.95992
 H731 H 0.71228 0.11092 1.01279
 H732 H 0.68377 0.12856 1.02219
 H733 H 0.71490 0.18025 1.01697
 H734 H 0.74260 0.16151 1.00716
 C735 C 0.73145 0.08457 0.95274
 C736 C 0.76958 0.08598 1.05706
 C737 C 0.69708 0.15588 1.02062
 C738 C 0.80264 0.15447 0.98635
 C739 C 0.27209 0.59559 0.52426
 H740 H 0.27967 0.59455 0.51107
 C741 C 0.27862 0.58575 0.54012
 H742 H 0.29128 0.57716 0.53901
 C743 C 0.24702 0.60895 0.54195
 H744 H 0.23497 0.61833 0.54280
 C745 C 0.25303 0.59938 0.55810
 H746 H 0.24520 0.60120 0.57107
 N747 N 0.25657 0.60695 0.52546
 C748 C 0.23575 0.61637 0.46873
 H749 H 0.23461 0.63161 0.46893
 C750 C 0.23033 0.60669 0.45290
 H751 H 0.22482 0.61461 0.44101
 C752 C 0.24389 0.58762 0.48432
 H753 H 0.24908 0.58028 0.49666
 C754 C 0.23853 0.57733 0.46874
 H755 H 0.23988 0.56209 0.46914
 Zn756 Zn 0.24952 0.62184 0.50428
 N757 N 0.24260 0.60680 0.48392
 C758 C 0.27833 0.63478 0.47998
 N759 N 0.27036 0.63675 0.49728
 C760 C 0.27778 0.64842 0.51009
 C761 C 0.29367 0.65895 0.50555
 C762 C 0.29421 0.64496 0.47490
 C763 C 0.21214 0.62765 0.51388
 C764 C 0.19594 0.63743 0.51940
 C765 C 0.21304 0.66653 0.51692
 C766 C 0.22897 0.65616 0.51142
 N767 N 0.22833 0.63702 0.51043
 H768 H 0.27258 0.62510 0.47013
 H769 H 0.27144 0.64940 0.52390
 H770 H 0.29951 0.66804 0.51596
 H771 H 0.30020 0.64330 0.46098
 H772 H 0.21196 0.61245 0.51267
 H773 H 0.18324 0.62965 0.52223
 H774 H 0.21393 0.68169 0.51824
 H775 H 0.24186 0.66339 0.50825
 C776 C 0.23179 0.58692 0.45270
 C777 C 0.26916 0.58777 0.55739
 C778 C 0.19632 0.65711 0.52129
 C779 C 0.30213 0.65719 0.48776
 C780 C 0.76620 0.89493 0.48549
 H781 H 0.77349 0.89505 0.49870
 C782 C 0.77337 0.90484 0.46995
 H783 H 0.78625 0.91255 0.47133
 C784 C 0.74121 0.88370 0.46739
 H785 H 0.72894 0.87511 0.46627
 C786 C 0.74786 0.89341 0.45155
 H787 H 0.74032 0.89248 0.43852
 N788 N 0.75043 0.88455 0.48393
 C789 C 0.72742 0.87452 0.54013
 H790 H 0.72580 0.85940 0.53944
 C791 C 0.72187 0.88404 0.55626
 H792 H 0.71577 0.87615 0.56788
 C793 C 0.73705 0.90313 0.52555
 H794 H 0.74294 0.91049 0.51352
 C795 C 0.73162 0.91326 0.54145
 H796 H 0.73361 0.92837 0.54159
 Zn797 Zn 0.74276 0.86931 0.50464
 N798 N 0.73513 0.88407 0.52532
 C799 C 0.77033 0.85421 0.52912
 N800 N 0.76350 0.85369 0.51142
 C801 C 0.77204 0.84303 0.49802
 C802 C 0.78806 0.83220 0.50226
 C803 C 0.78621 0.84355 0.53398
 C804 C 0.70561 0.86423 0.49477
 C805 C 0.68972 0.85463 0.48935
 C806 C 0.70763 0.82540 0.49108
 C807 C 0.72321 0.83559 0.49652
 N808 N 0.72200 0.85470 0.49794
 H809 H 0.76376 0.86317 0.53946
 H810 H 0.76651 0.84312 0.48395
 H811 H 0.79468 0.82377 0.49144
 H812 H 0.79161 0.84447 0.54806
 H813 H 0.70502 0.87941 0.49616
 H814 H 0.67697 0.86258 0.48636
 H815 H 0.70883 0.81021 0.48991
 H816 H 0.73626 0.82823 0.49948
 C817 C 0.72412 0.90365 0.55716
 C818 C 0.76431 0.90394 0.45261
 C819 C 0.69063 0.83496 0.48729
 C820 C 0.79533 0.83241 0.52047
 C821 C -0.01011 0.26803 0.39785
 H822 H 0.00337 0.27482 0.39771
 C823 C -0.02505 0.27566 0.40826
 H824 H -0.02286 0.28819 0.41637
 C825 C -0.02938 0.24365 0.38709
 H826 H -0.03121 0.23150 0.37843
 C827 C -0.04467 0.25079 0.39729
 H828 H -0.05809 0.24397 0.39631
 N829 N -0.01251 0.25230 0.38755
 C830 C 0.04285 0.22729 0.37678
 H831 H 0.04177 0.22554 0.36179
 C832 C 0.05907 0.22131 0.38602
 H833 H 0.07035 0.21474 0.37805
 C834 C 0.02917 0.23767 0.40533
 H835 H 0.01746 0.24400 0.41279
 C836 C 0.04516 0.23184 0.41517
 H837 H 0.04569 0.23398 0.43014
 Zn838 Zn 0.00759 0.24376 0.37207
 N839 N 0.02845 0.23558 0.38642
 C840 C 0.03247 0.27046 0.35620
 N841 N 0.01454 0.26420 0.35613
 C842 C 0.00113 0.27309 0.34563
 C843 C 0.00560 0.28887 0.33451
 C844 C 0.03755 0.28606 0.34523
 C845 C -0.00353 0.20669 0.36778
 C846 C -0.00935 0.19068 0.35853
 C847 C -0.00741 0.20813 0.32918
 C848 C -0.00157 0.22385 0.33901
 N849 N -0.00002 0.22291 0.35800
 H850 H 0.04282 0.26364 0.36502
 H851 H -0.01309 0.26801 0.34608
 H852 H -0.00521 0.29578 0.32623
 H853 H 0.05182 0.29101 0.34577
 H854 H -0.00201 0.20632 0.38286
 H855 H -0.01254 0.17806 0.36666
 H856 H -0.00860 0.20910 0.31407
 H857 H 0.00167 0.23675 0.33145
 C858 C 0.06047 0.22372 0.40545
 C859 C -0.04267 0.26710 0.40794
 C860 C -0.01147 0.19129 0.33898
 C861 C 0.02405 0.29553 0.33424
 C862 C 1.02543 0.77167 0.09278
 H863 H 1.01201 0.77878 0.09097
 C864 C 1.04122 0.77810 0.08297
 H865 H 1.03977 0.79001 0.07335
 C866 C 1.04364 0.74773 0.10785
 H867 H 1.04469 0.73625 0.11796
 C868 C 1.05976 0.75368 0.09833
 H869 H 1.07302 0.74662 0.10124
 N870 N 1.02690 0.75673 0.10494
 C871 C 0.97038 0.73536 0.11347
 H872 H 0.97010 0.73507 0.12865
 C873 C 0.95493 0.72924 0.10363
 H874 H 0.94286 0.72405 0.11135
 C875 C 0.98678 0.74206 0.08509
 H876 H 0.99928 0.74697 0.07796
 C877 C 0.97160 0.73598 0.07464
 H878 H 0.97247 0.73650 0.05947
 Zn879 Zn 1.00551 0.74997 0.11940
 N880 N 0.98577 0.74187 0.10416
 C881 C 0.98029 0.77928 0.12985
 N882 N 0.99763 0.77159 0.13284
 C883 C 1.00986 0.77974 0.14461
 C884 C 1.00465 0.79606 0.15425
 C885 C 0.97455 0.79558 0.13911
 C886 C 1.01596 0.71287 0.12770
 C887 C 1.02056 0.69704 0.13869
 C888 C 1.01548 0.71570 0.16639
 C889 C 1.01092 0.73121 0.15483
 N890 N 1.01151 0.72958 0.13585
 H891 H 0.97091 0.77294 0.12010
 H892 H 1.02372 0.77358 0.14643
 H893 H 1.01460 0.80244 0.16347
 H894 H 0.96060 0.80132 0.13669
 H895 H 1.01610 0.71193 0.11257
 H896 H 1.02451 0.68400 0.13188
 H897 H 1.01493 0.71722 0.18147
 H898 H 1.00688 0.74447 0.16106
 C899 C 0.95534 0.72962 0.08394
 C900 C 1.05872 0.76916 0.08580
 C901 C 1.02045 0.69835 0.15832
 C902 C 0.98679 0.80422 0.15148
 C903 C 0.52673 0.27200 0.59411
 H904 H 0.51320 0.27894 0.59248
 C905 C 0.54237 0.27887 0.58436
 H906 H 0.54068 0.29093 0.57498
 C907 C 0.54535 0.24805 0.60865
 H908 H 0.54660 0.23639 0.61853
 C909 C 0.56134 0.25444 0.59918
 H910 H 0.57472 0.24754 0.60190
 N911 N 0.52847 0.25686 0.60597
 C912 C 0.47216 0.23485 0.61416
 H913 H 0.47191 0.23426 0.62933
 C914 C 0.45671 0.22890 0.60421
 H915 H 0.44466 0.22352 0.61185
 C916 C 0.48847 0.24222 0.58588
 H917 H 0.50093 0.24732 0.57883
 C918 C 0.47329 0.23632 0.57533
 H919 H 0.47412 0.23718 0.56017
 Zn920 Zn 0.50719 0.24960 0.62033
 N921 N 0.48750 0.24162 0.60495
 C922 C 0.48176 0.27852 0.63128
 N923 N 0.49913 0.27089 0.63418
 C924 C 0.51129 0.27889 0.64614
 C925 C 0.50595 0.29498 0.65608
 C926 C 0.47589 0.29461 0.64083
 C927 C 0.51812 0.21248 0.62804
 C928 C 0.52271 0.19649 0.63881
 C929 C 0.51703 0.21459 0.66678
 C930 C 0.51250 0.23026 0.65544
 N931 N 0.51337 0.22898 0.63643
 H932 H 0.47245 0.27232 0.62138
 H933 H 0.52518 0.27278 0.64788
 H934 H 0.51582 0.30125 0.66545
 H935 H 0.46191 0.30031 0.63847
 H936 H 0.51846 0.21181 0.61289
 H937 H 0.52687 0.18361 0.63182
 H938 H 0.51621 0.21582 0.68188
 H939 H 0.50821 0.24335 0.66185
 C940 C 0.45707 0.22973 0.58453
 C941 C 0.56002 0.27016 0.58697
 C942 C 0.52227 0.19743 0.65846
 C943 C 0.48804 0.30308 0.65340
 C944 C 0.48886 0.76544 0.89506
 H945 H 0.50239 0.77214 0.89479
 C946 C 0.47411 0.77311 0.90571
 H947 H 0.47650 0.78556 0.91387
 C948 C 0.46927 0.74128 0.88440
 H949 H 0.46724 0.72920 0.87569
 C950 C 0.45417 0.74845 0.89484
 H951 H 0.44068 0.74174 0.89401
 N952 N 0.48622 0.74980 0.88469
 C953 C 0.54125 0.72434 0.87330
 H954 H 0.54000 0.72261 0.85833
 C955 C 0.55755 0.71832 0.88236
 H956 H 0.56874 0.71174 0.87427
 C957 C 0.52793 0.73479 0.90199
 H958 H 0.51633 0.74119 0.90957
 C959 C 0.54402 0.72893 0.91165
 H960 H 0.54473 0.73111 0.92661
 Zn961 Zn 0.50608 0.74120 0.86897
 N962 N 0.52700 0.73272 0.88310
 C963 C 0.53111 0.76777 0.85310
 N964 N 0.51311 0.76173 0.85317
 C965 C 0.49969 0.77088 0.84290
 C966 C 0.50423 0.78672 0.83190
 C967 C 0.53626 0.78343 0.84225
 C968 C 0.49455 0.70429 0.86436
 C969 C 0.48847 0.68846 0.85497
 C970 C 0.49033 0.70627 0.82581
 C971 C 0.49644 0.72178 0.83578
 N972 N 0.49815 0.72059 0.85475
 H973 H 0.54149 0.76074 0.86175
 H974 H 0.48541 0.76597 0.84344
 H975 H 0.49340 0.79385 0.82380
 H976 H 0.55060 0.78821 0.84269
 H977 H 0.49621 0.70371 0.87942
 H978 H 0.48522 0.67579 0.86297
 H979 H 0.48901 0.70744 0.81073
 H980 H 0.49974 0.73474 0.82835
 C981 C 0.55920 0.72078 0.90176
 C982 C 0.45642 0.76467 0.90558
 C983 C 0.48618 0.68935 0.83545
 C984 C 0.52275 0.79317 0.83150
 C985 C 0.45023 -0.14132 0.31469
 C986 C 0.45062 -0.15881 0.30594
 C987 C 0.45750 -0.17489 0.31543
 C988 C 0.46406 -0.17385 0.33404
 C989 C 0.46376 -0.15590 0.34249
 C990 C 0.45692 -0.13990 0.33291
 C991 C 0.44247 -0.12491 0.30525
 C992 C 0.43565 -0.11114 0.29764
 C993 C 0.42711 -0.09475 0.28884
 C994 C 0.40954 -0.09615 0.28051
 C995 C 0.40083 -0.08017 0.27256
 C996 C 0.40958 -0.06251 0.27282
 C997 C 0.42732 -0.06127 0.28111
 C998 C 0.43601 -0.07730 0.28907
 H999 H 0.44532 -0.16010 0.29186
 H1000 H 0.45673 -0.18818 0.30830
 H1001 H 0.46934 -0.15383 0.35631
 H1002 H 0.45683 -0.12637 0.33978
 H1003 H 0.40247 -0.10956 0.28037
 H1004 H 0.38705 -0.08156 0.26658
 H1005 H 0.43449 -0.04793 0.28137
 H1006 H 0.44961 -0.07605 0.29550
 C1007 C 0.95180 0.35814 0.81277
 C1008 C 0.94864 0.34019 0.80567
 C1009 C 0.95549 0.32408 0.81513
 C1010 C 0.96553 0.32574 0.83186
 C1011 C 0.96887 0.34387 0.83872
 C1012 C 0.96204 0.35994 0.82924
 C1013 C 0.94396 0.37466 0.80359
 C1014 C 0.93706 0.38850 0.79617
 C1015 C 0.92839 0.40493 0.78758
 C1016 C 0.91081 0.40350 0.77929
 C1017 C 0.90198 0.41950 0.77152
 C1018 C 0.91062 0.43721 0.77192
 C1019 C 0.92837 0.43848 0.78018
 C1020 C 0.93719 0.42243 0.78796
 H1021 H 0.94065 0.33862 0.79298
 H1022 H 0.95251 0.31032 0.80961
 H1023 H 0.97679 0.34563 0.85141
 H1024 H 0.96458 0.37376 0.83485
 H1025 H 0.90381 0.39005 0.77904
 H1026 H 0.88819 0.41809 0.76557
 H1027 H 0.93546 0.45186 0.78055
 H1028 H 0.95080 0.42369 0.79436
 C1029 C 0.03789 1.15547 0.81590
 C1030 C 0.04974 1.16874 0.82363
 C1031 C 0.04221 1.18496 0.83194
 C1032 C 0.02268 1.18811 0.83265
 C1033 C 0.01089 1.17480 0.82461
 C1034 C 0.01846 1.15859 0.81630
 C1035 C 0.04573 1.13854 0.80789
 C1036 C 0.05261 1.12441 0.80135
 C1037 C 0.06128 1.10771 0.79367
 C1038 C 0.07991 1.10823 0.78734
 C1039 C 0.08856 1.09206 0.78008
 C1040 C 0.07869 1.07508 0.77902
 C1041 C 0.05996 1.07467 0.78545
 C1042 C 0.05131 1.09090 0.79271
 H1043 H 0.06481 1.16644 0.82344
 H1044 H 0.05165 1.19477 0.83823
 H1045 H -0.00418 1.17693 0.82474
 H1046 H 0.00916 1.14844 0.81031
 H1047 H 0.08779 1.12113 0.78812
 H1048 H 0.10309 1.09278 0.77557
 H1049 H 0.05195 1.06187 0.78467
 H1050 H 0.03688 1.09034 0.79759
 C1051 C 0.53477 0.65583 0.31622
 C1052 C 0.54692 0.66927 0.32318
 C1053 C 0.53972 0.68551 0.33169
 C1054 C 0.52022 0.68855 0.33337
 C1055 C 0.50811 0.67505 0.32613
 C1056 C 0.51536 0.65880 0.31761
 C1057 C 0.54233 0.63890 0.30794
 C1058 C 0.54906 0.62482 0.30116
 C1059 C 0.55764 0.60821 0.29319
 C1060 C 0.57613 0.60889 0.28647
 C1061 C 0.58473 0.59281 0.27896
 C1062 C 0.57494 0.57577 0.27804
 C1063 C 0.55635 0.57520 0.28485
 C1064 C 0.54775 0.59135 0.29236
 H1065 H 0.56198 0.66708 0.32223
 H1066 H 0.54941 0.69546 0.33737
 H1067 H 0.49304 0.67708 0.32701
 H1068 H 0.50582 0.64852 0.31222
 H1069 H 0.58395 0.62183 0.28714
 H1070 H 0.59916 0.59364 0.27416
 H1071 H 0.54840 0.56235 0.28419
 H1072 H 0.53343 0.59066 0.29754
 C1073 C 0.53664 0.35955 0.18241
 C1074 C 0.51979 0.35123 0.18816
 C1075 C 0.51374 0.33485 0.17951
 C1076 C 0.52445 0.32667 0.16497
 C1077 C 0.54146 0.33503 0.15950
 C1078 C 0.54748 0.35134 0.16815
 C1079 C 0.54293 0.37660 0.19083
 C1080 C 0.54895 0.39089 0.19725
 C1081 C 0.55708 0.40782 0.20418
 C1082 C 0.55057 0.41590 0.22087
 C1083 C 0.55923 0.43191 0.22780
 C1084 C 0.57456 0.43992 0.21814
 C1085 C 0.58072 0.43189 0.20120
 C1086 C 0.57205 0.41596 0.19431
 H1087 H 0.51129 0.35748 0.19918
 H1088 H 0.50051 0.32882 0.18391
 H1089 H 0.55018 0.32891 0.14858
 H1090 H 0.56058 0.35760 0.16365
 H1091 H 0.53901 0.40969 0.22865
 H1092 H 0.55428 0.43771 0.24095
 H1093 H 0.59229 0.43790 0.19329
 H1094 H 0.57717 0.40987 0.18134
 C1095 C 0.03783 0.86010 0.68291
 C1096 C 0.02097 0.85199 0.68889
 C1097 C 0.01460 0.83569 0.68035
 C1098 C 0.02501 0.82737 0.66567
 C1099 C 0.04203 0.83555 0.65993
 C1100 C 0.04836 0.85179 0.66848
 C1101 C 0.04449 0.87701 0.69131
 C1102 C 0.05077 0.89115 0.69779
 C1103 C 0.05917 0.90789 0.70485
 C1104 C 0.05263 0.91606 0.72148
 C1105 C 0.06152 0.93187 0.72856
 C1106 C 0.07712 0.93959 0.71909
 C1107 C 0.08332 0.93146 0.70221
 C1108 C 0.07442 0.91574 0.69517
 H1109 H 0.01270 0.85833 0.70004
 H1110 H 0.00137 0.82981 0.68495
 H1111 H 0.05053 0.82932 0.64890
 H1112 H 0.06148 0.85789 0.66380
 H1113 H 0.04085 0.91007 0.72911
 H1114 H 0.05653 0.93773 0.74166
 H1115 H 0.09509 0.93727 0.69445
 H1116 H 0.07956 0.90957 0.68225
 C1117 C 0.95106 0.65891 0.68819
 C1118 C 0.93962 0.67255 0.67937
 C1119 C 0.94752 0.68862 0.67110
 C1120 C 0.96703 0.69127 0.67149
 C1121 C 0.97838 0.67766 0.68072
 C1122 C 0.97043 0.66158 0.68900
 C1123 C 0.94295 0.64190 0.69574
 C1124 C 0.93591 0.62761 0.70170
 C1125 C 0.92715 0.61059 0.70841
 C1126 C 0.90994 0.61164 0.71799
 C1127 C 0.90089 0.59514 0.72372
 C1128 C 0.90893 0.57732 0.71990
 C1129 C 0.92639 0.57640 0.71053
 C1130 C 0.93542 0.59294 0.70480
 H1131 H 0.92461 0.67058 0.67859
 H1132 H 0.93844 0.69867 0.66387
 H1133 H 0.99341 0.67939 0.68145
 H1134 H 0.97942 0.65113 0.69581
 H1135 H 0.90341 0.62522 0.72088
 H1136 H 0.88760 0.59633 0.73115
 H1137 H 0.93284 0.56290 0.70722
 H1138 H 0.94870 0.59196 0.69731
 C1139 C 0.45321 0.15642 0.18468
 C1140 C 0.45222 0.17382 0.19368
 C1141 C 0.46024 0.18980 0.18524
 C1142 C 0.46935 0.18853 0.16767
 C1143 C 0.47029 0.17094 0.15880
 C1144 C 0.46229 0.15503 0.16725
 C1145 C 0.44453 0.14002 0.19295
 C1146 C 0.43714 0.12613 0.19941
 C1147 C 0.42809 0.10946 0.20662
 C1148 C 0.41094 0.11103 0.21624
 C1149 C 0.40163 0.09481 0.22239
 C1150 C 0.40936 0.07677 0.21895
 C1151 C 0.42677 0.07534 0.20954
 C1152 C 0.43605 0.09159 0.20339
 H1153 H 0.44520 0.17505 0.20717
 H1154 H 0.45942 0.20309 0.19249
 H1155 H 0.47689 0.16955 0.14513
 H1156 H 0.46302 0.14167 0.16009
 H1157 H 0.40465 0.12479 0.21883
 H1158 H 0.38839 0.09639 0.22984
 H1159 H 0.43298 0.06167 0.20650
 H1160 H 0.44928 0.09021 0.19586
 C1161 C 0.31184 0.44864 -0.14357
 C1162 C 0.30557 0.46530 -0.15248
 C1163 C 0.31482 0.47206 -0.16861
 C1164 C 0.33048 0.46223 -0.17599
 C1165 C 0.33654 0.44541 -0.16699
 C1166 C 0.32728 0.43869 -0.15091
 C1167 C 0.30253 0.44165 -0.12688
 C1168 C 0.29502 0.43538 -0.11293
 C1169 C 0.28632 0.42734 -0.09638
 C1170 C 0.28653 0.43689 -0.07936
 C1171 C 0.27867 0.42864 -0.06317
 C1172 C 0.27049 0.41072 -0.06383
 C1173 C 0.27026 0.40133 -0.08106
 C1174 C 0.27811 0.40959 -0.09719
 H1175 H 0.29363 0.47312 -0.14690
 H1176 H 0.30994 0.48514 -0.17509
 H1177 H 0.34837 0.43737 -0.17248
 H1178 H 0.33219 0.42573 -0.14419
 H1179 H 0.29288 0.45063 -0.07857
 H1180 H 0.27892 0.43629 -0.05017
 H1181 H 0.26438 0.38740 -0.08200
 H1182 H 0.27799 0.40202 -0.11026
 C1183 C 0.81429 0.95125 0.35617
 C1184 C 0.80947 0.96898 0.34851
 C1185 C 0.81876 0.97573 0.33241
 C1186 C 0.83303 0.96484 0.32381
 C1187 C 0.83763 0.94697 0.33155
 C1188 C 0.82832 0.94025 0.34760
 C1189 C 0.80494 0.94425 0.37283
 C1190 C 0.79736 0.93795 0.38673
 C1191 C 0.78855 0.92985 0.40319
 C1192 C 0.78866 0.93930 0.42027
 C1193 C 0.78064 0.93100 0.43635
 C1194 C 0.77239 0.91313 0.43552
 C1195 C 0.77227 0.90383 0.41824
 C1196 C 0.78029 0.91214 0.40222
 H1197 H 0.79863 0.97761 0.35504
 H1198 H 0.81505 0.98962 0.32692
 H1199 H 0.84834 0.93813 0.32510
 H1200 H 0.83210 0.92647 0.35336
 H1201 H 0.79505 0.95302 0.42118
 H1202 H 0.78080 0.93859 0.44939
 H1203 H 0.76635 0.88993 0.41719
 H1204 H 0.78024 0.90464 0.38911
 C1205 C 0.81317 0.03762 1.15575
 C1206 C 0.81967 0.01895 1.15700
 C1207 C 0.82815 0.01215 1.17342
 C1208 C 0.83046 0.02397 1.18902
 C1209 C 0.82339 0.04273 1.18752
 C1210 C 0.81490 0.04942 1.17109
 C1211 C 0.80520 0.04491 1.13859
 C1212 C 0.79871 0.05144 1.12430
 C1213 C 0.79112 0.05981 1.10743
 C1214 C 0.79129 0.04979 1.09068
 C1215 C 0.78425 0.05823 1.07426
 C1216 C 0.77691 0.07679 1.07443
 C1217 C 0.77680 0.08669 1.09137
 C1218 C 0.78384 0.07825 1.10773
 H1219 H 0.81851 0.00970 1.14514
 H1220 H 0.83373 -0.00213 1.17327
 H1221 H 0.82387 0.05231 1.19912
 H1222 H 0.80973 0.06388 1.17033
 H1223 H 0.79691 0.03550 1.09029
 H1224 H 0.78438 0.05018 1.06148
 H1225 H 0.77157 0.10111 1.09192
 H1226 H 0.78375 0.08618 1.12059
 C1227 C 0.31213 0.53808 0.65577
 C1228 C 0.31306 0.51851 0.65864
 C1229 C 0.32141 0.51089 0.67479
 C1230 C 0.32896 0.52279 0.68828
 C1231 C 0.32765 0.54246 0.68541
 C1232 C 0.31930 0.55003 0.66925
 C1233 C 0.30425 0.54594 0.63880
 C1234 C 0.29787 0.55276 0.62459
 C1235 C 0.29042 0.56130 0.60774
 C1236 C 0.29082 0.55144 0.59088
 C1237 C 0.28388 0.55998 0.57447
 C1238 C 0.27642 0.57850 0.57475
 C1239 C 0.27610 0.58825 0.59179
 C1240 C 0.28304 0.57970 0.60814
 H1241 H 0.30751 0.50912 0.64832
 H1242 H 0.32201 0.49570 0.67671
 H1243 H 0.33356 0.55198 0.69538
 H1244 H 0.31870 0.56521 0.66714
 H1245 H 0.29652 0.53719 0.59041
 H1246 H 0.28417 0.55206 0.56163
 H1247 H 0.27077 0.60262 0.59242
 H1248 H 0.28278 0.58750 0.62107
 C1249 C 0.18940 0.53646 0.35733
 C1250 C 0.17280 0.52631 0.35917
 C1251 C 0.16350 0.52042 0.34322
 C1252 C 0.17067 0.52462 0.32518
 C1253 C 0.18757 0.53451 0.32347
 C1254 C 0.19684 0.54043 0.33946
 C1255 C 0.19820 0.54361 0.37375
 C1256 C 0.20516 0.55006 0.38751
 C1257 C 0.21301 0.55837 0.40387
 C1258 C 0.20902 0.55095 0.42177
 C1259 C 0.21553 0.55993 0.43770
 C1260 C 0.22602 0.57652 0.43589
 C1261 C 0.23033 0.58358 0.41780
 C1262 C 0.22385 0.57457 0.40192
 H1263 H 0.16690 0.52318 0.37293
 H1264 H 0.15068 0.51258 0.34500
 H1265 H 0.19333 0.53813 0.30979
 H1266 H 0.20962 0.54838 0.33788
 H1267 H 0.20055 0.53847 0.42344
 H1268 H 0.21183 0.55427 0.45143
 H1269 H 0.23861 0.59616 0.41594
 H1270 H 0.22702 0.58044 0.38813
 C1271 C 0.68788 0.03400 0.85802
 C1272 C 0.66931 0.02816 0.85933
 C1273 C 0.65999 0.02236 0.84337
 C1274 C 0.66903 0.02231 0.82558
 C1275 C 0.68800 0.02789 0.82466
 C1276 C 0.69724 0.03373 0.84070
 C1277 C 0.69695 0.04107 0.87433
 C1278 C 0.70410 0.04749 0.88800
 C1279 C 0.71217 0.05580 0.90424
 C1280 C 0.70815 0.04860 0.92223
 C1281 C 0.71483 0.05764 0.93805
 C1282 C 0.72551 0.07408 0.93604
 C1283 C 0.72985 0.08092 0.91788
 C1284 C 0.72320 0.07185 0.90211
 H1285 H 0.66196 0.02818 0.87272
 H1286 H 0.64583 0.01742 0.84532
 H1287 H 0.69563 0.02877 0.81150
 H1288 H 0.71160 0.03841 0.83950
 H1289 H 0.69952 0.03624 0.92404
 H1290 H 0.71111 0.05215 0.95184
 H1291 H 0.73828 0.09338 0.91588
 H1292 H 0.72639 0.07755 0.88827
 C1293 C 0.68668 0.95555 0.65565
 C1294 C 0.67893 0.94348 0.66931
 C1295 C 0.67085 0.95087 0.68561
 C1296 C 0.67039 0.97047 0.68849
 C1297 C 0.67849 0.98247 0.67480
 C1298 C 0.68657 0.97504 0.65849
 C1299 C 0.69423 0.94785 0.63855
 C1300 C 0.70023 0.94100 0.62428
 C1301 C 0.70707 0.93225 0.60740
 C1302 C 0.71671 0.91492 0.60855
 C1303 C 0.72249 0.90579 0.59221
 C1304 C 0.71869 0.91386 0.57446
 C1305 C 0.70929 0.93147 0.57344
 C1306 C 0.70348 0.94057 0.58983
 H1307 H 0.67888 0.92837 0.66722
 H1308 H 0.66449 0.94127 0.69571
 H1309 H 0.67854 0.99759 0.67670
 H1310 H 0.69256 0.98451 0.64802
 H1311 H 0.71957 0.90835 0.62207
 H1312 H 0.72996 0.89240 0.59347
 H1313 H 0.70601 0.93795 0.55999
 H1314 H 0.69595 0.95395 0.58879
 C1315 C 0.18582 0.45584 0.15568
 C1316 C 0.18578 0.47538 0.15822
 C1317 C 0.17779 0.48308 0.17446
 C1318 C 0.16972 0.47131 0.18836
 C1319 C 0.17008 0.45167 0.18576
 C1320 C 0.17807 0.44401 0.16954
 C1321 C 0.19333 0.44786 0.13870
 C1322 C 0.19932 0.44076 0.12454
 C1323 C 0.20616 0.43173 0.10782
 C1324 C 0.20242 0.43968 0.09011
 C1325 C 0.20825 0.43031 0.07388
 C1326 C 0.21782 0.41281 0.07519
 C1327 C 0.22178 0.40512 0.09306
 C1328 C 0.21596 0.41451 0.10924
 H1329 H 0.19177 0.48467 0.14760
 H1330 H 0.17791 0.49824 0.17613
 H1331 H 0.16374 0.44224 0.19603
 H1332 H 0.17796 0.42887 0.16768
 H1333 H 0.19475 0.45296 0.08885
 H1334 H 0.20484 0.43649 0.06033
 H1335 H 0.22937 0.39182 0.09454
 H1336 H 0.21895 0.40823 0.12287
 C1337 C -0.13936 0.31561 0.45616
 C1338 C -0.13835 0.33271 0.46557
 C1339 C -0.15475 0.34188 0.47172
 C1340 C -0.17242 0.33408 0.46851
 C1341 C -0.17328 0.31671 0.45931
 C1342 C -0.15685 0.30757 0.45315
 C1343 C -0.12249 0.30674 0.44902
 C1344 C -0.10831 0.29963 0.44275
 C1345 C -0.09141 0.29147 0.43488
 C1346 C -0.07812 0.30312 0.42617
 C1347 C -0.06208 0.29523 0.41775
 C1348 C -0.05912 0.27554 0.41791
 C1349 C -0.07242 0.26397 0.42698
 C1350 C -0.08846 0.27190 0.43540
 H1351 H -0.12490 0.33906 0.46799
 H1352 H -0.15360 0.35508 0.47901
 H1353 H -0.18667 0.31045 0.45646
 H1354 H -0.15779 0.29437 0.44580
 H1355 H -0.08030 0.31829 0.42562
 H1356 H -0.05227 0.30450 0.41066
 H1357 H -0.07044 0.24879 0.42753
 H1358 H -0.09864 0.26275 0.44213
 C1359 C 0.36076 0.81320 0.95576
 C1360 C 0.36194 0.83014 0.96543
 C1361 C 0.34564 0.83924 0.97195
 C1362 C 0.32791 0.83152 0.96885
 C1363 C 0.32688 0.81432 0.95937
 C1364 C 0.34322 0.80525 0.95284
 C1365 C 0.37751 0.80438 0.94828
 C1366 C 0.39156 0.79729 0.94172
 C1367 C 0.40828 0.78910 0.93350
 C1368 C 0.42150 0.80074 0.92466
 C1369 C 0.43735 0.79282 0.91591
 C1370 C 0.44018 0.77312 0.91586
 C1371 C 0.42696 0.76156 0.92506
 C1372 C 0.41112 0.76951 0.93381
 H1373 H 0.37544 0.83641 0.96779
 H1374 H 0.34692 0.85231 0.97944
 H1375 H 0.31344 0.80814 0.95658
 H1376 H 0.34214 0.79218 0.94529
 H1377 H 0.41940 0.81592 0.92427
 H1378 H 0.44710 0.80209 0.90873
 H1379 H 0.42885 0.74636 0.92546
 H1380 H 0.40099 0.76037 0.94063
 C1381 C 1.15832 0.81124 0.03897
 C1382 C 1.16200 0.81120 0.01965
 C1383 C 1.17813 0.81973 0.01237
 C1384 C 1.19080 0.82845 0.02433
 C1385 C 1.18717 0.82806 0.04378
 C1386 C 1.17102 0.81953 0.05102
 C1387 C 1.14120 0.80341 0.04636
 C1388 C 1.12674 0.79719 0.05263
 C1389 C 1.10942 0.79010 0.06031
 C1390 C 1.09552 0.80271 0.06665
 C1391 C 1.07890 0.79591 0.07464
 C1392 C 1.07596 0.77637 0.07642
 C1393 C 1.08993 0.76380 0.06977
 C1394 C 1.10655 0.77064 0.06177
 H1395 H 1.15228 0.80480 0.01019
 H1396 H 1.18065 0.81959 -0.00263
 H1397 H 1.19649 0.83486 0.05333
 H1398 H 1.16827 0.81971 0.06600
 H1399 H 1.09762 0.81780 0.06564
 H1400 H 1.06856 0.80594 0.07986
 H1401 H 1.08800 0.74869 0.07074
 H1402 H 1.11719 0.76075 0.05686
 C1403 C 0.65730 0.31585 0.53861
 C1404 C 0.67478 0.30653 0.53900
 C1405 C 0.69066 0.31533 0.53142
 C1406 C 0.68923 0.33355 0.52333
 C1407 C 0.67159 0.34277 0.52308
 C1408 C 0.65577 0.33398 0.53065
 C1409 C 0.64090 0.30707 0.54656
 C1410 C 0.62691 0.30022 0.55323
 C1411 C 0.61000 0.29256 0.56130
 C1412 C 0.60759 0.27302 0.56254
 C1413 C 0.59124 0.26570 0.57067
 C1414 C 0.57708 0.27785 0.57766
 C1415 C 0.57960 0.29748 0.57619
 C1416 C 0.59595 0.30476 0.56807
 H1417 H 0.67612 0.29249 0.54514
 H1418 H 0.70401 0.30781 0.53169
 H1419 H 0.67006 0.35693 0.51728
 H1420 H 0.64235 0.34137 0.53038
 H1421 H 0.61835 0.26345 0.55728
 H1422 H 0.58963 0.25053 0.57141
 H1423 H 0.56913 0.30721 0.58169
 H1424 H 0.59769 0.31991 0.56722
 C1425 C 0.36291 0.18669 0.53234
 C1426 C 0.36462 0.16956 0.52296
 C1427 C 0.34860 0.16032 0.51712
 C1428 C 0.33062 0.16808 0.52062
 C1429 C 0.32906 0.18553 0.52967
 C1430 C 0.34511 0.19475 0.53552
 C1431 C 0.37931 0.19540 0.53965
 C1432 C 0.39298 0.20235 0.54632
 C1433 C 0.40910 0.21026 0.55499
 C1434 C 0.42721 0.20595 0.54836
 C1435 C 0.44287 0.21263 0.55769
 C1436 C 0.44057 0.22361 0.57383
 C1437 C 0.42230 0.22820 0.58011
 C1438 C 0.40670 0.22155 0.57076
 H1439 H 0.37832 0.16319 0.52044
 H1440 H 0.35027 0.14704 0.50995
 H1441 H 0.31542 0.19176 0.53276
 H1442 H 0.34362 0.20794 0.54289
 H1443 H 0.42924 0.19713 0.53622
 H1444 H 0.45676 0.20872 0.55263
 H1445 H 0.42007 0.23686 0.59232
 H1446 H 0.39275 0.22498 0.57602
 C1447 C 0.86131 0.68549 0.03240
 C1448 C 0.86299 0.66814 0.02341
 C1449 C 0.84696 0.65892 0.01755
 C1450 C 0.82901 0.66692 0.02065
 C1451 C 0.82749 0.68456 0.02936
 C1452 C 0.84355 0.69375 0.03522
 C1453 C 0.87771 0.69428 0.03963
 C1454 C 0.89136 0.70134 0.04621
 C1455 C 0.90746 0.70944 0.05476
 C1456 C 0.92559 0.70499 0.04827
 C1457 C 0.94122 0.71189 0.05747
 C1458 C 0.93887 0.72326 0.07334
 C1459 C 0.92058 0.72797 0.07948
 C1460 C 0.90501 0.72109 0.07026
 H1461 H 0.87666 0.66161 0.02117
 H1462 H 0.84861 0.64549 0.01066
 H1463 H 0.81388 0.69098 0.03214
 H1464 H 0.84208 0.70712 0.04229
 H1465 H 0.92765 0.69589 0.03634
 H1466 H 0.95512 0.70788 0.05253
 H1467 H 0.91832 0.73692 0.09148
 H1468 H 0.89105 0.72463 0.07540
 C1469 C 0.65866 0.68343 0.95280
 C1470 C 0.66204 0.68519 0.97197
 C1471 C 0.67834 0.67730 0.97979
 C1472 C 0.69147 0.66753 0.96851
 C1473 C 0.68808 0.66614 0.94919
 C1474 C 0.67178 0.67402 0.94141
 C1475 C 0.64152 0.69077 0.94483
 C1476 C 0.62716 0.69660 0.93791
 C1477 C 0.61010 0.70328 0.92926
 C1478 C 0.59273 0.70019 0.93805
 C1479 C 0.57614 0.70606 0.92924
 C1480 C 0.57675 0.71502 0.91148
 C1481 C 0.59431 0.71824 0.90289
 C1482 C 0.61085 0.71240 0.91172
 H1483 H 0.65199 0.69248 0.98091
 H1484 H 0.68064 0.67880 0.99466
 H1485 H 0.69775 0.65847 0.94018
 H1486 H 0.66928 0.67252 0.92656
 H1487 H 0.59199 0.69307 0.95159
 H1488 H 0.56284 0.70321 0.93612
 H1489 H 0.59526 0.72537 0.88937
 H1490 H 0.62422 0.71488 0.90480
 C1491 C 0.15838 0.18375 0.45753
 C1492 C 0.15747 0.16642 0.46716
 C1493 C 0.17368 0.15815 0.47470
 C1494 C 0.19109 0.16709 0.47272
 C1495 C 0.19186 0.18456 0.46307
 C1496 C 0.17560 0.19283 0.45553
 C1497 C 0.14170 0.19183 0.44927
 C1498 C 0.12763 0.19819 0.44220
 C1499 C 0.11081 0.20537 0.43346
 C1500 C 0.09328 0.20244 0.44199
 C1501 C 0.07688 0.20863 0.43304
 C1502 C 0.07783 0.21778 0.41539
 C1503 C 0.09554 0.22089 0.40707
 C1504 C 0.11190 0.21471 0.41605
 H1505 H 0.14425 0.15920 0.46868
 H1506 H 0.17264 0.14454 0.48175
 H1507 H 0.20501 0.19187 0.46146
 H1508 H 0.17646 0.20625 0.44807
 H1509 H 0.09227 0.19513 0.45543
 H1510 H 0.06346 0.20586 0.43971
 H1511 H 0.09675 0.22814 0.39363
 H1512 H 0.12538 0.21707 0.40932
 C1513 C 0.56109 0.10171 0.71727
 C1514 C 0.55584 0.08374 0.71167
 C1515 C 0.56489 0.06766 0.71908
 C1516 C 0.57937 0.06939 0.73214
 C1517 C 0.58421 0.08751 0.73802
 C1518 C 0.57513 0.10355 0.73060
 C1519 C 0.55287 0.11827 0.70852
 C1520 C 0.54645 0.13213 0.70075
 C1521 C 0.53931 0.14861 0.69098
 C1522 C 0.52785 0.14660 0.67538
 C1523 C 0.52198 0.16251 0.66503
 C1524 C 0.52755 0.18066 0.67013
 C1525 C 0.53875 0.18256 0.68607
 C1526 C 0.54462 0.16662 0.69640
 H1527 H 0.54507 0.08216 0.70126
 H1528 H 0.56101 0.05393 0.71411
 H1529 H 0.59512 0.08928 0.74823
 H1530 H 0.57931 0.11740 0.73502
 H1531 H 0.52368 0.13272 0.67105
 H1532 H 0.51315 0.16061 0.65298
 H1533 H 0.54344 0.19632 0.69022
 H1534 H 0.55359 0.16832 0.70838
 C1535 C 1.06062 0.60340 0.21740
 C1536 C 1.07502 0.60537 0.23034
 C1537 C 1.08428 0.58939 0.23767
 C1538 C 1.07927 0.57121 0.23211
 C1539 C 1.06446 0.56936 0.21945
 C1540 C 1.05523 0.58537 0.21212
 C1541 C 1.05216 0.61988 0.20872
 C1542 C 1.04552 0.63365 0.20099
 C1543 C 1.03810 0.65001 0.19121
 C1544 C 1.04355 0.66810 0.19623
 C1545 C 1.03744 0.68390 0.18582
 C1546 C 1.02587 0.68176 0.17018
 C1547 C 1.02014 0.66354 0.16551
 C1548 C 1.02624 0.64778 0.17595
 H1549 H 1.07932 0.61926 0.23451
 H1550 H 1.09545 0.59125 0.24759
 H1551 H 1.06043 0.55559 0.21473
 H1552 H 1.04418 0.58370 0.20202
 H1553 H 1.05283 0.66997 0.20795
 H1554 H 1.04226 0.69770 0.18963
 H1555 H 1.01103 0.66147 0.15371
 H1556 H 1.02196 0.63384 0.17193
 C1557 C 0.94256 0.89845 0.20654
 C1558 C 0.92390 0.90242 0.20189
 C1559 C 0.91425 0.91747 0.21019
 C1560 C 0.92313 0.92880 0.22331
 C1561 C 0.94194 0.92476 0.22787
 C1562 C 0.95159 0.90965 0.21954
 C1563 C 0.95225 0.88288 0.19782
 C1564 C 0.95967 0.86969 0.19006
 C1565 C 0.96765 0.85384 0.18026
 C1566 C 0.96400 0.85181 0.16118
 C1567 C 0.97055 0.83586 0.15176
 C1568 C 0.98084 0.82165 0.16131
 C1569 C 0.98484 0.82400 0.18040
 C1570 C 0.97822 0.84000 0.18983
 H1571 H 0.91680 0.89390 0.19179
 H1572 H 0.89989 0.92040 0.20613
 H1573 H 0.94910 0.93312 0.23804
 H1574 H 0.96605 0.90668 0.22325
 H1575 H 0.95583 0.86245 0.15365
 H1576 H 0.96750 0.83459 0.13700
 H1577 H 0.99259 0.81322 0.18815
 H1578 H 0.98105 0.84139 0.20463
 C1579 C 0.44249 0.39609 0.70931
 C1580 C 0.42468 0.40115 0.70275
 C1581 C 0.41460 0.41601 0.71088
 C1582 C 0.42219 0.42605 0.72576
 C1583 C 0.44017 0.42094 0.73225
 C1584 C 0.45025 0.40601 0.72407
 C1585 C 0.45258 0.38069 0.70072
 C1586 C 0.46026 0.36768 0.69292
 C1587 C 0.46847 0.35207 0.68293
 C1588 C 0.46500 0.35038 0.66377
 C1589 C 0.47170 0.33464 0.65412
 C1590 C 0.48197 0.32031 0.66350
 C1591 C 0.48581 0.32232 0.68267
 C1592 C 0.47903 0.33811 0.69234
 H1593 H 0.41858 0.39363 0.69128
 H1594 H 0.40095 0.41981 0.70534
 H1595 H 0.44631 0.42831 0.74377
 H1596 H 0.46404 0.40218 0.72927
 H1597 H 0.45684 0.36111 0.65635
 H1598 H 0.46878 0.33363 0.63931
 H1599 H 0.49355 0.31144 0.69028
 H1600 H 0.48172 0.33923 0.70719
 C1601 C 0.43706 0.59541 0.78814
 C1602 C 0.41860 0.59248 0.79422
 C1603 C 0.40915 0.57638 0.78886
 C1604 C 0.41804 0.56294 0.77734
 C1605 C 0.43653 0.56613 0.77104
 C1606 C 0.44599 0.58226 0.77646
 C1607 C 0.44689 0.61165 0.79444
 C1608 C 0.45475 0.62522 0.80031
 C1609 C 0.46369 0.64136 0.80800
 C1610 C 0.45796 0.65962 0.80261
 C1611 C 0.46561 0.67528 0.81119
 C1612 C 0.47905 0.67284 0.82535
 C1613 C 0.48504 0.65442 0.83036
 C1614 C 0.47738 0.63880 0.82174
 H1615 H 0.41155 0.60258 0.80324
 H1616 H 0.39483 0.57448 0.79368
 H1617 H 0.44379 0.55595 0.76230
 H1618 H 0.46031 0.58437 0.77173
 H1619 H 0.44727 0.66176 0.79207
 H1620 H 0.46057 0.68926 0.80719
 H1621 H 0.49554 0.65209 0.84102
 H1622 H 0.48190 0.62472 0.82604
 C1623 C -0.05912 0.09634 0.29207
 C1624 C -0.07738 0.09290 0.29848
 C1625 C -0.08674 0.07688 0.29275
 C1626 C -0.07794 0.06402 0.28051
 C1627 C -0.05961 0.06767 0.27400
 C1628 C -0.05025 0.08373 0.27979
 C1629 C -0.04950 0.11266 0.29847
 C1630 C -0.04184 0.12636 0.30433
 C1631 C -0.03317 0.14268 0.31194
 C1632 C -0.03904 0.16082 0.30627
 C1633 C -0.03164 0.17668 0.31472
 C1634 C -0.01832 0.17456 0.32904
 C1635 C -0.01220 0.15627 0.33433
 C1636 C -0.01960 0.14045 0.32584
 H1637 H -0.08439 0.10259 0.30796
 H1638 H -0.10094 0.07464 0.29775
 H1639 H -0.05242 0.05795 0.26471
 H1640 H -0.03609 0.08623 0.27480
 H1641 H -0.04963 0.16271 0.29560
 H1642 H -0.03679 0.19055 0.31050
 H1643 H -0.00177 0.15419 0.34512
 H1644 H -0.01497 0.12647 0.33036
 C1645 C 0.06372 0.39587 0.28750
 C1646 C 0.05428 0.40972 0.27681
 C1647 C 0.06320 0.42660 0.27194
 C1648 C 0.08164 0.42981 0.27780
 C1649 C 0.09102 0.41571 0.28838
 C1650 C 0.08211 0.39889 0.29319
 C1651 C 0.05469 0.37862 0.29306
 C1652 C 0.04792 0.36397 0.29838
 C1653 C 0.04085 0.34633 0.30551
 C1654 C 0.02332 0.34561 0.31454
 C1655 C 0.01748 0.32885 0.32330
 C1656 C 0.02920 0.31267 0.32324
 C1657 C 0.04649 0.31338 0.31357
 C1658 C 0.05227 0.33011 0.30480
 H1659 H 0.04002 0.40753 0.27237
 H1660 H 0.05560 0.43726 0.26389
 H1661 H 0.10532 0.41760 0.29282
 H1662 H 0.08956 0.38825 0.30142
 H1663 H 0.01443 0.35814 0.31530
 H1664 H 0.00418 0.32877 0.33079
 H1665 H 0.05570 0.30108 0.31309
 H1666 H 0.06588 0.33052 0.29789
 C1667 C 0.56309 0.89365 0.78575
 C1668 C 0.55381 0.90762 0.77506
 C1669 C 0.56284 0.92450 0.77043
 C1670 C 0.58122 0.92760 0.77653
 C1671 C 0.59044 0.91337 0.78709
 C1672 C 0.58143 0.89656 0.79166
 C1673 C 0.55393 0.87641 0.79109
 C1674 C 0.54705 0.86176 0.79625
 C1675 C 0.53984 0.84411 0.80321
 C1676 C 0.52238 0.84347 0.81239
 C1677 C 0.51644 0.82668 0.82100
 C1678 C 0.52798 0.81037 0.82063
 C1679 C 0.54519 0.81101 0.81081
 C1680 C 0.55107 0.82777 0.80218
 H1681 H 0.53959 0.90552 0.77045
 H1682 H 0.55536 0.93525 0.76239
 H1683 H 0.60470 0.91518 0.79170
 H1684 H 0.58876 0.88582 0.79989
 H1685 H 0.51365 0.85608 0.81339
 H1686 H 0.50321 0.82666 0.82863
 H1687 H 0.55425 0.79862 0.81009
 H1688 H 0.56462 0.82812 0.79516
 C1689 C 0.71604 0.56744 0.10514
 C1690 C 0.72510 0.55621 0.09184
 C1691 C 0.73304 0.56442 0.07569
 C1692 C 0.73209 0.58426 0.07232
 C1693 C 0.72301 0.59528 0.08634
 C1694 C 0.71513 0.58695 0.10240
 C1695 C 0.70692 0.55907 0.12128
 C1696 C 0.69871 0.55264 0.13474
 C1697 C 0.68821 0.54564 0.15068
 C1698 C 0.69497 0.53035 0.16146
 C1699 C 0.68454 0.52369 0.17689
 C1700 C 0.66721 0.53225 0.18166
 C1701 C 0.66063 0.54766 0.17076
 C1702 C 0.67106 0.55429 0.15539
 H1703 H 0.72601 0.54104 0.09391
 H1704 H 0.74047 0.55495 0.06639
 H1705 H 0.72071 0.61031 0.08475
 H1706 H 0.70791 0.59578 0.11254
 H1707 H 0.70823 0.52355 0.15791
 H1708 H 0.68988 0.51169 0.18491
 H1709 H 0.64751 0.55475 0.17425
 H1710 H 0.66575 0.56619 0.14719
 C1711 C 0.21889 1.06653 0.60654
 C1712 C 0.21319 1.08471 0.60089
 C1713 C 0.22098 1.09309 0.58482
 C1714 C 0.23465 1.08340 0.57412
 C1715 C 0.24038 1.06513 0.57994
 C1716 C 0.23253 1.05675 0.59608
 C1717 C 0.21020 1.05795 0.62280
 C1718 C 0.20221 1.05143 0.63635
 C1719 C 0.19182 1.04442 0.65235
 C1720 C 0.17477 1.05316 0.65722
 C1721 C 0.16436 1.04650 0.67258
 C1722 C 0.17087 1.03095 0.68333
 C1723 C 0.18813 1.02231 0.67844
 C1724 C 0.19853 1.02900 0.66300
 H1725 H 0.20254 1.09235 0.60881
 H1726 H 0.21600 1.10701 0.58054
 H1727 H 0.25098 1.05739 0.57210
 H1728 H 0.23702 1.04265 0.60033
 H1729 H 0.16949 1.06515 0.64913
 H1730 H 0.15130 1.05366 0.67618
 H1731 H 0.19341 1.01021 0.68635
 H1732 H 0.21172 1.02212 0.65933
 C1733 C 0.21253 0.93894 0.89536
 C1734 C 0.21169 0.91934 0.89678
 C1735 C 0.21972 0.90968 0.91198
 C1736 C 0.22893 0.91940 0.92642
 C1737 C 0.22975 0.93938 0.92443
 C1738 C 0.22165 0.94894 0.90913
 C1739 C 0.20349 0.94865 0.87996
 C1740 C 0.19544 0.95612 0.86698
 C1741 C 0.18528 0.96424 0.85142
 C1742 C 0.16640 0.95983 0.84917
 C1743 C 0.15661 0.96672 0.83359
 C1744 C 0.16558 0.97812 0.81998
 C1745 C 0.18448 0.98281 0.82253
 C1746 C 0.19428 0.97585 0.83815
 H1747 H 0.20444 0.91146 0.88627
 H1748 H 0.21750 0.89466 0.91260
 H1749 H 0.23723 0.94796 0.93412
 H1750 H 0.22252 0.96417 0.90806
 H1751 H 0.15930 0.95086 0.85937
 H1752 H 0.14200 0.96311 0.83218
 H1753 H 0.19180 0.99142 0.81221
 H1754 H 0.20891 0.97928 0.83972
 C1755 C 0.71021 0.44175 0.39394
 C1756 C 0.70461 0.42355 0.39913
 C1757 C 0.71300 0.41412 0.41427
 C1758 C 0.72718 0.42275 0.42447
 C1759 C 0.73275 0.44107 0.41916
 C1760 C 0.72431 0.45050 0.40396
 C1761 C 0.70121 0.45128 0.37842
 C1762 C 0.69311 0.45859 0.36538
 C1763 C 0.68284 0.46648 0.34979
 C1764 C 0.66404 0.46174 0.34757
 C1765 C 0.65412 0.46843 0.33199
 C1766 C 0.66289 0.47998 0.31836
 C1767 C 0.68170 0.48499 0.32087
 C1768 C 0.69162 0.47822 0.33649
 H1769 H 0.69364 0.41669 0.39154
 H1770 H 0.70815 0.40019 0.41820
 H1771 H 0.74373 0.44801 0.42664
 H1772 H 0.72876 0.46458 0.40004
 H1773 H 0.65710 0.45267 0.35778
 H1774 H 0.63958 0.46458 0.33060
 H1775 H 0.68885 0.49372 0.31053
 H1776 H 0.70620 0.48191 0.33804
 C1777 C 0.78575 0.44622 0.59331
 C1778 C 0.76855 0.43703 0.59264
 C1779 C 0.76360 0.42740 0.57651
 C1780 C 0.77586 0.42678 0.56091
 C1781 C 0.79292 0.43641 0.56161
 C1782 C 0.79782 0.44604 0.57770
 C1783 C 0.79155 0.45506 0.61026
 C1784 C 0.79710 0.46213 0.62436
 C1785 C 0.80453 0.47020 0.64103
 C1786 C 0.79910 0.46331 0.65876
 C1787 C 0.80754 0.47005 0.67487
 C1788 C 0.82161 0.48371 0.67341
 C1789 C 0.82661 0.49088 0.65555
 C1790 C 0.81814 0.48415 0.63948
 H1791 H 0.75915 0.43700 0.60469
 H1792 H 0.75046 0.41996 0.57647
 H1793 H 0.80253 0.43640 0.54973
 H1794 H 0.81116 0.45311 0.57807
 H1795 H 0.78867 0.45241 0.66010
 H1796 H 0.80354 0.46411 0.68839
 H1797 H 0.83721 0.50159 0.65400
 H1798 H 0.82247 0.48956 0.62583
 C1799 C 0.28585 -0.05587 0.09416
 C1800 C 0.29792 -0.05621 0.07855
 C1801 C 0.29308 -0.06610 0.06260
 C1802 C 0.27606 -0.07582 0.06203
 C1803 C 0.26380 -0.07505 0.07763
 C1804 C 0.26870 -0.06517 0.09362
 C1805 C 0.29158 -0.04672 0.11095
 C1806 C 0.29706 -0.03937 0.12493
 C1807 C 0.30441 -0.03098 0.14148
 C1808 C 0.31801 -0.01703 0.13973
 C1809 C 0.32641 -0.00998 0.15570
 C1810 C 0.32134 -0.01682 0.17366
 C1811 C 0.30728 -0.03047 0.17532
 C1812 C 0.29891 -0.03753 0.15930
 H1813 H 0.31123 -0.04906 0.07882
 H1814 H 0.30268 -0.06621 0.05072
 H1815 H 0.25070 -0.08256 0.07769
 H1816 H 0.25930 -0.06507 0.10566
 H1817 H 0.32240 -0.01188 0.12599
 H1818 H 0.33700 0.00071 0.15399
 H1819 H 0.30323 -0.03617 0.18893
 H1820 H 0.28848 -0.04842 0.16081
 C1821 C 0.28465 0.05469 0.39935
 C1822 C 0.29760 0.05400 0.41394
 C1823 C 0.29352 0.06304 0.43080
 C1824 C 0.27642 0.07293 0.43328
 C1825 C 0.26323 0.07303 0.41875
 C1826 C 0.26736 0.06400 0.40187
 C1827 C 0.28977 0.04712 0.38137
 C1828 C 0.29469 0.04145 0.36623
 C1829 C 0.30131 0.03547 0.34810
 C1830 C 0.31008 0.01779 0.34606
 C1831 C 0.31823 0.01285 0.32885
 C1832 C 0.31781 0.02562 0.31352
 C1833 C 0.30844 0.04310 0.31556
 C1834 C 0.30027 0.04799 0.33275
 H1835 H 0.31105 0.04688 0.41211
 H1836 H 0.30385 0.06252 0.44181
 H1837 H 0.25004 0.08071 0.42016
 H1838 H 0.25729 0.06474 0.39061
 H1839 H 0.31109 0.00805 0.35790
 H1840 H 0.32553 -0.00062 0.32777
 H1841 H 0.30769 0.05312 0.30394
 H1842 H 0.29356 0.06173 0.33419
 C1843 C 0.78438 0.55311 0.89939
 C1844 C 0.79711 0.55238 0.91417
 C1845 C 0.79283 0.56147 0.93096
 C1846 C 0.77574 0.57146 0.93316
 C1847 C 0.76277 0.57158 0.91844
 C1848 C 0.76710 0.56250 0.90164
 C1849 C 0.78974 0.54555 0.88147
 C1850 C 0.79480 0.53992 0.86635
 C1851 C 0.80156 0.53406 0.84823
 C1852 C 0.81047 0.51646 0.84615
 C1853 C 0.81871 0.51165 0.82893
 C1854 C 0.81822 0.52447 0.81365
 C1855 C 0.80871 0.54188 0.81574
 C1856 C 0.80046 0.54663 0.83292
 H1857 H 0.81056 0.54520 0.91255
 H1858 H 0.80299 0.56093 0.94212
 H1859 H 0.74961 0.57934 0.91963
 H1860 H 0.75721 0.56329 0.89023
 H1861 H 0.81152 0.50668 0.85795
 H1862 H 0.82611 0.49824 0.82781
 H1863 H 0.80790 0.55194 0.80416
 H1864 H 0.79362 0.56031 0.83440
 C1865 C 0.10144 0.71254 0.56532
 C1866 C 0.09107 0.72697 0.55640
 C1867 C 0.07509 0.73464 0.56519
 C1868 C 0.06935 0.72798 0.58303
 C1869 C 0.07989 0.71346 0.59182
 C1870 C 0.09580 0.70582 0.58303
 C1871 C 0.11775 0.70431 0.55642
 C1872 C 0.13143 0.69677 0.54959
 C1873 C 0.14768 0.68701 0.54222
 C1874 C 0.15843 0.69495 0.52764
 C1875 C 0.17429 0.68528 0.52076
 C1876 C 0.17952 0.66753 0.52839
 C1877 C 0.16862 0.65975 0.54308
 C1878 C 0.15283 0.66942 0.54991
 H1879 H 0.09532 0.73227 0.54268
 H1880 H 0.06736 0.74592 0.55815
 H1881 H 0.07567 0.70779 0.60540
 H1882 H 0.10367 0.69458 0.59001
 H1883 H 0.15455 0.70857 0.52159
 H1884 H 0.18232 0.69155 0.50935
 H1885 H 0.17246 0.64628 0.54948
 H1886 H 0.14467 0.66319 0.56128
 C1887 C 0.60267 0.21279 1.06378
 C1888 C 0.59726 0.20655 1.08173
 C1889 C 0.58136 0.21429 1.09044
 C1890 C 0.57059 0.22844 1.08134
 C1891 C 0.57612 0.23465 1.06327
 C1892 C 0.59209 0.22686 1.05456
 C1893 C 0.61893 0.20437 1.05495
 C1894 C 0.63256 0.19664 1.04824
 C1895 C 0.64874 0.18661 1.04105
 C1896 C 0.65378 0.16915 1.04910
 C1897 C 0.66948 0.15922 1.04243
 C1898 C 0.68040 0.16660 1.02756
 C1899 C 0.67528 0.18422 1.01957
 C1900 C 0.65951 0.19416 1.02627
 H1901 H 0.60528 0.19558 1.08894
 H1902 H 0.57730 0.20896 1.10420
 H1903 H 0.56821 0.24564 1.05598
 H1904 H 0.59616 0.23179 1.04065
 H1905 H 0.64560 0.16323 1.06061
 H1906 H 0.67323 0.14586 1.04911
 H1907 H 0.68333 0.19019 1.00800
 H1908 H 0.65572 0.20768 1.01994
 C1909 C 0.89465 0.21262 0.94265
 C1910 C 0.89589 0.21121 0.92321
 C1911 C 0.91090 0.21910 0.91331
 C1912 C 0.92535 0.22874 0.92259
 C1913 C 0.92356 0.23012 0.94241
 C1914 C 0.90844 0.22215 0.95223
 C1915 C 0.87945 0.20363 0.95258
 C1916 C 0.86660 0.19551 0.96009
 C1917 C 0.85119 0.18511 0.96804
 C1918 C 0.84984 0.16586 0.96439
 C1919 C 0.83424 0.15583 0.97072
 C1920 C 0.81973 0.16494 0.98079
 C1921 C 0.82142 0.18420 0.98485
 C1922 C 0.83706 0.19424 0.97844
 H1923 H 0.88538 0.20362 0.91566
 H1924 H 0.91138 0.21641 0.89846
 H1925 H 0.93327 0.23794 0.95064
 H1926 H 0.90752 0.22345 0.96733
 H1927 H 0.86069 0.15865 0.95635
 H1928 H 0.83348 0.14096 0.96763
 H1929 H 0.81040 0.19160 0.99245
 H1930 H 0.83793 0.20917 0.98126
 C1931 C 0.39548 0.71647 0.44846
 C1932 C 0.41384 0.71100 0.45300
 C1933 C 0.42902 0.71875 0.44313
 C1934 C 0.42598 0.73201 0.42851
 C1935 C 0.40748 0.73781 0.42443
 C1936 C 0.39234 0.73006 0.43433
 C1937 C 0.37983 0.70712 0.45725
 C1938 C 0.36667 0.69878 0.46391
 C1939 C 0.35096 0.68825 0.47100
 C1940 C 0.34956 0.66917 0.46662
 C1941 C 0.33384 0.65901 0.47237
 C1942 C 0.31924 0.66782 0.48259
 C1943 C 0.32094 0.68691 0.48731
 C1944 C 0.33670 0.69708 0.48148
 H1945 H 0.41642 0.70037 0.46381
 H1946 H 0.44307 0.71384 0.44645
 H1947 H 0.40472 0.74817 0.41343
 H1948 H 0.37818 0.73436 0.43067
 H1949 H 0.36052 0.66218 0.45852
 H1950 H 0.33308 0.64426 0.46879
 H1951 H 0.30985 0.69410 0.49503
 H1952 H 0.33761 0.71188 0.48487
 C1953 C 0.59627 0.78774 0.43965
 C1954 C 0.59346 0.79359 0.42105
 C1955 C 0.57726 0.78849 0.41171
 C1956 C 0.56360 0.77745 0.42087
 C1957 C 0.56668 0.77137 0.43949
 C1958 C 0.58291 0.77653 0.44884
 C1959 C 0.61259 0.79387 0.44936
 C1960 C 0.62624 0.79963 0.45710
 C1961 C 0.64246 0.80723 0.46587
 C1962 C 0.66049 0.80183 0.45985
 C1963 C 0.67621 0.81046 0.46721
 C1964 C 0.67408 0.82468 0.48063
 C1965 C 0.65591 0.82965 0.48695
 C1966 C 0.64022 0.82099 0.47958
 H1967 H 0.60372 0.80226 0.41380
 H1968 H 0.57545 0.79313 0.39729
 H1969 H 0.55633 0.76300 0.44695
 H1970 H 0.58491 0.77199 0.46327
 H1971 H 0.66237 0.79129 0.44913
 H1972 H 0.68999 0.80648 0.46191
 H1973 H 0.65383 0.84037 0.49744
 H1974 H 0.62633 0.82531 0.48432
 C1975 C 0.09485 0.28622 -0.05855
 C1976 C 0.09227 0.29234 -0.07710
 C1977 C 0.07619 0.28740 -0.08671
 C1978 C 0.06241 0.27626 -0.07788
 C1979 C 0.06524 0.26991 -0.05930
 C1980 C 0.08136 0.27491 -0.04968
 C1981 C 0.11111 0.29213 -0.04860
 C1982 C 0.12476 0.29773 -0.04074
 C1983 C 0.14101 0.30519 -0.03191
 C1984 C 0.15901 0.29968 -0.03791
 C1985 C 0.17479 0.30826 -0.03059
 C1986 C 0.17273 0.32255 -0.01722
 C1987 C 0.15459 0.32760 -0.01089
 C1988 C 0.13885 0.31899 -0.01822
 H1989 H 0.10263 0.30107 -0.08411
 H1990 H 0.07457 0.29224 -0.10110
 H1991 H 0.05481 0.26145 -0.05209
 H1992 H 0.08320 0.27016 -0.03529
 H1993 H 0.16084 0.28911 -0.04861
 H1994 H 0.18854 0.30422 -0.03590
 H1995 H 0.15256 0.33837 -0.00044
 H1996 H 0.12497 0.32340 -0.01350
 C1997 C 0.39718 0.28465 0.05575
 C1998 C 0.39917 0.26726 0.06519
 C1999 C 0.41600 0.26249 0.07411
 C2000 C 0.43102 0.27514 0.07378
 C2001 C 0.42904 0.29236 0.06381
 C2002 C 0.41223 0.29707 0.05488
 C2003 C 0.37934 0.29040 0.04816
 C2004 C 0.36431 0.29580 0.04242
 C2005 C 0.34633 0.30292 0.03633
 C2006 C 0.33098 0.30249 0.04872
 C2007 C 0.31393 0.31099 0.04363
 C2008 C 0.31202 0.32009 0.02605
 C2009 C 0.32736 0.31995 0.01343
 C2010 C 0.34443 0.31145 0.01858
 H2011 H 0.38756 0.25760 0.06607
 H2012 H 0.41701 0.24924 0.08186
 H2013 H 0.44043 0.30227 0.06311
 H2014 H 0.41082 0.31059 0.04765
 H2015 H 0.33231 0.29595 0.06250
 H2016 H 0.30230 0.31067 0.05353
 H2017 H 0.32637 0.32702 -0.00011
 H2018 H 0.35627 0.31198 0.00893
 C2019 C 0.89729 0.78590 0.55624
 C2020 C 0.89896 0.76860 0.56590
 C2021 C 0.91561 0.76374 0.57510
 C2022 C 0.93077 0.77621 0.57483
 C2023 C 0.92912 0.79334 0.56465
 C2024 C 0.91247 0.79814 0.55544
 C2025 C 0.87961 0.79175 0.54835
 C2026 C 0.86470 0.79721 0.54237
 C2027 C 0.84685 0.80441 0.53601
 C2028 C 0.83128 0.80385 0.54812
 C2029 C 0.81434 0.81244 0.54282
 C2030 C 0.81275 0.82175 0.52531
 C2031 C 0.82831 0.82172 0.51297
 C2032 C 0.84528 0.81314 0.51833
 H2033 H 0.88723 0.75908 0.56673
 H2034 H 0.91637 0.75057 0.58300
 H2035 H 0.94063 0.80311 0.56399
 H2036 H 0.91131 0.81159 0.54805
 H2037 H 0.83235 0.79715 0.56185
 H2038 H 0.80254 0.81202 0.55251
 H2039 H 0.82757 0.82895 0.49949
 H2040 H 0.85729 0.81377 0.50890
   
