data_POSCAR
  _audit_creation_date              2014-09-24
  _audit_creation_method            'ToBaCCo'
  _symmetry_space_group_name_H-M    'P1'
  _symmetry_Int_Tables_number       1
  _symmetry_cell_setting            triclinic
  loop_
  _symmetry_equiv_pos_as_xyz
 x,y,z
_cell_length_a 51.0148
_cell_length_b 51.0667
_cell_length_c 51.0665
_cell_angle_alpha 89.788200
_cell_angle_beta 90.219000
_cell_angle_gamma 89.850400
loop_
  _atom_site_label
  _atom_site_type_symbol
  _atom_site_fract_x
  _atom_site_fract_y
  _atom_site_fract_z
C1 C 0.24446 0.96893 0.00505
 C2 C 0.25186 0.96882 -0.02175
 C3 C 0.25674 0.99325 -0.03397
 C4 C 0.25342 1.01742 -0.02103
 C5 C 0.24681 1.01686 0.00590
 C6 C 0.24188 0.99285 0.01815
 H7 H 0.23757 0.99268 0.03896
 H8 H 0.26179 0.99357 -0.05453
 C9 C 0.74865 0.46821 0.47812
 C10 C 0.75162 0.46744 0.50567
 C11 C 0.75309 0.49095 0.51962
 C12 C 0.75239 0.51537 0.50709
 C13 C 0.75072 0.51640 0.47949
 C14 C 0.74870 0.49281 0.46550
 H15 H 0.74702 0.49370 0.44435
 H16 H 0.75489 0.49020 0.54080
 C17 C 0.74875 0.97903 1.01699
 C18 C 0.73808 1.00490 1.01592
 C19 C 0.73245 1.01589 0.99118
 C20 C 0.73977 1.00375 0.96774
 C21 C 0.75166 0.97878 0.96866
 C22 C 0.75616 0.96700 0.99322
 H23 H 0.76397 0.94725 0.99359
 H24 H 0.72466 1.03563 0.98995
 C25 C 0.25194 0.47838 0.46919
 C26 C 0.25178 0.50606 0.46846
 C27 C 0.24916 0.52005 0.49186
 C28 C 0.24752 0.50748 0.51621
 C29 C 0.24931 0.47990 0.51730
 C30 C 0.25119 0.46583 0.49378
 H31 H 0.25202 0.44463 0.49469
 H32 H 0.24849 0.54129 0.49106
 C33 C 1.01662 0.26338 -0.00479
 C34 C 1.01773 0.25254 0.02100
 C35 C 0.99399 0.24499 0.03299
 C36 C 0.96941 0.24953 0.02125
 C37 C 0.96844 0.26168 -0.00359
 C38 C 0.99186 0.26916 -0.01570
 H39 H 0.99062 0.27713 -0.03537
 H40 H 0.99437 0.23701 0.05268
 C41 C 0.46709 0.75947 0.49543
 C42 C 0.46811 0.74979 0.52141
 C43 C 0.49277 0.74672 0.53357
 C44 C 0.51623 0.75296 0.52065
 C45 C 0.51504 0.76216 0.49455
 C46 C 0.49053 0.76579 0.48263
 H47 H 0.48975 0.77206 0.46232
 H48 H 0.49369 0.74031 0.55381
 C49 C 0.00393 0.75677 0.03196
 C50 C -0.02299 0.74965 0.03182
 C51 C -0.03495 0.74465 0.00726
 C52 C -0.02159 0.74743 -0.01677
 C53 C 0.00545 0.75374 -0.01591
 C54 C 0.01741 0.75888 0.00819
 H55 H 0.03828 0.76299 0.00860
 H56 H -0.05558 0.73982 0.00671
 C57 C 0.50796 0.24593 0.48470
 C58 C 0.48036 0.24779 0.48334
 C59 C 0.46609 0.25019 0.50671
 C60 C 0.47841 0.25041 0.53144
 C61 C 0.50593 0.24720 0.53260
 C62 C 0.52019 0.24536 0.50928
 H63 H 0.54136 0.24340 0.51033
 H64 H 0.44494 0.25201 0.50553
 C65 C 1.03109 0.02228 0.24822
 C66 C 1.03259 -0.00474 0.24184
 C67 C 1.00955 -0.01958 0.24016
 C68 C 0.98466 -0.00907 0.24562
 C69 C 0.98293 0.01809 0.25106
 C70 C 1.00595 0.03302 0.25278
 H71 H 1.00382 0.05376 0.25668
 H72 H 1.01155 -0.04034 0.23617
 C73 C 0.48345 0.49218 0.74391
 C74 C 0.48288 0.51912 0.75001
 C75 C 0.50666 0.53281 0.75212
 C76 C 0.53102 0.52059 0.74769
 C77 C 0.53132 0.49379 0.74073
 C78 C 0.50755 0.48017 0.73876
 H79 H 0.50798 0.45933 0.73473
 H80 H 0.50610 0.55360 0.75628
 C81 C 1.02109 0.98339 0.74407
 C82 C 0.99548 0.98301 0.73360
 C83 C 0.98238 1.00669 0.72901
 C84 C 0.99292 1.03108 0.73651
 C85 C 1.01880 1.03144 0.74706
 C86 C 1.03231 1.00758 0.75067
 H87 H 1.05235 1.00793 0.75780
 H88 H 0.96248 1.00559 0.72160
 C89 C 0.52147 0.48292 0.25137
 C90 C 0.49451 0.48255 0.25758
 C91 C 0.48144 0.50621 0.26224
 C92 C 0.49402 0.53046 0.25983
 C93 C 0.52092 0.53107 0.25320
 C94 C 0.53419 0.50720 0.24907
 H95 H 0.55502 0.50745 0.24497
 H96 H 0.46056 0.50580 0.26616
 O97 O 0.26607 0.18185 0.19913
 O98 O 0.29628 0.17508 0.23565
 O99 O 0.19856 0.21329 0.23781
 O100 O 0.18975 0.24772 0.26368
 O101 O 0.22878 0.25017 0.16755
 O102 O 0.26552 0.27879 0.15965
 O103 O 0.26752 0.28760 0.30180
 O104 O 0.23710 0.25175 0.30940
 O105 O 0.33464 0.25054 0.27042
 O106 O 0.34143 0.21976 0.23349
 O107 O 0.30316 0.31699 0.23490
 O108 O 0.26483 0.32425 0.20380
 O109 O 0.26758 0.31831 0.26944
 O110 O 0.23839 0.32635 0.23289
 O111 O 0.33431 0.28505 0.23476
 O112 O 0.34184 0.24769 0.20549
 O113 O 0.30356 0.25286 0.30214
 O114 O 0.27225 0.22366 0.31212
 O115 O 0.26550 0.21329 0.16741
 O116 O 0.29395 0.24906 0.15897
 O117 O 0.19791 0.24977 0.19962
 O118 O 0.19193 0.27998 0.23579
 O119 O 0.23027 0.18191 0.23653
 O120 O 0.26804 0.17361 0.26394
 Zr121 Zr 0.26553 0.20293 0.23462
 O122 O 0.29001 0.22563 0.25879
 Zr123 Zr 0.21941 0.24885 0.23486
 O124 O 0.24228 0.27391 0.25840
 Zr125 Zr 0.26463 0.24862 0.18811
 O126 O 0.28980 0.27294 0.20981
 Zr127 Zr 0.26785 0.25155 0.28170
 O128 O 0.24291 0.22603 0.26035
 Zr129 Zr 0.31307 0.25005 0.23517
 O130 O 0.29040 0.22545 0.21079
 Zr131 Zr 0.26725 0.29655 0.23469
 O132 O 0.24179 0.27401 0.21096
 O133 O 0.24069 0.22445 0.21041
 O134 O 0.29214 0.27538 0.25936
 C135 C 0.26606 0.18933 0.17504
 C136 C 0.20626 0.18926 0.23811
 C137 C 0.20489 0.25058 0.17548
 C138 C 0.26755 0.31147 0.29363
 C139 C 0.32748 0.25197 0.29446
 C140 C 0.32711 0.30911 0.23503
 H141 H 0.30068 0.21390 0.27003
 H142 H 0.30055 0.28349 0.19769
 H143 H 0.22922 0.21319 0.19958
 H144 H 0.23063 0.28487 0.26925
 H145 H 0.22581 0.23651 0.30542
 H146 H 0.19621 0.25770 0.27894
 H147 H 0.33786 0.26135 0.19228
 H148 H 0.30823 0.23750 0.16537
 H149 H 0.26387 0.20745 0.30584
 H150 H 0.25399 0.17714 0.27676
 H151 H 0.28034 0.32189 0.19247
 H152 H 0.25311 0.29245 0.16557
 H153 H 0.30910 0.18049 0.22218
 H154 H 0.33807 0.20755 0.24817
 H155 H 0.19734 0.29275 0.22223
 H156 H 0.22462 0.32187 0.24572
 O157 O 0.75017 0.83252 0.22806
 O158 O 0.72091 0.84079 0.26423
 O159 O 0.81784 0.80063 0.26757
 O160 O 0.82572 0.76717 0.29549
 O161 O 0.78733 0.76284 0.19902
 O162 O 0.74988 0.73451 0.19166
 O163 O 0.74762 0.72992 0.33434
 O164 O 0.77909 0.76471 0.34047
 O165 O 0.68148 0.76650 0.30162
 O166 O 0.67516 0.79697 0.26313
 O167 O 0.71128 0.69883 0.26684
 O168 O 0.74985 0.68991 0.23776
 O169 O 0.74623 0.69829 0.30314
 O170 O 0.77585 0.68834 0.26719
 O171 O 0.68066 0.73126 0.26609
 O172 O 0.67322 0.76781 0.23680
 O173 O 0.71286 0.76531 0.33335
 O174 O 0.74464 0.79424 0.34184
 O175 O 0.75054 0.80041 0.19727
 O176 O 0.72206 0.76460 0.18954
 O177 O 0.81807 0.76323 0.23144
 O178 O 0.82325 0.73389 0.26818
 O179 O 0.78666 0.83252 0.26514
 O180 O 0.74912 0.84214 0.29260
 Zr181 Zr 0.75098 0.81221 0.26410
 O182 O 0.72620 0.79063 0.28890
 Zr183 Zr 0.79633 0.76548 0.26618
 O184 O 0.77307 0.74149 0.29040
 Zr185 Zr 0.75119 0.76541 0.21907
 O186 O 0.72555 0.74218 0.24152
 Zr187 Zr 0.74816 0.76510 0.31274
 O188 O 0.77343 0.78953 0.29067
 Zr189 Zr 0.70261 0.76592 0.26612
 O190 O 0.72571 0.78941 0.24093
 Zr191 Zr 0.74755 0.71872 0.26738
 O192 O 0.77343 0.74014 0.24301
 O193 O 0.77546 0.78968 0.24076
 O194 O 0.72321 0.74097 0.29127
 C195 C 0.74990 0.82456 0.20420
 C196 C 0.81054 0.82475 0.26679
 C197 C 0.81122 0.76206 0.20727
 C198 C 0.74662 0.70588 0.32708
 C199 C 0.68892 0.76606 0.32571
 C200 C 0.68742 0.70706 0.26630
 H201 H 0.71579 0.80286 0.29969
 H202 H 0.71462 0.73158 0.22960
 H203 H 0.78699 0.80045 0.22951
 H204 H 0.78448 0.73058 0.30173
 H205 H 0.79079 0.77951 0.33603
 H206 H 0.81966 0.75657 0.31052
 H207 H 0.67795 0.75511 0.22302
 H208 H 0.70782 0.77635 0.19545
 H209 H 0.75451 0.80956 0.33546
 H210 H 0.76361 0.83908 0.30517
 H211 H 0.73537 0.69314 0.22521
 H212 H 0.76234 0.72098 0.19798
 H213 H 0.70755 0.83501 0.25140
 H214 H 0.67796 0.80879 0.27818
 H215 H 0.81717 0.72061 0.25546
 H216 H 0.78939 0.69269 0.28036
 O217 O 0.75103 0.18148 0.78554
 O218 O 0.72497 0.17273 0.74988
 O219 O 0.81938 0.21643 0.75192
 O220 O 0.82784 0.25200 0.72562
 O221 O 0.78469 0.24996 0.82014
 O222 O 0.74890 0.27585 0.82890
 O223 O 0.74863 0.28528 0.68300
 O224 O 0.77592 0.25064 0.67332
 O225 O 0.68186 0.25149 0.71647
 O226 O 0.67238 0.22433 0.75139
 O227 O 0.71521 0.31855 0.75035
 O228 O 0.75018 0.32834 0.77700
 O229 O 0.74904 0.31752 0.71355
 O230 O 0.78156 0.32359 0.75285
 O231 O 0.68302 0.28788 0.75027
 O232 O 0.67710 0.24860 0.78273
 O233 O 0.71240 0.25109 0.68420
 O234 O 0.75198 0.21901 0.67817
 O235 O 0.74908 0.21166 0.81814
 O236 O 0.71833 0.24952 0.82443
 O237 O 0.81723 0.25211 0.78986
 O238 O 0.82336 0.28268 0.75184
 O239 O 0.78920 0.18376 0.74999
 O240 O 0.75125 0.17730 0.71928
 Zr241 Zr 0.75247 0.20357 0.75121
 O242 O 0.72637 0.22591 0.72805
 Zr243 Zr 0.79717 0.25066 0.75328
 O244 O 0.77460 0.27375 0.72733
 Zr245 Zr 0.75027 0.24831 0.79814
 O246 O 0.72698 0.27421 0.77571
 Zr247 Zr 0.74888 0.25072 0.70459
 O248 O 0.77530 0.22740 0.72683
 Zr249 Zr 0.70354 0.25154 0.75100
 O250 O 0.72593 0.22533 0.77440
 Zr251 Zr 0.74984 0.29708 0.74998
 O252 O 0.77336 0.27489 0.77624
 O253 O 0.77573 0.22516 0.77659
 O254 O 0.72478 0.27569 0.72594
 C255 C 0.74937 0.18787 0.80969
 C256 C 0.81300 0.19227 0.75031
 C257 C 0.80883 0.25179 0.81366
 C258 C 0.74858 0.30938 0.68967
 C259 C 0.68851 0.25146 0.69236
 C260 C 0.69112 0.31178 0.75013
 H261 H 0.71530 0.21402 0.71753
 H262 H 0.71644 0.28525 0.78758
 H263 H 0.78701 0.21398 0.78784
 H264 H 0.78639 0.28433 0.71622
 H265 H 0.79223 0.25869 0.67998
 H266 H 0.82152 0.24229 0.71010
 H267 H 0.67719 0.26550 0.79215
 H268 H 0.70696 0.23440 0.82028
 H269 H 0.73515 0.20943 0.67834
 H270 H 0.76639 0.18146 0.70795
 H271 H 0.74235 0.32163 0.79338
 H272 H 0.75849 0.29147 0.82261
 H273 H 0.70932 0.17899 0.75942
 H274 H 0.67900 0.20813 0.74315
 H275 H 0.81926 0.29405 0.76695
 H276 H 0.79090 0.32360 0.73591
 O277 O 0.23811 0.80106 0.78980
 O278 O 0.26630 0.80866 0.75246
 O279 O 0.16831 0.77174 0.75171
 O280 O 0.15823 0.73845 0.72513
 O281 O 0.20001 0.73333 0.82017
 O282 O 0.23636 0.70293 0.82628
 O283 O 0.23563 0.69860 0.68399
 O284 O 0.20395 0.73380 0.67821
 O285 O 0.30259 0.73322 0.71424
 O286 O 0.31127 0.76255 0.75277
 O287 O 0.27110 0.66604 0.75055
 O288 O 0.23327 0.65882 0.78072
 O289 O 0.23579 0.66696 0.71545
 O290 O 0.20634 0.65845 0.75193
 O291 O 0.30288 0.69716 0.74962
 O292 O 0.31273 0.73332 0.77886
 O293 O 0.27032 0.73397 0.68340
 O294 O 0.23546 0.76330 0.67558
 O295 O 0.23796 0.76872 0.82059
 O296 O 0.26544 0.73194 0.82742
 O297 O 0.16827 0.73479 0.78872
 O298 O 0.16113 0.70499 0.75259
 O299 O 0.20044 0.80258 0.75304
 O300 O 0.23637 0.81053 0.72461
 Zr301 Zr 0.23557 0.78099 0.75370
 O302 O 0.25907 0.75863 0.72832
 Zr303 Zr 0.18878 0.73587 0.75320
 O304 O 0.21052 0.71127 0.72827
 Zr305 Zr 0.23539 0.73407 0.79887
 O306 O 0.25949 0.70996 0.77580
 Zr307 Zr 0.23558 0.73402 0.70512
 O308 O 0.21176 0.75906 0.72799
 Zr309 Zr 0.28246 0.73287 0.75040
 O310 O 0.26090 0.75720 0.77612
 Zr311 Zr 0.23581 0.68753 0.75083
 O312 O 0.21150 0.70974 0.77591
 O313 O 0.21116 0.75929 0.77782
 O314 O 0.26025 0.70887 0.72605
 C315 C 0.23903 0.79286 0.81367
 C316 C 0.17629 0.79561 0.75189
 C317 C 0.17589 0.73369 0.81269
 C318 C 0.23589 0.67453 0.69149
 C319 C 0.29450 0.73371 0.69033
 C320 C 0.29519 0.67326 0.75000
 H321 H 0.26983 0.77057 0.71757
 H322 H 0.27039 0.69888 0.78745
 H323 H 0.20036 0.77061 0.78922
 H324 H 0.19853 0.70080 0.71726
 H325 H 0.19165 0.74776 0.68373
 H326 H 0.16303 0.72713 0.71021
 H327 H 0.30824 0.72034 0.79253
 H328 H 0.27995 0.74299 0.82088
 H329 H 0.24649 0.77794 0.68172
 H330 H 0.22416 0.80490 0.71061
 H331 H 0.24813 0.66149 0.79291
 H332 H 0.22282 0.69025 0.82071
 H333 H 0.28001 0.80227 0.76469
 H334 H 0.30825 0.77495 0.73813
 H335 H 0.16700 0.69188 0.76570
 H336 H 0.19279 0.66323 0.73884
 O337 O 0.24778 0.33265 0.72858
 O338 O 0.21928 0.34012 0.76524
 O339 O 0.31652 0.30079 0.76620
 O340 O 0.32492 0.26713 0.79389
 O341 O 0.28546 0.26363 0.69775
 O342 O 0.24821 0.23535 0.69027
 O343 O 0.24818 0.22844 0.83302
 O344 O 0.27888 0.26371 0.83936
 O345 O 0.18085 0.26454 0.80159
 O346 O 0.17363 0.29556 0.76385
 O347 O 0.21085 0.19784 0.76553
 O348 O 0.24908 0.18973 0.73589
 O349 O 0.24656 0.19719 0.80144
 O350 O 0.27563 0.18812 0.76474
 O351 O 0.17995 0.23000 0.76546
 O352 O 0.17199 0.26714 0.73679
 O353 O 0.21259 0.26309 0.83296
 O354 O 0.24391 0.29242 0.84160
 O355 O 0.24818 0.30113 0.69718
 O356 O 0.22003 0.26505 0.68914
 O357 O 0.31654 0.26368 0.72984
 O358 O 0.32256 0.23417 0.76622
 O359 O 0.28502 0.33240 0.76475
 O360 O 0.24790 0.34099 0.79336
 Zr361 Zr 0.24950 0.31173 0.76415
 O362 O 0.22515 0.28950 0.78879
 Zr363 Zr 0.29526 0.26546 0.76486
 O364 O 0.27253 0.24086 0.78894
 Zr365 Zr 0.24955 0.26569 0.71829
 O366 O 0.22446 0.24178 0.74066
 Zr367 Zr 0.24766 0.26387 0.81195
 O368 O 0.27248 0.28888 0.79004
 Zr369 Zr 0.20157 0.26488 0.76588
 O370 O 0.22415 0.28907 0.74089
 Zr371 Zr 0.24696 0.21813 0.76591
 O372 O 0.27230 0.24025 0.74158
 O373 O 0.27386 0.28984 0.74007
 O374 O 0.22270 0.23976 0.79043
 C375 C 0.24725 0.32514 0.70460
 C376 C 0.30902 0.32486 0.76580
 C377 C 0.30944 0.26278 0.70573
 C378 C 0.24746 0.20450 0.82546
 C379 C 0.18855 0.26369 0.82559
 C380 C 0.18691 0.20585 0.76528
 H381 H 0.21472 0.30142 0.79990
 H382 H 0.21350 0.23126 0.72869
 H383 H 0.28511 0.30086 0.72878
 H384 H 0.28425 0.22993 0.79994
 H385 H 0.29023 0.27882 0.83504
 H386 H 0.31907 0.25638 0.80890
 H387 H 0.17646 0.25442 0.72294
 H388 H 0.20578 0.27659 0.69542
 H389 H 0.25302 0.30819 0.83518
 H390 H 0.26289 0.33803 0.80537
 H391 H 0.23450 0.19309 0.72350
 H392 H 0.26059 0.22165 0.69637
 H393 H 0.20558 0.33426 0.75281
 H394 H 0.17656 0.30721 0.77901
 H395 H 0.31646 0.22093 0.75347
 H396 H 0.28923 0.19233 0.77791
 O397 O 0.76670 0.68226 0.69808
 O398 O 0.79593 0.67507 0.73510
 O399 O 0.69834 0.71312 0.73644
 O400 O 0.68911 0.74742 0.76240
 O401 O 0.72909 0.75040 0.66667
 O402 O 0.76554 0.77960 0.65946
 O403 O 0.76704 0.78696 0.80181
 O404 O 0.73613 0.75185 0.80877
 O405 O 0.83397 0.75030 0.77067
 O406 O 0.84120 0.72011 0.73302
 O407 O 0.80275 0.81727 0.73444
 O408 O 0.76400 0.82458 0.70412
 O409 O 0.76720 0.81801 0.76979
 O410 O 0.73814 0.82661 0.73357
 O411 O 0.83393 0.78538 0.73497
 O412 O 0.84205 0.74850 0.70593
 O413 O 0.80257 0.75135 0.80214
 O414 O 0.76771 0.72261 0.81160
 O415 O 0.76634 0.71401 0.66666
 O416 O 0.79430 0.75022 0.65875
 O417 O 0.69789 0.74974 0.69841
 O418 O 0.69157 0.78002 0.73425
 O419 O 0.73022 0.68187 0.73539
 O420 O 0.76648 0.67414 0.76341
 Zr421 Zr 0.76535 0.70308 0.73373
 O422 O 0.78965 0.72555 0.75825
 Zr423 Zr 0.71905 0.74886 0.73385
 O424 O 0.74169 0.77368 0.75794
 Zr425 Zr 0.76474 0.74916 0.68763
 O426 O 0.78962 0.77333 0.70981
 Zr427 Zr 0.76705 0.75110 0.78129
 O428 O 0.74240 0.72596 0.75929
 Zr429 Zr 0.81279 0.75033 0.73515
 O430 O 0.79039 0.72590 0.71036
 Zr431 Zr 0.76688 0.79666 0.73477
 O432 O 0.74167 0.77431 0.71052
 O433 O 0.74066 0.72467 0.70944
 O434 O 0.79161 0.77533 0.75951
 C435 C 0.76714 0.68999 0.67406
 C436 C 0.70615 0.68910 0.73676
 C437 C 0.70512 0.75061 0.67434
 C438 C 0.76712 0.81092 0.79392
 C439 C 0.82656 0.75076 0.79467
 C440 C 0.82673 0.80943 0.73456
 H441 H 0.80053 0.71367 0.76908
 H442 H 0.80040 0.78399 0.69780
 H443 H 0.72943 0.71336 0.69843
 H444 H 0.72999 0.78454 0.76884
 H445 H 0.72361 0.73799 0.80358
 H446 H 0.69459 0.75866 0.77716
 H447 H 0.83779 0.76182 0.69245
 H448 H 0.80862 0.73869 0.66511
 H449 H 0.77825 0.70757 0.80550
 H450 H 0.75488 0.68040 0.77758
 H451 H 0.77916 0.82204 0.69238
 H452 H 0.75273 0.79295 0.66524
 H453 H 0.80918 0.68073 0.72216
 H454 H 0.83818 0.70791 0.74779
 H455 H 0.69732 0.79289 0.72093
 H456 H 0.72401 0.82159 0.74580
 O457 O 0.24874 0.68112 0.28369
 O458 O 0.22326 0.67278 0.24744
 O459 O 0.31827 0.71490 0.25020
 O460 O 0.32751 0.75065 0.22434
 O461 O 0.28375 0.74903 0.31858
 O462 O 0.24818 0.77553 0.32703
 O463 O 0.24939 0.78523 0.18139
 O464 O 0.27592 0.75009 0.17172
 O465 O 0.18160 0.75187 0.21423
 O466 O 0.17147 0.72506 0.24917
 O467 O 0.21558 0.81868 0.24852
 O468 O 0.25064 0.82777 0.27566
 O469 O 0.24965 0.81729 0.21213
 O470 O 0.28195 0.82285 0.25152
 O471 O 0.18299 0.78843 0.24815
 O472 O 0.17633 0.74916 0.28048
 O473 O 0.21238 0.75151 0.18217
 O474 O 0.25151 0.71885 0.17636
 O475 O 0.24794 0.71130 0.31635
 O476 O 0.21739 0.74925 0.32252
 O477 O 0.31653 0.75039 0.28851
 O478 O 0.32336 0.78115 0.25077
 O479 O 0.28761 0.68264 0.24902
 O480 O 0.25025 0.67703 0.21733
 Zr481 Zr 0.25123 0.70316 0.24938
 O482 O 0.22567 0.72595 0.22607
 Zr483 Zr 0.29665 0.74954 0.25180
 O484 O 0.27456 0.77310 0.22585
 Zr485 Zr 0.24943 0.74789 0.29637
 O486 O 0.22658 0.77410 0.27388
 Zr487 Zr 0.24870 0.75053 0.20283
 O488 O 0.27458 0.72671 0.22518
 Zr489 Zr 0.20302 0.75182 0.24893
 O490 O 0.22489 0.72529 0.27244
 Zr491 Zr 0.24995 0.79671 0.24841
 O492 O 0.27307 0.77411 0.27467
 O493 O 0.27466 0.72438 0.27493
 O494 O 0.22476 0.77576 0.22409
 C495 C 0.24757 0.68754 0.30787
 C496 C 0.31154 0.69079 0.24917
 C497 C 0.30798 0.75025 0.31227
 C498 C 0.24948 0.80929 0.18821
 C499 C 0.18843 0.75192 0.19017
 C500 C 0.19139 0.81223 0.24812
 H501 H 0.21452 0.71424 0.21544
 H502 H 0.21610 0.78524 0.28570
 H503 H 0.28568 0.71301 0.28624
 H504 H 0.28659 0.78354 0.21487
 H505 H 0.29230 0.75788 0.17849
 H506 H 0.32117 0.74110 0.20873
 H507 H 0.17660 0.76603 0.28995
 H508 H 0.20586 0.73432 0.31817
 H509 H 0.23456 0.70948 0.17641
 H510 H 0.26566 0.68103 0.20630
 H511 H 0.24208 0.82129 0.29176
 H512 H 0.25821 0.79092 0.32087
 H513 H 0.20760 0.67921 0.25683
 H514 H 0.17782 0.70885 0.24073
 H515 H 0.31921 0.79256 0.26583
 H516 H 0.29155 0.82259 0.23472
 O517 O 0.73719 0.29994 0.28754
 O518 O 0.76574 0.30754 0.25055
 O519 O 0.66782 0.27046 0.24876
 O520 O 0.65812 0.23722 0.22206
 O521 O 0.69888 0.23161 0.31746
 O522 O 0.73546 0.20190 0.32416
 O523 O 0.73548 0.19745 0.18169
 O524 O 0.70426 0.23292 0.17568
 O525 O 0.80257 0.23201 0.21273
 O526 O 0.81086 0.26138 0.25123
 O527 O 0.77085 0.16486 0.24844
 O528 O 0.73287 0.15749 0.27832
 O529 O 0.73562 0.16578 0.21311
 O530 O 0.70597 0.15728 0.24957
 O531 O 0.80259 0.19603 0.24809
 O532 O 0.81195 0.23228 0.27751
 O533 O 0.77063 0.23257 0.18156
 O534 O 0.73610 0.26202 0.17325
 O535 O 0.73667 0.26764 0.31837
 O536 O 0.76430 0.23099 0.32545
 O537 O 0.66745 0.23324 0.28572
 O538 O 0.66074 0.20374 0.24943
 O539 O 0.69988 0.30136 0.25033
 O540 O 0.73617 0.30932 0.22234
 Zr541 Zr 0.73505 0.27981 0.25145
 O542 O 0.75886 0.25746 0.22634
 Zr543 Zr 0.68836 0.23463 0.25047
 O544 O 0.71038 0.21004 0.22577
 Zr545 Zr 0.73451 0.23292 0.29662
 O546 O 0.75886 0.20878 0.27380
 Zr547 Zr 0.73565 0.23283 0.20288
 O548 O 0.71156 0.25785 0.22550
 Zr549 Zr 0.78206 0.23171 0.24865
 O550 O 0.76020 0.25605 0.27411
 Zr551 Zr 0.73550 0.18632 0.24855
 O552 O 0.71093 0.20853 0.27338
 O553 O 0.71041 0.25809 0.27535
 O554 O 0.76015 0.20768 0.22402
 C555 C 0.73783 0.29180 0.31144
 C556 C 0.67575 0.29436 0.24891
 C557 C 0.67484 0.23178 0.30973
 C558 C 0.73562 0.17337 0.18916
 C559 C 0.79474 0.23235 0.18875
 C560 C 0.79494 0.17210 0.24823
 H561 H 0.76973 0.26938 0.21569
 H562 H 0.76965 0.19770 0.28554
 H563 H 0.69942 0.26933 0.28666
 H564 H 0.69848 0.19958 0.21467
 H565 H 0.69203 0.24699 0.18108
 H566 H 0.66317 0.22604 0.20712
 H567 H 0.80739 0.21920 0.29106
 H568 H 0.77881 0.24212 0.31905
 H569 H 0.74685 0.27676 0.17962
 H570 H 0.72413 0.30367 0.20821
 H571 H 0.74763 0.16017 0.29063
 H572 H 0.72238 0.18889 0.31825
 H573 H 0.77938 0.30111 0.26284
 H574 H 0.80791 0.27381 0.23661
 H575 H 0.66652 0.19054 0.26248
 H576 H 0.69266 0.16189 0.23618
 N577 N 0.27235 0.07442 0.04091
 C578 C 0.25354 0.07834 0.05918
 N579 N 0.23198 0.06292 0.05915
 N580 N 0.22937 0.04398 0.04150
 C581 C 0.24813 0.03996 0.02314
 N582 N 0.26974 0.05545 0.02325
 C583 C 0.25692 0.09772 0.07908
 C584 C 0.25956 0.11376 0.09608
 C585 C 0.26231 0.13287 0.11633
 N586 N 0.26289 0.12551 0.14187
 N587 N 0.26453 0.14344 0.16071
 C588 C 0.26563 0.16931 0.15455
 N589 N 0.26515 0.17655 0.12894
 N590 N 0.26353 0.15865 0.11014
 N591 N 0.77403 0.57793 0.53607
 C592 C 0.75964 0.57853 0.55836
 N593 N 0.74230 0.55910 0.56313
 N594 N 0.73954 0.53951 0.54628
 C595 C 0.75388 0.53872 0.52396
 N596 N 0.77126 0.55827 0.51915
 C597 C 0.76318 0.59877 0.57737
 C598 C 0.76541 0.61510 0.59417
 C599 C 0.76719 0.63413 0.61462
 N600 N 0.76720 0.62650 0.64010
 N601 N 0.76754 0.64424 0.65917
 C602 C 0.76783 0.67020 0.65334
 N603 N 0.76793 0.67773 0.62779
 N604 N 0.76759 0.66000 0.60875
 N605 N 0.73406 0.95357 0.08211
 C606 C 0.74958 0.93202 0.08313
 N607 N 0.76500 0.92633 0.06240
 N608 N 0.76502 0.94178 0.04134
 C609 C 0.74979 0.96368 0.04017
 N610 N 0.73410 0.96902 0.06101
 C611 C 0.74903 0.91474 0.10536
 C612 C 0.74879 0.89950 0.12346
 C613 C 0.74874 0.88053 0.14427
 N614 N 0.74891 0.85463 0.13861
 N615 N 0.74919 0.83685 0.15775
 C616 C 0.74932 0.84435 0.18324
 N617 N 0.74912 0.87034 0.18887
 N618 N 0.74885 0.88814 0.16970
 N619 N 0.23134 0.45599 0.58338
 C620 C 0.24692 0.43453 0.58574
 N621 N 0.26348 0.42841 0.56603
 N622 N 0.26446 0.44323 0.54458
 C623 C 0.24899 0.46477 0.54207
 N624 N 0.23234 0.47087 0.56187
 C625 C 0.24528 0.41755 0.60809
 C626 C 0.24458 0.40212 0.62598
 C627 C 0.24444 0.38264 0.64627
 N628 N 0.24470 0.35690 0.63988
 N629 N 0.24545 0.33859 0.65850
 C630 C 0.24601 0.34540 0.68417
 N631 N 0.24569 0.37122 0.69052
 N632 N 0.24496 0.38955 0.67187
 N633 N 0.71848 0.05571 0.92253
 C634 C 0.74023 0.05933 0.90788
 N635 N 0.76075 0.04259 0.91083
 N636 N 0.75985 0.02335 0.92855
 C637 C 0.73831 0.02009 0.94378
 N638 N 0.71759 0.03653 0.94023
 C639 C 0.74223 0.08193 0.89117
 C640 C 0.74375 0.10120 0.87752
 C641 C 0.74544 0.12374 0.86070
 N642 N 0.74463 0.14846 0.87046
 N643 N 0.74596 0.16918 0.85447
 C644 C 0.74813 0.16575 0.82819
 N645 N 0.74894 0.14096 0.81863
 N646 N 0.74763 0.12036 0.83455
 N647 N 0.23274 0.54157 0.40871
 C648 C 0.25160 0.56025 0.40768
 N649 N 0.27182 0.55915 0.42489
 N650 N 0.27280 0.54043 0.44304
 C651 C 0.25380 0.52191 0.44446
 N652 N 0.23374 0.52275 0.42690
 C653 C 0.24927 0.58226 0.39028
 C654 C 0.24779 0.60124 0.37623
 C655 C 0.24660 0.62365 0.35922
 N656 N 0.24774 0.64839 0.36890
 N657 N 0.24766 0.66903 0.35277
 C658 C 0.24648 0.66551 0.32644
 N659 N 0.24523 0.64072 0.31695
 N660 N 0.24529 0.62017 0.33302
 N661 N 0.26142 0.92686 0.92181
 C662 C 0.25100 0.90396 0.92997
 N663 N 0.24177 0.90206 0.95480
 N664 N 0.24271 0.92266 0.97083
 C665 C 0.25282 0.94593 0.96262
 N666 N 0.26228 0.94733 0.93777
 C667 C 0.24854 0.88282 0.91167
 C668 C 0.24664 0.86627 0.89499
 C669 C 0.24455 0.84750 0.87421
 N670 N 0.24356 0.82153 0.87959
 N671 N 0.24180 0.80421 0.86022
 C672 C 0.24099 0.81223 0.83482
 N673 N 0.24199 0.83827 0.82949
 N674 N 0.24375 0.85560 0.84888
 N675 N 0.73193 0.42629 0.42186
 C676 C 0.74372 0.40333 0.42809
 N677 N 0.75640 0.40107 0.45144
 N678 N 0.75745 0.42133 0.46788
 C679 C 0.74585 0.44453 0.46151
 N680 N 0.73300 0.44645 0.43822
 C681 C 0.74363 0.38237 0.40935
 C682 C 0.74317 0.36581 0.39255
 C683 C 0.74224 0.34685 0.37180
 N684 N 0.74129 0.32090 0.37730
 N685 N 0.73998 0.30343 0.35802
 C686 C 0.73953 0.31129 0.33255
 N687 N 0.74051 0.33732 0.32709
 N688 N 0.74182 0.35479 0.34640
 N689 N 0.08292 0.26723 0.04639
 C690 C 0.08399 0.25163 0.06788
 N691 N 0.06327 0.23615 0.07355
 N692 N 0.04217 0.23615 0.05814
 C693 C 0.04095 0.25147 0.03629
 N694 N 0.06178 0.26720 0.03097
 C695 C 0.10622 0.25217 0.08515
 C696 C 0.12430 0.25239 0.10040
 C697 C 0.14508 0.25237 0.11940
 N698 N 0.13934 0.25215 0.14528
 N699 N 0.15845 0.25171 0.16311
 C700 C 0.18397 0.25146 0.15567
 N701 N 0.18968 0.25171 0.12970
 N702 N 0.17054 0.25215 0.11185
 N703 N 0.58196 0.76879 0.54696
 C704 C 0.58490 0.75039 0.56595
 N705 N 0.56572 0.73246 0.56959
 N706 N 0.54421 0.73292 0.55474
 C707 C 0.54113 0.75128 0.53565
 N708 N 0.56043 0.76925 0.53209
 C709 C 0.60717 0.75081 0.58319
 C710 C 0.62520 0.75111 0.59851
 C711 C 0.64582 0.75134 0.61768
 N712 N 0.63985 0.75119 0.64352
 N713 N 0.65879 0.75111 0.66152
 C714 C 0.68438 0.75119 0.65432
 N715 N 0.69034 0.75137 0.62840
 N716 N 0.67135 0.75145 0.61037
 N717 N 0.05941 0.76785 0.93850
 C718 C 0.05959 0.74610 0.92339
 N719 N 0.04123 0.72738 0.92737
 N720 N 0.02332 0.73024 0.94608
 C721 C 0.02304 0.75205 0.96125
 N722 N 0.04152 0.77072 0.95719
 C723 C 0.07965 0.74255 0.90417
 C724 C 0.09674 0.73984 0.88821
 C725 C 0.11704 0.73709 0.86911
 N726 N 0.11090 0.73628 0.84331
 N727 N 0.12973 0.73475 0.82542
 C728 C 0.15536 0.73396 0.83270
 N729 N 0.16148 0.73464 0.85860
 N730 N 0.14260 0.73618 0.87652
 N731 N 0.56464 0.25526 0.44147
 C732 C 0.55948 0.23847 0.42169
 N733 N 0.53683 0.22460 0.42197
 N734 N 0.51991 0.22737 0.44163
 C735 C 0.52507 0.24422 0.46152
 N736 N 0.54778 0.25802 0.46107
 C737 C 0.57839 0.23506 0.40133
 C738 C 0.59509 0.23296 0.38487
 C739 C 0.61547 0.23135 0.36573
 N740 N 0.60952 0.23178 0.33987
 N741 N 0.62852 0.23159 0.32208
 C742 C 0.65411 0.23103 0.32954
 N743 N 0.66002 0.23051 0.35548
 N744 N 0.64099 0.23070 0.37328
 N745 N 0.91984 0.74101 0.07317
 C746 C 0.92801 0.75096 0.09626
 N747 N 0.95306 0.75965 0.09847
 N748 N 0.96927 0.75864 0.07801
 C749 C 0.96106 0.74897 0.05455
 N750 N 0.93598 0.74006 0.05283
 C751 C 0.90959 0.75331 0.11737
 C752 C 0.89284 0.75508 0.13390
 C753 C 0.87198 0.75699 0.15267
 N754 N 0.87731 0.75801 0.17866
 N755 N 0.85789 0.75961 0.19596
 C756 C 0.83246 0.76022 0.18792
 N757 N 0.82717 0.75920 0.16186
 N758 N 0.84661 0.75760 0.14455
 N759 N 0.42176 0.26838 0.57228
 C760 C 0.42718 0.25625 0.59527
 N761 N 0.45018 0.24301 0.59795
 N762 N 0.46707 0.24172 0.57806
 C763 C 0.46149 0.25364 0.55482
 N764 N 0.43856 0.26706 0.55248
 C765 C 0.40796 0.25655 0.61578
 C766 C 0.39086 0.25717 0.63205
 C767 C 0.36996 0.25826 0.65083
 N768 N 0.37536 0.25898 0.67681
 N769 N 0.35600 0.26037 0.69418
 C770 C 0.33054 0.26111 0.68622
 N771 N 0.32517 0.26036 0.66017
 N772 N 0.34457 0.25898 0.64278
 N773 N 0.91100 0.24098 0.95810
 C774 C 0.90803 0.26147 0.94135
 N775 N 0.92293 0.28310 0.94472
 N776 N 0.94085 0.28391 0.96370
 C777 C 0.94440 0.26322 0.98017
 N778 N 0.92895 0.24180 0.97714
 C779 C 0.89107 0.25953 0.91895
 C780 C 0.87722 0.25799 0.89983
 C781 C 0.86023 0.25621 0.87744
 N782 N 0.83409 0.25392 0.88101
 N783 N 0.81802 0.25246 0.86051
 C784 C 0.82744 0.25323 0.83567
 N785 N 0.85371 0.25549 0.83206
 N786 N 0.86985 0.25696 0.85266
 N787 N 0.40965 0.73787 0.45766
 C788 C 0.40664 0.75807 0.44054
 N789 N 0.42151 0.77977 0.44352
 N790 N 0.43943 0.78093 0.46247
 C791 C 0.44300 0.76056 0.47932
 N792 N 0.42760 0.73905 0.47669
 C793 C 0.38967 0.75583 0.41817
 C794 C 0.37588 0.75433 0.39899
 C795 C 0.35901 0.75288 0.37647
 N796 N 0.33279 0.75126 0.37982
 N797 N 0.31685 0.75037 0.35920
 C798 C 0.32646 0.75109 0.33442
 N799 N 0.35281 0.75267 0.33102
 N800 N 0.36883 0.75358 0.35176
 N801 N 0.09721 0.04839 0.23997
 C802 C 0.09372 0.07366 0.24737
 N803 N 0.06982 0.08145 0.25564
 N804 N 0.04997 0.06464 0.25630
 C805 C 0.05305 0.03928 0.24876
 N806 N 0.07725 0.03154 0.24067
 C807 C 0.11455 0.09245 0.24569
 C808 C 0.13116 0.10918 0.24435
 C809 C 0.15033 0.12969 0.24281
 N810 N 0.14275 0.15519 0.24270
 N811 N 0.16049 0.17427 0.24125
 C812 C 0.18644 0.16846 0.23988
 N813 N 0.19394 0.14290 0.24001
 N814 N 0.17621 0.12384 0.24145
 N815 N 0.59526 0.55010 0.73143
 C816 C 0.59529 0.57165 0.74693
 N817 N 0.57509 0.57549 0.76361
 N818 N 0.55529 0.55859 0.76450
 C819 C 0.55492 0.53712 0.74884
 N820 N 0.57540 0.53313 0.73235
 C821 C 0.61544 0.59118 0.74472
 C822 C 0.63166 0.60830 0.74308
 C823 C 0.65062 0.62905 0.74132
 N824 N 0.64282 0.65450 0.74114
 N825 N 0.66041 0.67373 0.73969
 C826 C 0.68643 0.66815 0.73839
 N827 N 0.69412 0.64264 0.73856
 N828 N 0.67655 0.62344 0.74001
 N829 N 0.93493 0.07018 0.72346
 C830 C 0.93883 0.09121 0.73890
 N831 N 0.96182 0.09341 0.75222
 N832 N 0.98008 0.07469 0.75055
 C833 C 0.97595 0.05307 0.73558
 N834 N 0.95307 0.05156 0.72188
 C835 C 0.91785 0.10965 0.74222
 C836 C 0.89928 0.12411 0.74444
 C837 C 0.87696 0.14112 0.74656
 N838 N 0.88051 0.16724 0.74884
 N839 N 0.85996 0.18324 0.75014
 C840 C 0.83510 0.17378 0.74918
 N841 N 0.83152 0.14754 0.74694
 N842 N 0.85217 0.13148 0.74562
 N843 N 0.43875 0.57255 0.27833
 C844 C 0.43824 0.59021 0.25851
 N845 N 0.45780 0.58998 0.24056
 N846 N 0.47688 0.57209 0.24198
 C847 C 0.47711 0.55396 0.26153
 N848 N 0.45776 0.55469 0.27973
 C849 C 0.41612 0.60747 0.25562
 C850 C 0.39717 0.62152 0.25347
 C851 C 0.37492 0.63871 0.25130
 N852 N 0.37873 0.66484 0.24935
 N853 N 0.35835 0.68110 0.24826
 C854 C 0.33339 0.67192 0.24904
 N855 N 0.32954 0.64566 0.25086
 N856 N 0.35001 0.62932 0.25198
 N857 N 0.07177 0.93645 0.76654
 C858 C 0.06880 0.91653 0.74933
 N859 N 0.04993 0.91828 0.73066
 N860 N 0.03447 0.93931 0.72927
 C861 C 0.03727 0.95931 0.74654
 N862 N 0.05631 0.95748 0.76515
 C863 C 0.08631 0.89452 0.75005
 C864 C 0.10158 0.87647 0.75047
 C865 C 0.12048 0.85563 0.75082
 N866 N 0.11277 0.83023 0.75032
 N867 N 0.13052 0.81101 0.75058
 C868 C 0.15654 0.81659 0.75131
 N869 N 0.16413 0.84205 0.75179
 N870 N 0.14641 0.86123 0.75153
 N871 N 0.57371 0.43681 0.23167
 C872 C 0.56834 0.41547 0.24655
 N873 N 0.54728 0.41598 0.26266
 N874 N 0.53206 0.43720 0.26381
 C875 C 0.53730 0.45863 0.24887
 N876 N 0.55849 0.45801 0.23284
 C877 C 0.58565 0.39326 0.24632
 C878 C 0.60087 0.37515 0.24636
 C879 C 0.61981 0.35431 0.24665
 N880 N 0.61216 0.32888 0.24635
 N881 N 0.62994 0.30969 0.24696
 C882 C 0.65595 0.31531 0.24791
 N883 N 0.66349 0.34079 0.24819
 N884 N 0.64574 0.35994 0.24757
 N885 N 0.94636 0.93115 0.24217
 C886 C 0.92380 0.93836 0.25394
 N887 N 0.92097 0.96336 0.26232
 N888 N 0.94032 0.98056 0.25914
 C889 C 0.96315 0.97352 0.24739
 N890 N 0.96563 0.94835 0.23903
 C891 C 0.90355 0.91944 0.25790
 C892 C 0.88703 0.90294 0.26084
 C893 C 0.86761 0.88298 0.26374
 N894 N 0.84184 0.88938 0.26390
 N895 N 0.82372 0.87074 0.26537
 C896 C 0.83074 0.84510 0.26671
 N897 N 0.85660 0.83874 0.26668
 N898 N 0.87475 0.85741 0.26522
 N899 N 0.43831 0.43728 0.73177
 C900 C 0.42072 0.44011 0.75135
 N901 N 0.42288 0.46081 0.76776
 N902 N 0.44227 0.47802 0.76482
 C903 C 0.46004 0.47518 0.74526
 N904 N 0.45767 0.45445 0.72883
 C905 C 0.40095 0.42065 0.75535
 C906 C 0.38473 0.40384 0.75843
 C907 C 0.36554 0.38364 0.76160
 N908 N 0.33973 0.38980 0.76252
 N909 N 0.32180 0.37100 0.76436
 C910 C 0.32906 0.34540 0.76536
 N911 N 0.35496 0.33928 0.76458
 N912 N 0.37291 0.35812 0.76273
 N913 N 0.07909 0.24953 0.96387
 C914 C 0.07770 0.26529 0.94249
 N915 N 0.05663 0.28112 0.93928
 N916 N 0.03742 0.28107 0.95681
 C917 C 0.03853 0.26538 0.97840
 N918 N 0.05982 0.24952 0.98143
 C919 C 0.09751 0.26441 0.92273
 C920 C 0.11366 0.26386 0.90561
 C921 C 0.13267 0.26345 0.88506
 N922 N 0.12501 0.26433 0.85961
 N923 N 0.14276 0.26430 0.84051
 C924 C 0.16874 0.26342 0.84632
 N925 N 0.17630 0.26250 0.87184
 N926 N 0.15857 0.26252 0.89090
 N927 N 0.57761 0.74873 0.46113
 C928 C 0.57782 0.76770 0.44248
 N929 N 0.55829 0.78569 0.44192
 N930 N 0.53892 0.78457 0.45928
 C931 C 0.53848 0.76551 0.47792
 N932 N 0.55822 0.74760 0.47851
 C933 C 0.59742 0.76773 0.42247
 C934 C 0.61351 0.76759 0.40528
 C935 C 0.63262 0.76727 0.38481
 N936 N 0.62511 0.76771 0.35929
 N937 N 0.64298 0.76731 0.34030
 C938 C 0.66893 0.76643 0.34628
 N939 N 0.67632 0.76598 0.37186
 N940 N 0.65848 0.76639 0.39080
 N941 N 0.95923 0.75418 0.91459
 C942 C 0.93425 0.74524 0.91515
 N943 N 0.92429 0.73644 0.93805
 N944 N 0.93879 0.73665 0.95976
 C945 C 0.96390 0.74559 0.95954
 N946 N 0.97373 0.75435 0.93637
 C947 C 0.91784 0.74636 0.89232
 C948 C 0.90283 0.74739 0.87407
 C949 C 0.88363 0.74861 0.85351
 N950 N 0.85785 0.74991 0.85962
 N951 N 0.83974 0.75076 0.84081
 C952 C 0.84678 0.75036 0.81521
 N953 N 0.87266 0.74911 0.80910
 N954 N 0.89081 0.74825 0.82796
 N955 N 0.45950 0.26225 0.41524
 C956 C 0.43620 0.24954 0.41401
 N957 N 0.42778 0.23602 0.43521
 N958 N 0.44214 0.23519 0.45699
 C959 C 0.46552 0.24777 0.45838
 N960 N 0.47391 0.26140 0.43709
 C961 C 0.41979 0.25120 0.39120
 C962 C 0.40467 0.25217 0.37303
 C963 C 0.38526 0.25287 0.35264
 N964 N 0.35954 0.25443 0.35899
 N965 N 0.34121 0.25429 0.34038
 C966 C 0.34794 0.25255 0.31476
 N967 N 0.37375 0.25105 0.30841
 N968 N 0.39213 0.25118 0.32706
 N969 N 0.04373 0.73760 0.08894
 C970 C 0.06049 0.75811 0.09074
 N971 N 0.05658 0.77934 0.07523
 N972 N 0.03703 0.77972 0.05789
 C973 C 0.02045 0.75906 0.05565
 N974 N 0.02413 0.73799 0.07158
 C975 C 0.08327 0.75667 0.10731
 C976 C 0.10255 0.75556 0.12103
 C977 C 0.12494 0.75435 0.13814
 N978 N 0.12122 0.75345 0.16432
 N979 N 0.14164 0.75257 0.18054
 C980 C 0.16657 0.75255 0.17128
 N981 N 0.17035 0.75343 0.14496
 N982 N 0.14982 0.75432 0.12865
 N983 N 0.55681 0.22667 0.57882
 C984 C 0.56059 0.24874 0.59293
 N985 N 0.54415 0.26939 0.58927
 N986 N 0.52499 0.26825 0.57144
 C987 C 0.52150 0.24629 0.55691
 N988 N 0.53774 0.22555 0.56102
 C989 C 0.58306 0.25069 0.60983
 C990 C 0.60227 0.25171 0.62364
 C991 C 0.62473 0.25233 0.64067
 N992 N 0.62117 0.25320 0.66687
 N993 N 0.64168 0.25302 0.68299
 C994 C 0.66654 0.25192 0.67361
 N995 N 0.67017 0.25111 0.64728
 N996 N 0.64954 0.25128 0.63107
 N997 N 0.90450 0.25702 0.05241
 C998 C 0.90537 0.23807 0.07110
 N999 N 0.92639 0.22185 0.07221
 N1000 N 0.94614 0.22477 0.05549
 C1001 C 0.94560 0.24393 0.03693
 N1002 N 0.92428 0.25992 0.03564
 C1003 C 0.88542 0.23644 0.09083
 C1004 C 0.86927 0.23525 0.10801
 C1005 C 0.85031 0.23407 0.12874
 N1006 N 0.85814 0.23360 0.15417
 N1007 N 0.84052 0.23291 0.17340
 C1008 C 0.81447 0.23267 0.16780
 N1009 N 0.80675 0.23310 0.14230
 N1010 N 0.82435 0.23378 0.12311
 N1011 N 0.40272 0.75705 0.55179
 C1012 C 0.40422 0.73944 0.57173
 N1013 N 0.42587 0.72421 0.57403
 N1014 N 0.44558 0.72678 0.55723
 C1015 C 0.44442 0.74459 0.53740
 N1016 N 0.42249 0.75959 0.53492
 C1017 C 0.38421 0.73818 0.59145
 C1018 C 0.36814 0.73713 0.60873
 C1019 C 0.34940 0.73595 0.62967
 N1020 N 0.35751 0.73530 0.65502
 N1021 N 0.34011 0.73445 0.67445
 C1022 C 0.31400 0.73421 0.66915
 N1023 N 0.30599 0.73482 0.64374
 N1024 N 0.32336 0.73567 0.62434
 N1025 N 0.26405 0.06189 0.92428
 C1026 C 0.25461 0.08474 0.93373
 N1027 N 0.24542 0.08554 0.95857
 N1028 N 0.24559 0.06402 0.97344
 C1029 C 0.25497 0.04089 0.96412
 N1030 N 0.26419 0.04045 0.93915
 C1031 C 0.25311 0.10724 0.91693
 C1032 C 0.25178 0.12528 0.90172
 C1033 C 0.25023 0.14573 0.88247
 N1034 N 0.25068 0.17128 0.88959
 N1035 N 0.24959 0.19009 0.87143
 C1036 C 0.24802 0.18394 0.84561
 N1037 N 0.24751 0.15833 0.83861
 N1038 N 0.24859 0.13955 0.85674
 N1039 N 0.76183 0.56415 0.42638
 C1040 C 0.74874 0.58554 0.43497
 N1041 N 0.73647 0.58453 0.45847
 N1042 N 0.73734 0.56273 0.47294
 C1043 C 0.75056 0.54125 0.46441
 N1044 N 0.76268 0.54241 0.44081
 C1045 C 0.74719 0.60841 0.41861
 C1046 C 0.74630 0.62668 0.40361
 C1047 C 0.74569 0.64723 0.38436
 N1048 N 0.74689 0.67278 0.39145
 N1049 N 0.74703 0.69159 0.37324
 C1050 C 0.74603 0.68543 0.34738
 N1051 N 0.74477 0.65983 0.34044
 N1052 N 0.74462 0.64107 0.35860
 N1053 N 0.71997 0.06066 0.05599
 C1054 C 0.73558 0.05738 0.07721
 N1055 N 0.75139 0.03604 0.07864
 N1056 N 0.75163 0.01858 0.05928
 C1057 C 0.73595 0.02166 0.03786
 N1058 N 0.72024 0.04324 0.03670
 C1059 C 0.73610 0.07700 0.09721
 C1060 C 0.73631 0.09397 0.11352
 C1061 C 0.73633 0.11437 0.13274
 N1062 N 0.73627 0.10830 0.15858
 N1063 N 0.73604 0.12719 0.17647
 C1064 C 0.73584 0.15280 0.16916
 N1065 N 0.73592 0.15884 0.14324
 N1066 N 0.73614 0.13991 0.12532
 N1067 N 0.22650 0.56202 0.55802
 C1068 C 0.24189 0.55891 0.57945
 N1069 N 0.25857 0.53819 0.58074
 N1070 N 0.25991 0.52118 0.56102
 C1071 C 0.24450 0.52432 0.53945
 N1072 N 0.22784 0.54508 0.53836
 C1073 C 0.24128 0.57820 0.59974
 C1074 C 0.24045 0.59507 0.61614
 C1075 C 0.23922 0.61546 0.63530
 N1076 N 0.23840 0.60943 0.66112
 N1077 N 0.23718 0.62835 0.67894
 C1078 C 0.23669 0.65393 0.67155
 N1079 N 0.23748 0.65993 0.64564
 N1080 N 0.23870 0.64097 0.62780
 N1081 N 0.74372 0.94786 0.90365
 C1082 C 0.76227 0.92878 0.90456
 N1083 N 0.77839 0.92731 0.92565
 N1084 N 0.77576 0.94405 0.94540
 C1085 C 0.75699 0.96301 0.94482
 N1086 N 0.74110 0.96465 0.92344
 C1087 C 0.76362 0.90905 0.88453
 C1088 C 0.76463 0.89188 0.86835
 C1089 C 0.76565 0.87110 0.84940
 N1090 N 0.76576 0.84566 0.85722
 N1091 N 0.76637 0.82640 0.83964
 C1092 C 0.76689 0.83195 0.81361
 N1093 N 0.76683 0.85745 0.80588
 N1094 N 0.76622 0.87668 0.82344
 N1095 N 0.26838 0.45252 0.40336
 C1096 C 0.25781 0.42816 0.40458
 N1097 N 0.24466 0.42088 0.42637
 N1098 N 0.24238 0.43725 0.44642
 C1099 C 0.25306 0.46158 0.44553
 N1100 N 0.26605 0.46897 0.42350
 C1101 C 0.26112 0.40958 0.38378
 C1102 C 0.26333 0.39282 0.36732
 C1103 C 0.26532 0.37205 0.34851
 N1104 N 0.26568 0.34669 0.35654
 N1105 N 0.26662 0.32731 0.33913
 C1106 C 0.26720 0.33266 0.31307
 N1107 N 0.26692 0.35810 0.30512
 N1108 N 0.26598 0.37746 0.32252
 N1109 N 0.26400 0.91172 0.04442
 C1110 C 0.24369 0.90990 0.06141
 N1111 N 0.22253 0.92563 0.05798
 N1112 N 0.22200 0.94315 0.03863
 C1113 C 0.24245 0.94538 0.02179
 N1114 N 0.26346 0.92927 0.02502
 C1115 C 0.24525 0.89299 0.08389
 C1116 C 0.24643 0.87901 0.10295
 C1117 C 0.24767 0.86170 0.12514
 N1118 N 0.24884 0.83556 0.12123
 N1119 N 0.24959 0.81918 0.14150
 C1120 C 0.24921 0.82826 0.16647
 N1121 N 0.24809 0.85454 0.17044
 N1122 N 0.24733 0.87100 0.15005
 N1123 N 0.77255 0.42210 0.55711
 C1124 C 0.75049 0.40805 0.56127
 N1125 N 0.72969 0.41140 0.54490
 N1126 N 0.73071 0.42890 0.52545
 C1127 C 0.75267 0.44337 0.52157
 N1128 N 0.77354 0.43956 0.53774
 C1129 C 0.74870 0.39146 0.58396
 C1130 C 0.74780 0.37783 0.60329
 C1131 C 0.74728 0.36091 0.62582
 N1132 N 0.74629 0.33471 0.62235
 N1133 N 0.74659 0.31865 0.64289
 C1134 C 0.74791 0.32810 0.66770
 N1135 N 0.74883 0.35445 0.67123
 N1136 N 0.74855 0.37059 0.65057
 N1137 N 0.05162 0.09499 0.73632
 C1138 C 0.06831 0.09592 0.75706
 N1139 N 0.06736 0.07667 0.77534
 N1140 N 0.05058 0.05690 0.77279
 C1141 C 0.03396 0.05570 0.75196
 N1142 N 0.03479 0.07518 0.73376
 C1143 C 0.08820 0.11581 0.75871
 C1144 C 0.10549 0.13187 0.76014
 C1145 C 0.12639 0.15070 0.76179
 N1146 N 0.12094 0.17667 0.76268
 N1147 N 0.14028 0.19412 0.76396
 C1148 C 0.16576 0.18626 0.76442
 N1149 N 0.17116 0.16022 0.76358
 N1150 N 0.15180 0.14275 0.76230
 N1151 N 0.57426 0.57716 0.23802
 C1152 C 0.56991 0.59673 0.25529
 N1153 N 0.54843 0.59565 0.27086
 N1154 N 0.53203 0.57537 0.26943
 C1155 C 0.53656 0.55550 0.25236
 N1156 N 0.55794 0.55693 0.23663
 C1157 C 0.58903 0.61713 0.25823
 C1158 C 0.60598 0.63342 0.26042
 C1159 C 0.62679 0.65221 0.26266
 N1160 N 0.62139 0.67820 0.26322
 N1161 N 0.64076 0.69559 0.26462
 C1162 C 0.66620 0.68763 0.26551
 N1163 N 0.67154 0.66157 0.26503
 N1164 N 0.65215 0.64417 0.26362
 N1165 N 0.07834 0.94508 0.21910
 C1166 C 0.09306 0.94080 0.24082
 N1167 N 0.09006 0.95680 0.26176
 N1168 N 0.07225 0.97598 0.26126
 C1169 C 0.05707 0.97998 0.23970
 N1170 N 0.06055 0.96420 0.21862
 C1171 C 0.10974 0.91814 0.24242
 C1172 C 0.12338 0.89884 0.24372
 C1173 C 0.14023 0.87630 0.24520
 N1174 N 0.13042 0.85157 0.24474
 N1175 N 0.14646 0.83086 0.24584
 C1176 C 0.17282 0.83431 0.24744
 N1177 N 0.18241 0.85911 0.24793
 N1178 N 0.16645 0.87970 0.24684
 N1179 N 0.57474 0.44078 0.71982
 C1180 C 0.59171 0.43912 0.74019
 N1181 N 0.59079 0.45753 0.75927
 N1182 N 0.57283 0.47655 0.75840
 C1183 C 0.55534 0.47786 0.73832
 N1184 N 0.55681 0.45972 0.71898
 C1185 C 0.60864 0.41676 0.74261
 C1186 C 0.62242 0.39763 0.74450
 C1187 C 0.63940 0.37528 0.74659
 N1188 N 0.62984 0.35046 0.74582
 N1189 N 0.64605 0.32991 0.74723
 C1190 C 0.67232 0.33363 0.74946
 N1191 N 0.68165 0.35851 0.75029
 N1192 N 0.66553 0.37894 0.74890
 N1193 N 0.91782 0.04460 0.23327
 C1194 C 0.91391 0.06257 0.25235
 N1195 N 0.93223 0.06536 0.27142
 N1196 N 0.95383 0.05064 0.27143
 C1197 C 0.95778 0.03252 0.25245
 N1198 N 0.93943 0.02986 0.23328
 C1199 C 0.89172 0.07986 0.25135
 C1200 C 0.87380 0.09528 0.25050
 C1201 C 0.85342 0.11467 0.24957
 N1202 N 0.85974 0.14041 0.24883
 N1203 N 0.84105 0.15864 0.24825
 C1204 C 0.81536 0.15177 0.24838
 N1205 N 0.80904 0.12594 0.24907
 N1206 N 0.82778 0.10768 0.24965
 N1207 N 0.41562 0.54318 0.73734
 C1208 C 0.41421 0.56407 0.75358
 N1209 N 0.43497 0.56975 0.76915
 N1210 N 0.45653 0.55503 0.76850
 C1211 C 0.45807 0.53404 0.75230
 N1212 N 0.43719 0.52844 0.73670
 C1213 C 0.39192 0.58118 0.75294
 C1214 C 0.37396 0.59652 0.75225
 C1215 C 0.35359 0.61586 0.75137
 N1216 N 0.35993 0.64158 0.75030
 N1217 N 0.34124 0.65981 0.74970
 C1218 C 0.31556 0.65294 0.75011
 N1219 N 0.30923 0.62712 0.75112
 N1220 N 0.32796 0.60886 0.75173
 N1221 N 0.96302 0.92054 0.74927
 C1222 C 0.94536 0.91862 0.72946
 N1223 N 0.94551 0.93675 0.71004
 N1224 N 0.96251 0.95648 0.71063
 C1225 C 0.98006 0.95870 0.73058
 N1226 N 0.98004 0.94029 0.74985
 C1227 C 0.92526 0.89910 0.73019
 C1228 C 0.90785 0.88324 0.73099
 C1229 C 0.88699 0.86453 0.73204
 N1230 N 0.86159 0.87252 0.73206
 N1231 N 0.84224 0.85504 0.73299
 C1232 C 0.84771 0.82902 0.73396
 N1233 N 0.87317 0.82115 0.73398
 N1234 N 0.89248 0.83860 0.73306
 N1235 N 0.46402 0.42162 0.23401
 C1236 C 0.44401 0.41867 0.25116
 N1237 N 0.44158 0.43573 0.27125
 N1238 N 0.45843 0.45538 0.27393
 C1239 C 0.47841 0.45858 0.25672
 N1240 N 0.48091 0.44130 0.23670
 C1241 C 0.42450 0.39900 0.24717
 C1242 C 0.40748 0.38304 0.24403
 C1243 C 0.38693 0.36433 0.24069
 N1244 N 0.36150 0.37217 0.24008
 N1245 N 0.34232 0.35465 0.23786
 C1246 C 0.34799 0.32872 0.23616
 N1247 N 0.37349 0.32099 0.23667
 N1248 N 0.39264 0.33850 0.23889
   
