data_POSCAR
  _audit_creation_date              2014-09-24
  _audit_creation_method            'ToBaCCo'
  _symmetry_space_group_name_H-M    'P1'
  _symmetry_Int_Tables_number       1
  _symmetry_cell_setting            triclinic
  loop_
  _symmetry_equiv_pos_as_xyz
 x,y,z
_cell_length_a 74.6508
_cell_length_b 74.5446
_cell_length_c 75.0572
_cell_angle_alpha 89.996600
_cell_angle_beta 89.982100
_cell_angle_gamma 89.943500
loop_
  _atom_site_label
  _atom_site_type_symbol
  _atom_site_fract_x
  _atom_site_fract_y
  _atom_site_fract_z
N1 N 0.36518 0.31574 0.32695
 N2 N 0.36477 0.32812 0.31451
 C3 C 0.37846 0.32537 0.30314
 C4 C 0.38799 0.31042 0.30874
 C5 C 0.37910 0.30469 0.32393
 H6 H 0.38130 0.33371 0.29173
 H7 H 0.38240 0.29330 0.33220
 Cu8 Cu 0.34641 0.34662 0.31458
 Cu9 Cu 0.34760 0.31469 0.34610
 Cu10 Cu 0.31458 0.34750 0.34621
 N11 N 0.32781 0.36486 0.31462
 N12 N 0.31544 0.36515 0.32706
 C13 C 0.30431 0.37903 0.32407
 C14 C 0.30998 0.38802 0.30890
 C15 C 0.32497 0.37858 0.30329
 H16 H 0.29290 0.38224 0.33234
 H17 H 0.33329 0.38150 0.29189
 N18 N 0.31608 0.32841 0.36438
 N19 N 0.32861 0.31592 0.36432
 C20 C 0.32596 0.30486 0.37826
 C21 C 0.31101 0.31062 0.38763
 C22 C 0.30515 0.32563 0.37838
 H23 H 0.33432 0.29345 0.38133
 H24 H 0.29373 0.33395 0.38157
 H25 H 0.32704 0.32711 0.33229
 H26 H 0.34154 0.34173 0.34634
 N27 N 0.36454 0.81515 -0.17257
 N28 N 0.36442 0.82760 -0.18496
 C29 C 0.37840 0.82494 -0.19598
 C30 C 0.38793 0.81003 -0.19016
 C31 C 0.37866 0.80424 -0.17516
 H32 H 0.38151 0.83345 -0.20721
 H33 H 0.38155 0.79264 -0.16701
 Cu34 Cu 0.34616 0.84627 -0.18510
 Cu35 Cu 0.34558 0.81334 -0.15479
 Cu36 Cu 0.31472 0.84807 -0.15319
 N37 N 0.32773 0.86475 -0.18527
 N38 N 0.31557 0.86539 -0.17264
 C39 C 0.30448 0.87927 -0.17571
 C40 C 0.30999 0.88803 -0.19111
 C41 C 0.32489 0.87835 -0.19675
 H42 H 0.29328 0.88264 -0.16723
 H43 H 0.33308 0.88091 -0.20834
 N44 N 0.31602 0.82907 -0.13495
 N45 N 0.32761 0.81572 -0.13566
 C46 C 0.32473 0.80470 -0.12174
 C47 C 0.31057 0.81136 -0.11176
 C48 C 0.30544 0.82687 -0.12057
 H49 H 0.33229 0.79261 -0.11921
 H50 H 0.29470 0.83586 -0.11692
 H51 H 0.32565 0.82766 -0.16786
 H52 H 0.34156 0.84055 -0.15359
 N53 N 0.86487 0.31524 -0.17314
 N54 N 0.86431 0.32748 -0.18572
 C55 C 0.87780 0.32451 -0.19729
 C56 C 0.88746 0.30967 -0.19159
 C57 C 0.87881 0.30420 -0.17616
 H58 H 0.88038 0.33259 -0.20896
 H59 H 0.88241 0.29314 -0.16760
 Cu60 Cu 0.84618 0.34622 -0.18554
 Cu61 Cu 0.84742 0.31430 -0.15385
 Cu62 Cu 0.81322 0.34566 -0.15507
 N63 N 0.82732 0.36425 -0.18543
 N64 N 0.81514 0.36464 -0.17280
 C65 C 0.80424 0.37878 -0.17544
 C66 C 0.80953 0.38750 -0.19093
 C67 C 0.82422 0.37778 -0.19691
 H68 H 0.79291 0.38197 -0.16706
 H69 H 0.83227 0.38051 -0.20856
 N70 N 0.81530 0.32742 -0.13613
 N71 N 0.82839 0.31553 -0.13564
 C72 C 0.82599 0.30474 -0.12144
 C73 C 0.81060 0.31003 -0.11250
 C74 C 0.80424 0.32451 -0.12224
 H75 H 0.83475 0.29375 -0.11799
 H76 H 0.79233 0.33230 -0.11956
 H77 H 0.82723 0.32570 -0.16866
 H78 H 0.84026 0.34113 -0.15399
 N79 N 0.86440 0.81625 0.32823
 N80 N 0.86410 0.82869 0.31585
 C81 C 0.87795 0.82606 0.30464
 C82 C 0.88750 0.81113 0.31028
 C83 C 0.87845 0.80531 0.32536
 H84 H 0.88082 0.83439 0.29322
 H85 H 0.88175 0.79396 0.33368
 Cu86 Cu 0.84550 0.84698 0.31553
 Cu87 Cu 0.84651 0.81497 0.34710
 Cu88 Cu 0.81329 0.84746 0.34684
 N89 N 0.82672 0.86508 0.31557
 N90 N 0.81426 0.86522 0.32792
 C91 C 0.80306 0.87903 0.32498
 C92 C 0.80868 0.88814 0.30984
 C93 C 0.82381 0.87880 0.30427
 H94 H 0.79164 0.88206 0.33329
 H95 H 0.83219 0.88173 0.29290
 N96 N 0.81455 0.82836 0.36488
 N97 N 0.82720 0.81600 0.36502
 C98 C 0.82440 0.80493 0.37893
 C99 C 0.80922 0.81057 0.38802
 C100 C 0.80338 0.82549 0.37866
 H101 H 0.83284 0.79363 0.38217
 H102 H 0.79184 0.83370 0.38164
 H103 H 0.82627 0.82733 0.33298
 H104 H 0.84053 0.84206 0.34728
 N105 N 0.63546 0.68519 0.32902
 N106 N 0.63548 0.67270 0.31667
 C107 C 0.62162 0.67554 0.30556
 C108 C 0.61239 0.69067 0.31119
 C109 C 0.62164 0.69642 0.32615
 H110 H 0.61849 0.66715 0.29425
 H111 H 0.61864 0.70792 0.33439
 Cu112 Cu 0.65356 0.65391 0.31644
 Cu113 Cu 0.65327 0.68599 0.34792
 Cu114 Cu 0.68602 0.65302 0.34747
 N115 N 0.67228 0.63576 0.31608
 N116 N 0.68483 0.63544 0.32835
 C117 C 0.69590 0.62156 0.32519
 C118 C 0.69003 0.61261 0.31010
 C119 C 0.67497 0.62207 0.30470
 H120 H 0.70737 0.61831 0.33335
 H121 H 0.66653 0.61918 0.29336
 N122 N 0.68496 0.67201 0.36568
 N123 N 0.67246 0.68452 0.36587
 C124 C 0.67538 0.69552 0.37979
 C125 C 0.69050 0.68973 0.38884
 C126 C 0.69618 0.67475 0.37946
 H127 H 0.66708 0.70694 0.38303
 H128 H 0.70768 0.66645 0.38238
 H129 H 0.67331 0.67337 0.33361
 H130 H 0.65897 0.65889 0.34806
 N131 N 0.63547 0.18462 -0.17215
 N132 N 0.63565 0.17215 -0.18451
 C133 C 0.62187 0.17499 -0.19575
 C134 C 0.61247 0.19004 -0.19009
 C135 C 0.62159 0.19575 -0.17505
 H136 H 0.61889 0.16668 -0.20716
 H137 H 0.61837 0.20710 -0.16669
 Cu138 Cu 0.65373 0.15327 -0.18445
 Cu139 Cu 0.65315 0.18560 -0.15317
 Cu140 Cu 0.68549 0.15229 -0.15255
 N141 N 0.67268 0.13527 -0.18448
 N142 N 0.68442 0.13440 -0.17147
 C143 C 0.69536 0.12032 -0.17423
 C144 C 0.69047 0.11197 -0.19003
 C145 C 0.67601 0.12198 -0.19618
 H146 H 0.70638 0.11681 -0.16558
 H147 H 0.66822 0.11957 -0.20807
 N148 N 0.68436 0.17167 -0.13466
 N149 N 0.67210 0.18441 -0.13500
 C150 C 0.67510 0.19586 -0.12145
 C151 C 0.69003 0.19013 -0.11207
 C152 C 0.69550 0.17469 -0.12087
 H153 H 0.66706 0.20760 -0.11875
 H154 H 0.70684 0.16631 -0.11758
 H155 H 0.67338 0.17253 -0.16701
 H156 H 0.65858 0.15839 -0.15268
 N157 N 0.13560 0.68520 -0.17043
 N158 N 0.13583 0.67278 -0.18284
 C159 C 0.12189 0.67542 -0.19391
 C160 C 0.11239 0.69037 -0.18819
 C161 C 0.12157 0.69618 -0.17320
 H162 H 0.11893 0.66709 -0.20531
 H163 H 0.11838 0.70759 -0.16490
 Cu164 Cu 0.15447 0.65450 -0.18340
 Cu165 Cu 0.15355 0.68633 -0.15166
 Cu166 Cu 0.18643 0.65349 -0.15188
 N167 N 0.17282 0.63592 -0.18309
 N168 N 0.18525 0.63566 -0.17071
 C169 C 0.19627 0.62169 -0.17358
 C170 C 0.19048 0.61258 -0.18861
 C171 C 0.17551 0.62204 -0.19426
 H172 H 0.20768 0.61850 -0.16532
 H173 H 0.16719 0.61911 -0.20566
 N174 N 0.18539 0.67268 -0.13393
 N175 N 0.17288 0.68517 -0.13382
 C176 C 0.17587 0.69634 -0.12004
 C177 C 0.19105 0.69064 -0.11102
 C178 C 0.19668 0.67557 -0.12026
 H179 H 0.16759 0.70779 -0.11688
 H180 H 0.20819 0.66729 -0.11731
 H181 H 0.17383 0.67390 -0.16576
 H182 H 0.15928 0.65921 -0.15170
 N183 N 0.13507 0.18576 0.32838
 N184 N 0.13521 0.17317 0.31614
 C185 C 0.12136 0.17586 0.30494
 C186 C 0.11201 0.19098 0.31048
 C187 C 0.12117 0.19685 0.32544
 H188 H 0.11839 0.16747 0.29360
 H189 H 0.11807 0.20837 0.33361
 Cu190 Cu 0.15378 0.15481 0.31598
 Cu191 Cu 0.15292 0.18703 0.34722
 Cu192 Cu 0.18586 0.15421 0.34734
 N193 N 0.17219 0.13631 0.31627
 N194 N 0.18474 0.13628 0.32853
 C195 C 0.19588 0.12239 0.32566
 C196 C 0.19007 0.11313 0.31074
 C197 C 0.17496 0.12240 0.30514
 H198 H 0.20738 0.11936 0.33387
 H199 H 0.16660 0.11934 0.29380
 N200 N 0.18465 0.17352 0.36522
 N201 N 0.17214 0.18603 0.36516
 C202 C 0.17502 0.19729 0.37888
 C203 C 0.19010 0.19164 0.38808
 C204 C 0.19580 0.17649 0.37899
 H205 H 0.16673 0.20878 0.38191
 H206 H 0.20725 0.16821 0.38211
 H207 H 0.17323 0.17439 0.33329
 H208 H 0.15880 0.15990 0.34764
 N209 N 0.63496 0.31411 0.67157
 N210 N 0.63522 0.32649 0.68401
 C211 C 0.62141 0.32371 0.69523
 C212 C 0.61198 0.30873 0.68954
 C213 C 0.62105 0.30304 0.67444
 H214 H 0.61851 0.33197 0.70670
 H215 H 0.61788 0.29164 0.66613
 Cu216 Cu 0.65371 0.34489 0.68426
 Cu217 Cu 0.65276 0.31306 0.65265
 Cu218 Cu 0.68534 0.34619 0.65239
 N219 N 0.67203 0.36345 0.68403
 N220 N 0.68409 0.36408 0.67128
 C221 C 0.69497 0.37818 0.67408
 C222 C 0.68955 0.38681 0.68949
 C223 C 0.67495 0.37707 0.69547
 H224 H 0.70626 0.38165 0.66574
 H225 H 0.66697 0.37983 0.70718
 N226 N 0.68429 0.32683 0.63450
 N227 N 0.67190 0.31423 0.63462
 C228 C 0.67484 0.30295 0.62093
 C229 C 0.68985 0.30865 0.61166
 C230 C 0.69546 0.32387 0.62071
 H231 H 0.66663 0.29142 0.61796
 H232 H 0.70685 0.33220 0.61755
 H233 H 0.67317 0.32578 0.66640
 H234 H 0.65836 0.34028 0.65244
 N235 N 0.63465 0.81448 1.17164
 N236 N 0.63478 0.82712 1.18384
 C237 C 0.62115 0.82429 1.19526
 C238 C 0.61194 0.80904 1.18992
 C239 C 0.62096 0.80324 1.17484
 H240 H 0.61820 0.83272 1.20660
 H241 H 0.61788 0.79168 1.16673
 Cu242 Cu 0.65275 0.84602 1.18343
 Cu243 Cu 0.65238 0.81322 1.15267
 Cu244 Cu 0.68703 0.84398 1.15453
 N245 N 0.67147 0.86419 1.18316
 N246 N 0.68482 0.86330 1.17179
 C247 C 0.69604 0.87710 1.17469
 C248 C 0.68941 0.88727 1.18868
 C249 C 0.67374 0.87864 1.19368
 H250 H 0.70824 0.87935 1.16727
 H251 H 0.66468 0.88250 1.20424
 N252 N 0.68504 0.82576 1.13565
 N253 N 0.67174 0.81415 1.13485
 C254 C 0.67414 0.80346 1.12059
 C255 C 0.68971 0.80856 1.11192
 C256 C 0.69621 0.82281 1.12187
 H257 H 0.66521 0.79270 1.11688
 H258 H 0.70824 0.83045 1.11938
 H259 H 0.67207 0.82469 1.16797
 H260 H 0.65990 0.84007 1.15243
 N261 N 0.13460 0.31510 1.17168
 N262 N 0.13486 0.32742 1.18419
 C263 C 0.12124 0.32442 1.19556
 C264 C 0.11192 0.30936 1.18989
 C265 C 0.12086 0.30384 1.17466
 H266 H 0.11837 0.33260 1.20709
 H267 H 0.11772 0.29246 1.16633
 Cu268 Cu 0.15296 0.34618 1.18430
 Cu269 Cu 0.15227 0.31421 1.15263
 Cu270 Cu 0.18659 0.34524 1.15455
 N271 N 0.17133 0.36470 1.18391
 N272 N 0.18435 0.36435 1.17213
 C273 C 0.19533 0.37834 1.17501
 C274 C 0.18891 0.38806 1.18943
 C275 C 0.17359 0.37896 1.19469
 H276 H 0.20724 0.38103 1.16727
 H277 H 0.16481 0.38232 1.20564
 N278 N 0.18469 0.32713 1.13548
 N279 N 0.17148 0.31542 1.13470
 C280 C 0.17391 0.30475 1.12043
 C281 C 0.18945 0.30992 1.11172
 C282 C 0.19587 0.32423 1.12168
 H283 H 0.16505 0.29392 1.11677
 H284 H 0.20789 0.33190 1.11921
 H285 H 0.17225 0.32551 1.16793
 H286 H 0.15957 0.34115 1.15307
 N287 N 0.13459 0.81463 0.67212
 N288 N 0.13492 0.82694 0.68463
 C289 C 0.12131 0.82398 0.69605
 C290 C 0.11195 0.80894 0.69041
 C291 C 0.12084 0.80341 0.67515
 H292 H 0.11846 0.83218 0.70757
 H293 H 0.11767 0.79203 0.66682
 Cu294 Cu 0.15306 0.84565 0.68446
 Cu295 Cu 0.15220 0.81369 0.65296
 Cu296 Cu 0.18655 0.84488 0.65479
 N297 N 0.17128 0.86432 0.68417
 N298 N 0.18423 0.86404 0.67233
 C299 C 0.19516 0.87808 0.67514
 C300 C 0.18876 0.88779 0.68957
 C301 C 0.17351 0.87863 0.69491
 H302 H 0.20704 0.88076 0.66736
 H303 H 0.16477 0.88199 0.70590
 N304 N 0.18464 0.82670 0.63577
 N305 N 0.17145 0.81495 0.63501
 C306 C 0.17391 0.80428 0.62075
 C307 C 0.18942 0.80951 0.61201
 C308 C 0.19580 0.82383 0.62196
 H309 H 0.16510 0.79341 0.61710
 H310 H 0.20778 0.83156 0.61945
 H311 H 0.17222 0.82500 0.66785
 H312 H 0.15947 0.84065 0.65312
 N313 N 0.36537 0.68486 0.67203
 N314 N 0.36440 0.67305 0.68500
 C315 C 0.37786 0.67605 0.69658
 C316 C 0.38783 0.69049 0.69050
 C317 C 0.37948 0.69570 0.67486
 H318 H 0.38032 0.66825 0.70847
 H319 H 0.38311 0.70686 0.66641
 Cu320 Cu 0.34575 0.65477 0.68532
 Cu321 Cu 0.34767 0.68613 0.65302
 Cu322 Cu 0.31268 0.65574 0.65501
 N323 N 0.32759 0.63602 0.68428
 N324 N 0.31470 0.63645 0.67238
 C325 C 0.30369 0.62241 0.67502
 C326 C 0.31002 0.61251 0.68936
 C327 C 0.32528 0.62159 0.69483
 H328 H 0.29178 0.61987 0.66725
 H329 H 0.33398 0.61812 0.70580
 N330 N 0.31489 0.67388 0.63603
 N331 N 0.32830 0.68535 0.63517
 C332 C 0.32593 0.69608 0.62092
 C333 C 0.31027 0.69114 0.61229
 C334 C 0.30369 0.67695 0.62230
 H335 H 0.33492 0.70680 0.61720
 H336 H 0.29157 0.66944 0.61987
 H337 H 0.32733 0.67554 0.66797
 H338 H 0.33999 0.65932 0.65376
 N339 N 0.36532 0.18460 1.17204
 N340 N 0.36483 0.17222 1.18449
 C341 C 0.37861 0.17479 1.19578
 C342 C 0.38829 0.18962 1.19014
 C343 C 0.37939 0.19544 1.17498
 H344 H 0.38133 0.16651 1.20728
 H345 H 0.38277 0.20679 1.16669
 Cu346 Cu 0.34613 0.15406 1.18466
 Cu347 Cu 0.34752 0.18603 1.15312
 Cu348 Cu 0.31437 0.15350 1.15288
 N349 N 0.32768 0.13567 1.18414
 N350 N 0.31528 0.13557 1.17173
 C351 C 0.30413 0.12170 1.17458
 C352 C 0.30983 0.11250 1.18960
 C353 C 0.32487 0.12179 1.19527
 H354 H 0.29265 0.11868 1.16636
 H355 H 0.33318 0.11874 1.20665
 N356 N 0.31575 0.17281 1.13498
 N357 N 0.32831 0.18524 1.13510
 C358 C 0.32549 0.19656 1.12139
 C359 C 0.31041 0.19102 1.11212
 C360 C 0.30465 0.17587 1.12118
 H361 H 0.33380 0.20803 1.11843
 H362 H 0.29321 0.16762 1.11800
 H363 H 0.32696 0.17365 1.16694
 H364 H 0.34149 0.15891 1.15291
 N365 N 0.86494 0.68479 1.17294
 N366 N 0.86463 0.67236 1.18533
 C367 C 0.87824 0.67520 1.19676
 C368 C 0.88763 0.69025 1.19123
 C369 C 0.87875 0.69594 1.17602
 H370 H 0.88108 0.66690 1.20821
 H371 H 0.88202 0.70730 1.16771
 Cu372 Cu 0.84627 0.65392 1.18524
 Cu373 Cu 0.84737 0.68578 1.15377
 Cu374 Cu 0.81460 0.65279 1.15357
 N375 N 0.82795 0.63543 1.18513
 N376 N 0.81560 0.63511 1.17268
 C377 C 0.80452 0.62122 1.17566
 C378 C 0.81017 0.61230 1.19088
 C379 C 0.82512 0.62176 1.19651
 H380 H 0.79324 0.61790 1.16729
 H381 H 0.83333 0.61895 1.20802
 N382 N 0.81598 0.67192 1.13545
 N383 N 0.82842 0.68447 1.13554
 C384 C 0.82571 0.69553 1.12162
 C385 C 0.81081 0.68971 1.11224
 C386 C 0.80504 0.67466 1.12145
 H387 H 0.83398 0.70701 1.11858
 H388 H 0.79370 0.66629 1.11825
 H389 H 0.82686 0.67319 1.16755
 H390 H 0.84154 0.65864 1.15350
 N391 N 0.86552 0.18385 0.67184
 N392 N 0.86520 0.17141 0.68423
 C393 C 0.87898 0.17408 0.69549
 C394 C 0.88850 0.18902 0.68987
 C395 C 0.87952 0.19480 0.67475
 H396 H 0.88182 0.16578 0.70695
 H397 H 0.88283 0.20613 0.66642
 Cu398 Cu 0.84656 0.15319 0.68445
 Cu399 Cu 0.84771 0.18520 0.65295
 Cu400 Cu 0.81467 0.15257 0.65282
 N401 N 0.82815 0.13476 0.68404
 N402 N 0.81567 0.13468 0.67170
 C403 C 0.80451 0.12083 0.67463
 C404 C 0.81023 0.11171 0.68968
 C405 C 0.82533 0.12095 0.69526
 H406 H 0.79296 0.11779 0.66650
 H407 H 0.83368 0.11782 0.70659
 N408 N 0.81599 0.17182 0.63488
 N409 N 0.82851 0.18429 0.63496
 C410 C 0.82573 0.19549 0.62115
 C411 C 0.81072 0.18982 0.61185
 C412 C 0.80494 0.17474 0.62100
 H413 H 0.83407 0.20691 0.61810
 H414 H 0.79355 0.16643 0.61782
 H415 H 0.82731 0.17269 0.66681
 H416 H 0.84181 0.15803 0.65267
 N417 N 0.31526 0.36530 0.67257
 N418 N 0.32766 0.36490 0.68498
 C419 C 0.32487 0.37856 0.69639
 C420 C 0.30988 0.38805 0.69086
 C421 C 0.30418 0.37918 0.67565
 H422 H 0.33318 0.38138 0.70783
 H423 H 0.29286 0.38254 0.66733
 Cu424 Cu 0.34627 0.34665 0.68483
 Cu425 Cu 0.31428 0.34778 0.65338
 Cu426 Cu 0.34708 0.31481 0.65315
 N427 N 0.36445 0.32798 0.68474
 N428 N 0.36473 0.31560 0.67228
 C429 C 0.37859 0.30445 0.67526
 C430 C 0.38756 0.31010 0.69045
 C431 C 0.37814 0.32512 0.69606
 H432 H 0.38186 0.29311 0.66691
 H433 H 0.38104 0.33341 0.70750
 N434 N 0.32801 0.31632 0.63499
 N435 N 0.31553 0.32886 0.63510
 C436 C 0.30447 0.32624 0.62118
 C437 C 0.31022 0.31130 0.61177
 C438 C 0.32522 0.30541 0.62097
 H439 H 0.29304 0.33460 0.61817
 H440 H 0.33351 0.29398 0.61776
 H441 H 0.32682 0.32732 0.66721
 H442 H 0.34136 0.34190 0.65308
 N443 N 0.31595 0.86572 0.17245
 N444 N 0.32852 0.86564 0.18469
 C445 C 0.32568 0.87937 0.19601
 C446 C 0.31051 0.88862 0.19058
 C447 C 0.30474 0.87952 0.17551
 H448 H 0.33406 0.88236 0.20735
 H449 H 0.29327 0.88264 0.16731
 Cu450 Cu 0.34728 0.84755 0.18479
 Cu451 Cu 0.31493 0.84788 0.15354
 Cu452 Cu 0.34767 0.81492 0.15382
 N453 N 0.36521 0.82863 0.18501
 N454 N 0.36532 0.81598 0.17283
 C455 C 0.37903 0.80472 0.17603
 C456 C 0.38804 0.81055 0.19111
 C457 C 0.37882 0.82579 0.19643
 H458 H 0.38217 0.79320 0.16788
 H459 H 0.38179 0.83423 0.20774
 N460 N 0.32866 0.81610 0.13568
 N461 N 0.31620 0.82865 0.13555
 C462 C 0.30523 0.82583 0.12160
 C463 C 0.31101 0.81073 0.11244
 C464 C 0.32593 0.80496 0.12182
 H465 H 0.29386 0.83419 0.11837
 H466 H 0.33424 0.79348 0.11882
 H467 H 0.32756 0.82787 0.16790
 H468 H 0.34195 0.84208 0.15319
 N469 N 0.81478 0.36506 0.17113
 N470 N 0.82728 0.36497 0.18345
 C471 C 0.82447 0.37879 0.19465
 C472 C 0.80936 0.38808 0.18909
 C473 C 0.80363 0.37894 0.17405
 H474 H 0.83279 0.38179 0.20604
 H475 H 0.79219 0.38206 0.16580
 Cu476 Cu 0.84567 0.34648 0.18393
 Cu477 Cu 0.81373 0.34707 0.15238
 Cu478 Cu 0.84700 0.31458 0.15227
 N479 N 0.86436 0.32828 0.18364
 N480 N 0.86477 0.31586 0.17123
 C481 C 0.87878 0.30490 0.17422
 C482 C 0.88767 0.31067 0.18940
 C483 C 0.87808 0.32560 0.19497
 H484 H 0.88215 0.29356 0.16591
 H485 H 0.88083 0.33388 0.20646
 N486 N 0.82778 0.31559 0.13426
 N487 N 0.81493 0.32777 0.13451
 C488 C 0.80357 0.32457 0.12094
 C489 C 0.80960 0.30974 0.11163
 C490 C 0.82500 0.30442 0.12042
 H491 H 0.79186 0.33255 0.11791
 H492 H 0.83337 0.29305 0.11714
 H493 H 0.82660 0.32684 0.16624
 H494 H 0.84098 0.34160 0.15214
 N495 N 0.81566 0.86522 0.67203
 N496 N 0.82804 0.86505 0.68447
 C497 C 0.82498 0.87866 0.69589
 C498 C 0.80992 0.88791 0.69023
 C499 C 0.80441 0.87902 0.67501
 H500 H 0.83316 0.88171 0.70737
 H501 H 0.79287 0.88214 0.66687
 Cu502 Cu 0.84691 0.84702 0.68465
 Cu503 Cu 0.81470 0.84726 0.65323
 Cu504 Cu 0.84743 0.81430 0.65376
 N505 N 0.86495 0.82815 0.68493
 N506 N 0.86511 0.81548 0.67278
 C507 C 0.87885 0.80427 0.67599
 C508 C 0.88787 0.81015 0.69105
 C509 C 0.87860 0.82538 0.69635
 H510 H 0.88200 0.79271 0.66789
 H511 H 0.88155 0.83386 0.70764
 N512 N 0.82842 0.81534 0.63558
 N513 N 0.81598 0.82791 0.63536
 C514 C 0.80499 0.82499 0.62144
 C515 C 0.81074 0.80982 0.61239
 C516 C 0.82567 0.80410 0.62180
 H517 H 0.79363 0.83335 0.61818
 H518 H 0.83395 0.79259 0.61887
 H519 H 0.82729 0.82731 0.66770
 H520 H 0.84174 0.84147 0.65302
 N521 N 0.68458 0.63507 0.67159
 N522 N 0.67212 0.63511 0.68395
 C523 C 0.67496 0.62115 0.69503
 C524 C 0.69005 0.61186 0.68931
 C525 C 0.69574 0.62117 0.67435
 H526 H 0.66666 0.61803 0.70640
 H527 H 0.70721 0.61817 0.66609
 Cu528 Cu 0.65372 0.65373 0.68438
 Cu529 Cu 0.68563 0.65312 0.65282
 Cu530 Cu 0.65285 0.68608 0.65325
 N531 N 0.63520 0.67226 0.68444
 N532 N 0.63506 0.68486 0.67221
 C533 C 0.62127 0.69606 0.67526
 C534 C 0.61214 0.69025 0.69027
 C535 C 0.62142 0.67505 0.69573
 H536 H 0.61824 0.70766 0.66717
 H537 H 0.61838 0.66663 0.70705
 N538 N 0.67197 0.68507 0.63515
 N539 N 0.68442 0.67250 0.63499
 C540 C 0.69554 0.67549 0.62118
 C541 C 0.68988 0.69071 0.61216
 C542 C 0.67486 0.69638 0.62146
 H543 H 0.70696 0.66718 0.61798
 H544 H 0.66663 0.70794 0.61854
 H545 H 0.67314 0.67329 0.66700
 H546 H 0.65857 0.65892 0.65270
 N547 N 0.68485 0.13500 0.17117
 N548 N 0.67232 0.13538 0.18346
 C549 C 0.67486 0.12158 0.19476
 C550 C 0.68982 0.11199 0.18929
 C551 C 0.69576 0.12096 0.17422
 H552 H 0.66638 0.11870 0.20606
 H553 H 0.70721 0.11765 0.16605
 Cu554 Cu 0.65393 0.15388 0.18329
 Cu555 Cu 0.68625 0.15284 0.15221
 Cu556 Cu 0.65335 0.18581 0.15177
 N557 N 0.63570 0.17255 0.18314
 N558 N 0.63556 0.18499 0.17075
 C559 C 0.62172 0.19619 0.17367
 C560 C 0.61258 0.19047 0.18872
 C561 C 0.62189 0.17538 0.19434
 H562 H 0.61865 0.20769 0.16545
 H563 H 0.61882 0.16698 0.20565
 N564 N 0.67257 0.18438 0.13381
 N565 N 0.68533 0.17211 0.13418
 C566 C 0.69679 0.17519 0.12064
 C567 C 0.69087 0.19001 0.11123
 C568 C 0.67547 0.19544 0.11992
 H569 H 0.70848 0.16715 0.11771
 H570 H 0.66719 0.20686 0.11657
 H571 H 0.67359 0.17332 0.16586
 H572 H 0.65923 0.15877 0.15160
 N573 N 0.18426 0.63586 0.17095
 N574 N 0.17164 0.63585 0.18315
 C575 C 0.17428 0.62186 0.19419
 C576 C 0.18944 0.61260 0.18869
 C577 C 0.19539 0.62196 0.17385
 H578 H 0.16590 0.61883 0.20551
 H579 H 0.20706 0.61905 0.16582
 Cu580 Cu 0.15340 0.65456 0.18379
 Cu581 Cu 0.18549 0.65401 0.15237
 Cu582 Cu 0.15275 0.68701 0.15269
 N583 N 0.13487 0.67297 0.18353
 N584 N 0.13482 0.68570 0.17143
 C585 C 0.12102 0.69689 0.17453
 C586 C 0.11179 0.69087 0.18940
 C587 C 0.12101 0.67561 0.19472
 H588 H 0.11811 0.70863 0.16660
 H589 H 0.11803 0.66715 0.20600
 N590 N 0.17201 0.68606 0.13479
 N591 N 0.18445 0.67349 0.13466
 C592 C 0.19566 0.67651 0.12094
 C593 C 0.19005 0.69175 0.11193
 C594 C 0.17499 0.69742 0.12116
 H595 H 0.20707 0.66819 0.11779
 H596 H 0.16677 0.70898 0.11822
 H597 H 0.17297 0.67421 0.16663
 H598 H 0.15843 0.65986 0.15223
 N599 N 0.18519 0.13494 0.67075
 N600 N 0.17261 0.13506 0.68298
 C601 C 0.17532 0.12123 0.69421
 C602 C 0.19043 0.11188 0.68871
 C603 C 0.19628 0.12103 0.67372
 H604 H 0.16695 0.11825 0.70558
 H605 H 0.20775 0.11790 0.66553
 Cu606 Cu 0.15415 0.15354 0.68301
 Cu607 Cu 0.18651 0.15289 0.65197
 Cu608 Cu 0.15368 0.18589 0.65193
 N609 N 0.13576 0.17208 0.68294
 N610 N 0.13570 0.18470 0.67072
 C611 C 0.12182 0.19582 0.67366
 C612 C 0.11259 0.18995 0.68861
 C613 C 0.12189 0.17480 0.69412
 H614 H 0.11873 0.20732 0.66547
 H615 H 0.11885 0.16639 0.70545
 N616 N 0.17303 0.18475 0.63408
 N617 N 0.18552 0.17222 0.63411
 C618 C 0.19680 0.17516 0.62043
 C619 C 0.19118 0.19029 0.61126
 C620 C 0.17603 0.19597 0.62035
 H621 H 0.20826 0.16686 0.61740
 H622 H 0.16775 0.20744 0.61724
 H623 H 0.17382 0.17312 0.66596
 H624 H 0.15947 0.15879 0.65141
 N625 N 0.31409 0.63556 0.32804
 N626 N 0.32665 0.63556 0.31578
 C627 C 0.32371 0.62185 0.30447
 C628 C 0.30847 0.61272 0.30991
 C629 C 0.30275 0.62189 0.32495
 H630 H 0.33208 0.61877 0.29313
 H631 H 0.29122 0.61891 0.33311
 Cu632 Cu 0.34566 0.65342 0.31589
 Cu633 Cu 0.31326 0.65330 0.34704
 Cu634 Cu 0.34661 0.68558 0.34737
 N635 N 0.36390 0.67206 0.31589
 N636 N 0.36425 0.68448 0.32829
 C637 C 0.37812 0.69556 0.32524
 C638 C 0.38707 0.68982 0.31007
 C639 C 0.37758 0.67483 0.30451
 H640 H 0.38140 0.70695 0.33352
 H641 H 0.38041 0.66654 0.29305
 N642 N 0.32752 0.68445 0.36549
 N643 N 0.31465 0.67233 0.36519
 C644 C 0.30333 0.67549 0.37881
 C645 C 0.30942 0.69023 0.38820
 C646 C 0.32482 0.69553 0.37941
 H647 H 0.29157 0.66758 0.38179
 H648 H 0.33319 0.70688 0.38269
 H649 H 0.32637 0.67340 0.33306
 H650 H 0.34047 0.65868 0.34753
 N651 N 0.31431 0.13504 0.82820
 N652 N 0.32667 0.13525 0.81574
 C653 C 0.32385 0.12142 0.80454
 C654 C 0.30888 0.11201 0.81027
 C655 C 0.30321 0.12113 0.82535
 H656 H 0.33210 0.11846 0.79309
 H657 H 0.29185 0.11797 0.83369
 Cu658 Cu 0.34519 0.15363 0.81543
 Cu659 Cu 0.31335 0.15289 0.84709
 Cu660 Cu 0.34671 0.18526 0.84732
 N661 N 0.36390 0.17180 0.81573
 N662 N 0.36445 0.18405 0.82829
 C663 C 0.37852 0.19492 0.82539
 C664 C 0.38738 0.18923 0.81015
 C665 C 0.37766 0.17447 0.80441
 H666 H 0.38194 0.20618 0.83378
 H667 H 0.38034 0.16628 0.79283
 N668 N 0.32750 0.18422 0.86537
 N669 N 0.31464 0.17208 0.86509
 C670 C 0.30327 0.17528 0.87867
 C671 C 0.30931 0.19008 0.88801
 C672 C 0.32473 0.19536 0.87923
 H673 H 0.29153 0.16736 0.88166
 H674 H 0.33308 0.20672 0.88252
 H675 H 0.32617 0.17323 0.83338
 H676 H 0.34056 0.15830 0.84728
 N677 N 0.81379 0.63486 0.82717
 N678 N 0.82693 0.63423 0.81555
 C679 C 0.82450 0.61995 0.80481
 C680 C 0.80889 0.61123 0.80991
 C681 C 0.80250 0.62113 0.82419
 H682 H 0.83342 0.61625 0.79407
 H683 H 0.79048 0.61870 0.83183
 Cu684 Cu 0.84566 0.65243 0.81556
 Cu685 Cu 0.81198 0.65379 0.84494
 Cu686 Cu 0.84699 0.68416 0.84733
 N687 N 0.86410 0.67090 0.81554
 N688 N 0.86463 0.68309 0.82816
 C689 C 0.87858 0.69410 0.82525
 C690 C 0.88738 0.68858 0.80991
 C691 C 0.87777 0.67374 0.80415
 H692 H 0.88202 0.70525 0.83377
 H693 H 0.88049 0.66562 0.79253
 N694 N 0.82763 0.68302 0.86521
 N695 N 0.81417 0.67161 0.86419
 C696 C 0.80302 0.67443 0.87802
 C697 C 0.80971 0.68835 0.88828
 C698 C 0.82537 0.69342 0.87972
 H699 H 0.79086 0.66694 0.88034
 H700 H 0.83445 0.70396 0.88366
 H701 H 0.82705 0.67345 0.83214
 H702 H 0.83934 0.65743 0.84689
 N703 N 0.81492 0.13443 0.32691
 N704 N 0.82740 0.13473 0.31458
 C705 C 0.82454 0.12118 0.30307
 C706 C 0.80947 0.11178 0.30851
 C707 C 0.80375 0.12065 0.32373
 H708 H 0.83289 0.11834 0.29166
 H709 H 0.79238 0.11735 0.33200
 Cu710 Cu 0.84637 0.15260 0.31483
 Cu711 Cu 0.81404 0.15191 0.34613
 Cu712 Cu 0.84678 0.18476 0.34643
 N713 N 0.86419 0.17160 0.31490
 N714 N 0.86438 0.18402 0.32730
 C715 C 0.87815 0.19524 0.32427
 C716 C 0.88713 0.18961 0.30908
 C717 C 0.87781 0.17455 0.30351
 H718 H 0.88137 0.20660 0.33261
 H719 H 0.88073 0.16625 0.29207
 N720 N 0.82779 0.18323 0.36463
 N721 N 0.81531 0.17073 0.36450
 C722 C 0.80425 0.17336 0.37844
 C723 C 0.80999 0.18829 0.38786
 C724 C 0.82501 0.19413 0.37867
 H725 H 0.79281 0.16503 0.38145
 H726 H 0.83332 0.20553 0.38188
 H727 H 0.82681 0.17223 0.33206
 H728 H 0.84117 0.15775 0.34654
 N729 N 0.68520 0.36432 0.32818
 N730 N 0.67262 0.36432 0.31595
 C731 C 0.67545 0.37813 0.30472
 C732 C 0.69065 0.38731 0.31023
 C733 C 0.69644 0.37807 0.32517
 H734 H 0.66705 0.38125 0.29342
 H735 H 0.70794 0.38107 0.33336
 Cu736 Cu 0.65371 0.34633 0.31607
 Cu737 Cu 0.68624 0.34656 0.34709
 Cu738 Cu 0.65351 0.31371 0.34717
 N739 N 0.63576 0.32741 0.31603
 N740 N 0.63577 0.31478 0.32823
 C741 C 0.62204 0.30352 0.32519
 C742 C 0.61280 0.30937 0.31026
 C743 C 0.62197 0.32461 0.30481
 H744 H 0.61905 0.29196 0.33333
 H745 H 0.61885 0.33306 0.29353
 N746 N 0.67264 0.31496 0.36519
 N747 N 0.68512 0.32747 0.36515
 C748 C 0.69631 0.32462 0.37891
 C749 C 0.69067 0.30955 0.38813
 C750 C 0.67557 0.30382 0.37901
 H751 H 0.70777 0.33291 0.38193
 H752 H 0.66731 0.29235 0.38212
 H753 H 0.67342 0.32641 0.33290
 H754 H 0.65914 0.34069 0.34762
 N755 N 0.68518 0.86420 0.82810
 N756 N 0.67268 0.86404 0.81579
 C757 C 0.67548 0.87785 0.80453
 C758 C 0.69061 0.88714 0.81007
 C759 C 0.69637 0.87800 0.82509
 H760 H 0.66707 0.88097 0.79323
 H761 H 0.70794 0.88100 0.83319
 Cu762 Cu 0.65404 0.84572 0.81596
 Cu763 Cu 0.68616 0.84652 0.84717
 Cu764 Cu 0.65313 0.81381 0.84758
 N765 N 0.63558 0.82722 0.81612
 N766 N 0.63525 0.81490 0.82865
 C767 C 0.62132 0.80383 0.82579
 C768 C 0.61238 0.80945 0.81061
 C769 C 0.62183 0.82437 0.80483
 H770 H 0.61814 0.79233 0.83396
 H771 H 0.61879 0.83261 0.79338
 N772 N 0.67244 0.81504 0.86552
 N773 N 0.68497 0.82750 0.86536
 C774 C 0.69619 0.82469 0.87912
 C775 C 0.69052 0.80970 0.88847
 C776 C 0.67537 0.80398 0.87940
 H777 H 0.70768 0.83297 0.88208
 H778 H 0.66708 0.79257 0.88262
 H779 H 0.67338 0.82606 0.83348
 H780 H 0.65902 0.84074 0.84766
 N781 N 0.18460 0.36482 0.82806
 N782 N 0.17191 0.36471 0.81595
 C783 C 0.17457 0.37846 0.80461
 C784 C 0.18976 0.38777 0.80991
 C785 C 0.19571 0.37865 0.82490
 H786 H 0.16608 0.38145 0.79334
 H787 H 0.20724 0.38179 0.83300
 Cu788 Cu 0.15322 0.34649 0.81615
 Cu789 Cu 0.18593 0.34697 0.84698
 Cu790 Cu 0.15306 0.31416 0.84742
 N791 N 0.13522 0.32762 0.81625
 N792 N 0.13528 0.31500 0.82847
 C793 C 0.12163 0.30364 0.82540
 C794 C 0.11243 0.30939 0.81040
 C795 C 0.12150 0.32469 0.80498
 H796 H 0.11868 0.29207 0.83354
 H797 H 0.11837 0.33310 0.79368
 N798 N 0.17221 0.31553 0.86542
 N799 N 0.18498 0.32776 0.86504
 C800 C 0.19640 0.32470 0.87860
 C801 C 0.19045 0.30992 0.88806
 C802 C 0.17507 0.30449 0.87934
 H803 H 0.20810 0.33271 0.88152
 H804 H 0.16679 0.29309 0.88269
 H805 H 0.17306 0.32681 0.83306
 H806 H 0.15890 0.34123 0.84775
 N807 N 0.18443 0.86528 0.32837
 N808 N 0.17203 0.86484 0.31597
 C809 C 0.17462 0.87863 0.30466
 C810 C 0.18948 0.88827 0.31024
 C811 C 0.19532 0.87933 0.32538
 H812 H 0.16630 0.88141 0.29322
 H813 H 0.20669 0.88266 0.33363
 Cu814 Cu 0.15373 0.84625 0.31592
 Cu815 Cu 0.18579 0.84744 0.34731
 Cu816 Cu 0.15280 0.81470 0.34790
 N817 N 0.13524 0.82787 0.31645
 N818 N 0.13496 0.81560 0.32901
 C819 C 0.12102 0.80453 0.32622
 C820 C 0.11195 0.81016 0.31110
 C821 C 0.12142 0.82506 0.30529
 H822 H 0.11784 0.79317 0.33459
 H823 H 0.11851 0.83326 0.29378
 N824 N 0.17206 0.81603 0.36579
 N825 N 0.18485 0.82824 0.36536
 C826 C 0.19634 0.82511 0.37885
 C827 C 0.19042 0.81032 0.38830
 C828 C 0.17497 0.80495 0.37966
 H829 H 0.20806 0.83310 0.38173
 H830 H 0.16668 0.79357 0.38303
 H831 H 0.17310 0.82694 0.33370
 H832 H 0.15863 0.84180 0.34768
 C833 C 0.24326 1.00069 0.25685
 C834 C 0.25635 1.00068 0.24414
 C835 C 0.26366 1.01760 0.23654
 C836 C 0.26414 0.98381 0.23692
 C837 C 0.23542 0.98381 0.26403
 C838 C 0.23597 1.01764 0.26447
 C839 C 0.25242 1.03057 0.22884
 C840 C 0.25966 1.04622 0.22154
 C841 C 0.27830 1.04904 0.22150
 C842 C 0.28950 1.03586 0.22896
 C843 C 0.28225 1.02033 0.23641
 C844 C 0.26504 0.98140 0.21840
 C845 C 0.27252 0.96586 0.21121
 C846 C 0.27924 0.95230 0.22239
 C847 C 0.27856 0.95483 0.24096
 C848 C 0.27126 0.97053 0.24815
 C849 C 0.23452 0.98135 0.28254
 C850 C 0.22697 0.96584 0.28971
 C851 C 0.22018 0.95234 0.27852
 C852 C 0.22085 0.95491 0.25995
 C853 C 0.22824 0.97057 0.25278
 C854 C 0.24725 1.03074 0.27187
 C855 C 0.24003 1.04647 0.27906
 C856 C 0.22138 1.04921 0.27938
 C857 C 0.21014 1.03586 0.27232
 C858 C 0.21737 1.02029 0.26491
 H859 H 0.23806 1.02858 0.22847
 H860 H 0.25066 1.05618 0.21603
 H861 H 0.30392 1.03741 0.22882
 H862 H 0.29118 1.01039 0.24208
 H863 H 0.25991 0.99159 0.20946
 H864 H 0.27324 0.96457 0.19686
 H865 H 0.27113 0.97229 0.26247
 H866 H 0.23973 0.99148 0.29150
 H867 H 0.22629 0.96452 0.30405
 H868 H 0.21586 0.94472 0.25095
 H869 H 0.22840 0.97235 0.23846
 H870 H 0.26163 1.02882 0.27206
 H871 H 0.24908 1.05653 0.28427
 H872 H 0.19572 1.03731 0.27273
 H873 H 0.20841 1.01024 0.25952
 H874 H 0.28351 0.94460 0.24995
 C875 C 0.24332 0.50044 0.75677
 C876 C 0.25638 0.50055 0.74403
 C877 C 0.26373 0.51751 0.73645
 C878 C 0.26420 0.48370 0.73681
 C879 C 0.23554 0.48349 0.76390
 C880 C 0.23608 0.51730 0.76457
 C881 C 0.25251 0.53072 0.72909
 C882 C 0.25982 0.54631 0.72169
 C883 C 0.27851 0.54885 0.72118
 C884 C 0.28966 0.53544 0.72830
 C885 C 0.28235 0.51999 0.73587
 C886 C 0.26502 0.48122 0.71830
 C887 C 0.27247 0.46565 0.71115
 C888 C 0.27922 0.45214 0.72236
 C889 C 0.27864 0.45474 0.74092
 C890 C 0.27139 0.47048 0.74807
 C891 C 0.23474 0.48090 0.78240
 C892 C 0.22730 0.46530 0.78950
 C893 C 0.22053 0.45183 0.77826
 C894 C 0.22111 0.45452 0.75970
 C895 C 0.22838 0.47028 0.75260
 C896 C 0.24741 0.53032 0.77202
 C897 C 0.24024 0.54598 0.77939
 C898 C 0.22159 0.54872 0.77982
 C899 C 0.21030 0.53542 0.77275
 C900 C 0.21748 0.51992 0.76518
 H901 H 0.23812 0.52895 0.72904
 H902 H 0.25083 0.55643 0.71648
 H903 H 0.30410 0.53672 0.72778
 H904 H 0.29128 0.50989 0.74126
 H905 H 0.25983 0.49137 0.70935
 H906 H 0.27310 0.46428 0.69680
 H907 H 0.27132 0.47229 0.76238
 H908 H 0.23993 0.49099 0.79140
 H909 H 0.22670 0.46388 0.80384
 H910 H 0.21614 0.44437 0.75066
 H911 H 0.22847 0.47214 0.73829
 H912 H 0.26179 0.52839 0.77210
 H913 H 0.24932 0.55600 0.78461
 H914 H 0.19588 0.53687 0.77327
 H915 H 0.20848 0.50992 0.75976
 H916 H 0.28359 0.44454 0.74993
 C917 C 0.74290 -0.00074 0.24271
 C918 C 0.75598 -0.00079 0.25542
 C919 C 0.76314 -0.01773 0.26306
 C920 C 0.76389 0.01604 0.26261
 C921 C 0.73514 0.01616 0.23550
 C922 C 0.73554 -0.01764 0.23515
 C923 C 0.75180 -0.03055 0.27086
 C924 C 0.75893 -0.04621 0.27825
 C925 C 0.77755 -0.04919 0.27825
 C926 C 0.78884 -0.03616 0.27073
 C927 C 0.78170 -0.02063 0.26319
 C928 C 0.76490 0.01844 0.28113
 C929 C 0.77240 0.03398 0.28828
 C930 C 0.77903 0.04754 0.27707
 C931 C 0.77832 0.04499 0.25850
 C932 C 0.77100 0.02930 0.25134
 C933 C 0.73423 0.01859 0.21698
 C934 C 0.72683 0.03419 0.20983
 C935 C 0.72021 0.04778 0.22103
 C936 C 0.72088 0.04522 0.23960
 C937 C 0.72810 0.02947 0.24676
 C938 C 0.74675 -0.03072 0.22755
 C939 C 0.73946 -0.04634 0.22026
 C940 C 0.72080 -0.04903 0.22012
 C941 C 0.70964 -0.03576 0.22747
 C942 C 0.71694 -0.02026 0.23492
 H943 H 0.73745 -0.02840 0.27125
 H944 H 0.74986 -0.05604 0.28386
 H945 H 0.80325 -0.03782 0.27090
 H946 H 0.79070 -0.01080 0.25746
 H947 H 0.75982 0.00826 0.29009
 H948 H 0.77315 0.03528 0.30263
 H949 H 0.77082 0.02753 0.23703
 H950 H 0.73932 0.00839 0.20803
 H951 H 0.72614 0.03551 0.19548
 H952 H 0.71603 0.05548 0.24860
 H953 H 0.72825 0.02770 0.26108
 H954 H 0.76113 -0.02882 0.22724
 H955 H 0.74843 -0.05637 0.21484
 H956 H 0.69521 -0.03720 0.22723
 H957 H 0.70804 -0.01025 0.24051
 H958 H 0.78320 0.05522 0.24949
 C959 C 0.74284 0.49893 0.74313
 C960 C 0.75630 0.49885 0.75536
 C961 C 0.76349 0.48163 0.76224
 C962 C 0.76358 0.51562 0.76338
 C963 C 0.73552 0.51580 0.73529
 C964 C 0.73563 0.48179 0.73615
 C965 C 0.75400 0.47208 0.77523
 C966 C 0.76098 0.45618 0.78225
 C967 C 0.77786 0.44974 0.77675
 C968 C 0.78712 0.45928 0.76341
 C969 C 0.77983 0.47484 0.75599
 C970 C 0.75215 0.52843 0.77113
 C971 C 0.75912 0.54419 0.77852
 C972 C 0.77771 0.54732 0.77857
 C973 C 0.78911 0.53429 0.77121
 C974 C 0.78214 0.51870 0.76367
 C975 C 0.74693 0.52874 0.72776
 C976 C 0.73993 0.54457 0.72051
 C977 C 0.72133 0.54766 0.72037
 C978 C 0.70995 0.53452 0.72756
 C979 C 0.71695 0.51882 0.73493
 C980 C 0.74486 0.47254 0.72274
 C981 C 0.73788 0.45666 0.71570
 C982 C 0.72138 0.44986 0.72178
 C983 C 0.71241 0.45902 0.73556
 C984 C 0.71961 0.47468 0.74284
 H985 H 0.74117 0.47696 0.77994
 H986 H 0.75309 0.44897 0.79200
 H987 H 0.80021 0.45501 0.75887
 H988 H 0.78708 0.48168 0.74551
 H989 H 0.73781 0.52628 0.77139
 H990 H 0.74995 0.55401 0.78399
 H991 H 0.79140 0.50922 0.75789
 H992 H 0.76128 0.52661 0.72752
 H993 H 0.74910 0.55445 0.71519
 H994 H 0.69555 0.53627 0.72731
 H995 H 0.70772 0.50918 0.74049
 H996 H 0.75748 0.47765 0.71774
 H997 H 0.74543 0.44972 0.70549
 H998 H 0.69961 0.45434 0.74049
 H999 H 0.71257 0.48135 0.75357
 H1000 H 0.80350 0.53606 0.77139
 C1001 C 0.24279 0.50029 0.24284
 C1002 C 0.25576 0.50028 0.25567
 C1003 C 0.26356 0.48338 0.26286
 C1004 C 0.26296 0.51720 0.26339
 C1005 C 0.23551 0.51722 0.23519
 C1006 C 0.23505 0.48342 0.23557
 C1007 C 0.26451 0.48095 0.28137
 C1008 C 0.27208 0.46543 0.28853
 C1009 C 0.27882 0.45190 0.27732
 C1010 C 0.27808 0.45445 0.25876
 C1011 C 0.27071 0.47013 0.25160
 C1012 C 0.25161 0.53027 0.27079
 C1013 C 0.25875 0.54598 0.27808
 C1014 C 0.27739 0.54876 0.27845
 C1015 C 0.28870 0.53544 0.27139
 C1016 C 0.28156 0.51988 0.26392
 C1017 C 0.24681 0.53037 0.22791
 C1018 C 0.23961 0.54613 0.22075
 C1019 C 0.22094 0.54886 0.22037
 C1020 C 0.20970 0.53545 0.22732
 C1021 C 0.21691 0.51985 0.23467
 C1022 C 0.23453 0.48088 0.21705
 C1023 C 0.22701 0.46539 0.20982
 C1024 C 0.21983 0.45204 0.22094
 C1025 C 0.22013 0.45470 0.23951
 C1026 C 0.22753 0.47032 0.24675
 H1027 H 0.25936 0.49111 0.29034
 H1028 H 0.27284 0.46414 0.30287
 H1029 H 0.28304 0.44424 0.24975
 H1030 H 0.27057 0.47190 0.23728
 H1031 H 0.23724 0.52833 0.27089
 H1032 H 0.24965 0.55600 0.28329
 H1033 H 0.29057 0.50987 0.25850
 H1034 H 0.26120 0.52847 0.22782
 H1035 H 0.24868 0.55623 0.21566
 H1036 H 0.19528 0.53689 0.22688
 H1037 H 0.20793 0.50978 0.24000
 H1038 H 0.23999 0.49093 0.20816
 H1039 H 0.22663 0.46397 0.19547
 H1040 H 0.21481 0.44462 0.24844
 H1041 H 0.22740 0.47217 0.26106
 H1042 H 0.30312 0.53692 0.27185
 C1043 C 0.74309 1.00008 0.75632
 C1044 C 0.75698 1.00000 0.74459
 C1045 C 0.76434 1.01695 0.73717
 C1046 C 0.76421 0.98295 0.73732
 C1047 C 0.73574 0.98313 0.76387
 C1048 C 0.73585 1.01721 0.76342
 C1049 C 0.75351 1.02829 0.72681
 C1050 C 0.76048 1.04409 0.71957
 C1051 C 0.77856 1.04871 0.72226
 C1052 C 0.78935 1.03729 0.73262
 C1053 C 0.78228 1.02168 0.74009
 C1054 C 0.75408 0.97290 0.72517
 C1055 C 0.76094 0.95699 0.71800
 C1056 C 0.77815 0.95090 0.72277
 C1057 C 0.78811 0.96091 0.73518
 C1058 C 0.78115 0.97668 0.74246
 C1059 C 0.74690 0.97120 0.77321
 C1060 C 0.73999 0.95532 0.78038
 C1061 C 0.72167 0.95121 0.77869
 C1062 C 0.71051 0.96333 0.76959
 C1063 C 0.71749 0.97899 0.76215
 C1064 C 0.74587 1.02726 0.77565
 C1065 C 0.73896 1.04318 0.78275
 C1066 C 0.72173 1.04925 0.77796
 C1067 C 0.71191 1.03922 0.76543
 C1068 C 0.71902 1.02356 0.75803
 H1069 H 0.73965 1.02486 0.72427
 H1070 H 0.75170 1.05271 0.71192
 H1071 H 0.80338 1.04024 0.73475
 H1072 H 0.79092 1.01344 0.74822
 H1073 H 0.74086 0.97742 0.72122
 H1074 H 0.75274 0.94943 0.70879
 H1075 H 0.78897 0.98381 0.75229
 H1076 H 0.76098 0.97418 0.77498
 H1077 H 0.74904 0.94622 0.78713
 H1078 H 0.69628 0.96084 0.76837
 H1079 H 0.70851 0.98771 0.75495
 H1080 H 0.75906 1.02275 0.77969
 H1081 H 0.74718 1.05072 0.79196
 H1082 H 0.69856 1.04324 0.76148
 H1083 H 0.71137 1.01654 0.74800
 H1084 H 0.80144 0.95673 0.73906
 C1085 C 0.74334 0.50004 0.25676
 C1086 C 0.75628 0.50003 0.24391
 C1087 C 0.76408 0.51691 0.23675
 C1088 C 0.76349 0.48312 0.23619
 C1089 C 0.73611 0.48313 0.26445
 C1090 C 0.73558 0.51693 0.26400
 C1091 C 0.76466 0.51956 0.21826
 C1092 C 0.77212 0.53513 0.21115
 C1093 C 0.77916 0.54845 0.22239
 C1094 C 0.77880 0.54569 0.24093
 C1095 C 0.77150 0.52997 0.24804
 C1096 C 0.75214 0.47005 0.22885
 C1097 C 0.75927 0.45432 0.22159
 C1098 C 0.77792 0.45154 0.22116
 C1099 C 0.78923 0.46485 0.22818
 C1100 C 0.78208 0.48043 0.23563
 C1101 C 0.74745 0.47000 0.27176
 C1102 C 0.74029 0.45427 0.27895
 C1103 C 0.72164 0.45153 0.27933
 C1104 C 0.71035 0.46492 0.27241
 C1105 C 0.71751 0.48051 0.26502
 C1106 C 0.73478 0.51939 0.28251
 C1107 C 0.72731 0.53494 0.28969
 C1108 C 0.72054 0.54847 0.27851
 C1109 C 0.72113 0.54590 0.25995
 C1110 C 0.72840 0.53019 0.25276
 H1111 H 0.75926 0.50955 0.20928
 H1112 H 0.77255 0.53665 0.19681
 H1113 H 0.78399 0.55575 0.24995
 H1114 H 0.77158 0.52803 0.26234
 H1115 H 0.73776 0.47201 0.22876
 H1116 H 0.75018 0.44428 0.21642
 H1117 H 0.79110 0.49045 0.24099
 H1118 H 0.76183 0.47190 0.27184
 H1119 H 0.74937 0.44419 0.28408
 H1120 H 0.69593 0.46348 0.27291
 H1121 H 0.70851 0.49057 0.25969
 H1122 H 0.73999 0.50923 0.29145
 H1123 H 0.72669 0.53628 0.30404
 H1124 H 0.71617 0.55613 0.25097
 H1125 H 0.72848 0.52842 0.23844
 H1126 H 0.80365 0.46337 0.22769
 C1127 C 0.24338 -0.00043 0.74307
 C1128 C 0.25626 -0.00043 0.75597
 C1129 C 0.26404 -0.01733 0.76317
 C1130 C 0.26344 0.01649 0.76372
 C1131 C 0.23613 0.01647 0.73534
 C1132 C 0.23568 -0.01732 0.73582
 C1133 C 0.26464 -0.01995 0.78167
 C1134 C 0.27216 -0.03550 0.78880
 C1135 C 0.27925 -0.04885 0.77759
 C1136 C 0.27888 -0.04610 0.75904
 C1137 C 0.27151 -0.03041 0.75191
 C1138 C 0.25206 0.02961 0.77101
 C1139 C 0.25919 0.04531 0.77833
 C1140 C 0.27784 0.04802 0.77885
 C1141 C 0.28916 0.03466 0.77189
 C1142 C 0.28203 0.01912 0.76439
 C1143 C 0.24746 0.02962 0.72811
 C1144 C 0.24029 0.04534 0.72086
 C1145 C 0.22163 0.04803 0.72031
 C1146 C 0.21034 0.03461 0.72718
 C1147 C 0.21752 0.01904 0.73463
 C1148 C 0.23523 -0.01991 0.71731
 C1149 C 0.22759 -0.03534 0.71009
 C1150 C 0.22023 -0.04859 0.72121
 C1151 C 0.22055 -0.04593 0.73978
 C1152 C 0.22807 -0.03037 0.74701
 H1153 H 0.25923 -0.00992 0.79062
 H1154 H 0.27259 -0.03698 0.80315
 H1155 H 0.28411 -0.05617 0.75003
 H1156 H 0.27161 -0.02849 0.73761
 H1157 H 0.23768 0.02772 0.77099
 H1158 H 0.25009 0.05538 0.78345
 H1159 H 0.29107 0.00908 0.75905
 H1160 H 0.26185 0.02775 0.72813
 H1161 H 0.24937 0.05546 0.71582
 H1162 H 0.19592 0.03603 0.72661
 H1163 H 0.20852 0.00896 0.73989
 H1164 H 0.24080 -0.00992 0.70842
 H1165 H 0.22723 -0.03677 0.69574
 H1166 H 0.21514 -0.05596 0.74872
 H1167 H 0.22794 -0.02849 0.76131
 H1168 H 0.30358 0.03610 0.77246
 C1169 C 0.25625 0.24339 0.99986
 C1170 C 0.24382 0.25677 0.99983
 C1171 C 0.23585 0.26417 1.01650
 C1172 C 0.23684 0.26389 0.98274
 C1173 C 0.26320 0.23616 0.98280
 C1174 C 0.26432 0.23617 1.01656
 C1175 C 0.22832 0.25281 1.02944
 C1176 C 0.22092 0.25991 1.04507
 C1177 C 0.22064 0.27856 1.04796
 C1178 C 0.22783 0.28989 1.03483
 C1179 C 0.23535 0.28279 1.01934
 C1180 C 0.22334 0.25464 0.97362
 C1181 C 0.21638 0.26150 0.95773
 C1182 C 0.22263 0.27790 0.95079
 C1183 C 0.23649 0.28689 0.95985
 C1184 C 0.24368 0.27981 0.97553
 C1185 C 0.27669 0.24537 0.97360
 C1186 C 0.28358 0.23847 0.95770
 C1187 C 0.27729 0.22207 0.95082
 C1188 C 0.26345 0.21310 0.95994
 C1189 C 0.25634 0.22021 0.97566
 C1190 C 0.27184 0.24769 1.02936
 C1191 C 0.27921 0.24077 1.04507
 C1192 C 0.27949 0.22216 1.04818
 C1193 C 0.27238 0.21067 1.03514
 C1194 C 0.26488 0.21758 1.01956
 H1195 H 0.22821 0.23842 1.02747
 H1196 H 0.21561 0.25078 1.05497
 H1197 H 0.22750 0.30432 1.03644
 H1198 H 0.24094 0.29198 1.00970
 H1199 H 0.21820 0.24211 0.97883
 H1200 H 0.20611 0.25393 0.95087
 H1201 H 0.25446 0.28688 0.98213
 H1202 H 0.28186 0.25791 0.97876
 H1203 H 0.29383 0.24601 0.95079
 H1204 H 0.25836 0.20039 0.95518
 H1205 H 0.24559 0.21315 0.98234
 H1206 H 0.27193 0.26206 1.02723
 H1207 H 0.28447 0.25001 1.05489
 H1208 H 0.27273 0.19626 1.03690
 H1209 H 0.25935 0.20829 1.01000
 H1210 H 0.24154 0.29961 0.95507
 C1211 C 0.25621 0.74356 0.49996
 C1212 C 0.24385 0.75700 0.49994
 C1213 C 0.23582 0.76433 0.51660
 C1214 C 0.23690 0.76418 0.48287
 C1215 C 0.26317 0.73638 0.48289
 C1216 C 0.26419 0.73624 0.51665
 C1217 C 0.22825 0.75290 0.52946
 C1218 C 0.22081 0.75993 0.54509
 C1219 C 0.22049 0.77857 0.54805
 C1220 C 0.22768 0.78997 0.53497
 C1221 C 0.23526 0.78294 0.51949
 C1222 C 0.22342 0.75494 0.47371
 C1223 C 0.21649 0.76182 0.45783
 C1224 C 0.22272 0.77826 0.45095
 C1225 C 0.23654 0.78725 0.46005
 C1226 C 0.24372 0.78014 0.47572
 C1227 C 0.27666 0.74562 0.47372
 C1228 C 0.28358 0.73875 0.45782
 C1229 C 0.27730 0.72236 0.45091
 C1230 C 0.26346 0.71337 0.46000
 C1231 C 0.25631 0.72045 0.47570
 C1232 C 0.27175 0.74769 0.52950
 C1233 C 0.27913 0.74068 0.54516
 C1234 C 0.27938 0.72205 0.54819
 C1235 C 0.27215 0.71064 0.53515
 C1236 C 0.26464 0.71764 0.51961
 H1237 H 0.22816 0.73852 0.52743
 H1238 H 0.21551 0.75075 0.55495
 H1239 H 0.22732 0.80439 0.53664
 H1240 H 0.24085 0.79218 0.50990
 H1241 H 0.21828 0.74239 0.47889
 H1242 H 0.20625 0.75425 0.45094
 H1243 H 0.25447 0.78721 0.48238
 H1244 H 0.28181 0.75815 0.47891
 H1245 H 0.29383 0.74631 0.45093
 H1246 H 0.25837 0.70067 0.45520
 H1247 H 0.24554 0.71339 0.48235
 H1248 H 0.27189 0.76206 0.52743
 H1249 H 0.28445 0.74987 0.55500
 H1250 H 0.27243 0.69622 0.53687
 H1251 H 0.25903 0.70841 0.51004
 H1252 H 0.24158 0.80000 0.45531
 C1253 C 0.24456 0.74483 0.00037
 C1254 C 0.25752 0.75774 0.00033
 C1255 C 0.26475 0.76548 -0.01649
 C1256 C 0.26531 0.76498 0.01711
 C1257 C 0.23677 0.73764 0.01717
 C1258 C 0.23730 0.73705 -0.01640
 C1259 C 0.28335 0.76605 -0.01911
 C1260 C 0.29053 0.77350 -0.03458
 C1261 C 0.27926 0.78051 -0.04789
 C1262 C 0.26060 0.78011 -0.04518
 C1263 C 0.25342 0.77283 -0.02955
 C1264 C 0.27252 0.75362 0.03023
 C1265 C 0.27974 0.76080 0.04587
 C1266 C 0.28025 0.77949 0.04853
 C1267 C 0.27343 0.79079 0.03515
 C1268 C 0.26602 0.78361 0.01966
 C1269 C 0.22950 0.74902 0.03022
 C1270 C 0.22215 0.74187 0.04582
 C1271 C 0.22157 0.72319 0.04850
 C1272 C 0.22849 0.71186 0.03519
 C1273 C 0.23603 0.71901 0.01974
 C1274 C 0.21869 0.73643 -0.01893
 C1275 C 0.21148 0.72895 -0.03436
 C1276 C 0.22274 0.72196 -0.04769
 C1277 C 0.24140 0.72237 -0.04504
 C1278 C 0.24860 0.72967 -0.02945
 H1279 H 0.29235 0.76068 -0.00912
 H1280 H 0.30495 0.77395 -0.03602
 H1281 H 0.25153 0.78525 -0.05521
 H1282 H 0.23904 0.77289 -0.02768
 H1283 H 0.27249 0.73921 0.02840
 H1284 H 0.28474 0.75170 0.05596
 H1285 H 0.26078 0.79263 0.00962
 H1286 H 0.22954 0.76342 0.02835
 H1287 H 0.21707 0.75099 0.05586
 H1288 H 0.22789 0.69742 0.03659
 H1289 H 0.24132 0.70996 0.00974
 H1290 H 0.20970 0.74178 -0.00891
 H1291 H 0.19706 0.72844 -0.03575
 H1292 H 0.25045 0.71722 -0.05508
 H1293 H 0.26298 0.72959 -0.02759
 H1294 H 0.27399 0.80523 0.03655
 C1295 C 0.24427 0.24471 0.49969
 C1296 C 0.25719 0.25768 0.49968
 C1297 C 0.26494 0.26491 0.48286
 C1298 C 0.26442 0.26545 0.51649
 C1299 C 0.23708 0.23691 0.51648
 C1300 C 0.23648 0.23749 0.48291
 C1301 C 0.27221 0.25356 0.46977
 C1302 C 0.27949 0.26074 0.45414
 C1303 C 0.28000 0.27942 0.45148
 C1304 C 0.27307 0.29072 0.46481
 C1305 C 0.26561 0.28354 0.48029
 C1306 C 0.28303 0.26611 0.51905
 C1307 C 0.29021 0.27355 0.53452
 C1308 C 0.27895 0.28047 0.54788
 C1309 C 0.26029 0.27998 0.54522
 C1310 C 0.25310 0.27271 0.52960
 C1311 C 0.21848 0.23620 0.51906
 C1312 C 0.21134 0.22870 0.53453
 C1313 C 0.22265 0.22179 0.54784
 C1314 C 0.24130 0.22230 0.54514
 C1315 C 0.24844 0.22960 0.52952
 C1316 C 0.22916 0.24885 0.46988
 C1317 C 0.22187 0.24170 0.45427
 C1318 C 0.22139 0.22302 0.45158
 C1319 C 0.22832 0.21170 0.46488
 C1320 C 0.23580 0.21885 0.48034
 H1321 H 0.27219 0.23915 0.47160
 H1322 H 0.28456 0.25165 0.44408
 H1323 H 0.27360 0.30516 0.46340
 H1324 H 0.26030 0.29256 0.49030
 H1325 H 0.29203 0.26079 0.50902
 H1326 H 0.30464 0.27407 0.53592
 H1327 H 0.23871 0.27271 0.52778
 H1328 H 0.20944 0.24150 0.50906
 H1329 H 0.19692 0.22812 0.53595
 H1330 H 0.25040 0.21721 0.55517
 H1331 H 0.26282 0.22960 0.52763
 H1332 H 0.22913 0.26325 0.47176
 H1333 H 0.21677 0.25080 0.44423
 H1334 H 0.22777 0.19725 0.46345
 H1335 H 0.24110 0.20981 0.49034
 H1336 H 0.25122 0.28505 0.55530
 C1337 C 0.75684 0.74258 1.00021
 C1338 C 0.74393 0.75560 1.00017
 C1339 C 0.73615 0.76285 1.01696
 C1340 C 0.73670 0.76339 0.98337
 C1341 C 0.76409 0.73474 0.98344
 C1342 C 0.76456 0.73535 1.01705
 C1343 C 0.72871 0.75151 1.02995
 C1344 C 0.72134 0.75870 1.04552
 C1345 C 0.72093 0.77738 1.04823
 C1346 C 0.72802 0.78867 1.03500
 C1347 C 0.73557 0.78148 1.01957
 C1348 C 0.71809 0.76422 0.98089
 C1349 C 0.71089 0.77175 0.96545
 C1350 C 0.72215 0.77857 0.95205
 C1351 C 0.74081 0.77796 0.95465
 C1352 C 0.74801 0.77061 0.97024
 C1353 C 0.78271 0.73383 0.98099
 C1354 C 0.78991 0.72624 0.96559
 C1355 C 0.77866 0.71942 0.95219
 C1356 C 0.75999 0.72014 0.95474
 C1357 C 0.75278 0.72754 0.97031
 C1358 C 0.77191 0.74670 1.03009
 C1359 C 0.77924 0.73952 1.04569
 C1360 C 0.77971 0.72084 1.04840
 C1361 C 0.77269 0.70955 1.03513
 C1362 C 0.76519 0.71672 1.01967
 H1363 H 0.72863 0.73711 1.02806
 H1364 H 0.71613 0.74962 1.05552
 H1365 H 0.72755 0.80311 1.03645
 H1366 H 0.74099 0.79049 1.00962
 H1367 H 0.70908 0.75900 0.99094
 H1368 H 0.69646 0.77240 0.96411
 H1369 H 0.76241 0.77053 0.97203
 H1370 H 0.79171 0.73905 0.99105
 H1371 H 0.80434 0.72553 0.96427
 H1372 H 0.75093 0.71514 0.94464
 H1373 H 0.73839 0.72769 0.97207
 H1374 H 0.77195 0.76110 1.02820
 H1375 H 0.78438 0.74861 1.05570
 H1376 H 0.77320 0.69510 1.03657
 H1377 H 0.75983 0.70770 1.00971
 H1378 H 0.74987 0.78299 0.94456
 C1379 C 0.75670 0.24239 0.49974
 C1380 C 0.74376 0.25537 0.49977
 C1381 C 0.73600 0.26261 0.51659
 C1382 C 0.73655 0.26319 0.48299
 C1383 C 0.76393 0.23459 0.48292
 C1384 C 0.76455 0.23522 0.51654
 C1385 C 0.72874 0.25127 0.52968
 C1386 C 0.72150 0.25844 0.54533
 C1387 C 0.72101 0.27712 0.54803
 C1388 C 0.72787 0.28842 0.53468
 C1389 C 0.73529 0.28125 0.51918
 C1390 C 0.71795 0.26393 0.48040
 C1391 C 0.71082 0.27137 0.46491
 C1392 C 0.72214 0.27822 0.45158
 C1393 C 0.74079 0.27770 0.45427
 C1394 C 0.74792 0.27044 0.46992
 C1395 C 0.78254 0.23383 0.48037
 C1396 C 0.78972 0.22635 0.46490
 C1397 C 0.77847 0.21949 0.45153
 C1398 C 0.75980 0.22007 0.45417
 C1399 C 0.75261 0.22738 0.46979
 C1400 C 0.77189 0.24664 0.52952
 C1401 C 0.77926 0.23954 0.54514
 C1402 C 0.77976 0.22087 0.54792
 C1403 C 0.77280 0.20951 0.53468
 C1404 C 0.76526 0.21661 0.51920
 H1405 H 0.72873 0.23686 0.52782
 H1406 H 0.71644 0.24935 0.55539
 H1407 H 0.72732 0.30287 0.53610
 H1408 H 0.74055 0.29028 0.50915
 H1409 H 0.70891 0.25868 0.49041
 H1410 H 0.69640 0.27196 0.46346
 H1411 H 0.76230 0.27043 0.47179
 H1412 H 0.79154 0.23908 0.49041
 H1413 H 0.80415 0.22575 0.46353
 H1414 H 0.75074 0.21504 0.44408
 H1415 H 0.73822 0.22744 0.47160
 H1416 H 0.77188 0.26103 0.52759
 H1417 H 0.78438 0.24868 0.55512
 H1418 H 0.77335 0.19507 0.53617
 H1419 H 0.75992 0.20753 0.50927
 H1420 H 0.74988 0.28274 0.44422
 C1421 C 0.74421 0.24354 -0.00040
 C1422 C 0.75657 0.25697 -0.00042
 C1423 C 0.76452 0.26434 -0.01712
 C1424 C 0.76357 0.26412 0.01664
 C1425 C 0.73729 0.23635 0.01670
 C1426 C 0.73622 0.23622 -0.01708
 C1427 C 0.77206 0.25295 -0.03005
 C1428 C 0.77941 0.26002 -0.04571
 C1429 C 0.77963 0.27867 -0.04865
 C1430 C 0.77244 0.29002 -0.03553
 C1431 C 0.76497 0.28295 -0.02000
 C1432 C 0.77714 0.25490 0.02571
 C1433 C 0.78409 0.26174 0.04161
 C1434 C 0.77776 0.27809 0.04860
 C1435 C 0.76386 0.28708 0.03957
 C1436 C 0.75668 0.28002 0.02389
 C1437 C 0.72380 0.24557 0.02589
 C1438 C 0.71688 0.23867 0.04178
 C1439 C 0.72315 0.22223 0.04864
 C1440 C 0.73700 0.21326 0.03952
 C1441 C 0.74416 0.22039 0.02384
 C1442 C 0.72874 0.24765 -0.03000
 C1443 C 0.72149 0.24064 -0.04572
 C1444 C 0.72126 0.22201 -0.04871
 C1445 C 0.72830 0.21060 -0.03555
 C1446 C 0.73569 0.21761 -0.01998
 H1447 H 0.77221 0.23856 -0.02805
 H1448 H 0.78471 0.25088 -0.05560
 H1449 H 0.77273 0.30445 -0.03717
 H1450 H 0.75938 0.29216 -0.01037
 H1451 H 0.78233 0.24239 0.02048
 H1452 H 0.79441 0.25418 0.04843
 H1453 H 0.74585 0.28707 0.01731
 H1454 H 0.71863 0.25813 0.02074
 H1455 H 0.70662 0.24623 0.04869
 H1456 H 0.74207 0.20052 0.04426
 H1457 H 0.75492 0.21332 0.01717
 H1458 H 0.72859 0.26203 -0.02796
 H1459 H 0.71626 0.24982 -0.05562
 H1460 H 0.72796 0.19618 -0.03722
 H1461 H 0.74117 0.20836 -0.01033
 H1462 H 0.75876 0.29978 0.04440
 C1463 C 0.74394 0.74388 0.50038
 C1464 C 0.75688 0.75684 0.50036
 C1465 C 0.76401 0.76466 0.48353
 C1466 C 0.76471 0.76403 0.51715
 C1467 C 0.73620 0.73665 0.51720
 C1468 C 0.73667 0.73610 0.48361
 C1469 C 0.78261 0.76543 0.48089
 C1470 C 0.78968 0.77291 0.46538
 C1471 C 0.77832 0.77974 0.45207
 C1472 C 0.75968 0.77918 0.45482
 C1473 C 0.75260 0.77189 0.47049
 C1474 C 0.77202 0.75266 0.53020
 C1475 C 0.77931 0.75980 0.54583
 C1476 C 0.77980 0.77848 0.54856
 C1477 C 0.77286 0.78980 0.53525
 C1478 C 0.76539 0.78266 0.51977
 C1479 C 0.72895 0.74801 0.53029
 C1480 C 0.72168 0.74085 0.54592
 C1481 C 0.72115 0.72217 0.54859
 C1482 C 0.72803 0.71085 0.53525
 C1483 C 0.73549 0.71802 0.51977
 C1484 C 0.71805 0.73542 0.48110
 C1485 C 0.71084 0.72791 0.46567
 C1486 C 0.72208 0.72096 0.45232
 C1487 C 0.74074 0.72146 0.45492
 C1488 C 0.74796 0.72878 0.47050
 H1489 H 0.79168 0.76018 0.49087
 H1490 H 0.80410 0.77351 0.46391
 H1491 H 0.75054 0.78419 0.44479
 H1492 H 0.73822 0.77184 0.47238
 H1493 H 0.77201 0.73826 0.52831
 H1494 H 0.78440 0.75068 0.55585
 H1495 H 0.76007 0.79171 0.50979
 H1496 H 0.72896 0.76242 0.52844
 H1497 H 0.71663 0.74995 0.55598
 H1498 H 0.72745 0.69641 0.53665
 H1499 H 0.74075 0.70898 0.50974
 H1500 H 0.70907 0.74074 0.49113
 H1501 H 0.69641 0.72736 0.46431
 H1502 H 0.74978 0.71634 0.44485
 H1503 H 0.76235 0.72878 0.47230
 H1504 H 0.77338 0.80424 0.53669
 C1505 C 0.99949 0.25671 0.24367
 C1506 C 0.99954 0.24367 0.25646
 C1507 C 1.01648 0.23646 0.26412
 C1508 C 0.98272 0.23573 0.26360
 C1509 C 0.98262 0.26445 0.23638
 C1510 C 1.01639 0.26390 0.23598
 C1511 C 1.01924 0.21784 0.26454
 C1512 C 1.03484 0.21069 0.27193
 C1513 C 1.04809 0.22202 0.27901
 C1514 C 1.04524 0.24068 0.27873
 C1515 C 1.02949 0.24782 0.27154
 C1516 C 0.96957 0.22855 0.25228
 C1517 C 0.95392 0.22112 0.25937
 C1518 C 0.95131 0.22036 0.27793
 C1519 C 0.96478 0.22705 0.28919
 C1520 C 0.98027 0.23467 0.28210
 C1521 C 0.96926 0.27156 0.24754
 C1522 C 0.95360 0.27885 0.24026
 C1523 C 0.95117 0.27951 0.22167
 C1524 C 0.96477 0.27275 0.21058
 C1525 C 0.98027 0.26530 0.21785
 C1526 C 1.01914 0.28251 0.23552
 C1527 C 1.03476 0.28961 0.22814
 C1528 C 1.04803 0.27823 0.22112
 C1529 C 1.04516 0.25958 0.22141
 C1530 C 1.02941 0.25249 0.22859
 H1531 H 1.00928 0.20881 0.25912
 H1532 H 1.03638 0.19625 0.27231
 H1533 H 1.05522 0.24979 0.28395
 H1534 H 1.02749 0.26221 0.27173
 H1535 H 0.97139 0.22874 0.23796
 H1536 H 0.94377 0.21619 0.25032
 H1537 H 0.99039 0.23980 0.29110
 H1538 H 0.97093 0.27144 0.26187
 H1539 H 0.94333 0.28379 0.24918
 H1540 H 0.96354 0.27339 0.19622
 H1541 H 0.99048 0.26014 0.20896
 H1542 H 1.00918 0.29158 0.24093
 H1543 H 1.03633 0.30404 0.22775
 H1544 H 1.05517 0.25043 0.21625
 H1545 H 1.02741 0.23811 0.22845
 H1546 H 0.96345 0.22625 0.30353
 C1547 C 0.49970 0.25587 0.74371
 C1548 C 0.49969 0.24283 0.75651
 C1549 C 0.51659 0.23553 0.76416
 C1550 C 0.48281 0.23508 0.76377
 C1551 C 0.48285 0.26373 0.73651
 C1552 C 0.51661 0.26311 0.73603
 C1553 C 0.51921 0.21690 0.76468
 C1554 C 0.53477 0.20966 0.77209
 C1555 C 0.54813 0.22092 0.77907
 C1556 C 0.54541 0.23961 0.77870
 C1557 C 0.52971 0.24683 0.77149
 C1558 C 0.46954 0.22791 0.75258
 C1559 C 0.45388 0.22061 0.75982
 C1560 C 0.45136 0.21999 0.77840
 C1561 C 0.46489 0.22678 0.78952
 C1562 C 0.48039 0.23426 0.78229
 C1563 C 0.46965 0.27097 0.74777
 C1564 C 0.45398 0.27834 0.74061
 C1565 C 0.45140 0.27899 0.72204
 C1566 C 0.46489 0.27218 0.71084
 C1567 C 0.48039 0.26462 0.71800
 C1568 C 0.51927 0.28173 0.73551
 C1569 C 0.53482 0.28891 0.72807
 C1570 C 0.54814 0.27760 0.72102
 C1571 C 0.54538 0.25893 0.72138
 C1572 C 0.52969 0.25176 0.72864
 H1573 H 0.50918 0.20792 0.75930
 H1574 H 0.53620 0.19522 0.77256
 H1575 H 0.55547 0.24867 0.78385
 H1576 H 0.52784 0.26124 0.77160
 H1577 H 0.47127 0.22801 0.73825
 H1578 H 0.44366 0.21563 0.75086
 H1579 H 0.49055 0.23946 0.79120
 H1580 H 0.47145 0.27087 0.76208
 H1581 H 0.44382 0.28334 0.74962
 H1582 H 0.46357 0.27287 0.69650
 H1583 H 0.49052 0.25942 0.70904
 H1584 H 0.50926 0.29075 0.74091
 H1585 H 0.53628 0.30335 0.72762
 H1586 H 0.55542 0.24983 0.71620
 H1587 H 0.52776 0.23737 0.72851
 H1588 H 0.46361 0.22616 0.80388
 C1589 C 0.00048 0.24318 0.74318
 C1590 C 0.00044 0.25626 0.75593
 C1591 C -0.01648 0.26415 0.76302
 C1592 C 0.01732 0.26351 0.76365
 C1593 C 0.01739 0.23589 0.73551
 C1594 C -0.01639 0.23539 0.73598
 C1595 C -0.02965 0.27127 0.75166
 C1596 C -0.04543 0.27854 0.75870
 C1597 C -0.04816 0.27919 0.77724
 C1598 C -0.03469 0.27254 0.78855
 C1599 C -0.01907 0.26508 0.78151
 C1600 C 0.01996 0.28213 0.76419
 C1601 C 0.03550 0.28931 0.77164
 C1602 C 0.04883 0.27801 0.77867
 C1603 C 0.04609 0.25933 0.77829
 C1604 C 0.03040 0.25216 0.77102
 C1605 C 0.02000 0.21725 0.73494
 C1606 C 0.03551 0.21002 0.72742
 C1607 C 0.04883 0.22127 0.72034
 C1608 C 0.04613 0.23996 0.72078
 C1609 C 0.03048 0.24718 0.72812
 C1610 C -0.02959 0.22818 0.74724
 C1611 C -0.04527 0.22087 0.74008
 C1612 C -0.04785 0.22027 0.72151
 C1613 C -0.03441 0.22713 0.71031
 C1614 C -0.01889 0.23462 0.71747
 H1615 H -0.02777 0.27112 0.73736
 H1616 H -0.05558 0.28342 0.74961
 H1617 H -0.03614 0.27322 0.80289
 H1618 H -0.00899 0.25994 0.79055
 H1619 H 0.00994 0.29115 0.75882
 H1620 H 0.03695 0.30375 0.77211
 H1621 H 0.02849 0.23776 0.77114
 H1622 H 0.00998 0.20826 0.74034
 H1623 H 0.03693 0.19557 0.72695
 H1624 H 0.05618 0.24903 0.71559
 H1625 H 0.02860 0.26159 0.72805
 H1626 H -0.02779 0.22826 0.76155
 H1627 H -0.05544 0.21587 0.74908
 H1628 H -0.03577 0.22653 0.69597
 H1629 H -0.00878 0.23986 0.70852
 H1630 H 0.05613 0.25024 0.78347
 C1631 C 0.50053 0.24355 0.24332
 C1632 C 0.50055 0.25664 0.25605
 C1633 C 0.48369 0.26454 0.26316
 C1634 C 0.51745 0.26387 0.26373
 C1635 C 0.51743 0.23630 0.23563
 C1636 C 0.48365 0.23571 0.23617
 C1637 C 0.47051 0.27167 0.25182
 C1638 C 0.45478 0.27898 0.25888
 C1639 C 0.45212 0.27968 0.27743
 C1640 C 0.46559 0.27301 0.28872
 C1641 C 0.48116 0.26550 0.28166
 C1642 C 0.52011 0.28249 0.26424
 C1643 C 0.53564 0.28966 0.27172
 C1644 C 0.54893 0.27835 0.27881
 C1645 C 0.54616 0.25968 0.27845
 C1646 C 0.53049 0.25252 0.27116
 C1647 C 0.52014 0.21768 0.23519
 C1648 C 0.53567 0.21049 0.22770
 C1649 C 0.54892 0.22178 0.22054
 C1650 C 0.54613 0.24046 0.22087
 C1651 C 0.53045 0.24763 0.22817
 C1652 C 0.47043 0.22858 0.24746
 C1653 C 0.45475 0.22122 0.24032
 C1654 C 0.45217 0.22051 0.22176
 C1655 C 0.46565 0.22727 0.21054
 C1656 C 0.48117 0.23481 0.21766
 H1657 H 0.47236 0.27150 0.23751
 H1658 H 0.44462 0.28388 0.24981
 H1659 H 0.46419 0.27374 0.30306
 H1660 H 0.49127 0.26037 0.29067
 H1661 H 0.51012 0.29151 0.25881
 H1662 H 0.53709 0.30411 0.27219
 H1663 H 0.52857 0.23813 0.27130
 H1664 H 0.51018 0.20867 0.24067
 H1665 H 0.53717 0.19605 0.22731
 H1666 H 0.55612 0.24955 0.21562
 H1667 H 0.52849 0.26203 0.22802
 H1668 H 0.47220 0.22876 0.26177
 H1669 H 0.44457 0.21628 0.24934
 H1670 H 0.46431 0.22657 0.19619
 H1671 H 0.49127 0.23999 0.20868
 H1672 H 0.55617 0.25058 0.28369
 C1673 C 0.99985 0.75584 0.74462
 C1674 C 0.99989 0.74282 0.75744
 C1675 C 1.01683 0.73566 0.76516
 C1676 C 0.98304 0.73488 0.76456
 C1677 C 0.98296 0.76362 0.73741
 C1678 C 1.01673 0.76309 0.73692
 C1679 C 1.01961 0.71705 0.76568
 C1680 C 1.03517 0.70993 0.77317
 C1681 C 1.04840 0.72128 0.78027
 C1682 C 1.04554 0.73995 0.77988
 C1683 C 1.02983 0.74706 0.77256
 C1684 C 0.96990 0.72771 0.75321
 C1685 C 0.95421 0.72032 0.76026
 C1686 C 0.95152 0.71957 0.77881
 C1687 C 0.96495 0.72631 0.79010
 C1688 C 0.98049 0.73390 0.78305
 C1689 C 0.96973 0.77083 0.74866
 C1690 C 0.95407 0.77821 0.74148
 C1691 C 0.95151 0.77886 0.72292
 C1692 C 0.96498 0.77200 0.71173
 C1693 C 0.98048 0.76444 0.71890
 C1694 C 1.01938 0.78171 0.73637
 C1695 C 1.03497 0.78888 0.72900
 C1696 C 1.04833 0.77756 0.72205
 C1697 C 1.04556 0.75888 0.72241
 C1698 C 1.02983 0.75173 0.72959
 H1699 H 1.00967 0.70799 0.76024
 H1700 H 1.03671 0.69550 0.77362
 H1701 H 1.05552 0.74909 0.78509
 H1702 H 1.02784 0.76145 0.77265
 H1703 H 0.97176 0.72789 0.73890
 H1704 H 0.94408 0.71539 0.75117
 H1705 H 0.99057 0.73906 0.79208
 H1706 H 0.97151 0.77072 0.76297
 H1707 H 0.94390 0.78324 0.75048
 H1708 H 0.96366 0.77264 0.69738
 H1709 H 0.99060 0.75920 0.70995
 H1710 H 1.00933 0.79074 0.74169
 H1711 H 1.03644 0.80332 0.72854
 H1712 H 1.05562 0.74978 0.71728
 H1713 H 1.02789 0.73734 0.72946
 H1714 H 0.96355 0.72558 0.80444
 C1715 C 0.49988 0.75616 0.24451
 C1716 C 0.49985 0.74312 0.25729
 C1717 C 0.51673 0.73595 0.26504
 C1718 C 0.48297 0.73527 0.26445
 C1719 C 0.48304 0.76402 0.23733
 C1720 C 0.51680 0.76338 0.23683
 C1721 C 0.51951 0.71735 0.26552
 C1722 C 0.53507 0.71024 0.27300
 C1723 C 0.54829 0.72161 0.28008
 C1724 C 0.54540 0.74027 0.27977
 C1725 C 0.52969 0.74736 0.27249
 C1726 C 0.46974 0.72818 0.25316
 C1727 C 0.45402 0.72091 0.26027
 C1728 C 0.45140 0.72021 0.27884
 C1729 C 0.46492 0.72685 0.29007
 C1730 C 0.48049 0.73431 0.28296
 C1731 C 0.46987 0.77128 0.24860
 C1732 C 0.45422 0.77869 0.24146
 C1733 C 0.45164 0.77932 0.22290
 C1734 C 0.46509 0.77248 0.21168
 C1735 C 0.48057 0.76489 0.21882
 C1736 C 0.51945 0.78200 0.23623
 C1737 C 0.53500 0.78915 0.22878
 C1738 C 0.54834 0.77782 0.22180
 C1739 C 0.54558 0.75915 0.22223
 C1740 C 0.52988 0.75201 0.22949
 H1741 H 0.50958 0.70829 0.26007
 H1742 H 0.53664 0.69581 0.27342
 H1743 H 0.55535 0.74941 0.28501
 H1744 H 0.52766 0.76175 0.27262
 H1745 H 0.47153 0.72835 0.23884
 H1746 H 0.44383 0.71603 0.25124
 H1747 H 0.49062 0.73942 0.29195
 H1748 H 0.47168 0.77117 0.26292
 H1749 H 0.44408 0.78375 0.25047
 H1750 H 0.46375 0.77316 0.19733
 H1751 H 0.49068 0.75964 0.20986
 H1752 H 0.50941 0.79105 0.24155
 H1753 H 0.53645 0.80359 0.22826
 H1754 H 0.55562 0.75003 0.21708
 H1755 H 0.52795 0.73762 0.22938
 H1756 H 0.46357 0.72613 0.30442
 C1757 C -0.00015 0.74411 0.24417
 C1758 C -0.00022 0.75719 0.25692
 C1759 C -0.01712 0.76496 0.26412
 C1760 C 0.01665 0.76448 0.26459
 C1761 C 0.01678 0.73688 0.23652
 C1762 C -0.01698 0.73622 0.23702
 C1763 C -0.03042 0.77204 0.25287
 C1764 C -0.04612 0.77932 0.26005
 C1765 C -0.04865 0.78003 0.27863
 C1766 C -0.03512 0.77329 0.28981
 C1767 C -0.01958 0.76582 0.28263
 C1768 C 0.01929 0.78311 0.26502
 C1769 C 0.03482 0.79032 0.27245
 C1770 C 0.04813 0.77905 0.27957
 C1771 C 0.04540 0.76037 0.27925
 C1772 C 0.02972 0.75317 0.27201
 C1773 C 0.01948 0.71825 0.23605
 C1774 C 0.03504 0.71106 0.22863
 C1775 C 0.04835 0.72234 0.22155
 C1776 C 0.04556 0.74103 0.22190
 C1777 C 0.02984 0.74821 0.22913
 C1778 C -0.03017 0.72909 0.24834
 C1779 C -0.04589 0.72182 0.24124
 C1780 C -0.04850 0.72114 0.22269
 C1781 C -0.03501 0.72781 0.21143
 C1782 C -0.01946 0.73529 0.21852
 H1783 H -0.02866 0.77187 0.23855
 H1784 H -0.05635 0.78422 0.25106
 H1785 H -0.03643 0.77397 0.30415
 H1786 H -0.00942 0.76066 0.29158
 H1787 H 0.00928 0.79209 0.25957
 H1788 H 0.03628 0.80476 0.27284
 H1789 H 0.02781 0.73877 0.27218
 H1790 H 0.00949 0.70924 0.24147
 H1791 H 0.03652 0.69662 0.22820
 H1792 H 0.05558 0.75012 0.21671
 H1793 H 0.02789 0.76261 0.22900
 H1794 H -0.02836 0.72924 0.26265
 H1795 H -0.05607 0.71693 0.25029
 H1796 H -0.03638 0.72710 0.19708
 H1797 H -0.00934 0.74042 0.20953
 H1798 H 0.05544 0.75129 0.28445
 C1799 C 0.49982 0.74367 0.74456
 C1800 C 0.49986 0.75760 0.75629
 C1801 C 0.48289 0.76502 0.76359
 C1802 C 0.51684 0.76472 0.76377
 C1803 C 0.51673 0.73615 0.73706
 C1804 C 0.48270 0.73646 0.73752
 C1805 C 0.47781 0.78278 0.76005
 C1806 C 0.46227 0.78995 0.76758
 C1807 C 0.45114 0.77939 0.77849
 C1808 C 0.45609 0.76144 0.78170
 C1809 C 0.47189 0.75441 0.77449
 C1810 C 0.52283 0.78197 0.75932
 C1811 C 0.53858 0.78877 0.76671
 C1812 C 0.54885 0.77837 0.77855
 C1813 C 0.54297 0.76093 0.78275
 C1814 C 0.52709 0.75420 0.77545
 C1815 C 0.52036 0.71770 0.73812
 C1816 C 0.53600 0.71057 0.73074
 C1817 C 0.54853 0.72173 0.72223
 C1818 C 0.54490 0.74023 0.72117
 C1819 C 0.52910 0.74732 0.72832
 C1820 C 0.47588 0.72007 0.74367
 C1821 C 0.46019 0.71296 0.73639
 C1822 C 0.45074 0.72233 0.72309
 C1823 C 0.45729 0.73912 0.71748
 C1824 C 0.47316 0.74607 0.72458
 H1825 H 0.48574 0.79118 0.75139
 H1826 H 0.45915 0.80390 0.76501
 H1827 H 0.44774 0.75274 0.78971
 H1828 H 0.47555 0.74067 0.77744
 H1829 H 0.51554 0.79015 0.74991
 H1830 H 0.54258 0.80230 0.76330
 H1831 H 0.52277 0.74077 0.77891
 H1832 H 0.51121 0.70867 0.74471
 H1833 H 0.53812 0.69622 0.73148
 H1834 H 0.55431 0.74928 0.71487
 H1835 H 0.52649 0.76153 0.72694
 H1836 H 0.48266 0.71275 0.75414
 H1837 H 0.45568 0.69996 0.74097
 H1838 H 0.45014 0.74694 0.70762
 H1839 H 0.47804 0.75893 0.71995
 H1840 H 0.55070 0.75243 0.79157
 C1841 C 0.41178 0.30985 0.28496
 C1842 C 0.40417 0.30235 0.30041
 C1843 C 0.41227 0.28708 0.30792
 C1844 C 0.42765 0.27967 0.30034
 C1845 C 0.43542 0.28733 0.28509
 C1846 C 0.42723 0.30245 0.27741
 H1847 H 0.40598 0.32155 0.27869
 H1848 H 0.40684 0.28078 0.31971
 H1849 H 0.43342 0.26782 0.30643
 H1850 H 0.43296 0.30880 0.26575
 C1851 C 0.40951 0.80808 0.78528
 C1852 C 0.40338 0.80238 0.80211
 C1853 C 0.41310 0.78883 0.81097
 C1854 C 0.42855 0.78148 0.80338
 C1855 C 0.43457 0.78713 0.78653
 C1856 C 0.42472 0.80043 0.77755
 H1857 H 0.40243 0.81819 0.77773
 H1858 H 0.40916 0.78410 0.82401
 H1859 H 0.43596 0.77158 0.81093
 H1860 H 0.42860 0.80488 0.76438
 C1861 C -0.08868 0.30919 0.78470
 C1862 C -0.09631 0.30165 0.80012
 C1863 C -0.08814 0.28643 0.80766
 C1864 C -0.07269 0.27908 0.80012
 C1865 C -0.06493 0.28677 0.78486
 C1866 C -0.07318 0.30185 0.77718
 H1867 H -0.09450 0.32090 0.77846
 H1868 H -0.09355 0.28012 0.81945
 H1869 H -0.06690 0.26726 0.80621
 H1870 H -0.06747 0.30823 0.76553
 C1871 C -0.08868 0.81056 0.28653
 C1872 C -0.09627 0.80310 0.30201
 C1873 C -0.08816 0.78783 0.30952
 C1874 C -0.07290 0.78028 0.30180
 C1875 C -0.06524 0.78782 0.28643
 C1876 C -0.07336 0.80302 0.27884
 H1877 H -0.09444 0.82231 0.28031
 H1878 H -0.09351 0.78161 0.32139
 H1879 H -0.06717 0.76839 0.30785
 H1880 H -0.06770 0.80931 0.26711
 C1881 C 0.58844 0.69133 0.28770
 C1882 C 0.59616 0.69882 0.30308
 C1883 C 0.58812 0.71411 0.31066
 C1884 C 0.57268 0.72156 0.30315
 C1885 C 0.56493 0.71396 0.28787
 C1886 C 0.57306 0.69882 0.28018
 H1887 H 0.59419 0.67964 0.28138
 H1888 H 0.59357 0.72032 0.32248
 H1889 H 0.56663 0.73309 0.30956
 H1890 H 0.56761 0.69277 0.26824
 C1891 C 0.58819 0.19043 0.78671
 C1892 C 0.59611 0.19808 0.80190
 C1893 C 0.58815 0.21344 0.80942
 C1894 C 0.57265 0.22086 0.80201
 C1895 C 0.56474 0.21317 0.78684
 C1896 C 0.57274 0.19788 0.77926
 H1897 H 0.59385 0.17865 0.78047
 H1898 H 0.59373 0.21979 0.82111
 H1899 H 0.56670 0.23246 0.80836
 H1900 H 0.56714 0.19173 0.76744
 C1901 C 1.08806 0.71375 0.81111
 C1902 C 1.09611 0.69842 0.80365
 C1903 C 1.08842 0.69085 0.78829
 C1904 C 1.07309 0.69835 0.78065
 C1905 C 1.06498 0.71359 0.78819
 C1906 C 1.07268 0.72123 0.80349
 H1907 H 1.09348 0.72002 0.82292
 H1908 H 1.09416 0.67909 0.78207
 H1909 H 1.06768 0.69226 0.76871
 H1910 H 1.06665 0.73281 0.80980
 C1911 C 1.08812 0.19156 0.28689
 C1912 C 1.09581 0.19911 0.30226
 C1913 C 1.08779 0.21445 0.30973
 C1914 C 1.07242 0.22193 0.30214
 C1915 C 1.06469 0.21431 0.28686
 C1916 C 1.07279 0.19909 0.27927
 H1917 H 1.09385 0.17980 0.28067
 H1918 H 1.09320 0.22070 0.32156
 H1919 H 1.06640 0.23351 0.30848
 H1920 H 1.06737 0.19302 0.26734
 C1921 C 0.58803 0.30816 0.71308
 C1922 C 0.59580 0.30058 0.69775
 C1923 C 0.58787 0.28518 0.69032
 C1924 C 0.57251 0.27768 0.69791
 C1925 C 0.56471 0.28534 0.71316
 C1926 C 0.57271 0.30062 0.72069
 H1927 H 0.59367 0.31996 0.71927
 H1928 H 0.59337 0.27889 0.67855
 H1929 H 0.56656 0.26607 0.69160
 H1930 H 0.56722 0.30672 0.73259
 C1931 C 0.58814 0.80844 0.21364
 C1932 C 0.59588 0.80082 0.19832
 C1933 C 0.58801 0.78533 0.19102
 C1934 C 0.57271 0.77780 0.19870
 C1935 C 0.56490 0.78553 0.21391
 C1936 C 0.57289 0.80087 0.22135
 H1937 H 0.59377 0.82030 0.21975
 H1938 H 0.59348 0.77900 0.17926
 H1939 H 0.56681 0.76612 0.19248
 H1940 H 0.56742 0.80700 0.23325
 C1941 C 1.08811 0.30856 0.21354
 C1942 C 1.09584 0.30109 0.19815
 C1943 C 1.08790 0.28575 0.19063
 C1944 C 1.07251 0.27825 0.19813
 C1945 C 1.06469 0.28586 0.21340
 C1946 C 1.07276 0.30103 0.22108
 H1947 H 1.09378 0.32029 0.21984
 H1948 H 1.09340 0.27951 0.17883
 H1949 H 1.06653 0.26670 0.19175
 H1950 H 1.06727 0.30706 0.23301
 C1951 C 1.08819 0.80815 0.71413
 C1952 C 1.09591 0.80064 0.69875
 C1953 C 1.08804 0.78520 0.69136
 C1954 C 1.07274 0.77764 0.69898
 C1955 C 1.06492 0.78527 0.71424
 C1956 C 1.07292 0.80055 0.72179
 H1957 H 1.09382 0.81996 0.72032
 H1958 H 1.09353 0.77893 0.67957
 H1959 H 1.06682 0.76600 0.69269
 H1960 H 1.06744 0.80662 0.73371
 C1961 C 0.41561 0.70926 0.68880
 C1962 C 0.40377 0.69875 0.69893
 C1963 C 0.40732 0.69624 0.71714
 C1964 C 0.42238 0.70407 0.72504
 C1965 C 0.43436 0.71445 0.71488
 C1966 C 0.43075 0.71693 0.69664
 H1967 H 0.41341 0.71130 0.67469
 H1968 H 0.39836 0.68841 0.72538
 H1969 H 0.42451 0.70210 0.73918
 H1970 H 0.43983 0.72451 0.68829
 C1971 C 0.41210 0.19008 0.21392
 C1972 C 0.40449 0.19761 0.19848
 C1973 C 0.41256 0.21292 0.19104
 C1974 C 0.42784 0.22040 0.19871
 C1975 C 0.43556 0.21276 0.21401
 C1976 C 0.42746 0.19756 0.22158
 H1977 H 0.40635 0.17831 0.22010
 H1978 H 0.40716 0.21923 0.17924
 H1979 H 0.43355 0.23228 0.19268
 H1980 H 0.43317 0.19120 0.23324
 C1981 C -0.08866 0.69086 0.21504
 C1982 C -0.09626 0.69836 0.19958
 C1983 C -0.08821 0.71364 0.19209
 C1984 C -0.07289 0.72111 0.19971
 C1985 C -0.06515 0.71346 0.21500
 C1986 C -0.07328 0.69832 0.22264
 H1987 H -0.09442 0.67914 0.22128
 H1988 H -0.09361 0.71992 0.18027
 H1989 H -0.06717 0.73298 0.19367
 H1990 H -0.06758 0.69199 0.23433
 C1991 C -0.08768 0.18961 0.71359
 C1992 C -0.09536 0.19714 0.69819
 C1993 C -0.08744 0.21255 0.69080
 C1994 C -0.07221 0.22013 0.69849
 C1995 C -0.06442 0.21248 0.71375
 C1996 C -0.07239 0.19718 0.72127
 H1997 H -0.09332 0.17777 0.71973
 H1998 H -0.09290 0.21886 0.67902
 H1999 H -0.06660 0.23210 0.69253
 H2000 H -0.06664 0.19083 0.73291
 C2001 C 0.28658 0.41226 0.30808
 C2002 C 0.30183 0.40417 0.30055
 C2003 C 0.30923 0.41175 0.28503
 C2004 C 0.30172 0.42713 0.27741
 C2005 C 0.28660 0.43529 0.28508
 C2006 C 0.27906 0.42758 0.30043
 H2007 H 0.28038 0.40687 0.31994
 H2008 H 0.32092 0.40597 0.27875
 H2009 H 0.30800 0.43282 0.26570
 H2010 H 0.26722 0.43332 0.30653
 C2011 C 0.28662 -0.08880 0.80803
 C2012 C 0.30224 -0.09667 0.80090
 C2013 C 0.30993 -0.08875 0.78563
 C2014 C 0.30244 -0.07336 0.77800
 C2015 C 0.28701 -0.06549 0.78533
 C2016 C 0.27912 -0.07350 0.80033
 H2017 H 0.27997 -0.09436 0.81956
 H2018 H 0.32190 -0.09416 0.77956
 H2019 H 0.30898 -0.06742 0.76656
 H2020 H 0.26702 -0.06799 0.80611
 C2021 C 0.80563 0.40736 0.78334
 C2022 C 0.80162 0.40265 0.80107
 C2023 C 0.78954 0.41350 0.81063
 C2024 C 0.78201 0.42877 0.80284
 C2025 C 0.78584 0.43336 0.78504
 C2026 C 0.79761 0.42228 0.77537
 H2027 H 0.81455 0.39928 0.77529
 H2028 H 0.78634 0.41069 0.82441
 H2029 H 0.77348 0.43715 0.81100
 H2030 H 0.80058 0.42497 0.76151
 C2031 C 0.78574 -0.08821 0.30968
 C2032 C 0.80081 -0.09659 0.30195
 C2033 C 0.80785 -0.08926 0.28611
 C2034 C 0.80014 -0.07410 0.27836
 C2035 C 0.78528 -0.06570 0.28623
 C2036 C 0.77812 -0.07297 0.30194
 H2037 H 0.77981 -0.09314 0.32187
 H2038 H 0.81930 -0.09513 0.27950
 H2039 H 0.80580 -0.06901 0.26607
 H2040 H 0.76682 -0.06667 0.30849
 C2041 C 0.30947 0.58839 0.71280
 C2042 C 0.30190 0.59623 0.69750
 C2043 C 0.28643 0.58838 0.69016
 C2044 C 0.27880 0.57311 0.69786
 C2045 C 0.28641 0.56529 0.71313
 C2046 C 0.30181 0.57317 0.72052
 H2047 H 0.32130 0.59398 0.71896
 H2048 H 0.28018 0.59390 0.67838
 H2049 H 0.26711 0.56724 0.69164
 H2050 H 0.30792 0.56767 0.73242
 C2051 C 0.30870 1.08904 0.21364
 C2052 C 0.30160 1.09637 0.19788
 C2053 C 0.28657 1.08811 0.19012
 C2054 C 0.27894 1.07286 0.19784
 C2055 C 0.28612 1.06551 0.21352
 C2056 C 0.30105 1.07383 0.22137
 H2057 H 0.32018 1.09498 0.22012
 H2058 H 0.28069 1.09324 0.17799
 H2059 H 0.26762 1.06662 0.19130
 H2060 H 0.30678 1.06866 0.23359
 C2061 C 0.80988 0.58820 0.21435
 C2062 C 0.80207 0.59616 0.19922
 C2063 C 0.78646 0.58847 0.19208
 C2064 C 0.77896 0.57316 0.19972
 C2065 C 0.78689 0.56508 0.21468
 C2066 C 0.80238 0.57284 0.22198
 H2067 H 0.82188 0.59365 0.22029
 H2068 H 0.77992 0.59419 0.18055
 H2069 H 0.76683 0.56771 0.19396
 H2070 H 0.80894 0.56685 0.23339
 C2071 C 0.80723 1.09016 0.71518
 C2072 C 0.80191 1.09576 0.69810
 C2073 C 0.78855 1.08596 0.68918
 C2074 C 0.78086 1.07084 0.69706
 C2075 C 0.78628 1.06517 0.71410
 C2076 C 0.79946 1.07511 0.72310
 H2077 H 0.81731 1.09742 0.72257
 H2078 H 0.78417 1.08975 0.67597
 H2079 H 0.77094 1.06337 0.68962
 H2080 H 0.80374 1.07137 0.73638
 C2081 C 0.69037 0.58875 0.28639
 C2082 C 0.69800 0.59639 0.30175
 C2083 C 0.71329 0.58826 0.30916
 C2084 C 0.72064 0.57287 0.30152
 C2085 C 0.71290 0.56513 0.28629
 C2086 C 0.69771 0.57330 0.27877
 H2087 H 0.67863 0.59456 0.28023
 H2088 H 0.71967 0.59368 0.32091
 H2089 H 0.73251 0.56708 0.30751
 H2090 H 0.69127 0.56757 0.26717
 C2091 C 0.69409 1.09175 0.78442
 C2092 C 0.69838 1.09673 0.80201
 C2093 C 0.71070 1.08602 0.81148
 C2094 C 0.71817 1.07068 0.80373
 C2095 C 0.71395 1.06580 0.78612
 C2096 C 0.70193 1.07668 0.77654
 H2097 H 0.68499 1.09968 0.77644
 H2098 H 0.71425 1.08902 0.82512
 H2099 H 0.72699 1.06246 0.81176
 H2100 H 0.69863 1.07371 0.76282
 C2101 C 0.19105 0.58865 0.78783
 C2102 C 0.19859 0.59636 0.80318
 C2103 C 0.21395 0.58836 0.81063
 C2104 C 0.22146 0.57301 0.80301
 C2105 C 0.21385 0.56527 0.78772
 C2106 C 0.19860 0.57333 0.78018
 H2107 H 0.17929 0.59435 0.78162
 H2108 H 0.22021 0.59381 0.82242
 H2109 H 0.23305 0.56701 0.80931
 H2110 H 0.19255 0.56789 0.76824
 C2111 C 0.19074 1.08911 0.28725
 C2112 C 0.19825 1.09691 0.30258
 C2113 C 0.21362 1.08897 0.31006
 C2114 C 0.22117 1.07360 0.30249
 C2115 C 0.21359 1.06578 0.28723
 C2116 C 0.19833 1.07379 0.27965
 H2117 H 0.17896 1.09476 0.28103
 H2118 H 0.21984 1.09445 0.32187
 H2119 H 0.23278 1.06765 0.30883
 H2120 H 0.19229 1.06829 0.26774
 C2121 C 0.69553 0.40625 0.71607
 C2122 C 0.69773 0.40284 0.69780
 C2123 C 0.70785 0.41486 0.68751
 C2124 C 0.71550 0.43006 0.69528
 C2125 C 0.71341 0.43350 0.71360
 C2126 C 0.70338 0.42134 0.72391
 H2127 H 0.68797 0.39714 0.72440
 H2128 H 0.70957 0.41273 0.67334
 H2129 H 0.72276 0.43928 0.68681
 H2130 H 0.70173 0.42334 0.73810
 C2131 C 0.69023 -0.08890 0.21232
 C2132 C 0.69751 -0.09646 0.19676
 C2133 C 0.71264 -0.08835 0.18904
 C2134 C 0.72025 -0.07305 0.19665
 C2135 C 0.71293 -0.06549 0.21219
 C2136 C 0.69786 -0.07364 0.21995
 H2137 H 0.67868 -0.09475 0.21876
 H2138 H 0.71860 -0.09363 0.17700
 H2139 H 0.73169 -0.06696 0.19018
 H2140 H 0.69204 -0.06833 0.23207
 C2141 C 0.21250 0.41207 0.19051
 C2142 C 0.19687 0.40436 0.19764
 C2143 C 0.18898 0.41241 0.21269
 C2144 C 0.19647 0.42777 0.22032
 C2145 C 0.21203 0.43548 0.21312
 C2146 C 0.21998 0.42740 0.19816
 H2147 H 0.21905 0.40635 0.17899
 H2148 H 0.17697 0.40696 0.21864
 H2149 H 0.18987 0.43379 0.23170
 H2150 H 0.23213 0.43284 0.19243
 C2151 C 0.18895 -0.08786 0.71282
 C2152 C 0.19679 -0.09595 0.69777
 C2153 C 0.21250 -0.08838 0.69068
 C2154 C 0.22014 -0.07317 0.69840
 C2155 C 0.21225 -0.06504 0.71336
 C2156 C 0.19659 -0.07260 0.72052
 H2157 H 0.17687 -0.09321 0.71871
 H2158 H 0.21903 -0.09413 0.67916
 H2159 H 0.23236 -0.06785 0.69270
 H2160 H 0.19003 -0.06654 0.73190
 C2161 C 0.28774 0.31012 0.41185
 C2162 C 0.30302 0.30251 0.40390
 C2163 C 0.31054 0.28706 0.41167
 C2164 C 0.30304 0.27951 0.42701
 C2165 C 0.28781 0.28719 0.43496
 C2166 C 0.28022 0.30254 0.42713
 H2167 H 0.28146 0.32197 0.40635
 H2168 H 0.32230 0.28075 0.40605
 H2169 H 0.30939 0.26782 0.43281
 H2170 H 0.26833 0.30867 0.43274
 C2171 C 0.28706 0.81105 -0.08768
 C2172 C 0.30244 0.80341 -0.09547
 C2173 C 0.30993 0.78804 -0.08756
 C2174 C 0.30231 0.78055 -0.07228
 C2175 C 0.28704 0.78827 -0.06442
 C2176 C 0.27948 0.80358 -0.07235
 H2177 H 0.28081 0.82283 -0.09333
 H2178 H 0.32173 0.78171 -0.09306
 H2179 H 0.30833 0.76859 -0.06670
 H2180 H 0.26785 0.81001 -0.06654
 C2181 C 0.78692 0.30902 -0.08865
 C2182 C 0.80256 0.30181 -0.09628
 C2183 C 0.81041 0.28667 -0.08822
 C2184 C 0.80291 0.27906 -0.07290
 C2185 C 0.78737 0.28638 -0.06524
 C2186 C 0.77942 0.30140 -0.07337
 H2187 H 0.78036 0.32060 -0.09438
 H2188 H 0.82243 0.28065 -0.09361
 H2189 H 0.80952 0.26764 -0.06686
 H2190 H 0.76729 0.30724 -0.06798
 C2191 C 0.78564 0.81003 0.41201
 C2192 C 0.80110 0.80253 0.40426
 C2193 C 0.80879 0.78730 0.41226
 C2194 C 0.80130 0.77985 0.42762
 C2195 C 0.78597 0.78746 0.43546
 C2196 C 0.77820 0.80260 0.42742
 H2197 H 0.77927 0.82173 0.40633
 H2198 H 0.82062 0.78103 0.40675
 H2199 H 0.80749 0.76801 0.43329
 H2200 H 0.76652 0.80896 0.43322
 C2201 C 0.71335 0.30788 0.58766
 C2202 C 0.69804 0.30034 0.59558
 C2203 C 0.69058 0.28483 0.58790
 C2204 C 0.69808 0.27722 0.57259
 C2205 C 0.71328 0.28489 0.56460
 C2206 C 0.72088 0.30023 0.57240
 H2207 H 0.71961 0.31973 0.59313
 H2208 H 0.67883 0.27854 0.59353
 H2209 H 0.69174 0.26552 0.56684
 H2210 H 0.73277 0.30632 0.56678
 C2211 C 0.69015 0.78514 1.08779
 C2212 C 0.69776 0.80045 1.09569
 C2213 C 0.71318 0.80794 1.08792
 C2214 C 0.72075 0.80036 1.07267
 C2215 C 0.71306 0.78514 1.06471
 C2216 C 0.69770 0.77759 1.07248
 H2217 H 0.67832 0.77890 1.09331
 H2218 H 0.71949 0.81971 1.09350
 H2219 H 0.73274 0.80638 1.06718
 H2220 H 0.69129 0.76601 1.06657
 C2221 C 0.21319 0.30895 1.08792
 C2222 C 0.19756 0.30172 1.09552
 C2223 C 0.18978 0.28656 1.08747
 C2224 C 0.19732 0.27895 1.07217
 C2225 C 0.21284 0.28629 1.06453
 C2226 C 0.22073 0.30133 1.07266
 H2227 H 0.21967 0.32055 1.09366
 H2228 H 0.17780 0.28050 1.09287
 H2229 H 0.19077 0.26750 1.06615
 H2230 H 0.23286 0.30717 1.06728
 C2231 C 0.21309 0.80870 0.58817
 C2232 C 0.19749 0.80140 0.59576
 C2233 C 0.18970 0.78629 0.58764
 C2234 C 0.19720 0.77879 0.57227
 C2235 C 0.21270 0.78620 0.56464
 C2236 C 0.22060 0.80118 0.57284
 H2237 H 0.21959 0.82027 0.59395
 H2238 H 0.17773 0.78018 0.59302
 H2239 H 0.19065 0.76738 0.56618
 H2240 H 0.23271 0.80707 0.56747
 C2241 C 0.31011 0.71434 0.58785
 C2242 C 0.30224 0.69928 0.59603
 C2243 C 0.28660 0.69205 0.58846
 C2244 C 0.27914 0.69954 0.57310
 C2245 C 0.28712 0.71445 0.56483
 C2246 C 0.30265 0.72181 0.57245
 H2247 H 0.32210 0.72039 0.59323
 H2248 H 0.28004 0.68053 0.59428
 H2249 H 0.26701 0.69369 0.56775
 H2250 H 0.30926 0.73317 0.56632
 C2251 C 0.31011 0.21447 1.08794
 C2252 C 0.30228 0.19934 1.09601
 C2253 C 0.28663 0.19214 1.08842
 C2254 C 0.27916 0.19970 1.07310
 C2255 C 0.28715 0.21463 1.06488
 C2256 C 0.30264 0.22201 1.07257
 H2257 H 0.32212 0.22047 1.09330
 H2258 H 0.28004 0.18063 1.09421
 H2259 H 0.26703 0.19386 1.06773
 H2260 H 0.30923 0.23341 1.06649
 C2261 C 0.78748 0.69022 1.08809
 C2262 C 0.80279 0.69781 1.09598
 C2263 C 0.81033 0.71320 1.08814
 C2264 C 0.80282 0.72073 1.07280
 C2265 C 0.78755 0.71309 1.06491
 C2266 C 0.77995 0.69778 1.07281
 H2267 H 0.78119 0.67843 1.09364
 H2268 H 0.82211 0.71948 1.09371
 H2269 H 0.80918 0.73237 1.06695
 H2270 H 0.76803 0.69169 1.06725
 C2271 C 0.81026 0.21335 0.58777
 C2272 C 0.80268 0.19798 0.59563
 C2273 C 0.78735 0.19042 0.58775
 C2274 C 0.77987 0.19795 0.57242
 C2275 C 0.78754 0.21319 0.56449
 C2276 C 0.80279 0.22084 0.57239
 H2277 H 0.82204 0.21961 0.59334
 H2278 H 0.78101 0.17866 0.59332
 H2279 H 0.76795 0.19187 0.56687
 H2280 H 0.80918 0.23246 0.56652
 C2281 C 0.69128 0.71322 0.41285
 C2282 C 0.69878 0.69783 0.40495
 C2283 C 0.71423 0.69029 0.41266
 C2284 C 0.72187 0.69784 0.42792
 C2285 C 0.71427 0.71313 0.43585
 C2286 C 0.69894 0.72078 0.42805
 H2287 H 0.67945 0.71953 0.40739
 H2288 H 0.72045 0.67846 0.40706
 H2289 H 0.73355 0.69147 0.43369
 H2290 H 0.69290 0.73274 0.43363
 C2291 C 0.69057 0.21396 -0.08828
 C2292 C 0.69832 0.19867 -0.09617
 C2293 C 0.71402 0.19155 -0.08860
 C2294 C 0.72158 0.19931 -0.07343
 C2295 C 0.71363 0.21435 -0.06535
 C2296 C 0.69813 0.22170 -0.07307
 H2297 H 0.67852 0.21993 -0.09364
 H2298 H 0.72055 0.17994 -0.09429
 H2299 H 0.73373 0.19351 -0.06805
 H2300 H 0.69157 0.23319 -0.06712
 C2301 C 0.21485 0.69127 -0.08729
 C2302 C 0.19940 0.69883 -0.09500
 C2303 C 0.19196 0.71427 -0.08717
 C2304 C 0.19966 0.72185 -0.07199
 C2305 C 0.21495 0.71417 -0.06417
 C2306 C 0.22251 0.69883 -0.07206
 H2307 H 0.22104 0.67941 -0.09284
 H2308 H 0.18015 0.72059 -0.09265
 H2309 H 0.19366 0.73385 -0.06644
 H2310 H 0.23416 0.69244 -0.06626
 C2311 C 0.19078 0.21538 0.41191
 C2312 C 0.19829 0.19992 0.40415
 C2313 C 0.21367 0.19238 0.41197
 C2314 C 0.22124 0.19999 0.42720
 C2315 C 0.21360 0.21529 0.43507
 C2316 C 0.19833 0.22295 0.42719
 H2317 H 0.17898 0.22165 0.40636
 H2318 H 0.21996 0.18056 0.40644
 H2319 H 0.23318 0.19391 0.43274
 H2320 H 0.19198 0.23462 0.43303
 C2321 C 0.28655 0.41232 0.69177
 C2322 C 0.30185 0.40424 0.69920
 C2323 C 0.30943 0.41188 0.71459
 C2324 C 0.30204 0.42732 0.72220
 C2325 C 0.28687 0.43547 0.71463
 C2326 C 0.27915 0.42770 0.69941
 H2327 H 0.28020 0.40688 0.68002
 H2328 H 0.32117 0.40611 0.72077
 H2329 H 0.30844 0.43305 0.73382
 H2330 H 0.26726 0.43344 0.69342
 C2331 C 0.30978 0.91231 0.21445
 C2332 C 0.30234 0.90472 0.19896
 C2333 C 0.28702 0.91276 0.19151
 C2334 C 0.27944 0.92801 0.19925
 C2335 C 0.28701 0.93571 0.21459
 C2336 C 0.30221 0.92761 0.22216
 H2337 H 0.32152 0.90657 0.22066
 H2338 H 0.28080 0.90737 0.17966
 H2339 H 0.26754 0.93371 0.19325
 H2340 H 0.30850 0.93329 0.23387
 C2341 C 0.80861 0.41180 0.21286
 C2342 C 0.80110 0.40415 0.19745
 C2343 C 0.78564 0.41206 0.19013
 C2344 C 0.77802 0.42730 0.19791
 C2345 C 0.78564 0.43500 0.21321
 C2346 C 0.80095 0.42698 0.22066
 H2347 H 0.82044 0.40616 0.21899
 H2348 H 0.77940 0.40665 0.17830
 H2349 H 0.76635 0.43324 0.19170
 H2350 H 0.80700 0.43237 0.23262
 C2351 C 0.80464 0.90774 0.71670
 C2352 C 0.80153 0.90380 0.69866
 C2353 C 0.79038 0.91522 0.68872
 C2354 C 0.78269 0.93038 0.69657
 C2355 C 0.78585 0.93441 0.71461
 C2356 C 0.79682 0.92281 0.72461
 H2357 H 0.81296 0.89908 0.72480
 H2358 H 0.78788 0.91269 0.67474
 H2359 H 0.77460 0.93917 0.68838
 H2360 H 0.79928 0.92529 0.73861
 C2361 C 0.69115 0.58806 0.71301
 C2362 C 0.69832 0.59561 0.69740
 C2363 C 0.71342 0.58741 0.68961
 C2364 C 0.72101 0.57201 0.69715
 C2365 C 0.71370 0.56440 0.71265
 C2366 C 0.69875 0.57270 0.72055
 H2367 H 0.67964 0.59394 0.71952
 H2368 H 0.71938 0.59271 0.67759
 H2369 H 0.73239 0.56586 0.69061
 H2370 H 0.69295 0.56739 0.73267
 C2371 C 0.71299 0.08754 0.19029
 C2372 C 0.69775 0.09574 0.19769
 C2373 C 0.69018 0.08822 0.21316
 C2374 C 0.69753 0.07277 0.22084
 C2375 C 0.71264 0.06450 0.21327
 C2376 C 0.72035 0.07216 0.19798
 H2377 H 0.71934 0.09288 0.17848
 H2378 H 0.67849 0.09409 0.21936
 H2379 H 0.69113 0.06712 0.23251
 H2380 H 0.73218 0.06632 0.19197
 C2381 C 0.19009 0.58863 0.21231
 C2382 C 0.19765 0.59645 0.19699
 C2383 C 0.21313 0.58860 0.18965
 C2384 C 0.22075 0.57330 0.19730
 C2385 C 0.21313 0.56545 0.21253
 C2386 C 0.19775 0.57336 0.21999
 H2387 H 0.17822 0.59420 0.21845
 H2388 H 0.21939 0.59411 0.17788
 H2389 H 0.23243 0.56743 0.19103
 H2390 H 0.19166 0.56782 0.23187
 C2391 C 0.21409 0.08785 0.68968
 C2392 C 0.19859 0.09570 0.69698
 C2393 C 0.19093 0.08785 0.71222
 C2394 C 0.19850 0.07254 0.71987
 C2395 C 0.21389 0.06461 0.71245
 C2396 C 0.22162 0.07250 0.69730
 H2397 H 0.22045 0.09341 0.67798
 H2398 H 0.17905 0.09344 0.71832
 H2399 H 0.19234 0.06699 0.73171
 H2400 H 0.23333 0.06663 0.69109
 C2401 C 0.30781 0.58879 0.28632
 C2402 C 0.30027 0.59655 0.30167
 C2403 C 0.28493 0.58857 0.30914
 C2404 C 0.27746 0.57316 0.30157
 C2405 C 0.28509 0.56537 0.28630
 C2406 C 0.30031 0.57343 0.27873
 H2407 H 0.31954 0.59449 0.28008
 H2408 H 0.27868 0.59404 0.32094
 H2409 H 0.26590 0.56716 0.30791
 H2410 H 0.30639 0.56795 0.26681
 C2411 C 0.30833 0.08796 0.78680
 C2412 C 0.30075 0.09577 0.80210
 C2413 C 0.28537 0.08783 0.80954
 C2414 C 0.27788 0.07244 0.80196
 C2415 C 0.28554 0.06461 0.78672
 C2416 C 0.30081 0.07262 0.77920
 H2417 H 0.32012 0.09360 0.78060
 H2418 H 0.27908 0.09335 0.82130
 H2419 H 0.26627 0.06647 0.80826
 H2420 H 0.30692 0.06711 0.76731
 C2421 C 0.80781 0.58764 0.78603
 C2422 C 0.80072 0.59501 0.80177
 C2423 C 0.78574 0.58673 0.80962
 C2424 C 0.77813 0.57141 0.80200
 C2425 C 0.78532 0.56399 0.78635
 C2426 C 0.80018 0.57237 0.77840
 H2427 H 0.81921 0.59366 0.77946
 H2428 H 0.77990 0.59188 0.82177
 H2429 H 0.76684 0.56518 0.80858
 H2430 H 0.80588 0.56720 0.76617
 C2431 C 0.80906 0.08793 0.28476
 C2432 C 0.80147 0.09557 0.30016
 C2433 C 0.78625 0.08741 0.30765
 C2434 C 0.77893 0.07197 0.30007
 C2435 C 0.78664 0.06423 0.28481
 C2436 C 0.80174 0.07245 0.27719
 H2437 H 0.82075 0.09375 0.27853
 H2438 H 0.77992 0.09282 0.31944
 H2439 H 0.76711 0.06617 0.30612
 H2440 H 0.80814 0.06672 0.26555
 C2441 C 0.69121 0.41148 0.28690
 C2442 C 0.69878 0.40359 0.30215
 C2443 C 0.71413 0.41150 0.30968
 C2444 C 0.72158 0.42697 0.30224
 C2445 C 0.71394 0.43488 0.28705
 C2446 C 0.69871 0.42690 0.27943
 H2447 H 0.67947 0.40583 0.28064
 H2448 H 0.72042 0.40592 0.32141
 H2449 H 0.73316 0.43291 0.30862
 H2450 H 0.69261 0.43250 0.26758
 C2451 C 0.69261 0.90991 0.78544
 C2452 C 0.69884 0.90331 0.80185
 C2453 C 0.71296 0.91240 0.81038
 C2454 C 0.72046 0.92780 0.80282
 C2455 C 0.71411 0.93448 0.78649
 C2456 C 0.70018 0.92524 0.77784
 H2457 H 0.68192 0.90325 0.77834
 H2458 H 0.71815 0.90785 0.82305
 H2459 H 0.73099 0.93468 0.81000
 H2460 H 0.69515 0.92979 0.76508
 C2461 C 0.21312 0.41202 0.80892
 C2462 C 0.19780 0.40396 0.80153
 C2463 C 0.19023 0.41162 0.78613
 C2464 C 0.19767 0.42702 0.77846
 C2465 C 0.21287 0.43514 0.78599
 C2466 C 0.22056 0.42735 0.80124
 H2467 H 0.21945 0.40659 0.82070
 H2468 H 0.17847 0.40587 0.77997
 H2469 H 0.19128 0.43274 0.76683
 H2470 H 0.23246 0.43306 0.80722
 C2471 C 0.21274 0.91261 0.30927
 C2472 C 0.19744 0.90452 0.30189
 C2473 C 0.18984 0.91217 0.28649
 C2474 C 0.19725 0.92757 0.27881
 C2475 C 0.21246 0.93570 0.28632
 C2476 C 0.22016 0.92795 0.30158
 H2477 H 0.21909 0.90719 0.32104
 H2478 H 0.17807 0.90642 0.28036
 H2479 H 0.19085 0.93331 0.26719
 H2480 H 0.23204 0.93367 0.30756
 C2481 C 0.41131 0.30944 0.71424
 C2482 C 0.40372 0.30198 0.69877
 C2483 C 0.41180 0.28669 0.69127
 C2484 C 0.42709 0.27917 0.69894
 C2485 C 0.43480 0.28676 0.71427
 C2486 C 0.42667 0.30194 0.72189
 H2487 H 0.40556 0.32118 0.72048
 H2488 H 0.40641 0.28045 0.67944
 H2489 H 0.43282 0.26729 0.69290
 H2490 H 0.43235 0.30826 0.73358
 C2491 C 0.41176 0.80995 0.21493
 C2492 C 0.40410 0.80238 0.19954
 C2493 C 0.41204 0.78695 0.19219
 C2494 C 0.42728 0.77940 0.19991
 C2495 C 0.43507 0.78710 0.21514
 C2496 C 0.42706 0.80241 0.22263
 H2497 H 0.40609 0.82179 0.22105
 H2498 H 0.40660 0.78062 0.18043
 H2499 H 0.43291 0.76741 0.19398
 H2500 H 0.43281 0.80879 0.23426
 C2501 C 0.91189 0.28723 0.19050
 C2502 C 0.90378 0.30258 0.19786
 C2503 C 0.91126 0.31008 0.21337
 C2504 C 0.92650 0.30253 0.22121
 C2505 C 0.93464 0.28728 0.21375
 C2506 C 0.92706 0.27967 0.19836
 H2507 H 0.90660 0.28096 0.17863
 H2508 H 0.90550 0.32188 0.21948
 H2509 H 0.93208 0.30886 0.23294
 H2510 H 0.93280 0.26774 0.19243
 C2511 C 0.91158 0.80951 0.71493
 C2512 C 0.90396 0.80199 0.69949
 C2513 C 0.91196 0.78660 0.69211
 C2514 C 0.92719 0.77904 0.69984
 C2515 C 0.93493 0.78667 0.71512
 C2516 C 0.92688 0.80195 0.72264
 H2517 H 0.90587 0.82133 0.72107
 H2518 H 0.90656 0.78031 0.68031
 H2519 H 0.93286 0.76709 0.69387
 H2520 H 0.93259 0.80830 0.73430
 C2521 C 0.58864 0.28586 0.30953
 C2522 C 0.59660 0.30124 0.30209
 C2523 C 0.58882 0.30885 0.28679
 C2524 C 0.57350 0.30135 0.27918
 C2525 C 0.56548 0.28607 0.28670
 C2526 C 0.57327 0.27839 0.30194
 H2527 H 0.59413 0.27954 0.32129
 H2528 H 0.59450 0.32063 0.28059
 H2529 H 0.56802 0.30748 0.26729
 H2530 H 0.56729 0.26678 0.30825
 C2531 C 0.58519 0.78969 0.81218
 C2532 C 0.59635 0.80118 0.80231
 C2533 C 0.59202 0.80473 0.78444
 C2534 C 0.57682 0.79709 0.77665
 C2535 C 0.56548 0.78583 0.78660
 C2536 C 0.56991 0.78216 0.80444
 H2537 H 0.58801 0.78680 0.82602
 H2538 H 0.60045 0.81329 0.77636
 H2539 H 0.57403 0.79994 0.76278
 H2540 H 0.56134 0.77380 0.81258
 C2541 C 0.08845 0.28568 0.80949
 C2542 C 0.09635 0.30112 0.80209
 C2543 C 0.08863 0.30864 0.78672
 C2544 C 0.07338 0.30104 0.77904
 C2545 C 0.06538 0.28575 0.78656
 C2546 C 0.07316 0.27811 0.80183
 H2547 H 0.09390 0.27944 0.82131
 H2548 H 0.09426 0.32044 0.78052
 H2549 H 0.06793 0.30710 0.76710
 H2550 H 0.06723 0.26646 0.80810
 C2551 C 0.08777 0.78667 0.31035
 C2552 C 0.09574 0.80203 0.30290
 C2553 C 0.08802 0.80959 0.28754
 C2554 C 0.07271 0.80206 0.27991
 C2555 C 0.06467 0.78681 0.28746
 C2556 C 0.07242 0.77919 0.30275
 H2557 H 0.09324 0.78041 0.32215
 H2558 H 0.09369 0.82136 0.28132
 H2559 H 0.06725 0.80815 0.26798
 H2560 H 0.06643 0.76760 0.30908
 C2561 C 0.58735 0.71320 0.69053
 C2562 C 0.59604 0.69853 0.69859
 C2563 C 0.58913 0.69182 0.71469
 C2564 C 0.57391 0.69947 0.72245
 C2565 C 0.56510 0.71399 0.71427
 C2566 C 0.57209 0.72081 0.69825
 H2567 H 0.59214 0.71879 0.67812
 H2568 H 0.59543 0.68066 0.72142
 H2569 H 0.56914 0.69406 0.73496
 H2570 H 0.56555 0.73182 0.69144
 C2571 C 0.58878 0.19118 0.21243
 C2572 C 0.59643 0.19867 0.19701
 C2573 C 0.58845 0.21406 0.18959
 C2574 C 0.57315 0.22162 0.19727
 C2575 C 0.56546 0.21403 0.21260
 C2576 C 0.57353 0.19878 0.22014
 H2577 H 0.59448 0.17941 0.21866
 H2578 H 0.59386 0.22029 0.17775
 H2579 H 0.56714 0.23322 0.19096
 H2580 H 0.56813 0.19273 0.23210
 C2581 C 0.08806 0.69152 0.21323
 C2582 C 0.09573 0.69909 0.19785
 C2583 C 0.08781 0.71456 0.19055
 C2584 C 0.07258 0.72217 0.19830
 C2585 C 0.06487 0.71455 0.21361
 C2586 C 0.07287 0.69918 0.22103
 H2587 H 0.09370 0.67966 0.21934
 H2588 H 0.09321 0.72082 0.17872
 H2589 H 0.06664 0.73384 0.19206
 H2590 H 0.06744 0.69309 0.23296
 C2591 C 0.08846 0.21354 0.68946
 C2592 C 0.09639 0.19810 0.69685
 C2593 C 0.08862 0.19051 0.71216
 C2594 C 0.07334 0.19811 0.71984
 C2595 C 0.06535 0.21346 0.71238
 C2596 C 0.07314 0.22110 0.69712
 H2597 H 0.09393 0.21982 0.67768
 H2598 H 0.09426 0.17868 0.71832
 H2599 H 0.06788 0.19201 0.73175
 H2600 H 0.06722 0.23278 0.69086
 C2601 C 0.41154 0.71296 0.30939
 C2602 C 0.40333 0.69779 0.30182
 C2603 C 0.41095 0.69025 0.28639
 C2604 C 0.42645 0.69755 0.27886
 C2605 C 0.43470 0.71261 0.28654
 C2606 C 0.42699 0.72028 0.30184
 H2607 H 0.40614 0.71927 0.32120
 H2608 H 0.40509 0.67861 0.28010
 H2609 H 0.43214 0.69117 0.26721
 H2610 H 0.43282 0.73205 0.30796
 C2611 C 0.41121 0.18968 0.78638
 C2612 C 0.40362 0.19722 0.80184
 C2613 C 0.41176 0.21248 0.80929
 C2614 C 0.42709 0.21992 0.80159
 C2615 C 0.43476 0.21228 0.78625
 C2616 C 0.42659 0.19710 0.77871
 H2617 H 0.40542 0.17795 0.78019
 H2618 H 0.40638 0.21881 0.82110
 H2619 H 0.43286 0.23177 0.80762
 H2620 H 0.43226 0.19072 0.76704
 C2621 C 0.91169 0.71188 0.80929
 C2622 C 0.90362 0.69666 0.80169
 C2623 C 0.91129 0.68922 0.78623
 C2624 C 0.92672 0.69670 0.77871
 C2625 C 0.93485 0.71181 0.78644
 C2626 C 0.92706 0.71936 0.80175
 H2627 H 0.90623 0.71813 0.82110
 H2628 H 0.90552 0.67755 0.77992
 H2629 H 0.93245 0.69043 0.76701
 H2630 H 0.93276 0.73120 0.80788
 C2631 C 0.91101 0.19019 0.28539
 C2632 C 0.90335 0.19768 0.30084
 C2633 C 0.91147 0.21287 0.30844
 C2634 C 0.92688 0.22027 0.30091
 C2635 C 0.93465 0.21266 0.28561
 C2636 C 0.92648 0.19757 0.27789
 H2637 H 0.90523 0.17852 0.27908
 H2638 H 0.90604 0.21913 0.32026
 H2639 H 0.93265 0.23208 0.30703
 H2640 H 0.93221 0.19124 0.26623
 C2641 C 0.28665 0.31093 0.58775
 C2642 C 0.30207 0.30334 0.59550
 C2643 C 0.30964 0.28805 0.58750
 C2644 C 0.30205 0.28058 0.57220
 C2645 C 0.28672 0.28823 0.56441
 C2646 C 0.27909 0.30348 0.57241
 H2647 H 0.28038 0.32270 0.59340
 H2648 H 0.32147 0.28174 0.59296
 H2649 H 0.30814 0.26868 0.56656
 H2650 H 0.26742 0.30987 0.56664
 C2651 C 0.31054 0.78709 0.08849
 C2652 C 0.30302 0.80257 0.09620
 C2653 C 0.28778 0.81020 0.08818
 C2654 C 0.28033 0.80262 0.07287
 C2655 C 0.28795 0.78725 0.06509
 C2656 C 0.30312 0.77954 0.07313
 H2657 H 0.32226 0.78077 0.09416
 H2658 H 0.28151 0.82207 0.09363
 H2659 H 0.26849 0.80875 0.06719
 H2660 H 0.30948 0.76784 0.06737
 C2661 C 0.81190 0.29148 0.08374
 C2662 C 0.80139 0.30142 0.09571
 C2663 C 0.78301 0.30344 0.09228
 C2664 C 0.77528 0.29566 0.07718
 C2665 C 0.78582 0.28590 0.06501
 C2666 C 0.80424 0.28392 0.06851
 H2667 H 0.82615 0.28986 0.08591
 H2668 H 0.77451 0.31081 0.10140
 H2669 H 0.76101 0.29719 0.07515
 H2670 H 0.81288 0.27683 0.05929
 C2671 C 0.78738 0.80913 0.58826
 C2672 C 0.80270 0.80159 0.59619
 C2673 C 0.81026 0.78615 0.58842
 C2674 C 0.80279 0.77857 0.57308
 C2675 C 0.78755 0.78621 0.56512
 C2676 C 0.77989 0.80153 0.57297
 H2677 H 0.78106 0.82095 0.59375
 H2678 H 0.82205 0.77989 0.59403
 H2679 H 0.80918 0.76691 0.56728
 H2680 H 0.76798 0.80761 0.56737
 C2681 C 0.31160 0.70867 0.41599
 C2682 C 0.30114 0.69866 0.40405
 C2683 C 0.28273 0.69673 0.40740
 C2684 C 0.27494 0.70465 0.42241
 C2685 C 0.28542 0.71447 0.43455
 C2686 C 0.30386 0.71638 0.43112
 H2687 H 0.32585 0.71023 0.41387
 H2688 H 0.27427 0.68933 0.39830
 H2689 H 0.26065 0.70319 0.42439
 H2690 H 0.31245 0.72352 0.44031
 C2691 C 0.31151 0.20842 0.91584
 C2692 C 0.30104 0.19847 0.90388
 C2693 C 0.28264 0.19653 0.90726
 C2694 C 0.27487 0.20439 0.92231
 C2695 C 0.28537 0.21418 0.93445
 C2696 C 0.30381 0.21608 0.93101
 H2697 H 0.32577 0.20998 0.91371
 H2698 H 0.27416 0.18915 0.89815
 H2699 H 0.26058 0.20293 0.92431
 H2700 H 0.31241 0.22319 0.94021
 C2701 C 0.80943 0.71147 0.91267
 C2702 C 0.80170 0.69630 0.90463
 C2703 C 0.78620 0.68887 0.91235
 C2704 C 0.77869 0.69639 0.92769
 C2705 C 0.78645 0.71154 0.93571
 C2706 C 0.80188 0.71901 0.92797
 H2707 H 0.82128 0.71770 0.90718
 H2708 H 0.77986 0.67716 0.90669
 H2709 H 0.76695 0.69013 0.93344
 H2710 H 0.80807 0.73084 0.93363
 C2711 C 0.80933 0.21165 0.41203
 C2712 C 0.80177 0.19635 0.40406
 C2713 C 0.78627 0.18889 0.41174
 C2714 C 0.77863 0.19644 0.42702
 C2715 C 0.78627 0.21167 0.43501
 C2716 C 0.80166 0.21922 0.42726
 H2717 H 0.82119 0.21789 0.40660
 H2718 H 0.77999 0.17714 0.40609
 H2719 H 0.76690 0.19014 0.43274
 H2720 H 0.80775 0.23112 0.43288
 C2721 C 0.69148 0.28593 0.41201
 C2722 C 0.69897 0.30133 0.40417
 C2723 C 0.71444 0.30881 0.41187
 C2724 C 0.72206 0.30124 0.42712
 C2725 C 0.71443 0.28598 0.43504
 C2726 C 0.69913 0.27834 0.42721
 H2727 H 0.67966 0.27966 0.40653
 H2728 H 0.72069 0.32062 0.40630
 H2729 H 0.73374 0.30757 0.43290
 H2730 H 0.69309 0.26639 0.43278
 C2731 C 0.69131 0.78627 0.91256
 C2732 C 0.69882 0.80159 0.90459
 C2733 C 0.71432 0.80908 0.91223
 C2734 C 0.72197 0.80157 0.92752
 C2735 C 0.71434 0.78635 0.93554
 C2736 C 0.69898 0.77875 0.92779
 H2737 H 0.67946 0.78000 0.90714
 H2738 H 0.72058 0.82084 0.90657
 H2739 H 0.73368 0.80791 0.93324
 H2740 H 0.69291 0.76685 0.93344
 C2741 C 0.21713 0.30364 0.90735
 C2742 C 0.19875 0.30160 0.90396
 C2743 C 0.18833 0.29152 0.91588
 C2744 C 0.19607 0.28381 0.93100
 C2745 C 0.21450 0.28580 0.93445
 C2746 C 0.22494 0.29572 0.92234
 H2747 H 0.22557 0.31113 0.89828
 H2748 H 0.17408 0.28989 0.91376
 H2749 H 0.18751 0.27661 0.94017
 H2750 H 0.23922 0.29726 0.92434
 C2751 C 0.18839 0.79183 0.41606
 C2752 C 0.19877 0.80196 0.40415
 C2753 C 0.21716 0.80403 0.40753
 C2754 C 0.22499 0.79612 0.42252
 C2755 C 0.21457 0.78617 0.43462
 C2756 C 0.19616 0.78414 0.43117
 H2757 H 0.17415 0.79015 0.41393
 H2758 H 0.22557 0.81154 0.39845
 H2759 H 0.23927 0.79769 0.42452
 H2760 H 0.18761 0.77689 0.44033
 C2761 C 0.71340 0.69145 0.58818
 C2762 C 0.69806 0.69902 0.59608
 C2763 C 0.69060 0.71453 0.58837
 C2764 C 0.69814 0.72212 0.57308
 C2765 C 0.71336 0.71443 0.56512
 C2766 C 0.72096 0.69907 0.57294
 H2767 H 0.71966 0.67959 0.59365
 H2768 H 0.67882 0.72082 0.59397
 H2769 H 0.69181 0.73382 0.56729
 H2770 H 0.73286 0.69296 0.56734
 C2771 C 0.71760 0.19633 0.09200
 C2772 C 0.69921 0.19837 0.09537
 C2773 C 0.68880 0.20851 0.08348
 C2774 C 0.69657 0.21626 0.06840
 C2775 C 0.71500 0.21427 0.06496
 C2776 C 0.72543 0.20429 0.07704
 H2777 H 0.72602 0.18881 0.10107
 H2778 H 0.67455 0.21016 0.08560
 H2779 H 0.68801 0.22352 0.05925
 H2780 H 0.73972 0.20275 0.07506
 C2781 C 0.19086 0.71557 0.08817
 C2782 C 0.19830 0.70006 0.09590
 C2783 C 0.21366 0.69249 0.08806
 C2784 C 0.22127 0.70010 0.07285
 C2785 C 0.21371 0.71546 0.06500
 C2786 C 0.19846 0.72315 0.07290
 H2787 H 0.17907 0.72186 0.09373
 H2788 H 0.21988 0.68062 0.09356
 H2789 H 0.23319 0.69398 0.06730
 H2790 H 0.19215 0.73485 0.06708
 C2791 C 0.21498 0.19108 0.58750
 C2792 C 0.19949 0.19854 0.59523
 C2793 C 0.19195 0.21393 0.58739
 C2794 C 0.19959 0.22156 0.57220
 C2795 C 0.21492 0.21396 0.56436
 C2796 C 0.22259 0.19869 0.57225
 H2797 H 0.22126 0.17927 0.59307
 H2798 H 0.18010 0.22017 0.59288
 H2799 H 0.19351 0.23350 0.56664
 H2800 H 0.23427 0.19236 0.56645
   
