data_POSCAR
  _audit_creation_date              2014-09-24
  _audit_creation_method            'ToBaCCo'
  _symmetry_space_group_name_H-M    'P1'
  _symmetry_Int_Tables_number       1
  _symmetry_cell_setting            triclinic
  loop_
  _symmetry_equiv_pos_as_xyz
 x,y,z
_cell_length_a 89.0246
_cell_length_b 88.9799
_cell_length_c 90.1207
_cell_angle_alpha 90.056100
_cell_angle_beta 90.093200
_cell_angle_gamma 89.798700
loop_
  _atom_site_label
  _atom_site_type_symbol
  _atom_site_fract_x
  _atom_site_fract_y
  _atom_site_fract_z
N1 N 0.37206 0.32562 0.33936
 N2 N 0.37110 0.33470 0.32788
 C3 C 0.38227 0.33145 0.31832
 C4 C 0.39059 0.31980 0.32421
 C5 C 0.38386 0.31630 0.33750
 H6 H 0.38396 0.33683 0.30769
 H7 H 0.38699 0.30732 0.34499
 Cu8 Cu 0.35490 0.34928 0.32597
 Cu9 Cu 0.35727 0.32576 0.35517
 Cu10 Cu 0.33019 0.35371 0.35406
 N11 N 0.34101 0.36618 0.32673
 N12 N 0.33139 0.36789 0.33768
 C13 C 0.32287 0.38015 0.33506
 C14 C 0.32748 0.38638 0.32184
 C15 C 0.33895 0.37729 0.31679
 H16 H 0.31378 0.38403 0.34205
 H17 H 0.34508 0.37851 0.30651
 N18 N 0.33095 0.33827 0.36971
 N19 N 0.34136 0.32767 0.37016
 C20 C 0.33857 0.31848 0.38169
 C21 C 0.32586 0.32360 0.38878
 C22 C 0.32124 0.33609 0.38096
 H23 H 0.34497 0.30851 0.38444
 H24 H 0.31130 0.34278 0.38304
 H25 H 0.33949 0.33531 0.34356
 H26 H 0.35278 0.34858 0.35288
 N27 N 0.37270 0.82569 -0.16119
 N28 N 0.37268 0.83569 -0.17196
 C29 C 0.38384 0.83237 -0.18154
 C30 C 0.39115 0.81973 -0.17637
 C31 C 0.38385 0.81571 -0.16352
 H32 H 0.38619 0.83837 -0.19171
 H33 H 0.38618 0.80602 -0.15663
 Cu34 Cu 0.35753 0.85150 -0.17268
 Cu35 Cu 0.35770 0.82577 -0.14549
 Cu36 Cu 0.33063 0.85391 -0.14666
 N37 N 0.34245 0.86738 -0.17319
 N38 N 0.33196 0.86826 -0.16294
 C39 C 0.32278 0.87992 -0.16604
 C40 C 0.32787 0.88662 -0.17885
 C41 C 0.34029 0.87845 -0.18319
 H42 H 0.31300 0.88308 -0.15963
 H43 H 0.34699 0.88025 -0.19303
 N44 N 0.33127 0.83835 -0.13108
 N45 N 0.34163 0.82769 -0.13062
 C46 C 0.33872 0.81849 -0.11912
 C47 C 0.32601 0.82367 -0.11208
 C48 C 0.32149 0.83619 -0.11988
 H49 H 0.34507 0.80850 -0.11634
 H50 H 0.31157 0.84292 -0.11782
 H51 H 0.34082 0.83623 -0.15751
 H52 H 0.35315 0.84859 -0.14610
 N53 N 0.87159 0.32713 -0.16338
 N54 N 0.86982 0.33668 -0.17438
 C55 C 0.88080 0.33450 -0.18441
 C56 C 0.88988 0.32301 -0.17937
 C57 C 0.88376 0.31851 -0.16605
 H58 H 0.88187 0.34049 -0.19480
 H59 H 0.88759 0.30937 -0.15910
 Cu60 Cu 0.85286 0.35041 -0.17509
 Cu61 Cu 0.85744 0.32606 -0.14694
 Cu62 Cu 0.82979 0.35357 -0.14570
 N63 N 0.83911 0.36724 -0.17302
 N64 N 0.83006 0.36847 -0.16155
 C65 C 0.82134 0.38076 -0.16328
 C66 C 0.82529 0.38751 -0.17648
 C67 C 0.83651 0.37870 -0.18244
 H68 H 0.81255 0.38426 -0.15575
 H69 H 0.84207 0.38028 -0.19299
 N70 N 0.83151 0.33744 -0.13079
 N71 N 0.84205 0.32696 -0.13126
 C72 C 0.83986 0.31722 -0.12003
 C73 C 0.82742 0.32188 -0.11219
 C74 C 0.82233 0.33465 -0.11925
 H75 H 0.84650 0.30725 -0.11797
 H76 H 0.81243 0.34112 -0.11645
 H77 H 0.83879 0.33555 -0.15713
 H78 H 0.85234 0.34877 -0.14818
 N79 N 0.87143 0.82684 0.33654
 N80 N 0.86961 0.83641 0.32557
 C81 C 0.88046 0.83417 0.31541
 C82 C 0.88951 0.82262 0.32034
 C83 C 0.88351 0.81814 0.33372
 H84 H 0.88143 0.84016 0.30502
 H85 H 0.88736 0.80896 0.34062
 Cu86 Cu 0.85275 0.85026 0.32498
 Cu87 Cu 0.85740 0.82582 0.35309
 Cu88 Cu 0.82992 0.85346 0.35457
 N89 N 0.83913 0.86715 0.32725
 N90 N 0.83015 0.86839 0.33878
 C91 C 0.82146 0.88071 0.33711
 C92 C 0.82535 0.88747 0.32390
 C93 C 0.83651 0.87864 0.31787
 H94 H 0.81272 0.88422 0.34470
 H95 H 0.84200 0.88020 0.30729
 N96 N 0.83165 0.83730 0.36944
 N97 N 0.84213 0.82677 0.36888
 C98 C 0.83995 0.81701 0.38010
 C99 C 0.82757 0.82172 0.38802
 C100 C 0.82252 0.83453 0.38102
 H101 H 0.84654 0.80699 0.38210
 H102 H 0.81267 0.84104 0.38389
 H103 H 0.83875 0.83543 0.34300
 H104 H 0.85245 0.84858 0.35188
 N105 N 0.63007 0.67030 0.33692
 N106 N 0.63161 0.65935 0.32720
 C107 C 0.62086 0.66070 0.31673
 C108 C 0.61217 0.67306 0.32020
 C109 C 0.61827 0.67894 0.33300
 H110 H 0.61962 0.65350 0.30713
 H111 H 0.61464 0.68895 0.33881
 Cu112 Cu 0.64796 0.64488 0.32890
 Cu113 Cu 0.64386 0.67296 0.35352
 Cu114 Cu 0.67291 0.64705 0.35679
 N115 N 0.66419 0.63031 0.33088
 N116 N 0.67391 0.63121 0.34187
 C117 C 0.68418 0.62015 0.34044
 C118 C 0.68066 0.61197 0.32793
 C119 C 0.66800 0.61867 0.32206
 H120 H 0.69369 0.61841 0.34773
 H121 H 0.66226 0.61550 0.31195
 N122 N 0.67001 0.66385 0.37077
 N123 N 0.65896 0.67373 0.36953
 C124 C 0.66040 0.68414 0.38031
 C125 C 0.67286 0.68055 0.38866
 C126 C 0.67876 0.66773 0.38236
 H127 H 0.65321 0.69386 0.38173
 H128 H 0.68891 0.66195 0.38572
 H129 H 0.66220 0.66287 0.34369
 H130 H 0.64998 0.65066 0.35531
 N131 N 0.63018 0.17033 -0.16303
 N132 N 0.63164 0.15942 -0.17280
 C133 C 0.62077 0.16080 -0.18315
 C134 C 0.61213 0.17316 -0.17958
 C135 C 0.61836 0.17900 -0.16682
 H136 H 0.61941 0.15359 -0.19273
 H137 H 0.61477 0.18899 -0.16095
 Cu138 Cu 0.64798 0.14492 -0.17129
 Cu139 Cu 0.64410 0.17291 -0.14654
 Cu140 Cu 0.67313 0.14695 -0.14355
 N141 N 0.66419 0.13030 -0.16944
 N142 N 0.67399 0.13114 -0.15853
 C143 C 0.68424 0.12007 -0.16007
 C144 C 0.68055 0.11191 -0.17255
 C145 C 0.66786 0.11865 -0.17831
 H146 H 0.69382 0.11831 -0.15286
 H147 H 0.66200 0.11551 -0.18836
 N148 N 0.67035 0.16373 -0.12949
 N149 N 0.65930 0.17362 -0.13063
 C150 C 0.66080 0.18399 -0.11982
 C151 C 0.67331 0.18037 -0.11155
 C152 C 0.67916 0.16756 -0.11792
 H153 H 0.65361 0.19370 -0.11831
 H154 H 0.68930 0.16174 -0.11461
 H155 H 0.66239 0.16284 -0.15658
 H156 H 0.65023 0.15058 -0.14491
 N157 N 0.13002 0.67050 -0.16326
 N158 N 0.13156 0.65959 -0.17300
 C159 C 0.12083 0.66101 -0.18349
 C160 C 0.11219 0.67341 -0.18002
 C161 C 0.11828 0.67922 -0.16719
 H162 H 0.11957 0.65382 -0.19309
 H163 H 0.11467 0.68923 -0.16136
 Cu164 Cu 0.14782 0.64501 -0.17128
 Cu165 Cu 0.14375 0.67305 -0.14660
 Cu166 Cu 0.17267 0.64697 -0.14328
 N167 N 0.16395 0.63034 -0.16924
 N168 N 0.17365 0.63116 -0.15823
 C169 C 0.18388 0.62007 -0.15967
 C170 C 0.18032 0.61191 -0.17219
 C171 C 0.16769 0.61867 -0.17805
 H172 H 0.19338 0.61828 -0.15238
 H173 H 0.16193 0.61553 -0.18815
 N174 N 0.16979 0.66377 -0.12927
 N175 N 0.15878 0.67369 -0.13053
 C176 C 0.16020 0.68406 -0.11972
 C177 C 0.17262 0.68042 -0.11133
 C178 C 0.17849 0.66759 -0.11763
 H179 H 0.15302 0.69379 -0.11829
 H180 H 0.18860 0.66175 -0.11423
 H181 H 0.16212 0.66289 -0.15642
 H182 H 0.14978 0.65070 -0.14487
 N183 N 0.13007 0.17033 0.33706
 N184 N 0.13183 0.15968 0.32707
 C185 C 0.12107 0.16111 0.31663
 C186 C 0.11217 0.17323 0.32038
 C187 C 0.11815 0.17888 0.33333
 H188 H 0.11995 0.15410 0.30688
 H189 H 0.11432 0.18868 0.33938
 Cu190 Cu 0.14835 0.14536 0.32840
 Cu191 Cu 0.14372 0.17275 0.35377
 Cu192 Cu 0.17284 0.14695 0.35681
 N193 N 0.16456 0.13078 0.33046
 N194 N 0.17407 0.13142 0.34163
 C195 C 0.18429 0.12031 0.34020
 C196 C 0.18090 0.11234 0.32752
 C197 C 0.16840 0.11923 0.32155
 H198 H 0.19364 0.11835 0.34764
 H199 H 0.16274 0.11621 0.31136
 N200 N 0.16974 0.16347 0.37107
 N201 N 0.15866 0.17332 0.36990
 C202 C 0.15999 0.18359 0.38082
 C203 C 0.17242 0.17996 0.38919
 C204 C 0.17840 0.16723 0.38277
 H205 H 0.15275 0.19327 0.38230
 H206 H 0.18856 0.16145 0.38611
 H207 H 0.16223 0.16302 0.34387
 H208 H 0.14987 0.15038 0.35496
 N209 N 0.63031 0.32937 0.66396
 N210 N 0.63132 0.33834 0.67552
 C211 C 0.62005 0.33531 0.68499
 C212 C 0.61160 0.32387 0.67900
 C213 C 0.61837 0.32028 0.66570
 H214 H 0.61835 0.34074 0.69560
 H215 H 0.61508 0.31149 0.65807
 Cu216 Cu 0.64764 0.35259 0.67768
 Cu217 Cu 0.64504 0.32969 0.64799
 Cu218 Cu 0.67159 0.35799 0.64932
 N219 N 0.66095 0.36981 0.67705
 N220 N 0.67030 0.37192 0.66596
 C221 C 0.67866 0.38419 0.66874
 C222 C 0.67422 0.39001 0.68224
 C223 C 0.66303 0.38066 0.68726
 H224 H 0.68761 0.38829 0.66174
 H225 H 0.65719 0.38144 0.69775
 N226 N 0.67102 0.34278 0.63342
 N227 N 0.66089 0.33197 0.63291
 C228 C 0.66384 0.32302 0.62119
 C229 C 0.67634 0.32853 0.61405
 C230 C 0.68067 0.34099 0.62204
 H231 H 0.65765 0.31299 0.61832
 H232 H 0.69039 0.34793 0.61998
 H233 H 0.66278 0.33914 0.65943
 H234 H 0.64903 0.35244 0.65074
 N235 N 0.63064 0.83039 1.16281
 N236 N 0.63141 0.83963 1.17419
 C237 C 0.62008 0.83662 1.18362
 C238 C 0.61185 0.82493 1.17778
 C239 C 0.61881 0.82116 1.16463
 H240 H 0.61818 0.84223 1.19410
 H241 H 0.61576 0.81214 1.15717
 Cu242 Cu 0.64755 0.85415 1.17622
 Cu243 Cu 0.64550 0.83056 1.14698
 Cu244 Cu 0.67225 0.85868 1.14829
 N245 N 0.66137 0.87101 1.17569
 N246 N 0.67101 0.87276 1.16478
 C247 C 0.67964 0.88483 1.16762
 C248 C 0.67508 0.89092 1.18096
 C249 C 0.66353 0.88192 1.18583
 H250 H 0.68884 0.88862 1.16077
 H251 H 0.65749 0.88299 1.19618
 N252 N 0.67168 0.84338 1.13252
 N253 N 0.66148 0.83264 1.13202
 C254 C 0.66440 0.82362 1.12035
 C255 C 0.67697 0.82901 1.11324
 C256 C 0.68136 0.84147 1.12119
 H257 H 0.65815 0.81363 1.11747
 H258 H 0.69113 0.84834 1.11911
 H259 H 0.66308 0.84010 1.15865
 H260 H 0.64966 0.85329 1.14932
 N261 N 0.12873 0.33062 1.16426
 N262 N 0.12969 0.34087 1.17475
 C263 C 0.11868 0.33858 1.18473
 C264 C 0.11046 0.32633 1.18016
 C265 C 0.11709 0.32148 1.16719
 H266 H 0.11699 0.34504 1.19476
 H267 H 0.11394 0.31181 1.16062
 Cu268 Cu 0.14568 0.35569 1.17463
 Cu269 Cu 0.14310 0.32942 1.14802
 Cu270 Cu 0.17169 0.35588 1.14768
 N271 N 0.16161 0.37056 1.17434
 N272 N 0.17180 0.37060 1.16377
 C273 C 0.18170 0.38171 1.16643
 C274 C 0.17739 0.38894 1.17930
 C275 C 0.16468 0.38164 1.18407
 H276 H 0.19144 0.38414 1.15970
 H277 H 0.15837 0.38404 1.19403
 N278 N 0.16959 0.34009 1.13241
 N279 N 0.15868 0.33006 1.13254
 C280 C 0.16058 0.32054 1.12105
 C281 C 0.17321 0.32485 1.11340
 C282 C 0.17872 0.33719 1.12083
 H283 H 0.15356 0.31096 1.11862
 H284 H 0.18883 0.34333 1.11820
 H285 H 0.16099 0.33900 1.15930
 H286 H 0.14893 0.35186 1.14806
 N287 N 0.13033 0.82934 0.66232
 N288 N 0.13141 0.83825 0.67392
 C289 C 0.12012 0.83527 0.68338
 C290 C 0.11158 0.82392 0.67735
 C291 C 0.11832 0.82033 0.66403
 H292 H 0.11847 0.84066 0.69402
 H293 H 0.11498 0.81158 0.65638
 Cu294 Cu 0.14784 0.85235 0.67616
 Cu295 Cu 0.14503 0.82966 0.64633
 Cu296 Cu 0.17170 0.85788 0.64778
 N297 N 0.16118 0.86954 0.67559
 N298 N 0.17049 0.87170 0.66448
 C299 C 0.17887 0.88396 0.66730
 C300 C 0.17447 0.88971 0.68083
 C301 C 0.16330 0.88033 0.68586
 H302 H 0.18780 0.88808 0.66030
 H303 H 0.15751 0.88105 0.69637
 N304 N 0.17104 0.84276 0.63182
 N305 N 0.16090 0.83197 0.63127
 C306 C 0.16385 0.82303 0.61955
 C307 C 0.17636 0.82854 0.61245
 C308 C 0.18071 0.84097 0.62046
 H309 H 0.15768 0.81300 0.61666
 H310 H 0.19048 0.84786 0.61844
 H311 H 0.16291 0.83892 0.65780
 H312 H 0.14918 0.85232 0.64922
 N313 N 0.36684 0.67104 0.65736
 N314 N 0.36693 0.66108 0.66814
 C315 C 0.37843 0.66410 0.67741
 C316 C 0.38584 0.67655 0.67207
 C317 C 0.37824 0.68073 0.65940
 H318 H 0.38105 0.65795 0.68744
 H319 H 0.38063 0.69029 0.65240
 Cu320 Cu 0.35167 0.64550 0.66926
 Cu321 Cu 0.35159 0.67114 0.64184
 Cu322 Cu 0.32468 0.64313 0.64326
 N323 N 0.33662 0.62968 0.66977
 N324 N 0.32617 0.62879 0.65947
 C325 C 0.31697 0.61725 0.66260
 C326 C 0.32196 0.61060 0.67549
 C327 C 0.33439 0.61871 0.67984
 H328 H 0.30714 0.61419 0.65622
 H329 H 0.34103 0.61695 0.68975
 N330 N 0.32501 0.65864 0.62771
 N331 N 0.33526 0.66933 0.62717
 C332 C 0.33207 0.67857 0.61574
 C333 C 0.31929 0.67337 0.60885
 C334 C 0.31504 0.66081 0.61666
 H335 H 0.33827 0.68859 0.61290
 H336 H 0.30515 0.65406 0.61470
 H337 H 0.33491 0.66093 0.65411
 H338 H 0.34726 0.64844 0.64275
 N339 N 0.36880 0.17012 1.15899
 N340 N 0.36798 0.15995 1.16955
 C341 C 0.37929 0.16220 1.17927
 C342 C 0.38755 0.17432 1.17441
 C343 C 0.38063 0.17912 1.16158
 H344 H 0.38116 0.15581 1.18931
 H345 H 0.38373 0.18871 1.15489
 Cu346 Cu 0.35177 0.14530 1.16984
 Cu347 Cu 0.35396 0.17155 1.14321
 Cu348 Cu 0.32514 0.14543 1.14327
 N349 N 0.33576 0.13043 1.16955
 N350 N 0.32539 0.13056 1.15913
 C351 C 0.31551 0.11944 1.16171
 C352 C 0.31998 0.11201 1.17439
 C353 C 0.33280 0.11922 1.17915
 H354 H 0.30567 0.11710 1.15505
 H355 H 0.33927 0.11665 1.18899
 N356 N 0.32693 0.16134 1.12818
 N357 N 0.33796 0.17124 1.12815
 C358 C 0.33571 0.18104 1.11697
 C359 C 0.32274 0.17704 1.10968
 C360 C 0.31737 0.16460 1.11702
 H361 H 0.34264 0.19069 1.11462
 H362 H 0.30701 0.15873 1.11470
 H363 H 0.33627 0.16207 1.15488
 H364 H 0.34799 0.14906 1.14336
 N365 N 0.86674 0.66973 1.16026
 N366 N 0.86570 0.65963 1.17086
 C367 C 0.87696 0.66171 1.18064
 C368 C 0.88543 0.67369 1.17586
 C369 C 0.87868 0.67859 1.16295
 H370 H 0.87875 0.65519 1.19061
 H371 H 0.88204 0.68805 1.15622
 Cu372 Cu 0.84960 0.64490 1.17125
 Cu373 Cu 0.85220 0.67098 1.14415
 Cu374 Cu 0.82459 0.64373 1.14313
 N375 N 0.83450 0.62920 1.16978
 N376 N 0.82489 0.62867 1.15870
 C377 C 0.81553 0.61700 1.16070
 C378 C 0.81957 0.60988 1.17367
 C379 C 0.83157 0.61785 1.17922
 H380 H 0.80621 0.61417 1.15352
 H381 H 0.83745 0.61575 1.18953
 N382 N 0.82602 0.65987 1.12834
 N383 N 0.83649 0.67033 1.12874
 C384 C 0.83398 0.68020 1.11766
 C385 C 0.82139 0.67562 1.11000
 C386 C 0.81657 0.66278 1.11700
 H387 H 0.84050 0.69021 1.11560
 H388 H 0.80663 0.65637 1.11434
 H389 H 0.83450 0.66098 1.15506
 H390 H 0.84742 0.64827 1.14450
 N391 N 0.86752 0.17000 0.66119
 N392 N 0.86688 0.15944 0.67139
 C393 C 0.87808 0.16155 0.68124
 C394 C 0.88610 0.17400 0.67691
 C395 C 0.87916 0.17916 0.66420
 H396 H 0.88012 0.15474 0.69098
 H397 H 0.88217 0.18898 0.65781
 Cu398 Cu 0.85116 0.14430 0.67103
 Cu399 Cu 0.85289 0.17137 0.64510
 Cu400 Cu 0.82510 0.14413 0.64406
 N401 N 0.83560 0.12901 0.67025
 N402 N 0.82549 0.12897 0.65959
 C403 C 0.81578 0.11764 0.66189
 C404 C 0.82011 0.11023 0.67462
 C405 C 0.83265 0.11768 0.67972
 H406 H 0.80607 0.11524 0.65507
 H407 H 0.83887 0.11527 0.68976
 N408 N 0.82656 0.16038 0.62932
 N409 N 0.83709 0.17080 0.62971
 C410 C 0.83461 0.18066 0.61861
 C411 C 0.82199 0.17613 0.61096
 C412 C 0.81712 0.16334 0.61799
 H413 H 0.84118 0.19063 0.61651
 H414 H 0.80715 0.15697 0.61532
 H415 H 0.83545 0.16094 0.65610
 H416 H 0.84785 0.14871 0.64452
 N417 N 0.32991 0.37039 0.66234
 N418 N 0.34111 0.36930 0.67183
 C419 C 0.33954 0.37999 0.68232
 C420 C 0.32675 0.38814 0.67913
 C421 C 0.32086 0.38180 0.66645
 H422 H 0.34689 0.38151 0.69176
 H423 H 0.31057 0.38501 0.66088
 Cu424 Cu 0.35628 0.35360 0.67002
 Cu425 Cu 0.32745 0.35648 0.64587
 Cu426 Cu 0.35352 0.32768 0.64284
 N427 N 0.37042 0.33695 0.66839
 N428 N 0.36929 0.32686 0.65776
 C429 C 0.38002 0.31632 0.65963
 C430 C 0.38826 0.32008 0.67203
 C431 C 0.38192 0.33315 0.67738
 H432 H 0.38145 0.30646 0.65275
 H433 H 0.38519 0.33917 0.68730
 N434 N 0.33678 0.33037 0.62878
 N435 N 0.32684 0.34136 0.62993
 C436 C 0.31654 0.33988 0.61905
 C437 C 0.32027 0.32743 0.61074
 C438 C 0.33307 0.32161 0.61715
 H439 H 0.30686 0.34709 0.61748
 H440 H 0.33899 0.31154 0.61379
 H441 H 0.33811 0.33862 0.65627
 H442 H 0.34986 0.35062 0.64386
 N443 N 0.32950 0.86979 0.16281
 N444 N 0.33964 0.86754 0.17321
 C445 C 0.33809 0.87817 0.18377
 C446 C 0.32641 0.88749 0.17968
 C447 C 0.32115 0.88191 0.16640
 H448 H 0.34471 0.87891 0.19381
 H449 H 0.31173 0.88612 0.16003
 Cu450 Cu 0.35369 0.85075 0.17234
 Cu451 Cu 0.32737 0.85642 0.14589
 Cu452 Cu 0.35325 0.82752 0.14270
 N453 N 0.36873 0.83507 0.16961
 N454 N 0.36860 0.82611 0.15800
 C455 C 0.37998 0.81616 0.15917
 C456 C 0.38760 0.81914 0.17216
 C457 C 0.38022 0.83114 0.17856
 H458 H 0.38232 0.80721 0.15137
 H459 H 0.38286 0.83637 0.18907
 N460 N 0.33689 0.83073 0.12832
 N461 N 0.32700 0.84175 0.12953
 C462 C 0.31685 0.84054 0.11848
 C463 C 0.32063 0.82823 0.10998
 C464 C 0.33331 0.82221 0.11647
 H465 H 0.30718 0.84776 0.11698
 H466 H 0.33916 0.81211 0.11308
 H467 H 0.33673 0.83750 0.15552
 H468 H 0.34984 0.85039 0.14556
 N469 N 0.82965 0.36985 0.16292
 N470 N 0.83945 0.36721 0.17355
 C471 C 0.83793 0.37777 0.18417
 C472 C 0.82663 0.38746 0.17989
 C473 C 0.82154 0.38215 0.16643
 H474 H 0.84427 0.37815 0.19442
 H475 H 0.81235 0.38664 0.15991
 Cu476 Cu 0.85270 0.34981 0.17306
 Cu477 Cu 0.82751 0.35659 0.14588
 Cu478 Cu 0.85339 0.32765 0.14269
 N479 N 0.86836 0.33485 0.16998
 N480 N 0.86862 0.32622 0.15813
 C481 C 0.88022 0.31651 0.15922
 C482 C 0.88756 0.31931 0.17241
 C483 C 0.87979 0.33095 0.17901
 H484 H 0.88285 0.30780 0.15125
 H485 H 0.88208 0.33591 0.18974
 N486 N 0.83710 0.33096 0.12823
 N487 N 0.82721 0.34199 0.12945
 C488 C 0.81707 0.34080 0.11839
 C489 C 0.82085 0.32850 0.10989
 C490 C 0.83352 0.32246 0.11637
 H491 H 0.80738 0.34801 0.11692
 H492 H 0.83935 0.31235 0.11298
 H493 H 0.83636 0.33719 0.15517
 H494 H 0.84994 0.35037 0.14622
 N495 N 0.82942 0.87038 0.66302
 N496 N 0.84020 0.86862 0.67289
 C497 C 0.83870 0.87917 0.68353
 C498 C 0.82640 0.88794 0.68005
 C499 C 0.82072 0.88210 0.66704
 H500 H 0.84574 0.88019 0.69327
 H501 H 0.81080 0.88586 0.66116
 Cu502 Cu 0.85466 0.85227 0.67112
 Cu503 Cu 0.82701 0.85692 0.64613
 Cu504 Cu 0.85293 0.82789 0.64271
 N505 N 0.86922 0.83604 0.66907
 N506 N 0.86850 0.82655 0.65787
 C507 C 0.87948 0.81620 0.65931
 C508 C 0.88745 0.81944 0.67203
 C509 C 0.88069 0.83202 0.67801
 H510 H 0.88130 0.80681 0.65188
 H511 H 0.88370 0.83756 0.68827
 N512 N 0.83637 0.83112 0.62849
 N513 N 0.82648 0.84215 0.62980
 C514 C 0.81628 0.84099 0.61879
 C515 C 0.82001 0.82872 0.61022
 C516 C 0.83272 0.82267 0.61661
 H517 H 0.80662 0.84825 0.61733
 H518 H 0.83860 0.81263 0.61309
 H519 H 0.83692 0.83834 0.65578
 H520 H 0.84933 0.85081 0.64460
 N521 N 0.67561 0.62952 0.65837
 N522 N 0.66643 0.63044 0.66976
 C523 C 0.66957 0.61921 0.67931
 C524 C 0.68127 0.61090 0.67352
 C525 C 0.68491 0.61771 0.66028
 H526 H 0.66408 0.61748 0.68987
 H527 H 0.69395 0.61460 0.65288
 Cu528 Cu 0.65190 0.64668 0.67161
 Cu529 Cu 0.67552 0.64435 0.64253
 Cu530 Cu 0.64739 0.67127 0.64344
 N531 N 0.63485 0.66035 0.67070
 N532 N 0.63312 0.66996 0.65974
 C533 C 0.62079 0.67839 0.66227
 C534 C 0.61451 0.67371 0.67545
 C535 C 0.62366 0.66231 0.68057
 H536 H 0.61690 0.68747 0.65527
 H537 H 0.62245 0.65618 0.69085
 N538 N 0.66293 0.67062 0.62790
 N539 N 0.67361 0.66029 0.62753
 C540 C 0.68286 0.66319 0.61607
 C541 C 0.67769 0.67587 0.60896
 C542 C 0.66511 0.68038 0.61668
 H543 H 0.69290 0.65687 0.61340
 H544 H 0.65837 0.69028 0.61456
 H545 H 0.66587 0.66217 0.65405
 H546 H 0.65272 0.64875 0.64474
 N547 N 0.67627 0.12937 0.15810
 N548 N 0.66661 0.12964 0.16913
 C549 C 0.66998 0.11846 0.17866
 C550 C 0.68232 0.11087 0.17323
 C551 C 0.68610 0.11804 0.16023
 H552 H 0.66416 0.11622 0.18894
 H553 H 0.69553 0.11546 0.15310
 Cu554 Cu 0.65090 0.14485 0.17027
 Cu555 Cu 0.67595 0.14426 0.14235
 Cu556 Cu 0.64769 0.17111 0.14349
 N557 N 0.63474 0.15964 0.17037
 N558 N 0.63348 0.16982 0.15985
 C559 C 0.62157 0.17871 0.16278
 C560 C 0.61509 0.17376 0.17577
 C561 C 0.62368 0.16172 0.18034
 H562 H 0.61805 0.18822 0.15615
 H563 H 0.62210 0.15517 0.19032
 N564 N 0.66313 0.17051 0.12784
 N565 N 0.67385 0.16022 0.12739
 C566 C 0.68301 0.16315 0.11587
 C567 C 0.67775 0.17582 0.10879
 C568 C 0.66521 0.18028 0.11660
 H569 H 0.69305 0.15688 0.11312
 H570 H 0.65842 0.19016 0.11452
 H571 H 0.66563 0.16131 0.15433
 H572 H 0.65303 0.14854 0.14356
 N573 N 0.17450 0.62943 0.15928
 N574 N 0.16409 0.63024 0.16961
 C575 C 0.16663 0.61939 0.17975
 C576 C 0.17923 0.61145 0.17545
 C577 C 0.18399 0.61806 0.16248
 H578 H 0.16009 0.61762 0.18969
 H579 H 0.19384 0.61509 0.15609
 Cu580 Cu 0.14870 0.64584 0.16901
 Cu581 Cu 0.17553 0.64363 0.14293
 Cu582 Cu 0.14802 0.67127 0.14140
 N583 N 0.13310 0.66121 0.16784
 N584 N 0.13293 0.67110 0.15699
 C585 C 0.12139 0.68070 0.15903
 C586 C 0.11398 0.67654 0.17178
 C587 C 0.12165 0.66421 0.17716
 H588 H 0.11879 0.69020 0.15198
 H589 H 0.11925 0.65813 0.18726
 N590 N 0.16426 0.66954 0.12666
 N591 N 0.17472 0.65899 0.12722
 C592 C 0.18455 0.66119 0.11609
 C593 C 0.17996 0.67363 0.10819
 C594 C 0.16715 0.67872 0.11514
 H595 H 0.19457 0.65459 0.11414
 H596 H 0.16074 0.68865 0.11229
 H597 H 0.16498 0.66137 0.15366
 H598 H 0.15280 0.64862 0.14243
 N599 N 0.17436 0.12858 0.65942
 N600 N 0.16413 0.12946 0.66991
 C601 C 0.16679 0.11862 0.68004
 C602 C 0.17926 0.11060 0.67553
 C603 C 0.18383 0.11717 0.66248
 H604 H 0.16041 0.11690 0.69009
 H605 H 0.19355 0.11412 0.65593
 Cu606 Cu 0.14882 0.14517 0.66954
 Cu607 Cu 0.17526 0.14282 0.64307
 Cu608 Cu 0.14792 0.17065 0.64200
 N609 N 0.13332 0.16065 0.66864
 N610 N 0.13303 0.17055 0.65780
 C611 C 0.12155 0.18019 0.66000
 C612 C 0.11433 0.17606 0.67287
 C613 C 0.12202 0.16369 0.67813
 H614 H 0.11886 0.18968 0.65298
 H615 H 0.11974 0.15762 0.68826
 N616 N 0.16393 0.16885 0.62703
 N617 N 0.17433 0.15822 0.62742
 C618 C 0.18400 0.16038 0.61614
 C619 C 0.17938 0.17287 0.60835
 C620 C 0.16672 0.17804 0.61550
 H621 H 0.19393 0.15370 0.61402
 H622 H 0.16034 0.18803 0.61277
 H623 H 0.16500 0.16059 0.65399
 H624 H 0.15257 0.14796 0.64292
 N625 N 0.32781 0.63307 0.34273
 N626 N 0.33782 0.63301 0.33199
 C627 C 0.33477 0.62160 0.32262
 C628 C 0.32227 0.61420 0.32785
 C629 C 0.31809 0.62171 0.34057
 H630 H 0.34093 0.61905 0.31259
 H631 H 0.30851 0.61930 0.34753
 Cu632 Cu 0.35347 0.64823 0.33106
 Cu633 Cu 0.32773 0.64823 0.35834
 Cu634 Cu 0.35582 0.67511 0.35715
 N635 N 0.36933 0.66327 0.33063
 N636 N 0.37018 0.67371 0.34095
 C637 C 0.38172 0.68293 0.33786
 C638 C 0.38840 0.67796 0.32498
 C639 C 0.38031 0.66553 0.32060
 H640 H 0.38477 0.69275 0.34427
 H641 H 0.38208 0.65891 0.31069
 N642 N 0.34030 0.67468 0.37267
 N643 N 0.32957 0.66447 0.37312
 C644 C 0.32034 0.66762 0.38456
 C645 C 0.32560 0.68032 0.39157
 C646 C 0.33818 0.68458 0.38380
 H647 H 0.31028 0.66145 0.38732
 H648 H 0.34495 0.69443 0.38584
 H649 H 0.33810 0.66494 0.34622
 H650 H 0.35051 0.65250 0.35761
 N651 N 0.32865 0.13091 0.84269
 N652 N 0.33888 0.13161 0.83220
 C653 C 0.33658 0.12030 0.82250
 C654 C 0.32438 0.11215 0.82730
 C655 C 0.31955 0.11915 0.84007
 H656 H 0.34303 0.11832 0.81255
 H657 H 0.30992 0.11613 0.84671
 Cu658 Cu 0.35370 0.14766 0.83202
 Cu659 Cu 0.32732 0.14574 0.85849
 Cu660 Cu 0.35374 0.17438 0.85838
 N661 N 0.36862 0.16360 0.83213
 N662 N 0.36858 0.17402 0.84251
 C663 C 0.37978 0.18381 0.83986
 C664 C 0.38717 0.17921 0.82721
 C665 C 0.37984 0.16643 0.82253
 H666 H 0.38221 0.19364 0.84648
 H667 H 0.38236 0.15988 0.81275
 N668 N 0.33782 0.17271 0.87349
 N669 N 0.32780 0.16178 0.87354
 C670 C 0.31802 0.16416 0.88468
 C671 C 0.32215 0.17710 0.89196
 C672 C 0.33465 0.18233 0.88463
 H673 H 0.30829 0.15732 0.88702
 H674 H 0.34064 0.19262 0.88691
 H675 H 0.33705 0.16328 0.84706
 H676 H 0.34984 0.15155 0.85865
 N677 N 0.82746 0.63327 0.84321
 N678 N 0.83754 0.63311 0.83255
 C679 C 0.83449 0.62171 0.82318
 C680 C 0.82190 0.61441 0.82832
 C681 C 0.81766 0.62198 0.84100
 H682 H 0.84069 0.61910 0.81319
 H683 H 0.80800 0.61968 0.84787
 Cu684 Cu 0.85325 0.64826 0.83163
 Cu685 Cu 0.82739 0.64845 0.85879
 Cu686 Cu 0.85561 0.67519 0.85769
 N687 N 0.86916 0.66321 0.83126
 N688 N 0.87002 0.67368 0.84155
 C689 C 0.88159 0.68286 0.83846
 C690 C 0.88828 0.67782 0.82561
 C691 C 0.88017 0.66540 0.82125
 H692 H 0.88464 0.69270 0.84483
 H693 H 0.88194 0.65875 0.81135
 N694 N 0.84001 0.67485 0.87315
 N695 N 0.82923 0.66470 0.87355
 C696 C 0.81992 0.66793 0.88490
 C697 C 0.82519 0.68062 0.89191
 C698 C 0.83785 0.68480 0.88423
 H699 H 0.80979 0.66184 0.88759
 H700 H 0.84464 0.69464 0.88628
 H701 H 0.83785 0.66515 0.84662
 H702 H 0.85015 0.65266 0.85809
 N703 N 0.82728 0.13325 0.34410
 N704 N 0.83729 0.13317 0.33338
 C705 C 0.83421 0.12180 0.32398
 C706 C 0.82168 0.11445 0.32918
 C707 C 0.81750 0.12195 0.34191
 H708 H 0.84038 0.11922 0.31397
 H709 H 0.80790 0.11956 0.34884
 Cu710 Cu 0.85302 0.14829 0.33251
 Cu711 Cu 0.82723 0.14839 0.35972
 Cu712 Cu 0.85547 0.17511 0.35864
 N713 N 0.86893 0.16323 0.33213
 N714 N 0.86984 0.17364 0.34247
 C715 C 0.88139 0.18283 0.33938
 C716 C 0.88803 0.17788 0.32648
 C717 C 0.87991 0.16547 0.32209
 H718 H 0.88446 0.19264 0.34578
 H719 H 0.88163 0.15888 0.31215
 N720 N 0.83990 0.17475 0.37413
 N721 N 0.82911 0.16460 0.37452
 C722 C 0.81986 0.16777 0.38594
 C723 C 0.82518 0.18042 0.39299
 C724 C 0.83781 0.18462 0.38528
 H725 H 0.80977 0.16165 0.38865
 H726 H 0.84466 0.19441 0.38737
 H727 H 0.83767 0.16508 0.34770
 H728 H 0.84997 0.15256 0.35907
 N729 N 0.67062 0.36813 0.33912
 N730 N 0.66178 0.36692 0.32747
 C731 C 0.66476 0.37815 0.31793
 C732 C 0.67602 0.38679 0.32397
 C733 C 0.67958 0.38017 0.33736
 H734 H 0.65945 0.37968 0.30723
 H735 H 0.68829 0.38360 0.34501
 Cu736 Cu 0.64785 0.35035 0.32533
 Cu737 Cu 0.67034 0.35350 0.35521
 Cu738 Cu 0.64235 0.32657 0.35379
 N739 N 0.63070 0.33698 0.32589
 N740 N 0.62857 0.32765 0.33700
 C741 C 0.61637 0.31920 0.33414
 C742 C 0.61062 0.32358 0.32059
 C743 C 0.61994 0.33482 0.31560
 H744 H 0.61229 0.31022 0.34112
 H745 H 0.61922 0.34062 0.30508
 N746 N 0.65743 0.32741 0.36981
 N747 N 0.66810 0.33768 0.37036
 C748 C 0.67697 0.33492 0.38218
 C749 C 0.67155 0.32240 0.38935
 C750 C 0.65923 0.31785 0.38127
 H751 H 0.68690 0.34124 0.38512
 H752 H 0.65239 0.30806 0.38336
 H753 H 0.66130 0.33546 0.34385
 H754 H 0.64775 0.34912 0.35226
 N755 N 0.66944 0.86825 0.83854
 N756 N 0.66037 0.86729 0.82704
 C757 C 0.66331 0.87862 0.81760
 C758 C 0.67478 0.88706 0.82355
 C759 C 0.67850 0.88021 0.83678
 H760 H 0.65786 0.88035 0.80700
 H761 H 0.68741 0.88342 0.84431
 Cu762 Cu 0.64624 0.85085 0.82491
 Cu763 Cu 0.66938 0.85338 0.85441
 Cu764 Cu 0.64160 0.82627 0.85289
 N765 N 0.62942 0.83703 0.82534
 N766 N 0.62763 0.82742 0.83627
 C767 C 0.61563 0.81872 0.83336
 C768 C 0.60963 0.82323 0.81997
 C769 C 0.61860 0.83480 0.81511
 H770 H 0.61185 0.80950 0.84020
 H771 H 0.61761 0.84078 0.80472
 N772 N 0.65680 0.82701 0.86879
 N773 N 0.66740 0.83736 0.86937
 C774 C 0.67637 0.83455 0.88112
 C775 C 0.67110 0.82190 0.88819
 C776 C 0.65875 0.81735 0.88014
 H777 H 0.68622 0.84095 0.88409
 H778 H 0.65198 0.80751 0.88219
 H779 H 0.66021 0.83564 0.84279
 H780 H 0.64674 0.84897 0.85182
 N781 N 0.16826 0.36999 0.83600
 N782 N 0.15780 0.36823 0.82581
 C783 C 0.15947 0.37890 0.81533
 C784 C 0.17153 0.38773 0.81928
 C785 C 0.17690 0.38181 0.83237
 H786 H 0.15270 0.37998 0.80541
 H787 H 0.18658 0.38559 0.83859
 Cu788 Cu 0.14353 0.35176 0.82706
 Cu789 Cu 0.17043 0.35639 0.85279
 Cu790 Cu 0.14492 0.32711 0.85524
 N791 N 0.12914 0.33540 0.82859
 N792 N 0.12975 0.32580 0.83968
 C793 C 0.11893 0.31540 0.83789
 C794 C 0.11120 0.31872 0.82504
 C795 C 0.11792 0.33141 0.81936
 H796 H 0.11705 0.30594 0.84518
 H797 H 0.11504 0.33706 0.80912
 N798 N 0.16107 0.33035 0.86989
 N799 N 0.17079 0.34150 0.86894
 C800 C 0.18072 0.34036 0.88019
 C801 C 0.17699 0.32798 0.88854
 C802 C 0.16457 0.32184 0.88177
 H803 H 0.19020 0.34772 0.88196
 H804 H 0.15879 0.31171 0.88505
 H805 H 0.16109 0.33778 0.84269
 H806 H 0.14820 0.35001 0.85369
 N807 N 0.16914 0.86881 0.33650
 N808 N 0.15889 0.86793 0.32601
 C809 C 0.16135 0.87883 0.31593
 C810 C 0.17375 0.88689 0.32043
 C811 C 0.17848 0.88029 0.33346
 H812 H 0.15485 0.88061 0.30594
 H813 H 0.18813 0.88341 0.34006
 Cu814 Cu 0.14370 0.85224 0.32633
 Cu815 Cu 0.17002 0.85466 0.35301
 Cu816 Cu 0.14268 0.82699 0.35395
 N817 N 0.12837 0.83669 0.32700
 N818 N 0.12801 0.82692 0.33793
 C819 C 0.11676 0.81713 0.33555
 C820 C 0.10975 0.82103 0.32248
 C821 C 0.11734 0.83342 0.31725
 H822 H 0.11416 0.80763 0.34257
 H823 H 0.11523 0.83931 0.30696
 N824 N 0.15846 0.82886 0.36916
 N825 N 0.16895 0.83932 0.36878
 C826 C 0.17846 0.83716 0.38025
 C827 C 0.17361 0.82485 0.38814
 C828 C 0.16100 0.81981 0.38087
 H829 H 0.18839 0.84376 0.38247
 H830 H 0.15446 0.80999 0.38367
 H831 H 0.15990 0.83695 0.34215
 H832 H 0.14741 0.84973 0.35303
 C833 C 0.25179 1.03967 0.25247
 C834 C 0.25917 1.03189 0.24116
 C835 C 0.25886 1.01615 0.24083
 C836 C 0.25167 1.00795 0.25224
 C837 C 0.24457 1.01610 0.26376
 C838 C 0.24438 1.03184 0.26366
 C839 C 0.25161 0.99108 0.25213
 C840 C 0.24014 0.98292 0.25938
 C841 C 0.24034 0.96717 0.25953
 C842 C 0.25157 0.95936 0.25196
 C843 C 0.26280 0.96715 0.24447
 C844 C 0.26304 0.98288 0.24479
 H845 H 0.25180 1.05186 0.25254
 H846 H 0.26415 1.01047 0.23159
 H847 H 0.23923 1.01037 0.27291
 H848 H 0.23094 0.98864 0.26484
 H849 H 0.25156 0.94716 0.25188
 H850 H 0.27223 0.98856 0.23936
 C851 C 0.25247 0.53924 0.75380
 C852 C 0.26009 0.53154 0.74261
 C853 C 0.25939 0.51583 0.74187
 C854 C 0.25154 0.50755 0.75276
 C855 C 0.24420 0.51560 0.76422
 C856 C 0.24443 0.53134 0.76452
 C857 C 0.25097 0.49070 0.75213
 C858 C 0.23895 0.48272 0.75865
 C859 C 0.23862 0.46698 0.75829
 C860 C 0.24987 0.45902 0.75089
 C861 C 0.26167 0.46666 0.74412
 C862 C 0.26243 0.48236 0.74500
 H863 H 0.25277 0.55142 0.75416
 H864 H 0.26488 0.51025 0.73268
 H865 H 0.23834 0.50978 0.77299
 H866 H 0.22974 0.48858 0.76394
 H867 H 0.24946 0.44685 0.75042
 H868 H 0.27204 0.48789 0.74016
 C869 C 0.75060 -0.03890 0.25464
 C870 C 0.76173 -0.03124 0.26246
 C871 C 0.76244 -0.01552 0.26182
 C872 C 0.75151 -0.00720 0.25386
 C873 C 0.74009 -0.01523 0.24636
 C874 C 0.73991 -0.03096 0.24646
 C875 C 0.75204 0.00966 0.25332
 C876 C 0.74524 0.01765 0.24151
 C877 C 0.74533 0.03338 0.24124
 C878 C 0.75279 0.04136 0.25232
 C879 C 0.75991 0.03374 0.26389
 C880 C 0.75929 0.01802 0.26461
 H881 H 0.75029 -0.05109 0.25488
 H882 H 0.77162 -0.00998 0.26746
 H883 H 0.73124 -0.00943 0.24043
 H884 H 0.73989 0.01183 0.23240
 H885 H 0.75304 0.05355 0.25196
 H886 H 0.76438 0.01251 0.27405
 C887 C 0.74986 0.46095 0.75476
 C888 C 0.76110 0.46863 0.76241
 C889 C 0.76177 0.48434 0.76176
 C890 C 0.75074 0.49265 0.75392
 C891 C 0.73923 0.48460 0.74657
 C892 C 0.73904 0.46887 0.74672
 C893 C 0.75124 0.50952 0.75335
 C894 C 0.74428 0.51750 0.74162
 C895 C 0.74435 0.53322 0.74134
 C896 C 0.75199 0.54122 0.75230
 C897 C 0.75929 0.53361 0.76377
 C898 C 0.75865 0.51790 0.76452
 H899 H 0.74956 0.44876 0.75503
 H900 H 0.77101 0.48989 0.76728
 H901 H 0.73031 0.49038 0.74073
 H902 H 0.73881 0.51166 0.73259
 H903 H 0.75224 0.55340 0.75191
 H904 H 0.76387 0.51239 0.77391
 C905 C 0.25360 0.46059 0.25125
 C906 C 0.26423 0.46846 0.25951
 C907 C 0.26402 0.48421 0.25970
 C908 C 0.25263 0.49234 0.25214
 C909 C 0.24171 0.48402 0.24418
 C910 C 0.24245 0.46831 0.24346
 C911 C 0.25212 0.50926 0.25254
 C912 C 0.24424 0.51751 0.24155
 C913 C 0.24345 0.53322 0.24216
 C914 C 0.25113 0.54101 0.25322
 C915 C 0.25932 0.53320 0.26394
 C916 C 0.25953 0.51745 0.26387
 H917 H 0.25397 0.44841 0.25091
 H918 H 0.27285 0.48990 0.26570
 H919 H 0.23249 0.48953 0.23857
 H920 H 0.23874 0.51195 0.23238
 H921 H 0.25078 0.55320 0.25346
 H922 H 0.26544 0.51182 0.27276
 C923 C 0.75132 1.03932 0.75316
 C924 C 0.75874 1.03135 0.74202
 C925 C 0.75872 1.01562 0.74212
 C926 C 0.75182 1.00761 0.75381
 C927 C 0.74463 1.01596 0.76516
 C928 C 0.74412 1.03169 0.76461
 C929 C 0.75209 0.99073 0.75415
 C930 C 0.74093 0.98258 0.76184
 C931 C 0.74137 0.96685 0.76234
 C932 C 0.75251 0.95901 0.75468
 C933 C 0.76343 0.96678 0.74672
 C934 C 0.76346 0.98252 0.74671
 H935 H 0.75114 1.05152 0.75290
 H936 H 0.76404 1.00979 0.73298
 H937 H 0.73946 1.01042 0.77451
 H938 H 0.73177 0.98828 0.76738
 H939 H 0.75266 0.94682 0.75486
 H940 H 0.77243 0.98819 0.74092
 C941 C 0.75172 0.53911 0.25288
 C942 C 0.75908 0.53114 0.24171
 C943 C 0.75914 0.51541 0.24186
 C944 C 0.75238 0.50740 0.25363
 C945 C 0.74527 0.51575 0.26502
 C946 C 0.74469 0.53147 0.26444
 C947 C 0.75270 0.49053 0.25397
 C948 C 0.74164 0.48236 0.26178
 C949 C 0.74213 0.46663 0.26227
 C950 C 0.75319 0.45881 0.25448
 C951 C 0.76402 0.46661 0.24642
 C952 C 0.76401 0.48235 0.24642
 H953 H 0.75147 0.55130 0.25258
 H954 H 0.76440 0.50959 0.23269
 H955 H 0.74023 0.51021 0.27445
 H956 H 0.73253 0.48804 0.26741
 H957 H 0.75335 0.44662 0.25464
 H958 H 0.77291 0.48804 0.24054
 C959 C 0.25166 -0.04033 0.75256
 C960 C 0.26307 -0.03267 0.75996
 C961 C 0.26349 -0.01693 0.75966
 C962 C 0.25200 -0.00859 0.75251
 C963 C 0.24033 -0.01665 0.74542
 C964 C 0.24043 -0.03237 0.74513
 C965 C 0.25215 0.00832 0.75240
 C966 C 0.24423 0.01653 0.74141
 C967 C 0.24402 0.03226 0.74160
 C968 C 0.25229 0.04007 0.75225
 C969 C 0.26050 0.03225 0.76296
 C970 C 0.26017 0.01651 0.76328
 H971 H 0.25153 -0.05253 0.75254
 H972 H 0.27288 -0.01140 0.76494
 H973 H 0.23105 -0.01091 0.74012
 H974 H 0.23823 0.01090 0.73259
 H975 H 0.25234 0.05226 0.75218
 H976 H 0.26613 0.01086 0.77213
 C977 C 0.24737 0.25282 1.04072
 C978 C 0.23662 0.26113 1.03298
 C979 C 0.23664 0.26119 1.01743
 C980 C 0.24796 0.25350 1.00939
 C981 C 0.25900 0.24550 1.01754
 C982 C 0.25842 0.24486 1.03305
 C983 C 0.24826 0.25379 0.99270
 C984 C 0.25585 0.24245 0.98457
 C985 C 0.25652 0.24300 0.96906
 C986 C 0.24900 0.25434 0.96137
 C987 C 0.24108 0.26540 0.96908
 C988 C 0.24099 0.26538 0.98463
 H989 H 0.24716 0.25255 1.05276
 H990 H 0.22772 0.26718 1.01181
 H991 H 0.26817 0.23979 1.01204
 H992 H 0.26122 0.23309 0.99009
 H993 H 0.24930 0.25455 0.94934
 H994 H 0.23528 0.27449 0.99023
 C995 C 0.24722 0.75244 0.54031
 C996 C 0.23983 0.76394 0.53270
 C997 C 0.24053 0.76460 0.51718
 C998 C 0.24804 0.75326 0.50899
 C999 C 0.25506 0.74148 0.51697
 C1000 C 0.25497 0.74132 0.53250
 C1001 C 0.24859 0.75370 0.49232
 C1002 C 0.26005 0.74608 0.48442
 C1003 C 0.26023 0.74609 0.46888
 C1004 C 0.24951 0.75430 0.46100
 C1005 C 0.23833 0.76222 0.46854
 C1006 C 0.23763 0.76167 0.48406
 H1007 H 0.24695 0.75215 0.55234
 H1008 H 0.23527 0.77405 0.51169
 H1009 H 0.26059 0.73230 0.51130
 H1010 H 0.26894 0.74014 0.49014
 H1011 H 0.24983 0.75449 0.44897
 H1012 H 0.22841 0.76737 0.48949
 C1013 C 0.24729 0.75448 -0.04107
 C1014 C 0.25852 0.76218 -0.03343
 C1015 C 0.25904 0.76172 -0.01790
 C1016 C 0.24787 0.75404 -0.00975
 C1017 C 0.23636 0.74664 -0.01775
 C1018 C 0.23632 0.74659 -0.03329
 C1019 C 0.24824 0.75369 0.00690
 C1020 C 0.24137 0.74186 0.01485
 C1021 C 0.24143 0.74174 0.03038
 C1022 C 0.24894 0.75297 0.03821
 C1023 C 0.25612 0.76456 0.03062
 C1024 C 0.25550 0.76514 0.01510
 H1025 H 0.24711 0.75458 -0.05311
 H1026 H 0.26826 0.76726 -0.01234
 H1027 H 0.22736 0.74093 -0.01206
 H1028 H 0.23602 0.73263 0.00912
 H1029 H 0.24920 0.75270 0.05025
 H1030 H 0.26063 0.77461 0.00958
 C1031 C 0.24725 0.25397 0.45945
 C1032 C 0.25847 0.26165 0.46714
 C1033 C 0.25895 0.26113 0.48267
 C1034 C 0.24777 0.25341 0.49076
 C1035 C 0.23631 0.24602 0.48272
 C1036 C 0.23629 0.24603 0.46718
 C1037 C 0.24811 0.25301 0.50742
 C1038 C 0.24116 0.24120 0.51532
 C1039 C 0.24119 0.24104 0.53086
 C1040 C 0.24874 0.25221 0.53873
 C1041 C 0.25597 0.26378 0.53118
 C1042 C 0.25539 0.26441 0.51566
 H1043 H 0.24709 0.25414 0.44741
 H1044 H 0.26817 0.26665 0.48826
 H1045 H 0.22730 0.24026 0.48836
 H1046 H 0.23576 0.23201 0.50957
 H1047 H 0.24897 0.25191 0.55076
 H1048 H 0.26056 0.27387 0.51019
 C1049 C 0.74871 0.75406 1.04084
 C1050 C 0.74052 0.76495 1.03315
 C1051 C 0.74055 0.76506 1.01760
 C1052 C 0.74824 0.75377 1.00950
 C1053 C 0.75611 0.74260 1.01760
 C1054 C 0.75663 0.74301 1.03312
 C1055 C 0.74806 0.75361 0.99282
 C1056 C 0.75953 0.74622 0.98472
 C1057 C 0.75910 0.74568 0.96920
 C1058 C 0.74770 0.75310 0.96148
 C1059 C 0.73650 0.76082 0.96918
 C1060 C 0.73643 0.76081 0.98473
 H1061 H 0.74890 0.75419 1.05288
 H1062 H 0.73463 0.77404 1.01201
 H1063 H 0.76181 0.73346 1.01202
 H1064 H 0.76890 0.74090 0.99028
 H1065 H 0.74756 0.75287 0.94944
 H1066 H 0.72721 0.76633 0.99033
 C1067 C 0.74897 0.25412 0.54179
 C1068 C 0.74071 0.26498 0.53412
 C1069 C 0.74070 0.26509 0.51857
 C1070 C 0.74840 0.25383 0.51046
 C1071 C 0.75635 0.24270 0.51853
 C1072 C 0.75691 0.24311 0.53404
 C1073 C 0.74819 0.25369 0.49378
 C1074 C 0.75964 0.24630 0.48566
 C1075 C 0.75921 0.24580 0.47015
 C1076 C 0.74784 0.25327 0.46245
 C1077 C 0.73664 0.26098 0.47017
 C1078 C 0.73657 0.26092 0.48572
 H1079 H 0.74918 0.25423 0.55383
 H1080 H 0.73472 0.27405 0.51300
 H1081 H 0.76207 0.23358 0.51294
 H1082 H 0.76901 0.24095 0.49120
 H1083 H 0.74770 0.25309 0.45041
 H1084 H 0.72735 0.26644 0.49132
 C1085 C 0.74894 0.25327 -0.04100
 C1086 C 0.76012 0.26090 -0.03321
 C1087 C 0.76009 0.26092 -0.01767
 C1088 C 0.74841 0.25385 -0.00967
 C1089 C 0.73700 0.24650 -0.01784
 C1090 C 0.73750 0.24594 -0.03336
 C1091 C 0.74811 0.25414 0.00701
 C1092 C 0.74037 0.24298 0.01512
 C1093 C 0.73984 0.24347 0.03065
 C1094 C 0.74757 0.25465 0.03833
 C1095 C 0.75558 0.26557 0.03060
 C1096 C 0.75558 0.26556 0.01506
 H1097 H 0.74915 0.25303 -0.05303
 H1098 H 0.76928 0.26638 -0.01199
 H1099 H 0.72761 0.24125 -0.01232
 H1100 H 0.73481 0.23377 0.00956
 H1101 H 0.74739 0.25484 0.05037
 H1102 H 0.76137 0.27456 0.00942
 C1103 C 0.74860 0.75350 0.45906
 C1104 C 0.75980 0.76107 0.46686
 C1105 C 0.75973 0.76111 0.48241
 C1106 C 0.74800 0.75411 0.49038
 C1107 C 0.73656 0.74682 0.48219
 C1108 C 0.73708 0.74625 0.46667
 C1109 C 0.74769 0.75436 0.50705
 C1110 C 0.74003 0.74312 0.51513
 C1111 C 0.73950 0.74357 0.53065
 C1112 C 0.74714 0.75480 0.53837
 C1113 C 0.75506 0.76580 0.53066
 C1114 C 0.75508 0.76582 0.51512
 H1115 H 0.74885 0.75323 0.44702
 H1116 H 0.76893 0.76654 0.48812
 H1117 H 0.72714 0.74162 0.48771
 H1118 H 0.73454 0.73389 0.50952
 H1119 H 0.74695 0.75494 0.55040
 H1120 H 0.76081 0.77486 0.50949
 C1121 C 1.03930 0.24763 0.24878
 C1122 C 1.03158 0.23615 0.25598
 C1123 C 1.01587 0.23566 0.25538
 C1124 C 1.00761 0.24708 0.24807
 C1125 C 1.01569 0.25880 0.24114
 C1126 C 1.03142 0.25884 0.24124
 C1127 C 0.99075 0.24681 0.24768
 C1128 C 0.98268 0.25412 0.23622
 C1129 C 0.96695 0.25415 0.23612
 C1130 C 0.95906 0.24636 0.24701
 C1131 C 0.96678 0.23880 0.25824
 C1132 C 0.98249 0.23927 0.25880
 H1133 H 1.05149 0.24783 0.24904
 H1134 H 1.01026 0.22628 0.26057
 H1135 H 1.00993 0.26799 0.23571
 H1136 H 0.98845 0.25976 0.22728
 H1137 H 0.94687 0.24623 0.24679
 H1138 H 0.98810 0.23384 0.26801
 C1139 C 0.53912 0.24620 0.74742
 C1140 C 0.53135 0.23525 0.75533
 C1141 C 0.51561 0.23514 0.75522
 C1142 C 0.50741 0.24647 0.74769
 C1143 C 0.51557 0.25766 0.74003
 C1144 C 0.53129 0.25729 0.73965
 C1145 C 0.49052 0.24666 0.74786
 C1146 C 0.48228 0.25389 0.73646
 C1147 C 0.46656 0.25441 0.73687
 C1148 C 0.45881 0.24716 0.74822
 C1149 C 0.46667 0.23966 0.75941
 C1150 C 0.48241 0.23968 0.75945
 H1151 H 0.55131 0.24612 0.74734
 H1152 H 0.50995 0.22614 0.76097
 H1153 H 0.50989 0.26679 0.73442
 H1154 H 0.48789 0.25910 0.72717
 H1155 H 0.44663 0.24735 0.74834
 H1156 H 0.48816 0.23433 0.76861
 C1157 C -0.03929 0.24733 0.74783
 C1158 C -0.03134 0.25808 0.75586
 C1159 C -0.01562 0.25794 0.75579
 C1160 C -0.00758 0.24652 0.74823
 C1161 C -0.01592 0.23553 0.74041
 C1162 C -0.03165 0.23618 0.73998
 C1163 C 0.00931 0.24609 0.74854
 C1164 C 0.01756 0.23867 0.73727
 C1165 C 0.03329 0.23816 0.73776
 C1166 C 0.04103 0.24558 0.74905
 C1167 C 0.03316 0.25322 0.76011
 C1168 C 0.01743 0.25318 0.76010
 H1169 H -0.05148 0.24763 0.74771
 H1170 H -0.00986 0.26685 0.76162
 H1171 H -0.01040 0.22636 0.73472
 H1172 H 0.01197 0.23336 0.72801
 H1173 H 0.05321 0.24543 0.74921
 H1174 H 0.01173 0.25866 0.76921
 C1175 C 0.46075 0.24549 0.24915
 C1176 C 0.46869 0.25370 0.25973
 C1177 C 0.48441 0.25369 0.25959
 C1178 C 0.49246 0.24610 0.24828
 C1179 C 0.48412 0.23814 0.23745
 C1180 C 0.46842 0.23757 0.23814
 C1181 C 0.50935 0.24656 0.24777
 C1182 C 0.51769 0.23543 0.24010
 C1183 C 0.53340 0.23610 0.23947
 C1184 C 0.54106 0.24738 0.24707
 C1185 C 0.53312 0.25827 0.25498
 C1186 C 0.51740 0.25815 0.25501
 H1187 H 0.44857 0.24530 0.24945
 H1188 H 0.49015 0.25960 0.26840
 H1189 H 0.48962 0.23243 0.22836
 H1190 H 0.51220 0.22612 0.23465
 H1191 H 0.55324 0.24766 0.24686
 H1192 H 0.51166 0.26719 0.26068
 C1193 C 1.03959 0.74609 0.74589
 C1194 C 1.03192 0.73499 0.75369
 C1195 C 1.01619 0.73461 0.75340
 C1196 C 1.00787 0.74586 0.74587
 C1197 C 1.01593 0.75723 0.73836
 C1198 C 1.03166 0.75707 0.73808
 C1199 C 0.99098 0.74576 0.74589
 C1200 C 0.98270 0.75305 0.73455
 C1201 C 0.96697 0.75330 0.73484
 C1202 C 0.95926 0.74571 0.74599
 C1203 C 0.96716 0.73813 0.75708
 C1204 C 0.98289 0.73843 0.75727
 H1205 H 1.05178 0.74621 0.74593
 H1206 H 1.01063 0.72547 0.75903
 H1207 H 1.01016 0.76632 0.73278
 H1208 H 0.98828 0.75851 0.72539
 H1209 H 0.94707 0.74573 0.74606
 H1210 H 0.98862 0.73301 0.76640
 C1211 C 0.54016 0.74634 0.24618
 C1212 C 0.53243 0.73519 0.25386
 C1213 C 0.51670 0.73487 0.25355
 C1214 C 0.50845 0.74620 0.24607
 C1215 C 0.51656 0.75759 0.23866
 C1216 C 0.53229 0.75741 0.23844
 C1217 C 0.49156 0.74614 0.24601
 C1218 C 0.48336 0.75346 0.23464
 C1219 C 0.46763 0.75373 0.23485
 C1220 C 0.45985 0.74612 0.24593
 C1221 C 0.46767 0.73853 0.25707
 C1222 C 0.48340 0.73880 0.25734
 H1223 H 0.55235 0.74641 0.24625
 H1224 H 0.51109 0.72572 0.25911
 H1225 H 0.51083 0.76674 0.23311
 H1226 H 0.48901 0.75894 0.22553
 H1227 H 0.44766 0.74613 0.24591
 H1228 H 0.48908 0.73336 0.26650
 C1229 C -0.04019 0.74734 0.24637
 C1230 C -0.03231 0.75832 0.25418
 C1231 C -0.01660 0.75856 0.25374
 C1232 C -0.00846 0.74726 0.24610
 C1233 C -0.01672 0.73604 0.23851
 C1234 C -0.03246 0.73635 0.23839
 C1235 C 0.00845 0.74718 0.24611
 C1236 C 0.01667 0.73964 0.23490
 C1237 C 0.03241 0.73940 0.23517
 C1238 C 0.04018 0.74724 0.24615
 C1239 C 0.03234 0.75503 0.25712
 C1240 C 0.01663 0.75469 0.25737
 H1241 H -0.05238 0.74736 0.24652
 H1242 H -0.01093 0.76766 0.25935
 H1243 H -0.01113 0.72696 0.23275
 H1244 H 0.01106 0.73399 0.22585
 H1245 H 0.05237 0.74728 0.24616
 H1246 H 0.01099 0.76027 0.26645
 C1247 C 0.45968 0.74673 0.74682
 C1248 C 0.46759 0.75442 0.75781
 C1249 C 0.48331 0.75411 0.75791
 C1250 C 0.49141 0.74675 0.74650
 C1251 C 0.48312 0.73929 0.73529
 C1252 C 0.46738 0.73900 0.73570
 C1253 C 0.50830 0.74695 0.74629
 C1254 C 0.51660 0.73579 0.73860
 C1255 C 0.53233 0.73622 0.73827
 C1256 C 0.54003 0.74729 0.74614
 C1257 C 0.53211 0.75822 0.75402
 C1258 C 0.51639 0.75831 0.75381
 H1259 H 0.44750 0.74678 0.74692
 H1260 H 0.48903 0.75960 0.76700
 H1261 H 0.48869 0.73376 0.72613
 H1262 H 0.51104 0.72666 0.73293
 H1263 H 0.55222 0.74740 0.74613
 H1264 H 0.51067 0.76736 0.75951
 C1265 C 0.42364 0.29609 0.30340
 N1266 N 0.43186 0.30241 0.29242
 N1267 N 0.44164 0.29416 0.28471
 C1268 C 0.44352 0.27935 0.28778
 N1269 N 0.43532 0.27304 0.29879
 N1270 N 0.42554 0.28129 0.30650
 C1271 C 0.41237 0.30470 0.31099
 C1272 C 0.40258 0.31172 0.31712
 C1273 C 0.45303 0.27022 0.27860
 C1274 C 0.46048 0.26261 0.27033
 C1275 C 0.42284 0.79607 0.80251
 N1276 N 0.43202 0.80273 0.79251
 N1277 N 0.44167 0.79452 0.78460
 C1278 C 0.44246 0.77942 0.78647
 N1279 N 0.43330 0.77276 0.79650
 N1280 N 0.42365 0.78097 0.80441
 C1281 C 0.41180 0.80475 0.81034
 C1282 C 0.40222 0.81189 0.81667
 C1283 C 0.45192 0.77048 0.77706
 C1284 C 0.45937 0.76307 0.76860
 C1285 C -0.07681 0.30227 0.79730
 N1286 N -0.07589 0.30445 0.78243
 N1287 N -0.06602 0.29671 0.77435
 C1288 C -0.05673 0.28657 0.78089
 N1289 N -0.05762 0.28441 0.79576
 N1290 N -0.06750 0.29216 0.80385
 C1291 C -0.08814 0.30986 0.80580
 C1292 C -0.09801 0.31597 0.81271
 C1293 C -0.04708 0.27726 0.77203
 C1294 C -0.03956 0.26886 0.76460
 C1295 C -0.07746 0.80201 0.29650
 N1296 N -0.07662 0.80443 0.28167
 N1297 N -0.06685 0.79676 0.27339
 C1298 C -0.05759 0.78645 0.27971
 N1299 N -0.05839 0.78407 0.29455
 N1300 N -0.06817 0.79174 0.30283
 C1301 C -0.08870 0.80951 0.30520
 C1302 C -0.09848 0.81558 0.31226
 C1303 C -0.04804 0.77724 0.27065
 C1304 C -0.04055 0.76895 0.26308
 C1305 C 0.57892 0.69217 0.29541
 N1306 N 0.57916 0.69104 0.28040
 N1307 N 0.56912 0.69843 0.27218
 C1308 C 0.55850 0.70715 0.27871
 N1309 N 0.55824 0.70827 0.29372
 N1310 N 0.56828 0.70088 0.30194
 C1311 C 0.59033 0.68504 0.30419
 C1312 C 0.60018 0.67940 0.31153
 C1313 C 0.54861 0.71622 0.26985
 C1314 C 0.54087 0.72449 0.26249
 C1315 C 0.57836 0.19216 0.79621
 N1316 N 0.57822 0.19091 0.78121
 N1317 N 0.56800 0.19829 0.77318
 C1318 C 0.55758 0.20710 0.77992
 N1319 N 0.55769 0.20830 0.79492
 N1320 N 0.56791 0.20093 0.80295
 C1321 C 0.58999 0.18507 0.80477
 C1322 C 0.59999 0.17947 0.81193
 C1323 C 0.54758 0.21622 0.77123
 C1324 C 0.53979 0.22453 0.76395
 C1325 C 1.07871 0.69232 0.79531
 N1326 N 1.07876 0.69097 0.78031
 N1327 N 1.06864 0.69829 0.77212
 C1328 C 1.05813 0.70715 0.77866
 N1329 N 1.05805 0.70845 0.79366
 N1330 N 1.06817 0.70113 0.80186
 C1331 C 1.09024 0.68529 0.80405
 C1332 C 1.10016 0.67973 0.81135
 C1333 C 1.04820 0.71617 0.76979
 C1334 C 1.04042 0.72438 0.76240
 C1335 C 1.07845 0.19230 0.29618
 N1336 N 1.07867 0.19165 0.28115
 N1337 N 1.06850 0.19917 0.27319
 C1338 C 1.05778 0.20752 0.28002
 N1339 N 1.05753 0.20813 0.29505
 N1340 N 1.06770 0.20062 0.30302
 C1341 C 1.09005 0.18515 0.30472
 C1342 C 1.10004 0.17953 0.31188
 C1343 C 1.04781 0.21680 0.27147
 C1344 C 1.04003 0.22525 0.26435
 C1345 C 0.57766 0.30192 0.70005
 N1346 N 0.57016 0.29049 0.69341
 N1347 N 0.56007 0.28257 0.70098
 C1348 C 0.55713 0.28586 0.71539
 N1349 N 0.56460 0.29732 0.72201
 N1350 N 0.57469 0.30524 0.71444
 C1351 C 0.58925 0.30981 0.69225
 C1352 C 0.59930 0.31627 0.68601
 C1353 C 0.54730 0.27646 0.72388
 C1354 C 0.53964 0.26804 0.73107
 C1355 C 0.57816 0.80270 0.19897
 N1356 N 0.57556 0.80566 0.21351
 N1357 N 0.56559 0.79761 0.22111
 C1358 C 0.55789 0.78637 0.21438
 N1359 N 0.56046 0.78344 0.19983
 N1360 N 0.57043 0.79149 0.19223
 C1361 C 0.58964 0.81070 0.19112
 C1362 C 0.59962 0.81725 0.18484
 C1363 C 0.54818 0.77684 0.22285
 C1364 C 0.54058 0.76830 0.22999
 C1365 C 1.07720 0.30507 0.20287
 N1366 N 1.07678 0.30579 0.21790
 N1367 N 1.06685 0.29768 0.22548
 C1368 C 1.05701 0.28865 0.21825
 N1369 N 1.05739 0.28798 0.20322
 N1370 N 1.06733 0.29608 0.19565
 C1371 C 1.08860 0.31292 0.19479
 C1372 C 1.09845 0.31918 0.18806
 C1373 C 1.04731 0.27886 0.22643
 C1374 C 1.03972 0.27006 0.23324
 C1375 C 1.07763 0.80205 0.69844
 N1376 N 1.07482 0.80521 0.71290
 N1377 N 1.06479 0.79723 0.72048
 C1378 C 1.05724 0.78586 0.71382
 N1379 N 1.06001 0.78272 0.69935
 N1380 N 1.07005 0.79070 0.69176
 C1381 C 1.08920 0.80994 0.69062
 C1382 C 1.09926 0.81637 0.68436
 C1383 C 1.04749 0.77639 0.72231
 C1384 C 1.03990 0.76790 0.72951
 C1385 C 0.41995 0.69913 0.69235
 N1386 N 0.42157 0.71412 0.69013
 N1387 N 0.43187 0.72184 0.69768
 C1388 C 0.44090 0.71480 0.70764
 N1389 N 0.43931 0.69981 0.70982
 N1390 N 0.42901 0.69209 0.70228
 C1391 C 0.40822 0.69102 0.68494
 C1392 C 0.39812 0.68433 0.67897
 C1393 C 0.45100 0.72331 0.71676
 C1394 C 0.45887 0.73048 0.72503
 C1395 C 0.42148 0.19609 0.19575
 N1396 N 0.42851 0.19003 0.20770
 N1397 N 0.43870 0.19793 0.21520
 C1398 C 0.44221 0.21211 0.21095
 N1399 N 0.43522 0.21815 0.19897
 N1400 N 0.42502 0.21025 0.19148
 C1401 C 0.40985 0.18799 0.18820
 C1402 C 0.39980 0.18154 0.18191
 C1403 C 0.45216 0.22104 0.21982
 C1404 C 0.45993 0.22859 0.22784
 C1405 C -0.08006 0.69347 0.19823
 N1406 N -0.07080 0.70336 0.19140
 N1407 N -0.06042 0.71075 0.19916
 C1408 C -0.05895 0.70844 0.21397
 N1409 N -0.06818 0.69852 0.22078
 N1410 N -0.07855 0.69113 0.21302
 C1411 C -0.09189 0.68626 0.19010
 C1412 C -0.10211 0.68044 0.18348
 C1413 C -0.04882 0.71749 0.22254
 C1414 C -0.04095 0.72571 0.22977
 C1415 C -0.07957 0.19386 0.69954
 N1416 N -0.07789 0.19128 0.71428
 N1417 N -0.06747 0.19861 0.72205
 C1418 C -0.05837 0.20870 0.71530
 N1419 N -0.06003 0.21125 0.70055
 N1420 N -0.07045 0.20393 0.69278
 C1421 C -0.09139 0.18666 0.69138
 C1422 C -0.10156 0.18082 0.68468
 C1423 C -0.04816 0.21762 0.72391
 C1424 C -0.04022 0.22571 0.73122
 C1425 C 0.30765 0.42102 0.29954
 N1426 N 0.31030 0.42291 0.28484
 N1427 N 0.30280 0.43330 0.27716
 C1428 C 0.29246 0.44217 0.28395
 N1429 N 0.28985 0.44032 0.29865
 N1430 N 0.29735 0.42992 0.30634
 C1431 C 0.31494 0.40913 0.30757
 C1432 C 0.32078 0.39888 0.31417
 C1433 C 0.28331 0.45227 0.27540
 C1434 C 0.27498 0.46008 0.26816
 C1435 C 0.30760 -0.08013 0.79887
 N1436 N 0.30892 -0.07927 0.78390
 N1437 N 0.30119 -0.06900 0.77628
 C1438 C 0.29193 -0.05924 0.78340
 N1439 N 0.29063 -0.06009 0.79837
 N1440 N 0.29837 -0.07036 0.80599
 C1441 C 0.31518 -0.09179 0.80697
 C1442 C 0.32126 -0.10184 0.81368
 C1443 C 0.28255 -0.04913 0.77510
 C1444 C 0.27404 -0.04123 0.76817
 C1445 C 0.80464 0.42143 0.80267
 N1446 N 0.80828 0.42444 0.78837
 N1447 N 0.80062 0.43473 0.78069
 C1448 C 0.78911 0.44234 0.78710
 N1449 N 0.78549 0.43936 0.80141
 N1450 N 0.79315 0.42907 0.80909
 C1451 C 0.81221 0.40962 0.81055
 C1452 C 0.81840 0.39937 0.81683
 C1453 C 0.77995 0.45234 0.77846
 C1454 C 0.77169 0.46014 0.77114
 C1455 C 0.80479 -0.07851 0.30314
 N1456 N 0.80884 -0.07511 0.28904
 N1457 N 0.80123 -0.06481 0.28134
 C1458 C 0.78936 -0.05758 0.28752
 N1459 N 0.78533 -0.06095 0.30164
 N1460 N 0.79294 -0.07125 0.30934
 C1461 C 0.81232 -0.09036 0.31101
 C1462 C 0.81848 -0.10064 0.31727
 C1463 C 0.78031 -0.04755 0.27879
 C1464 C 0.77217 -0.03974 0.27136
 C1465 C 0.30041 0.57762 0.69833
 N1466 N 0.28615 0.57392 0.69448
 N1467 N 0.27846 0.56399 0.70247
 C1468 C 0.28480 0.55743 0.71454
 N1469 N 0.29907 0.56110 0.71837
 N1470 N 0.30676 0.57104 0.71037
 C1471 C 0.30834 0.58893 0.69020
 C1472 C 0.31473 0.59870 0.68347
 C1473 C 0.27615 0.54766 0.72383
 C1474 C 0.26882 0.53998 0.73210
 C1475 C 0.29777 1.07862 0.19610
 N1476 N 0.28271 1.07709 0.19441
 N1477 N 0.27520 1.06696 0.20234
 C1478 C 0.28253 1.05801 0.21216
 N1479 N 0.29760 1.05951 0.21382
 N1480 N 0.30511 1.06964 0.20590
 C1481 C 0.30570 1.09011 0.18819
 C1482 C 0.31226 1.10000 0.18178
 C1483 C 0.27428 1.04807 0.22166
 C1484 C 0.26736 1.04032 0.23021
 C1485 C 0.79722 0.57644 0.19503
 N1486 N 0.80465 0.56698 0.20429
 N1487 N 0.79711 0.55711 0.21250
 C1488 C 0.78192 0.55639 0.21167
 N1489 N 0.77449 0.56582 0.20237
 N1490 N 0.78203 0.57568 0.19416
 C1491 C 0.80522 0.58784 0.18709
 C1492 C 0.81184 0.59775 0.18080
 C1493 C 0.77376 0.54681 0.22155
 C1494 C 0.76699 0.53933 0.23042
 C1495 C 0.79744 1.07704 0.69612
 N1496 N 0.78227 1.07622 0.69499
 N1497 N 0.77463 1.06627 0.70302
 C1498 C 0.78193 1.05682 0.71240
 N1499 N 0.79711 1.05762 0.71349
 N1500 N 0.80475 1.06757 0.70547
 C1501 C 0.80556 1.08842 0.68823
 C1502 C 0.81227 1.09824 0.68190
 C1503 C 0.77365 1.04713 0.72208
 C1504 C 0.76678 1.03957 0.73083
 C1505 C 0.70483 0.57837 0.30848
 N1506 N 0.69779 0.56773 0.30026
 N1507 N 0.70573 0.55762 0.29266
 C1508 C 0.72096 0.55780 0.29307
 N1509 N 0.72801 0.56842 0.30131
 N1510 N 0.72006 0.57854 0.30892
 C1511 C 0.69631 0.58991 0.31578
 C1512 C 0.68916 0.59986 0.32152
 C1513 C 0.72946 0.54783 0.28378
 C1514 C 0.73648 0.54001 0.27533
 C1515 C 0.70401 1.07874 0.80831
 N1516 N 0.69697 1.06842 0.79970
 N1517 N 0.70490 1.05823 0.79217
 C1518 C 0.72011 1.05802 0.79305
 N1519 N 0.72715 1.06831 0.80171
 N1520 N 0.71922 1.07850 0.80923
 C1521 C 0.69555 1.09038 0.81556
 C1522 C 0.68849 1.10040 0.82130
 C1523 C 0.72867 1.04804 0.78382
 C1524 C 0.73579 1.04022 0.77543
 C1525 C 0.20423 0.57799 0.80851
 N1526 N 0.21943 0.57762 0.80955
 N1527 N 0.22734 0.56743 0.80200
 C1528 C 0.22029 0.55726 0.79322
 N1529 N 0.20508 0.55759 0.79223
 N1530 N 0.19718 0.56778 0.79978
 C1531 C 0.19580 0.58966 0.81574
 C1532 C 0.18873 0.59971 0.82142
 C1533 C 0.22884 0.54735 0.78389
 C1534 C 0.23599 0.53966 0.77541
 C1535 C 0.20474 1.07846 0.30812
 N1536 N 0.19760 1.06799 0.29976
 N1537 N 0.20546 1.05783 0.29213
 C1538 C 0.22069 1.05779 0.29266
 N1539 N 0.22782 1.06823 0.30106
 N1540 N 0.21996 1.07839 0.30869
 C1541 C 0.19633 1.09011 0.31540
 C1542 C 0.18929 1.10014 0.32113
 C1543 C 0.22913 1.04790 0.28323
 C1544 C 0.23615 1.04020 0.27467
 C1545 C 0.69470 0.42332 0.70573
 N1546 N 0.69286 0.42404 0.72066
 N1547 N 0.70059 0.43395 0.72869
 C1548 C 0.71037 0.44345 0.72205
 N1549 N 0.71217 0.44275 0.70712
 N1550 N 0.70444 0.43285 0.69908
 C1551 C 0.68717 0.41196 0.69724
 C1552 C 0.68113 0.40210 0.69028
 C1553 C 0.71973 0.45309 0.73082
 C1554 C 0.72819 0.46063 0.73814
 C1555 C 0.69582 -0.07605 0.20464
 N1556 N 0.69341 -0.07500 0.21946
 N1557 N 0.70115 -0.06522 0.22764
 C1558 C 0.71151 -0.05617 0.22123
 N1559 N 0.71388 -0.05720 0.20640
 N1560 N 0.70614 -0.06698 0.19822
 C1561 C 0.68822 -0.08730 0.19604
 C1562 C 0.68211 -0.09708 0.18903
 C1563 C 0.72080 -0.04664 0.23020
 C1564 C 0.72917 -0.03917 0.23768
 C1565 C 0.19931 0.42203 0.20185
 N1566 N 0.19514 0.42532 0.21596
 N1567 N 0.20283 0.43532 0.22393
 C1568 C 0.21489 0.44238 0.21801
 N1569 N 0.21903 0.43912 0.20388
 N1570 N 0.21135 0.42912 0.19592
 C1571 C 0.19155 0.41065 0.19358
 C1572 C 0.18511 0.40084 0.18689
 C1573 C 0.22393 0.45219 0.22695
 C1574 C 0.23205 0.45988 0.23449
 C1575 C 0.19513 -0.07721 0.70444
 N1576 N 0.20457 -0.06742 0.69774
 N1577 N 0.21249 -0.05768 0.70579
 C1578 C 0.21119 -0.05742 0.72078
 N1579 N 0.20171 -0.06718 0.72748
 N1580 N 0.19378 -0.07692 0.71943
 C1581 C 0.18749 -0.08846 0.69592
 C1582 C 0.18141 -0.09825 0.68892
 C1583 C 0.22076 -0.04796 0.72950
 C1584 C 0.22939 -0.04054 0.73672
 C1585 C 0.30350 0.30181 0.42174
 N1586 N 0.30634 0.28702 0.42409
 N1587 N 0.29831 0.27929 0.43393
 C1588 C 0.28722 0.28614 0.44174
 N1589 N 0.28441 0.30095 0.43942
 N1590 N 0.29244 0.30867 0.42958
 C1591 C 0.31152 0.30985 0.41048
 C1592 C 0.31811 0.31631 0.40072
 C1593 C 0.27772 0.27755 0.45136
 C1594 C 0.26924 0.27029 0.45889
 C1595 C 0.30356 0.80220 -0.07898
 N1596 N 0.30693 0.78764 -0.07594
 N1597 N 0.29886 0.77997 -0.06609
 C1598 C 0.28721 0.78663 -0.05896
 N1599 N 0.28387 0.80120 -0.06196
 N1600 N 0.29194 0.80888 -0.07181
 C1601 C 0.31161 0.81011 -0.09030
 C1602 C 0.31823 0.81647 -0.10011
 C1603 C 0.27773 0.77804 -0.04931
 C1604 C 0.26928 0.77079 -0.04175
 C1605 C 0.80610 0.29952 -0.07892
 N1606 N 0.80721 0.28434 -0.07800
 N1607 N 0.79914 0.27679 -0.06806
 C1608 C 0.78974 0.28419 -0.05871
 N1609 N 0.78867 0.29937 -0.05961
 N1610 N 0.79674 0.30692 -0.06955
 C1611 C 0.81396 0.30752 -0.09032
 C1612 C 0.82025 0.31413 -0.10017
 C1613 C 0.78002 0.27597 -0.04900
 C1614 C 0.77128 0.26907 -0.04143
 C1615 C 0.80615 0.79937 0.42125
 N1616 N 0.80705 0.78418 0.42207
 N1617 N 0.79892 0.77667 0.43198
 C1618 C 0.78965 0.78413 0.44141
 N1619 N 0.78878 0.79933 0.44062
 N1620 N 0.79691 0.80684 0.43070
 C1621 C 0.81407 0.80735 0.40988
 C1622 C 0.82039 0.81396 0.40004
 C1623 C 0.77986 0.77597 0.45110
 C1624 C 0.77105 0.76914 0.45866
 C1625 C 0.69946 0.30841 0.58037
 N1626 N 0.69270 0.29830 0.57131
 N1627 N 0.70068 0.29073 0.56126
 C1628 C 0.71566 0.29308 0.55992
 N1629 N 0.72242 0.30322 0.56895
 N1630 N 0.71444 0.31078 0.57900
 C1631 C 0.69109 0.31579 0.59190
 C1632 C 0.68425 0.32171 0.60187
 C1633 C 0.72447 0.28392 0.55010
 C1634 C 0.73190 0.27563 0.54244
 C1635 C 0.69977 0.80867 1.07953
 N1636 N 0.69298 0.79817 1.07093
 N1637 N 0.70084 0.79055 1.06082
 C1638 C 0.71571 0.79323 1.05897
 N1639 N 0.72248 0.80376 1.06754
 N1640 N 0.71463 0.81138 1.07765
 C1641 C 0.69155 0.81614 1.09109
 C1642 C 0.68480 0.82213 1.10107
 C1643 C 0.72443 0.78401 1.04912
 C1644 C 0.73178 0.77567 1.04146
 C1645 C 0.19323 0.30210 1.07946
 N1646 N 0.20338 0.30893 1.07054
 N1647 N 0.21089 0.30103 1.06038
 C1648 C 0.20845 0.28607 1.05880
 N1649 N 0.19825 0.27926 1.06768
 N1650 N 0.19074 0.28716 1.07784
 C1651 C 0.18593 0.31036 1.09109
 C1652 C 0.18005 0.31710 1.10114
 C1653 C 0.21761 0.27733 1.04892
 C1654 C 0.22592 0.26993 1.04126
 C1655 C 0.19946 0.80818 0.57896
 N1656 N 0.19245 0.79864 0.56950
 N1657 N 0.20032 0.79093 0.55947
 C1658 C 0.21543 0.79256 0.55857
 N1659 N 0.22244 0.80214 0.56801
 N1660 N 0.21457 0.80985 0.57804
 C1661 C 0.19115 0.81568 0.59043
 C1662 C 0.18430 0.82168 0.60034
 C1663 C 0.22404 0.78322 0.54873
 C1664 C 0.23127 0.77478 0.54106
 C1665 C 0.29545 0.69488 0.57659
 N1666 N 0.30238 0.70403 0.56674
 N1667 N 0.29434 0.71221 0.55721
 C1668 C 0.27913 0.71147 0.55722
 N1669 N 0.27219 0.70228 0.56704
 N1670 N 0.28024 0.69410 0.57657
 C1671 C 0.30401 0.68695 0.58758
 C1672 C 0.31107 0.68060 0.59713
 C1673 C 0.27046 0.72131 0.54793
 C1674 C 0.26330 0.73013 0.54062
 C1675 C 0.30166 0.20135 1.07752
 N1676 N 0.30460 0.21624 1.07630
 N1677 N 0.29691 0.22473 1.06675
 C1678 C 0.28608 0.21856 1.05810
 N1679 N 0.28318 0.20366 1.05929
 N1680 N 0.29086 0.19517 1.06885
 C1681 C 0.30925 0.19247 1.08849
 C1682 C 0.31545 0.18526 1.09802
 C1683 C 0.27699 0.22788 1.04870
 C1684 C 0.26884 0.23568 1.04127
 C1685 C 0.79857 0.69836 1.07779
 N1686 N 0.78410 0.69466 1.07485
 N1687 N 0.77603 0.70270 1.06522
 C1688 C 0.78220 0.71467 1.05823
 N1689 N 0.79668 0.71834 1.06114
 N1690 N 0.80475 0.71030 1.07077
 C1691 C 0.80695 0.69023 1.08880
 C1692 C 0.81372 0.68353 1.09833
 C1693 C 0.77319 0.72404 1.04877
 C1694 C 0.76561 0.73239 1.04133
 C1695 C 0.79926 0.19869 0.57856
 N1696 N 0.78491 0.19471 0.57540
 N1697 N 0.77677 0.20271 0.56579
 C1698 C 0.78274 0.21491 0.55904
 N1699 N 0.79710 0.21887 0.56217
 N1700 N 0.80524 0.21087 0.57177
 C1701 C 0.80766 0.19064 0.58961
 C1702 C 0.81440 0.18400 0.59920
 C1703 C 0.77363 0.22422 0.54962
 C1704 C 0.76597 0.23253 0.54221
 C1705 C 0.69242 0.70526 0.42146
 N1706 N 0.70089 0.69844 0.43203
 N1707 N 0.70864 0.70661 0.44178
 C1708 C 0.70814 0.72184 0.44127
 N1709 N 0.69962 0.72865 0.43074
 N1710 N 0.69187 0.72048 0.42099
 C1711 C 0.68508 0.69650 0.41024
 C1712 C 0.67932 0.68920 0.40051
 C1713 C 0.71761 0.73058 0.45083
 C1714 C 0.72616 0.73781 0.45835
 C1715 C 0.69301 0.20496 -0.07872
 N1716 N 0.70173 0.19812 -0.06836
 N1717 N 0.70945 0.20625 -0.05857
 C1718 C 0.70866 0.22148 -0.05880
 N1719 N 0.69989 0.22832 -0.06912
 N1720 N 0.69217 0.22018 -0.07892
 C1721 C 0.68563 0.19625 -0.08997
 C1722 C 0.67983 0.18898 -0.09969
 C1723 C 0.71808 0.23022 -0.04921
 C1724 C 0.72659 0.23747 -0.04166
 C1725 C 0.19211 0.70517 -0.07851
 N1726 N 0.20096 0.69841 -0.06821
 N1727 N 0.20860 0.70661 -0.05840
 C1728 C 0.20759 0.72182 -0.05857
 N1729 N 0.19870 0.72858 -0.06884
 N1730 N 0.19106 0.72038 -0.07865
 C1731 C 0.18482 0.69641 -0.08976
 C1732 C 0.17907 0.68908 -0.09948
 C1733 C 0.21695 0.73066 -0.04899
 C1734 C 0.22543 0.73799 -0.04149
 C1735 C 0.19192 0.20468 0.42203
 N1736 N 0.20063 0.19790 0.43243
 N1737 N 0.20831 0.20610 0.44221
 C1738 C 0.20749 0.22132 0.44191
 N1739 N 0.19873 0.22810 0.43154
 N1740 N 0.19105 0.21990 0.42176
 C1741 C 0.18460 0.19592 0.41078
 C1742 C 0.17886 0.18860 0.40106
 C1743 C 0.21691 0.23013 0.45146
 C1744 C 0.22541 0.23744 0.45895
 C1745 C 0.30671 0.42081 0.70396
 N1746 N 0.30643 0.41972 0.71897
 N1747 N 0.29861 0.42957 0.72703
 C1748 C 0.29086 0.44083 0.72032
 N1749 N 0.29119 0.44195 0.70532
 N1750 N 0.29901 0.43210 0.69726
 C1751 C 0.31421 0.40958 0.69524
 C1752 C 0.32012 0.39990 0.68789
 C1753 C 0.28131 0.45054 0.72886
 C1754 C 0.27269 0.45820 0.73590
 C1755 C 0.30710 0.92098 0.20399
 N1756 N 0.30773 0.92062 0.21902
 N1757 N 0.30009 0.93064 0.22705
 C1758 C 0.29163 0.94134 0.22029
 N1759 N 0.29106 0.94172 0.20525
 N1760 N 0.29869 0.93171 0.19722
 C1761 C 0.31435 0.90949 0.19538
 C1762 C 0.32004 0.89957 0.18819
 C1763 C 0.28224 0.95113 0.22890
 C1764 C 0.27372 0.95878 0.23606
 C1765 C 0.80738 0.42071 0.20460
 N1766 N 0.80869 0.42054 0.21960
 N1767 N 0.80119 0.43047 0.22785
 C1768 C 0.79218 0.44089 0.22136
 N1769 N 0.79091 0.44109 0.20637
 N1770 N 0.79841 0.43116 0.19811
 C1771 C 0.81457 0.40933 0.19580
 C1772 C 0.82025 0.39949 0.18849
 C1773 C 0.78301 0.45061 0.23028
 C1774 C 0.77469 0.45824 0.23771
 C1775 C 0.80698 0.92084 0.70508
 N1776 N 0.80794 0.92041 0.72010
 N1777 N 0.80040 0.93030 0.72835
 C1778 C 0.79168 0.94096 0.72184
 N1779 N 0.79075 0.94142 0.70683
 N1780 N 0.79829 0.93152 0.69857
 C1781 C 0.81424 0.90954 0.69624
 C1782 C 0.81996 0.89980 0.68883
 C1783 C 0.78248 0.95071 0.73072
 C1784 C 0.77415 0.95837 0.73809
 C1785 C 0.70445 0.57788 0.69500
 N1786 N 0.69743 0.56884 0.70490
 N1787 N 0.70531 0.55914 0.71308
 C1788 C 0.72044 0.55816 0.71159
 N1789 N 0.72745 0.56715 0.70165
 N1790 N 0.71957 0.57685 0.69347
 C1791 C 0.69612 0.58912 0.68705
 C1792 C 0.68926 0.59890 0.68071
 C1793 C 0.72902 0.54875 0.72138
 C1794 C 0.73611 0.54137 0.73017
 C1795 C 0.70582 0.07813 0.19475
 N1796 N 0.69871 0.06847 0.20399
 N1797 N 0.70658 0.05876 0.21216
 C1798 C 0.72178 0.05838 0.21132
 N1799 N 0.72889 0.06801 0.20205
 N1800 N 0.72102 0.07773 0.19387
 C1801 C 0.69744 0.08932 0.18680
 C1802 C 0.69048 0.09902 0.18045
 C1803 C 0.73026 0.04894 0.22115
 C1804 C 0.73724 0.04153 0.22999
 C1805 C 0.20165 0.57881 0.19830
 N1806 N 0.19578 0.57253 0.21070
 N1807 N 0.20379 0.56271 0.21861
 C1808 C 0.21789 0.55883 0.21435
 N1809 N 0.22374 0.56507 0.20192
 N1810 N 0.21573 0.57489 0.19401
 C1811 C 0.19339 0.59001 0.19021
 C1812 C 0.18675 0.59968 0.18348
 C1813 C 0.22689 0.54916 0.22351
 C1814 C 0.23448 0.54157 0.23170
 C1815 C 0.20191 0.07791 0.69810
 N1816 N 0.19617 0.07167 0.71057
 N1817 N 0.20423 0.06182 0.71841
 C1818 C 0.21826 0.05789 0.71399
 N1819 N 0.22400 0.06411 0.70150
 N1820 N 0.21594 0.07396 0.69367
 C1821 C 0.19359 0.08913 0.69011
 C1822 C 0.18688 0.09881 0.68346
 C1823 C 0.22734 0.04822 0.72308
 C1824 C 0.23498 0.04062 0.73122
 C1825 C 0.29963 0.58028 0.30727
 N1826 N 0.28479 0.57827 0.30997
 N1827 N 0.27701 0.56802 0.30242
 C1828 C 0.28384 0.55943 0.29197
 N1829 N 0.29869 0.56140 0.28929
 N1830 N 0.30648 0.57165 0.29685
 C1831 C 0.30778 0.59195 0.31475
 C1832 C 0.31447 0.60199 0.32082
 C1833 C 0.27520 0.54943 0.28286
 C1834 C 0.26793 0.54163 0.27460
 C1835 C 0.30247 0.07848 0.80566
 N1836 N 0.28840 0.07477 0.81008
 N1837 N 0.28041 0.06474 0.80248
 C1838 C 0.28626 0.05807 0.79024
 N1839 N 0.30034 0.06175 0.78584
 N1840 N 0.30833 0.07179 0.79344
 C1841 C 0.31064 0.08999 0.81334
 C1842 C 0.31712 0.09996 0.81972
 C1843 C 0.27722 0.04827 0.78132
 C1844 C 0.26957 0.04061 0.77328
 C1845 C 0.79913 0.58078 0.80746
 N1846 N 0.78410 0.57937 0.80946
 N1847 N 0.77635 0.56917 0.80182
 C1848 C 0.78340 0.56003 0.79197
 N1849 N 0.79844 0.56141 0.79000
 N1850 N 0.80619 0.57162 0.79764
 C1851 C 0.80730 0.59235 0.81506
 C1852 C 0.81404 0.60230 0.82121
 C1853 C 0.77488 0.55000 0.78278
 C1854 C 0.76773 0.54216 0.77446
 C1855 C 0.79907 0.08079 0.30825
 N1856 N 0.78407 0.07919 0.31024
 N1857 N 0.77642 0.06901 0.30247
 C1858 C 0.78357 0.06007 0.29251
 N1859 N 0.79858 0.06165 0.29054
 N1860 N 0.80622 0.07183 0.29831
 C1861 C 0.80713 0.09237 0.31592
 C1862 C 0.81383 0.10233 0.32209
 C1863 C 0.77518 0.05009 0.28317
 C1864 C 0.76817 0.04227 0.27473
 C1865 C 0.69784 0.42062 0.30264
 N1866 N 0.69433 0.42357 0.28828
 N1867 N 0.70222 0.43356 0.28056
 C1868 C 0.71386 0.44093 0.28698
 N1869 N 0.71735 0.43801 0.30135
 N1870 N 0.70945 0.42802 0.30907
 C1871 C 0.69000 0.40910 0.31057
 C1872 C 0.68358 0.39908 0.31690
 C1873 C 0.72318 0.45067 0.27833
 C1874 C 0.73151 0.45829 0.27100
 C1875 C 0.69670 0.92091 0.80235
 N1876 N 0.69331 0.92381 0.78795
 N1877 N 0.70126 0.93380 0.78028
 C1878 C 0.71281 0.94121 0.78678
 N1879 N 0.71617 0.93835 0.80120
 N1880 N 0.70822 0.92836 0.80887
 C1881 C 0.68882 0.90938 0.81024
 C1882 C 0.68237 0.89935 0.81651
 C1883 C 0.72221 0.95094 0.77819
 C1884 C 0.73063 0.95854 0.77094
 C1885 C 0.19176 0.42104 0.79569
 N1886 N 0.19900 0.43227 0.80291
 N1887 N 0.20707 0.44227 0.79538
 C1888 C 0.20813 0.44136 0.78040
 N1889 N 0.20085 0.43016 0.77317
 N1890 N 0.19278 0.42016 0.78070
 C1891 C 0.18410 0.40958 0.80390
 C1892 C 0.17813 0.39971 0.81087
 C1893 C 0.21809 0.45113 0.77247
 C1894 C 0.22709 0.45873 0.76593
 C1895 C 0.19509 0.92035 0.29794
 N1896 N 0.20445 0.92986 0.30520
 N1897 N 0.21238 0.94001 0.29771
 C1898 C 0.21116 0.94100 0.28274
 N1899 N 0.20177 0.93151 0.27548
 N1900 N 0.19384 0.92136 0.28297
 C1901 C 0.18726 0.90882 0.30591
 C1902 C 0.18097 0.89891 0.31257
 C1903 C 0.22071 0.95097 0.27457
 C1904 C 0.22932 0.95875 0.26770
 C1905 C 0.42090 0.29534 0.69238
 N1906 N 0.43137 0.30217 0.70098
 N1907 N 0.44121 0.29402 0.70873
 C1908 C 0.44091 0.27879 0.70809
 N1909 N 0.43046 0.27196 0.69946
 N1910 N 0.42062 0.28011 0.69170
 C1911 C 0.40969 0.30408 0.68484
 C1912 C 0.40002 0.31141 0.67884
 C1913 C 0.45057 0.27005 0.71750
 C1914 C 0.45818 0.26283 0.72599
 C1915 C 0.42132 0.79483 0.19128
 N1916 N 0.43147 0.80166 0.20024
 N1917 N 0.44153 0.79354 0.20775
 C1918 C 0.44177 0.77835 0.20649
 N1919 N 0.43165 0.77152 0.19749
 N1920 N 0.42159 0.77964 0.18998
 C1921 C 0.40976 0.80346 0.18411
 C1922 C 0.39978 0.81065 0.17847
 C1923 C 0.45158 0.76956 0.21570
 C1924 C 0.45925 0.76227 0.22407
 C1925 C 0.92116 0.29509 0.19184
 N1926 N 0.93112 0.30196 0.20098
 N1927 N 0.94108 0.29387 0.20865
 C1928 C 0.94140 0.27869 0.20740
 N1929 N 0.93147 0.27182 0.19822
 N1930 N 0.92151 0.27990 0.19055
 C1931 C 0.90967 0.30368 0.18452
 C1932 C 0.89972 0.31085 0.17879
 C1933 C 0.95109 0.26993 0.21677
 C1934 C 0.95867 0.26266 0.22525
 C1935 C 0.92069 0.79464 0.69138
 N1936 N 0.93117 0.80138 0.70003
 N1937 N 0.94117 0.79317 0.70752
 C1938 C 0.94101 0.77796 0.70657
 N1939 N 0.93056 0.77121 0.69788
 N1940 N 0.92056 0.77942 0.69039
 C1941 C 0.90927 0.80342 0.68418
 C1942 C 0.89942 0.81076 0.67848
 C1943 C 0.95081 0.76912 0.71575
 C1944 C 0.95851 0.76182 0.72409
 C1945 C 0.57784 0.30288 0.29659
 N1946 N 0.57753 0.30456 0.28164
 N1947 N 0.56786 0.29672 0.27342
 C1948 C 0.55820 0.28700 0.27991
 N1949 N 0.55848 0.28536 0.29487
 N1950 N 0.56814 0.29319 0.30309
 C1951 C 0.58897 0.31049 0.30530
 C1952 C 0.59868 0.31658 0.31242
 C1953 C 0.54874 0.27760 0.27099
 C1954 C 0.54131 0.26912 0.26359
 C1955 C 0.57691 0.80238 0.79605
 N1956 N 0.57632 0.80443 0.78115
 N1957 N 0.56663 0.79668 0.77289
 C1958 C 0.55721 0.78666 0.77929
 N1959 N 0.55777 0.78463 0.79419
 N1960 N 0.56746 0.79239 0.80246
 C1961 C 0.58804 0.80997 0.80475
 C1962 C 0.59773 0.81612 0.81184
 C1963 C 0.54776 0.77734 0.77028
 C1964 C 0.54032 0.76895 0.76279
 C1965 C 0.07858 0.29401 0.80475
 N1966 N 0.06794 0.30086 0.79633
 N1967 N 0.05813 0.29273 0.78857
 C1968 C 0.05862 0.27750 0.78904
 N1969 N 0.06923 0.27065 0.79750
 N1970 N 0.07904 0.27878 0.80526
 C1971 C 0.08978 0.30275 0.81228
 C1972 C 0.09945 0.31006 0.81825
 C1973 C 0.04900 0.26879 0.77960
 C1974 C 0.04145 0.26160 0.77106
 C1975 C 0.07735 0.79709 0.30104
 N1976 N 0.06834 0.80363 0.29074
 N1977 N 0.05865 0.79539 0.28296
 C1978 C 0.05764 0.78036 0.28527
 N1979 N 0.06662 0.77383 0.29560
 N1980 N 0.07631 0.78208 0.30338
 C1981 C 0.08843 0.80578 0.30877
 C1982 C 0.09803 0.81287 0.31509
 C1983 C 0.04812 0.77134 0.27603
 C1984 C 0.04062 0.76382 0.26774
 C1985 C 0.57986 0.69332 0.69785
 N1986 N 0.57072 0.70346 0.69111
 N1987 N 0.56035 0.71087 0.69890
 C1988 C 0.55877 0.70833 0.71365
 N1989 N 0.56789 0.69816 0.72038
 N1990 N 0.57826 0.69076 0.71260
 C1991 C 0.59173 0.68614 0.68972
 C1992 C 0.60199 0.68036 0.68309
 C1993 C 0.54868 0.71739 0.72229
 C1994 C 0.54083 0.72561 0.72958
 C1995 C 0.58081 0.19341 0.19868
 N1996 N 0.57955 0.19102 0.21349
 N1997 N 0.56923 0.19838 0.22139
 C1998 C 0.55983 0.20832 0.21472
 N1999 N 0.56106 0.21067 0.19990
 N2000 N 0.57137 0.20331 0.19200
 C2001 C 0.59258 0.18625 0.19039
 C2002 C 0.60273 0.18048 0.18360
 C2003 C 0.54976 0.21733 0.22343
 C2004 C 0.54191 0.22552 0.23076
 C2005 C 0.07979 0.69917 0.19203
 N2006 N 0.07811 0.71414 0.18972
 N2007 N 0.06778 0.72193 0.19720
 C2008 C 0.05878 0.71497 0.20716
 N2009 N 0.06044 0.69999 0.20944
 N2010 N 0.07077 0.69220 0.20197
 C2011 C 0.09155 0.69099 0.18468
 C2012 C 0.10167 0.68430 0.17871
 C2013 C 0.04870 0.72357 0.21625
 C2014 C 0.04087 0.73081 0.22450
 C2015 C 0.08047 0.19863 0.69372
 N2016 N 0.07133 0.19147 0.70342
 N2017 N 0.06107 0.19916 0.71109
 C2018 C 0.05961 0.21422 0.70927
 N2019 N 0.06874 0.22137 0.69954
 N2020 N 0.07899 0.21369 0.69187
 C2021 C 0.09212 0.19052 0.68613
 C2022 C 0.10214 0.18384 0.67999
 C2023 C 0.04957 0.22267 0.71855
 C2024 C 0.04176 0.22976 0.72695
 C2025 C 0.42156 0.69936 0.30223
 N2026 N 0.42428 0.71408 0.30506
 N2027 N 0.43427 0.72163 0.29700
 C2028 C 0.44187 0.71468 0.28590
 N2029 N 0.43918 0.69995 0.28310
 N2030 N 0.42919 0.69240 0.29115
 C2031 C 0.41018 0.69151 0.31035
 C2032 C 0.40035 0.68517 0.31705
 C2033 C 0.45166 0.72309 0.27642
 C2034 C 0.45932 0.73016 0.26792
 C2035 C 0.42052 0.20122 0.80523
 N2036 N 0.42954 0.19385 0.79550
 N2037 N 0.43954 0.20136 0.78744
 C2038 C 0.44088 0.21648 0.78888
 N2039 N 0.43189 0.22384 0.79863
 N2040 N 0.42188 0.21633 0.80669
 C2041 C 0.40910 0.19329 0.81325
 C2042 C 0.39922 0.18679 0.81974
 C2043 C 0.45068 0.22472 0.77922
 C2044 C 0.45833 0.23159 0.77053
 C2045 C 0.92134 0.69907 0.80260
 N2046 N 0.92434 0.71370 0.80555
 N2047 N 0.93429 0.72120 0.79742
 C2048 C 0.94159 0.71428 0.78611
 N2049 N 0.93862 0.69963 0.78318
 N2050 N 0.92866 0.69213 0.79131
 C2051 C 0.91000 0.69128 0.81083
 C2052 C 0.90021 0.68500 0.81762
 C2053 C 0.95131 0.72268 0.77655
 C2054 C 0.95890 0.72975 0.76799
 C2055 C 0.92093 0.19937 0.30347
 N2056 N 0.92791 0.19262 0.29186
 N2057 N 0.93780 0.20019 0.28371
 C2058 C 0.94102 0.21472 0.28693
 N2059 N 0.93407 0.22146 0.29856
 N2060 N 0.92418 0.21388 0.30671
 C2061 C 0.90965 0.19151 0.31171
 C2062 C 0.89991 0.18514 0.31849
 C2063 C 0.95074 0.22319 0.27743
 C2064 C 0.95837 0.23032 0.26897
 C2065 C 0.29615 0.30795 0.57746
 N2066 N 0.28093 0.30859 0.57755
 N2067 N 0.27298 0.30097 0.56752
 C2068 C 0.28002 0.29253 0.55708
 N2069 N 0.29524 0.29193 0.55697
 N2070 N 0.30319 0.29955 0.56699
 C2071 C 0.30467 0.31524 0.58890
 C2072 C 0.31180 0.32098 0.59876
 C2073 C 0.27147 0.28317 0.54726
 C2074 C 0.26435 0.27468 0.53958
 C2075 C 0.29644 0.80896 0.07663
 N2076 N 0.30342 0.80049 0.06618
 N2077 N 0.29542 0.79284 0.05621
 C2078 C 0.28020 0.79345 0.05638
 N2079 N 0.27322 0.80197 0.06680
 N2080 N 0.28121 0.80962 0.07676
 C2081 C 0.30500 0.81622 0.08806
 C2082 C 0.31216 0.82190 0.09794
 C2083 C 0.27161 0.78404 0.04662
 C2084 C 0.26448 0.77551 0.03899
 C2085 C 0.79660 0.30935 0.07652
 N2086 N 0.80349 0.30032 0.06647
 N2087 N 0.79543 0.29277 0.05647
 C2088 C 0.78025 0.29407 0.05620
 N2089 N 0.77337 0.30314 0.06623
 N2090 N 0.78142 0.31068 0.07622
 C2091 C 0.80518 0.31654 0.08797
 C2092 C 0.81236 0.32218 0.09785
 C2093 C 0.77151 0.28479 0.04646
 C2094 C 0.76420 0.27638 0.03886
 C2095 C 0.79581 0.80983 0.57663
 N2096 N 0.78061 0.81094 0.57647
 N2097 N 0.77258 0.80338 0.56646
 C2098 C 0.77951 0.79450 0.55630
 N2099 N 0.79471 0.79344 0.55643
 N2100 N 0.80274 0.80101 0.56644
 C2101 C 0.80437 0.81697 0.58815
 C2102 C 0.81153 0.82253 0.59810
 C2103 C 0.77083 0.78515 0.54656
 C2104 C 0.76359 0.77668 0.53896
 C2105 C 0.30466 0.70408 0.42425
 N2106 N 0.30726 0.71902 0.42568
 N2107 N 0.29944 0.72721 0.43537
 C2108 C 0.28879 0.72069 0.44395
 N2109 N 0.28623 0.70574 0.44255
 N2110 N 0.29405 0.69755 0.43286
 C2111 C 0.31233 0.69550 0.41309
 C2112 C 0.31849 0.68846 0.40341
 C2113 C 0.27944 0.72970 0.45340
 C2114 C 0.27102 0.73723 0.46079
 C2115 C 0.29837 0.19858 0.92425
 N2116 N 0.28338 0.19619 0.92542
 N2117 N 0.27519 0.20404 0.93509
 C2118 C 0.28176 0.21448 0.94391
 N2119 N 0.29675 0.21685 0.94277
 N2120 N 0.30494 0.20901 0.93310
 C2121 C 0.30698 0.19083 0.91319
 C2122 C 0.31403 0.18451 0.90362
 C2123 C 0.27278 0.22383 0.95339
 C2124 C 0.26530 0.23224 0.96084
 C2125 C 0.80407 0.70439 0.92445
 N2126 N 0.80597 0.71948 0.92533
 N2127 N 0.79804 0.72760 0.93499
 C2128 C 0.78799 0.72086 0.94408
 N2129 N 0.78612 0.70577 0.94324
 N2130 N 0.79405 0.69765 0.93358
 C2131 C 0.81181 0.69583 0.91334
 C2132 C 0.81803 0.68879 0.90370
 C2133 C 0.77851 0.72971 0.95354
 C2134 C 0.76999 0.73707 0.96099
 C2135 C 0.80411 0.20430 0.42549
 N2136 N 0.79426 0.19759 0.43482
 N2137 N 0.78636 0.20576 0.44445
 C2138 C 0.78809 0.22089 0.44508
 N2139 N 0.79797 0.22759 0.43578
 N2140 N 0.80587 0.21942 0.42615
 C2141 C 0.81183 0.19566 0.41441
 C2142 C 0.81804 0.18859 0.40479
 C2143 C 0.77862 0.22979 0.45451
 C2144 C 0.77010 0.23717 0.46194
 C2145 C 0.69171 0.30014 0.42356
 N2146 N 0.69010 0.28505 0.42484
 N2147 N 0.69788 0.27743 0.43502
 C2148 C 0.70747 0.28468 0.44426
 N2149 N 0.70905 0.29978 0.44300
 N2150 N 0.70127 0.30740 0.43282
 C2151 C 0.68423 0.30815 0.41185
 C2152 C 0.67830 0.31474 0.40172
 C2153 C 0.71697 0.27632 0.45416
 C2154 C 0.72557 0.26930 0.46186
 C2155 C 0.69159 0.79964 0.92223
 N2156 N 0.69007 0.78454 0.92355
 N2157 N 0.69784 0.77700 0.93380
 C2158 C 0.70733 0.78433 0.94307
 N2159 N 0.70883 0.79944 0.94178
 N2160 N 0.70106 0.80698 0.93154
 C2161 C 0.68403 0.80761 0.91054
 C2162 C 0.67799 0.81419 0.90046
 C2163 C 0.71681 0.77605 0.95307
 C2164 C 0.72541 0.76909 0.96083
 C2165 C 0.20077 0.30925 0.92250
 N2166 N 0.19374 0.30074 0.93284
 N2167 N 0.20169 0.29328 0.94300
 C2168 C 0.21690 0.29414 0.94317
 N2169 N 0.22392 0.30269 0.93286
 N2170 N 0.21597 0.31016 0.92270
 C2171 C 0.19231 0.31630 0.91086
 C2172 C 0.18527 0.32181 0.90079
 C2173 C 0.22548 0.28485 0.95307
 C2174 C 0.23264 0.27637 0.96077
 C2175 C 0.19492 0.80328 0.42208
 N2176 N 0.19097 0.78897 0.42539
 N2177 N 0.19865 0.78115 0.43549
 C2178 C 0.21050 0.78744 0.44261
 N2179 N 0.21442 0.80177 0.43934
 N2180 N 0.20673 0.80959 0.42924
 C2181 C 0.18729 0.81128 0.41047
 C2182 C 0.18102 0.81767 0.40042
 C2183 C 0.21963 0.77861 0.45245
 C2184 C 0.22783 0.77114 0.46013
 C2185 C 0.69941 0.69848 0.57610
 N2186 N 0.71407 0.69535 0.57338
 N2187 N 0.72176 0.70339 0.56353
 C2188 C 0.71502 0.71480 0.55606
 N2189 N 0.70034 0.71791 0.55876
 N2190 N 0.69265 0.70987 0.56861
 C2191 C 0.69142 0.69039 0.58735
 C2192 C 0.68499 0.68372 0.59707
 C2193 C 0.72361 0.72429 0.54643
 C2194 C 0.73086 0.73277 0.53889
 C2195 C 0.69938 0.19852 0.07594
 N2196 N 0.71382 0.19489 0.07270
 N2197 N 0.72157 0.20297 0.06291
 C2198 C 0.71510 0.21490 0.05604
 N2199 N 0.70064 0.21851 0.05925
 N2200 N 0.69290 0.21043 0.06904
 C2201 C 0.69139 0.19040 0.08716
 C2202 C 0.68498 0.18371 0.09689
 C2203 C 0.72378 0.22435 0.04645
 C2204 C 0.73112 0.23277 0.03892
 C2205 C 0.20270 0.69505 0.07528
 N2206 N 0.21792 0.69434 0.07487
 N2207 N 0.22557 0.70254 0.06511
 C2208 C 0.21824 0.71167 0.05545
 N2209 N 0.20303 0.71234 0.05583
 N2210 N 0.19537 0.70414 0.06558
 C2211 C 0.19456 0.68712 0.08652
 C2212 C 0.18783 0.68081 0.09627
 C2213 C 0.22651 0.72156 0.04595
 C2214 C 0.23338 0.73044 0.03852
 C2215 C 0.20207 0.19438 0.57546
 N2216 N 0.21727 0.19344 0.57493
 N2217 N 0.22499 0.20164 0.56523
 C2218 C 0.21774 0.21101 0.55575
 N2219 N 0.20254 0.21191 0.55623
 N2220 N 0.19482 0.20371 0.56593
 C2221 C 0.19390 0.18643 0.58666
 C2222 C 0.18718 0.18009 0.59640
 C2223 C 0.22610 0.22089 0.54632
 C2224 C 0.23305 0.22976 0.53894
   
