data_POSCAR
  _audit_creation_date              2014-09-24
  _audit_creation_method            'ToBaCCo'
  _symmetry_space_group_name_H-M    'P1'
  _symmetry_Int_Tables_number       1
  _symmetry_cell_setting            triclinic
  loop_
  _symmetry_equiv_pos_as_xyz
 x,y,z
_cell_length_a 36.4117
_cell_length_b 36.3974
_cell_length_c 32.3660
_cell_angle_alpha 89.944400
_cell_angle_beta 89.220100
_cell_angle_gamma 89.191800
loop_
  _atom_site_label
  _atom_site_type_symbol
  _atom_site_fract_x
  _atom_site_fract_y
  _atom_site_fract_z
C1 C 0.35515 -0.00218 0.25248
 C2 C 0.14418 0.00167 0.74566
 C3 C 0.65311 0.50170 0.25144
 C4 C 0.85716 0.49735 0.75168
 C5 C 0.25277 0.39604 0.99169
 C6 C 0.74757 0.10772 0.99977
 C7 C 0.24740 0.61001 0.50172
 C8 C 0.74784 0.89286 0.50170
 C9 C 0.00320 0.24785 0.37383
 C10 C -0.00104 0.75126 0.12367
 C11 C 0.50017 0.25279 0.62224
 C12 C 0.49943 0.74877 0.87575
 C13 C -0.25035 0.61015 1.00265
 C14 C -0.25008 0.39032 0.50062
 C15 C 0.25004 -0.10999 0.00154
 C16 C 0.24418 1.10791 0.49519
 C17 C 0.14633 0.49905 0.24817
 C18 C -0.13922 0.99712 0.24955
 C19 C 0.35782 0.49857 -0.24247
 C20 C 0.64313 -0.00000 -0.24918
 C21 C -0.00251 0.25239 0.87441
 C22 C 0.50555 0.25000 0.12584
 C23 C 0.00121 0.74670 0.62295
 C24 C 0.49659 0.75142 0.37948
 B25 B -0.02039 0.02078 1.03183
 B26 B -0.04075 0.01247 0.98713
 B27 B -0.00731 0.04337 0.98937
 B28 B 0.02446 0.02845 1.02319
 B29 B 0.00979 -0.01301 1.04153
 B30 B -0.03116 -0.02261 1.01918
 B31 B 0.02072 -0.01942 0.95845
 B32 B 0.04097 -0.01095 1.00322
 B33 B 0.00774 -0.04189 1.00106
 B34 B -0.02416 -0.02706 0.96714
 B35 B -0.00952 0.01454 0.94871
 B36 B 0.03152 0.02403 0.97109
 B37 B 0.47884 0.51966 0.53736
 B38 B 0.45855 0.51321 0.49224
 B39 B 0.49146 0.54447 0.49626
 B40 B 0.52359 0.52845 0.52908
 B41 B 0.50965 0.48593 0.54487
 B42 B 0.46875 0.47681 0.52207
 B43 B 0.52035 0.48372 0.46154
 B44 B 0.54069 0.49031 0.50664
 B45 B 0.50784 0.45903 0.50270
 B46 B 0.47563 0.47499 0.46984
 B47 B 0.48959 0.51758 0.45398
 B48 B 0.53052 0.52663 0.47676
 B49 B 0.51655 0.98258 0.53831
 B50 B 0.53655 0.99093 0.49262
 B51 B 0.50404 0.95899 0.49664
 B52 B 0.47190 0.97336 0.53131
 B53 B 0.48525 1.01555 0.54833
 B54 B 0.52585 1.02609 0.52435
 B55 B 0.47387 1.02045 0.46554
 B56 B 0.45393 1.01191 0.51122
 B57 B 0.48629 1.04387 0.50720
 B58 B 0.51854 1.02958 0.47250
 B59 B 0.50516 0.98735 0.45540
 B60 B 0.46453 0.97686 0.47939
 B61 B 0.02247 0.48256 1.03415
 B62 B 0.04184 0.49139 0.98823
 B63 B 0.00938 0.45933 0.99247
 B64 B -0.02227 0.47339 1.02787
 B65 B -0.00872 0.51542 1.04511
 B66 B 0.03152 0.52625 1.02055
 B67 B -0.02133 0.52104 0.96266
 B68 B -0.04058 0.51209 1.00856
 B69 B -0.00830 0.54413 1.00433
 B70 B 0.02343 0.53020 0.96888
 B71 B 0.00988 0.48809 0.95156
 B72 B -0.03040 0.47734 0.97617
 B73 B 0.01946 0.51499 0.46346
 B74 B 0.04147 0.50765 0.50756
 B75 B 0.00693 0.53830 0.50599
 B76 B -0.02538 0.52251 0.47383
 B77 B -0.00983 0.48078 0.45591
 B78 B 0.03221 0.47195 0.47678
 B79 B -0.01790 0.47585 0.53946
 B80 B -0.03987 0.48334 0.49540
 B81 B -0.00537 0.45269 0.49694
 B82 B 0.02698 0.46842 0.52917
 B83 B 0.01138 0.51017 0.54715
 B84 B -0.03064 0.51899 0.52624
 B85 B 0.51780 0.01768 -0.03362
 B86 B 0.54007 0.00850 0.00992
 B87 B 0.50613 0.03990 0.00988
 B88 B 0.47320 0.02592 -0.02247
 B89 B 0.48765 -0.01554 -0.04208
 B90 B 0.52964 -0.02603 -0.02205
 B91 B 0.48019 -0.02282 0.04131
 B92 B 0.45801 -0.01347 -0.00221
 B93 B 0.49171 -0.04488 -0.00217
 B94 B 0.52482 -0.03102 0.03021
 B95 B 0.51035 0.01051 0.04992
 B96 B 0.46830 0.02092 0.02985
 B97 B 0.47985 0.48391 -0.02801
 B98 B 0.46034 0.49283 0.01787
 B99 B 0.49356 0.46069 0.01348
 B100 B 0.52479 0.47448 -0.02201
 B101 B 0.51022 0.51655 -0.03928
 B102 B 0.46980 0.52763 -0.01458
 B103 B 0.52290 0.52205 0.04313
 B104 B 0.54227 0.51302 -0.00282
 B105 B 0.50930 0.54524 0.00148
 B106 B 0.47789 0.53154 0.03707
 B107 B 0.49243 0.48932 0.05436
 B108 B 0.53292 0.47835 0.02962
 B109 B -0.02375 0.97853 0.46655
 B110 B -0.04306 0.98823 0.51231
 B111 B -0.00977 0.95612 0.50860
 B112 B 0.02125 0.96948 0.47259
 B113 B 0.00639 1.01119 0.45434
 B114 B -0.03399 1.02249 0.47898
 B115 B 0.01937 1.01833 0.53656
 B116 B 0.03858 1.00853 0.49074
 B117 B 0.00545 1.04066 0.49442
 B118 B -0.02567 1.02738 0.53050
 B119 B -0.01082 0.98558 0.54880
 B120 B 0.02962 0.97436 0.52412
 B121 B 0.77508 0.22877 0.21240
 B122 B 0.76537 0.20883 0.25763
 B123 B 0.79743 0.24125 0.25481
 B124 B 0.78405 0.27341 0.22033
 B125 B 0.74237 0.26014 0.20212
 B126 B 0.73116 0.21949 0.22524
 B127 B 0.73512 0.27138 0.28505
 B128 B 0.74492 0.29141 0.23992
 B129 B 0.71284 0.25903 0.24265
 B130 B 0.72619 0.22677 0.27714
 B131 B 0.76789 0.24011 0.29539
 B132 B 0.77907 0.28071 0.27229
 B133 B 0.73272 0.77152 0.71691
 B134 B 0.74090 0.79131 0.76220
 B135 B 0.71020 0.75768 0.75919
 B136 B 0.72533 0.72646 0.72414
 B137 B 0.76677 0.74159 0.70572
 B138 B 0.77605 0.78232 0.72934
 B139 B 0.77293 0.72956 0.78834
 B140 B 0.76476 0.70980 0.74312
 B141 B 0.79545 0.74327 0.74606
 B142 B 0.78039 0.77457 0.78111
 B143 B 0.73892 0.75947 0.79953
 B144 B 0.72969 0.71873 0.77590
 B145 B 0.26288 0.27545 0.77369
 B146 B 0.25391 0.29563 0.72856
 B147 B 0.28520 0.26157 0.73101
 B148 B 0.27099 0.23036 0.76612
 B149 B 0.22953 0.24586 0.78519
 B150 B 0.21929 0.28688 0.76192
 B151 B 0.22252 0.23435 0.70276
 B152 B 0.23166 0.21423 0.74768
 B153 B 0.20036 0.24811 0.74539
 B154 B 0.21444 0.27946 0.71019
 B155 B 0.25597 0.26390 0.69106
 B156 B 0.26617 0.22293 0.71438
 B157 B 0.22855 0.72872 0.28589
 B158 B 0.23882 0.70747 0.24144
 B159 B 0.20741 0.74151 0.24246
 B160 B 0.22078 0.77361 0.27658
 B161 B 0.26174 0.75858 0.29630
 B162 B 0.27255 0.71704 0.27452
 B163 B 0.27097 0.76797 0.21333
 B164 B 0.26070 0.78917 0.25767
 B165 B 0.29207 0.75529 0.25663
 B166 B 0.27879 0.72313 0.22257
 B167 B 0.23783 0.73814 0.20282
 B168 B 0.22705 0.77969 0.22463
 B169 B 0.26812 0.72682 0.71851
 B170 B 0.25869 0.70674 0.76379
 B171 B 0.28954 0.74038 0.76113
 B172 B 0.27529 0.77184 0.72624
 B173 B 0.23434 0.75688 0.70765
 B174 B 0.22445 0.71595 0.73091
 B175 B 0.22592 0.76838 0.79039
 B176 B 0.23534 0.78845 0.74526
 B177 B 0.20451 0.75490 0.74781
 B178 B 0.21870 0.72339 0.78273
 B179 B 0.25968 0.73837 0.80132
 B180 B 0.26956 0.77923 0.77804
 B181 B 0.23429 0.27245 0.20971
 B182 B 0.24243 0.29076 0.25583
 B183 B 0.20993 0.25900 0.25114
 B184 B 0.22422 0.22772 0.21560
 B185 B 0.26687 0.24087 0.19882
 B186 B 0.27781 0.28050 0.22377
 B187 B 0.27055 0.22692 0.28113
 B188 B 0.26228 0.20856 0.23525
 B189 B 0.29468 0.24017 0.23994
 B190 B 0.28054 0.27153 0.27538
 B191 B 0.23791 0.25835 0.29226
 B192 B 0.22703 0.21871 0.26731
 B193 B 0.76647 0.77476 0.28508
 B194 B 0.75654 0.79314 0.23935
 B195 B 0.78870 0.76004 0.24276
 B196 B 0.77567 0.72969 0.27933
 B197 B 0.73395 0.74467 0.29831
 B198 B 0.72244 0.78462 0.27346
 B199 B 0.72661 0.73019 0.21642
 B200 B 0.73665 0.71184 0.26212
 B201 B 0.70434 0.74477 0.25873
 B202 B 0.71739 0.77532 0.22214
 B203 B 0.75910 0.76026 0.20321
 B204 B 0.77058 0.72040 0.22805
 B205 B 0.72830 0.22883 0.78608
 B206 B 0.73813 0.20733 0.74167
 B207 B 0.70673 0.24136 0.74291
 B208 B 0.72038 0.27370 0.77658
 B209 B 0.76154 0.25881 0.79587
 B210 B 0.77219 0.21715 0.77425
 B211 B 0.76992 0.26773 0.71271
 B212 B 0.76008 0.28922 0.75700
 B213 B 0.79142 0.25536 0.75581
 B214 B 0.77789 0.22296 0.72217
 B215 B 0.73670 0.23781 0.70286
 B216 B 0.72611 0.27949 0.72450
 C217 C 0.41238 1.03593 0.36174
 C218 C 0.42717 1.04291 0.32243
 C219 C 0.40860 1.03147 0.28717
 C220 C 0.37611 1.01085 0.29083
 C221 C 0.36011 1.00729 0.33068
 C222 C 0.37830 1.01918 0.36563
 C223 C 0.43438 1.03880 0.39798
 C224 C 0.45228 1.03514 0.42869
 H225 H 0.45356 1.05604 0.31906
 H226 H 0.42022 1.03779 0.25710
 H227 H 0.33369 0.99454 0.33513
 H228 H 0.36647 1.01379 0.39591
 C229 C -0.08441 0.53532 0.86017
 C230 C -0.11804 0.51776 0.86463
 C231 C -0.13652 0.50560 0.82997
 C232 C -0.12124 0.50971 0.78986
 C233 C -0.08904 0.53074 0.78574
 C234 C -0.07023 0.54251 0.82066
 C235 C -0.06204 0.53891 0.89600
 C236 C -0.04360 0.53569 0.92635
 H237 H -0.12934 0.51211 0.89510
 H238 H -0.16269 0.49244 0.83482
 H239 H -0.07792 0.53732 0.75550
 H240 H -0.04416 0.55615 0.81685
 C241 C 0.08298 -0.03631 0.85404
 C242 C 0.06831 -0.04118 0.81474
 C243 C 0.08791 -0.02961 0.77966
 C244 C 0.12153 -0.01105 0.78360
 C245 C 0.13710 -0.00942 0.82332
 C246 C 0.11783 -0.02142 0.85808
 C247 C 0.06027 -0.03904 0.89039
 C248 C 0.04201 -0.03503 0.92130
 H249 H 0.04129 -0.05276 0.81127
 H250 H 0.07634 -0.03452 0.74960
 H251 H 0.16403 0.00202 0.82773
 H252 H 0.12948 -0.01751 0.88839
 C253 C 0.57831 0.47413 0.35332
 C254 C 0.60165 0.44685 0.33743
 C255 C 0.62474 0.45466 0.30385
 C256 C 0.62619 0.49062 0.28680
 C257 C 0.59984 0.51659 0.30114
 C258 C 0.57665 0.50862 0.33440
 C259 C 0.55812 0.46895 0.39104
 C260 C 0.54123 0.47061 0.42309
 H261 H 0.60247 0.41977 0.35136
 H262 H 0.64124 0.43214 0.29189
 H263 H 0.59840 0.54380 0.28763
 H264 H 0.55820 0.52985 0.34625
 C265 C 0.58224 0.53078 0.14797
 C266 C 0.58100 0.49591 0.16598
 C267 C 0.60315 0.48732 0.19944
 C268 C 0.62806 0.51308 0.21498
 C269 C 0.62645 0.54927 0.19843
 C270 C 0.60438 0.55770 0.16467
 C271 C 0.56203 0.53698 0.11095
 C272 C 0.54468 0.53571 0.07974
 H273 H 0.56341 0.47496 0.15352
 H274 H 0.60181 0.45995 0.21249
 H275 H 0.64179 0.57159 0.21118
 H276 H 0.60480 0.58507 0.15148
 C277 C 0.08213 1.03752 0.63818
 C278 C 0.06644 1.04148 0.67766
 C279 C 0.08631 1.03084 0.71251
 C280 C 0.12143 1.01417 0.70816
 C281 C 0.13788 1.01372 0.66834
 C282 C 0.11825 1.02473 0.63376
 C283 C 0.05960 1.03888 0.60224
 C284 C 0.04130 1.03411 0.57216
 H285 H 0.03844 1.05148 0.68141
 H286 H 0.07379 1.03490 0.74268
 H287 H 0.16574 1.00367 0.66372
 H288 H 0.13069 1.02154 0.60333
 C289 C -0.07794 0.45913 0.64542
 C290 C -0.06232 0.45821 0.68467
 C291 C -0.08293 0.46967 0.71927
 C292 C -0.11891 0.48405 0.71474
 C293 C -0.13498 0.48176 0.67533
 C294 C -0.11459 0.46991 0.64108
 C295 C -0.05530 0.45672 0.60893
 C296 C -0.03764 0.46068 0.57765
 H297 H -0.03388 0.44984 0.68836
 H298 H -0.07039 0.46774 0.74930
 H299 H -0.16321 0.49036 0.67077
 H300 H -0.12696 0.47088 0.61080
 C301 C 0.42056 -0.04129 0.14703
 C302 C 0.43634 -0.04114 0.18622
 C303 C 0.41559 -0.02955 0.22069
 C304 C 0.37932 -0.01603 0.21597
 C305 C 0.36317 -0.01955 0.17671
 C306 C 0.38365 -0.03158 0.14265
 C307 C 0.44309 -0.04324 0.11045
 C308 C 0.46056 -0.03874 0.07915
 H309 H 0.46500 -0.04868 0.18991
 H310 H 0.42826 -0.03067 0.25068
 H311 H 0.33477 -0.01161 0.17203
 H312 H 0.37115 -0.03141 0.11244
 C313 C 0.35492 0.45218 0.02115
 C314 C 0.32158 0.46558 0.03778
 C315 C 0.28858 0.44759 0.02902
 C316 C 0.28831 0.41729 0.00166
 C317 C 0.32297 0.40286 -0.01144
 C318 C 0.35538 0.42044 -0.00261
 C319 C 0.38944 0.47016 0.02617
 C320 C 0.42023 0.48182 0.02544
 H321 H 0.32107 0.48968 0.05737
 H322 H 0.26335 0.45742 0.04349
 H323 H 0.32567 0.37745 -0.02853
 H324 H 0.38110 0.40912 -0.01461
 C325 C -0.14896 0.94920 0.52574
 C326 C -0.18189 0.96924 0.52987
 C327 C -0.21562 0.95158 0.52497
 C328 C -0.21675 0.91424 0.51276
 C329 C -0.18315 0.89417 0.51456
 C330 C -0.14987 0.91145 0.51990
 C331 C -0.11374 0.96633 0.52482
 C332 C -0.08293 0.97746 0.52108
 H333 H -0.18153 0.99835 0.53673
 H334 H -0.24027 0.96718 0.53210
 H335 H -0.18202 0.86478 0.51127
 H336 H -0.12463 0.89530 0.51846
 C337 C -0.14845 0.05005 0.98013
 C338 C -0.15734 0.08025 0.95551
 C339 C -0.19143 0.09774 0.96019
 C340 C -0.21775 0.08476 0.98906
 C341 C -0.20801 0.05422 1.01376
 C342 C -0.17386 0.03684 1.00901
 C343 C -0.11173 0.03561 0.97957
 C344 C -0.08055 0.02472 0.98127
 H345 H -0.13729 0.09136 0.93400
 H346 H -0.19631 0.12249 0.94246
 H347 H -0.22636 0.04458 1.03787
 H348 H -0.16669 0.01407 1.02909
 C349 C 0.35146 0.55192 0.48495
 C350 C 0.32508 0.53827 0.51237
 C351 C 0.29109 0.55601 0.51646
 C352 C 0.28248 0.58729 0.49238
 C353 C 0.30989 0.60089 0.46529
 C354 C 0.34384 0.58306 0.46128
 C355 C 0.38781 0.53677 0.48492
 C356 C 0.41880 0.52545 0.48680
 H357 H 0.33131 0.51478 0.53178
 H358 H 0.27187 0.54586 0.53941
 H359 H 0.30578 0.62618 0.44829
 H360 H 0.36469 0.59449 0.44100
 C361 C 0.14613 0.54951 0.51562
 C362 C 0.14926 0.58438 0.53289
 C363 C 0.18231 0.60292 0.52965
 C364 C 0.21327 0.58653 0.50994
 C365 C 0.20935 0.55133 0.49226
 C366 C 0.17614 0.53288 0.49550
 C367 C 0.11093 0.53288 0.51457
 C368 C 0.08067 0.52064 0.51235
 H369 H 0.12573 0.59783 0.54751
 H370 H 0.18345 0.63065 0.54157
 H371 H 0.23132 0.53855 0.47437
 H372 H 0.17346 0.50628 0.48091
 C373 C 0.64590 0.04826 0.01698
 C374 C 0.64970 0.08332 0.03356
 C375 C 0.68296 0.10143 0.02943
 C376 C 0.71349 0.08449 0.00947
 C377 C 0.70901 0.04899 -0.00724
 C378 C 0.67557 0.03096 -0.00314
 C379 C 0.61032 0.03219 0.01645
 C380 C 0.57973 0.02056 0.01456
 H381 H 0.62650 0.09731 0.04821
 H382 H 0.68455 0.12934 0.04075
 H383 H 0.73062 0.03569 -0.02520
 H384 H 0.67241 0.00419 -0.01717
 C385 C 0.64335 0.95078 0.48031
 C386 C 0.67592 0.97045 0.47595
 C387 C 0.71000 0.95231 0.48007
 C388 C 0.71188 0.91477 0.49165
 C389 C 0.67856 0.89515 0.49013
 C390 C 0.64493 0.91294 0.48561
 C391 C 0.60782 0.96832 0.48145
 C392 C 0.57680 0.97979 0.48496
 H393 H 0.67502 0.99965 0.46945
 H394 H 0.73434 0.96769 0.47285
 H395 H 0.67793 0.86573 0.49304
 H396 H 0.61995 0.89708 0.48715
 C397 C 0.14948 0.45426 0.97072
 C398 C 0.18145 0.47506 0.97409
 C399 C 0.21586 0.45739 0.97757
 C400 C 0.21822 0.41868 0.97969
 C401 C 0.18593 0.39866 0.97206
 C402 C 0.15212 0.41618 0.96799
 C403 C 0.11339 0.47043 0.97437
 C404 C 0.08213 0.48085 0.97943
 H405 H 0.17967 0.50477 0.97531
 H406 H 0.23992 0.47420 0.97965
 H407 H 0.18651 0.36890 0.97223
 H408 H 0.12767 0.39978 0.96496
 C409 C -0.01010 0.34391 0.45583
 C410 C -0.04016 0.33170 0.43338
 C411 C -0.03705 0.30017 0.40854
 C412 C -0.00316 0.28082 0.40414
 C413 C 0.02565 0.29154 0.43027
 C414 C 0.02248 0.32303 0.45505
 C415 C -0.01107 0.37982 0.47535
 C416 C -0.01010 0.41110 0.48813
 H417 H -0.06583 0.34713 0.43416
 H418 H -0.06135 0.29159 0.39266
 H419 H 0.05153 0.27650 0.42969
 H420 H 0.04599 0.33183 0.47245
 C421 C 0.48440 -0.14924 -0.05263
 C422 C 0.46356 -0.18019 -0.04271
 C423 C 0.46719 -0.21236 -0.06668
 C424 C 0.49302 -0.21475 -0.09974
 C425 C 0.51076 -0.18187 -0.11141
 C426 C 0.50704 -0.15003 -0.08776
 C427 C 0.48307 -0.11576 -0.02851
 C428 C 0.48514 -0.08568 -0.01288
 H429 H 0.44482 -0.17961 -0.01645
 H430 H 0.45085 -0.23595 -0.05843
 H431 H 0.52790 -0.18030 -0.13885
 H432 H 0.52215 -0.12583 -0.09694
 C433 C 0.01355 -0.14720 1.05096
 C434 C 0.03464 -0.17871 1.04153
 C435 C 0.03076 -0.21086 1.06547
 C436 C 0.00457 -0.21270 1.09818
 C437 C -0.01386 -0.17947 1.10906
 C438 C -0.00994 -0.14768 1.08539
 C439 C 0.01563 -0.11342 1.02720
 C440 C 0.01412 -0.08307 1.01178
 H441 H 0.05395 -0.17851 1.01579
 H442 H 0.04753 -0.23474 1.05774
 H443 H -0.03146 -0.17744 1.13613
 H444 H -0.02537 -0.12316 1.09420
 C445 C 0.51761 0.35239 0.54770
 C446 C 0.51669 0.31826 0.52779
 C447 C 0.51269 0.28576 0.55092
 C448 C 0.50807 0.28692 0.59447
 C449 C 0.51196 0.32142 0.61388
 C450 C 0.51618 0.35359 0.59086
 C451 C 0.51724 0.38681 0.52512
 C452 C 0.51474 0.41759 0.51105
 H453 H 0.51849 0.31677 0.49440
 H454 H 0.51308 0.26010 0.53426
 H455 H 0.51002 0.32360 0.64721
 H456 H 0.51722 0.37969 0.60686
 C457 C 0.48271 1.15027 0.55307
 C458 C 0.50750 1.15113 0.58556
 C459 C 0.51285 1.18336 0.60779
 C460 C 0.49446 1.21659 0.59736
 C461 C 0.46750 1.21460 0.56626
 C462 C 0.46216 1.18199 0.54383
 C463 C 0.47891 1.11591 0.53103
 C464 C 0.47954 1.08512 0.51685
 H465 H 0.52270 1.12651 0.59410
 H466 H 0.53119 1.18149 0.63366
 H467 H 0.45093 1.23860 0.55891
 H468 H 0.44204 1.18156 0.51950
 C469 C -0.01745 0.65051 1.05127
 C470 C -0.01727 0.68448 1.03089
 C471 C -0.01319 0.71724 1.05335
 C472 C -0.00774 0.71655 1.09663
 C473 C -0.01071 0.68213 1.11666
 C474 C -0.01497 0.64969 1.09432
 C475 C -0.01760 0.61593 1.02903
 C476 C -0.01539 0.58526 1.01458
 H477 H -0.01991 0.68568 0.99762
 H478 H -0.01449 0.74276 1.03641
 H479 H -0.00837 0.68029 1.14993
 H480 H -0.01545 0.62372 1.11071
 C481 C 0.51752 0.65006 -0.04825
 C482 C 0.51478 0.64795 -0.09122
 C483 C 0.51012 0.67976 -0.11483
 C484 C 0.50688 0.71475 -0.09610
 C485 C 0.51293 0.71667 -0.05296
 C486 C 0.51741 0.68459 -0.02925
 C487 C 0.51785 0.61628 -0.02464
 C488 C 0.51582 0.58606 -0.00923
 H489 H 0.51531 0.62147 -0.10653
 H490 H 0.50754 0.67699 -0.14798
 H491 H 0.51438 0.74265 -0.03709
 H492 H 0.52037 0.68673 0.00391
 C493 C 0.01378 1.14924 0.45218
 C494 C -0.01837 1.17077 0.45263
 C495 C -0.02061 1.20299 0.42901
 C496 C 0.00877 1.21398 0.40292
 C497 C 0.04221 1.19381 0.40601
 C498 C 0.04438 1.16148 0.42967
 C499 C 0.01377 1.11302 0.47106
 C500 C 0.01171 1.08180 0.48396
 H501 H -0.04226 1.16198 0.47012
 H502 H -0.04623 1.21847 0.42932
 H503 H 0.06684 1.20236 0.39000
 H504 H 0.06974 1.14555 0.42956
 C505 C 0.78741 0.66900 0.89244
 C506 C 0.77542 0.63288 0.88982
 C507 C 0.76293 0.61479 0.92514
 C508 C 0.76096 0.63274 0.96391
 C509 C 0.77561 0.66856 0.96604
 C510 C 0.78797 0.68664 0.93060
 C511 C 0.79134 0.68999 0.85541
 C512 C 0.78822 0.70791 0.82456
 H513 H 0.77459 0.61905 0.86021
 H514 H 0.75470 0.58656 0.92185
 H515 H 0.77880 0.68264 0.99508
 H516 H 0.79720 0.71474 0.93288
 C517 C 0.28349 0.16460 0.38434
 C518 C 0.27169 0.12839 0.38222
 C519 C 0.25893 0.11078 0.41776
 C520 C 0.25641 0.12944 0.45607
 C521 C 0.27102 0.16529 0.45769
 C522 C 0.28377 0.18278 0.42215
 C523 C 0.28735 0.18541 0.34727
 C524 C 0.28452 0.20384 0.31683
 H525 H 0.27113 0.11415 0.35283
 H526 H 0.25074 0.08249 0.41495
 H527 H 0.27360 0.18000 0.48643
 H528 H 0.29285 0.21096 0.42401
 C529 C 0.71609 0.33101 0.39074
 C530 C 0.71327 0.31392 0.42939
 C531 C 0.72343 0.33273 0.46511
 C532 C 0.73840 0.36826 0.46235
 C533 C 0.73809 0.38590 0.42342
 C534 C 0.72753 0.36733 0.38807
 C535 C 0.71475 0.30987 0.35346
 C536 C 0.71943 0.29261 0.32214
 H537 H 0.70437 0.28571 0.43179
 H538 H 0.72005 0.31916 0.49462
 H539 H 0.74714 0.41395 0.42010
 H540 H 0.72992 0.38081 0.35834
 C541 C 0.21138 0.83037 0.89404
 C542 C 0.20546 0.81601 0.93363
 C543 C 0.21793 0.83491 0.96828
 C544 C 0.23829 0.86749 0.96371
 C545 C 0.24167 0.88260 0.92362
 C546 C 0.22880 0.86404 0.88927
 C547 C 0.20701 0.80806 0.85803
 C548 C 0.21012 0.78984 0.82721
 H549 H 0.19214 0.78980 0.93766
 H550 H 0.21204 0.82375 0.99861
 H551 H 0.25462 0.90883 0.91859
 H552 H 0.23371 0.87536 0.85873
 C553 C 0.28778 0.82832 0.10885
 C554 C 0.29093 0.81251 0.06957
 C555 C 0.27897 0.83202 0.03484
 C556 C 0.26192 0.86695 0.03918
 C557 C 0.26150 0.88328 0.07879
 C558 C 0.27384 0.86402 0.11319
 C559 C 0.29101 0.80617 0.14527
 C560 C 0.28717 0.78843 0.17630
 H561 H 0.30156 0.78474 0.06590
 H562 H 0.28273 0.81952 0.00475
 H563 H 0.25091 0.91092 0.08337
 H564 H 0.27103 0.87647 0.14351
 C565 C 0.78637 0.32852 0.60848
 C566 C 0.79349 0.31448 0.56892
 C567 C 0.78200 0.33417 0.53408
 C568 C 0.76130 0.36713 0.53842
 C569 C 0.75696 0.38192 0.57859
 C570 C 0.76893 0.36264 0.61309
 C571 C 0.78974 0.30586 0.64448
 C572 C 0.78593 0.28800 0.67543
 H573 H 0.80698 0.28798 0.56502
 H574 H 0.78880 0.32328 0.50380
 H575 H 0.74387 0.40844 0.58360
 H576 H 0.76324 0.37379 0.64361
 C577 C 0.20460 0.17104 0.60204
 C578 C 0.21665 0.13474 0.60651
 C579 C 0.22918 0.11502 0.57215
 C580 C 0.23118 0.13156 0.53262
 C581 C 0.21574 0.16733 0.52854
 C582 C 0.20336 0.18705 0.56298
 C583 C 0.20207 0.19382 0.63776
 C584 C 0.20642 0.21270 0.66748
 H585 H 0.21788 0.12216 0.63685
 H586 H 0.23785 0.08683 0.57686
 H587 H 0.21253 0.18033 0.49878
 H588 H 0.19398 0.21523 0.55927
 C589 C 0.71147 0.66846 0.11365
 C590 C 0.72384 0.63211 0.11580
 C591 C 0.73632 0.61414 0.08022
 C592 C 0.73786 0.63244 0.04163
 C593 C 0.72258 0.66843 0.03991
 C594 C 0.71027 0.68640 0.07562
 C595 C 0.70796 0.68937 0.15082
 C596 C 0.71135 0.70755 0.18133
 H597 H 0.72505 0.61802 0.14525
 H598 H 0.74497 0.58576 0.08317
 H599 H 0.71898 0.68277 0.01101
 H600 H 0.70068 0.71466 0.07367
 C601 C 0.20899 0.59838 0.23086
 C602 C 0.18993 0.58460 0.19723
 C603 C 0.17232 0.55085 0.20051
 C604 C 0.17204 0.53148 0.23839
 C605 C 0.19573 0.54352 0.26974
 C606 C 0.21351 0.57698 0.26623
 C607 C 0.22019 0.63585 0.23151
 C608 C 0.22846 0.66752 0.23457
 H609 H 0.18732 0.60062 0.16917
 H610 H 0.15796 0.54121 0.17377
 H611 H 0.19770 0.52857 0.29860
 H612 H 0.22890 0.58715 0.29214
 C613 C 0.70726 0.09830 0.73203
 C614 C 0.68719 0.08493 0.69894
 C615 C 0.66909 0.05147 0.70261
 C616 C 0.66936 0.03192 0.74039
 C617 C 0.69395 0.04350 0.77108
 C618 C 0.71223 0.07668 0.76716
 C619 C 0.71899 0.13567 0.73246
 C620 C 0.72759 0.16729 0.73525
 H621 H 0.68417 0.10110 0.67104
 H622 H 0.65394 0.04222 0.67627
 H623 H 0.69628 0.02847 0.79985
 H624 H 0.72841 0.08649 0.79262
 C625 C 0.80443 0.10227 0.27185
 C626 C 0.84239 0.10015 0.26751
 C627 C 0.85976 0.06623 0.26309
 C628 C 0.83955 0.03334 0.26065
 C629 C 0.80185 0.03579 0.27187
 C630 C 0.78415 0.07011 0.27584
 C631 C 0.78735 0.13783 0.26970
 C632 C 0.77617 0.16877 0.26549
 H633 H 0.85864 0.12489 0.26638
 H634 H 0.88926 0.06626 0.26067
 H635 H 0.78589 0.01170 0.27843
 H636 H 0.75479 0.07152 0.28165
 C637 C 0.29840 0.60057 0.78191
 C638 C 0.33647 0.59854 0.78469
 C639 C 0.35452 0.56497 0.77999
 C640 C 0.33495 0.53257 0.77144
 C641 C 0.29624 0.53427 0.77434
 C642 C 0.27807 0.56835 0.77846
 C643 C 0.28167 0.63621 0.77783
 C644 C 0.27045 0.66701 0.77240
 H645 H 0.35245 0.62326 0.78795
 H646 H 0.38426 0.56476 0.77961
 H647 H 0.27977 0.50996 0.77216
 H648 H 0.24836 0.56969 0.77741
 C649 C 0.29921 0.39872 0.72526
 C650 C 0.33118 0.39679 0.74814
 C651 C 0.34988 0.42847 0.75757
 C652 C 0.33633 0.46364 0.74593
 C653 C 0.30619 0.46472 0.71882
 C654 C 0.28700 0.43256 0.70959
 C655 C 0.27946 0.36525 0.72051
 C656 C 0.26627 0.33517 0.72134
 H657 H 0.34160 0.37056 0.75925
 H658 H 0.37522 0.42485 0.77420
 H659 H 0.29708 0.49047 0.70539
 H660 H 0.26276 0.43414 0.69062
 C661 C 0.79986 0.89669 0.22486
 C662 C 0.78200 0.93054 0.21932
 C663 C 0.80140 0.96322 0.22448
 C664 C 0.83819 0.96251 0.23830
 C665 C 0.85633 0.92782 0.23802
 C666 C 0.83732 0.89550 0.23242
 C667 C 0.78059 0.86267 0.22584
 C668 C 0.76794 0.83257 0.22991
 H669 H 0.75322 0.93171 0.21132
 H670 H 0.78748 0.98860 0.21671
 H671 H 0.88540 0.92506 0.24293
 H672 H 0.85182 0.86939 0.23511
 C673 C 0.70727 0.90039 0.77224
 C674 C 0.71337 0.92154 0.73692
 C675 C 0.69471 0.95487 0.73201
 C676 C 0.66875 0.96724 0.76197
 C677 C 0.66706 0.94803 0.79997
 C678 C 0.68546 0.91434 0.80456
 C679 C 0.71983 0.86293 0.77260
 C680 C 0.72928 0.83127 0.76984
 H681 H 0.73090 0.91130 0.71209
 H682 H 0.69815 0.96960 0.70315
 H683 H 0.65073 0.95780 0.82585
 H684 H 0.68147 0.89854 0.83261
 C685 C 0.21183 0.40031 0.26797
 C686 C 0.21701 0.42145 0.23246
 C687 C 0.19815 0.45473 0.22821
 C688 C 0.17261 0.46674 0.25879
 C689 C 0.17192 0.44763 0.29684
 C690 C 0.19072 0.41412 0.30093
 C691 C 0.22393 0.36276 0.26764
 C692 C 0.23256 0.33096 0.26425
 H693 H 0.23373 0.41114 0.20693
 H694 H 0.20084 0.46951 0.19928
 H695 H 0.15598 0.45730 0.32308
 H696 H 0.18740 0.39824 0.32904
 C697 C 0.09254 0.24105 0.78986
 C698 C 0.08079 0.21046 0.81239
 C699 C 0.04954 0.21294 0.83810
 C700 C 0.03014 0.24669 0.84325
 C701 C 0.04035 0.27605 0.81700
 C702 C 0.07153 0.27350 0.79133
 C703 C 0.12821 0.24081 0.76958
 C704 C 0.15926 0.24251 0.75597
 H705 H 0.09638 0.18491 0.81100
 H706 H 0.04121 0.18830 0.85403
 H707 H 0.02518 0.30185 0.81815
 H708 H 0.08004 0.29738 0.77384
 C709 C 0.59524 0.73826 0.30047
 C710 C 0.58233 0.70816 0.32300
 C711 C 0.54985 0.71116 0.34666
 C712 C 0.53026 0.74500 0.34981
 C713 C 0.54169 0.77375 0.32335
 C714 C 0.57413 0.77069 0.29972
 C715 C 0.63176 0.73746 0.28200
 C716 C 0.66320 0.73886 0.26938
 H717 H 0.59790 0.68257 0.32321
 H718 H 0.54079 0.68685 0.36274
 H719 H 0.52651 0.79955 0.32294
 H720 H 0.58344 0.79418 0.28209
 C721 C 0.60638 0.26624 0.19696
 C722 C 0.60713 0.26350 0.15389
 C723 C 0.57470 0.25891 0.13204
 C724 C 0.54031 0.25595 0.15256
 C725 C 0.53967 0.26117 0.19596
 C726 C 0.57245 0.26560 0.21792
 C727 C 0.64102 0.26725 0.21858
 C728 C 0.67173 0.26572 0.23257
 H729 H 0.63305 0.26422 0.13705
 H730 H 0.57649 0.25662 0.09871
 H731 H 0.51416 0.26217 0.21331
 H732 H 0.57129 0.26828 0.25124
 C733 C 0.09723 0.75931 0.70319
 C734 C 0.08390 0.78955 0.68097
 C735 C 0.05272 0.78637 0.65629
 C736 C 0.03480 0.75228 0.65175
 C737 C 0.04681 0.72307 0.67736
 C738 C 0.07798 0.72630 0.70201
 C739 C 0.13250 0.76080 0.72345
 C740 C 0.16333 0.76010 0.73719
 H741 H 0.09804 0.81552 0.68208
 H742 H 0.04304 0.81094 0.64097
 H743 H 0.03277 0.69704 0.67691
 H744 H 0.08765 0.70264 0.71927
 C745 C 0.90456 0.73562 0.70480
 C746 C 0.91745 0.70510 0.68242
 C747 C 0.94933 0.70746 0.65780
 C748 C 0.96826 0.74104 0.65355
 C749 C 0.95696 0.77022 0.67988
 C750 C 0.92512 0.76780 0.70446
 C751 C 0.86831 0.73558 0.72378
 C752 C 0.83688 0.73741 0.73638
 H753 H 0.90226 0.67972 0.68299
 H754 H 0.95842 0.68287 0.64183
 H755 H 0.97170 0.79586 0.67948
 H756 H 0.91577 0.79162 0.72191
 C757 C 0.40192 0.23412 0.19524
 C758 C 0.40359 0.25836 0.16191
 C759 C 0.43624 0.26314 0.13983
 C760 C 0.46919 0.24480 0.15121
 C761 C 0.46645 0.21827 0.18315
 C762 C 0.43333 0.21350 0.20551
 C763 C 0.36705 0.23110 0.21696
 C764 C 0.33594 0.23255 0.23064
 H765 H 0.37926 0.27358 0.15258
 H766 H 0.43496 0.28107 0.11325
 H767 H 0.49014 0.20155 0.19111
 H768 H 0.43225 0.19374 0.23051
 C769 C 0.39989 0.76204 0.29961
 C770 C 0.41193 0.79271 0.32140
 C771 C 0.44364 0.79043 0.34555
 C772 C 0.46335 0.75681 0.34991
 C773 C 0.45271 0.72731 0.32446
 C774 C 0.42105 0.72965 0.30036
 C775 C 0.36412 0.76236 0.28027
 C776 C 0.33314 0.76079 0.26713
 H777 H 0.39632 0.81826 0.32054
 H778 H 0.45211 0.81516 0.36088
 H779 H 0.46798 0.70157 0.32500
 H780 H 0.41242 0.70570 0.28340
 C781 C 0.89947 0.26315 0.79692
 C782 C 0.92085 0.23094 0.79685
 C783 C 0.95275 0.22857 0.82040
 C784 C 0.96354 0.25791 0.84602
 C785 C 0.94349 0.29140 0.84262
 C786 C 0.91145 0.29368 0.81903
 C787 C 0.86354 0.26322 0.77821
 C788 C 0.83246 0.26126 0.76558
 H789 H 0.91220 0.20711 0.77968
 H790 H 0.96823 0.20295 0.82028
 H791 H 0.95197 0.31600 0.85820
 H792 H 0.89556 0.31907 0.81882
 C793 C 0.57356 0.97363 0.64580
 C794 C 0.57144 1.00819 0.66461
 C795 C 0.59288 1.01587 0.69884
 C796 C 0.61802 0.98955 0.71428
 C797 C 0.61705 0.95364 0.69705
 C798 C 0.59568 0.94610 0.66263
 C799 C 0.55433 0.96816 0.60794
 C800 C 0.53782 0.96940 0.57603
 H801 H 0.55381 1.02961 0.65215
 H802 H 0.59100 1.04304 0.71239
 H803 H 0.63257 0.93089 0.70962
 H804 H 0.59677 0.91895 0.64894
 C805 C 0.07842 0.47277 1.14195
 C806 C 0.07588 0.50728 1.16083
 C807 C 0.09662 0.51490 1.19561
 C808 C 0.12151 0.48857 1.21145
 C809 C 0.12066 0.45261 1.19435
 C810 C 0.10003 0.44514 1.15936
 C811 C 0.05999 0.46745 1.10361
 C812 C 0.04387 0.46896 1.07150
 H813 H 0.05851 0.52873 1.14798
 H814 H 0.09452 0.54205 1.20916
 H815 H 0.13582 0.42982 1.20740
 H816 H 0.10130 0.41798 1.14568
 C817 C -0.07944 0.03282 1.13856
 C818 C -0.06169 0.03297 1.17646
 C819 C -0.07991 0.02088 1.21209
 C820 C -0.11604 0.00691 1.21044
 C821 C -0.13378 0.00876 1.17180
 C822 C -0.11559 0.02103 1.13637
 C823 C -0.05885 0.03771 1.10106
 C824 C -0.04149 0.03547 1.06939
 H825 H -0.03354 0.04203 1.17844
 H826 H -0.06585 0.02421 1.24095
 H827 H -0.16210 0.00104 1.16863
 H828 H -0.12952 0.02046 1.10699
 C829 C 0.42071 0.52532 0.64569
 C830 C 0.39044 0.54704 0.65688
 C831 C 0.36991 0.53834 0.69215
 C832 C 0.38001 0.50831 0.71792
 C833 C 0.40900 0.48517 0.70406
 C834 C 0.42956 0.49402 0.66885
 C835 C 0.44044 0.53188 0.60791
 C836 C 0.45751 0.53172 0.57592
 H837 H 0.38221 0.57021 0.63792
 H838 H 0.34582 0.55517 0.69856
 H839 H 0.41618 0.46049 0.72098
 H840 H 0.45205 0.47603 0.65924
 C841 C 0.42150 0.47103 -0.13329
 C842 C 0.38351 0.46687 -0.13328
 C843 C 0.36363 0.47674 -0.16813
 C844 C 0.38145 0.49014 -0.20416
 C845 C 0.41964 0.49593 -0.20269
 C846 C 0.43944 0.48598 -0.16774
 C847 C 0.44117 0.46720 -0.09562
 C848 C 0.45825 0.46976 -0.06440
 H849 H 0.36915 0.45698 -0.10600
 H850 H 0.33412 0.47334 -0.16745
 H851 H 0.43436 0.50897 -0.22775
 H852 H 0.46864 0.49127 -0.16699
 C853 C -0.08276 0.96247 0.36203
 C854 C -0.11898 0.97533 0.36362
 C855 C -0.13638 0.98643 0.32754
 C856 C -0.11764 0.98616 0.28891
 C857 C -0.08186 0.97030 0.28780
 C858 C -0.06442 0.95937 0.32404
 C859 C -0.06264 0.95966 0.39957
 C860 C -0.04540 0.96331 0.43059
 H861 H -0.13345 0.97795 0.39298
 H862 H -0.16468 0.99551 0.33017
 H863 H -0.06739 0.96518 0.25899
 H864 H -0.03631 0.94923 0.32249
 C865 C 0.07297 0.52536 0.35256
 C866 C 0.09423 0.55307 0.33534
 C867 C 0.11650 0.54558 0.30084
 C868 C 0.11942 0.50953 0.28410
 C869 C 0.09473 0.48314 0.29948
 C870 C 0.07232 0.49077 0.33380
 C871 C 0.05402 0.53044 0.39130
 C872 C 0.03847 0.52881 0.42422
 H873 H 0.09415 0.58025 0.34898
 H874 H 0.13141 0.56841 0.28797
 H875 H 0.09418 0.45590 0.28607
 H876 H 0.05535 0.46921 0.34658
 C877 C 0.57078 0.02843 -0.14454
 C878 C 0.56873 -0.00591 -0.16369
 C879 C 0.59082 -0.01413 -0.19809
 C880 C 0.61656 0.01137 -0.21324
 C881 C 0.61510 0.04734 -0.19609
 C882 C 0.59314 0.05540 -0.16147
 C883 C 0.55223 0.03376 -0.10560
 C884 C 0.53684 0.03203 -0.07259
 H885 H 0.55095 -0.02689 -0.15109
 H886 H 0.58923 -0.04122 -0.21170
 H887 H 0.63091 0.06966 -0.20865
 H888 H 0.59420 0.08240 -0.14750
 C889 C 0.64732 0.55273 -0.02039
 C890 C 0.64784 0.59069 -0.01635
 C891 C 0.68099 0.60845 -0.01208
 C892 C 0.71464 0.58863 -0.00939
 C893 C 0.71389 0.55111 -0.02087
 C894 C 0.68035 0.53295 -0.02463
 C895 C 0.61247 0.53516 -0.01730
 C896 C 0.58196 0.52377 -0.01209
 H897 H 0.62244 0.60659 -0.01510
 H898 H 0.67970 0.63793 -0.00971
 H899 H 0.73866 0.53566 -0.02787
 H900 H 0.68023 0.50364 -0.03039
 C901 C 0.14316 1.04862 0.47173
 C902 C 0.14318 1.08670 0.47395
 C903 C 0.17600 1.10501 0.47827
 C904 C 0.20975 1.08567 0.48285
 C905 C 0.20968 1.04780 0.47289
 C906 C 0.17646 1.02909 0.46915
 C907 C 0.10853 1.03078 0.47534
 C908 C 0.07814 1.01929 0.48097
 H909 H 0.11759 1.10233 0.47389
 H910 H 0.17434 1.13452 0.47928
 H911 H 0.23477 1.03244 0.46724
 H912 H 0.17676 0.99959 0.46480
 C913 C 0.14721 -0.05000 1.01587
 C914 C 0.17484 -0.03604 0.99038
 C915 C 0.20861 -0.05424 0.98744
 C916 C 0.21565 -0.08636 1.01075
 C917 C 0.18714 -0.10004 1.03622
 C918 C 0.15339 -0.08173 1.03909
 C919 C 0.11110 -0.03470 1.01382
 C920 C 0.08036 -0.02328 1.01018
 H921 H 0.16972 -0.01206 0.97131
 H922 H 0.22872 -0.04393 0.96559
 H923 H 0.19029 -0.12582 1.05256
 H924 H 0.13156 -0.09329 1.05788
 C925 C 0.64713 0.45053 0.51638
 C926 C 0.67625 0.46706 0.49533
 C927 C 0.71004 0.44875 0.49174
 C928 C 0.71541 0.41381 0.50995
 C929 C 0.68538 0.39760 0.53076
 C930 C 0.65177 0.41600 0.53438
 C931 C 0.61121 0.46655 0.51508
 C932 C 0.58040 0.47815 0.51240
 H933 H 0.67239 0.49337 0.48019
 H934 H 0.73133 0.46134 0.47317
 H935 H 0.68755 0.37000 0.54306
 H936 H 0.62892 0.40258 0.54966
 C937 C -0.14635 0.44617 0.48701
 C938 C -0.17362 0.46078 0.51313
 C939 C -0.20774 0.44406 0.51587
 C940 C -0.21545 0.41282 0.49179
 C941 C -0.18724 0.39844 0.46580
 C942 C -0.15323 0.41527 0.46309
 C943 C -0.11008 0.46031 0.48817
 C944 C -0.07925 0.47101 0.49049
 H945 H -0.16801 0.48417 0.53264
 H946 H -0.22761 0.45477 0.53807
 H947 H -0.19080 0.37317 0.44883
 H948 H -0.13176 0.40321 0.44369
 C949 C 0.35234 -0.05182 -0.01235
 C950 C 0.32351 -0.03583 0.01033
 C951 C 0.28991 -0.05346 0.01317
 C952 C 0.28433 -0.08710 -0.00746
 C953 C 0.31408 -0.10284 -0.02996
 C954 C 0.34761 -0.08510 -0.03277
 C955 C 0.38804 -0.03653 -0.01050
 C956 C 0.41858 -0.02527 -0.00753
 H957 H 0.32748 -0.01057 0.02729
 H958 H 0.26886 -0.04142 0.03302
 H959 H 0.31184 -0.12964 -0.04410
 H960 H 0.37033 -0.09813 -0.04937
 C961 C 0.34740 1.05153 0.52446
 C962 C 0.34580 1.08937 0.51932
 C963 C 0.31230 1.10684 0.51300
 C964 C 0.27943 1.08680 0.50929
 C965 C 0.28097 1.04954 0.52193
 C966 C 0.31491 1.03165 0.52773
 C967 C 0.38286 1.03413 0.52322
 C968 C 0.41383 1.02283 0.51931
 H969 H 0.37069 1.10539 0.51880
 H970 H 0.31278 1.13625 0.51002
 H971 H 0.25649 1.03412 0.52832
 H972 H 0.31578 1.00247 0.53432
 C973 C -0.14669 0.55209 1.02558
 C974 C -0.14814 0.59009 1.02194
 C975 C -0.18171 0.60800 1.01765
 C976 C -0.21486 0.58833 1.01453
 C977 C -0.21322 0.55068 1.02554
 C978 C -0.17925 0.53237 1.02933
 C979 C -0.11138 0.53446 1.02266
 C980 C -0.08055 0.52301 1.01765
 H981 H -0.12314 0.60593 1.02109
 H982 H -0.18114 0.63749 1.01570
 H983 H -0.23763 0.53523 1.03221
 H984 H -0.17841 0.50300 1.03477
 C985 C 0.01241 0.64831 0.54409
 C986 C 0.04301 0.66119 0.56512
 C987 C 0.04057 0.69360 0.58858
 C988 C 0.00687 0.71326 0.59309
 C989 C -0.02247 0.70193 0.56805
 C990 C -0.01999 0.66952 0.54465
 C991 C 0.01287 0.61171 0.52605
 C992 C 0.01169 0.58008 0.51427
 H993 H 0.06859 0.64561 0.56438
 H994 H 0.06521 0.70252 0.60355
 H995 H -0.04826 0.71712 0.56865
 H996 H -0.04389 0.66030 0.52824
 C997 C 0.51306 0.14775 0.05309
 C998 C 0.53860 0.15453 0.08390
 C999 C 0.53665 0.18702 0.10699
 C1000 C 0.50960 0.21447 0.09913
 C1001 C 0.48329 0.20649 0.06874
 C1002 C 0.48523 0.17380 0.04577
 C1003 C 0.51284 0.11213 0.03311
 C1004 C 0.51142 0.08111 0.01976
 H1005 H 0.55942 0.13404 0.09114
 H1006 H 0.55592 0.18964 0.13185
 H1007 H 0.46093 0.22564 0.06293
 H1008 H 0.46443 0.16846 0.02302
 C1009 C -0.01316 0.15360 0.95209
 C1010 C -0.04405 0.16814 0.93237
 C1011 C -0.04161 0.20072 0.90941
 C1012 C -0.00765 0.21886 0.90402
 C1013 C 0.02205 0.20603 0.92805
 C1014 C 0.01959 0.17337 0.95096
 C1015 C -0.01386 0.11680 0.96938
 C1016 C -0.01275 0.08505 0.98072
 H1017 H -0.06986 0.15370 0.93368
 H1018 H -0.06649 0.21096 0.89541
 H1019 H 0.04802 0.22016 0.92696
 H1020 H 0.04370 0.16283 0.96651
 C1021 C 0.48432 0.65451 0.45983
 C1022 C 0.45404 0.66793 0.43806
 C1023 C 0.45686 0.69990 0.41405
 C1024 C 0.49068 0.71846 0.40971
 C1025 C 0.51961 0.70674 0.43557
 C1026 C 0.51675 0.67475 0.45953
 C1027 C 0.48378 0.61797 0.47778
 C1028 C 0.48530 0.58624 0.48912
 H1029 H 0.42847 0.65304 0.43856
 H1030 H 0.43242 0.70932 0.39852
 H1031 H 0.54539 0.72123 0.43520
 H1032 H 0.54041 0.66501 0.47650
 C1033 C 0.50960 0.84955 0.45746
 C1034 C 0.47654 0.83031 0.45746
 C1035 C 0.47322 0.79817 0.43396
 C1036 C 0.50236 0.78527 0.40825
 C1037 C 0.53660 0.80304 0.41207
 C1038 C 0.53987 0.83513 0.43561
 C1039 C 0.51108 0.88590 0.47576
 C1040 C 0.51019 0.91744 0.48781
 H1041 H 0.45286 0.84081 0.47455
 H1042 H 0.44711 0.78428 0.43413
 H1043 H 0.56114 0.79272 0.39672
 H1044 H 0.56590 0.84919 0.43590
 C1045 C 0.01313 0.34993 0.95268
 C1046 C 0.04279 0.33522 0.93002
 C1047 C 0.03867 0.30324 0.90650
 C1048 C 0.00415 0.28586 0.90348
 C1049 C -0.02428 0.29890 0.93007
 C1050 C -0.02013 0.33097 0.95355
 C1051 C 0.01542 0.38624 0.97098
 C1052 C 0.01514 0.41777 0.98316
 H1053 H 0.06897 0.34901 0.92963
 H1054 H 0.06276 0.29273 0.89041
 H1055 H -0.05052 0.28526 0.93091
 H1056 H -0.04334 0.34166 0.97131
 C1057 C 0.49325 0.35323 0.05661
 C1058 C 0.50271 0.32101 0.03506
 C1059 C 0.50787 0.28773 0.05644
 C1060 C 0.50290 0.28596 0.09987
 C1061 C 0.49564 0.31934 0.12099
 C1062 C 0.49040 0.35226 0.09966
 C1063 C 0.48970 0.38833 0.03601
 C1064 C 0.48890 0.41942 0.02283
 H1065 H 0.50651 0.32167 0.00182
 H1066 H 0.51608 0.26381 0.03871
 H1067 H 0.49289 0.31960 0.15435
 H1068 H 0.48429 0.37715 0.11693
 C1069 C -0.01362 0.84607 0.54680
 C1070 C 0.01944 0.82589 0.54546
 C1071 C 0.02316 0.79307 0.56794
 C1072 C -0.00553 0.78046 0.59397
 C1073 C -0.03992 0.79905 0.59114
 C1074 C -0.04361 0.83180 0.56861
 C1075 C -0.01543 0.88294 0.52966
 C1076 C -0.01496 0.91466 0.51814
 H1077 H 0.04286 0.83619 0.52826
 H1078 H 0.04935 0.77861 0.56709
 H1079 H -0.06417 0.78900 0.60676
 H1080 H -0.06968 0.84654 0.56920
 C1081 C 0.22838 0.33353 0.10413
 C1082 C 0.25901 0.32437 0.07944
 C1083 C 0.26718 0.34480 0.04405
 C1084 C 0.24400 0.37399 0.03158
 C1085 C 0.21479 0.38445 0.05891
 C1086 C 0.20676 0.36405 0.09433
 C1087 C 0.22209 0.31339 0.14158
 C1088 C 0.22227 0.29555 0.17282
 H1089 H 0.27693 0.30162 0.08787
 H1090 H 0.29133 0.33732 0.02591
 H1091 H 0.19801 0.40867 0.05353
 H1092 H 0.18411 0.37249 0.11438
 C1093 C 0.71537 0.83219 0.61288
 C1094 C 0.72664 0.86854 0.61527
 C1095 C 0.73720 0.88726 0.57960
 C1096 C 0.73793 0.86975 0.54057
 C1097 C 0.72376 0.83370 0.53873
 C1098 C 0.71338 0.81495 0.57455
 C1099 C 0.71307 0.81092 0.64992
 C1100 C 0.71711 0.79306 0.68070
 H1101 H 0.72840 0.88211 0.64490
 H1102 H 0.74501 0.91563 0.58284
 H1103 H 0.71946 0.81995 0.50969
 H1104 H 0.70451 0.78673 0.57240
 C1105 C 0.28284 0.66741 0.61251
 C1106 C 0.26423 0.63429 0.61563
 C1107 C 0.25236 0.61658 0.58027
 C1108 C 0.25795 0.63197 0.54056
 C1109 C 0.27941 0.66398 0.53774
 C1110 C 0.29085 0.68210 0.57348
 C1111 C 0.28698 0.68860 0.64954
 C1112 C 0.28382 0.70584 0.68113
 H1113 H 0.25779 0.62263 0.64566
 H1114 H 0.23866 0.59062 0.58430
 H1115 H 0.28699 0.67522 0.50791
 H1116 H 0.30520 0.70787 0.57067
 C1117 C 0.78654 0.16652 0.10805
 C1118 C 0.76688 0.13413 0.11268
 C1119 C 0.75401 0.11578 0.07817
 C1120 C 0.75959 0.12991 0.03788
 C1121 C 0.78219 0.16101 0.03359
 C1122 C 0.79467 0.17974 0.06841
 C1123 C 0.79180 0.18872 0.14410
 C1124 C 0.78962 0.20691 0.17509
 H1125 H 0.76041 0.12358 0.14323
 H1126 H 0.73956 0.09039 0.08333
 H1127 H 0.78972 0.17120 0.00326
 H1128 H 0.80985 0.20491 0.06442
 C1129 C 0.71054 0.17032 0.89250
 C1130 C 0.71989 0.13316 0.88915
 C1131 C 0.73143 0.11362 0.92373
 C1132 C 0.73477 0.13098 0.96254
 C1133 C 0.72208 0.16772 0.96618
 C1134 C 0.71092 0.18744 0.93121
 C1135 C 0.70830 0.19173 0.85530
 C1136 C 0.71243 0.20879 0.82375
 H1137 H 0.71994 0.11962 0.85936
 H1138 H 0.73896 0.08494 0.91988
 H1139 H 0.72109 0.18149 0.99576
 H1140 H 0.70375 0.21632 0.93415
 C1141 C 0.21148 0.67115 0.39291
 C1142 C 0.22265 0.63446 0.38998
 C1143 C 0.23419 0.61555 0.42497
 C1144 C 0.23564 0.63305 0.46390
 C1145 C 0.22149 0.66931 0.46699
 C1146 C 0.21035 0.68846 0.43156
 C1147 C 0.20870 0.69209 0.35542
 C1148 C 0.21256 0.70878 0.32357
 H1149 H 0.22396 0.62081 0.36025
 H1150 H 0.24290 0.58717 0.42139
 H1151 H 0.21918 0.68305 0.49652
 H1152 H 0.20185 0.71701 0.43417
 C1153 C 0.78253 0.83575 0.38843
 C1154 C 0.78515 0.81751 0.42617
 C1155 C 0.77393 0.83508 0.46256
 C1156 C 0.75840 0.87101 0.46195
 C1157 C 0.75842 0.88960 0.42349
 C1158 C 0.76973 0.87199 0.38719
 C1159 C 0.78545 0.81523 0.35091
 C1160 C 0.78181 0.79730 0.32024
 H1161 H 0.79509 0.78933 0.42742
 H1162 H 0.77862 0.82045 0.49107
 H1163 H 0.74950 0.91794 0.42117
 H1164 H 0.76736 0.88632 0.35795
 C1165 C 0.27784 0.33247 0.88029
 C1166 C 0.26387 0.31439 0.91514
 C1167 C 0.25466 0.33411 0.95087
 C1168 C 0.26014 0.37237 0.95263
 C1169 C 0.27250 0.39030 0.91626
 C1170 C 0.28168 0.37051 0.88070
 C1171 C 0.28099 0.31295 0.84206
 C1172 C 0.27789 0.29627 0.81039
 H1173 H 0.25881 0.28513 0.91420
 H1174 H 0.24245 0.31926 0.97633
 H1175 H 0.27569 0.41985 0.91586
 H1176 H 0.29081 0.38499 0.85323
 C1177 C 0.79810 0.39550 0.76733
 C1178 C 0.83207 0.40009 0.78584
 C1179 C 0.84993 0.43350 0.78239
 C1180 C 0.83375 0.46344 0.76119
 C1181 C 0.79930 0.45820 0.74265
 C1182 C 0.78154 0.42457 0.74604
 C1183 C 0.78278 0.35962 0.76587
 C1184 C 0.77174 0.32886 0.76307
 H1185 H 0.84554 0.37731 0.80138
 H1186 H 0.87719 0.43555 0.79505
 H1187 H 0.78678 0.47935 0.72381
 H1188 H 0.75570 0.42076 0.73051
 C1189 C 0.29712 0.89569 0.26914
 C1190 C 0.28027 0.92435 0.24747
 C1191 C 0.29760 0.95814 0.24383
 C1192 C 0.33191 0.96392 0.26245
 C1193 C 0.34829 0.93443 0.28423
 C1194 C 0.33085 0.90085 0.28794
 C1195 C 0.28254 0.85959 0.26744
 C1196 C 0.27203 0.82872 0.26427
 H1197 H 0.25461 0.92004 0.23174
 H1198 H 0.28494 0.97890 0.22457
 H1199 H 0.37546 0.93693 0.29703
 H1200 H 0.34453 0.87836 0.30377
 C1201 C 0.20071 0.89687 0.73130
 C1202 C 0.16891 0.90432 0.70917
 C1203 C 0.15227 0.93891 0.71157
 C1204 C 0.16757 0.96724 0.73546
 C1205 C 0.20017 0.95930 0.75707
 C1206 C 0.21669 0.92447 0.75475
 C1207 C 0.21402 0.85979 0.73398
 C1208 C 0.22381 0.82835 0.73778
 H1209 H 0.15584 0.88280 0.69178
 H1210 H 0.12618 0.94278 0.69642
 H1211 H 0.21183 0.97931 0.77762
 H1212 H 0.24088 0.91856 0.77286
 C1213 C 0.71698 0.40197 0.23059
 C1214 C 0.72192 0.42262 0.26633
 C1215 C 0.70386 0.45637 0.27101
 C1216 C 0.67954 0.46941 0.24046
 C1217 C 0.67969 0.45093 0.20202
 C1218 C 0.69749 0.41691 0.19761
 C1219 C 0.72771 0.36400 0.23038
 C1220 C 0.73538 0.33190 0.23293
 H1221 H 0.73776 0.41159 0.29168
 H1222 H 0.70602 0.47065 0.30020
 H1223 H 0.66492 0.46139 0.17575
 H1224 H 0.69456 0.40152 0.16923
 C1225 C 0.71245 0.60154 0.27459
 C1226 C 0.69171 0.58658 0.30686
 C1227 C 0.67548 0.55238 0.30193
 C1228 C 0.67813 0.53381 0.26359
 C1229 C 0.70381 0.54680 0.23410
 C1230 C 0.72033 0.58072 0.23930
 C1231 C 0.72134 0.63967 0.27460
 C1232 C 0.72782 0.67177 0.27121
 H1233 H 0.68651 0.60212 0.33492
 H1234 H 0.65958 0.54191 0.32760
 H1235 H 0.70811 0.53245 0.20509
 H1236 H 0.73714 0.59181 0.21454
 C1237 C 0.19796 0.10627 0.76053
 C1238 C 0.21547 0.07847 0.73755
 C1239 C 0.19965 0.04382 0.73476
 C1240 C 0.16622 0.03628 0.75549
 C1241 C 0.14918 0.06488 0.77863
 C1242 C 0.16512 0.09928 0.78150
 C1243 C 0.21099 0.14315 0.75854
 C1244 C 0.22055 0.17444 0.75515
 H1245 H 0.24047 0.08406 0.72024
 H1246 H 0.21266 0.02362 0.71469
 H1247 H 0.12249 0.06122 0.79304
 H1248 H 0.15087 0.12097 0.79845
 C1249 C 0.29738 0.10042 0.22764
 C1250 C 0.32933 0.09150 0.20544
 C1251 C 0.34704 0.05793 0.21209
 C1252 C 0.33254 0.03208 0.24036
 C1253 C 0.30034 0.04188 0.26277
 C1254 C 0.28274 0.07558 0.25611
 C1255 C 0.28315 0.13712 0.22615
 C1256 C 0.27292 0.16851 0.22784
 H1257 H 0.34159 0.11125 0.18451
 H1258 H 0.37301 0.05301 0.19626
 H1259 H 0.28945 0.02399 0.28652
 H1260 H 0.25868 0.08294 0.27454
 C1261 C 0.80112 0.60182 0.73278
 C1262 C 0.78621 0.57606 0.75999
 C1263 C 0.80299 0.54163 0.76431
 C1264 C 0.83465 0.53203 0.74082
 C1265 C 0.84922 0.55865 0.71352
 C1266 C 0.83235 0.59299 0.70924
 C1267 C 0.78735 0.63877 0.73317
 C1268 C 0.77690 0.67007 0.73583
 H1269 H 0.76261 0.58318 0.77927
 H1270 H 0.79206 0.52305 0.78736
 H1271 H 0.87477 0.55376 0.69685
 H1272 H 0.84471 0.61328 0.68906
 C1273 C 0.89584 0.76237 0.19557
 C1274 C 0.89672 0.76650 0.15266
 C1275 C 0.92965 0.76210 0.13048
 C1276 C 0.96317 0.75443 0.15058
 C1277 C 0.96154 0.74850 0.19383
 C1278 C 0.92828 0.75280 0.21605
 C1279 C 0.86072 0.76477 0.21709
 C1280 C 0.82981 0.76486 0.23142
 H1281 H 0.87173 0.77279 0.13611
 H1282 H 0.92920 0.76548 0.09723
 H1283 H 0.98551 0.73989 0.21076
 H1284 H 0.92778 0.74809 0.24910
 C1285 C 0.39481 0.26472 0.69021
 C1286 C 0.40422 0.28991 0.65939
 C1287 C 0.43776 0.28664 0.63798
 C1288 C 0.46370 0.25851 0.64752
 C1289 C 0.45314 0.23265 0.67797
 C1290 C 0.41937 0.23594 0.69928
 C1291 C 0.35824 0.26608 0.70855
 C1292 C 0.32669 0.26589 0.72096
 H1293 H 0.38499 0.31151 0.65082
 H1294 H 0.44228 0.30573 0.61294
 H1295 H 0.47106 0.20956 0.68500
 H1296 H 0.41205 0.21543 0.72211
 C1297 C 0.39722 0.73733 0.80520
 C1298 C 0.42211 0.76527 0.79577
 C1299 C 0.45468 0.76868 0.81824
 C1300 C 0.46379 0.74369 0.85014
 C1301 C 0.43729 0.71681 0.86035
 C1302 C 0.40496 0.71339 0.83781
 C1303 C 0.36178 0.73576 0.78522
 C1304 C 0.33086 0.73585 0.77168
 H1305 H 0.41598 0.78497 0.77164
 H1306 H 0.47291 0.79103 0.81071
 H1307 H 0.44060 0.69874 0.88656
 H1308 H 0.38535 0.69261 0.84676
 C1309 C 0.90627 0.23538 0.29499
 C1310 C 0.92040 0.20494 0.31618
 C1311 C 0.95224 0.20800 0.33980
 C1312 C 0.97004 0.24218 0.34437
 C1313 C 0.95753 0.27148 0.31923
 C1314 C 0.92564 0.26838 0.29565
 C1315 C 0.87013 0.23408 0.27658
 C1316 C 0.83879 0.23507 0.26428
 H1317 H 0.90628 0.17895 0.31536
 H1318 H 0.96226 0.18337 0.35475
 H1319 H 0.97142 0.29759 0.31970
 H1320 H 0.91540 0.29218 0.27906
 C1321 C 0.10079 0.26339 0.29346
 C1322 C 0.08173 0.23019 0.29352
 C1323 C 0.04981 0.22606 0.31786
 C1324 C 0.03690 0.25447 0.34435
 C1325 C 0.05453 0.28889 0.34066
 C1326 C 0.08639 0.29297 0.31629
 C1327 C 0.13692 0.26563 0.27394
 C1328 C 0.16835 0.26519 0.26088
 H1329 H 0.09218 0.20701 0.27574
 H1330 H 0.03607 0.19986 0.31761
 H1331 H 0.04424 0.31298 0.35672
 H1332 H 0.10029 0.31910 0.31607
 C1333 C 0.60245 0.75902 0.80422
 C1334 C 0.60129 0.76341 0.84708
 C1335 C 0.56845 0.75910 0.86913
 C1336 C 0.53523 0.75124 0.84895
 C1337 C 0.53717 0.74494 0.80580
 C1338 C 0.57041 0.74916 0.78368
 C1339 C 0.63760 0.76166 0.78297
 C1340 C 0.66869 0.76207 0.76926
 H1341 H 0.62602 0.76994 0.86368
 H1342 H 0.56868 0.76284 0.90232
 H1343 H 0.51348 0.73624 0.78888
 H1344 H 0.57118 0.74425 0.75068
 C1345 C 0.60070 0.24069 0.69571
 C1346 C 0.56750 0.25004 0.71575
 C1347 C 0.53505 0.25465 0.69303
 C1348 C 0.53500 0.24931 0.64967
 C1349 C 0.56925 0.24179 0.63004
 C1350 C 0.60136 0.23709 0.65271
 C1351 C 0.63506 0.23779 0.71778
 C1352 C 0.66559 0.23720 0.73227
 H1353 H 0.56675 0.25429 0.74887
 H1354 H 0.51045 0.26298 0.70971
 H1355 H 0.57089 0.23873 0.59678
 H1356 H 0.62694 0.23093 0.63649
 C1357 C 0.10064 0.73976 0.19585
 C1358 C 0.07544 0.76843 0.20394
 C1359 C 0.04318 0.77201 0.18076
 C1360 C 0.03467 0.74645 0.14951
 C1361 C 0.06156 0.71890 0.14050
 C1362 C 0.09361 0.71534 0.16372
 C1363 C 0.13569 0.73775 0.21681
 C1364 C 0.16633 0.73744 0.23116
 H1365 H 0.08103 0.78849 0.22765
 H1366 H 0.02460 0.79480 0.18739
 H1367 H 0.05871 0.70027 0.11483
 H1368 H 0.11349 0.69398 0.15575
   
