data_POSCAR
  _audit_creation_date              2014-09-24
  _audit_creation_method            'ToBaCCo'
  _symmetry_space_group_name_H-M    'P1'
  _symmetry_Int_Tables_number       1
  _symmetry_cell_setting            triclinic
  loop_
  _symmetry_equiv_pos_as_xyz
 x,y,z
_cell_length_a 57.0122
_cell_length_b 56.7399
_cell_length_c 54.9182
_cell_angle_alpha 88.620600
_cell_angle_beta 90.730800
_cell_angle_gamma 89.673100
loop_
  _atom_site_label
  _atom_site_type_symbol
  _atom_site_fract_x
  _atom_site_fract_y
  _atom_site_fract_z
C1 C 0.31167 0.45290 0.90480
 C2 C 0.30008 0.43494 0.91804
 C3 C 0.30880 0.42690 0.94087
 C4 C 0.32944 0.43664 0.95018
 C5 C 0.34152 0.45446 0.93750
 C6 C 0.33226 0.46265 0.91480
 H7 H 0.28502 0.42643 0.91023
 H8 H 0.33633 0.42996 0.96754
 H9 H 0.34128 0.47599 0.90420
 C10 C 0.45234 0.82007 0.46232
 C11 C 0.45901 0.81013 0.44020
 C12 C 0.44447 0.79391 0.42836
 C13 C 0.42327 0.78729 0.43899
 C14 C 0.41612 0.79696 0.46101
 C15 C 0.43068 0.81325 0.47251
 H16 H 0.47565 0.81500 0.43230
 H17 H 0.41193 0.77549 0.42920
 H18 H 0.42426 0.82111 0.48887
 C19 C 0.98290 0.90666 0.81204
 C20 C 0.96195 0.91367 0.80016
 C21 C 0.94767 0.93113 0.81005
 C22 C 0.95444 0.94136 0.83224
 C23 C 0.97536 0.93420 0.84435
 C24 C 0.98922 0.91678 0.83399
 H25 H 0.95640 0.90525 0.78358
 H26 H 0.94282 0.95389 0.84043
 H27 H 1.00527 0.91087 0.84315
 C28 C 0.44051 -0.08810 0.32924
 C29 C 0.41969 -0.07977 0.31774
 C30 C 0.40518 -0.06298 0.32879
 C31 C 0.41186 -0.05465 0.35189
 C32 C 0.43245 -0.06280 0.36392
 C33 C 0.44665 -0.07944 0.35227
 H34 H 0.41433 -0.08665 0.30035
 H35 H 0.40099 -0.04205 0.36101
 H36 H 0.46267 -0.08583 0.36088
 C37 C 0.78958 0.30344 0.32089
 C38 C 0.78206 0.32425 0.30899
 C39 C 0.79623 0.33583 0.29179
 C40 C 0.81787 0.32563 0.28570
 C41 C 0.82568 0.30442 0.29716
 C42 C 0.81126 0.29343 0.31458
 H43 H 0.76501 0.33131 0.31337
 H44 H 0.82836 0.33437 0.27199
 H45 H 0.81707 0.27698 0.32306
 C46 C -0.16183 0.84343 0.80202
 C47 C -0.17738 0.83170 0.81792
 C48 C -0.17311 0.80848 0.82606
 C49 C -0.15301 0.79666 0.81799
 C50 C -0.13756 0.80767 0.80165
 C51 C -0.14221 0.83100 0.79365
 H52 H -0.19307 0.84024 0.82420
 H53 H -0.14878 0.77911 0.82486
 H54 H -0.12997 0.84007 0.78186
 C55 C 0.91122 0.34409 0.44477
 C56 C 0.89291 0.32837 0.45019
 C57 C 0.89024 0.30723 0.43750
 C58 C 0.90612 0.30188 0.41915
 C59 C 0.92507 0.31684 0.41385
 C60 C 0.92748 0.33775 0.42675
 H61 H 0.88010 0.33323 0.46358
 H62 H 0.90320 0.28617 0.40883
 H63 H 0.94236 0.34866 0.42245
 C64 C 0.44149 0.43557 0.82772
 C65 C 0.41924 0.44543 0.82267
 C66 C 0.40230 0.43271 0.81000
 C67 C 0.40739 0.40958 0.80303
 C68 C 0.42945 0.39947 0.80770
 C69 C 0.44636 0.41256 0.82041
 H70 H 0.41475 0.46285 0.82874
 H71 H 0.39412 0.39917 0.79410
 H72 H 0.46331 0.40504 0.82513
 C73 C 0.83012 0.89910 0.95872
 C74 C 0.81936 0.91219 0.93938
 C75 C 0.82667 0.93524 0.93336
 C76 C 0.84460 0.94554 0.94730
 C77 C 0.85568 0.93289 0.96659
 C78 C 0.84826 0.90982 0.97205
 H79 H 0.80551 0.90468 0.92852
 H80 H 0.84997 0.96327 0.94297
 H81 H 0.85695 0.90001 0.98681
 C82 C 0.31088 0.83925 0.30632
 C83 C 0.33203 0.82694 0.30336
 C84 C 0.33606 0.80495 0.31506
 C85 C 0.31917 0.79561 0.33075
 C86 C 0.29787 0.80760 0.33423
 C87 C 0.29386 0.82927 0.32195
 H88 H 0.34556 0.83469 0.29208
 H89 H 0.32309 0.77931 0.34062
 H90 H 0.27785 0.83866 0.32588
 C91 C 0.77162 0.41614 0.45656
 C92 C 0.76244 0.42502 0.43427
 C93 C 0.77210 0.44513 0.42296
 C94 C 0.79085 0.45666 0.43452
 C95 C 0.80035 0.44781 0.45683
 C96 C 0.79003 0.42794 0.46786
 H97 H 0.74790 0.41622 0.42554
 H98 H 0.79760 0.47257 0.42623
 H99 H 0.79718 0.42076 0.48490
 C100 C 0.95212 0.85060 -0.06714
 C101 C 0.93368 0.84060 -0.05339
 C102 C 0.92169 0.82070 -0.06144
 C103 C 0.92765 0.81095 -0.08377
 C104 C 0.94593 0.82020 -0.09764
 C105 C 0.95802 0.84012 -0.08932
 H106 H 0.92821 0.84791 -0.03641
 H107 H 0.91788 0.79615 -0.09065
 H108 H 0.97176 0.84781 -0.10032
 C109 C 0.29634 0.31095 0.77235
 C110 C 0.31732 0.30163 0.76354
 C111 C 0.32951 0.28370 0.77638
 C112 C 0.31989 0.27420 0.79788
 C113 C 0.29923 0.28351 0.80731
 C114 C 0.28715 0.30154 0.79417
 H115 H 0.32481 0.30915 0.74707
 H116 H 0.32865 0.26002 0.80793
 H117 H 0.27067 0.30799 0.80094
 C118 C 0.13587 0.56024 0.54459
 C119 C 0.14500 0.54627 0.56400
 C120 C 0.16824 0.54877 0.57205
 C121 C 0.18236 0.56633 0.56122
 C122 C 0.17320 0.58077 0.54213
 C123 C 0.15025 0.57721 0.53367
 H124 H 0.13417 0.53351 0.57337
 H125 H 0.20009 0.56904 0.56777
 H126 H 0.14325 0.58834 0.51894
 C127 C 0.60866 0.69294 0.05982
 C128 C 0.59529 0.67425 0.05045
 C129 C 0.57446 0.66689 0.06205
 C130 C 0.56731 0.67837 0.08322
 C131 C 0.58020 0.69734 0.09255
 C132 C 0.60074 0.70428 0.08067
 H133 H 0.60120 0.66522 0.03456
 H134 H 0.55178 0.67216 0.09240
 H135 H 0.61087 0.71869 0.08794
 C136 C 0.69823 0.18621 0.66818
 C137 C 0.67561 0.19044 0.67725
 C138 C 0.66961 0.18217 0.70064
 C139 C 0.68606 0.16986 0.71500
 C140 C 0.70871 0.16545 0.70664
 C141 C 0.71471 0.17384 0.68311
 H142 H 0.66235 0.19935 0.66618
 H143 H 0.68092 0.16342 0.73292
 H144 H 0.73198 0.17066 0.67599
 C145 C 1.06979 0.05665 0.22191
 C146 C 1.05721 0.07456 0.23304
 C147 C 1.03774 0.08505 0.22140
 C148 C 1.02986 0.07641 0.19902
 C149 C 1.04208 0.05836 0.18742
 C150 C 1.06198 0.04827 0.19932
 H151 H 1.06352 0.08140 0.25018
 H152 H 1.01443 0.08418 0.19027
 H153 H 1.07157 0.03401 0.19141
 C154 C 0.04631 0.17922 1.05310
 C155 C 0.06673 0.18946 1.04338
 C156 C 0.07481 0.21123 1.05201
 C157 C 0.06263 0.22214 1.07075
 C158 C 0.04245 0.21189 1.08088
 C159 C 0.03400 0.19096 1.07109
 H160 H 0.07621 0.18045 1.02944
 H161 H 0.06908 0.23879 1.07709
 H162 H 0.01845 0.18280 1.07867
 C163 C 0.19837 0.70036 0.71256
 C164 C 0.21042 0.70946 0.69237
 C165 C 0.22720 0.69575 0.68051
 C166 C 0.23283 0.67324 0.68998
 C167 C 0.22100 0.66386 0.71031
 C168 C 0.20435 0.67779 0.72190
 H169 H 0.20603 0.72699 0.68554
 H170 H 0.24597 0.66289 0.68095
 H171 H 0.19560 0.67049 0.73768
 C172 C 1.19668 0.17349 0.19683
 C173 C 1.20607 0.18191 0.17482
 C174 C 1.19559 0.20040 0.16130
 C175 C 1.17529 0.21114 0.17047
 C176 C 1.16526 0.20329 0.19261
 C177 C 1.17613 0.18428 0.20577
 H178 H 1.22174 0.17366 0.16785
 H179 H 1.16725 0.22587 0.16063
 H180 H 1.16903 0.17831 0.22295
 C181 C 0.66042 1.05062 0.57712
 C182 C 0.67096 1.03882 0.59755
 C183 C 0.69183 1.04716 0.60807
 C184 C 0.70190 1.06788 0.59860
 C185 C 0.69245 1.07956 0.57796
 C186 C 0.67171 1.07069 0.56730
 H187 H 0.66328 1.02322 0.60569
 H188 H 0.71719 1.07520 0.60746
 H189 H 0.66343 1.07994 0.55202
 C190 C 0.54687 0.57288 0.14703
 C191 C 0.53676 0.59147 0.15960
 C192 C 0.54477 0.59765 0.18287
 C193 C 0.56350 0.58467 0.19382
 C194 C 0.57401 0.56589 0.18138
 C195 C 0.56547 0.56016 0.15815
 H196 H 0.52249 0.60144 0.15100
 H197 H 0.56955 0.58877 0.21193
 H198 H 0.57396 0.54606 0.14869
 C199 C 0.65697 0.70479 0.17648
 C200 C 0.66571 0.68564 0.19063
 C201 C 0.68466 0.67205 0.18265
 C202 C 0.69494 0.67798 0.16009
 C203 C 0.68627 0.69718 0.14586
 C204 C 0.66722 0.71020 0.15413
 H205 H 0.65726 0.68059 0.20748
 H206 H 0.70879 0.66721 0.15298
 H207 H 0.66027 0.72475 0.14302
 C208 C 0.17762 0.06820 1.05412
 C209 C 0.18730 0.09048 1.04887
 C210 C 0.20544 0.09975 1.06337
 C211 C 0.21337 0.08680 1.08399
 C212 C 0.20366 0.06466 1.09001
 C213 C 0.18626 0.05537 1.07472
 H214 H 0.18017 0.10087 1.03369
 H215 H 0.22716 0.09414 1.09510
 H216 H 0.17885 0.03858 1.07998
 C217 C 0.56574 0.19100 0.54604
 C218 C 0.55252 0.20001 0.56520
 C219 C 0.53673 0.18555 0.57815
 C220 C 0.53371 0.16219 0.57100
 C221 C 0.54656 0.15299 0.55168
 C222 C 0.56271 0.16735 0.53961
 H223 H 0.55502 0.21817 0.57011
 H224 H 0.52217 0.15091 0.58149
 H225 H 0.57332 0.15955 0.52574
 C226 C 0.07147 0.54756 0.70062
 C227 C 0.06004 0.56754 0.70909
 C228 C 0.03867 0.57536 0.69858
 C229 C 0.02856 0.56244 0.67963
 C230 C 0.03948 0.54183 0.67128
 C231 C 0.06096 0.53459 0.68194
 H232 H 0.06890 0.57776 0.72276
 H233 H 0.01270 0.56914 0.67084
 H234 H 0.06956 0.51891 0.67546
 C235 C 0.68572 0.52542 0.02573
 C236 C 0.69760 0.54263 0.01176
 C237 C 0.71792 0.55333 0.02082
 C238 C 0.72736 0.54537 0.04335
 C239 C 0.71564 0.52849 0.05756
 C240 C 0.69512 0.51816 0.04839
 H241 H 0.69075 0.54843 -0.00585
 H242 H 0.74333 0.55287 0.05054
 H243 H 0.68597 0.50499 0.05920
 C244 C 0.04474 0.69518 0.57226
 C245 C 0.02865 0.68233 0.55868
 C246 C 0.03560 0.67108 0.53748
 C247 C 0.05822 0.67490 0.52856
 C248 C 0.07429 0.68885 0.54119
 C249 C 0.06753 0.69866 0.56340
 H250 H 0.01104 0.68015 0.56551
 H251 H 0.06362 0.66631 0.51209
 H252 H 0.07992 0.70856 0.57407
 C253 C 0.57626 1.03957 0.69219
 C254 C 0.59918 1.03298 0.69931
 C255 C 0.61274 1.04669 0.71486
 C256 C 0.60301 1.06758 0.72371
 C257 C 0.58027 1.07500 0.71675
 C258 C 0.56681 1.06080 0.70109
 H259 H 0.60677 1.01688 0.69249
 H260 H 0.61299 1.07840 0.73596
 H261 H 0.54922 1.06628 0.69613
 C262 C 0.43145 0.35456 0.93102
 C263 C 0.44636 0.34314 0.91449
 C264 C 0.44071 0.32111 0.90483
 C265 C 0.41957 0.31029 0.91173
 C266 C 0.40428 0.32096 0.92821
 C267 C 0.41049 0.34302 0.93782
 H268 H 0.46267 0.35095 0.90884
 H269 H 0.41456 0.29376 0.90380
 H270 H 0.39871 0.35172 0.95005
 C271 C 0.94081 0.45526 0.32782
 C272 C 0.91990 0.46568 0.31882
 C273 C 0.90851 0.45703 0.29813
 C274 C 0.91829 0.43765 0.28626
 C275 C 0.93895 0.42674 0.29527
 C276 C 0.95028 0.43605 0.31576
 H277 H 0.91174 0.47997 0.32832
 H278 H 0.90988 0.43083 0.27014
 H279 H 0.96659 0.42848 0.32261
 C280 C 0.29614 0.94837 0.43474
 C281 C 0.28886 0.92580 0.44295
 C282 C 0.30299 0.91241 0.45938
 C283 C 0.32413 0.92173 0.46782
 C284 C 0.33145 0.94425 0.46022
 C285 C 0.31738 0.95737 0.44382
 H286 H 0.27228 0.91865 0.43710
 H287 H 0.33519 0.91083 0.47968
 H288 H 0.32338 0.97460 0.43770
 O289 O 0.18491 0.51993 0.72039
 O290 O 0.19161 0.51901 0.76432
 O291 O 0.25394 0.54192 0.69526
 O292 O 0.29069 0.52830 0.69909
 O293 O 0.21636 0.48619 0.66201
 O294 O 0.21302 0.44373 0.67340
 O295 O 0.30118 0.47016 0.76409
 O296 O 0.30045 0.51259 0.75696
 O297 O 0.23635 0.45462 0.79501
 O298 O 0.19454 0.46425 0.78208
 O299 O 0.26089 0.41536 0.73741
 O300 O 0.26163 0.42270 0.69156
 O301 O 0.29738 0.44091 0.73672
 O302 O 0.29183 0.44081 0.69357
 O303 O 0.23221 0.42186 0.76487
 O304 O 0.19209 0.43697 0.75926
 O305 O 0.26953 0.47661 0.79473
 O306 O 0.27259 0.51558 0.78715
 O307 O 0.18279 0.49084 0.69261
 O308 O 0.18451 0.44959 0.69702
 O309 O 0.24918 0.50883 0.66280
 O310 O 0.28893 0.49767 0.67525
 O311 O 0.22424 0.54808 0.72175
 O312 O 0.21865 0.54119 0.76450
 Zr313 Zr 0.21798 0.51468 0.73805
 O314 O 0.23421 0.49209 0.76434
 Zr315 Zr 0.26121 0.50578 0.69903
 O316 O 0.27867 0.48220 0.72327
 Zr317 Zr 0.21399 0.47198 0.69781
 O318 O 0.22885 0.44723 0.72278
 Zr319 Zr 0.27060 0.49068 0.75916
 O320 O 0.25491 0.51609 0.73509
 Zr321 Zr 0.22302 0.45743 0.75886
 O322 O 0.20506 0.48035 0.73380
 Zr323 Zr 0.26535 0.44800 0.71905
 O324 O 0.25030 0.47113 0.69233
 O325 O 0.22491 0.50651 0.70228
 O326 O 0.25930 0.45615 0.75525
 C327 C 0.17435 0.50871 0.70331
 C328 C 0.23919 0.55524 0.70588
 C329 C 0.23112 0.50043 0.65200
 C330 C 0.30843 0.45147 0.75366
 C331 C 0.25478 0.46296 0.80539
 C332 C 0.24747 0.40867 0.75487
 H333 H 0.23063 0.49759 0.78084
 H334 H 0.22239 0.43145 0.71965
 H335 H 0.21719 0.51798 0.69087
 H336 H 0.29573 0.48292 0.72040
 H337 H 0.29504 0.52804 0.75018
 H338 H 0.30273 0.52104 0.71004
 H339 H 0.19251 0.42653 0.74511
 H340 H 0.17695 0.45091 0.71306
 H341 H 0.26553 0.53030 0.78042
 H342 H 0.23450 0.54817 0.76431
 H343 H 0.24699 0.41388 0.69459
 H344 H 0.22820 0.44372 0.66485
 H345 H 0.18119 0.50517 0.76320
 H346 H 0.19908 0.47731 0.79274
 H347 H 0.28444 0.48316 0.66673
 H348 H 0.30243 0.45454 0.69303
 O349 O 0.27528 -0.05349 0.26791
 O350 O 0.28280 -0.03508 0.22790
 O351 O 0.29376 0.00258 0.31560
 O352 O 0.28275 0.04055 0.32022
 O353 O 0.22991 -0.03637 0.32484
 O354 O 0.19149 -0.03294 0.30493
 O355 O 0.23708 0.07390 0.24926
 O356 O 0.27748 0.06845 0.26579
 O357 O 0.22715 0.02148 0.20009
 O358 O 0.23248 -0.02162 0.20072
 O359 O 0.17776 0.03167 0.25489
 O360 O 0.17744 0.02049 0.30029
 O361 O 0.20340 0.06532 0.26927
 O362 O 0.19571 0.04972 0.30858
 O363 O 0.18904 0.01190 0.22142
 O364 O 0.20259 -0.02984 0.21815
 O365 O 0.25030 0.05094 0.21383
 O366 O 0.28684 0.04929 0.23019
 O367 O 0.24006 -0.06050 0.28570
 O368 O 0.20068 -0.05360 0.27562
 O369 O 0.25354 -0.00702 0.33810
 O370 O 0.24814 0.03554 0.33646
 O371 O 0.30362 -0.02012 0.28366
 O372 O 0.30577 -0.00985 0.24062
 Zr373 Zr 0.27442 -0.01666 0.25969
 O374 O 0.25795 0.00806 0.23552
 Zr375 Zr 0.25938 0.01474 0.30725
 O376 O 0.24157 0.04036 0.28526
 Zr377 Zr 0.22411 -0.02752 0.28779
 O378 O 0.20546 -0.00426 0.26433
 Zr379 Zr 0.25647 0.04178 0.25059
 O380 O 0.27627 0.01788 0.27340
 Zr381 Zr 0.22261 -0.00115 0.23069
 O382 O 0.23956 -0.02711 0.25310
 Zr383 Zr 0.20682 0.02955 0.27889
 O384 O 0.22369 0.00575 0.30371
 O385 O 0.25914 -0.01910 0.29368
 O386 O 0.22164 0.03270 0.24449
 C387 C 0.25991 -0.06724 0.27771
 C388 C 0.30803 -0.01102 0.30446
 C389 C 0.24188 -0.02615 0.34146
 C390 C 0.21661 0.07944 0.25724
 C391 C 0.23826 0.04099 0.19713
 C392 C 0.17415 0.02387 0.23338
 H393 H 0.26652 0.00865 0.21997
 H394 H 0.18923 -0.01006 0.26256
 H395 H 0.26738 -0.03077 0.30445
 H396 H 0.24221 0.05595 0.29289
 H397 H 0.29133 0.06045 0.27338
 H398 H 0.27830 0.05575 0.31220
 H399 H 0.18839 -0.03106 0.22827
 H400 H 0.20480 -0.05665 0.25852
 H401 H 0.29939 0.03895 0.23702
 H402 H 0.31342 0.00370 0.24842
 H403 H 0.16849 0.00832 0.29160
 H404 H 0.19002 -0.02077 0.31744
 H405 H 0.26872 -0.04427 0.22350
 H406 H 0.24847 -0.01686 0.19596
 H407 H 0.23172 0.03106 0.33985
 H408 H 0.20964 0.05785 0.31512
 O409 O 0.50091 0.79786 0.31099
 O410 O 0.54198 0.79717 0.30099
 O411 O 0.46942 0.82145 0.24333
 O412 O 0.47428 0.81044 0.20365
 O413 O 0.43934 0.76465 0.28069
 O414 O 0.44880 0.72369 0.28658
 O415 O 0.53307 0.74816 0.18998
 O416 O 0.52814 0.79094 0.18992
 O417 O 0.56457 0.73146 0.25817
 O418 O 0.55490 0.73917 0.30043
 O419 O 0.50721 0.69467 0.23155
 O420 O 0.46305 0.70214 0.23346
 O421 O 0.50436 0.72080 0.19445
 O422 O 0.46239 0.72254 0.20280
 O423 O 0.53493 0.69947 0.26111
 O424 O 0.52999 0.71400 0.30414
 O425 O 0.56372 0.75308 0.22275
 O426 O 0.55834 0.79285 0.21833
 O427 O 0.47302 0.76959 0.31570
 O428 O 0.47439 0.72763 0.31364
 O429 O 0.43906 0.78719 0.24577
 O430 O 0.44956 0.78005 0.20427
 O431 O 0.49630 0.82587 0.27384
 O432 O 0.53902 0.81979 0.27023
 Zr433 Zr 0.51394 0.79294 0.27594
 O434 O 0.53706 0.76941 0.25912
 Zr435 Zr 0.47356 0.78588 0.23322
 O436 O 0.49475 0.76192 0.21434
 Zr437 Zr 0.47382 0.75085 0.28296
 O438 O 0.49520 0.72557 0.26641
 Zr439 Zr 0.53026 0.76882 0.22145
 O440 O 0.50909 0.79503 0.23782
 Zr441 Zr 0.53051 0.73472 0.27154
 O442 O 0.50924 0.75855 0.29051
 Zr443 Zr 0.48978 0.72753 0.22850
 O444 O 0.46643 0.75108 0.24528
 O445 O 0.47873 0.78522 0.27073
 O446 O 0.52521 0.73441 0.23393
 C447 C 0.48515 0.78707 0.32335
 C448 C 0.47913 0.83348 0.26029
 C449 C 0.42911 0.77816 0.26458
 C450 C 0.52136 0.73021 0.18273
 C451 C 0.57392 0.73922 0.23851
 C452 C 0.52465 0.68723 0.24479
 H453 H 0.55340 0.77428 0.26242
 H454 H 0.49184 0.70968 0.27318
 H455 H 0.46806 0.79575 0.27953
 H456 H 0.49118 0.76318 0.19669
 H457 H 0.52328 0.80674 0.19536
 H458 H 0.48354 0.80321 0.19065
 H459 H 0.51826 0.70140 0.30213
 H460 H 0.49025 0.72882 0.32104
 H461 H 0.55389 0.80669 0.22783
 H462 H 0.53435 0.82854 0.25510
 H463 H 0.46719 0.69222 0.24796
 H464 H 0.44203 0.72143 0.27012
 H465 H 0.54170 0.78331 0.31229
 H466 H 0.56448 0.75317 0.29637
 H467 H 0.44169 0.76491 0.20801
 H468 H 0.46361 0.73514 0.19012
 O469 O 0.02173 0.68369 0.72983
 O470 O -0.01639 0.69748 0.72282
 O471 O 0.06478 0.73359 0.69240
 O472 O 0.07122 0.77167 0.69195
 O473 O 0.08274 0.71010 0.76477
 O474 O 0.06982 0.71991 0.80382
 O475 O 0.00705 0.81457 0.73314
 O476 O 0.01388 0.80020 0.69503
 O477 O -0.03621 0.76627 0.76921
 O478 O -0.03592 0.72540 0.77808
 O479 O 0.02468 0.79060 0.80547
 O480 O 0.06494 0.78353 0.80391
 O481 O 0.03016 0.81538 0.76716
 O482 O 0.07316 0.79987 0.77196
 O483 O -0.00856 0.76867 0.80590
 O484 O -0.01166 0.72313 0.80541
 O485 O -0.02837 0.78916 0.73580
 O486 O -0.01594 0.77552 0.69432
 O487 O 0.04458 0.68374 0.76410
 O488 O 0.03860 0.70077 0.80433
 O489 O 0.09191 0.73394 0.73244
 O490 O 0.08861 0.77777 0.72600
 O491 O 0.03121 0.71207 0.69067
 O492 O -0.01087 0.72040 0.69389
 Zr493 Zr 0.01347 0.71936 0.72329
 O494 O -0.00783 0.74615 0.73725
 Zr495 Zr 0.06097 0.75307 0.72385
 O496 O 0.04130 0.78196 0.73578
 Zr497 Zr 0.04808 0.71973 0.77236
 O498 O 0.02945 0.74780 0.78762
 Zr499 Zr 0.00573 0.77875 0.72576
 O500 O 0.02614 0.75193 0.71021
 Zr501 Zr -0.00553 0.74647 0.77554
 O502 O 0.01267 0.71708 0.76171
 Zr503 Zr 0.04163 0.78041 0.77392
 O504 O 0.06291 0.75241 0.76202
 O505 O 0.04838 0.72017 0.73452
 O506 O 0.00638 0.77931 0.76373
 C507 C 0.03377 0.67319 0.74682
 C508 C 0.05088 0.71926 0.68196
 C509 C 0.09704 0.71808 0.74882
 C510 C 0.01673 0.82525 0.75081
 C511 C -0.04176 0.78226 0.75322
 C512 C 0.00507 0.78451 0.81467
 H513 H -0.02419 0.74396 0.73164
 H514 H 0.03088 0.74663 0.80557
 H515 H 0.05773 0.70714 0.72780
 H516 H 0.04791 0.79684 0.72920
 H517 H 0.02271 0.79015 0.68381
 H518 H 0.06121 0.78594 0.69059
 H519 H -0.00099 0.72750 0.81889
 H520 H 0.02290 0.69404 0.80120
 H521 H -0.03004 0.76640 0.69881
 H522 H -0.00592 0.73331 0.68269
 H523 H 0.06339 0.76899 0.81404
 H524 H 0.07990 0.73399 0.80218
 H525 H -0.02001 0.69371 0.74006
 H526 H -0.04078 0.72166 0.76127
 H527 H 0.09636 0.77536 0.74211
 H528 H 0.07171 0.81132 0.75813
 O529 O 0.02839 0.06578 0.03847
 O530 O -0.01343 0.06346 0.04122
 O531 O 0.04801 -0.00203 0.07334
 O532 O 0.04267 -0.03993 0.06611
 O533 O 0.08147 0.02414 0.00824
 O534 O 0.06984 0.02207 -0.03456
 O535 O -0.02462 -0.05182 0.01165
 O536 O -0.01701 -0.04580 0.05361
 O537 O -0.04810 0.01276 -0.01743
 O538 O -0.03221 0.05457 -0.01470
 O539 O 0.00286 -0.02326 -0.05262
 O540 O 0.04604 -0.02938 -0.04702
 O541 O 0.00002 -0.05537 -0.02033
 O542 O 0.04343 -0.05491 -0.02106
 O543 O -0.02010 0.00956 -0.05139
 O544 O -0.01051 0.05060 -0.04337
 O545 O -0.05015 -0.01688 0.01105
 O546 O -0.03952 -0.01404 0.05547
 O547 O 0.05455 0.06104 0.00795
 O548 O 0.04851 0.05295 -0.03414
 O549 O 0.07887 -0.00486 0.03741
 O550 O 0.06307 -0.04516 0.03339
 O551 O 0.02550 0.03121 0.07456
 O552 O -0.01511 0.03793 0.06825
 Zr553 Zr 0.00926 0.03394 0.03995
 O554 O -0.01808 0.01774 0.02046
 Zr555 Zr 0.04312 -0.01398 0.03780
 O556 O 0.01722 -0.03230 0.01827
 Zr557 Zr 0.04681 0.02765 -0.00534
 O558 O 0.02106 0.01140 -0.02696
 Zr559 Zr -0.01617 -0.01899 0.02620
 O560 O 0.00946 -0.00259 0.04808
 Zr561 Zr -0.01256 0.02292 -0.01695
 O562 O 0.01339 0.04143 0.00255
 Zr563 Zr 0.02117 -0.02505 -0.01917
 O564 O 0.04895 -0.00907 0.00031
 O565 O 0.04280 0.02236 0.03196
 O566 O -0.01242 -0.01349 -0.01111
 C567 C 0.04510 0.07312 0.02467
 C568 C 0.03958 0.01577 0.08433
 C569 C 0.09041 0.01063 0.02512
 C570 C -0.01686 -0.06270 -0.00686
 C571 C -0.05916 -0.00368 -0.00598
 C572 C -0.01255 -0.00888 -0.06184
 H573 H -0.03337 0.02425 0.02535
 H574 H 0.02415 0.01493 -0.04432
 H575 H 0.05467 0.03062 0.04187
 H576 H 0.01832 -0.04935 0.02225
 H577 H -0.00738 -0.04022 0.06744
 H578 H 0.03015 -0.05124 0.06211
 H579 H 0.00255 0.04690 -0.05435
 H580 H 0.03447 0.06316 -0.03276
 H581 H -0.04946 -0.00006 0.05169
 H582 H -0.01823 0.02187 0.07480
 H583 H 0.04591 -0.01483 -0.05729
 H584 H 0.07560 0.00562 -0.03278
 H585 H -0.01344 0.07093 0.02475
 H586 H -0.04362 0.05259 -0.00139
 H587 H 0.07131 -0.04343 0.01770
 H588 H 0.04127 -0.06457 -0.00604
 O589 O -0.03881 0.56867 0.54243
 O590 O -0.07978 0.56014 0.53498
 O591 O -0.01262 0.50282 0.57150
 O592 O -0.01698 0.46438 0.55976
 O593 O 0.02567 0.53735 0.51724
 O594 O 0.02156 0.54307 0.47394
 O595 O -0.06619 0.45097 0.48823
 O596 O -0.06734 0.45206 0.53265
 O597 O -0.09415 0.51692 0.46454
 O598 O -0.08599 0.55796 0.47476
 O599 O -0.03201 0.49231 0.43621
 O600 O 0.01021 0.49183 0.45154
 O601 O -0.03519 0.45595 0.46303
 O602 O 0.00610 0.46187 0.47117
 O603 O -0.05946 0.52148 0.43698
 O604 O -0.05788 0.56208 0.45330
 O605 O -0.09770 0.48414 0.48882
 O606 O -0.09685 0.47799 0.52995
 O607 O -0.00776 0.57195 0.51695
 O608 O -0.00278 0.56984 0.47474
 O609 O 0.02221 0.50430 0.54121
 O610 O 0.01223 0.46457 0.53254
 O611 O -0.04091 0.53126 0.57200
 O612 O -0.08126 0.53098 0.55882
 Zr613 Zr -0.05229 0.53496 0.53544
 O614 O -0.07238 0.51859 0.50829
 Zr615 Zr -0.01208 0.49278 0.53470
 O616 O -0.03016 0.47465 0.50713
 Zr617 Zr -0.00667 0.54024 0.49842
 O618 O -0.02490 0.52468 0.46963
 Zr619 Zr -0.06617 0.48200 0.50898
 O620 O -0.04846 0.49803 0.53860
 Zr621 Zr -0.06106 0.53019 0.47379
 O622 O -0.04261 0.54844 0.50094
 Zr623 Zr -0.02043 0.48803 0.47263
 O624 O -0.00006 0.50381 0.50010
 O625 O -0.01638 0.52918 0.53308
 O626 O -0.05649 0.49365 0.47431
 C627 C -0.02169 0.58009 0.53293
 C628 C -0.02497 0.51834 0.58243
 C629 C 0.03383 0.52180 0.53259
 C630 C -0.05270 0.44424 0.47104
 C631 C -0.10543 0.49891 0.47246
 C632 C -0.04733 0.50609 0.42590
 H633 H -0.08916 0.52219 0.51075
 H634 H -0.01915 0.53123 0.45399
 H635 H -0.00717 0.53752 0.54557
 H636 H -0.02706 0.45753 0.50901
 H637 H -0.06397 0.45757 0.54931
 H638 H -0.02436 0.45143 0.55073
 H639 H -0.04353 0.56100 0.44343
 H640 H -0.01847 0.57731 0.47307
 H641 H -0.09951 0.49311 0.53802
 H642 H -0.08017 0.51489 0.56616
 H643 H 0.00850 0.50639 0.44138
 H644 H 0.02908 0.52731 0.47360
 H645 H -0.07727 0.57058 0.52056
 H646 H -0.09766 0.55381 0.48730
 H647 H 0.02151 0.46755 0.51768
 H648 H 0.00321 0.45015 0.48441
 O649 O 0.48967 0.04132 0.56207
 O650 O 0.44990 0.02994 0.56011
 O651 O 0.52039 -0.01413 0.60662
 O652 O 0.51954 -0.05464 0.60556
 O653 O 0.55599 0.00844 0.54399
 O654 O 0.55042 0.00226 0.50109
 O655 O 0.46646 -0.08642 0.54377
 O656 O 0.46813 -0.07607 0.58520
 O657 O 0.43517 -0.03068 0.50561
 O658 O 0.44307 0.01326 0.50288
 O659 O 0.49798 -0.05912 0.48030
 O660 O 0.53993 -0.05545 0.49318
 O661 O 0.49553 -0.08782 0.51587
 O662 O 0.53814 -0.07865 0.52145
 O663 O 0.46827 -0.03258 0.47491
 O664 O 0.46816 0.01002 0.47788
 O665 O 0.43431 -0.05620 0.53818
 O666 O 0.43923 -0.04987 0.58105
 O667 O 0.52060 0.04030 0.53626
 O668 O 0.52358 0.02725 0.49525
 O669 O 0.55475 -0.01812 0.57568
 O670 O 0.54734 -0.05943 0.57740
 O671 O 0.49099 0.01279 0.60066
 O672 O 0.45031 0.00632 0.58985
 Zr673 Zr 0.47854 0.00642 0.56522
 O674 O 0.45844 -0.01681 0.54456
 Zr675 Zr 0.52120 -0.03286 0.57380
 O676 O 0.50290 -0.05818 0.55349
 Zr677 Zr 0.52287 0.00458 0.52633
 O678 O 0.50446 -0.01899 0.50389
 Zr679 Zr 0.46678 -0.05159 0.55553
 O680 O 0.48489 -0.02817 0.57839
 Zr681 Zr 0.46811 -0.01421 0.50781
 O682 O 0.48648 0.01123 0.52804
 Zr683 Zr 0.51050 -0.05389 0.51620
 O684 O 0.53113 -0.03042 0.53696
 O685 O 0.51466 0.00191 0.56290
 O686 O 0.47440 -0.04915 0.51847
 C687 C 0.50612 0.05118 0.54996
 C688 C 0.50767 0.00332 0.61347
 C689 C 0.56520 -0.00236 0.56277
 C690 C 0.47843 -0.09706 0.52772
 C691 C 0.42513 -0.04640 0.51906
 C692 C 0.48125 -0.04949 0.46754
 H693 H 0.44166 -0.01303 0.54669
 H694 H 0.50932 -0.01654 0.48681
 H695 H 0.52361 0.01356 0.57232
 H696 H 0.50675 -0.07425 0.55972
 H697 H 0.47381 -0.06742 0.59955
 H698 H 0.51311 -0.07003 0.60075
 H699 H 0.48350 0.00867 0.46981
 H700 H 0.50749 0.03368 0.49310
 H701 H 0.43021 -0.03521 0.57770
 H702 H 0.45244 -0.00775 0.60069
 H703 H 0.53849 -0.04231 0.48108
 H704 H 0.55837 -0.01305 0.50449
 H705 H 0.45053 0.03582 0.54302
 H706 H 0.43071 0.01091 0.51517
 H707 H 0.55546 -0.05994 0.56160
 H708 H 0.53478 -0.08824 0.53626
 O709 O 0.51947 0.57806 0.00590
 O710 O 0.47682 0.57394 0.00453
 O711 O 0.54307 0.51132 0.03187
 O712 O 0.54098 0.47394 0.02176
 O713 O 0.57349 0.54426 -0.03283
 O714 O 0.56139 0.54800 -0.07403
 O715 O 0.47420 0.45983 -0.03519
 O716 O 0.48079 0.46311 0.00719
 O717 O 0.44583 0.52610 -0.05818
 O718 O 0.45656 0.56617 -0.05428
 O719 O 0.49988 0.49507 -0.09569
 O720 O 0.54309 0.49333 -0.09086
 O721 O 0.50081 0.46094 -0.06568
 O722 O 0.54415 0.46678 -0.06616
 O723 O 0.47431 0.52565 -0.09224
 O724 O 0.48247 0.56831 -0.07970
 O725 O 0.44568 0.49373 -0.03294
 O726 O 0.45610 0.49275 0.01184
 O727 O 0.54394 0.57930 -0.02654
 O728 O 0.53682 0.57524 -0.07012
 O729 O 0.57397 0.51347 -0.00546
 O730 O 0.56081 0.47233 -0.01136
 O731 O 0.51724 0.54161 0.03619
 O732 O 0.47569 0.54487 0.02935
 Zr733 Zr 0.50111 0.54587 0.00169
 O734 O 0.47545 0.52913 -0.01989
 Zr735 Zr 0.53882 0.50162 -0.00466
 O736 O 0.51455 0.48273 -0.02585
 Zr737 Zr 0.53843 0.54717 -0.04410
 O738 O 0.51490 0.53005 -0.06749
 Zr739 Zr 0.47989 0.49224 -0.01757
 O740 O 0.50414 0.50887 0.00618
 Zr741 Zr 0.48059 0.53781 -0.05683
 O742 O 0.50416 0.55711 -0.03496
 Zr743 Zr 0.51828 0.49333 -0.06248
 O744 O 0.54414 0.51047 -0.04158
 O745 O 0.53545 0.53799 -0.00739
 O746 O 0.48365 0.50117 -0.05422
 C747 C 0.53548 0.58802 -0.00711
 C748 C 0.53314 0.52726 0.04446
 C749 C 0.58402 0.53009 -0.01777
 C750 C 0.48425 0.45088 -0.05376
 C751 C 0.43576 0.50815 -0.04841
 C752 C 0.48305 0.50831 -0.10375
 H753 H 0.45966 0.53400 -0.01471
 H754 H 0.51773 0.53512 -0.08453
 H755 H 0.54710 0.54582 0.00315
 H756 H 0.51718 0.46561 -0.02321
 H757 H 0.49003 0.46805 0.02156
 H758 H 0.52868 0.46245 0.01759
 H759 H 0.49282 0.56471 -0.09346
 H760 H 0.52285 0.58482 -0.06627
 H761 H 0.44548 0.50647 0.00949
 H762 H 0.47476 0.52822 0.03506
 H763 H 0.54117 0.50823 -0.10041
 H764 H 0.56684 0.53159 -0.07611
 H765 H 0.47851 0.58399 -0.01034
 H766 H 0.45134 0.56652 -0.03720
 H767 H 0.56927 0.47597 -0.02661
 H768 H 0.54209 0.45505 -0.05275
 O769 O 0.72682 0.17908 0.52614
 O770 O 0.76772 0.19329 0.53151
 O771 O 0.68676 0.23947 0.54467
 O772 O 0.68355 0.27747 0.53160
 O773 O 0.67169 0.20152 0.47847
 O774 O 0.69059 0.20197 0.43846
 O775 O 0.74922 0.30459 0.48418
 O776 O 0.73614 0.29908 0.52662
 O777 O 0.79501 0.24843 0.47300
 O778 O 0.79103 0.20360 0.48169
 O779 O 0.74274 0.26309 0.42286
 O780 O 0.69853 0.25448 0.42181
 O781 O 0.73007 0.29699 0.44867
 O782 O 0.69126 0.28374 0.44068
 O783 O 0.77319 0.23916 0.43451
 O784 O 0.77588 0.19920 0.44837
 O785 O 0.78429 0.27823 0.49758
 O786 O 0.76915 0.27990 0.53539
 O787 O 0.70704 0.17327 0.49052
 O788 O 0.71714 0.17814 0.44944
 O789 O 0.66218 0.23129 0.50361
 O790 O 0.66567 0.27284 0.49626
 O791 O 0.71720 0.21488 0.55470
 O792 O 0.75803 0.21909 0.55571
 Zr793 Zr 0.73795 0.21465 0.52353
 O794 O 0.76183 0.23739 0.50601
 Zr795 Zr 0.69334 0.25013 0.50815
 O796 O 0.71507 0.27356 0.48856
 Zr797 Zr 0.70792 0.20601 0.47237
 O798 O 0.73140 0.22698 0.45222
 Zr799 Zr 0.74878 0.27220 0.50409
 O800 O 0.72665 0.25013 0.52517
 Zr801 Zr 0.76451 0.22759 0.46962
 O802 O 0.74200 0.20345 0.48763
 Zr803 Zr 0.71958 0.26198 0.45269
 O804 O 0.69488 0.24066 0.47123
 O805 O 0.70434 0.21521 0.50858
 O806 O 0.75315 0.26259 0.46805
 C807 C 0.71497 0.16623 0.51137
 C808 C 0.69820 0.22585 0.55979
 C809 C 0.65703 0.21304 0.49131
 C810 C 0.74123 0.31065 0.46287
 C811 C 0.79925 0.26740 0.48466
 C812 C 0.76274 0.25318 0.41928
 H813 H 0.77716 0.23649 0.51461
 H814 H 0.73238 0.22105 0.43549
 H815 H 0.69349 0.20492 0.51784
 H816 H 0.70838 0.28966 0.48888
 H817 H 0.72863 0.29120 0.54078
 H818 H 0.69105 0.29216 0.52568
 H819 H 0.76300 0.19561 0.43684
 H820 H 0.73328 0.17327 0.45425
 H821 H 0.77436 0.26469 0.54278
 H822 H 0.75451 0.23514 0.56139
 H823 H 0.70653 0.24206 0.41263
 H824 H 0.67954 0.21540 0.43638
 H825 H 0.76954 0.18256 0.51770
 H826 H 0.79955 0.21067 0.49549
 H827 H 0.66196 0.26889 0.47918
 H828 H 0.68612 0.29288 0.45478
 O829 O 0.83628 0.73126 -0.04398
 O830 O 0.83160 0.68936 -0.03902
 O831 O 0.77481 0.75214 -0.08378
 O832 O 0.73566 0.74793 -0.07944
 O833 O 0.79628 0.79105 -0.02167
 O834 O 0.79348 0.78433 0.02119
 O835 O 0.71504 0.68881 -0.01471
 O836 O 0.72280 0.69126 -0.05695
 O837 O 0.77634 0.66600 0.01995
 O838 O 0.81820 0.67895 0.01875
 O839 O 0.74054 0.72346 0.04506
 O840 O 0.73845 0.76640 0.03266
 O841 O 0.71066 0.71900 0.01135
 O842 O 0.71453 0.76204 0.00593
 O843 O 0.77206 0.69894 0.04949
 O844 O 0.81399 0.70476 0.04283
 O845 O 0.74984 0.66096 -0.01078
 O846 O 0.75318 0.66711 -0.05514
 O847 O 0.83204 0.76161 -0.01796
 O848 O 0.82195 0.76046 0.02485
 O849 O 0.76967 0.78683 -0.05247
 O850 O 0.72889 0.77356 -0.05053
 O851 O 0.80505 0.72587 -0.07979
 O852 O 0.80711 0.68539 -0.06714
 Zr853 Zr 0.80376 0.71394 -0.04337
 O854 O 0.78472 0.69061 -0.02101
 Zr855 Zr 0.75883 0.75128 -0.04934
 O856 O 0.73754 0.72918 -0.02744
 Zr857 Zr 0.79785 0.75755 -0.00449
 O858 O 0.77825 0.73618 0.01950
 Zr859 Zr 0.74873 0.69392 -0.02929
 O860 O 0.76806 0.71554 -0.05378
 Zr861 Zr 0.78804 0.70079 0.01534
 O862 O 0.80956 0.72243 -0.00669
 Zr863 Zr 0.74257 0.73752 0.00935
 O864 O 0.76186 0.76141 -0.01281
 O865 O 0.79435 0.74925 -0.04095
 O866 O 0.75218 0.70219 0.00731
 C867 C 0.84389 0.74958 -0.03316
 C868 C 0.79265 0.74099 -0.09207
 C869 C 0.78426 0.79911 -0.04003
 C870 C 0.70327 0.70032 0.00096
 C871 C 0.76155 0.65361 0.00810
 C872 C 0.75341 0.70867 0.05739
 H873 H 0.79057 0.67439 -0.02324
 H874 H 0.78083 0.74137 0.03637
 H875 H 0.80374 0.75971 -0.05166
 H876 H 0.72093 0.73081 -0.03262
 H877 H 0.72919 0.69910 -0.07172
 H878 H 0.72245 0.73797 -0.07402
 H879 H 0.81068 0.71963 0.05120
 H880 H 0.83180 0.74603 0.02498
 H881 H 0.76801 0.65863 -0.05129
 H882 H 0.79188 0.68406 -0.07583
 H883 H 0.75146 0.76583 0.04474
 H884 H 0.77703 0.78985 0.01946
 H885 H 0.83855 0.69184 -0.02268
 H886 H 0.81739 0.66711 0.00584
 H887 H 0.72945 0.78305 -0.03564
 H888 H 0.70567 0.75854 -0.00914
 O889 O 0.99561 0.20507 0.21059
 O890 O 0.96092 0.22035 0.20244
 O891 O 1.04122 0.26608 0.19711
 O892 O 1.04882 0.30008 0.21431
 O893 O 1.05416 0.21642 0.25746
 O894 O 1.03781 0.21352 0.29761
 O895 O 0.97956 0.32496 0.26145
 O896 O 0.99137 0.32554 0.22090
 O897 O 0.93348 0.26936 0.27085
 O898 O 0.93413 0.22922 0.25889
 O899 O 0.98765 0.27765 0.32040
 O900 O 1.02880 0.26924 0.32216
 O901 O 0.99995 0.31380 0.29569
 O902 O 1.04117 0.29580 0.30023
 O903 O 0.95660 0.25557 0.30834
 O904 O 0.95355 0.21664 0.29158
 O905 O 0.94473 0.30178 0.24890
 O906 O 0.96194 0.30454 0.20718
 O907 O 1.01542 0.19314 0.24500
 O908 O 1.00800 0.19470 0.28789
 O909 O 1.06563 0.24855 0.23520
 O910 O 1.06332 0.29054 0.24975
 O911 O 1.01023 0.24377 0.18539
 O912 O 0.96840 0.25457 0.18636
 Zr913 Zr 0.98876 0.24093 0.21607
 O914 O 0.96555 0.26130 0.23641
 Zr915 Zr 1.03561 0.27088 0.23438
 O916 O 1.01413 0.29341 0.25481
 Zr917 Zr 1.01871 0.22358 0.26574
 O918 O 0.99719 0.24390 0.28814
 Zr919 Zr 0.97994 0.29503 0.24005
 O920 O 1.00224 0.27531 0.21763
 Zr921 Zr 0.96363 0.24764 0.27211
 O922 O 0.98440 0.22519 0.25090
 Zr923 Zr 1.00991 0.27851 0.28991
 O924 O 1.03345 0.25710 0.27020
 O925 O 1.02245 0.23708 0.23052
 O926 O 0.97609 0.28186 0.27547
 C927 C 1.00582 0.18931 0.22418
 C928 C 1.02949 0.25469 0.18118
 C929 C 1.06948 0.22802 0.24507
 C930 C 0.98794 0.32883 0.28274
 C931 C 0.92955 0.28987 0.26106
 C932 C 0.96772 0.26771 0.32406
 H933 H 0.94986 0.26173 0.22853
 H934 H 0.99660 0.23632 0.30451
 H935 H 1.03215 0.22699 0.22013
 H936 H 1.02112 0.30929 0.25530
 H937 H 1.00169 0.32007 0.20779
 H938 H 1.03935 0.31398 0.21861
 H939 H 0.96541 0.21329 0.30451
 H940 H 0.99193 0.19068 0.28244
 H941 H 0.94823 0.29410 0.20539
 H942 H 0.97561 0.26965 0.18109
 H943 H 1.02617 0.25227 0.32549
 H944 H 1.04839 0.22678 0.30130
 H945 H 0.94651 0.22526 0.21081
 H946 H 0.94022 0.21570 0.24976
 H947 H 1.06921 0.28149 0.26423
 H948 H 1.04281 0.30999 0.28958
 O949 O 0.79191 1.07483 0.72559
 O950 O 0.83090 1.06119 0.72558
 O951 O 0.75195 1.01488 0.70604
 O952 O 0.74745 0.97799 0.71886
 O953 O 0.73036 1.05540 0.76756
 O954 O 0.74196 1.06192 0.80494
 O955 O 0.81128 0.95266 0.77665
 O956 O 0.80628 0.95466 0.73489
 O957 O 0.85219 1.01254 0.79364
 O958 O 0.84856 1.05347 0.78889
 O959 O 0.79290 0.99271 0.83445
 O960 O 0.75312 1.00207 0.83116
 O961 O 0.78551 0.95935 0.80704
 O962 O 0.74398 0.97396 0.80553
 O963 O 0.82426 1.01661 0.82845
 O964 O 0.82316 1.06080 0.81339
 O965 O 0.84624 0.97981 0.77130
 O966 O 0.83450 0.97945 0.72662
 O967 O 0.76717 1.08274 0.75656
 O968 O 0.77542 1.07807 0.80228
 O969 O 0.72365 1.02442 0.74292
 O970 O 0.72878 0.98121 0.75240
 O971 O 0.78358 1.03813 0.69862
 O972 O 0.82591 1.03049 0.70552
 Zr973 Zr 0.80152 1.03959 0.73247
 O974 O 0.82348 1.01951 0.75614
 Zr975 Zr 0.75561 1.00530 0.74301
 O976 O 0.77618 0.98252 0.76543
 Zr977 Zr 0.76566 1.05132 0.77796
 O978 O 0.78486 1.03002 0.80322
 Zr979 Zr 0.81194 0.98448 0.75651
 O980 O 0.79079 1.00423 0.73123
 Zr981 Zr 0.81995 1.03014 0.79238
 O982 O 0.80105 1.05295 0.76801
 Zr983 Zr 0.77464 0.99458 0.80121
 O984 O 0.75258 1.01653 0.77907
 O985 O 0.76643 1.04014 0.74226
 O986 O 0.81007 0.99489 0.79248
 C987 C 0.77805 1.08851 0.73689
 C988 C 0.76452 1.02791 0.69198
 C989 C 0.71710 1.04319 0.75375
 C990 C 0.79984 0.94616 0.79563
 C991 C 0.85892 0.99291 0.78501
 C992 C 0.81224 1.00198 0.84143
 H993 H 0.83985 1.02103 0.75065
 H994 H 0.78298 1.03580 0.81993
 H995 H 0.75647 1.05003 0.73117
 H996 H 0.77037 0.96622 0.76397
 H997 H 0.79681 0.96013 0.72060
 H998 H 0.75802 0.96462 0.72319
 H999 H 0.81417 1.05834 0.82852
 H1000 H 0.78902 1.08636 0.79512
 H1001 H 0.84767 0.99064 0.72784
 H1002 H 0.82092 1.01513 0.69911
 H1003 H 0.74003 1.01202 0.82471
 H1004 H 0.74408 1.05078 0.81892
 H1005 H 0.83329 1.07068 0.74028
 H1006 H 0.85393 1.05263 0.77188
 H1007 H 0.72066 0.98758 0.76668
 H1008 H 0.74456 0.96095 0.79388
 O1009 O 0.74435 0.56110 0.20155
 O1010 O 0.78179 0.54364 0.19914
 O1011 O 0.69828 0.50335 0.18569
 O1012 O 0.68847 0.46900 0.20154
 O1013 O 0.68494 0.54974 0.24662
 O1014 O 0.70094 0.55135 0.28669
 O1015 O 0.75573 0.43857 0.25398
 O1016 O 0.74454 0.44012 0.21276
 O1017 O 0.80272 0.49182 0.26589
 O1018 O 0.80364 0.53414 0.25825
 O1019 O 0.74489 0.48330 0.31239
 O1020 O 0.70429 0.49273 0.31039
 O1021 O 0.73419 0.44874 0.28669
 O1022 O 0.69271 0.46764 0.28723
 O1023 O 0.77831 0.50288 0.30277
 O1024 O 0.78340 0.54433 0.28580
 O1025 O 0.79131 0.46087 0.24310
 O1026 O 0.77527 0.46078 0.20060
 O1027 O 0.72305 0.57238 0.23411
 O1028 O 0.73245 0.56877 0.27775
 O1029 O 0.67309 0.51926 0.22339
 O1030 O 0.67368 0.47615 0.23629
 O1031 O 0.73146 0.52327 0.17556
 O1032 O 0.77267 0.51431 0.17956
 Zr1033 Zr 0.75098 0.52505 0.20825
 O1034 O 0.77232 0.50264 0.23013
 Zr1035 Zr 0.70236 0.49607 0.22313
 O1036 O 0.72194 0.47149 0.24467
 Zr1037 Zr 0.71995 0.54132 0.25578
 O1038 O 0.73925 0.51869 0.27971
 Zr1039 Zr 0.75664 0.46934 0.23243
 O1040 O 0.73620 0.49113 0.20865
 Zr1041 Zr 0.77324 0.51430 0.26618
 O1042 O 0.75462 0.53881 0.24339
 Zr1043 Zr 0.72499 0.48453 0.28001
 O1044 O 0.70354 0.50822 0.25898
 O1045 O 0.71689 0.52948 0.22035
 O1046 O 0.75931 0.48052 0.26821
 C1047 C 0.73315 0.57655 0.21361
 C1048 C 0.71170 0.51369 0.17026
 C1049 C 0.66958 0.53915 0.23364
 C1050 C 0.74656 0.43402 0.27475
 C1051 C 0.80643 0.47180 0.25608
 C1052 C 0.76539 0.49106 0.31764
 H1053 H 0.78817 0.50198 0.22311
 H1054 H 0.73943 0.52537 0.29616
 H1055 H 0.70760 0.54004 0.20928
 H1056 H 0.71438 0.45585 0.24451
 H1057 H 0.73520 0.44657 0.19878
 H1058 H 0.69750 0.45450 0.20570
 H1059 H 0.77221 0.54628 0.29924
 H1060 H 0.74829 0.57281 0.27183
 H1061 H 0.78937 0.47081 0.19964
 H1062 H 0.76706 0.49862 0.17466
 H1063 H 0.70823 0.50898 0.31500
 H1064 H 0.69025 0.53814 0.29063
 H1065 H 0.78636 0.55252 0.21374
 H1066 H 0.80891 0.52976 0.24188
 H1067 H 0.66743 0.48444 0.25050
 H1068 H 0.69209 0.45307 0.27771
 O1069 O 0.56856 0.21538 0.74459
 O1070 O 0.56380 0.21022 0.78832
 O1071 O 0.50792 0.18218 0.71608
 O1072 O 0.46904 0.18679 0.71719
 O1073 O 0.53051 0.25099 0.68905
 O1074 O 0.52518 0.29004 0.70387
 O1075 O 0.44501 0.23054 0.78764
 O1076 O 0.45641 0.19177 0.78004
 O1077 O 0.50024 0.26438 0.82046
 O1078 O 0.54087 0.26095 0.81691
 O1079 O 0.47056 0.29801 0.76699
 O1080 O 0.46965 0.29657 0.72168
 O1081 O 0.44124 0.26332 0.76311
 O1082 O 0.44687 0.27001 0.71930
 O1083 O 0.50303 0.29761 0.79154
 O1084 O 0.54648 0.28744 0.78820
 O1085 O 0.47560 0.23314 0.81857
 O1086 O 0.48629 0.19064 0.80664
 O1087 O 0.56473 0.24883 0.72110
 O1088 O 0.55290 0.28836 0.72926
 O1089 O 0.50519 0.22031 0.68609
 O1090 O 0.46312 0.21966 0.69783
 O1091 O 0.53787 0.17984 0.74386
 O1092 O 0.53948 0.18314 0.78731
 Zr1093 Zr 0.53602 0.21198 0.76242
 O1094 O 0.51550 0.22744 0.78972
 Zr1095 Zr 0.49230 0.21528 0.72177
 O1096 O 0.46985 0.23044 0.74729
 Zr1097 Zr 0.52999 0.25938 0.72608
 O1098 O 0.50914 0.27674 0.75132
 Zr1099 Zr 0.47996 0.22025 0.78303
 O1100 O 0.50062 0.20250 0.75728
 Zr1101 Zr 0.51760 0.26424 0.78673
 O1102 O 0.54074 0.24881 0.76166
 Zr1103 Zr 0.47385 0.26734 0.74606
 O1104 O 0.49451 0.25225 0.71860
 O1105 O 0.52748 0.22279 0.72701
 O1106 O 0.48227 0.25681 0.78149
 C1107 C 0.57644 0.23103 0.72941
 C1108 C 0.52535 0.17135 0.72650
 C1109 C 0.51991 0.23509 0.67693
 C1110 C 0.43322 0.24795 0.77842
 C1111 C 0.48397 0.25123 0.82932
 C1112 C 0.48415 0.30717 0.78309
 H1113 H 0.52066 0.22185 0.80613
 H1114 H 0.51178 0.29387 0.74916
 H1115 H 0.53737 0.21493 0.71491
 H1116 H 0.45358 0.22562 0.74362
 H1117 H 0.46432 0.17971 0.77024
 H1118 H 0.45738 0.18764 0.73031
 H1119 H 0.54296 0.30085 0.77686
 H1120 H 0.56287 0.28521 0.74388
 H1121 H 0.49561 0.19574 0.82087
 H1122 H 0.52409 0.17516 0.78746
 H1123 H 0.48299 0.30731 0.72436
 H1124 H 0.50931 0.28898 0.69646
 H1125 H 0.57208 0.22549 0.78726
 H1126 H 0.55193 0.24810 0.81324
 H1127 H 0.46444 0.23553 0.69009
 H1128 H 0.43900 0.25455 0.71874
 O1129 O 0.27519 0.80260 0.48196
 O1130 O 0.27733 0.80113 0.52527
 O1131 O 0.30587 0.73371 0.46635
 O1132 O 0.29691 0.69615 0.47235
 O1133 O 0.24460 0.76125 0.42785
 O1134 O 0.20338 0.76056 0.43796
 O1135 O 0.24364 0.68713 0.54214
 O1136 O 0.28405 0.69157 0.53479
 O1137 O 0.21863 0.75324 0.56166
 O1138 O 0.22179 0.79388 0.54316
 O1139 O 0.18278 0.71589 0.50913
 O1140 O 0.18701 0.70838 0.46732
 O1141 O 0.21445 0.68283 0.51402
 O1142 O 0.21357 0.68482 0.46778
 O1143 O 0.18548 0.74926 0.53107
 O1144 O 0.19496 0.79006 0.51966
 O1145 O 0.24596 0.72416 0.56682
 O1146 O 0.28765 0.72339 0.55648
 O1147 O 0.24528 0.79878 0.45451
 O1148 O 0.20431 0.79115 0.45917
 O1149 O 0.27146 0.73166 0.43280
 O1150 O 0.26536 0.69151 0.45102
 O1151 O 0.30811 0.76771 0.48742
 O1152 O 0.30199 0.77457 0.52952
 Zr1153 Zr 0.27488 0.77119 0.50324
 O1154 O 0.25506 0.75611 0.53153
 Zr1155 Zr 0.27093 0.72292 0.47031
 O1156 O 0.25121 0.70558 0.49747
 Zr1157 Zr 0.23126 0.76553 0.46304
 O1158 O 0.20954 0.75004 0.48960
 Zr1159 Zr 0.25913 0.71928 0.53177
 O1160 O 0.28114 0.73454 0.50507
 Zr1161 Zr 0.21927 0.76189 0.52423
 O1162 O 0.23921 0.77956 0.49733
 Zr1163 Zr 0.21545 0.71347 0.49170
 O1164 O 0.23503 0.72867 0.46275
 O1165 O 0.26692 0.75937 0.46869
 O1166 O 0.22329 0.72532 0.52645
 C1167 C 0.26209 0.81036 0.46423
 C1168 C 0.31706 0.75164 0.47420
 C1169 C 0.26041 0.74731 0.41976
 C1170 C 0.22665 0.67564 0.53264
 C1171 C 0.23017 0.73811 0.57484
 C1172 C 0.17440 0.73114 0.52371
 H1173 H 0.25995 0.76296 0.54715
 H1174 H 0.19298 0.75382 0.48555
 H1175 H 0.27692 0.76724 0.45639
 H1176 H 0.25448 0.68847 0.49716
 H1177 H 0.29759 0.69635 0.52471
 H1178 H 0.29290 0.68542 0.48611
 H1179 H 0.18418 0.78620 0.50610
 H1180 H 0.20589 0.80158 0.47328
 H1181 H 0.28653 0.73919 0.56358
 H1182 H 0.30875 0.75861 0.53229
 H1183 H 0.18136 0.72416 0.46187
 H1184 H 0.20450 0.74405 0.43264
 H1185 H 0.26175 0.80891 0.52452
 H1186 H 0.23552 0.79269 0.55433
 H1187 H 0.25109 0.69397 0.44078
 H1188 H 0.22646 0.67374 0.47225
 O1189 O 0.29960 0.27904 0.96184
 O1190 O 0.29812 0.23718 0.96515
 O1191 O 0.23851 0.29749 0.91981
 O1192 O 0.20029 0.29266 0.92121
 O1193 O 0.25569 0.33354 0.98489
 O1194 O 0.24931 0.32486 1.02742
 O1195 O 0.17931 0.22742 0.97851
 O1196 O 0.19069 0.23324 0.93767
 O1197 O 0.23723 0.20561 1.01854
 O1198 O 0.27632 0.21792 1.02373
 O1199 O 0.19671 0.26179 1.04346
 O1200 O 0.19211 0.30220 1.03371
 O1201 O 0.17128 0.25490 1.00674
 O1202 O 0.17346 0.30039 1.00196
 O1203 O 0.22825 0.23760 1.04967
 O1204 O 0.27249 0.24655 1.04549
 O1205 O 0.21479 0.20167 0.98435
 O1206 O 0.22221 0.21065 0.94119
 O1207 O 0.29216 0.30561 0.99119
 O1208 O 0.27805 0.30173 1.03284
 O1209 O 0.23083 0.32996 0.95245
 O1210 O 0.19009 0.31446 0.95170
 O1211 O 0.27002 0.27275 0.92389
 O1212 O 0.27504 0.23134 0.93616
 Zr1213 Zr 0.26830 0.25914 0.96010
 O1214 O 0.24887 0.23362 0.97974
 Zr1215 Zr 0.22141 0.29416 0.95309
 O1216 O 0.19984 0.26959 0.97115
 Zr1217 Zr 0.25694 0.29948 1.00105
 O1218 O 0.23617 0.27603 1.02192
 Zr1219 Zr 0.21367 0.23545 0.96806
 O1220 O 0.23341 0.25955 0.94687
 Zr1221 Zr 0.24780 0.24128 1.01706
 O1222 O 0.27028 0.26499 0.99792
 Zr1223 Zr 0.20142 0.27624 1.00852
 O1224 O 0.22142 0.30236 0.99017
 O1225 O 0.25649 0.29344 0.96393
 O1226 O 0.21297 0.24160 1.00535
 C1227 C 0.30562 0.29630 0.97536
 C1228 C 0.25687 0.28743 0.91162
 C1229 C 0.24467 0.34191 0.96595
 C1230 C 0.16593 0.23672 0.99427
 C1231 C 0.22441 0.19349 1.00404
 C1232 C 0.20877 0.24696 1.05640
 H1233 H 0.25580 0.21786 0.97730
 H1234 H 0.23698 0.28050 1.03919
 H1235 H 0.26603 0.30475 0.95435
 H1236 H 0.18364 0.27058 0.96454
 H1237 H 0.19799 0.24230 0.92414
 H1238 H 0.18818 0.28055 0.92418
 H1239 H 0.26572 0.25816 1.05662
 H1240 H 0.28879 0.28796 1.03298
 H1241 H 0.23685 0.20240 0.94628
 H1242 H 0.26113 0.23025 0.92529
 H1243 H 0.20644 0.30594 1.04313
 H1244 H 0.23326 0.33076 1.02367
 H1245 H 0.30350 0.23913 0.98219
 H1246 H 0.28259 0.21375 1.00769
 H1247 H 0.19029 0.32470 0.96604
 H1248 H 0.16333 0.29411 0.98891
 C1249 C 0.28577 0.33142 0.75884
 C1250 C 0.27047 0.34650 0.76833
 C1251 C 0.26469 0.36882 0.75536
 C1252 C 0.25025 0.38456 0.76503
 H1253 H 0.26364 0.34360 0.78643
 H1254 H 0.27356 0.37307 0.73847
 H1255 H 0.29261 0.33555 0.74089
 H1256 H 0.24120 0.38009 0.78175
 C1257 C 0.30811 -0.13844 0.29460
 C1258 C 0.28756 -0.12704 0.29223
 C1259 C 0.28570 -0.10254 0.28269
 C1260 C 0.26447 -0.09258 0.28119
 H1261 H 0.27149 -0.13557 0.29768
 H1262 H 0.30132 -0.09230 0.27909
 H1263 H 0.32344 -0.13010 0.28676
 H1264 H 0.24931 -0.10328 0.28562
 C1265 C 0.83514 0.86719 0.79444
 C1266 C 0.81954 0.88215 0.80383
 C1267 C 0.81762 0.90663 0.79465
 C1268 C 0.80298 0.92184 0.80494
 H1269 H 0.80833 0.87700 0.81869
 H1270 H 0.82809 0.91216 0.77922
 H1271 H 0.84675 0.87413 0.78051
 H1272 H 0.79271 0.91619 0.82048
 C1273 C 0.45577 0.89320 0.31880
 C1274 C 0.45512 0.88594 0.29564
 C1275 C 0.47000 0.86585 0.28813
 C1276 C 0.46815 0.85648 0.26593
 H1277 H 0.44334 0.89416 0.28235
 H1278 H 0.48143 0.85745 0.30172
 H1279 H 0.46833 0.88471 0.33120
 H1280 H 0.45593 0.86424 0.25271
 C1281 C -0.00203 0.88754 0.80347
 C1282 C -0.00032 0.88163 0.78027
 C1283 C 0.01323 0.86054 0.77453
 C1284 C 0.01032 0.85009 0.75331
 H1285 H -0.00993 0.89119 0.76600
 H1286 H 0.02315 0.85170 0.78910
 H1287 H 0.00829 0.87783 0.81715
 H1288 H -0.00039 0.85849 0.73910
 C1289 C -0.03523 -0.12928 -0.05990
 C1290 C -0.03833 -0.11781 -0.03904
 C1291 C -0.02471 -0.09653 -0.03338
 C1292 C -0.02867 -0.08490 -0.01289
 H1293 H -0.05097 -0.12360 -0.02576
 H1294 H -0.01187 -0.09004 -0.04626
 H1295 H -0.02193 -0.12251 -0.07215
 H1296 H -0.04186 -0.09139 -0.00040
 C1297 C -0.08765 0.36556 0.45741
 C1298 C -0.07305 0.38329 0.45185
 C1299 C -0.07220 0.40536 0.46560
 C1300 C -0.05667 0.42176 0.45893
 H1301 H -0.06143 0.38220 0.43657
 H1302 H -0.08358 0.40797 0.48096
 H1303 H -0.09974 0.36817 0.47222
 H1304 H -0.04538 0.41831 0.44363
 C1305 C 0.46680 -0.16244 0.47243
 C1306 C 0.46371 -0.15302 0.49435
 C1307 C 0.47658 -0.13182 0.50166
 C1308 C 0.47085 -0.12108 0.52217
 H1309 H 0.45087 -0.15996 0.50685
 H1310 H 0.48891 -0.12373 0.48918
 H1311 H 0.48109 -0.15569 0.46147
 H1312 H 0.45786 -0.12904 0.53400
 C1313 C 0.43649 0.37705 -0.05911
 C1314 C 0.45486 0.39080 -0.06526
 C1315 C 0.45936 0.41420 -0.05438
 C1316 C 0.47723 0.42739 -0.06263
 H1317 H 0.46706 0.38533 -0.07889
 H1318 H 0.44831 0.42050 -0.03999
 H1319 H 0.42447 0.38391 -0.04583
 H1320 H 0.48766 0.42059 -0.07731
 C1321 C 0.76355 0.39385 0.46808
 C1322 C 0.75621 0.37568 0.45512
 C1323 C 0.75216 0.35245 0.46673
 C1324 C 0.74499 0.33464 0.45320
 H1325 H 0.75459 0.37741 0.43548
 H1326 H 0.75537 0.34981 0.48611
 H1327 H 0.76622 0.39136 0.48757
 H1328 H 0.74135 0.33782 0.43395
 C1329 C 0.82402 0.87565 -0.03475
 C1330 C 0.80758 0.86247 -0.04566
 C1331 C 0.80355 0.83789 -0.03713
 C1332 C 0.78778 0.82397 -0.04791
 H1333 H 0.79718 0.86919 -0.06089
 H1334 H 0.81398 0.83099 -0.02190
 H1335 H 0.83366 0.86740 -0.01961
 H1336 H 0.77749 0.83083 -0.06325
 C1337 C 0.77435 0.29331 0.34017
 C1338 C 0.78216 0.27888 0.35809
 C1339 C 0.76707 0.27239 0.37874
 C1340 C 0.77542 0.25831 0.39665
 H1341 H 0.80023 0.27296 0.35863
 H1342 H 0.74960 0.27992 0.37982
 H1343 H 0.75635 0.29955 0.34080
 H1344 H 0.79289 0.25085 0.39515
 C1345 C 0.81092 0.79825 -0.15538
 C1346 C 0.81027 0.77543 -0.14881
 C1347 C 0.79672 0.76776 -0.12743
 C1348 C 0.80081 0.74673 -0.11677
 H1349 H 0.82078 0.76254 -0.15800
 H1350 H 0.78539 0.78038 -0.11873
 H1351 H 0.79967 0.81041 -0.14593
 H1352 H 0.81322 0.73476 -0.12484
 C1353 C 0.30397 0.46102 0.87985
 C1354 C 0.28390 0.45485 0.86862
 C1355 C 0.27878 0.46287 0.84327
 C1356 C 0.25942 0.45608 0.83120
 H1357 H 0.27120 0.44375 0.87767
 H1358 H 0.29141 0.47412 0.83415
 H1359 H 0.31577 0.47261 0.86998
 H1360 H 0.24692 0.44468 0.84030
 C1361 C 0.28388 -0.03778 0.41715
 C1362 C 0.26530 -0.04465 0.40397
 C1363 C 0.25753 -0.02981 0.38304
 C1364 C 0.24385 -0.03827 0.36541
 H1365 H 0.25741 -0.06177 0.40658
 H1366 H 0.26538 -0.01255 0.38065
 H1367 H 0.29110 -0.02055 0.41268
 H1368 H 0.23617 -0.05562 0.36759
 C1369 C -0.01696 -0.05717 -0.13321
 C1370 C -0.02645 -0.03927 -0.12132
 C1371 C -0.01619 -0.03318 -0.09766
 C1372 C -0.02264 -0.01401 -0.08587
 H1373 H -0.04108 -0.02904 -0.12863
 H1374 H -0.00293 -0.04488 -0.08965
 H1375 H -0.00161 -0.06564 -0.12486
 H1376 H -0.03581 -0.00216 -0.09377
 C1377 C -0.04790 0.46230 0.35096
 C1378 C -0.05236 0.48254 0.36197
 C1379 C -0.04372 0.48626 0.38688
 C1380 C -0.05211 0.50401 0.39972
 H1381 H -0.06347 0.49593 0.35339
 H1382 H -0.03198 0.47332 0.39541
 H1383 H -0.03607 0.44969 0.35990
 H1384 H -0.06441 0.51642 0.39121
 C1385 C 0.43829 -0.05331 0.38852
 C1386 C 0.45551 -0.06137 0.40360
 C1387 C 0.45960 -0.05093 0.42785
 C1388 C 0.47682 -0.05889 0.44290
 H1389 H 0.46658 -0.07591 0.39855
 H1390 H 0.44827 -0.03671 0.43347
 H1391 H 0.42741 -0.03897 0.39477
 H1392 H 0.48802 -0.07314 0.43708
 C1393 C 0.45954 0.44800 -0.15800
 C1394 C 0.45952 0.47125 -0.15453
 C1395 C 0.47575 0.48107 -0.13658
 C1396 C 0.47175 0.50208 -0.12690
 H1397 H 0.44665 0.48277 -0.16333
 H1398 H 0.48935 0.46958 -0.12888
 H1399 H 0.47315 0.43725 -0.14919
 H1400 H 0.45756 0.51317 -0.13398
 C1401 C 0.45040 0.78381 0.40458
 C1402 C 0.46359 0.79495 0.38808
 C1403 C 0.46732 0.78492 0.36397
 C1404 C 0.48083 0.79604 0.34778
 H1405 H 0.47103 0.81202 0.39186
 H1406 H 0.45897 0.76843 0.35946
 H1407 H 0.44226 0.76728 0.39981
 H1408 H 0.48942 0.81228 0.35272
 C1409 C -0.04861 0.80863 0.87914
 C1410 C -0.02747 0.80908 0.86898
 C1411 C -0.02263 0.79578 0.84683
 C1412 C -0.00145 0.79686 0.83685
 H1413 H -0.01327 0.81865 0.87742
 H1414 H -0.03632 0.78525 0.83867
 H1415 H -0.06219 0.79802 0.87087
 H1416 H 0.01180 0.80793 0.84503
 C1417 C 0.35836 0.79202 0.31204
 C1418 C 0.36971 0.79256 0.29095
 C1419 C 0.39299 0.78173 0.28847
 C1420 C 0.40450 0.78492 0.26768
 H1421 H 0.36202 0.80185 0.27529
 H1422 H 0.40126 0.77266 0.30395
 H1423 H 0.36540 0.78166 0.32732
 H1424 H 0.39607 0.79464 0.25269
 C1425 C -0.11579 0.79487 0.79519
 C1426 C -0.10191 0.80079 0.77653
 C1427 C -0.07972 0.78796 0.77305
 C1428 C -0.06487 0.79386 0.75524
 H1429 H -0.10649 0.81515 0.76402
 H1430 H -0.07512 0.77385 0.78593
 H1431 H -0.11083 0.77977 0.80665
 H1432 H -0.06943 0.80800 0.74239
 C1433 C 0.87014 0.29113 0.44158
 C1434 C 0.85802 0.29007 0.46225
 C1435 C 0.83684 0.27544 0.46444
 C1436 C 0.82254 0.27826 0.48321
 H1437 H 0.86317 0.30063 0.47755
 H1438 H 0.83201 0.26377 0.44986
 H1439 H 0.86510 0.27969 0.42689
 H1440 H 0.82703 0.29097 0.49692
 C1441 C 0.90210 0.81104 -0.04692
 C1442 C 0.89638 0.78822 -0.04708
 C1443 C 0.87482 0.77955 -0.03564
 C1444 C 0.86737 0.75773 -0.03993
 H1445 H 0.90706 0.77585 -0.05688
 H1446 H 0.86406 0.79161 -0.02553
 H1447 H 0.89195 0.82307 -0.03613
 H1448 H 0.87792 0.74621 -0.05092
 C1449 C -0.12399 -0.05771 -0.01941
 C1450 C -0.11602 -0.03552 -0.02116
 C1451 C -0.09388 -0.02899 -0.00897
 C1452 C -0.08341 -0.00841 -0.01404
 H1453 H -0.12491 -0.02227 -0.03237
 H1454 H -0.08508 -0.04202 0.00274
 H1455 H -0.11448 -0.07010 -0.00755
 H1456 H -0.09181 0.00414 -0.02659
 C1457 C -0.17953 0.45696 0.46819
 C1458 C -0.16578 0.47385 0.45885
 C1459 C -0.14340 0.47912 0.47103
 C1460 C -0.12870 0.49497 0.46163
 H1461 H -0.16981 0.48285 0.44175
 H1462 H -0.13852 0.46924 0.48749
 H1463 H -0.17390 0.44872 0.48536
 H1464 H -0.13376 0.50519 0.44544
 C1465 C 0.35440 -0.04609 0.46771
 C1466 C 0.36591 -0.05343 0.48782
 C1467 C 0.38946 -0.04476 0.49353
 C1468 C 0.40137 -0.05391 0.51258
 H1469 H 0.35813 -0.06613 0.50027
 H1470 H 0.39721 -0.03129 0.48189
 H1471 H 0.36214 -0.03250 0.45619
 H1472 H 0.39339 -0.06748 0.52394
 C1473 C 0.36286 0.46228 -0.05219
 C1474 C 0.37602 0.48005 -0.06079
 C1475 C 0.39904 0.48509 -0.04942
 C1476 C 0.41147 0.50381 -0.05666
 H1477 H 0.37035 0.49088 -0.07624
 H1478 H 0.40623 0.47291 -0.03572
 H1479 H 0.36931 0.45304 -0.03587
 H1480 H 0.40402 0.51588 -0.07032
 C1481 C 0.37937 0.44390 0.80443
 C1482 C 0.36659 0.43802 0.78504
 C1483 C 0.34390 0.44915 0.77944
 C1484 C 0.33106 0.44122 0.76098
 H1485 H 0.37306 0.42501 0.77264
 H1486 H 0.33771 0.46356 0.79032
 H1487 H 0.37331 0.45793 0.81590
 H1488 H 0.33742 0.42645 0.75068
 C1489 C 0.38300 -0.05535 0.31574
 C1490 C 0.36793 -0.03868 0.32315
 C1491 C 0.34608 -0.03283 0.30914
 C1492 C 0.33062 -0.01684 0.31708
 H1493 H 0.37132 -0.02918 0.33961
 H1494 H 0.34244 -0.04200 0.29243
 H1495 H 0.37879 -0.06412 0.29892
 H1496 H 0.33432 -0.00807 0.33401
 C1497 C 0.09489 0.54148 0.71099
 C1498 C 0.11197 0.53258 0.69754
 C1499 C 0.13560 0.52777 0.70773
 C1500 C 0.15120 0.51654 0.69429
 H1501 H 0.10866 0.52906 0.67849
 H1502 H 0.13987 0.53240 0.72630
 H1503 H 0.09870 0.54606 0.72968
 H1504 H 0.14608 0.51107 0.67620
 C1505 C 0.09175 0.04819 0.23383
 C1506 C 0.11035 0.04111 0.22131
 C1507 C 0.13279 0.03597 0.23381
 C1508 C 0.15138 0.02873 0.22143
 H1509 H 0.10954 0.04032 0.20163
 H1510 H 0.13416 0.03832 0.25332
 H1511 H 0.09346 0.04999 0.25339
 H1512 H 0.14972 0.02572 0.20206
 C1513 C 0.63615 0.71854 0.18347
 C1514 C 0.62909 0.72038 0.20640
 C1515 C 0.60701 0.73251 0.21160
 C1516 C 0.59773 0.73084 0.23371
 H1517 H 0.63906 0.71233 0.22133
 H1518 H 0.59741 0.74134 0.19680
 H1519 H 0.62619 0.72754 0.16904
 H1520 H 0.60702 0.72116 0.24816
 C1521 C 0.17817 0.71407 0.72156
 C1522 C 0.16040 0.70432 0.73376
 C1523 C 0.13831 0.71730 0.73677
 C1524 C 0.12055 0.70741 0.74877
 H1525 H 0.16094 0.68599 0.73960
 H1526 H 0.13607 0.73444 0.72786
 H1527 H 0.17647 0.73233 0.71541
 H1528 H 0.12311 0.69061 0.75829
 C1529 C 0.58431 0.20591 0.53508
 C1530 C 0.59601 0.20046 0.51495
 C1531 C 0.61768 0.21294 0.50875
 C1532 C 0.63305 0.20381 0.49328
 H1533 H 0.59093 0.18572 0.50400
 H1534 H 0.62222 0.22845 0.51892
 H1535 H 0.58970 0.22129 0.54505
 H1536 H 0.62869 0.18793 0.48364
 C1537 C 0.63100 0.70163 0.04900
 C1538 C 0.64358 0.69096 0.03190
 C1539 C 0.66632 0.70113 0.02422
 C1540 C 0.67989 0.69100 0.00761
 H1541 H 0.63778 0.67464 0.02411
 H1542 H 0.67229 0.71707 0.03280
 H1543 H 0.63806 0.71772 0.05637
 H1544 H 0.67395 0.67503 -0.00093
 C1545 C 0.15873 0.06043 0.03946
 C1546 C 0.14866 0.03911 0.04125
 C1547 C 0.12659 0.03407 0.02806
 C1548 C 0.11506 0.01398 0.03258
 H1549 H 0.15568 0.02541 0.05328
 H1550 H 0.11859 0.04778 0.01658
 H1551 H 0.15140 0.07283 0.02602
 H1552 H 0.12284 0.00081 0.04489
 C1553 C 0.11123 0.55854 0.53587
 C1554 C 0.09692 0.54091 0.54206
 C1555 C 0.07251 0.54064 0.53333
 C1556 C 0.05813 0.52375 0.54122
 H1557 H 0.10294 0.52628 0.55346
 H1558 H 0.06636 0.55415 0.52045
 H1559 H 0.10457 0.57246 0.52374
 H1560 H 0.06455 0.51046 0.55423
 C1561 C 0.63881 0.04384 0.56633
 C1562 C 0.62543 0.02574 0.57385
 C1563 C 0.60231 0.02092 0.56237
 C1564 C 0.58913 0.00339 0.57128
 H1565 H 0.63087 0.01442 0.58898
 H1566 H 0.59588 0.03196 0.54732
 H1567 H 0.63217 0.05441 0.55098
 H1568 H 0.59596 -0.00715 0.58655
 C1569 C 0.66252 0.51612 0.01831
 C1570 C 0.64755 0.52859 0.00415
 C1571 C 0.62325 0.52101 -0.00004
 C1572 C 0.60915 0.53444 -0.01419
 H1573 H 0.65259 0.54564 -0.00326
 H1574 H 0.61672 0.50523 0.00902
 H1575 H 0.65668 0.49968 0.02662
 H1576 H 0.61625 0.54999 -0.02325
 C1577 C 0.03442 0.05224 0.16391
 C1578 C 0.04513 0.03691 0.14949
 C1579 C 0.03673 0.03393 0.12433
 C1580 C 0.04706 0.01860 0.10979
 H1581 H 0.06050 0.02705 0.15541
 H1582 H 0.02212 0.04462 0.11754
 H1583 H 0.01907 0.06140 0.15642
 H1584 H 0.06131 0.00757 0.11684
 C1585 C 0.03042 0.52877 0.64996
 C1586 C 0.00822 0.52996 0.64163
 C1587 C 0.00149 0.51919 0.61832
 C1588 C -0.01964 0.52339 0.60815
 H1589 H -0.00486 0.53985 0.65127
 H1590 H 0.01466 0.50973 0.60829
 H1591 H 0.04286 0.51802 0.64030
 H1592 H -0.03230 0.53383 0.61787
 C1593 C 0.56453 0.02463 0.67590
 C1594 C 0.54269 0.02743 0.66693
 C1595 C 0.53430 0.01158 0.64773
 C1596 C 0.51359 0.01493 0.63650
 H1597 H 0.53143 0.04168 0.67246
 H1598 H 0.54621 -0.00178 0.64121
 H1599 H 0.57434 0.00956 0.66954
 H1600 H 0.50199 0.02875 0.64256
 C1601 C 0.53789 0.56820 0.12204
 C1602 C 0.54359 0.54944 0.10894
 C1603 C 0.53428 0.54705 0.08394
 C1604 C 0.54115 0.52937 0.06995
 H1605 H 0.55515 0.53579 0.11625
 H1606 H 0.52213 0.56030 0.07671
 H1607 H 0.52582 0.58108 0.11391
 H1608 H 0.55366 0.51644 0.07714
 C1609 C 0.17620 0.53349 0.59280
 C1610 C 0.19852 0.52755 0.59757
 C1611 C 0.20416 0.51268 0.61924
 C1612 C 0.22619 0.50971 0.62723
 H1613 H 0.21251 0.53397 0.58607
 H1614 H 0.18985 0.50593 0.63017
 H1615 H 0.16271 0.52612 0.60444
 H1616 H 0.24043 0.51767 0.61711
 C1617 C 0.21038 0.05076 0.11240
 C1618 C 0.22205 0.05936 0.13152
 C1619 C 0.22524 0.04501 0.15411
 C1620 C 0.23681 0.05351 0.17330
 H1621 H 0.22824 0.07733 0.13130
 H1622 H 0.21730 0.02771 0.15536
 H1623 H 0.20406 0.03278 0.11386
 H1624 H 0.24483 0.07076 0.17179
 C1625 C 0.70531 0.19320 0.64300
 C1626 C 0.69210 0.20549 0.62663
 C1627 C 0.70102 0.20996 0.60183
 C1628 C 0.68887 0.22225 0.58463
 H1629 H 0.67488 0.21203 0.63104
 H1630 H 0.71808 0.20273 0.59752
 H1631 H 0.72256 0.18745 0.63741
 H1632 H 0.67195 0.22979 0.58887
 C1633 C 0.69557 0.70369 0.12166
 C1634 C 0.71737 0.69902 0.11460
 C1635 C 0.72496 0.70702 0.09034
 C1636 C 0.74626 0.70189 0.08218
 H1637 H 0.72970 0.68979 0.12664
 H1638 H 0.71265 0.71686 0.07874
 H1639 H 0.68409 0.71378 0.10935
 H1640 H 0.75832 0.69148 0.09351
 C1641 C 0.57359 0.71008 0.11498
 C1642 C 0.55256 0.70897 0.12558
 C1643 C 0.54755 0.72219 0.14791
 C1644 C 0.52724 0.71911 0.15949
 H1645 H 0.53874 0.69836 0.11792
 H1646 H 0.56073 0.73383 0.15528
 H1647 H 0.58673 0.72140 0.12298
 H1648 H 0.51466 0.70673 0.15229
 C1649 C 0.03744 0.70323 0.59636
 C1650 C 0.05192 0.70266 0.61563
 C1651 C 0.04334 0.70820 0.63994
 C1652 C 0.05844 0.71085 0.65834
 H1653 H 0.07011 0.69748 0.61366
 H1654 H 0.02475 0.71121 0.64259
 H1655 H 0.01905 0.70739 0.59891
 H1656 H 0.07713 0.70939 0.65518
 C1657 C 0.53274 0.61789 0.19430
 C1658 C 0.53982 0.62900 0.21434
 C1659 C 0.52735 0.65066 0.22154
 C1660 C 0.53453 0.66357 0.24029
 H1661 H 0.55522 0.62318 0.22456
 H1662 H 0.51275 0.65693 0.21026
 H1663 H 0.51738 0.62493 0.18470
 H1664 H 0.54932 0.65750 0.25139
 C1665 C 0.02828 0.59849 0.70479
 C1666 C 0.03360 0.60987 0.72523
 C1667 C 0.02725 0.63484 0.72785
 C1668 C 0.03639 0.64738 0.74596
 H1669 H 0.04402 0.60140 0.73956
 H1670 H 0.01657 0.64344 0.71374
 H1671 H 0.01695 0.60713 0.69126
 H1672 H 0.04739 0.63869 0.75975
 C1673 C 0.03750 0.15582 0.04611
 C1674 C 0.05136 0.13813 0.03942
 C1675 C 0.04162 0.11432 0.03676
 C1676 C 0.05456 0.09687 0.02806
 H1677 H 0.07000 0.14079 0.03713
 H1678 H 0.02356 0.11106 0.04175
 H1679 H 0.01907 0.15223 0.04909
 H1680 H 0.07221 0.10044 0.02188
 C1681 C 0.02068 0.65336 0.52572
 C1682 C 0.00506 0.64049 0.53815
 C1683 C -0.00423 0.61886 0.52791
 C1684 C -0.01708 0.60395 0.54132
 H1685 H 0.00129 0.64398 0.55698
 H1686 H 0.00127 0.61403 0.50985
 H1687 H 0.02496 0.64845 0.50732
 H1688 H -0.02326 0.60890 0.55907
 C1689 C 0.54495 0.12795 0.54491
 C1690 C 0.52603 0.11491 0.54928
 C1691 C 0.52559 0.08962 0.54423
 C1692 C 0.50789 0.07671 0.55264
 H1693 H 0.51063 0.12277 0.55718
 H1694 H 0.53993 0.08150 0.53466
 H1695 H 0.55979 0.12000 0.53599
 H1696 H 0.49413 0.08521 0.56279
 C1697 C 0.56025 0.64654 0.05355
 C1698 C 0.55965 0.63906 0.03054
 C1699 C 0.54561 0.61824 0.02351
 C1700 C 0.54610 0.61045 0.00067
 H1701 H 0.56965 0.64821 0.01664
 H1702 H 0.53587 0.60861 0.03730
 H1703 H 0.54926 0.63766 0.06683
 H1704 H 0.55664 0.61988 -0.01262
 C1705 C 0.70373 0.10021 0.56954
 C1706 C 0.69960 0.11083 0.54791
 C1707 C 0.71099 0.13327 0.54124
 C1708 C 0.70833 0.14214 0.51868
 H1709 H 0.68792 0.10315 0.53466
 H1710 H 0.72027 0.14309 0.55501
 H1711 H 0.71717 0.10775 0.58111
 H1712 H 0.69885 0.13200 0.50529
 C1713 C 0.72734 0.57417 0.00740
 C1714 C 0.73959 0.59101 0.01840
 C1715 C 0.74502 0.61355 0.00600
 C1716 C 0.75764 0.62960 0.01770
 H1717 H 0.74429 0.58919 0.03749
 H1718 H 0.73790 0.61739 -0.01207
 H1719 H 0.72196 0.57701 -0.01147
 H1720 H 0.76503 0.62517 0.03554
 C1721 C 0.22416 0.63908 0.71892
 C1722 C 0.23088 0.62185 0.70432
 C1723 C 0.23071 0.59705 0.71269
 C1724 C 0.23940 0.58030 0.69867
 H1725 H 0.23546 0.62568 0.68559
 H1726 H 0.22343 0.59246 0.73031
 H1727 H 0.21873 0.63448 0.73728
 H1728 H 0.24759 0.58520 0.68158
 C1729 C 0.20951 0.15340 0.20911
 C1730 C 0.20149 0.13960 0.22723
 C1731 C 0.21494 0.11819 0.23516
 C1732 C 0.20644 0.10310 0.25185
 H1733 H 0.18457 0.14302 0.23516
 H1734 H 0.23114 0.11394 0.22606
 H1735 H 0.22639 0.14874 0.20161
 H1736 H 0.18994 0.10732 0.26039
 C1737 C 0.72359 1.15180 0.72208
 C1738 C 0.74481 1.14346 0.71654
 C1739 C 0.75556 1.12524 0.73269
 C1740 C 0.77285 1.11149 0.72500
 H1741 H 0.75308 1.14772 0.69940
 H1742 H 0.74707 1.12091 0.74978
 H1743 H 0.71658 1.14622 0.73959
 H1744 H 0.78101 1.11549 0.70767
 C1745 C 0.69174 0.65102 0.19777
 C1746 C 0.71069 0.63763 0.19402
 C1747 C 0.71470 0.61576 0.20856
 C1748 C 0.73106 0.60021 0.20217
 H1749 H 0.72291 0.64204 0.17975
 H1750 H 0.70310 0.61157 0.22353
 H1751 H 0.68030 0.64595 0.21262
 H1752 H 0.74192 0.60414 0.18653
 C1753 C 0.57153 0.09760 0.72666
 C1754 C 0.55424 0.11091 0.71673
 C1755 C 0.54828 0.13403 0.72707
 C1756 C 0.53131 0.14779 0.71725
 H1757 H 0.54502 0.10536 0.70052
 H1758 H 0.55815 0.13999 0.74274
 H1759 H 0.58082 0.10433 0.74237
 H1760 H 0.52141 0.14161 0.70169
 C1761 C 1.02753 0.10637 0.23206
 C1762 C 1.01857 0.12404 0.21829
 C1763 C 1.01390 0.14704 0.22886
 C1764 C 1.00719 0.16539 0.21474
 H1765 H 1.01688 0.12248 0.19874
 H1766 H 1.01737 0.14932 0.24812
 H1767 H 1.03027 0.10897 0.25139
 H1768 H 1.00328 0.16294 0.19560
 C1769 C 0.18646 0.60031 0.53079
 C1770 C 0.20040 0.61459 0.54334
 C1771 C 0.20834 0.63677 0.53177
 C1772 C 0.22082 0.65263 0.54390
 H1773 H 0.20417 0.61108 0.56248
 H1774 H 0.20300 0.64062 0.51305
 H1775 H 0.18205 0.60504 0.51201
 H1776 H 0.22689 0.64864 0.56233
 C1777 C 0.21540 0.12354 1.05829
 C1778 C 0.21528 0.13374 1.03605
 C1779 C 0.22319 0.15822 1.03173
 C1780 C 0.21979 0.16846 1.00977
 H1781 H 0.20874 0.12414 1.02060
 H1782 H 0.23048 0.16815 1.04661
 H1783 H 0.22305 0.13294 1.07337
 H1784 H 0.21167 0.15835 0.99545
 C1785 C 0.23775 0.70344 0.65712
 C1786 C 0.22707 0.71853 0.64145
 C1787 C 0.23581 0.72225 0.61661
 C1788 C 0.22418 0.73638 0.60076
 H1789 H 0.21062 0.72683 0.64601
 H1790 H 0.25106 0.71241 0.61091
 H1791 H 0.25356 0.69450 0.65144
 H1792 H 0.20909 0.74630 0.60675
 C1793 C 0.20691 0.20774 1.13796
 C1794 C 0.19674 0.22117 1.12039
 C1795 C 0.20891 0.22659 1.09722
 C1796 C 0.19867 0.24070 1.08034
 H1797 H 0.17911 0.22785 1.12258
 H1798 H 0.22605 0.21901 1.09396
 H1799 H 0.22437 0.20093 1.13467
 H1800 H 0.18163 0.24824 1.08421
 C1801 C 0.72420 0.52367 0.08269
 C1802 C 0.70959 0.51959 0.10113
 C1803 C 0.71827 0.51864 0.12641
 C1804 C 0.70361 0.51454 0.14478
 H1805 H 0.69087 0.51834 0.09781
 H1806 H 0.73677 0.52147 0.13004
 H1807 H 0.74270 0.52618 0.08659
 H1808 H 0.68530 0.51090 0.14097
 C1809 C 0.70212 1.03501 0.63000
 C1810 C 0.72500 1.03622 0.63587
 C1811 C 0.73414 1.02747 0.65962
 C1812 C 0.75603 1.03262 0.66687
 H1813 H 0.73711 1.04483 0.62356
 H1814 H 0.72233 1.01843 0.67196
 H1815 H 0.69043 1.02532 0.64196
 H1816 H 0.76739 1.04241 0.65465
 C1817 C 0.52396 0.19331 0.60004
 C1818 C 0.52991 0.21194 0.61322
 C1819 C 0.51914 0.21575 0.63711
 C1820 C 0.52654 0.23316 0.65120
 H1821 H 0.54403 0.22341 0.60762
 H1822 H 0.50637 0.20322 0.64392
 H1823 H 0.51019 0.18190 0.60686
 H1824 H 0.53949 0.24542 0.64423
 C1825 C 1.03102 0.22082 0.10126
 C1826 C 1.03973 0.23734 0.11583
 C1827 C 1.02822 0.24196 0.13897
 C1828 C 1.03927 0.25346 0.15664
 H1829 H 1.05633 0.24578 0.11240
 H1830 H 1.01116 0.23424 0.14226
 H1831 H 1.01488 0.21229 0.10683
 H1832 H 1.05642 0.26099 0.15341
 C1833 C 0.64597 0.18507 0.71056
 C1834 C 0.63398 0.20518 0.70826
 C1835 C 0.61145 0.20777 0.72054
 C1836 C 0.60002 0.22827 0.71956
 H1837 H 0.64118 0.21997 0.69802
 H1838 H 0.60389 0.19265 0.72994
 H1839 H 0.63917 0.17093 0.72206
 H1840 H 0.60746 0.24311 0.70958
 C1841 C 1.14378 0.21609 0.20093
 C1842 C 1.12959 0.20938 0.21920
 C1843 C 1.10802 0.22328 0.22449
 C1844 C 1.09242 0.21605 0.24121
 H1845 H 1.13319 0.19340 0.22974
 H1846 H 1.10440 0.23922 0.21379
 H1847 H 1.13890 0.23196 0.19063
 H1848 H 1.09587 0.19977 0.25139
 C1849 C 0.09833 0.69132 0.53143
 C1850 C 0.11279 0.70881 0.53726
 C1851 C 0.13650 0.71041 0.52702
 C1852 C 0.15049 0.72820 0.53300
 H1853 H 0.10713 0.72243 0.54937
 H1854 H 0.14249 0.69708 0.51468
 H1855 H 0.10412 0.67855 0.51837
 H1856 H 0.14414 0.74136 0.54537
 C1857 C 0.09649 0.22295 1.04338
 C1858 C 0.10826 0.21765 1.02332
 C1859 C 0.12983 0.23071 1.01746
 C1860 C 0.14323 0.22514 0.99866
 H1861 H 0.10234 0.20394 1.01140
 H1862 H 0.13531 0.24466 1.02940
 H1863 H 0.10311 0.23721 1.05431
 H1864 H 0.13809 0.21083 0.98704
 C1865 C 0.59387 0.55145 0.19153
 C1866 C 0.60923 0.55857 0.20841
 C1867 C 0.63018 0.54396 0.21457
 C1868 C 0.64697 0.55164 0.22959
 H1869 H 0.60735 0.57567 0.21651
 H1870 H 0.63245 0.52725 0.20568
 H1871 H 0.59704 0.53459 0.18322
 H1872 H 0.64467 0.56848 0.23819
 C1873 C 0.63692 1.03822 0.72090
 C1874 C 0.65311 1.05035 0.73311
 C1875 C 0.67688 1.04048 0.73702
 C1876 C 0.69295 1.05200 0.74993
 H1877 H 0.64933 1.06765 0.73991
 H1878 H 0.68128 1.02371 0.72913
 H1879 H 0.64190 1.02104 0.71433
 H1880 H 0.68829 1.06863 0.75796
 C1881 C 0.88630 0.46868 0.29001
 C1882 C 0.86943 0.45822 0.27709
 C1883 C 0.84700 0.47057 0.27206
 C1884 C 0.82945 0.46025 0.26005
 H1885 H 0.87153 0.44027 0.27122
 H1886 H 0.84466 0.48823 0.27879
 H1887 H 0.88303 0.48634 0.29639
 H1888 H 0.83191 0.44266 0.25318
 C1889 C 0.92510 0.93730 0.79770
 C1890 C 0.91541 0.95870 0.79904
 C1891 C 0.89207 0.96436 0.78852
 C1892 C 0.88290 0.98568 0.79203
 H1893 H 0.92469 0.97242 0.80852
 H1894 H 0.88210 0.95103 0.77917
 H1895 H 0.91640 0.92399 0.78707
 H1896 H 0.89318 0.99843 0.80193
 C1897 C 0.35289 0.27668 0.76753
 C1898 C 0.36922 0.26605 0.78167
 C1899 C 0.39313 0.26273 0.77284
 C1900 C 0.40884 0.25034 0.78610
 H1901 H 0.36566 0.26089 0.80033
 H1902 H 0.39803 0.27079 0.75553
 H1903 H 0.35754 0.28220 0.74917
 H1904 H 0.40361 0.24145 0.80285
 C1905 C 0.84859 0.29296 0.29171
 C1906 C 0.86617 0.30328 0.27954
 C1907 C 0.88873 0.29080 0.27619
 C1908 C 0.90630 0.30105 0.26402
 H1909 H 0.86447 0.32118 0.27254
 H1910 H 0.89106 0.27322 0.28406
 H1911 H 0.85144 0.27519 0.29893
 H1912 H 0.90371 0.31861 0.25617
 C1913 C 0.39265 0.79219 0.47134
 C1914 C 0.37950 0.77365 0.46553
 C1915 C 0.35538 0.77139 0.47439
 C1916 C 0.34171 0.75384 0.46699
 H1917 H 0.38618 0.76018 0.45381
 H1918 H 0.34856 0.78459 0.48642
 H1919 H 0.38570 0.80477 0.48400
 H1920 H 0.34872 0.74078 0.45491
 C1921 C 0.38151 0.30887 0.93356
 C1922 C 0.36673 0.31426 0.95154
 C1923 C 0.34415 0.30154 0.95467
 C1924 C 0.32914 0.30712 0.97233
 H1925 H 0.37101 0.32805 0.96407
 H1926 H 0.33953 0.28791 0.94201
 H1927 H 0.37670 0.29445 0.92194
 H1928 H 0.33388 0.32101 0.98466
 C1929 C 0.76219 0.45339 0.39905
 C1930 C 0.77390 0.46671 0.38283
 C1931 C 0.76333 0.47304 0.35889
 C1932 C 0.77507 0.48581 0.34225
 H1933 H 0.79167 0.47229 0.38658
 H1934 H 0.74586 0.46672 0.35469
 H1935 H 0.74484 0.44722 0.39408
 H1936 H 0.79253 0.49205 0.34657
 C1937 C 0.81520 0.94781 0.91223
 C1938 C 0.82413 0.96673 0.90056
 C1939 C 0.81248 0.97669 0.87848
 C1940 C 0.82193 0.99446 0.86546
 H1941 H 0.84062 0.97428 0.90620
 H1942 H 0.79650 0.96845 0.87210
 H1943 H 0.79909 0.94035 0.90516
 H1944 H 0.83810 1.00242 0.87168
 C1945 C 0.28056 0.79933 0.35244
 C1946 C 0.27919 0.77702 0.36079
 C1947 C 0.26515 0.77122 0.38241
 C1948 C 0.26820 0.75067 0.39448
 H1949 H 0.28977 0.76328 0.35299
 H1950 H 0.25454 0.78499 0.39021
 H1951 H 0.26912 0.81248 0.36012
 H1952 H 0.27979 0.73745 0.38717
 C1953 C 0.29168 0.27486 0.83160
 C1954 C 0.28075 0.28870 0.84722
 C1955 C 0.27595 0.28067 0.87233
 C1956 C 0.26300 0.29413 0.88655
 H1957 H 0.27603 0.30662 0.84187
 H1958 H 0.28268 0.26380 0.87906
 H1959 H 0.29724 0.25736 0.83771
 H1960 H 0.25552 0.31043 0.87911
 C1961 C 0.45668 0.31096 0.88631
 C1962 C 0.45745 0.28818 0.88007
 C1963 C 0.47283 0.28035 0.86012
 C1964 C 0.47264 0.25808 0.85231
 H1965 H 0.44646 0.27531 0.88917
 H1966 H 0.48320 0.29347 0.85052
 H1967 H 0.46859 0.32308 0.87729
 H1968 H 0.46146 0.24526 0.86130
 C1969 C 0.94192 0.31215 0.39400
 C1970 C 0.94425 0.29133 0.38333
 C1971 C 0.95918 0.28862 0.36185
 C1972 C 0.95620 0.27007 0.34765
 H1973 H 0.93441 0.27618 0.38961
 H1974 H 0.97119 0.30254 0.35659
 H1975 H 0.95254 0.32673 0.38749
 H1976 H 0.94300 0.25711 0.35237
 C1977 C 0.43377 0.37527 0.79899
 C1978 C 0.45491 0.36512 0.79858
 C1979 C 0.45819 0.34140 0.78899
 C1980 C 0.47877 0.33053 0.79237
 H1981 H 0.47030 0.37421 0.80499
 H1982 H 0.44395 0.33287 0.77942
 H1983 H 0.41891 0.36558 0.79195
 H1984 H 0.49246 0.33909 0.80278
 C1985 C 0.94796 0.40548 0.28317
 C1986 C 0.96226 0.38962 0.29424
 C1987 C 0.96924 0.36796 0.28206
 C1988 C 0.98291 0.35179 0.29347
 H1989 H 0.96808 0.39178 0.31286
 H1990 H 0.96238 0.36485 0.26393
 H1991 H 0.94156 0.40207 0.26492
 H1992 H 0.98960 0.35500 0.31165
 C1993 C 0.29657 0.88860 0.46843
 C1994 C 0.28346 0.87356 0.45591
 C1995 C 0.27977 0.84956 0.46577
 C1996 C 0.26638 0.83415 0.45411
 H1997 H 0.27615 0.87852 0.43821
 H1998 H 0.28800 0.84450 0.48305
 H1999 H 0.30437 0.88259 0.48563
 H2000 H 0.25763 0.83942 0.43719
 C2001 C 0.29828 0.40697 0.95480
 C2002 C 0.27646 0.39905 0.95148
 C2003 C 0.26895 0.37735 0.96432
 C2004 C 0.24935 0.36628 0.95775
 H2005 H 0.26451 0.40768 0.93861
 H2006 H 0.28081 0.36910 0.97762
 H2007 H 0.30938 0.39806 0.96837
 H2008 H 0.23812 0.37404 0.94359
 C2009 C 0.78881 0.35845 0.27976
 C2010 C 0.77280 0.37308 0.28900
 C2011 C 0.76661 0.39553 0.27652
 C2012 C 0.75122 0.41060 0.28603
 H2013 H 0.76465 0.36911 0.30628
 H2014 H 0.77533 0.40003 0.25961
 H2015 H 0.79748 0.36367 0.26303
 H2016 H 0.74281 0.40615 0.30311
   
